drugbank_target|P36544 Neuronal acetylcholine receptor subunit alpha-7 (DB00122; DB00184; DB00241; DB00306; DB00312; DB00333; DB00418; DB00463; DB00514; DB00599; DB00657; DB00674; DB00794; DB00849; DB00898; DB00915; DB01174; DB01199; DB01273; DB01351; DB01352; DB01353; DB01354; DB01355; DB01483; DB01496; DB03128; DB05137; DB05708; DB05740; DB07720; DB09028; DB09061; DB11726; DB14006; DB14009; DB14011)
 OpenBabel12092120093D

  0  0  0     0  0            999 V3000
M  V30 BEGIN CTAB
M  V30 COUNTS 7909 8019 0 0 0
M  V30 BEGIN ATOM
M  V30 1 H -0.908 1.98254 -0.117106 0
M  V30 2 N 0 1.576 0 0
M  V30 3 C 0.933 2.03868 1.02534 0
M  V30 4 C 1.911 0.928543 1.3348 0
M  V30 5 O 3.095 1.19667 1.45644 0
M  V30 6 C 0.222 2.43627 2.35294 0
M  V30 7 C -0.732 3.65373 2.2001 0
M  V30 8 S 0.101 5.13292 1.52614 0
M  V30 9 C 1.257 5.56322 2.86805 0
M  V30 10 H 1.49 2.90518 0.631377 0
M  V30 11 H -0.977 1.52953 0.210867 0
M  V30 12 H 0.981 2.67203 3.11629 0
M  V30 13 H -0.358 1.57376 2.7183 0
M  V30 14 H -1.165 3.90944 3.18086 0
M  V30 15 H -1.563 3.418 1.51819 0
M  V30 16 H 0.729 5.58782 3.83104 0
M  V30 17 H 1.672 6.56266 2.65933 0
M  V30 18 H 2.08 4.83886 2.90714 0
M  V30 19 N 1.4781 -0.272755 1.55222 0
M  V30 20 C 2.8941 -0.619959 1.47067 0
M  V30 21 C 3.0941 -1.895 0.684978 0
M  V30 22 O 2.1501 -2.51675 0.203931 0
M  V30 23 C 3.4631 -0.746693 2.91282 0
M  V30 24 C 5.0111 -0.840731 3.01497 0
M  V30 25 C 5.4861 -0.99924 4.46967 0
M  V30 26 N 6.9771 -1.06476 4.50796 0
M  V30 27 C 7.7121 -1.20621 5.6057 0
M  V30 28 N 7.2081 -1.31483 6.80209 0
M  V30 29 N 9.0011 -1.23733 5.48312 0
M  V30 30 H 1.1521 0.564606 2.04758 0
M  V30 31 H 3.4151 0.191177 0.928523 0
M  V30 32 H 3.1211 0.119753 3.51496 0
M  V30 33 H 2.9951 -1.6269 3.40311 0
M  V30 34 H 5.3821 -1.69764 2.41379 0
M  V30 35 H 5.4631 0.0640874 2.5572 0
M  V30 36 H 5.1071 -0.146984 5.07687 0
M  V30 37 H 5.0371 -1.91871 4.90401 0
M  V30 38 H 7.5281 -0.993196 3.64615 0
M  V30 39 H 7.8411 -1.42111 7.59621 0
M  V30 40 H 6.1861 -1.28487 6.8302 0
M  V30 41 H 9.3771 -1.14877 4.53785 0
M  V30 42 H 9.5501 -1.34412 6.33906 0
M  V30 43 N 2.9562 -1.48159 -0.537278 0
M  V30 44 C 4.1962 -1.57397 -1.30405 0
M  V30 45 C 4.5602 -0.239202 -1.90504 0
M  V30 46 O 5.7612 -0.206528 -2.68005 0
M  V30 47 C 4.0322 -2.6754 -2.36974 0
M  V30 48 S 5.5912 -2.96496 -3.23475 0
M  V30 49 H 2.4092 -0.555577 -0.443684 0
M  V30 50 H 5.0112 -1.85644 -0.612912 0
M  V30 51 H 3.7152 -3.63092 -1.91291 0
M  V30 52 H 3.2462 -2.41172 -3.10805 0
M  V30 53 H 5.2612 -2.35234 -4.36897 0
M  V30 54 N 4.4343 0.785586 -1.36625 0
M  V30 55 C 5.6593 1.57963 -1.34397 0
M  V30 56 C 6.0843 1.87964 0.071526 0
M  V30 57 O 5.4423 1.48182 1.0446 0
M  V30 58 C 5.4903 2.87511 -2.17646 0
M  V30 59 O 4.5943 3.81281 -1.57158 0
M  V30 60 H 3.9353 0.479014 -0.459828 0
M  V30 61 H 6.4653 0.973411 -1.79961 0
M  V30 62 H 6.4753 3.36745 -2.30362 0
M  V30 63 H 5.1503 2.65002 -3.20541 0
M  V30 64 H 3.7273 3.39885 -1.53403 0
M  V30 65 N 5.9124 1.20967 1.01018 0
M  V30 66 C 7.3234 1.02319 1.56165 0
M  V30 67 C 7.6744 -0.418546 1.91684 0
M  V30 68 O 6.7994 -1.30096 1.72928 0
M  V30 69 C 7.3944 1.85109 2.8376 0
M  V30 70 C 5.9534 1.70809 3.35412 0
M  V30 71 C 5.1004 1.82643 2.08655 0
M  V30 72 H 8.0514 1.35065 0.833255 0
M  V30 73 H 8.0724 1.35827 3.55431 0
M  V30 74 H 7.5844 2.90035 2.57878 0
M  V30 75 H 5.6854 0.685464 3.66241 0
M  V30 76 H 5.7984 2.52467 4.07182 0
M  V30 77 H 4.1624 1.25896 2.21409 0
M  V30 78 H 4.9454 2.89066 1.85191 0
M  V30 79 N 7.3905 -1.2043 1.01659 0
M  V30 80 C 8.6385 -1.89423 0.704522 0
M  V30 81 C 8.9595 -1.79231 -0.768197 0
M  V30 82 O 8.2295 -1.1947 -1.55254 0
M  V30 83 H 6.8095 -0.701178 0.257602 0
M  V30 84 H 9.4715 -1.4626 1.28818 0
M  V30 85 H 8.5675 -2.96052 0.987916 0
M  V30 86 N 8.8686 -0.792821 -1.36206 0
M  V30 87 C 10.1166 -0.366062 -1.98757 0
M  V30 88 C 10.4376 1.0668 -1.63231 0
M  V30 89 O 9.7076 1.73587 -0.907978 0
M  V30 90 H 8.2876 -0.132364 -0.735179 0
M  V30 91 H 10.9496 -1.01562 -1.66347 0
M  V30 92 H 10.0456 -0.460638 -3.08682 0
M  V30 93 N 10.3467 1.47872 -0.545128 0
M  V30 94 C 11.5927 2.02793 -0.0166104 0
M  V30 95 C 11.9257 1.41987 1.32489 0
M  V30 96 O 11.2007 0.571045 1.85928 0
M  V30 97 C 11.4837 3.59989 0.0893294 0
M  V30 98 C 11.3367 4.3125 -1.27841 0
M  V30 99 C 12.6557 4.32606 0.808724 0
M  V30 100 H 9.7747 0.736962 -0.00751035 0
M  V30 101 H 12.4167 1.76433 -0.705085 0
M  V30 102 H 10.5667 3.82579 0.675681 0
M  V30 103 H 12.2387 4.20035 -1.90704 0
M  V30 104 H 10.4817 3.92076 -1.85632 0
M  V30 105 H 11.1527 5.39736 -1.15713 0
M  V30 106 H 13.6287 4.14936 0.310992 0
M  V30 107 H 12.5047 5.42251 0.851782 0
M  V30 108 H 12.7657 4.00963 1.86229 0
M  V30 109 N 11.8248 0.280983 1.55075 0
M  V30 110 C 13.0708 -0.327573 2.00745 0
M  V30 111 C 13.4258 -1.53045 1.16598 0
M  V30 112 O 12.7188 -1.90221 0.229451 0
M  V30 113 C 12.9128 -0.754656 3.49342 0
M  V30 114 C 12.7418 0.40529 4.4787 0
M  V30 115 C 11.5118 0.890947 4.97383 0
M  V30 116 C 13.7098 1.24371 4.99035 0
M  V30 117 N 11.6918 2.01975 5.79724 0
M  V30 118 C 13.0628 2.22031 5.7888 0
M  V30 119 C 15.1178 1.27638 4.81262 0
M  V30 120 C 13.8208 3.22709 6.42846 0
M  V30 121 C 15.8468 2.27164 5.46031 0
M  V30 122 C 15.2088 3.23556 6.25692 0
M  V30 123 H 11.3078 -0.0848774 0.77738 0
M  V30 124 H 13.8918 0.406342 1.90413 0
M  V30 125 H 12.0628 -1.45778 3.60005 0
M  V30 126 H 13.7948 -1.34105 3.81835 0
M  V30 127 H 10.5498 0.469262 4.71269 0
M  V30 128 H 10.9738 2.58794 6.25584 0
M  V30 129 H 15.6158 0.544936 4.19274 0
M  V30 130 H 13.3338 3.96784 7.0398 0
M  V30 131 H 16.9198 2.30441 5.34217 0
M  V30 132 H 15.7998 3.99309 6.74924 0
M  V30 133 N 13.3029 -1.57598 0.00835791 0
M  V30 134 C 14.2329 -2.1198 -0.979113 0
M  V30 135 C 15.2139 -1.03091 -1.35301 0
M  V30 136 O 16.3989 -1.30818 -1.43528 0
M  V30 137 C 13.5289 -2.62995 -2.26828 0
M  V30 138 C 12.4829 -3.76485 -2.03576 0
M  V30 139 C 11.8089 -4.13846 -3.38579 0
M  V30 140 C 13.1089 -5.0342 -1.39161 0
M  V30 141 H 14.8029 -2.94738 -0.526281 0
M  V30 142 H 12.3489 -1.41783 -0.251704 0
M  V30 143 H 14.3019 -2.99669 -2.96271 0
M  V30 144 H 13.0259 -1.7737 -2.7424 0
M  V30 145 H 11.6849 -3.40217 -1.36557 0
M  V30 146 H 11.3329 -3.25232 -3.83709 0
M  V30 147 H 11.0329 -4.90312 -3.23834 0
M  V30 148 H 12.5569 -4.53086 -4.09323 0
M  V30 149 H 13.9709 -5.37812 -1.98573 0
M  V30 150 H 12.3679 -5.84746 -1.34878 0
M  V30 151 H 13.4379 -4.83548 -0.361868 0
M  V30 152 N 14.781 0.264519 -1.55364 0
M  V30 153 C 15.744 1.31046 -1.88042 0
M  V30 154 C 16.744 1.41943 -0.755569 0
M  V30 155 O 17.934 1.40947 -1.02369 0
M  V30 156 C 15.066 2.69067 -2.09323 0
M  V30 157 H 16.259 1.03297 -2.81549 0
M  V30 158 H 13.812 0.502989 -1.47986 0
M  V30 159 H 14.547 3.01982 -1.18226 0
M  V30 160 H 14.332 2.62542 -2.91229 0
M  V30 161 H 15.822 3.44623 -2.35848 0
M  V30 162 N 16.2591 1.48442 0.529413 0
M  V30 163 C 17.1891 1.65902 1.64313 0
M  V30 164 C 18.1701 0.507897 1.6234 0
M  V30 165 O 19.3551 0.740503 1.79528 0
M  V30 166 C 16.4851 1.69911 3.02898 0
M  V30 167 C 15.4391 2.8453 3.19729 0
M  V30 168 C 14.7651 2.73629 4.59381 0
M  V30 169 C 16.0651 4.25821 3.02447 0
M  V30 170 H 17.7591 2.5914 1.49955 0
M  V30 171 H 15.3051 1.24709 0.719982 0
M  V30 172 H 17.2581 1.80715 3.80684 0
M  V30 173 H 15.9821 0.732524 3.18279 0
M  V30 174 H 14.6411 2.73283 2.44361 0
M  V30 175 H 14.2891 1.74938 4.71599 0
M  V30 176 H 13.9891 3.50541 4.71588 0
M  V30 177 H 15.5131 2.86401 5.39265 0
M  V30 178 H 16.9271 4.37898 3.70024 0
M  V30 179 H 15.3241 5.03735 3.26146 0
M  V30 180 H 16.3941 4.42244 1.98867 0
M  V30 181 N 17.7372 -0.778329 1.37039 0
M  V30 182 C 18.7002 -1.87301 1.32102 0
M  V30 183 C 19.7002 -1.59198 0.226405 0
M  V30 184 O 20.8902 -1.67403 0.481861 0
M  V30 185 C 18.0222 -3.24309 1.05055 0
M  V30 186 H 19.2152 -1.93093 2.29467 0
M  V30 187 H 16.7682 -0.977358 1.21973 0
M  V30 188 H 17.5032 -3.24196 0.0819373 0
M  V30 189 H 17.2882 -3.46098 1.84279 0
M  V30 190 H 18.7782 -4.04382 1.04234 0
M  V30 191 N 19.2153 -1.21501 -1.00376 0
M  V30 192 C 20.1783 -0.976927 -2.07337 0
M  V30 193 C 21.1783 0.0525322 -1.60714 0
M  V30 194 O 22.3683 -0.184869 -1.73216 0
M  V30 195 C 19.5003 -0.473423 -3.37597 0
M  V30 196 H 20.6933 -1.92587 -2.29892 0
M  V30 197 H 18.2463 -1.03217 -1.17371 0
M  V30 198 H 18.9813 0.480379 -3.20722 0
M  V30 199 H 18.7663 -1.216 -3.72768 0
M  V30 200 H 20.2563 -0.32675 -4.1632 0
M  V30 201 N 20.6934 1.19889 -1.02296 0
M  V30 202 C 21.9184 1.9393 -0.735237 0
M  V30 203 C 22.3434 1.74639 0.698782 0
M  V30 204 O 21.7014 1.04481 1.48167 0
M  V30 205 C 21.7494 3.43916 -1.08417 0
M  V30 206 O 20.8534 4.11917 -0.199446 0
M  V30 207 H 20.1944 0.605645 -0.272196 0
M  V30 208 H 22.7244 1.52137 -1.36804 0
M  V30 209 H 22.7344 3.9456 -1.03856 0
M  V30 210 H 21.4094 3.5728 -2.12894 0
M  V30 211 H 19.9864 3.71666 -0.303136 0
M  V30 212 N 22.1715 0.800033 1.35784 0
M  V30 213 C 23.1015 0.220184 2.3246 0
M  V30 214 C 24.0825 -0.65073 1.57161 0
M  V30 215 O 25.2675 -0.582359 1.85263 0
M  V30 216 C 22.3975 -0.637353 3.41402 0
M  V30 217 C 21.3515 0.134531 4.27789 0
M  V30 218 C 20.6775 -0.844285 5.27992 0
M  V30 219 C 21.9775 1.32979 5.05088 0
M  V30 220 H 23.6715 1.02787 2.81203 0
M  V30 221 H 21.2175 0.495717 1.35199 0
M  V30 222 H 23.1705 -1.05302 4.08031 0
M  V30 223 H 21.8945 -1.47785 2.91251 0
M  V30 224 H 20.5535 0.531296 3.6273 0
M  V30 225 H 20.2015 -1.68011 4.74111 0
M  V30 226 H 19.9015 -0.332184 5.8666 0
M  V30 227 H 21.4255 -1.2583 5.97494 0
M  V30 228 H 22.8395 0.98934 5.64699 0
M  V30 229 H 21.2365 1.77593 5.7322 0
M  V30 230 H 22.3065 2.11978 4.36111 0
M  V30 231 N 23.6496 -1.47581 0.552962 0
M  V30 232 C 24.5796 -2.32762 -0.185451 0
M  V30 233 C 25.5606 -1.43527 -0.912905 0
M  V30 234 O 26.7456 -1.72388 -0.894201 0
M  V30 235 C 23.8756 -3.25219 -1.21859 0
M  V30 236 C 22.8296 -4.23661 -0.607864 0
M  V30 237 C 22.1556 -5.05413 -1.74533 0
M  V30 238 C 23.4556 -5.20481 0.435582 0
M  V30 239 H 25.1496 -2.94749 0.525684 0
M  V30 240 H 22.6956 -1.41738 0.254251 0
M  V30 241 H 24.6486 -3.8365 -1.7433 0
M  V30 242 H 23.3726 -2.61279 -1.95961 0
M  V30 243 H 22.0316 -3.66451 -0.104489 0
M  V30 244 H 21.6796 -4.3788 -2.47529 0
M  V30 245 H 21.3796 -5.72059 -1.34249 0
M  V30 246 H 22.9036 -5.66701 -2.27338 0
M  V30 247 H 24.3176 -5.733 -0.00290157 0
M  V30 248 H 22.7146 -5.95305 0.757067 0
M  V30 249 H 23.7846 -4.66217 1.33303 0
M  V30 250 N 25.1277 -0.289203 -1.54924 0
M  V30 251 C 26.0777 0.606939 -2.19773 0
M  V30 252 C 27.0617 1.10783 -1.16687 0
M  V30 253 O 28.2537 1.05057 -1.4245 0
M  V30 254 C 25.3827 1.78398 -2.93307 0
M  V30 255 C 24.4687 1.29961 -4.03697 0
M  V30 256 N 24.8597 0.532377 -5.0299 0
M  V30 257 C 23.1577 1.58136 -4.17024 0
M  V30 258 C 23.8587 0.275912 -5.81045 0
M  V30 259 N 22.8347 0.852365 -5.36876 0
M  V30 260 H 26.6367 0.0130779 -2.93897 0
M  V30 261 H 24.1507 -0.09341 -1.62131 0
M  V30 262 H 26.1477 2.43741 -3.38225 0
M  V30 263 H 24.8077 2.38166 -2.20697 0
M  V30 264 H 25.8187 0.17838 -5.17593 0
M  V30 265 H 22.4957 2.18738 -3.55612 0
M  V30 266 H 23.8857 -0.339502 -6.71042 0
M  V30 267 N 26.6058 1.57591 -0.0167156 0
M  V30 268 C 27.8518 1.91567 0.665582 0
M  V30 269 C 28.1848 0.892298 1.72487 0
M  V30 270 O 27.4598 -0.0867127 1.94307 0
M  V30 271 C 27.7428 3.36069 1.29342 0
M  V30 272 C 27.5958 4.49135 0.244541 0
M  V30 273 C 28.9148 3.803 2.21495 0
M  V30 274 H 26.0338 0.69666 0.240488 0
M  V30 275 H 28.6758 1.89866 -0.0714356 0
M  V30 276 H 26.8258 3.3765 1.92158 0
M  V30 277 H 28.4978 4.59689 -0.385228 0
M  V30 278 H 26.7408 4.3165 -0.431379 0
M  V30 279 H 27.4118 5.47242 0.723207 0
M  V30 280 H 29.8878 3.80377 1.68678 0
M  V30 281 H 28.7638 4.82127 2.62382 0
M  V30 282 H 29.0248 3.15104 3.101 0
M  V30 283 N 28.0839 -0.256276 1.55502 0
M  V30 284 C 29.3089 -1.00766 1.81276 0
M  V30 285 C 29.7339 -1.78524 0.59252 0
M  V30 286 O 29.0919 -1.75413 -0.45827 0
M  V30 287 C 29.1399 -1.92869 3.04687 0
M  V30 288 O 28.2439 -3.019 2.80945 0
M  V30 289 H 27.5849 -0.287224 0.598664 0
M  V30 290 H 30.1149 -0.280109 2.02674 0
M  V30 291 H 30.1249 -2.34511 3.33869 0
M  V30 292 H 28.7999 -1.35689 3.93143 0
M  V30 293 H 27.3769 -2.64454 2.62904 0
M  V30 294 N 29.562 -1.4872 -0.521534 0
M  V30 295 C 30.492 -1.66771 -1.63431 0
M  V30 296 C 31.473 -0.516499 -1.62069 0
M  V30 297 O 32.658 -0.750013 -1.79132 0
M  V30 298 C 29.788 -1.71515 -3.01993 0
M  V30 299 C 28.742 -2.86222 -3.18216 0
M  V30 300 C 28.068 -2.76061 -4.57924 0
M  V30 301 C 29.368 -4.27419 -3.00184 0
M  V30 302 H 31.062 -2.59932 -1.48579 0
M  V30 303 H 28.608 -1.25089 -0.713358 0
M  V30 304 H 30.561 -1.82731 -3.7972 0
M  V30 305 H 29.285 -0.749393 -3.17886 0
M  V30 306 H 27.944 -2.74575 -2.42908 0
M  V30 307 H 27.592 -1.77437 -4.70665 0
M  V30 308 H 27.292 -3.53037 -4.69722 0
M  V30 309 H 28.816 -2.89256 -5.37739 0
M  V30 310 H 30.23 -4.39855 -3.67697 0
M  V30 311 H 28.627 -5.05458 -3.2347 0
M  V30 312 H 29.697 -4.43293 -1.96518 0
M  V30 313 N 31.0401 0.771051 -1.3745 0
M  V30 314 C 31.9721 1.89352 -1.29146 0
M  V30 315 C 32.9851 1.61477 -0.207124 0
M  V30 316 O 34.1741 1.72382 -0.463324 0
M  V30 317 C 31.2741 3.24596 -0.974195 0
M  V30 318 C 30.4471 3.80111 -2.16413 0
M  V30 319 C 29.5061 4.93832 -1.81703 0
M  V30 320 O 28.5321 5.09382 -2.54006 0
M  V30 321 N 29.7341 5.75483 -0.761573 0
M  V30 322 H 32.4991 1.96991 -2.25864 0
M  V30 323 H 30.0601 0.950191 -1.31084 0
M  V30 324 H 32.0521 3.98193 -0.722828 0
M  V30 325 H 30.6221 3.12454 -0.0955527 0
M  V30 326 H 29.8421 2.98284 -2.57721 0
M  V30 327 H 31.1301 4.13932 -2.95867 0
M  V30 328 H 30.5281 5.65469 -0.161609 0
M  V30 329 H 29.0851 6.49302 -0.570064 0
M  V30 330 N 32.5182 1.22032 0.997298 0
M  V30 331 C 33.7662 1.04016 1.73278 0
M  V30 332 C 34.0872 -0.426255 1.90284 0
M  V30 333 O 33.3572 -1.30694 1.45931 0
M  V30 334 H 31.9372 0.381897 0.642 0
M  V30 335 H 34.5992 1.5347 1.20137 0
M  V30 336 H 33.6952 1.51441 2.72896 0
M  V30 337 N 33.9963 -1.19345 1.0293 0
M  V30 338 C 34.9063 -2.26245 0.620515 0
M  V30 339 C 35.9223 -1.70486 -0.347928 0
M  V30 340 O 37.0983 -2.00347 -0.205704 0
M  V30 341 C 34.1633 -3.46693 -0.0218957 0
M  V30 342 C 33.2243 -4.17632 0.994102 0
M  V30 343 C 32.4573 -5.32329 0.382253 0
M  V30 344 O 32.6803 -5.64552 -0.814676 0
M  V30 345 O 31.6143 -5.91664 1.10531 0
M  V30 346 H 35.4403 -2.63453 1.51083 0
M  V30 347 H 33.0253 -1.26207 0.799513 0
M  V30 348 H 34.9073 -4.19683 -0.380072 0
M  V30 349 H 33.5823 -3.11333 -0.886209 0
M  V30 350 H 32.4893 -3.4676 1.40387 0
M  V30 351 H 33.8223 -4.56964 1.8288 0
M  V30 352 N 35.4744 -0.807222 -1.35358 0
M  V30 353 C 36.7214 -0.387888 -1.9875 0
M  V30 354 C 37.0494 1.04509 -1.64037 0
M  V30 355 O 36.3044 1.73986 -0.895946 0
M  V30 356 C 36.6034 -0.519036 -3.53611 0
M  V30 357 C 36.2694 -1.91542 -4.08194 0
M  V30 358 C 34.9314 -2.29745 -4.22813 0
M  V30 359 C 37.2834 -2.82896 -4.37744 0
M  V30 360 C 34.6114 -3.58668 -4.643 0
M  V30 361 C 36.9634 -4.11265 -4.8067 0
M  V30 362 C 35.6274 -4.49466 -4.93494 0
M  V30 363 H 34.8974 -0.141938 -0.727279 0
M  V30 364 H 37.5444 -1.02814 -1.6156 0
M  V30 365 H 35.8494 0.204658 -3.91265 0
M  V30 366 H 37.5464 -0.175345 -4.00616 0
M  V30 367 H 34.1364 -1.60862 -3.97268 0
M  V30 368 H 38.3204 -2.54629 -4.26002 0
M  V30 369 H 33.5764 -3.88113 -4.72418 0
M  V30 370 H 37.7504 -4.82153 -5.02496 0
M  V30 371 H 35.3774 -5.49418 -5.25399 0
M  V30 372 N 36.9525 1.47285 -0.560781 0
M  V30 373 C 37.8845 2.28118 0.222438 0
M  V30 374 C 38.8975 1.37219 0.876056 0
M  V30 375 O 40.0865 1.62011 0.749307 0
M  V30 376 C 37.1865 3.1159 1.33285 0
M  V30 377 C 36.3595 4.30473 0.77534 0
M  V30 378 C 35.4185 4.95513 1.77069 0
M  V30 379 O 34.4445 5.53792 1.31539 0
M  V30 380 N 35.6465 4.90531 3.10418 0
M  V30 381 H 38.4115 2.95976 -0.470958 0
M  V30 382 H 35.9725 1.56955 -0.39709 0
M  V30 383 H 37.9645 3.51967 1.99752 0
M  V30 384 H 36.5345 2.45951 1.92943 0
M  V30 385 H 35.7545 3.94144 -0.0662113 0
M  V30 386 H 37.0425 5.07362 0.382272 0
M  V30 387 H 36.4405 4.44389 3.5005 0
M  V30 388 H 34.9975 5.34917 3.72434 0
M  V30 389 N 38.4306 0.297415 1.54768 0
M  V30 390 C 39.8466 -0.0560823 1.59501 0
M  V30 391 C 40.0466 -1.52725 1.31444 0
M  V30 392 O 39.1026 -2.27947 1.08611 0
M  V30 393 C 40.4156 0.338631 2.98787 0
M  V30 394 C 41.9636 0.287097 3.11681 0
M  V30 395 C 42.4386 0.656579 4.53269 0
M  V30 396 N 43.9296 0.608977 4.59179 0
M  V30 397 C 44.6646 0.867385 5.66802 0
M  V30 398 N 44.1606 1.19157 6.82476 0
M  V30 399 N 45.9536 0.794687 5.56454 0
M  V30 400 H 38.1046 1.25624 1.71267 0
M  V30 401 H 40.3676 0.509057 0.799728 0
M  V30 402 H 40.0736 1.36263 3.2423 0
M  V30 403 H 39.9476 -0.309508 3.75928 0
M  V30 404 H 42.3346 -0.727649 2.85988 0
M  V30 405 H 42.4156 0.969809 2.36703 0
M  V30 406 H 42.0596 1.66912 4.7969 0
M  V30 407 H 41.9896 -0.0481649 5.26578 0
M  V30 408 H 44.4806 0.369198 3.76092 0
M  V30 409 H 44.7936 1.37482 7.60473 0
M  V30 410 H 43.1386 1.22958 6.84037 0
M  V30 411 H 46.3296 0.541098 4.64962 0
M  V30 412 H 46.5026 0.999445 6.40246 0
M  V30 413 N 39.9087 -1.5758 0.0250728 0
M  V30 414 C 40.8557 -2.09973 -0.958129 0
M  V30 415 C 41.8257 -1.00085 -1.3256 0
M  V30 416 O 43.0107 -1.27481 -1.41962 0
M  V30 417 C 40.1507 -2.62812 -2.2366 0
M  V30 418 C 39.2637 -3.86693 -1.92594 0
M  V30 419 C 38.3987 -4.27941 -3.14707 0
M  V30 420 C 37.4377 -5.44591 -2.79442 0
M  V30 421 N 36.5747 -5.81014 -3.94167 0
M  V30 422 H 41.4147 -2.937 -0.504428 0
M  V30 423 H 38.9517 -1.45172 -0.237392 0
M  V30 424 H 40.9097 -2.91536 -2.98434 0
M  V30 425 H 39.5397 -1.81922 -2.66654 0
M  V30 426 H 38.5917 -3.64723 -1.0808 0
M  V30 427 H 39.9037 -4.71547 -1.62619 0
M  V30 428 H 39.0577 -4.58079 -3.97804 0
M  V30 429 H 37.7967 -3.41845 -3.4784 0
M  V30 430 H 36.8017 -5.1415 -1.94755 0
M  V30 431 H 38.0267 -6.32382 -2.47528 0
M  V30 432 H 35.9727 -4.97874 -4.2715 0
M  V30 433 H 35.8897 -6.60498 -3.67801 0
M  V30 434 H 37.1577 -6.15756 -4.7798 0
M  V30 435 N 41.3868 0.248026 -1.55636 0
M  V30 436 C 42.3168 1.31079 -1.93237 0
M  V30 437 C 43.2978 1.50264 -0.797174 0
M  V30 438 O 44.4828 1.62891 -1.05737 0
M  V30 439 C 41.6128 2.66575 -2.22609 0
M  V30 440 C 40.5668 2.62087 -3.3837 0
M  V30 441 C 39.8928 4.01369 -3.53281 0
M  V30 442 C 41.1928 2.19171 -4.7409 0
M  V30 443 H 42.8868 0.998556 -2.82257 0
M  V30 444 H 40.4328 0.47891 -1.35803 0
M  V30 445 H 42.3858 3.41057 -2.47503 0
M  V30 446 H 41.1098 2.99432 -1.30414 0
M  V30 447 H 39.7688 1.90063 -3.13483 0
M  V30 448 H 39.4168 4.31489 -2.58508 0
M  V30 449 H 39.1168 3.99254 -4.31127 0
M  V30 450 H 40.6408 4.77552 -3.80495 0
M  V30 451 H 42.0548 2.83384 -4.98363 0
M  V30 452 H 40.4518 2.2817 -5.5503 0
M  V30 453 H 41.5218 1.14336 -4.71227 0
M  V30 454 N 42.8649 1.48995 0.513639 0
M  V30 455 C 44.0949 1.61297 1.291 0
M  V30 456 C 44.5029 0.278656 1.87137 0
M  V30 457 O 43.8459 -0.744325 1.67945 0
M  V30 458 C 43.9079 2.61326 2.46879 0
M  V30 459 C 43.5719 4.05993 2.09807 0
M  V30 460 C 44.5689 4.93183 1.64519 0
M  V30 461 C 42.2539 4.51642 2.19829 0
M  V30 462 C 44.2479 6.24056 1.2974 0
M  V30 463 C 41.9349 5.82532 1.84662 0
M  V30 464 C 42.9329 6.68562 1.3969 0
M  V30 465 O 42.6209 7.97014 1.04992 0
M  V30 466 H 42.3529 0.546236 0.39825 0
M  V30 467 H 44.9069 1.95673 0.62459 0
M  V30 468 H 43.1369 2.22104 3.16554 0
M  V30 469 H 44.8259 2.6329 3.08923 0
M  V30 470 H 45.5919 4.59147 1.56233 0
M  V30 471 H 41.4709 3.84855 2.53786 0
M  V30 472 H 45.0149 6.91161 0.945659 0
M  V30 473 H 40.9119 6.16099 1.92594 0
M  V30 474 H 41.6799 8.09913 1.18249 0
M  V30 475 N 44.343 -0.763751 1.37857 0
M  V30 476 C 45.29 -1.87726 1.34267 0
M  V30 477 C 46.26 -1.64807 0.206879 0
M  V30 478 O 47.445 -1.86613 0.397508 0
M  V30 479 C 44.585 -3.24896 1.16346 0
M  V30 480 C 43.698 -3.59716 2.39225 0
M  V30 481 C 42.833 -4.86137 2.14114 0
M  V30 482 C 41.872 -5.13711 3.32817 0
M  V30 483 N 41.009 -6.31323 3.07206 0
M  V30 484 H 45.849 -1.90129 2.29466 0
M  V30 485 H 43.386 -0.929433 1.14017 0
M  V30 486 H 45.344 -4.04036 1.03975 0
M  V30 487 H 43.974 -3.21847 0.247909 0
M  V30 488 H 43.026 -2.75498 2.62307 0
M  V30 489 H 44.338 -3.76027 3.27728 0
M  V30 490 H 43.492 -5.73198 1.9882 0
M  V30 491 H 42.231 -4.71945 1.22961 0
M  V30 492 H 41.236 -4.25123 3.48641 0
M  V30 493 H 42.461 -5.29807 4.24832 0
M  V30 494 H 40.407 -6.18474 2.1869 0
M  V30 495 H 40.324 -6.48087 3.89254 0
M  V30 496 H 41.592 -7.213 2.95546 0
M  V30 497 N 45.8211 -1.22559 -0.990812 0
M  V30 498 C 46.7311 -1.01394 -2.11557 0
M  V30 499 C 47.7471 0.0383962 -1.73958 0
M  V30 500 O 48.9231 -0.154787 -2.00804 0
M  V30 501 C 45.9881 -0.596569 -3.41529 0
M  V30 502 C 45.0491 -1.72276 -3.93217 0
M  V30 503 C 44.2821 -1.32521 -5.16985 0
M  V30 504 O 44.5051 -0.204909 -5.70032 0
M  V30 505 O 43.4391 -2.14247 -5.62478 0
M  V30 506 H 47.2651 -1.95633 -2.32296 0
M  V30 507 H 44.8501 -1.01172 -1.0993 0
M  V30 508 H 46.7321 -0.374263 -4.19735 0
M  V30 509 H 45.4071 0.316939 -3.22145 0
M  V30 510 H 44.3141 -1.99961 -3.16174 0
M  V30 511 H 45.6471 -2.61421 -4.17037 0
M  V30 512 N 47.2992 1.18797 -1.03562 0
M  V30 513 C 48.2292 2.24472 -0.643019 0
M  V30 514 C 49.2102 1.66433 0.351283 0
M  V30 515 O 50.3952 1.92803 0.232505 0
M  V30 516 C 47.5252 3.473 4.24935e-05 0
M  V30 517 C 46.4792 4.18055 -0.917257 0
M  V30 518 C 45.8052 5.34519 -0.138941 0
M  V30 519 C 47.1052 4.72109 -2.23407 0
M  V30 520 H 48.7992 2.57566 -1.52643 0
M  V30 521 H 46.3452 1.23806 -0.735394 0
M  V30 522 H 48.2982 4.20426 0.286383 0
M  V30 523 H 47.0222 3.13424 0.918299 0
M  V30 524 H 45.6812 3.46821 -1.1879 0
M  V30 525 H 45.3292 4.96891 0.781562 0
M  V30 526 H 45.0292 5.82794 -0.750005 0
M  V30 527 H 46.5532 6.10438 0.1405 0
M  V30 528 H 47.9672 5.36955 -2.00879 0
M  V30 529 H 46.3642 5.30897 -2.79765 0
M  V30 530 H 47.4342 3.89807 -2.88407 0
M  V30 531 N 48.7773 0.814389 1.34928 0
M  V30 532 C 50.0233 0.399013 1.98836 0
M  V30 533 C 50.3563 -1.03314 1.64438 0
M  V30 534 O 49.6313 -1.71811 0.911659 0
M  V30 535 C 49.9143 0.591629 3.55207 0
M  V30 536 C 49.7673 2.06928 3.99376 0
M  V30 537 C 51.0863 0.022199 4.40094 0
M  V30 538 H 48.2053 0.146451 0.722303 0
M  V30 539 H 50.8473 1.02537 1.59957 0
M  V30 540 H 48.9973 0.0584441 3.88456 0
M  V30 541 H 50.6693 2.66544 3.76499 0
M  V30 542 H 48.9123 2.56287 3.49999 0
M  V30 543 H 49.5833 2.1549 5.08201 0
M  V30 544 H 52.0593 0.477643 4.13349 0
M  V30 545 H 50.9353 0.186832 5.48582 0
M  V30 546 H 51.1963 -1.07215 4.28902 0
M  V30 547 N 50.2554 -1.46986 0.568584 0
M  V30 548 C 51.2024 -2.30153 -0.172707 0
M  V30 549 C 52.1724 -1.39759 -0.897586 0
M  V30 550 O 53.3574 -1.68716 -0.891044 0
M  V30 551 C 50.4974 -3.23952 -1.1895 0
M  V30 552 C 49.6104 -4.29441 -0.469517 0
M  V30 553 C 48.7454 -5.1038 -1.47259 0
M  V30 554 C 47.7844 -6.07632 -0.738225 0
M  V30 555 N 46.9214 -6.8149 -1.68868 0
M  V30 556 H 51.7614 -2.93019 0.542596 0
M  V30 557 H 49.2984 -1.44422 0.279401 0
M  V30 558 H 51.2564 -3.76767 -1.79173 0
M  V30 559 H 49.8864 -2.62926 -1.87269 0
M  V30 560 H 48.9384 -3.79594 0.247467 0
M  V30 561 H 50.2504 -4.98689 0.105241 0
M  V30 562 H 49.4044 -5.67402 -2.14803 0
M  V30 563 H 48.1434 -4.4106 -2.08128 0
M  V30 564 H 47.1484 -5.49778 -0.0489293 0
M  V30 565 H 48.3734 -6.78966 -0.135129 0
M  V30 566 H 46.3194 -6.14891 -2.28573 0
M  V30 567 H 46.2364 -7.46948 -1.16636 0
M  V30 568 H 47.5044 -7.43078 -2.3549 0
M  V30 569 N 51.7335 -0.305618 -1.54608 0
M  V30 570 C 52.6815 0.584119 -2.25146 0
M  V30 571 C 53.6755 1.13326 -1.25911 0
M  V30 572 O 54.8815 1.08337 -1.43747 0
M  V30 573 H 51.2565 0.206983 -0.722954 0
M  V30 574 H 53.2275 -0.033291 -2.98381 0
M  V30 575 C 51.9765 1.74225 -3.009 0
M  V30 576 H 51.2995 1.32892 -3.77067 0
M  V30 577 H 52.7395 2.34077 -3.53531 0
M  V30 578 C 51.1985 2.64914 -2.0814 0
M  V30 579 O 51.7285 3.66137 -1.65246 0
M  V30 580 N 49.9345 2.3275 -1.74 0
M  V30 581 H 49.4815 1.50479 -2.09078 0
M  V30 582 H 49.4395 2.93694 -1.12211 0
M  V30 583 N 53.2116 1.57565 -0.0334293 0
M  V30 584 C 54.4416 1.95996 0.653398 0
M  V30 585 C 54.8496 0.908749 1.65947 0
M  V30 586 O 54.1926 -0.117471 1.83324 0
M  V30 587 C 54.2546 3.30589 1.41249 0
M  V30 588 C 53.9186 4.53503 0.564263 0
M  V30 589 C 54.9156 5.19647 -0.16225 0
M  V30 590 C 52.6006 4.99801 0.500398 0
M  V30 591 C 54.5946 6.30412 -0.941255 0
M  V30 592 C 52.2816 6.10448 -0.282308 0
M  V30 593 C 53.2796 6.75612 -1.00184 0
M  V30 594 O 52.9676 7.84134 -1.77171 0
M  V30 595 H 52.6996 0.65027 0.184728 0
M  V30 596 H 55.2536 2.05199 -0.0907841 0
M  V30 597 H 53.4836 3.17888 2.20191 0
M  V30 598 H 55.1726 3.53892 1.98784 0
M  V30 599 H 55.9386 4.84846 -0.12227 0
M  V30 600 H 51.8176 4.48883 1.05002 0
M  V30 601 H 55.3616 6.81208 -1.50339 0
M  V30 602 H 51.2586 6.44686 -0.323989 0
M  V30 603 H 52.0266 8.00822 -1.69194 0
M  V30 604 N 54.6897 -0.239769 1.55765 0
M  V30 605 C 55.6377 -1.31668 1.91745 0
M  V30 606 C 56.6317 -1.49462 0.797338 0
M  V30 607 O 57.8377 -1.50852 0.982021 0
M  V30 608 H 54.2127 -0.441048 0.609082 0
M  V30 609 H 56.1837 -0.985923 2.81642 0
M  V30 610 C 54.9327 -2.66368 2.2348 0
M  V30 611 H 54.2557 -2.53478 3.09175 0
M  V30 612 H 55.6957 -3.40578 2.52553 0
M  V30 613 C 54.1547 -3.20002 1.05359 0
M  V30 614 O 54.6847 -4.00538 0.305261 0
M  V30 615 N 52.8907 -2.78126 0.842292 0
M  V30 616 H 52.4377 -2.12742 1.45253 0
M  V30 617 H 52.3957 -3.14354 0.053652 0
M  V30 618 N 56.1678 -1.49265 -0.50573 0
M  V30 619 C 57.5788 -1.51769 -1.08734 0
M  V30 620 C 57.9298 -0.301192 -1.93874 0
M  V30 621 O 57.0548 0.589456 -2.08217 0
M  V30 622 C 57.6498 -2.75017 -1.97867 0
M  V30 623 C 56.2088 -2.80314 -2.51199 0
M  V30 624 C 55.3558 -2.4562 -1.28709 0
M  V30 625 H 58.3068 -1.56031 -0.289855 0
M  V30 626 H 58.3278 -2.5491 -2.82491 0
M  V30 627 H 57.8398 -3.63539 -1.35873 0
M  V30 628 H 55.9408 -1.96061 -3.16845 0
M  V30 629 H 56.0538 -3.82366 -2.88675 0
M  V30 630 H 54.4178 -1.97297 -1.61078 0
M  V30 631 H 55.2008 -3.36411 -0.6843 0
M  V30 632 N 57.6459 0.756429 -1.3826 0
M  V30 633 C 58.5759 1.88374 -1.37976 0
M  V30 634 C 59.5569 1.68311 -0.246082 0
M  V30 635 O 60.7419 1.88944 -0.44874 0
M  V30 636 C 57.8719 3.25864 -1.20125 0
M  V30 637 C 56.8259 3.60523 -2.30666 0
M  V30 638 C 56.1519 4.9672 -1.97923 0
M  V30 639 C 57.4519 3.65692 -3.72916 0
M  V30 640 H 59.1459 1.88869 -2.32312 0
M  V30 641 H 56.6919 0.907272 -1.11824 0
M  V30 642 H 58.6449 4.0438 -1.18552 0
M  V30 643 H 57.3689 3.25841 -0.222498 0
M  V30 644 H 56.0279 2.84324 -2.3142 0
M  V30 645 H 55.6759 4.93253 -0.985393 0
M  V30 646 H 55.3759 5.20878 -2.71955 0
M  V30 647 H 56.8999 5.77618 -1.97964 0
M  V30 648 H 58.3139 4.34328 -3.74208 0
M  V30 649 H 56.7109 4.01358 -4.4613 0
M  V30 650 H 57.7809 2.65987 -4.05436 0
M  V30 651 N 59.124 1.23083 0.984299 0
M  V30 652 C 60.034 1.02515 2.11016 0
M  V30 653 C 61.05 -0.0291702 1.73976 0
M  V30 654 O 62.226 0.165434 2.00719 0
M  V30 655 C 59.291 0.614673 3.41208 0
M  V30 656 C 58.352 1.74359 3.92297 0
M  V30 657 C 57.585 1.35261 5.16275 0
M  V30 658 O 57.808 0.235136 5.69915 0
M  V30 659 O 56.742 2.17227 5.61334 0
M  V30 660 H 60.568 1.96862 2.31255 0
M  V30 661 H 58.153 1.01753 1.09392 0
M  V30 662 H 60.035 0.396518 4.1953 0
M  V30 663 H 58.71 -0.299851 3.22308 0
M  V30 664 H 57.617 2.01635 3.1511 0
M  V30 665 H 58.95 2.63629 4.15645 0
M  V30 666 N 60.6021 -1.18246 1.0419 0
M  V30 667 C 62.0181 -1.40269 0.761366 0
M  V30 668 C 62.2181 -1.90777 -0.648578 0
M  V30 669 O 61.2741 -2.0929 -1.41258 0
M  V30 670 C 62.5871 -2.40237 1.8085 0
M  V30 671 C 64.1351 -2.53961 1.82955 0
M  V30 672 C 64.6101 -3.57194 2.86664 0
M  V30 673 N 66.1011 -3.64702 2.85563 0
M  V30 674 C 66.8361 -4.44309 3.6246 0
M  V30 675 N 66.3321 -5.27514 4.49111 0
M  V30 676 N 68.1251 -4.39084 3.50944 0
M  V30 677 H 60.2761 -0.837882 1.95175 0
M  V30 678 H 62.5391 -0.430608 0.84456 0
M  V30 679 H 62.2451 -2.10176 2.81991 0
M  V30 680 H 62.1191 -3.39601 1.64168 0
M  V30 681 H 64.5061 -2.83338 0.824855 0
M  V30 682 H 64.5871 -1.54706 2.03715 0
M  V30 683 H 64.2311 -3.28558 3.87314 0
M  V30 684 H 64.1611 -4.5613 2.6316 0
M  V30 685 H 66.6521 -3.05289 2.22727 0
M  V30 686 H 66.9651 -5.85411 5.04493 0
M  V30 687 H 65.3101 -5.2693 4.53178 0
M  V30 688 H 68.5011 -3.7313 2.82651 0
M  V30 689 H 68.6741 -5.00883 4.11121 0
M  V30 690 N 62.0802 -0.821533 -1.34494 0
M  V30 691 C 63.4912 -0.467956 -1.8074 0
M  V30 692 C 63.8422 1.01151 -1.68116 0
M  V30 693 O 62.9672 1.78707 -1.22036 0
M  V30 694 C 63.5622 -0.842627 -3.28154 0
M  V30 695 C 62.1212 -0.541439 -3.72485 0
M  V30 696 C 61.2682 -1.06028 -2.56229 0
M  V30 697 H 64.2192 -1.01183 -1.22261 0
M  V30 698 H 64.2402 -0.145876 -3.8022 0
M  V30 699 H 63.7522 -1.91945 -3.37311 0
M  V30 700 H 61.8532 0.526034 -3.68868 0
M  V30 701 H 61.9662 -1.08453 -4.66663 0
M  V30 702 H 60.3302 -0.481892 -2.501 0
M  V30 703 H 61.1132 -2.14352 -2.68157 0
M  V30 704 N 63.5583 1.46682 -0.576371 0
M  V30 705 C 64.8043 2.02712 -0.0596221 0
M  V30 706 C 65.1373 1.44765 1.29448 0
M  V30 707 O 64.4123 0.610355 1.84675 0
M  V30 708 C 64.6953 3.60098 0.0129503 0
M  V30 709 C 64.5483 4.28441 -1.3696 0
M  V30 710 C 65.8673 4.34224 0.71678 0
M  V30 711 H 62.9863 0.736637 -0.0231407 0
M  V30 712 H 65.6283 1.74898 -0.742351 0
M  V30 713 H 63.7783 3.83926 0.594378 0
M  V30 714 H 65.4503 4.15896 -1.9957 0
M  V30 715 H 63.6933 3.8805 -1.93907 0
M  V30 716 H 64.3643 5.3716 -1.27135 0
M  V30 717 H 66.8403 4.15503 0.222908 0
M  V30 718 H 65.7163 5.43936 0.73657 0
M  V30 719 H 65.9773 4.04823 1.77682 0
M  V30 720 N 65.0364 0.313813 1.54444 0
M  V30 721 C 65.9994 -0.54379 2.22656 0
M  V30 722 C 66.9994 -1.05124 1.21678 0
M  V30 723 O 68.1894 -0.945225 1.46325 0
M  V30 724 C 65.3214 -1.75427 2.92298 0
M  V30 725 H 66.5144 0.0523599 2.99854 0
M  V30 726 H 64.0674 0.0647834 1.56166 0
M  V30 727 H 64.8024 -2.38991 2.19211 0
M  V30 728 H 64.5874 -1.39791 3.66334 0
M  V30 729 H 66.0774 -2.36325 3.44297 0
M  V30 730 N 66.5145 -1.57545 0.0417849 0
M  V30 731 C 67.4625 -2.12148 -0.953723 0
M  V30 732 C 68.4565 -1.05104 -1.32852 0
M  V30 733 O 69.6625 -1.23524 -1.30927 0
M  V30 734 H 66.0375 -0.677957 -0.325389 0
M  V30 735 H 68.0085 -2.94707 -0.467991 0
M  V30 736 C 66.7575 -2.6739 -2.22257 0
M  V30 737 H 66.0805 -3.49413 -1.94295 0
M  V30 738 H 67.5205 -3.09227 -2.90094 0
M  V30 739 C 65.9795 -1.60723 -2.96091 0
M  V30 740 O 66.5095 -1.01449 -3.88679 0
M  V30 741 N 64.7155 -1.32466 -2.58652 0
M  V30 742 H 64.2625 -1.80856 -1.83437 0
M  V30 743 H 64.2205 -0.61325 -3.08361 0
M  V30 744 N 67.9926 0.231505 -1.5589 0
M  V30 745 C 69.2696 0.981096 -1.69215 0
M  V30 746 C 69.6496 2.02799 -0.586164 0
M  V30 747 O 68.9976 2.24823 0.408253 0
M  V30 748 C 69.2076 1.60054 -3.10135 0
M  V30 749 C 70.5556 2.09658 -3.69227 0
M  V30 750 O 71.5796 1.69967 -3.13033 0
M  V30 751 O 70.4386 2.8258 -4.67772 0
M  V30 752 H 67.5326 0.457653 -0.688827 0
M  V30 753 H 70.0786 0.224073 -1.68214 0
M  V30 754 H 68.8506 0.844105 -3.82087 0
M  V30 755 H 68.4736 2.42336 -3.15212 0
M  V30 756 N 69.4707 1.49531 0.497807 0
M  V30 757 C 70.6957 1.63159 1.28039 0
M  V30 758 C 71.1207 0.30418 1.85624 0
M  V30 759 O 70.4787 -0.728618 1.66015 0
M  V30 760 C 70.5267 2.70537 2.38416 0
M  V30 761 O 69.6307 2.29931 3.42353 0
M  V30 762 H 68.9717 0.546001 0.377861 0
M  V30 763 H 71.5017 1.9574 0.59558 0
M  V30 764 H 71.5117 2.92802 2.84132 0
M  V30 765 H 70.1867 3.6689 1.95869 0
M  V30 766 H 68.7637 2.18009 3.02533 0
M  V30 767 N 70.9488 -0.749086 1.3866 0
M  V30 768 C 71.8808 -1.87273 1.32142 0
M  V30 769 C 72.8938 -1.61127 0.232787 0
M  V30 770 O 74.0828 -1.71623 0.49069 0
M  V30 771 C 71.1828 -3.23005 1.02571 0
M  V30 772 C 70.3558 -3.7662 2.22433 0
M  V30 773 C 69.4148 -4.90879 1.89537 0
M  V30 774 O 68.4408 -5.05276 2.62078 0
M  V30 775 N 69.6428 -5.74198 0.853031 0
M  V30 776 H 72.4078 -1.93373 2.28969 0
M  V30 777 H 69.9688 -0.929216 1.32579 0
M  V30 778 H 71.9608 -3.96992 0.786085 0
M  V30 779 H 70.5308 -3.12262 0.145249 0
M  V30 780 H 69.7508 -2.94147 2.62434 0
M  V30 781 H 71.0388 -4.09173 3.02415 0
M  V30 782 H 70.4368 -5.6514 0.25155 0
M  V30 783 H 68.9938 -6.48313 0.67329 0
M  V30 784 N 72.4269 -1.23603 -0.977757 0
M  V30 785 C 73.8379 -1.06424 -1.53398 0
M  V30 786 C 74.1889 0.367578 -1.92726 0
M  V30 787 O 73.3139 1.25465 -1.76316 0
M  V30 788 C 73.9089 -1.92568 -2.78753 0
M  V30 789 C 72.4679 -1.79642 -3.30765 0
M  V30 790 C 71.6149 -1.88111 -2.03739 0
M  V30 791 H 74.5659 -1.37227 -0.797152 0
M  V30 792 H 74.5869 -1.45203 -3.51705 0
M  V30 793 H 74.0989 -2.96771 -2.50098 0
M  V30 794 H 72.1999 -0.782325 -3.64294 0
M  V30 795 H 72.3129 -2.63174 -4.00345 0
M  V30 796 H 70.6769 -1.31723 -2.17994 0
M  V30 797 H 71.4599 -2.93875 -1.77461 0
M  V30 798 N 73.905 1.17692 -1.04816 0
M  V30 799 C 74.835 2.23777 -0.666791 0
M  V30 800 C 75.816 1.66796 0.33361 0
M  V30 801 O 77.001 1.93039 0.212042 0
M  V30 802 C 74.131 3.47281 -0.0367933 0
M  V30 803 C 73.085 4.17059 -0.961546 0
M  V30 804 C 72.411 5.34342 -0.195626 0
M  V30 805 C 73.711 4.69713 -2.28402 0
M  V30 806 H 75.405 2.55933 -1.55367 0
M  V30 807 H 72.951 1.23019 -0.748484 0
M  V30 808 H 74.904 4.20706 0.241775 0
M  V30 809 H 73.628 3.14381 0.885004 0
M  V30 810 H 72.287 3.45541 -1.22462 0
M  V30 811 H 71.935 4.97692 0.728816 0
M  V30 812 H 71.635 5.81966 -0.811775 0
M  V30 813 H 73.159 6.10553 0.0757473 0
M  V30 814 H 74.573 5.34794 -2.06563 0
M  V30 815 H 72.97 5.279 -2.8538 0
M  V30 816 H 74.04 3.86726 -2.92525 0
M  V30 817 N 75.3831 0.828654 1.34056 0
M  V30 818 C 76.6111 0.43262 2.02326 0
M  V30 819 C 77.0261 -0.963147 1.62385 0
M  V30 820 O 76.3831 -1.62425 0.832121 0
M  V30 821 C 76.4341 0.53182 3.57567 0
M  V30 822 O 76.1551 1.87258 3.96063 0
M  V30 823 C 77.6561 0.131422 4.43105 0
M  V30 824 H 74.8761 0.172923 0.648335 0
M  V30 825 H 77.4201 1.1184 1.71208 0
M  V30 826 H 75.5751 -0.105938 3.87255 0
M  V30 827 H 75.9891 1.85087 4.90758 0
M  V30 828 H 77.4631 0.251904 5.51425 0
M  V30 829 H 77.9401 -0.925645 4.29335 0
M  V30 830 H 78.5461 0.743207 4.18756 0
M  V30 831 N 76.8612 -1.46375 0.584142 0
M  V30 832 C 78.1072 -2.02678 0.0703716 0
M  V30 833 C 78.4402 -1.4545 -1.28678 0
M  V30 834 O 77.7152 -0.62014 -1.84349 0
M  V30 835 C 77.9982 -3.60099 0.00614674 0
M  V30 836 C 77.8512 -4.27709 1.3923 0
M  V30 837 C 79.1702 -4.34598 -0.693742 0
M  V30 838 H 76.2892 -0.736504 0.027047 0
M  V30 839 H 78.9312 -1.74501 0.751615 0
M  V30 840 H 77.0812 -3.84236 -0.574009 0
M  V30 841 H 78.7532 -4.14832 2.01773 0
M  V30 842 H 76.9962 -3.87016 1.95962 0
M  V30 843 H 77.6672 -5.36478 1.29982 0
M  V30 844 H 80.1432 -4.15615 -0.200869 0
M  V30 845 H 79.0192 -5.44318 -0.707714 0
M  V30 846 H 79.2802 -4.05759 -1.75533 0
M  V30 847 N 78.3393 -0.321999 -1.54275 0
M  V30 848 C 79.5693 0.282642 -2.04658 0
M  V30 849 C 79.9773 1.46453 -1.19784 0
M  V30 850 O 79.3203 1.82367 -0.220932 0
M  V30 851 C 79.3823 0.781857 -3.50895 0
M  V30 852 C 79.0463 -0.277517 -4.56157 0
M  V30 853 C 80.0433 -1.11307 -5.07845 0
M  V30 854 C 77.7283 -0.425256 -5.00497 0
M  V30 855 C 79.7223 -2.08211 -6.02434 0
M  V30 856 C 77.4093 -1.39771 -5.94901 0
M  V30 857 C 78.4073 -2.2246 -6.45756 0
M  V30 858 O 78.0953 -3.18054 -7.38307 0
M  V30 859 H 77.8273 0.0622636 -0.673126 0
M  V30 860 H 80.3813 -0.465792 -2.00049 0
M  V30 861 H 78.6113 1.58118 -3.52896 0
M  V30 862 H 80.3003 1.30467 -3.84361 0
M  V30 863 H 81.0663 -1.00991 -4.74369 0
M  V30 864 H 76.9453 0.20847 -4.60528 0
M  V30 865 H 80.4893 -2.72791 -6.42052 0
M  V30 866 H 76.3863 -1.50152 -6.27794 0
M  V30 867 H 77.1543 -3.13275 -7.56175 0
M  V30 868 N 79.8174 1.5752 -0.0501392 0
M  V30 869 C 81.0644 1.9265 0.623874 0
M  V30 870 C 81.3924 0.928411 1.70912 0
M  V30 871 O 80.6474 -0.0594525 1.9561 0
M  V30 872 C 80.9464 3.34467 1.25963 0
M  V30 873 C 80.6124 4.49883 0.302689 0
M  V30 874 C 79.2744 4.81184 0.0393636 0
M  V30 875 C 81.6264 5.20002 -0.353205 0
M  V30 876 C 78.9544 5.79951 -0.887308 0
M  V30 877 C 81.3064 6.1976 -1.26806 0
M  V30 878 C 79.9704 6.49491 -1.54007 0
M  V30 879 H 79.2404 0.704957 0.228292 0
M  V30 880 H 81.8874 1.91146 -0.116398 0
M  V30 881 H 80.1924 3.32333 2.07514 0
M  V30 882 H 81.8894 3.58928 1.78806 0
M  V30 883 H 78.4794 4.25457 0.518109 0
M  V30 884 H 82.6634 4.96033 -0.162854 0
M  V30 885 H 77.9194 6.01322 -1.10553 0
M  V30 886 H 82.0934 6.73205 -1.78236 0
M  V30 887 H 79.7204 7.25837 -2.25976 0
M  V30 888 N 81.2955 -0.223234 1.56011 0
M  V30 889 C 82.5205 -0.968978 1.83373 0
M  V30 890 C 82.9455 -1.77227 0.630254 0
M  V30 891 O 82.3035 -1.76345 -0.420959 0
M  V30 892 C 82.3515 -1.86363 3.08709 0
M  V30 893 O 81.4555 -2.95873 2.87285 0
M  V30 894 H 80.7965 -0.274461 0.604622 0
M  V30 895 H 83.3265 -0.237056 2.03222 0
M  V30 896 H 83.3365 -2.27376 3.38768 0
M  V30 897 H 82.0115 -1.27319 3.95933 0
M  V30 898 H 80.5885 -2.58818 2.68454 0
M  V30 899 N 82.7736 -1.49793 -0.48987 0
M  V30 900 C 83.7036 -1.70201 -1.59856 0
M  V30 901 C 84.6846 -0.55076 -1.60937 0
M  V30 902 O 85.8696 -0.787841 -1.77501 0
M  V30 903 C 82.9996 -1.77882 -2.98287 0
M  V30 904 C 81.9536 -2.92907 -3.12073 0
M  V30 905 C 81.2796 -2.85712 -4.51965 0
M  V30 906 C 82.5796 -4.3369 -2.91051 0
M  V30 907 H 84.2736 -2.63025 -1.43032 0
M  V30 908 H 81.8196 -1.26574 -0.686664 0
M  V30 909 H 83.7726 -1.90744 -3.75759 0
M  V30 910 H 82.4966 -0.816653 -3.16225 0
M  V30 911 H 81.1556 -2.79665 -2.37029 0
M  V30 912 H 80.8036 -1.8738 -4.66795 0
M  V30 913 H 80.5036 -3.62921 -4.62128 0
M  V30 914 H 82.0276 -3.00598 -5.31482 0
M  V30 915 H 83.4416 -4.47555 -3.58284 0
M  V30 916 H 81.8386 -5.12205 -3.12675 0
M  V30 917 H 82.9086 -4.47362 -1.87071 0
M  V30 918 N 84.2517 0.741722 -1.39055 0
M  V30 919 C 85.4767 1.53607 -1.39354 0
M  V30 920 C 85.9017 1.88096 0.0116905 0
M  V30 921 O 85.2597 1.5143 0.996924 0
M  V30 922 C 85.3077 2.80441 -2.26682 0
M  V30 923 O 84.4117 3.76088 -1.69208 0
M  V30 924 H 83.7527 0.464142 -0.474835 0
M  V30 925 H 86.2827 0.915665 -1.82967 0
M  V30 926 H 86.2927 3.29246 -2.40959 0
M  V30 927 H 84.9677 2.5467 -3.2881 0
M  V30 928 H 83.5447 3.34833 -1.64138 0
M  V30 929 N 85.7298 1.2412 0.971189 0
M  V30 930 C 86.6598 1.05508 2.08304 0
M  V30 931 C 87.6408 -0.0308864 1.70072 0
M  V30 932 O 88.8258 0.135521 1.93727 0
M  V30 933 C 85.9558 0.655365 3.4106 0
M  V30 934 C 84.9098 1.68971 3.93234 0
M  V30 935 C 84.2358 1.14516 5.22293 0
M  V30 936 C 85.5358 3.08487 4.21465 0
M  V30 937 H 87.2298 1.98507 2.24132 0
M  V30 938 H 84.7758 0.955821 1.07704 0
M  V30 939 H 86.7288 0.51217 4.18276 0
M  V30 940 H 85.4528 -0.31032 3.25122 0
M  V30 941 H 84.1118 1.82106 3.18171 0
M  V30 942 H 83.7598 0.170189 5.02712 0
M  V30 943 H 83.4598 1.83635 5.58168 0
M  V30 944 H 84.9838 1.01401 6.02121 0
M  V30 945 H 86.3978 2.98601 4.89398 0
M  V30 946 H 84.7948 3.74926 4.68562 0
M  V30 947 H 85.8648 3.56787 3.28376 0
M  V30 948 N 87.2079 -1.17134 1.05439 0
M  V30 949 C 88.1379 -2.2342 0.678649 0
M  V30 950 C 89.1189 -1.66971 -0.32476 0
M  V30 951 O 90.3039 -1.93149 -0.201802 0
M  V30 952 C 87.4339 -3.47256 0.0552099 0
M  V30 953 C 86.3879 -4.16543 0.98365 0
M  V30 954 C 85.7139 -5.34231 0.223961 0
M  V30 955 C 87.0139 -4.68495 2.3089 0
M  V30 956 H 88.7079 -2.55105 1.56722 0
M  V30 957 H 86.2539 -1.2262 0.754998 0
M  V30 958 H 88.2069 -4.20828 -0.21946 0
M  V30 959 H 86.9309 -3.14846 -0.868319 0
M  V30 960 H 85.5899 -3.44887 1.24293 0
M  V30 961 H 85.2379 -4.98071 -0.702412 0
M  V30 962 H 84.9379 -5.81527 0.842627 0
M  V30 963 H 86.4619 -6.10585 -0.0433671 0
M  V30 964 H 87.8759 -5.33691 2.09396 0
M  V30 965 H 86.2729 -5.26379 2.88176 0
M  V30 966 H 87.3429 -3.85169 2.94572 0
M  V30 967 N 88.686 -0.835752 -1.33615 0
M  V30 968 C 89.618 -0.224151 -2.28101 0
M  V30 969 C 90.631 0.593331 -1.51603 0
M  V30 970 O 91.82 0.420911 -1.73466 0
M  V30 971 C 88.92 0.703309 -3.31522 0
M  V30 972 C 88.093 -0.0741528 -4.37337 0
M  V30 973 C 87.152 0.776176 -5.20444 0
M  V30 974 O 86.178 0.216506 -5.68788 0
M  V30 975 N 87.38 2.09401 -5.41416 0
M  V30 976 H 90.145 -1.03598 -2.81225 0
M  V30 977 H 87.706 -0.69392 -1.46275 0
M  V30 978 H 89.698 1.27707 -3.84022 0
M  V30 979 H 88.268 1.41585 -2.78698 0
M  V30 980 H 87.488 -0.82928 -3.85378 0
M  V30 981 H 88.776 -0.608863 -5.05144 0
M  V30 982 H 88.174 2.57229 -5.03835 0
M  V30 983 H 86.731 2.61633 -5.96985 0
M  V30 984 N 90.1641 1.46063 -0.591896 0
M  V30 985 C 91.4131 2.01547 -0.0786637 0
M  V30 986 C 91.7261 1.46796 1.29268 0
M  V30 987 O 92.9321 1.94157 1.89777 0
M  V30 988 C 91.3881 3.59787 -0.0900024 0
M  V30 989 C 90.9961 4.23534 -1.46023 0
M  V30 990 C 92.7401 4.22895 0.368806 0
M  V30 991 C 90.6471 5.73881 -1.4288 0
M  V30 992 H 89.5771 0.753564 -0.0256388 0
M  V30 993 H 92.2281 1.677 -0.744905 0
M  V30 994 H 90.6101 3.90752 0.642586 0
M  V30 995 H 91.7841 4.04167 -2.21328 0
M  V30 996 H 90.0991 3.72558 -1.85982 0
M  V30 997 H 92.6961 5.33116 0.411258 0
M  V30 998 H 93.0391 3.9247 1.38827 0
M  V30 999 H 93.5721 3.9659 -0.31001 0
M  V30 1000 H 90.3111 6.0898 -2.42536 0
M  V30 1001 H 89.8311 5.95486 -0.718095 0
M  V30 1002 H 91.5101 6.36776 -1.14565 0
M  V30 1003 N 91.6422 0.330177 1.54103 0
M  V30 1004 C 92.5752 -0.575477 2.20825 0
M  V30 1005 C 93.5532 -1.11064 1.18758 0
M  V30 1006 O 94.7372 -1.17341 1.47524 0
M  V30 1007 C 91.8642 -1.79032 2.87516 0
M  V30 1008 C 90.9102 -1.38581 4.03358 0
M  V30 1009 S 91.7432 -0.416911 5.33875 0
M  V30 1010 C 92.8992 -1.63889 6.04062 0
M  V30 1011 H 93.1322 -0.00872114 2.97299 0
M  V30 1012 H 90.6652 0.114254 1.53977 0
M  V30 1013 H 92.6232 -2.48734 3.2656 0
M  V30 1014 H 91.2842 -2.32827 2.10832 0
M  V30 1015 H 90.4772 -2.29123 4.48908 0
M  V30 1016 H 90.0792 -0.768419 3.66021 0
M  V30 1017 H 92.3712 -2.57536 6.26643 0
M  V30 1018 H 93.3142 -1.22542 6.97416 0
M  V30 1019 H 93.7222 -1.82887 5.34053 0
M  V30 1020 N 93.1203 -1.57491 0.0584922 0
M  V30 1021 C 94.3973 -1.84346 -0.653918 0
M  V30 1022 C 94.7773 -0.948355 -1.88599 0
M  V30 1023 O 94.1253 -0.0112403 -2.28497 0
M  V30 1024 C 94.3353 -3.34239 -1.00425 0
M  V30 1025 C 95.6833 -4.01431 -1.38342 0
M  V30 1026 O 96.7073 -3.38907 -1.09637 0
M  V30 1027 O 95.5663 -5.11683 -1.91943 0
M  V30 1028 H 92.6603 -0.761112 -0.323478 0
M  V30 1029 H 95.2063 -1.6947 0.0884125 0
M  V30 1030 H 93.9783 -3.91089 -0.128625 0
M  V30 1031 H 93.6013 -3.54329 -1.80378 0
M  V30 1032 N 94.5984 0.214957 -1.56127 0
M  V30 1033 C 95.8444 0.939762 -1.79712 0
M  V30 1034 C 96.1774 1.83723 -0.629247 0
M  V30 1035 O 95.4524 1.90925 0.371197 0
M  V30 1036 C 95.7354 1.77306 -3.13424 0
M  V30 1037 C 95.5884 0.90164 -4.40671 0
M  V30 1038 C 96.9074 2.74956 -3.43638 0
M  V30 1039 H 94.0264 0.340214 -0.653776 0
M  V30 1040 H 96.6684 0.20824 -1.88855 0
M  V30 1041 H 94.8184 2.39673 -3.0576 0
M  V30 1042 H 96.4904 0.294206 -4.60361 0
M  V30 1043 H 94.7334 0.207368 -4.33304 0
M  V30 1044 H 95.4044 1.51923 -5.30682 0
M  V30 1045 H 97.8804 2.22724 -3.51473 0
M  V30 1046 H 96.7564 3.30358 -4.38355 0
M  V30 1047 H 97.0174 3.53023 -2.66134 0
M  V30 1048 N 96.0765 1.50051 0.48192 0
M  V30 1049 C 97.3535 1.51009 1.2432 0
M  V30 1050 C 97.7335 0.248587 2.09631 0
M  V30 1051 O 97.0815 -0.768409 2.15192 0
M  V30 1052 C 97.2915 2.79981 2.08355 0
M  V30 1053 C 98.6395 3.3022 2.66908 0
M  V30 1054 O 99.6635 2.81228 2.18607 0
M  V30 1055 O 98.5225 4.15595 3.54884 0
M  V30 1056 H 95.6165 0.605239 0.563573 0
M  V30 1057 H 98.1625 1.62332 0.494627 0
M  V30 1058 H 96.9345 3.63275 1.45419 0
M  V30 1059 H 96.5575 2.7161 2.90368 0
M  V30 1060 N 97.5546 -0.734337 1.39446 0
M  V30 1061 C 98.4646 -1.87879 1.40495 0
M  V30 1062 C 99.4806 -1.714 0.299672 0
M  V30 1063 O 100.657 -1.93991 0.541249 0
M  V30 1064 C 97.7216 -3.23477 1.24754 0
M  V30 1065 C 96.7826 -3.52344 2.45259 0
M  V30 1066 C 96.0156 -4.81473 2.30259 0
M  V30 1067 O 96.2386 -5.55237 1.30643 0
M  V30 1068 O 95.1726 -5.10254 3.19256 0
M  V30 1069 H 98.9986 -1.89949 2.36966 0
M  V30 1070 H 96.5836 -0.882243 1.20569 0
M  V30 1071 H 98.4656 -4.04509 1.18111 0
M  V30 1072 H 97.1406 -3.22176 0.313781 0
M  V30 1073 H 96.0476 -2.71396 2.57478 0
M  V30 1074 H 97.3806 -3.58426 3.37331 0
M  V30 1075 N 99.0327 -1.24633 -0.964593 0
M  V30 1076 C 99.9797 -1.04144 -2.05968 0
M  V30 1077 C 100.95 0.046262 -1.66036 0
M  V30 1078 O 102.135 -0.108972 -1.90489 0
M  V30 1079 C 99.2747 -0.65563 -3.38815 0
M  V30 1080 C 98.3877 -1.81714 -3.91923 0
M  V30 1081 C 97.5227 -1.37662 -5.13052 0
M  V30 1082 C 96.5617 -2.50788 -5.58365 0
M  V30 1083 N 95.6987 -2.07582 -6.70712 0
M  V30 1084 H 100.539 -1.9787 -2.22827 0
M  V30 1085 H 98.0757 -0.9855 -1.09208 0
M  V30 1086 H 100.034 -0.412954 -4.15151 0
M  V30 1087 H 98.6637 0.244627 -3.21872 0
M  V30 1088 H 97.7157 -2.1734 -3.12198 0
M  V30 1089 H 99.0277 -2.66705 -4.21509 0
M  V30 1090 H 98.1817 -1.093 -5.96773 0
M  V30 1091 H 96.9207 -0.497293 -4.85158 0
M  V30 1092 H 95.9257 -2.79906 -4.73215 0
M  V30 1093 H 97.1507 -3.39283 -5.88272 0
M  V30 1094 H 95.0967 -1.22051 -6.44546 0
M  V30 1095 H 95.0137 -2.86125 -6.99763 0
M  V30 1096 H 96.2817 -1.82369 -7.57867 0
M  V30 1097 N 100.511 1.16574 -1.06058 0
M  V30 1098 C 101.459 2.22941 -0.663343 0
M  V30 1099 C 102.453 1.66358 0.319593 0
M  V30 1100 O 103.659 1.7905 0.184713 0
M  V30 1101 H 100.034 0.725907 -0.196376 0
M  V30 1102 H 102.005 2.53736 -1.57037 0
M  V30 1103 C 100.754 3.47642 -0.0632808 0
M  V30 1104 H 100.077 3.91493 -0.810733 0
M  V30 1105 H 101.517 4.2363 0.177177 0
M  V30 1106 C 99.9758 3.1509 1.19248 0
M  V30 1107 O 100.506 3.30673 2.28075 0
M  V30 1108 N 98.7118 2.6924 1.09353 0
M  V30 1109 H 98.2588 2.5676 0.207912 0
M  V30 1110 H 98.2168 2.47833 1.93458 0
M  V30 1111 N 101.989 0.842826 1.3317 0
M  V30 1112 C 102.921 0.236245 2.27979 0
M  V30 1113 C 103.934 -0.585282 1.51915 0
M  V30 1114 O 105.123 -0.411705 1.73687 0
M  V30 1115 C 102.223 -0.685717 3.3189 0
M  V30 1116 C 101.396 0.0973448 4.37292 0
M  V30 1117 C 100.455 -0.748565 5.20848 0
M  V30 1118 O 99.4809 -0.186339 5.68895 0
M  V30 1119 N 100.683 -2.06527 5.42519 0
M  V30 1120 H 103.448 1.05088 2.80672 0
M  V30 1121 H 101.009 0.701667 1.45905 0
M  V30 1122 H 103.001 -1.25669 3.84694 0
M  V30 1123 H 101.571 -1.40105 2.79445 0
M  V30 1124 H 100.791 0.849706 3.84933 0
M  V30 1125 H 102.079 0.635643 5.04814 0
M  V30 1126 H 101.477 -2.54554 5.05192 0
M  V30 1127 H 100.034 -2.58464 5.98364 0
M  V30 1128 N 103.467 -1.45747 0.599634 0
M  V30 1129 C 104.713 -2.02592 0.0918643 0
M  V30 1130 C 105.046 -1.46806 -1.27128 0
M  V30 1131 O 104.321 -0.639658 -1.83681 0
M  V30 1132 C 104.604 -3.60073 0.0443398 0
M  V30 1133 C 104.457 -4.26208 1.43759 0
M  V30 1134 C 105.776 -4.35309 -0.647608 0
M  V30 1135 H 102.895 -0.736175 0.034857 0
M  V30 1136 H 105.537 -1.73694 0.770081 0
M  V30 1137 H 103.687 -3.84823 -0.533224 0
M  V30 1138 H 105.359 -4.12668 2.06162 0
M  V30 1139 H 103.602 -3.84916 2.00056 0
M  V30 1140 H 104.273 -5.35069 1.35665 0
M  V30 1141 H 106.749 -4.15805 -0.156776 0
M  V30 1142 H 105.625 -5.45038 -0.649942 0
M  V30 1143 H 105.886 -4.07598 -1.71219 0
M  V30 1144 N 104.945 -0.338344 -1.53925 0
M  V30 1145 C 105.875 0.51328 -2.27789 0
M  V30 1146 C 106.856 1.107 -1.29149 0
M  V30 1147 O 108.041 1.12937 -1.57984 0
M  V30 1148 C 105.171 1.66697 -3.04679 0
M  V30 1149 C 104.125 1.20183 -4.1078 0
M  V30 1150 C 103.451 2.44363 -4.75595 0
M  V30 1151 C 104.751 0.30605 -5.21403 0
M  V30 1152 H 106.445 -0.102883 -2.99223 0
M  V30 1153 H 103.991 -0.0509219 -1.4391 0
M  V30 1154 H 105.944 2.26915 -3.55088 0
M  V30 1155 H 104.668 2.30995 -2.30887 0
M  V30 1156 H 103.327 0.622499 -3.61276 0
M  V30 1157 H 102.975 3.07057 -3.98403 0
M  V30 1158 H 102.675 2.13925 -5.47275 0
M  V30 1159 H 104.199 3.05317 -5.28786 0
M  V30 1160 H 105.613 0.814929 -5.67478 0
M  V30 1161 H 104.01 0.0937929 -6.00027 0
M  V30 1162 H 105.08 -0.65921 -4.80398 0
M  V30 1163 N 106.423 1.57458 -0.0668435 0
M  V30 1164 C 107.651 1.97624 0.612565 0
M  V30 1165 C 108.066 0.94502 1.63447 0
M  V30 1166 O 107.423 -0.0689276 1.8237 0
M  V30 1167 C 107.474 3.37869 1.28555 0
M  V30 1168 O 107.195 4.3704 0.304557 0
M  V30 1169 C 108.696 3.92882 2.05325 0
M  V30 1170 H 105.916 0.650045 0.166381 0
M  V30 1171 H 108.46 2.04035 -0.137782 0
M  V30 1172 H 106.615 3.3256 1.98702 0
M  V30 1173 H 107.029 5.18565 0.786779 0
M  V30 1174 H 108.503 4.93247 2.47812 0
M  V30 1175 H 108.98 3.29156 2.9078 0
M  V30 1176 H 109.586 4.01577 1.40056 0
M  V30 1177 N 107.901 -0.206675 1.56239 0
M  V30 1178 C 109.129 -0.945345 1.8404 0
M  V30 1179 C 109.544 -1.77336 0.647885 0
M  V30 1180 O 108.901 -1.78425 -0.383511 0
M  V30 1181 C 108.952 -1.8509 3.10522 0
M  V30 1182 O 108.673 -1.05634 4.25174 0
M  V30 1183 C 110.174 -2.70222 3.51418 0
M  V30 1184 H 107.394 -0.276372 0.61144 0
M  V30 1185 H 109.938 -0.217417 2.03341 0
M  V30 1186 H 108.093 -2.53259 2.93153 0
M  V30 1187 H 108.507 -1.67238 4.97124 0
M  V30 1188 H 109.981 -3.29438 4.42916 0
M  V30 1189 H 110.458 -3.43358 2.73864 0
M  V30 1190 H 111.064 -2.07443 3.71278 0
M  V30 1191 N 109.379 -1.50304 -0.473955 0
M  V30 1192 C 110.327 -1.69482 -1.59307 0
M  V30 1193 C 111.321 -0.560669 -1.59853 0
M  V30 1194 O 112.527 -0.741087 -1.64036 0
M  V30 1195 H 108.902 -0.534892 -0.528578 0
M  V30 1196 H 110.873 -2.63364 -1.40293 0
M  V30 1197 C 109.622 -1.80354 -2.97267 0
M  V30 1198 H 108.945 -2.67012 -2.97564 0
M  V30 1199 H 110.385 -1.97798 -3.75036 0
M  V30 1200 C 108.844 -0.55448 -3.32306 0
M  V30 1201 O 109.374 0.307661 -4.0052 0
M  V30 1202 N 107.58 -0.409354 -2.87702 0
M  V30 1203 H 107.127 -1.11196 -2.32364 0
M  V30 1204 H 107.085 0.425223 -3.11511 0
M  V30 1205 N 110.857 0.726932 -1.39834 0
M  V30 1206 C 112.106 1.48214 -1.36805 0
M  V30 1207 C 112.419 1.95576 0.0305291 0
M  V30 1208 O 113.625 2.7088 0.183417 0
M  V30 1209 C 112.081 2.67854 -2.40379 0
M  V30 1210 C 111.689 2.27408 -3.85992 0
M  V30 1211 C 113.433 3.45641 -2.46439 0
M  V30 1212 C 111.34 3.43819 -4.81189 0
M  V30 1213 H 110.27 0.556606 -0.508631 0
M  V30 1214 H 112.921 0.792216 -1.65518 0
M  V30 1215 H 111.303 3.3896 -2.04749 0
M  V30 1216 H 112.477 1.63795 -4.30706 0
M  V30 1217 H 110.792 1.62692 -3.83302 0
M  V30 1218 H 113.389 4.32244 -3.14753 0
M  V30 1219 H 113.732 3.88669 -1.49139 0
M  V30 1220 H 114.265 2.8157 -2.81004 0
M  V30 1221 H 111.004 3.05834 -5.79781 0
M  V30 1222 H 110.524 4.06385 -4.41148 0
M  V30 1223 H 112.203 4.10043 -5.00474 0
M  V30 1224 N 112.336 1.25143 0.95797 0
M  V30 1225 C 113.582 1.10863 1.70531 0
M  V30 1226 C 113.937 -0.347391 1.89238 0
M  V30 1227 O 113.23 -1.25262 1.44983 0
M  V30 1228 C 113.424 1.79272 3.09187 0
M  V30 1229 C 113.253 3.31376 3.04006 0
M  V30 1230 C 112.023 4.0062 3.07948 0
M  V30 1231 C 114.221 4.27825 2.8543 0
M  V30 1232 N 112.203 5.39526 2.9289 0
M  V30 1233 C 113.574 5.53794 2.78769 0
M  V30 1234 C 115.629 4.1828 2.70085 0
M  V30 1235 C 114.332 6.7131 2.58331 0
M  V30 1236 C 116.358 5.35485 2.51017 0
M  V30 1237 C 115.72 6.60393 2.45073 0
M  V30 1238 H 111.819 0.460362 0.632132 0
M  V30 1239 H 114.403 1.58196 1.13499 0
M  V30 1240 H 112.574 1.34439 3.64391 0
M  V30 1241 H 114.306 1.57764 3.72683 0
M  V30 1242 H 111.061 3.51855 3.17009 0
M  V30 1243 H 111.485 6.12416 2.88574 0
M  V30 1244 H 116.127 3.22461 2.73457 0
M  V30 1245 H 113.845 7.67243 2.53701 0
M  V30 1246 H 117.431 5.29959 2.40073 0
M  V30 1247 H 116.311 7.49557 2.30509 0
M  V30 1248 N 113.814 -1.1601 1.06675 0
M  V30 1249 C 114.744 -2.22688 0.702307 0
M  V30 1250 C 115.725 -1.67306 -0.307032 0
M  V30 1251 O 116.91 -1.93352 -0.181305 0
M  V30 1252 C 114.04 -3.47178 0.092038 0
M  V30 1253 C 112.994 -4.15477 1.02777 0
M  V30 1254 C 112.32 -5.33963 0.28061 0
M  V30 1255 C 113.62 -4.66019 2.35846 0
M  V30 1256 H 115.314 -2.53429 1.59419 0
M  V30 1257 H 112.86 -1.21813 0.767961 0
M  V30 1258 H 114.813 -4.21037 -0.174814 0
M  V30 1259 H 113.537 -3.15749 -0.834877 0
M  V30 1260 H 112.196 -3.43549 1.27944 0
M  V30 1261 H 111.844 -4.98788 -0.649545 0
M  V30 1262 H 111.544 -5.806 0.904258 0
M  V30 1263 H 113.068 -6.10596 0.021396 0
M  V30 1264 H 114.482 -5.3144 2.15045 0
M  V30 1265 H 112.879 -5.23293 2.93743 0
M  V30 1266 H 113.949 -3.82023 2.98641 0
M  V30 1267 N 115.292 -0.849877 -1.32721 0
M  V30 1268 C 116.224 -0.248332 -2.27851 0
M  V30 1269 C 117.237 0.577218 -1.52224 0
M  V30 1270 O 118.426 0.402489 -1.73903 0
M  V30 1271 C 115.526 0.668107 -3.32249 0
M  V30 1272 C 114.699 -0.120534 -4.37234 0
M  V30 1273 C 113.758 0.720932 -5.21238 0
M  V30 1274 O 112.784 0.156166 -5.68986 0
M  V30 1275 N 113.986 2.03647 -5.43607 0
M  V30 1276 H 116.751 -1.06575 -2.80111 0
M  V30 1277 H 114.312 -0.709395 -1.45531 0
M  V30 1278 H 116.304 1.23627 -3.85355 0
M  V30 1279 H 114.874 1.38621 -2.80184 0
M  V30 1280 H 114.094 -0.870108 -3.84477 0
M  V30 1281 H 115.382 -0.662406 -5.0447 0
M  V30 1282 H 114.78 2.51871 -5.06535 0
M  V30 1283 H 113.337 2.55287 -5.99727 0
M  V30 1284 N 116.77 1.45427 -0.607355 0
M  V30 1285 C 117.703 2.27635 0.160482 0
M  V30 1286 C 118.681 1.37122 0.873857 0
M  V30 1287 O 119.865 1.66551 0.882775 0
M  V30 1288 C 116.992 3.15486 1.23231 0
M  V30 1289 C 116.038 4.21939 0.622097 0
M  V30 1290 S 116.871 5.32459 -0.569852 0
M  V30 1291 C 118.027 6.23879 0.502577 0
M  V30 1292 H 118.26 2.9241 -0.536983 0
M  V30 1293 H 115.793 1.49265 -0.394868 0
M  V30 1294 H 117.751 3.66659 1.84585 0
M  V30 1295 H 116.412 2.49977 1.90185 0
M  V30 1296 H 115.605 4.8333 1.42856 0
M  V30 1297 H 115.207 3.73906 0.0837063 0
M  V30 1298 H 117.499 6.63261 1.38171 0
M  V30 1299 H 118.442 7.0806 -0.0751759 0
M  V30 1300 H 118.85 5.58545 0.8178 0
M  V30 1301 N 118.248 0.346503 1.53744 0
M  V30 1302 C 119.473 -0.253074 2.0585 0
M  V30 1303 C 119.898 -1.43202 1.21962 0
M  V30 1304 O 119.256 -1.79783 0.234073 0
M  V30 1305 C 119.304 -0.643193 3.54817 0
M  V30 1306 O 118.408 -1.74286 3.73762 0
M  V30 1307 H 117.749 -0.0413583 0.662711 0
M  V30 1308 H 120.279 0.501574 1.98357 0
M  V30 1309 H 120.289 -0.919526 3.97503 0
M  V30 1310 H 118.964 0.218966 4.15323 0
M  V30 1311 H 117.541 -1.46356 3.42979 0
M  V30 1312 N 119.726 -1.57421 0.075193 0
M  V30 1313 C 120.972 -1.94716 -0.587998 0
M  V30 1314 C 121.327 -0.955205 -1.67014 0
M  V30 1315 O 120.62 0.0219842 -1.91587 0
M  V30 1316 C 120.814 -3.36428 -1.20626 0
M  V30 1317 C 120.643 -4.49317 -0.185541 0
M  V30 1318 C 119.413 -5.04772 0.23099 0
M  V30 1319 C 121.611 -5.11036 0.57854 0
M  V30 1320 N 119.593 -6.01204 1.24206 0
M  V30 1321 C 120.964 -6.02998 1.44199 0
M  V30 1322 C 123.019 -4.93844 0.634237 0
M  V30 1323 C 121.722 -6.79614 2.3562 0
M  V30 1324 C 123.748 -5.71106 1.53597 0
M  V30 1325 C 123.11 -6.6272 2.38709 0
M  V30 1326 H 119.209 -0.759536 -0.186089 0
M  V30 1327 H 121.793 -1.94097 0.153128 0
M  V30 1328 H 119.964 -3.37778 -1.9173 0
M  V30 1329 H 121.696 -3.60951 -1.8302 0
M  V30 1330 H 118.451 -4.73353 -0.152807 0
M  V30 1331 H 118.875 -6.54119 1.74521 0
M  V30 1332 H 123.517 -4.22799 -0.00960004 0
M  V30 1333 H 121.235 -7.49934 3.01038 0
M  V30 1334 H 124.821 -5.59824 1.58394 0
M  V30 1335 H 123.701 -7.2146 3.07352 0
M  V30 1336 N 121.204 0.198386 -1.56346 0
M  V30 1337 C 122.432 0.935572 -1.84539 0
M  V30 1338 C 122.847 1.76989 -0.657281 0
M  V30 1339 O 122.204 1.78626 0.374043 0
M  V30 1340 C 122.255 1.8344 -3.11499 0
M  V30 1341 O 121.976 1.03377 -4.25728 0
M  V30 1342 C 123.477 2.68355 -3.52846 0
M  V30 1343 H 120.697 0.273126 -0.612897 0
M  V30 1344 H 123.241 0.20663 -2.03453 0
M  V30 1345 H 121.396 2.51701 -2.94492 0
M  V30 1346 H 121.81 1.64599 -4.98003 0
M  V30 1347 H 123.284 3.27085 -4.44657 0
M  V30 1348 H 123.761 3.41901 -2.75681 0
M  V30 1349 H 124.367 2.05471 -3.72373 0
M  V30 1350 N 122.682 1.50554 0.465978 0
M  V30 1351 C 123.959 1.5232 1.22712 0
M  V30 1352 C 124.339 0.270807 2.09356 0
M  V30 1353 O 123.687 -0.745541 2.15995 0
M  V30 1354 C 123.897 2.82175 2.05374 0
M  V30 1355 C 125.245 3.33033 2.6339 0
M  V30 1356 O 126.269 2.83531 2.15612 0
M  V30 1357 O 125.128 4.19336 3.50456 0
M  V30 1358 H 122.222 0.611183 0.557122 0
M  V30 1359 H 124.768 1.62847 0.477381 0
M  V30 1360 H 123.54 3.64797 1.41558 0
M  V30 1361 H 123.163 2.74675 2.87471 0
M  V30 1362 N 124.16 -0.719506 1.40217 0
M  V30 1363 C 125.11 -1.8251 1.36653 0
M  V30 1364 C 126.094 -1.59028 0.244732 0
M  V30 1365 O 127.286 -1.70268 0.483524 0
M  V30 1366 C 124.415 -3.20599 1.22763 0
M  V30 1367 C 123.501 -3.49858 2.39708 0
M  V30 1368 N 123.892 -3.49957 3.6519 0
M  V30 1369 C 122.19 -3.80297 2.33002 0
M  V30 1370 C 122.891 -3.77449 4.42614 0
M  V30 1371 N 121.867 -3.96002 3.72402 0
M  V30 1372 H 125.669 -1.80914 2.31619 0
M  V30 1373 H 123.183 -0.918455 1.33933 0
M  V30 1374 H 125.18 -3.99766 1.18292 0
M  V30 1375 H 123.84 -3.23424 0.287614 0
M  V30 1376 H 124.851 -3.309 3.98404 0
M  V30 1377 H 121.528 -3.90635 1.47346 0
M  V30 1378 H 122.918 -3.83863 5.51451 0
M  V30 1379 N 125.638 -1.25649 -0.95132 0
M  V30 1380 C 126.868 -1.13179 -1.72841 0
M  V30 1381 C 127.276 0.316827 -1.86528 0
M  V30 1382 O 126.619 1.22948 -1.3649 0
M  V30 1383 C 126.681 -1.71644 -3.15878 0
M  V30 1384 C 126.345 -3.20667 -3.25609 0
M  V30 1385 C 127.342 -4.17616 -3.09666 0
M  V30 1386 C 125.027 -3.6094 -3.49324 0
M  V30 1387 C 127.021 -5.52817 -3.17289 0
M  V30 1388 C 124.708 -4.96278 -3.56584 0
M  V30 1389 C 125.706 -5.92025 -3.40581 0
M  V30 1390 O 125.394 -7.24899 -3.47528 0
M  V30 1391 H 125.126 -0.395389 -0.54831 0
M  V30 1392 H 127.68 -1.66566 -1.20187 0
M  V30 1393 H 125.91 -1.12707 -3.69911 0
M  V30 1394 H 127.599 -1.54225 -3.75459 0
M  V30 1395 H 128.365 -3.87842 -2.91211 0
M  V30 1396 H 124.244 -2.86907 -3.6084 0
M  V30 1397 H 127.788 -6.2753 -3.04716 0
M  V30 1398 H 123.685 -5.25716 -3.74556 0
M  V30 1399 H 124.453 -7.33039 -3.64138 0
M  V30 1400 N 127.117 1.15442 -1.07289 0
M  V30 1401 C 128.047 2.22312 -0.714107 0
M  V30 1402 C 129.028 1.67467 0.298155 0
M  V30 1403 O 130.213 1.93445 0.171048 0
M  V30 1404 C 127.343 3.47124 -0.110448 0
M  V30 1405 C 126.297 4.14926 -1.04979 0
M  V30 1406 C 125.623 5.33807 -0.308924 0
M  V30 1407 C 126.923 4.64762 -2.38314 0
M  V30 1408 H 128.617 2.5258 -1.6076 0
M  V30 1409 H 126.163 1.21404 -0.77441 0
M  V30 1410 H 128.116 4.21124 0.152482 0
M  V30 1411 H 126.84 3.16187 0.81812 0
M  V30 1412 H 125.499 3.42866 -1.29764 0
M  V30 1413 H 125.147 4.99126 0.623084 0
M  V30 1414 H 124.847 5.80113 -0.935036 0
M  V30 1415 H 126.371 6.10576 -0.0537771 0
M  V30 1416 H 127.785 5.30292 -2.1786 0
M  V30 1417 H 126.182 5.21728 -2.96514 0
M  V30 1418 H 127.252 3.80434 -3.00663 0
M  V30 1419 N 128.595 0.856903 1.32268 0
M  V30 1420 C 129.527 0.260412 2.27716 0
M  V30 1421 C 130.54 -0.569137 1.52528 0
M  V30 1422 O 131.729 -0.39326 1.74114 0
M  V30 1423 C 128.829 -0.650477 3.32599 0
M  V30 1424 C 128.002 0.14372 4.37164 0
M  V30 1425 C 127.061 -0.69328 5.21613 0
M  V30 1426 O 126.087 -0.12599 5.69061 0
M  V30 1427 N 127.289 -2.00761 5.44679 0
M  V30 1428 H 130.054 1.08059 2.79541 0
M  V30 1429 H 127.615 0.717103 1.45152 0
M  V30 1430 H 129.607 -1.21581 3.86005 0
M  V30 1431 H 128.177 -1.37133 2.80915 0
M  V30 1432 H 127.397 0.890486 3.8401 0
M  V30 1433 H 128.685 0.68915 5.04111 0
M  V30 1434 H 128.083 -2.49181 5.07863 0
M  V30 1435 H 126.64 -2.52103 6.01072 0
M  V30 1436 N 130.073 -1.45103 0.615059 0
M  V30 1437 C 131.319 -2.03035 0.121804 0
M  V30 1438 C 131.674 -1.47393 -1.23665 0
M  V30 1439 O 130.967 -0.642061 -1.80522 0
M  V30 1440 C 131.161 -3.57386 0.0318797 0
M  V30 1441 C 130.99 -4.28 1.38007 0
M  V30 1442 C 129.76 -4.65624 1.9627 0
M  V30 1443 C 131.958 -4.5948 2.31047 0
M  V30 1444 N 129.94 -5.21132 3.24492 0
M  V30 1445 C 131.311 -5.159 3.43872 0
M  V30 1446 C 133.366 -4.41423 2.30326 0
M  V30 1447 C 132.069 -5.56165 4.5615 0
M  V30 1448 C 134.095 -4.82726 3.41658 0
M  V30 1449 C 133.457 -5.39245 4.53205 0
M  V30 1450 H 129.556 -0.77702 0.0881159 0
M  V30 1451 H 132.14 -1.76819 0.815044 0
M  V30 1452 H 130.311 -3.83247 -0.630599 0
M  V30 1453 H 132.043 -4.01976 -0.468721 0
M  V30 1454 H 128.798 -4.49421 1.49392 0
M  V30 1455 H 129.222 -5.53377 3.90004 0
M  V30 1456 H 133.864 -3.97033 1.45343 0
M  V30 1457 H 131.582 -5.99517 5.41854 0
M  V30 1458 H 135.168 -4.7048 3.42257 0
M  V30 1459 H 134.048 -5.70616 5.37929 0
M  V30 1460 N 131.551 -0.354651 -1.53558 0
M  V30 1461 C 132.499 0.512195 -2.26891 0
M  V30 1462 C 133.493 1.09263 -1.29452 0
M  V30 1463 O 134.699 1.03709 -1.47121 0
M  V30 1464 H 131.074 0.183878 -0.729173 0
M  V30 1465 H 133.045 -0.128202 -2.98124 0
M  V30 1466 C 131.794 1.64563 -3.06291 0
M  V30 1467 H 131.117 1.20829 -3.81104 0
M  V30 1468 H 132.557 2.22711 -3.60799 0
M  V30 1469 C 131.016 2.58158 -2.16462 0
M  V30 1470 O 131.546 3.60695 -1.76811 0
M  V30 1471 N 129.752 2.27096 -1.81317 0
M  V30 1472 H 129.299 1.43751 -2.1376 0
M  V30 1473 H 129.257 2.89975 -1.21498 0
M  V30 1474 N 133.029 1.57378 -0.0835403 0
M  V30 1475 C 134.275 1.94217 0.583733 0
M  V30 1476 C 134.608 0.964653 1.68547 0
M  V30 1477 O 133.883 -0.00422258 1.945 0
M  V30 1478 C 134.166 3.41253 1.14972 0
M  V30 1479 C 134.019 4.49768 0.0538277 0
M  V30 1480 C 135.338 3.89352 2.05166 0
M  V30 1481 H 132.457 0.706233 0.210724 0
M  V30 1482 H 135.099 1.89392 -0.1519 0
M  V30 1483 H 133.249 3.45496 1.77665 0
M  V30 1484 H 134.921 4.57641 -0.579851 0
M  V30 1485 H 133.164 4.29432 -0.614068 0
M  V30 1486 H 133.835 5.49817 0.490452 0
M  V30 1487 H 136.311 3.87189 1.52393 0
M  V30 1488 H 135.187 4.92822 2.41698 0
M  V30 1489 H 135.448 3.27973 2.96456 0
M  V30 1490 N 134.507 -0.190092 1.56449 0
M  V30 1491 C 135.732 -0.929864 1.85387 0
M  V30 1492 C 136.157 -1.7585 0.667704 0
M  V30 1493 O 135.515 -1.77198 -0.383459 0
M  V30 1494 C 135.563 -1.79773 3.12593 0
M  V30 1495 O 134.667 -2.89713 2.93496 0
M  V30 1496 H 134.008 -0.261574 0.610307 0
M  V30 1497 H 136.538 -0.193896 2.03679 0
M  V30 1498 H 136.548 -2.20139 3.43515 0
M  V30 1499 H 135.223 -1.18892 3.98544 0
M  V30 1500 H 133.8 -2.53065 2.73884 0
M  V30 1501 N 135.985 -1.50799 -0.457987 0
M  V30 1502 C 136.895 -1.73426 -1.57989 0
M  V30 1503 C 137.911 -0.617745 -1.62665 0
M  V30 1504 O 139.087 -0.897614 -1.80291 0
M  V30 1505 C 136.152 -1.83557 -2.94122 0
M  V30 1506 C 135.213 -3.07345 -2.99729 0
M  V30 1507 C 134.446 -3.16983 -4.29368 0
M  V30 1508 O 134.669 -2.33077 -5.20607 0
M  V30 1509 O 133.603 -4.09812 -4.40837 0
M  V30 1510 H 137.429 -2.68555 -1.41817 0
M  V30 1511 H 135.014 -1.35052 -0.638859 0
M  V30 1512 H 136.896 -1.92326 -3.74952 0
M  V30 1513 H 135.571 -0.916137 -3.10465 0
M  V30 1514 H 134.478 -3.04068 -2.1793 0
M  V30 1515 H 135.811 -3.9891 -2.88326 0
M  V30 1516 N 137.463 0.71206 -1.40597 0
M  V30 1517 C 138.693 1.49894 -1.42181 0
M  V30 1518 C 139.101 1.89189 -0.0208078 0
M  V30 1519 O 138.444 1.56223 0.966436 0
M  V30 1520 C 138.506 2.80215 -2.25211 0
M  V30 1521 C 138.17 2.63221 -3.73582 0
M  V30 1522 C 139.167 2.30249 -4.66135 0
M  V30 1523 C 136.852 2.79376 -4.17438 0
M  V30 1524 C 138.846 2.13645 -6.00529 0
M  V30 1525 C 136.533 2.6239 -5.51901 0
M  V30 1526 C 137.531 2.29573 -6.43262 0
M  V30 1527 O 137.219 2.12719 -7.75246 0
M  V30 1528 H 136.951 0.469031 -0.486812 0
M  V30 1529 H 139.505 0.88564 -1.85326 0
M  V30 1530 H 137.735 3.4389 -1.76852 0
M  V30 1531 H 139.424 3.41947 -2.18694 0
M  V30 1532 H 140.19 2.17398 -4.33547 0
M  V30 1533 H 136.069 3.03906 -3.46644 0
M  V30 1534 H 139.613 1.87953 -6.71803 0
M  V30 1535 H 135.51 2.74826 -5.84073 0
M  V30 1536 H 136.278 2.27611 -7.86216 0
M  V30 1537 N 138.941 1.26152 0.944643 0
M  V30 1538 C 140.352 1.10454 1.50522 0
M  V30 1539 C 140.703 -0.31635 1.93633 0
M  V30 1540 O 139.828 -1.20746 1.79581 0
M  V30 1541 C 140.423 1.99891 2.73549 0
M  V30 1542 C 138.982 1.88348 3.25886 0
M  V30 1543 C 138.129 1.93447 1.9868 0
M  V30 1544 H 141.08 1.39292 0.760489 0
M  V30 1545 H 141.101 1.54477 3.47732 0
M  V30 1546 H 140.613 3.03297 2.42141 0
M  V30 1547 H 138.714 0.878636 3.62092 0
M  V30 1548 H 138.827 2.73696 3.93227 0
M  V30 1549 H 137.191 1.37456 2.14425 0
M  V30 1550 H 137.974 2.98476 1.69607 0
M  V30 1551 N 140.419 -1.14872 1.07899 0
M  V30 1552 C 141.667 -1.85422 0.803941 0
M  V30 1553 C 141.988 -1.83051 -0.67211 0
M  V30 1554 O 141.258 -1.27532 -1.48703 0
M  V30 1555 H 139.838 -0.686537 0.294408 0
M  V30 1556 H 142.5 -1.39226 1.3639 0
M  V30 1557 H 141.596 -2.90399 1.14346 0
M  V30 1558 N 141.898 -0.863906 -1.31812 0
M  V30 1559 C 143.144 -0.472535 -1.97218 0
M  V30 1560 C 143.477 0.971394 -1.68159 0
M  V30 1561 O 142.752 1.68309 -0.974798 0
M  V30 1562 C 143.035 -0.723054 -3.52766 0
M  V30 1563 C 142.888 -2.21608 -3.91421 0
M  V30 1564 C 144.207 -0.185522 -4.39709 0
M  V30 1565 H 141.326 -0.173158 -0.71637 0
M  V30 1566 H 143.968 -1.08403 -1.56041 0
M  V30 1567 H 142.118 -0.202577 -3.87971 0
M  V30 1568 H 143.79 -2.80334 -3.66347 0
M  V30 1569 H 142.033 -2.691 -3.40246 0
M  V30 1570 H 142.704 -2.34203 -4.99853 0
M  V30 1571 H 145.18 -0.630726 -4.11292 0
M  V30 1572 H 144.056 -0.390306 -5.47511 0
M  V30 1573 H 144.317 0.912229 -4.32586 0
M  V30 1574 N 143.376 1.44774 -0.622745 0
M  V30 1575 C 144.323 2.30635 0.0871679 0
M  V30 1576 C 145.293 1.42994 0.845097 0
M  V30 1577 O 146.478 1.71907 0.827812 0
M  V30 1578 C 143.618 3.28144 1.06844 0
M  V30 1579 C 142.731 4.30888 0.309809 0
M  V30 1580 C 141.866 5.15494 1.28215 0
M  V30 1581 C 140.905 6.09953 0.512198 0
M  V30 1582 N 140.042 6.87287 1.43458 0
M  V30 1583 H 144.882 2.90803 -0.650974 0
M  V30 1584 H 142.419 1.43286 -0.33281 0
M  V30 1585 H 144.377 3.83157 1.65066 0
M  V30 1586 H 143.007 2.69695 1.77382 0
M  V30 1587 H 142.059 3.78414 -0.388181 0
M  V30 1588 H 143.371 4.97955 -0.290254 0
M  V30 1589 H 142.525 5.74983 1.93596 0
M  V30 1590 H 141.264 4.48481 1.91614 0
M  V30 1591 H 140.269 5.49581 -0.155151 0
M  V30 1592 H 141.494 6.78999 -0.116958 0
M  V30 1593 H 139.44 6.2295 2.05594 0
M  V30 1594 H 139.357 7.50763 0.888335 0
M  V30 1595 H 140.625 7.51306 2.07749 0
M  V30 1596 N 144.854 0.36279 1.53368 0
M  V30 1597 C 146.082 -0.228613 2.05633 0
M  V30 1598 C 146.497 -1.42676 1.23649 0
M  V30 1599 O 145.854 -1.80394 0.27647 0
M  V30 1600 C 145.905 -0.624845 3.56059 0
M  V30 1601 O 145.626 0.525675 4.34935 0
M  V30 1602 C 147.127 -1.27493 4.24571 0
M  V30 1603 H 144.347 -0.0407183 0.669763 0
M  V30 1604 H 146.891 0.520352 1.97769 0
M  V30 1605 H 145.046 -1.32373 3.64083 0
M  V30 1606 H 145.46 0.205969 5.24095 0
M  V30 1607 H 146.934 -1.50277 5.31151 0
M  V30 1608 H 147.411 -2.23439 3.78116 0
M  V30 1609 H 148.017 -0.617558 4.20792 0
M  V30 1610 N 146.332 -1.57332 0.0918853 0
M  V30 1611 C 147.578 -1.94524 -0.573425 0
M  V30 1612 C 147.911 -0.973578 -1.68033 0
M  V30 1613 O 147.186 -0.00609226 -1.94499 0
M  V30 1614 C 147.469 -3.41858 -1.13161 0
M  V30 1615 C 147.322 -4.4979 -0.0299747 0
M  V30 1616 C 148.641 -3.90435 -2.03098 0
M  V30 1617 H 145.76 -0.70734 -0.206975 0
M  V30 1618 H 148.402 -1.89309 0.161942 0
M  V30 1619 H 146.552 -3.46433 -1.7583 0
M  V30 1620 H 148.224 -4.57327 0.604112 0
M  V30 1621 H 146.467 -4.291 0.636833 0
M  V30 1622 H 147.138 -5.50069 -0.461287 0
M  V30 1623 H 149.614 -3.87992 -1.50338 0
M  V30 1624 H 148.49 -4.94097 -2.39081 0
M  V30 1625 H 148.751 -3.29541 -2.94712 0
M  V30 1626 N 147.81 0.181792 -1.56548 0
M  V30 1627 C 149.226 0.53316 -1.50431 0
M  V30 1628 C 149.426 1.85184 -0.794297 0
M  V30 1629 O 148.482 2.50058 -0.350318 0
M  V30 1630 C 149.795 0.575597 -2.9514 0
M  V30 1631 C 151.343 0.663519 -3.05886 0
M  V30 1632 C 151.818 0.736946 -4.52032 0
M  V30 1633 N 153.309 0.800118 -4.56237 0
M  V30 1634 C 154.044 0.877327 -5.66649 0
M  V30 1635 N 153.54 0.916016 -6.86718 0
M  V30 1636 N 155.333 0.915542 -5.54594 0
M  V30 1637 H 147.484 -0.683025 -2.01118 0
M  V30 1638 H 149.747 -0.244988 -0.915797 0
M  V30 1639 H 149.453 -0.324482 -3.502 0
M  V30 1640 H 149.327 1.42572 -3.49218 0
M  V30 1641 H 151.714 1.55403 -2.50867 0
M  V30 1642 H 151.795 -0.21307 -2.54911 0
M  V30 1643 H 151.439 -0.149262 -5.07681 0
M  V30 1644 H 151.369 1.62953 -5.00753 0
M  V30 1645 H 153.86 0.778926 -3.69785 0
M  V30 1646 H 154.173 0.975813 -7.66614 0
M  V30 1647 H 152.518 0.884469 -6.89349 0
M  V30 1648 H 155.709 0.882245 -4.59711 0
M  V30 1649 H 155.882 0.972253 -6.40665 0
M  V30 1650 N 149.288 1.51039 0.449983 0
M  V30 1651 C 150.535 1.63081 1.20045 0
M  V30 1652 C 150.863 0.341024 1.91487 0
M  V30 1653 O 150.118 -0.674276 1.83717 0
M  V30 1654 C 150.417 2.77556 2.25161 0
M  V30 1655 C 150.083 4.17289 1.70823 0
M  V30 1656 C 148.745 4.55305 1.55725 0
M  V30 1657 C 151.097 5.04536 1.3074 0
M  V30 1658 C 148.425 5.78287 0.989999 0
M  V30 1659 C 150.777 6.28085 0.754482 0
M  V30 1660 C 149.441 6.64885 0.590308 0
M  V30 1661 H 148.711 0.596755 0.439277 0
M  V30 1662 H 151.358 1.85037 0.49333 0
M  V30 1663 H 149.663 2.49771 3.01863 0
M  V30 1664 H 151.36 2.84073 2.83026 0
M  V30 1665 H 147.95 3.8731 1.83546 0
M  V30 1666 H 152.134 4.75782 1.41229 0
M  V30 1667 H 147.39 6.05456 0.850451 0
M  V30 1668 H 151.564 6.95038 0.435324 0
M  V30 1669 H 149.191 7.60055 0.14862 0
M  V30 1670 N 150.766 -0.704594 1.40972 0
M  V30 1671 C 152.177 -1.28418 1.3552 0
M  V30 1672 C 152.528 -1.96171 0.0339434 0
M  V30 1673 O 151.653 -1.98231 -0.867944 0
M  V30 1674 C 152.248 -2.33528 2.45459 0
M  V30 1675 C 150.807 -2.87085 2.43433 0
M  V30 1676 C 149.954 -1.61007 2.2577 0
M  V30 1677 H 152.905 -0.499963 1.50619 0
M  V30 1678 H 152.926 -3.14619 2.13998 0
M  V30 1679 H 152.438 -1.84187 3.41609 0
M  V30 1680 H 150.539 -3.40626 1.51013 0
M  V30 1681 H 150.652 -3.3813 3.39419 0
M  V30 1682 H 149.016 -1.86482 1.73483 0
M  V30 1683 H 149.799 -1.13675 3.23933 0
M  V30 1684 N 152.244 -1.26651 -0.937939 0
M  V30 1685 C 153.521 -1.0313 -1.66204 0
M  V30 1686 C 153.901 0.437256 -2.06522 0
M  V30 1687 O 153.249 1.41831 -1.79154 0
M  V30 1688 C 153.459 -1.98314 -2.87181 0
M  V30 1689 C 154.807 -2.27107 -3.58758 0
M  V30 1690 O 155.831 -1.96205 -2.97291 0
M  V30 1691 O 154.69 -2.79736 -4.69479 0
M  V30 1692 H 151.784 -0.392384 -0.727986 0
M  V30 1693 H 154.33 -1.37874 -0.989382 0
M  V30 1694 H 153.102 -2.97399 -2.54302 0
M  V30 1695 H 152.725 -1.64068 -3.6217 0
M  V30 1696 N 153.722 1.14298 -1.08507 0
M  V30 1697 C 154.97 1.84993 -0.813763 0
M  V30 1698 C 155.291 1.83405 0.662393 0
M  V30 1699 O 154.561 1.28319 1.48024 0
M  V30 1700 H 153.141 0.684966 -0.298045 0
M  V30 1701 H 155.803 1.385 -1.37126 0
M  V30 1702 H 154.899 2.89788 -1.15884 0
M  V30 1703 N 155.201 0.870884 1.31352 0
M  V30 1704 C 156.133 0.28455 2.27427 0
M  V30 1705 C 157.146 -0.552927 1.53123 0
M  V30 1706 O 158.335 -0.374771 1.74521 0
M  V30 1707 C 155.435 -0.615164 3.3327 0
M  V30 1708 C 154.608 0.190079 4.36987 0
M  V30 1709 C 153.667 -0.637917 5.22319 0
M  V30 1710 O 152.693 -0.065626 5.69162 0
M  V30 1711 N 153.895 -1.94973 5.46778 0
M  V30 1712 H 156.66 1.11017 2.7838 0
M  V30 1713 H 154.221 0.732458 1.44384 0
M  V30 1714 H 156.213 -1.1748 3.87273 0
M  V30 1715 H 154.783 -1.34146 2.82354 0
M  V30 1716 H 154.003 0.931165 3.83044 0
M  V30 1717 H 155.291 0.742579 5.03352 0
M  V30 1718 H 154.689 -2.4378 5.10478 0
M  V30 1719 H 153.246 -2.45713 6.03712 0
M  V30 1720 N 156.679 -1.44442 0.630414 0
M  V30 1721 C 157.928 -2.01267 0.132073 0
M  V30 1722 C 158.241 -1.50172 -1.25331 0
M  V30 1723 O 159.447 -1.9912 -1.84562 0
M  V30 1724 C 157.903 -3.59422 0.185362 0
M  V30 1725 C 157.511 -4.19514 1.57201 0
M  V30 1726 C 159.255 -4.23724 -0.256553 0
M  V30 1727 C 157.162 -5.69891 1.58045 0
M  V30 1728 H 156.092 -0.752619 0.0456092 0
M  V30 1729 H 158.743 -1.65666 0.789106 0
M  V30 1730 H 157.125 -3.92318 -0.538759 0
M  V30 1731 H 158.299 -3.98156 2.31966 0
M  V30 1732 H 156.614 -3.67496 1.95795 0
M  V30 1733 H 159.211 -5.34019 -0.269767 0
M  V30 1734 H 159.554 -3.96013 -1.28372 0
M  V30 1735 H 160.087 -3.95629 0.41505 0
M  V30 1736 H 156.826 -6.02336 2.58597 0
M  V30 1737 H 156.346 -5.93373 0.875725 0
M  V30 1738 H 158.025 -6.33515 1.31408 0
M  V30 1739 N 158.157 -0.370918 -1.53173 0
M  V30 1740 C 159.403 0.209976 -2.02313 0
M  V30 1741 C 159.758 1.45987 -1.25322 0
M  V30 1742 O 159.051 1.8856 -0.339965 0
M  V30 1743 C 159.245 0.549696 -3.53147 0
M  V30 1744 C 159.074 -0.665721 -4.44745 0
M  V30 1745 C 157.844 -1.17942 -4.91343 0
M  V30 1746 C 160.042 -1.53255 -4.90935 0
M  V30 1747 N 158.024 -2.35431 -5.66962 0
M  V30 1748 C 159.395 -2.55403 -5.64951 0
M  V30 1749 C 161.45 -1.5548 -4.73002 0
M  V30 1750 C 160.153 -3.5964 -6.22938 0
M  V30 1751 C 162.179 -2.58613 -5.31858 0
M  V30 1752 C 161.541 -3.59485 -6.05764 0
M  V30 1753 H 157.64 0.0394095 -0.781006 0
M  V30 1754 H 160.224 -0.516666 -1.8772 0
M  V30 1755 H 158.395 1.24541 -3.67891 0
M  V30 1756 H 160.127 1.11614 -3.89004 0
M  V30 1757 H 156.882 -0.743228 -4.67732 0
M  V30 1758 H 157.306 -2.94827 -6.09431 0
M  V30 1759 H 161.948 -0.788457 -4.15383 0
M  V30 1760 H 159.666 -4.37153 -6.79649 0
M  V30 1761 H 163.252 -2.61195 -5.19873 0
M  V30 1762 H 162.132 -4.3798 -6.50495 0
M  V30 1763 N 159.635 1.57281 -0.100228 0
M  V30 1764 C 160.582 2.14305 0.856858 0
M  V30 1765 C 161.552 1.06296 1.27634 0
M  V30 1766 O 162.737 1.34109 1.35718 0
M  V30 1767 C 159.877 2.73184 2.10866 0
M  V30 1768 C 158.99 3.95442 1.73925 0
M  V30 1769 C 158.125 4.42468 2.93931 0
M  V30 1770 C 157.164 5.57303 2.5314 0
M  V30 1771 N 156.301 5.99158 3.65997 0
M  V30 1772 H 161.141 2.95772 0.363726 0
M  V30 1773 H 158.678 1.46139 0.167858 0
M  V30 1774 H 160.636 3.05442 2.84185 0
M  V30 1775 H 159.266 1.94437 2.57671 0
M  V30 1776 H 158.318 3.69464 0.905554 0
M  V30 1777 H 159.63 4.78769 1.39935 0
M  V30 1778 H 158.784 4.76537 3.75496 0
M  V30 1779 H 157.523 3.58052 3.31134 0
M  V30 1780 H 156.528 5.22857 1.70003 0
M  V30 1781 H 157.753 6.43471 2.17075 0
M  V30 1782 H 155.699 5.17687 4.02909 0
M  V30 1783 H 155.616 6.77295 3.35869 0
M  V30 1784 H 156.884 6.3786 4.48057 0
M  V30 1785 N 161.113 -0.173488 1.56642 0
M  V30 1786 C 162.524 -0.736155 1.71574 0
M  V30 1787 C 162.875 -1.82888 0.710389 0
M  V30 1788 O 162 -2.16017 -0.1287 0
M  V30 1789 C 162.595 -1.34211 3.11083 0
M  V30 1790 C 161.154 -1.85162 3.27707 0
M  V30 1791 C 160.301 -0.729765 2.67525 0
M  V30 1792 H 163.252 0.0518786 1.58615 0
M  V30 1793 H 163.273 -2.21178 3.09613 0
M  V30 1794 H 162.785 -0.546579 3.84232 0
M  V30 1795 H 160.886 -2.67366 2.59512 0
M  V30 1796 H 160.999 -1.99855 4.35425 0
M  V30 1797 H 159.363 -1.14965 2.27278 0
M  V30 1798 H 160.146 0.0538806 3.43258 0
M  V30 1799 N 162.591 -1.51276 -0.441967 0
M  V30 1800 C 163.868 -1.54252 -1.20273 0
M  V30 1801 C 164.248 -0.30408 -2.08898 0
M  V30 1802 O 163.596 0.711084 -2.17154 0
M  V30 1803 C 163.806 -2.85406 -2.00859 0
M  V30 1804 C 165.154 -3.37181 -2.58059 0
M  V30 1805 O 166.178 -2.86925 -2.11074 0
M  V30 1806 O 165.037 -4.24858 -3.43741 0
M  V30 1807 H 162.131 -0.619969 -0.547328 0
M  V30 1808 H 164.677 -1.63586 -0.451413 0
M  V30 1809 H 163.449 -3.67003 -1.35736 0
M  V30 1810 H 163.072 -2.79213 -2.83065 0
M  V30 1811 N 164.069 0.697108 -1.41344 0
M  V30 1812 C 165.318 1.45279 -1.39918 0
M  V30 1813 C 165.631 1.95597 -0.0109624 0
M  V30 1814 O 166.837 2.71208 0.125919 0
M  V30 1815 C 165.293 2.62695 -2.46007 0
M  V30 1816 C 164.901 2.19169 -3.90729 0
M  V30 1817 C 166.645 3.40336 -2.53715 0
M  V30 1818 C 164.552 3.33535 -4.88373 0
M  V30 1819 H 163.482 0.545692 -0.520323 0
M  V30 1820 H 166.133 0.756929 -1.67161 0
M  V30 1821 H 164.515 3.34541 -2.11892 0
M  V30 1822 H 165.689 1.54623 -4.34083 0
M  V30 1823 H 164.004 1.54525 -3.86666 0
M  V30 1824 H 166.601 4.2547 -3.2385 0
M  V30 1825 H 166.944 3.85418 -1.5735 0
M  V30 1826 H 167.477 2.75546 -2.86913 0
M  V30 1827 H 164.216 2.93468 -5.86137 0
M  V30 1828 H 163.736 3.96936 -4.49668 0
M  V30 1829 H 165.415 3.99335 -5.09059 0
M  V30 1830 N 165.547 1.27147 0.931209 0
M  V30 1831 C 166.477 1.12081 2.04842 0
M  V30 1832 C 167.458 0.0232364 1.70084 0
M  V30 1833 O 168.643 0.197085 1.93197 0
M  V30 1834 C 165.773 0.76354 3.38803 0
M  V30 1835 C 164.727 1.81396 3.87659 0
M  V30 1836 C 164.053 1.31075 5.18385 0
M  V30 1837 C 165.353 3.21739 4.11438 0
M  V30 1838 H 167.047 2.05537 2.17703 0
M  V30 1839 H 164.593 0.989603 1.04608 0
M  V30 1840 H 166.546 0.644982 4.16435 0
M  V30 1841 H 165.27 -0.206727 3.25945 0
M  V30 1842 H 163.929 1.92136 3.12217 0
M  V30 1843 H 163.577 0.330037 5.01916 0
M  V30 1844 H 163.277 2.013 5.52044 0
M  V30 1845 H 164.801 1.20506 5.98591 0
M  V30 1846 H 166.215 3.14019 4.79651 0
M  V30 1847 H 164.612 3.89644 4.56397 0
M  V30 1848 H 165.682 3.67054 3.16859 0
M  V30 1849 N 167.025 -1.13721 1.09112 0
M  V30 1850 C 167.955 -2.21148 0.749385 0
M  V30 1851 C 168.936 -1.6792 -0.271475 0
M  V30 1852 O 170.121 -1.93693 -0.140251 0
M  V30 1853 C 167.251 -3.46905 0.165659 0
M  V30 1854 C 166.205 -4.13203 1.11567 0
M  V30 1855 C 165.531 -5.33248 0.393809 0
M  V30 1856 C 166.831 -4.60912 2.45678 0
M  V30 1857 H 168.525 -2.4999 1.64758 0
M  V30 1858 H 166.071 -1.20156 0.793626 0
M  V30 1859 H 168.024 -4.21313 -0.085466 0
M  V30 1860 H 166.748 -3.17449 -0.767714 0
M  V30 1861 H 165.407 -3.40758 1.35202 0
M  V30 1862 H 165.055 -5.00054 -0.543599 0
M  V30 1863 H 164.755 -5.78552 1.02721 0
M  V30 1864 H 166.279 -6.10413 0.150908 0
M  V30 1865 H 167.693 -5.26759 2.26269 0
M  V30 1866 H 166.09 -5.16944 3.04776 0
M  V30 1867 H 167.16 -3.75603 3.06677 0
M  V30 1868 N 168.503 -0.877838 -1.30888 0
M  V30 1869 C 169.733 -0.506678 -2.00291 0
M  V30 1870 C 170.141 0.907449 -1.66018 0
M  V30 1871 O 169.484 1.60719 -0.88967 0
M  V30 1872 C 169.546 -0.59323 -3.54572 0
M  V30 1873 C 169.21 -1.97038 -4.12341 0
M  V30 1874 C 170.207 -2.93889 -4.28865 0
M  V30 1875 C 167.892 -2.27383 -4.47886 0
M  V30 1876 C 169.886 -4.19224 -4.80136 0
M  V30 1877 C 167.573 -3.52965 -4.98857 0
M  V30 1878 C 168.571 -4.48701 -5.14934 0
M  V30 1879 O 168.259 -5.72056 -5.64808 0
M  V30 1880 H 167.991 -0.1951 -0.647234 0
M  V30 1881 H 170.545 -1.18301 -1.6791 0
M  V30 1882 H 168.775 0.140057 -3.86446 0
M  V30 1883 H 170.464 -0.234372 -4.05223 0
M  V30 1884 H 171.23 -2.71756 -4.01714 0
M  V30 1885 H 167.109 -1.53639 -4.34645 0
M  V30 1886 H 170.653 -4.93956 -4.92599 0
M  V30 1887 H 166.55 -3.74939 -5.25443 0
M  V30 1888 H 167.318 -5.74337 -5.83163 0
M  V30 1889 N 169.982 1.44106 -0.638065 0
M  V30 1890 C 170.93 2.3248 0.0748149 0
M  V30 1891 C 171.924 1.47746 0.828702 0
M  V30 1892 O 173.13 1.64049 0.740816 0
M  V30 1893 H 169.505 0.750771 0.0429686 0
M  V30 1894 H 171.476 2.90348 -0.688504 0
M  V30 1895 C 170.225 3.31843 1.03805 0
M  V30 1896 H 169.548 3.97059 0.467375 0
M  V30 1897 H 170.988 3.96345 1.50622 0
M  V30 1898 C 169.447 2.61291 2.1267 0
M  V30 1899 O 169.977 2.41702 3.20847 0
M  V30 1900 N 168.183 2.20915 1.88798 0
M  V30 1901 H 167.73 2.37047 1.00829 0
M  V30 1902 H 167.688 1.74038 2.61836 0
M  V30 1903 N 171.46 0.379036 1.52974 0
M  V30 1904 C 172.685 -0.209353 2.06341 0
M  V30 1905 C 173.11 -1.40583 1.24972 0
M  V30 1906 O 172.468 -1.79246 0.272155 0
M  V30 1907 C 172.516 -0.567786 3.56102 0
M  V30 1908 O 171.62 -1.66318 3.77375 0
M  V30 1909 H 170.961 -0.0272919 0.663439 0
M  V30 1910 H 173.491 0.543536 1.97248 0
M  V30 1911 H 173.501 -0.835003 3.99364 0
M  V30 1912 H 172.176 0.307013 4.14765 0
M  V30 1913 H 170.753 -1.39048 3.46006 0
M  V30 1914 N 172.938 -1.57226 0.108567 0
M  V30 1915 C 173.901 -2.13602 -0.831082 0
M  V30 1916 C 174.901 -1.06841 -1.20173 0
M  V30 1917 O 176.091 -1.32666 -1.12895 0
M  V30 1918 C 173.223 -2.66769 -2.12243 0
M  V30 1919 H 174.416 -2.97951 -0.341317 0
M  V30 1920 H 171.969 -1.55667 -0.14057 0
M  V30 1921 H 172.704 -1.85977 -2.65675 0
M  V30 1922 H 172.489 -3.44839 -1.86625 0
M  V30 1923 H 173.979 -3.10332 -2.79435 0
M  V30 1924 N 174.416 0.165178 -1.56732 0
M  V30 1925 C 175.693 0.908443 -1.73224 0
M  V30 1926 C 176.073 2.0013 -0.67165 0
M  V30 1927 O 175.421 2.26353 0.31253 0
M  V30 1928 C 175.631 1.46756 -3.16644 0
M  V30 1929 C 176.979 1.93809 -3.77787 0
M  V30 1930 O 178.003 1.56537 -3.1996 0
M  V30 1931 O 176.862 2.62486 -4.79336 0
M  V30 1932 H 173.956 0.428025 -0.707618 0
M  V30 1933 H 176.502 0.152526 -1.69013 0
M  V30 1934 H 175.274 0.68129 -3.85323 0
M  V30 1935 H 174.897 2.28749 -3.25207 0
M  V30 1936 N 175.894 1.51508 0.433938 0
M  V30 1937 C 176.804 1.75917 1.5521 0
M  V30 1938 C 177.82 0.643545 1.61662 0
M  V30 1939 O 178.996 0.926183 1.7884 0
M  V30 1940 C 176.061 1.88213 2.91164 0
M  V30 1941 C 175.122 3.12074 2.94802 0
M  V30 1942 C 174.355 3.23774 4.24271 0
M  V30 1943 O 174.578 2.4133 5.16833 0
M  V30 1944 O 173.512 4.16774 4.34262 0
M  V30 1945 H 177.338 2.70777 1.37527 0
M  V30 1946 H 174.923 1.36051 0.617293 0
M  V30 1947 H 176.805 1.98267 3.71845 0
M  V30 1948 H 175.48 0.965413 3.08968 0
M  V30 1949 H 174.387 3.07497 2.13065 0
M  V30 1950 H 175.72 4.03446 2.81943 0
M  V30 1951 N 177.372 -0.689602 1.41712 0
M  V30 1952 C 178.788 -1.00093 1.24312 0
M  V30 1953 C 178.988 -2.01036 0.136729 0
M  V30 1954 O 178.044 -2.47562 -0.496918 0
M  V30 1955 C 179.357 -1.51985 2.59463 0
M  V30 1956 C 180.905 -1.63838 2.66695 0
M  V30 1957 C 181.38 -2.1913 4.02177 0
M  V30 1958 N 182.871 -2.26483 4.04054 0
M  V30 1959 C 183.606 -2.70306 5.0569 0
M  V30 1960 N 183.102 -3.13691 6.17713 0
M  V30 1961 N 184.895 -2.69923 4.9305 0
M  V30 1962 H 177.046 -0.0210029 2.1239 0
M  V30 1963 H 179.309 -0.0718733 0.945272 0
M  V30 1964 H 179.015 -0.85269 3.41207 0
M  V30 1965 H 178.889 -2.50103 2.82362 0
M  V30 1966 H 181.276 -2.29664 1.85306 0
M  V30 1967 H 181.357 -0.642492 2.476 0
M  V30 1968 H 181.001 -1.53918 4.84016 0
M  V30 1969 H 180.931 -3.19482 4.18615 0
M  V30 1970 H 183.422 -1.95874 3.23174 0
M  V30 1971 H 183.735 -3.45773 6.9113 0
M  V30 1972 H 182.08 -3.11585 6.21241 0
M  V30 1973 H 185.271 -2.35382 4.04614 0
M  V30 1974 H 185.444 -3.03758 5.72394 0
M  V30 1975 N 178.85 -1.27639 -0.924453 0
M  V30 1976 C 180.097 -1.14167 -1.67249 0
M  V30 1977 C 180.425 0.311863 -1.91984 0
M  V30 1978 O 179.68 1.24425 -1.51053 0
M  V30 1979 C 179.979 -1.87407 -3.04325 0
M  V30 1980 C 179.645 -3.37249 -2.99289 0
M  V30 1981 C 178.307 -3.7812 -2.97622 0
M  V30 1982 C 180.659 -4.32845 -2.90336 0
M  V30 1983 C 177.987 -5.12944 -2.8479 0
M  V30 1984 C 180.339 -5.6773 -2.79045 0
M  V30 1985 C 179.003 -6.07889 -2.7573 0
M  V30 1986 H 178.273 -0.417766 -0.612007 0
M  V30 1987 H 180.92 -1.58286 -1.07786 0
M  V30 1988 H 179.225 -1.35805 -3.67511 0
M  V30 1989 H 180.922 -1.74408 -3.61086 0
M  V30 1990 H 177.512 -3.04748 -3.01374 0
M  V30 1991 H 181.696 -4.02239 -2.90719 0
M  V30 1992 H 176.952 -5.432 -2.80612 0
M  V30 1993 H 181.126 -6.41472 -2.71083 0
M  V30 1994 H 178.753 -7.12314 -2.65544 0
M  V30 1995 N 180.328 1.1314 -1.09713 0
M  V30 1996 C 181.605 1.80762 -0.747302 0
M  V30 1997 C 181.985 1.96663 0.767265 0
M  V30 1998 O 181.333 1.53706 1.69076 0
M  V30 1999 C 181.543 3.15606 -1.48975 0
M  V30 2000 C 182.891 3.90914 -1.65746 0
M  V30 2001 O 183.915 3.25239 -1.45251 0
M  V30 2002 O 182.774 5.08718 -1.9967 0
M  V30 2003 H 179.868 0.782103 -0.268782 0
M  V30 2004 H 182.414 1.20041 -1.19951 0
M  V30 2005 H 181.186 2.99278 -2.52088 0
M  V30 2006 H 180.809 3.84029 -1.02991 0
M  V30 2007 N 181.806 0.884767 1.30421 0
M  V30 2008 C 182.769 0.356277 2.26414 0
M  V30 2009 C 183.769 -0.501124 1.52792 0
M  V30 2010 O 184.959 -0.30831 1.7145 0
M  V30 2011 C 182.091 -0.492316 3.37326 0
M  V30 2012 H 183.284 1.20389 2.74675 0
M  V30 2013 H 180.837 0.661607 1.41607 0
M  V30 2014 H 181.572 -1.36052 2.94381 0
M  V30 2015 H 181.357 0.121832 3.91911 0
M  V30 2016 H 182.847 -0.853871 4.08777 0
M  V30 2017 N 183.284 -1.43765 0.645699 0
M  V30 2018 C 184.512 -2.06253 0.163556 0
M  V30 2019 C 184.927 -1.48352 -1.16778 0
M  V30 2020 O 184.284 -0.611932 -1.71935 0
M  V30 2021 C 184.335 -3.61453 0.0583186 0
M  V30 2022 O 184.056 -4.172 1.33702 0
M  V30 2023 C 185.557 -4.41002 -0.450795 0
M  V30 2024 H 182.777 -0.665413 0.0864077 0
M  V30 2025 H 185.321 -1.84396 0.884222 0
M  V30 2026 H 183.476 -3.82522 -0.612865 0
M  V30 2027 H 183.89 -5.10791 1.19131 0
M  V30 2028 H 185.364 -5.49966 -0.473403 0
M  V30 2029 H 185.841 -4.13488 -1.48068 0
M  V30 2030 H 186.447 -4.24886 0.187637 0
M  V30 2031 N 184.763 -0.387143 -1.52771 0
M  V30 2032 C 186.01 0.195735 -2.01552 0
M  V30 2033 C 186.338 1.46995 -1.27369 0
M  V30 2034 O 185.593 1.92325 -0.361879 0
M  V30 2035 C 185.892 0.512209 -3.53711 0
M  V30 2036 C 185.558 -0.670202 -4.45891 0
M  V30 2037 C 184.22 -0.994586 -4.70809 0
M  V30 2038 C 186.572 -1.46134 -5.00294 0
M  V30 2039 C 183.9 -2.11169 -5.4738 0
M  V30 2040 C 186.252 -2.56903 -5.78086 0
M  V30 2041 C 184.916 -2.89852 -6.01284 0
M  V30 2042 H 184.186 0.0716246 -0.73753 0
M  V30 2043 H 186.833 -0.524046 -1.8419 0
M  V30 2044 H 185.138 1.31329 -3.69134 0
M  V30 2045 H 186.835 0.975804 -3.88946 0
M  V30 2046 H 183.425 -0.407366 -4.2666 0
M  V30 2047 H 187.609 -1.22397 -4.80971 0
M  V30 2048 H 182.865 -2.3707 -5.63567 0
M  V30 2049 H 187.039 -3.18608 -6.19243 0
M  V30 2050 H 184.666 -3.76533 -6.60399 0
M  V30 2051 N 186.241 1.57166 -0.116904 0
M  V30 2052 C 187.191 2.11756 0.845178 0
M  V30 2053 C 188.175 1.03783 1.22955 0
M  V30 2054 O 189.367 1.3002 1.20099 0
M  V30 2055 C 186.496 2.71886 2.09602 0
M  V30 2056 C 185.582 3.86937 1.7361 0
M  V30 2057 N 185.973 4.94073 1.08284 0
M  V30 2058 C 184.271 3.97082 2.03082 0
M  V30 2059 C 184.972 5.74477 0.913855 0
M  V30 2060 N 183.948 5.2423 1.43818 0
M  V30 2061 H 187.75 2.91967 0.336523 0
M  V30 2062 H 185.264 1.62174 0.0856332 0
M  V30 2063 H 187.261 3.09338 2.79492 0
M  V30 2064 H 185.921 1.93138 2.61013 0
M  V30 2065 H 186.932 5.12483 0.747067 0
M  V30 2066 H 183.609 3.29372 2.56554 0
M  V30 2067 H 184.999 6.70701 0.40125 0
M  V30 2068 N 187.719 -0.156864 1.56817 0
M  V30 2069 C 188.947 -0.886316 1.86955 0
M  V30 2070 C 189.362 -1.75185 0.703975 0
M  V30 2071 O 188.719 -1.79555 -0.326552 0
M  V30 2072 C 188.77 -1.75117 3.16253 0
M  V30 2073 O 188.491 -0.920537 4.2832 0
M  V30 2074 C 189.992 -2.58905 3.59837 0
M  V30 2075 H 187.212 -0.25678 0.619923 0
M  V30 2076 H 189.756 -0.152615 2.0393 0
M  V30 2077 H 187.911 -2.43805 3.01062 0
M  V30 2078 H 188.325 -1.51337 5.02192 0
M  V30 2079 H 189.799 -3.1518 4.53172 0
M  V30 2080 H 190.276 -3.34472 2.84649 0
M  V30 2081 H 190.882 -1.95526 3.7769 0
M  V30 2082 N 189.197 -1.51736 -0.425897 0
M  V30 2083 C 190.145 -1.74464 -1.53834 0
M  V30 2084 C 191.139 -0.611241 -1.57988 0
M  V30 2085 O 192.345 -0.792899 -1.61596 0
M  V30 2086 H 188.72 -0.551437 -0.511293 0
M  V30 2087 H 190.691 -2.67694 -1.31843 0
M  V30 2088 C 189.44 -1.8972 -2.91379 0
M  V30 2089 H 188.763 -2.76344 -2.88919 0
M  V30 2090 H 190.203 -2.09629 -3.68553 0
M  V30 2091 C 188.662 -0.65992 -3.30374 0
M  V30 2092 O 189.192 0.180083 -4.01296 0
M  V30 2093 N 187.398 -0.500677 -2.86254 0
M  V30 2094 H 186.945 -1.18532 -2.28709 0
M  V30 2095 H 186.903 0.325903 -3.12706 0
M  V30 2096 N 190.675 0.682077 -1.42076 0
M  V30 2097 C 191.921 1.44428 -1.42367 0
M  V30 2098 C 192.254 1.94164 -0.0373056 0
M  V30 2099 O 191.529 1.70429 0.937239 0
M  V30 2100 C 191.812 2.64654 -2.44194 0
M  V30 2101 C 191.665 2.20596 -3.91991 0
M  V30 2102 C 192.984 3.66865 -2.431 0
M  V30 2103 H 190.103 0.523834 -0.518428 0
M  V30 2104 H 192.745 0.77576 -1.73442 0
M  V30 2105 H 190.895 3.2169 -2.17826 0
M  V30 2106 H 192.567 1.68783 -4.29313 0
M  V30 2107 H 190.81 1.52242 -4.06208 0
M  V30 2108 H 191.481 3.06921 -4.58807 0
M  V30 2109 H 193.957 3.19531 -2.66532 0
M  V30 2110 H 192.833 4.48577 -3.16339 0
M  V30 2111 H 193.094 4.17493 -1.45437 0
M  V30 2112 N 192.153 1.28127 0.917671 0
M  V30 2113 C 193.083 1.14248 2.03641 0
M  V30 2114 C 194.064 0.0412748 1.7005 0
M  V30 2115 O 195.249 0.217566 1.92977 0
M  V30 2116 C 192.379 0.799431 3.37974 0
M  V30 2117 C 191.333 1.85497 3.85713 0
M  V30 2118 C 190.659 1.36565 5.16966 0
M  V30 2119 C 191.959 3.26085 4.08002 0
M  V30 2120 H 193.653 2.07835 2.15511 0
M  V30 2121 H 191.199 1.00064 1.03553 0
M  V30 2122 H 193.152 0.689114 4.15727 0
M  V30 2123 H 191.876 -0.172145 3.26146 0
M  V30 2124 H 190.535 1.95437 3.10161 0
M  V30 2125 H 190.183 0.383253 5.01538 0
M  V30 2126 H 189.883 2.07143 5.49878 0
M  V30 2127 H 191.407 1.26848 5.97279 0
M  V30 2128 H 192.821 3.19089 4.76293 0
M  V30 2129 H 191.218 3.94462 4.52238 0
M  V30 2130 H 192.288 3.70394 3.12948 0
M  V30 2131 N 193.631 -1.12557 1.10312 0
M  V30 2132 C 194.877 -1.84311 0.846011 0
M  V30 2133 C 195.21 -1.83805 -0.626859 0
M  V30 2134 O 194.485 -1.28268 -1.46211 0
M  V30 2135 C 194.768 -3.32048 1.39341 0
M  V30 2136 C 194.621 -3.41016 2.93305 0
M  V30 2137 C 195.94 -4.27764 1.03468 0
M  V30 2138 H 193.059 -0.669192 0.30879 0
M  V30 2139 H 195.701 -1.32057 1.36605 0
M  V30 2140 H 193.851 -3.76678 0.951087 0
M  V30 2141 H 195.523 -3.05031 3.46055 0
M  V30 2142 H 193.766 -2.81603 3.29973 0
M  V30 2143 H 194.437 -4.44948 3.26689 0
M  V30 2144 H 196.913 -3.91253 1.41633 0
M  V30 2145 H 195.789 -5.29549 1.44463 0
M  V30 2146 H 196.05 -4.42064 -0.0560404 0
M  V30 2147 N 195.109 -0.891671 -1.2995 0
M  V30 2148 C 196.057 -0.353066 -2.29905 0
M  V30 2149 C 197.051 0.543509 -1.60444 0
M  V30 2150 O 198.257 0.4272 -1.74857 0
M  V30 2151 H 194.632 -0.095531 -0.745907 0
M  V30 2152 H 196.603 -1.20961 -2.72784 0
M  V30 2153 C 195.352 0.411475 -3.45257 0
M  V30 2154 H 194.675 -0.269182 -3.98893 0
M  V30 2155 H 196.115 0.753328 -4.17254 0
M  V30 2156 C 194.574 1.6111 -2.9588 0
M  V30 2157 O 195.104 2.71045 -2.96475 0
M  V30 2158 N 193.31 1.45054 -2.51809 0
M  V30 2159 H 192.857 0.556175 -2.51524 0
M  V30 2160 H 192.815 2.25453 -2.1913 0
M  V30 2161 N 196.587 1.43421 -0.653314 0
M  V30 2162 C 197.812 2.06678 -0.172846 0
M  V30 2163 C 198.237 1.48648 1.15262 0
M  V30 2164 O 197.595 0.596457 1.71208 0
M  V30 2165 C 197.643 3.60474 -0.0953184 0
M  V30 2166 O 196.747 4.01487 0.942442 0
M  V30 2167 H 196.088 0.657181 -0.0949155 0
M  V30 2168 H 198.618 1.83925 -0.896265 0
M  V30 2169 H 198.628 4.07905 0.0879728 0
M  V30 2170 H 197.303 4.02088 -1.06291 0
M  V30 2171 H 195.88 3.65646 0.731932 0
M  V30 2172 N 198.065 0.39524 1.52563 0
M  V30 2173 C 199.29 -0.187456 2.06551 0
M  V30 2174 C 199.715 -1.39249 1.26457 0
M  V30 2175 O 199.073 -1.78947 0.291151 0
M  V30 2176 C 199.121 -0.529985 3.56684 0
M  V30 2177 O 198.225 -1.62307 3.79118 0
M  V30 2178 H 197.566 -0.0202537 0.663691 0
M  V30 2179 H 200.096 0.564426 1.96661 0
M  V30 2180 H 200.106 -0.792598 4.00227 0
M  V30 2181 H 198.781 0.350987 4.14416 0
M  V30 2182 H 197.358 -1.3537 3.47461 0
M  V30 2183 N 199.544 -1.57102 0.125237 0
M  V30 2184 C 200.792 -1.95021 -0.530198 0
M  V30 2185 C 201.113 -1.00982 -1.66816 0
M  V30 2186 O 200.383 -0.0672693 -1.95784 0
M  V30 2187 H 198.963 -0.720046 -0.198853 0
M  V30 2188 H 201.625 -1.93916 0.19564 0
M  V30 2189 H 200.721 -2.98211 -0.920681 0
M  V30 2190 N 201.022 0.148545 -1.56898 0
M  V30 2191 C 201.972 1.1886 -1.94567 0
M  V30 2192 C 202.956 1.3863 -0.816735 0
M  V30 2193 O 204.148 1.40218 -1.08018 0
M  V30 2194 C 201.277 2.52262 -2.32849 0
M  V30 2195 C 200.363 2.36092 -3.52309 0
M  V30 2196 N 200.754 1.89674 -4.6889 0
M  V30 2197 C 199.052 2.66848 -3.57363 0
M  V30 2198 C 199.753 1.86511 -5.50989 0
M  V30 2199 N 198.729 2.29766 -4.92655 0
M  V30 2200 H 202.531 0.821793 -2.82177 0
M  V30 2201 H 200.045 0.356615 -1.58436 0
M  V30 2202 H 202.042 3.27447 -2.58039 0
M  V30 2203 H 200.702 2.89727 -1.46589 0
M  V30 2204 H 201.713 1.59663 -4.92674 0
M  V30 2205 H 198.39 3.08198 -2.81639 0
M  V30 2206 H 199.78 1.52128 -6.54452 0
M  V30 2207 N 202.5 1.5196 0.417844 0
M  V30 2208 C 203.74 1.67262 1.17486 0
M  V30 2209 C 204.104 0.38983 1.88001 0
M  V30 2210 O 205.305 0.418845 2.65517 0
M  V30 2211 C 203.576 2.85526 2.14965 0
M  V30 2212 S 205.135 3.21263 2.98891 0
M  V30 2213 H 201.953 0.589077 0.398132 0
M  V30 2214 H 204.555 1.89927 0.463452 0
M  V30 2215 H 203.259 3.77145 1.61833 0
M  V30 2216 H 202.79 2.65107 2.90657 0
M  V30 2217 H 204.805 2.69208 4.16823 0
M  V30 2218 N 203.978 -0.674533 1.42435 0
M  V30 2219 C 204.91 -1.80005 1.41883 0
M  V30 2220 C 205.923 -1.59667 0.31787 0
M  V30 2221 O 207.112 -1.68781 0.580973 0
M  V30 2222 C 204.212 -3.17114 1.19549 0
M  V30 2223 C 203.385 -3.64299 2.42084 0
M  V30 2224 C 202.444 -4.80142 2.15291 0
M  V30 2225 O 201.47 -4.90673 2.88493 0
M  V30 2226 N 202.672 -5.68869 1.1562 0
M  V30 2227 H 205.437 -1.80964 2.38898 0
M  V30 2228 H 202.998 -0.857633 1.37318 0
M  V30 2229 H 204.99 -3.92267 0.995417 0
M  V30 2230 H 203.56 -3.11053 0.310569 0
M  V30 2231 H 202.78 -2.79822 2.77657 0
M  V30 2232 H 204.068 -3.92567 3.23679 0
M  V30 2233 H 203.466 -5.63012 0.550765 0
M  V30 2234 H 202.023 -6.43833 1.016 0
M  V30 2235 N 205.456 -1.28612 -0.910864 0
M  V30 2236 C 206.686 -1.1862 -1.69153 0
M  V30 2237 C 207.094 0.257324 -1.87442 0
M  V30 2238 O 206.437 1.18543 -1.40332 0
M  V30 2239 C 206.499 -1.81606 -3.10257 0
M  V30 2240 C 206.163 -3.30864 -3.15243 0
M  V30 2241 C 207.16 -4.27256 -2.96223 0
M  V30 2242 C 204.845 -3.71871 -3.37664 0
M  V30 2243 C 206.839 -5.62631 -2.99541 0
M  V30 2244 C 204.526 -5.07371 -3.40614 0
M  V30 2245 C 205.524 -6.02561 -3.21573 0
M  V30 2246 O 205.212 -7.35589 -3.2429 0
M  V30 2247 H 204.944 -0.412633 -0.535453 0
M  V30 2248 H 207.498 -1.70306 -1.14827 0
M  V30 2249 H 205.728 -1.24418 -3.66138 0
M  V30 2250 H 207.417 -1.66092 -3.70362 0
M  V30 2251 H 208.183 -3.9691 -2.78725 0
M  V30 2252 H 204.062 -2.98241 -3.5153 0
M  V30 2253 H 207.606 -6.36907 -2.84597 0
M  V30 2254 H 203.503 -5.37366 -3.57642 0
M  V30 2255 H 204.271 -7.44252 -3.40633 0
M  V30 2256 N 206.934 1.1197 -1.10907 0
M  V30 2257 C 207.864 2.19928 -0.784473 0
M  V30 2258 C 208.845 1.6833 0.244726 0
M  V30 2259 O 210.03 1.93892 0.109418 0
M  V30 2260 C 207.16 3.46597 -0.220827 0
M  V30 2261 C 206.114 4.11376 -1.18127 0
M  V30 2262 C 205.44 5.32554 -0.478594 0
M  V30 2263 C 206.74 4.56945 -2.52979 0
M  V30 2264 H 208.434 2.47337 -1.68715 0
M  V30 2265 H 205.98 1.18879 -0.812642 0
M  V30 2266 H 207.933 4.21396 0.0184278 0
M  V30 2267 H 206.657 3.1863 0.717113 0
M  V30 2268 H 205.316 3.38564 -1.40606 0
M  V30 2269 H 204.964 5.00856 0.463976 0
M  V30 2270 H 204.664 5.76844 -1.11912 0
M  V30 2271 H 206.188 6.10096 -0.248 0
M  V30 2272 H 207.602 5.23093 -2.3462 0
M  V30 2273 H 205.999 5.1203 -3.12962 0
M  V30 2274 H 207.069 3.70676 -3.12614 0
M  V30 2275 N 208.412 0.89855 1.29475 0
M  V30 2276 C 209.823 0.572537 1.77705 0
M  V30 2277 C 210.174 -0.911778 1.73727 0
M  V30 2278 O 209.299 -1.71288 1.32247 0
M  V30 2279 C 209.894 1.03252 3.22683 0
M  V30 2280 C 208.453 0.757687 3.68695 0
M  V30 2281 C 207.6 1.20787 2.49612 0
M  V30 2282 H 210.551 1.08139 1.16153 0
M  V30 2283 H 210.572 0.367307 3.78723 0
M  V30 2284 H 210.084 2.11285 3.25546 0
M  V30 2285 H 208.185 -0.310079 3.71308 0
M  V30 2286 H 208.298 1.35476 4.59547 0
M  V30 2287 H 206.662 0.626888 2.46865 0
M  V30 2288 H 207.445 2.29622 2.55203 0
M  V30 2289 N 209.89 -1.43072 0.660911 0
M  V30 2290 C 211.301 -1.84932 0.256348 0
M  V30 2291 C 211.652 -1.55325 -1.19868 0
M  V30 2292 O 210.777 -1.00607 -1.91591 0
M  V30 2293 C 211.372 -3.35684 0.458475 0
M  V30 2294 C 209.931 -3.76245 0.108161 0
M  V30 2295 C 209.078 -2.66749 0.757641 0
M  V30 2296 H 212.029 -1.33116 0.864051 0
M  V30 2297 H 212.05 -3.79365 -0.293683 0
M  V30 2298 H 211.562 -3.572 1.51755 0
M  V30 2299 H 209.663 -3.60338 -0.948014 0
M  V30 2300 H 209.776 -4.76058 0.538992 0
M  V30 2301 H 208.14 -2.53989 0.190185 0
M  V30 2302 H 208.923 -2.91092 1.81989 0
M  V30 2303 N 211.368 -0.403325 -1.52352 0
M  V30 2304 C 212.616 0.174003 -2.0135 0
M  V30 2305 C 212.937 1.46139 -1.29106 0
M  V30 2306 O 212.207 1.91448 -0.415253 0
M  V30 2307 H 210.787 0.0672911 -0.743963 0
M  V30 2308 H 213.449 -0.538235 -1.87321 0
M  V30 2309 H 212.545 0.374254 -3.09848 0
M  V30 2310 N 212.846 1.57033 -0.133567 0
M  V30 2311 C 214.095 1.94861 0.520768 0
M  V30 2312 C 214.408 1.02012 1.66892 0
M  V30 2313 O 215.614 1.29365 2.38699 0
M  V30 2314 C 214.07 3.46362 0.977809 0
M  V30 2315 C 213.678 4.47773 -0.142674 0
M  V30 2316 C 215.422 3.93083 1.60269 0
M  V30 2317 C 213.329 5.90468 0.331883 0
M  V30 2318 H 212.259 0.727453 0.198315 0
M  V30 2319 H 214.91 1.82227 -0.215759 0
M  V30 2320 H 213.292 3.54282 1.7692 0
M  V30 2321 H 214.466 4.51536 -0.919317 0
M  V30 2322 H 212.781 4.10891 -0.675124 0
M  V30 2323 H 215.378 4.97121 1.96914 0
M  V30 2324 H 215.721 3.33876 2.48662 0
M  V30 2325 H 216.254 3.88025 0.876453 0
M  V30 2326 H 212.993 6.53463 -0.516341 0
M  V30 2327 H 212.513 5.90094 1.07469 0
M  V30 2328 H 214.192 6.42179 0.788332 0
M  V30 2329 N 214.325 -0.140222 1.56975 0
M  V30 2330 C 215.572 -0.851687 1.83719 0
M  V30 2331 C 215.9 -1.80862 0.715485 0
M  V30 2332 O 215.155 -1.93464 -0.294956 0
M  V30 2333 C 215.454 -1.65386 3.16832 0
M  V30 2334 C 215.12 -0.843112 4.42947 0
M  V30 2335 C 213.782 -0.619464 4.77196 0
M  V30 2336 C 216.134 -0.276582 5.20466 0
M  V30 2337 C 213.462 0.181312 5.8642 0
M  V30 2338 C 215.814 0.51127 6.30531 0
M  V30 2339 C 214.478 0.745432 6.63325 0
M  V30 2340 H 213.748 -0.311654 0.672274 0
M  V30 2341 H 216.395 -0.115006 1.91154 0
M  V30 2342 H 214.7 -2.46084 3.04877 0
M  V30 2343 H 216.397 -2.20793 3.34741 0
M  V30 2344 H 212.987 -1.0275 4.16101 0
M  V30 2345 H 217.171 -0.436632 4.94376 0
M  V30 2346 H 212.427 0.372165 6.10266 0
M  V30 2347 H 216.601 0.957354 6.89788 0
M  V30 2348 H 214.228 1.36778 7.47794 0
M  V30 2349 N 215.803 -1.52179 -0.40978 0
M  V30 2350 C 216.75 -1.75475 -1.49924 0
M  V30 2351 C 217.72 -0.597175 -1.54994 0
M  V30 2352 O 218.905 -0.834655 -1.71575 0
M  V30 2353 C 216.045 -1.9107 -2.87378 0
M  V30 2354 C 215.158 -3.18717 -2.91622 0
M  V30 2355 C 214.293 -3.24747 -4.20372 0
M  V30 2356 C 213.332 -4.46598 -4.18588 0
M  V30 2357 N 212.469 -4.50025 -5.38908 0
M  V30 2358 H 217.309 -2.68458 -1.29361 0
M  V30 2359 H 214.846 -1.33024 -0.627934 0
M  V30 2360 H 216.804 -1.98096 -3.6717 0
M  V30 2361 H 215.434 -1.01469 -3.06437 0
M  V30 2362 H 214.486 -3.20866 -2.04326 0
M  V30 2363 H 215.798 -4.08544 -2.86169 0
M  V30 2364 H 214.952 -3.30841 -5.08556 0
M  V30 2365 H 213.691 -2.32857 -4.28519 0
M  V30 2366 H 212.696 -4.40652 -3.28794 0
M  V30 2367 H 213.921 -5.39783 -4.12081 0
M  V30 2368 H 211.867 -3.61017 -5.47725 0
M  V30 2369 H 211.784 -5.33697 -5.35447 0
M  V30 2370 H 213.052 -4.60347 -6.29048 0
M  V30 2371 N 217.281 0.66697 -1.42791 0
M  V30 2372 C 218.506 1.46004 -1.47301 0
M  V30 2373 C 218.931 1.87894 -0.0880317 0
M  V30 2374 O 218.289 1.56502 0.915253 0
M  V30 2375 C 218.337 2.68031 -2.41229 0
M  V30 2376 O 217.441 3.6659 -1.88906 0
M  V30 2377 H 216.782 0.43832 -0.49877 0
M  V30 2378 H 219.312 0.817391 -1.87563 0
M  V30 2379 H 219.322 3.1601 -2.58073 0
M  V30 2380 H 217.997 2.36883 -3.41847 0
M  V30 2381 H 216.574 3.25661 -1.81656 0
M  V30 2382 N 218.759 1.29093 0.90403 0
M  V30 2383 C 219.984 1.19809 1.69294 0
M  V30 2384 C 220.409 -0.238481 1.86582 0
M  V30 2385 O 219.767 -1.1723 1.383 0
M  V30 2386 C 219.815 1.91202 3.05736 0
M  V30 2387 O 218.919 1.22611 3.93752 0
M  V30 2388 H 218.26 0.415385 0.518027 0
M  V30 2389 H 220.79 1.70586 1.12967 0
M  V30 2390 H 220.8 1.99487 3.55906 0
M  V30 2391 H 219.475 2.95692 2.92471 0
M  V30 2392 H 218.052 1.22554 3.52186 0
M  V30 2393 N 220.237 -1.11381 1.11499 0
M  V30 2394 C 221.477 -1.84763 0.874188 0
M  V30 2395 C 221.841 -1.82726 -0.589496 0
M  V30 2396 O 223.042 -2.51562 -0.947089 0
M  V30 2397 C 221.313 -3.27931 1.42112 0
M  V30 2398 S 222.872 -4.18557 1.31739 0
M  V30 2399 H 219.69 -0.637115 0.315603 0
M  V30 2400 H 222.292 -1.34097 1.42261 0
M  V30 2401 H 220.996 -3.26978 2.48019 0
M  V30 2402 H 220.527 -3.83665 0.869761 0
M  V30 2403 H 222.542 -4.95396 0.282335 0
M  V30 2404 N 221.715 -0.905404 -1.28997 0
M  V30 2405 C 222.945 -0.549049 -1.99171 0
M  V30 2406 C 223.353 0.87203 -1.67906 0
M  V30 2407 O 222.696 1.58796 -0.923561 0
M  V30 2408 C 222.758 -0.668306 -3.53234 0
M  V30 2409 C 222.422 -2.0574 -4.08069 0
M  V30 2410 C 223.419 -3.0292 -4.22534 0
M  V30 2411 C 221.104 -2.36833 -4.42962 0
M  V30 2412 C 223.098 -4.29314 -4.71135 0
M  V30 2413 C 220.785 -3.63467 -4.91258 0
M  V30 2414 C 221.783 -4.59522 -5.053 0
M  V30 2415 O 221.471 -5.83907 -5.52546 0
M  V30 2416 H 221.203 -0.208784 -0.64295 0
M  V30 2417 H 223.757 -1.21836 -1.65363 0
M  V30 2418 H 221.987 0.0580547 -3.86656 0
M  V30 2419 H 223.676 -0.320273 -4.04634 0
M  V30 2420 H 224.442 -2.80216 -3.95859 0
M  V30 2421 H 220.321 -1.62824 -4.31288 0
M  V30 2422 H 223.865 -5.04293 -4.8201 0
M  V30 2423 H 219.762 -3.86 -5.17372 0
M  V30 2424 H 220.53 -5.86578 -5.70849 0
M  V30 2425 N 223.193 1.4272 -0.668489 0
M  V30 2426 C 224.442 2.00846 -0.185389 0
M  V30 2427 C 224.755 1.53442 1.21305 0
M  V30 2428 O 225.961 2.03944 1.79218 0
M  V30 2429 C 224.417 3.58805 -0.280591 0
M  V30 2430 C 224.025 4.15198 -1.68268 0
M  V30 2431 C 225.769 4.24255 0.14412 0
M  V30 2432 C 223.676 5.655 -1.73099 0
M  V30 2433 H 222.606 0.751145 -0.0655475 0
M  V30 2434 H 225.257 1.63516 -0.832752 0
M  V30 2435 H 223.639 3.93608 0.434553 0
M  V30 2436 H 224.813 3.91866 -2.42441 0
M  V30 2437 H 223.128 3.62176 -2.05469 0
M  V30 2438 H 225.725 5.34547 0.128086 0
M  V30 2439 H 226.068 3.99277 1.17827 0
M  V30 2440 H 226.601 3.94389 -0.519798 0
M  V30 2441 H 223.34 5.95268 -2.74475 0
M  V30 2442 H 222.86 5.90842 -1.03274 0
M  V30 2443 H 224.539 6.29808 -1.48158 0
M  V30 2444 N 224.671 0.411399 1.52136 0
M  V30 2445 C 225.948 -0.222308 1.94333 0
M  V30 2446 C 226.328 -1.6242 1.34844 0
M  V30 2447 O 225.676 -2.22384 0.525145 0
M  V30 2448 C 225.886 -0.226345 3.48265 0
M  V30 2449 C 227.234 -0.444592 4.22266 0
M  V30 2450 O 228.258 -0.305602 3.54887 0
M  V30 2451 O 227.117 -0.718749 5.41753 0
M  V30 2452 H 224.211 -0.143907 0.814383 0
M  V30 2453 H 226.757 0.467506 1.63133 0
M  V30 2454 H 225.529 0.75475 3.83952 0
M  V30 2455 H 225.152 -0.960163 3.85832 0
M  V30 2456 N 226.149 -1.5696 0.141893 0
M  V30 2457 C 227.395 -1.9625 -0.511248 0
M  V30 2458 C 227.728 -1.02654 -1.64851 0
M  V30 2459 O 227.003 -0.0679676 -1.94381 0
M  V30 2460 C 227.286 -3.45285 -1.02227 0
M  V30 2461 C 227.139 -4.49658 0.113138 0
M  V30 2462 C 228.458 -3.96698 -1.90574 0
M  V30 2463 H 225.577 -0.713567 -0.184367 0
M  V30 2464 H 228.219 -1.88698 0.222087 0
M  V30 2465 H 226.369 -3.51852 -1.64719 0
M  V30 2466 H 228.041 -4.55174 0.749302 0
M  V30 2467 H 226.284 -4.26857 0.773026 0
M  V30 2468 H 226.955 -5.51258 -0.286053 0
M  V30 2469 H 229.431 -3.92578 -1.37918 0
M  V30 2470 H 228.307 -5.01453 -2.2324 0
M  V30 2471 H 228.568 -3.3875 -2.84079 0
M  V30 2472 N 227.627 0.131896 -1.57047 0
M  V30 2473 C 229.043 0.485031 -1.52051 0
M  V30 2474 C 229.243 1.82563 -0.85281 0
M  V30 2475 O 228.299 2.48817 -0.429694 0
M  V30 2476 C 229.612 0.481409 -2.96821 0
M  V30 2477 C 231.16 0.565868 -3.07842 0
M  V30 2478 C 231.635 0.592762 -4.54148 0
M  V30 2479 N 233.126 0.654564 -4.58552 0
M  V30 2480 C 233.861 0.696608 -5.69153 0
M  V30 2481 N 233.357 0.697078 -6.89284 0
M  V30 2482 N 235.15 0.738639 -5.57226 0
M  V30 2483 H 227.301 -0.746664 -1.98843 0
M  V30 2484 H 229.564 -0.273999 -0.90754 0
M  V30 2485 H 229.27 -0.435731 -3.4899 0
M  V30 2486 H 229.144 1.3139 -3.53577 0
M  V30 2487 H 231.531 1.47343 -2.55684 0
M  V30 2488 H 231.612 -0.29406 -2.54104 0
M  V30 2489 H 231.256 -0.310701 -5.06949 0
M  V30 2490 H 231.186 1.46939 -5.05684 0
M  V30 2491 H 233.677 0.660887 -3.72076 0
M  V30 2492 H 233.99 0.731426 -7.69331 0
M  V30 2493 H 232.335 0.66471 -6.91814 0
M  V30 2494 H 235.526 0.735545 -4.62285 0
M  V30 2495 H 235.699 0.767938 -6.43434 0
M  V30 2496 N 229.106 1.52395 0.401703 0
M  V30 2497 C 230.352 1.68019 1.14635 0
M  V30 2498 C 230.707 0.408722 1.88009 0
M  V30 2499 O 230 -0.597133 1.82057 0
M  V30 2500 C 230.194 2.84578 2.16217 0
M  V30 2501 C 230.023 4.22938 1.5282 0
M  V30 2502 C 228.793 4.88352 1.29772 0
M  V30 2503 C 230.991 5.04778 0.985094 0
M  V30 2504 N 228.973 6.10726 0.623455 0
M  V30 2505 C 230.344 6.1845 0.438172 0
M  V30 2506 C 232.399 4.90057 0.880275 0
M  V30 2507 C 231.102 7.19013 -0.203306 0
M  V30 2508 C 233.128 5.9086 0.252639 0
M  V30 2509 C 232.49 7.03829 -0.283573 0
M  V30 2510 H 228.589 0.668413 0.405892 0
M  V30 2511 H 231.173 1.89717 0.437674 0
M  V30 2512 H 229.344 2.64483 2.84435 0
M  V30 2513 H 231.076 2.89202 2.83098 0
M  V30 2514 H 227.831 4.46846 1.56926 0
M  V30 2515 H 228.255 6.76323 0.302733 0
M  V30 2516 H 232.897 4.02938 1.28065 0
M  V30 2517 H 230.615 8.05751 -0.615726 0
M  V30 2518 H 234.201 5.81543 0.172954 0
M  V30 2519 H 233.081 7.80493 -0.761575 0
M  V30 2520 N 230.584 -0.659388 1.43143 0
M  V30 2521 C 231.831 -1.41935 1.44433 0
M  V30 2522 C 232.159 -1.94387 0.0663522 0
M  V30 2523 O 231.414 -1.72314 -0.927706 0
M  V30 2524 C 231.713 -2.62206 2.42864 0
M  V30 2525 C 231.379 -2.28208 3.88886 0
M  V30 2526 C 230.041 -2.18647 4.28657 0
M  V30 2527 C 232.393 -2.00887 4.8093 0
M  V30 2528 C 229.721 -1.79914 5.58433 0
M  V30 2529 C 232.073 -1.63653 6.11065 0
M  V30 2530 C 230.737 -1.52614 6.49819 0
M  V30 2531 H 230.007 -0.519376 0.528517 0
M  V30 2532 H 232.654 -0.750453 1.76183 0
M  V30 2533 H 230.959 -3.34199 2.04495 0
M  V30 2534 H 232.656 -3.2041 2.41119 0
M  V30 2535 H 229.246 -2.36557 3.57406 0
M  V30 2536 H 233.43 -2.07198 4.5098 0
M  V30 2537 H 228.686 -1.69948 5.87305 0
M  V30 2538 H 232.86 -1.41543 6.81864 0
M  V30 2539 H 230.487 -1.22371 7.50286 0
M  V30 2540 N 232.062 -1.29571 -0.897171 0
M  V30 2541 C 233.473 -1.15964 -1.46319 0
M  V30 2542 C 233.824 0.244267 -1.94674 0
M  V30 2543 O 232.949 1.13998 -1.83939 0
M  V30 2544 C 233.544 -2.09906 -2.65942 0
M  V30 2545 C 232.103 -2.00314 -3.18671 0
M  V30 2546 C 231.25 -2.00687 -1.91363 0
M  V30 2547 H 234.201 -1.42019 -0.708268 0
M  V30 2548 H 234.222 -1.67276 -3.41759 0
M  V30 2549 H 233.734 -3.12075 -2.30718 0
M  V30 2550 H 231.835 -1.01242 -3.58582 0
M  V30 2551 H 231.948 -2.88102 -3.82798 0
M  V30 2552 H 230.312 -1.45319 -2.09175 0
M  V30 2553 H 231.095 -3.04566 -1.58413 0
M  V30 2554 N 233.54 1.10788 -1.12088 0
M  V30 2555 C 234.787 1.82671 -0.873931 0
M  V30 2556 C 235.115 1.85004 0.600311 0
M  V30 2557 O 234.37 1.30365 1.45957 0
M  V30 2558 C 234.669 3.29294 -1.38926 0
M  V30 2559 C 234.335 3.47113 -2.87791 0
M  V30 2560 C 232.997 3.51684 -3.28439 0
M  V30 2561 C 235.349 3.52808 -3.83635 0
M  V30 2562 C 232.677 3.59513 -4.63646 0
M  V30 2563 C 235.029 3.62169 -5.18668 0
M  V30 2564 C 233.693 3.65003 -5.58864 0
M  V30 2565 H 232.963 0.668441 -0.319794 0
M  V30 2566 H 235.61 1.30613 -1.40045 0
M  V30 2567 H 233.915 3.83894 -0.783122 0
M  V30 2568 H 235.612 3.83416 -1.17443 0
M  V30 2569 H 232.202 3.4423 -2.5535 0
M  V30 2570 H 236.386 3.4853 -3.53328 0
M  V30 2571 H 231.642 3.59987 -4.94185 0
M  V30 2572 H 235.816 3.6552 -5.92763 0
M  V30 2573 H 233.443 3.70822 -6.63623 0
M  V30 2574 N 235.018 0.912232 1.28515 0
M  V30 2575 C 236.295 0.463597 1.90027 0
M  V30 2576 C 236.675 -1.05753 1.82701 0
M  V30 2577 O 236.023 -1.90492 1.26194 0
M  V30 2578 C 236.233 0.992253 3.34597 0
M  V30 2579 C 237.581 1.04344 4.11579 0
M  V30 2580 O 238.605 0.94079 3.43551 0
M  V30 2581 O 237.464 1.1995 5.33174 0
M  V30 2582 H 234.558 0.146666 0.813891 0
M  V30 2583 H 237.104 1.00292 1.36893 0
M  V30 2584 H 235.876 2.03623 3.34146 0
M  V30 2585 H 235.499 0.433672 3.95228 0
M  V30 2586 N 236.496 -1.42363 0.676048 0
M  V30 2587 C 237.742 -2.0182 0.199125 0
M  V30 2588 C 238.075 -1.53339 -1.19168 0
M  V30 2589 O 237.35 -0.736124 -1.80032 0
M  V30 2590 C 237.633 -3.59331 0.235144 0
M  V30 2591 C 237.486 -4.17989 1.66149 0
M  V30 2592 C 238.805 -4.3813 -0.41595 0
M  V30 2593 H 235.924 -0.733293 0.0738311 0
M  V30 2594 H 238.566 -1.69368 0.86107 0
M  V30 2595 H 236.716 -3.87109 -0.328487 0
M  V30 2596 H 238.388 -4.0116 2.27747 0
M  V30 2597 H 236.631 -3.7377 2.20178 0
M  V30 2598 H 237.302 -5.27126 1.63837 0
M  V30 2599 H 239.778 -4.16051 0.0638529 0
M  V30 2600 H 238.654 -5.47717 -0.360115 0
M  V30 2601 H 238.915 -4.16101 -1.49373 0
M  V30 2602 N 237.974 -0.419461 -1.51915 0
M  V30 2603 C 238.906 0.43646 -2.25006 0
M  V30 2604 C 239.919 1.00149 -1.28351 0
M  V30 2605 O 241.108 0.898674 -1.54227 0
M  V30 2606 C 238.208 1.6206 -2.9764 0
M  V30 2607 C 237.381 1.17763 -4.21249 0
M  V30 2608 C 236.44 2.22985 -4.76617 0
M  V30 2609 O 235.466 1.83151 -5.38929 0
M  V30 2610 N 236.668 3.55271 -4.59089 0
M  V30 2611 H 239.433 -0.18989 -2.99098 0
M  V30 2612 H 236.994 -0.247386 -1.59999 0
M  V30 2613 H 238.986 2.32038 -3.31573 0
M  V30 2614 H 237.556 2.15266 -2.2667 0
M  V30 2615 H 236.776 0.305582 -3.93014 0
M  V30 2616 H 238.064 0.858781 -5.015 0
M  V30 2617 H 237.462 3.90377 -4.09417 0
M  V30 2618 H 236.019 4.21195 -4.97432 0
M  V30 2619 N 239.452 1.56882 -0.150215 0
M  V30 2620 C 240.402 2.13501 0.800071 0
M  V30 2621 C 241.386 1.06368 1.20726 0
M  V30 2622 O 242.578 1.32538 1.17314 0
M  V30 2623 C 239.707 2.76271 2.03787 0
M  V30 2624 C 238.793 3.90533 1.65364 0
M  V30 2625 N 239.184 4.96259 0.977794 0
M  V30 2626 C 237.482 4.013 1.94613 0
M  V30 2627 C 238.183 5.76286 0.791794 0
M  V30 2628 N 237.159 5.27163 1.32666 0
M  V30 2629 H 240.961 2.92615 0.274517 0
M  V30 2630 H 238.475 1.62319 0.0512144 0
M  V30 2631 H 240.472 3.15197 2.72867 0
M  V30 2632 H 239.132 1.98631 2.56857 0
M  V30 2633 H 240.143 5.13953 0.638193 0
M  V30 2634 H 236.82 3.3474 2.4951 0
M  V30 2635 H 238.21 6.71401 0.258894 0
M  V30 2636 N 240.93 -0.123565 1.57115 0
M  V30 2637 C 242.17 -0.838097 1.86428 0
M  V30 2638 C 242.534 -1.77266 0.737611 0
M  V30 2639 O 243.735 -2.52842 0.912389 0
M  V30 2640 C 242.006 -1.57219 3.20962 0
M  V30 2641 S 243.565 -2.32893 3.71896 0
M  V30 2642 H 240.383 -0.279811 0.653626 0
M  V30 2643 H 242.985 -0.0967034 1.95261 0
M  V30 2644 H 241.689 -0.877522 4.00909 0
M  V30 2645 H 241.22 -2.35405 3.15195 0
M  V30 2646 H 243.235 -3.5853 3.43032 0
M  V30 2647 N 242.408 -1.52605 -0.393616 0
M  V30 2648 C 243.355 -1.77055 -1.48054 0
M  V30 2649 C 244.325 -0.61358 -1.54352 0
M  V30 2650 O 245.51 -0.852806 -1.70681 0
M  V30 2651 C 242.65 -1.94108 -2.85335 0
M  V30 2652 C 241.763 -3.21792 -2.88226 0
M  V30 2653 C 240.898 -3.29188 -4.16904 0
M  V30 2654 C 239.937 -4.51013 -4.13828 0
M  V30 2655 N 239.074 -4.55716 -5.34105 0
M  V30 2656 H 243.914 -2.69815 -1.26506 0
M  V30 2657 H 241.451 -1.33683 -0.61379 0
M  V30 2658 H 243.409 -2.01979 -3.65049 0
M  V30 2659 H 242.039 -1.04713 -3.05344 0
M  V30 2660 H 241.091 -3.23015 -2.00911 0
M  V30 2661 H 242.403 -4.11557 -2.8182 0
M  V30 2662 H 241.557 -3.36216 -5.05018 0
M  V30 2663 H 240.296 -2.37389 -4.26026 0
M  V30 2664 H 239.301 -4.44115 -3.24102 0
M  V30 2665 H 240.526 -5.44123 -4.06333 0
M  V30 2666 H 238.472 -3.66807 -5.43865 0
M  V30 2667 H 238.389 -5.39346 -5.29756 0
M  V30 2668 H 239.657 -4.66993 -6.2413 0
M  V30 2669 N 243.887 0.651787 -1.4349 0
M  V30 2670 C 244.817 1.77621 -1.51569 0
M  V30 2671 C 245.798 1.66022 -0.370253 0
M  V30 2672 O 246.983 1.85095 -0.587658 0
M  V30 2673 C 244.113 3.16056 -1.43966 0
M  V30 2674 C 243.067 3.4242 -2.56774 0
M  V30 2675 C 242.393 4.8067 -2.34223 0
M  V30 2676 C 243.693 3.37023 -3.99015 0
M  V30 2677 H 245.387 1.71117 -2.45681 0
M  V30 2678 H 242.933 0.821825 -1.18246 0
M  V30 2679 H 244.886 3.94472 -1.48221 0
M  V30 2680 H 243.61 3.23293 -0.463586 0
M  V30 2681 H 242.269 2.66375 -2.51873 0
M  V30 2682 H 241.917 4.84585 -1.34856 0
M  V30 2683 H 241.617 4.9927 -3.09844 0
M  V30 2684 H 243.141 5.61342 -2.40265 0
M  V30 2685 H 244.555 4.05374 -4.05395 0
M  V30 2686 H 242.952 3.67159 -4.74673 0
M  V30 2687 H 244.022 2.3518 -4.2405 0
M  V30 2688 N 245.365 1.30045 0.890287 0
M  V30 2689 C 246.312 1.15976 1.99545 0
M  V30 2690 C 247.282 0.0506202 1.66023 0
M  V30 2691 O 248.467 0.219847 1.89529 0
M  V30 2692 C 245.607 0.852054 3.34416 0
M  V30 2693 C 244.72 2.04255 3.80662 0
M  V30 2694 C 243.855 1.6734 5.04154 0
M  V30 2695 C 242.894 2.82916 5.42794 0
M  V30 2696 N 242.031 2.46333 6.57468 0
M  V30 2697 H 246.871 2.10524 2.10911 0
M  V30 2698 H 244.408 1.04749 1.03276 0
M  V30 2699 H 246.366 0.654296 4.12037 0
M  V30 2700 H 244.996 -0.0565502 3.2275 0
M  V30 2701 H 244.048 2.35172 2.98995 0
M  V30 2702 H 245.36 2.90826 4.05242 0
M  V30 2703 H 244.514 1.43908 5.89386 0
M  V30 2704 H 243.253 0.779308 4.81433 0
M  V30 2705 H 242.258 3.0702 4.56091 0
M  V30 2706 H 243.483 3.73004 5.6749 0
M  V30 2707 H 241.429 1.59423 6.36334 0
M  V30 2708 H 241.346 3.26436 6.81891 0
M  V30 2709 H 242.614 2.26244 7.45945 0
M  V30 2710 N 246.843 -1.10192 1.12674 0
M  V30 2711 C 248.09 -1.82205 0.883606 0
M  V30 2712 C 248.418 -1.8532 -0.590492 0
M  V30 2713 O 247.673 -1.31137 -1.45264 0
M  V30 2714 C 247.972 -3.28552 1.4067 0
M  V30 2715 C 247.638 -3.45582 2.89627 0
M  V30 2716 C 246.3 -3.49937 3.30299 0
M  V30 2717 C 248.652 -3.50768 3.85501 0
M  V30 2718 C 245.98 -3.57049 4.65546 0
M  V30 2719 C 248.332 -3.59414 5.20581 0
M  V30 2720 C 246.996 -3.62034 5.60792 0
M  V30 2721 H 246.266 -0.666735 0.323334 0
M  V30 2722 H 248.913 -1.29868 1.40736 0
M  V30 2723 H 247.218 -3.83473 0.80347 0
M  V30 2724 H 248.915 -3.82788 1.19475 0
M  V30 2725 H 245.505 -3.42871 2.57172 0
M  V30 2726 H 249.689 -3.46651 3.55171 0
M  V30 2727 H 244.945 -3.57361 4.96088 0
M  V30 2728 H 249.119 -3.62371 5.94693 0
M  V30 2729 H 246.746 -3.67298 6.6558 0
M  V30 2730 N 248.321 -0.919034 -1.28029 0
M  V30 2731 C 249.569 -0.553838 -1.94363 0
M  V30 2732 C 249.89 0.906357 -1.72656 0
M  V30 2733 O 249.16 1.64143 -1.0693 0
M  V30 2734 H 247.74 -0.201834 -0.719216 0
M  V30 2735 H 250.402 -1.16954 -1.55909 0
M  V30 2736 H 249.498 -0.752758 -3.02886 0
M  V30 2737 N 249.799 1.42003 -0.683588 0
M  V30 2738 C 251.024 2.06265 -0.216647 0
M  V30 2739 C 251.449 1.51059 1.12083 0
M  V30 2740 O 250.807 0.632638 1.69904 0
M  V30 2741 C 250.855 3.60191 -0.171759 0
M  V30 2742 O 249.959 4.03396 0.857069 0
M  V30 2743 H 249.3 0.65502 -0.108834 0
M  V30 2744 H 251.83 1.81982 -0.935077 0
M  V30 2745 H 251.84 4.08 0.0014303 0
M  V30 2746 H 250.515 3.99743 -1.14796 0
M  V30 2747 H 249.092 3.67117 0.654208 0
M  V30 2748 N 251.277 0.427512 1.51691 0
M  V30 2749 C 252.523 -0.134744 2.02953 0
M  V30 2750 C 252.878 -1.41235 1.30654 0
M  V30 2751 O 252.171 -1.87168 0.409713 0
M  V30 2752 C 252.365 -0.418249 3.54944 0
M  V30 2753 C 252.194 0.830327 4.41968 0
M  V30 2754 C 250.964 1.36097 4.86627 0
M  V30 2755 C 253.162 1.7137 4.84909 0
M  V30 2756 N 251.144 2.56311 5.57833 0
M  V30 2757 C 252.515 2.76195 5.55082 0
M  V30 2758 C 254.57 1.72928 4.66905 0
M  V30 2759 C 253.273 3.82512 6.09161 0
M  V30 2760 C 255.299 2.78175 5.21894 0
M  V30 2761 C 254.661 3.8172 5.92004 0
M  V30 2762 H 250.76 -0.0103958 0.781931 0
M  V30 2763 H 253.344 0.585981 1.85673 0
M  V30 2764 H 251.515 -1.10801 3.7226 0
M  V30 2765 H 253.247 -0.970999 3.92879 0
M  V30 2766 H 250.002 0.916311 4.64651 0
M  V30 2767 H 250.426 3.17242 5.98069 0
M  V30 2768 H 255.068 0.942081 4.12171 0
M  V30 2769 H 252.786 4.62077 6.62956 0
M  V30 2770 H 256.372 2.8031 5.09821 0
M  V30 2771 H 255.252 4.61821 6.33791 0
M  V30 2772 N 252.755 -1.56801 0.158532 0
M  V30 2773 C 253.98 -2.01295 -0.499516 0
M  V30 2774 C 254.405 -1.03799 -1.56867 0
M  V30 2775 O 253.763 -0.0155162 -1.81293 0
M  V30 2776 C 253.811 -3.44469 -1.06647 0
M  V30 2777 O 252.915 -3.50012 -2.18095 0
M  V30 2778 H 252.256 -0.652884 -0.12099 0
M  V30 2779 H 254.786 -2.02958 0.258661 0
M  V30 2780 H 254.796 -3.8351 -1.39227 0
M  V30 2781 H 253.471 -4.14932 -0.283581 0
M  V30 2782 H 252.048 -3.22822 -1.86656 0
M  V30 2783 N 254.233 0.115231 -1.57178 0
M  V30 2784 C 255.463 0.835224 -1.88964 0
M  V30 2785 C 255.871 1.73774 -0.74829 0
M  V30 2786 O 255.214 1.81401 0.289739 0
M  V30 2787 C 255.276 1.7178 -3.15804 0
M  V30 2788 C 254.94 0.989198 -4.46166 0
M  V30 2789 C 255.937 0.328263 -5.18863 0
M  V30 2790 C 253.622 0.969256 -4.9286 0
M  V30 2791 C 255.616 -0.342873 -6.36477 0
M  V30 2792 C 253.303 0.294324 -6.10391 0
M  V30 2793 C 254.301 -0.360582 -6.82048 0
M  V30 2794 O 253.989 -1.02474 -7.97342 0
M  V30 2795 H 253.721 0.245197 -0.629964 0
M  V30 2796 H 256.275 0.10303 -2.05141 0
M  V30 2797 H 254.505 2.49173 -2.95719 0
M  V30 2798 H 256.194 2.31255 -3.33581 0
M  V30 2799 H 256.96 0.335263 -4.8384 0
M  V30 2800 H 252.839 1.46844 -4.36987 0
M  V30 2801 H 256.383 -0.854629 -6.92345 0
M  V30 2802 H 252.28 0.285099 -6.4487 0
M  V30 2803 H 253.048 -0.929594 -8.13204 0
M  V30 2804 N 255.711 1.52812 0.385517 0
M  V30 2805 C 256.959 1.67694 1.12797 0
M  V30 2806 C 257.28 0.421115 1.90399 0
M  V30 2807 O 256.55 -0.564551 1.87589 0
M  V30 2808 H 255.13 0.618155 0.419396 0
M  V30 2809 H 257.792 1.89938 0.436972 0
M  V30 2810 H 256.888 2.52896 1.82894 0
M  V30 2811 N 257.189 -0.644168 1.43834 0
M  V30 2812 C 258.437 -1.40117 1.45642 0
M  V30 2813 C 258.758 -1.94814 0.0852413 0
M  V30 2814 O 258.028 -1.74988 -0.880688 0
M  V30 2815 H 256.608 -0.52005 0.536243 0
M  V30 2816 H 259.27 -0.7591 1.7951 0
M  V30 2817 H 258.366 -2.23902 2.17427 0
M  V30 2818 N 258.668 -1.30515 -0.883378 0
M  V30 2819 C 259.914 -1.20617 -1.63778 0
M  V30 2820 C 260.269 0.236469 -1.90941 0
M  V30 2821 O 259.562 1.16596 -1.52039 0
M  V30 2822 C 259.756 -1.96994 -2.98209 0
M  V30 2823 C 259.585 -3.48537 -2.84169 0
M  V30 2824 C 258.355 -4.17893 -2.84067 0
M  V30 2825 C 260.553 -4.43738 -2.60001 0
M  V30 2826 N 258.535 -5.55685 -2.60936 0
M  V30 2827 C 259.906 -5.69105 -2.46007 0
M  V30 2828 C 261.961 -4.33316 -2.45239 0
M  V30 2829 C 260.664 -6.8523 -2.18752 0
M  V30 2830 C 262.69 -5.4921 -2.19369 0
M  V30 2831 C 262.052 -6.73558 -2.06153 0
M  V30 2832 H 258.151 -0.496434 -0.604216 0
M  V30 2833 H 260.735 -1.64544 -1.04083 0
M  V30 2834 H 258.906 -1.55455 -3.55933 0
M  V30 2835 H 260.638 -1.79225 -3.62851 0
M  V30 2836 H 257.393 -3.69739 -2.95956 0
M  V30 2837 H 257.817 -6.28199 -2.52378 0
M  V30 2838 H 262.459 -3.37856 -2.54191 0
M  V30 2839 H 260.177 -7.80729 -2.08537 0
M  V30 2840 H 263.763 -5.43054 -2.08766 0
M  V30 2841 H 262.643 -7.61721 -1.86416 0
M  V30 2842 N 260.146 1.09593 -1.13257 0
M  V30 2843 C 261.371 1.8604 -0.916732 0
M  V30 2844 C 261.796 1.80504 0.529146 0
M  V30 2845 O 261.154 1.18127 1.37534 0
M  V30 2846 C 261.202 3.32017 -1.40703 0
M  V30 2847 O 260.306 4.08141 -0.591153 0
M  V30 2848 H 259.647 0.576943 -0.328683 0
M  V30 2849 H 262.177 1.38405 -1.50682 0
M  V30 2850 H 262.187 3.82865 -1.4099 0
M  V30 2851 H 260.862 3.35361 -2.45979 0
M  V30 2852 H 259.439 3.67084 -0.656005 0
M  V30 2853 N 261.624 0.925811 1.2754 0
M  V30 2854 C 262.554 0.440748 2.29303 0
M  V30 2855 C 263.535 -0.497971 1.62648 0
M  V30 2856 O 264.72 -0.403126 1.8997 0
M  V30 2857 C 261.85 -0.309048 3.45922 0
M  V30 2858 C 260.804 0.54166 4.24559 0
M  V30 2859 C 260.13 -0.337191 5.33636 0
M  V30 2860 C 261.43 1.80516 4.90114 0
M  V30 2861 H 263.124 1.29121 2.70126 0
M  V30 2862 H 260.67 0.622323 1.29858 0
M  V30 2863 H 262.623 -0.659315 4.1621 0
M  V30 2864 H 261.347 -1.19352 3.04011 0
M  V30 2865 H 260.006 0.874609 3.56014 0
M  V30 2866 H 259.654 -1.22056 4.87966 0
M  V30 2867 H 259.354 0.228497 5.87156 0
M  V30 2868 H 260.878 -0.683072 6.06767 0
M  V30 2869 H 262.292 1.52307 5.52698 0
M  V30 2870 H 260.689 2.3142 5.53683 0
M  V30 2871 H 261.759 2.52581 4.13921 0
M  V30 2872 N 263.102 -1.41638 0.69111 0
M  V30 2873 C 264.379 -1.95036 0.148421 0
M  V30 2874 C 264.759 -1.63072 -1.34055 0
M  V30 2875 O 264.107 -0.93538 -2.08478 0
M  V30 2876 C 264.317 -3.46279 0.434951 0
M  V30 2877 C 265.665 -4.23069 0.360275 0
M  V30 2878 O 266.689 -3.54277 0.369613 0
M  V30 2879 O 265.548 -5.45583 0.316534 0
M  V30 2880 H 262.642 -0.826908 0.0123654 0
M  V30 2881 H 265.188 -1.5138 0.766963 0
M  V30 2882 H 263.96 -3.6281 1.46576 0
M  V30 2883 H 263.583 -3.97019 -0.214787 0
M  V30 2884 N 264.58 -0.43555 -1.51462 0
M  V30 2885 C 265.51 0.367376 -2.30592 0
M  V30 2886 C 266.491 1.02263 -1.35928 0
M  V30 2887 O 267.676 1.02661 -1.64847 0
M  V30 2888 C 264.806 1.46983 -3.14664 0
M  V30 2889 C 263.76 0.938161 -4.17591 0
M  V30 2890 C 263.086 2.13622 -4.90173 0
M  V30 2891 C 264.386 -0.0261621 -5.22293 0
M  V30 2892 H 266.08 -0.292969 -2.97963 0
M  V30 2893 H 263.626 -0.14234 -1.43295 0
M  V30 2894 H 265.579 2.03873 -3.688 0
M  V30 2895 H 264.303 2.15843 -2.4511 0
M  V30 2896 H 262.962 0.391481 -3.64504 0
M  V30 2897 H 262.61 2.81098 -4.17124 0
M  V30 2898 H 262.31 1.78688 -5.59772 0
M  V30 2899 H 263.834 2.7107 -5.47132 0
M  V30 2900 H 265.248 0.452384 -5.71512 0
M  V30 2901 H 263.645 -0.287992 -5.99409 0
M  V30 2902 H 264.715 -0.963391 -4.75233 0
M  V30 2903 N 266.058 1.56714 -0.166846 0
M  V30 2904 C 266.99 2.14914 0.796537 0
M  V30 2905 C 268.003 1.10357 1.19688 0
M  V30 2906 O 269.192 1.37561 1.13751 0
M  V30 2907 C 266.292 2.67326 2.08303 0
M  V30 2908 C 265.465 3.96493 1.84696 0
M  V30 2909 C 264.524 4.34014 2.97521 0
M  V30 2910 O 263.55 5.01973 2.6835 0
M  V30 2911 N 264.752 3.95208 4.25196 0
M  V30 2912 H 267.517 2.98205 0.299006 0
M  V30 2913 H 265.078 1.61892 0.0160839 0
M  V30 2914 H 267.07 2.89428 2.82867 0
M  V30 2915 H 265.64 1.88649 2.4926 0
M  V30 2916 H 264.86 3.82814 0.940602 0
M  V30 2917 H 266.148 4.8086 1.66285 0
M  V30 2918 H 265.546 3.40487 4.51758 0
M  V30 2919 H 264.103 4.2232 4.96477 0
M  V30 2920 N 267.536 -0.106894 1.57237 0
M  V30 2921 C 268.469 -1.16125 1.96444 0
M  V30 2922 C 269.447 -1.3947 0.835871 0
M  V30 2923 O 270.631 -1.53425 1.09513 0
M  V30 2924 C 267.758 -2.51277 2.27107 0
M  V30 2925 C 266.804 -2.44285 3.4961 0
M  V30 2926 S 267.637 -1.87077 5.01759 0
M  V30 2927 C 268.793 -3.23877 5.35588 0
M  V30 2928 H 269.026 -0.826971 2.85567 0
M  V30 2929 H 266.559 -0.314124 1.51171 0
M  V30 2930 H 268.517 -3.29035 2.45451 0
M  V30 2931 H 267.178 -2.81879 1.38576 0
M  V30 2932 H 266.371 -3.4387 3.68469 0
M  V30 2933 H 265.973 -1.74652 3.30715 0
M  V30 2934 H 268.265 -4.20122 5.31511 0
M  V30 2935 H 269.208 -3.09833 6.36717 0
M  V30 2936 H 269.616 -3.22864 4.63054 0
M  V30 2937 N 269.014 -1.53014 -0.377408 0
M  V30 2938 C 269.946 -1.74884 -1.48149 0
M  V30 2939 C 270.959 -0.629433 -1.5014 0
M  V30 2940 O 272.148 -0.905416 -1.53833 0
M  V30 2941 C 269.248 -1.80299 -2.86959 0
M  V30 2942 C 268.421 -3.09776 -3.08801 0
M  V30 2943 C 267.48 -3.06586 -4.27658 0
M  V30 2944 O 266.506 -3.80419 -4.23403 0
M  V30 2945 N 267.708 -2.26578 -5.34455 0
M  V30 2946 H 270.473 -2.70147 -1.29771 0
M  V30 2947 H 268.034 -1.51646 -0.56703 0
M  V30 2948 H 270.026 -1.75657 -3.64591 0
M  V30 2949 H 268.596 -0.92372 -2.98641 0
M  V30 2950 H 267.816 -3.27815 -2.18931 0
M  V30 2951 H 269.104 -3.95366 -3.20255 0
M  V30 2952 H 268.502 -1.66081 -5.40771 0
M  V30 2953 H 267.059 -2.27766 -6.10709 0
M  V30 2954 N 270.492 0.636531 -1.44174 0
M  V30 2955 C 271.402 1.77754 -1.53103 0
M  V30 2956 C 272.418 1.68928 -0.417034 0
M  V30 2957 O 273.594 1.89801 -0.6736 0
M  V30 2958 C 270.659 3.14115 -1.46741 0
M  V30 2959 C 269.72 3.34612 -2.68948 0
M  V30 2960 C 268.953 4.64467 -2.6288 0
M  V30 2961 O 269.176 5.44919 -1.68581 0
M  V30 2962 O 268.11 4.87049 -3.53648 0
M  V30 2963 H 271.936 1.73174 -2.49489 0
M  V30 2964 H 269.521 0.79709 -1.2636 0
M  V30 2965 H 271.403 3.95412 -1.45696 0
M  V30 2966 H 270.078 3.19249 -0.534975 0
M  V30 2967 H 268.985 2.53014 -2.75562 0
M  V30 2968 H 270.318 3.34336 -3.61221 0
M  V30 2969 N 271.97 1.30982 0.876444 0
M  V30 2970 C 272.933 1.18054 1.96459 0
M  V30 2971 C 273.933 0.109399 1.60427 0
M  V30 2972 O 275.123 0.358173 1.70478 0
M  V30 2973 C 272.255 0.810616 3.31122 0
M  V30 2974 H 273.448 2.14735 2.09354 0
M  V30 2975 H 271.001 1.145 1.06392 0
M  V30 2976 H 271.736 -0.155322 3.23928 0
M  V30 2977 H 271.521 1.58481 3.58645 0
M  V30 2978 H 273.011 0.743876 4.10921 0
M  V30 2979 N 273.449 -1.08991 1.13837 0
M  V30 2980 C 274.726 -1.77863 0.813876 0
M  V30 2981 C 275.106 -1.99375 -0.693746 0
M  V30 2982 O 274.454 -1.59875 -1.63255 0
M  V30 2983 C 274.664 -3.0986 1.60586 0
M  V30 2984 C 276.012 -3.84493 1.8014 0
M  V30 2985 O 277.036 -3.19624 1.57222 0
M  V30 2986 O 275.895 -5.00957 2.18413 0
M  V30 2987 H 272.989 -0.771589 0.297624 0
M  V30 2988 H 275.535 -1.15507 1.24323 0
M  V30 2989 H 274.307 -2.89715 2.63022 0
M  V30 2990 H 273.93 -3.79942 1.17173 0
M  V30 2991 N 274.927 -0.932562 -1.27047 0
M  V30 2992 C 276.176 -0.571351 -1.93439 0
M  V30 2993 C 276.489 0.892467 -1.74053 0
M  V30 2994 O 277.695 1.36267 -2.34826 0
M  V30 2995 C 276.151 -0.97106 -3.46552 0
M  V30 2996 C 275.759 -2.4559 -3.74686 0
M  V30 2997 C 277.503 -0.681333 -4.18997 0
M  V30 2998 C 275.41 -2.79475 -5.21198 0
M  V30 2999 H 274.34 -0.209966 -0.724176 0
M  V30 3000 H 276.991 -1.13403 -1.44263 0
M  V30 3001 H 275.373 -0.336983 -3.94564 0
M  V30 3002 H 276.547 -3.13829 -3.37414 0
M  V30 3003 H 274.862 -2.71802 -3.15456 0
M  V30 3004 H 277.459 -0.910939 -5.26883 0
M  V30 3005 H 277.802 0.381628 -4.14547 0
M  V30 3006 H 278.335 -1.27473 -3.76823 0
M  V30 3007 H 275.074 -3.847 -5.30741 0
M  V30 3008 H 274.594 -2.1589 -5.596 0
M  V30 3009 H 276.273 -2.67478 -5.89122 0
M  V30 3010 N 276.405 1.4127 -0.698611 0
M  V30 3011 C 277.63 2.06024 -0.238512 0
M  V30 3012 C 278.055 1.5224 1.10475 0
M  V30 3013 O 277.413 0.650623 1.69223 0
M  V30 3014 C 277.461 3.59988 -0.209952 0
M  V30 3015 O 276.565 4.04282 0.814235 0
M  V30 3016 H 275.906 0.653829 -0.115775 0
M  V30 3017 H 278.436 1.8098 -0.954326 0
M  V30 3018 H 278.446 4.07979 -0.0418436 0
M  V30 3019 H 277.121 3.98503 -1.1903 0
M  V30 3020 H 275.698 3.6779 0.615234 0
M  V30 3021 N 277.883 0.443576 1.51229 0
M  V30 3022 C 279.131 -0.120557 2.0174 0
M  V30 3023 C 279.452 -1.42665 1.32935 0
M  V30 3024 O 278.722 -1.9028 0.465866 0
M  V30 3025 H 277.302 -0.0475426 0.745486 0
M  V30 3026 H 279.964 0.587711 1.85828 0
M  V30 3027 H 279.06 -0.291972 3.10731 0
M  V30 3028 N 279.361 -1.56624 0.175154 0
M  V30 3029 C 280.591 -2.01082 -0.474283 0
M  V30 3030 C 280.999 -1.05447 -1.57091 0
M  V30 3031 O 280.342 -0.0480595 -1.83637 0
M  V30 3032 C 280.404 -3.41963 -1.10911 0
M  V30 3033 C 280.068 -4.56742 -0.153666 0
M  V30 3034 C 281.065 -5.16076 0.629448 0
M  V30 3035 C 278.75 -5.02277 -0.0483776 0
M  V30 3036 C 280.744 -6.19377 1.50501 0
M  V30 3037 C 278.431 -6.05427 0.830768 0
M  V30 3038 C 279.429 -6.63849 1.60605 0
M  V30 3039 O 279.117 -7.64998 2.47049 0
M  V30 3040 H 278.849 -0.664261 -0.125432 0
M  V30 3041 H 281.403 -2.03549 0.275163 0
M  V30 3042 H 279.633 -3.36422 -1.90676 0
M  V30 3043 H 281.322 -3.70352 -1.66114 0
M  V30 3044 H 282.088 -4.81776 0.558297 0
M  V30 3045 H 277.967 -4.56513 -0.641611 0
M  V30 3046 H 281.511 -6.64906 2.1106 0
M  V30 3047 H 277.408 -6.39151 0.903107 0
M  V30 3048 H 278.176 -7.82336 2.40607 0
M  V30 3049 N 280.839 0.0985539 -1.57292 0
M  V30 3050 C 282.088 0.801358 -1.85098 0
M  V30 3051 C 282.401 1.80066 -0.763902 0
M  V30 3052 O 283.607 2.55112 -0.928981 0
M  V30 3053 C 282.063 1.47599 -3.28242 0
M  V30 3054 C 281.671 0.516624 -4.45011 0
M  V30 3055 C 283.415 2.16272 -3.65276 0
M  V30 3056 C 281.322 1.19564 -5.79188 0
M  V30 3057 H 280.252 0.303022 -0.69043 0
M  V30 3058 H 282.903 0.0542623 -1.8342 0
M  V30 3059 H 281.285 2.27042 -3.2445 0
M  V30 3060 H 282.459 -0.246065 -4.60143 0
M  V30 3061 H 280.774 -0.064227 -4.1635 0
M  V30 3062 H 283.371 2.67802 -4.62803 0
M  V30 3063 H 283.714 2.95009 -2.93727 0
M  V30 3064 H 284.247 1.43693 -3.70941 0
M  V30 3065 H 280.986 0.449157 -6.53959 0
M  V30 3066 H 280.506 1.92984 -5.67906 0
M  V30 3067 H 282.185 1.7231 -6.23633 0
M  V30 3068 N 282.317 1.53212 0.369288 0
M  V30 3069 C 283.728 1.60943 0.946276 0
M  V30 3070 C 284.079 0.47452 1.90375 0
M  V30 3071 O 283.204 -0.399597 2.12679 0
M  V30 3072 C 283.799 2.91715 1.72302 0
M  V30 3073 C 282.358 3.01792 2.24941 0
M  V30 3074 C 281.505 2.56211 1.06072 0
M  V30 3075 H 284.456 1.58007 0.148198 0
M  V30 3076 H 284.477 2.79309 2.58393 0
M  V30 3077 H 283.989 3.74295 1.0259 0
M  V30 3078 H 282.09 2.23791 2.97906 0
M  V30 3079 H 282.203 4.06803 2.53077 0
M  V30 3080 H 280.567 2.10998 1.4266 0
M  V30 3081 H 281.35 3.41206 0.378639 0
M  V30 3082 N 283.795 -0.628877 1.44509 0
M  V30 3083 C 284.743 -1.76193 1.51852 0
M  V30 3084 C 285.737 -1.64849 0.390042 0
M  V30 3085 O 286.943 -1.709 0.565082 0
M  V30 3086 H 283.318 -0.581728 0.476547 0
M  V30 3087 H 285.289 -1.67123 2.47209 0
M  V30 3088 C 284.038 -3.14533 1.48204 0
M  V30 3089 H 283.361 -3.23911 2.34354 0
M  V30 3090 H 284.801 -3.93701 1.57402 0
M  V30 3091 C 283.26 -3.36287 0.203142 0
M  V30 3092 O 283.79 -3.9509 -0.725745 0
M  V30 3093 N 281.996 -2.90408 0.105563 0
M  V30 3094 H 281.543 -2.42739 0.862301 0
M  V30 3095 H 281.501 -3.05339 -0.749371 0
M  V30 3096 N 285.273 -1.31445 -0.869486 0
M  V30 3097 C 286.521 -1.20918 -1.61936 0
M  V30 3098 C 286.842 0.232683 -1.93607 0
M  V30 3099 O 286.112 1.15352 -1.58338 0
M  V30 3100 H 284.692 -0.44454 -0.600328 0
M  V30 3101 H 287.354 -1.64776 -1.0409 0
M  V30 3102 H 286.45 -1.78124 -2.56278 0
M  V30 3103 N 286.751 1.08385 -1.14413 0
M  V30 3104 C 287.661 2.18856 -0.844951 0
M  V30 3105 C 288.677 1.73121 0.174668 0
M  V30 3106 O 289.853 2.014 0.00312857 0
M  V30 3107 C 286.918 3.45155 -0.32696 0
M  V30 3108 C 285.979 4.05513 -1.40916 0
M  V30 3109 C 285.212 5.25784 -0.915793 0
M  V30 3110 O 285.435 5.69884 0.242651 0
M  V30 3111 O 284.369 5.77545 -1.69487 0
M  V30 3112 H 288.195 2.46919 -1.76818 0
M  V30 3113 H 285.78 1.17524 -0.922411 0
M  V30 3114 H 287.662 4.21377 -0.0440211 0
M  V30 3115 H 286.337 3.18668 0.568539 0
M  V30 3116 H 285.244 3.30879 -1.74556 0
M  V30 3117 H 286.577 4.3625 -2.27919 0
M  V30 3118 N 288.23 0.939286 1.26551 0
M  V30 3119 C 289.476 0.596234 1.94465 0
M  V30 3120 C 289.831 -0.855013 1.72358 0
M  V30 3121 O 289.124 -1.6034 1.04889 0
M  V30 3122 C 289.318 0.872106 3.46596 0
M  V30 3123 C 289.147 2.34862 3.83497 0
M  V30 3124 C 287.917 3.00344 4.06352 0
M  V30 3125 C 290.115 3.32697 3.92195 0
M  V30 3126 N 288.097 4.38027 4.30123 0
M  V30 3127 C 289.468 4.55631 4.20476 0
M  V30 3128 C 291.523 3.27747 3.74815 0
M  V30 3129 C 290.226 5.74233 4.33185 0
M  V30 3130 C 292.252 4.45672 3.88755 0
M  V30 3131 C 291.614 5.67388 4.17433 0
M  V30 3132 H 287.713 0.268515 0.734455 0
M  V30 3133 H 290.297 1.2083 1.5267 0
M  V30 3134 H 288.468 0.289102 3.87323 0
M  V30 3135 H 290.2 0.490513 4.01716 0
M  V30 3136 H 286.955 2.50969 4.01636 0
M  V30 3137 H 287.379 5.09288 4.46044 0
M  V30 3138 H 292.021 2.34703 3.51673 0
M  V30 3139 H 289.739 6.67731 4.55149 0
M  V30 3140 H 293.325 4.43372 3.76713 0
M  V30 3141 H 292.205 6.57115 4.27983 0
M  V30 3142 N 289.708 -1.40897 0.706093 0
M  V30 3143 C 290.985 -1.94868 0.169099 0
M  V30 3144 C 291.365 -1.64485 -1.32318 0
M  V30 3145 O 290.713 -0.95744 -2.07474 0
M  V30 3146 C 290.923 -3.45798 0.471654 0
M  V30 3147 C 292.271 -4.22663 0.405127 0
M  V30 3148 O 293.295 -3.53865 0.407168 0
M  V30 3149 O 292.154 -5.45216 0.374383 0
M  V30 3150 H 289.248 -0.82673 0.0211352 0
M  V30 3151 H 291.794 -1.50558 0.782976 0
M  V30 3152 H 290.566 -3.61235 1.50416 0
M  V30 3153 H 290.189 -3.97225 -0.172666 0
M  V30 3154 N 291.186 -0.45159 -1.50991 0
M  V30 3155 C 292.116 0.342898 -2.30969 0
M  V30 3156 C 293.097 1.00815 -1.37005 0
M  V30 3157 O 294.282 1.00907 -1.65926 0
M  V30 3158 C 291.412 1.43637 -3.16205 0
M  V30 3159 C 290.366 0.893818 -4.18563 0
M  V30 3160 C 289.692 2.08411 -4.92411 0
M  V30 3161 C 290.992 -0.0815568 -5.22236 0
M  V30 3162 H 292.686 -0.324556 -2.97636 0
M  V30 3163 H 290.232 -0.157531 -1.43136 0
M  V30 3164 H 292.185 1.9995 -3.70942 0
M  V30 3165 H 290.909 2.13232 -2.47386 0
M  V30 3166 H 289.568 0.352798 -3.64898 0
M  V30 3167 H 289.216 2.76658 -4.20082 0
M  V30 3168 H 288.916 1.72741 -5.61636 0
M  V30 3169 H 290.44 2.65251 -5.49976 0
M  V30 3170 H 291.854 0.391742 -5.7196 0
M  V30 3171 H 290.251 -0.351551 -5.99069 0
M  V30 3172 H 291.321 -1.01374 -4.74185 0
M  V30 3173 N 292.664 1.56529 -0.183458 0
M  V30 3174 C 293.91 1.97537 0.459036 0
M  V30 3175 C 294.243 1.06989 1.62071 0
M  V30 3176 O 293.518 0.11948 1.94133 0
M  V30 3177 C 293.801 3.47874 0.930368 0
M  V30 3178 C 293.654 4.492 -0.232317 0
M  V30 3179 C 294.973 4.01612 1.79989 0
M  V30 3180 H 292.092 0.718204 0.165383 0
M  V30 3181 H 294.734 1.88042 -0.272038 0
M  V30 3182 H 292.884 3.56095 1.55333 0
M  V30 3183 H 294.556 4.53027 -0.86972 0
M  V30 3184 H 292.799 4.24657 -0.885928 0
M  V30 3185 H 293.47 5.51823 0.139796 0
M  V30 3186 H 295.946 3.96097 1.27461 0
M  V30 3187 H 294.822 5.07195 2.09867 0
M  V30 3188 H 295.083 3.46163 2.74998 0
M  V30 3189 N 294.142 -0.090211 1.57342 0
M  V30 3190 C 295.39 -0.791241 1.85967 0
M  V30 3191 C 295.711 -1.7903 0.772859 0
M  V30 3192 O 294.981 -1.94872 -0.200398 0
M  V30 3193 H 293.561 -0.295205 0.686195 0
M  V30 3194 H 296.223 -0.0706782 1.94772 0
M  V30 3195 H 295.319 -1.31882 2.82867 0
M  V30 3196 N 295.62 -1.53406 -0.361157 0
M  V30 3197 C 296.869 -1.69022 -1.10066 0
M  V30 3198 C 297.182 -0.450838 -1.90333 0
M  V30 3199 O 298.388 -0.487617 -2.67085 0
M  V30 3200 C 296.844 -2.98812 -2.00598 0
M  V30 3201 C 296.452 -4.30027 -1.25621 0
M  V30 3202 C 298.196 -3.23795 -2.74513 0
M  V30 3203 C 296.103 -5.50903 -2.1508 0
M  V30 3204 H 295.033 -0.629776 -0.414606 0
M  V30 3205 H 297.684 -1.79907 -0.361348 0
M  V30 3206 H 296.066 -2.8174 -2.78278 0
M  V30 3207 H 297.24 -4.57745 -0.529739 0
M  V30 3208 H 295.555 -4.11522 -0.635496 0
M  V30 3209 H 298.152 -4.11289 -3.41681 0
M  V30 3210 H 298.495 -2.40045 -3.40123 0
M  V30 3211 H 299.028 -3.41561 -2.03914 0
M  V30 3212 H 295.767 -6.37143 -1.54041 0
M  V30 3213 H 295.287 -5.27459 -2.85565 0
M  V30 3214 H 296.966 -5.85865 -2.74538 0
M  V30 3215 N 297.098 0.621204 -1.44841 0
M  V30 3216 C 298.509 1.20298 -1.42777 0
M  V30 3217 C 298.86 1.95639 -0.148259 0
M  V30 3218 O 297.985 2.02955 0.750892 0
M  V30 3219 C 298.58 2.1882 -2.58657 0
M  V30 3220 C 297.139 2.72403 -2.59756 0
M  V30 3221 C 296.286 1.4757 -2.34773 0
M  V30 3222 H 299.237 0.411297 -1.53278 0
M  V30 3223 H 299.258 3.01607 -2.31977 0
M  V30 3224 H 298.77 1.63957 -3.51766 0
M  V30 3225 H 296.871 3.31242 -1.70615 0
M  V30 3226 H 296.984 3.17765 -3.58556 0
M  V30 3227 H 295.348 1.76051 -1.8406 0
M  V30 3228 H 296.131 0.945954 -3.3001 0
M  V30 3229 N 298.576 1.31904 0.862503 0
M  V30 3230 C 299.824 1.21776 1.61292 0
M  V30 3231 C 300.145 -0.222413 1.93727 0
M  V30 3232 O 299.415 -1.1451 1.58947 0
M  V30 3233 H 297.995 0.447717 0.597962 0
M  V30 3234 H 300.657 1.65326 1.03215 0
M  V30 3235 H 299.753 1.7948 2.5533 0
M  V30 3236 N 300.054 -1.07777 1.14986 0
M  V30 3237 C 301.001 -2.14867 0.842672 0
M  V30 3238 C 301.971 -1.6486 -0.202552 0
M  V30 3239 O 303.156 -1.90668 -0.0710568 0
M  V30 3240 C 300.296 -3.43486 0.333363 0
M  V30 3241 C 299.409 -4.07306 1.43965 0
M  V30 3242 C 298.544 -5.23744 0.886914 0
M  V30 3243 C 297.583 -5.79517 1.97043 0
M  V30 3244 N 296.72 -6.87291 1.4344 0
M  V30 3245 H 301.56 -2.40485 1.75986 0
M  V30 3246 H 299.097 -1.1801 0.878179 0
M  V30 3247 H 301.055 -4.17195 0.0198163 0
M  V30 3248 H 299.685 -3.18133 -0.546916 0
M  V30 3249 H 298.737 -3.31293 1.86946 0
M  V30 3250 H 300.049 -4.44771 2.25788 0
M  V30 3251 H 299.203 -6.04419 0.525651 0
M  V30 3252 H 297.942 -4.87685 0.0377957 0
M  V30 3253 H 296.947 -4.97491 2.34057 0
M  V30 3254 H 298.172 -6.17632 2.82325 0
M  V30 3255 H 296.118 -6.5318 0.607567 0
M  V30 3256 H 296.035 -7.23617 2.18895 0
M  V30 3257 H 297.303 -7.71682 1.10124 0
M  V30 3258 N 301.532 -0.945985 -1.26051 0
M  V30 3259 C 302.948 -0.649045 -1.45807 0
M  V30 3260 C 303.148 0.796158 -1.85104 0
M  V30 3261 O 302.204 1.57233 -1.97571 0
M  V30 3262 C 303.517 -1.61458 -2.53677 0
M  V30 3263 C 305.065 -1.62481 -2.67524 0
M  V30 3264 C 305.54 -2.57776 -3.7857 0
M  V30 3265 N 307.031 -2.5609 -3.85969 0
M  V30 3266 C 307.766 -3.26508 -4.7136 0
M  V30 3267 N 307.262 -4.0637 -5.61102 0
M  V30 3268 N 309.055 -3.15437 -4.65248 0
M  V30 3269 H 301.206 -1.88005 -0.988328 0
M  V30 3270 H 303.469 -0.808198 -0.4955 0
M  V30 3271 H 303.175 -2.64644 -2.31638 0
M  V30 3272 H 303.049 -1.37036 -3.51427 0
M  V30 3273 H 305.436 -0.600167 -2.88933 0
M  V30 3274 H 305.517 -1.90958 -1.70202 0
M  V30 3275 H 305.161 -3.60361 -3.57913 0
M  V30 3276 H 305.091 -2.26587 -4.75359 0
M  V30 3277 H 307.582 -1.98105 -3.21812 0
M  V30 3278 H 307.895 -4.57042 -6.23164 0
M  V30 3279 H 306.24 -4.10469 -5.60839 0
M  V30 3280 H 309.431 -2.52525 -3.94143 0
M  V30 3281 H 309.604 -3.70584 -5.31575 0
M  V30 3282 N 303.011 1.40521 -0.713556 0
M  V30 3283 C 304.236 2.05759 -0.26035 0
M  V30 3284 C 304.661 1.53403 1.08854 0
M  V30 3285 O 304.019 0.668535 1.68524 0
M  V30 3286 C 304.067 3.59745 -0.248122 0
M  V30 3287 O 303.171 4.05123 0.77131 0
M  V30 3288 H 302.512 0.652564 -0.122703 0
M  V30 3289 H 305.042 1.79958 -0.973467 0
M  V30 3290 H 305.052 4.07911 -0.0851129 0
M  V30 3291 H 303.727 3.97218 -1.2325 0
M  V30 3292 H 302.304 3.68422 0.57619 0
M  V30 3293 N 304.489 0.459591 1.5075 0
M  V30 3294 C 305.399 -0.34613 2.32033 0
M  V30 3295 C 306.415 -1.00686 1.41909 0
M  V30 3296 O 307.591 -0.997361 1.7497 0
M  V30 3297 C 304.656 -1.42029 3.16273 0
M  V30 3298 C 303.717 -0.777362 4.22203 0
M  V30 3299 C 302.95 -1.80034 5.02418 0
M  V30 3300 O 303.173 -3.02544 4.83553 0
M  V30 3301 O 302.107 -1.37853 5.85901 0
M  V30 3302 H 305.933 0.318054 3.0203 0
M  V30 3303 H 303.518 0.221663 1.47746 0
M  V30 3304 H 305.4 -2.04275 3.68578 0
M  V30 3305 H 304.075 -2.06815 2.49016 0
M  V30 3306 H 302.982 -0.116256 3.73919 0
M  V30 3307 H 304.315 -0.172634 4.91897 0
M  V30 3308 N 305.967 -1.56429 0.191757 0
M  V30 3309 C 307.383 -1.58754 -0.164137 0
M  V30 3310 C 307.583 -1.20782 -1.61288 0
M  V30 3311 O 306.639 -0.928999 -2.34789 0
M  V30 3312 C 307.952 -3.00396 0.135195 0
M  V30 3313 C 309.5 -3.1291 0.0750351 0
M  V30 3314 C 309.975 -4.56679 0.347632 0
M  V30 3315 N 311.466 -4.62252 0.296131 0
M  V30 3316 C 312.201 -5.71379 0.480948 0
M  V30 3317 N 311.697 -6.88986 0.725933 0
M  V30 3318 N 313.49 -5.60563 0.415435 0
M  V30 3319 H 305.641 -1.79393 1.13718 0
M  V30 3320 H 307.904 -0.832414 0.453643 0
M  V30 3321 H 307.61 -3.32726 1.13958 0
M  V30 3322 H 307.484 -3.72963 -0.563773 0
M  V30 3323 H 309.871 -2.80394 -0.919948 0
M  V30 3324 H 309.952 -2.42736 0.807029 0
M  V30 3325 H 309.596 -4.89907 1.33992 0
M  V30 3326 H 309.526 -5.25039 -0.405212 0
M  V30 3327 H 312.017 -3.7773 0.113259 0
M  V30 3328 H 312.33 -7.68046 0.855857 0
M  V30 3329 H 310.675 -6.90801 0.762788 0
M  V30 3330 H 313.866 -4.67561 0.224486 0
M  V30 3331 H 314.039 -6.45551 0.562889 0
M  V30 3332 N 307.445 0.0818655 -1.57387 0
M  V30 3333 C 308.692 0.782914 -1.86753 0
M  V30 3334 C 309.02 1.78082 -0.782118 0
M  V30 3335 O 308.275 1.94426 0.22295 0
M  V30 3336 C 308.574 1.53513 -3.22752 0
M  V30 3337 C 308.24 0.678134 -4.45771 0
M  V30 3338 C 306.902 0.441929 -4.79166 0
M  V30 3339 C 309.254 0.0832243 -5.21134 0
M  V30 3340 C 306.582 -0.398833 -5.85343 0
M  V30 3341 C 308.934 -0.744935 -6.28199 0
M  V30 3342 C 307.598 -0.991107 -6.60101 0
M  V30 3343 H 306.868 0.286489 -0.683378 0
M  V30 3344 H 309.515 0.0439808 -1.91449 0
M  V30 3345 H 307.82 2.34599 -3.138 0
M  V30 3346 H 309.517 2.08218 -3.42705 0
M  V30 3347 H 306.107 0.872357 -4.19628 0
M  V30 3348 H 310.291 0.252847 -4.95655 0
M  V30 3349 H 305.547 -0.598405 -6.08465 0
M  V30 3350 H 309.721 -1.21271 -6.8576 0
M  V30 3351 H 307.348 -1.64437 -7.42202 0
M  V30 3352 N 308.923 1.53595 0.353017 0
M  V30 3353 C 310.153 1.74058 1.11299 0
M  V30 3354 C 310.561 0.475205 1.83135 0
M  V30 3355 O 309.904 -0.562344 1.74881 0
M  V30 3356 C 309.966 2.85994 2.17825 0
M  V30 3357 C 309.63 4.25923 1.65647 0
M  V30 3358 C 310.627 5.07829 1.11383 0
M  V30 3359 C 308.312 4.72377 1.7078 0
M  V30 3360 C 310.306 6.34285 0.629439 0
M  V30 3361 C 307.993 5.98808 1.21953 0
M  V30 3362 C 308.991 6.79594 0.681265 0
M  V30 3363 O 308.679 8.03651 0.200248 0
M  V30 3364 H 308.411 0.585327 0.338183 0
M  V30 3365 H 310.965 2.01186 0.413927 0
M  V30 3366 H 309.195 2.54368 2.91262 0
M  V30 3367 H 310.884 2.94515 2.79313 0
M  V30 3368 H 311.65 4.73107 1.06746 0
M  V30 3369 H 307.529 4.0956 2.11617 0
M  V30 3370 H 311.073 6.97288 0.208636 0
M  V30 3371 H 306.97 6.33026 1.26287 0
M  V30 3372 H 307.738 8.1788 0.318416 0
M  V30 3373 N 310.401 -0.613514 1.45168 0
M  V30 3374 C 311.311 -1.75296 1.55912 0
M  V30 3375 C 312.327 -1.68244 0.443856 0
M  V30 3376 O 313.503 -1.88706 0.70371 0
M  V30 3377 C 310.568 -3.1174 1.5172 0
M  V30 3378 C 309.629 -3.30291 2.74238 0
M  V30 3379 C 308.862 -4.60226 2.70236 0
M  V30 3380 O 309.085 -5.42168 1.77229 0
M  V30 3381 O 308.019 -4.81361 3.61352 0
M  V30 3382 H 311.845 -1.69183 2.52212 0
M  V30 3383 H 309.43 -0.776886 1.27612 0
M  V30 3384 H 311.312 -3.93044 1.51968 0
M  V30 3385 H 309.987 -3.18357 0.585697 0
M  V30 3386 H 308.894 -2.48598 2.79553 0
M  V30 3387 H 310.227 -3.28547 3.66494 0
M  V30 3388 N 311.879 -1.3236 -0.855495 0
M  V30 3389 C 313.119 -1.24187 -1.62348 0
M  V30 3390 C 313.483 0.193597 -1.91021 0
M  V30 3391 O 314.684 0.39904 -2.65822 0
M  V30 3392 C 312.955 -2.07661 -2.90881 0
M  V30 3393 S 314.514 -2.16505 -3.81669 0
M  V30 3394 H 311.332 -0.442076 -0.556857 0
M  V30 3395 H 313.934 -1.67198 -1.01317 0
M  V30 3396 H 312.638 -3.11018 -2.67761 0
M  V30 3397 H 312.169 -1.65425 -3.56929 0
M  V30 3398 H 314.184 -1.31394 -4.78487 0
M  V30 3399 N 313.357 1.07166 -1.15556 0
M  V30 3400 C 314.597 1.81391 -0.94216 0
M  V30 3401 C 314.961 1.84788 0.521272 0
M  V30 3402 O 316.162 2.54904 0.85307 0
M  V30 3403 C 314.433 3.22431 -1.54185 0
M  V30 3404 S 315.992 4.13379 -1.47183 0
M  V30 3405 H 312.81 0.624963 -0.339031 0
M  V30 3406 H 315.412 1.28725 -1.4714 0
M  V30 3407 H 314.116 3.17548 -2.59984 0
M  V30 3408 H 313.647 3.80172 -1.01156 0
M  V30 3409 H 315.662 4.94007 -0.466004 0
M  V30 3410 N 314.835 0.952656 1.25548 0
M  V30 3411 C 315.782 0.47008 2.25962 0
M  V30 3412 C 316.752 -0.476384 1.59122 0
M  V30 3413 O 317.937 -0.39007 1.8677 0
M  V30 3414 C 315.077 -0.247881 3.44209 0
M  V30 3415 C 314.19 0.735591 4.25691 0
M  V30 3416 C 313.325 -0.0047306 5.312 0
M  V30 3417 C 312.364 0.969805 6.04368 0
M  V30 3418 N 311.501 0.260486 7.01617 0
M  V30 3419 H 316.341 1.33126 2.66611 0
M  V30 3420 H 313.878 0.66765 1.31076 0
M  V30 3421 H 315.836 -0.680695 4.1161 0
M  V30 3422 H 314.466 -1.07312 3.0444 0
M  V30 3423 H 313.518 1.28689 3.57971 0
M  V30 3424 H 314.83 1.47934 4.76358 0
M  V30 3425 H 313.984 -0.496275 6.04667 0
M  V30 3426 H 312.723 -0.781282 4.81401 0
M  V30 3427 H 311.728 1.47237 5.29718 0
M  V30 3428 H 312.953 1.74655 6.56256 0
M  V30 3429 H 310.899 -0.497364 6.54112 0
M  V30 3430 H 310.816 0.943362 7.50091 0
M  V30 3431 H 312.084 -0.209587 7.79218 0
M  V30 3432 N 316.313 -1.40141 0.720998 0
M  V30 3433 C 317.223 -2.34486 0.0731031 0
M  V30 3434 C 318.239 -1.57587 -0.737723 0
M  V30 3435 O 319.415 -1.89949 -0.669429 0
M  V30 3436 C 316.48 -3.36528 -0.833656 0
M  V30 3437 C 315.541 -4.29298 -0.0121673 0
M  V30 3438 C 314.774 -5.26466 -0.875742 0
M  V30 3439 O 314.997 -5.29745 -2.11485 0
M  V30 3440 O 313.931 -6.01092 -0.31185 0
M  V30 3441 H 317.757 -2.9152 0.851444 0
M  V30 3442 H 315.342 -1.41427 0.481527 0
M  V30 3443 H 317.224 -3.99093 -1.35289 0
M  V30 3444 H 315.899 -2.81899 -1.59105 0
M  V30 3445 H 314.806 -3.70001 0.552262 0
M  V30 3446 H 316.139 -4.87094 0.707129 0
M  V30 3447 N 317.792 -0.46758 -1.50504 0
M  V30 3448 C 319.203 -0.0116166 -1.86696 0
M  V30 3449 C 319.554 1.39202 -1.38265 0
M  V30 3450 O 318.679 2.0313 -0.746132 0
M  V30 3451 C 319.274 -0.0143044 -3.38797 0
M  V30 3452 C 317.833 0.386175 -3.74414 0
M  V30 3453 C 316.98 -0.401287 -2.74381 0
M  V30 3454 H 319.931 -0.682022 -1.43297 0
M  V30 3455 H 319.952 0.788641 -3.72237 0
M  V30 3456 H 319.464 -1.03602 -3.74016 0
M  V30 3457 H 317.565 1.41237 -3.44794 0
M  V30 3458 H 317.678 0.0899596 -4.79016 0
M  V30 3459 H 316.042 0.144536 -2.5429 0
M  V30 3460 H 316.825 -1.42244 -3.12444 0
M  V30 3461 N 319.27 1.56325 -0.20005 0
M  V30 3462 C 320.5 2.01811 0.442232 0
M  V30 3463 C 320.908 1.07932 1.55394 0
M  V30 3464 O 320.251 0.0772685 1.83537 0
M  V30 3465 C 320.313 3.43685 1.05457 0
M  V30 3466 C 319.977 4.56928 0.0809833 0
M  V30 3467 C 320.974 5.15009 -0.711471 0
M  V30 3468 C 318.659 5.0229 -0.0315364 0
M  V30 3469 C 320.653 6.16904 -1.60336 0
M  V30 3470 C 318.34 6.04028 -0.926981 0
M  V30 3471 C 319.338 6.6121 -1.71146 0
M  V30 3472 O 319.026 7.60971 -2.59189 0
M  V30 3473 H 318.758 0.666173 0.114848 0
M  V30 3474 H 321.312 2.03085 -0.307511 0
M  V30 3475 H 319.542 3.39413 1.85299 0
M  V30 3476 H 321.231 3.72948 1.60201 0
M  V30 3477 H 321.997 4.80827 -0.634873 0
M  V30 3478 H 317.876 4.57476 0.568902 0
M  V30 3479 H 321.42 6.61464 -2.21611 0
M  V30 3480 H 317.317 6.37634 -1.00468 0
M  V30 3481 H 318.085 7.7841 -2.53023 0
M  V30 3482 N 320.748 -0.0735177 1.57428 0
M  V30 3483 C 322.159 -0.625551 1.75908 0
M  V30 3484 C 322.51 -1.78 0.825261 0
M  V30 3485 O 321.635 -2.16398 0.00893964 0
M  V30 3486 C 322.23 -1.14155 3.18989 0
M  V30 3487 C 320.789 -1.63946 3.38819 0
M  V30 3488 C 319.936 -0.558151 2.71625 0
M  V30 3489 H 322.887 0.152647 1.57964 0
M  V30 3490 H 322.908 -2.0104 3.23053 0
M  V30 3491 H 322.42 -0.301116 3.8693 0
M  V30 3492 H 320.521 -2.50321 2.7599 0
M  V30 3493 H 320.634 -1.71759 4.47253 0
M  V30 3494 H 318.998 -1.00278 2.34129 0
M  V30 3495 H 319.781 0.272071 3.4222 0
M  V30 3496 N 322.226 -1.5378 -0.344866 0
M  V30 3497 C 323.503 -1.61589 -1.10219 0
M  V30 3498 C 323.883 -0.436316 -2.06542 0
M  V30 3499 O 323.231 0.571543 -2.21237 0
M  V30 3500 C 323.441 -2.97602 -1.82301 0
M  V30 3501 C 324.789 -3.5291 -2.36093 0
M  V30 3502 O 325.813 -2.99768 -1.924 0
M  V30 3503 O 324.672 -4.45859 -3.16026 0
M  V30 3504 H 321.766 -0.653522 -0.506792 0
M  V30 3505 H 324.312 -1.66126 -0.346465 0
M  V30 3506 H 323.084 -3.74893 -1.12121 0
M  V30 3507 H 322.707 -2.9665 -2.64735 0
M  V30 3508 N 323.704 0.605807 -1.45491 0
M  V30 3509 C 324.95 1.36679 -1.49823 0
M  V30 3510 C 325.283 1.93693 -0.140175 0
M  V30 3511 O 324.558 1.75158 0.845581 0
M  V30 3512 C 324.841 2.51337 -2.57879 0
M  V30 3513 C 324.694 1.99508 -4.03134 0
M  V30 3514 C 326.013 3.53463 -2.62205 0
M  V30 3515 H 323.132 0.495617 -0.545466 0
M  V30 3516 H 325.774 0.682732 -1.7731 0
M  V30 3517 H 323.924 3.09691 -2.34571 0
M  V30 3518 H 325.596 1.45789 -4.37656 0
M  V30 3519 H 323.839 1.30496 -4.13707 0
M  V30 3520 H 324.51 2.82169 -4.74431 0
M  V30 3521 H 326.986 3.04953 -2.83095 0
M  V30 3522 H 325.862 4.31178 -3.39672 0
M  V30 3523 H 326.123 4.09197 -1.67363 0
M  V30 3524 N 325.182 1.32811 0.848464 0
M  V30 3525 C 326.41 1.26739 1.63538 0
M  V30 3526 C 326.825 -0.163484 1.88091 0
M  V30 3527 O 326.182 -1.10258 1.45429 0
M  V30 3528 C 326.233 2.03013 2.99112 0
M  V30 3529 O 325.954 3.40518 2.75643 0
M  V30 3530 C 327.455 2.04038 3.93552 0
M  V30 3531 H 324.675 0.437024 0.509167 0
M  V30 3532 H 327.219 1.75033 1.05753 0
M  V30 3533 H 325.374 1.58426 3.53525 0
M  V30 3534 H 325.788 3.79635 3.61908 0
M  V30 3535 H 327.262 2.61877 4.85926 0
M  V30 3536 H 327.739 1.0282 4.26995 0
M  V30 3537 H 328.345 2.486 3.45077 0
M  V30 3538 N 326.66 -1.06551 1.16123 0
M  V30 3539 C 327.907 -1.79302 0.941126 0
M  V30 3540 C 328.235 -1.87105 -0.531235 0
M  V30 3541 O 327.49 -1.35692 -1.41018 0
M  V30 3542 C 327.789 -3.23911 1.51052 0
M  V30 3543 C 327.455 -3.36193 3.00475 0
M  V30 3544 C 326.117 -3.39252 3.41265 0
M  V30 3545 C 328.469 -3.38326 3.96465 0
M  V30 3546 C 325.797 -3.42057 4.76669 0
M  V30 3547 C 328.149 -3.4267 5.31752 0
M  V30 3548 C 326.813 -3.4401 5.72026 0
M  V30 3549 H 326.083 -0.656111 0.344382 0
M  V30 3550 H 328.73 -1.25325 1.44796 0
M  V30 3551 H 327.035 -3.80723 0.925063 0
M  V30 3552 H 328.732 -3.78793 1.31593 0
M  V30 3553 H 325.322 -3.34516 2.6795 0
M  V30 3554 H 329.506 -3.35176 3.6602 0
M  V30 3555 H 324.762 -3.41398 5.07206 0
M  V30 3556 H 328.936 -3.43268 6.05921 0
M  V30 3557 H 326.563 -3.45937 6.76928 0
M  V30 3558 N 328.138 -0.959301 -1.25041 0
M  V30 3559 C 329.366 -0.633949 -1.96948 0
M  V30 3560 C 329.781 0.794916 -1.7125 0
M  V30 3561 O 329.138 1.53231 -0.991287 0
M  V30 3562 C 329.189 -0.888805 -3.50403 0
M  V30 3563 O 328.91 -2.26149 -3.75218 0
M  V30 3564 C 330.411 -0.576482 -4.39536 0
M  V30 3565 H 327.631 -0.237263 -0.627652 0
M  V30 3566 H 330.175 -1.28495 -1.59089 0
M  V30 3567 H 328.33 -0.284145 -3.86357 0
M  V30 3568 H 328.744 -2.33514 -4.6965 0
M  V30 3569 H 330.218 -0.805314 -5.46094 0
M  V30 3570 H 330.695 0.489075 -4.36468 0
M  V30 3571 H 331.301 -1.16067 -4.09156 0
M  V30 3572 N 329.616 1.39756 -0.72842 0
M  V30 3573 C 330.862 2.00942 -0.273892 0
M  V30 3574 C 331.195 1.57656 1.13394 0
M  V30 3575 O 330.47 0.802434 1.77176 0
M  V30 3576 C 330.753 3.58211 -0.368346 0
M  V30 3577 C 330.606 4.11534 -1.81548 0
M  V30 3578 C 331.925 4.39372 0.253054 0
M  V30 3579 H 329.044 0.730047 -0.100996 0
M  V30 3580 H 331.686 1.66056 -0.923337 0
M  V30 3581 H 329.836 3.88061 0.184588 0
M  V30 3582 H 331.508 3.92431 -2.42478 0
M  V30 3583 H 329.751 3.65341 -2.33898 0
M  V30 3584 H 330.422 5.20682 -1.83288 0
M  V30 3585 H 332.898 4.15527 -0.218224 0
M  V30 3586 H 331.774 5.48677 0.156585 0
M  V30 3587 H 332.035 4.21358 1.33826 0
M  V30 3588 N 331.094 0.475555 1.50254 0
M  V30 3589 C 332.322 -0.0754493 2.06762 0
M  V30 3590 C 332.737 -1.33111 1.33891 0
M  V30 3591 O 332.094 -1.77846 0.40952 0
M  V30 3592 C 332.145 -0.359008 3.59713 0
M  V30 3593 O 331.866 0.846851 4.29837 0
M  V30 3594 C 333.367 -0.956484 4.32858 0
M  V30 3595 H 330.587 0.00907525 0.670939 0
M  V30 3596 H 333.131 0.665618 1.93364 0
M  V30 3597 H 331.286 -1.05001 3.72899 0
M  V30 3598 H 331.7 0.594162 5.21124 0
M  V30 3599 H 333.174 -1.10463 5.40834 0
M  V30 3600 H 333.651 -1.94775 3.93649 0
M  V30 3601 H 334.257 -0.303723 4.24214 0
M  V30 3602 N 332.573 -1.56217 0.208337 0
M  V30 3603 C 333.506 -2.15633 -0.746842 0
M  V30 3604 C 334.484 -1.09685 -1.20034 0
M  V30 3605 O 335.668 -1.3787 -1.28547 0
M  V30 3606 C 332.795 -2.72594 -2.01023 0
M  V30 3607 C 331.841 -3.91251 -1.69779 0
M  V30 3608 S 332.674 -5.28962 -0.834209 0
M  V30 3609 C 333.83 -5.89353 -2.10745 0
M  V30 3610 H 334.063 -2.96315 -0.241789 0
M  V30 3611 H 331.596 -1.54398 -0.00682183 0
M  V30 3612 H 333.554 -3.06053 -2.73572 0
M  V30 3613 H 332.215 -1.91929 -2.48641 0
M  V30 3614 H 331.408 -4.29562 -2.63614 0
M  V30 3615 H 331.01 -3.58869 -1.05303 0
M  V30 3616 H 333.302 -6.04522 -3.05875 0
M  V30 3617 H 334.245 -6.85661 -1.76845 0
M  V30 3618 H 334.653 -5.1807 -2.24196 0
M  V30 3619 N 334.051 0.0651679 -1.57465 0
M  V30 3620 C 335.467 0.420105 -1.53972 0
M  V30 3621 C 335.667 1.78782 -0.929474 0
M  V30 3622 O 334.723 2.46771 -0.534839 0
M  V30 3623 C 336.036 0.355084 -2.98596 0
M  V30 3624 C 337.584 0.434792 -3.09965 0
M  V30 3625 C 338.059 0.399609 -4.56253 0
M  V30 3626 N 339.55 0.459488 -4.60915 0
M  V30 3627 C 340.285 0.454584 -5.71595 0
M  V30 3628 N 339.781 0.404102 -6.9162 0
M  V30 3629 N 341.574 0.501635 -5.59857 0
M  V30 3630 H 333.725 -0.830328 -1.95498 0
M  V30 3631 H 335.988 -0.312244 -0.895102 0
M  V30 3632 H 335.694 -0.583357 -3.46828 0
M  V30 3633 H 335.568 1.16275 -3.58831 0
M  V30 3634 H 337.955 1.36366 -2.61703 0
M  V30 3635 H 338.036 -0.40157 -2.52628 0
M  V30 3636 H 337.68 -0.525436 -5.05175 0
M  V30 3637 H 337.61 1.25359 -5.11461 0
M  V30 3638 H 340.101 0.502482 -3.74544 0
M  V30 3639 H 340.414 0.404468 -7.71741 0
M  V30 3640 H 338.759 0.37069 -6.94011 0
M  V30 3641 H 341.95 0.538812 -4.64989 0
M  V30 3642 H 342.123 0.494345 -6.46112 0
M  V30 3643 N 335.529 1.53961 0.336706 0
M  V30 3644 C 336.945 1.44378 0.680241 0
M  V30 3645 C 337.145 0.606034 1.9217 0
M  V30 3646 O 336.201 0.099688 2.52303 0
M  V30 3647 C 337.514 2.87945 0.8665 0
M  V30 3648 C 339.062 2.97763 0.964682 0
M  V30 3649 C 339.537 4.42453 1.18321 0
M  V30 3650 N 341.028 4.46008 1.25025 0
M  V30 3651 C 341.763 5.55102 1.43697 0
M  V30 3652 N 341.259 6.7419 1.59498 0
M  V30 3653 N 343.052 5.42727 1.463 0
M  V30 3654 H 335.203 2.06918 -0.479455 0
M  V30 3655 H 337.466 0.935634 -0.152619 0
M  V30 3656 H 337.172 3.51691 0.0256937 0
M  V30 3657 H 337.046 3.33293 1.76623 0
M  V30 3658 H 339.433 2.34153 1.796 0
M  V30 3659 H 339.514 2.55766 0.041708 0
M  V30 3660 H 339.158 5.06645 0.356788 0
M  V30 3661 H 339.088 4.82048 2.11985 0
M  V30 3662 H 341.579 3.60196 1.14312 0
M  V30 3663 H 341.892 7.53095 1.734 0
M  V30 3664 H 340.237 6.77123 1.56621 0
M  V30 3665 H 343.428 4.48647 1.33543 0
M  V30 3666 H 343.601 6.27806 1.6051 0
M  V30 3667 N 337.007 -0.598083 1.45811 0
M  V30 3668 C 338.423 -0.919847 1.30426 0
M  V30 3669 C 338.623 -1.99759 0.264303 0
M  V30 3670 O 337.679 -2.50221 -0.338472 0
M  V30 3671 C 338.992 -1.35176 2.68603 0
M  V30 3672 C 340.54 -1.46546 2.76574 0
M  V30 3673 C 341.015 -1.9311 4.15298 0
M  V30 3674 N 342.506 -2.00328 4.1764 0
M  V30 3675 C 343.241 -2.37599 5.21856 0
M  V30 3676 N 342.737 -2.73771 6.36413 0
M  V30 3677 N 344.53 -2.38021 5.09218 0
M  V30 3678 H 336.681 0.114111 2.12093 0
M  V30 3679 H 338.944 -0.0116121 0.947929 0
M  V30 3680 H 338.65 -0.633969 3.45939 0
M  V30 3681 H 338.524 -2.3164 2.97696 0
M  V30 3682 H 340.911 -2.17415 1.99537 0
M  V30 3683 H 340.992 -0.483727 2.51185 0
M  V30 3684 H 340.636 -1.22824 4.92825 0
M  V30 3685 H 340.566 -2.92213 4.38086 0
M  V30 3686 H 343.057 -1.74925 3.34977 0
M  V30 3687 H 343.37 -3.0112 7.11721 0
M  V30 3688 H 341.715 -2.71445 6.39799 0
M  V30 3689 H 344.906 -2.09174 4.18765 0
M  V30 3690 H 345.079 -2.66741 5.90554 0
M  V30 3691 N 338.485 -1.33259 -0.841409 0
M  V30 3692 C 339.713 -1.27605 -1.62864 0
M  V30 3693 C 340.128 0.153507 -1.88175 0
M  V30 3694 O 339.485 1.09485 -1.46011 0
M  V30 3695 C 339.536 -2.04596 -2.98031 0
M  V30 3696 O 339.257 -3.41975 -2.73834 0
M  V30 3697 C 340.758 -2.06122 -3.92465 0
M  V30 3698 H 337.978 -0.439718 -0.506842 0
M  V30 3699 H 340.522 -1.75591 -1.04824 0
M  V30 3700 H 338.677 -1.60299 -3.5268 0
M  V30 3701 H 339.091 -3.81549 -3.59889 0
M  V30 3702 H 340.565 -2.64451 -4.84531 0
M  V30 3703 H 341.042 -1.05083 -4.26444 0
M  V30 3704 H 341.648 -2.50427 -3.43753 0
M  V30 3705 N 339.963 1.05934 -1.16686 0
M  V30 3706 C 340.893 2.1546 -0.899949 0
M  V30 3707 C 341.874 1.69391 0.155154 0
M  V30 3708 O 343.059 1.94199 0.00648693 0
M  V30 3709 C 340.189 3.44939 -0.404241 0
M  V30 3710 C 339.143 4.04536 -1.39767 0
M  V30 3711 C 338.469 5.29268 -0.760216 0
M  V30 3712 C 339.769 4.42893 -2.76845 0
M  V30 3713 H 341.463 2.38046 -1.81588 0
M  V30 3714 H 339.009 1.14404 -0.874514 0
M  V30 3715 H 340.962 4.20901 -0.204971 0
M  V30 3716 H 339.686 3.21983 0.547206 0
M  V30 3717 H 338.345 3.30635 -1.58355 0
M  V30 3718 H 337.993 5.02611 0.197831 0
M  V30 3719 H 337.693 5.70101 -1.42332 0
M  V30 3720 H 339.217 6.07924 -0.57105 0
M  V30 3721 H 340.631 5.09921 -2.62019 0
M  V30 3722 H 339.028 4.94721 -3.39663 0
M  V30 3723 H 340.098 3.53584 -3.31823 0
M  V30 3724 N 341.441 0.965919 1.2453 0
M  V30 3725 C 342.671 0.643451 1.96324 0
M  V30 3726 C 343.079 -0.790927 1.71875 0
M  V30 3727 O 342.422 -1.54208 0.998273 0
M  V30 3728 C 342.484 0.836078 3.49643 0
M  V30 3729 C 342.148 2.24975 3.97788 0
M  V30 3730 C 343.145 3.22735 4.07601 0
M  V30 3731 C 340.83 2.57697 4.31158 0
M  V30 3732 C 342.824 4.51303 4.50116 0
M  V30 3733 C 340.511 3.86492 4.73357 0
M  V30 3734 C 341.509 4.83107 4.828 0
M  V30 3735 O 341.197 6.09605 5.24058 0
M  V30 3736 H 340.929 0.239223 0.632257 0
M  V30 3737 H 343.483 1.29587 1.59362 0
M  V30 3738 H 341.713 0.12649 3.86493 0
M  V30 3739 H 343.402 0.512965 4.02646 0
M  V30 3740 H 344.168 2.98783 3.82039 0
M  V30 3741 H 340.047 1.83216 4.23028 0
M  V30 3742 H 343.591 5.26716 4.57401 0
M  V30 3743 H 339.488 4.10245 4.98366 0
M  V30 3744 H 340.256 6.13146 5.42213 0
M  V30 3745 N 342.919 -1.39368 0.735821 0
M  V30 3746 C 344.149 -2.04498 0.293967 0
M  V30 3747 C 344.557 -1.55593 -1.07645 0
M  V30 3748 O 343.9 -0.716324 -1.69158 0
M  V30 3749 C 343.962 -3.58836 0.218342 0
M  V30 3750 C 343.626 -4.30721 1.52736 0
M  V30 3751 C 344.623 -4.57305 2.47322 0
M  V30 3752 C 342.308 -4.69251 1.79189 0
M  V30 3753 C 344.302 -5.21429 3.66593 0
M  V30 3754 C 341.989 -5.33104 2.98737 0
M  V30 3755 C 342.987 -5.59125 3.9226 0
M  V30 3756 O 342.675 -6.21653 5.09708 0
M  V30 3757 H 342.407 -0.664118 0.126189 0
M  V30 3758 H 344.961 -1.79385 1.00051 0
M  V30 3759 H 343.191 -3.8285 -0.544314 0
M  V30 3760 H 344.88 -4.05447 -0.191626 0
M  V30 3761 H 345.646 -4.27983 2.28156 0
M  V30 3762 H 341.525 -4.48354 1.07239 0
M  V30 3763 H 345.069 -5.41656 4.39607 0
M  V30 3764 H 340.966 -5.61846 3.17803 0
M  V30 3765 H 341.734 -6.40146 5.10054 0
M  V30 3766 N 344.397 -0.483516 -1.5 0
M  V30 3767 C 345.645 0.067027 -2.01989 0
M  V30 3768 C 345.966 1.3909 -1.36671 0
M  V30 3769 O 345.236 1.88978 -0.516152 0
M  V30 3770 H 343.816 0.0277606 -0.746484 0
M  V30 3771 H 346.478 -0.636773 -1.84204 0
M  V30 3772 H 345.574 0.209484 -3.11396 0
M  V30 3773 N 345.875 1.56104 -0.216619 0
M  V30 3774 C 346.805 2.23063 0.690296 0
M  V30 3775 C 347.786 1.20072 1.20485 0
M  V30 3776 O 348.971 1.48643 1.24976 0
M  V30 3777 C 346.101 2.90672 1.90072 0
M  V30 3778 C 345.055 4.00092 1.5202 0
M  V30 3779 C 344.381 4.54972 2.80899 0
M  V30 3780 C 345.681 5.17398 0.71391 0
M  V30 3781 H 347.375 2.99109 0.132038 0
M  V30 3782 H 344.921 1.43866 0.0620664 0
M  V30 3783 H 346.874 3.36204 2.54057 0
M  V30 3784 H 345.598 2.12066 2.48386 0
M  V30 3785 H 344.257 3.55283 0.903839 0
M  V30 3786 H 343.905 3.73102 3.37348 0
M  V30 3787 H 343.605 5.28817 2.56176 0
M  V30 3788 H 345.129 5.0322 3.45836 0
M  V30 3789 H 346.543 5.59342 1.25735 0
M  V30 3790 H 344.94 5.97444 0.563951 0
M  V30 3791 H 346.01 4.84088 -0.280527 0
M  V30 3792 N 347.353 -0.0568162 1.57498 0
M  V30 3793 C 348.301 -1.08452 2.05769 0
M  V30 3794 C 349.295 -1.39164 0.965903 0
M  V30 3795 O 350.501 -1.38395 1.15095 0
M  V30 3796 H 346.876 -0.367148 0.656282 0
M  V30 3797 H 348.847 -0.651368 2.91204 0
M  V30 3798 C 347.596 -2.38543 2.52968 0
M  V30 3799 H 346.919 -2.15765 3.36579 0
M  V30 3800 H 348.359 -3.08863 2.90481 0
M  V30 3801 C 346.818 -3.05562 1.41893 0
M  V30 3802 O 347.348 -3.94262 0.769442 0
M  V30 3803 N 345.554 -2.6643 1.16032 0
M  V30 3804 H 345.101 -1.94387 1.6903 0
M  V30 3805 H 345.059 -3.11593 0.419219 0
M  V30 3806 N 348.832 -1.54138 -0.328536 0
M  V30 3807 C 349.762 -1.86167 -1.40939 0
M  V30 3808 C 350.743 -0.718044 -1.54202 0
M  V30 3809 O 351.928 -0.971328 -1.68163 0
M  V30 3810 C 349.058 -2.08461 -2.77779 0
M  V30 3811 C 348.012 -3.24299 -2.7931 0
M  V30 3812 C 347.338 -3.31955 -4.19178 0
M  V30 3813 C 348.638 -4.62065 -2.43502 0
M  V30 3814 H 350.332 -2.76689 -1.14383 0
M  V30 3815 H 347.878 -1.33132 -0.548806 0
M  V30 3816 H 349.831 -2.29453 -3.53454 0
M  V30 3817 H 348.555 -1.14684 -3.05802 0
M  V30 3818 H 347.214 -3.03187 -2.0609 0
M  V30 3819 H 346.862 -2.35745 -4.44335 0
M  V30 3820 H 346.562 -4.09805 -4.2111 0
M  V30 3821 H 348.086 -3.55175 -4.96672 0
M  V30 3822 H 349.5 -4.8297 -3.08889 0
M  V30 3823 H 347.897 -5.42429 -2.56693 0
M  V30 3824 H 348.967 -4.64652 -1.38659 0
M  V30 3825 N 350.31 0.590341 -1.46126 0
M  V30 3826 C 351.24 1.71032 -1.58966 0
M  V30 3827 C 352.221 1.64302 -0.440335 0
M  V30 3828 O 353.406 1.82436 -0.665634 0
M  V30 3829 C 350.536 3.09665 -1.57241 0
M  V30 3830 C 349.49 3.31221 -2.71066 0
M  V30 3831 C 348.816 4.70303 -2.54399 0
M  V30 3832 C 350.116 3.19796 -4.1295 0
M  V30 3833 H 351.81 1.60543 -2.52718 0
M  V30 3834 H 349.356 0.770933 -1.21625 0
M  V30 3835 H 351.309 3.87831 -1.64819 0
M  V30 3836 H 350.033 3.21036 -0.600289 0
M  V30 3837 H 348.692 2.55452 -2.62944 0
M  V30 3838 H 348.34 4.78429 -1.55288 0
M  V30 3839 H 348.04 4.85679 -3.30741 0
M  V30 3840 H 349.564 5.50647 -2.63857 0
M  V30 3841 H 350.978 3.87815 -4.22223 0
M  V30 3842 H 349.375 3.46696 -4.89818 0
M  V30 3843 H 350.445 2.16983 -4.33643 0
M  V30 3844 N 351.788 1.33704 0.83433 0
M  V30 3845 C 353.037 1.24763 1.58484 0
M  V30 3846 C 353.35 -0.183775 1.94735 0
M  V30 3847 O 354.556 -0.395234 2.68608 0
M  V30 3848 C 353.012 2.18638 2.85876 0
M  V30 3849 C 352.62 3.66974 2.56971 0
M  V30 3850 C 354.364 2.18581 3.63899 0
M  V30 3851 C 352.271 4.5275 3.80488 0
M  V30 3852 H 351.201 0.463425 0.594772 0
M  V30 3853 H 353.852 1.58797 0.919551 0
M  V30 3854 H 352.234 1.77542 3.5397 0
M  V30 3855 H 353.408 4.16538 1.9706 0
M  V30 3856 H 351.723 3.69366 1.92244 0
M  V30 3857 H 354.32 2.79894 4.55591 0
M  V30 3858 H 354.663 1.18207 3.99165 0
M  V30 3859 H 355.196 2.58062 3.02735 0
M  V30 3860 H 351.935 5.54017 3.5035 0
M  V30 3861 H 351.455 4.07927 4.39722 0
M  V30 3862 H 353.134 4.66784 4.4802 0
M  V30 3863 N 353.266 -1.05314 1.17247 0
M  V30 3864 C 354.677 -1.59753 0.96623 0
M  V30 3865 C 355.028 -1.9005 -0.487378 0
M  V30 3866 O 354.153 -1.68126 -1.36245 0
M  V30 3867 C 354.748 -2.90249 1.74759 0
M  V30 3868 C 353.307 -3.41352 1.58606 0
M  V30 3869 C 352.454 -2.15103 1.75002 0
M  V30 3870 H 355.405 -0.881406 1.31973 0
M  V30 3871 H 355.426 -3.60097 1.22925 0
M  V30 3872 H 354.938 -2.68166 2.8055 0
M  V30 3873 H 353.039 -3.68474 0.552985 0
M  V30 3874 H 353.152 -4.16019 2.37624 0
M  V30 3875 H 351.516 -2.25804 1.17833 0
M  V30 3876 H 352.299 -1.95491 2.82202 0
M  V30 3877 N 354.744 -0.972509 -1.24016 0
M  V30 3878 C 355.984 -0.644951 -1.93958 0
M  V30 3879 C 356.348 0.80559 -1.74282 0
M  V30 3880 O 357.549 1.2436 -2.38302 0
M  V30 3881 C 355.82 -1.01521 -3.42678 0
M  V30 3882 S 357.379 -0.802927 -4.31391 0
M  V30 3883 H 354.197 -0.236452 -0.670531 0
M  V30 3884 H 356.799 -1.25048 -1.50277 0
M  V30 3885 H 355.503 -2.06769 -3.54506 0
M  V30 3886 H 355.034 -0.400648 -3.91355 0
M  V30 3887 H 357.049 0.317256 -4.95185 0
M  V30 3888 N 356.222 1.38976 -0.743202 0
M  V30 3889 C 357.468 2.0064 -0.295189 0
M  V30 3890 C 357.801 1.5885 1.11716 0
M  V30 3891 O 357.076 0.821181 1.76315 0
M  V30 3892 C 357.359 3.578 -0.406318 0
M  V30 3893 C 357.212 4.09586 -1.85903 0
M  V30 3894 C 358.531 4.39616 0.206439 0
M  V30 3895 H 355.65 0.728935 -0.108733 0
M  V30 3896 H 358.292 1.65067 -0.940897 0
M  V30 3897 H 356.442 3.88235 0.143419 0
M  V30 3898 H 358.114 3.89837 -2.46627 0
M  V30 3899 H 356.357 3.6284 -2.3776 0
M  V30 3900 H 357.028 5.18708 -1.888 0
M  V30 3901 H 359.504 4.15273 -0.262283 0
M  V30 3902 H 358.38 5.48812 0.0983819 0
M  V30 3903 H 358.641 4.22754 1.2935 0
M  V30 3904 N 357.7 0.491464 1.49741 0
M  V30 3905 C 358.63 -0.28154 2.31796 0
M  V30 3906 C 359.611 -0.971473 1.3963 0
M  V30 3907 O 360.796 -0.964719 1.68543 0
M  V30 3908 C 357.926 -1.35203 3.19902 0
M  V30 3909 C 356.88 -0.782529 4.20786 0
M  V30 3910 C 356.206 -1.95283 4.97764 0
M  V30 3911 C 357.506 0.21999 5.21837 0
M  V30 3912 H 359.2 0.403355 2.96671 0
M  V30 3913 H 356.746 0.195425 1.42668 0
M  V30 3914 H 358.699 -1.90045 3.76113 0
M  V30 3915 H 357.423 -2.06598 2.52953 0
M  V30 3916 H 356.082 -0.255928 3.65706 0
M  V30 3917 H 355.73 -2.65423 4.2727 0
M  V30 3918 H 355.43 -1.57789 5.66018 0
M  V30 3919 H 356.954 -2.50577 5.56816 0
M  V30 3920 H 358.368 -0.23996 5.72798 0
M  V30 3921 H 356.765 0.51026 5.97927 0
M  V30 3922 H 357.835 1.13911 4.7133 0
M  V30 3923 N 359.178 -1.55987 0.224894 0
M  V30 3924 C 360.427 -1.97566 -0.406273 0
M  V30 3925 C 360.74 -1.11569 -1.6066 0
M  V30 3926 O 361.946 -1.43062 -2.3075 0
M  V30 3927 C 360.402 -3.51474 -0.774207 0
M  V30 3928 C 360.01 -4.46179 0.403496 0
M  V30 3929 C 361.754 -4.01758 -1.37079 0
M  V30 3930 C 359.661 -5.91399 0.0129412 0
M  V30 3931 H 358.591 -0.737777 -0.155565 0
M  V30 3932 H 361.242 -1.80659 0.321635 0
M  V30 3933 H 359.624 -3.63994 -1.55963 0
M  V30 3934 H 360.798 -4.45409 1.18101 0
M  V30 3935 H 359.113 -4.06255 0.913536 0
M  V30 3936 H 361.71 -5.07756 -1.67596 0
M  V30 3937 H 362.053 -3.47805 -2.28773 0
M  V30 3938 H 362.586 -3.92475 -0.648733 0
M  V30 3939 H 359.325 -6.49341 0.896451 0
M  V30 3940 H 358.845 -5.95356 -0.728821 0
M  V30 3941 H 360.524 -6.45683 -0.412582 0
M  V30 3942 N 360.656 0.0484629 -1.57525 0
M  V30 3943 C 361.881 0.759177 -1.93006 0
M  V30 3944 C 362.306 1.69125 -0.823317 0
M  V30 3945 O 361.664 1.79931 0.222364 0
M  V30 3946 C 361.712 1.50899 -3.27509 0
M  V30 3947 O 360.816 2.62112 -3.18388 0
M  V30 3948 H 360.157 0.205564 -0.631379 0
M  V30 3949 H 362.687 0.00972959 -2.04598 0
M  V30 3950 H 362.697 1.88317 -3.6194 0
M  V30 3951 H 361.372 0.825269 -4.0763 0
M  V30 3952 H 359.949 2.27379 -2.95556 0
M  V30 3953 N 362.134 1.5431 0.320358 0
M  V30 3954 C 363.097 1.83195 1.3774 0
M  V30 3955 C 364.097 0.703906 1.44575 0
M  V30 3956 O 365.287 0.972214 1.44546 0
M  V30 3957 C 362.419 1.99487 2.76438 0
M  V30 3958 H 363.612 2.77642 1.1338 0
M  V30 3959 H 361.165 1.46076 0.556012 0
M  V30 3960 H 361.9 1.07262 3.06048 0
M  V30 3961 H 361.685 2.81575 2.7287 0
M  V30 3962 H 363.175 2.23271 3.52902 0
M  V30 3963 N 363.613 -0.582584 1.46437 0
M  V30 3964 C 364.543 -1.70187 1.59871 0
M  V30 3965 C 365.524 -1.64066 0.449042 0
M  V30 3966 O 366.709 -1.82081 0.6753 0
M  V30 3967 C 363.839 -3.08827 1.58881 0
M  V30 3968 C 362.793 -3.29779 2.72819 0
M  V30 3969 C 362.119 -4.68947 2.5689 0
M  V30 3970 C 363.419 -3.17601 4.1464 0
M  V30 3971 H 365.113 -1.592 2.53566 0
M  V30 3972 H 362.659 -0.764472 1.22032 0
M  V30 3973 H 364.612 -3.86951 1.66873 0
M  V30 3974 H 363.336 -3.20713 0.617306 0
M  V30 3975 H 361.995 -2.54054 2.64296 0
M  V30 3976 H 361.643 -4.77599 1.57823 0
M  V30 3977 H 361.343 -4.83919 3.33312 0
M  V30 3978 H 362.867 -5.4924 2.66773 0
M  V30 3979 H 364.281 -3.8557 4.24274 0
M  V30 3980 H 362.678 -3.44094 4.9165 0
M  V30 3981 H 363.748 -2.14681 4.34788 0
M  V30 3982 N 365.091 -1.34144 -0.827227 0
M  V30 3983 C 366.054 -1.25264 -1.91942 0
M  V30 3984 C 367.054 -0.168866 -1.59911 0
M  V30 3985 O 368.244 -0.421198 -1.69031 0
M  V30 3986 C 365.376 -0.932952 -3.27885 0
M  V30 3987 H 366.569 -2.22357 -2.0124 0
M  V30 3988 H 364.122 -1.1837 -1.0207 0
M  V30 3989 H 364.857 0.0349917 -3.24281 0
M  V30 3990 H 364.642 -1.71682 -3.52516 0
M  V30 3991 H 366.132 -0.895874 -4.07877 0
M  V30 3992 N 366.569 1.04691 -1.17803 0
M  V30 3993 C 367.499 2.14494 -0.92275 0
M  V30 3994 C 368.48 1.69546 0.137179 0
M  V30 3995 O 369.665 1.94195 -0.0141108 0
M  V30 3996 C 366.795 3.44491 -0.440803 0
M  V30 3997 C 365.749 4.03031 -1.4405 0
M  V30 3998 C 365.075 5.28432 -0.81631 0
M  V30 3999 C 366.375 4.39932 -2.81527 0
M  V30 4000 H 368.069 2.36107 -1.84103 0
M  V30 4001 H 365.615 1.1347 -0.886599 0
M  V30 4002 H 367.568 4.2066 -0.249602 0
M  V30 4003 H 366.292 3.22546 0.513025 0
M  V30 4004 H 364.951 3.28937 -1.61853 0
M  V30 4005 H 364.599 5.02792 0.144511 0
M  V30 4006 H 364.299 5.68559 -1.48371 0
M  V30 4007 H 365.823 6.07284 -0.635496 0
M  V30 4008 H 367.237 5.07113 -2.67412 0
M  V30 4009 H 365.634 4.9109 -3.44892 0
M  V30 4010 H 366.704 3.50045 -3.35554 0
M  V30 4011 N 368.047 0.979072 1.23499 0
M  V30 4012 C 368.977 0.537606 2.27227 0
M  V30 4013 C 369.958 -0.428539 1.64613 0
M  V30 4014 O 371.143 -0.322191 1.91509 0
M  V30 4015 C 368.273 -0.162052 3.46922 0
M  V30 4016 C 367.227 0.721242 4.21879 0
M  V30 4017 C 366.553 -0.110555 5.34586 0
M  V30 4018 C 367.853 2.01141 4.82016 0
M  V30 4019 H 369.547 1.40462 2.64406 0
M  V30 4020 H 367.093 0.67684 1.27102 0
M  V30 4021 H 369.046 -0.482192 4.18632 0
M  V30 4022 H 367.77 -1.06351 3.08799 0
M  V30 4023 H 366.429 1.02482 3.51984 0
M  V30 4024 H 366.077 -1.0125 4.92704 0
M  V30 4025 H 365.777 0.477325 5.85658 0
M  V30 4026 H 367.301 -0.425107 6.09118 0
M  V30 4027 H 368.715 1.75612 5.45741 0
M  V30 4028 H 367.112 2.54695 5.43369 0
M  V30 4029 H 368.182 2.69909 4.02836 0
M  V30 4030 N 369.525 -1.3858 0.750561 0
M  V30 4031 C 370.771 -2.00481 0.305825 0
M  V30 4032 C 371.104 -1.5944 -1.10872 0
M  V30 4033 O 370.379 -0.83052 -1.75877 0
M  V30 4034 C 370.662 -3.5758 0.425287 0
M  V30 4035 C 370.515 -4.08594 1.88072 0
M  V30 4036 C 371.834 -4.39719 -0.183122 0
M  V30 4037 H 368.953 -0.728348 0.112598 0
M  V30 4038 H 371.595 -1.64566 0.949638 0
M  V30 4039 H 369.745 -3.88306 -0.122828 0
M  V30 4040 H 371.417 -3.88523 2.48691 0
M  V30 4041 H 369.66 -3.61574 2.39681 0
M  V30 4042 H 370.331 -5.177 1.91548 0
M  V30 4043 H 372.807 -4.15128 0.284303 0
M  V30 4044 H 371.683 -5.48856 -0.0692757 0
M  V30 4045 H 371.944 -4.23434 -1.27106 0
M  V30 4046 N 371.003 -0.499398 -1.49478 0
M  V30 4047 C 372.25 0.0456899 -2.02448 0
M  V30 4048 C 372.578 1.37142 -1.37921 0
M  V30 4049 O 371.833 1.89111 -0.503544 0
M  V30 4050 C 372.132 0.248424 -3.56536 0
M  V30 4051 C 371.798 -0.999107 -4.39692 0
M  V30 4052 C 370.46 -1.34108 -4.62135 0
M  V30 4053 C 372.812 -1.82842 -4.88076 0
M  V30 4054 C 370.14 -2.51191 -5.30208 0
M  V30 4055 C 372.492 -2.99076 -5.57437 0
M  V30 4056 C 371.156 -3.33655 -5.78127 0
M  V30 4057 H 370.426 0.0167191 -0.740811 0
M  V30 4058 H 373.073 -0.65923 -1.79795 0
M  V30 4059 H 371.378 1.03586 -3.77859 0
M  V30 4060 H 373.075 0.684605 -3.95113 0
M  V30 4061 H 369.665 -0.722729 -4.22463 0
M  V30 4062 H 373.849 -1.57737 -4.70566 0
M  V30 4063 H 369.105 -2.78221 -5.44429 0
M  V30 4064 H 373.279 -3.63664 -5.93904 0
M  V30 4065 H 370.906 -4.24483 -6.30649 0
M  V30 4066 N 372.481 1.55866 -0.233164 0
M  V30 4067 C 373.411 2.23783 0.666599 0
M  V30 4068 C 374.392 1.21343 1.19205 0
M  V30 4069 O 375.577 1.4996 1.23392 0
M  V30 4070 C 372.707 2.92671 1.86978 0
M  V30 4071 C 371.661 4.01682 1.47768 0
M  V30 4072 C 370.987 4.57926 2.76058 0
M  V30 4073 C 372.287 5.18126 0.658993 0
M  V30 4074 H 373.981 2.99232 0.100306 0
M  V30 4075 H 371.527 1.43924 0.046804 0
M  V30 4076 H 373.48 3.3888 2.50476 0
M  V30 4077 H 372.204 2.14688 2.46123 0
M  V30 4078 H 370.863 3.56222 0.866106 0
M  V30 4079 H 370.511 3.76659 3.33372 0
M  V30 4080 H 370.211 5.31505 2.50552 0
M  V30 4081 H 371.735 5.06859 3.40479 0
M  V30 4082 H 373.149 5.60644 1.19795 0
M  V30 4083 H 371.546 5.98009 0.500552 0
M  V30 4084 H 372.616 4.83763 -0.331856 0
M  V30 4085 N 373.959 -0.0401083 1.57549 0
M  V30 4086 C 374.889 -1.04384 2.08869 0
M  V30 4087 C 375.87 -1.38407 0.988817 0
M  V30 4088 O 377.055 -1.47483 1.26342 0
M  V30 4089 C 374.185 -2.34808 2.55895 0
M  V30 4090 C 373.139 -2.15057 3.70047 0
M  V30 4091 C 372.465 -3.51145 4.03239 0
M  V30 4092 C 373.765 -1.54576 4.98902 0
M  V30 4093 H 375.459 -0.616666 2.92981 0
M  V30 4094 H 373.005 -0.295184 1.40942 0
M  V30 4095 H 374.958 -3.05346 2.90417 0
M  V30 4096 H 373.682 -2.79565 1.68853 0
M  V30 4097 H 372.341 -1.46954 3.35857 0
M  V30 4098 H 371.989 -3.93529 3.13279 0
M  V30 4099 H 371.689 -3.38758 4.80122 0
M  V30 4100 H 373.213 -4.23062 4.40285 0
M  V30 4101 H 374.627 -2.15017 5.31451 0
M  V30 4102 H 373.024 -1.52796 5.80322 0
M  V30 4103 H 374.094 -0.51039 4.82206 0
M  V30 4104 N 375.437 -1.54477 -0.31217 0
M  V30 4105 C 376.848 -1.64344 -0.885891 0
M  V30 4106 C 377.199 -0.54485 -1.88483 0
M  V30 4107 O 376.324 0.320387 -2.14015 0
M  V30 4108 C 376.919 -2.97908 -1.61357 0
M  V30 4109 C 375.478 -3.09933 -2.13585 0
M  V30 4110 C 374.625 -2.59971 -0.964897 0
M  V30 4111 H 377.576 -1.58448 -0.0894528 0
M  V30 4112 H 377.597 -2.88706 -2.47848 0
M  V30 4113 H 377.109 -3.77845 -0.886277 0
M  V30 4114 H 375.21 -2.34694 -2.89395 0
M  V30 4115 H 375.323 -4.15916 -2.37804 0
M  V30 4116 H 373.687 -2.16147 -1.34731 0
M  V30 4117 H 374.47 -3.42376 -0.251742 0
M  V30 4118 N 376.915 0.57481 -1.46744 0
M  V30 4119 C 377.878 1.66533 -1.57478 0
M  V30 4120 C 378.878 1.54338 -0.451263 0
M  V30 4121 O 380.068 1.58814 -0.715813 0
M  V30 4122 C 377.2 3.05999 -1.50259 0
M  V30 4123 H 378.393 1.58372 -2.54673 0
M  V30 4124 H 375.946 0.793301 -1.34672 0
M  V30 4125 H 376.681 3.19709 -0.543725 0
M  V30 4126 H 376.466 3.16259 -2.31781 0
M  V30 4127 H 377.956 3.8537 -1.60872 0
M  V30 4128 N 378.394 1.34581 0.820102 0
M  V30 4129 C 379.671 1.17675 1.56244 0
M  V30 4130 C 380.051 -0.249541 2.0962 0
M  V30 4131 O 379.399 -1.25125 1.91196 0
M  V30 4132 C 379.609 2.23364 2.6816 0
M  V30 4133 C 380.957 2.58485 3.36854 0
M  V30 4134 O 381.981 2.22175 2.78418 0
M  V30 4135 O 380.84 3.20868 4.42386 0
M  V30 4136 H 377.934 0.456333 0.689702 0
M  V30 4137 H 380.48 1.46222 0.861231 0
M  V30 4138 H 379.252 3.19087 2.26493 0
M  V30 4139 H 378.875 1.96009 3.45928 0
M  V30 4140 N 379.872 -1.04064 1.18357 0
M  V30 4141 C 381.097 -1.81454 1.00445 0
M  V30 4142 C 381.522 -1.82823 -0.442423 0
M  V30 4143 O 380.88 -1.24555 -1.31741 0
M  V30 4144 C 380.928 -3.24925 1.56384 0
M  V30 4145 O 380.032 -4.04856 0.785209 0
M  V30 4146 H 379.373 -0.560604 0.355835 0
M  V30 4147 H 381.903 -1.31059 1.57114 0
M  V30 4148 H 381.913 -3.75702 1.59097 0
M  V30 4149 H 380.588 -3.23244 2.61699 0
M  V30 4150 H 379.165 -3.63537 0.830399 0
M  V30 4151 N 381.35 -0.985608 -1.22978 0
M  V30 4152 C 382.598 -0.656087 -1.91154 0
M  V30 4153 C 382.919 0.813561 -1.77218 0
M  V30 4154 O 382.189 1.58244 -1.1548 0
M  V30 4155 H 380.769 -0.239674 -0.707506 0
M  V30 4156 H 383.431 -1.25054 -1.49491 0
M  V30 4157 H 382.527 -0.912253 -2.9847 0
M  V30 4158 N 382.828 1.3818 -0.7579 0
M  V30 4159 C 383.738 2.3421 -0.135247 0
M  V30 4160 C 384.754 1.59487 0.695683 0
M  V30 4161 O 385.93 1.91657 0.618832 0
M  V30 4162 C 382.995 3.3862 0.744139 0
M  V30 4163 C 382.056 4.2918 -0.101658 0
M  V30 4164 C 381.289 5.28603 0.735851 0
M  V30 4165 O 381.512 5.35166 1.97366 0
M  V30 4166 O 380.446 6.01707 0.152372 0
M  V30 4167 H 384.272 2.8916 -0.928436 0
M  V30 4168 H 381.857 1.40101 -0.518855 0
M  V30 4169 H 383.739 4.02539 1.2466 0
M  V30 4170 H 382.414 2.86019 1.51575 0
M  V30 4171 H 381.321 3.68407 -0.650167 0
M  V30 4172 H 382.654 4.85048 -0.836024 0
M  V30 4173 N 384.306 0.507319 1.49211 0
M  V30 4174 C 385.253 -0.267728 2.29242 0
M  V30 4175 C 386.223 -0.954609 1.35928 0
M  V30 4176 O 387.408 -0.960046 1.64887 0
M  V30 4177 C 384.548 -1.32243 3.18756 0
M  V30 4178 C 383.661 -0.64669 4.27132 0
M  V30 4179 C 382.796 -1.68238 5.03855 0
M  V30 4180 C 381.835 -0.98885 6.0406 0
M  V30 4181 N 380.972 -1.96903 6.73924 0
M  V30 4182 H 385.812 0.420968 2.95012 0
M  V30 4183 H 383.349 0.219443 1.45454 0
M  V30 4184 H 385.307 -1.94599 3.69036 0
M  V30 4185 H 383.937 -1.97981 2.54958 0
M  V30 4186 H 382.989 0.0902926 3.80293 0
M  V30 4187 H 384.301 -0.101058 4.98698 0
M  V30 4188 H 383.455 -2.38081 5.58034 0
M  V30 4189 H 382.194 -2.26187 4.32077 0
M  V30 4190 H 381.199 -0.276222 5.49106 0
M  V30 4191 H 382.424 -0.415767 6.77826 0
M  V30 4192 H 380.37 -2.53803 6.04913 0
M  V30 4193 H 380.287 -1.47423 7.41487 0
M  V30 4194 H 381.555 -2.66015 7.32705 0
M  V30 4195 N 385.784 -1.5574 0.241426 0
M  V30 4196 C 387.033 -1.97986 -0.385295 0
M  V30 4197 C 387.346 -1.13267 -1.59468 0
M  V30 4198 O 388.552 -1.45501 -2.2922 0
M  V30 4199 C 387.008 -3.52275 -0.736884 0
M  V30 4200 C 386.616 -4.45726 0.450796 0
M  V30 4201 C 388.36 -4.03189 -1.3281 0
M  V30 4202 C 386.267 -5.91352 0.0756662 0
M  V30 4203 H 385.197 -0.739386 -0.147731 0
M  V30 4204 H 387.848 -1.80308 0.340779 0
M  V30 4205 H 386.23 -3.65628 -1.52094 0
M  V30 4206 H 387.404 -4.44131 1.22819 0
M  V30 4207 H 385.719 -4.05264 0.956573 0
M  V30 4208 H 388.316 -5.09505 -1.62201 0
M  V30 4209 H 388.659 -3.50212 -2.25071 0
M  V30 4210 H 389.192 -3.93141 -0.607069 0
M  V30 4211 H 385.931 -6.48354 0.965272 0
M  V30 4212 H 385.451 -5.96095 -0.665635 0
M  V30 4213 H 387.13 -6.46084 -0.344075 0
M  V30 4214 N 387.262 0.0317525 -1.57568 0
M  V30 4215 C 388.487 0.738664 -1.938 0
M  V30 4216 C 388.912 1.68242 -0.841208 0
M  V30 4217 O 388.27 1.80157 0.203267 0
M  V30 4218 C 388.318 1.47417 -3.29091 0
M  V30 4219 O 387.422 2.5872 -3.2115 0
M  V30 4220 H 386.763 0.198856 -0.633524 0
M  V30 4221 H 389.293 -0.0119713 -2.04596 0
M  V30 4222 H 389.303 1.84468 -3.63917 0
M  V30 4223 H 387.978 0.781988 -4.08482 0
M  V30 4224 H 386.555 2.24231 -2.97951 0
M  V30 4225 N 388.74 1.54641 0.303973 0
M  V30 4226 C 389.67 1.88386 1.3796 0
M  V30 4227 C 390.651 0.742485 1.5304 0
M  V30 4228 O 391.836 0.997959 1.66597 0
M  V30 4229 C 388.966 2.12854 2.74427 0
M  V30 4230 C 387.92 3.28702 2.74115 0
M  V30 4231 C 387.246 3.38582 4.13844 0
M  V30 4232 C 388.546 4.65881 2.3612 0
M  V30 4233 H 390.24 2.78474 1.09966 0
M  V30 4234 H 387.786 1.33988 0.527556 0
M  V30 4235 H 389.739 2.35047 3.49758 0
M  V30 4236 H 388.463 1.19535 3.03939 0
M  V30 4237 H 387.122 3.06428 2.0124 0
M  V30 4238 H 386.77 2.42784 4.40528 0
M  V30 4239 H 386.47 4.16453 4.14537 0
M  V30 4240 H 387.994 3.63031 4.90959 0
M  V30 4241 H 389.408 4.87823 3.01167 0
M  V30 4242 H 387.805 5.46444 2.48031 0
M  V30 4243 H 388.875 4.66799 1.3125 0
M  V30 4244 N 390.218 -0.567019 1.47046 0
M  V30 4245 C 391.466 -1.322 1.52864 0
M  V30 4246 C 391.787 -1.94088 0.188388 0
M  V30 4247 O 391.057 -1.7941 -0.786693 0
M  V30 4248 H 389.637 -0.490894 0.563056 0
M  V30 4249 H 392.299 -0.662879 1.83281 0
M  V30 4250 H 391.395 -2.12062 2.2899 0
M  V30 4251 N 391.696 -1.35014 -0.812953 0
M  V30 4252 C 392.945 -1.27269 -1.56479 0
M  V30 4253 C 393.258 0.152771 -1.95002 0
M  V30 4254 O 394.464 0.352451 -2.69203 0
M  V30 4255 C 392.92 -2.23159 -2.82362 0
M  V30 4256 C 392.528 -3.71016 -2.511 0
M  V30 4257 C 394.272 -2.24342 -3.60376 0
M  V30 4258 C 392.179 -4.58746 -3.73237 0
M  V30 4259 H 391.109 -0.472829 -0.587324 0
M  V30 4260 H 393.76 -1.6024 -0.894171 0
M  V30 4261 H 392.142 -1.83151 -3.51101 0
M  V30 4262 H 393.316 -4.1962 -1.90409 0
M  V30 4263 H 391.631 -3.72378 -1.86343 0
M  V30 4264 H 394.228 -2.87107 -4.51081 0
M  V30 4265 H 394.571 -1.24542 -3.97234 0
M  V30 4266 H 395.104 -2.62846 -2.98591 0
M  V30 4267 H 391.843 -5.59521 -3.41492 0
M  V30 4268 H 391.363 -4.14871 -4.33176 0
M  V30 4269 H 393.042 -4.73852 -4.40537 0
M  V30 4270 N 393.175 1.03435 -1.18907 0
M  V30 4271 C 394.403 1.80381 -1.01342 0
M  V30 4272 C 394.818 1.83649 0.438005 0
M  V30 4273 O 394.175 1.27655 1.30424 0
M  V30 4274 C 394.226 3.25689 -1.56873 0
M  V30 4275 O 393.947 3.22673 -2.96334 0
M  V30 4276 C 395.448 4.19255 -1.44014 0
M  V30 4277 H 392.668 0.56784 -0.35749 0
M  V30 4278 H 395.212 1.30317 -1.576 0
M  V30 4279 H 393.367 3.72962 -1.04777 0
M  V30 4280 H 393.781 4.13748 -3.22355 0
M  V30 4281 H 395.255 5.19123 -1.87657 0
M  V30 4282 H 395.732 4.37467 -0.389815 0
M  V30 4283 H 396.338 3.77851 -1.95214 0
M  V30 4284 N 394.653 0.992116 1.22453 0
M  V30 4285 C 395.899 0.668523 1.91464 0
M  V30 4286 C 396.232 -0.797313 1.77078 0
M  V30 4287 O 395.507 -1.5765 1.13916 0
M  V30 4288 C 395.79 1.07424 3.43703 0
M  V30 4289 C 395.643 2.59857 3.67143 0
M  V30 4290 C 396.962 0.626891 4.35612 0
M  V30 4291 H 394.081 0.244341 0.695318 0
M  V30 4292 H 396.723 1.2355 1.44345 0
M  V30 4293 H 394.873 0.591816 3.83966 0
M  V30 4294 H 396.545 3.15764 3.3629 0
M  V30 4295 H 394.788 3.01961 3.11451 0
M  V30 4296 H 395.459 2.83296 4.73759 0
M  V30 4297 H 397.935 1.04125 4.02861 0
M  V30 4298 H 396.811 0.939076 5.40807 0
M  V30 4299 H 397.072 -0.472457 4.39568 0
M  V30 4300 N 396.131 -1.37776 0.765217 0
M  V30 4301 C 397.061 -2.32945 0.160953 0
M  V30 4302 C 398.042 -1.55454 -0.690516 0
M  V30 4303 O 399.227 -1.83721 -0.629318 0
M  V30 4304 C 396.357 -3.39669 -0.724031 0
M  V30 4305 C 395.311 -4.27992 0.0256173 0
M  V30 4306 C 394.637 -5.25673 -0.978383 0
M  V30 4307 C 395.937 -5.08309 1.20082 0
M  V30 4308 H 397.631 -2.83728 0.955969 0
M  V30 4309 H 395.177 -1.36416 0.461149 0
M  V30 4310 H 397.13 -4.05219 -1.15652 0
M  V30 4311 H 395.854 -2.87396 -1.5515 0
M  V30 4312 H 394.513 -3.63964 0.438812 0
M  V30 4313 H 394.161 -4.69682 -1.80022 0
M  V30 4314 H 393.861 -5.85625 -0.481378 0
M  V30 4315 H 395.385 -5.94098 -1.40995 0
M  V30 4316 H 396.799 -5.67034 0.845307 0
M  V30 4317 H 395.196 -5.77554 1.62947 0
M  V30 4318 H 396.266 -4.41365 2.00811 0
M  V30 4319 N 397.609 -0.515225 -1.4894 0
M  V30 4320 C 398.539 0.244628 -2.32215 0
M  V30 4321 C 399.52 0.949136 -1.41157 0
M  V30 4322 O 400.705 0.937783 -1.70057 0
M  V30 4323 C 397.835 1.30096 -3.22013 0
M  V30 4324 C 396.789 0.715486 -4.21977 0
M  V30 4325 C 396.115 1.87339 -5.00808 0
M  V30 4326 C 397.415 -0.302982 -5.2142 0
M  V30 4327 H 399.109 -0.450501 -2.95991 0
M  V30 4328 H 396.655 -0.218098 -1.42339 0
M  V30 4329 H 398.608 1.84037 -3.79089 0
M  V30 4330 H 397.332 2.02547 -2.56207 0
M  V30 4331 H 395.991 0.197715 -3.66066 0
M  V30 4332 H 395.639 2.58592 -4.31438 0
M  V30 4333 H 395.339 1.48764 -5.68457 0
M  V30 4334 H 396.863 2.41686 -5.60732 0
M  V30 4335 H 398.277 0.148802 -5.73107 0
M  V30 4336 H 396.674 -0.60532 -5.97039 0
M  V30 4337 H 397.744 -1.21395 -4.69459 0
M  V30 4338 N 399.087 1.5561 -0.249682 0
M  V30 4339 C 400.312 2.03865 0.381305 0
M  V30 4340 C 400.737 1.12769 1.50548 0
M  V30 4341 O 400.095 0.121189 1.80895 0
M  V30 4342 C 400.143 3.50101 0.863816 0
M  V30 4343 O 399.247 3.62132 1.97318 0
M  V30 4344 H 398.588 0.658827 0.0827194 0
M  V30 4345 H 401.118 2.01105 -0.376552 0
M  V30 4346 H 401.128 3.90975 1.1663 0
M  V30 4347 H 399.803 4.1588 0.0411816 0
M  V30 4348 H 398.38 3.33155 1.67517 0
M  V30 4349 N 400.565 -0.0233959 1.57583 0
M  V30 4350 C 401.495 -1.02162 2.09965 0
M  V30 4351 C 402.476 -1.3735 1.00344 0
M  V30 4352 O 403.661 -1.46135 1.27899 0
M  V30 4353 C 400.791 -2.32081 2.58371 0
M  V30 4354 C 399.745 -2.1112 3.72307 0
M  V30 4355 C 399.071 -3.46848 4.06941 0
M  V30 4356 C 400.371 -1.49276 5.00514 0
M  V30 4357 H 402.065 -0.585557 2.93618 0
M  V30 4358 H 399.611 -0.280218 1.41247 0
M  V30 4359 H 401.564 -3.02249 2.93639 0
M  V30 4360 H 400.288 -2.77758 1.71808 0
M  V30 4361 H 398.947 -1.43384 3.37397 0
M  V30 4362 H 398.595 -3.90184 3.17436 0
M  V30 4363 H 398.295 -3.33646 4.83688 0
M  V30 4364 H 399.819 -4.18369 4.44747 0
M  V30 4365 H 401.233 -2.09368 5.33702 0
M  V30 4366 H 399.63 -1.46632 5.8191 0
M  V30 4367 H 400.7 -0.459217 4.82721 0
M  V30 4368 N 402.043 -1.548 -0.295768 0
M  V30 4369 C 403.271 -1.78327 -1.04914 0
M  V30 4370 C 403.686 -0.545316 -1.80753 0
M  V30 4371 O 403.043 0.485013 -1.75937 0
M  V30 4372 C 403.094 -2.99418 -2.02561 0
M  V30 4373 O 402.815 -4.18431 -1.29798 0
M  V30 4374 C 404.316 -3.35375 -2.89895 0
M  V30 4375 H 401.536 -0.594618 -0.310918 0
M  V30 4376 H 404.08 -2.01763 -0.333454 0
M  V30 4377 H 402.235 -2.78175 -2.69624 0
M  V30 4378 H 402.649 -4.86736 -1.95419 0
M  V30 4379 H 404.123 -4.23332 -3.54251 0
M  V30 4380 H 404.6 -2.53761 -3.58472 0
M  V30 4381 H 405.206 -3.58796 -2.28355 0
M  V30 4382 N 403.521 0.559213 -1.47345 0
M  V30 4383 C 404.767 1.31843 -1.54095 0
M  V30 4384 C 405.1 1.93149 -0.201726 0
M  V30 4385 O 404.375 1.77759 0.789428 0
M  V30 4386 C 404.658 2.43006 -2.65744 0
M  V30 4387 C 404.511 1.86581 -4.09277 0
M  V30 4388 C 405.83 3.44943 -2.73318 0
M  V30 4389 H 402.949 0.478012 -0.560957 0
M  V30 4390 H 405.591 0.625977 -1.79392 0
M  V30 4391 H 403.741 3.02072 -2.44305 0
M  V30 4392 H 405.413 1.31792 -4.42073 0
M  V30 4393 H 403.656 1.17268 -4.17649 0
M  V30 4394 H 404.327 2.66933 -4.83168 0
M  V30 4395 H 406.803 2.95793 -2.92653 0
M  V30 4396 H 405.679 4.20153 -3.53218 0
M  V30 4397 H 405.94 4.03665 -1.80296 0
M  V30 4398 N 404.999 1.35443 0.805782 0
M  V30 4399 C 406.246 1.28761 1.56291 0
M  V30 4400 C 406.574 -0.137747 1.94012 0
M  V30 4401 O 405.829 -1.1032 1.61642 0
M  V30 4402 C 406.128 2.14045 2.86216 0
M  V30 4403 C 405.794 3.62826 2.67709 0
M  V30 4404 C 404.456 4.0338 2.6237 0
M  V30 4405 C 406.808 4.57227 2.50186 0
M  V30 4406 C 404.136 5.36501 2.37451 0
M  V30 4407 C 406.488 5.90547 2.26797 0
M  V30 4408 C 405.152 6.30245 2.1988 0
M  V30 4409 H 404.422 0.471171 0.571908 0
M  V30 4410 H 407.069 1.67347 0.930974 0
M  V30 4411 H 405.374 1.68342 3.53791 0
M  V30 4412 H 407.071 2.0621 3.43917 0
M  V30 4413 H 403.661 3.30644 2.72713 0
M  V30 4414 H 407.845 4.2678 2.53323 0
M  V30 4415 H 403.101 5.66259 2.30567 0
M  V30 4416 H 407.275 6.63274 2.12228 0
M  V30 4417 H 404.902 7.33328 2.00333 0
M  V30 4418 N 406.477 -1.02803 1.19454 0
M  V30 4419 C 407.41 -2.107 0.876396 0
M  V30 4420 C 408.388 -1.61741 -0.166897 0
M  V30 4421 O 409.572 -1.88451 -0.0430195 0
M  V30 4422 C 406.699 -3.37262 0.311758 0
M  V30 4423 C 405.745 -4.05093 1.33424 0
M  V30 4424 S 406.578 -4.50498 2.89503 0
M  V30 4425 C 407.734 -5.80277 2.34584 0
M  V30 4426 H 407.967 -2.37362 1.79016 0
M  V30 4427 H 405.5 -1.15755 1.02177 0
M  V30 4428 H 407.458 -4.10499 -0.00748752 0
M  V30 4429 H 406.119 -3.08693 -0.58032 0
M  V30 4430 H 405.312 -4.9611 0.888302 0
M  V30 4431 H 404.914 -3.3803 1.60037 0
M  V30 4432 H 407.206 -6.54873 1.73633 0
M  V30 4433 H 408.149 -6.29651 3.23952 0
M  V30 4434 H 408.557 -5.3599 1.77131 0
M  V30 4435 N 407.956 -0.998596 -1.21925 0
M  V30 4436 C 408.886 -0.573688 -2.26343 0
M  V30 4437 C 409.867 0.402296 -1.65274 0
M  V30 4438 O 411.052 0.291683 -1.91997 0
M  V30 4439 C 408.182 0.106839 -3.47136 0
M  V30 4440 C 407.136 -0.788269 -4.20678 0
M  V30 4441 C 406.462 0.0254927 -5.34694 0
M  V30 4442 C 407.762 -2.08784 -4.78755 0
M  V30 4443 H 409.456 -1.44651 -2.62138 0
M  V30 4444 H 407.002 -0.696975 -1.26009 0
M  V30 4445 H 408.955 0.415531 -4.19346 0
M  V30 4446 H 407.679 1.01424 -3.10452 0
M  V30 4447 H 406.338 -1.08069 -3.50309 0
M  V30 4448 H 405.986 0.933989 -4.94253 0
M  V30 4449 H 405.686 -0.570437 -5.84825 0
M  V30 4450 H 407.21 0.328147 -6.09718 0
M  V30 4451 H 408.624 -1.84272 -5.42878 0
M  V30 4452 H 407.021 -2.63307 -5.39249 0
M  V30 4453 H 408.091 -2.76284 -3.98491 0
M  V30 4454 N 409.434 1.37368 -0.772513 0
M  V30 4455 C 410.364 2.32856 -0.173304 0
M  V30 4456 C 411.345 1.55818 0.682262 0
M  V30 4457 O 412.53 1.84052 0.619566 0
M  V30 4458 C 409.66 3.40048 0.706007 0
M  V30 4459 C 408.614 4.27973 -0.0483144 0
M  V30 4460 C 407.94 5.26184 0.950491 0
M  V30 4461 C 409.24 5.07665 -1.22776 0
M  V30 4462 H 410.934 2.83217 -0.971002 0
M  V30 4463 H 408.48 1.3617 -0.468377 0
M  V30 4464 H 410.433 4.05827 1.13501 0
M  V30 4465 H 409.157 2.88214 1.53623 0
M  V30 4466 H 407.816 3.63726 -0.458107 0
M  V30 4467 H 407.464 4.7063 1.77529 0
M  V30 4468 H 407.164 5.85872 0.450314 0
M  V30 4469 H 408.688 5.94838 1.37842 0
M  V30 4470 H 410.102 5.66578 -0.875366 0
M  V30 4471 H 408.499 5.76681 -1.66007 0
M  V30 4472 H 409.569 4.40294 -2.03149 0
M  V30 4473 N 410.912 0.523116 1.48665 0
M  V30 4474 C 412.158 -0.0134963 2.02796 0
M  V30 4475 C 412.491 -1.34582 1.40004 0
M  V30 4476 O 411.766 -1.86756 0.543381 0
M  V30 4477 C 412.049 -0.14276 3.59817 0
M  V30 4478 C 411.902 1.21425 4.331 0
M  V30 4479 C 413.221 -0.872856 4.31357 0
M  V30 4480 H 410.34 -0.00343074 0.736992 0
M  V30 4481 H 412.982 0.678816 1.7746 0
M  V30 4482 H 411.132 -0.732401 3.81534 0
M  V30 4483 H 412.804 1.84447 4.2282 0
M  V30 4484 H 411.047 1.79791 3.94788 0
M  V30 4485 H 411.718 1.07687 5.41394 0
M  V30 4486 H 414.194 -0.372555 4.14429 0
M  V30 4487 H 413.07 -0.932185 5.40927 0
M  V30 4488 H 413.331 -1.92161 3.98154 0
M  V30 4489 N 412.39 -1.55475 0.257931 0
M  V30 4490 C 413.353 -2.20551 -0.623706 0
M  V30 4491 C 414.353 -1.17809 -1.09443 0
M  V30 4492 O 415.543 -1.42823 -0.997362 0
M  V30 4493 C 412.675 -2.85784 -1.8585 0
M  V30 4494 H 413.868 -2.99848 -0.0557743 0
M  V30 4495 H 411.421 -1.56298 0.0084422 0
M  V30 4496 H 412.156 -2.10453 -2.46739 0
M  V30 4497 H 411.941 -3.61057 -1.52907 0
M  V30 4498 H 413.431 -3.35553 -2.48584 0
M  V30 4499 N 413.868 0.0150385 -1.57593 0
M  V30 4500 C 414.778 1.02791 -2.10882 0
M  V30 4501 C 415.794 1.38702 -1.0506 0
M  V30 4502 O 416.97 1.47739 -1.36877 0
M  V30 4503 C 414.035 2.30568 -2.58919 0
M  V30 4504 C 413.096 2.01108 -3.79281 0
M  V30 4505 C 412.329 3.22794 -4.25018 0
M  V30 4506 O 412.552 4.33959 -3.70183 0
M  V30 4507 O 411.486 3.07672 -5.17322 0
M  V30 4508 H 415.312 0.604973 -2.97613 0
M  V30 4509 H 412.897 0.23292 -1.47573 0
M  V30 4510 H 414.779 3.05662 -2.90084 0
M  V30 4511 H 413.454 2.72129 -1.75293 0
M  V30 4512 H 412.361 1.23537 -3.53114 0
M  V30 4513 H 413.694 1.64394 -4.63935 0
M  V30 4514 N 415.346 1.54954 0.287554 0
M  V30 4515 C 416.595 1.74081 1.01877 0
M  V30 4516 C 416.908 0.541135 1.87966 0
M  V30 4517 O 418.114 0.614491 2.64455 0
M  V30 4518 C 416.57 3.08042 1.86113 0
M  V30 4519 C 416.178 4.35531 1.04961 0
M  V30 4520 C 417.922 3.36523 2.58752 0
M  V30 4521 C 415.829 5.60538 1.88551 0
M  V30 4522 H 414.759 0.64884 0.384087 0
M  V30 4523 H 417.41 1.81426 0.275101 0
M  V30 4524 H 415.792 2.94696 2.64519 0
M  V30 4525 H 416.966 4.59751 0.31074 0
M  V30 4526 H 415.281 4.14085 0.43843 0
M  V30 4527 H 417.878 4.27122 3.21668 0
M  V30 4528 H 418.221 2.56 3.28283 0
M  V30 4529 H 418.754 3.50901 1.87386 0
M  V30 4530 H 415.493 6.43767 1.23466 0
M  V30 4531 H 415.013 5.40483 2.60074 0
M  V30 4532 H 416.692 5.98297 2.46273 0
M  V30 4533 N 416.824 -0.551391 1.4764 0
M  V30 4534 C 417.757 -1.6738 1.5511 0
M  V30 4535 C 418.735 -1.5753 0.402856 0
M  V30 4536 O 419.919 -1.78307 0.611475 0
M  V30 4537 C 417.046 -3.05661 1.45908 0
M  V30 4538 C 416.092 -3.33938 2.65307 0
M  V30 4539 S 416.925 -3.22553 4.27457 0
M  V30 4540 C 418.081 -4.63317 4.20818 0
M  V30 4541 H 418.314 -1.6079 2.50068 0
M  V30 4542 H 415.847 -0.732674 1.35909 0
M  V30 4543 H 417.805 -3.8542 1.41286 0
M  V30 4544 H 416.466 -3.09711 0.523248 0
M  V30 4545 H 415.659 -4.34761 2.54948 0
M  V30 4546 H 415.261 -2.61809 2.67081 0
M  V30 4547 H 417.553 -5.54391 3.89431 0
M  V30 4548 H 418.496 -4.78732 5.21748 0
M  V30 4549 H 418.904 -4.41636 3.51593 0
M  V30 4550 N 418.302 -1.35869 -0.798587 0
M  V30 4551 C 419.713 -1.26498 -1.37314 0
M  V30 4552 C 420.064 0.0991899 -1.95949 0
M  V30 4553 O 419.189 1.0004 -1.91888 0
M  V30 4554 C 419.784 -2.29054 -2.49639 0
M  V30 4555 C 418.343 -2.234 -3.02935 0
M  V30 4556 C 417.49 -2.14329 -1.75949 0
M  V30 4557 H 420.441 -1.46881 -0.600971 0
M  V30 4558 H 420.462 -1.92166 -3.28409 0
M  V30 4559 H 419.974 -3.2833 -2.06933 0
M  V30 4560 H 418.075 -1.27562 -3.50084 0
M  V30 4561 H 418.188 -3.15703 -3.60372 0
M  V30 4562 H 416.552 -1.60435 -1.9782 0
M  V30 4563 H 417.335 -3.15477 -1.35384 0
M  V30 4564 N 419.78 1.02168 -1.19998 0
M  V30 4565 C 420.743 2.08765 -0.94604 0
M  V30 4566 C 421.743 1.60618 0.0763846 0
M  V30 4567 O 422.933 1.73472 -0.159135 0
M  V30 4568 C 420.065 3.38262 -0.423255 0
M  V30 4569 H 421.258 2.32726 -1.89153 0
M  V30 4570 H 418.811 1.1889 -1.01464 0
M  V30 4571 H 419.546 3.19974 0.527938 0
M  V30 4572 H 419.331 3.74532 -1.16053 0
M  V30 4573 H 420.821 4.16759 -0.264911 0
M  V30 4574 N 421.258 1.00505 1.21394 0
M  V30 4575 C 422.486 0.706609 1.9446 0
M  V30 4576 C 422.901 -0.73081 1.74082 0
M  V30 4577 O 422.258 -1.49446 1.04747 0
M  V30 4578 C 422.309 1.01824 3.46863 0
M  V30 4579 O 422.03 2.39919 3.66566 0
M  V30 4580 C 423.531 0.739216 4.37093 0
M  V30 4581 H 420.751 0.260394 0.618414 0
M  V30 4582 H 423.295 1.34311 1.54211 0
M  V30 4583 H 421.45 0.427343 3.85036 0
M  V30 4584 H 421.864 2.50784 4.6066 0
M  V30 4585 H 423.338 1.00744 5.42729 0
M  V30 4586 H 423.815 -0.326746 4.37983 0
M  V30 4587 H 424.421 1.31173 4.04566 0
M  V30 4588 N 422.737 -1.36956 0.779787 0
M  V30 4589 C 423.962 -2.04283 0.358224 0
M  V30 4590 C 424.387 -1.58422 -1.01411 0
M  V30 4591 O 423.745 -0.748179 -1.65142 0
M  V30 4592 C 423.793 -3.58152 0.419479 0
M  V30 4593 O 422.897 -4.08342 -0.577142 0
M  V30 4594 H 422.238 -0.645967 0.153698 0
M  V30 4595 H 424.768 -1.75108 1.05822 0
M  V30 4596 H 424.778 -4.07041 0.279636 0
M  V30 4597 H 423.453 -3.90886 1.42061 0
M  V30 4598 H 422.03 -3.70751 -0.399755 0
M  V30 4599 N 424.215 -0.530993 -1.48385 0
M  V30 4600 C 425.492 0.0671788 -1.95485 0
M  V30 4601 C 425.872 1.51191 -1.47324 0
M  V30 4602 O 425.22 2.17507 -0.700202 0
M  V30 4603 C 425.43 -0.0511206 -3.48963 0
M  V30 4604 C 426.778 0.107632 -4.24464 0
M  V30 4605 O 427.802 0.0226248 -3.56193 0
M  V30 4606 O 426.661 0.285972 -5.45751 0
M  V30 4607 H 423.755 0.0787365 -0.823243 0
M  V30 4608 H 426.301 -0.595662 -1.58902 0
M  V30 4609 H 425.073 -1.05747 -3.7674 0
M  V30 4610 H 424.696 0.650525 -3.92242 0
M  V30 4611 N 425.693 1.55336 -0.266172 0
M  V30 4612 C 426.918 2.04258 0.359661 0
M  V30 4613 C 427.343 1.14359 1.49344 0
M  V30 4614 O 426.701 0.140369 1.80756 0
M  V30 4615 C 426.749 3.50997 0.826635 0
M  V30 4616 O 425.853 3.64204 1.93466 0
M  V30 4617 H 425.194 0.659668 0.075727 0
M  V30 4618 H 427.724 2.00694 -0.39786 0
M  V30 4619 H 427.734 3.9219 1.12477 0
M  V30 4620 H 426.409 4.159 -0.00293032 0
M  V30 4621 H 424.986 3.34913 1.63974 0
M  V30 4622 N 427.171 -0.0066808 1.57599 0
M  V30 4623 C 428.417 -0.693947 1.90558 0
M  V30 4624 C 428.75 -1.73792 0.866594 0
M  V30 4625 O 428.025 -1.94156 -0.115548 0
M  V30 4626 C 428.308 -1.34317 3.34112 0
M  V30 4627 C 428.161 -0.311189 4.48722 0
M  V30 4628 C 429.48 -2.27116 3.7697 0
M  V30 4629 H 426.599 -0.250803 0.693013 0
M  V30 4630 H 429.241 0.043242 1.89951 0
M  V30 4631 H 427.391 -1.9715 3.3476 0
M  V30 4632 H 429.063 0.316944 4.6021 0
M  V30 4633 H 427.306 0.367253 4.32243 0
M  V30 4634 H 427.977 -0.804366 5.46108 0
M  V30 4635 H 430.453 -1.74306 3.77831 0
M  V30 4636 H 429.329 -2.69511 4.78179 0
M  V30 4637 H 429.59 -3.14743 3.10466 0
M  V30 4638 N 428.649 -1.55105 -0.279332 0
M  V30 4639 C 430.06 -1.66186 -0.850832 0
M  V30 4640 C 430.411 -0.584707 -1.87285 0
M  V30 4641 O 429.536 0.274919 -2.14647 0
M  V30 4642 C 430.131 -3.01264 -1.55001 0
M  V30 4643 C 428.69 -3.14394 -2.06963 0
M  V30 4644 C 427.837 -2.61959 -0.909536 0
M  V30 4645 H 430.788 -1.58602 -0.0558235 0
M  V30 4646 H 430.809 -2.93899 -2.41669 0
M  V30 4647 H 430.321 -3.7964 -0.805931 0
M  V30 4648 H 428.422 -2.4078 -2.84352 0
M  V30 4649 H 428.535 -4.20867 -2.28928 0
M  V30 4650 H 426.899 -2.18957 -1.30116 0
M  V30 4651 H 427.682 -3.42833 -0.179062 0
M  V30 4652 N 430.127 0.543554 -1.4793 0
M  V30 4653 C 431.057 1.65888 -1.64327 0
M  V30 4654 C 432.038 1.62818 -0.492383 0
M  V30 4655 O 433.223 1.80226 -0.723338 0
M  V30 4656 C 430.353 3.04506 -1.67013 0
M  V30 4657 C 429.307 3.2243 -2.81466 0
M  V30 4658 C 428.633 4.61972 -2.69233 0
M  V30 4659 C 429.933 3.06496 -4.22915 0
M  V30 4660 H 431.627 1.52421 -2.57698 0
M  V30 4661 H 429.173 0.731849 -1.24016 0
M  V30 4662 H 431.126 3.82391 -1.77074 0
M  V30 4663 H 429.85 3.18964 -0.70212 0
M  V30 4664 H 428.509 2.46957 -2.70938 0
M  V30 4665 H 428.157 4.73247 -1.7043 0
M  V30 4666 H 427.857 4.74911 -3.46025 0
M  V30 4667 H 429.381 5.41974 -2.81242 0
M  V30 4668 H 430.795 3.74186 -4.34348 0
M  V30 4669 H 429.192 3.30938 -5.006 0
M  V30 4670 H 430.262 2.03077 -4.40327 0
M  V30 4671 N 431.605 1.3629 0.791371 0
M  V30 4672 C 432.854 1.29742 1.54434 0
M  V30 4673 C 433.167 -0.121729 1.95221 0
M  V30 4674 O 434.373 -0.309579 2.69729 0
M  V30 4675 C 432.829 2.27623 2.78776 0
M  V30 4676 C 432.437 3.74963 2.45166 0
M  V30 4677 C 434.181 2.30047 3.56761 0
M  V30 4678 C 432.088 4.64626 3.65891 0
M  V30 4679 H 431.018 0.482113 0.579727 0
M  V30 4680 H 433.669 1.61642 0.868565 0
M  V30 4681 H 432.051 1.88714 3.48142 0
M  V30 4682 H 433.225 4.22596 1.83709 0
M  V30 4683 H 431.54 3.75295 1.80396 0
M  V30 4684 H 434.137 2.94247 4.46456 0
M  V30 4685 H 434.48 1.30846 3.95203 0
M  V30 4686 H 435.013 2.67563 2.94372 0
M  V30 4687 H 431.752 5.64883 3.32547 0
M  V30 4688 H 431.272 4.2171 4.26521 0
M  V30 4689 H 432.951 4.80801 4.32943 0
M  V30 4690 N 433.083 -1.0153 1.20538 0
M  V30 4691 C 434.046 -2.0826 0.957098 0
M  V30 4692 C 435.046 -1.60657 -0.0678655 0
M  V30 4693 O 436.236 -1.73385 0.168332 0
M  V30 4694 C 433.368 -3.38033 0.441188 0
M  V30 4695 H 434.561 -2.31719 1.90384 0
M  V30 4696 H 432.114 -1.1835 1.02093 0
M  V30 4697 H 432.849 -3.20249 -0.510961 0
M  V30 4698 H 432.634 -3.73911 1.18038 0
M  V30 4699 H 434.124 -4.16613 0.287009 0
M  V30 4700 N 434.561 -1.01147 -1.20859 0
M  V30 4701 C 435.493 -0.535546 -2.22855 0
M  V30 4702 C 436.506 0.379323 -1.58319 0
M  V30 4703 O 437.695 0.178489 -1.77605 0
M  V30 4704 C 434.795 0.240962 -3.38042 0
M  V30 4705 C 433.968 -0.674562 -4.32167 0
M  V30 4706 C 433.027 0.053467 -5.26173 0
M  V30 4707 O 432.053 -0.567339 -5.66366 0
M  V30 4708 N 433.255 1.32997 -5.65059 0
M  V30 4709 H 436.02 -1.41268 -2.64317 0
M  V30 4710 H 433.581 -0.888386 -1.35349 0
M  V30 4711 H 435.573 0.737115 -3.97931 0
M  V30 4712 H 434.143 1.01935 -2.95513 0
M  V30 4713 H 433.363 -1.35111 -3.70322 0
M  V30 4714 H 434.651 -1.2974 -4.91981 0
M  V30 4715 H 434.049 1.85536 -5.34409 0
M  V30 4716 H 432.606 1.77095 -6.2728 0
M  V30 4717 N 436.039 1.36541 -0.78704 0
M  V30 4718 C 437.269 2.03266 -0.369662 0
M  V30 4719 C 437.677 1.59481 1.01796 0
M  V30 4720 O 437.02 0.778612 1.66383 0
M  V30 4721 C 437.082 3.57779 -0.351371 0
M  V30 4722 C 436.746 4.24756 -1.68617 0
M  V30 4723 C 437.743 4.47811 -2.64124 0
M  V30 4724 C 435.428 4.62277 -1.96481 0
M  V30 4725 C 437.422 5.07464 -3.85693 0
M  V30 4726 C 435.109 5.21649 -3.18317 0
M  V30 4727 C 436.107 5.44182 -4.12741 0
M  V30 4728 O 435.795 6.02307 -5.32429 0
M  V30 4729 H 435.527 0.658977 -0.150751 0
M  V30 4730 H 438.081 1.75548 -1.0664 0
M  V30 4731 H 436.311 3.84606 0.401847 0
M  V30 4732 H 438 4.05879 0.0410147 0
M  V30 4733 H 438.766 4.19221 -2.43883 0
M  V30 4734 H 434.645 4.44065 -1.23805 0
M  V30 4735 H 438.189 5.24968 -4.59407 0
M  V30 4736 H 434.086 5.49664 -3.38437 0
M  V30 4737 H 434.854 6.20775 -5.33461 0
M  V30 4738 N 437.518 0.538854 1.48102 0
M  V30 4739 C 438.765 0.0080018 2.02498 0
M  V30 4740 C 439.093 -1.33437 1.41509 0
M  V30 4741 O 438.348 -1.87709 0.553507 0
M  V30 4742 C 438.647 -0.153808 3.57069 0
M  V30 4743 C 438.313 1.11533 4.36888 0
M  V30 4744 C 436.975 1.46314 4.58417 0
M  V30 4745 C 439.327 1.95718 4.83057 0
M  V30 4746 C 436.655 2.6516 5.23361 0
M  V30 4747 C 439.007 3.13751 5.49312 0
M  V30 4748 C 437.671 3.48866 5.69077 0
M  V30 4749 H 436.941 0.00292807 0.740994 0
M  V30 4750 H 439.588 0.706668 1.77984 0
M  V30 4751 H 437.893 -0.935309 3.80472 0
M  V30 4752 H 439.59 -0.579607 3.96789 0
M  V30 4753 H 436.18 0.834484 4.20398 0
M  V30 4754 H 440.364 1.70158 4.66219 0
M  V30 4755 H 435.62 2.92558 5.36861 0
M  V30 4756 H 439.794 3.79282 5.84053 0
M  V30 4757 H 437.421 4.41054 6.19173 0
M  V30 4758 N 438.996 -1.55193 0.274407 0
M  V30 4759 C 439.959 -2.212 -0.600279 0
M  V30 4760 C 440.959 -1.18963 -1.08187 0
M  V30 4761 O 442.149 -1.43873 -0.982158 0
M  V30 4762 C 439.281 -2.87739 -1.82809 0
M  V30 4763 H 440.474 -2.9989 -0.0239682 0
M  V30 4764 H 438.027 -1.5628 0.0250192 0
M  V30 4765 H 438.762 -2.13058 -2.44493 0
M  V30 4766 H 438.547 -3.62658 -1.49069 0
M  V30 4767 H 440.037 -3.38171 -2.45011 0
M  V30 4768 N 440.474 -0.00167713 -1.576 0
M  V30 4769 C 441.699 0.69739 -1.95323 0
M  V30 4770 C 442.124 1.6642 -0.876706 0
M  V30 4771 O 441.482 1.80548 0.165007 0
M  V30 4772 C 441.53 1.40403 -3.32144 0
M  V30 4773 O 440.634 2.5185 -3.26566 0
M  V30 4774 H 439.975 0.185373 -0.637599 0
M  V30 4775 H 442.505 -0.0553665 -2.04525 0
M  V30 4776 H 442.515 1.76707 -3.67748 0
M  V30 4777 H 441.19 0.695167 -4.10049 0
M  V30 4778 H 439.767 2.17861 -3.0264 0
M  V30 4779 N 441.952 1.55251 0.271103 0
M  V30 4780 C 443.18 1.79974 1.02064 0
M  V30 4781 C 443.595 0.574003 1.79863 0
M  V30 4782 O 442.952 -0.456962 1.76686 0
M  V30 4783 C 443.003 3.02603 1.97772 0
M  V30 4784 O 442.724 4.20443 1.23124 0
M  V30 4785 C 444.225 3.39944 2.84522 0
M  V30 4786 H 441.445 0.599489 0.301419 0
M  V30 4787 H 443.989 2.02268 0.301313 0
M  V30 4788 H 442.144 2.8243 2.65165 0
M  V30 4789 H 442.558 4.89783 1.87651 0
M  V30 4790 H 444.032 4.28915 3.47471 0
M  V30 4791 H 444.509 2.59432 3.54389 0
M  V30 4792 H 445.115 3.62383 2.22618 0
M  V30 4793 N 443.43 -0.535701 1.48216 0
M  V30 4794 C 444.363 -1.65726 1.56876 0
M  V30 4795 C 445.341 -1.57094 0.419542 0
M  V30 4796 O 446.525 -1.77648 0.630352 0
M  V30 4797 C 443.652 -3.04096 1.49142 0
M  V30 4798 C 442.698 -3.31105 2.68834 0
M  V30 4799 S 443.531 -3.18001 4.30854 0
M  V30 4800 C 444.687 -4.58828 4.25709 0
M  V30 4801 H 444.92 -1.58129 2.51759 0
M  V30 4802 H 442.453 -0.718218 1.36678 0
M  V30 4803 H 444.411 -3.839 1.45366 0
M  V30 4804 H 443.072 -3.09139 0.556067 0
M  V30 4805 H 442.265 -4.32033 2.59545 0
M  V30 4806 H 441.867 -2.58961 2.69843 0
M  V30 4807 H 444.159 -5.5023 3.95289 0
M  V30 4808 H 445.102 -4.73172 5.26796 0
M  V30 4809 H 445.51 -4.37883 3.56257 0
M  V30 4810 N 444.908 -1.36708 -0.784132 0
M  V30 4811 C 446.157 -1.30559 -1.53744 0
M  V30 4812 C 446.47 0.111374 -1.95283 0
M  V30 4813 O 447.676 0.29527 -2.6989 0
M  V30 4814 C 446.132 -2.29098 -2.77565 0
M  V30 4815 C 445.74 -3.76258 -2.43174 0
M  V30 4816 C 447.484 -2.31936 -3.55536 0
M  V30 4817 C 445.391 -4.6656 -3.63422 0
M  V30 4818 H 444.321 -0.48518 -0.577162 0
M  V30 4819 H 446.972 -1.62101 -0.859981 0
M  V30 4820 H 445.354 -1.90557 -3.47137 0
M  V30 4821 H 446.528 -4.23565 -1.81465 0
M  V30 4822 H 444.843 -3.76246 -1.78403 0
M  V30 4823 H 447.44 -2.9661 -4.44889 0
M  V30 4824 H 447.783 -1.3294 -3.94503 0
M  V30 4825 H 448.316 -2.6912 -2.92949 0
M  V30 4826 H 445.055 -5.66638 -3.29547 0
M  V30 4827 H 444.575 -4.23966 -4.24279 0
M  V30 4828 H 446.254 -4.8309 -4.30387 0
M  V30 4829 N 446.386 1.0089 -1.21074 0
M  V30 4830 C 447.635 1.74019 -1.01981 0
M  V30 4831 C 447.948 1.90408 0.447665 0
M  V30 4832 O 449.154 2.60707 0.757906 0
M  V30 4833 C 447.61 3.13026 -1.77603 0
M  V30 4834 C 447.218 3.04623 -3.28495 0
M  V30 4835 C 448.962 3.90312 -1.66904 0
M  V30 4836 C 446.869 4.38685 -3.96623 0
M  V30 4837 H 445.799 0.652422 -0.377971 0
M  V30 4838 H 448.45 1.12755 -1.44771 0
M  V30 4839 H 446.832 3.74878 -1.27604 0
M  V30 4840 H 448.006 2.52032 -3.85767 0
M  V30 4841 H 446.321 2.40827 -3.39693 0
M  V30 4842 H 448.918 4.8951 -2.15138 0
M  V30 4843 H 449.261 4.11558 -0.62658 0
M  V30 4844 H 449.794 3.35104 -2.14359 0
M  V30 4845 H 446.533 4.22641 -5.01054 0
M  V30 4846 H 446.053 4.91252 -3.4414 0
M  V30 4847 H 447.732 5.075 -4.01314 0
M  V30 4848 N 447.864 1.01787 1.20321 0
M  V30 4849 C 449.11 0.708985 1.90003 0
M  V30 4850 C 449.443 -0.759572 1.78729 0
M  V30 4851 O 448.718 -1.55198 1.17234 0
M  V30 4852 C 449.001 1.1469 3.41348 0
M  V30 4853 C 448.854 2.67586 3.61549 0
M  V30 4854 C 450.173 0.71915 4.34185 0
M  V30 4855 H 447.292 0.259034 0.689978 0
M  V30 4856 H 449.934 1.26584 1.41692 0
M  V30 4857 H 448.084 0.673128 3.82624 0
M  V30 4858 H 449.756 3.22826 3.29517 0
M  V30 4859 H 447.999 3.085 3.04976 0
M  V30 4860 H 448.67 2.93281 4.67643 0
M  V30 4861 H 451.146 1.12647 4.00562 0
M  V30 4862 H 450.022 1.05358 5.38694 0
M  V30 4863 H 450.283 -0.379111 4.40472 0
M  V30 4864 N 449.342 -1.36122 0.79427 0
M  V30 4865 C 450.59 -1.98718 0.368177 0
M  V30 4866 C 450.911 -1.63345 -1.06506 0
M  V30 4867 O 450.181 -0.909825 -1.73491 0
M  V30 4868 H 448.761 -0.735038 0.133146 0
M  V30 4869 H 451.423 -1.66239 1.01739 0
M  V30 4870 H 450.519 -3.08633 0.463923 0
M  V30 4871 N 450.82 -0.546701 -1.47814 0
M  V30 4872 C 451.75 0.195317 -2.32682 0
M  V30 4873 C 452.731 0.918981 -1.43139 0
M  V30 4874 O 453.916 0.901501 -1.72008 0
M  V30 4875 C 451.046 1.23237 -3.247 0
M  V30 4876 C 450 0.625818 -4.234 0
M  V30 4877 C 449.326 1.76674 -5.04669 0
M  V30 4878 C 450.626 -0.413515 -5.2066 0
M  V30 4879 H 452.32 -0.513184 -2.94969 0
M  V30 4880 H 449.866 -0.248241 -1.41844 0
M  V30 4881 H 451.819 1.75955 -3.82907 0
M  V30 4882 H 450.543 1.97067 -2.60446 0
M  V30 4883 H 449.202 0.120023 -3.66403 0
M  V30 4884 H 448.85 2.49383 -4.36826 0
M  V30 4885 H 448.55 1.36673 -5.71484 0
M  V30 4886 H 450.074 2.29738 -5.65732 0
M  V30 4887 H 451.488 0.0272042 -5.73294 0
M  V30 4888 H 449.885 -0.731825 -5.95621 0
M  V30 4889 H 450.955 -1.31325 -4.66778 0
M  V30 4890 N 452.299 1.55045 -0.282633 0
M  V30 4891 C 453.524 2.04628 0.337977 0
M  V30 4892 C 453.949 1.15937 1.48123 0
M  V30 4893 O 453.307 0.159532 1.80597 0
M  V30 4894 C 453.355 3.51854 0.78936 0
M  V30 4895 O 452.459 3.66236 1.89592 0
M  V30 4896 H 451.8 0.660434 0.0687261 0
M  V30 4897 H 454.33 2.00261 -0.419124 0
M  V30 4898 H 454.34 3.93361 1.08311 0
M  V30 4899 H 453.015 4.15873 -0.0470419 0
M  V30 4900 H 451.592 3.36633 1.60413 0
M  V30 4901 N 453.777 0.010035 1.57597 0
M  V30 4902 C 455.023 -0.673697 1.91283 0
M  V30 4903 C 455.356 -1.72863 0.884979 0
M  V30 4904 O 454.631 -1.94268 -0.0949487 0
M  V30 4905 C 454.914 -1.30766 3.35518 0
M  V30 4906 C 454.767 -0.263578 4.49027 0
M  V30 4907 C 456.086 -2.23105 3.79358 0
M  V30 4908 H 453.205 -0.243439 0.695634 0
M  V30 4909 H 455.847 0.0633864 1.89894 0
M  V30 4910 H 453.997 -1.93588 3.36832 0
M  V30 4911 H 455.669 0.365738 4.59848 0
M  V30 4912 H 453.912 0.413077 4.31829 0
M  V30 4913 H 454.583 -0.746398 5.4693 0
M  V30 4914 H 457.059 -1.70289 3.79659 0
M  V30 4915 H 455.935 -2.64424 4.81011 0
M  V30 4916 H 456.196 -3.11433 3.13787 0
M  V30 4917 N 455.255 -1.55392 -0.262866 0
M  V30 4918 C 456.501 -1.76737 -0.99458 0
M  V30 4919 C 456.834 -0.572453 -1.85571 0
M  V30 4920 O 456.109 0.429732 -1.89693 0
M  V30 4921 C 456.392 -3.07824 -1.8686 0
M  V30 4922 C 456.245 -4.3769 -1.03672 0
M  V30 4923 C 457.564 -3.35021 -2.85393 0
M  V30 4924 H 454.683 -0.643005 -0.360157 0
M  V30 4925 H 457.325 -1.88126 -0.266216 0
M  V30 4926 H 455.475 -2.98245 -2.48962 0
M  V30 4927 H 457.147 -4.59238 -0.43563 0
M  V30 4928 H 455.39 -4.32461 -0.340513 0
M  V30 4929 H 456.061 -5.25759 -1.6817 0
M  V30 4930 H 458.537 -3.44458 -2.33426 0
M  V30 4931 H 457.413 -4.27989 -3.43681 0
M  V30 4932 H 457.674 -2.55153 -3.61039 0
M  V30 4933 N 456.733 0.527833 -1.48498 0
M  V30 4934 C 457.979 1.28545 -1.56857 0
M  V30 4935 C 458.312 1.92678 -0.242651 0
M  V30 4936 O 457.587 1.79394 0.751545 0
M  V30 4937 C 457.87 2.37314 -2.70839 0
M  V30 4938 C 457.723 1.77858 -4.13142 0
M  V30 4939 C 459.042 3.39068 -2.80573 0
M  V30 4940 H 456.161 0.466006 -0.570971 0
M  V30 4941 H 458.803 0.587784 -1.8068 0
M  V30 4942 H 456.953 2.96821 -2.50658 0
M  V30 4943 H 458.625 1.22385 -4.44769 0
M  V30 4944 H 456.868 1.08383 -4.20042 0
M  V30 4945 H 457.539 2.56624 -4.88721 0
M  V30 4946 H 460.015 2.89518 -2.98862 0
M  V30 4947 H 458.891 4.12566 -3.6205 0
M  V30 4948 H 459.152 3.9975 -1.88818 0
M  V30 4949 N 458.211 1.37122 0.776871 0
M  V30 4950 C 459.439 1.3523 1.5659 0
M  V30 4951 C 459.854 -0.0635518 1.88693 0
M  V30 4952 O 459.211 -1.02394 1.51069 0
M  V30 4953 C 459.262 2.18583 2.8793 0
M  V30 4954 O 458.983 3.5465 2.57206 0
M  V30 4955 C 460.484 2.24612 3.82183 0
M  V30 4956 H 457.704 0.4634 0.485285 0
M  V30 4957 H 460.248 1.80392 0.963266 0
M  V30 4958 H 458.403 1.76943 3.4463 0
M  V30 4959 H 458.817 3.98286 3.41275 0
M  V30 4960 H 460.291 2.87267 4.71361 0
M  V30 4961 H 460.768 1.25309 4.20944 0
M  V30 4962 H 461.374 2.66543 3.31414 0
M  V30 4963 N 459.689 -1.00246 1.21608 0
M  V30 4964 C 460.935 -1.74319 1.03638 0
M  V30 4965 C 461.268 -1.89408 -0.428749 0
M  V30 4966 O 460.543 -1.43026 -1.3181 0
M  V30 4967 C 460.826 -3.15431 1.73711 0
M  V30 4968 C 460.679 -3.08049 3.27759 0
M  V30 4969 C 461.998 -4.14407 1.48173 0
M  V30 4970 H 459.117 -0.632741 0.377899 0
M  V30 4971 H 461.759 -1.16853 1.49818 0
M  V30 4972 H 459.909 -3.64493 1.34452 0
M  V30 4973 H 461.581 -2.66681 3.76403 0
M  V30 4974 H 459.824 -2.45088 3.57931 0
M  V30 4975 H 460.495 -4.07862 3.71958 0
M  V30 4976 H 462.971 -3.74061 1.82258 0
M  V30 4977 H 461.847 -5.11279 1.99713 0
M  V30 4978 H 462.108 -4.40174 0.412273 0
M  V30 4979 N 461.167 -1.02423 -1.1978 0
M  V30 4980 C 462.416 -0.713265 -1.88667 0
M  V30 4981 C 462.729 0.7609 -1.80193 0
M  V30 4982 O 463.935 1.18473 -2.44288 0
M  V30 4983 C 462.391 -1.22545 -3.38394 0
M  V30 4984 C 461.999 -2.72706 -3.55437 0
M  V30 4985 C 463.743 -0.990257 -4.12788 0
M  V30 4986 C 461.65 -3.17367 -4.99031 0
M  V30 4987 H 460.58 -0.263105 -0.706606 0
M  V30 4988 H 463.231 -1.23792 -1.35454 0
M  V30 4989 H 461.613 -0.628732 -3.90977 0
M  V30 4990 H 462.787 -3.37993 -3.13205 0
M  V30 4991 H 461.102 -2.94453 -2.94425 0
M  V30 4992 H 463.699 -1.29926 -5.18675 0
M  V30 4993 H 464.042 0.0730761 -4.16236 0
M  V30 4994 H 464.575 -1.55074 -3.66329 0
M  V30 4995 H 461.314 -4.23009 -5.00743 0
M  V30 4996 H 460.834 -2.56805 -5.42044 0
M  V30 4997 H 462.513 -3.10441 -5.67658 0
M  V30 4998 N 462.645 1.35699 -0.801477 0
M  V30 4999 C 463.891 1.99208 -0.380022 0
M  V30 5000 C 464.224 1.63445 1.04878 0
M  V30 5001 O 463.499 0.895223 1.72673 0
M  V30 5002 C 463.782 3.55755 -0.557708 0
M  V30 5003 C 463.635 4.01332 -2.03107 0
M  V30 5004 C 464.954 4.40096 0.0197968 0
M  V30 5005 H 462.073 0.723667 -0.139552 0
M  V30 5006 H 464.715 1.60928 -1.01006 0
M  V30 5007 H 462.865 3.88494 -0.0213741 0
M  V30 5008 H 464.537 3.79026 -2.62939 0
M  V30 5009 H 462.78 3.52429 -2.52936 0
M  V30 5010 H 463.451 5.10234 -2.1063 0
M  V30 5011 H 465.927 4.13786 -0.438179 0
M  V30 5012 H 464.803 5.48735 -0.134477 0
M  V30 5013 H 465.064 4.2786 1.11303 0
M  V30 5014 N 464.123 0.554532 1.47522 0
M  V30 5015 C 465.053 -0.182974 2.32782 0
M  V30 5016 C 466.034 -0.911377 1.43624 0
M  V30 5017 O 467.219 -0.892366 1.72483 0
M  V30 5018 C 464.349 -1.21513 3.25349 0
M  V30 5019 C 463.303 -0.603355 4.23726 0
M  V30 5020 C 462.629 -1.73995 5.05598 0
M  V30 5021 C 463.929 0.441121 5.20434 0
M  V30 5022 H 465.623 0.52882 2.94693 0
M  V30 5023 H 463.169 0.255759 1.41711 0
M  V30 5024 H 465.122 -1.73922 3.83835 0
M  V30 5025 H 463.846 -1.95683 2.61487 0
M  V30 5026 H 462.505 -0.10059 3.66462 0
M  V30 5027 H 462.153 -2.47063 4.38143 0
M  V30 5028 H 461.853 -1.3364 5.72201 0
M  V30 5029 H 463.377 -2.26735 5.66942 0
M  V30 5030 H 464.791 0.00319931 5.733 0
M  V30 5031 H 463.188 0.763402 5.95224 0
M  V30 5032 H 464.258 1.33799 4.66075 0
M  V30 5033 N 465.601 -1.54893 0.290851 0
M  V30 5034 C 466.533 -2.20564 -0.623236 0
M  V30 5035 C 467.546 -1.19519 -1.1054 0
M  V30 5036 O 468.735 -1.46165 -1.02459 0
M  V30 5037 C 465.835 -2.83033 -1.86401 0
M  V30 5038 C 465.008 -4.09916 -1.52604 0
M  V30 5039 C 464.067 -4.56284 -2.62091 0
M  V30 5040 O 463.093 -5.2171 -2.27612 0
M  V30 5041 N 464.295 -4.27746 -3.92446 0
M  V30 5042 H 467.06 -2.99638 -0.0610915 0
M  V30 5043 H 464.621 -1.61508 0.112615 0
M  V30 5044 H 466.613 -3.1099 -2.58973 0
M  V30 5045 H 465.183 -2.0786 -2.33481 0
M  V30 5046 H 464.403 -3.89078 -0.633424 0
M  V30 5047 H 465.691 -4.92554 -1.27547 0
M  V30 5048 H 465.089 -3.7531 -4.23272 0
M  V30 5049 H 463.646 -4.60437 -4.61347 0
M  V30 5050 N 467.08 -0.0183926 -1.57589 0
M  V30 5051 C 468.31 0.67207 -1.95363 0
M  V30 5052 C 468.718 1.66807 -0.892872 0
M  V30 5053 O 468.061 1.83204 0.134958 0
M  V30 5054 C 468.123 1.44397 -3.29226 0
M  V30 5055 C 467.787 0.607511 -4.52944 0
M  V30 5056 C 468.784 -0.112657 -5.19778 0
M  V30 5057 C 466.469 0.548068 -4.99301 0
M  V30 5058 C 468.463 -0.881057 -6.31281 0
M  V30 5059 C 466.15 -0.224044 -6.10689 0
M  V30 5060 C 467.148 -0.937323 -6.76538 0
M  V30 5061 O 466.836 -1.6968 -7.85789 0
M  V30 5062 H 466.568 0.190925 -0.648478 0
M  V30 5063 H 469.122 -0.0711994 -2.05277 0
M  V30 5064 H 467.352 2.23214 -3.15773 0
M  V30 5065 H 469.041 2.02152 -3.51979 0
M  V30 5066 H 469.807 -0.0759998 -4.8494 0
M  V30 5067 H 465.686 1.09281 -4.4786 0
M  V30 5068 H 469.23 -1.43832 -6.82611 0
M  V30 5069 H 465.127 -0.262457 -6.44966 0
M  V30 5070 H 465.895 -1.61544 -8.024 0
M  V30 5071 N 468.558 1.5553 0.254621 0
M  V30 5072 C 469.508 1.86057 1.31783 0
M  V30 5073 C 470.492 0.720827 1.4385 0
M  V30 5074 O 471.684 0.982586 1.47222 0
M  V30 5075 C 468.813 2.15203 2.67475 0
M  V30 5076 C 467.899 3.35484 2.59444 0
M  V30 5077 N 468.29 4.54945 2.2104 0
M  V30 5078 C 466.588 3.38441 2.90472 0
M  V30 5079 C 467.289 5.3707 2.23453 0
M  V30 5080 N 466.265 4.75936 2.62652 0
M  V30 5081 H 470.067 2.75953 1.01129 0
M  V30 5082 H 467.581 1.55653 0.463255 0
M  V30 5083 H 469.578 2.35235 3.44195 0
M  V30 5084 H 468.238 1.26601 2.99002 0
M  V30 5085 H 469.249 4.8071 1.92712 0
M  V30 5086 H 465.926 2.60087 3.2659 0
M  V30 5087 H 467.316 6.42626 1.96166 0
M  V30 5088 N 470.036 -0.519951 1.48776 0
M  V30 5089 C 470.986 -1.61995 1.60442 0
M  V30 5090 C 471.97 -1.54155 0.460991 0
M  V30 5091 O 473.162 -1.62006 0.712965 0
M  V30 5092 C 470.291 -3.00683 1.65664 0
M  V30 5093 C 469.377 -3.1359 2.8552 0
M  V30 5094 N 469.768 -2.96441 4.09825 0
M  V30 5095 C 468.066 -3.44662 2.83062 0
M  V30 5096 C 468.767 -3.1303 4.90293 0
M  V30 5097 N 467.743 -3.41058 4.23297 0
M  V30 5098 H 471.545 -1.47362 2.54287 0
M  V30 5099 H 469.059 -0.725649 1.45286 0
M  V30 5100 H 471.056 -3.79712 1.72117 0
M  V30 5101 H 469.716 -3.16401 0.729425 0
M  V30 5102 H 470.727 -2.72999 4.40104 0
M  V30 5103 H 467.404 -3.66675 1.9964 0
M  V30 5104 H 468.794 -3.04424 5.98979 0
M  V30 5105 N 471.514 -1.37532 -0.769588 0
M  V30 5106 C 472.464 -1.29984 -1.87318 0
M  V30 5107 C 473.448 -0.187242 -1.59807 0
M  V30 5108 O 474.64 -0.421827 -1.719 0
M  V30 5109 C 471.769 -1.11126 -3.24817 0
M  V30 5110 C 470.855 -2.26939 -3.58273 0
M  V30 5111 N 471.246 -3.52336 -3.62895 0
M  V30 5112 C 469.544 -2.19141 -3.8845 0
M  V30 5113 C 470.245 -4.28719 -3.9316 0
M  V30 5114 N 469.221 -3.57884 -4.0917 0
M  V30 5115 H 473.023 -2.24946 -1.89147 0
M  V30 5116 H 470.537 -1.30535 -0.966143 0
M  V30 5117 H 472.534 -1.03803 -4.0377 0
M  V30 5118 H 471.194 -0.17083 -3.2425 0
M  V30 5119 H 472.205 -3.86216 -3.45048 0
M  V30 5120 H 468.882 -1.33167 -3.95693 0
M  V30 5121 H 470.272 -5.37254 -4.03494 0
M  V30 5122 N 472.992 0.995999 -1.22138 0
M  V30 5123 C 474.269 1.70834 -0.952642 0
M  V30 5124 C 474.649 2.04257 0.533119 0
M  V30 5125 O 473.997 1.72343 1.50034 0
M  V30 5126 C 474.207 2.96119 -1.84701 0
M  V30 5127 C 475.555 3.68962 -2.10124 0
M  V30 5128 O 476.579 3.0612 -1.82124 0
M  V30 5129 O 475.438 4.82017 -2.57531 0
M  V30 5130 H 472.532 0.745498 -0.357997 0
M  V30 5131 H 475.078 1.05262 -1.33109 0
M  V30 5132 H 473.85 2.67898 -2.85213 0
M  V30 5133 H 473.473 3.6943 -1.46995 0
M  V30 5134 N 474.47 1.03057 1.19235 0
M  V30 5135 C 475.881 0.757449 1.70645 0
M  V30 5136 C 476.232 -0.722735 1.82403 0
M  V30 5137 O 475.357 -1.56325 1.49638 0
M  V30 5138 C 475.952 1.36833 3.09939 0
M  V30 5139 C 474.511 1.14375 3.58602 0
M  V30 5140 C 473.658 1.46533 2.35422 0
M  V30 5141 H 476.609 1.19828 1.04052 0
M  V30 5142 H 476.63 0.766184 3.72706 0
M  V30 5143 H 476.142 2.44562 3.01349 0
M  V30 5144 H 474.243 0.0847542 3.72504 0
M  V30 5145 H 474.356 1.83366 4.42622 0
M  V30 5146 H 472.72 0.884712 2.38841 0
M  V30 5147 H 473.503 2.55349 2.2946 0
M  V30 5148 N 475.948 -1.35272 0.808662 0
M  V30 5149 C 477.225 -1.93077 0.313181 0
M  V30 5150 C 477.605 -1.73847 -1.19752 0
M  V30 5151 O 476.953 -1.1087 -1.998 0
M  V30 5152 C 477.163 -3.41347 0.726859 0
M  V30 5153 C 478.511 -4.18493 0.717532 0
M  V30 5154 O 479.535 -3.4987 0.668535 0
M  V30 5155 O 478.394 -5.40937 0.777779 0
M  V30 5156 H 475.488 -0.822885 0.0824018 0
M  V30 5157 H 478.034 -1.44335 0.892499 0
M  V30 5158 H 476.806 -3.49082 1.76797 0
M  V30 5159 H 476.429 -3.97411 0.122461 0
M  V30 5160 N 477.426 -0.562348 -1.47226 0
M  V30 5161 C 478.674 -0.0401371 -2.0206 0
M  V30 5162 C 478.995 1.3165 -1.43852 0
M  V30 5163 O 478.265 1.85976 -0.615599 0
M  V30 5164 H 476.845 -0.0118479 -0.746906 0
M  V30 5165 H 479.507 -0.73352 -1.8057 0
M  V30 5166 H 478.603 0.0441254 -3.12069 0
M  V30 5167 N 478.904 1.54736 -0.299062 0
M  V30 5168 C 480.152 1.99706 0.31017 0
M  V30 5169 C 480.473 1.18896 1.54559 0
M  V30 5170 O 479.743 0.284445 1.93824 0
M  V30 5171 H 478.323 0.737686 0.117596 0
M  V30 5172 H 480.985 1.9054 -0.409943 0
M  V30 5173 H 480.081 3.06596 0.58355 0
M  V30 5174 N 480.382 0.0267497 1.57577 0
M  V30 5175 C 481.329 -0.955894 2.10075 0
M  V30 5176 C 482.299 -1.32453 1.00226 0
M  V30 5177 O 483.484 -1.41826 1.27632 0
M  V30 5178 C 480.624 -2.2338 2.6305 0
M  V30 5179 C 479.737 -1.92183 3.86898 0
M  V30 5180 C 478.872 -3.14251 4.28275 0
M  V30 5181 C 477.911 -2.78862 5.44888 0
M  V30 5182 N 477.048 -3.93548 5.81433 0
M  V30 5183 H 481.888 -0.501303 2.93753 0
M  V30 5184 H 479.425 -0.235847 1.45197 0
M  V30 5185 H 481.383 -2.98124 2.91853 0
M  V30 5186 H 480.013 -2.6646 1.82205 0
M  V30 5187 H 479.065 -1.07692 3.64838 0
M  V30 5188 H 480.377 -1.62117 4.7172 0
M  V30 5189 H 479.531 -3.97317 4.58502 0
M  V30 5190 H 478.27 -3.47476 3.42215 0
M  V30 5191 H 477.275 -1.94208 5.14357 0
M  V30 5192 H 478.5 -2.46855 6.32645 0
M  V30 5193 H 476.446 -4.2662 4.98328 0
M  V30 5194 H 476.363 -3.67098 6.6089 0
M  V30 5195 H 477.631 -4.77325 6.16264 0
M  V30 5196 N 481.861 -1.55662 -0.24637 0
M  V30 5197 C 482.794 -1.85332 -1.33143 0
M  V30 5198 C 483.772 -0.708464 -1.46354 0
M  V30 5199 O 484.956 -0.954274 -1.6256 0
M  V30 5200 C 482.083 -2.0385 -2.70487 0
M  V30 5201 C 481.129 -3.26488 -2.74423 0
M  V30 5202 S 481.962 -4.83124 -2.30979 0
M  V30 5203 C 483.118 -5.04647 -3.70246 0
M  V30 5204 H 483.351 -2.77077 -1.07777 0
M  V30 5205 H 480.884 -1.47776 -0.44738 0
M  V30 5206 H 482.842 -2.15202 -3.49569 0
M  V30 5207 H 481.503 -1.12947 -2.9309 0
M  V30 5208 H 480.696 -3.36413 -3.7529 0
M  V30 5209 H 480.298 -3.13864 -2.03385 0
M  V30 5210 H 482.59 -4.92023 -4.65746 0
M  V30 5211 H 483.533 -6.06625 -3.65255 0
M  V30 5212 H 483.941 -4.32491 -3.62784 0
M  V30 5213 N 483.339 0.512053 -1.4905 0
M  V30 5214 C 484.75 1.09376 -1.51307 0
M  V30 5215 C 485.101 1.94 -0.292971 0
M  V30 5216 O 484.226 2.07965 0.598277 0
M  V30 5217 C 484.821 1.99031 -2.74176 0
M  V30 5218 C 483.38 2.52385 -2.79247 0
M  V30 5219 C 482.527 1.29749 -2.45073 0
M  V30 5220 H 485.478 0.296467 -1.55906 0
M  V30 5221 H 485.499 2.83569 -2.53711 0
M  V30 5222 H 485.011 1.37412 -3.62959 0
M  V30 5223 H 483.112 3.17673 -1.94716 0
M  V30 5224 H 483.225 2.90293 -3.81139 0
M  V30 5225 H 481.589 1.61912 -1.96612 0
M  V30 5226 H 482.372 0.698555 -3.36118 0
M  V30 5227 N 484.817 1.37938 0.762283 0
M  V30 5228 C 485.764 1.34467 1.87583 0
M  V30 5229 C 486.734 0.208633 1.64785 0
M  V30 5230 O 487.919 0.399494 1.86571 0
M  V30 5231 C 485.059 1.16692 3.24772 0
M  V30 5232 C 484.172 2.39608 3.59461 0
M  V30 5233 C 483.307 2.14631 4.85908 0
M  V30 5234 C 482.346 3.33364 5.13357 0
M  V30 5235 N 481.483 3.07877 6.30996 0
M  V30 5236 H 486.323 2.29669 1.89885 0
M  V30 5237 H 483.86 1.14116 0.928219 0
M  V30 5238 H 485.818 1.04405 4.03925 0
M  V30 5239 H 484.448 0.251333 3.2182 0
M  V30 5240 H 483.5 2.626 2.75219 0
M  V30 5241 H 484.812 3.28128 3.75678 0
M  V30 5242 H 483.966 1.99429 5.72986 0
M  V30 5243 H 482.705 1.23463 4.71814 0
M  V30 5244 H 481.71 3.49094 4.24751 0
M  V30 5245 H 482.935 4.25395 5.29354 0
M  V30 5246 H 480.881 2.19348 6.18241 0
M  V30 5247 H 480.798 3.89944 6.47673 0
M  V30 5248 H 482.066 2.96313 7.20985 0
M  V30 5249 N 486.295 -0.989507 1.22664 0
M  V30 5250 C 487.541 -1.73298 1.06487 0
M  V30 5251 C 487.896 -1.88292 -0.395438 0
M  V30 5252 O 487.189 -1.41748 -1.28911 0
M  V30 5253 C 487.383 -3.13649 1.71345 0
M  V30 5254 C 487.212 -3.12341 3.23532 0
M  V30 5255 C 485.982 -3.18044 3.92653 0
M  V30 5256 C 488.18 -2.96226 4.20422 0
M  V30 5257 N 486.162 -3.06526 5.31898 0
M  V30 5258 C 487.533 -2.92773 5.4652 0
M  V30 5259 C 489.588 -2.80642 4.11271 0
M  V30 5260 C 488.291 -2.75332 6.64519 0
M  V30 5261 C 490.317 -2.64563 5.28924 0
M  V30 5262 C 489.679 -2.618 6.53942 0
M  V30 5263 H 485.778 -0.643643 0.444126 0
M  V30 5264 H 488.362 -1.17489 1.55256 0
M  V30 5265 H 486.533 -3.67694 1.25122 0
M  V30 5266 H 488.265 -3.76577 1.48229 0
M  V30 5267 H 485.02 -3.25861 3.43673 0
M  V30 5268 H 485.444 -3.04067 6.04874 0
M  V30 5269 H 490.086 -2.81574 3.15398 0
M  V30 5270 H 487.804 -2.73145 7.60538 0
M  V30 5271 H 491.39 -2.53482 5.23677 0
M  V30 5272 H 490.27 -2.49511 7.43447 0
M  V30 5273 N 487.773 -1.03688 -1.18687 0
M  V30 5274 C 489.001 -0.757918 -1.92518 0
M  V30 5275 C 489.416 0.684398 -1.75959 0
M  V30 5276 O 488.773 1.46617 -1.08673 0
M  V30 5277 C 488.824 -1.10985 -3.44042 0
M  V30 5278 O 488.545 -2.49554 -3.60076 0
M  V30 5279 C 490.046 -0.854844 -4.3498 0
M  V30 5280 H 487.266 -0.276699 -0.611293 0
M  V30 5281 H 489.81 -1.38352 -1.50595 0
M  V30 5282 H 487.965 -0.529279 -3.83767 0
M  V30 5283 H 488.379 -2.6291 -4.53849 0
M  V30 5284 H 489.853 -1.15098 -5.39867 0
M  V30 5285 H 490.33 0.210507 -4.38695 0
M  V30 5286 H 490.936 -1.41853 -4.00946 0
M  V30 5287 N 489.251 1.34841 -0.815825 0
M  V30 5288 C 490.667 1.51543 -0.500697 0
M  V30 5289 C 490.867 1.76261 0.976444 0
M  V30 5290 O 489.923 1.8094 1.76117 0
M  V30 5291 C 491.236 2.68487 -1.35407 0
M  V30 5292 C 492.784 2.82368 -1.35046 0
M  V30 5293 C 493.259 4.02347 -2.18816 0
M  V30 5294 N 494.75 4.09542 -2.16402 0
M  V30 5295 C 495.485 5.01517 -2.77971 0
M  V30 5296 N 494.981 5.98763 -3.48503 0
M  V30 5297 N 496.774 4.94334 -2.67563 0
M  V30 5298 H 488.925 1.17055 -1.77234 0
M  V30 5299 H 491.188 0.573481 -0.754866 0
M  V30 5300 H 490.894 2.56829 -2.40274 0
M  V30 5301 H 490.768 3.63321 -1.01377 0
M  V30 5302 H 493.155 2.93471 -0.309604 0
M  V30 5303 H 493.236 1.88363 -1.73069 0
M  V30 5304 H 492.88 3.92004 -3.22948 0
M  V30 5305 H 492.81 4.95551 -1.78148 0
M  V30 5306 H 495.301 3.39932 -1.65091 0
M  V30 5307 H 495.614 6.6556 -3.92747 0
M  V30 5308 H 493.959 5.98909 -3.52609 0
M  V30 5309 H 497.15 4.1732 -2.12041 0
M  V30 5310 H 497.323 5.6582 -3.15834 0
M  V30 5311 N 490.729 0.570148 1.46925 0
M  V30 5312 C 491.975 0.0510284 2.02736 0
M  V30 5313 C 492.308 -1.3006 1.44215 0
M  V30 5314 O 491.583 -1.84932 0.602521 0
M  V30 5315 C 491.866 -0.028215 3.60089 0
M  V30 5316 C 491.719 1.35142 4.29018 0
M  V30 5317 C 493.038 -0.735181 4.33916 0
M  V30 5318 H 490.157 0.0200178 0.736728 0
M  V30 5319 H 492.799 0.73493 1.75211 0
M  V30 5320 H 490.949 -0.610648 3.83671 0
M  V30 5321 H 492.621 1.97806 4.16738 0
M  V30 5322 H 490.864 1.9226 3.88868 0
M  V30 5323 H 491.535 1.24857 5.37694 0
M  V30 5324 H 494.011 -0.240519 4.15404 0
M  V30 5325 H 492.887 -0.759622 5.43618 0
M  V30 5326 H 493.148 -1.79397 4.04066 0
M  V30 5327 N 492.207 -1.54576 0.307264 0
M  V30 5328 C 493.456 -1.99442 -0.300976 0
M  V30 5329 C 493.769 -1.19928 -1.5452 0
M  V30 5330 O 494.975 -1.55092 -2.22842 0
M  V30 5331 C 493.431 -3.55084 -0.586809 0
M  V30 5332 C 493.039 -4.43413 0.639438 0
M  V30 5333 C 494.783 -4.0846 -1.1559 0
M  V30 5334 C 492.69 -5.90499 0.326411 0
M  V30 5335 H 491.62 -0.744986 -0.116238 0
M  V30 5336 H 494.271 -1.787 0.416947 0
M  V30 5337 H 492.653 -3.71749 -1.36449 0
M  V30 5338 H 493.827 -4.38522 1.41545 0
M  V30 5339 H 492.142 -4.00842 1.1276 0
M  V30 5340 H 494.739 -5.15926 -1.40445 0
M  V30 5341 H 495.082 -3.59443 -2.10015 0
M  V30 5342 H 495.615 -3.95362 -0.439778 0
M  V30 5343 H 492.354 -6.43676 1.23939 0
M  V30 5344 H 491.874 -5.98382 -0.412212 0
M  V30 5345 H 493.553 -6.46962 -0.0697393 0
M  V30 5346 N 493.685 -0.035106 -1.57561 0
M  V30 5347 C 494.615 0.942993 -2.13612 0
M  V30 5348 C 495.596 1.33531 -1.05373 0
M  V30 5349 O 496.781 1.41287 -1.33235 0
M  V30 5350 C 493.911 2.22332 -2.66807 0
M  V30 5351 C 492.865 1.97156 -3.79886 0
M  V30 5352 C 492.191 3.31506 -4.19533 0
M  V30 5353 C 493.491 1.30596 -5.05709 0
M  V30 5354 H 495.185 0.476179 -2.95589 0
M  V30 5355 H 492.731 0.227602 -1.4219 0
M  V30 5356 H 494.684 2.91142 -3.04654 0
M  V30 5357 H 493.408 2.7119 -1.81999 0
M  V30 5358 H 492.067 1.30763 -3.42486 0
M  V30 5359 H 491.715 3.78134 -3.31698 0
M  V30 5360 H 491.415 3.15465 -4.95738 0
M  V30 5361 H 492.939 4.01574 -4.59968 0
M  V30 5362 H 494.353 1.89416 -5.41105 0
M  V30 5363 H 492.75 1.24934 -5.86951 0
M  V30 5364 H 493.82 0.279742 -4.84092 0
M  V30 5365 N 495.163 1.55791 0.238111 0
M  V30 5366 C 496.093 1.94068 1.29846 0
M  V30 5367 C 497.074 0.806726 1.49753 0
M  V30 5368 O 498.259 1.06772 1.62214 0
M  V30 5369 C 495.389 2.24302 2.65153 0
M  V30 5370 C 494.343 3.40032 2.59927 0
M  V30 5371 C 493.669 3.55829 3.99111 0
M  V30 5372 C 494.969 4.75476 2.16148 0
M  V30 5373 H 496.663 2.82887 0.980563 0
M  V30 5374 H 494.209 1.36105 0.470253 0
M  V30 5375 H 496.162 2.4967 3.39475 0
M  V30 5376 H 494.886 1.32318 2.98596 0
M  V30 5377 H 493.545 3.14687 1.88063 0
M  V30 5378 H 493.193 2.6125 4.29834 0
M  V30 5379 H 492.893 4.3366 3.96501 0
M  V30 5380 H 494.417 3.83528 4.7512 0
M  V30 5381 H 495.831 5.00158 2.80205 0
M  V30 5382 H 494.228 5.56472 2.24631 0
M  V30 5383 H 495.298 4.71946 1.11333 0
M  V30 5384 N 496.642 -0.504142 1.49319 0
M  V30 5385 C 497.59 -1.62689 1.66238 0
M  V30 5386 C 498.584 -1.6095 0.528349 0
M  V30 5387 O 499.79 -1.65496 0.707887 0
M  V30 5388 H 496.165 -0.539247 0.524134 0
M  V30 5389 H 498.136 -1.45571 2.60484 0
M  V30 5390 C 496.885 -3.00841 1.74328 0
M  V30 5391 H 496.208 -3.02884 2.60963 0
M  V30 5392 H 497.648 -3.78945 1.90202 0
M  V30 5393 C 496.107 -3.33355 0.487416 0
M  V30 5394 O 496.637 -3.99819 -0.388294 0
M  V30 5395 N 494.843 -2.88469 0.351306 0
M  V30 5396 H 494.39 -2.34557 1.06492 0
M  V30 5397 H 494.348 -3.10591 -0.487899 0
M  V30 5398 N 498.12 -1.38341 -0.754957 0
M  V30 5399 C 499.366 -1.35678 -1.51536 0
M  V30 5400 C 499.721 0.0533985 -1.92326 0
M  V30 5401 O 499.014 1.01573 -1.6246 0
M  V30 5402 C 499.208 -2.2452 -2.78075 0
M  V30 5403 C 499.037 -3.74035 -2.49655 0
M  V30 5404 C 497.807 -4.43066 -2.42942 0
M  V30 5405 C 500.005 -4.665 -2.16523 0
M  V30 5406 N 497.987 -5.78026 -2.06783 0
M  V30 5407 C 499.358 -5.89962 -1.90644 0
M  V30 5408 C 501.413 -4.54718 -2.02821 0
M  V30 5409 C 500.116 -7.0296 -1.52444 0
M  V30 5410 C 502.142 -5.67618 -1.66023 0
M  V30 5411 C 501.504 -6.90141 -1.41015 0
M  V30 5412 H 497.603 -0.551764 -0.554148 0
M  V30 5413 H 500.187 -1.73716 -0.879258 0
M  V30 5414 H 498.358 -1.88673 -3.39496 0
M  V30 5415 H 500.09 -2.12993 -3.44116 0
M  V30 5416 H 496.845 -3.96264 -2.59367 0
M  V30 5417 H 497.269 -6.49394 -1.91353 0
M  V30 5418 H 501.911 -3.60546 -2.20831 0
M  V30 5419 H 499.629 -7.97051 -1.33174 0
M  V30 5420 H 503.215 -5.6048 -1.56055 0
M  V30 5421 H 502.095 -7.76021 -1.12965 0
M  V30 5422 N 499.598 0.982988 -1.23187 0
M  V30 5423 C 500.838 1.73903 -1.07412 0
M  V30 5424 C 501.202 1.88146 0.382764 0
M  V30 5425 O 502.403 2.6053 0.661638 0
M  V30 5426 C 500.674 3.10105 -1.77678 0
M  V30 5427 S 502.233 4.01323 -1.77441 0
M  V30 5428 H 499.051 0.598093 -0.384456 0
M  V30 5429 H 501.653 1.17456 -1.56283 0
M  V30 5430 H 500.357 2.97388 -2.82822 0
M  V30 5431 H 499.888 3.71622 -1.29077 0
M  V30 5432 H 501.903 4.89189 -0.831162 0
M  V30 5433 N 501.076 1.04316 1.18135 0
M  V30 5434 C 502.039 0.640794 2.2006 0
M  V30 5435 C 503.039 -0.303124 1.57917 0
M  V30 5436 O 504.229 -0.0881855 1.73977 0
M  V30 5437 C 501.361 -0.060148 3.40847 0
M  V30 5438 H 502.554 1.54281 2.57172 0
M  V30 5439 H 500.107 0.836004 1.32063 0
M  V30 5440 H 500.842 -0.975845 3.0927 0
M  V30 5441 H 500.627 0.618319 3.87194 0
M  V30 5442 H 502.117 -0.328082 4.16309 0
M  V30 5443 N 502.554 -1.34406 0.822964 0
M  V30 5444 C 503.8 -1.98999 0.420847 0
M  V30 5445 C 504.155 -1.64067 -1.00498 0
M  V30 5446 O 503.448 -0.902071 -1.69036 0
M  V30 5447 C 503.642 -3.52981 0.560268 0
M  V30 5448 C 503.471 -4.02873 1.99809 0
M  V30 5449 C 502.241 -4.31463 2.62998 0
M  V30 5450 C 504.439 -4.20241 2.96483 0
M  V30 5451 N 502.421 -4.6739 3.9802 0
M  V30 5452 C 503.792 -4.59348 4.16413 0
M  V30 5453 C 505.847 -4.02489 2.93098 0
M  V30 5454 C 504.55 -4.82559 5.33413 0
M  V30 5455 C 506.576 -4.26866 4.09315 0
M  V30 5456 C 505.938 -4.6626 5.27997 0
M  V30 5457 H 502.037 -0.755432 0.202104 0
M  V30 5458 H 504.621 -1.62815 1.06767 0
M  V30 5459 H 502.792 -3.88359 -0.0566596 0
M  V30 5460 H 504.524 -4.04487 0.131146 0
M  V30 5461 H 501.279 -4.22373 2.14238 0
M  V30 5462 H 501.703 -4.89588 4.67582 0
M  V30 5463 H 506.345 -3.71161 2.02483 0
M  V30 5464 H 504.063 -5.12754 6.24587 0
M  V30 5465 H 507.649 -4.14667 4.08096 0
M  V30 5466 H 506.529 -4.84752 6.16429 0
M  V30 5467 N 504.032 -0.577932 -1.46621 0
M  V30 5468 C 505.279 -0.0616879 -2.02406 0
M  V30 5469 C 505.607 1.29638 -1.44997 0
M  V30 5470 O 504.862 1.86176 -0.60308 0
M  V30 5471 C 505.161 0.0590832 -3.57351 0
M  V30 5472 C 504.827 -1.23077 -4.33777 0
M  V30 5473 C 503.489 -1.58416 -4.54376 0
M  V30 5474 C 505.841 -2.08457 -4.77698 0
M  V30 5475 C 503.169 -2.78943 -5.16147 0
M  V30 5476 C 505.521 -3.28204 -5.408 0
M  V30 5477 C 504.185 -3.63832 -5.59627 0
M  V30 5478 H 503.455 -0.0225732 -0.740656 0
M  V30 5479 H 506.102 -0.753609 -1.76048 0
M  V30 5480 H 504.407 0.834104 -3.82818 0
M  V30 5481 H 506.104 0.474202 -3.98186 0
M  V30 5482 H 502.694 -0.945652 -4.18038 0
M  V30 5483 H 506.878 -1.82459 -4.61544 0
M  V30 5484 H 502.134 -3.06689 -5.28916 0
M  V30 5485 H 506.308 -3.94634 -5.73792 0
M  V30 5486 H 503.935 -4.57315 -6.07262 0
M  V30 5487 N 505.51 1.54411 -0.315457 0
M  V30 5488 C 506.44 2.27002 0.547039 0
M  V30 5489 C 507.421 1.27492 1.12605 0
M  V30 5490 O 508.606 1.5629 1.15269 0
M  V30 5491 C 505.736 3.02171 1.71201 0
M  V30 5492 C 504.69 4.0895 1.26268 0
M  V30 5493 C 504.016 4.71915 2.51396 0
M  V30 5494 C 505.316 5.20891 0.383419 0
M  V30 5495 H 507.01 2.99343 -0.0584517 0
M  V30 5496 H 504.556 1.4397 -0.0295527 0
M  V30 5497 H 506.509 3.51681 2.32161 0
M  V30 5498 H 505.233 2.27433 2.34397 0
M  V30 5499 H 503.892 3.60312 0.676062 0
M  V30 5500 H 503.54 3.93801 3.12937 0
M  V30 5501 H 503.24 5.44039 2.22026 0
M  V30 5502 H 504.764 5.24195 3.13133 0
M  V30 5503 H 506.178 5.66206 0.899082 0
M  V30 5504 H 504.575 5.99821 0.182857 0
M  V30 5505 H 505.645 4.81324 -0.587821 0
M  V30 5506 N 506.988 0.0434614 1.5754 0
M  V30 5507 C 508.404 -0.313039 1.565 0
M  V30 5508 C 508.604 -1.71954 1.05043 0
M  V30 5509 O 507.66 -2.425 0.703564 0
M  V30 5510 C 508.973 -0.148544 3.00333 0
M  V30 5511 C 510.521 -0.220231 3.12224 0
M  V30 5512 C 510.996 -0.0843565 4.57922 0
M  V30 5513 N 512.487 -0.140881 4.62986 0
M  V30 5514 C 513.222 -0.0597443 5.73369 0
M  V30 5515 N 512.718 0.0733004 6.92761 0
M  V30 5516 N 514.511 -0.11477 5.61983 0
M  V30 5517 H 506.662 0.96303 1.89313 0
M  V30 5518 H 508.925 0.373164 0.871466 0
M  V30 5519 H 508.631 0.820894 3.41986 0
M  V30 5520 H 508.505 -0.912798 3.65989 0
M  V30 5521 H 510.892 -1.18014 2.70475 0
M  V30 5522 H 510.973 0.574646 2.49262 0
M  V30 5523 H 510.617 0.872192 5.00355 0
M  V30 5524 H 510.547 -0.898281 5.18882 0
M  V30 5525 H 513.038 -0.243273 3.77116 0
M  V30 5526 H 513.351 0.128128 7.72694 0
M  V30 5527 H 511.696 0.10828 6.94916 0
M  V30 5528 H 514.887 -0.217212 4.67596 0
M  V30 5529 H 515.06 -0.0480779 6.47982 0
M  V30 5530 N 508.466 -1.55915 -0.229846 0
M  V30 5531 C 509.399 -1.86734 -1.3117 0
M  V30 5532 C 510.377 -0.723947 -1.45595 0
M  V30 5533 O 511.561 -0.971462 -1.61539 0
M  V30 5534 C 508.688 -2.06707 -2.68309 0
M  V30 5535 C 507.734 -3.2938 -2.70944 0
M  V30 5536 S 508.567 -4.85547 -2.25842 0
M  V30 5537 C 509.723 -5.08546 -3.64873 0
M  V30 5538 H 509.956 -2.78204 -1.04832 0
M  V30 5539 H 507.489 -1.48243 -0.431681 0
M  V30 5540 H 509.447 -2.18898 -3.47267 0
M  V30 5541 H 508.108 -1.16049 -2.91876 0
M  V30 5542 H 507.301 -3.40374 -3.71701 0
M  V30 5543 H 506.903 -3.16004 -2.00044 0
M  V30 5544 H 509.195 -4.96935 -4.60502 0
M  V30 5545 H 510.138 -6.10465 -3.58801 0
M  V30 5546 H 510.546 -4.36314 -3.58176 0
M  V30 5547 N 509.944 0.496216 -1.49584 0
M  V30 5548 C 510.891 1.59722 -1.66606 0
M  V30 5549 C 511.861 1.58158 -0.507477 0
M  V30 5550 O 513.046 1.76072 -0.735076 0
M  V30 5551 C 510.186 2.97844 -1.74308 0
M  V30 5552 C 509.299 3.09388 -3.01502 0
M  V30 5553 C 508.434 4.38271 -3.00153 0
M  V30 5554 C 507.473 4.43466 -4.21906 0
M  V30 5555 N 506.61 5.63784 -4.1844 0
M  V30 5556 H 511.45 1.44515 -2.60613 0
M  V30 5557 H 508.987 0.703048 -1.29212 0
M  V30 5558 H 510.945 3.77907 -1.76754 0
M  V30 5559 H 509.575 3.11743 -0.837619 0
M  V30 5560 H 508.627 2.22357 -3.08645 0
M  V30 5561 H 509.939 3.09085 -3.91494 0
M  V30 5562 H 509.093 5.2666 -3.01188 0
M  V30 5563 H 507.832 4.41146 -2.07947 0
M  V30 5564 H 506.837 3.53478 -4.21109 0
M  V30 5565 H 508.062 4.42303 -5.1531 0
M  V30 5566 H 506.008 5.67491 -3.29074 0
M  V30 5567 H 505.925 5.65118 -5.02173 0
M  V30 5568 H 507.193 6.54367 -4.23585 0
M  V30 5569 N 511.423 1.38739 0.74761 0
M  V30 5570 C 512.839 1.20067 1.05148 0
M  V30 5571 C 513.039 0.0534835 2.01429 0
M  V30 5572 O 512.095 -0.59886 2.45296 0
M  V30 5573 C 513.408 2.52957 1.62584 0
M  V30 5574 C 514.956 2.59692 1.74726 0
M  V30 5575 C 515.431 3.92772 2.35573 0
M  V30 5576 N 516.922 3.94343 2.42997 0
M  V30 5577 C 517.657 4.9408 2.90985 0
M  V30 5578 N 517.153 6.04214 3.38965 0
M  V30 5579 N 518.946 4.81466 2.9008 0
M  V30 5580 H 511.097 2.12121 0.108808 0
M  V30 5581 H 513.36 0.941491 0.110899 0
M  V30 5582 H 513.066 3.37389 0.993051 0
M  V30 5583 H 512.94 2.71779 2.61565 0
M  V30 5584 H 515.327 1.75651 2.3713 0
M  V30 5585 H 515.408 2.44731 0.744326 0
M  V30 5586 H 515.052 4.77238 1.738 0
M  V30 5587 H 514.982 4.05046 3.36519 0
M  V30 5588 H 517.473 3.14799 2.0907 0
M  V30 5589 H 517.786 6.76241 3.74056 0
M  V30 5590 H 516.131 6.07825 3.37007 0
M  V30 5591 H 519.322 3.94535 2.51912 0
M  V30 5592 H 519.495 5.59344 3.27166 0
M  V30 5593 N 512.901 -0.976442 1.23707 0
M  V30 5594 C 514.312 -1.53284 1.06587 0
M  V30 5595 C 514.663 -1.92765 -0.365526 0
M  V30 5596 O 513.788 -1.7645 -1.25277 0
M  V30 5597 C 514.383 -2.78548 1.92864 0
M  V30 5598 C 512.942 -3.30574 1.79994 0
M  V30 5599 C 512.089 -2.03538 1.88328 0
M  V30 5600 H 515.04 -0.795692 1.37311 0
M  V30 5601 H 515.061 -3.5155 1.45577 0
M  V30 5602 H 514.573 -2.49782 2.97037 0
M  V30 5603 H 512.674 -3.64211 0.786202 0
M  V30 5604 H 512.787 -4.00065 2.636 0
M  V30 5605 H 511.151 -2.17853 1.31954 0
M  V30 5606 H 511.934 -1.77149 2.94063 0
M  V30 5607 N 514.379 -1.04941 -1.1758 0
M  V30 5608 C 515.627 -0.756492 -1.87408 0
M  V30 5609 C 515.948 0.718478 -1.81281 0
M  V30 5610 O 515.218 1.519 -1.23706 0
M  V30 5611 H 513.798 -0.276841 -0.693807 0
M  V30 5612 H 516.46 -1.32803 -1.42652 0
M  V30 5613 H 515.556 -1.06918 -2.93215 0
M  V30 5614 N 515.857 1.33968 -0.830081 0
M  V30 5615 C 516.767 2.33164 -0.259207 0
M  V30 5616 C 517.783 1.62951 0.610164 0
M  V30 5617 O 518.959 1.94668 0.516369 0
M  V30 5618 C 516.024 3.42088 0.563598 0
M  V30 5619 C 515.085 4.28037 -0.329014 0
M  V30 5620 C 514.318 5.3176 0.454616 0
M  V30 5621 O 514.541 5.44876 1.6872 0
M  V30 5622 O 513.475 6.01669 -0.166794 0
M  V30 5623 H 517.301 2.83832 -1.08041 0
M  V30 5624 H 514.886 1.37154 -0.59239 0
M  V30 5625 H 516.768 4.08581 1.03147 0
M  V30 5626 H 515.443 2.93651 1.36201 0
M  V30 5627 H 514.35 3.64443 -0.844538 0
M  V30 5628 H 515.683 4.79934 -1.09196 0
M  V30 5629 N 517.335 0.585699 1.46312 0
M  V30 5630 C 518.612 0.00542031 1.95599 0
M  V30 5631 C 518.992 -1.45619 1.52834 0
M  V30 5632 O 518.34 -2.14759 0.780446 0
M  V30 5633 C 518.55 0.180601 3.48532 0
M  V30 5634 C 519.898 0.049979 4.24571 0
M  V30 5635 O 520.922 0.109589 3.56031 0
M  V30 5636 O 519.781 -0.0832226 5.46437 0
M  V30 5637 H 516.875 -0.0481281 0.825598 0
M  V30 5638 H 519.421 0.654227 1.56582 0
M  V30 5639 H 518.193 1.19657 3.72556 0
M  V30 5640 H 517.816 -0.504498 3.94386 0
M  V30 5641 N 518.813 -1.54241 0.323641 0
M  V30 5642 C 519.76 -2.24339 -0.542277 0
M  V30 5643 C 520.73 -1.23421 -1.11159 0
M  V30 5644 O 521.915 -1.52104 -1.15192 0
M  V30 5645 C 519.055 -3.00479 -1.69725 0
M  V30 5646 C 518.168 -4.16214 -1.15716 0
M  V30 5647 C 517.303 -4.79884 -2.27783 0
M  V30 5648 C 516.342 -5.87722 -1.71023 0
M  V30 5649 N 515.479 -6.45254 -2.76752 0
M  V30 5650 H 520.319 -2.97935 0.0620613 0
M  V30 5651 H 517.856 -1.47039 0.0423993 0
M  V30 5652 H 519.814 -3.42869 -2.3769 0
M  V30 5653 H 518.444 -2.29217 -2.27288 0
M  V30 5654 H 517.496 -3.78605 -0.369063 0
M  V30 5655 H 518.808 -4.93838 -0.701832 0
M  V30 5656 H 517.962 -5.25243 -3.03651 0
M  V30 5657 H 516.701 -4.01641 -2.76652 0
M  V30 5658 H 515.706 -5.41765 -0.936518 0
M  V30 5659 H 516.931 -6.67863 -1.2303 0
M  V30 5660 H 514.877 -5.69884 -3.24912 0
M  V30 5661 H 514.794 -7.18292 -2.35782 0
M  V30 5662 H 516.062 -6.95269 -3.5245 0
M  V30 5663 N 520.291 -0.0518155 -1.57515 0
M  V30 5664 C 521.537 0.622745 -1.93002 0
M  V30 5665 C 521.87 1.70456 -0.930499 0
M  V30 5666 O 521.145 1.94452 0.0434086 0
M  V30 5667 C 521.428 1.21824 -3.38867 0
M  V30 5668 C 521.281 0.144434 -4.49568 0
M  V30 5669 C 522.6 2.12968 -3.8514 0
M  V30 5670 H 519.719 0.22491 -0.701844 0
M  V30 5671 H 522.361 -0.113711 -1.89659 0
M  V30 5672 H 520.511 1.8459 -3.41846 0
M  V30 5673 H 522.183 -0.48753 -4.58717 0
M  V30 5674 H 520.426 -0.527424 -4.30582 0
M  V30 5675 H 521.097 0.601127 -5.48717 0
M  V30 5676 H 523.573 1.60163 -3.8404 0
M  V30 5677 H 522.449 2.51578 -4.87852 0
M  V30 5678 H 522.71 3.03004 -3.21934 0
M  V30 5679 N 521.769 1.56035 0.221574 0
M  V30 5680 C 523.185 1.49026 0.571271 0
M  V30 5681 C 523.385 0.746912 1.87146 0
M  V30 5682 O 522.441 0.286566 2.50869 0
M  V30 5683 C 523.754 2.93579 0.650522 0
M  V30 5684 C 525.302 3.04099 0.741151 0
M  V30 5685 C 525.777 4.5001 0.851747 0
M  V30 5686 N 527.268 4.54053 0.915968 0
M  V30 5687 C 528.003 5.64232 1.02125 0
M  V30 5688 N 527.499 6.84164 1.09049 0
M  V30 5689 N 529.292 5.52084 1.05639 0
M  V30 5690 H 521.443 2.02791 -0.63162 0
M  V30 5691 H 523.706 0.921736 -0.221602 0
M  V30 5692 H 523.412 3.50912 -0.235253 0
M  V30 5693 H 523.286 3.45476 1.51413 0
M  V30 5694 H 525.673 2.4683 1.61737 0
M  V30 5695 H 525.754 2.55371 -0.148128 0
M  V30 5696 H 525.398 5.07896 -0.0200117 0
M  V30 5697 H 525.328 4.96444 1.75644 0
M  V30 5698 H 527.819 3.67683 0.872782 0
M  V30 5699 H 528.132 7.63883 1.1706 0
M  V30 5700 H 526.477 6.86875 1.05962 0
M  V30 5701 H 529.668 4.57317 0.998953 0
M  V30 5702 H 529.841 6.37983 1.13498 0
M  V30 5703 N 523.247 -0.488276 1.49845 0
M  V30 5704 C 524.658 -1.06955 1.53028 0
M  V30 5705 C 525.009 -1.9351 0.323797 0
M  V30 5706 O 524.134 -2.08891 -0.565116 0
M  V30 5707 C 524.729 -1.94643 2.77307 0
M  V30 5708 C 523.288 -2.4791 2.83227 0
M  V30 5709 C 522.435 -1.25833 2.47106 0
M  V30 5710 H 525.386 -0.271626 1.56358 0
M  V30 5711 H 525.407 -2.79496 2.5819 0
M  V30 5712 H 524.919 -1.31621 3.65099 0
M  V30 5713 H 523.02 -3.14535 1.99745 0
M  V30 5714 H 523.133 -2.84193 3.85709 0
M  V30 5715 H 521.497 -1.58764 1.99163 0
M  V30 5716 H 522.28 -0.644993 3.37186 0
M  V30 5717 N 524.725 -1.39134 -0.740242 0
M  V30 5718 C 525.688 -1.37217 -1.83587 0
M  V30 5719 C 526.688 -0.270221 -1.58513 0
M  V30 5720 O 527.878 -0.527843 -1.6601 0
M  V30 5721 C 525.01 -1.13959 -3.21288 0
M  V30 5722 H 526.203 -2.34705 -1.86691 0
M  V30 5723 H 523.756 -1.24622 -0.94335 0
M  V30 5724 H 524.491 -0.17131 -3.23847 0
M  V30 5725 H 524.276 -1.93754 -3.40884 0
M  V30 5726 H 525.766 -1.15346 -4.01354 0
M  V30 5727 N 526.204 0.969867 -1.24223 0
M  V30 5728 C 527.444 1.72754 -1.0925 0
M  V30 5729 C 527.808 1.88541 0.362787 0
M  V30 5730 O 529.009 2.61217 0.633969 0
M  V30 5731 C 527.28 3.08204 -1.80957 0
M  V30 5732 S 528.839 3.99418 -1.81688 0
M  V30 5733 H 525.657 0.593981 -0.390778 0
M  V30 5734 H 528.259 1.15792 -1.5752 0
M  V30 5735 H 526.963 2.94372 -2.85961 0
M  V30 5736 H 526.494 3.70232 -1.33012 0
M  V30 5737 H 528.509 4.8828 -0.883001 0
M  V30 5738 N 527.682 1.05563 1.17022 0
M  V30 5739 C 528.614 0.617888 2.20714 0
M  V30 5740 C 529.627 -0.320303 1.59618 0
M  V30 5741 O 530.816 -0.112449 1.78145 0
M  V30 5742 C 527.916 -0.115333 3.38704 0
M  V30 5743 C 527.089 0.834493 4.29366 0
M  V30 5744 C 526.148 0.141855 5.26009 0
M  V30 5745 O 525.174 0.777151 5.6387 0
M  V30 5746 N 526.376 -1.11934 5.69606 0
M  V30 5747 H 529.141 1.50981 2.58892 0
M  V30 5748 H 526.702 0.938008 1.31958 0
M  V30 5749 H 528.694 -0.588918 4.00392 0
M  V30 5750 H 527.264 -0.908967 2.99093 0
M  V30 5751 H 526.484 1.48762 3.65053 0
M  V30 5752 H 527.772 1.4791 4.86827 0
M  V30 5753 H 527.17 -1.65574 5.40927 0
M  V30 5754 H 525.727 -1.53692 6.33421 0
M  V30 5755 N 529.16 -1.33526 0.837174 0
M  V30 5756 C 530.11 -2.2672 0.241269 0
M  V30 5757 C 531.094 -1.49183 -0.602756 0
M  V30 5758 O 532.286 -1.71052 -0.455002 0
M  V30 5759 C 529.415 -3.38294 -0.584125 0
M  V30 5760 C 528.501 -4.23231 0.271315 0
M  V30 5761 N 528.892 -4.87473 1.34922 0
M  V30 5762 C 527.19 -4.45962 0.0580589 0
M  V30 5763 C 527.891 -5.50685 1.87405 0
M  V30 5764 N 526.867 -5.30732 1.17578 0
M  V30 5765 H 530.669 -2.73903 1.06558 0
M  V30 5766 H 528.183 -1.47411 0.68145 0
M  V30 5767 H 530.18 -4.04044 -1.02731 0
M  V30 5768 H 528.84 -2.9266 -1.40643 0
M  V30 5769 H 529.851 -4.88077 1.7321 0
M  V30 5770 H 526.528 -4.11052 -0.730938 0
M  V30 5771 H 527.918 -6.11845 2.77661 0
M  V30 5772 N 530.638 -0.59345 -1.46 0
M  V30 5773 C 531.585 0.133618 -2.30413 0
M  V30 5774 C 532.555 0.873736 -1.41262 0
M  V30 5775 O 533.74 0.862279 -1.70204 0
M  V30 5776 C 530.88 1.13434 -3.25924 0
M  V30 5777 C 529.993 0.39656 -4.30176 0
M  V30 5778 C 529.128 1.38575 -5.12806 0
M  V30 5779 C 528.167 0.634984 -6.08797 0
M  V30 5780 N 527.304 1.57276 -6.84258 0
M  V30 5781 H 532.144 -0.592252 -2.92055 0
M  V30 5782 H 529.681 -0.303874 -1.43927 0
M  V30 5783 H 531.639 1.72752 -3.79753 0
M  V30 5784 H 530.269 1.82779 -2.66067 0
M  V30 5785 H 529.321 -0.311861 -3.79119 0
M  V30 5786 H 530.633 -0.189869 -4.98438 0
M  V30 5787 H 529.787 2.05141 -5.70966 0
M  V30 5788 H 528.526 2.00611 -4.44529 0
M  V30 5789 H 527.531 -0.0443925 -5.49782 0
M  V30 5790 H 528.756 0.0198678 -6.79097 0
M  V30 5791 H 526.702 2.18103 -6.18682 0
M  V30 5792 H 526.619 1.03941 -7.48821 0
M  V30 5793 H 527.887 2.22844 -7.46968 0
M  V30 5794 N 532.116 1.54067 -0.331816 0
M  V30 5795 C 533.048 2.22139 0.564538 0
M  V30 5796 C 534.061 1.22408 1.07332 0
M  V30 5797 O 535.25 1.4883 0.985481 0
M  V30 5798 C 532.35 2.87876 1.78831 0
M  V30 5799 C 531.523 4.13817 1.41682 0
M  V30 5800 C 530.582 4.63072 2.49901 0
M  V30 5801 O 529.608 5.27562 2.13699 0
M  V30 5802 N 530.81 4.38001 3.80967 0
M  V30 5803 H 533.575 2.99694 -0.0183736 0
M  V30 5804 H 531.136 1.61153 -0.155396 0
M  V30 5805 H 533.128 3.17747 2.50637 0
M  V30 5806 H 531.698 2.13977 2.27887 0
M  V30 5807 H 530.918 3.9062 0.530044 0
M  V30 5808 H 532.206 4.95762 1.14443 0
M  V30 5809 H 531.604 3.864 4.13173 0
M  V30 5810 H 530.161 4.72507 4.48977 0
M  V30 5811 N 533.594 0.0601682 1.57485 0
M  V30 5812 C 535.01 -0.296422 1.56823 0
M  V30 5813 C 535.21 -1.70831 1.0686 0
M  V30 5814 O 534.266 -2.4174 0.729245 0
M  V30 5815 C 535.579 -0.116681 3.00474 0
M  V30 5816 C 537.127 -0.187103 3.1244 0
M  V30 5817 C 537.602 -0.035783 4.57986 0
M  V30 5818 N 539.093 -0.0917676 4.63109 0
M  V30 5819 C 539.828 0.00107251 5.734 0
M  V30 5820 N 539.324 0.146773 6.92645 0
M  V30 5821 N 541.117 -0.0551577 5.62073 0
M  V30 5822 H 533.268 0.983055 1.88281 0
M  V30 5823 H 535.531 0.382386 0.867459 0
M  V30 5824 H 535.237 0.85712 3.41096 0
M  V30 5825 H 535.111 -0.873929 3.66936 0
M  V30 5826 H 537.498 -1.15138 2.71712 0
M  V30 5827 H 537.579 0.601052 2.48638 0
M  V30 5828 H 537.223 0.925212 4.99402 0
M  V30 5829 H 537.153 -0.843196 5.19806 0
M  V30 5830 H 539.644 -0.203261 3.77353 0
M  V30 5831 H 539.957 0.210076 7.72514 0
M  V30 5832 H 538.302 0.181979 6.94762 0
M  V30 5833 H 541.493 -0.167605 4.678 0
M  V30 5834 H 541.666 0.020652 6.47997 0
M  V30 5835 N 535.072 -1.5615 -0.213296 0
M  V30 5836 C 536.488 -1.49327 -0.56336 0
M  V30 5837 C 536.688 -0.756826 -1.86747 0
M  V30 5838 O 535.744 -0.299866 -2.50713 0
M  V30 5839 C 537.057 -2.9392 -0.634944 0
M  V30 5840 C 538.605 -3.04487 -0.725013 0
M  V30 5841 C 539.08 -4.50456 -0.82787 0
M  V30 5842 N 540.571 -4.54533 -0.891876 0
M  V30 5843 C 541.306 -5.64766 -0.991315 0
M  V30 5844 N 540.802 -6.84733 -1.05419 0
M  V30 5845 N 542.595 -5.52637 -1.02709 0
M  V30 5846 H 534.746 -2.02453 0.642366 0
M  V30 5847 H 537.009 -0.920548 0.226487 0
M  V30 5848 H 536.715 -3.50783 0.253859 0
M  V30 5849 H 536.589 -3.46274 -1.49579 0
M  V30 5850 H 538.976 -2.47685 -1.60425 0
M  V30 5851 H 539.057 -2.55289 0.161669 0
M  V30 5852 H 538.701 -5.07878 0.0469464 0
M  V30 5853 H 538.631 -4.97369 -1.73009 0
M  V30 5854 H 541.122 -3.68141 -0.85327 0
M  V30 5855 H 541.435 -7.64493 -1.13007 0
M  V30 5856 H 539.78 -6.87427 -1.02318 0
M  V30 5857 H 542.971 -4.5784 -0.974687 0
M  V30 5858 H 543.144 -6.38576 -1.10113 0
M  V30 5859 N 536.55 0.480323 -1.50102 0
M  V30 5860 C 537.79 1.24301 -1.62261 0
M  V30 5861 C 538.154 1.89452 -0.311758 0
M  V30 5862 O 539.355 2.67022 -0.308696 0
M  V30 5863 C 537.626 2.26588 -2.76392 0
M  V30 5864 S 539.185 3.11919 -3.08629 0
M  V30 5865 H 536.003 0.42215 -0.57211 0
M  V30 5866 H 538.605 0.541591 -1.87848 0
M  V30 5867 H 537.309 1.7729 -3.70131 0
M  V30 5868 H 536.84 3.01371 -2.52862 0
M  V30 5869 H 538.855 4.27598 -2.51742 0
M  V30 5870 N 538.028 1.39524 0.732853 0
M  V30 5871 C 539.253 1.40329 1.52717 0
M  V30 5872 C 539.678 0.000286574 1.881 0
M  V30 5873 O 539.036 -0.987262 1.52062 0
M  V30 5874 C 539.084 2.28464 2.78992 0
M  V30 5875 O 538.188 1.716 3.75003 0
M  V30 5876 H 537.529 0.47778 0.461109 0
M  V30 5877 H 540.059 1.83546 0.903996 0
M  V30 5878 H 540.069 2.43051 3.27705 0
M  V30 5879 H 538.744 3.30425 2.52572 0
M  V30 5880 H 537.321 1.66267 3.33781 0
M  V30 5881 N 539.506 -0.963266 1.24736 0
M  V30 5882 C 540.436 -2.07628 1.06832 0
M  V30 5883 C 541.417 -1.70088 -0.0200566 0
M  V30 5884 O 542.602 -1.93636 0.147854 0
M  V30 5885 C 539.732 -3.40636 0.677069 0
M  V30 5886 C 538.686 -3.9215 1.71471 0
M  V30 5887 C 538.012 -5.21553 1.1784 0
M  V30 5888 C 539.312 -4.19493 3.11164 0
M  V30 5889 H 541.006 -2.22864 1.9993 0
M  V30 5890 H 538.552 -1.07093 0.96266 0
M  V30 5891 H 540.505 -4.17941 0.538792 0
M  V30 5892 H 539.229 -3.25313 -0.289612 0
M  V30 5893 H 537.888 -3.17005 1.84128 0
M  V30 5894 H 537.536 -5.02593 0.202195 0
M  V30 5895 H 537.236 -5.56988 1.87185 0
M  V30 5896 H 538.76 -6.01463 1.05233 0
M  V30 5897 H 540.174 -4.87487 3.01711 0
M  V30 5898 H 538.571 -4.66165 3.77902 0
M  V30 5899 H 539.641 -3.26097 3.58871 0
M  V30 5900 N 540.985 -1.06182 -1.16461 0
M  V30 5901 C 541.948 -0.675723 -2.19013 0
M  V30 5902 C 542.948 0.277963 -1.58379 0
M  V30 5903 O 544.138 0.0604962 -1.74095 0
M  V30 5904 C 541.27 0.00591459 -3.40899 0
M  V30 5905 H 542.463 -1.58353 -2.54685 0
M  V30 5906 H 540.016 -0.856908 -1.30716 0
M  V30 5907 H 540.751 0.92652 -3.10783 0
M  V30 5908 H 540.536 -0.67984 -3.86161 0
M  V30 5909 H 542.026 0.26181 -4.16778 0
M  V30 5910 N 542.463 1.3308 -0.844243 0
M  V30 5911 C 543.688 2.02341 -0.455282 0
M  V30 5912 C 544.113 1.6308 0.93737 0
M  V30 5913 O 543.471 0.826118 1.61385 0
M  V30 5914 C 543.519 3.55743 -0.58988 0
M  V30 5915 O 542.623 4.1063 0.38166 0
M  V30 5916 H 541.964 0.637898 -0.184343 0
M  V30 5917 H 544.494 1.6986 -1.14056 0
M  V30 5918 H 544.504 4.05243 -0.473522 0
M  V30 5919 H 543.179 3.83662 -1.60549 0
M  V30 5920 H 541.756 3.72236 0.22241 0
M  V30 5921 N 543.941 0.601185 1.45683 0
M  V30 5922 C 545.187 0.0940202 2.02582 0
M  V30 5923 C 545.52 -1.26972 1.46941 0
M  V30 5924 O 544.795 -1.83613 0.641612 0
M  V30 5925 C 545.078 0.0481715 3.60068 0
M  V30 5926 C 544.931 1.44212 4.26055 0
M  V30 5927 C 546.25 -0.642975 4.35378 0
M  V30 5928 H 543.369 0.0356404 0.736138 0
M  V30 5929 H 546.011 0.771929 1.73612 0
M  V30 5930 H 544.161 -0.529128 3.8488 0
M  V30 5931 H 545.833 2.06601 4.12449 0
M  V30 5932 H 544.076 2.00465 3.84703 0
M  V30 5933 H 544.747 1.36234 5.34925 0
M  V30 5934 H 547.223 -0.152351 4.15821 0
M  V30 5935 H 546.099 -0.644141 5.45107 0
M  V30 5936 H 546.36 -1.70785 4.0778 0
M  V30 5937 N 545.419 -1.53889 0.339982 0
M  V30 5938 C 546.329 -2.28604 -0.526988 0
M  V30 5939 C 547.345 -1.33578 -1.11503 0
M  V30 5940 O 548.521 -1.66612 -1.13148 0
M  V30 5941 C 545.586 -3.04164 -1.66389 0
M  V30 5942 C 544.647 -4.14809 -1.10599 0
M  V30 5943 C 543.88 -4.86756 -2.18871 0
M  V30 5944 O 544.103 -4.58343 -3.39526 0
M  V30 5945 O 543.037 -5.73289 -1.83366 0
M  V30 5946 H 546.863 -3.03594 0.0802707 0
M  V30 5947 H 544.448 -1.4903 0.105141 0
M  V30 5948 H 546.33 -3.51427 -2.32544 0
M  V30 5949 H 545.005 -2.32035 -2.25703 0
M  V30 5950 H 543.912 -3.71857 -0.409067 0
M  V30 5951 H 545.245 -4.89029 -0.557771 0
M  V30 5952 N 546.897 -0.0685191 -1.57451 0
M  V30 5953 C 547.83 0.935736 -2.08133 0
M  V30 5954 C 548.808 1.29317 -0.985698 0
M  V30 5955 O 549.992 1.40304 -1.25886 0
M  V30 5956 C 547.119 2.2448 -2.53627 0
M  V30 5957 C 546.165 2.03917 -3.74593 0
M  V30 5958 S 546.998 1.30154 -5.19442 0
M  V30 5959 C 548.154 2.62346 -5.68265 0
M  V30 5960 H 548.387 0.504473 -2.92989 0
M  V30 5961 H 545.92 0.144169 -1.53725 0
M  V30 5962 H 547.878 2.99718 -2.80499 0
M  V30 5963 H 546.539 2.64731 -1.69045 0
M  V30 5964 H 545.732 3.00788 -4.04404 0
M  V30 5965 H 545.334 1.36815 -3.48077 0
M  V30 5966 H 547.626 3.58448 -5.7491 0
M  V30 5967 H 548.569 2.3715 -6.67207 0
M  V30 5968 H 548.977 2.69401 -4.96068 0
M  V30 5969 N 548.375 1.56261 0.205012 0
M  V30 5970 C 549.6 1.84491 0.947512 0
M  V30 5971 C 550.025 0.650894 1.76479 0
M  V30 5972 O 549.383 -0.40035 1.76824 0
M  V30 5973 C 549.431 3.10863 1.82747 0
M  V30 5974 O 548.535 2.90719 2.925 0
M  V30 5975 H 547.876 0.607783 0.267386 0
M  V30 5976 H 550.406 2.03485 0.213323 0
M  V30 5977 H 550.416 3.41399 2.23407 0
M  V30 5978 H 549.091 3.97392 1.2269 0
M  V30 5979 H 547.668 2.71457 2.55667 0
M  V30 5980 N 549.853 -0.472356 1.50355 0
M  V30 5981 C 550.816 -1.5529 1.68576 0
M  V30 5982 C 551.816 -1.50863 0.556511 0
M  V30 5983 O 553.006 -1.53505 0.823516 0
M  V30 5984 C 550.138 -2.94921 1.70981 0
M  V30 5985 H 551.331 -1.40451 2.64978 0
M  V30 5986 H 548.884 -0.698645 1.39816 0
M  V30 5987 H 549.619 -3.15204 0.762675 0
M  V30 5988 H 549.404 -2.99541 2.53017 0
M  V30 5989 H 550.894 -3.73372 1.87037 0
M  V30 5990 N 551.331 -1.39911 -0.725443 0
M  V30 5991 C 552.577 -1.37858 -1.48738 0
M  V30 5992 C 552.91 0.0224187 -1.94187 0
M  V30 5993 O 552.185 0.989204 -1.67466 0
M  V30 5994 C 552.468 -2.3594 -2.72038 0
M  V30 5995 C 552.321 -3.85023 -2.32546 0
M  V30 5996 C 553.64 -2.31704 -3.74167 0
M  V30 5997 H 550.759 -0.502074 -0.539528 0
M  V30 5998 H 553.401 -1.70974 -0.828728 0
M  V30 5999 H 551.551 -2.0783 -3.28236 0
M  V30 6000 H 553.223 -4.2392 -1.81905 0
M  V30 6001 H 551.466 -4.01334 -1.64661 0
M  V30 6002 H 552.137 -4.49152 -3.20884 0
M  V30 6003 H 554.613 -2.5658 -3.27576 0
M  V30 6004 H 553.489 -3.02395 -4.58092 0
M  V30 6005 H 553.75 -1.3253 -4.21768 0
M  V30 6006 N 552.809 0.956637 -1.25245 0
M  V30 6007 C 553.772 2.03457 -1.05537 0
M  V30 6008 C 554.772 1.60798 -0.00886317 0
M  V30 6009 O 555.962 1.72384 -0.250865 0
M  V30 6010 C 553.094 3.35543 -0.601965 0
M  V30 6011 H 554.287 2.22372 -2.01223 0
M  V30 6012 H 551.84 1.13344 -1.07623 0
M  V30 6013 H 552.575 3.22323 0.357584 0
M  V30 6014 H 552.36 3.67854 -1.35743 0
M  V30 6015 H 553.85 4.14769 -0.485454 0
M  V30 6016 N 554.287 1.06798 1.15896 0
M  V30 6017 C 555.698 0.811355 1.68149 0
M  V30 6018 C 556.049 -0.664339 1.8461 0
M  V30 6019 O 555.174 -1.51485 1.54535 0
M  V30 6020 C 555.769 1.46624 3.05429 0
M  V30 6021 C 554.328 1.25726 3.54781 0
M  V30 6022 C 553.475 1.53949 2.3064 0
M  V30 6023 H 556.426 1.23078 1.00187 0
M  V30 6024 H 556.447 0.88437 3.7008 0
M  V30 6025 H 555.959 2.54025 2.93416 0
M  V30 6026 H 554.06 0.20322 3.72045 0
M  V30 6027 H 554.173 1.97354 4.36564 0
M  V30 6028 H 552.537 0.96025 2.35905 0
M  V30 6029 H 553.32 2.6252 2.2122 0
M  V30 6030 N 555.766 -1.3263 0.851289 0
M  V30 6031 C 557.177 -1.79653 0.5081 0
M  V30 6032 C 557.528 -1.70327 -0.973815 0
M  V30 6033 O 556.653 -1.25986 -1.75944 0
M  V30 6034 C 557.248 -3.26196 0.915515 0
M  V30 6035 C 555.807 -3.71187 0.624277 0
M  V30 6036 C 554.954 -2.53804 1.11709 0
M  V30 6037 H 557.905 -1.19976 1.03882 0
M  V30 6038 H 557.926 -3.79801 0.230535 0
M  V30 6039 H 557.438 -3.32952 1.99411 0
M  V30 6040 H 555.539 -3.69948 -0.443737 0
M  V30 6041 H 555.652 -4.64132 1.18821 0
M  V30 6042 H 554.016 -2.48964 0.537484 0
M  V30 6043 H 554.799 -2.63315 2.20272 0
M  V30 6044 N 557.244 -0.608902 -1.45362 0
M  V30 6045 C 558.655 -0.189511 -1.85736 0
M  V30 6046 C 559.006 1.2539 -1.50903 0
M  V30 6047 O 558.131 1.95094 -0.936347 0
M  V30 6048 C 558.726 -0.33716 -3.37118 0
M  V30 6049 C 557.285 0.0275487 -3.7639 0
M  V30 6050 C 556.432 -0.660983 -2.69307 0
M  V30 6051 H 559.383 -0.815499 -1.36144 0
M  V30 6052 H 559.404 0.430257 -3.7806 0
M  V30 6053 H 558.916 -1.38779 -3.62439 0
M  V30 6054 H 557.017 1.0773 -3.56686 0
M  V30 6055 H 557.13 -0.367018 -4.77692 0
M  V30 6056 H 555.494 -0.0984958 -2.54509 0
M  V30 6057 H 556.277 -1.71377 -2.97464 0
M  V30 6058 N 558.722 1.53707 -0.348139 0
M  V30 6059 C 559.685 2.23812 0.494058 0
M  V30 6060 C 560.685 1.23989 1.02388 0
M  V30 6061 O 561.875 1.48395 0.912396 0
M  V30 6062 C 559.007 2.96133 1.68872 0
M  V30 6063 H 560.2 2.99663 -0.119141 0
M  V30 6064 H 557.753 1.55983 -0.0995539 0
M  V30 6065 H 558.488 2.24481 2.34049 0
M  V30 6066 H 558.273 3.69357 1.31596 0
M  V30 6067 H 559.763 3.49475 2.28597 0
M  V30 6068 N 560.2 0.0768682 1.57412 0
M  V30 6069 C 561.425 -0.603404 1.98428 0
M  V30 6070 C 561.85 -1.62047 0.955108 0
M  V30 6071 O 561.208 -1.81129 -0.0786778 0
M  V30 6072 C 561.256 -1.24396 3.38464 0
M  V30 6073 O 560.36 -2.35982 3.3821 0
M  V30 6074 H 559.701 -0.154741 0.645718 0
M  V30 6075 H 562.231 0.152885 2.04028 0
M  V30 6076 H 562.241 -1.5896 3.7576 0
M  V30 6077 H 560.916 -0.498735 4.12899 0
M  V30 6078 H 559.493 -2.03173 3.1269 0
M  V30 6079 N 561.678 -1.56367 -0.196722 0
M  V30 6080 C 562.626 -1.95304 -1.2633 0
M  V30 6081 C 563.62 -0.838252 -1.47206 0
M  V30 6082 O 564.826 -1.02325 -1.48087 0
M  V30 6083 H 561.201 -0.621013 -0.424083 0
M  V30 6084 H 563.172 -2.84254 -0.907879 0
M  V30 6085 C 561.921 -2.3074 -2.60104 0
M  V30 6086 H 561.244 -3.16047 -2.44856 0
M  V30 6087 H 562.684 -2.61849 -3.33484 0
M  V30 6088 C 561.143 -1.14143 -3.16975 0
M  V30 6089 O 561.673 -0.415602 -3.99544 0
M  V30 6090 N 559.879 -0.91867 -2.75697 0
M  V30 6091 H 559.426 -1.51065 -2.08656 0
M  V30 6092 H 559.384 -0.140321 -3.14087 0
M  V30 6093 N 563.156 0.464375 -1.50603 0
M  V30 6094 C 564.404 1.21356 -1.61608 0
M  V30 6095 C 564.725 1.92329 -0.321643 0
M  V30 6096 O 563.995 1.84403 0.661232 0
M  V30 6097 H 562.575 0.45094 -0.595535 0
M  V30 6098 H 565.237 0.535046 -1.87412 0
M  V30 6099 H 564.333 1.95783 -2.43054 0
M  V30 6100 N 564.634 1.40294 0.718013 0
M  V30 6101 C 565.582 1.40536 1.85344 0
M  V30 6102 C 566.576 0.286192 1.66965 0
M  V30 6103 O 567.782 0.457105 1.74099 0
M  V30 6104 H 564.157 0.439236 0.61039 0
M  V30 6105 H 566.128 2.36275 1.82255 0
M  V30 6106 C 564.877 1.28245 3.23185 0
M  V30 6107 H 564.2 2.1364 3.37932 0
M  V30 6108 H 565.64 1.32474 4.02774 0
M  V30 6109 C 564.099 -0.0075503 3.36899 0
M  V30 6110 O 564.629 -0.971391 3.89778 0
M  V30 6111 N 562.835 -0.0762479 2.905 0
M  V30 6112 H 562.382 0.708819 2.47656 0
M  V30 6113 H 562.34 -0.938846 3.00055 0
M  V30 6114 N 566.112 -0.949982 1.2575 0
M  V30 6115 C 567.042 -2.06483 1.09028 0
M  V30 6116 C 568.023 -1.701 -0.00201532 0
M  V30 6117 O 569.208 -1.93469 0.168383 0
M  V30 6118 C 566.338 -3.39899 0.71316 0
M  V30 6119 C 565.292 -3.90309 1.75621 0
M  V30 6120 C 564.618 -5.20274 1.23365 0
M  V30 6121 C 565.918 -4.16169 3.15596 0
M  V30 6122 H 567.612 -2.20731 2.02283 0
M  V30 6123 H 565.158 -1.06066 0.973964 0
M  V30 6124 H 567.111 -4.17346 0.58309 0
M  V30 6125 H 565.835 -3.25602 -0.255091 0
M  V30 6126 H 564.494 -3.15035 1.8748 0
M  V30 6127 H 564.142 -5.02351 0.255491 0
M  V30 6128 H 563.842 -5.54971 1.93082 0
M  V30 6129 H 565.366 -6.00314 1.11607 0
M  V30 6130 H 566.78 -4.84259 3.06864 0
M  V30 6131 H 565.177 -4.62131 3.82825 0
M  V30 6132 H 566.247 -3.22273 3.6231 0
M  V30 6133 N 567.59 -1.07411 -1.15328 0
M  V30 6134 C 568.52 -0.716472 -2.22236 0
M  V30 6135 C 569.501 0.296373 -1.67498 0
M  V30 6136 O 570.686 0.168989 -1.93463 0
M  V30 6137 C 567.816 -0.114142 -3.47112 0
M  V30 6138 C 566.77 -1.05421 -4.14814 0
M  V30 6139 C 566.096 -0.314604 -5.33774 0
M  V30 6140 C 567.396 -2.38808 -4.64508 0
M  V30 6141 H 569.09 -1.61029 -2.52408 0
M  V30 6142 H 566.636 -0.775702 -1.21321 0
M  V30 6143 H 568.589 0.148001 -4.2114 0
M  V30 6144 H 567.313 0.814755 -3.16274 0
M  V30 6145 H 565.972 -1.30128 -3.42728 0
M  V30 6146 H 565.62 0.617772 -4.99192 0
M  V30 6147 H 565.32 -0.941209 -5.80013 0
M  V30 6148 H 566.844 -0.0602747 -6.1057 0
M  V30 6149 H 568.258 -2.18424 -5.3006 0
M  V30 6150 H 566.655 -2.97069 -5.21412 0
M  V30 6151 H 567.725 -3.01067 -3.80114 0
M  V30 6152 N 569.068 1.32177 -0.85831 0
M  V30 6153 C 570.298 2.01021 -0.476889 0
M  V30 6154 C 570.706 1.64653 0.931995 0
M  V30 6155 O 570.049 0.865713 1.62022 0
M  V30 6156 C 570.111 3.55413 -0.540528 0
M  V30 6157 C 569.775 4.1522 -1.90895 0
M  V30 6158 C 570.772 4.3318 -2.87491 0
M  V30 6159 C 568.457 4.51212 -2.20709 0
M  V30 6160 C 570.451 4.86306 -4.1205 0
M  V30 6161 C 568.138 5.04042 -3.45521 0
M  V30 6162 C 569.136 5.21538 -4.41007 0
M  V30 6163 O 568.824 5.73238 -5.63608 0
M  V30 6164 H 568.556 0.650059 -0.18547 0
M  V30 6165 H 571.11 1.69648 -1.15796 0
M  V30 6166 H 569.34 3.86196 0.19741 0
M  V30 6167 H 571.029 4.05526 -0.174191 0
M  V30 6168 H 571.795 4.05704 -2.65762 0
M  V30 6169 H 567.674 4.36878 -1.4717 0
M  V30 6170 H 571.218 4.99877 -4.86589 0
M  V30 6171 H 567.115 5.30952 -3.67098 0
M  V30 6172 H 567.883 5.91625 -5.65617 0
M  V30 6173 N 570.547 0.616602 1.45037 0
M  V30 6174 C 571.796 0.112861 2.01384 0
M  V30 6175 C 572.109 -1.26758 1.48969 0
M  V30 6176 O 573.315 -1.86454 1.9735 0
M  V30 6177 C 571.771 0.151057 3.59583 0
M  V30 6178 C 571.379 1.53191 4.20995 0
M  V30 6179 C 573.123 -0.296974 4.2346 0
M  V30 6180 C 571.03 1.526 5.71373 0
M  V30 6181 H 569.96 0.0384254 0.75302 0
M  V30 6182 H 572.611 0.773262 1.66412 0
M  V30 6183 H 570.993 -0.57617 3.91786 0
M  V30 6184 H 572.167 2.28156 4.00352 0
M  V30 6185 H 570.482 1.92279 3.69348 0
M  V30 6186 H 573.079 -0.320712 5.33737 0
M  V30 6187 H 573.422 -1.32145 3.9477 0
M  V30 6188 H 573.955 0.377279 3.96007 0
M  V30 6189 H 570.694 2.52837 6.04776 0
M  V30 6190 H 570.214 0.819064 5.94181 0
M  V30 6191 H 571.893 1.25357 6.3474 0
M  V30 6192 N 572.025 -1.5352 0.356285 0
M  V30 6193 C 573.273 -2.00719 -0.235837 0
M  V30 6194 C 573.594 -1.24551 -1.5004 0
M  V30 6195 O 572.864 -0.356185 -1.92635 0
M  V30 6196 H 571.444 -0.741542 -0.0901366 0
M  V30 6197 H 574.106 -1.88887 0.480378 0
M  V30 6198 H 573.202 -3.08551 -0.469357 0
M  V30 6199 N 573.503 -0.0852151 -1.57369 0
M  V30 6200 C 574.75 0.580806 -1.93992 0
M  V30 6201 C 575.078 1.68801 -0.966252 0
M  V30 6202 O 574.333 1.95694 0.0158649 0
M  V30 6203 C 574.632 1.18482 -3.3719 0
M  V30 6204 C 574.298 0.2024 -4.50446 0
M  V30 6205 C 572.96 -0.0678318 -4.81152 0
M  V30 6206 C 575.312 -0.46895 -5.19086 0
M  V30 6207 C 572.64 -1.01627 -5.77831 0
M  V30 6208 C 574.992 -1.4058 -6.16782 0
M  V30 6209 C 573.656 -1.68436 -6.45899 0
M  V30 6210 H 572.926 0.212532 -0.709867 0
M  V30 6211 H 575.573 -0.158947 -1.90839 0
M  V30 6212 H 573.878 2.0006 -3.36873 0
M  V30 6213 H 575.575 1.70767 -3.62822 0
M  V30 6214 H 572.165 0.423208 -4.26505 0
M  V30 6215 H 576.349 -0.273307 -4.95547 0
M  V30 6216 H 571.605 -1.2392 -5.9871 0
M  V30 6217 H 575.779 -1.93188 -6.69068 0
M  V30 6218 H 573.406 -2.42088 -7.20623 0
M  V30 6219 N 574.981 1.5647 0.188427 0
M  V30 6220 C 576.397 1.50204 0.539532 0
M  V30 6221 C 576.597 0.78644 1.85519 0
M  V30 6222 O 575.653 0.339714 2.50204 0
M  V30 6223 C 576.966 2.94893 0.588103 0
M  V30 6224 C 578.514 3.05602 0.67648 0
M  V30 6225 C 578.989 4.51716 0.756101 0
M  V30 6226 N 580.48 4.55894 0.819451 0
M  V30 6227 C 581.215 5.66272 0.90134 0
M  V30 6228 N 580.711 6.86323 0.945118 0
M  V30 6229 N 582.504 5.54201 0.939043 0
M  V30 6230 H 574.655 2.01406 -0.674493 0
M  V30 6231 H 576.918 0.916828 -0.241103 0
M  V30 6232 H 576.624 3.50334 -0.309633 0
M  V30 6233 H 576.498 3.4861 1.44051 0
M  V30 6234 H 578.885 2.50206 1.56465 0
M  V30 6235 H 578.966 2.54999 -0.202262 0
M  V30 6236 H 578.61 5.07739 -0.12774 0
M  V30 6237 H 578.54 5.00058 1.65074 0
M  V30 6238 H 581.031 3.69452 0.794594 0
M  V30 6239 H 581.344 7.66194 1.0083 0
M  V30 6240 H 579.689 6.88968 0.913683 0
M  V30 6241 H 582.88 4.59333 0.901725 0
M  V30 6242 H 583.053 6.40247 0.999402 0
M  V30 6243 N 576.459 -0.456382 1.50847 0
M  V30 6244 C 577.707 -1.20497 1.62249 0
M  V30 6245 C 578.028 -1.92156 0.331839 0
M  V30 6246 O 577.298 -1.84751 -0.651443 0
M  V30 6247 H 575.878 -0.447775 0.597918 0
M  V30 6248 H 578.54 -0.525099 1.87693 0
M  V30 6249 H 577.636 -1.94492 2.44089 0
M  V30 6250 N 577.937 -1.40673 -0.710563 0
M  V30 6251 C 578.867 -1.44095 -1.83736 0
M  V30 6252 C 579.848 -0.301286 -1.67411 0
M  V30 6253 O 581.033 -0.510618 -1.87367 0
M  V30 6254 C 578.163 -1.30773 -3.21738 0
M  V30 6255 C 577.117 -2.42395 -3.52745 0
M  V30 6256 C 576.443 -2.14147 -4.89944 0
M  V30 6257 C 577.743 -3.84738 -3.53234 0
M  V30 6258 H 579.437 -2.38396 -1.81129 0
M  V30 6259 H 576.983 -1.14746 -0.870017 0
M  V30 6260 H 578.936 -1.31783 -4.00264 0
M  V30 6261 H 577.66 -0.329507 -3.24934 0
M  V30 6262 H 576.319 -2.40643 -2.76562 0
M  V30 6263 H 575.967 -1.14703 -4.89747 0
M  V30 6264 H 575.667 -2.88934 -5.11655 0
M  V30 6265 H 577.191 -2.16848 -5.70797 0
M  V30 6266 H 578.605 -3.88286 -4.2179 0
M  V30 6267 H 577.002 -4.59085 -3.86473 0
M  V30 6268 H 578.072 -4.13962 -2.52514 0
M  V30 6269 N 579.415 0.9433 -1.26252 0
M  V30 6270 C 580.692 1.66639 -1.02424 0
M  V30 6271 C 581.072 2.06335 0.446006 0
M  V30 6272 O 580.42 1.78551 1.42589 0
M  V30 6273 C 580.63 2.88019 -1.97094 0
M  V30 6274 C 581.978 3.59718 -2.25584 0
M  V30 6275 O 583.002 2.9812 -1.94943 0
M  V30 6276 O 581.861 4.7066 -2.77743 0
M  V30 6277 H 578.955 0.729643 -0.389294 0
M  V30 6278 H 581.501 0.995218 -1.37454 0
M  V30 6279 H 580.273 2.5556 -2.96319 0
M  V30 6280 H 579.896 3.62863 -1.62532 0
M  V30 6281 N 580.893 1.08022 1.14757 0
M  V30 6282 C 582.141 0.805913 1.85336 0
M  V30 6283 C 582.462 -0.670162 1.83122 0
M  V30 6284 O 581.732 -1.48567 1.2769 0
M  V30 6285 H 580.312 0.295138 0.686223 0
M  V30 6286 H 582.974 1.36538 1.3908 0
M  V30 6287 H 582.07 1.14655 2.90277 0
M  V30 6288 N 582.371 -1.3172 0.865308 0
M  V30 6289 C 583.617 -1.97168 0.474633 0
M  V30 6290 C 583.95 -1.68263 -0.969604 0
M  V30 6291 O 583.225 -0.976588 -1.68205 0
M  V30 6292 C 583.508 -3.52689 0.726808 0
M  V30 6293 C 583.361 -3.91185 2.22024 0
M  V30 6294 C 584.68 -4.39689 0.190201 0
M  V30 6295 H 581.799 -0.716185 0.17392 0
M  V30 6296 H 584.441 -1.55925 1.08569 0
M  V30 6297 H 582.591 -3.8795 0.206705 0
M  V30 6298 H 584.263 -3.66049 2.80724 0
M  V30 6299 H 582.506 -3.3996 2.69462 0
M  V30 6300 H 583.177 -4.99604 2.34735 0
M  V30 6301 H 585.653 -4.11225 0.635103 0
M  V30 6302 H 584.529 -5.47469 0.396132 0
M  V30 6303 H 584.79 -4.32683 -0.907625 0
M  V30 6304 N 583.85 -0.624285 -1.44708 0
M  V30 6305 C 584.8 0.106466 -2.27751 0
M  V30 6306 C 585.784 0.822703 -1.38277 0
M  V30 6307 O 586.976 0.709939 -1.62138 0
M  V30 6308 C 584.105 1.092 -3.25469 0
M  V30 6309 C 583.191 0.375737 -4.22432 0
M  V30 6310 N 583.582 -0.591881 -5.02325 0
M  V30 6311 C 581.88 0.621093 -4.41654 0
M  V30 6312 C 582.581 -1.01443 -5.72786 0
M  V30 6313 N 581.557 -0.354651 -5.42442 0
M  V30 6314 H 585.359 -0.636464 -2.86926 0
M  V30 6315 H 582.873 -0.44925 -1.56062 0
M  V30 6316 H 584.87 1.63006 -3.83712 0
M  V30 6317 H 583.529 1.8353 -2.67856 0
M  V30 6318 H 584.541 -0.969389 -5.08747 0
M  V30 6319 H 581.218 1.34779 -3.95147 0
M  V30 6320 H 582.608 -1.81345 -6.46965 0
M  V30 6321 N 585.328 1.53329 -0.364422 0
M  V30 6322 C 586.568 2.0315 0.22572 0
M  V30 6323 C 586.932 1.24589 1.46087 0
M  V30 6324 O 588.133 1.64411 2.12656 0
M  V30 6325 C 586.404 3.53718 0.511663 0
M  V30 6326 S 587.963 4.25412 1.07564 0
M  V30 6327 H 584.781 0.70795 0.0657843 0
M  V30 6328 H 587.383 1.88811 -0.507019 0
M  V30 6329 H 586.087 4.08497 -0.394784 0
M  V30 6330 H 585.618 3.72217 1.27351 0
M  V30 6331 H 587.633 4.36486 2.35997 0
M  V30 6332 N 586.806 0.0935595 1.57322 0
M  V30 6333 C 588.052 -0.571355 1.94585 0
M  V30 6334 C 588.385 -1.67929 0.975366 0
M  V30 6335 O 587.66 -1.94498 0.00816206 0
M  V30 6336 C 587.943 -1.12797 3.41978 0
M  V30 6337 C 587.796 -0.0251881 4.49793 0
M  V30 6338 C 589.115 -2.02682 3.90651 0
M  V30 6339 H 586.234 -0.206223 0.70756 0
M  V30 6340 H 588.876 0.163956 1.89291 0
M  V30 6341 H 587.026 -1.75461 3.4662 0
M  V30 6342 H 588.698 0.608979 4.57263 0
M  V30 6343 H 586.941 0.641399 4.29032 0
M  V30 6344 H 587.612 -0.455433 5.50118 0
M  V30 6345 H 590.088 -1.49925 3.88152 0
M  V30 6346 H 588.964 -2.38555 4.94351 0
M  V30 6347 H 589.225 -2.94362 3.29854 0
M  V30 6348 N 588.284 -1.56567 -0.180126 0
M  V30 6349 C 589.695 -1.7126 -0.743422 0
M  V30 6350 C 590.046 -0.70263 -1.83187 0
M  V30 6351 O 589.171 0.137856 -2.1596 0
M  V30 6352 C 589.766 -3.10512 -1.35528 0
M  V30 6353 C 588.325 -3.26919 -1.8655 0
M  V30 6354 C 587.472 -2.67213 -0.741099 0
M  V30 6355 H 590.423 -1.58636 0.0451543 0
M  V30 6356 H 590.444 -3.08673 -2.22489 0
M  V30 6357 H 589.956 -3.83997 -0.562862 0
M  V30 6358 H 588.057 -2.58376 -2.68464 0
M  V30 6359 H 588.17 -4.34574 -2.01699 0
M  V30 6360 H 586.534 -2.26788 -1.15927 0
M  V30 6361 H 587.317 -3.43277 0.0393291 0
M  V30 6362 N 589.762 0.448376 -1.51087 0
M  V30 6363 C 590.99 1.22143 -1.66999 0
M  V30 6364 C 591.405 1.85283 -0.362699 0
M  V30 6365 O 590.762 1.70236 0.65772 0
M  V30 6366 C 590.813 2.31357 -2.7777 0
M  V30 6367 O 590.534 1.70801 -4.03434 0
M  V30 6368 C 592.035 3.21836 -3.04855 0
M  V30 6369 H 589.255 0.368558 -0.560719 0
M  V30 6370 H 591.799 0.532618 -1.97442 0
M  V30 6371 H 589.954 2.95973 -2.49958 0
M  V30 6372 H 590.368 2.42895 -4.64868 0
M  V30 6373 H 591.842 3.94627 -3.85971 0
M  V30 6374 H 592.319 3.81949 -2.16821 0
M  V30 6375 H 592.925 2.62933 -3.34285 0
M  V30 6376 N 591.24 1.41047 0.703093 0
M  V30 6377 C 592.651 1.35657 1.28274 0
M  V30 6378 C 593.002 0.0360309 1.96167 0
M  V30 6379 O 592.127 -0.865833 1.98324 0
M  V30 6380 C 592.722 2.45707 2.33267 0
M  V30 6381 C 591.281 2.43738 2.86825 0
M  V30 6382 C 590.428 2.25941 1.60767 0
M  V30 6383 H 593.379 1.50672 0.49836 0
M  V30 6384 H 593.4 2.14333 3.14391 0
M  V30 6385 H 592.912 3.41805 1.83824 0
M  V30 6386 H 591.013 1.51375 3.40465 0
M  V30 6387 H 591.126 3.39779 3.37768 0
M  V30 6388 H 589.49 1.73681 1.86298 0
M  V30 6389 H 590.273 3.24054 1.1333 0
M  V30 6390 N 592.718 -0.936591 1.26751 0
M  V30 6391 C 593.995 -1.66094 1.03306 0
M  V30 6392 C 594.375 -2.06568 -0.435058 0
M  V30 6393 O 593.723 -1.79305 -1.41641 0
M  V30 6394 C 593.933 -2.86969 1.98619 0
M  V30 6395 C 595.281 -3.58516 2.27489 0
M  V30 6396 O 596.305 -2.97082 1.96522 0
M  V30 6397 O 595.164 -4.69181 2.80235 0
M  V30 6398 H 592.258 -0.727568 0.393158 0
M  V30 6399 H 594.804 -0.987914 1.3798 0
M  V30 6400 H 593.576 -2.53985 2.9767 0
M  V30 6401 H 593.199 -3.61996 1.64454 0
M  V30 6402 N 594.196 -1.08629 -1.14182 0
M  V30 6403 C 595.421 -0.83902 -1.89671 0
M  V30 6404 C 595.846 0.603332 -1.78161 0
M  V30 6405 O 595.204 1.42301 -1.12339 0
M  V30 6406 C 595.252 -1.26854 -3.37551 0
M  V30 6407 O 594.356 -0.42188 -4.10236 0
M  V30 6408 H 593.697 -0.304545 -0.590041 0
M  V30 6409 H 596.227 -1.4483 -1.44518 0
M  V30 6410 H 596.237 -1.25038 -3.88368 0
M  V30 6411 H 594.912 -2.31901 -3.45246 0
M  V30 6412 H 593.489 -0.503654 -3.69483 0
M  V30 6413 N 595.674 1.31259 -0.872281 0
M  V30 6414 C 596.922 1.96233 -0.483409 0
M  V30 6415 C 597.243 1.69276 0.968012 0
M  V30 6416 O 596.513 1.00943 1.67891 0
M  V30 6417 H 595.093 0.726025 -0.175774 0
M  V30 6418 H 597.755 1.60024 -1.11258 0
M  V30 6419 H 596.851 3.05403 -0.643075 0
M  V30 6420 N 597.152 0.631951 1.44375 0
M  V30 6421 C 598.398 0.13697 2.02337 0
M  V30 6422 C 598.731 -1.23826 1.49602 0
M  V30 6423 O 598.006 -1.8221 0.680415 0
M  V30 6424 C 598.289 0.124536 3.59885 0
M  V30 6425 C 598.142 1.53217 4.229 0
M  V30 6426 C 599.461 -0.550481 4.36644 0
M  V30 6427 H 596.58 0.051247 0.735216 0
M  V30 6428 H 599.222 0.808581 1.71936 0
M  V30 6429 H 597.372 -0.44737 3.85916 0
M  V30 6430 H 599.044 2.15303 4.07973 0
M  V30 6431 H 597.287 2.0858 3.80364 0
M  V30 6432 H 597.958 1.4755 5.31914 0
M  V30 6433 H 600.434 -0.0641154 4.16051 0
M  V30 6434 H 599.31 -0.528371 5.46351 0
M  V30 6435 H 599.571 -1.62097 4.11311 0
M  V30 6436 N 598.631 -1.53133 0.372548 0
M  V30 6437 C 599.877 -2.01654 -0.215277 0
M  V30 6438 C 600.21 -1.25914 -1.47849 0
M  V30 6439 O 599.485 -0.3548 -1.91237 0
M  V30 6440 C 599.768 -3.56609 -0.500187 0
M  V30 6441 C 599.621 -4.43036 0.777145 0
M  V30 6442 C 600.94 -4.20528 -1.29786 0
M  V30 6443 H 598.059 -0.732991 -0.0767686 0
M  V30 6444 H 600.701 -1.83335 0.498814 0
M  V30 6445 H 598.851 -3.7235 -1.10852 0
M  V30 6446 H 600.523 -4.39079 1.41447 0
M  V30 6447 H 598.766 -4.10723 1.39604 0
M  V30 6448 H 599.437 -5.49424 0.532662 0
M  V30 6449 H 601.913 -4.08663 -0.783198 0
M  V30 6450 H 600.789 -5.28962 -1.46596 0
M  V30 6451 H 601.05 -3.77051 -2.30836 0
M  V30 6452 N 600.109 -0.101901 -1.5727 0
M  V30 6453 C 601.349 0.563489 -1.96479 0
M  V30 6454 C 601.713 1.64926 -0.983021 0
M  V30 6455 O 602.914 2.37234 -1.26386 0
M  V30 6456 C 601.185 1.09809 -3.40113 0
M  V30 6457 S 602.744 1.7744 -4.01323 0
M  V30 6458 H 599.562 0.183675 -0.686866 0
M  V30 6459 H 602.164 -0.182922 -1.94642 0
M  V30 6460 H 600.868 0.296447 -4.09328 0
M  V30 6461 H 600.399 1.88018 -3.45562 0
M  V30 6462 H 602.414 3.0591 -3.90683 0
M  V30 6463 N 601.587 1.56661 0.17182 0
M  V30 6464 C 602.835 1.81606 0.886774 0
M  V30 6465 C 603.156 0.678818 1.82803 0
M  V30 6466 O 602.426 -0.301354 1.93568 0
M  V30 6467 H 601.006 0.669934 0.330451 0
M  V30 6468 H 603.668 1.94142 0.171757 0
M  V30 6469 H 602.764 2.75634 1.46398 0
M  V30 6470 N 603.065 -0.440357 1.51323 0
M  V30 6471 C 604.481 -0.7766 1.39431 0
M  V30 6472 C 604.681 -1.95838 0.474296 0
M  V30 6473 O 603.737 -2.52398 -0.0716692 0
M  V30 6474 C 605.05 -1.05981 2.81405 0
M  V30 6475 C 606.598 -1.16442 2.90534 0
M  V30 6476 C 607.073 -1.48058 4.33408 0
M  V30 6477 N 608.564 -1.54988 4.36501 0
M  V30 6478 C 609.299 -1.81017 5.44078 0
M  V30 6479 N 608.795 -2.04858 6.61819 0
M  V30 6480 N 610.588 -1.82774 5.31554 0
M  V30 6481 H 602.739 0.338006 2.09693 0
M  V30 6482 H 605.002 0.0888072 0.943831 0
M  V30 6483 H 604.708 -0.264173 3.50706 0
M  V30 6484 H 604.582 -1.98822 3.20546 0
M  V30 6485 H 606.969 -1.95068 2.21432 0
M  V30 6486 H 607.05 -0.215088 2.54894 0
M  V30 6487 H 606.694 -0.699605 5.03059 0
M  V30 6488 H 606.624 -2.44192 4.66559 0
M  V30 6489 H 609.115 -1.38479 3.51613 0
M  V30 6490 H 609.428 -2.2408 7.396 0
M  V30 6491 H 607.773 -2.02187 6.6494 0
M  V30 6492 H 610.964 -1.63665 4.38556 0
M  V30 6493 H 611.137 -2.02722 6.15474 0
M  V30 6494 N 604.543 -1.41418 -0.695603 0
M  V30 6495 C 605.476 -1.3768 -1.81988 0
M  V30 6496 C 606.454 -0.244061 -1.60758 0
M  V30 6497 O 607.638 -0.430965 -1.83507 0
M  V30 6498 C 604.765 -1.1476 -3.18666 0
M  V30 6499 C 603.811 -2.30752 -3.58686 0
M  V30 6500 S 604.644 -3.9323 -3.63498 0
M  V30 6501 C 605.8 -3.72613 -5.02902 0
M  V30 6502 H 606.033 -2.32822 -1.84882 0
M  V30 6503 H 603.566 -1.27942 -0.86431 0
M  V30 6504 H 605.524 -1.02223 -3.97569 0
M  V30 6505 H 604.185 -0.212385 -3.13381 0
M  V30 6506 H 603.378 -2.10409 -4.57978 0
M  V30 6507 H 602.98 -2.39696 -2.87092 0
M  V30 6508 H 605.272 -3.32317 -5.904 0
M  V30 6509 H 606.215 -4.71507 -5.28286 0
M  V30 6510 H 606.623 -3.0589 -4.74438 0
M  V30 6511 N 606.021 0.929856 -1.27246 0
M  V30 6512 C 606.984 2.01172 -1.09829 0
M  V30 6513 C 607.984 1.60743 -0.0429687 0
M  V30 6514 O 609.174 1.71813 -0.287373 0
M  V30 6515 C 606.306 3.34191 -0.673003 0
M  V30 6516 H 607.499 2.18054 -2.05895 0
M  V30 6517 H 605.052 1.11036 -1.10003 0
M  V30 6518 H 605.787 3.23009 0.289134 0
M  V30 6519 H 605.572 3.64892 -1.43515 0
M  V30 6520 H 607.062 4.13646 -0.573323 0
M  V30 6521 N 607.499 1.09233 1.13605 0
M  V30 6522 C 608.739 0.836786 1.86487 0
M  V30 6523 C 609.103 -0.626191 1.81502 0
M  V30 6524 O 610.304 -0.99758 2.49603 0
M  V30 6525 C 608.575 1.35476 3.30728 0
M  V30 6526 S 610.134 1.2328 4.21126 0
M  V30 6527 H 606.952 0.302702 0.643345 0
M  V30 6528 H 609.554 1.3953 1.36936 0
M  V30 6529 H 608.258 2.41381 3.31909 0
M  V30 6530 H 607.789 0.792286 3.85339 0
M  V30 6531 H 609.804 0.182468 4.95864 0
M  V30 6532 N 608.977 -1.30795 0.87923 0
M  V30 6533 C 610.202 -2.01063 0.508769 0
M  V30 6534 C 610.627 -1.65508 -0.893803 0
M  V30 6535 O 609.985 -0.868616 -1.59138 0
M  V30 6536 C 610.033 -3.54054 0.683991 0
M  V30 6537 O 609.137 -4.11498 -0.272654 0
M  V30 6538 H 608.478 -0.632786 0.201191 0
M  V30 6539 H 611.008 -1.66776 1.18519 0
M  V30 6540 H 611.018 -4.03845 0.580798 0
M  V30 6541 H 609.693 -3.79271 1.70665 0
M  V30 6542 H 608.27 -3.72695 -0.12364 0
M  V30 6543 N 610.455 -0.639598 -1.44038 0
M  V30 6544 C 611.866 -0.228866 -1.85292 0
M  V30 6545 C 612.217 1.22161 -1.53529 0
M  V30 6546 O 611.342 1.93064 -0.977518 0
M  V30 6547 C 611.937 -0.408592 -3.36327 0
M  V30 6548 C 610.496 -0.0522953 -3.76364 0
M  V30 6549 C 609.643 -0.717959 -2.67844 0
M  V30 6550 H 612.594 -0.844194 -1.34384 0
M  V30 6551 H 612.615 0.349968 -3.78887 0
M  V30 6552 H 612.127 -1.46435 -3.59414 0
M  V30 6553 H 610.228 1.0014 -3.58891 0
M  V30 6554 H 610.341 -0.468261 -4.76806 0
M  V30 6555 H 608.705 -0.152459 -2.54243 0
M  V30 6556 H 609.488 -1.77648 -2.93762 0
M  V30 6557 N 611.933 1.52934 -0.380664 0
M  V30 6558 C 613.161 2.05886 0.204599 0
M  V30 6559 C 613.576 1.25305 1.41223 0
M  V30 6560 O 612.933 0.297504 1.80059 0
M  V30 6561 C 612.984 3.56764 0.583249 0
M  V30 6562 O 612.705 4.34292 -0.576398 0
M  V30 6563 C 614.206 4.2603 1.2253 0
M  V30 6564 H 611.426 0.670193 0.0328991 0
M  V30 6565 H 613.97 1.97148 -0.543397 0
M  V30 6566 H 612.125 3.65603 1.28115 0
M  V30 6567 H 612.539 5.23819 -0.267119 0
M  V30 6568 H 614.013 5.32868 1.44068 0
M  V30 6569 H 614.49 3.80698 2.19011 0
M  V30 6570 H 615.096 4.21485 0.568407 0
M  V30 6571 N 613.412 0.11024 1.57214 0
M  V30 6572 C 614.362 -0.854147 2.11396 0
M  V30 6573 C 615.346 -1.23394 1.03261 0
M  V30 6574 O 616.538 -1.20649 1.2951 0
M  V30 6575 C 613.667 -2.10752 2.70995 0
M  V30 6576 C 612.753 -1.75249 3.86198 0
M  V30 6577 N 613.144 -1.10377 4.9361 0
M  V30 6578 C 611.442 -2.04763 3.96217 0
M  V30 6579 C 612.143 -0.938199 5.74084 0
M  V30 6580 N 611.119 -1.46039 5.23616 0
M  V30 6581 H 614.921 -0.348897 2.91822 0
M  V30 6582 H 612.435 -0.0925071 1.62136 0
M  V30 6583 H 614.432 -2.80801 3.0815 0
M  V30 6584 H 613.092 -2.61829 1.9203 0
M  V30 6585 H 614.103 -0.768785 5.12162 0
M  V30 6586 H 610.78 -2.57948 3.28282 0
M  V30 6587 H 612.17 -0.429678 6.70525 0
M  V30 6588 N 614.89 -1.56749 -0.16351 0
M  V30 6589 C 616.167 -1.73321 -0.906599 0
M  V30 6590 C 616.547 -0.673779 -2.00059 0
M  V30 6591 O 615.895 0.310121 -2.26386 0
M  V30 6592 C 616.105 -3.168 -1.46419 0
M  V30 6593 C 617.453 -3.77993 -1.93407 0
M  V30 6594 O 618.477 -3.20127 -1.56196 0
M  V30 6595 O 617.336 -4.79615 -2.61976 0
M  V30 6596 H 614.43 -0.708073 -0.427272 0
M  V30 6597 H 616.976 -1.69029 -0.150727 0
M  V30 6598 H 615.748 -3.85396 -0.677189 0
M  V30 6599 H 615.371 -3.2545 -2.28403 0
M  V30 6600 N 616.368 0.432326 -1.51554 0
M  V30 6601 C 617.278 1.55023 -1.76082 0
M  V30 6602 C 618.294 1.61593 -0.645265 0
M  V30 6603 O 619.47 1.78742 -0.928086 0
M  V30 6604 C 616.535 2.90964 -1.88523 0
M  V30 6605 C 615.596 2.9447 -3.12388 0
M  V30 6606 C 614.829 4.23926 -3.24225 0
M  V30 6607 O 615.052 5.16576 -2.4188 0
M  V30 6608 O 613.986 4.33818 -4.17235 0
M  V30 6609 H 617.812 1.37238 -2.70923 0
M  V30 6610 H 615.397 0.615845 -1.36117 0
M  V30 6611 H 617.279 3.71633 -1.98662 0
M  V30 6612 H 615.954 3.08865 -0.9687 0
M  V30 6613 H 614.861 2.12737 -3.07723 0
M  V30 6614 H 616.194 2.81514 -4.03746 0
M  V30 6615 N 617.846 1.41785 0.688094 0
M  V30 6616 C 618.796 1.40684 1.79421 0
M  V30 6617 C 619.78 0.280096 1.58443 0
M  V30 6618 O 620.972 0.521332 1.69148 0
M  V30 6619 C 618.101 1.29874 3.17785 0
M  V30 6620 C 617.187 2.47442 3.44432 0
M  V30 6621 N 617.578 3.72895 3.41736 0
M  V30 6622 C 615.876 2.41416 3.75013 0
M  V30 6623 C 616.577 4.50912 3.67496 0
M  V30 6624 N 615.553 3.81131 3.87608 0
M  V30 6625 H 619.355 2.35591 1.7571 0
M  V30 6626 H 616.869 1.35946 0.888393 0
M  V30 6627 H 618.866 1.27168 3.97031 0
M  V30 6628 H 617.526 0.359587 3.22703 0
M  V30 6629 H 618.537 4.05676 3.21943 0
M  V30 6630 H 615.214 1.56011 3.87256 0
M  V30 6631 H 616.604 5.59865 3.71484 0
M  V30 6632 N 619.324 -0.923095 1.27737 0
M  V30 6633 C 620.254 -2.04124 1.13383 0
M  V30 6634 C 621.235 -1.70066 0.0340658 0
M  V30 6635 O 622.42 -1.93068 0.209383 0
M  V30 6636 C 619.55 -3.3831 0.785097 0
M  V30 6637 C 618.504 -3.86496 1.8386 0
M  V30 6638 C 617.83 -5.1754 1.34373 0
M  V30 6639 C 619.13 -4.09381 3.24353 0
M  V30 6640 H 620.824 -2.1639 2.06919 0
M  V30 6641 H 618.37 -1.03976 0.996243 0
M  V30 6642 H 620.323 -4.16016 0.671485 0
M  V30 6643 H 619.047 -3.2607 -0.185969 0
M  V30 6644 H 617.706 -3.10987 1.9412 0
M  V30 6645 H 617.354 -5.01696 0.361989 0
M  V30 6646 H 617.054 -5.50751 2.04811 0
M  V30 6647 H 618.578 -5.97811 1.24315 0
M  V30 6648 H 619.992 -4.77641 3.17067 0
M  V30 6649 H 618.389 -4.53906 3.92542 0
M  V30 6650 H 619.459 -3.14515 3.69064 0
M  V30 6651 N 620.802 -1.09834 -1.13024 0
M  V30 6652 C 621.732 -0.763451 -2.20666 0
M  V30 6653 C 622.713 0.260778 -1.68089 0
M  V30 6654 O 623.898 0.127915 -1.93778 0
M  V30 6655 C 621.028 -0.187744 -3.46792 0
M  V30 6656 C 619.982 -1.14196 -4.12484 0
M  V30 6657 C 619.308 -0.427755 -5.32986 0
M  V30 6658 C 620.608 -2.48607 -4.59338 0
M  V30 6659 H 622.302 -1.66347 -2.48936 0
M  V30 6660 H 619.848 -0.801261 -1.19649 0
M  V30 6661 H 621.801 0.0586375 -4.21359 0
M  V30 6662 H 620.525 0.747485 -3.17931 0
M  V30 6663 H 619.184 -1.37369 -3.3989 0
M  V30 6664 H 618.832 0.511747 -5.0039 0
M  V30 6665 H 618.532 -1.06403 -5.77886 0
M  V30 6666 H 620.056 -0.189772 -6.10305 0
M  V30 6667 H 621.47 -2.29618 -5.25308 0
M  V30 6668 H 619.867 -3.08062 -5.14993 0
M  V30 6669 H 620.937 -3.09062 -3.73642 0
M  V30 6670 N 622.28 1.30327 -0.886154 0
M  V30 6671 C 623.23 2.25668 -0.325248 0
M  V30 6672 C 624.214 1.51318 0.546972 0
M  V30 6673 O 625.406 1.72623 0.391203 0
M  V30 6674 C 622.535 3.40229 0.458167 0
M  V30 6675 C 621.621 4.21933 -0.428208 0
M  V30 6676 N 622.012 4.82129 -1.52921 0
M  V30 6677 C 620.31 4.45439 -0.223535 0
M  V30 6678 C 621.011 5.43351 -2.07714 0
M  V30 6679 N 619.987 5.26002 -1.37195 0
M  V30 6680 H 623.789 2.69759 -1.1665 0
M  V30 6681 H 621.303 1.4478 -0.735691 0
M  V30 6682 H 623.3 4.07579 0.876648 0
M  V30 6683 H 621.96 2.97678 1.29684 0
M  V30 6684 H 622.971 4.81312 -1.91205 0
M  V30 6685 H 619.648 4.13481 0.577875 0
M  V30 6686 H 621.038 6.01118 -3.00178 0
M  V30 6687 N 623.758 0.647228 1.43697 0
M  V30 6688 C 625.006 0.157876 2.01482 0
M  V30 6689 C 625.327 -1.23039 1.51282 0
M  V30 6690 O 624.597 -1.82071 0.722982 0
M  V30 6691 H 623.177 0.0553745 0.744945 0
M  V30 6692 H 625.839 0.83755 1.75986 0
M  V30 6693 H 624.935 0.137895 3.11795 0
M  V30 6694 N 625.236 -1.5273 0.388769 0
M  V30 6695 C 626.484 -2.01174 -0.193208 0
M  V30 6696 C 626.805 -1.27705 -1.47365 0
M  V30 6697 O 626.075 -0.396966 -1.91836 0
M  V30 6698 H 624.655 -0.743287 -0.0743871 0
M  V30 6699 H 627.317 -1.87826 0.520336 0
M  V30 6700 H 626.413 -3.09477 -0.403803 0
M  V30 6701 N 626.714 -0.118576 -1.57153 0
M  V30 6702 C 627.646 0.862247 -2.12363 0
M  V30 6703 C 628.659 1.23025 -1.06625 0
M  V30 6704 O 629.848 1.17927 -1.33998 0
M  V30 6705 C 626.948 2.16425 -2.60794 0
M  V30 6706 C 626.121 1.96801 -3.90626 0
M  V30 6707 C 625.18 3.10726 -4.2466 0
M  V30 6708 O 624.206 2.83659 -4.93484 0
M  V30 6709 N 625.408 4.37147 -3.81946 0
M  V30 6710 H 628.173 0.390564 -2.97144 0
M  V30 6711 H 625.734 0.0658591 -1.61766 0
M  V30 6712 H 627.726 2.91633 -2.80593 0
M  V30 6713 H 626.296 2.54943 -1.80895 0
M  V30 6714 H 625.516 1.05787 -3.7974 0
M  V30 6715 H 626.804 1.80993 -4.7552 0
M  V30 6716 H 626.202 4.62014 -3.26435 0
M  V30 6717 H 624.759 5.09229 -4.06853 0
M  V30 6718 N 628.193 1.56834 0.155195 0
M  V30 6719 C 629.604 1.72421 0.716082 0
M  V30 6720 C 629.955 0.731685 1.82046 0
M  V30 6721 O 629.08 -0.103481 2.16152 0
M  V30 6722 C 629.675 3.12629 1.30571 0
M  V30 6723 C 628.234 3.29846 1.81325 0
M  V30 6724 C 627.381 2.68359 0.698494 0
M  V30 6725 H 630.332 1.58544 -0.0703861 0
M  V30 6726 H 630.353 3.12174 2.1755 0
M  V30 6727 H 629.865 3.84844 0.501701 0
M  V30 6728 H 627.966 2.62614 2.64319 0
M  V30 6729 H 628.079 4.37727 1.9476 0
M  V30 6730 H 626.443 2.28604 1.12305 0
M  V30 6731 H 627.226 3.43171 -0.0939366 0
M  V30 6732 N 629.671 -0.424282 1.51781 0
M  V30 6733 C 631.082 -1.00368 1.57427 0
M  V30 6734 C 631.433 -1.91962 0.40558 0
M  V30 6735 O 630.558 -2.111 -0.47601 0
M  V30 6736 C 631.153 -1.82707 2.85313 0
M  V30 6737 C 629.712 -2.35675 2.93487 0
M  V30 6738 C 628.859 -1.1524 2.5222 0
M  V30 6739 H 631.81 -0.205064 1.5737 0
M  V30 6740 H 631.831 -2.68294 2.69812 0
M  V30 6741 H 631.343 -1.16017 3.70353 0
M  V30 6742 H 629.444 -3.05781 2.12906 0
M  V30 6743 H 629.557 -2.67578 3.97415 0
M  V30 6744 H 627.921 -1.50174 2.05718 0
M  V30 6745 H 628.704 -0.5014 3.39619 0
M  V30 6746 N 631.149 -1.42148 -0.680565 0
M  V30 6747 C 632.059 -1.47565 -1.82378 0
M  V30 6748 C 633.075 -0.36489 -1.70131 0
M  V30 6749 O 634.251 -0.614916 -1.91783 0
M  V30 6750 C 631.316 -1.37013 -3.18478 0
M  V30 6751 C 630.377 -2.58532 -3.42724 0
M  V30 6752 C 629.61 -2.48473 -4.72331 0
M  V30 6753 O 629.833 -1.51745 -5.49845 0
M  V30 6754 O 628.767 -3.38503 -4.97694 0
M  V30 6755 H 632.593 -2.44045 -1.80764 0
M  V30 6756 H 630.178 -1.23849 -0.835569 0
M  V30 6757 H 632.06 -1.33468 -3.99705 0
M  V30 6758 H 630.735 -0.436552 -3.20743 0
M  V30 6759 H 629.642 -2.67652 -2.61368 0
M  V30 6760 H 630.975 -3.50769 -3.45286 0
M  V30 6761 N 632.627 0.916307 -1.28225 0
M  V30 6762 C 633.875 1.6619 -1.15002 0
M  V30 6763 C 634.196 1.92642 0.302329 0
M  V30 6764 O 633.466 1.54076 1.20985 0
M  V30 6765 H 632.046 0.615964 -0.422608 0
M  V30 6766 H 634.708 1.09963 -1.60917 0
M  V30 6767 H 633.804 2.62533 -1.68769 0
M  V30 6768 N 634.105 1.10431 1.1244 0
M  V30 6769 C 635.382 0.758797 1.80282 0
M  V30 6770 C 635.762 -0.754727 1.97147 0
M  V30 6771 O 635.11 -1.68094 1.54779 0
M  V30 6772 C 635.32 1.50982 3.14651 0
M  V30 6773 C 636.668 1.68232 3.8985 0
M  V30 6774 O 637.692 1.47319 3.24308 0
M  V30 6775 O 636.551 2.02905 5.07437 0
M  V30 6776 H 633.645 0.273756 0.780376 0
M  V30 6777 H 636.191 1.20713 1.19275 0
M  V30 6778 H 634.963 2.53989 2.97666 0
M  V30 6779 H 634.586 1.05435 3.83366 0
M  V30 6780 N 635.583 -1.29855 0.893053 0
M  V30 6781 C 636.994 -1.77946 0.564998 0
M  V30 6782 C 637.345 -1.73339 -0.919134 0
M  V30 6783 O 636.47 -1.3152 -1.71847 0
M  V30 6784 C 637.065 -3.23118 1.01883 0
M  V30 6785 C 635.624 -3.69013 0.742051 0
M  V30 6786 C 634.771 -2.50121 1.19727 0
M  V30 6787 H 637.722 -1.16611 1.07646 0
M  V30 6788 H 637.743 -3.78875 0.351249 0
M  V30 6789 H 637.255 -3.26439 2.09903 0
M  V30 6790 H 635.356 -3.71173 -0.325816 0
M  V30 6791 H 635.469 -4.60117 1.33527 0
M  V30 6792 H 633.833 -2.47128 0.616418 0
M  V30 6793 H 634.616 -2.56174 2.28538 0
M  V30 6794 N 637.061 -0.65484 -1.43351 0
M  V30 6795 C 638.338 -0.0987371 -1.95351 0
M  V30 6796 C 638.718 1.38161 -1.59608 0
M  V30 6797 O 638.066 2.10791 -0.882021 0
M  V30 6798 C 638.276 -0.346684 -3.47274 0
M  V30 6799 C 639.624 -0.25249 -4.23849 0
M  V30 6800 O 640.648 -0.279332 -3.55103 0
M  V30 6801 O 639.507 -0.177584 -5.46211 0
M  V30 6802 H 636.601 0.0086829 -0.826954 0
M  V30 6803 H 639.147 -0.728189 -1.53282 0
M  V30 6804 H 637.919 -1.37296 -3.66423 0
M  V30 6805 H 637.542 0.315757 -3.96344 0
M  V30 6806 N 638.539 1.52521 -0.396863 0
M  V30 6807 C 639.469 2.29582 0.425941 0
M  V30 6808 C 640.45 1.33281 1.05689 0
M  V30 6809 O 641.635 1.62181 1.06823 0
M  V30 6810 C 638.765 3.10821 1.54943 0
M  V30 6811 C 637.719 4.15069 1.04413 0
M  V30 6812 C 637.045 4.84578 2.26028 0
M  V30 6813 C 638.345 5.22191 0.106767 0
M  V30 6814 H 640.039 2.98612 -0.217045 0
M  V30 6815 H 637.585 1.43611 -0.105826 0
M  V30 6816 H 639.538 3.63492 2.13193 0
M  V30 6817 H 638.262 2.39538 2.22011 0
M  V30 6818 H 636.921 3.63389 0.484118 0
M  V30 6819 H 636.569 4.09835 2.91623 0
M  V30 6820 H 636.269 5.55043 1.92876 0
M  V30 6821 H 637.793 5.40056 2.84906 0
M  V30 6822 H 639.207 5.70176 0.597685 0
M  V30 6823 H 637.604 5.99947 -0.135352 0
M  V30 6824 H 638.674 4.77531 -0.842134 0
M  V30 6825 N 640.017 0.126909 1.57088 0
M  V30 6826 C 640.98 -0.806097 2.14557 0
M  V30 6827 C 641.98 -1.18918 1.08236 0
M  V30 6828 O 643.17 -1.11339 1.33975 0
M  V30 6829 C 640.302 -2.09116 2.69227 0
M  V30 6830 H 641.495 -0.306522 2.98329 0
M  V30 6831 H 639.048 -0.122393 1.5582 0
M  V30 6832 H 639.783 -2.63486 1.89065 0
M  V30 6833 H 639.568 -1.82588 3.46993 0
M  V30 6834 H 641.058 -2.75794 3.13572 0
M  V30 6835 N 641.495 -1.56914 -0.146875 0
M  V30 6836 C 642.442 -1.98275 -1.18134 0
M  V30 6837 C 643.412 -0.850367 -1.42681 0
M  V30 6838 O 644.597 -1.11244 -1.55014 0
M  V30 6839 C 641.737 -2.36861 -2.5098 0
M  V30 6840 C 640.85 -3.63391 -2.33605 0
M  V30 6841 C 639.985 -3.91079 -3.59486 0
M  V30 6842 C 639.024 -5.10879 -3.37149 0
M  V30 6843 N 638.161 -5.34577 -4.55161 0
M  V30 6844 H 643.001 -2.8645 -0.821622 0
M  V30 6845 H 640.538 -1.41718 -0.394248 0
M  V30 6846 H 642.496 -2.57262 -3.28439 0
M  V30 6847 H 641.126 -1.51766 -2.84898 0
M  V30 6848 H 640.178 -3.50766 -1.47199 0
M  V30 6849 H 641.49 -4.51007 -2.13059 0
M  V30 6850 H 640.644 -4.11979 -4.45374 0
M  V30 6851 H 639.383 -3.01885 -3.83036 0
M  V30 6852 H 638.388 -4.89853 -2.49649 0
M  V30 6853 H 639.613 -6.01626 -3.14997 0
M  V30 6854 H 637.559 -4.48337 -4.78884 0
M  V30 6855 H 637.476 -6.16463 -4.37618 0
M  V30 6856 H 638.744 -5.59975 -5.42263 0
M  V30 6857 N 642.974 0.416227 -1.52004 0
M  V30 6858 C 644.223 1.16088 -1.64944 0
M  V30 6859 C 644.536 1.91835 -0.381928 0
M  V30 6860 O 645.742 2.6867 -0.391013 0
M  V30 6861 C 644.198 2.1124 -2.91386 0
M  V30 6862 C 643.806 1.41042 -4.25219 0
M  V30 6863 C 645.55 2.86008 -3.13688 0
M  V30 6864 C 643.457 2.34801 -5.42791 0
M  V30 6865 H 642.387 0.437041 -0.61442 0
M  V30 6866 H 645.038 0.425971 -1.78487 0
M  V30 6867 H 643.42 2.88254 -2.71525 0
M  V30 6868 H 644.594 0.694416 -4.55538 0
M  V30 6869 H 642.909 0.78344 -4.08964 0
M  V30 6870 H 645.506 3.56286 -3.98703 0
M  V30 6871 H 645.849 3.48556 -2.27628 0
M  V30 6872 H 646.382 2.16095 -3.33988 0
M  V30 6873 H 643.121 1.7691 -6.31176 0
M  V30 6874 H 642.641 3.04395 -5.16821 0
M  V30 6875 H 644.32 2.9548 -5.75587 0
M  V30 6876 N 644.452 1.42507 0.673017 0
M  V30 6877 C 645.382 1.48916 1.79851 0
M  V30 6878 C 646.363 0.345566 1.66553 0
M  V30 6879 O 647.548 0.560116 1.85947 0
M  V30 6880 C 644.678 1.39258 3.18158 0
M  V30 6881 C 643.632 2.51662 3.46194 0
M  V30 6882 C 642.958 2.27062 4.84094 0
M  V30 6883 C 644.258 3.93968 3.42909 0
M  V30 6884 H 645.952 2.43114 1.74745 0
M  V30 6885 H 643.498 1.17013 0.839288 0
M  V30 6886 H 645.451 1.42349 3.96629 0
M  V30 6887 H 644.175 0.415542 3.23946 0
M  V30 6888 H 642.834 2.47891 2.70084 0
M  V30 6889 H 642.482 1.27648 4.86534 0
M  V30 6890 H 642.182 3.02398 5.03815 0
M  V30 6891 H 643.706 2.31905 5.64847 0
M  V30 6892 H 645.12 3.99332 4.11347 0
M  V30 6893 H 643.517 4.6917 3.74165 0
M  V30 6894 H 644.587 4.20512 2.41449 0
M  V30 6895 N 645.93 -0.909495 1.28709 0
M  V30 6896 C 646.84 -2.04558 1.14861 0
M  V30 6897 C 647.856 -1.73842 0.0741621 0
M  V30 6898 O 649.032 -1.99383 0.2843 0
M  V30 6899 C 646.097 -3.36957 0.816148 0
M  V30 6900 C 645.158 -3.81255 1.97341 0
M  V30 6901 C 644.391 -5.07335 1.65671 0
M  V30 6902 O 644.614 -5.67514 0.573053 0
M  V30 6903 O 643.548 -5.47449 2.50167 0
M  V30 6904 H 647.374 -2.19161 2.10243 0
M  V30 6905 H 644.959 -1.03159 1.08068 0
M  V30 6906 H 646.841 -4.16436 0.644873 0
M  V30 6907 H 645.516 -3.2352 -0.107983 0
M  V30 6908 H 644.423 -3.02584 2.19986 0
M  V30 6909 H 645.756 -3.99261 2.87839 0
M  V30 6910 N 647.408 -1.11026 -1.11852 0
M  V30 6911 C 648.318 -0.777252 -2.2135 0
M  V30 6912 C 649.334 0.227821 -1.72502 0
M  V30 6913 O 650.51 0.0650587 -2.01295 0
M  V30 6914 C 647.575 -0.220668 -3.45997 0
M  V30 6915 C 646.636 -1.2838 -4.09655 0
M  V30 6916 C 645.869 -0.753678 -5.28352 0
M  V30 6917 O 646.092 0.417779 -5.68868 0
M  V30 6918 O 645.026 -1.51647 -5.82483 0
M  V30 6919 H 648.852 -1.69141 -2.5224 0
M  V30 6920 H 646.437 -0.885836 -1.20305 0
M  V30 6921 H 648.319 0.0855756 -4.21313 0
M  V30 6922 H 646.994 0.666262 -3.16769 0
M  V30 6923 H 645.901 -1.64299 -3.3609 0
M  V30 6924 H 647.234 -2.14396 -4.43052 0
M  V30 6925 N 648.886 1.2938 -0.899927 0
M  V30 6926 C 650.132 1.9584 -0.526742 0
M  V30 6927 C 650.465 1.70774 0.924651 0
M  V30 6928 O 649.74 1.02084 1.65557 0
M  V30 6929 C 650.023 3.50638 -0.820062 0
M  V30 6930 C 649.876 3.85161 -2.32317 0
M  V30 6931 C 651.195 4.3903 -0.30671 0
M  V30 6932 H 648.314 0.711322 -0.192848 0
M  V30 6933 H 650.956 1.52992 -1.12665 0
M  V30 6934 H 649.106 3.87265 -0.309491 0
M  V30 6935 H 650.778 3.58477 -2.9033 0
M  V30 6936 H 649.021 3.32696 -2.78381 0
M  V30 6937 H 649.692 4.93204 -2.47898 0
M  V30 6938 H 652.168 4.09396 -0.743908 0
M  V30 6939 H 651.044 5.46226 -0.541144 0
M  V30 6940 H 651.305 4.34937 0.792588 0
M  V30 6941 N 650.364 0.662433 1.43002 0
M  V30 6942 C 651.78 0.330835 1.56133 0
M  V30 6943 C 651.98 -1.16454 1.64441 0
M  V30 6944 O 651.036 -1.94964 1.60453 0
M  V30 6945 C 652.349 1.05029 2.81761 0
M  V30 6946 C 653.897 1.03142 2.95518 0
M  V30 6947 C 654.372 1.73196 4.2399 0
M  V30 6948 N 655.863 1.70004 4.30875 0
M  V30 6949 C 656.598 2.21074 5.29069 0
M  V30 6950 N 656.094 2.80473 6.33488 0
M  V30 6951 N 657.887 2.1152 5.20784 0
M  V30 6952 H 650.038 1.63272 1.35853 0
M  V30 6953 H 652.301 0.687149 0.653092 0
M  V30 6954 H 652.007 2.10542 2.81718 0
M  V30 6955 H 651.881 0.607664 3.72273 0
M  V30 6956 H 654.268 -0.0153339 2.95096 0
M  V30 6957 H 654.349 1.51282 2.0627 0
M  V30 6958 H 653.993 2.77833 4.25172 0
M  V30 6959 H 653.923 1.22515 5.1215 0
M  V30 6960 H 656.414 1.26667 3.56039 0
M  V30 6961 H 656.727 3.17094 7.04749 0
M  V30 6962 H 655.072 2.84538 6.34085 0
M  V30 6963 H 658.263 1.64814 4.38126 0
M  V30 6964 H 658.436 2.51629 5.97149 0
M  V30 6965 N 651.842 -1.52309 0.404946 0
M  V30 6966 C 653.072 -2.05886 -0.171569 0
M  V30 6967 C 653.48 -1.27527 -1.39762 0
M  V30 6968 O 652.823 -0.319215 -1.80905 0
M  V30 6969 C 652.885 -3.54609 -0.590983 0
M  V30 6970 C 652.549 -4.53989 0.523757 0
M  V30 6971 C 653.546 -5.01084 1.38604 0
M  V30 6972 C 651.231 -4.97465 0.695255 0
M  V30 6973 C 653.225 -5.90295 2.4048 0
M  V30 6974 C 650.912 -5.86473 1.71733 0
M  V30 6975 C 651.91 -6.32782 2.57051 0
M  V30 6976 O 651.598 -7.20029 3.57509 0
M  V30 6977 H 651.33 -0.675508 -0.0257763 0
M  V30 6978 H 653.884 -1.97238 0.573278 0
M  V30 6979 H 652.114 -3.60929 -1.38805 0
M  V30 6980 H 653.803 -3.90853 -1.09494 0
M  V30 6981 H 654.569 -4.68214 1.26492 0
M  V30 6982 H 650.448 -4.60982 0.0408447 0
M  V30 6983 H 653.992 -6.26363 3.07108 0
M  V30 6984 H 649.889 -6.18756 1.83877 0
M  V30 6985 H 650.657 -7.3813 3.53703 0
M  V30 6986 N 653.32 -0.135238 -1.57019 0
M  V30 6987 C 654.569 0.518694 -1.94917 0
M  V30 6988 C 654.882 1.66783 -1.0219 0
M  V30 6989 O 656.088 2.38561 -1.29619 0
M  V30 6990 C 654.544 0.974123 -3.46466 0
M  V30 6991 C 654.152 -0.147439 -4.47757 0
M  V30 6992 C 655.896 1.59851 -3.93253 0
M  V30 6993 C 653.803 0.325599 -5.90503 0
M  V30 6994 H 652.733 0.19754 -0.727663 0
M  V30 6995 H 655.384 -0.217698 -1.82204 0
M  V30 6996 H 653.766 1.76542 -3.5447 0
M  V30 6997 H 654.94 -0.924122 -4.51438 0
M  V30 6998 H 653.255 -0.679496 -4.10818 0
M  V30 6999 H 655.852 1.96385 -4.9733 0
M  V30 7000 H 656.195 2.48306 -3.3414 0
M  V30 7001 H 656.728 0.872323 -3.88118 0
M  V30 7002 H 653.467 -0.523295 -6.53408 0
M  V30 7003 H 652.987 1.06841 -5.90208 0
M  V30 7004 H 654.666 0.781498 -6.42263 0
M  V30 7005 N 654.798 1.5699 0.138552 0
M  V30 7006 C 655.761 1.97984 1.15478 0
M  V30 7007 C 656.761 0.867416 1.35398 0
M  V30 7008 O 657.951 1.13387 1.32246 0
M  V30 7009 C 655.083 2.3031 2.51337 0
M  V30 7010 H 656.276 2.88953 0.802896 0
M  V30 7011 H 653.829 1.51555 0.382189 0
M  V30 7012 H 654.564 1.42159 2.91481 0
M  V30 7013 H 654.349 3.11425 2.38237 0
M  V30 7014 H 655.839 2.62834 3.24512 0
M  V30 7015 N 656.276 -0.40816 1.52223 0
M  V30 7016 C 657.224 -1.51788 1.76248 0
M  V30 7017 C 658.218 -1.57264 0.629638 0
M  V30 7018 O 659.424 -1.60659 0.811704 0
M  V30 7019 H 655.799 -0.504823 0.557367 0
M  V30 7020 H 657.77 -1.2871 2.69214 0
M  V30 7021 C 656.519 -2.89145 1.93107 0
M  V30 7022 H 655.842 -2.85674 2.79697 0
M  V30 7023 H 657.282 -3.66082 2.13916 0
M  V30 7024 C 655.741 -3.29581 0.698431 0
M  V30 7025 O 656.271 -4.01479 -0.133238 0
M  V30 7026 N 654.477 -2.85651 0.53405 0
M  V30 7027 H 654.024 -2.2731 1.21194 0
M  V30 7028 H 653.982 -3.13065 -0.289387 0
M  V30 7029 N 657.755 -1.42862 -0.66545 0
M  V30 7030 C 659.171 -1.25993 -0.979687 0
M  V30 7031 C 659.371 -0.170831 -2.00775 0
M  V30 7032 O 658.427 0.454827 -2.4837 0
M  V30 7033 C 659.74 -2.62005 -1.47559 0
M  V30 7034 C 661.288 -2.69437 -1.59288 0
M  V30 7035 C 661.763 -4.05838 -2.12272 0
M  V30 7036 N 663.254 -4.0784 -2.19592 0
M  V30 7037 C 663.989 -5.10205 -2.61684 0
M  V30 7038 N 663.485 -6.22949 -3.03161 0
M  V30 7039 N 665.278 -4.9756 -2.61516 0
M  V30 7040 H 657.429 -2.12395 0.0150493 0
M  V30 7041 H 659.692 -0.946355 -0.0558187 0
M  V30 7042 H 659.398 -3.42605 -0.794654 0
M  V30 7043 H 659.272 -2.86566 -2.45275 0
M  V30 7044 H 661.659 -1.89178 -2.26486 0
M  V30 7045 H 661.74 -2.48655 -0.600374 0
M  V30 7046 H 661.384 -4.86559 -1.4568 0
M  V30 7047 H 661.314 -4.23977 -3.12331 0
M  V30 7048 H 663.805 -3.26452 -1.90361 0
M  V30 7049 H 664.118 -6.96899 -3.33993 0
M  V30 7050 H 662.463 -6.2644 -3.00995 0
M  V30 7051 H 665.654 -4.08551 -2.28481 0
M  V30 7052 H 665.827 -5.77468 -2.93999 0
M  V30 7053 N 659.233 0.902656 -1.29189 0
M  V30 7054 C 660.48 1.65287 -1.16989 0
M  V30 7055 C 660.808 1.92485 0.279232 0
M  V30 7056 O 660.063 1.53143 1.21843 0
M  V30 7057 C 660.362 3.011 -1.92545 0
M  V30 7058 C 660.028 2.93521 -3.42281 0
M  V30 7059 C 658.69 2.91161 -3.83117 0
M  V30 7060 C 661.042 2.82947 -4.3771 0
M  V30 7061 C 658.37 2.76043 -5.17704 0
M  V30 7062 C 660.722 2.69368 -5.72384 0
M  V30 7063 C 659.386 2.65373 -6.12482 0
M  V30 7064 H 658.656 0.604828 -0.428094 0
M  V30 7065 H 661.303 1.05084 -1.60092 0
M  V30 7066 H 659.608 3.65153 -1.42024 0
M  V30 7067 H 661.305 3.58073 -1.80512 0
M  V30 7068 H 657.895 2.96158 -3.09819 0
M  V30 7069 H 662.079 2.83849 -4.07116 0
M  V30 7070 H 657.335 2.71352 -5.47885 0
M  V30 7071 H 661.509 2.60156 -6.45981 0
M  V30 7072 H 659.136 2.53415 -7.16718 0
M  V30 7073 N 660.711 1.11618 1.11262 0
M  V30 7074 C 662.127 0.850468 1.35053 0
M  V30 7075 C 662.327 -0.523868 1.94571 0
M  V30 7076 O 661.383 -1.2743 2.17986 0
M  V30 7077 C 662.696 1.96005 2.28041 0
M  V30 7078 C 664.244 1.98993 2.416 0
M  V30 7079 C 664.719 3.0916 3.37911 0
M  V30 7080 N 666.21 3.08547 3.45475 0
M  V30 7081 C 666.945 3.9043 4.19943 0
M  V30 7082 N 666.441 4.8228 4.97371 0
M  V30 7083 N 668.234 3.786 4.15474 0
M  V30 7084 H 660.385 2.00184 0.709932 0
M  V30 7085 H 662.648 0.870635 0.375099 0
M  V30 7086 H 662.354 2.9499 1.91503 0
M  V30 7087 H 662.228 1.85782 3.28275 0
M  V30 7088 H 664.615 1.00633 2.77411 0
M  V30 7089 H 664.696 2.13292 1.4121 0
M  V30 7090 H 664.34 4.07748 3.02827 0
M  V30 7091 H 664.27 2.92102 4.3816 0
M  V30 7092 H 666.761 2.42 2.90249 0
M  V30 7093 H 667.074 5.41289 5.51567 0
M  V30 7094 H 665.419 4.863 4.96525 0
M  V30 7095 H 668.61 3.06185 3.54074 0
M  V30 7096 H 668.783 4.42647 4.73253 0
M  V30 7097 N 662.189 -1.289 0.906776 0
M  V30 7098 C 663.429 -1.97046 0.543329 0
M  V30 7099 C 663.793 -1.69862 -0.895034 0
M  V30 7100 O 664.994 -2.31521 -1.36571 0
M  V30 7101 C 663.265 -3.47489 0.835833 0
M  V30 7102 S 664.824 -4.3498 0.577756 0
M  V30 7103 H 661.642 -0.681908 0.201302 0
M  V30 7104 H 664.244 -1.5657 1.17073 0
M  V30 7105 H 662.948 -3.64768 1.88075 0
M  V30 7106 H 662.479 -3.92907 0.196817 0
M  V30 7107 H 664.494 -4.92868 -0.574052 0
M  V30 7108 N 663.667 -0.670007 -1.42649 0
M  V30 7109 C 664.599 0.0501746 -2.29145 0
M  V30 7110 C 665.612 0.770331 -1.43422 0
M  V30 7111 O 666.801 0.625288 -1.6719 0
M  V30 7112 C 663.901 1.09463 -3.20735 0
M  V30 7113 C 663.074 0.44926 -4.35087 0
M  V30 7114 C 662.133 1.39285 -5.07431 0
M  V30 7115 O 661.159 0.894997 -5.6212 0
M  V30 7116 N 662.361 2.72631 -5.12496 0
M  V30 7117 H 665.126 -0.692312 -2.91594 0
M  V30 7118 H 662.687 -0.514056 -1.53522 0
M  V30 7119 H 664.679 1.72705 -3.65999 0
M  V30 7120 H 663.249 1.73891 -2.59771 0
M  V30 7121 H 662.469 -0.362573 -3.92529 0
M  V30 7122 H 663.757 -0.000544776 -5.088 0
M  V30 7123 H 663.155 3.15623 -4.69467 0
M  V30 7124 H 661.712 3.31132 -5.61422 0
M  V30 7125 N 665.145 1.52092 -0.413018 0
M  V30 7126 C 666.422 1.94356 0.22024 0
M  V30 7127 C 666.802 1.35017 1.62277 0
M  V30 7128 O 666.15 0.527511 2.22328 0
M  V30 7129 C 666.36 3.48289 0.222638 0
M  V30 7130 C 667.708 4.22313 0.440098 0
M  V30 7131 O 668.732 3.54919 0.301826 0
M  V30 7132 O 667.591 5.41829 0.712984 0
M  V30 7133 H 664.685 0.814536 0.14304 0
M  V30 7134 H 667.231 1.63083 -0.469242 0
M  V30 7135 H 666.003 3.83872 -0.758836 0
M  V30 7136 H 665.626 3.85934 0.956057 0
M  V30 7137 N 666.623 0.143563 1.56945 0
M  V30 7138 C 667.533 -0.810562 2.20152 0
M  V30 7139 C 668.549 -1.27431 1.1848 0
M  V30 7140 O 669.725 -1.33221 1.51044 0
M  V30 7141 C 666.79 -2.03353 2.80799 0
M  V30 7142 C 665.851 -1.61936 3.97587 0
M  V30 7143 C 665.084 -2.78403 4.55332 0
M  V30 7144 O 665.307 -3.94521 4.11958 0
M  V30 7145 O 664.241 -2.54073 5.45647 0
M  V30 7146 H 668.067 -0.30253 3.02189 0
M  V30 7147 H 665.652 -0.0832925 1.49168 0
M  V30 7148 H 667.534 -2.74932 3.19359 0
M  V30 7149 H 666.209 -2.53116 2.01777 0
M  V30 7150 H 665.116 -0.873904 3.6375 0
M  V30 7151 H 666.449 -1.16892 4.78118 0
M  V30 7152 N 668.101 -1.57061 -0.130224 0
M  V30 7153 C 669.326 -1.88802 -0.858409 0
M  V30 7154 C 669.751 -0.734353 -1.73173 0
M  V30 7155 O 669.109 0.315529 -1.78533 0
M  V30 7156 C 669.157 -3.19228 -1.67708 0
M  V30 7157 O 668.261 -3.04343 -2.78297 0
M  V30 7158 H 667.602 -0.619849 -0.238083 0
M  V30 7159 H 670.132 -2.04271 -0.115995 0
M  V30 7160 H 670.142 -3.51669 -2.06864 0
M  V30 7161 H 668.817 -4.02793 -1.0359 0
M  V30 7162 H 667.394 -2.83346 -2.42425 0
M  V30 7163 N 669.579 0.400081 -1.52437 0
M  V30 7164 C 670.489 1.51253 -1.79331 0
M  V30 7165 C 671.505 1.60188 -0.679396 0
M  V30 7166 O 672.681 1.76733 -0.965791 0
M  V30 7167 C 669.746 2.869 -1.94652 0
M  V30 7168 C 668.807 2.87777 -3.18564 0
M  V30 7169 C 668.04 4.16954 -3.33145 0
M  V30 7170 O 668.263 5.11329 -2.52783 0
M  V30 7171 O 667.197 4.2487 -4.26343 0
M  V30 7172 H 671.023 1.31461 -2.73773 0
M  V30 7173 H 668.608 0.586834 -1.37392 0
M  V30 7174 H 670.49 3.67336 -2.065 0
M  V30 7175 H 669.165 3.06741 -1.034 0
M  V30 7176 H 668.072 2.06162 -3.12167 0
M  V30 7177 H 669.405 2.72886 -4.09627 0
M  V30 7178 N 671.057 1.43213 0.657864 0
M  V30 7179 C 672.02 1.47687 1.75275 0
M  V30 7180 C 673.02 0.362179 1.56668 0
M  V30 7181 O 674.21 0.623734 1.62651 0
M  V30 7182 C 671.342 1.32497 3.14098 0
M  V30 7183 H 672.535 2.4519 1.7269 0
M  V30 7184 H 670.088 1.2991 0.869087 0
M  V30 7185 H 670.823 0.359831 3.22298 0
M  V30 7186 H 670.608 2.13299 3.29008 0
M  V30 7187 H 672.098 1.38549 3.93946 0
M  V30 7188 N 672.536 -0.895792 1.29666 0
M  V30 7189 C 673.782 -1.64908 1.18039 0
M  V30 7190 C 674.115 -1.9236 -0.266682 0
M  V30 7191 O 673.39 -1.53682 -1.19214 0
M  V30 7192 C 673.673 -2.99574 1.99819 0
M  V30 7193 C 673.526 -2.79163 3.52687 0
M  V30 7194 C 674.845 -4.00358 1.82761 0
M  V30 7195 H 671.964 -0.598437 0.430165 0
M  V30 7196 H 674.606 -1.03736 1.59182 0
M  V30 7197 H 672.756 -3.51786 1.64859 0
M  V30 7198 H 674.428 -2.33821 3.9765 0
M  V30 7199 H 672.671 -2.13871 3.77414 0
M  V30 7200 H 673.342 -3.74871 4.05186 0
M  V30 7201 H 675.818 -3.57268 2.13304 0
M  V30 7202 H 674.694 -4.92514 2.42325 0
M  V30 7203 H 674.955 -4.35096 0.783839 0
M  V30 7204 N 674.014 -1.12206 -1.10668 0
M  V30 7205 C 675.254 -0.885935 -1.84202 0
M  V30 7206 C 675.618 0.577849 -1.83098 0
M  V30 7207 O 676.819 0.931051 -2.5216 0
M  V30 7208 C 675.09 -1.44197 -3.2702 0
M  V30 7209 S 676.649 -1.34402 -4.1771 0
M  V30 7210 H 673.467 -0.319653 -0.635093 0
M  V30 7211 H 676.069 -1.43112 -1.33189 0
M  V30 7212 H 674.773 -2.50096 -3.25392 0
M  V30 7213 H 674.304 -0.894173 -3.83103 0
M  V30 7214 H 676.319 -0.313873 -4.95206 0
M  V30 7215 N 675.492 1.28418 -0.913599 0
M  V30 7216 C 676.717 1.99643 -0.561899 0
M  V30 7217 C 677.142 1.67819 0.849608 0
M  V30 7218 O 676.5 0.910503 1.56779 0
M  V30 7219 C 676.548 3.52116 -0.777622 0
M  V30 7220 O 675.652 4.12076 0.163457 0
M  V30 7221 H 674.993 0.627229 -0.217898 0
M  V30 7222 H 677.523 1.63575 -1.229 0
M  V30 7223 H 677.533 4.02163 -0.687666 0
M  V30 7224 H 676.208 3.74613 -1.8066 0
M  V30 7225 H 674.785 3.72892 0.0247827 0
M  V30 7226 N 676.97 0.677563 1.42291 0
M  V30 7227 C 677.88 0.000962654 2.346 0
M  V30 7228 C 678.896 -0.785833 1.55244 0
M  V30 7229 O 680.072 -0.727523 1.87801 0
M  V30 7230 C 677.137 -0.936746 3.33805 0
M  V30 7231 C 676.198 -0.144173 4.29058 0
M  V30 7232 C 675.431 -1.03722 5.23524 0
M  V30 7233 O 675.654 -2.27675 5.22992 0
M  V30 7234 O 674.588 -0.496542 5.99848 0
M  V30 7235 H 678.414 0.761397 2.94001 0
M  V30 7236 H 675.999 0.43781 1.42841 0
M  V30 7237 H 677.881 -1.47497 3.94744 0
M  V30 7238 H 676.556 -1.67698 2.76874 0
M  V30 7239 H 675.463 0.438224 3.71524 0
M  V30 7240 H 676.796 0.55701 4.89038 0
M  V30 7241 N 678.448 -1.51871 0.421078 0
M  V30 7242 C 679.694 -2.02894 -0.143346 0
M  V30 7243 C 680.049 -1.30054 -1.41787 0
M  V30 7244 O 679.342 -0.401776 -1.8734 0
M  V30 7245 C 679.536 -3.54764 -0.433292 0
M  V30 7246 C 679.365 -4.42316 0.811584 0
M  V30 7247 C 678.135 -4.872 1.34033 0
M  V30 7248 C 680.333 -4.85631 1.69313 0
M  V30 7249 N 678.315 -5.58915 2.53944 0
M  V30 7250 C 679.686 -5.56248 2.7384 0
M  V30 7251 C 681.741 -4.67634 1.70947 0
M  V30 7252 C 680.444 -6.10777 3.79927 0
M  V30 7253 C 682.47 -5.23068 2.7596 0
M  V30 7254 C 681.832 -5.93617 3.79207 0
M  V30 7255 H 677.931 -0.78188 -0.0137104 0
M  V30 7256 H 680.515 -1.85919 0.578105 0
M  V30 7257 H 678.686 -3.71787 -1.12378 0
M  V30 7258 H 680.418 -3.92464 -0.987644 0
M  V30 7259 H 677.173 -4.65035 0.896606 0
M  V30 7260 H 677.597 -5.99408 3.14704 0
M  V30 7261 H 682.239 -4.12566 0.9246 0
M  V30 7262 H 679.957 -6.64909 4.59262 0
M  V30 7263 H 683.543 -5.11005 2.78147 0
M  V30 7264 H 682.423 -6.35743 4.5913 0
M  V30 7265 N 679.926 -0.151884 -1.56866 0
M  V30 7266 C 680.873 0.785936 -2.17006 0
M  V30 7267 C 681.843 1.2407 -1.10435 0
M  V30 7268 O 683.028 1.31235 -1.38499 0
M  V30 7269 C 680.168 2.01771 -2.79969 0
M  V30 7270 C 679.281 1.6083 -4.00946 0
M  V30 7271 C 678.416 2.79224 -4.51893 0
M  V30 7272 C 677.455 2.3468 -5.65324 0
M  V30 7273 N 676.592 3.461 -6.10867 0
M  V30 7274 H 681.432 0.266286 -2.96808 0
M  V30 7275 H 678.969 0.11972 -1.46612 0
M  V30 7276 H 680.927 2.73989 -3.14621 0
M  V30 7277 H 679.557 2.51139 -2.02803 0
M  V30 7278 H 678.609 0.783592 -3.72242 0
M  V30 7279 H 679.921 1.24119 -4.83111 0
M  V30 7280 H 679.075 3.59625 -4.88625 0
M  V30 7281 H 677.814 3.19183 -3.68746 0
M  V30 7282 H 676.819 1.52721 -5.28163 0
M  V30 7283 H 678.044 1.95801 -6.5026 0
M  V30 7284 H 675.99 3.85671 -5.30654 0
M  V30 7285 H 675.907 3.1342 -6.87971 0
M  V30 7286 H 677.175 4.26844 -6.52246 0
M  V30 7287 N 681.404 1.57128 0.121893 0
M  V30 7288 C 682.651 1.847 0.830188 0
M  V30 7289 C 682.979 0.736543 1.80015 0
M  V30 7290 O 682.234 -0.272358 1.93796 0
M  V30 7291 C 682.533 3.1874 1.61677 0
M  V30 7292 C 682.199 4.43901 0.791361 0
M  V30 7293 C 680.861 4.77887 0.563731 0
M  V30 7294 C 683.213 5.20753 0.215823 0
M  V30 7295 C 680.541 5.86168 -0.249737 0
M  V30 7296 C 682.893 6.29891 -0.584821 0
M  V30 7297 C 681.557 6.6241 -0.822794 0
M  V30 7298 H 680.827 0.675866 0.303787 0
M  V30 7299 H 683.474 1.91276 0.0926894 0
M  V30 7300 H 681.779 3.07728 2.42509 0
M  V30 7301 H 683.476 3.37295 2.16872 0
M  V30 7302 H 680.066 4.17272 0.978867 0
M  V30 7303 H 684.25 4.94851 0.378907 0
M  V30 7304 H 679.506 6.0979 -0.44336 0
M  V30 7305 H 683.68 6.88624 -1.03779 0
M  V30 7306 H 681.307 7.46147 -1.45496 0
M  V30 7307 N 682.882 -0.391992 1.52647 0
M  V30 7308 C 683.845 -1.46135 1.7657 0
M  V30 7309 C 684.845 -1.47701 0.635698 0
M  V30 7310 O 686.035 -1.48924 0.903728 0
M  V30 7311 C 683.167 -2.85443 1.86374 0
M  V30 7312 H 684.36 -1.26208 2.72051 0
M  V30 7313 H 681.913 -0.623549 1.43323 0
M  V30 7314 H 682.648 -3.10718 0.928685 0
M  V30 7315 H 682.433 -2.85708 2.68539 0
M  V30 7316 H 683.923 -3.62933 2.06566 0
M  V30 7317 N 684.36 -1.4356 -0.65026 0
M  V30 7318 C 685.323 -1.48615 -1.74489 0
M  V30 7319 C 686.323 -0.370483 -1.56474 0
M  V30 7320 O 687.513 -0.632351 -1.62317 0
M  V30 7321 C 684.645 -1.34161 -3.13391 0
M  V30 7322 H 685.838 -2.46103 -1.71387 0
M  V30 7323 H 683.391 -1.30369 -0.862186 0
M  V30 7324 H 684.126 -0.376918 -3.22102 0
M  V30 7325 H 683.911 -2.1504 -3.27872 0
M  V30 7326 H 685.401 -1.40637 -3.93206 0
M  V30 7327 N 685.838 0.888903 -1.30139 0
M  V30 7328 C 687.078 1.65456 -1.20015 0
M  V30 7329 C 687.442 1.90467 0.242148 0
M  V30 7330 O 688.643 2.6472 0.466561 0
M  V30 7331 C 686.914 2.96071 -2.00191 0
M  V30 7332 S 688.473 3.87055 -2.06721 0
M  V30 7333 H 685.291 0.567927 -0.427761 0
M  V30 7334 H 687.893 1.05539 -1.64565 0
M  V30 7335 H 686.597 2.7559 -3.04103 0
M  V30 7336 H 686.128 3.61023 -1.56288 0
M  V30 7337 H 688.143 4.81676 -1.19174 0
M  V30 7338 N 687.317 1.12792 1.10072 0
M  V30 7339 C 688.563 0.886857 1.82381 0
M  V30 7340 C 688.896 -0.58576 1.85155 0
M  V30 7341 O 688.171 -1.43317 1.31493 0
M  V30 7342 C 688.454 1.46703 3.28862 0
M  V30 7343 C 688.307 3.00829 3.34398 0
M  V30 7344 C 689.626 1.12971 4.25353 0
M  V30 7345 H 686.745 0.32362 0.662148 0
M  V30 7346 H 689.387 1.39513 1.28982 0
M  V30 7347 H 687.537 1.03476 3.74466 0
M  V30 7348 H 689.209 3.52764 2.97247 0
M  V30 7349 H 687.452 3.36164 2.74183 0
M  V30 7350 H 688.123 3.36519 4.3756 0
M  V30 7351 H 690.599 1.50313 3.88001 0
M  V30 7352 H 689.475 1.56223 5.26199 0
M  V30 7353 H 689.736 0.0424452 4.4208 0
M  V30 7354 N 688.795 -1.27931 0.920396 0
M  V30 7355 C 690.041 -1.94977 0.557832 0
M  V30 7356 C 690.374 -1.72224 -0.897365 0
M  V30 7357 O 689.649 -1.04705 -1.63912 0
M  V30 7358 C 689.932 -3.49289 0.875741 0
M  V30 7359 C 689.785 -3.81416 2.38416 0
M  V30 7360 C 691.104 -4.38486 0.376517 0
M  V30 7361 H 688.223 -0.708164 0.20414 0
M  V30 7362 H 690.865 -1.5118 1.15085 0
M  V30 7363 H 689.015 -3.86724 0.371062 0
M  V30 7364 H 690.687 -3.53813 2.95997 0
M  V30 7365 H 688.93 -3.28225 2.83639 0
M  V30 7366 H 689.601 -4.89198 2.55713 0
M  V30 7367 H 692.077 -4.08161 0.808945 0
M  V30 7368 H 690.953 -5.45296 0.627976 0
M  V30 7369 H 691.214 -4.36143 -0.723293 0
M  V30 7370 N 690.273 -0.685099 -1.4193 0
M  V30 7371 C 691.55 -0.140152 -1.95097 0
M  V30 7372 C 691.93 1.34745 -1.62502 0
M  V30 7373 O 691.278 2.08872 -0.926534 0
M  V30 7374 C 691.488 -0.420268 -3.4646 0
M  V30 7375 C 692.836 -0.342338 -4.23218 0
M  V30 7376 O 693.86 -0.354592 -3.54431 0
M  V30 7377 O 692.719 -0.293404 -5.45712 0
M  V30 7378 H 689.813 -0.00885998 -0.826953 0
M  V30 7379 H 692.359 -0.760539 -1.51703 0
M  V30 7380 H 691.131 -1.45037 -3.63428 0
M  V30 7381 H 690.754 0.231616 -3.96925 0
M  V30 7382 N 691.751 1.51645 -0.429126 0
M  V30 7383 C 693.167 1.59394 -0.080994 0
M  V30 7384 C 693.367 1.44064 1.40882 0
M  V30 7385 O 692.423 1.27771 2.17786 0
M  V30 7386 C 693.736 2.94779 -0.593773 0
M  V30 7387 C 695.284 3.08067 -0.553494 0
M  V30 7388 C 695.759 4.45963 -1.04311 0
M  V30 7389 N 697.25 4.5226 -1.00076 0
M  V30 7390 C 697.985 5.57268 -1.35056 0
M  V30 7391 N 697.481 6.69734 -1.77282 0
M  V30 7392 N 699.274 5.47582 -1.26925 0
M  V30 7393 H 691.425 1.59856 -1.39857 0
M  V30 7394 H 693.688 0.753095 -0.575805 0
M  V30 7395 H 693.394 3.11342 -1.63583 0
M  V30 7396 H 693.268 3.77197 -0.0142202 0
M  V30 7397 H 695.655 2.91177 0.479556 0
M  V30 7398 H 695.736 2.27508 -1.16935 0
M  V30 7399 H 695.38 4.63598 -2.07459 0
M  V30 7400 H 695.31 5.25049 -0.403873 0
M  V30 7401 H 697.801 3.71537 -0.690564 0
M  V30 7402 H 698.114 7.4587 -2.02232 0
M  V30 7403 H 696.459 6.70963 -1.81202 0
M  V30 7404 H 699.65 4.58604 -0.93809 0
M  V30 7405 H 699.823 6.29308 -1.54516 0
M  V30 7406 N 693.229 0.160201 1.56784 0
M  V30 7407 C 694.159 -0.770264 2.2043 0
M  V30 7408 C 695.14 -1.24736 1.15651 0
M  V30 7409 O 696.325 -1.30253 1.44041 0
M  V30 7410 C 693.455 -2.00427 2.83631 0
M  V30 7411 C 692.409 -1.66345 3.94352 0
M  V30 7412 C 691.735 -2.97119 4.4455 0
M  V30 7413 C 693.035 -0.899972 5.14488 0
M  V30 7414 H 694.729 -0.239783 2.98438 0
M  V30 7415 H 692.275 -0.113891 1.43549 0
M  V30 7416 H 694.228 -2.66012 3.26827 0
M  V30 7417 H 692.952 -2.5587 2.02973 0
M  V30 7418 H 691.611 -1.03133 3.51794 0
M  V30 7419 H 691.259 -3.5058 3.60698 0
M  V30 7420 H 690.959 -2.75073 5.19238 0
M  V30 7421 H 692.483 -3.63753 4.90425 0
M  V30 7422 H 693.897 -1.45818 5.54446 0
M  V30 7423 H 692.294 -0.778968 5.95023 0
M  V30 7424 H 693.364 0.105827 4.84785 0
M  V30 7425 N 694.707 -1.5719 -0.113559 0
M  V30 7426 C 695.947 -1.86958 -0.82621 0
M  V30 7427 C 696.311 -0.748884 -1.76793 0
M  V30 7428 O 697.512 -0.92847 -2.52256 0
M  V30 7429 C 695.783 -3.21957 -1.55173 0
M  V30 7430 S 697.342 -3.73371 -2.3052 0
M  V30 7431 H 694.16 -0.655394 -0.275643 0
M  V30 7432 H 696.762 -1.95318 -0.0842684 0
M  V30 7433 H 695.466 -4.01459 -0.851977 0
M  V30 7434 H 694.997 -3.16688 -2.33393 0
M  V30 7435 H 697.012 -3.45308 -3.56338 0
M  V30 7436 N 696.185 0.383891 -1.52853 0
M  V30 7437 C 697.115 1.47559 -1.80965 0
M  V30 7438 C 698.096 1.5669 -0.661986 0
M  V30 7439 O 699.281 1.71556 -0.910072 0
M  V30 7440 C 696.411 2.85114 -1.98312 0
M  V30 7441 C 695.365 2.9082 -3.14019 0
M  V30 7442 C 694.691 4.30873 -3.16627 0
M  V30 7443 C 695.991 2.60001 -4.52986 0
M  V30 7444 H 697.685 1.24283 -2.72386 0
M  V30 7445 H 695.231 0.596445 -1.31067 0
M  V30 7446 H 697.184 3.61496 -2.16561 0
M  V30 7447 H 695.908 3.09738 -1.03585 0
M  V30 7448 H 694.567 2.16886 -2.9556 0
M  V30 7449 H 694.215 4.52545 -2.19573 0
M  V30 7450 H 693.915 4.3561 -3.94357 0
M  V30 7451 H 695.439 5.09154 -3.37038 0
M  V30 7452 H 696.853 3.261 -4.71521 0
M  V30 7453 H 695.25 2.76081 -5.32822 0
M  V30 7454 H 696.32 1.5532 -4.59351 0
M  V30 7455 N 697.663 1.43903 0.642637 0
M  V30 7456 C 698.596 1.44339 1.76753 0
M  V30 7457 C 699.574 0.303558 1.59741 0
M  V30 7458 O 700.758 0.498775 1.81781 0
M  V30 7459 C 697.885 1.26508 3.14187 0
M  V30 7460 C 696.931 2.43905 3.49875 0
M  V30 7461 S 697.764 4.0645 3.48653 0
M  V30 7462 C 698.92 3.91021 4.88726 0
M  V30 7463 H 699.153 2.39523 1.76113 0
M  V30 7464 H 696.686 1.31061 0.81623 0
M  V30 7465 H 698.644 1.16908 3.93501 0
M  V30 7466 H 697.305 0.328548 3.12377 0
M  V30 7467 H 696.498 2.27262 4.49853 0
M  V30 7468 H 696.1 2.50186 2.77998 0
M  V30 7469 H 698.392 3.54 5.77659 0
M  V30 7470 H 699.335 4.9079 5.10423 0
M  V30 7471 H 699.743 3.23287 4.62759 0
M  V30 7472 N 699.141 -0.881989 1.30609 0
M  V30 7473 C 700.104 -1.96957 1.1722 0
M  V30 7474 C 701.104 -1.60472 0.102598 0
M  V30 7475 O 702.294 -1.70628 0.350943 0
M  V30 7476 C 699.426 -3.31463 0.796572 0
M  V30 7477 H 700.619 -2.10262 2.13846 0
M  V30 7478 H 698.172 -1.06877 1.14048 0
M  V30 7479 H 698.907 -3.23859 -0.169053 0
M  V30 7480 H 698.692 -3.59314 1.56959 0
M  V30 7481 H 700.182 -4.11233 0.72645 0
M  V30 7482 N 700.619 -1.13374 -1.09472 0
M  V30 7483 C 701.866 -0.89519 -1.81639 0
M  V30 7484 C 702.194 0.57868 -1.85692 0
M  V30 7485 O 701.449 1.44426 -1.32059 0
M  V30 7486 C 701.748 -1.42759 -3.2765 0
M  V30 7487 C 701.414 -2.91822 -3.43731 0
M  V30 7488 C 700.076 -3.32521 -3.47827 0
M  V30 7489 C 702.428 -3.87727 -3.48307 0
M  V30 7490 C 699.756 -4.6781 -3.54078 0
M  V30 7491 C 702.108 -5.22859 -3.56091 0
M  V30 7492 C 700.772 -5.63086 -3.58456 0
M  V30 7493 H 700.042 -0.327573 -0.664663 0
M  V30 7494 H 702.689 -1.4156 -1.28969 0
M  V30 7495 H 700.994 -0.827871 -3.82954 0
M  V30 7496 H 702.691 -1.2191 -3.8202 0
M  V30 7497 H 699.281 -2.5935 -3.41226 0
M  V30 7498 H 703.465 -3.57371 -3.44383 0
M  V30 7499 H 698.721 -4.98353 -3.54195 0
M  V30 7500 H 702.895 -5.96989 -3.58577 0
M  V30 7501 H 700.522 -6.67905 -3.63052 0
M  V30 7502 N 702.098 1.27442 -0.927168 0
M  V30 7503 C 703.323 1.99036 -0.583042 0
M  V30 7504 C 703.748 1.68711 0.83176 0
M  V30 7505 O 703.106 0.927081 1.55804 0
M  V30 7506 C 703.154 3.51271 -0.814925 0
M  V30 7507 O 702.258 4.12226 0.119742 0
M  V30 7508 H 701.599 0.624883 -0.224538 0
M  V30 7509 H 704.129 1.62263 -1.24628 0
M  V30 7510 H 704.139 4.01411 -0.730282 0
M  V30 7511 H 702.814 3.72676 -1.84623 0
M  V30 7512 H 701.391 3.72897 -0.0147688 0
M  V30 7513 N 703.576 0.692616 1.41565 0
M  V30 7514 C 704.822 0.222664 2.01574 0
M  V30 7515 C 705.155 -1.1737 1.54719 0
M  V30 7516 O 704.43 -1.79161 0.757084 0
M  V30 7517 C 704.713 0.277064 3.59033 0
M  V30 7518 C 704.566 1.71016 4.16021 0
M  V30 7519 C 705.885 -0.36479 4.38586 0
M  V30 7520 H 703.004 0.0823839 0.732381 0
M  V30 7521 H 705.646 0.880778 1.68352 0
M  V30 7522 H 703.796 -0.283288 3.87466 0
M  V30 7523 H 705.468 2.32413 3.98475 0
M  V30 7524 H 703.711 2.24525 3.71175 0
M  V30 7525 H 704.382 1.69978 5.25178 0
M  V30 7526 H 706.858 0.112404 4.15948 0
M  V30 7527 H 705.734 -0.296169 5.481 0
M  V30 7528 H 705.995 -1.44506 4.17816 0
M  V30 7529 N 705.054 -1.51416 0.437162 0
M  V30 7530 C 706.301 -2.02086 -0.129364 0
M  V30 7531 C 706.629 -1.32133 -1.42728 0
M  V30 7532 O 705.884 -0.424916 -1.91031 0
M  V30 7533 C 706.183 -3.55203 -0.39564 0
M  V30 7534 C 705.849 -4.43447 0.81644 0
M  V30 7535 C 704.511 -4.67285 1.14884 0
M  V30 7536 C 706.863 -4.95219 1.62503 0
M  V30 7537 C 704.191 -5.40141 2.29052 0
M  V30 7538 C 706.543 -5.69327 2.7577 0
M  V30 7539 C 705.207 -5.91429 3.09464 0
M  V30 7540 H 704.477 -0.739486 -0.0473375 0
M  V30 7541 H 707.124 -1.82368 0.584321 0
M  V30 7542 H 705.429 -3.73252 -1.19121 0
M  V30 7543 H 707.126 -3.91944 -0.847399 0
M  V30 7544 H 703.716 -4.2509 0.547422 0
M  V30 7545 H 707.9 -4.76686 1.38144 0
M  V30 7546 H 703.156 -5.55468 2.55471 0
M  V30 7547 H 707.33 -6.08433 3.38795 0
M  V30 7548 H 704.957 -6.47662 3.98042 0
M  V30 7549 N 706.532 -0.168513 -1.56696 0
M  V30 7550 C 707.76 0.483503 -2.01171 0
M  V30 7551 C 708.175 1.56994 -1.04872 0
M  V30 7552 O 707.532 1.82434 -0.0491337 0
M  V30 7553 C 707.583 1.0644 -3.45475 0
M  V30 7554 O 707.304 0.0213375 -4.38095 0
M  V30 7555 C 708.805 1.79493 -4.05336 0
M  V30 7556 H 706.025 0.124002 -0.659443 0
M  V30 7557 H 708.569 -0.269419 -2.02717 0
M  V30 7558 H 706.724 1.76784 -3.44712 0
M  V30 7559 H 707.138 0.449837 -5.22567 0
M  V30 7560 H 708.612 2.15401 -5.08238 0
M  V30 7561 H 709.089 2.68889 -3.47269 0
M  V30 7562 H 709.695 1.13798 -4.09793 0
M  V30 7563 N 708.01 1.57248 0.105221 0
M  V30 7564 C 709.259 1.84756 0.809198 0
M  V30 7565 C 709.572 0.756262 1.80389 0
M  V30 7566 O 710.778 0.918158 2.55504 0
M  V30 7567 C 709.234 3.27613 1.48989 0
M  V30 7568 C 708.842 4.44788 0.535484 0
M  V30 7569 C 710.586 3.64356 2.17819 0
M  V30 7570 C 708.493 5.78676 1.22019 0
M  V30 7571 H 707.423 0.689139 0.305946 0
M  V30 7572 H 710.074 1.83395 0.0620371 0
M  V30 7573 H 708.456 3.23485 2.28415 0
M  V30 7574 H 709.63 4.60243 -0.226557 0
M  V30 7575 H 707.945 4.16374 -0.0465769 0
M  V30 7576 H 710.542 4.61663 2.69761 0
M  V30 7577 H 710.885 2.92474 2.96251 0
M  V30 7578 H 711.418 3.70328 1.45264 0
M  V30 7579 H 708.157 6.53763 0.476875 0
M  V30 7580 H 707.677 5.67083 1.9539 0
M  V30 7581 H 709.356 6.22897 1.74952 0
M  V30 7582 N 709.488 -0.375779 1.53054 0
M  V30 7583 C 710.737 -1.11674 1.67964 0
M  V30 7584 C 711.05 -1.90755 0.432655 0
M  V30 7585 O 712.256 -2.67538 0.462109 0
M  V30 7586 C 710.712 -2.0344 2.96884 0
M  V30 7587 C 710.32 -1.29719 4.28809 0
M  V30 7588 C 712.064 -2.7759 3.2116 0
M  V30 7589 C 709.971 -2.20327 5.48826 0
M  V30 7590 H 708.901 -0.420597 0.625791 0
M  V30 7591 H 711.552 -0.378499 1.79554 0
M  V30 7592 H 709.934 -2.80953 2.79072 0
M  V30 7593 H 711.108 -0.573394 4.57219 0
M  V30 7594 H 709.423 -0.674735 4.10897 0
M  V30 7595 H 712.02 -3.4559 4.0801 0
M  V30 7596 H 712.363 -3.42399 2.36789 0
M  V30 7597 H 712.896 -2.07164 3.396 0
M  V30 7598 H 709.635 -1.60113 6.35645 0
M  V30 7599 H 709.155 -2.90585 5.2471 0
M  V30 7600 H 710.834 -2.80116 5.83219 0
M  V30 7601 N 710.966 -1.44241 -0.634997 0
M  V30 7602 C 712.206 -1.48339 -1.40623 0
M  V30 7603 C 712.57 -0.111479 -1.91676 0
M  V30 7604 O 713.771 -0.0271345 -2.68786 0
M  V30 7605 C 712.042 -2.51122 -2.54308 0
M  V30 7606 S 713.601 -2.74237 -3.42548 0
M  V30 7607 H 710.419 -0.524715 -0.479787 0
M  V30 7608 H 713.021 -1.81138 -0.735489 0
M  V30 7609 H 711.725 -3.49511 -2.15106 0
M  V30 7610 H 711.256 -2.19883 -3.26213 0
M  V30 7611 H 713.271 -2.0554 -4.51628 0
M  V30 7612 N 712.444 0.87505 -1.31075 0
M  V30 7613 C 713.672 1.66058 -1.23419 0
M  V30 7614 C 714.087 1.87723 0.201347 0
M  V30 7615 O 713.444 1.43178 1.13165 0
M  V30 7616 C 713.495 3.03142 -1.96945 0
M  V30 7617 O 713.216 2.82448 -3.34895 0
M  V30 7618 C 714.717 3.97583 -1.96067 0
M  V30 7619 H 711.937 0.517868 -0.426677 0
M  V30 7620 H 714.481 1.09258 -1.72867 0
M  V30 7621 H 712.636 3.56645 -1.51271 0
M  V30 7622 H 713.05 3.69483 -3.72267 0
M  V30 7623 H 714.524 4.91104 -2.52034 0
M  V30 7624 H 715.001 4.2898 -0.941961 0
M  V30 7625 H 715.607 3.50015 -2.41597 0
M  V30 7626 N 713.922 1.13953 1.08869 0
M  V30 7627 C 715.171 0.899431 1.80536 0
M  V30 7628 C 715.484 -0.575781 1.86933 0
M  V30 7629 O 716.69 -0.932988 2.54966 0
M  V30 7630 C 715.146 1.55963 3.24351 0
M  V30 7631 C 714.754 3.07077 3.26202 0
M  V30 7632 C 716.498 1.40046 4.00733 0
M  V30 7633 C 714.405 3.65955 4.64576 0
M  V30 7634 H 713.335 0.332849 0.676556 0
M  V30 7635 H 715.986 1.3679 1.22314 0
M  V30 7636 H 714.368 1.01883 3.82669 0
M  V30 7637 H 715.542 3.67785 2.77617 0
M  V30 7638 H 713.857 3.22576 2.63312 0
M  V30 7639 H 716.454 1.81441 5.02974 0
M  V30 7640 H 716.797 0.345993 4.1486 0
M  V30 7641 H 717.33 1.91137 3.48872 0
M  V30 7642 H 714.069 4.71234 4.55652 0
M  V30 7643 H 713.589 3.10027 5.13462 0
M  V30 7644 H 715.268 3.65968 5.33551 0
M  V30 7645 N 715.4 -1.26948 0.933913 0
M  V30 7646 C 716.648 -1.93704 0.576484 0
M  V30 7647 C 716.969 -1.73702 -0.886145 0
M  V30 7648 O 716.239 -1.08838 -1.62884 0
M  V30 7649 H 714.819 -0.716812 0.210214 0
M  V30 7650 H 717.481 -1.54534 1.18766 0
M  V30 7651 H 716.577 -3.01987 0.788055 0
M  V30 7652 N 716.879 -0.700114 -1.41195 0
M  V30 7653 C 718.128 -0.230082 -2.00383 0
M  V30 7654 C 718.441 1.17857 -1.56106 0
M  V30 7655 O 719.647 1.74631 -2.07885 0
M  V30 7656 C 718.103 -0.360447 -3.5809 0
M  V30 7657 C 717.711 -1.77475 -4.11347 0
M  V30 7658 C 719.455 0.0495799 -4.24471 0
M  V30 7659 C 717.362 -1.85653 -5.61504 0
M  V30 7660 H 716.292 -0.0822633 -0.749499 0
M  V30 7661 H 718.943 -0.868969 -1.6162 0
M  V30 7662 H 717.325 0.346768 -3.94479 0
M  V30 7663 H 718.499 -2.51109 -3.86369 0
M  V30 7664 H 716.814 -2.13486 -3.57509 0
M  V30 7665 H 719.411 0.00898219 -5.34699 0
M  V30 7666 H 719.754 1.08904 -4.01803 0
M  V30 7667 H 720.287 -0.607521 -3.93134 0
M  V30 7668 H 717.026 -2.87667 -5.89006 0
M  V30 7669 H 716.546 -1.1641 -5.88395 0
M  V30 7670 H 718.225 -1.62151 -6.26351 0
M  V30 7671 N 718.357 1.51182 -0.445186 0
M  V30 7672 C 719.287 2.30821 0.352686 0
M  V30 7673 C 720.268 1.36576 1.01395 0
M  V30 7674 O 721.453 1.65497 1.01609 0
M  V30 7675 C 718.583 3.15593 1.44976 0
M  V30 7676 C 717.537 4.1818 0.911553 0
M  V30 7677 C 716.863 4.91523 2.10497 0
M  V30 7678 C 718.163 5.22266 -0.059418 0
M  V30 7679 H 719.857 2.97771 -0.311936 0
M  V30 7680 H 717.403 1.43201 -0.151461 0
M  V30 7681 H 719.356 3.70091 2.01521 0
M  V30 7682 H 718.08 2.4648 2.14278 0
M  V30 7683 H 716.739 3.64746 0.368264 0
M  V30 7684 H 716.387 4.18906 2.78437 0
M  V30 7685 H 716.087 5.60898 1.7512 0
M  V30 7686 H 717.611 5.48847 2.6758 0
M  V30 7687 H 719.025 5.71789 0.415985 0
M  V30 7688 H 717.422 5.99213 -0.326152 0
M  V30 7689 H 718.492 4.7461 -0.993631 0
M  V30 7690 N 719.835 0.176821 1.56605 0
M  V30 7691 C 720.768 -0.790135 2.14084 0
M  V30 7692 C 721.746 -1.22219 1.07244 0
M  V30 7693 O 722.93 -1.31298 1.35252 0
M  V30 7694 C 720.057 -2.06475 2.68488 0
M  V30 7695 C 719.103 -1.77628 3.87751 0
M  V30 7696 S 719.936 -0.940612 5.27174 0
M  V30 7697 C 721.092 -2.22577 5.84988 0
M  V30 7698 H 721.325 -0.30144 2.95768 0
M  V30 7699 H 718.858 -0.0379279 1.54353 0
M  V30 7700 H 720.816 -2.79683 3.00479 0
M  V30 7701 H 719.477 -2.52457 1.8688 0
M  V30 7702 H 718.67 -2.72215 4.24164 0
M  V30 7703 H 718.272 -1.12512 3.56675 0
M  V30 7704 H 720.564 -3.17992 5.98237 0
M  V30 7705 H 721.507 -1.90624 6.81959 0
M  V30 7706 H 721.915 -2.34588 5.13448 0
M  V30 7707 N 721.313 -1.57302 -0.09688 0
M  V30 7708 C 722.538 -1.9058 -0.818169 0
M  V30 7709 C 722.963 -0.770921 -1.71576 0
M  V30 7710 O 722.321 0.277588 -1.79162 0
M  V30 7711 C 722.369 -3.22714 -1.60898 0
M  V30 7712 O 721.473 -3.10178 -2.71779 0
M  V30 7713 H 720.814 -0.624759 -0.224882 0
M  V30 7714 H 723.344 -2.04471 -0.07264 0
M  V30 7715 H 723.354 -3.55978 -1.99358 0
M  V30 7716 H 722.029 -4.04899 -0.950227 0
M  V30 7717 H 720.606 -2.88424 -2.3636 0
M  V30 7718 N 722.791 0.367657 -1.53252 0
M  V30 7719 C 723.754 1.43308 -1.78873 0
M  V30 7720 C 724.754 1.46671 -0.659115 0
M  V30 7721 O 725.944 1.47468 -0.927306 0
M  V30 7722 C 723.076 2.82442 -1.90892 0
M  V30 7723 H 724.269 1.21864 -2.74024 0
M  V30 7724 H 721.822 0.600668 -1.44297 0
M  V30 7725 H 722.557 3.09202 -0.978 0
M  V30 7726 H 722.342 2.81399 -2.73051 0
M  V30 7727 H 723.832 3.59601 -2.12314 0
M  V30 7728 N 724.269 1.44576 0.627338 0
M  V30 7729 C 725.68 1.42266 1.20902 0
M  V30 7730 C 726.031 0.139964 1.957 0
M  V30 7731 O 725.156 -0.759489 2.02634 0
M  V30 7732 C 725.751 2.57727 2.19914 0
M  V30 7733 C 724.31 2.58599 2.73502 0
M  V30 7734 C 723.457 2.34145 1.48564 0
M  V30 7735 H 726.408 1.53102 0.417791 0
M  V30 7736 H 726.429 2.30697 3.02588 0
M  V30 7737 H 725.941 3.51068 1.65447 0
M  V30 7738 H 724.042 1.6921 3.31962 0
M  V30 7739 H 724.155 3.57205 3.19282 0
M  V30 7740 H 722.519 1.83313 1.76829 0
M  V30 7741 H 723.302 3.29606 0.959935 0
M  V30 7742 N 725.747 -0.868086 1.31537 0
M  V30 7743 C 726.695 -1.99688 1.1928 0
M  V30 7744 C 727.689 -1.69101 0.100656 0
M  V30 7745 O 728.895 -1.78073 0.262677 0
M  V30 7746 H 725.27 -0.655032 0.369374 0
M  V30 7747 H 727.241 -2.07157 2.14776 0
M  V30 7748 C 725.99 -3.35338 0.918892 0
M  V30 7749 H 725.313 -3.59396 1.75142 0
M  V30 7750 H 726.753 -4.14909 0.873311 0
M  V30 7751 C 725.212 -3.34769 -0.378366 0
M  V30 7752 O 725.742 -3.76716 -1.39456 0
M  V30 7753 N 723.948 -2.87895 -0.39557 0
M  V30 7754 H 723.495 -2.53954 0.431889 0
M  V30 7755 H 723.453 -2.87897 -1.26344 0
M  V30 7756 N 727.225 -1.14528 -1.08264 0
M  V30 7757 C 728.472 -0.914405 -1.80679 0
M  V30 7758 C 728.8 0.558952 -1.86295 0
M  V30 7759 O 728.055 1.43017 -1.33584 0
M  V30 7760 C 728.354 -1.46226 -3.26117 0
M  V30 7761 C 728.02 -2.95451 -3.40616 0
M  V30 7762 C 726.682 -3.36191 -3.4428 0
M  V30 7763 C 729.034 -3.91399 -3.44175 0
M  V30 7764 C 726.362 -4.71539 -3.49096 0
M  V30 7765 C 728.714 -5.26606 -3.50526 0
M  V30 7766 C 727.378 -5.66856 -3.52464 0
M  V30 7767 H 726.648 -0.334604 -0.661151 0
M  V30 7768 H 729.295 -1.4292 -1.27461 0
M  V30 7769 H 727.6 -0.868442 -3.82054 0
M  V30 7770 H 729.297 -1.25955 -3.80705 0
M  V30 7771 H 725.887 -2.62955 -3.38456 0
M  V30 7772 H 730.071 -3.61004 -3.40573 0
M  V30 7773 H 725.327 -5.02082 -3.4889 0
M  V30 7774 H 729.501 -6.00758 -3.52225 0
M  V30 7775 H 727.128 -6.71718 -3.55948 0
M  V30 7776 N 728.703 1.26451 -0.940633 0
M  V30 7777 C 729.949 1.94065 -0.58878 0
M  V30 7778 C 730.282 1.7363 0.869853 0
M  V30 7779 O 729.557 1.073 1.62225 0
M  V30 7780 C 729.84 3.47852 -0.931199 0
M  V30 7781 C 729.693 3.77575 -2.44453 0
M  V30 7782 C 731.012 4.37832 -0.446229 0
M  V30 7783 H 728.131 0.704827 -0.21538 0
M  V30 7784 H 730.773 1.4933 -1.17475 0
M  V30 7785 H 728.923 3.86085 -0.432539 0
M  V30 7786 H 730.595 3.49059 -3.01588 0
M  V30 7787 H 728.838 3.23671 -2.88825 0
M  V30 7788 H 729.509 4.85068 -2.63464 0
M  V30 7789 H 731.985 4.06822 -0.873778 0
M  V30 7790 H 730.861 5.44228 -0.714648 0
M  V30 7791 H 731.122 4.37239 0.653815 0
M  V30 7792 N 730.181 0.707592 1.40822 0
M  V30 7793 C 731.091 0.0507246 2.34545 0
M  V30 7794 C 732.107 -0.752727 1.56876 0
M  V30 7795 O 733.283 -0.687524 1.89302 0
M  V30 7796 C 730.348 -0.865731 3.35717 0
M  V30 7797 C 729.409 -0.0531313 4.29267 0
M  V30 7798 C 728.642 -0.925939 5.25606 0
M  V30 7799 O 728.865 -2.16531 5.27703 0
M  V30 7800 O 727.799 -0.369194 6.00767 0
M  V30 7801 H 731.625 0.823587 2.9232 0
M  V30 7802 H 729.21 0.46801 1.4188 0
M  V30 7803 H 731.092 -1.39091 3.97783 0
M  V30 7804 H 729.767 -1.61788 2.80368 0
M  V30 7805 H 728.674 0.516931 3.70511 0
M  V30 7806 H 730.007 0.660617 4.87747 0
M  V30 7807 N 731.66 -1.50943 0.453197 0
M  V30 7808 C 732.623 -2.26684 -0.338705 0
M  V30 7809 C 733.623 -1.30748 -0.936032 0
M  V30 7810 O 734.813 -1.54327 -0.808002 0
M  V30 7811 C 731.945 -3.07063 -1.48071 0
M  V30 7812 H 733.138 -2.98131 0.325289 0
M  V30 7813 H 730.691 -1.54926 0.206771 0
M  V30 7814 H 731.426 -2.4007 -2.18029 0
M  V30 7815 H 731.211 -3.77545 -1.0584 0
M  V30 7816 H 732.701 -3.64393 -2.0398 0
M  V30 7817 N 733.138 -0.185124 -1.56509 0
M  V30 7818 C 734.384 0.456934 -1.97585 0
M  V30 7819 C 734.717 1.61957 -1.07161 0
M  V30 7820 O 733.992 1.9412 -0.121546 0
M  V30 7821 C 734.275 0.926666 -3.47973 0
M  V30 7822 C 734.128 -0.237097 -4.49175 0
M  V30 7823 C 735.447 1.79561 -4.01803 0
M  V30 7824 H 732.566 0.164619 -0.71838 0
M  V30 7825 H 735.208 -0.274039 -1.88013 0
M  V30 7826 H 733.358 1.54954 -3.56261 0
M  V30 7827 H 735.03 -0.87454 -4.52934 0
M  V30 7828 H 733.273 -0.890446 -4.24563 0
M  V30 7829 H 733.944 0.133924 -5.51838 0
M  V30 7830 H 736.42 1.27039 -3.96232 0
M  V30 7831 H 735.296 2.09327 -5.07418 0
M  V30 7832 H 735.557 2.74629 -3.46455 0
M  V30 7833 N 734.616 1.57351 0.0885366 0
M  V30 7834 C 735.841 1.91011 0.80805 0
M  V30 7835 C 736.266 0.780009 1.71165 0
M  V30 7836 O 735.624 -0.268083 1.79307 0
M  V30 7837 C 735.672 3.23562 1.59185 0
M  V30 7838 O 734.776 3.11615 2.7013 0
M  V30 7839 H 734.117 0.625943 0.221565 0
M  V30 7840 H 736.647 2.04507 0.0617954 0
M  V30 7841 H 736.657 3.5703 1.97468 0
M  V30 7842 H 735.332 4.05398 0.928741 0
M  V30 7843 H 733.909 2.89673 2.34827 0
M  V30 7844 N 736.094 -0.359525 1.53444 0
M  V30 7845 C 737.041 -1.44073 1.8031 0
M  V30 7846 C 738.011 -1.52946 0.647811 0
M  V30 7847 O 739.196 -1.68739 0.890614 0
M  V30 7848 C 736.336 -2.80941 2.00416 0
M  V30 7849 C 735.449 -2.80986 3.28132 0
M  V30 7850 C 734.584 -4.09468 3.38393 0
M  V30 7851 C 733.623 -4.03679 4.60119 0
M  V30 7852 N 732.76 -5.23821 4.675 0
M  V30 7853 H 737.6 -1.20464 2.72566 0
M  V30 7854 H 735.137 -0.583859 1.35017 0
M  V30 7855 H 737.095 -3.60459 2.1006 0
M  V30 7856 H 735.725 -3.02936 1.11489 0
M  V30 7857 H 734.777 -1.93666 3.27411 0
M  V30 7858 H 736.089 -2.72583 4.17732 0
M  V30 7859 H 735.243 -4.97404 3.47382 0
M  V30 7860 H 733.982 -4.20632 2.4682 0
M  V30 7861 H 732.987 -3.14129 4.51224 0
M  V30 7862 H 734.212 -3.94112 5.5304 0
M  V30 7863 H 732.158 -5.35559 3.7883 0
M  V30 7864 H 732.075 -5.17611 5.51013 0
M  V30 7865 H 733.343 -6.13572 4.8078 0
M  V30 7866 N 737.572 -1.44907 -0.619662 0
M  V30 7867 C 738.849 -1.38766 -1.37852 0
M  V30 7868 C 739.229 -0.0521393 -2.11036 0
M  V30 7869 O 738.577 0.965613 -2.07095 0
M  V30 7870 C 738.787 -2.59344 -2.33541 0
M  V30 7871 C 740.135 -3.03909 -2.96521 0
M  V30 7872 O 741.159 -2.59631 -2.43865 0
M  V30 7873 O 740.018 -3.80713 -3.92071 0
M  V30 7874 H 737.112 -0.550083 -0.617525 0
M  V30 7875 H 739.658 -1.57015 -0.643759 0
M  V30 7876 H 738.43 -3.48142 -1.78642 0
M  V30 7877 H 738.053 -2.43367 -3.14417 0
M  V30 7878 N 739.05 0.861098 -1.31996 0
M  V30 7879 C 740.297 1.61481 -1.22188 0
M  V30 7880 C 740.625 1.93276 0.217853 0
M  V30 7881 O 739.88 1.56942 1.16909 0
M  V30 7882 C 740.179 2.94822 -2.02027 0
M  V30 7883 C 739.845 2.82483 -3.51446 0
M  V30 7884 C 738.507 2.78825 -3.92186 0
M  V30 7885 C 740.859 2.68878 -4.46491 0
M  V30 7886 C 738.187 2.59433 -5.26224 0
M  V30 7887 C 740.539 2.51022 -5.80664 0
M  V30 7888 C 739.203 2.45753 -6.20614 0
M  V30 7889 H 738.473 0.590902 -0.447119 0
M  V30 7890 H 741.12 0.999376 -1.63355 0
M  V30 7891 H 739.425 3.6045 -1.53569 0
M  V30 7892 H 741.122 3.52149 -1.91812 0
M  V30 7893 H 737.712 2.86152 -3.19085 0
M  V30 7894 H 741.896 2.70754 -4.1594 0
M  V30 7895 H 737.152 2.53784 -5.5624 0
M  V30 7896 H 741.326 2.39473 -6.53931 0
M  V30 7897 H 738.953 2.30485 -7.24417 0
M  V30 7898 N 740.528 1.15101 1.07655 0
M  V30 7899 C 741.491 0.847625 2.12951 0
M  V30 7900 C 742.491 -0.151227 1.60087 0
M  V30 7901 O 743.681 0.0780399 1.74025 0
M  V30 7902 C 740.813 0.265 3.39868 0
M  V30 7903 H 742.006 1.7809 2.41296 0
M  V30 7904 H 739.559 0.958072 1.23494 0
M  V30 7905 H 740.294 -0.676625 3.17163 0
M  V30 7906 H 740.079 0.984554 3.79538 0
M  V30 7907 H 741.569 0.0702121 4.17541 0
M  V30 7908 O 742.045 -1.2028 1.07773 0
M  V30 7909 H 742.736 -1.77907 0.76608 0
M  V30 END ATOM
M  V30 BEGIN BOND
M  V30 END BOND
M  V30 END CTAB
M  END
$$$$
