drugbank_target|P0A6F3 Glycerol kinase (DB02937; DB04551)
 OpenBabel12092119573D

  0  0  0     0  0            999 V3000
M  V30 BEGIN CTAB
M  V30 COUNTS 7844 7924 0 0 0
M  V30 BEGIN ATOM
M  V30 1 H -0.908 1.98254 -0.117106 0
M  V30 2 N 0 1.576 0 0
M  V30 3 C 0.933 2.03868 1.02534 0
M  V30 4 C 1.911 0.928543 1.3348 0
M  V30 5 O 3.095 1.19667 1.45644 0
M  V30 6 C 0.222 2.43627 2.35294 0
M  V30 7 C -0.732 3.65373 2.2001 0
M  V30 8 S 0.101 5.13292 1.52614 0
M  V30 9 C 1.257 5.56322 2.86805 0
M  V30 10 H 1.49 2.90518 0.631377 0
M  V30 11 H -0.977 1.52953 0.210867 0
M  V30 12 H 0.981 2.67203 3.11629 0
M  V30 13 H -0.358 1.57376 2.7183 0
M  V30 14 H -1.165 3.90944 3.18086 0
M  V30 15 H -1.563 3.418 1.51819 0
M  V30 16 H 0.729 5.58782 3.83104 0
M  V30 17 H 1.672 6.56266 2.65933 0
M  V30 18 H 2.08 4.83886 2.90714 0
M  V30 19 N 1.4781 -0.272755 1.55222 0
M  V30 20 C 2.7061 -1.02255 1.79865 0
M  V30 21 C 3.1211 -1.79924 0.572088 0
M  V30 22 O 2.4781 -1.76638 -0.458842 0
M  V30 23 C 2.5291 -1.98094 3.02392 0
M  V30 24 O 2.2501 -1.23572 4.20311 0
M  V30 25 C 3.7511 -2.84884 3.39641 0
M  V30 26 H 0.9711 -0.302057 0.599168 0
M  V30 27 H 3.5151 -0.303465 2.02236 0
M  V30 28 H 1.6701 -2.65465 2.82147 0
M  V30 29 H 2.0841 -1.88172 4.89583 0
M  V30 30 H 3.5581 -3.47927 4.28545 0
M  V30 31 H 4.0351 -3.54665 2.59055 0
M  V30 32 H 4.6411 -2.23003 3.62146 0
M  V30 33 N 2.9562 -1.48159 -0.537278 0
M  V30 34 C 3.8662 -1.64807 -1.6696 0
M  V30 35 C 4.8822 -0.530651 -1.65711 0
M  V30 36 O 6.0582 -0.800784 -1.84796 0
M  V30 37 C 3.1232 -1.67708 -3.03438 0
M  V30 38 C 2.1842 -2.91025 -3.156 0
M  V30 39 C 1.4172 -2.93778 -4.45567 0
M  V30 40 O 1.6402 -2.05153 -5.3223 0
M  V30 41 O 0.5742 -3.85868 -4.61941 0
M  V30 42 H 4.4002 -2.6066 -1.55853 0
M  V30 43 H 1.9852 -1.31475 -0.709549 0
M  V30 44 H 3.8672 -1.7218 -3.84619 0
M  V30 45 H 2.5422 -0.750278 -3.14885 0
M  V30 46 H 1.4492 -2.92089 -2.33741 0
M  V30 47 H 2.7822 -3.83065 -3.09066 0
M  V30 48 N 4.4343 0.785586 -1.36625 0
M  V30 49 C 5.3813 1.89838 -1.31264 0
M  V30 50 C 6.3513 1.65115 -0.180633 0
M  V30 51 O 7.5363 1.87222 -0.36777 0
M  V30 52 C 4.6763 3.26706 -1.11163 0
M  V30 53 C 3.7893 3.63476 -2.33472 0
M  V30 54 C 2.9243 4.89481 -2.06353 0
M  V30 55 C 1.9633 5.18941 -3.24602 0
M  V30 56 N 1.1003 6.36131 -2.97123 0
M  V30 57 H 5.9403 1.93756 -2.26413 0
M  V30 58 H 3.4773 0.947454 -1.12524 0
M  V30 59 H 5.4353 4.05639 -0.975337 0
M  V30 60 H 4.0653 3.222 -0.196674 0
M  V30 61 H 3.1173 2.79636 -2.57891 0
M  V30 62 H 4.4293 3.81193 -3.21704 0
M  V30 63 H 3.5833 5.76288 -1.89675 0
M  V30 64 H 2.3223 4.73841 -1.15437 0
M  V30 65 H 1.3273 4.30615 -3.41834 0
M  V30 66 H 2.5523 5.36498 -4.16349 0
M  V30 67 H 0.4983 6.21875 -2.08823 0
M  V30 68 H 0.4153 6.54198 -3.78894 0
M  V30 69 H 1.6833 7.2591 -2.84033 0
M  V30 70 N 5.9124 1.20967 1.01018 0
M  V30 71 C 6.8594 0.964281 2.09691 0
M  V30 72 C 7.8294 -0.107853 1.65749 0
M  V30 73 O 9.0144 0.0381987 1.90762 0
M  V30 74 C 6.1544 0.52943 3.41015 0
M  V30 75 C 5.2674 1.67043 3.98398 0
M  V30 76 C 4.4024 1.18525 5.17808 0
M  V30 77 C 3.4414 2.29892 5.67288 0
M  V30 78 N 2.5784 1.82546 6.77954 0
M  V30 79 H 7.4184 1.89463 2.30017 0
M  V30 80 H 4.9554 0.944289 1.1279 0
M  V30 81 H 6.9134 0.258588 4.16398 0
M  V30 82 H 5.5434 -0.363919 3.20742 0
M  V30 83 H 4.5954 2.05603 3.20049 0
M  V30 84 H 5.9074 2.50877 4.31117 0
M  V30 85 H 5.0614 0.870762 6.00419 0
M  V30 86 H 3.8004 0.316887 4.86669 0
M  V30 87 H 2.8054 2.6215 4.83278 0
M  V30 88 H 4.0304 3.17216 6.00459 0
M  V30 89 H 1.9764 0.980454 6.48632 0
M  V30 90 H 1.8934 2.59956 7.09901 0
M  V30 91 H 3.1614 1.54115 7.64113 0
M  V30 92 N 7.3905 -1.2043 1.01659 0
M  V30 93 C 8.6205 -1.93496 0.724081 0
M  V30 94 C 9.0285 -1.74998 -0.71918 0
M  V30 95 O 8.3715 -1.06118 -1.49949 0
M  V30 96 C 8.4335 -3.45886 0.97994 0
M  V30 97 C 8.0975 -3.88145 2.41232 0
M  V30 98 C 9.0945 -3.93907 3.39313 0
M  V30 99 C 6.7795 -4.20134 2.75305 0
M  V30 100 C 8.7735 -4.31069 4.6953 0
M  V30 101 C 6.4605 -4.56971 4.05735 0
M  V30 102 C 7.4585 -4.62411 5.02658 0
M  V30 103 O 7.1465 -4.98403 6.30754 0
M  V30 104 H 6.8785 -0.621824 0.265162 0
M  V30 105 H 9.4325 -1.53867 1.36066 0
M  V30 106 H 7.6625 -3.85639 0.286198 0
M  V30 107 H 9.3515 -4.0018 0.679021 0
M  V30 108 H 10.1175 -3.69357 3.14325 0
M  V30 109 H 5.9965 -4.1509 2.00551 0
M  V30 110 H 9.5405 -4.3523 5.45179 0
M  V30 111 H 5.4375 -4.80977 4.30502 0
M  V30 112 H 6.2055 -5.16395 6.35042 0
M  V30 113 N 8.8686 -0.792821 -1.36206 0
M  V30 114 C 10.1176 -0.363353 -1.984 0
M  V30 115 C 10.4306 1.07172 -1.63626 0
M  V30 116 O 11.6366 1.60362 -2.19081 0
M  V30 117 C 10.0926 -0.59872 -3.54885 0
M  V30 118 C 9.7006 -2.04543 -3.9858 0
M  V30 119 C 11.4446 -0.233926 -4.23855 0
M  V30 120 C 9.3516 -2.22727 -5.47856 0
M  V30 121 H 8.2816 -0.13212 -0.742334 0
M  V30 122 H 10.9326 -0.974935 -1.55458 0
M  V30 123 H 9.3146 0.0826222 -3.95914 0
M  V30 124 H 10.4886 -2.76345 -3.68741 0
M  V30 125 H 8.8036 -2.36879 -3.42458 0
M  V30 126 H 11.4006 -0.348027 -5.33566 0
M  V30 127 H 11.7436 0.818351 -4.08177 0
M  V30 128 H 12.2766 -0.868639 -3.882 0
M  V30 129 H 9.0156 -3.2635 -5.68486 0
M  V30 130 H 8.5356 -1.55434 -5.7931 0
M  V30 131 H 10.2146 -2.03607 -6.14128 0
M  V30 132 N 10.3467 1.47872 -0.545128 0
M  V30 133 C 11.5927 2.02793 -0.0166104 0
M  V30 134 C 11.9257 1.41987 1.32489 0
M  V30 135 O 11.2007 0.571045 1.85928 0
M  V30 136 C 11.4837 3.59989 0.0893294 0
M  V30 137 C 11.3367 4.3125 -1.27841 0
M  V30 138 C 12.6557 4.32606 0.808724 0
M  V30 139 H 9.7747 0.736962 -0.00751035 0
M  V30 140 H 12.4167 1.76433 -0.705085 0
M  V30 141 H 10.5667 3.82579 0.675681 0
M  V30 142 H 12.2387 4.20035 -1.90704 0
M  V30 143 H 10.4817 3.92076 -1.85632 0
M  V30 144 H 11.1527 5.39736 -1.15713 0
M  V30 145 H 13.6287 4.14936 0.310992 0
M  V30 146 H 12.5047 5.42251 0.851782 0
M  V30 147 H 12.7657 4.00963 1.86229 0
M  V30 148 N 11.8248 0.280983 1.55075 0
M  V30 149 C 12.7878 -0.590896 2.21452 0
M  V30 150 C 13.7878 -1.07682 1.19421 0
M  V30 151 O 14.9778 -0.97605 1.44288 0
M  V30 152 C 12.1098 -1.81587 2.88511 0
M  V30 153 H 13.3028 -0.0112554 2.99898 0
M  V30 154 H 10.8558 0.0316438 1.56268 0
M  V30 155 H 11.5908 -2.43587 2.14093 0
M  V30 156 H 11.3758 -1.4753 3.63287 0
M  V30 157 H 12.8658 -2.43575 3.39206 0
M  V30 158 N 13.3029 -1.57598 0.00835791 0
M  V30 159 C 14.2329 -2.1198 -0.979113 0
M  V30 160 C 15.2139 -1.03091 -1.35301 0
M  V30 161 O 16.3989 -1.30818 -1.43528 0
M  V30 162 C 13.5289 -2.62995 -2.26828 0
M  V30 163 C 12.4829 -3.76485 -2.03576 0
M  V30 164 C 11.8089 -4.13846 -3.38579 0
M  V30 165 C 13.1089 -5.0342 -1.39161 0
M  V30 166 H 14.8029 -2.94738 -0.526281 0
M  V30 167 H 12.3489 -1.41783 -0.251704 0
M  V30 168 H 14.3019 -2.99669 -2.96271 0
M  V30 169 H 13.0259 -1.7737 -2.7424 0
M  V30 170 H 11.6849 -3.40217 -1.36557 0
M  V30 171 H 11.3329 -3.25232 -3.83709 0
M  V30 172 H 11.0329 -4.90312 -3.23834 0
M  V30 173 H 12.5569 -4.53086 -4.09323 0
M  V30 174 H 13.9709 -5.37812 -1.98573 0
M  V30 175 H 12.3679 -5.84746 -1.34878 0
M  V30 176 H 13.4379 -4.83548 -0.361868 0
M  V30 177 N 14.781 0.264519 -1.55364 0
M  V30 178 C 16.058 1.01677 -1.67096 0
M  V30 179 C 16.438 2.03996 -0.543015 0
M  V30 180 O 15.786 2.23907 0.45585 0
M  V30 181 C 15.996 1.66596 -3.0667 0
M  V30 182 C 17.344 2.17442 -3.64697 0
M  V30 183 O 18.368 1.76568 -3.09358 0
M  V30 184 O 17.227 2.92439 -4.61673 0
M  V30 185 H 14.321 0.472161 -0.678965 0
M  V30 186 H 16.867 0.259703 -1.67701 0
M  V30 187 H 15.639 0.924962 -3.80211 0
M  V30 188 H 15.262 2.48968 -3.10001 0
M  V30 189 N 16.2591 1.48442 0.529413 0
M  V30 190 C 17.1911 1.59095 1.64989 0
M  V30 191 C 18.2041 0.475212 1.5571 0
M  V30 192 O 19.3931 0.746081 1.6216 0
M  V30 193 C 16.4931 1.50518 3.0364 0
M  V30 194 C 15.6661 2.77142 3.38395 0
M  V30 195 C 14.7251 2.62012 4.56329 0
M  V30 196 O 13.7511 3.35898 4.59522 0
M  V30 197 N 14.9531 1.71667 5.54536 0
M  V30 198 H 17.7181 2.55723 1.56287 0
M  V30 199 H 15.2791 1.45173 0.716697 0
M  V30 200 H 17.2711 1.38091 3.80412 0
M  V30 201 H 15.8411 0.618627 3.06418 0
M  V30 202 H 15.0611 3.0413 2.50796 0
M  V30 203 H 16.3491 3.61146 3.58401 0
M  V30 204 H 15.7471 1.10841 5.54735 0
M  V30 205 H 14.3041 1.65178 6.30523 0
M  V30 206 N 17.7372 -0.778329 1.37039 0
M  V30 207 C 18.9852 -1.53361 1.31623 0
M  V30 208 C 19.3062 -1.94739 -0.100831 0
M  V30 209 O 18.5762 -1.65797 -1.04347 0
M  V30 210 H 17.1562 -0.568794 0.484234 0
M  V30 211 H 19.8182 -0.926742 1.71457 0
M  V30 212 H 18.9142 -2.43606 1.95096 0
M  V30 213 N 19.2153 -1.21501 -1.00376 0
M  V30 214 C 20.4433 -1.059 -1.77744 0
M  V30 215 C 20.8583 0.391125 -1.84704 0
M  V30 216 O 20.2153 1.27133 -1.30933 0
M  V30 217 C 20.2663 -1.65111 -3.21591 0
M  V30 218 O 19.9873 -3.0445 -3.15027 0
M  V30 219 C 21.4883 -1.54637 -4.15454 0
M  V30 220 H 18.7083 -0.371825 -0.558558 0
M  V30 221 H 21.2523 -1.60865 -1.26264 0
M  V30 222 H 19.4073 -1.14235 -3.70175 0
M  V30 223 H 19.8213 -3.3278 -4.0541 0
M  V30 224 H 21.2953 -2.00808 -5.14179 0
M  V30 225 H 21.7723 -0.501022 -4.36333 0
M  V30 226 H 22.3783 -2.04767 -3.72761 0
M  V30 227 N 20.6934 1.19889 -1.02296 0
M  V30 228 C 21.9214 1.9339 -0.735399 0
M  V30 229 C 22.3364 1.75148 0.704887 0
M  V30 230 O 21.6934 1.06954 1.47875 0
M  V30 231 C 21.7444 3.45313 -1.06962 0
M  V30 232 O 21.4654 3.62964 -2.45334 0
M  V30 233 C 22.9664 4.35948 -0.804021 0
M  V30 234 H 20.1864 0.61448 -0.269546 0
M  V30 235 H 22.7304 1.522 -1.36585 0
M  V30 236 H 20.8854 3.84359 -0.484455 0
M  V30 237 H 21.2994 4.56886 -2.57595 0
M  V30 238 H 22.7734 5.41174 -1.0879 0
M  V30 239 H 23.2504 4.3842 0.261691 0
M  V30 240 H 23.8564 4.02574 -1.37164 0
M  V30 241 N 22.1715 0.800033 1.35784 0
M  V30 242 C 23.3965 0.388511 2.03729 0
M  V30 243 C 23.8215 -0.990481 1.5991 0
M  V30 244 O 23.1795 -1.64013 0.772612 0
M  V30 245 C 23.2275 0.4726 3.5749 0
M  V30 246 O 22.3315 -0.51646 4.09153 0
M  V30 247 H 21.6725 0.163271 0.643614 0
M  V30 248 H 24.2025 1.0841 1.73518 0
M  V30 249 H 24.2125 0.34003 4.06581 0
M  V30 250 H 22.8875 1.47848 3.88734 0
M  V30 251 H 21.4645 -0.344673 3.71304 0
M  V30 252 N 23.6496 -1.47581 0.552962 0
M  V30 253 C 24.8746 -2.07378 0.0300593 0
M  V30 254 C 25.2996 -1.40355 -1.25229 0
M  V30 255 O 24.6576 -0.477099 -1.7491 0
M  V30 256 C 24.7056 -3.60274 -0.153231 0
M  V30 257 O 23.8096 -3.94041 -1.21678 0
M  V30 258 H 23.1506 -0.662158 0.0494182 0
M  V30 259 H 25.6806 -1.89662 0.767434 0
M  V30 260 H 25.6906 -4.0633 -0.368761 0
M  V30 261 H 24.3656 -4.08455 0.783397 0
M  V30 262 H 22.9426 -3.59735 -0.982079 0
M  V30 263 N 25.1277 -0.289203 -1.54924 0
M  V30 264 C 26.5437 0.0645403 -1.59469 0
M  V30 265 C 26.7437 1.53419 -1.30632 0
M  V30 266 O 25.7997 2.2852 -1.074 0
M  V30 267 C 27.1127 -0.32278 -2.98963 0
M  V30 268 C 28.6607 -0.270564 -3.11828 0
M  V30 269 C 29.1357 -0.632532 -4.53611 0
M  V30 270 N 30.6267 -0.584617 -4.59496 0
M  V30 271 C 31.3617 -0.837314 -5.67254 0
M  V30 272 N 30.8577 -1.15536 -6.83098 0
M  V30 273 N 32.6507 -0.765166 -5.56868 0
M  V30 274 H 24.8017 -1.24714 -1.71931 0
M  V30 275 H 27.0647 -0.504809 -0.802416 0
M  V30 276 H 26.7707 -1.34541 -3.24948 0
M  V30 277 H 26.6447 0.32944 -3.75759 0
M  V30 278 H 29.0317 0.742805 -2.85598 0
M  V30 279 H 29.1127 -0.957242 -2.37214 0
M  V30 280 H 28.7567 -1.64365 -4.80569 0
M  V30 281 H 28.6867 0.07609 -5.26545 0
M  V30 282 H 31.1777 -0.349248 -3.76283 0
M  V30 283 H 31.4907 -1.33447 -7.61191 0
M  V30 284 H 29.8357 -1.19328 -6.84679 0
M  V30 285 H 33.0267 -0.516432 -4.65243 0
M  V30 286 H 33.1997 -0.965477 -6.40767 0
M  V30 287 N 26.6058 1.57591 -0.0167156 0
M  V30 288 C 27.5688 2.08393 0.954204 0
M  V30 289 C 28.5688 0.996531 1.26198 0
M  V30 290 O 29.7588 1.25858 1.20438 0
M  V30 291 C 26.8908 2.5394 2.27436 0
M  V30 292 H 28.0838 2.95455 0.514451 0
M  V30 293 H 25.6368 1.54582 0.231089 0
M  V30 294 H 26.3718 1.70171 2.76066 0
M  V30 295 H 26.1568 3.33371 2.06412 0
M  V30 296 H 27.6468 2.93512 2.97053 0
M  V30 297 N 28.0839 -0.256276 1.55502 0
M  V30 298 C 29.3299 -0.987079 1.77157 0
M  V30 299 C 29.6629 -1.85327 0.580315 0
M  V30 300 O 28.9379 -1.89874 -0.421686 0
M  V30 301 C 29.2209 -1.85553 3.08613 0
M  V30 302 C 29.0739 -1.01816 4.38125 0
M  V30 303 C 30.3929 -2.8397 3.36228 0
M  V30 304 H 27.5119 -0.357428 0.644526 0
M  V30 305 H 30.1539 -0.258239 1.88237 0
M  V30 306 H 28.3039 -2.47695 2.99298 0
M  V30 307 H 29.9759 -0.416159 4.59419 0
M  V30 308 H 28.2189 -0.322178 4.32602 0
M  V30 309 H 28.8899 -1.65939 5.26468 0
M  V30 310 H 31.3659 -2.31964 3.45445 0
M  V30 311 H 30.2419 -3.41864 4.29442 0
M  V30 312 H 30.5029 -3.59955 2.56681 0
M  V30 313 N 29.562 -1.4872 -0.521534 0
M  V30 314 C 30.808 -1.574 -1.27879 0
M  V30 315 C 31.141 -0.250817 -1.92573 0
M  V30 316 O 30.416 0.743934 -1.79711 0
M  V30 317 C 30.699 -2.71843 -2.36164 0
M  V30 318 C 30.552 -4.13893 -1.76105 0
M  V30 319 C 31.871 -2.82008 -3.37875 0
M  V30 320 H 28.99 -0.572941 -0.463581 0
M  V30 321 H 31.632 -1.80927 -0.580119 0
M  V30 322 H 29.782 -2.51914 -2.95756 0
M  V30 323 H 31.454 -4.45284 -1.20499 0
M  V30 324 H 29.697 -4.20498 -1.06601 0
M  V30 325 H 30.368 -4.89804 -2.5455 0
M  V30 326 H 32.844 -3.00086 -2.88249 0
M  V30 327 H 31.72 -3.63796 -4.11028 0
M  V30 328 H 31.981 -1.90511 -3.98946 0
M  V30 329 N 31.0401 0.771051 -1.3745 0
M  V30 330 C 31.9731 1.89166 -1.27638 0
M  V30 331 C 32.9511 1.61842 -0.156782 0
M  V30 332 O 34.1351 1.85569 -0.331111 0
M  V30 333 C 31.2621 3.24405 -0.973621 0
M  V30 334 C 30.3081 3.70638 -2.1102 0
M  V30 335 S 31.1411 3.84228 -3.73 0
M  V30 336 C 32.2971 5.22313 -3.44876 0
M  V30 337 H 32.5301 1.972 -2.22485 0
M  V30 338 H 30.0631 0.932224 -1.23081 0
M  V30 339 H 32.0211 4.02514 -0.805766 0
M  V30 340 H 30.6821 3.14071 -0.0426279 0
M  V30 341 H 29.8751 4.68685 -1.85338 0
M  V30 342 H 29.4771 2.99632 -2.23822 0
M  V30 343 H 31.7691 6.07505 -2.99908 0
M  V30 344 H 32.7121 5.53008 -4.42253 0
M  V30 345 H 33.1201 4.90284 -2.79789 0
M  V30 346 N 32.5182 1.22032 0.997298 0
M  V30 347 C 33.7952 0.950823 1.70935 0
M  V30 348 C 34.1752 -0.535292 2.042 0
M  V30 349 O 33.5232 -1.50217 1.72183 0
M  V30 350 C 33.7332 1.84386 2.96315 0
M  V30 351 C 35.0812 2.09732 3.69185 0
M  V30 352 O 36.1052 1.81798 3.06314 0
M  V30 353 O 34.9642 2.57018 4.82291 0
M  V30 354 H 32.0582 0.357204 0.745878 0
M  V30 355 H 34.6042 1.32997 1.05404 0
M  V30 356 H 33.3762 2.84928 2.68201 0
M  V30 357 H 32.9992 1.46602 3.69586 0
M  V30 358 N 33.9963 -1.19345 1.0293 0
M  V30 359 C 34.9463 -2.20472 0.58104 0
M  V30 360 C 35.9303 -1.56578 -0.370442 0
M  V30 361 O 37.1223 -1.75963 -0.191344 0
M  V30 362 C 34.2513 -3.43236 -0.066306 0
M  V30 363 C 33.3373 -4.14274 0.907642 0
M  V30 364 N 33.7283 -4.61492 2.07023 0
M  V30 365 C 32.0263 -4.39966 0.731177 0
M  V30 366 C 32.7273 -5.1605 2.68454 0
M  V30 367 N 31.7033 -5.06875 1.96414 0
M  V30 368 H 35.5053 -2.54659 1.46717 0
M  V30 369 H 33.0193 -1.35423 0.896345 0
M  V30 370 H 35.0163 -4.14927 -0.405068 0
M  V30 371 H 33.6763 -3.10549 -0.948118 0
M  V30 372 H 34.6873 -4.56304 2.44963 0
M  V30 373 H 31.3643 -4.17377 -0.101507 0
M  V30 374 H 32.7543 -5.6287 3.66915 0
M  V30 375 N 35.4744 -0.807222 -1.35358 0
M  V30 376 C 36.7514 -0.311126 -1.9311 0
M  V30 377 C 37.1314 1.19937 -1.73719 0
M  V30 378 O 36.4794 1.99918 -1.10657 0
M  V30 379 C 36.6894 -0.723226 -3.41424 0
M  V30 380 C 38.0374 -0.713078 -4.18569 0
M  V30 381 O 39.0614 -0.664811 -3.49941 0
M  V30 382 O 37.9204 -0.772022 -5.41019 0
M  V30 383 H 35.0144 -0.081526 -0.822972 0
M  V30 384 H 37.5604 -0.890962 -1.4443 0
M  V30 385 H 36.3324 -1.76426 -3.4927 0
M  V30 386 H 35.9554 -0.118232 -3.97424 0
M  V30 387 N 36.9525 1.47285 -0.560781 0
M  V30 388 C 37.9155 2.28535 0.174488 0
M  V30 389 C 38.9155 1.37153 0.839388 0
M  V30 390 O 40.1055 1.59748 0.694702 0
M  V30 391 C 37.2375 3.16934 1.25561 0
M  V30 392 H 38.4305 2.95012 -0.539262 0
M  V30 393 H 35.9835 1.53034 -0.317865 0
M  V30 394 H 36.7185 2.55157 2.00164 0
M  V30 395 H 36.5035 3.8419 0.783604 0
M  V30 396 H 37.9935 3.78143 1.77193 0
M  V30 397 N 38.4306 0.297415 1.54768 0
M  V30 398 C 39.3786 -0.596051 2.24833 0
M  V30 399 C 40.3726 -1.13992 1.25308 0
M  V30 400 O 41.5786 -1.09098 1.4317 0
M  V30 401 H 37.9536 -0.210814 0.721846 0
M  V30 402 H 39.9246 0.0174667 2.98395 0
M  V30 403 C 38.6736 -1.75818 2.99972 0
M  V30 404 H 37.9966 -1.3489 3.76357 0
M  V30 405 H 39.4366 -2.35949 3.52284 0
M  V30 406 C 37.8956 -2.66014 2.06732 0
M  V30 407 O 38.4256 -3.67009 1.63302 0
M  V30 408 N 36.6316 -2.33669 1.72763 0
M  V30 409 H 36.1786 -1.51586 2.08277 0
M  V30 410 H 36.1366 -2.94285 1.10652 0
M  V30 411 N 39.9087 -1.5758 0.0250728 0
M  V30 412 C 41.1577 -1.90811 -0.653767 0
M  V30 413 C 41.4707 -0.90273 -1.73523 0
M  V30 414 O 42.6767 -1.12614 -2.47043 0
M  V30 415 C 41.1327 -3.38804 -1.21409 0
M  V30 416 C 40.7407 -4.47692 -0.166126 0
M  V30 417 C 42.4847 -3.81108 -1.86967 0
M  V30 418 C 40.3917 -5.86779 -0.737856 0
M  V30 419 H 39.3217 -0.712063 -0.247956 0
M  V30 420 H 41.9727 -1.83281 0.0897137 0
M  V30 421 H 40.3547 -3.41252 -2.00905 0
M  V30 422 H 41.5287 -4.56797 0.606079 0
M  V30 423 H 39.8437 -4.14565 0.390466 0
M  V30 424 H 42.4407 -4.82375 -2.30692 0
M  V30 425 H 42.7837 -3.15953 -2.71071 0
M  V30 426 H 43.3167 -3.81065 -1.14167 0
M  V30 427 H 40.0557 -6.55468 0.0649577 0
M  V30 428 H 39.5757 -5.81288 -1.47864 0
M  V30 429 H 41.2547 -6.35223 -1.22884 0
M  V30 430 N 41.3868 0.248026 -1.55636 0
M  V30 431 C 42.6358 0.974134 -1.76617 0
M  V30 432 C 42.9488 1.86528 -0.588796 0
M  V30 433 O 44.1548 2.62805 -0.681594 0
M  V30 434 C 42.6108 1.78213 -3.12679 0
M  V30 435 C 42.2188 0.93843 -4.38061 0
M  V30 436 C 43.9628 2.50104 -3.42999 0
M  V30 437 C 41.8698 1.74225 -5.65155 0
M  V30 438 H 40.7998 0.36745 -0.658405 0
M  V30 439 H 43.4508 0.22884 -1.82067 0
M  V30 440 H 41.8328 2.56933 -3.01333 0
M  V30 441 H 43.0068 0.193635 -4.60393 0
M  V30 442 H 41.3218 0.332905 -4.15067 0
M  V30 443 H 43.9188 3.10694 -4.3517 0
M  V30 444 H 44.2618 3.21662 -2.64271 0
M  V30 445 H 44.7948 1.78395 -3.55556 0
M  V30 446 H 41.5338 1.07043 -6.46701 0
M  V30 447 H 41.0538 2.46235 -5.46926 0
M  V30 448 H 42.7328 2.30967 -6.0437 0
M  V30 449 N 42.8649 1.48995 0.513639 0
M  V30 450 C 44.0899 1.61792 1.29762 0
M  V30 451 C 44.5149 0.284475 1.85936 0
M  V30 452 O 43.8729 -0.746185 1.65232 0
M  V30 453 C 43.9209 2.67993 2.41272 0
M  V30 454 O 43.0249 2.26287 3.44772 0
M  V30 455 H 42.3659 0.541963 0.38363 0
M  V30 456 H 44.8959 1.95097 0.616307 0
M  V30 457 H 44.9059 2.89772 2.87221 0
M  V30 458 H 43.5809 3.64791 1.9975 0
M  V30 459 H 42.1579 2.14788 3.04829 0
M  V30 460 N 44.343 -0.763751 1.37857 0
M  V30 461 C 45.589 -1.52483 1.33704 0
M  V30 462 C 45.922 -1.94051 -0.0759612 0
M  V30 463 O 45.197 -1.64675 -1.03501 0
M  V30 464 C 45.48 -2.78441 2.28348 0
M  V30 465 C 45.333 -2.43075 3.78463 0
M  V30 466 C 46.652 -3.80415 2.21298 0
M  V30 467 H 43.771 -0.553169 0.487005 0
M  V30 468 H 46.413 -0.875562 1.68624 0
M  V30 469 H 44.563 -3.33842 1.987 0
M  V30 470 H 46.235 -1.93527 4.18742 0
M  V30 471 H 44.478 -1.75666 3.96641 0
M  V30 472 H 45.149 -3.33149 4.40132 0
M  V30 473 H 47.625 -3.34527 2.47449 0
M  V30 474 H 46.501 -4.66257 2.89647 0
M  V30 475 H 46.762 -4.25262 1.20849 0
M  V30 476 N 45.8211 -1.22559 -0.990812 0
M  V30 477 C 47.0461 -1.07862 -1.77145 0
M  V30 478 C 47.4711 0.366447 -1.84496 0
M  V30 479 O 46.8291 1.26478 -1.29896 0
M  V30 480 C 46.8771 -1.69686 -3.18181 0
M  V30 481 O 45.9811 -0.951946 -4.01263 0
M  V30 482 H 45.3221 -0.378712 -0.545411 0
M  V30 483 H 47.8521 -1.62399 -1.2445 0
M  V30 484 H 47.8621 -1.74496 -3.68802 0
M  V30 485 H 46.5371 -2.74841 -3.12146 0
M  V30 486 H 45.1141 -0.980011 -3.59792 0
M  V30 487 N 47.2992 1.18797 -1.03562 0
M  V30 488 C 48.2312 2.21731 -0.580337 0
M  V30 489 C 49.2442 1.59051 0.347349 0
M  V30 490 O 50.4332 1.77929 0.142669 0
M  V30 491 C 47.5332 3.38459 0.172805 0
M  V30 492 C 46.7062 4.3072 -0.761496 0
M  V30 493 C 45.7652 5.26174 -0.0525547 0
M  V30 494 O 44.7912 5.65108 -0.681333 0
M  V30 495 N 45.9932 5.67624 1.21586 0
M  V30 496 H 48.7582 2.61417 -1.46565 0
M  V30 497 H 46.3192 1.33531 -0.915476 0
M  V30 498 H 48.3112 3.99335 0.656793 0
M  V30 499 H 46.8812 2.97507 0.959602 0
M  V30 500 H 46.1012 3.67525 -1.42544 0
M  V30 501 H 47.3892 4.89267 -1.39626 0
M  V30 502 H 46.7872 5.38038 1.74732 0
M  V30 503 H 45.3442 6.30721 1.64421 0
M  V30 504 N 48.7773 0.814389 1.34928 0
M  V30 505 C 50.1933 0.499084 1.51596 0
M  V30 506 C 50.3933 -0.978319 1.76157 0
M  V30 507 O 49.4493 -1.76309 1.80752 0
M  V30 508 C 50.7623 1.35121 2.68631 0
M  V30 509 C 52.3103 1.34746 2.82511 0
M  V30 510 C 52.7853 2.18388 4.0258 0
M  V30 511 N 54.2763 2.15966 4.09772 0
M  V30 512 C 55.0113 2.77437 5.01813 0
M  V30 513 N 54.5073 3.47866 5.99134 0
M  V30 514 N 56.3003 2.67037 4.94619 0
M  V30 515 H 48.4513 1.7711 1.17243 0
M  V30 516 H 50.7143 0.754256 0.574284 0
M  V30 517 H 50.4203 2.40001 2.57085 0
M  V30 518 H 50.2943 1.00991 3.63429 0
M  V30 519 H 52.6813 0.30648 2.93504 0
M  V30 520 H 52.7623 1.72869 1.88547 0
M  V30 521 H 52.4063 3.2253 3.92347 0
M  V30 522 H 52.3363 1.77621 4.9574 0
M  V30 523 H 54.8273 1.64729 3.40107 0
M  V30 524 H 55.1403 3.92038 6.65977 0
M  V30 525 H 53.4853 3.51972 5.99284 0
M  V30 526 H 56.6763 2.11597 4.17546 0
M  V30 527 H 56.8493 3.15232 5.66156 0
M  V30 528 N 50.2554 -1.46986 0.568584 0
M  V30 529 C 51.1654 -2.33942 -0.17555 0
M  V30 530 C 52.1814 -1.48891 -0.90041 0
M  V30 531 O 53.3574 -1.81794 -0.86676 0
M  V30 532 C 50.4224 -3.25811 -1.18524 0
M  V30 533 C 49.4834 -4.26757 -0.466582 0
M  V30 534 C 48.7164 -5.14236 -1.42817 0
M  V30 535 O 48.9394 -5.04379 -2.66379 0
M  V30 536 O 47.8734 -5.94412 -0.946453 0
M  V30 537 H 51.6994 -2.98896 0.538036 0
M  V30 538 H 49.2844 -1.4573 0.329097 0
M  V30 539 H 51.1664 -3.82527 -1.76779 0
M  V30 540 H 49.8414 -2.63471 -1.88055 0
M  V30 541 H 48.7484 -3.73769 0.157451 0
M  V30 542 H 50.0814 -4.91843 0.187485 0
M  V30 543 N 51.7335 -0.305618 -1.54608 0
M  V30 544 C 52.9805 0.302298 -2.00231 0
M  V30 545 C 53.3085 1.5354 -1.19398 0
M  V30 546 O 52.5635 1.93973 -0.259423 0
M  V30 547 C 52.8625 0.698983 -3.50498 0
M  V30 548 C 52.5285 -0.432903 -4.48817 0
M  V30 549 C 51.1905 -0.743622 -4.75419 0
M  V30 550 C 53.5425 -1.19409 -5.07337 0
M  V30 551 C 50.8705 -1.81857 -5.57804 0
M  V30 552 C 53.2225 -2.25899 -5.90891 0
M  V30 553 C 51.8865 -2.57572 -6.15803 0
M  V30 554 H 51.1565 0.110619 -0.732697 0
M  V30 555 H 53.8035 -0.425674 -1.86709 0
M  V30 556 H 52.1085 1.50711 -3.61654 0
M  V30 557 H 53.8055 1.1806 -3.83227 0
M  V30 558 H 50.3955 -0.18063 -4.28219 0
M  V30 559 H 54.5795 -0.967295 -4.86782 0
M  V30 560 H 49.8355 -2.06864 -5.75341 0
M  V30 561 H 54.0095 -2.85335 -6.35261 0
M  V30 562 H 51.6365 -3.40998 -6.7943 0
M  V30 563 N 53.2116 1.57565 -0.0334293 0
M  V30 564 C 54.1216 2.13943 0.962572 0
M  V30 565 C 55.1376 1.09276 1.35406 0
M  V30 566 O 56.3136 1.41355 1.4346 0
M  V30 567 C 53.3786 2.65887 2.22497 0
M  V30 568 C 52.4396 3.85286 1.8935 0
M  V30 569 C 51.6726 4.34743 3.09571 0
M  V30 570 O 51.8956 3.83352 4.22371 0
M  V30 571 O 50.8296 5.26538 2.91618 0
M  V30 572 H 54.6556 2.99333 0.513169 0
M  V30 573 H 52.2406 1.4822 0.18743 0
M  V30 574 H 54.1226 2.99346 2.96598 0
M  V30 575 H 52.7976 1.83578 2.6661 0
M  V30 576 H 51.7046 3.56746 1.1262 0
M  V30 577 H 53.0376 4.68771 1.5005 0
M  V30 578 N 54.6897 -0.239769 1.55765 0
M  V30 579 C 55.6217 -1.32001 1.87372 0
M  V30 580 C 56.6347 -1.43944 0.760522 0
M  V30 581 O 57.8237 -1.45167 1.0387 0
M  V30 582 C 54.9237 -2.69779 2.05115 0
M  V30 583 C 54.0967 -2.80014 3.36022 0
M  V30 584 C 53.1557 -3.98684 3.4342 0
M  V30 585 O 52.1817 -3.87877 4.16582 0
M  V30 586 N 53.3837 -5.12176 2.73232 0
M  V30 587 H 56.1487 -1.0522 2.80622 0
M  V30 588 H 53.7097 -0.429857 1.56089 0
M  V30 589 H 55.7017 -3.47517 2.07399 0
M  V30 590 H 54.2717 -2.89237 1.18577 0
M  V30 591 H 53.4917 -1.88896 3.45994 0
M  V30 592 H 54.7797 -2.83808 4.22292 0
M  V30 593 H 54.1777 -5.2385 2.13536 0
M  V30 594 H 52.7347 -5.88022 2.81199 0
M  V30 595 N 56.1678 -1.49265 -0.50573 0
M  V30 596 C 57.4168 -1.57761 -1.25675 0
M  V30 597 C 57.7298 -0.267371 -1.93764 0
M  V30 598 O 58.9358 -0.230827 -2.70517 0
M  V30 599 C 57.3918 -2.78332 -2.28165 0
M  V30 600 C 56.9998 -4.16096 -1.66037 0
M  V30 601 C 58.7438 -2.96155 -3.04125 0
M  V30 602 C 56.6508 -5.27895 -2.6661 0
M  V30 603 H 55.5808 -0.587391 -0.472745 0
M  V30 604 H 58.2318 -1.75644 -0.53118 0
M  V30 605 H 56.6138 -2.53934 -3.03865 0
M  V30 606 H 57.7878 -4.50612 -0.963622 0
M  V30 607 H 56.1028 -4.03591 -1.02484 0
M  V30 608 H 58.6998 -3.76849 -3.79327 0
M  V30 609 H 59.0428 -2.06534 -3.61455 0
M  V30 610 H 59.5758 -3.2057 -2.35541 0
M  V30 611 H 56.3148 -6.1956 -2.14068 0
M  V30 612 H 55.8348 -4.97839 -3.34539 0
M  V30 613 H 57.5138 -5.57031 -3.29129 0
M  V30 614 N 57.6459 0.756429 -1.3826 0
M  V30 615 C 58.8759 1.54341 -1.3734 0
M  V30 616 C 59.2839 1.89159 0.0393917 0
M  V30 617 O 58.6269 1.5307 1.01565 0
M  V30 618 C 58.6889 2.87238 -2.16182 0
M  V30 619 C 58.3529 2.74973 -3.65019 0
M  V30 620 C 59.3499 2.44962 -4.58574 0
M  V30 621 C 57.0349 2.92515 -4.08338 0
M  V30 622 C 59.0289 2.32642 -5.93428 0
M  V30 623 C 56.7159 2.79815 -5.43274 0
M  V30 624 C 57.7139 2.49921 -6.35632 0
M  V30 625 O 57.4019 2.37275 -7.68086 0
M  V30 626 H 57.1339 0.484281 -0.471643 0
M  V30 627 H 59.6879 0.944152 -1.82414 0
M  V30 628 H 57.9179 3.49342 -1.65822 0
M  V30 629 H 59.6069 3.48731 -2.07705 0
M  V30 630 H 60.3729 2.31081 -4.26412 0
M  V30 631 H 56.2519 3.14781 -3.368 0
M  V30 632 H 59.7959 2.0923 -6.65484 0
M  V30 633 H 55.6929 2.93269 -5.75034 0
M  V30 634 H 56.4609 2.52509 -7.78577 0
M  V30 635 N 59.124 1.23083 0.984299 0
M  V30 636 C 60.535 1.05609 1.5396 0
M  V30 637 C 60.886 -0.377793 1.92528 0
M  V30 638 O 60.011 -1.26398 1.75649 0
M  V30 639 C 60.606 1.91087 2.7977 0
M  V30 640 C 59.165 1.77885 3.31713 0
M  V30 641 C 58.312 1.87028 2.04733 0
M  V30 642 H 61.263 1.36802 0.804419 0
M  V30 643 H 61.284 1.43336 3.5247 0
M  V30 644 H 60.796 2.9544 2.51668 0
M  V30 645 H 58.897 0.762995 3.64704 0
M  V30 646 H 59.01 2.61047 4.01735 0
M  V30 647 H 57.374 1.30565 2.18689 0
M  V30 648 H 58.157 2.92929 1.79017 0
M  V30 649 N 60.6021 -1.18246 1.0419 0
M  V30 650 C 61.5491 -2.2192 0.634037 0
M  V30 651 C 62.5191 -1.62179 -0.358765 0
M  V30 652 O 63.7041 -1.89122 -0.252466 0
M  V30 653 C 60.8441 -3.451 0.00445535 0
M  V30 654 C 59.9571 -4.19174 1.04487 0
M  V30 655 C 59.0921 -5.29813 0.383676 0
M  V30 656 C 58.1311 -5.9566 1.4091 0
M  V30 657 N 57.2681 -6.97834 0.772784 0
M  V30 658 H 62.1081 -2.56164 1.52263 0
M  V30 659 H 59.6451 -1.25843 0.761701 0
M  V30 660 H 61.6031 -4.15485 -0.377919 0
M  V30 661 H 60.2331 -3.11472 -0.847652 0
M  V30 662 H 59.2851 -3.47604 1.54518 0
M  V30 663 H 60.5971 -4.64267 1.82368 0
M  V30 664 H 59.7511 -6.06677 -0.0528366 0
M  V30 665 H 58.4901 -4.85825 -0.427208 0
M  V30 666 H 57.4951 -5.17535 1.85574 0
M  V30 667 H 58.7201 -6.4173 2.22171 0
M  V30 668 H 56.6661 -6.55998 -0.0177708 0
M  V30 669 H 56.5831 -7.41186 1.48928 0
M  V30 670 H 57.8511 -7.78665 0.36071 0
M  V30 671 N 62.0802 -0.821533 -1.34494 0
M  V30 672 C 63.4912 -0.467956 -1.8074 0
M  V30 673 C 63.8422 1.01151 -1.68116 0
M  V30 674 O 62.9672 1.78707 -1.22036 0
M  V30 675 C 63.5622 -0.842627 -3.28154 0
M  V30 676 C 62.1212 -0.541439 -3.72485 0
M  V30 677 C 61.2682 -1.06028 -2.56229 0
M  V30 678 H 64.2192 -1.01183 -1.22261 0
M  V30 679 H 64.2402 -0.145876 -3.8022 0
M  V30 680 H 63.7522 -1.91945 -3.37311 0
M  V30 681 H 61.8532 0.526034 -3.68868 0
M  V30 682 H 61.9662 -1.08453 -4.66663 0
M  V30 683 H 60.3302 -0.481892 -2.501 0
M  V30 684 H 61.1132 -2.14352 -2.68157 0
M  V30 685 N 63.5583 1.46682 -0.576371 0
M  V30 686 C 64.8063 2.02013 -0.0594163 0
M  V30 687 C 65.1273 1.45101 1.30271 0
M  V30 688 O 64.3973 0.633317 1.8538 0
M  V30 689 H 62.9773 0.746759 -0.0189745 0
M  V30 690 H 65.6393 1.79862 -0.750717 0
M  V30 691 H 64.7353 3.12097 0.014345 0
M  V30 692 N 65.0364 0.313813 1.54444 0
M  V30 693 C 66.2824 -0.284918 2.01395 0
M  V30 694 C 66.6374 -1.50537 1.19818 0
M  V30 695 O 65.9304 -1.89692 0.269748 0
M  V30 696 C 66.1244 -0.680386 3.50864 0
M  V30 697 C 65.9534 0.500198 4.4691 0
M  V30 698 C 64.7234 0.996248 4.95382 0
M  V30 699 C 66.9214 1.34928 4.96285 0
M  V30 700 N 64.9034 2.14226 5.75309 0
M  V30 701 C 66.2744 2.3426 5.7404 0
M  V30 702 C 68.3294 1.37818 4.78446 0
M  V30 703 C 67.0324 3.36272 6.35856 0
M  V30 704 C 69.0584 2.38695 5.4109 0
M  V30 705 C 68.4204 3.36755 6.18688 0
M  V30 706 H 64.5194 -0.0683689 0.779006 0
M  V30 707 H 67.1034 0.44664 1.89508 0
M  V30 708 H 65.2744 -1.38109 3.63016 0
M  V30 709 H 67.0064 -1.25975 3.84594 0
M  V30 710 H 63.7614 0.56912 4.70168 0
M  V30 711 H 64.1854 2.72005 6.19953 0
M  V30 712 H 68.8274 0.633747 4.18023 0
M  V30 713 H 66.5454 4.11627 6.95405 0
M  V30 714 H 70.1314 2.41721 5.29209 0
M  V30 715 H 69.0114 4.13535 6.66302 0
M  V30 716 N 66.5145 -1.57545 0.0417849 0
M  V30 717 C 67.7605 -1.92601 -0.635021 0
M  V30 718 C 68.0935 -0.919627 -1.71045 0
M  V30 719 O 67.3685 0.0557892 -1.9442 0
M  V30 720 C 67.6515 -3.38085 -1.23979 0
M  V30 721 C 67.5045 -4.49467 -0.173057 0
M  V30 722 C 68.8235 -3.83776 -2.15416 0
M  V30 723 H 65.9425 -0.700397 -0.229374 0
M  V30 724 H 68.5845 -1.89728 0.101633 0
M  V30 725 H 66.7345 -3.40664 -1.86762 0
M  V30 726 H 68.4065 -4.59018 0.458312 0
M  V30 727 H 66.6495 -4.30909 0.499996 0
M  V30 728 H 67.3205 -5.48323 -0.636054 0
M  V30 729 H 69.7965 -3.83013 -1.62605 0
M  V30 730 H 68.6725 -4.8624 -2.54679 0
M  V30 731 H 68.9335 -3.19998 -3.05047 0
M  V30 732 N 67.9926 0.231505 -1.5589 0
M  V30 733 C 68.9026 1.308 -1.94752 0
M  V30 734 C 69.9186 1.51826 -0.849989 0
M  V30 735 O 71.0946 1.6515 -1.15271 0
M  V30 736 C 68.1596 2.63968 -2.24771 0
M  V30 737 C 67.2206 2.51331 -3.48039 0
M  V30 738 C 66.4536 3.78148 -3.76616 0
M  V30 739 O 66.6766 4.80722 -3.07022 0
M  V30 740 O 65.6106 3.75857 -4.70123 0
M  V30 741 H 69.4366 1.0083 -2.86474 0
M  V30 742 H 67.0216 0.433547 -1.42971 0
M  V30 743 H 68.9036 3.42633 -2.45318 0
M  V30 744 H 67.5786 2.9364 -1.36225 0
M  V30 745 H 66.4856 1.709 -3.32782 0
M  V30 746 H 67.8186 2.26601 -4.36936 0
M  V30 747 N 69.4707 1.49531 0.497807 0
M  V30 748 C 70.4207 1.62829 1.59596 0
M  V30 749 C 71.4047 0.483824 1.53453 0
M  V30 750 O 72.5967 0.736937 1.60929 0
M  V30 751 C 69.7257 1.7011 2.98191 0
M  V30 752 C 68.8117 2.90144 3.09317 0
M  V30 753 N 69.2027 4.1418 2.90324 0
M  V30 754 C 67.5007 2.88148 3.40422 0
M  V30 755 C 68.2017 4.94886 3.05717 0
M  V30 756 N 67.1777 4.28314 3.34736 0
M  V30 757 H 70.9797 2.56446 1.4357 0
M  V30 758 H 68.4937 1.46347 0.704001 0
M  V30 759 H 70.4907 1.77735 3.77115 0
M  V30 760 H 69.1507 0.776315 3.15283 0
M  V30 761 H 70.1617 4.44109 2.66436 0
M  V30 762 H 66.8387 2.05061 3.63671 0
M  V30 763 H 68.2287 6.03432 2.95499 0
M  V30 764 N 70.9488 -0.749086 1.3866 0
M  V30 765 C 72.2258 -1.4992 1.25632 0
M  V30 766 C 72.6058 -2.10633 -0.140317 0
M  V30 767 O 71.9538 -1.97437 -1.15025 0
M  V30 768 C 72.1638 -2.56195 2.36992 0
M  V30 769 C 73.5118 -3.22972 2.75634 0
M  V30 770 O 74.5358 -2.66502 2.36337 0
M  V30 771 O 73.3948 -4.25122 3.43415 0
M  V30 772 H 70.4888 -0.665067 0.491544 0
M  V30 773 H 73.0348 -0.784113 1.50498 0
M  V30 774 H 71.8068 -2.09612 3.30422 0
M  V30 775 H 71.4298 -3.35279 2.13714 0
M  V30 776 N 72.4269 -1.23603 -0.977757 0
M  V30 777 C 73.8379 -1.06424 -1.53398 0
M  V30 778 C 74.1889 0.367578 -1.92726 0
M  V30 779 O 73.3139 1.25465 -1.76316 0
M  V30 780 C 73.9089 -1.92568 -2.78753 0
M  V30 781 C 72.4679 -1.79642 -3.30765 0
M  V30 782 C 71.6149 -1.88111 -2.03739 0
M  V30 783 H 74.5659 -1.37227 -0.797152 0
M  V30 784 H 74.5869 -1.45203 -3.51705 0
M  V30 785 H 74.0989 -2.96771 -2.50098 0
M  V30 786 H 72.1999 -0.782325 -3.64294 0
M  V30 787 H 72.3129 -2.63174 -4.00345 0
M  V30 788 H 70.6769 -1.31723 -2.17994 0
M  V30 789 H 71.4599 -2.93875 -1.77461 0
M  V30 790 N 73.905 1.17692 -1.04816 0
M  V30 791 C 74.838 2.20436 -0.590173 0
M  V30 792 C 75.816 1.58115 0.379244 0
M  V30 793 O 77 1.86228 0.291762 0
M  V30 794 C 74.127 3.38424 0.136817 0
M  V30 795 C 73.173 4.19176 -0.787023 0
M  V30 796 S 74.006 4.84815 -2.27409 0
M  V30 797 C 75.162 6.06195 -1.55817 0
M  V30 798 H 75.395 2.58944 -1.46067 0
M  V30 799 H 72.928 1.28246 -0.859784 0
M  V30 800 H 74.886 4.06798 0.550076 0
M  V30 801 H 73.547 2.98312 0.983299 0
M  V30 802 H 72.74 5.03499 -0.224681 0
M  V30 803 H 72.342 3.56219 -1.13947 0
M  V30 804 H 74.634 6.72078 -0.855387 0
M  V30 805 H 75.577 6.6695 -2.37873 0
M  V30 806 H 75.985 5.54701 -1.04722 0
M  V30 807 N 75.3831 0.828654 1.34056 0
M  V30 808 C 76.2931 0.256725 2.33191 0
M  V30 809 C 77.3091 -0.611898 1.62886 0
M  V30 810 O 78.4851 -0.51844 1.94613 0
M  V30 811 C 75.5501 -0.567238 3.42028 0
M  V30 812 C 74.6111 0.324458 4.28072 0
M  V30 813 C 73.8441 -0.460274 5.31712 0
M  V30 814 O 74.0671 -1.693 5.44696 0
M  V30 815 O 73.0011 0.160391 6.01686 0
M  V30 816 H 76.8271 1.07739 2.83947 0
M  V30 817 H 74.4121 0.59093 1.37217 0
M  V30 818 H 76.2941 -1.03582 4.08471 0
M  V30 819 H 74.9691 -1.36513 2.93506 0
M  V30 820 H 73.8761 0.840659 3.64532 0
M  V30 821 H 75.2091 1.08685 4.8005 0
M  V30 822 N 76.8612 -1.46375 0.584142 0
M  V30 823 C 78.1102 -2.01585 0.0679741 0
M  V30 824 C 78.4232 -1.46109 -1.30045 0
M  V30 825 O 79.6292 -1.93148 -1.90804 0
M  V30 826 C 78.0852 -3.5983 0.0709207 0
M  V30 827 C 77.6932 -4.24303 1.43775 0
M  V30 828 C 79.4372 -4.22693 -0.391228 0
M  V30 829 C 77.3442 -5.74631 1.39834 0
M  V30 830 H 76.2742 -0.753689 0.0216421 0
M  V30 831 H 78.9252 -1.68093 0.736001 0
M  V30 832 H 77.3072 -3.90405 -0.663299 0
M  V30 833 H 78.4812 -4.05335 2.19181 0
M  V30 834 H 76.7962 -3.73539 1.84004 0
M  V30 835 H 79.3932 -5.3289 -0.439524 0
M  V30 836 H 79.7362 -3.91728 -1.40906 0
M  V30 837 H 80.2692 -3.96749 0.288974 0
M  V30 838 H 77.0082 -6.10258 2.39303 0
M  V30 839 H 76.5282 -5.95858 0.686505 0
M  V30 840 H 78.2072 -6.37375 1.11187 0
M  V30 841 N 78.3393 -0.321999 -1.54275 0
M  V30 842 C 79.5853 0.274234 -2.01543 0
M  V30 843 C 79.9403 1.499 -1.20614 0
M  V30 844 O 79.2333 1.89546 -0.279804 0
M  V30 845 C 79.4273 0.661769 -3.5122 0
M  V30 846 C 79.2563 -0.523892 -4.46638 0
M  V30 847 C 78.0263 -1.02251 -4.94846 0
M  V30 848 C 80.2243 -1.37558 -4.95563 0
M  V30 849 N 78.2063 -2.17274 -5.74165 0
M  V30 850 C 79.5773 -2.37301 -5.7279 0
M  V30 851 C 81.6323 -1.40353 -4.77709 0
M  V30 852 C 80.3353 -3.3964 -6.34064 0
M  V30 853 C 82.3613 -2.41562 -5.39817 0
M  V30 854 C 81.7233 -3.40031 -6.16894 0
M  V30 855 H 77.8223 0.0642367 -0.779357 0
M  V30 856 H 80.4063 -0.456683 -1.89268 0
M  V30 857 H 78.5773 1.36182 -3.63743 0
M  V30 858 H 80.3093 1.23934 -3.85256 0
M  V30 859 H 77.0643 -0.594046 -4.6986 0
M  V30 860 H 77.4883 -2.75289 -6.18502 0
M  V30 861 H 82.1303 -0.655907 -4.17681 0
M  V30 862 H 79.8483 -4.15309 -6.93213 0
M  V30 863 H 83.4343 -2.44524 -5.2792 0
M  V30 864 H 82.3143 -4.17063 -6.64099 0
M  V30 865 N 79.8174 1.5752 -0.0501392 0
M  V30 866 C 80.7804 2.1037 0.909786 0
M  V30 867 C 81.7804 1.02308 1.24056 0
M  V30 868 O 82.9704 1.28385 1.17741 0
M  V30 869 C 80.1024 2.58708 2.21998 0
M  V30 870 H 81.2954 2.96479 0.451665 0
M  V30 871 H 78.8484 1.55038 0.198248 0
M  V30 872 H 79.5834 1.75989 2.72394 0
M  V30 873 H 79.3684 3.37675 1.99295 0
M  V30 874 H 80.8584 2.99747 2.9076 0
M  V30 875 N 81.2955 -0.223234 1.56011 0
M  V30 876 C 82.5235 -0.964812 1.83027 0
M  V30 877 C 82.9385 -1.78013 0.62904 0
M  V30 878 O 82.2955 -1.78008 -0.402414 0
M  V30 879 C 82.3465 -1.88373 3.08542 0
M  V30 880 O 82.0675 -1.10137 4.2403 0
M  V30 881 C 83.5685 -2.73934 3.48533 0
M  V30 882 H 80.7885 -0.282842 0.608475 0
M  V30 883 H 83.3325 -0.238971 2.03099 0
M  V30 884 H 81.4875 -2.56354 2.9045 0
M  V30 885 H 81.9015 -1.72501 4.95322 0
M  V30 886 H 83.3755 -3.34117 4.39397 0
M  V30 887 H 83.8525 -3.46244 2.70207 0
M  V30 888 H 84.4585 -2.11369 3.69057 0
M  V30 889 N 82.7736 -1.49793 -0.48987 0
M  V30 890 C 83.7056 -1.63413 -1.60713 0
M  V30 891 C 84.7186 -0.516329 -1.54395 0
M  V30 892 O 85.9076 -0.788812 -1.60125 0
M  V30 893 C 83.0076 -1.58516 -2.99543 0
M  V30 894 C 82.1806 -2.86016 -3.30928 0
M  V30 895 C 81.2396 -2.74018 -4.49222 0
M  V30 896 O 80.2656 -3.47964 -4.50455 0
M  V30 897 N 81.4676 -1.86309 -5.4979 0
M  V30 898 H 84.2326 -2.59777 -1.49452 0
M  V30 899 H 81.7936 -1.47022 -0.677955 0
M  V30 900 H 83.7856 -1.48128 -3.76617 0
M  V30 901 H 82.3556 -0.69965 -3.0467 0
M  V30 902 H 81.5756 -3.10672 -2.42645 0
M  V30 903 H 82.8636 -3.70521 -3.487 0
M  V30 904 H 82.2616 -1.2551 -5.51601 0
M  V30 905 H 80.8186 -1.81837 -6.25922 0
M  V30 906 N 84.2517 0.741722 -1.39055 0
M  V30 907 C 85.4767 1.53607 -1.39354 0
M  V30 908 C 85.9017 1.88096 0.0116905 0
M  V30 909 O 85.2597 1.5143 0.996924 0
M  V30 910 C 85.3077 2.80441 -2.26682 0
M  V30 911 O 84.4117 3.76088 -1.69208 0
M  V30 912 H 83.7527 0.464142 -0.474835 0
M  V30 913 H 86.2827 0.915665 -1.82967 0
M  V30 914 H 86.2927 3.29246 -2.40959 0
M  V30 915 H 84.9677 2.5467 -3.2881 0
M  V30 916 H 83.5447 3.34833 -1.64138 0
M  V30 917 N 85.7298 1.2412 0.971189 0
M  V30 918 C 86.9548 1.10667 1.75407 0
M  V30 919 C 87.3798 -0.337048 1.85056 0
M  V30 920 O 86.7378 -1.24396 1.31892 0
M  V30 921 C 86.7858 1.74726 3.15441 0
M  V30 922 O 85.8898 1.01566 3.99697 0
M  V30 923 H 85.2308 0.387341 0.539317 0
M  V30 924 H 87.7608 1.64358 1.2185 0
M  V30 925 H 87.7708 1.80341 3.6598 0
M  V30 926 H 86.4458 2.79773 3.07734 0
M  V30 927 H 85.0228 1.03713 3.58187 0
M  V30 928 N 87.2079 -1.17134 1.05439 0
M  V30 929 C 88.4359 -1.91372 0.786414 0
M  V30 930 C 88.8509 -1.76955 -0.658202 0
M  V30 931 O 88.2079 -1.10838 -1.44987 0
M  V30 932 C 88.2589 -3.42356 1.1608 0
M  V30 933 O 87.9799 -3.56332 2.54871 0
M  V30 934 C 89.4809 -4.33663 0.919322 0
M  V30 935 H 86.7009 -0.607118 0.285743 0
M  V30 936 H 89.2449 -1.48525 1.40572 0
M  V30 937 H 87.3999 -3.82939 0.586191 0
M  V30 938 H 87.8139 -4.49896 2.69618 0
M  V30 939 H 89.2879 -5.38099 1.231 0
M  V30 940 H 89.7649 -4.38959 -0.145359 0
M  V30 941 H 90.3709 -3.98796 1.47789 0
M  V30 942 N 88.686 -0.835752 -1.33615 0
M  V30 943 C 89.616 -0.281739 -2.31794 0
M  V30 944 C 90.597 0.608833 -1.58831 0
M  V30 945 O 91.782 0.533035 -1.86741 0
M  V30 946 C 88.912 0.546612 -3.42971 0
M  V30 947 C 87.866 -0.247904 -4.27281 0
M  V30 948 C 87.192 0.704001 -5.30045 0
M  V30 949 C 88.492 -1.46324 -5.01385 0
M  V30 950 H 90.186 -1.10206 -2.78379 0
M  V30 951 H 87.732 -0.531388 -1.33837 0
M  V30 952 H 89.685 0.944467 -4.1068 0
M  V30 953 H 88.409 1.40011 -2.95067 0
M  V30 954 H 87.068 -0.627281 -3.61194 0
M  V30 955 H 86.716 1.55381 -4.78399 0
M  V30 956 H 86.416 0.176524 -5.87335 0
M  V30 957 H 87.94 1.09944 -6.0062 0
M  V30 958 H 89.354 -1.13871 -5.61877 0
M  V30 959 H 87.751 -1.92728 -5.6831 0
M  V30 960 H 88.821 -2.23467 -4.30338 0
M  V30 961 N 90.1641 1.46063 -0.591896 0
M  V30 962 C 91.4101 2.02638 -0.0811191 0
M  V30 963 C 91.7431 1.4613 1.27905 0
M  V30 964 O 91.0181 0.629908 1.84017 0
M  V30 965 C 91.3011 3.60091 -0.0252436 0
M  V30 966 C 91.1541 4.26965 -1.41496 0
M  V30 967 C 92.4731 4.3496 0.670685 0
M  V30 968 H 89.5921 0.73635 -0.0309524 0
M  V30 969 H 92.2341 1.741 -0.760859 0
M  V30 970 H 90.3841 3.84535 0.553624 0
M  V30 971 H 92.0561 4.13756 -2.0397 0
M  V30 972 H 90.2991 3.85971 -1.98011 0
M  V30 973 H 90.9701 5.35781 -1.32825 0
M  V30 974 H 93.4461 4.15716 0.178825 0
M  V30 975 H 92.3221 5.44686 0.678837 0
M  V30 976 H 92.5831 4.06685 1.73379 0
M  V30 977 N 91.6422 0.330177 1.54103 0
M  V30 978 C 92.5522 -0.541534 2.28264 0
M  V30 979 C 93.5682 -1.12351 1.32866 0
M  V30 980 O 94.7442 -1.14206 1.65888 0
M  V30 981 C 91.8092 -1.68322 3.03098 0
M  V30 982 C 90.8702 -1.13238 4.14096 0
M  V30 983 C 90.1032 -2.21966 4.85352 0
M  V30 984 O 90.3262 -3.42437 4.56172 0
M  V30 985 O 89.2602 -1.87013 5.7211 0
M  V30 986 H 93.0862 0.060938 3.03639 0
M  V30 987 H 90.6712 0.09565 1.49093 0
M  V30 988 H 92.5532 -2.34777 3.49939 0
M  V30 989 H 91.2282 -2.27176 2.30593 0
M  V30 990 H 90.1352 -0.432736 3.71589 0
M  V30 991 H 91.4682 -0.588898 4.88664 0
M  V30 992 N 93.1203 -1.57491 0.0584922 0
M  V30 993 C 94.3663 -1.93264 -0.614558 0
M  V30 994 C 94.6993 -0.937717 -1.7006 0
M  V30 995 O 93.9743 0.0351652 -1.94468 0
M  V30 996 C 94.2573 -3.3938 -1.20386 0
M  V30 997 C 94.1103 -4.49625 -0.125375 0
M  V30 998 C 95.4293 -3.86039 -2.11334 0
M  V30 999 H 92.5483 -0.702791 -0.221933 0
M  V30 1000 H 95.1903 -1.8961 0.12175 0
M  V30 1001 H 93.3403 -3.42626 -1.83139 0
M  V30 1002 H 95.0123 -4.58506 0.506971 0
M  V30 1003 H 93.2553 -4.30354 0.545672 0
M  V30 1004 H 93.9263 -5.48967 -0.577861 0
M  V30 1005 H 96.4023 -3.84716 -1.58534 0
M  V30 1006 H 95.2783 -4.88914 -2.49507 0
M  V30 1007 H 95.5393 -3.23215 -3.01636 0
M  V30 1008 N 94.5984 0.214957 -1.56127 0
M  V30 1009 C 95.5284 1.2695 -1.95974 0
M  V30 1010 C 96.5094 1.48539 -0.828868 0
M  V30 1011 O 97.6944 1.60611 -1.09168 0
M  V30 1012 C 94.8244 2.61794 -2.28214 0
M  V30 1013 C 93.7784 2.54851 -3.43853 0
M  V30 1014 C 93.1044 3.93785 -3.61715 0
M  V30 1015 C 94.4044 2.09065 -4.78632 0
M  V30 1016 H 96.0984 0.93846 -2.84312 0
M  V30 1017 H 93.6444 0.449996 -1.36788 0
M  V30 1018 H 95.5974 3.35731 -2.54682 0
M  V30 1019 H 94.3214 2.96599 -1.36736 0
M  V30 1020 H 92.9804 1.8337 -3.17444 0
M  V30 1021 H 92.6284 4.25908 -2.67602 0
M  V30 1022 H 92.3284 3.90019 -4.39498 0
M  V30 1023 H 93.8524 4.69374 -3.90539 0
M  V30 1024 H 95.2664 2.7275 -5.04262 0
M  V30 1025 H 93.6634 2.16346 -5.59745 0
M  V30 1026 H 94.7334 1.04315 -4.73547 0
M  V30 1027 N 96.0765 1.50051 0.48192 0
M  V30 1028 C 97.0395 1.67584 1.5636 0
M  V30 1029 C 98.0395 0.546894 1.51214 0
M  V30 1030 O 99.2295 0.813725 1.54026 0
M  V30 1031 C 96.3615 1.691 2.96003 0
M  V30 1032 H 97.5545 2.64078 1.42136 0
M  V30 1033 H 95.1075 1.39369 0.707533 0
M  V30 1034 H 95.8425 0.742589 3.15684 0
M  V30 1035 H 95.6275 2.51105 3.01146 0
M  V30 1036 H 97.1175 1.84656 3.74556 0
M  V30 1037 N 97.5546 -0.734337 1.39446 0
M  V30 1038 C 98.5016 -1.84835 1.38219 0
M  V30 1039 C 99.4716 -1.64331 0.24179 0
M  V30 1040 O 100.657 -1.85728 0.437002 0
M  V30 1041 C 97.7966 -3.22355 1.23212 0
M  V30 1042 C 96.9096 -3.5456 2.46801 0
M  V30 1043 C 96.0446 -4.81485 2.24377 0
M  V30 1044 C 95.0836 -5.06536 3.43639 0
M  V30 1045 N 94.2206 -6.24665 3.20528 0
M  V30 1046 H 99.0606 -1.85219 2.33448 0
M  V30 1047 H 96.5976 -0.905039 1.15963 0
M  V30 1048 H 98.5556 -4.0174 1.12522 0
M  V30 1049 H 97.1856 -3.21248 0.316121 0
M  V30 1050 H 96.2376 -2.69872 2.68092 0
M  V30 1051 H 97.5496 -3.6899 3.3563 0
M  V30 1052 H 96.7036 -5.68852 2.10933 0
M  V30 1053 H 95.4426 -4.6923 1.32944 0
M  V30 1054 H 94.4476 -4.17632 3.5758 0
M  V30 1055 H 95.6726 -5.20676 4.35974 0
M  V30 1056 H 93.6186 -6.13696 2.3176 0
M  V30 1057 H 93.5356 -6.39685 4.02913 0
M  V30 1058 H 94.8036 -7.14868 3.10779 0
M  V30 1059 N 99.0327 -1.24633 -0.964593 0
M  V30 1060 C 99.9957 -1.0424 -2.04124 0
M  V30 1061 C 100.996 0.00137563 -1.608 0
M  V30 1062 O 102.186 -0.239883 -1.7254 0
M  V30 1063 C 99.3177 -0.580588 -3.3592 0
M  V30 1064 H 100.511 -1.99803 -2.23649 0
M  V30 1065 H 98.0637 -1.06899 -1.14027 0
M  V30 1066 H 98.7987 0.3781 -3.22088 0
M  V30 1067 H 98.5837 -1.33398 -3.6871 0
M  V30 1068 H 100.074 -0.459034 -4.15069 0
M  V30 1069 N 100.511 1.16574 -1.06058 0
M  V30 1070 C 101.788 1.83048 -0.689416 0
M  V30 1071 C 102.168 1.94122 0.829443 0
M  V30 1072 O 101.516 1.48249 1.7388 0
M  V30 1073 C 101.726 3.20186 -1.38859 0
M  V30 1074 C 103.074 3.95989 -1.53226 0
M  V30 1075 O 104.098 3.29696 -1.3483 0
M  V30 1076 O 102.957 5.14813 -1.83384 0
M  V30 1077 H 100.051 0.790258 -0.243764 0
M  V30 1078 H 102.597 1.23797 -1.16071 0
M  V30 1079 H 101.369 3.07146 -2.4244 0
M  V30 1080 H 100.992 3.87112 -0.907216 0
M  V30 1081 N 101.989 0.842826 1.3317 0
M  V30 1082 C 103.238 0.436738 1.96915 0
M  V30 1083 C 103.551 -1.01025 1.67491 0
M  V30 1084 O 104.757 -1.5212 2.24881 0
M  V30 1085 C 103.213 0.730021 3.52418 0
M  V30 1086 C 102.821 2.19195 3.90714 0
M  V30 1087 C 104.565 0.391076 4.22695 0
M  V30 1088 C 102.472 2.42907 5.39212 0
M  V30 1089 H 101.402 0.15958 0.736919 0
M  V30 1090 H 104.053 1.03196 1.51733 0
M  V30 1091 H 102.435 0.0643755 3.95948 0
M  V30 1092 H 103.609 2.8984 3.58231 0
M  V30 1093 H 101.924 2.49425 3.33431 0
M  V30 1094 H 104.521 0.545817 5.31907 0
M  V30 1095 H 104.864 -0.666294 4.10933 0
M  V30 1096 H 105.397 1.01212 3.84709 0
M  V30 1097 H 102.136 3.47224 5.55982 0
M  V30 1098 H 101.656 1.76827 5.73142 0
M  V30 1099 H 103.335 2.2626 6.06148 0
M  V30 1100 N 103.467 -1.45747 0.599634 0
M  V30 1101 C 104.692 -2.07178 0.0960198 0
M  V30 1102 C 105.117 -1.44268 -1.207 0
M  V30 1103 O 104.475 -0.532503 -1.73303 0
M  V30 1104 C 104.523 -3.60579 -0.0385348 0
M  V30 1105 O 103.627 -3.97713 -1.0908 0
M  V30 1106 H 102.968 -0.660251 0.0704593 0
M  V30 1107 H 105.498 -1.87124 0.827385 0
M  V30 1108 H 105.508 -4.07298 -0.239304 0
M  V30 1109 H 104.183 -4.05756 0.912947 0
M  V30 1110 H 102.76 -3.62678 -0.867135 0
M  V30 1111 N 104.945 -0.338344 -1.53925 0
M  V30 1112 C 106.17 0.263987 -2.05713 0
M  V30 1113 C 106.595 1.43847 -1.21201 0
M  V30 1114 O 105.953 1.79904 -0.224535 0
M  V30 1115 C 106.001 0.662 -3.54471 0
M  V30 1116 O 105.105 1.76265 -3.72833 0
M  V30 1117 H 104.446 0.0448722 -0.662482 0
M  V30 1118 H 106.976 -0.491048 -1.9862 0
M  V30 1119 H 106.986 0.940594 -3.9701 0
M  V30 1120 H 105.661 -0.196937 -4.15433 0
M  V30 1121 H 104.238 1.48173 -3.42198 0
M  V30 1122 N 106.423 1.57458 -0.0668435 0
M  V30 1123 C 107.7 1.8469 0.644132 0
M  V30 1124 C 108.08 0.958343 1.88093 0
M  V30 1125 O 107.428 0.0233579 2.28488 0
M  V30 1126 C 107.638 3.34767 0.986509 0
M  V30 1127 C 108.986 4.02159 1.36212 0
M  V30 1128 O 110.01 3.39484 1.07839 0
M  V30 1129 O 108.869 5.12694 1.89227 0
M  V30 1130 H 105.963 0.762816 0.319437 0
M  V30 1131 H 108.509 1.6942 -0.0973986 0
M  V30 1132 H 107.281 3.91151 0.107883 0
M  V30 1133 H 106.904 3.55281 1.78497 0
M  V30 1134 N 107.901 -0.206675 1.56239 0
M  V30 1135 C 108.833 -1.27997 1.9013 0
M  V30 1136 C 109.846 -1.42299 0.790883 0
M  V30 1137 O 111.035 -1.42931 1.06925 0
M  V30 1138 C 108.135 -2.65368 2.10792 0
M  V30 1139 C 107.308 -2.72824 3.41886 0
M  V30 1140 C 106.367 -3.9131 3.51799 0
M  V30 1141 O 105.393 -3.78953 4.24716 0
M  V30 1142 N 106.595 -5.06265 2.84035 0
M  V30 1143 H 109.36 -0.992444 2.82791 0
M  V30 1144 H 106.921 -0.396652 1.56966 0
M  V30 1145 H 108.913 -3.43039 2.14724 0
M  V30 1146 H 107.483 -2.86657 1.24685 0
M  V30 1147 H 106.703 -1.81515 3.49923 0
M  V30 1148 H 107.991 -2.74786 4.28217 0
M  V30 1149 H 107.389 -5.19203 2.246 0
M  V30 1150 H 105.946 -5.81925 2.93609 0
M  V30 1151 N 109.379 -1.50304 -0.473955 0
M  V30 1152 C 110.628 -1.60392 -1.22301 0
M  V30 1153 C 110.941 -0.308411 -1.93153 0
M  V30 1154 O 112.147 -0.288156 -2.69966 0
M  V30 1155 C 110.603 -2.83109 -2.2221 0
M  V30 1156 C 110.211 -4.19524 -1.57173 0
M  V30 1157 C 111.955 -3.0254 -2.97775 0
M  V30 1158 C 109.862 -5.33431 -2.55353 0
M  V30 1159 H 108.792 -0.597286 -0.460179 0
M  V30 1160 H 111.443 -1.76731 -0.493803 0
M  V30 1161 H 109.825 -2.60322 -2.9841 0
M  V30 1162 H 110.999 -4.52554 -0.867824 0
M  V30 1163 H 109.314 -4.05674 -0.939002 0
M  V30 1164 H 111.911 -3.84811 -3.71248 0
M  V30 1165 H 112.254 -2.14154 -3.56992 0
M  V30 1166 H 112.787 -3.25494 -2.28688 0
M  V30 1167 H 109.526 -6.23962 -2.00878 0
M  V30 1168 H 109.046 -5.04823 -3.23904 0
M  V30 1169 H 110.725 -5.63887 -3.17239 0
M  V30 1170 N 110.857 0.726932 -1.39834 0
M  V30 1171 C 111.82 1.82269 -1.38962 0
M  V30 1172 C 112.82 1.58248 -0.285334 0
M  V30 1173 O 114.01 1.65499 -0.54366 0
M  V30 1174 C 111.142 3.20186 -1.17019 0
M  V30 1175 H 112.335 1.84443 -2.36476 0
M  V30 1176 H 109.888 0.931416 -1.25516 0
M  V30 1177 H 110.623 3.23669 -0.202204 0
M  V30 1178 H 110.408 3.3902 -1.96998 0
M  V30 1179 H 111.898 4.00235 -1.1917 0
M  V30 1180 N 112.336 1.25143 0.95797 0
M  V30 1181 C 113.299 1.05321 2.03569 0
M  V30 1182 C 114.299 0.007152 1.60798 0
M  V30 1183 O 115.489 0.24903 1.72411 0
M  V30 1184 C 112.621 0.598394 3.35607 0
M  V30 1185 H 113.814 2.00986 2.22586 0
M  V30 1186 H 111.367 1.07502 1.13459 0
M  V30 1187 H 112.102 -0.361014 3.22284 0
M  V30 1188 H 111.887 1.35351 3.67998 0
M  V30 1189 H 113.377 0.48104 4.1482 0
M  V30 1190 N 113.814 -1.1601 1.06675 0
M  V30 1191 C 115.063 -1.85973 0.780818 0
M  V30 1192 C 115.376 -1.82819 -0.695444 0
M  V30 1193 O 116.582 -2.484 -1.09589 0
M  V30 1194 C 115.038 -3.33757 1.34665 0
M  V30 1195 C 114.646 -3.45374 2.85343 0
M  V30 1196 C 116.39 -4.0895 1.13843 0
M  V30 1197 C 114.297 -4.87266 3.35151 0
M  V30 1198 H 113.227 -0.696661 0.288407 0
M  V30 1199 H 115.878 -1.30903 1.28595 0
M  V30 1200 H 114.26 -3.88456 0.769274 0
M  V30 1201 H 115.434 -3.00816 3.49065 0
M  V30 1202 H 113.749 -2.83619 3.04876 0
M  V30 1203 H 116.346 -5.13654 1.4854 0
M  V30 1204 H 116.689 -4.16229 0.0770282 0
M  V30 1205 H 117.222 -3.605 1.68179 0
M  V30 1206 H 113.961 -4.85168 4.40786 0
M  V30 1207 H 113.481 -5.32433 2.76179 0
M  V30 1208 H 115.16 -5.56097 3.30704 0
M  V30 1209 N 115.292 -0.849877 -1.32721 0
M  V30 1210 C 116.54 -0.450032 -1.97026 0
M  V30 1211 C 116.861 0.996604 -1.67609 0
M  V30 1212 O 116.131 1.6958 -0.980786 0
M  V30 1213 H 114.711 -0.163426 -0.728904 0
M  V30 1214 H 117.373 -1.08526 -1.6189 0
M  V30 1215 H 116.469 -0.591146 -3.0645 0
M  V30 1216 N 116.77 1.45427 -0.607355 0
M  V30 1217 C 118.019 2.01452 -0.100036 0
M  V30 1218 C 118.332 1.48159 1.27704 0
M  V30 1219 O 119.538 1.96159 1.87707 0
M  V30 1220 C 117.994 3.59672 -0.128158 0
M  V30 1221 C 117.602 4.21962 -1.50507 0
M  V30 1222 C 119.346 4.23262 0.323932 0
M  V30 1223 C 117.253 5.72333 -1.48959 0
M  V30 1224 H 116.183 0.75325 -0.0336299 0
M  V30 1225 H 118.834 1.66901 -0.76265 0
M  V30 1226 H 117.216 3.91411 0.601105 0
M  V30 1227 H 118.39 4.01796 -2.25602 0
M  V30 1228 H 116.705 3.70565 -1.89923 0
M  V30 1229 H 119.302 5.33522 0.354691 0
M  V30 1230 H 119.645 3.93921 1.34656 0
M  V30 1231 H 120.178 3.96239 -0.352056 0
M  V30 1232 H 116.917 6.06373 -2.48981 0
M  V30 1233 H 116.437 5.94691 -0.781214 0
M  V30 1234 H 118.116 6.35525 -1.21313 0
M  V30 1235 N 118.248 0.346503 1.53744 0
M  V30 1236 C 119.476 -0.25041 2.05379 0
M  V30 1237 C 119.891 -1.43979 1.22129 0
M  V30 1238 O 119.248 -1.80677 0.257321 0
M  V30 1239 C 119.299 -0.662575 3.55376 0
M  V30 1240 O 119.02 0.479515 4.35468 0
M  V30 1241 C 120.521 -1.31989 4.23195 0
M  V30 1242 H 117.741 -0.0478198 0.669294 0
M  V30 1243 H 120.285 0.499346 1.9831 0
M  V30 1244 H 118.44 -1.36227 3.62658 0
M  V30 1245 H 118.854 0.15037 5.24284 0
M  V30 1246 H 120.328 -1.55902 5.29527 0
M  V30 1247 H 120.805 -2.27436 3.75725 0
M  V30 1248 H 121.411 -0.662154 4.20114 0
M  V30 1249 N 119.726 -1.57421 0.075193 0
M  V30 1250 C 120.674 -2.14124 -0.908508 0
M  V30 1251 C 121.668 -1.07898 -1.30592 0
M  V30 1252 O 122.874 -1.26273 -1.28277 0
M  V30 1253 H 119.249 -0.684707 -0.310935 0
M  V30 1254 H 121.22 -2.95634 -0.405374 0
M  V30 1255 C 119.969 -2.72044 -2.16535 0
M  V30 1256 H 119.292 -3.53456 -1.86839 0
M  V30 1257 H 120.732 -3.15311 -2.83469 0
M  V30 1258 C 119.191 -1.66968 -2.92615 0
M  V30 1259 O 119.721 -1.0967 -3.86439 0
M  V30 1260 N 117.927 -1.37923 -2.55784 0
M  V30 1261 H 117.474 -1.84706 -1.79559 0
M  V30 1262 H 117.432 -0.67852 -3.06991 0
M  V30 1263 N 121.204 0.198386 -1.56346 0
M  V30 1264 C 122.136 1.26987 -1.90806 0
M  V30 1265 C 123.149 1.41877 -0.798419 0
M  V30 1266 O 124.338 1.42362 -1.07682 0
M  V30 1267 C 121.438 2.64246 -2.12196 0
M  V30 1268 C 120.611 2.71007 -3.43328 0
M  V30 1269 C 119.67 3.89439 -3.5387 0
M  V30 1270 O 118.696 3.76695 -4.26719 0
M  V30 1271 N 119.898 5.04752 -2.86715 0
M  V30 1272 H 122.663 0.977433 -2.83313 0
M  V30 1273 H 120.224 0.388322 -1.57174 0
M  V30 1274 H 122.216 3.41896 -2.1654 0
M  V30 1275 H 120.786 2.85992 -1.26204 0
M  V30 1276 H 120.006 1.79657 -3.50881 0
M  V30 1277 H 121.294 2.72512 -4.29668 0
M  V30 1278 H 120.692 5.18004 -2.2735 0
M  V30 1279 H 119.249 5.8036 -2.96691 0
M  V30 1280 N 122.682 1.50554 0.465978 0
M  V30 1281 C 124.098 1.38093 0.800154 0
M  V30 1282 C 124.298 0.440988 1.96615 0
M  V30 1283 O 123.354 -0.114499 2.5224 0
M  V30 1284 C 124.667 2.79565 1.10742 0
M  V30 1285 C 126.215 2.88516 1.21357 0
M  V30 1286 C 126.69 4.30833 1.55393 0
M  V30 1287 N 128.181 4.33807 1.62375 0
M  V30 1288 C 128.916 5.40927 1.90225 0
M  V30 1289 N 128.412 6.58247 2.16062 0
M  V30 1290 N 130.205 5.28376 1.9177 0
M  V30 1291 H 122.356 2.10237 -0.302366 0
M  V30 1292 H 124.619 0.945203 -0.0727746 0
M  V30 1293 H 124.325 3.50208 0.323661 0
M  V30 1294 H 124.199 3.17125 2.04234 0
M  V30 1295 H 126.586 2.1809 1.98799 0
M  V30 1296 H 126.667 2.54492 0.258321 0
M  V30 1297 H 126.311 5.01799 0.784889 0
M  V30 1298 H 126.241 4.62347 2.52076 0
M  V30 1299 H 128.732 3.49212 1.44427 0
M  V30 1300 H 129.045 7.3569 2.36601 0
M  V30 1301 H 127.39 6.61413 2.13444 0
M  V30 1302 H 130.581 4.35715 1.71085 0
M  V30 1303 H 130.754 6.11944 2.13139 0
M  V30 1304 N 124.16 -0.719506 1.40217 0
M  V30 1305 C 125.07 -1.86378 1.42479 0
M  V30 1306 C 126.086 -1.71073 0.317834 0
M  V30 1307 O 127.262 -1.93406 0.561794 0
M  V30 1308 C 124.327 -3.22136 1.28178 0
M  V30 1309 C 123.388 -3.49723 2.48982 0
M  V30 1310 C 122.621 -4.79004 2.35353 0
M  V30 1311 O 122.844 -5.53821 1.36524 0
M  V30 1312 O 121.778 -5.06839 3.2465 0
M  V30 1313 H 125.604 -1.87425 2.38968 0
M  V30 1314 H 123.189 -0.869405 1.21498 0
M  V30 1315 H 125.071 -4.03234 1.22395 0
M  V30 1316 H 123.746 -3.21825 0.347934 0
M  V30 1317 H 122.653 -2.6865 2.60342 0
M  V30 1318 H 123.986 -3.54828 3.41113 0
M  V30 1319 N 125.638 -1.25649 -0.95132 0
M  V30 1320 C 126.866 -1.13343 -1.73092 0
M  V30 1321 C 127.281 0.312434 -1.86197 0
M  V30 1322 O 126.638 1.21465 -1.36207 0
M  V30 1323 C 126.689 -1.78602 -3.14299 0
M  V30 1324 O 126.41 -3.17537 -3.01831 0
M  V30 1325 C 127.911 -1.72119 -4.08522 0
M  V30 1326 H 125.131 -0.395181 -0.542285 0
M  V30 1327 H 127.675 -1.66076 -1.19328 0
M  V30 1328 H 125.83 -1.29832 -3.64996 0
M  V30 1329 H 126.244 -3.49676 -3.90931 0
M  V30 1330 H 127.718 -2.22435 -5.052 0
M  V30 1331 H 128.195 -0.685635 -4.33815 0
M  V30 1332 H 128.801 -2.20393 -3.63741 0
M  V30 1333 N 127.117 1.15442 -1.07289 0
M  V30 1334 C 128.345 1.90096 -0.81676 0
M  V30 1335 C 128.76 1.7798 0.629966 0
M  V30 1336 O 128.117 1.1313 1.43206 0
M  V30 1337 C 128.168 3.40466 -1.21512 0
M  V30 1338 O 127.889 3.52232 -2.60508 0
M  V30 1339 C 129.39 4.32145 -0.988198 0
M  V30 1340 H 126.61 0.602495 -0.295366 0
M  V30 1341 H 129.154 1.4627 -1.42918 0
M  V30 1342 H 127.309 3.81958 -0.647039 0
M  V30 1343 H 127.723 4.45549 -2.76742 0
M  V30 1344 H 129.197 5.36072 -1.31645 0
M  V30 1345 H 129.674 4.39135 0.0755063 0
M  V30 1346 H 130.28 3.96395 -1.54115 0
M  V30 1347 N 128.595 0.856903 1.32268 0
M  V30 1348 C 129.844 0.457599 1.96441 0
M  V30 1349 C 130.157 -0.992426 1.68553 0
M  V30 1350 O 131.363 -1.49727 2.26482 0
M  V30 1351 C 129.819 0.767358 3.51624 0
M  V30 1352 C 129.427 2.23326 3.88367 0
M  V30 1353 C 131.171 0.435887 4.22256 0
M  V30 1354 C 129.078 2.48613 5.36606 0
M  V30 1355 H 128.008 0.167387 0.735185 0
M  V30 1356 H 130.659 1.048 1.5063 0
M  V30 1357 H 129.041 0.106367 3.95857 0
M  V30 1358 H 130.215 2.93623 3.55137 0
M  V30 1359 H 128.53 2.52948 3.30766 0
M  V30 1360 H 131.127 0.602202 5.31298 0
M  V30 1361 H 131.47 -0.622672 4.11617 0
M  V30 1362 H 132.003 1.05286 3.83614 0
M  V30 1363 H 128.742 3.53101 5.52268 0
M  V30 1364 H 128.262 1.82896 5.71235 0
M  V30 1365 H 129.941 2.32676 6.03714 0
M  V30 1366 N 130.073 -1.45103 0.615059 0
M  V30 1367 C 131.319 -2.02483 0.113347 0
M  V30 1368 C 131.652 -1.48146 -1.25564 0
M  V30 1369 O 130.927 -0.659104 -1.82992 0
M  V30 1370 C 131.21 -3.60005 0.0825278 0
M  V30 1371 C 131.063 -4.2466 1.48271 0
M  V30 1372 C 132.382 -4.35972 -0.601401 0
M  V30 1373 H 129.501 -0.735764 0.0426632 0
M  V30 1374 H 132.143 -1.72868 0.788461 0
M  V30 1375 H 130.293 -3.85367 -0.492378 0
M  V30 1376 H 131.965 -4.10458 2.10527 0
M  V30 1377 H 130.208 -3.82772 2.04127 0
M  V30 1378 H 130.879 -5.336 1.41332 0
M  V30 1379 H 133.355 -4.15947 -0.112666 0
M  V30 1380 H 132.231 -5.45697 -0.592097 0
M  V30 1381 H 132.492 -4.09391 -1.66887 0
M  V30 1382 N 131.551 -0.354651 -1.53558 0
M  V30 1383 C 132.797 0.231422 -2.02079 0
M  V30 1384 C 133.152 1.47308 -1.23767 0
M  V30 1385 O 132.445 1.8891 -0.319947 0
M  V30 1386 C 132.639 0.587121 -3.52545 0
M  V30 1387 C 132.468 -0.618513 -4.45426 0
M  V30 1388 C 131.238 -1.12724 -4.92566 0
M  V30 1389 C 133.436 -1.48039 -4.92533 0
M  V30 1390 N 131.418 -2.29404 -5.69427 0
M  V30 1391 C 132.789 -2.49397 -5.67628 0
M  V30 1392 C 134.844 -1.50454 -4.74624 0
M  V30 1393 C 133.547 -3.53013 -6.26717 0
M  V30 1394 C 135.573 -2.52958 -5.34571 0
M  V30 1395 C 134.935 -3.5304 -6.09543 0
M  V30 1396 H 131.034 0.0476909 -0.780544 0
M  V30 1397 H 133.618 -0.496727 -1.88257 0
M  V30 1398 H 131.789 1.28436 -3.6655 0
M  V30 1399 H 133.521 1.15734 -3.87799 0
M  V30 1400 H 130.276 -0.693577 -4.68494 0
M  V30 1401 H 130.7 -2.88347 -6.12524 0
M  V30 1402 H 135.342 -0.744356 -4.16196 0
M  V30 1403 H 133.06 -4.2992 -6.84247 0
M  V30 1404 H 136.646 -2.55667 -5.22614 0
M  V30 1405 H 135.526 -4.31056 -6.55103 0
M  V30 1406 N 133.029 1.57378 -0.0835403 0
M  V30 1407 C 133.939 2.16897 0.894021 0
M  V30 1408 C 134.955 1.13528 1.31861 0
M  V30 1409 O 136.131 1.45848 1.3889 0
M  V30 1410 C 133.196 2.72831 2.13925 0
M  V30 1411 C 132.257 3.91115 1.76997 0
M  V30 1412 C 131.49 4.44371 2.95584 0
M  V30 1413 O 131.713 3.96596 4.09961 0
M  V30 1414 O 130.647 5.35549 2.74719 0
M  V30 1415 H 134.473 3.00814 0.417679 0
M  V30 1416 H 132.058 1.48741 0.140181 0
M  V30 1417 H 133.94 3.0863 2.86924 0
M  V30 1418 H 132.615 1.91967 2.60635 0
M  V30 1419 H 131.522 3.60148 1.01214 0
M  V30 1420 H 132.855 4.73307 1.3506 0
M  V30 1421 N 134.507 -0.190092 1.56449 0
M  V30 1422 C 135.454 -1.23557 1.94942 0
M  V30 1423 C 136.424 -1.44972 0.810696 0
M  V30 1424 O 137.609 -1.58023 1.06927 0
M  V30 1425 C 134.749 -2.57416 2.2985 0
M  V30 1426 C 133.862 -2.43537 3.5681 0
M  V30 1427 C 132.997 -3.70134 3.81017 0
M  V30 1428 C 132.036 -3.51109 5.01387 0
M  V30 1429 N 131.173 -4.6973 5.21822 0
M  V30 1430 H 136.013 -0.900304 2.84075 0
M  V30 1431 H 133.55 -0.43318 1.40577 0
M  V30 1432 H 135.508 -3.35409 2.48106 0
M  V30 1433 H 134.138 -2.88975 1.43852 0
M  V30 1434 H 133.19 -1.56816 3.46573 0
M  V30 1435 H 134.502 -2.25415 4.4496 0
M  V30 1436 H 133.656 -4.56566 3.9954 0
M  V30 1437 H 132.395 -3.91215 2.91207 0
M  V30 1438 H 131.4 -2.63063 4.82782 0
M  V30 1439 H 132.625 -3.31468 5.9271 0
M  V30 1440 H 130.571 -4.91065 4.34961 0
M  V30 1441 H 130.488 -4.54452 6.0416 0
M  V30 1442 H 131.756 -5.57499 5.44808 0
M  V30 1443 N 135.985 -1.50799 -0.457987 0
M  V30 1444 C 136.895 -1.73426 -1.57989 0
M  V30 1445 C 137.911 -0.617745 -1.62665 0
M  V30 1446 O 139.087 -0.897614 -1.80291 0
M  V30 1447 C 136.152 -1.83557 -2.94122 0
M  V30 1448 C 135.213 -3.07345 -2.99729 0
M  V30 1449 C 134.446 -3.16983 -4.29368 0
M  V30 1450 O 134.669 -2.33077 -5.20607 0
M  V30 1451 O 133.603 -4.09812 -4.40837 0
M  V30 1452 H 137.429 -2.68555 -1.41817 0
M  V30 1453 H 135.014 -1.35052 -0.638859 0
M  V30 1454 H 136.896 -1.92326 -3.74952 0
M  V30 1455 H 135.571 -0.916137 -3.10465 0
M  V30 1456 H 134.478 -3.04068 -2.1793 0
M  V30 1457 H 135.811 -3.9891 -2.88326 0
M  V30 1458 N 137.463 0.71206 -1.40597 0
M  V30 1459 C 138.691 1.50111 -1.42388 0
M  V30 1460 C 139.106 1.88784 -0.0245395 0
M  V30 1461 O 138.463 1.55681 0.952351 0
M  V30 1462 C 138.514 2.7742 -2.31776 0
M  V30 1463 O 138.235 2.40382 -3.66262 0
M  V30 1464 C 139.736 3.7129 -2.42196 0
M  V30 1465 H 136.956 0.46314 -0.485533 0
M  V30 1466 H 139.5 0.878068 -1.8469 0
M  V30 1467 H 137.655 3.36001 -1.92827 0
M  V30 1468 H 138.069 3.22324 -4.13772 0
M  V30 1469 H 139.543 4.57448 -3.08943 0
M  V30 1470 H 140.02 4.14641 -1.44809 0
M  V30 1471 H 140.626 3.18619 -2.81712 0
M  V30 1472 N 138.941 1.26152 0.944643 0
M  V30 1473 C 140.189 1.11271 1.6871 0
M  V30 1474 C 140.51 -0.345166 1.91921 0
M  V30 1475 O 139.78 -1.24387 1.51343 0
M  V30 1476 H 138.36 0.408783 0.625224 0
M  V30 1477 H 141.022 1.58427 1.1352 0
M  V30 1478 H 140.118 1.62879 2.66227 0
M  V30 1479 N 140.419 -1.14872 1.07899 0
M  V30 1480 C 141.366 -2.19791 0.704319 0
M  V30 1481 C 142.336 -1.63238 -0.306987 0
M  V30 1482 O 143.521 -1.8983 -0.192171 0
M  V30 1483 C 140.661 -3.44911 0.114244 0
M  V30 1484 C 139.774 -4.15637 1.1777 0
M  V30 1485 C 138.909 -5.28324 0.552037 0
M  V30 1486 C 137.948 -5.90875 1.59789 0
M  V30 1487 N 137.085 -6.95022 0.994404 0
M  V30 1488 H 141.925 -2.5119 1.60336 0
M  V30 1489 H 139.462 -1.23356 0.801352 0
M  V30 1490 H 141.42 -4.16477 -0.245544 0
M  V30 1491 H 140.05 -3.14011 -0.74813 0
M  V30 1492 H 139.102 -3.42512 1.65499 0
M  V30 1493 H 140.414 -4.5823 1.97046 0
M  V30 1494 H 139.568 -6.06538 0.1402 0
M  V30 1495 H 138.307 -4.86939 -0.272431 0
M  V30 1496 H 137.312 -5.11369 2.01945 0
M  V30 1497 H 138.537 -6.34337 2.42474 0
M  V30 1498 H 136.483 -6.55722 0.190939 0
M  V30 1499 H 136.4 -7.36073 1.72432 0
M  V30 1500 H 137.668 -7.77123 0.608253 0
M  V30 1501 N 141.898 -0.863906 -1.31812 0
M  V30 1502 C 143.309 -0.52522 -1.7916 0
M  V30 1503 C 143.66 0.957518 -1.71248 0
M  V30 1504 O 142.785 1.74734 -1.27659 0
M  V30 1505 C 143.38 -0.9466 -3.25307 0
M  V30 1506 C 141.939 -0.659668 -3.70574 0
M  V30 1507 C 141.086 -1.14126 -2.52726 0
M  V30 1508 H 144.037 -1.05022 -1.1898 0
M  V30 1509 H 144.058 -0.266766 -3.79564 0
M  V30 1510 H 143.57 -2.02579 -3.31034 0
M  V30 1511 H 141.671 0.408416 -3.70355 0
M  V30 1512 H 141.784 -1.23245 -4.62977 0
M  V30 1513 H 140.148 -0.561216 -2.4844 0
M  V30 1514 H 140.931 -2.22775 -2.61201 0
M  V30 1515 N 143.376 1.44774 -0.622745 0
M  V30 1516 C 144.625 2.01334 -0.121397 0
M  V30 1517 C 144.938 1.49505 1.26125 0
M  V30 1518 O 146.144 1.98139 1.85616 0
M  V30 1519 C 144.6 3.59516 -0.166298 0
M  V30 1520 C 144.208 4.20342 -1.54974 0
M  V30 1521 C 145.952 4.23582 0.279021 0
M  V30 1522 C 143.859 5.70721 -1.55021 0
M  V30 1523 H 142.789 0.752851 -0.0416172 0
M  V30 1524 H 145.44 1.66083 -0.780309 0
M  V30 1525 H 143.822 3.92027 0.559557 0
M  V30 1526 H 144.996 3.99381 -2.29851 0
M  V30 1527 H 143.311 3.68529 -1.93843 0
M  V30 1528 H 145.908 5.33868 0.298083 0
M  V30 1529 H 146.251 3.95327 1.30471 0
M  V30 1530 H 146.784 3.95843 -0.394063 0
M  V30 1531 H 143.523 6.03698 -2.55399 0
M  V30 1532 H 143.043 5.93829 -0.844245 0
M  V30 1533 H 144.722 6.34203 -1.28047 0
M  V30 1534 N 144.854 0.36279 1.53368 0
M  V30 1535 C 146.084 -0.228281 2.05335 0
M  V30 1536 C 146.492 -1.43226 1.23625 0
M  V30 1537 O 145.835 -1.81717 0.269206 0
M  V30 1538 C 145.897 -0.688549 3.52845 0
M  V30 1539 C 145.561 0.398362 4.5526 0
M  V30 1540 C 146.558 1.24732 5.04716 0
M  V30 1541 C 144.243 0.557805 4.99193 0
M  V30 1542 C 146.237 2.2411 5.96702 0
M  V30 1543 C 143.924 1.55495 5.90986 0
M  V30 1544 C 144.922 2.39503 6.39631 0
M  V30 1545 O 144.61 3.37517 7.29615 0
M  V30 1546 H 144.342 -0.044395 0.674541 0
M  V30 1547 H 146.896 0.518668 1.98744 0
M  V30 1548 H 145.126 -1.48706 3.56964 0
M  V30 1549 H 146.815 -1.20231 3.87685 0
M  V30 1550 H 147.581 1.13532 4.71525 0
M  V30 1551 H 143.46 -0.0862959 4.60919 0
M  V30 1552 H 147.004 2.89718 6.34594 0
M  V30 1553 H 142.901 1.66744 6.23592 0
M  V30 1554 H 143.669 3.33213 7.47604 0
M  V30 1555 N 146.332 -1.57332 0.0918853 0
M  V30 1556 C 147.28 -2.15075 -0.885747 0
M  V30 1557 C 148.274 -1.09277 -1.29441 0
M  V30 1558 O 149.48 -1.27627 -1.26931 0
M  V30 1559 H 145.855 -0.687966 -0.303656 0
M  V30 1560 H 147.826 -2.96047 -0.373995 0
M  V30 1561 C 146.575 -2.74325 -2.13638 0
M  V30 1562 H 145.898 -3.55418 -1.8308 0
M  V30 1563 H 147.338 -3.183 -2.80109 0
M  V30 1564 C 145.797 -1.70062 -2.90827 0
M  V30 1565 O 146.327 -1.13763 -3.85254 0
M  V30 1566 N 144.533 -1.40628 -2.54307 0
M  V30 1567 H 144.08 -1.866 -1.7759 0
M  V30 1568 H 144.038 -0.711043 -3.06254 0
M  V30 1569 N 147.81 0.181792 -1.56548 0
M  V30 1570 C 148.773 1.20894 -1.94724 0
M  V30 1571 C 149.773 1.37738 -0.829747 0
M  V30 1572 O 150.963 1.35323 -1.09697 0
M  V30 1573 C 148.095 2.57593 -2.23291 0
M  V30 1574 H 149.288 0.882275 -2.86629 0
M  V30 1575 H 146.841 0.423838 -1.50444 0
M  V30 1576 H 147.576 2.95291 -1.34067 0
M  V30 1577 H 147.361 2.46735 -3.04736 0
M  V30 1578 H 148.851 3.31637 -2.53785 0
M  V30 1579 N 149.288 1.51039 0.449983 0
M  V30 1580 C 150.537 1.62317 1.19733 0
M  V30 1581 C 150.85 0.339101 1.92638 0
M  V30 1582 O 152.056 0.331069 2.69474 0
M  V30 1583 C 150.512 2.86608 2.17678 0
M  V30 1584 C 150.12 4.21972 1.50479 0
M  V30 1585 C 151.864 3.07239 2.92924 0
M  V30 1586 C 149.771 5.37426 2.46834 0
M  V30 1587 H 148.701 0.604532 0.450619 0
M  V30 1588 H 151.352 1.77494 0.465625 0
M  V30 1589 H 149.734 2.65037 2.94231 0
M  V30 1590 H 150.908 4.53878 0.795716 0
M  V30 1591 H 149.223 4.07117 0.874344 0
M  V30 1592 H 151.82 3.90668 3.65079 0
M  V30 1593 H 152.163 2.19807 3.5354 0
M  V30 1594 H 152.696 3.29091 2.23481 0
M  V30 1595 H 149.435 6.27079 1.90926 0
M  V30 1596 H 148.955 5.09912 3.15832 0
M  V30 1597 H 150.634 5.68862 3.08228 0
M  V30 1598 N 150.766 -0.704594 1.40972 0
M  V30 1599 C 152.012 -1.46675 1.40051 0
M  V30 1600 C 152.345 -1.94199 0.00641102 0
M  V30 1601 O 151.62 -1.68916 -0.964235 0
M  V30 1602 C 151.903 -2.68505 2.39952 0
M  V30 1603 C 151.756 -2.26805 3.88432 0
M  V30 1604 C 153.075 -3.70686 2.37233 0
M  V30 1605 H 150.194 -0.532015 0.510028 0
M  V30 1606 H 152.836 -0.803255 1.72185 0
M  V30 1607 H 150.986 -3.25114 2.1268 0
M  V30 1608 H 152.658 -1.75592 4.26574 0
M  V30 1609 H 150.901 -1.58685 4.03734 0
M  V30 1610 H 151.572 -3.14181 4.53866 0
M  V30 1611 H 154.048 -3.23731 2.61415 0
M  V30 1612 H 152.924 -4.53553 3.09162 0
M  V30 1613 H 153.185 -4.19754 1.38777 0
M  V30 1614 N 152.244 -1.26651 -0.937939 0
M  V30 1615 C 153.49 -1.13562 -1.68746 0
M  V30 1616 C 153.845 0.317241 -1.89767 0
M  V30 1617 O 153.138 1.22939 -1.46957 0
M  V30 1618 C 153.332 -1.84168 -3.06295 0
M  V30 1619 C 153.161 -3.36171 -2.98696 0
M  V30 1620 C 151.931 -4.05468 -3.01535 0
M  V30 1621 C 154.129 -4.32312 -2.78588 0
M  V30 1622 N 152.111 -5.44118 -2.84269 0
M  V30 1623 C 153.482 -5.58159 -2.69924 0
M  V30 1624 C 155.537 -4.22524 -2.63396 0
M  V30 1625 C 154.24 -6.75335 -2.47618 0
M  V30 1626 C 156.266 -5.39411 -2.42466 0
M  V30 1627 C 155.628 -6.64208 -2.34536 0
M  V30 1628 H 151.727 -0.470361 -0.624728 0
M  V30 1629 H 154.311 -1.59982 -1.10968 0
M  V30 1630 H 152.482 -1.40219 -3.62206 0
M  V30 1631 H 154.214 -1.63674 -3.70126 0
M  V30 1632 H 150.969 -3.56854 -3.11372 0
M  V30 1633 H 151.393 -6.1693 -2.78795 0
M  V30 1634 H 156.035 -3.26771 -2.68292 0
M  V30 1635 H 153.753 -7.71182 -2.41463 0
M  V30 1636 H 157.339 -5.33711 -2.31611 0
M  V30 1637 H 156.219 -7.53129 -2.18555 0
M  V30 1638 N 153.722 1.14298 -1.08507 0
M  V30 1639 C 154.654 2.1907 -0.673859 0
M  V30 1640 C 155.667 1.60381 0.279577 0
M  V30 1641 O 156.856 1.78374 0.0670754 0
M  V30 1642 C 153.956 3.38888 0.0290979 0
M  V30 1643 C 153.129 4.27103 -0.943494 0
M  V30 1644 C 152.188 5.25477 -0.275676 0
M  V30 1645 O 151.214 5.61709 -0.920401 0
M  V30 1646 N 152.416 5.7227 0.974013 0
M  V30 1647 H 155.181 2.54965 -1.57521 0
M  V30 1648 H 152.742 1.29528 -0.971287 0
M  V30 1649 H 154.734 4.01761 0.48683 0
M  V30 1650 H 153.304 3.01309 0.832555 0
M  V30 1651 H 152.524 3.61149 -1.58004 0
M  V30 1652 H 153.812 4.82905 -1.60251 0
M  V30 1653 H 153.21 5.44965 1.51755 0
M  V30 1654 H 151.767 6.37127 1.37522 0
M  V30 1655 N 155.201 0.870884 1.31352 0
M  V30 1656 C 156.441 0.488783 1.9847 0
M  V30 1657 C 156.805 -0.941536 1.67329 0
M  V30 1658 O 158.006 -1.42903 2.27667 0
M  V30 1659 C 156.277 0.739688 3.49662 0
M  V30 1660 S 157.836 0.457582 4.36408 0
M  V30 1661 H 154.654 0.18242 0.6872 0
M  V30 1662 H 157.256 1.12711 1.59739 0
M  V30 1663 H 155.96 1.77944 3.69816 0
M  V30 1664 H 155.491 0.0883905 3.93301 0
M  V30 1665 H 157.506 -0.709752 4.91098 0
M  V30 1666 N 156.679 -1.44442 0.630414 0
M  V30 1667 C 158.095 -1.56832 0.295973 0
M  V30 1668 C 158.295 -1.61806 -1.20088 0
M  V30 1669 O 157.351 -1.5607 -1.9849 0
M  V30 1670 C 158.664 -2.84031 0.987264 0
M  V30 1671 C 160.212 -2.97742 0.96534 0
M  V30 1672 C 160.687 -4.27743 1.63708 0
M  V30 1673 N 162.178 -4.34555 1.60364 0
M  V30 1674 C 162.913 -5.33862 2.09234 0
M  V30 1675 N 162.409 -6.39578 2.66292 0
M  V30 1676 N 164.202 -5.25366 1.99867 0
M  V30 1677 H 156.353 -1.39457 1.60205 0
M  V30 1678 H 158.616 -0.668237 0.672431 0
M  V30 1679 H 158.322 -2.86338 2.04215 0
M  V30 1680 H 158.196 -3.73534 0.524588 0
M  V30 1681 H 160.583 -2.94989 -0.0810639 0
M  V30 1682 H 160.664 -2.09589 1.4665 0
M  V30 1683 H 160.308 -4.31255 2.68293 0
M  V30 1684 H 160.238 -5.14752 1.11076 0
M  V30 1685 H 162.729 -3.58772 1.18705 0
M  V30 1686 H 163.042 -7.11637 3.01317 0
M  V30 1687 H 161.387 -6.40265 2.70343 0
M  V30 1688 H 164.578 -4.41688 1.55013 0
M  V30 1689 H 164.751 -6.02606 2.38265 0
M  V30 1690 N 158.157 -0.370918 -1.53173 0
M  V30 1691 C 159.573 -0.0200818 -1.59587 0
M  V30 1692 C 159.773 1.46279 -1.38581 0
M  V30 1693 O 158.829 2.22506 -1.19363 0
M  V30 1694 C 160.142 -0.4808 -2.96831 0
M  V30 1695 C 161.69 -0.435477 -3.09956 0
M  V30 1696 C 162.165 -0.872092 -4.4962 0
M  V30 1697 N 163.656 -0.827364 -4.55751 0
M  V30 1698 C 164.391 -1.13683 -5.62018 0
M  V30 1699 N 163.887 -1.51584 -6.76014 0
M  V30 1700 N 165.68 -1.05927 -5.52029 0
M  V30 1701 H 157.831 -1.33652 -1.65079 0
M  V30 1702 H 160.094 -0.546634 -0.774529 0
M  V30 1703 H 159.8 -1.51577 -3.1736 0
M  V30 1704 H 159.674 0.129796 -3.76977 0
M  V30 1705 H 162.061 0.590371 -2.89134 0
M  V30 1706 H 162.142 -1.08164 -2.31806 0
M  V30 1707 H 161.786 -1.89608 -4.71181 0
M  V30 1708 H 161.716 -0.203127 -5.26208 0
M  V30 1709 H 164.207 -0.548216 -3.73902 0
M  V30 1710 H 164.52 -1.73609 -7.53047 0
M  V30 1711 H 162.865 -1.55454 -6.77391 0
M  V30 1712 H 166.056 -0.762321 -4.61851 0
M  V30 1713 H 166.229 -1.30378 -6.34749 0
M  V30 1714 N 159.635 1.57281 -0.100228 0
M  V30 1715 C 160.863 1.98879 0.570509 0
M  V30 1716 C 161.278 0.979476 1.61405 0
M  V30 1717 O 160.635 -0.0302288 1.82475 0
M  V30 1718 C 160.686 3.4052 1.2136 0
M  V30 1719 O 160.407 4.37588 0.211786 0
M  V30 1720 C 161.908 3.97149 1.96945 0
M  V30 1721 H 159.128 0.653428 0.152555 0
M  V30 1722 H 161.672 2.03697 -0.18103 0
M  V30 1723 H 159.827 3.367 1.91603 0
M  V30 1724 H 160.241 5.20118 0.676607 0
M  V30 1725 H 161.715 4.98393 2.37294 0
M  V30 1726 H 162.192 3.3525 2.83733 0
M  V30 1727 H 162.798 4.04458 1.31506 0
M  V30 1728 N 161.113 -0.173488 1.56642 0
M  V30 1729 C 162.076 -1.19859 1.95362 0
M  V30 1730 C 163.076 -1.37296 0.83704 0
M  V30 1731 O 164.266 -1.34739 1.10413 0
M  V30 1732 C 161.398 -2.56405 2.24654 0
M  V30 1733 H 162.591 -0.867062 2.87092 0
M  V30 1734 H 160.144 -0.415853 1.50666 0
M  V30 1735 H 160.879 -2.94576 1.35631 0
M  V30 1736 H 160.664 -2.45115 3.06041 0
M  V30 1737 H 162.154 -3.30287 2.5554 0
M  V30 1738 N 162.591 -1.51276 -0.441967 0
M  V30 1739 C 163.501 -1.75092 -1.56141 0
M  V30 1740 C 164.517 -0.634963 -1.62001 0
M  V30 1741 O 165.693 -0.916686 -1.79329 0
M  V30 1742 C 162.758 -1.86666 -2.92158 0
M  V30 1743 C 161.819 -3.10506 -2.96453 0
M  V30 1744 C 161.052 -3.21519 -4.25982 0
M  V30 1745 O 161.275 -2.38586 -5.18105 0
M  V30 1746 O 160.209 -4.14465 -4.36466 0
M  V30 1747 H 164.035 -2.70044 -1.38961 0
M  V30 1748 H 161.62 -1.35722 -0.624499 0
M  V30 1749 H 163.502 -1.96292 -3.72891 0
M  V30 1750 H 162.177 -0.949014 -3.09476 0
M  V30 1751 H 161.084 -3.06363 -2.14692 0
M  V30 1752 H 162.417 -4.01945 -2.84079 0
M  V30 1753 N 164.069 0.697108 -1.41344 0
M  V30 1754 C 165.318 1.45279 -1.39918 0
M  V30 1755 C 165.631 1.95597 -0.0109624 0
M  V30 1756 O 166.837 2.71208 0.125919 0
M  V30 1757 C 165.293 2.62695 -2.46007 0
M  V30 1758 C 164.901 2.19169 -3.90729 0
M  V30 1759 C 166.645 3.40336 -2.53715 0
M  V30 1760 C 164.552 3.33535 -4.88373 0
M  V30 1761 H 163.482 0.545692 -0.520323 0
M  V30 1762 H 166.133 0.756929 -1.67161 0
M  V30 1763 H 164.515 3.34541 -2.11892 0
M  V30 1764 H 165.689 1.54623 -4.34083 0
M  V30 1765 H 164.004 1.54525 -3.86666 0
M  V30 1766 H 166.601 4.2547 -3.2385 0
M  V30 1767 H 166.944 3.85418 -1.5735 0
M  V30 1768 H 167.477 2.75546 -2.86913 0
M  V30 1769 H 164.216 2.93468 -5.86137 0
M  V30 1770 H 163.736 3.96936 -4.49668 0
M  V30 1771 H 165.415 3.99335 -5.09059 0
M  V30 1772 N 165.547 1.27147 0.931209 0
M  V30 1773 C 166.787 1.14511 1.69312 0
M  V30 1774 C 167.151 -0.304638 1.89568 0
M  V30 1775 O 168.352 -0.553343 2.63043 0
M  V30 1776 C 166.623 1.90349 3.02493 0
M  V30 1777 S 168.182 1.93884 3.93642 0
M  V30 1778 H 165 0.408858 0.581684 0
M  V30 1779 H 167.602 1.61006 1.10893 0
M  V30 1780 H 166.306 2.94877 2.85439 0
M  V30 1781 H 165.837 1.44333 3.65966 0
M  V30 1782 H 167.852 1.03273 4.85334 0
M  V30 1783 N 167.025 -1.13721 1.09112 0
M  V30 1784 C 167.935 -2.22638 0.73957 0
M  V30 1785 C 168.951 -1.72091 -0.257068 0
M  V30 1786 O 170.127 -2.01155 -0.0992154 0
M  V30 1787 C 167.192 -3.46322 0.16191 0
M  V30 1788 C 166.253 -4.11775 1.21408 0
M  V30 1789 C 165.486 -5.29555 0.663891 0
M  V30 1790 O 165.709 -5.68077 -0.514274 0
M  V30 1791 O 164.643 -5.84973 1.41738 0
M  V30 1792 H 168.469 -2.55074 1.64836 0
M  V30 1793 H 166.054 -1.21791 0.865289 0
M  V30 1794 H 167.936 -4.21107 -0.157073 0
M  V30 1795 H 166.611 -3.15593 -0.719932 0
M  V30 1796 H 165.518 -3.3883 1.58571 0
M  V30 1797 H 166.851 -4.46627 2.06845 0
M  V30 1798 N 168.503 -0.877838 -1.30888 0
M  V30 1799 C 169.453 -0.310872 -2.25871 0
M  V30 1800 C 170.437 0.556596 -1.50966 0
M  V30 1801 O 171.629 0.402187 -1.7237 0
M  V30 1802 C 168.758 0.479821 -3.3993 0
M  V30 1803 C 167.844 -0.401333 -4.22197 0
M  V30 1804 N 168.235 -1.49848 -4.83093 0
M  V30 1805 C 166.533 -0.195167 -4.45573 0
M  V30 1806 C 167.234 -2.0425 -5.44662 0
M  V30 1807 N 166.21 -1.33843 -5.26865 0
M  V30 1808 H 170.012 -1.1493 -2.70496 0
M  V30 1809 H 167.526 -0.726458 -1.45246 0
M  V30 1810 H 169.523 0.902582 -4.07012 0
M  V30 1811 H 168.183 1.31577 -2.96846 0
M  V30 1812 H 169.194 -1.88137 -4.82519 0
M  V30 1813 H 165.871 0.604192 -4.13105 0
M  V30 1814 H 167.261 -2.96345 -6.03017 0
M  V30 1815 N 169.982 1.44106 -0.638065 0
M  V30 1816 C 170.912 2.33448 0.0494287 0
M  V30 1817 C 171.893 1.48606 0.827672 0
M  V30 1818 O 173.078 1.77308 0.792173 0
M  V30 1819 C 170.208 3.31771 1.02691 0
M  V30 1820 C 169.162 4.26485 0.359823 0
M  V30 1821 C 168.488 5.14729 1.44769 0
M  V30 1822 C 169.788 5.17056 -0.738296 0
M  V30 1823 H 171.482 2.91183 -0.696636 0
M  V30 1824 H 169.028 1.40014 -0.336456 0
M  V30 1825 H 170.981 3.93161 1.51666 0
M  V30 1826 H 169.705 2.7226 1.80395 0
M  V30 1827 H 168.364 3.66437 -0.10934 0
M  V30 1828 H 168.012 4.51566 2.21578 0
M  V30 1829 H 167.712 5.78913 1.00668 0
M  V30 1830 H 169.236 5.78991 1.93911 0
M  V30 1831 H 170.65 5.72342 -0.331354 0
M  V30 1832 H 169.047 5.89879 -1.10286 0
M  V30 1833 H 170.117 4.57652 -1.60258 0
M  V30 1834 N 171.46 0.379036 1.52974 0
M  V30 1835 C 172.407 -0.461048 2.26148 0
M  V30 1836 C 173.377 -1.06637 1.27349 0
M  V30 1837 O 174.562 -1.09633 1.56157 0
M  V30 1838 C 171.702 -1.58782 3.06402 0
M  V30 1839 C 170.815 -1.00636 4.20115 0
M  V30 1840 C 169.95 -2.10334 4.87784 0
M  V30 1841 C 168.989 -1.49724 5.93506 0
M  V30 1842 N 168.126 -2.5331 6.54812 0
M  V30 1843 H 172.966 0.169429 2.97518 0
M  V30 1844 H 170.503 0.0953806 1.4679 0
M  V30 1845 H 172.461 -2.25174 3.51215 0
M  V30 1846 H 171.091 -2.18876 2.37261 0
M  V30 1847 H 170.143 -0.232332 3.7969 0
M  V30 1848 H 171.455 -0.523343 4.96047 0
M  V30 1849 H 170.609 -2.84519 5.35849 0
M  V30 1850 H 169.348 -2.61992 4.11353 0
M  V30 1851 H 168.353 -0.740598 5.44789 0
M  V30 1852 H 169.578 -0.988732 6.71864 0
M  V30 1853 H 167.524 -3.04156 5.81227 0
M  V30 1854 H 167.441 -2.09734 7.26325 0
M  V30 1855 H 168.709 -3.27155 7.07524 0
M  V30 1856 N 172.938 -1.57226 0.108567 0
M  V30 1857 C 174.354 -1.5766 -0.248058 0
M  V30 1858 C 174.554 -1.12063 -1.67464 0
M  V30 1859 O 173.61 -0.803236 -2.39383 0
M  V30 1860 C 174.923 -3.0069 -0.0242287 0
M  V30 1861 C 176.471 -3.12868 -0.0909372 0
M  V30 1862 C 176.946 -4.57879 0.105067 0
M  V30 1863 N 178.437 -4.63172 0.0506846 0
M  V30 1864 C 179.172 -5.73126 0.177396 0
M  V30 1865 N 178.668 -6.91866 0.359696 0
M  V30 1866 N 180.461 -5.61977 0.117709 0
M  V30 1867 H 172.612 -1.85169 1.04049 0
M  V30 1868 H 174.875 -0.85529 0.40888 0
M  V30 1869 H 174.581 -3.38299 0.961604 0
M  V30 1870 H 174.455 -3.6945 -0.76068 0
M  V30 1871 H 176.842 -2.75124 -1.06729 0
M  V30 1872 H 176.923 -2.46672 0.677225 0
M  V30 1873 H 176.567 -4.96321 1.07834 0
M  V30 1874 H 176.497 -5.22153 -0.682954 0
M  V30 1875 H 178.988 -3.778 -0.0871266 0
M  V30 1876 H 179.301 -7.71503 0.447529 0
M  V30 1877 H 177.646 -6.93874 0.395536 0
M  V30 1878 H 180.837 -4.68094 -0.0236741 0
M  V30 1879 H 181.01 -6.47627 0.219905 0
M  V30 1880 N 174.416 0.165178 -1.56732 0
M  V30 1881 C 175.693 0.908443 -1.73224 0
M  V30 1882 C 176.073 2.0013 -0.67165 0
M  V30 1883 O 175.421 2.26353 0.31253 0
M  V30 1884 C 175.631 1.46756 -3.16644 0
M  V30 1885 C 176.979 1.93809 -3.77787 0
M  V30 1886 O 178.003 1.56537 -3.1996 0
M  V30 1887 O 176.862 2.62486 -4.79336 0
M  V30 1888 H 173.956 0.428025 -0.707618 0
M  V30 1889 H 176.502 0.152526 -1.69013 0
M  V30 1890 H 175.274 0.68129 -3.85323 0
M  V30 1891 H 174.897 2.28749 -3.25207 0
M  V30 1892 N 175.894 1.51508 0.433938 0
M  V30 1893 C 177.142 1.6402 1.18075 0
M  V30 1894 C 177.463 0.360328 1.91642 0
M  V30 1895 O 176.733 -0.623945 1.85698 0
M  V30 1896 H 175.313 0.6045 0.43885 0
M  V30 1897 H 177.975 1.88452 0.497178 0
M  V30 1898 H 177.071 2.46949 1.90847 0
M  V30 1899 N 177.372 -0.689602 1.41712 0
M  V30 1900 C 178.302 -1.81577 1.46806 0
M  V30 1901 C 179.283 -1.66945 0.326105 0
M  V30 1902 O 180.468 -1.86588 0.538377 0
M  V30 1903 C 177.598 -3.19762 1.35535 0
M  V30 1904 C 176.552 -3.49107 2.47605 0
M  V30 1905 C 175.878 -4.86711 2.21397 0
M  V30 1906 C 177.178 -3.47483 3.89939 0
M  V30 1907 H 178.872 -1.7757 2.41058 0
M  V30 1908 H 176.418 -0.852887 1.16025 0
M  V30 1909 H 178.371 -3.98263 1.3771 0
M  V30 1910 H 177.095 -3.24409 0.377708 0
M  V30 1911 H 175.754 -2.72959 2.44722 0
M  V30 1912 H 175.402 -4.8799 1.21961 0
M  V30 1913 H 175.102 -5.0731 2.96497 0
M  V30 1914 H 176.626 -5.67515 2.25297 0
M  V30 1915 H 178.04 -4.1598 3.94505 0
M  V30 1916 H 176.437 -3.79615 4.64771 0
M  V30 1917 H 177.507 -2.46341 4.17665 0
M  V30 1918 N 178.85 -1.27639 -0.924453 0
M  V30 1919 C 179.76 -1.12466 -2.05885 0
M  V30 1920 C 180.776 -0.053869 -1.73917 0
M  V30 1921 O 181.952 -0.261012 -1.99702 0
M  V30 1922 C 179.017 -0.776768 -3.37886 0
M  V30 1923 C 178.078 -1.92878 -3.83532 0
M  V30 1924 C 177.311 -1.59739 -5.09234 0
M  V30 1925 O 177.534 -0.506782 -5.68144 0
M  V30 1926 O 176.468 -2.43761 -5.50331 0
M  V30 1927 H 180.294 -2.07671 -2.21599 0
M  V30 1928 H 177.879 -1.06857 -1.04413 0
M  V30 1929 H 179.761 -0.596229 -4.17161 0
M  V30 1930 H 178.436 0.145732 -3.23372 0
M  V30 1931 H 177.343 -2.1644 -3.0513 0
M  V30 1932 H 178.676 -2.8316 -4.02593 0
M  V30 1933 N 180.328 1.1314 -1.09713 0
M  V30 1934 C 181.605 1.80762 -0.747302 0
M  V30 1935 C 181.985 1.96663 0.767265 0
M  V30 1936 O 181.333 1.53706 1.69076 0
M  V30 1937 C 181.543 3.15606 -1.48975 0
M  V30 1938 C 182.891 3.90914 -1.65746 0
M  V30 1939 O 183.915 3.25239 -1.45251 0
M  V30 1940 O 182.774 5.08718 -1.9967 0
M  V30 1941 H 179.868 0.782103 -0.268782 0
M  V30 1942 H 182.414 1.20041 -1.19951 0
M  V30 1943 H 181.186 2.99278 -2.52088 0
M  V30 1944 H 180.809 3.84029 -1.02991 0
M  V30 1945 N 181.806 0.884767 1.30421 0
M  V30 1946 C 183.036 0.517293 2.00019 0
M  V30 1947 C 183.444 -0.898632 1.66497 0
M  V30 1948 O 182.787 -1.60245 0.898181 0
M  V30 1949 C 182.849 0.612025 3.54252 0
M  V30 1950 C 182.513 1.99222 4.1129 0
M  V30 1951 C 183.51 2.9616 4.273 0
M  V30 1952 C 181.195 2.29755 4.46674 0
M  V30 1953 C 183.189 4.21764 4.77906 0
M  V30 1954 C 180.876 3.55606 4.96979 0
M  V30 1955 C 181.874 4.51425 5.12547 0
M  V30 1956 O 181.562 5.75043 5.61766 0
M  V30 1957 H 181.294 0.198529 0.64619 0
M  V30 1958 H 183.848 1.1919 1.67281 0
M  V30 1959 H 182.078 -0.119561 3.86515 0
M  V30 1960 H 183.767 0.255859 4.05093 0
M  V30 1961 H 184.533 2.73882 4.00267 0
M  V30 1962 H 180.412 1.55942 4.33824 0
M  V30 1963 H 183.956 4.96561 4.89972 0
M  V30 1964 H 179.853 3.7772 5.23448 0
M  V30 1965 H 180.621 5.77422 5.80109 0
M  V30 1966 N 183.284 -1.43765 0.645699 0
M  V30 1967 C 184.533 -2.01116 0.153412 0
M  V30 1968 C 184.846 -1.51493 -1.23731 0
M  V30 1969 O 186.052 -2.01067 -1.8244 0
M  V30 1970 C 184.508 -3.59206 0.223473 0
M  V30 1971 C 184.116 -4.17823 1.61642 0
M  V30 1972 C 185.86 -4.23972 -0.211597 0
M  V30 1973 C 183.767 -5.68183 1.64081 0
M  V30 1974 H 182.697 -0.752093 0.0535891 0
M  V30 1975 H 185.348 -1.6482 0.806633 0
M  V30 1976 H 183.73 -3.92867 -0.497118 0
M  V30 1977 H 184.904 -3.95674 2.36176 0
M  V30 1978 H 183.219 -3.65399 1.99681 0
M  V30 1979 H 185.816 -5.34275 -0.213112 0
M  V30 1980 H 186.159 -3.97352 -1.24165 0
M  V30 1981 H 186.692 -3.95166 0.456988 0
M  V30 1982 H 183.431 -5.99559 2.64971 0
M  V30 1983 H 182.951 -5.9241 0.938611 0
M  V30 1984 H 184.63 -6.32085 1.3812 0
M  V30 1985 N 184.763 -0.387143 -1.52771 0
M  V30 1986 C 186.179 -0.037007 -1.59557 0
M  V30 1987 C 186.379 1.44801 -1.40124 0
M  V30 1988 O 185.435 2.21227 -1.21716 0
M  V30 1989 C 186.748 -0.512256 -2.96305 0
M  V30 1990 C 188.296 -0.468328 -3.09476 0
M  V30 1991 C 188.771 -0.919731 -4.4867 0
M  V30 1992 N 190.262 -0.875656 -4.54848 0
M  V30 1993 C 190.997 -1.19637 -5.6078 0
M  V30 1994 N 190.493 -1.58745 -6.74368 0
M  V30 1995 N 192.286 -1.11776 -5.50874 0
M  V30 1996 H 184.437 -1.35395 -1.63652 0
M  V30 1997 H 186.7 -0.554818 -0.768688 0
M  V30 1998 H 186.406 -1.54935 -3.15734 0
M  V30 1999 H 186.28 0.089805 -3.77093 0
M  V30 2000 H 188.667 0.559671 -2.89744 0
M  V30 2001 H 188.748 -1.10616 -2.30646 0
M  V30 2002 H 188.392 -1.94595 -4.69143 0
M  V30 2003 H 188.322 -0.258927 -5.25963 0
M  V30 2004 H 190.813 -0.587843 -3.733 0
M  V30 2005 H 191.126 -1.81586 -7.51163 0
M  V30 2006 H 189.471 -1.6263 -6.75705 0
M  V30 2007 H 192.662 -0.811264 -4.61016 0
M  V30 2008 H 192.835 -1.37103 -6.3333 0
M  V30 2009 N 186.241 1.57166 -0.116904 0
M  V30 2010 C 187.466 1.999 0.55271 0
M  V30 2011 C 187.891 0.996039 1.59564 0
M  V30 2012 O 187.249 -0.032556 1.81271 0
M  V30 2013 C 187.297 3.4152 1.15742 0
M  V30 2014 O 186.401 3.44106 2.27299 0
M  V30 2015 H 185.742 0.649447 0.138258 0
M  V30 2016 H 188.272 2.03573 -0.204759 0
M  V30 2017 H 188.282 3.79684 1.49346 0
M  V30 2018 H 186.957 4.14034 0.393493 0
M  V30 2019 H 185.534 3.17759 1.9515 0
M  V30 2020 N 187.719 -0.156864 1.56817 0
M  V30 2021 C 188.667 -1.21319 1.98455 0
M  V30 2022 C 189.661 -1.45025 0.875444 0
M  V30 2023 O 190.867 -1.45435 1.0606 0
M  V30 2024 H 187.242 -0.408142 0.631605 0
M  V30 2025 H 189.213 -0.835244 2.86472 0
M  V30 2026 C 187.962 -2.54148 2.37285 0
M  V30 2027 H 187.285 -2.36733 3.22176 0
M  V30 2028 H 188.725 -3.26712 2.70251 0
M  V30 2029 C 187.184 -3.13967 1.22173 0
M  V30 2030 O 187.714 -3.98357 0.517149 0
M  V30 2031 N 185.92 -2.7327 0.988536 0
M  V30 2032 H 185.467 -2.04744 1.56326 0
M  V30 2033 H 185.425 -3.13628 0.220209 0
M  V30 2034 N 189.197 -1.51736 -0.425897 0
M  V30 2035 C 190.425 -1.68794 -1.1965 0
M  V30 2036 C 190.84 -0.390164 -1.84725 0
M  V30 2037 O 190.197 0.632376 -1.71194 0
M  V30 2038 C 190.248 -2.81174 -2.27208 0
M  V30 2039 O 189.969 -4.05925 -1.64793 0
M  V30 2040 C 191.47 -3.09599 -3.17275 0
M  V30 2041 H 188.69 -0.566128 -0.360194 0
M  V30 2042 H 191.234 -1.98211 -0.503249 0
M  V30 2043 H 189.389 -2.54324 -2.9223 0
M  V30 2044 H 189.803 -4.68423 -2.35967 0
M  V30 2045 H 191.277 -3.91786 -3.88854 0
M  V30 2046 H 191.754 -2.22468 -3.78688 0
M  V30 2047 H 192.36 -3.38151 -2.57941 0
M  V30 2048 N 190.675 0.682077 -1.42076 0
M  V30 2049 C 191.923 1.4393 -1.41876 0
M  V30 2050 C 192.244 1.94971 -0.0335599 0
M  V30 2051 O 191.514 1.72591 0.926773 0
M  V30 2052 H 190.094 0.534085 -0.522267 0
M  V30 2053 H 192.756 0.806427 -1.77434 0
M  V30 2054 H 191.852 2.29588 -2.11414 0
M  V30 2055 N 192.153 1.28127 0.917671 0
M  V30 2056 C 193.083 1.14248 2.03641 0
M  V30 2057 C 194.064 0.0412748 1.7005 0
M  V30 2058 O 195.249 0.217566 1.92977 0
M  V30 2059 C 192.379 0.799431 3.37974 0
M  V30 2060 C 191.333 1.85497 3.85713 0
M  V30 2061 C 190.659 1.36565 5.16966 0
M  V30 2062 C 191.959 3.26085 4.08002 0
M  V30 2063 H 193.653 2.07835 2.15511 0
M  V30 2064 H 191.199 1.00064 1.03553 0
M  V30 2065 H 193.152 0.689114 4.15727 0
M  V30 2066 H 191.876 -0.172145 3.26146 0
M  V30 2067 H 190.535 1.95437 3.10161 0
M  V30 2068 H 190.183 0.383253 5.01538 0
M  V30 2069 H 189.883 2.07143 5.49878 0
M  V30 2070 H 191.407 1.26848 5.97279 0
M  V30 2071 H 192.821 3.19089 4.76293 0
M  V30 2072 H 191.218 3.94462 4.52238 0
M  V30 2073 H 192.288 3.70394 3.12948 0
M  V30 2074 N 193.631 -1.12557 1.10312 0
M  V30 2075 C 194.877 -1.84311 0.846011 0
M  V30 2076 C 195.21 -1.83805 -0.626859 0
M  V30 2077 O 194.485 -1.28268 -1.46211 0
M  V30 2078 C 194.768 -3.32048 1.39341 0
M  V30 2079 C 194.621 -3.41016 2.93305 0
M  V30 2080 C 195.94 -4.27764 1.03468 0
M  V30 2081 H 193.059 -0.669192 0.30879 0
M  V30 2082 H 195.701 -1.32057 1.36605 0
M  V30 2083 H 193.851 -3.76678 0.951087 0
M  V30 2084 H 195.523 -3.05031 3.46055 0
M  V30 2085 H 193.766 -2.81603 3.29973 0
M  V30 2086 H 194.437 -4.44948 3.26689 0
M  V30 2087 H 196.913 -3.91253 1.41633 0
M  V30 2088 H 195.789 -5.29549 1.44463 0
M  V30 2089 H 196.05 -4.42064 -0.0560404 0
M  V30 2090 N 195.109 -0.891671 -1.2995 0
M  V30 2091 C 196.358 -0.509521 -1.95158 0
M  V30 2092 C 196.671 0.947388 -1.71125 0
M  V30 2093 O 197.877 1.43669 -2.30372 0
M  V30 2094 C 196.333 -0.860315 -3.49466 0
M  V30 2095 C 195.941 -2.33545 -3.8231 0
M  V30 2096 C 197.685 -0.547687 -4.20952 0
M  V30 2097 C 195.592 -2.62752 -5.29826 0
M  V30 2098 H 194.522 -0.18682 -0.730489 0
M  V30 2099 H 197.173 -1.08756 -1.47798 0
M  V30 2100 H 195.555 -0.211285 -3.95436 0
M  V30 2101 H 196.729 -3.02936 -3.47227 0
M  V30 2102 H 195.044 -2.61629 -3.23944 0
M  V30 2103 H 197.641 -0.742854 -5.29515 0
M  V30 2104 H 197.984 0.51332 -4.13123 0
M  V30 2105 H 198.517 -1.1542 -3.80688 0
M  V30 2106 H 195.256 -3.6762 -5.42712 0
M  V30 2107 H 194.776 -1.97977 -5.66185 0
M  V30 2108 H 196.455 -2.48601 -5.97333 0
M  V30 2109 N 196.587 1.43421 -0.653314 0
M  V30 2110 C 197.864 1.95361 -0.0966581 0
M  V30 2111 C 198.244 1.59461 1.38331 0
M  V30 2112 O 197.592 0.879777 2.10884 0
M  V30 2113 C 197.802 3.47311 -0.342988 0
M  V30 2114 C 199.15 4.23875 -0.24798 0
M  V30 2115 O 200.174 3.55133 -0.275553 0
M  V30 2116 O 199.033 5.4623 -0.171771 0
M  V30 2117 H 196.127 0.826945 0.00956291 0
M  V30 2118 H 198.673 1.5336 -0.726558 0
M  V30 2119 H 197.445 3.66569 -1.36906 0
M  V30 2120 H 197.068 3.9631 0.319975 0
M  V30 2121 N 198.065 0.39524 1.52563 0
M  V30 2122 C 199.476 -0.0774719 1.86539 0
M  V30 2123 C 199.827 -1.45641 1.31466 0
M  V30 2124 O 198.952 -2.06459 0.648367 0
M  V30 2125 C 199.547 -0.147356 3.38479 0
M  V30 2126 C 198.106 -0.564373 3.72145 0
M  V30 2127 C 197.253 0.269919 2.75983 0
M  V30 2128 H 200.204 0.612876 1.46388 0
M  V30 2129 H 200.225 -0.965343 3.68051 0
M  V30 2130 H 199.737 0.856387 3.78534 0
M  V30 2131 H 197.838 -1.57527 3.37663 0
M  V30 2132 H 197.951 -0.318402 4.78041 0
M  V30 2133 H 196.315 -0.265696 2.5331 0
M  V30 2134 H 197.098 1.27175 3.18875 0
M  V30 2135 N 199.544 -1.57102 0.125237 0
M  V30 2136 C 200.774 -1.99472 -0.538015 0
M  V30 2137 C 201.182 -1.00395 -1.60366 0
M  V30 2138 O 200.525 0.0103875 -1.83697 0
M  V30 2139 C 200.587 -3.38262 -1.21734 0
M  V30 2140 C 200.251 -4.56021 -0.298897 0
M  V30 2141 C 201.248 -5.17817 0.464943 0
M  V30 2142 C 198.933 -5.01869 -0.208149 0
M  V30 2143 C 200.927 -6.23852 1.3072 0
M  V30 2144 C 198.614 -6.07763 0.637736 0
M  V30 2145 C 199.612 -6.68622 1.39403 0
M  V30 2146 O 199.3 -7.7247 2.22586 0
M  V30 2147 H 199.032 -0.659934 -0.146501 0
M  V30 2148 H 201.586 -2.04321 0.210267 0
M  V30 2149 H 199.816 -3.30185 -2.01282 0
M  V30 2150 H 201.505 -3.6488 -1.77813 0
M  V30 2151 H 202.271 -4.83308 0.404741 0
M  V30 2152 H 198.15 -4.54241 -0.786522 0
M  V30 2153 H 201.694 -6.71284 1.898 0
M  V30 2154 H 197.591 -6.41701 0.699309 0
M  V30 2155 H 198.359 -7.89595 2.15596 0
M  V30 2156 N 201.022 0.148545 -1.56898 0
M  V30 2157 C 202.269 0.861418 -1.83264 0
M  V30 2158 C 202.597 1.81239 -0.705883 0
M  V30 2159 O 201.852 1.93305 0.305212 0
M  V30 2160 C 202.151 1.67064 -3.1595 0
M  V30 2161 C 201.817 0.866591 -4.42494 0
M  V30 2162 C 200.479 0.644762 -4.76861 0
M  V30 2163 C 202.831 0.30418 -5.20312 0
M  V30 2164 C 200.159 -0.15021 -5.86508 0
M  V30 2165 C 202.511 -0.477824 -6.30793 0
M  V30 2166 C 201.175 -0.710244 -6.63711 0
M  V30 2167 H 200.445 0.315215 -0.670612 0
M  V30 2168 H 203.092 0.125142 -1.91091 0
M  V30 2169 H 201.397 2.47698 -3.03567 0
M  V30 2170 H 203.094 2.22566 -3.33565 0
M  V30 2171 H 199.684 1.04955 -4.15551 0
M  V30 2172 H 203.868 0.462844 -4.94137 0
M  V30 2173 H 199.124 -0.339796 -6.10455 0
M  V30 2174 H 203.298 -0.92076 -6.90286 0
M  V30 2175 H 200.925 -1.3281 -7.48509 0
M  V30 2176 N 202.5 1.5196 0.417844 0
M  V30 2177 C 203.725 1.69717 1.1921 0
M  V30 2178 C 204.15 0.402148 1.83751 0
M  V30 2179 O 203.508 -0.639593 1.69643 0
M  V30 2180 C 203.556 2.82794 2.2374 0
M  V30 2181 O 202.66 2.47756 3.29683 0
M  V30 2182 H 202.001 0.565263 0.348387 0
M  V30 2183 H 204.531 1.98621 0.490985 0
M  V30 2184 H 204.541 3.07452 2.68212 0
M  V30 2185 H 203.216 3.76756 1.76146 0
M  V30 2186 H 201.793 2.33739 2.90552 0
M  V30 2187 N 203.978 -0.674533 1.42435 0
M  V30 2188 C 205.226 -1.43175 1.42637 0
M  V30 2189 C 205.547 -1.94951 0.0438992 0
M  V30 2190 O 204.817 -1.7308 -0.917607 0
M  V30 2191 H 203.397 -0.531307 0.525092 0
M  V30 2192 H 206.059 -0.797006 1.77859 0
M  V30 2193 H 205.155 -2.28463 2.12629 0
M  V30 2194 N 205.456 -1.28612 -0.910864 0
M  V30 2195 C 206.684 -1.18792 -1.69399 0
M  V30 2196 C 207.099 0.253039 -1.87097 0
M  V30 2197 O 206.456 1.17071 -1.40003 0
M  V30 2198 C 206.507 -1.88511 -3.08457 0
M  V30 2199 O 206.228 -3.26979 -2.91576 0
M  V30 2200 C 207.729 -1.85029 -4.02839 0
M  V30 2201 H 204.949 -0.412233 -0.529438 0
M  V30 2202 H 207.493 -1.69788 -1.13984 0
M  V30 2203 H 205.648 -1.41379 -3.60681 0
M  V30 2204 H 206.062 -3.61936 -3.79608 0
M  V30 2205 H 207.536 -2.38395 -4.97867 0
M  V30 2206 H 208.013 -0.823303 -4.31414 0
M  V30 2207 H 208.619 -2.31853 -3.56545 0
M  V30 2208 N 206.934 1.1197 -1.10907 0
M  V30 2209 C 207.881 2.17846 -0.762345 0
M  V30 2210 C 208.851 1.63995 0.263599 0
M  V30 2211 O 210.036 1.90273 0.141773 0
M  V30 2212 C 207.176 3.44487 -0.205651 0
M  V30 2213 C 206.289 4.12369 -1.28748 0
M  V30 2214 C 205.424 5.26674 -0.691919 0
M  V30 2215 C 204.463 5.86431 -1.75399 0
M  V30 2216 N 203.6 6.92142 -1.17833 0
M  V30 2217 H 208.44 2.46851 -1.6694 0
M  V30 2218 H 205.977 1.21188 -0.833776 0
M  V30 2219 H 207.935 4.16981 0.135037 0
M  V30 2220 H 206.565 3.15884 0.664613 0
M  V30 2221 H 205.617 3.38003 -1.74522 0
M  V30 2222 H 206.929 4.52844 -2.09125 0
M  V30 2223 H 206.083 6.05953 -0.300963 0
M  V30 2224 H 204.822 4.8749 0.143232 0
M  V30 2225 H 203.827 5.05835 -2.15432 0
M  V30 2226 H 205.052 6.27685 -2.59208 0
M  V30 2227 H 202.998 6.54985 -0.364725 0
M  V30 2228 H 202.915 7.31242 -1.91887 0
M  V30 2229 H 204.183 7.75237 -0.81408 0
M  V30 2230 N 208.412 0.89855 1.29475 0
M  V30 2231 C 209.658 0.524658 1.95896 0
M  V30 2232 C 209.991 -0.926468 1.70676 0
M  V30 2233 O 209.266 -1.65665 1.01908 0
M  V30 2234 C 209.549 0.81633 3.50725 0
M  V30 2235 C 209.402 2.31907 3.85408 0
M  V30 2236 C 210.721 0.302038 4.39062 0
M  V30 2237 H 207.84 0.19209 0.711527 0
M  V30 2238 H 210.482 1.12502 1.53112 0
M  V30 2239 H 208.632 0.305369 3.87298 0
M  V30 2240 H 210.304 2.89949 3.58786 0
M  V30 2241 H 208.547 2.78027 3.32992 0
M  V30 2242 H 209.218 2.47373 4.93468 0
M  V30 2243 H 211.694 0.739551 4.09475 0
M  V30 2244 H 210.57 0.535331 5.46283 0
M  V30 2245 H 210.831 -0.797216 4.34853 0
M  V30 2246 N 209.89 -1.43072 0.660911 0
M  V30 2247 C 210.837 -2.30785 -0.0259884 0
M  V30 2248 C 211.807 -1.45184 -0.806888 0
M  V30 2249 O 212.992 -1.74041 -0.781943 0
M  V30 2250 C 210.132 -3.30861 -0.981067 0
M  V30 2251 C 209.245 -4.31558 -0.195458 0
M  V30 2252 C 208.38 -5.18712 -1.14503 0
M  V30 2253 C 207.419 -6.11097 -0.350299 0
M  V30 2254 N 206.556 -6.90849 -1.25186 0
M  V30 2255 H 211.396 -2.88975 0.727846 0
M  V30 2256 H 208.933 -1.42353 0.370682 0
M  V30 2257 H 210.891 -3.87399 -1.54849 0
M  V30 2258 H 209.521 -2.74304 -1.70169 0
M  V30 2259 H 208.573 -3.77252 0.488374 0
M  V30 2260 H 209.885 -4.9701 0.422176 0
M  V30 2261 H 209.039 -5.79914 -1.78284 0
M  V30 2262 H 207.778 -4.53404 -1.79656 0
M  V30 2263 H 206.783 -5.48976 0.300808 0
M  V30 2264 H 208.008 -6.7845 0.296941 0
M  V30 2265 H 205.954 -6.28182 -1.89005 0
M  V30 2266 H 205.871 -7.52854 -0.688971 0
M  V30 2267 H 207.139 -7.5655 -1.87757 0
M  V30 2268 N 211.368 -0.403325 -1.52352 0
M  V30 2269 C 212.614 0.167015 -2.02713 0
M  V30 2270 C 212.969 1.43296 -1.28391 0
M  V30 2271 O 212.262 1.87796 -0.379885 0
M  V30 2272 C 212.456 0.474665 -3.54234 0
M  V30 2273 C 212.285 -0.759909 -4.43233 0
M  V30 2274 C 211.055 -1.28338 -4.88731 0
M  V30 2275 C 213.253 -1.63634 -4.87574 0
M  V30 2276 N 211.235 -2.47404 -5.6184 0
M  V30 2277 C 212.606 -2.67329 -5.59406 0
M  V30 2278 C 214.661 -1.65478 -4.69597 0
M  V30 2279 C 213.364 -3.72773 -6.15169 0
M  V30 2280 C 215.39 -2.69837 -5.26253 0
M  V30 2281 C 214.752 -3.72253 -5.98002 0
M  V30 2282 H 210.851 0.0228343 -0.781667 0
M  V30 2283 H 213.435 -0.556368 -1.86581 0
M  V30 2284 H 211.606 1.16709 -3.7045 0
M  V30 2285 H 213.338 1.03338 -3.91284 0
M  V30 2286 H 210.093 -0.842273 -4.6605 0
M  V30 2287 H 210.517 -3.07688 -6.0304 0
M  V30 2288 H 215.159 -0.876389 -4.13617 0
M  V30 2289 H 212.877 -4.51471 -6.70223 0
M  V30 2290 H 216.463 -2.72164 -5.14216 0
M  V30 2291 H 215.343 -4.51679 -6.41058 0
M  V30 2292 N 212.846 1.57033 -0.133567 0
M  V30 2293 C 214.095 1.94861 0.520768 0
M  V30 2294 C 214.408 1.02012 1.66892 0
M  V30 2295 O 215.614 1.29365 2.38699 0
M  V30 2296 C 214.07 3.46362 0.977809 0
M  V30 2297 C 213.678 4.47773 -0.142674 0
M  V30 2298 C 215.422 3.93083 1.60269 0
M  V30 2299 C 213.329 5.90468 0.331883 0
M  V30 2300 H 212.259 0.727453 0.198315 0
M  V30 2301 H 214.91 1.82227 -0.215759 0
M  V30 2302 H 213.292 3.54282 1.7692 0
M  V30 2303 H 214.466 4.51536 -0.919317 0
M  V30 2304 H 212.781 4.10891 -0.675124 0
M  V30 2305 H 215.378 4.97121 1.96914 0
M  V30 2306 H 215.721 3.33876 2.48662 0
M  V30 2307 H 216.254 3.88025 0.876453 0
M  V30 2308 H 212.993 6.53463 -0.516341 0
M  V30 2309 H 212.513 5.90094 1.07469 0
M  V30 2310 H 214.192 6.42179 0.788332 0
M  V30 2311 N 214.325 -0.140222 1.56975 0
M  V30 2312 C 215.255 -1.17456 2.01808 0
M  V30 2313 C 216.236 -1.44415 0.898794 0
M  V30 2314 O 217.421 -1.5522 1.16707 0
M  V30 2315 C 214.551 -2.50607 2.40444 0
M  V30 2316 C 213.505 -2.38155 3.55621 0
M  V30 2317 C 212.831 -3.76078 3.80091 0
M  V30 2318 C 214.131 -1.85991 4.88062 0
M  V30 2319 H 215.825 -0.801743 2.88466 0
M  V30 2320 H 213.371 -0.38422 1.38779 0
M  V30 2321 H 215.324 -3.23197 2.7041 0
M  V30 2322 H 214.048 -2.89737 1.50732 0
M  V30 2323 H 212.707 -1.68016 3.25832 0
M  V30 2324 H 212.355 -4.12656 2.87618 0
M  V30 2325 H 212.055 -3.68606 4.57606 0
M  V30 2326 H 213.579 -4.50206 4.12488 0
M  V30 2327 H 214.993 -2.4838 5.16701 0
M  V30 2328 H 213.39 -1.89393 5.6943 0
M  V30 2329 H 214.46 -0.816023 4.77984 0
M  V30 2330 N 215.803 -1.52179 -0.40978 0
M  V30 2331 C 217.08 -1.56769 -1.16974 0
M  V30 2332 C 217.46 -0.348322 -2.08206 0
M  V30 2333 O 216.808 0.664862 -2.18613 0
M  V30 2334 C 217.018 -2.89603 -1.9476 0
M  V30 2335 C 218.366 -3.42579 -2.50849 0
M  V30 2336 O 219.39 -2.91338 -2.04941 0
M  V30 2337 O 218.249 -4.32054 -3.34652 0
M  V30 2338 H 215.343 -0.631439 -0.534054 0
M  V30 2339 H 217.889 -1.64507 -0.416613 0
M  V30 2340 H 216.661 -3.698 -1.27921 0
M  V30 2341 H 216.284 -2.85155 -2.77079 0
M  V30 2342 N 217.281 0.66697 -1.42791 0
M  V30 2343 C 218.231 1.77313 -1.43332 0
M  V30 2344 C 219.215 1.5801 -0.303586 0
M  V30 2345 O 220.407 1.68356 -0.546385 0
M  V30 2346 C 217.536 3.15822 -1.34578 0
M  V30 2347 C 216.622 3.40721 -2.52528 0
M  V30 2348 N 217.013 3.36162 -3.77927 0
M  V30 2349 C 215.311 3.71387 -2.46956 0
M  V30 2350 C 216.012 3.60762 -4.56318 0
M  V30 2351 N 214.988 3.81908 -3.86843 0
M  V30 2352 H 218.79 1.72193 -2.38174 0
M  V30 2353 H 216.304 0.868114 -1.3725 0
M  V30 2354 H 218.301 3.951 -1.33048 0
M  V30 2355 H 216.961 3.22133 -0.407453 0
M  V30 2356 H 217.972 3.15885 -4.10411 0
M  V30 2357 H 214.649 3.84897 -1.61743 0
M  V30 2358 H 216.039 3.63132 -5.65318 0
M  V30 2359 N 218.759 1.29093 0.90403 0
M  V30 2360 C 220.005 1.16986 1.65656 0
M  V30 2361 C 220.338 -0.278925 1.92186 0
M  V30 2362 O 219.613 -1.2019 1.5292 0
M  V30 2363 C 219.896 1.97908 3.0084 0
M  V30 2364 C 219.749 3.50903 2.81403 0
M  V30 2365 C 221.068 1.80208 4.01513 0
M  V30 2366 H 218.187 0.426346 0.601164 0
M  V30 2367 H 220.829 1.58518 1.04747 0
M  V30 2368 H 218.979 1.62616 3.52829 0
M  V30 2369 H 220.651 3.96153 2.36348 0
M  V30 2370 H 218.894 3.76045 2.1627 0
M  V30 2371 H 219.565 4.02791 3.77443 0
M  V30 2372 H 222.041 2.11025 3.58619 0
M  V30 2373 H 220.917 2.39184 4.94047 0
M  V30 2374 H 221.178 0.756119 4.35586 0
M  V30 2375 N 220.237 -1.11381 1.11499 0
M  V30 2376 C 221.147 -2.21019 0.786628 0
M  V30 2377 C 222.163 -1.72597 -0.220507 0
M  V30 2378 O 223.339 -2.01321 -0.0565251 0
M  V30 2379 C 220.404 -3.459 0.235333 0
M  V30 2380 C 219.465 -4.09107 1.30115 0
M  V30 2381 C 218.698 -5.28027 0.776068 0
M  V30 2382 O 218.921 -5.6904 -0.393661 0
M  V30 2383 O 217.855 -5.81835 1.54114 0
M  V30 2384 H 221.681 -2.51521 1.70209 0
M  V30 2385 H 219.266 -1.19928 0.890928 0
M  V30 2386 H 221.148 -4.21346 -0.067715 0
M  V30 2387 H 219.823 -3.17049 -0.652828 0
M  V30 2388 H 218.73 -3.35391 1.65722 0
M  V30 2389 H 220.063 -4.42139 2.16273 0
M  V30 2390 N 221.715 -0.905404 -1.28997 0
M  V30 2391 C 222.963 -0.533192 -1.9494 0
M  V30 2392 C 223.284 0.924618 -1.71685 0
M  V30 2393 O 222.554 1.65268 -1.05183 0
M  V30 2394 H 221.134 -0.194194 -0.721317 0
M  V30 2395 H 223.796 -1.15294 -1.57141 0
M  V30 2396 H 222.892 -0.72059 -3.03667 0
M  V30 2397 N 223.193 1.4272 -0.668489 0
M  V30 2398 C 224.418 2.06484 -0.194758 0
M  V30 2399 C 224.843 1.49862 1.13679 0
M  V30 2400 O 224.201 0.614582 1.70565 0
M  V30 2401 C 224.249 3.60353 -0.133546 0
M  V30 2402 O 223.353 4.02464 0.899806 0
M  V30 2403 H 222.694 0.656137 -0.10188 0
M  V30 2404 H 225.224 1.82964 -0.915722 0
M  V30 2405 H 225.234 4.07976 0.0447041 0
M  V30 2406 H 223.909 4.00938 -1.1055 0
M  V30 2407 H 222.486 3.66402 0.693109 0
M  V30 2408 N 224.671 0.411399 1.52136 0
M  V30 2409 C 226.087 0.0623865 1.59478 0
M  V30 2410 C 226.287 -1.42554 1.4241 0
M  V30 2411 O 225.343 -2.19263 1.2522 0
M  V30 2412 C 226.656 0.559331 2.95452 0
M  V30 2413 C 228.204 0.517503 3.08692 0
M  V30 2414 C 228.679 0.990994 4.4715 0
M  V30 2415 N 230.17 0.947908 4.53397 0
M  V30 2416 C 230.905 1.28544 5.58806 0
M  V30 2417 N 230.401 1.69454 6.71757 0
M  V30 2418 N 232.194 1.20526 5.49026 0
M  V30 2419 H 224.345 1.37982 1.61477 0
M  V30 2420 H 226.608 0.566977 0.759764 0
M  V30 2421 H 226.314 1.59938 3.1323 0
M  V30 2422 H 226.188 -0.0298014 3.77188 0
M  V30 2423 H 228.575 -0.513505 2.90598 0
M  V30 2424 H 228.656 1.14272 2.28857 0
M  V30 2425 H 228.3 2.02034 4.65988 0
M  V30 2426 H 228.23 0.34257 5.25485 0
M  V30 2427 H 230.721 0.647157 3.72317 0
M  V30 2428 H 231.034 1.93513 7.48179 0
M  V30 2429 H 229.379 1.73359 6.73032 0
M  V30 2430 H 232.57 0.884505 4.59667 0
M  V30 2431 H 232.743 1.47161 6.31069 0
M  V30 2432 N 226.149 -1.5696 0.141893 0
M  V30 2433 C 227.059 -2.20066 -0.812905 0
M  V30 2434 C 228.075 -1.18344 -1.27557 0
M  V30 2435 O 229.251 -1.50902 -1.33381 0
M  V30 2436 C 226.316 -2.80583 -2.03652 0
M  V30 2437 C 225.377 -3.97414 -1.62359 0
M  V30 2438 C 224.61 -4.55036 -2.78887 0
M  V30 2439 O 224.833 -4.11538 -3.94959 0
M  V30 2440 O 223.767 -5.45376 -2.54653 0
M  V30 2441 H 227.593 -3.02157 -0.305746 0
M  V30 2442 H 225.178 -1.49159 -0.0848799 0
M  V30 2443 H 227.06 -3.19067 -2.75272 0
M  V30 2444 H 225.735 -2.01508 -2.5333 0
M  V30 2445 H 224.642 -3.63656 -0.877775 0
M  V30 2446 H 225.975 -4.77994 -1.17401 0
M  V30 2447 N 227.627 0.131896 -1.57047 0
M  V30 2448 C 229.043 0.485031 -1.52051 0
M  V30 2449 C 229.243 1.82563 -0.85281 0
M  V30 2450 O 228.299 2.48817 -0.429694 0
M  V30 2451 C 229.612 0.481409 -2.96821 0
M  V30 2452 C 231.16 0.565868 -3.07842 0
M  V30 2453 C 231.635 0.592762 -4.54148 0
M  V30 2454 N 233.126 0.654564 -4.58552 0
M  V30 2455 C 233.861 0.696608 -5.69153 0
M  V30 2456 N 233.357 0.697078 -6.89284 0
M  V30 2457 N 235.15 0.738639 -5.57226 0
M  V30 2458 H 227.301 -0.746664 -1.98843 0
M  V30 2459 H 229.564 -0.273999 -0.90754 0
M  V30 2460 H 229.27 -0.435731 -3.4899 0
M  V30 2461 H 229.144 1.3139 -3.53577 0
M  V30 2462 H 231.531 1.47343 -2.55684 0
M  V30 2463 H 231.612 -0.29406 -2.54104 0
M  V30 2464 H 231.256 -0.310701 -5.06949 0
M  V30 2465 H 231.186 1.46939 -5.05684 0
M  V30 2466 H 233.677 0.660887 -3.72076 0
M  V30 2467 H 233.99 0.731426 -7.69331 0
M  V30 2468 H 232.335 0.66471 -6.91814 0
M  V30 2469 H 235.526 0.735545 -4.62285 0
M  V30 2470 H 235.699 0.767938 -6.43434 0
M  V30 2471 N 229.106 1.52395 0.401703 0
M  V30 2472 C 230.069 1.75636 1.47257 0
M  V30 2473 C 231.069 0.62628 1.48103 0
M  V30 2474 O 232.259 0.894227 1.49497 0
M  V30 2475 C 229.391 1.84553 2.86624 0
M  V30 2476 H 230.584 2.71241 1.27938 0
M  V30 2477 H 228.137 1.42923 0.632662 0
M  V30 2478 H 228.872 0.908882 3.11303 0
M  V30 2479 H 228.657 2.66715 2.87412 0
M  V30 2480 H 230.147 2.04251 3.64241 0
M  V30 2481 N 230.584 -0.659388 1.43143 0
M  V30 2482 C 232 -0.974337 1.26407 0
M  V30 2483 C 232.2 -2.007 0.179341 0
M  V30 2484 O 231.256 -2.4856 -0.444295 0
M  V30 2485 C 232.569 -1.46447 2.62628 0
M  V30 2486 C 234.117 -1.58144 2.7011 0
M  V30 2487 C 234.592 -2.1055 4.06734 0
M  V30 2488 N 236.083 -2.17861 4.08767 0
M  V30 2489 C 236.818 -2.59519 5.1131 0
M  V30 2490 N 236.314 -3.00518 6.24228 0
M  V30 2491 N 238.107 -2.59404 4.98664 0
M  V30 2492 H 230.258 0.0240528 2.12386 0
M  V30 2493 H 232.521 -0.0518065 0.946583 0
M  V30 2494 H 232.227 -0.780123 3.42939 0
M  V30 2495 H 232.101 -2.44058 2.87603 0
M  V30 2496 H 234.488 -2.25682 1.90136 0
M  V30 2497 H 234.569 -0.589828 2.48907 0
M  V30 2498 H 234.213 -1.43616 4.87172 0
M  V30 2499 H 234.143 -3.10531 4.25298 0
M  V30 2500 H 236.634 -1.88975 3.27257 0
M  V30 2501 H 236.947 -3.31036 6.98309 0
M  V30 2502 H 235.292 -2.98337 6.2771 0
M  V30 2503 H 238.483 -2.26747 4.09516 0
M  V30 2504 H 238.656 -2.91548 5.78709 0
M  V30 2505 N 232.062 -1.29571 -0.897171 0
M  V30 2506 C 233.478 -1.07637 -1.17841 0
M  V30 2507 C 233.678 0.170713 -2.00776 0
M  V30 2508 O 232.734 0.867768 -2.3712 0
M  V30 2509 C 234.047 -2.3332 -1.8969 0
M  V30 2510 C 235.595 -2.38664 -2.02505 0
M  V30 2511 C 236.07 -3.64157 -2.77765 0
M  V30 2512 N 237.561 -3.64894 -2.85318 0
M  V30 2513 C 238.296 -4.58679 -3.44094 0
M  V30 2514 N 237.792 -5.62799 -4.04017 0
M  V30 2515 N 239.585 -4.46245 -3.41793 0
M  V30 2516 H 231.736 -2.09598 -0.343883 0
M  V30 2517 H 233.999 -0.923333 -0.214848 0
M  V30 2518 H 233.705 -3.24262 -1.36187 0
M  V30 2519 H 233.579 -2.41025 -2.9015 0
M  V30 2520 H 235.966 -1.48208 -2.55183 0
M  V30 2521 H 236.047 -2.34943 -1.01171 0
M  V30 2522 H 235.691 -4.54965 -2.25763 0
M  V30 2523 H 235.621 -3.65137 -3.7945 0
M  V30 2524 H 238.112 -2.89613 -2.42761 0
M  V30 2525 H 238.425 -6.3048 -4.46895 0
M  V30 2526 H 236.77 -5.66605 -4.02472 0
M  V30 2527 H 239.961 -3.64094 -2.94199 0
M  V30 2528 H 240.134 -5.19518 -3.87304 0
M  V30 2529 N 233.54 1.10788 -1.12088 0
M  V30 2530 C 234.788 1.8231 -0.872205 0
M  V30 2531 C 235.109 1.85419 0.603709 0
M  V30 2532 O 234.379 1.32963 1.43867 0
M  V30 2533 H 232.959 0.675137 -0.319686 0
M  V30 2534 H 235.621 1.34068 -1.41463 0
M  V30 2535 H 234.717 2.85955 -1.25045 0
M  V30 2536 N 235.018 0.912232 1.28515 0
M  V30 2537 C 235.928 0.404506 2.31086 0
M  V30 2538 C 236.944 -0.50707 1.66448 0
M  V30 2539 O 238.12 -0.393624 1.97516 0
M  V30 2540 C 235.185 -0.348572 3.44943 0
M  V30 2541 C 234.246 0.59604 4.25142 0
M  V30 2542 C 233.479 -0.121194 5.33562 0
M  V30 2543 O 233.702 -1.34317 5.5436 0
M  V30 2544 O 232.636 0.542716 5.99448 0
M  V30 2545 H 236.462 1.25579 2.76521 0
M  V30 2546 H 234.047 0.676998 1.33181 0
M  V30 2547 H 235.929 -0.77395 4.14232 0
M  V30 2548 H 234.604 -1.17571 3.01594 0
M  V30 2549 H 233.511 1.07079 3.58448 0
M  V30 2550 H 234.844 1.38995 4.72167 0
M  V30 2551 N 236.496 -1.42363 0.676048 0
M  V30 2552 C 237.426 -2.33497 0.0124832 0
M  V30 2553 C 238.407 -1.50748 -0.787981 0
M  V30 2554 O 239.592 -1.79346 -0.744884 0
M  V30 2555 C 236.722 -3.34377 -0.938582 0
M  V30 2556 C 235.676 -4.27289 -0.246622 0
M  V30 2557 C 235.002 -5.18386 -1.31071 0
M  V30 2558 C 236.302 -5.14916 0.875125 0
M  V30 2559 H 237.996 -2.89233 0.773593 0
M  V30 2560 H 235.542 -1.39073 0.37346 0
M  V30 2561 H 237.495 -3.97044 -1.41188 0
M  V30 2562 H 236.219 -2.76947 -1.73113 0
M  V30 2563 H 234.878 -3.66018 0.206456 0
M  V30 2564 H 234.526 -4.57282 -2.09528 0
M  V30 2565 H 234.226 -5.81378 -0.852839 0
M  V30 2566 H 235.75 -5.83929 -1.78492 0
M  V30 2567 H 237.164 -5.71262 0.482983 0
M  V30 2568 H 235.561 -5.86747 1.25887 0
M  V30 2569 H 236.631 -4.53242 1.72335 0
M  V30 2570 N 237.974 -0.419461 -1.51915 0
M  V30 2571 C 238.904 0.391813 -2.30189 0
M  V30 2572 C 239.885 1.03699 -1.34836 0
M  V30 2573 O 241.07 1.04403 -1.63748 0
M  V30 2574 C 238.2 1.50312 -3.13087 0
M  V30 2575 C 237.154 0.9824 -4.16573 0
M  V30 2576 C 236.48 2.18809 -4.8788 0
M  V30 2577 C 237.78 0.0292356 -5.22292 0
M  V30 2578 H 239.474 -0.26135 -2.98257 0
M  V30 2579 H 237.02 -0.127134 -1.43438 0
M  V30 2580 H 238.973 2.07773 -3.66617 0
M  V30 2581 H 237.697 2.18431 -2.42807 0
M  V30 2582 H 236.356 0.430119 -3.64068 0
M  V30 2583 H 236.004 2.85507 -4.14119 0
M  V30 2584 H 235.704 1.84615 -5.57845 0
M  V30 2585 H 237.228 2.76858 -5.44226 0
M  V30 2586 H 238.642 0.512976 -5.71 0
M  V30 2587 H 237.039 -0.2244 -5.9968 0
M  V30 2588 H 238.109 -0.912931 -4.76228 0
M  V30 2589 N 239.452 1.56882 -0.150215 0
M  V30 2590 C 240.699 1.96228 0.500093 0
M  V30 2591 C 241.027 1.03522 1.64661 0
M  V30 2592 O 240.282 0.0650683 1.95592 0
M  V30 2593 C 240.581 3.41801 1.04437 0
M  V30 2594 C 240.247 4.50897 0.0159671 0
M  V30 2595 C 238.909 4.8046 -0.266731 0
M  V30 2596 C 241.261 5.16703 -0.683192 0
M  V30 2597 C 238.589 5.73135 -1.25434 0
M  V30 2598 C 240.941 6.10441 -1.65964 0
M  V30 2599 C 239.605 6.38382 -1.95 0
M  V30 2600 H 238.875 0.718048 0.182997 0
M  V30 2601 H 241.522 1.90019 -0.237724 0
M  V30 2602 H 239.827 3.44857 1.85959 0
M  V30 2603 H 241.524 3.69573 1.55618 0
M  V30 2604 H 238.114 4.27891 0.246485 0
M  V30 2605 H 242.298 4.93993 -0.477983 0
M  V30 2606 H 237.554 5.93074 -1.48571 0
M  V30 2607 H 241.728 6.60507 -2.20689 0
M  V30 2608 H 239.355 7.09996 -2.71679 0
M  V30 2609 N 240.93 -0.123565 1.57115 0
M  V30 2610 C 242.178 -0.83051 1.84247 0
M  V30 2611 C 242.499 -1.80629 0.73471 0
M  V30 2612 O 241.769 -1.94403 -0.241688 0
M  V30 2613 H 240.349 -0.309694 0.679778 0
M  V30 2614 H 243.011 -0.111976 1.94578 0
M  V30 2615 H 242.107 -1.37852 2.80006 0
M  V30 2616 N 242.408 -1.52605 -0.393616 0
M  V30 2617 C 243.636 -1.71294 -1.16043 0
M  V30 2618 C 244.051 -0.429259 -1.83855 0
M  V30 2619 O 243.408 0.595921 -1.72496 0
M  V30 2620 C 243.459 -2.8593 -2.21193 0
M  V30 2621 O 243.18 -4.09329 -1.56146 0
M  V30 2622 C 244.681 -3.16259 -3.10636 0
M  V30 2623 H 241.901 -0.573641 -0.348104 0
M  V30 2624 H 244.445 -1.99234 -0.461092 0
M  V30 2625 H 242.6 -2.60465 -2.86769 0
M  V30 2626 H 243.014 -4.73323 -2.25978 0
M  V30 2627 H 244.488 -3.99946 -3.80456 0
M  V30 2628 H 244.965 -2.3045 -3.73884 0
M  V30 2629 H 245.571 -3.43547 -2.50711 0
M  V30 2630 N 243.887 0.651787 -1.4349 0
M  V30 2631 C 245.133 1.41376 -1.45398 0
M  V30 2632 C 245.466 1.94041 -0.0784823 0
M  V30 2633 O 244.741 1.72379 0.900878 0
M  V30 2634 C 245.024 2.59414 -2.49752 0
M  V30 2635 C 244.877 2.12232 -3.96582 0
M  V30 2636 C 246.196 3.61626 -2.50827 0
M  V30 2637 H 243.315 0.512719 -0.529422 0
M  V30 2638 H 245.957 0.738796 -1.75048 0
M  V30 2639 H 244.107 3.16997 -2.246 0
M  V30 2640 H 245.779 1.59639 -4.32797 0
M  V30 2641 H 244.022 1.43592 -4.09346 0
M  V30 2642 H 244.693 2.9712 -4.65214 0
M  V30 2643 H 247.169 3.13805 -2.7325 0
M  V30 2644 H 246.045 4.41766 -3.25783 0
M  V30 2645 H 246.306 4.14314 -1.5426 0
M  V30 2646 N 245.365 1.30045 0.890287 0
M  V30 2647 C 246.642 1.09227 1.62262 0
M  V30 2648 C 247.022 -0.360305 2.08002 0
M  V30 2649 O 246.37 -1.35084 1.84295 0
M  V30 2650 C 246.58 2.08835 2.79623 0
M  V30 2651 C 247.928 2.40266 3.50082 0
M  V30 2652 O 248.952 2.07104 2.89804 0
M  V30 2653 O 247.811 2.96967 4.58773 0
M  V30 2654 H 244.905 0.419132 0.712922 0
M  V30 2655 H 247.451 1.41451 0.937529 0
M  V30 2656 H 246.223 3.06633 2.43089 0
M  V30 2657 H 245.846 1.77397 3.55832 0
M  V30 2658 N 246.843 -1.10192 1.12674 0
M  V30 2659 C 248.071 -1.85983 0.906527 0
M  V30 2660 C 248.486 -1.80783 -0.544333 0
M  V30 2661 O 247.843 -1.19834 -1.37645 0
M  V30 2662 C 247.894 -3.34281 1.37618 0
M  V30 2663 O 247.615 -3.39401 2.77017 0
M  V30 2664 C 249.116 -4.26938 1.19325 0
M  V30 2665 H 246.336 -0.587716 0.323775 0
M  V30 2666 H 248.88 -1.39284 1.49734 0
M  V30 2667 H 247.035 -3.78436 0.828539 0
M  V30 2668 H 247.449 -4.31838 2.97684 0
M  V30 2669 H 248.923 -5.29181 1.57071 0
M  V30 2670 H 249.4 -4.38995 0.134097 0
M  V30 2671 H 250.006 -3.8859 1.72852 0
M  V30 2672 N 248.321 -0.919034 -1.28029 0
M  V30 2673 C 249.567 -0.565221 -1.95389 0
M  V30 2674 C 249.922 0.882325 -1.70976 0
M  V30 2675 O 249.215 1.61988 -1.02325 0
M  V30 2676 C 249.409 -0.816855 -3.4794 0
M  V30 2677 C 249.238 -2.28731 -3.87185 0
M  V30 2678 C 248.008 -2.93841 -4.11079 0
M  V30 2679 C 250.206 -3.26415 -3.97439 0
M  V30 2680 N 248.188 -4.31129 -4.37037 0
M  V30 2681 C 249.559 -4.48884 -4.27672 0
M  V30 2682 C 251.614 -3.21742 -3.79982 0
M  V30 2683 C 250.317 -5.67268 -4.42266 0
M  V30 2684 C 252.343 -4.39431 -3.95796 0
M  V30 2685 C 251.705 -5.60675 -4.26407 0
M  V30 2686 H 247.804 -0.256797 -0.738633 0
M  V30 2687 H 250.388 -1.18386 -1.54573 0
M  V30 2688 H 248.559 -0.227445 -3.87733 0
M  V30 2689 H 250.291 -0.426542 -4.02446 0
M  V30 2690 H 247.046 -2.44547 -4.05578 0
M  V30 2691 H 247.47 -5.02127 -4.5409 0
M  V30 2692 H 252.112 -2.29079 -3.55363 0
M  V30 2693 H 249.83 -6.60406 -4.65714 0
M  V30 2694 H 253.416 -4.37323 -3.83719 0
M  V30 2695 H 252.296 -6.50223 -4.38383 0
M  V30 2696 N 249.799 1.42003 -0.683588 0
M  V30 2697 C 250.729 2.33487 -0.024866 0
M  V30 2698 C 251.71 1.51163 0.779975 0
M  V30 2699 O 252.895 1.79739 0.735362 0
M  V30 2700 C 250.025 3.3487 0.920836 0
M  V30 2701 C 248.979 4.27414 0.223958 0
M  V30 2702 C 248.305 5.19074 1.2832 0
M  V30 2703 C 249.605 5.14445 -0.90242 0
M  V30 2704 H 251.299 2.88819 -0.788921 0
M  V30 2705 H 248.845 1.38873 -0.38083 0
M  V30 2706 H 250.798 3.97787 1.39081 0
M  V30 2707 H 249.522 2.77861 1.71642 0
M  V30 2708 H 248.181 3.65904 -0.225864 0
M  V30 2709 H 247.829 4.58387 2.071 0
M  V30 2710 H 247.529 5.81822 0.821995 0
M  V30 2711 H 249.053 5.84867 1.75392 0
M  V30 2712 H 250.467 5.70998 -0.513272 0
M  V30 2713 H 248.864 5.86072 -1.28997 0
M  V30 2714 H 249.934 4.52322 -1.74737 0
M  V30 2715 N 251.277 0.427512 1.51691 0
M  V30 2716 C 252.526 -0.143679 2.01188 0
M  V30 2717 C 252.839 -1.44642 1.31674 0
M  V30 2718 O 254.045 -2.09997 1.72086 0
M  V30 2719 C 252.501 -0.306602 3.58592 0
M  V30 2720 C 252.109 0.985125 4.37035 0
M  V30 2721 C 253.853 -0.832091 4.16265 0
M  V30 2722 C 251.76 0.788382 5.86122 0
M  V30 2723 H 250.69 -0.0574701 0.751807 0
M  V30 2724 H 253.341 0.555772 1.74881 0
M  V30 2725 H 251.723 -1.06882 3.81303 0
M  V30 2726 H 252.897 1.75492 4.26074 0
M  V30 2727 H 251.212 1.4384 3.90767 0
M  V30 2728 H 253.809 -0.995617 5.25349 0
M  V30 2729 H 254.152 -1.81186 3.74803 0
M  V30 2730 H 254.685 -0.128444 3.97593 0
M  V30 2731 H 251.424 1.74025 6.31978 0
M  V30 2732 H 250.944 0.0582143 5.99772 0
M  V30 2733 H 252.623 0.437722 6.45518 0
M  V30 2734 N 252.755 -1.56801 0.158532 0
M  V30 2735 C 254.001 -1.97559 -0.483957 0
M  V30 2736 C 254.356 -1.04239 -1.61716 0
M  V30 2737 O 253.649 -0.079603 -1.91435 0
M  V30 2738 C 253.843 -3.4235 -1.02623 0
M  V30 2739 C 253.672 -4.49669 0.0528929 0
M  V30 2740 C 252.442 -5.02838 0.498234 0
M  V30 2741 C 254.64 -5.0725 0.848616 0
M  V30 2742 N 252.622 -5.93775 1.559 0
M  V30 2743 C 253.993 -5.94506 1.7596 0
M  V30 2744 C 256.048 -4.89788 0.895121 0
M  V30 2745 C 254.751 -6.66169 2.71314 0
M  V30 2746 C 256.777 -5.62161 1.83654 0
M  V30 2747 C 256.139 -6.49134 2.73503 0
M  V30 2748 H 252.238 -0.768332 -0.145566 0
M  V30 2749 H 254.822 -1.93012 0.255799 0
M  V30 2750 H 252.993 -3.47467 -1.73555 0
M  V30 2751 H 254.725 -3.70145 -1.63629 0
M  V30 2752 H 251.48 -4.73498 0.0983222 0
M  V30 2753 H 251.904 -6.43948 2.08949 0
M  V30 2754 H 256.546 -4.22255 0.21453 0
M  V30 2755 H 254.264 -7.32923 3.40367 0
M  V30 2756 H 257.85 -5.5064 1.87847 0
M  V30 2757 H 256.73 -7.04153 3.45163 0
M  V30 2758 N 254.233 0.115231 -1.57178 0
M  V30 2759 C 255.18 1.14115 -2.00615 0
M  V30 2760 C 256.15 1.40939 -0.878941 0
M  V30 2761 O 257.335 1.52741 -1.14345 0
M  V30 2762 C 254.475 2.46156 -2.4187 0
M  V30 2763 C 253.588 2.26236 -3.68024 0
M  V30 2764 C 252.723 3.51534 -3.98243 0
M  V30 2765 C 251.762 3.26787 -5.17568 0
M  V30 2766 N 250.899 4.44298 -5.43639 0
M  V30 2767 H 255.739 0.763743 -2.88047 0
M  V30 2768 H 253.276 0.365615 -1.42484 0
M  V30 2769 H 255.234 3.23189 -2.63827 0
M  V30 2770 H 253.864 2.81783 -1.57475 0
M  V30 2771 H 252.916 1.40102 -3.5366 0
M  V30 2772 H 254.228 2.03929 -4.55208 0
M  V30 2773 H 253.382 4.36984 -4.20868 0
M  V30 2774 H 252.121 3.76876 -3.09541 0
M  V30 2775 H 251.126 2.39729 -4.94783 0
M  V30 2776 H 252.351 3.02812 -6.0785 0
M  V30 2777 H 250.297 4.69754 -4.57895 0
M  V30 2778 H 250.214 4.25109 -6.25154 0
M  V30 2779 H 251.482 5.3087 -5.70786 0
M  V30 2780 N 255.711 1.52812 0.385517 0
M  V30 2781 C 256.644 1.72592 1.49289 0
M  V30 2782 C 257.622 0.573819 1.52138 0
M  V30 2783 O 258.806 0.80404 1.70492 0
M  V30 2784 C 255.933 1.78669 2.87741 0
M  V30 2785 C 254.979 3.00455 3.02703 0
M  V30 2786 S 255.812 4.60366 2.73538 0
M  V30 2787 C 256.968 4.69263 4.14177 0
M  V30 2788 H 257.201 2.66248 1.32285 0
M  V30 2789 H 254.734 1.43148 0.578611 0
M  V30 2790 H 256.692 1.82855 3.67524 0
M  V30 2791 H 255.353 0.861 3.02069 0
M  V30 2792 H 254.546 3.01258 4.04054 0
M  V30 2793 H 254.148 2.94278 2.30817 0
M  V30 2794 H 256.44 4.48092 5.08153 0
M  V30 2795 H 257.383 5.71276 4.18388 0
M  V30 2796 H 257.791 3.98072 4.00249 0
M  V30 2797 N 257.189 -0.644168 1.43834 0
M  V30 2798 C 258.417 -1.43147 1.49387 0
M  V30 2799 C 258.832 -1.88452 0.114583 0
M  V30 2800 O 258.189 -1.60047 -0.876989 0
M  V30 2801 C 258.24 -2.66046 2.44748 0
M  V30 2802 O 257.961 -2.22633 3.77314 0
M  V30 2803 C 259.462 -3.59311 2.59635 0
M  V30 2804 H 256.682 -0.439447 0.507077 0
M  V30 2805 H 259.226 -0.78895 1.88669 0
M  V30 2806 H 257.381 -3.26418 2.08638 0
M  V30 2807 H 257.795 -3.02216 4.28679 0
M  V30 2808 H 259.269 -4.42187 3.30416 0
M  V30 2809 H 259.746 -4.07259 1.64427 0
M  V30 2810 H 260.352 -3.04816 2.96593 0
M  V30 2811 N 258.668 -1.30515 -0.883378 0
M  V30 2812 C 259.6 -1.12846 -1.99496 0
M  V30 2813 C 260.613 -0.0712571 -1.62644 0
M  V30 2814 O 261.802 -0.317432 -1.75655 0
M  V30 2815 C 258.902 -0.699123 -3.3161 0
M  V30 2816 C 258.075 -1.83842 -3.96889 0
M  V30 2817 C 257.134 -1.39737 -5.07307 0
M  V30 2818 O 256.16 -2.10485 -5.28852 0
M  V30 2819 N 257.362 -0.277279 -5.79837 0
M  V30 2820 H 260.127 -2.08585 -2.15203 0
M  V30 2821 H 257.688 -1.22672 -1.05656 0
M  V30 2822 H 259.68 -0.387044 -4.02845 0
M  V30 2823 H 258.25 0.166276 -3.12157 0
M  V30 2824 H 257.47 -2.31853 -3.18807 0
M  V30 2825 H 258.758 -2.60187 -4.37241 0
M  V30 2826 H 258.156 0.3122 -5.64838 0
M  V30 2827 H 256.713 -0.0246623 -6.51795 0
M  V30 2828 N 260.146 1.09593 -1.13257 0
M  V30 2829 C 261.394 1.81375 -0.891492 0
M  V30 2830 C 261.715 1.86049 0.584009 0
M  V30 2831 O 260.985 1.34481 1.42449 0
M  V30 2832 H 259.565 0.671708 -0.326828 0
M  V30 2833 H 262.227 1.3256 -1.42877 0
M  V30 2834 H 261.323 2.84612 -1.28071 0
M  V30 2835 N 261.624 0.925811 1.2754 0
M  V30 2836 C 263.04 0.625767 1.46821 0
M  V30 2837 C 263.24 -0.825506 1.83814 0
M  V30 2838 O 262.296 -1.60356 1.95044 0
M  V30 2839 C 263.609 1.57402 2.56213 0
M  V30 2840 C 265.157 1.58204 2.70075 0
M  V30 2841 C 265.632 2.51721 3.82623 0
M  V30 2842 N 267.123 2.49917 3.89994 0
M  V30 2843 C 267.858 3.18968 4.76494 0
M  V30 2844 N 267.354 3.97391 5.67496 0
M  V30 2845 N 269.147 3.07996 4.70208 0
M  V30 2846 H 261.298 1.86409 1.01811 0
M  V30 2847 H 263.561 0.800213 0.508295 0
M  V30 2848 H 263.267 2.60925 2.35819 0
M  V30 2849 H 263.141 1.31428 3.53563 0
M  V30 2850 H 265.528 0.554124 2.89851 0
M  V30 2851 H 265.609 1.88226 1.73218 0
M  V30 2852 H 265.253 3.54622 3.63601 0
M  V30 2853 H 265.183 2.18996 4.78903 0
M  V30 2854 H 267.674 1.9296 3.24923 0
M  V30 2855 H 267.987 4.4707 6.30356 0
M  V30 2856 H 266.332 4.01495 5.67298 0
M  V30 2857 H 269.523 2.46223 3.9811 0
M  V30 2858 H 269.696 3.6208 5.37403 0
M  V30 2859 N 263.102 -1.41638 0.69111 0
M  V30 2860 C 264.348 -2.01598 0.220519 0
M  V30 2861 C 264.681 -1.54594 -1.17535 0
M  V30 2862 O 263.956 -0.755177 -1.79241 0
M  V30 2863 C 264.239 -3.59062 0.273243 0
M  V30 2864 C 264.092 -4.16203 1.70573 0
M  V30 2865 C 265.411 -4.38546 -0.369457 0
M  V30 2866 H 262.53 -0.732468 0.0816045 0
M  V30 2867 H 265.172 -1.68445 0.878986 0
M  V30 2868 H 263.322 -3.87435 -0.287411 0
M  V30 2869 H 264.994 -3.98722 2.31989 0
M  V30 2870 H 263.237 -3.71414 2.2413 0
M  V30 2871 H 263.908 -5.25358 1.69419 0
M  V30 2872 H 266.384 -4.1596 0.107977 0
M  V30 2873 H 265.26 -5.48069 -0.302002 0
M  V30 2874 H 265.521 -4.17662 -1.44951 0
M  V30 2875 N 264.58 -0.43555 -1.51462 0
M  V30 2876 C 265.53 0.394701 -2.24558 0
M  V30 2877 C 266.514 0.99157 -1.26715 0
M  V30 2878 O 267.706 0.910007 -1.51815 0
M  V30 2879 C 264.835 1.4963 -3.08975 0
M  V30 2880 C 263.921 0.908912 -4.14246 0
M  V30 2881 N 264.312 0.0505335 -5.05775 0
M  V30 2882 C 262.61 1.17668 -4.30198 0
M  V30 2883 C 263.311 -0.279161 -5.8103 0
M  V30 2884 N 262.287 0.336767 -5.42556 0
M  V30 2885 H 266.089 -0.267106 -2.92684 0
M  V30 2886 H 263.603 -0.247518 -1.60503 0
M  V30 2887 H 265.6 2.10394 -3.59917 0
M  V30 2888 H 264.26 2.16046 -2.42393 0
M  V30 2889 H 265.271 -0.31577 -5.16936 0
M  V30 2890 H 261.948 1.83847 -3.74842 0
M  V30 2891 H 263.338 -0.977553 -6.64751 0
M  V30 2892 N 266.058 1.56714 -0.166846 0
M  V30 2893 C 267.304 1.97039 0.479962 0
M  V30 2894 C 267.637 1.05264 1.63197 0
M  V30 2895 O 266.912 0.0988833 1.94248 0
M  V30 2896 C 267.195 3.46867 0.967212 0
M  V30 2897 C 267.048 4.49421 -0.18466 0
M  V30 2898 C 268.367 3.9968 1.84238 0
M  V30 2899 H 265.486 0.71641 0.172992 0
M  V30 2900 H 268.128 1.8832 -0.252079 0
M  V30 2901 H 266.278 3.54428 1.59101 0
M  V30 2902 H 267.95 4.53924 -0.821621 0
M  V30 2903 H 266.193 4.25573 -0.840837 0
M  V30 2904 H 266.864 5.51644 0.198317 0
M  V30 2905 H 269.34 3.94723 1.31655 0
M  V30 2906 H 268.216 5.04941 2.15234 0
M  V30 2907 H 268.477 3.43226 2.78654 0
M  V30 2908 N 267.536 -0.106894 1.57237 0
M  V30 2909 C 268.764 -0.826389 1.8968 0
M  V30 2910 C 269.179 -1.72856 0.759353 0
M  V30 2911 O 268.536 -1.80503 -0.269263 0
M  V30 2912 C 268.587 -1.64967 3.21665 0
M  V30 2913 O 268.308 -0.783804 4.31031 0
M  V30 2914 C 269.809 -2.47326 3.67892 0
M  V30 2915 H 267.029 -0.236927 0.627779 0
M  V30 2916 H 269.573 -0.0876593 2.04312 0
M  V30 2917 H 267.728 -2.34103 3.08666 0
M  V30 2918 H 268.142 -1.35284 5.06753 0
M  V30 2919 H 269.616 -3.00604 4.6297 0
M  V30 2920 H 270.093 -3.25247 2.95146 0
M  V30 2921 H 270.699 -1.83411 3.83719 0
M  V30 2922 N 269.014 -1.53014 -0.377408 0
M  V30 2923 C 270.291 -1.59215 -1.13622 0
M  V30 2924 C 270.671 -0.392407 -2.07421 0
M  V30 2925 O 270.019 0.618342 -2.19975 0
M  V30 2926 C 270.229 -2.93669 -1.88573 0
M  V30 2927 C 271.577 -3.47822 -2.43526 0
M  V30 2928 O 272.601 -2.9562 -1.98715 0
M  V30 2929 O 271.46 -4.39055 -3.25412 0
M  V30 2930 H 268.554 -0.642625 -0.52054 0
M  V30 2931 H 271.1 -1.65353 -0.381625 0
M  V30 2932 H 269.872 -3.7243 -1.20048 0
M  V30 2933 H 269.495 -2.90968 -2.70968 0
M  V30 2934 N 270.492 0.636531 -1.44174 0
M  V30 2935 C 271.722 1.42146 -1.49927 0
M  V30 2936 C 272.13 1.88812 -0.121063 0
M  V30 2937 O 271.473 1.61126 0.882267 0
M  V30 2938 C 271.535 2.67883 -2.39748 0
M  V30 2939 C 271.199 2.43048 -3.8701 0
M  V30 2940 C 272.196 2.05216 -4.77684 0
M  V30 2941 C 269.881 2.56856 -4.3166 0
M  V30 2942 C 271.875 1.81512 -6.11009 0
M  V30 2943 C 269.562 2.32766 -5.65034 0
M  V30 2944 C 270.56 1.95152 -6.54526 0
M  V30 2945 O 270.248 1.71326 -7.85431 0
M  V30 2946 H 269.98 0.442567 -0.51099 0
M  V30 2947 H 272.534 0.786158 -1.8976 0
M  V30 2948 H 270.764 3.34032 -1.94832 0
M  V30 2949 H 272.453 3.29874 -2.36513 0
M  V30 2950 H 273.219 1.94111 -4.44462 0
M  V30 2951 H 269.098 2.85104 -3.62266 0
M  V30 2952 H 272.642 1.52077 -6.80822 0
M  V30 2953 H 268.539 2.43479 -5.97819 0
M  V30 2954 H 269.307 1.85616 -7.97176 0
M  V30 2955 N 271.97 1.30982 0.876444 0
M  V30 2956 C 273.198 1.23242 1.6619 0
M  V30 2957 C 273.613 -0.203345 1.87702 0
M  V30 2958 O 272.97 -1.13317 1.43057 0
M  V30 2959 C 273.021 1.96623 3.03351 0
M  V30 2960 O 272.742 3.34594 2.82804 0
M  V30 2961 C 274.243 1.95644 3.97792 0
M  V30 2962 H 271.463 0.426126 0.518322 0
M  V30 2963 H 274.007 1.7275 1.09442 0
M  V30 2964 H 272.162 1.50892 3.56806 0
M  V30 2965 H 272.576 3.71873 3.69879 0
M  V30 2966 H 274.05 2.51511 4.91372 0
M  V30 2967 H 274.527 0.937395 4.2908 0
M  V30 2968 H 275.133 2.41225 3.50272 0
M  V30 2969 N 273.449 -1.08991 1.13837 0
M  V30 2970 C 274.397 -2.17841 0.815347 0
M  V30 2971 C 275.391 -1.68164 -0.204233 0
M  V30 2972 O 276.597 -1.79897 -0.0609304 0
M  V30 2973 H 272.972 -0.710654 0.245915 0
M  V30 2974 H 274.943 -2.42315 1.74143 0
M  V30 2975 C 273.692 -3.46381 0.302614 0
M  V30 2976 H 273.015 -3.84979 1.0785 0
M  V30 2977 H 274.455 -4.23844 0.115074 0
M  V30 2978 C 272.914 -3.22556 -0.972591 0
M  V30 2979 O 273.444 -3.45599 -2.04754 0
M  V30 2980 N 271.65 -2.76134 -0.905455 0
M  V30 2981 H 271.197 -2.57582 -0.0305421 0
M  V30 2982 H 271.155 -2.60571 -1.75926 0
M  V30 2983 N 274.927 -0.932562 -1.27047 0
M  V30 2984 C 275.89 -0.440064 -2.24936 0
M  V30 2985 C 276.89 0.444071 -1.54547 0
M  V30 2986 O 278.08 0.244465 -1.72476 0
M  V30 2987 C 275.212 0.36678 -3.38921 0
M  V30 2988 H 276.405 -1.305 -2.70018 0
M  V30 2989 H 273.958 -0.713707 -1.39054 0
M  V30 2990 H 274.693 1.25033 -2.99228 0
M  V30 2991 H 274.478 -0.267204 -3.91188 0
M  V30 2992 H 275.968 0.701567 -4.11665 0
M  V30 2993 N 276.405 1.4127 -0.698611 0
M  V30 2994 C 277.63 2.06024 -0.238512 0
M  V30 2995 C 278.055 1.5224 1.10475 0
M  V30 2996 O 277.413 0.650623 1.69223 0
M  V30 2997 C 277.461 3.59988 -0.209952 0
M  V30 2998 O 276.565 4.04282 0.814235 0
M  V30 2999 H 275.906 0.653829 -0.115775 0
M  V30 3000 H 278.436 1.8098 -0.954326 0
M  V30 3001 H 278.446 4.07979 -0.0418436 0
M  V30 3002 H 277.121 3.98503 -1.1903 0
M  V30 3003 H 275.698 3.6779 0.615234 0
M  V30 3004 N 277.883 0.443576 1.51229 0
M  V30 3005 C 279.299 0.0962001 1.5931 0
M  V30 3006 C 279.499 -1.39501 1.45402 0
M  V30 3007 O 278.555 -2.16557 1.29843 0
M  V30 3008 C 279.868 0.621875 2.94199 0
M  V30 3009 C 281.416 0.582865 3.07525 0
M  V30 3010 C 281.891 1.08562 4.44948 0
M  V30 3011 N 283.382 1.04387 4.51284 0
M  V30 3012 C 284.117 1.40368 5.55954 0
M  V30 3013 N 283.613 1.83664 6.68011 0
M  V30 3014 N 285.406 1.32145 5.46346 0
M  V30 3015 H 277.557 1.41376 1.58514 0
M  V30 3016 H 279.82 0.582965 0.747567 0
M  V30 3017 H 279.526 1.66546 3.09767 0
M  V30 3018 H 279.4 0.0502125 3.77167 0
M  V30 3019 H 281.787 -0.451749 2.91622 0
M  V30 3020 H 281.868 1.191 2.26382 0
M  V30 3021 H 281.512 2.11873 4.61598 0
M  V30 3022 H 281.442 0.453956 5.2464 0
M  V30 3023 H 283.933 0.725986 3.70861 0
M  V30 3024 H 284.246 2.0934 7.43906 0
M  V30 3025 H 282.591 1.87596 6.69203 0
M  V30 3026 H 285.782 0.981808 4.57688 0
M  V30 3027 H 285.955 1.60514 6.27805 0
M  V30 3028 N 279.361 -1.56624 0.175154 0
M  V30 3029 C 280.589 -2.01374 -0.474971 0
M  V30 3030 C 281.004 -1.05537 -1.56548 0
M  V30 3031 O 280.361 -0.0568668 -1.82411 0
M  V30 3032 C 280.412 -3.45923 -1.04975 0
M  V30 3033 O 280.133 -4.381 -0.00276605 0
M  V30 3034 C 281.634 -4.06093 -1.77773 0
M  V30 3035 H 278.854 -0.659962 -0.121206 0
M  V30 3036 H 281.398 -2.02601 0.27801 0
M  V30 3037 H 279.553 -3.45458 -1.75321 0
M  V30 3038 H 279.967 -5.22753 -0.427681 0
M  V30 3039 H 281.441 -5.09147 -2.13245 0
M  V30 3040 H 281.918 -3.48405 -2.67414 0
M  V30 3041 H 282.524 -4.10272 -1.12059 0
M  V30 3042 N 280.839 0.0985539 -1.57292 0
M  V30 3043 C 281.772 1.15082 -1.97057 0
M  V30 3044 C 282.75 1.39025 -0.843255 0
M  V30 3045 O 283.934 1.52842 -1.10325 0
M  V30 3046 C 281.061 2.50069 -2.28437 0
M  V30 3047 C 280.107 2.42428 -3.509 0
M  V30 3048 S 280.94 1.84414 -5.02744 0
M  V30 3049 C 282.096 3.21032 -5.37298 0
M  V30 3050 H 282.329 0.811815 -2.86002 0
M  V30 3051 H 279.862 0.306102 -1.51335 0
M  V30 3052 H 281.82 3.27729 -2.47192 0
M  V30 3053 H 280.481 2.8114 -1.40069 0
M  V30 3054 H 279.674 3.41911 -3.70288 0
M  V30 3055 H 279.276 1.72896 -3.31637 0
M  V30 3056 H 281.568 4.17297 -5.33731 0
M  V30 3057 H 282.511 3.06452 -6.38352 0
M  V30 3058 H 282.919 3.20404 -4.64759 0
M  V30 3059 N 282.317 1.53212 0.369288 0
M  V30 3060 C 283.247 1.82365 1.45826 0
M  V30 3061 C 284.228 0.676907 1.56051 0
M  V30 3062 O 285.413 0.926401 1.70679 0
M  V30 3063 C 282.543 2.01023 2.83208 0
M  V30 3064 C 281.497 3.1678 2.8781 0
M  V30 3065 C 280.823 3.20724 4.27832 0
M  V30 3066 C 282.123 4.55447 2.55667 0
M  V30 3067 H 283.817 2.73559 1.21678 0
M  V30 3068 H 281.363 1.3163 0.583911 0
M  V30 3069 H 283.316 2.20001 3.59413 0
M  V30 3070 H 282.04 1.06536 3.08736 0
M  V30 3071 H 280.699 2.97616 2.14056 0
M  V30 3072 H 280.347 2.23882 4.50429 0
M  V30 3073 H 280.047 3.98496 4.31827 0
M  V30 3074 H 281.571 3.41881 5.05915 0
M  V30 3075 H 282.985 4.74611 3.21586 0
M  V30 3076 H 281.382 5.35432 2.70984 0
M  V30 3077 H 282.452 4.60812 1.5093 0
M  V30 3078 N 283.795 -0.628877 1.44509 0
M  V30 3079 C 285.042 -1.38839 1.47411 0
M  V30 3080 C 285.37 -1.94202 0.10757 0
M  V30 3081 O 284.625 -1.74243 -0.890947 0
M  V30 3082 C 284.924 -2.56995 2.48371 0
M  V30 3083 C 284.59 -2.19908 3.93639 0
M  V30 3084 C 283.252 -2.09506 4.33198 0
M  V30 3085 C 285.604 -1.9064 4.85083 0
M  V30 3086 C 282.932 -1.68028 5.62124 0
M  V30 3087 C 285.284 -1.50655 6.14399 0
M  V30 3088 C 283.948 -1.38796 6.5291 0
M  V30 3089 H 283.218 -0.508048 0.539414 0
M  V30 3090 H 285.865 -0.712913 1.77735 0
M  V30 3091 H 284.17 -3.29786 2.11538 0
M  V30 3092 H 285.867 -3.15223 2.47861 0
M  V30 3093 H 282.457 -2.28922 3.62343 0
M  V30 3094 H 286.641 -1.97585 4.55273 0
M  V30 3095 H 281.897 -1.57452 5.90778 0
M  V30 3096 H 286.071 -1.27048 6.84713 0
M  V30 3097 H 283.698 -1.06429 7.52713 0
M  V30 3098 N 285.273 -1.31445 -0.869486 0
M  V30 3099 C 286.221 -1.19067 -1.99814 0
M  V30 3100 C 287.215 -0.0988569 -1.69111 0
M  V30 3101 O 288.421 -0.260781 -1.78101 0
M  V30 3102 H 284.796 -0.368677 -0.655425 0
M  V30 3103 H 286.767 -2.14555 -2.07385 0
M  V30 3104 C 285.516 -0.915323 -3.35436 0
M  V30 3105 H 284.839 -1.74759 -3.59582 0
M  V30 3106 H 286.279 -0.868895 -4.15001 0
M  V30 3107 C 284.738 0.381928 -3.34728 0
M  V30 3108 O 285.268 1.39857 -3.76567 0
M  V30 3109 N 283.474 0.398633 -2.87853 0
M  V30 3110 H 283.021 -0.429186 -2.54 0
M  V30 3111 H 282.979 1.26651 -2.87762 0
M  V30 3112 N 286.751 1.08385 -1.14413 0
M  V30 3113 C 288 1.80153 -0.907076 0
M  V30 3114 C 288.313 1.87176 0.567851 0
M  V30 3115 O 289.519 2.55359 0.922172 0
M  V30 3116 C 287.975 3.23687 -1.57336 0
M  V30 3117 C 287.583 3.24897 -3.08457 0
M  V30 3118 C 289.327 4.00136 -1.41744 0
M  V30 3119 C 287.234 4.6302 -3.67921 0
M  V30 3120 H 286.164 0.675139 -0.335714 0
M  V30 3121 H 288.815 1.21733 -1.37307 0
M  V30 3122 H 287.197 3.82234 -1.03505 0
M  V30 3123 H 288.371 2.76055 -3.68958 0
M  V30 3124 H 286.686 2.61943 -3.2369 0
M  V30 3125 H 289.283 5.02201 -1.83572 0
M  V30 3126 H 289.626 4.14709 -0.363576 0
M  V30 3127 H 290.159 3.48058 -1.92614 0
M  V30 3128 H 286.898 4.5365 -4.73161 0
M  V30 3129 H 286.418 5.12143 -3.12201 0
M  V30 3130 H 288.097 5.31994 -3.68227 0
M  V30 3131 N 288.23 0.939286 1.26551 0
M  V30 3132 C 289.18 0.418284 2.2413 0
M  V30 3133 C 290.164 -0.483935 1.5345 0
M  V30 3134 O 291.356 -0.319489 1.74093 0
M  V30 3135 C 288.485 -0.31709 3.41832 0
M  V30 3136 C 287.571 0.602311 4.19801 0
M  V30 3137 N 287.962 1.72726 4.75394 0
M  V30 3138 C 286.26 0.407534 4.44134 0
M  V30 3139 C 286.961 2.30004 5.34297 0
M  V30 3140 N 285.937 1.58828 5.1988 0
M  V30 3141 H 289.739 1.27705 2.64705 0
M  V30 3142 H 287.253 0.794929 1.41614 0
M  V30 3143 H 289.25 -0.707364 4.10855 0
M  V30 3144 H 287.91 -1.17264 3.02786 0
M  V30 3145 H 288.921 2.10944 4.72994 0
M  V30 3146 H 285.598 -0.406406 4.15517 0
M  V30 3147 H 286.988 3.24778 5.88191 0
M  V30 3148 N 289.708 -1.40897 0.706093 0
M  V30 3149 C 290.936 -2.05373 0.250887 0
M  V30 3150 C 291.351 -1.53172 -1.10381 0
M  V30 3151 O 290.708 -0.684305 -1.69185 0
M  V30 3152 C 290.759 -3.6088 0.211571 0
M  V30 3153 O 290.48 -4.11153 1.51276 0
M  V30 3154 C 291.981 -4.42517 -0.263346 0
M  V30 3155 H 289.201 -0.66115 0.114552 0
M  V30 3156 H 291.745 -1.80479 0.961635 0
M  V30 3157 H 289.9 -3.84777 -0.450073 0
M  V30 3158 H 290.314 -5.05279 1.40689 0
M  V30 3159 H 291.788 -5.51479 -0.239718 0
M  V30 3160 H 292.265 -4.19396 -1.30397 0
M  V30 3161 H 292.871 -4.23708 0.367677 0
M  V30 3162 N 291.186 -0.45159 -1.50991 0
M  V30 3163 C 292.116 0.342898 -2.30969 0
M  V30 3164 C 293.097 1.00815 -1.37005 0
M  V30 3165 O 294.282 1.00907 -1.65926 0
M  V30 3166 C 291.412 1.43637 -3.16205 0
M  V30 3167 C 290.366 0.893818 -4.18563 0
M  V30 3168 C 289.692 2.08411 -4.92411 0
M  V30 3169 C 290.992 -0.0815568 -5.22236 0
M  V30 3170 H 292.686 -0.324556 -2.97636 0
M  V30 3171 H 290.232 -0.157531 -1.43136 0
M  V30 3172 H 292.185 1.9995 -3.70942 0
M  V30 3173 H 290.909 2.13232 -2.47386 0
M  V30 3174 H 289.568 0.352798 -3.64898 0
M  V30 3175 H 289.216 2.76658 -4.20082 0
M  V30 3176 H 288.916 1.72741 -5.61636 0
M  V30 3177 H 290.44 2.65251 -5.49976 0
M  V30 3178 H 291.854 0.391742 -5.7196 0
M  V30 3179 H 290.251 -0.351551 -5.99069 0
M  V30 3180 H 291.321 -1.01374 -4.74185 0
M  V30 3181 N 292.664 1.56529 -0.183458 0
M  V30 3182 C 293.941 1.88959 0.50536 0
M  V30 3183 C 294.321 1.09523 1.80466 0
M  V30 3184 O 293.669 0.19278 2.27685 0
M  V30 3185 C 293.879 3.41162 0.73547 0
M  V30 3186 C 295.227 4.11155 1.06005 0
M  V30 3187 O 296.251 3.46548 0.823594 0
M  V30 3188 O 295.11 5.25318 1.50675 0
M  V30 3189 H 292.204 0.78441 0.261973 0
M  V30 3190 H 294.75 1.68231 -0.222802 0
M  V30 3191 H 293.522 3.90874 -0.182561 0
M  V30 3192 H 293.145 3.67543 1.51651 0
M  V30 3193 N 294.142 -0.090211 1.57342 0
M  V30 3194 C 295.388 -0.788838 1.8748 0
M  V30 3195 C 295.743 -1.76105 0.7749 0
M  V30 3196 O 295.036 -1.90302 -0.222663 0
M  V30 3197 C 295.23 -1.55222 3.21933 0
M  V30 3198 C 295.059 -0.655441 4.44898 0
M  V30 3199 C 293.829 -0.299325 5.04413 0
M  V30 3200 C 296.027 0.0397458 5.14285 0
M  V30 3201 N 294.009 0.605108 6.10911 0
M  V30 3202 C 295.38 0.802061 6.1479 0
M  V30 3203 C 297.435 0.113154 4.97771 0
M  V30 3204 C 296.138 1.63093 7.00566 0
M  V30 3205 C 298.164 0.928942 5.84059 0
M  V30 3206 C 297.526 1.67936 6.84088 0
M  V30 3207 H 293.625 -0.26467 0.735849 0
M  V30 3208 H 296.209 -0.0511453 1.94633 0
M  V30 3209 H 294.38 -2.26076 3.15823 0
M  V30 3210 H 296.112 -2.19843 3.39781 0
M  V30 3211 H 292.867 -0.648079 4.69145 0
M  V30 3212 H 293.291 1.05002 6.68808 0
M  V30 3213 H 297.933 -0.452676 4.2037 0
M  V30 3214 H 295.651 2.20781 7.77355 0
M  V30 3215 H 299.237 0.988478 5.73341 0
M  V30 3216 H 298.117 2.30044 7.49699 0
M  V30 3217 N 295.62 -1.53406 -0.361157 0
M  V30 3218 C 296.897 -1.60411 -1.11927 0
M  V30 3219 C 297.277 -0.414385 -2.06993 0
M  V30 3220 O 296.625 0.594976 -2.20618 0
M  V30 3221 C 296.835 -2.95652 -1.85448 0
M  V30 3222 C 298.183 -3.50386 -2.39823 0
M  V30 3223 O 299.207 -2.97711 -1.95568 0
M  V30 3224 O 298.066 -4.42482 -3.20737 0
M  V30 3225 H 295.16 -0.64811 -0.513695 0
M  V30 3226 H 297.706 -1.65749 -0.364065 0
M  V30 3227 H 296.478 -3.73682 -1.16091 0
M  V30 3228 H 296.101 -2.93825 -2.67866 0
M  V30 3229 N 297.098 0.621204 -1.44841 0
M  V30 3230 C 298.375 1.38 -1.38619 0
M  V30 3231 C 298.755 2.11041 -0.0498935 0
M  V30 3232 O 298.103 2.06992 0.967816 0
M  V30 3233 C 298.313 2.33817 -2.59096 0
M  V30 3234 C 299.661 2.96844 -3.03593 0
M  V30 3235 O 300.685 2.44141 -2.59371 0
M  V30 3236 O 299.544 3.92476 -3.80296 0
M  V30 3237 H 296.638 0.61811 -0.549426 0
M  V30 3238 H 299.184 0.645429 -1.56947 0
M  V30 3239 H 297.956 1.79012 -3.47952 0
M  V30 3240 H 297.579 3.14676 -2.43032 0
M  V30 3241 N 298.576 1.31904 0.862503 0
M  V30 3242 C 299.523 1.20182 1.9704 0
M  V30 3243 C 300.493 0.0858247 1.65878 0
M  V30 3244 O 301.678 0.26 1.8902 0
M  V30 3245 C 298.818 0.922797 3.32533 0
M  V30 3246 C 297.931 2.12284 3.76244 0
M  V30 3247 C 297.066 1.77996 5.00491 0
M  V30 3248 C 296.105 2.94366 5.36671 0
M  V30 3249 N 295.242 2.60223 6.52095 0
M  V30 3250 H 300.082 2.14951 2.06398 0
M  V30 3251 H 297.619 1.06917 1.01031 0
M  V30 3252 H 299.577 0.741548 4.10557 0
M  V30 3253 H 298.207 0.0119227 3.22798 0
M  V30 3254 H 297.259 2.41461 2.9394 0
M  V30 3255 H 298.571 2.99357 3.98982 0
M  V30 3256 H 297.725 1.56377 5.862 0
M  V30 3257 H 296.464 0.881252 4.79672 0
M  V30 3258 H 295.469 3.16625 4.49476 0
M  V30 3259 H 296.694 3.84957 5.59451 0
M  V30 3260 H 294.64 1.72884 6.32809 0
M  V30 3261 H 294.557 3.40827 6.74814 0
M  V30 3262 H 295.825 2.42016 7.40978 0
M  V30 3263 N 300.054 -1.07777 1.14986 0
M  V30 3264 C 300.987 -2.14228 0.786243 0
M  V30 3265 C 301.965 -1.60888 -0.235347 0
M  V30 3266 O 303.149 -1.88099 -0.122909 0
M  V30 3267 C 300.276 -3.38281 0.168433 0
M  V30 3268 C 299.322 -4.10387 1.16123 0
M  V30 3269 S 300.155 -4.62371 2.70135 0
M  V30 3270 C 301.311 -5.89704 2.09762 0
M  V30 3271 H 301.544 -2.44741 1.68787 0
M  V30 3272 H 299.077 -1.19984 0.971756 0
M  V30 3273 H 301.035 -4.10098 -0.181588 0
M  V30 3274 H 299.696 -3.05953 -0.710725 0
M  V30 3275 H 298.889 -4.99431 0.677086 0
M  V30 3276 H 298.491 -3.44513 1.45556 0
M  V30 3277 H 300.783 -6.61648 1.45701 0
M  V30 3278 H 301.726 -6.42824 2.96955 0
M  V30 3279 H 302.134 -5.4302 1.54239 0
M  V30 3280 N 301.532 -0.945985 -1.26051 0
M  V30 3281 C 302.462 -0.477172 -2.28572 0
M  V30 3282 C 303.443 0.472032 -1.63419 0
M  V30 3283 O 304.628 0.372853 -1.90587 0
M  V30 3284 C 301.758 0.253975 -3.4637 0
M  V30 3285 C 300.712 -0.609135 -4.23643 0
M  V30 3286 C 300.038 0.252252 -5.34105 0
M  V30 3287 C 301.338 -1.8829 -4.8718 0
M  V30 3288 H 303.032 -1.33402 -2.68038 0
M  V30 3289 H 300.578 -0.642904 -1.28852 0
M  V30 3290 H 302.531 0.593016 -4.17207 0
M  V30 3291 H 301.255 1.145 -3.05871 0
M  V30 3292 H 299.914 -0.931138 -3.54578 0
M  V30 3293 H 299.562 1.14278 -4.89846 0
M  V30 3294 H 299.262 -0.32188 -5.86718 0
M  V30 3295 H 300.786 0.586454 -6.07777 0
M  V30 3296 H 302.2 -1.61081 -5.50205 0
M  V30 3297 H 300.597 -2.40199 -5.49931 0
M  V30 3298 H 301.667 -2.59134 -4.09851 0
M  V30 3299 N 303.011 1.40521 -0.713556 0
M  V30 3300 C 303.921 2.34522 -0.0606667 0
M  V30 3301 C 304.937 1.57193 0.74607 0
M  V30 3302 O 306.113 1.89591 0.679493 0
M  V30 3303 C 303.178 3.36081 0.851491 0
M  V30 3304 C 302.239 4.29286 0.0349339 0
M  V30 3305 C 301.472 5.25994 0.903649 0
M  V30 3306 O 301.695 5.28616 2.14292 0
M  V30 3307 O 300.629 6.00918 0.343723 0
M  V30 3308 H 304.455 2.91968 -0.835972 0
M  V30 3309 H 302.04 1.41681 -0.47402 0
M  V30 3310 H 303.922 3.98369 1.37404 0
M  V30 3311 H 302.597 2.81052 1.60598 0
M  V30 3312 H 301.504 3.70289 -0.532633 0
M  V30 3313 H 302.837 4.87462 -0.681287 0
M  V30 3314 N 304.489 0.459591 1.5075 0
M  V30 3315 C 305.735 -0.0994966 2.02556 0
M  V30 3316 C 306.068 -1.40399 1.3417 0
M  V30 3317 O 305.343 -1.88892 0.463683 0
M  V30 3318 C 305.626 -0.295242 3.58888 0
M  V30 3319 C 305.479 1.02947 4.37861 0
M  V30 3320 C 306.798 -1.05502 4.27267 0
M  V30 3321 H 303.917 -0.034686 0.736183 0
M  V30 3322 H 306.559 0.602938 1.8018 0
M  V30 3323 H 304.709 -0.893563 3.78084 0
M  V30 3324 H 306.381 1.66348 4.30263 0
M  V30 3325 H 304.624 1.62885 4.02058 0
M  V30 3326 H 305.295 0.846281 5.45474 0
M  V30 3327 H 307.771 -0.547993 4.12476 0
M  V30 3328 H 306.647 -1.16077 5.36486 0
M  V30 3329 H 306.908 -2.08875 3.89645 0
M  V30 3330 N 305.967 -1.56429 0.191757 0
M  V30 3331 C 306.897 -2.21937 -0.725696 0
M  V30 3332 C 307.878 -1.1814 -1.2238 0
M  V30 3333 O 309.063 -1.46636 -1.27325 0
M  V30 3334 C 306.193 -2.87611 -1.94672 0
M  V30 3335 C 305.147 -3.97623 -1.58366 0
M  V30 3336 C 304.473 -4.50446 -2.88102 0
M  V30 3337 C 305.773 -5.16197 -0.796133 0
M  V30 3338 H 307.467 -2.98861 -0.179606 0
M  V30 3339 H 305.013 -1.43749 -0.0849464 0
M  V30 3340 H 306.966 -3.3212 -2.59373 0
M  V30 3341 H 305.69 -2.08087 -2.51728 0
M  V30 3342 H 304.349 -3.53801 -0.960247 0
M  V30 3343 H 303.997 -3.67688 -3.43241 0
M  V30 3344 H 303.697 -5.24675 -2.64556 0
M  V30 3345 H 305.221 -4.97654 -3.53798 0
M  V30 3346 H 306.635 -5.57271 -1.34618 0
M  V30 3347 H 305.032 -5.96471 -0.658928 0
M  V30 3348 H 306.102 -4.84473 0.203478 0
M  V30 3349 N 307.445 0.0818655 -1.57387 0
M  V30 3350 C 308.722 0.815343 -1.77796 0
M  V30 3351 C 309.102 1.96289 -0.77679 0
M  V30 3352 O 308.45 2.27691 0.192106 0
M  V30 3353 C 308.66 1.29765 -3.23978 0
M  V30 3354 C 310.008 1.7351 -3.8753 0
M  V30 3355 O 311.032 1.39356 -3.27808 0
M  V30 3356 O 309.891 2.36708 -4.92576 0
M  V30 3357 H 306.985 0.389914 -0.729312 0
M  V30 3358 H 309.531 0.0627213 -1.69584 0
M  V30 3359 H 308.303 0.47608 -3.88393 0
M  V30 3360 H 307.926 2.11189 -3.36875 0
M  V30 3361 N 308.923 1.53595 0.353017 0
M  V30 3362 C 310.172 1.69603 1.09168 0
M  V30 3363 C 310.485 0.460925 1.90092 0
M  V30 3364 O 311.691 0.501774 2.66823 0
M  V30 3365 C 310.147 2.99872 1.9901 0
M  V30 3366 C 309.755 4.30687 1.23339 0
M  V30 3367 C 311.499 3.25246 2.72792 0
M  V30 3368 C 309.406 5.52036 2.12156 0
M  V30 3369 H 308.336 0.631966 0.411261 0
M  V30 3370 H 310.987 1.80096 0.351802 0
M  V30 3371 H 309.369 2.83212 2.7678 0
M  V30 3372 H 310.543 4.58019 0.505456 0
M  V30 3373 H 308.858 4.11853 0.613663 0
M  V30 3374 H 311.455 4.13095 3.39495 0
M  V30 3375 H 311.798 2.41846 3.38846 0
M  V30 3376 H 312.331 3.42638 2.021 0
M  V30 3377 H 309.07 6.37951 1.50659 0
M  V30 3378 H 308.59 5.28966 2.82764 0
M  V30 3379 H 310.269 5.87313 2.71427 0
M  V30 3380 N 310.401 -0.613514 1.45168 0
M  V30 3381 C 311.812 -1.19539 1.43413 0
M  V30 3382 C 312.163 -1.95558 0.158632 0
M  V30 3383 O 311.288 -2.0335 -0.740119 0
M  V30 3384 C 311.883 -2.17445 2.59813 0
M  V30 3385 C 310.442 -2.71022 2.61197 0
M  V30 3386 C 309.589 -1.46323 2.35552 0
M  V30 3387 H 312.54 -0.403163 1.53494 0
M  V30 3388 H 312.561 -3.00373 2.33574 0
M  V30 3389 H 312.073 -1.62089 3.52631 0
M  V30 3390 H 310.174 -3.30332 1.7237 0
M  V30 3391 H 310.287 -3.15859 3.60236 0
M  V30 3392 H 308.651 -1.75072 1.84992 0
M  V30 3393 H 309.434 -0.92844 3.30507 0
M  V30 3394 N 311.879 -1.3236 -0.855495 0
M  V30 3395 C 313.295 -1.11332 -1.14356 0
M  V30 3396 C 313.495 0.106751 -2.01217 0
M  V30 3397 O 312.551 0.791891 -2.39761 0
M  V30 3398 C 313.864 -2.39237 -1.82171 0
M  V30 3399 C 315.412 -2.44986 -1.9481 0
M  V30 3400 C 315.887 -3.7281 -2.66039 0
M  V30 3401 N 317.378 -3.73787 -2.73565 0
M  V30 3402 C 318.113 -4.69394 -3.29327 0
M  V30 3403 N 317.609 -5.75367 -3.85907 0
M  V30 3404 N 319.402 -4.56893 -3.27423 0
M  V30 3405 H 311.553 -2.10586 -0.277027 0
M  V30 3406 H 313.816 -0.929701 -0.185364 0
M  V30 3407 H 313.522 -3.28431 -1.25802 0
M  V30 3408 H 313.396 -2.50134 -2.82335 0
M  V30 3409 H 315.783 -1.56252 -2.50338 0
M  V30 3410 H 315.864 -2.38043 -0.936448 0
M  V30 3411 H 315.508 -4.61918 -2.11174 0
M  V30 3412 H 315.438 -3.77024 -3.67642 0
M  V30 3413 H 317.929 -2.97189 -2.33424 0
M  V30 3414 H 318.242 -6.44378 -4.26611 0
M  V30 3415 H 316.587 -5.79123 -3.84242 0
M  V30 3416 H 319.778 -3.73269 -2.82467 0
M  V30 3417 H 319.951 -5.31577 -3.7058 0
M  V30 3418 N 313.357 1.07166 -1.15556 0
M  V30 3419 C 314.267 2.17947 -0.868116 0
M  V30 3420 C 315.283 1.73297 0.156297 0
M  V30 3421 O 316.459 2.01392 -0.0182327 0
M  V30 3422 C 313.524 3.44789 -0.36355 0
M  V30 3423 C 312.585 4.03996 -1.45209 0
M  V30 3424 C 311.818 5.24783 -0.971508 0
M  V30 3425 O 312.041 5.70109 0.182194 0
M  V30 3426 O 310.975 5.75715 -1.75603 0
M  V30 3427 H 314.801 2.4503 -1.79427 0
M  V30 3428 H 312.386 1.16539 -0.934824 0
M  V30 3429 H 314.268 4.21307 -0.0887113 0
M  V30 3430 H 312.943 3.19253 0.534708 0
M  V30 3431 H 311.85 3.29009 -1.78056 0
M  V30 3432 H 313.183 4.33808 -2.32533 0
M  V30 3433 N 314.835 0.952656 1.25548 0
M  V30 3434 C 315.768 0.415525 2.24385 0
M  V30 3435 C 316.746 -0.502046 1.54655 0
M  V30 3436 O 317.93 -0.436875 1.83368 0
M  V30 3437 C 315.057 -0.401734 3.36309 0
M  V30 3438 C 314.103 0.455949 4.24056 0
M  V30 3439 S 314.936 1.88698 5.01152 0
M  V30 3440 C 316.092 1.07809 6.16545 0
M  V30 3441 H 316.325 1.25315 2.69599 0
M  V30 3442 H 313.858 0.756587 1.34592 0
M  V30 3443 H 315.816 -0.867329 4.01233 0
M  V30 3444 H 314.477 -1.21416 2.89684 0
M  V30 3445 H 313.67 -0.170776 5.03711 0
M  V30 3446 H 313.272 0.856675 3.64056 0
M  V30 3447 H 315.564 0.325816 6.76716 0
M  V30 3448 H 316.507 1.84849 6.83547 0
M  V30 3449 H 316.915 0.60909 5.61204 0
M  V30 3450 N 316.313 -1.40141 0.720998 0
M  V30 3451 C 317.243 -2.33339 0.0867621 0
M  V30 3452 C 318.224 -1.53178 -0.739622 0
M  V30 3453 O 319.409 -1.81625 -0.687449 0
M  V30 3454 C 316.539 -3.37194 -0.831728 0
M  V30 3455 C 315.493 -4.27857 -0.110558 0
M  V30 3456 C 314.819 -5.22294 -1.14513 0
M  V30 3457 C 316.119 -5.11872 1.0385 0
M  V30 3458 H 317.813 -2.86626 0.865219 0
M  V30 3459 H 315.359 -1.37814 0.417516 0
M  V30 3460 H 317.312 -4.01335 -1.28485 0
M  V30 3461 H 316.036 -2.82314 -1.64214 0
M  V30 3462 H 314.695 -3.65176 0.322797 0
M  V30 3463 H 314.343 -4.63717 -1.94874 0
M  V30 3464 H 314.043 -5.83797 -0.667446 0
M  V30 3465 H 315.567 -5.89312 -1.59824 0
M  V30 3466 H 316.981 -5.69436 0.664482 0
M  V30 3467 H 315.378 -5.82445 1.4449 0
M  V30 3468 H 316.448 -4.4753 1.86668 0
M  V30 3469 N 317.792 -0.46758 -1.50504 0
M  V30 3470 C 319.203 -0.0116166 -1.86696 0
M  V30 3471 C 319.554 1.39202 -1.38265 0
M  V30 3472 O 318.679 2.0313 -0.746132 0
M  V30 3473 C 319.274 -0.0143044 -3.38797 0
M  V30 3474 C 317.833 0.386175 -3.74414 0
M  V30 3475 C 316.98 -0.401287 -2.74381 0
M  V30 3476 H 319.931 -0.682022 -1.43297 0
M  V30 3477 H 319.952 0.788641 -3.72237 0
M  V30 3478 H 319.464 -1.03602 -3.74016 0
M  V30 3479 H 317.565 1.41237 -3.44794 0
M  V30 3480 H 317.678 0.0899596 -4.79016 0
M  V30 3481 H 316.042 0.144536 -2.5429 0
M  V30 3482 H 316.825 -1.42244 -3.12444 0
M  V30 3483 N 319.27 1.56325 -0.20005 0
M  V30 3484 C 320.18 2.22931 0.730668 0
M  V30 3485 C 321.196 1.22997 1.23076 0
M  V30 3486 O 322.372 1.55748 1.27689 0
M  V30 3487 C 319.437 2.87948 1.93098 0
M  V30 3488 C 318.498 4.03166 1.47497 0
M  V30 3489 C 317.731 4.65073 2.61807 0
M  V30 3490 O 317.954 4.25913 3.79413 0
M  V30 3491 O 316.888 5.54452 2.34237 0
M  V30 3492 H 320.714 3.03084 0.193391 0
M  V30 3493 H 318.299 1.49371 0.0294621 0
M  V30 3494 H 320.181 3.29063 2.6324 0
M  V30 3495 H 318.856 2.10771 2.45677 0
M  V30 3496 H 317.763 3.66664 0.742201 0
M  V30 3497 H 319.096 4.82022 0.995796 0
M  V30 3498 N 320.748 -0.0735177 1.57428 0
M  V30 3499 C 321.994 -0.774145 1.87443 0
M  V30 3500 C 322.327 -1.77311 0.792103 0
M  V30 3501 O 321.602 -1.93492 -0.197793 0
M  V30 3502 C 321.885 -1.48367 3.28115 0
M  V30 3503 C 321.738 -0.501227 4.46999 0
M  V30 3504 C 323.057 -2.429 3.66998 0
M  V30 3505 H 320.176 -0.279971 0.681752 0
M  V30 3506 H 322.818 -0.0373616 1.89963 0
M  V30 3507 H 320.968 -2.11171 3.26097 0
M  V30 3508 H 322.64 0.121468 4.6114 0
M  V30 3509 H 320.883 0.183593 4.33411 0
M  V30 3510 H 321.554 -1.03526 5.42205 0
M  V30 3511 H 324.03 -1.90175 3.70098 0
M  V30 3512 H 322.906 -2.89549 4.66318 0
M  V30 3513 H 323.167 -3.27628 2.96837 0
M  V30 3514 N 322.226 -1.5378 -0.344866 0
M  V30 3515 C 323.642 -1.44015 -0.687888 0
M  V30 3516 C 323.842 -0.595834 -1.92489 0
M  V30 3517 O 322.898 -0.0863064 -2.52352 0
M  V30 3518 C 324.211 -2.87481 -0.881758 0
M  V30 3519 C 325.759 -2.97247 -0.980459 0
M  V30 3520 C 326.234 -4.41819 -1.20665 0
M  V30 3521 N 327.725 -4.45339 -1.27389 0
M  V30 3522 C 328.46 -5.54333 -1.46639 0
M  V30 3523 N 327.956 -6.73335 -1.63071 0
M  V30 3524 N 329.749 -5.41944 -1.49176 0
M  V30 3525 H 321.9 -2.07169 0.468475 0
M  V30 3526 H 324.163 -0.93643 0.147655 0
M  V30 3527 H 323.869 -3.51672 -0.0443444 0
M  V30 3528 H 323.743 -3.32352 -1.78388 0
M  V30 3529 H 326.13 -2.33197 -1.8084 0
M  V30 3530 H 326.211 -2.5574 -0.0552713 0
M  V30 3531 H 325.855 -5.06449 -0.383652 0
M  V30 3532 H 325.785 -4.80917 -2.14539 0
M  V30 3533 H 328.276 -3.59585 -1.1622 0
M  V30 3534 H 328.589 -7.52165 -1.77391 0
M  V30 3535 H 326.934 -6.76282 -1.60209 0
M  V30 3536 H 330.125 -4.47932 -1.3592 0
M  V30 3537 H 330.298 -6.26946 -1.63837 0
M  V30 3538 N 323.704 0.605807 -1.45491 0
M  V30 3539 C 325.12 0.926751 -1.29936 0
M  V30 3540 C 325.32 1.99896 -0.253706 0
M  V30 3541 O 324.376 2.50038 0.351737 0
M  V30 3542 C 325.689 1.36599 -2.67883 0
M  V30 3543 C 327.237 1.4801 -2.75793 0
M  V30 3544 C 327.712 1.95309 -4.14268 0
M  V30 3545 N 329.203 2.0254 -4.16571 0
M  V30 3546 C 329.938 2.40363 -5.20589 0
M  V30 3547 N 329.434 2.77143 -6.34952 0
M  V30 3548 N 331.227 2.40718 -5.07948 0
M  V30 3549 H 323.378 -0.102862 -2.12151 0
M  V30 3550 H 325.641 0.016639 -0.947854 0
M  V30 3551 H 325.347 0.652306 -3.45598 0
M  V30 3552 H 325.221 2.33215 -2.96463 0
M  V30 3553 H 327.608 2.1847 -1.98381 0
M  V30 3554 H 327.689 0.497041 -2.50925 0
M  V30 3555 H 327.333 1.25436 -4.92167 0
M  V30 3556 H 327.263 2.94532 -4.3653 0
M  V30 3557 H 329.754 1.76699 -3.34045 0
M  V30 3558 H 330.067 3.0489 -7.10114 0
M  V30 3559 H 328.412 2.74834 -6.3835 0
M  V30 3560 H 331.603 2.11392 -4.1765 0
M  V30 3561 H 331.776 2.69869 -5.89131 0
M  V30 3562 N 325.182 1.32811 0.848464 0
M  V30 3563 C 326.407 1.26882 1.6406 0
M  V30 3564 C 326.832 -0.15913 1.87426 0
M  V30 3565 O 326.19 -1.11258 1.43148 0
M  V30 3566 C 326.238 2.03997 2.97351 0
M  V30 3567 O 325.342 1.39201 3.88197 0
M  V30 3568 H 324.683 0.436982 0.499943 0
M  V30 3569 H 327.213 1.75224 1.0563 0
M  V30 3570 H 327.223 2.14403 3.47124 0
M  V30 3571 H 325.898 3.0783 2.79666 0
M  V30 3572 H 324.475 1.37381 3.46671 0
M  V30 3573 N 326.66 -1.06551 1.16123 0
M  V30 3574 C 327.885 -1.83544 0.965735 0
M  V30 3575 C 328.31 -1.81843 -0.481102 0
M  V30 3576 O 327.668 -1.21732 -1.34354 0
M  V30 3577 C 327.716 -3.28169 1.49457 0
M  V30 3578 O 326.82 -4.0643 0.699157 0
M  V30 3579 H 326.161 -0.568026 0.343864 0
M  V30 3580 H 328.691 -1.34362 1.54299 0
M  V30 3581 H 328.701 -3.78992 1.51092 0
M  V30 3582 H 327.376 -3.28722 2.54784 0
M  V30 3583 H 325.953 -3.65216 0.7531 0
M  V30 3584 N 328.138 -0.959301 -1.25041 0
M  V30 3585 C 329.048 -0.489994 -2.29426 0
M  V30 3586 C 330.064 0.444944 -1.68215 0
M  V30 3587 O 331.24 0.320046 -1.98841 0
M  V30 3588 C 328.305 0.220309 -3.45999 0
M  V30 3589 C 327.366 -0.753418 -4.22637 0
M  V30 3590 C 326.599 -0.076918 -5.33645 0
M  V30 3591 O 326.822 1.13649 -5.58963 0
M  V30 3592 O 325.756 -0.764824 -5.97021 0
M  V30 3593 H 329.582 -1.35755 -2.71669 0
M  V30 3594 H 327.167 -0.725961 -1.30576 0
M  V30 3595 H 329.049 0.619677 -4.16819 0
M  V30 3596 H 327.724 1.06296 -3.0575 0
M  V30 3597 H 326.631 -1.20308 -3.54227 0
M  V30 3598 H 327.964 -1.56423 -4.66683 0
M  V30 3599 N 329.616 1.39756 -0.72842 0
M  V30 3600 C 330.862 2.00942 -0.273892 0
M  V30 3601 C 331.195 1.57656 1.13394 0
M  V30 3602 O 330.47 0.802434 1.77176 0
M  V30 3603 C 330.753 3.58211 -0.368346 0
M  V30 3604 C 330.606 4.11534 -1.81548 0
M  V30 3605 C 331.925 4.39372 0.253054 0
M  V30 3606 H 329.044 0.730047 -0.100996 0
M  V30 3607 H 331.686 1.66056 -0.923337 0
M  V30 3608 H 329.836 3.88061 0.184588 0
M  V30 3609 H 331.508 3.92431 -2.42478 0
M  V30 3610 H 329.751 3.65341 -2.33898 0
M  V30 3611 H 330.422 5.20682 -1.83288 0
M  V30 3612 H 332.898 4.15527 -0.218224 0
M  V30 3613 H 331.774 5.48677 0.156585 0
M  V30 3614 H 332.035 4.21358 1.33826 0
M  V30 3615 N 331.094 0.475555 1.50254 0
M  V30 3616 C 332.324 -0.0753399 2.06463 0
M  V30 3617 C 332.732 -1.33661 1.33908 0
M  V30 3618 O 332.075 -1.79219 0.403257 0
M  V30 3619 C 332.137 -0.424921 3.5698 0
M  V30 3620 C 331.801 0.734965 4.51051 0
M  V30 3621 C 332.798 1.61827 4.94073 0
M  V30 3622 C 330.483 0.926557 4.9368 0
M  V30 3623 C 332.477 2.67754 5.78434 0
M  V30 3624 C 330.164 1.98904 5.77824 0
M  V30 3625 C 331.162 2.8629 6.20103 0
M  V30 3626 O 330.85 3.90708 7.02568 0
M  V30 3627 H 330.582 0.00576308 0.675975 0
M  V30 3628 H 333.136 0.664662 1.94349 0
M  V30 3629 H 331.366 -1.21817 3.67012 0
M  V30 3630 H 333.055 -0.911422 3.95535 0
M  V30 3631 H 333.821 1.48196 4.61804 0
M  V30 3632 H 329.7 0.25584 4.6029 0
M  V30 3633 H 333.244 3.35992 6.11355 0
M  V30 3634 H 329.141 2.12541 6.09505 0
M  V30 3635 H 329.909 3.87751 7.20827 0
M  V30 3636 N 332.573 -1.56217 0.208337 0
M  V30 3637 C 333.821 -1.97558 -0.426076 0
M  V30 3638 C 334.142 -1.09683 -1.61229 0
M  V30 3639 O 333.412 -0.170956 -1.95153 0
M  V30 3640 H 331.992 -0.729575 -0.160405 0
M  V30 3641 H 334.654 -1.92606 0.298155 0
M  V30 3642 H 333.75 -3.02672 -0.761312 0
M  V30 3643 N 334.051 0.0651679 -1.57465 0
M  V30 3644 C 334.983 1.10359 -2.00882 0
M  V30 3645 C 335.996 1.346 -0.915788 0
M  V30 3646 O 337.185 1.32723 -1.1936 0
M  V30 3647 C 334.285 2.45312 -2.33828 0
M  V30 3648 C 333.458 2.40934 -3.65061 0
M  V30 3649 C 332.517 3.58047 -3.85602 0
M  V30 3650 O 331.543 3.39175 -4.57109 0
M  V30 3651 N 332.745 4.78637 -3.28462 0
M  V30 3652 H 335.51 0.733807 -2.90578 0
M  V30 3653 H 333.071 0.253719 -1.599 0
M  V30 3654 H 335.063 3.22314 -2.44737 0
M  V30 3655 H 333.633 2.74267 -1.49988 0
M  V30 3656 H 332.853 1.49273 -3.64844 0
M  V30 3657 H 334.141 2.35117 -4.51218 0
M  V30 3658 H 333.539 4.96872 -2.70433 0
M  V30 3659 H 332.096 5.53127 -3.44809 0
M  V30 3660 N 335.529 1.53961 0.336706 0
M  V30 3661 C 336.757 1.75483 1.09605 0
M  V30 3662 C 337.172 0.4972 1.82136 0
M  V30 3663 O 336.529 -0.53149 1.74589 0
M  V30 3664 C 336.58 2.93943 2.10428 0
M  V30 3665 O 336.301 4.14842 1.40846 0
M  V30 3666 C 337.802 3.27571 2.98684 0
M  V30 3667 H 335.022 0.586166 0.326574 0
M  V30 3668 H 337.566 2.00808 0.38683 0
M  V30 3669 H 335.721 2.70929 2.76905 0
M  V30 3670 H 336.135 4.81383 2.08255 0
M  V30 3671 H 337.609 4.13791 3.6535 0
M  V30 3672 H 338.086 2.44168 3.65074 0
M  V30 3673 H 338.692 3.52615 2.37787 0
M  V30 3674 N 337.007 -0.598083 1.45811 0
M  V30 3675 C 337.955 -1.72932 1.55555 0
M  V30 3676 C 338.949 -1.63984 0.424921 0
M  V30 3677 O 340.155 -1.69663 0.601205 0
M  V30 3678 H 336.53 -0.571489 0.488779 0
M  V30 3679 H 338.501 -1.61842 2.50699 0
M  V30 3680 C 337.25 -3.11318 1.54843 0
M  V30 3681 H 336.573 -3.18867 2.41172 0
M  V30 3682 H 338.013 -3.90274 1.65717 0
M  V30 3683 C 336.472 -3.3578 0.274427 0
M  V30 3684 O 337.002 -3.9654 -0.641778 0
M  V30 3685 N 335.208 -2.90119 0.167139 0
M  V30 3686 H 334.755 -2.40855 0.913596 0
M  V30 3687 H 334.713 -3.0686 -0.684435 0
M  V30 3688 N 338.485 -1.33259 -0.841409 0
M  V30 3689 C 339.734 -1.23921 -1.59143 0
M  V30 3690 C 340.047 0.1941 -1.94635 0
M  V30 3691 O 341.253 0.409474 -2.68394 0
M  V30 3692 C 339.709 -2.17119 -2.87032 0
M  V30 3693 C 339.317 -3.65606 -2.58914 0
M  V30 3694 C 341.061 -2.16648 -3.65053 0
M  V30 3695 C 338.968 -4.50726 -3.82884 0
M  V30 3696 H 337.898 -0.460264 -0.597221 0
M  V30 3697 H 340.549 -1.58307 -0.927959 0
M  V30 3698 H 338.931 -1.75663 -3.54906 0
M  V30 3699 H 340.105 -4.15487 -1.99267 0
M  V30 3700 H 338.42 -3.68341 -1.942 0
M  V30 3701 H 341.017 -2.77474 -4.57069 0
M  V30 3702 H 341.36 -1.16088 -3.99787 0
M  V30 3703 H 341.893 -2.56453 -3.041 0
M  V30 3704 H 338.632 -5.52151 -3.53283 0
M  V30 3705 H 338.152 -4.0559 -4.41879 0
M  V30 3706 H 339.831 -4.64401 -4.50489 0
M  V30 3707 N 339.963 1.05934 -1.16686 0
M  V30 3708 C 341.211 1.78447 -0.948744 0
M  V30 3709 C 341.532 1.87813 0.524523 0
M  V30 3710 O 340.802 1.38945 1.38098 0
M  V30 3711 H 339.382 0.660971 -0.348033 0
M  V30 3712 H 342.044 1.27947 -1.47022 0
M  V30 3713 H 341.14 2.80394 -1.37061 0
M  V30 3714 N 341.441 0.965919 1.2453 0
M  V30 3715 C 342.689 0.625593 1.92174 0
M  V30 3716 C 343.01 -0.841652 1.75901 0
M  V30 3717 O 342.28 -1.60061 1.12948 0
M  V30 3718 H 340.86 0.228388 0.71123 0
M  V30 3719 H 343.522 1.2266 1.51461 0
M  V30 3720 H 342.618 0.864653 2.99884 0
M  V30 3721 N 342.919 -1.39368 0.735821 0
M  V30 3722 C 343.866 -2.30599 0.0963825 0
M  V30 3723 C 344.836 -1.49257 -0.728794 0
M  V30 3724 O 346.021 -1.77941 -0.688588 0
M  V30 3725 C 343.161 -3.35596 -0.804305 0
M  V30 3726 C 342.274 -4.31987 0.0335761 0
M  V30 3727 C 341.409 -5.24053 -0.868461 0
M  V30 3728 C 340.448 -6.12095 -0.0258776 0
M  V30 3729 N 339.585 -6.96514 -0.883893 0
M  V30 3730 H 344.425 -2.8471 0.880002 0
M  V30 3731 H 341.962 -1.40188 0.445619 0
M  V30 3732 H 343.92 -3.95062 -1.34096 0
M  V30 3733 H 342.55 -2.82938 -1.55389 0
M  V30 3734 H 341.602 -3.74133 0.68766 0
M  V30 3735 H 342.914 -4.94074 0.685036 0
M  V30 3736 H 342.068 -5.88549 -1.47293 0
M  V30 3737 H 340.807 -4.62289 -1.5537 0
M  V30 3738 H 339.812 -5.4661 0.591386 0
M  V30 3739 H 341.037 -6.75923 0.656156 0
M  V30 3740 H 338.983 -6.37318 -1.55441 0
M  V30 3741 H 338.9 -7.55448 -0.288931 0
M  V30 3742 H 340.168 -7.65439 -1.4739 0
M  V30 3743 N 344.397 -0.483516 -1.5 0
M  V30 3744 C 345.645 0.067027 -2.01989 0
M  V30 3745 C 345.966 1.3909 -1.36671 0
M  V30 3746 O 345.236 1.88978 -0.516152 0
M  V30 3747 H 343.816 0.0277606 -0.746484 0
M  V30 3748 H 346.478 -0.636773 -1.84204 0
M  V30 3749 H 345.574 0.209484 -3.11396 0
M  V30 3750 N 345.875 1.56104 -0.216619 0
M  V30 3751 C 347.123 1.97781 0.415593 0
M  V30 3752 C 347.444 1.10536 1.60645 0
M  V30 3753 O 346.714 0.181303 1.95059 0
M  V30 3754 H 345.294 0.730415 0.156534 0
M  V30 3755 H 347.956 1.92445 -0.308366 0
M  V30 3756 H 347.052 3.03072 0.74525 0
M  V30 3757 N 347.353 -0.0568162 1.57498 0
M  V30 3758 C 348.581 -0.765626 1.92213 0
M  V30 3759 C 348.996 -1.70353 0.813961 0
M  V30 3760 O 348.353 -1.81268 -0.211701 0
M  V30 3761 C 348.404 -1.5465 3.2675 0
M  V30 3762 O 348.125 -0.646278 4.33307 0
M  V30 3763 C 349.626 -2.35497 3.75574 0
M  V30 3764 H 346.846 -0.216835 0.634999 0
M  V30 3765 H 349.39 -0.0226146 2.04487 0
M  V30 3766 H 347.545 -2.24165 3.15957 0
M  V30 3767 H 347.959 -1.19093 5.108 0
M  V30 3768 H 349.433 -2.85722 4.72299 0
M  V30 3769 H 349.91 -3.15692 3.05344 0
M  V30 3770 H 350.516 -1.7111 3.8936 0
M  V30 3771 N 348.832 -1.54138 -0.328536 0
M  V30 3772 C 350.248 -1.44736 -0.672574 0
M  V30 3773 C 350.448 -0.616217 -1.91846 0
M  V30 3774 O 349.504 -0.113067 -2.52247 0
M  V30 3775 C 350.817 -2.884 -0.851217 0
M  V30 3776 C 352.365 -2.98271 -0.948877 0
M  V30 3777 C 352.84 -4.43074 -1.15973 0
M  V30 3778 N 354.331 -4.46665 -1.22658 0
M  V30 3779 C 355.066 -5.55857 -1.40751 0
M  V30 3780 N 354.562 -6.75026 -1.5592 0
M  V30 3781 N 356.355 -5.43495 -1.4342 0
M  V30 3782 H 348.506 -2.06661 0.490421 0
M  V30 3783 H 350.769 -0.934812 0.157579 0
M  V30 3784 H 350.475 -3.51699 -0.00704236 0
M  V30 3785 H 350.349 -3.34225 -1.74853 0
M  V30 3786 H 352.736 -2.35102 -1.78356 0
M  V30 3787 H 352.817 -2.55785 -0.0281435 0
M  V30 3788 H 352.461 -5.06827 -0.329915 0
M  V30 3789 H 352.391 -4.83165 -2.09426 0
M  V30 3790 H 354.882 -3.60797 -1.124 0
M  V30 3791 H 355.195 -7.54004 -1.69404 0
M  V30 3792 H 353.54 -6.77944 -1.53027 0
M  V30 3793 H 356.731 -4.49349 -1.31162 0
M  V30 3794 H 356.904 -6.28649 -1.57178 0
M  V30 3795 N 350.31 0.590341 -1.46126 0
M  V30 3796 C 351.559 1.34499 -1.50309 0
M  V30 3797 C 351.872 1.94977 -0.156021 0
M  V30 3798 O 353.078 2.71395 -0.0756037 0
M  V30 3799 C 351.534 2.43723 -2.64815 0
M  V30 3800 C 351.142 1.89582 -4.0591 0
M  V30 3801 C 352.886 3.20579 -2.78262 0
M  V30 3802 C 350.793 2.9639 -5.11769 0
M  V30 3803 H 349.723 0.505593 -0.559368 0
M  V30 3804 H 352.374 0.630848 -1.72315 0
M  V30 3805 H 350.756 3.17902 -2.36124 0
M  V30 3806 H 351.93 1.21997 -4.44357 0
M  V30 3807 H 350.245 1.25418 -3.97063 0
M  V30 3808 H 352.842 4.00276 -3.54519 0
M  V30 3809 H 353.185 3.72684 -1.85505 0
M  V30 3810 H 353.718 2.53505 -3.06562 0
M  V30 3811 H 350.457 2.49181 -6.06291 0
M  V30 3812 H 349.977 3.62487 -4.77873 0
M  V30 3813 H 351.656 3.60474 -5.37278 0
M  V30 3814 N 351.788 1.33704 0.83433 0
M  V30 3815 C 353.199 1.22813 1.4062 0
M  V30 3816 C 353.55 -0.151107 1.95617 0
M  V30 3817 O 352.675 -1.05092 1.89168 0
M  V30 3818 C 353.27 2.22355 2.55624 0
M  V30 3819 C 351.829 2.1529 3.08751 0
M  V30 3820 C 350.976 2.09589 1.8157 0
M  V30 3821 H 353.927 1.45236 0.639702 0
M  V30 3822 H 353.948 1.83391 3.33389 0
M  V30 3823 H 353.46 3.22728 2.15566 0
M  V30 3824 H 351.561 1.18235 3.53343 0
M  V30 3825 H 351.674 3.06038 3.68616 0
M  V30 3826 H 350.038 1.55134 2.02004 0
M  V30 3827 H 350.821 3.11777 1.43701 0
M  V30 3828 N 353.266 -1.05314 1.17247 0
M  V30 3829 C 354.515 -1.77685 0.954521 0
M  V30 3830 C 354.828 -1.88616 -0.518025 0
M  V30 3831 O 356.034 -2.57714 -0.854144 0
M  V30 3832 C 354.49 -3.19402 1.65863 0
M  V30 3833 C 354.098 -3.16605 3.16963 0
M  V30 3834 C 355.842 -3.96237 1.52303 0
M  V30 3835 C 353.749 -4.53103 3.80068 0
M  V30 3836 H 352.679 -0.666 0.353496 0
M  V30 3837 H 355.33 -1.1805 1.40486 0
M  V30 3838 H 353.712 -3.79355 1.13602 0
M  V30 3839 H 354.886 -2.66176 3.76148 0
M  V30 3840 H 353.201 -2.53268 3.30521 0
M  V30 3841 H 355.798 -4.97157 1.96822 0
M  V30 3842 H 356.141 -4.136 0.473401 0
M  V30 3843 H 356.674 -3.42829 2.01775 0
M  V30 3844 H 353.413 -4.40946 4.85023 0
M  V30 3845 H 352.933 -5.03686 3.2567 0
M  V30 3846 H 354.612 -5.22045 3.82202 0
M  V30 3847 N 354.744 -0.972509 -1.24016 0
M  V30 3848 C 355.969 -0.654417 -1.96805 0
M  V30 3849 C 356.394 0.770398 -1.716 0
M  V30 3850 O 355.752 1.52361 -0.982647 0
M  V30 3851 C 355.8 -0.941031 -3.48105 0
M  V30 3852 O 354.904 -0.0289472 -4.1239 0
M  V30 3853 H 354.245 -0.24692 -0.616382 0
M  V30 3854 H 356.775 -1.30396 -1.57664 0
M  V30 3855 H 356.785 -0.87452 -3.98517 0
M  V30 3856 H 355.46 -1.97939 -3.65777 0
M  V30 3857 H 354.037 -0.149192 -3.72601 0
M  V30 3858 N 356.222 1.38976 -0.743202 0
M  V30 3859 C 357.47 1.99948 -0.29417 0
M  V30 3860 C 357.791 1.59279 1.12495 0
M  V30 3861 O 357.061 0.844808 1.76748 0
M  V30 3862 H 355.641 0.739473 -0.105774 0
M  V30 3863 H 358.303 1.699 -0.954986 0
M  V30 3864 H 357.399 3.10142 -0.349056 0
M  V30 3865 N 357.7 0.491464 1.49741 0
M  V30 3866 C 358.949 -0.0582189 2.01616 0
M  V30 3867 C 359.262 -1.38927 1.3769 0
M  V30 3868 O 360.468 -2.02509 1.80838 0
M  V30 3869 C 358.924 -0.154235 3.59569 0
M  V30 3870 C 358.532 1.1696 4.32463 0
M  V30 3871 C 360.276 -0.65479 4.1942 0
M  V30 3872 C 358.183 1.03627 5.8225 0
M  V30 3873 H 357.113 -0.0255317 0.753568 0
M  V30 3874 H 359.764 0.629445 1.72367 0
M  V30 3875 H 358.146 -0.906138 3.85493 0
M  V30 3876 H 359.32 1.93405 4.18248 0
M  V30 3877 H 357.635 1.60285 3.84315 0
M  V30 3878 H 360.232 -0.771903 5.29099 0
M  V30 3879 H 360.575 -1.65127 3.8215 0
M  V30 3880 H 361.108 0.040304 3.9778 0
M  V30 3881 H 357.847 2.00672 6.24028 0
M  V30 3882 H 357.367 0.312546 5.98985 0
M  V30 3883 H 359.046 0.711114 6.4308 0
M  V30 3884 N 359.178 -1.55987 0.224894 0
M  V30 3885 C 360.141 -2.19178 -0.670348 0
M  V30 3886 C 361.141 -1.15461 -1.11917 0
M  V30 3887 O 362.331 -1.40675 -1.02743 0
M  V30 3888 C 359.463 -2.81777 -1.9187 0
M  V30 3889 H 360.656 -2.99662 -0.119364 0
M  V30 3890 H 358.209 -1.5628 -0.0247128 0
M  V30 3891 H 358.944 -2.05172 -2.51147 0
M  V30 3892 H 358.729 -3.57732 -1.60531 0
M  V30 3893 H 360.219 -3.30205 -2.55645 0
M  V30 3894 N 360.656 0.0484629 -1.57525 0
M  V30 3895 C 361.904 0.741657 -1.88 0
M  V30 3896 C 362.225 1.76918 -0.820054 0
M  V30 3897 O 361.495 1.95335 0.148661 0
M  V30 3898 H 360.075 0.276908 -0.69378 0
M  V30 3899 H 362.737 0.019013 -1.94891 0
M  V30 3900 H 361.833 1.24336 -2.86264 0
M  V30 3901 N 362.134 1.5431 0.320358 0
M  V30 3902 C 363.411 1.63322 1.07635 0
M  V30 3903 C 363.791 0.46912 2.05821 0
M  V30 3904 O 363.139 -0.536274 2.22118 0
M  V30 3905 C 363.349 3.00465 1.77544 0
M  V30 3906 C 364.697 3.56621 2.30449 0
M  V30 3907 O 365.721 3.02791 1.87606 0
M  V30 3908 O 364.58 4.5083 3.08892 0
M  V30 3909 H 361.674 0.661502 0.496331 0
M  V30 3910 H 364.22 1.66656 0.319992 0
M  V30 3911 H 362.992 3.76629 1.06143 0
M  V30 3912 H 362.615 3.00824 2.59982 0
M  V30 3913 N 363.613 -0.582584 1.46437 0
M  V30 3914 C 364.545 -1.70618 1.53043 0
M  V30 3915 C 365.558 -1.57322 0.418769 0
M  V30 3916 O 366.747 -1.64744 0.687136 0
M  V30 3917 C 363.847 -3.08869 1.39474 0
M  V30 3918 C 363.02 -3.48166 2.64762 0
M  V30 3919 C 362.079 -4.65478 2.4539 0
M  V30 3920 O 361.105 -4.71333 3.19114 0
M  V30 3921 N 362.307 -5.60365 1.51564 0
M  V30 3922 H 365.072 -1.65405 2.49923 0
M  V30 3923 H 362.633 -0.768567 1.42494 0
M  V30 3924 H 364.625 -3.85143 1.24287 0
M  V30 3925 H 363.195 -3.08449 0.507758 0
M  V30 3926 H 362.415 -2.61598 2.9489 0
M  V30 3927 H 363.703 -3.71188 3.4799 0
M  V30 3928 H 363.101 -5.5837 0.907705 0
M  V30 3929 H 361.658 -6.36068 1.4234 0
M  V30 3930 N 365.091 -1.34144 -0.827227 0
M  V30 3931 C 366.023 -1.21206 -1.9453 0
M  V30 3932 C 367.036 -0.140176 -1.62195 0
M  V30 3933 O 368.225 -0.391647 -1.7415 0
M  V30 3934 C 365.325 -0.839141 -3.28347 0
M  V30 3935 C 364.498 -2.0051 -3.88734 0
M  V30 3936 C 363.557 -1.61128 -5.00923 0
M  V30 3937 O 362.583 -2.32726 -5.19449 0
M  V30 3938 N 363.785 -0.522958 -5.7814 0
M  V30 3939 H 366.55 -2.17525 -2.06162 0
M  V30 3940 H 364.111 -1.27043 -1.00358 0
M  V30 3941 H 366.103 -0.557556 -4.00841 0
M  V30 3942 H 364.673 0.0337293 -3.12582 0
M  V30 3943 H 363.893 -2.45166 -3.08686 0
M  V30 3944 H 365.181 -2.78498 -4.25812 0
M  V30 3945 H 364.579 0.0723518 -5.65654 0
M  V30 3946 H 363.136 -0.301089 -6.51104 0
M  V30 3947 N 366.569 1.04691 -1.17803 0
M  V30 3948 C 367.532 2.10724 -0.901545 0
M  V30 3949 C 368.532 1.6042 0.110437 0
M  V30 3950 O 369.722 1.7377 -0.122303 0
M  V30 3951 C 366.854 3.39084 -0.351409 0
M  V30 3952 H 368.047 2.36686 -1.84174 0
M  V30 3953 H 365.6 1.21015 -0.98919 0
M  V30 3954 H 366.335 3.18782 0.59569 0
M  V30 3955 H 366.12 3.76909 -1.08083 0
M  V30 3956 H 367.61 4.17227 -0.176451 0
M  V30 3957 N 368.047 0.979072 1.23499 0
M  V30 3958 C 369.01 0.523244 2.23147 0
M  V30 3959 C 370.01 -0.386406 1.56088 0
M  V30 3960 O 371.2 -0.180283 1.73265 0
M  V30 3961 C 368.332 -0.240739 3.40049 0
M  V30 3962 H 369.525 1.40432 2.64989 0
M  V30 3963 H 367.078 0.764824 1.36309 0
M  V30 3964 H 367.813 -1.13841 3.03662 0
M  V30 3965 H 367.598 0.412207 3.89927 0
M  V30 3966 H 369.088 -0.548297 4.13985 0
M  V30 3967 N 369.525 -1.3858 0.750561 0
M  V30 3968 C 370.455 -2.33102 0.136237 0
M  V30 3969 C 371.436 -1.54713 -0.706965 0
M  V30 3970 O 372.621 -1.83043 -0.648769 0
M  V30 3971 C 369.751 -3.38882 -0.760017 0
M  V30 3972 C 368.705 -4.27995 -0.0197785 0
M  V30 3973 C 368.031 -5.24605 -1.03408 0
M  V30 3974 C 369.331 -5.09554 1.14684 0
M  V30 3975 H 371.025 -2.84726 0.925822 0
M  V30 3976 H 368.571 -1.36898 0.446654 0
M  V30 3977 H 370.524 -4.0397 -1.19943 0
M  V30 3978 H 369.248 -2.85734 -1.58189 0
M  V30 3979 H 367.907 -3.64409 0.400184 0
M  V30 3980 H 367.555 -4.67746 -1.84994 0
M  V30 3981 H 367.255 -5.85081 -0.543464 0
M  V30 3982 H 368.779 -5.9257 -1.47288 0
M  V30 3983 H 370.193 -5.67899 0.785118 0
M  V30 3984 H 368.59 -5.7925 1.56812 0
M  V30 3985 H 369.66 -4.4347 1.96118 0
M  V30 3986 N 371.003 -0.499398 -1.49478 0
M  V30 3987 C 372.25 0.0456899 -2.02448 0
M  V30 3988 C 372.578 1.37142 -1.37921 0
M  V30 3989 O 371.833 1.89111 -0.503544 0
M  V30 3990 C 372.132 0.248424 -3.56536 0
M  V30 3991 C 371.798 -0.999107 -4.39692 0
M  V30 3992 C 370.46 -1.34108 -4.62135 0
M  V30 3993 C 372.812 -1.82842 -4.88076 0
M  V30 3994 C 370.14 -2.51191 -5.30208 0
M  V30 3995 C 372.492 -2.99076 -5.57437 0
M  V30 3996 C 371.156 -3.33655 -5.78127 0
M  V30 3997 H 370.426 0.0167191 -0.740811 0
M  V30 3998 H 373.073 -0.65923 -1.79795 0
M  V30 3999 H 371.378 1.03586 -3.77859 0
M  V30 4000 H 373.075 0.684605 -3.95113 0
M  V30 4001 H 369.665 -0.722729 -4.22463 0
M  V30 4002 H 373.849 -1.57737 -4.70566 0
M  V30 4003 H 369.105 -2.78221 -5.44429 0
M  V30 4004 H 373.279 -3.63664 -5.93904 0
M  V30 4005 H 370.906 -4.24483 -6.30649 0
M  V30 4006 N 372.481 1.55866 -0.233164 0
M  V30 4007 C 373.729 1.9821 0.394593 0
M  V30 4008 C 374.05 1.12234 1.59463 0
M  V30 4009 O 373.32 0.201981 1.94856 0
M  V30 4010 H 371.9 0.732034 0.148778 0
M  V30 4011 H 374.562 1.92107 -0.32876 0
M  V30 4012 H 373.658 3.03845 0.713063 0
M  V30 4013 N 373.959 -0.0401083 1.57549 0
M  V30 4014 C 374.891 -1.07149 2.02612 0
M  V30 4015 C 375.904 -1.33126 0.937085 0
M  V30 4016 O 377.093 -1.30808 1.21456 0
M  V30 4017 C 374.193 -2.41561 2.37701 0
M  V30 4018 C 373.366 -2.35096 3.68848 0
M  V30 4019 C 372.425 -3.51867 3.91249 0
M  V30 4020 O 371.451 -3.3186 4.62447 0
M  V30 4021 N 372.653 -4.73351 3.36035 0
M  V30 4022 H 375.418 -0.687485 2.91708 0
M  V30 4023 H 372.979 -0.228248 1.60283 0
M  V30 4024 H 374.971 -3.18379 2.49833 0
M  V30 4025 H 373.541 -2.71846 1.54332 0
M  V30 4026 H 372.761 -1.4345 3.67173 0
M  V30 4027 H 374.049 -2.27908 4.54901 0
M  V30 4028 H 373.447 -4.92507 2.78304 0
M  V30 4029 H 372.004 -5.47572 3.53565 0
M  V30 4030 N 375.437 -1.54477 -0.31217 0
M  V30 4031 C 376.367 -1.87652 -1.38957 0
M  V30 4032 C 377.348 -0.734358 -1.53431 0
M  V30 4033 O 378.533 -0.98911 -1.67123 0
M  V30 4034 C 375.663 -2.11396 -2.75552 0
M  V30 4035 C 374.617 -3.27243 -2.75855 0
M  V30 4036 C 373.943 -3.36382 -4.15633 0
M  V30 4037 C 375.243 -4.64622 -2.38587 0
M  V30 4038 H 376.937 -2.77887 -1.11442 0
M  V30 4039 H 374.483 -1.33707 -0.534655 0
M  V30 4040 H 376.436 -2.33189 -3.51 0
M  V30 4041 H 375.16 -1.17921 -3.04569 0
M  V30 4042 H 373.819 -3.05356 -2.02863 0
M  V30 4043 H 373.467 -2.40445 -4.41809 0
M  V30 4044 H 373.167 -4.14249 -4.1674 0
M  V30 4045 H 374.691 -3.60422 -4.92877 0
M  V30 4046 H 376.105 -4.86219 -3.03749 0
M  V30 4047 H 374.502 -5.45121 -2.50925 0
M  V30 4048 H 375.572 -4.66097 -1.33723 0
M  V30 4049 N 376.915 0.57481 -1.46744 0
M  V30 4050 C 378.155 1.34369 -1.54027 0
M  V30 4051 C 378.519 1.91051 -0.190642 0
M  V30 4052 O 379.72 2.68444 -0.138255 0
M  V30 4053 C 377.991 2.43706 -2.61423 0
M  V30 4054 S 379.55 3.30915 -2.88167 0
M  V30 4055 H 376.368 0.45768 -0.544105 0
M  V30 4056 H 378.97 0.659959 -1.84024 0
M  V30 4057 H 377.674 2.0047 -3.58106 0
M  V30 4058 H 377.205 3.16842 -2.33184 0
M  V30 4059 H 379.22 4.42742 -2.24039 0
M  V30 4060 N 378.394 1.34581 0.820102 0
M  V30 4061 C 379.64 1.27285 1.57881 0
M  V30 4062 C 379.973 -0.156137 1.93571 0
M  V30 4063 O 379.248 -1.10222 1.60254 0
M  V30 4064 C 379.531 2.16639 2.87645 0
M  V30 4065 C 379.384 3.68088 2.58517 0
M  V30 4066 C 380.703 2.05378 3.8924 0
M  V30 4067 H 377.822 0.463714 0.572833 0
M  V30 4068 H 380.464 1.64859 0.944539 0
M  V30 4069 H 378.614 1.84725 3.41773 0
M  V30 4070 H 380.286 4.10382 2.10676 0
M  V30 4071 H 378.529 3.89038 1.91917 0
M  V30 4072 H 379.2 4.2598 3.51063 0
M  V30 4073 H 381.676 2.33404 3.44473 0
M  V30 4074 H 380.552 2.7012 4.77835 0
M  V30 4075 H 380.813 1.0316 4.29896 0
M  V30 4076 N 379.872 -1.04064 1.18357 0
M  V30 4077 C 380.819 -2.12077 0.910603 0
M  V30 4078 C 381.789 -1.65421 -0.15 0
M  V30 4079 O 382.974 -1.90797 -0.0103614 0
M  V30 4080 C 380.114 -3.42252 0.442472 0
M  V30 4081 C 379.227 -4.0252 1.5685 0
M  V30 4082 C 378.362 -5.20657 1.05309 0
M  V30 4083 C 377.401 -5.72955 2.1538 0
M  V30 4084 N 376.538 -6.8238 1.65233 0
M  V30 4085 H 381.378 -2.34764 1.83548 0
M  V30 4086 H 378.915 -1.15157 0.915279 0
M  V30 4087 H 380.873 -4.16921 0.152534 0
M  V30 4088 H 379.503 -3.19712 -0.445428 0
M  V30 4089 H 378.555 -3.25178 1.97391 0
M  V30 4090 H 379.867 -4.37362 2.39824 0
M  V30 4091 H 379.021 -6.0244 0.717677 0
M  V30 4092 H 377.76 -4.87318 0.19293 0
M  V30 4093 H 376.765 -4.89793 2.49766 0
M  V30 4094 H 377.99 -6.08337 3.01832 0
M  V30 4095 H 375.936 -6.50917 0.815064 0
M  V30 4096 H 375.853 -7.16286 2.41805 0
M  V30 4097 H 377.121 -7.67788 1.34619 0
M  V30 4098 N 381.35 -0.985608 -1.22978 0
M  V30 4099 C 382.26 -0.538548 -2.28335 0
M  V30 4100 C 383.276 0.409163 -1.69121 0
M  V30 4101 O 384.452 0.277797 -1.99475 0
M  V30 4102 C 381.517 0.146867 -3.46389 0
M  V30 4103 C 380.578 -0.842896 -4.20944 0
M  V30 4104 C 379.811 -0.190095 -5.33361 0
M  V30 4105 O 380.034 1.01767 -5.61248 0
M  V30 4106 O 378.968 -0.891289 -5.95264 0
M  V30 4107 H 382.794 -1.41487 -2.68729 0
M  V30 4108 H 380.379 -0.753495 -1.29007 0
M  V30 4109 H 382.261 0.531125 -4.1804 0
M  V30 4110 H 380.936 0.997871 -3.07935 0
M  V30 4111 H 379.843 -1.27795 -3.51595 0
M  V30 4112 H 381.176 -1.66287 -4.6326 0
M  V30 4113 N 382.828 1.3818 -0.7579 0
M  V30 4114 C 384.076 1.99624 -0.315361 0
M  V30 4115 C 384.397 1.60464 1.10799 0
M  V30 4116 O 383.667 0.863507 1.75842 0
M  V30 4117 H 382.247 0.73831 -0.113611 0
M  V30 4118 H 384.909 1.68878 -0.972952 0
M  V30 4119 H 384.005 3.09754 -0.381931 0
M  V30 4120 N 384.306 0.507319 1.49211 0
M  V30 4121 C 385.239 -0.314509 2.26022 0
M  V30 4122 C 386.217 -0.964849 1.30879 0
M  V30 4123 O 387.401 -0.993707 1.6018 0
M  V30 4124 C 384.528 -1.44346 3.06402 0
M  V30 4125 C 383.574 -0.90685 4.16748 0
M  V30 4126 S 384.407 0.207392 5.35098 0
M  V30 4127 C 385.563 -0.924573 6.19033 0
M  V30 4128 H 385.796 0.337416 2.95379 0
M  V30 4129 H 383.329 0.292718 1.516 0
M  V30 4130 H 385.287 -2.09029 3.53295 0
M  V30 4131 H 383.948 -2.06702 2.36502 0
M  V30 4132 H 383.141 -1.75309 4.72528 0
M  V30 4133 H 382.743 -0.33712 3.72478 0
M  V30 4134 H 385.035 -1.82839 6.52362 0
M  V30 4135 H 385.978 -0.405248 7.06939 0
M  V30 4136 H 386.386 -1.19476 5.51712 0
M  V30 4137 N 385.784 -1.5574 0.241426 0
M  V30 4138 C 386.747 -2.19877 -0.647063 0
M  V30 4139 C 387.747 -1.16642 -1.10686 0
M  V30 4140 O 388.937 -1.41757 -1.01245 0
M  V30 4141 C 386.069 -2.83797 -1.88871 0
M  V30 4142 H 387.262 -2.99772 -0.087574 0
M  V30 4143 H 384.815 -1.56298 -0.00813574 0
M  V30 4144 H 385.55 -2.07824 -2.48957 0
M  V30 4145 H 385.335 -3.59414 -1.56728 0
M  V30 4146 H 386.825 -3.32898 -2.52129 0
M  V30 4147 N 387.262 0.0317525 -1.57568 0
M  V30 4148 C 388.209 1.0332 -2.06382 0
M  V30 4149 C 389.179 1.36082 -0.952414 0
M  V30 4150 O 390.364 1.46466 -1.2228 0
M  V30 4151 C 387.504 2.32989 -2.54578 0
M  V30 4152 C 386.617 2.0641 -3.79498 0
M  V30 4153 C 385.752 3.2993 -4.16317 0
M  V30 4154 C 384.791 2.98893 -5.34162 0
M  V30 4155 N 383.928 4.14857 -5.66426 0
M  V30 4156 H 388.768 0.609982 -2.9169 0
M  V30 4157 H 386.305 0.289573 -1.44222 0
M  V30 4158 H 388.263 3.0875 -2.80587 0
M  V30 4159 H 386.893 2.73039 -1.7219 0
M  V30 4160 H 385.945 1.21158 -3.6059 0
M  V30 4161 H 387.257 1.79513 -4.65378 0
M  V30 4162 H 386.411 4.1406 -4.4344 0
M  V30 4163 H 385.15 3.59938 -3.29083 0
M  V30 4164 H 384.155 2.13164 -5.06795 0
M  V30 4165 H 385.38 2.70165 -6.23047 0
M  V30 4166 H 383.326 4.44821 -4.82151 0
M  V30 4167 H 383.243 3.91374 -6.4681 0
M  V30 4168 H 384.511 4.99868 -5.98124 0
M  V30 4169 N 388.74 1.54641 0.303973 0
M  V30 4170 C 389.688 1.86137 1.39484 0
M  V30 4171 C 390.682 0.734854 1.52631 0
M  V30 4172 O 391.888 0.918803 1.54784 0
M  V30 4173 H 388.263 0.590324 0.465856 0
M  V30 4174 H 390.234 2.77324 1.10154 0
M  V30 4175 C 388.983 2.12274 2.75382 0
M  V30 4176 H 388.306 2.98429 2.66046 0
M  V30 4177 H 389.746 2.38254 3.5073 0
M  V30 4178 C 388.205 0.920365 3.24085 0
M  V30 4179 O 388.735 0.139377 4.01458 0
M  V30 4180 N 386.941 0.726566 2.81371 0
M  V30 4181 H 386.488 1.36332 2.18567 0
M  V30 4182 H 386.446 -0.0763799 3.14307 0
M  V30 4183 N 390.218 -0.567019 1.47046 0
M  V30 4184 C 391.446 -1.35027 1.56765 0
M  V30 4185 C 391.861 -1.8758 0.214316 0
M  V30 4186 O 391.218 -1.64471 -0.790919 0
M  V30 4187 C 391.269 -2.52698 2.58507 0
M  V30 4188 O 390.99 -2.0232 3.88585 0
M  V30 4189 C 392.491 -3.45043 2.78316 0
M  V30 4190 H 389.711 -0.41195 0.529658 0
M  V30 4191 H 392.255 -0.687832 1.92585 0
M  V30 4192 H 390.41 -3.149 2.25648 0
M  V30 4193 H 390.824 -2.79068 4.44096 0
M  V30 4194 H 392.298 -4.2405 3.53391 0
M  V30 4195 H 392.775 -3.97971 1.85784 0
M  V30 4196 H 393.381 -2.88665 3.12334 0
M  V30 4197 N 391.696 -1.35014 -0.812953 0
M  V30 4198 C 392.926 -1.30841 -1.59888 0
M  V30 4199 C 393.334 0.117576 -1.88834 0
M  V30 4200 O 392.677 1.07807 -1.48739 0
M  V30 4201 C 392.739 -2.0412 -2.95931 0
M  V30 4202 C 392.403 -3.53336 -2.89832 0
M  V30 4203 C 393.4 -4.48052 -2.63714 0
M  V30 4204 C 391.085 -3.95894 -3.0915 0
M  V30 4205 C 393.079 -5.833 -2.56982 0
M  V30 4206 C 390.766 -5.31239 -3.0204 0
M  V30 4207 C 391.764 -6.24754 -2.75991 0
M  V30 4208 O 391.452 -7.57617 -2.68833 0
M  V30 4209 H 391.184 -0.451215 -0.50337 0
M  V30 4210 H 393.738 -1.78354 -1.01877 0
M  V30 4211 H 391.968 -1.51235 -3.559 0
M  V30 4212 H 393.657 -1.93107 -3.57022 0
M  V30 4213 H 394.423 -4.16492 -2.48515 0
M  V30 4214 H 390.302 -3.23495 -3.28438 0
M  V30 4215 H 393.846 -6.56263 -2.36569 0
M  V30 4216 H 389.743 -5.62415 -3.16796 0
M  V30 4217 H 390.511 -7.67469 -2.84487 0
M  V30 4218 N 393.175 1.03435 -1.18907 0
M  V30 4219 C 394.423 1.76394 -0.986382 0
M  V30 4220 C 394.744 1.88883 0.484567 0
M  V30 4221 O 394.014 1.41843 1.3512 0
M  V30 4222 H 392.594 0.65344 -0.361975 0
M  V30 4223 H 395.256 1.248 -1.49703 0
M  V30 4224 H 394.352 2.77424 -1.42978 0
M  V30 4225 N 394.653 0.992116 1.22453 0
M  V30 4226 C 395.881 0.685944 1.95198 0
M  V30 4227 C 396.296 -0.749233 1.73297 0
M  V30 4228 O 395.653 -1.50549 1.03156 0
M  V30 4229 C 395.704 0.981395 3.47924 0
M  V30 4230 O 395.425 2.36018 3.6909 0
M  V30 4231 C 396.926 0.692815 4.37853 0
M  V30 4232 H 394.146 0.253821 0.621141 0
M  V30 4233 H 396.69 1.32668 1.55626 0
M  V30 4234 H 394.845 0.386481 3.85467 0
M  V30 4235 H 395.259 2.45884 4.63294 0
M  V30 4236 H 396.733 0.949818 5.43767 0
M  V30 4237 H 397.21 -0.373181 4.37612 0
M  V30 4238 H 397.816 1.26874 4.05935 0
M  V30 4239 N 396.131 -1.37776 0.765217 0
M  V30 4240 C 397.379 -1.99454 0.325943 0
M  V30 4241 C 397.7 -1.61049 -1.09947 0
M  V30 4242 O 396.97 -0.872821 -1.75381 0
M  V30 4243 H 395.55 -0.737697 0.117525 0
M  V30 4244 H 398.212 -1.68359 0.981895 0
M  V30 4245 H 397.308 -3.09547 0.398353 0
M  V30 4246 N 397.609 -0.515225 -1.4894 0
M  V30 4247 C 398.849 0.0223983 -2.04388 0
M  V30 4248 C 399.213 1.32961 -1.38511 0
M  V30 4249 O 400.414 1.95236 -1.8476 0
M  V30 4250 C 398.685 0.157056 -3.57055 0
M  V30 4251 S 400.244 0.646875 -4.34006 0
M  V30 4252 H 397.062 -0.00500662 -0.710982 0
M  V30 4253 H 399.664 -0.69243 -1.82827 0
M  V30 4254 H 398.368 -0.799412 -4.02539 0
M  V30 4255 H 397.899 0.896704 -3.83044 0
M  V30 4256 H 399.914 1.91381 -4.57808 0
M  V30 4257 N 399.087 1.5561 -0.249682 0
M  V30 4258 C 400.334 1.99011 0.374287 0
M  V30 4259 C 400.662 1.13785 1.57744 0
M  V30 4260 O 399.917 0.189326 1.94782 0
M  V30 4261 C 400.216 3.4775 0.824887 0
M  V30 4262 C 399.882 4.50086 -0.270819 0
M  V30 4263 C 398.544 4.77791 -0.571746 0
M  V30 4264 C 400.896 5.11312 -1.01041 0
M  V30 4265 C 398.224 5.63997 -1.61629 0
M  V30 4266 C 400.576 5.98651 -2.0445 0
M  V30 4267 C 399.24 6.24688 -2.35204 0
M  V30 4268 H 398.51 0.728233 0.136961 0
M  V30 4269 H 401.157 1.88122 -0.358087 0
M  V30 4270 H 399.462 3.55985 1.63651 0
M  V30 4271 H 401.159 3.78721 1.31799 0
M  V30 4272 H 397.749 4.28592 -0.026136 0
M  V30 4273 H 401.933 4.89953 -0.791177 0
M  V30 4274 H 397.189 5.82425 -1.85988 0
M  V30 4275 H 401.363 6.45135 -2.62248 0
M  V30 4276 H 398.99 6.91281 -3.16282 0
M  V30 4277 N 400.565 -0.0233959 1.57583 0
M  V30 4278 C 401.498 -1.05549 2.02323 0
M  V30 4279 C 402.476 -1.34843 0.908626 0
M  V30 4280 O 403.66 -1.47404 1.17491 0
M  V30 4281 C 400.787 -2.38885 2.40108 0
M  V30 4282 C 399.833 -2.2541 3.62067 0
M  V30 4283 S 400.666 -1.60217 5.1097 0
M  V30 4284 C 401.822 -2.95032 5.52003 0
M  V30 4285 H 402.055 -0.674435 2.89549 0
M  V30 4286 H 399.588 -0.23355 1.52623 0
M  V30 4287 H 401.546 -3.15562 2.62547 0
M  V30 4288 H 400.207 -2.74137 1.53323 0
M  V30 4289 H 399.4 -3.23854 3.86179 0
M  V30 4290 H 399.002 -1.56876 3.39508 0
M  V30 4291 H 401.294 -3.91357 5.53033 0
M  V30 4292 H 402.237 -2.75646 6.52246 0
M  V30 4293 H 402.645 -2.97865 4.79517 0
M  V30 4294 N 402.043 -1.548 -0.295768 0
M  V30 4295 C 402.973 -1.89115 -1.36959 0
M  V30 4296 C 403.954 -0.75059 -1.52644 0
M  V30 4297 O 405.139 -1.00678 -1.66065 0
M  V30 4298 C 402.269 -2.14307 -2.73295 0
M  V30 4299 C 401.223 -3.30151 -2.72368 0
M  V30 4300 C 400.549 -3.40772 -4.12042 0
M  V30 4301 C 401.849 -4.67126 -2.33646 0
M  V30 4302 H 403.543 -2.79053 -1.08488 0
M  V30 4303 H 401.089 -1.34266 -0.520443 0
M  V30 4304 H 403.042 -2.36898 -3.48507 0
M  V30 4305 H 401.766 -1.21145 -3.03301 0
M  V30 4306 H 400.425 -3.0749 -1.99613 0
M  V30 4307 H 400.073 -2.45117 -4.39234 0
M  V30 4308 H 399.773 -4.18645 -4.12322 0
M  V30 4309 H 401.297 -3.6563 -4.89027 0
M  V30 4310 H 402.711 -4.89414 -2.98575 0
M  V30 4311 H 401.108 -5.47751 -2.45129 0
M  V30 4312 H 402.178 -4.67489 -1.28772 0
M  V30 4313 N 403.521 0.559213 -1.47345 0
M  V30 4314 C 404.454 1.68201 -1.5422 0
M  V30 4315 C 405.432 1.57742 -0.394497 0
M  V30 4316 O 406.616 1.78628 -0.60201 0
M  V30 4317 C 403.743 3.0643 -1.44285 0
M  V30 4318 C 402.789 3.3534 -2.63532 0
M  V30 4319 S 403.622 3.24816 -4.25741 0
M  V30 4320 C 404.778 4.65542 -4.18355 0
M  V30 4321 H 405.011 1.62114 -2.49211 0
M  V30 4322 H 402.544 0.739871 -1.35519 0
M  V30 4323 H 404.502 3.86164 -1.3924 0
M  V30 4324 H 403.163 3.09984 -0.506816 0
M  V30 4325 H 402.356 4.36107 -2.52639 0
M  V30 4326 H 401.958 2.63221 -2.65689 0
M  V30 4327 H 404.25 5.56449 -3.86485 0
M  V30 4328 H 405.193 4.81493 -5.19202 0
M  V30 4329 H 405.601 4.43495 -3.49246 0
M  V30 4330 N 404.999 1.35443 0.805782 0
M  V30 4331 C 405.947 1.28465 1.93906 0
M  V30 4332 C 406.941 0.17943 1.68447 0
M  V30 4333 O 408.147 0.345459 1.76654 0
M  V30 4334 H 404.522 0.399528 0.637088 0
M  V30 4335 H 406.493 2.24206 1.96912 0
M  V30 4336 C 405.242 1.07432 3.30687 0
M  V30 4337 H 404.565 1.91716 3.50835 0
M  V30 4338 H 406.005 1.06591 4.10383 0
M  V30 4339 C 404.464 -0.22179 3.36169 0
M  V30 4340 O 404.994 -1.21731 3.82811 0
M  V30 4341 N 403.2 -0.260841 2.89427 0
M  V30 4342 H 402.747 0.549884 2.51663 0
M  V30 4343 H 402.705 -1.12777 2.93477 0
M  V30 4344 N 406.477 -1.02803 1.19454 0
M  V30 4345 C 407.705 -1.79841 1.02297 0
M  V30 4346 C 408.12 -1.83879 -0.428259 0
M  V30 4347 O 407.477 -1.28345 -1.29745 0
M  V30 4348 C 407.528 -3.24852 1.58598 0
M  V30 4349 O 407.249 -3.21097 2.98041 0
M  V30 4350 C 408.75 -4.18485 1.46236 0
M  V30 4351 H 405.97 -0.565936 0.360496 0
M  V30 4352 H 408.514 -1.2948 1.58288 0
M  V30 4353 H 406.669 -3.72401 1.06753 0
M  V30 4354 H 407.083 -4.12033 3.24545 0
M  V30 4355 H 408.557 -5.18121 1.90407 0
M  V30 4356 H 409.034 -4.37254 0.41301 0
M  V30 4357 H 409.64 -3.76811 1.97215 0
M  V30 4358 N 407.956 -0.998596 -1.21925 0
M  V30 4359 C 409.204 -0.676325 -1.90448 0
M  V30 4360 C 409.525 0.794719 -1.78071 0
M  V30 4361 O 408.795 1.5701 -1.17152 0
M  V30 4362 H 407.375 -0.247165 -0.704925 0
M  V30 4363 H 410.037 -1.26633 -1.48156 0
M  V30 4364 H 409.133 -0.943858 -2.97486 0
M  V30 4365 N 409.434 1.37368 -0.772513 0
M  V30 4366 C 410.344 2.34053 -0.160081 0
M  V30 4367 C 411.36 1.60216 0.678728 0
M  V30 4368 O 412.536 1.92303 0.59847 0
M  V30 4369 C 409.601 3.3939 0.708182 0
M  V30 4370 C 408.662 4.29048 -0.147172 0
M  V30 4371 C 407.895 5.29354 0.679744 0
M  V30 4372 O 408.118 5.3723 1.91678 0
M  V30 4373 O 407.052 6.01835 0.0885444 0
M  V30 4374 H 410.878 2.88159 -0.959053 0
M  V30 4375 H 408.463 1.39543 -0.533685 0
M  V30 4376 H 410.345 4.03839 1.20384 0
M  V30 4377 H 409.02 2.8761 1.48533 0
M  V30 4378 H 407.927 3.67697 -0.689205 0
M  V30 4379 H 409.26 4.84134 -0.887423 0
M  V30 4380 N 410.912 0.523116 1.48665 0
M  V30 4381 C 411.859 -0.243398 2.29513 0
M  V30 4382 C 412.829 -0.940139 1.36933 0
M  V30 4383 O 414.014 -0.942503 1.65896 0
M  V30 4384 C 411.154 -1.28855 3.20141 0
M  V30 4385 C 410.267 -0.60135 4.27794 0
M  V30 4386 C 409.402 -1.62884 5.05611 0
M  V30 4387 C 408.441 -0.924726 6.05075 0
M  V30 4388 N 407.578 -1.89744 6.75975 0
M  V30 4389 H 412.418 0.452234 2.94549 0
M  V30 4390 H 409.955 0.234858 1.45213 0
M  V30 4391 H 411.913 -1.90674 3.71079 0
M  V30 4392 H 410.543 -1.95266 2.57043 0
M  V30 4393 H 409.595 0.130623 3.80176 0
M  V30 4394 H 410.907 -0.0481585 4.98777 0
M  V30 4395 H 410.061 -2.32149 5.60528 0
M  V30 4396 H 408.8 -2.21592 4.34452 0
M  V30 4397 H 407.805 -0.217966 5.49368 0
M  V30 4398 H 409.03 -0.343851 6.78229 0
M  V30 4399 H 406.976 -2.47373 6.07571 0
M  V30 4400 H 406.893 -1.3955 7.43009 0
M  V30 4401 H 408.161 -2.58229 7.35485 0
M  V30 4402 N 412.39 -1.55475 0.257931 0
M  V30 4403 C 413.353 -2.20551 -0.623706 0
M  V30 4404 C 414.353 -1.17809 -1.09443 0
M  V30 4405 O 415.543 -1.42823 -0.997362 0
M  V30 4406 C 412.675 -2.85784 -1.8585 0
M  V30 4407 H 413.868 -2.99848 -0.0557743 0
M  V30 4408 H 411.421 -1.56298 0.0084422 0
M  V30 4409 H 412.156 -2.10453 -2.46739 0
M  V30 4410 H 411.941 -3.61057 -1.52907 0
M  V30 4411 H 413.431 -3.35553 -2.48584 0
M  V30 4412 N 413.868 0.0150385 -1.57593 0
M  V30 4413 C 415.114 0.704043 -1.90187 0
M  V30 4414 C 415.447 1.74249 -0.857366 0
M  V30 4415 O 414.722 1.94092 0.125843 0
M  V30 4416 C 415.005 1.36087 -3.33395 0
M  V30 4417 C 414.858 0.334981 -4.48551 0
M  V30 4418 C 416.177 2.29112 -3.7576 0
M  V30 4419 H 413.296 0.254475 -0.691673 0
M  V30 4420 H 415.938 -0.0331678 -1.89971 0
M  V30 4421 H 414.088 1.98922 -3.3371 0
M  V30 4422 H 415.76 -0.292534 -4.60372 0
M  V30 4423 H 414.003 -0.344325 -4.32431 0
M  V30 4424 H 414.674 0.833316 -5.45674 0
M  V30 4425 H 417.15 1.76308 -3.76902 0
M  V30 4426 H 416.026 2.72043 -4.76743 0
M  V30 4427 H 416.287 3.16385 -3.08793 0
M  V30 4428 N 415.346 1.54954 0.287554 0
M  V30 4429 C 416.293 1.86834 1.35505 0
M  V30 4430 C 417.263 0.718452 1.49758 0
M  V30 4431 O 418.448 0.968358 1.644 0
M  V30 4432 C 415.588 2.13303 2.71286 0
M  V30 4433 C 414.701 3.40883 2.65373 0
M  V30 4434 C 413.836 3.57125 3.93236 0
M  V30 4435 C 412.875 4.78449 3.81776 0
M  V30 4436 N 412.012 4.91426 5.01443 0
M  V30 4437 H 416.852 2.77889 1.07619 0
M  V30 4438 H 414.389 1.37593 0.520241 0
M  V30 4439 H 416.347 2.26646 3.50267 0
M  V30 4440 H 414.977 1.25499 2.97405 0
M  V30 4441 H 414.029 3.36088 1.78182 0
M  V30 4442 H 415.341 4.29993 2.52799 0
M  V30 4443 H 414.495 3.70207 4.80658 0
M  V30 4444 H 413.234 2.66173 4.0866 0
M  V30 4445 H 412.239 4.65386 2.92738 0
M  V30 4446 H 413.464 5.70822 3.67884 0
M  V30 4447 H 411.41 4.03401 5.17304 0
M  V30 4448 H 411.327 5.74559 4.91343 0
M  V30 4449 H 412.595 5.08879 5.90477 0
M  V30 4450 N 416.824 -0.551391 1.4764 0
M  V30 4451 C 418.049 -1.33837 1.58437 0
M  V30 4452 C 418.474 -1.866 0.237063 0
M  V30 4453 O 417.832 -1.6328 -0.787994 0
M  V30 4454 C 417.88 -2.48014 2.61766 0
M  V30 4455 O 416.984 -3.50419 2.1744 0
M  V30 4456 H 416.325 -0.397299 0.532024 0
M  V30 4457 H 418.855 -0.665759 1.93465 0
M  V30 4458 H 418.865 -2.94503 2.82369 0
M  V30 4459 H 417.54 -2.08969 3.5959 0
M  V30 4460 H 416.117 -3.10196 2.06961 0
M  V30 4461 N 418.302 -1.35869 -0.798587 0
M  V30 4462 C 419.212 -1.31578 -1.94228 0
M  V30 4463 C 420.228 -0.21939 -1.72611 0
M  V30 4464 O 421.404 -0.450167 -1.96305 0
M  V30 4465 C 418.469 -1.09528 -3.28944 0
M  V30 4466 C 417.53 -2.28556 -3.63402 0
M  V30 4467 C 416.763 -2.07549 -4.9169 0
M  V30 4468 O 416.986 -1.046 -5.60727 0
M  V30 4469 O 415.92 -2.95106 -5.24591 0
M  V30 4470 H 419.746 -2.27847 -2.00796 0
M  V30 4471 H 417.331 -1.16322 -0.937526 0
M  V30 4472 H 419.213 -0.991127 -4.09579 0
M  V30 4473 H 417.888 -0.16315 -3.23289 0
M  V30 4474 H 416.795 -2.44538 -2.83112 0
M  V30 4475 H 418.128 -3.20244 -3.73771 0
M  V30 4476 N 419.78 1.02168 -1.19998 0
M  V30 4477 C 420.728 2.12717 -0.940967 0
M  V30 4478 C 421.722 1.69069 0.105841 0
M  V30 4479 O 422.928 1.79946 -0.0440583 0
M  V30 4480 H 419.303 0.695108 -0.28693 0
M  V30 4481 H 421.274 2.3175 -1.87975 0
M  V30 4482 C 420.023 3.44027 -0.504049 0
M  V30 4483 H 419.346 3.78036 -1.30112 0
M  V30 4484 H 420.786 4.22452 -0.361991 0
M  V30 4485 C 419.245 3.27678 0.782878 0
M  V30 4486 O 419.775 3.56949 1.84256 0
M  V30 4487 N 417.981 2.80943 0.742921 0
M  V30 4488 H 417.528 2.57322 -0.119687 0
M  V30 4489 H 417.486 2.70385 1.60435 0
M  V30 4490 N 421.258 1.00505 1.21394 0
M  V30 4491 C 422.506 0.686415 1.90086 0
M  V30 4492 C 422.827 -0.785264 1.7849 0
M  V30 4493 O 422.097 -1.56387 1.17983 0
M  V30 4494 H 420.677 0.2509 0.703604 0
M  V30 4495 H 423.339 1.27417 1.47482 0
M  V30 4496 H 422.435 0.959621 2.96981 0
M  V30 4497 N 422.737 -1.36956 0.779787 0
M  V30 4498 C 423.667 -2.32761 0.185651 0
M  V30 4499 C 424.648 -1.56177 -0.673989 0
M  V30 4500 O 425.833 -1.84378 -0.609797 0
M  V30 4501 C 422.963 -3.40418 -0.687964 0
M  V30 4502 C 421.917 -4.27941 0.0710102 0
M  V30 4503 C 421.243 -5.26681 -0.922573 0
M  V30 4504 C 422.543 -5.07006 1.25467 0
M  V30 4505 H 424.237 -2.82698 0.986008 0
M  V30 4506 H 421.783 -1.3592 0.475592 0
M  V30 4507 H 423.736 -4.06423 -1.11348 0
M  V30 4508 H 422.46 -2.89025 -1.52093 0
M  V30 4509 H 421.119 -3.63478 0.47739 0
M  V30 4510 H 420.767 -4.71565 -1.7503 0
M  V30 4511 H 420.467 -5.86103 -0.419237 0
M  V30 4512 H 421.991 -5.9556 -1.34686 0
M  V30 4513 H 423.405 -5.66105 0.905401 0
M  V30 4514 H 421.802 -5.75793 1.69063 0
M  V30 4515 H 422.872 -4.3921 2.05481 0
M  V30 4516 N 424.215 -0.530993 -1.48385 0
M  V30 4517 C 425.145 0.219985 -2.32461 0
M  V30 4518 C 426.126 0.934111 -1.42156 0
M  V30 4519 O 427.311 0.919694 -1.71042 0
M  V30 4520 C 424.441 1.26674 -3.23375 0
M  V30 4521 C 423.395 0.67069 -4.22712 0
M  V30 4522 C 422.721 1.82017 -5.02766 0
M  V30 4523 C 424.021 -0.358268 -5.2107 0
M  V30 4524 H 425.715 -0.48187 -2.95497 0
M  V30 4525 H 423.261 -0.233182 -1.42099 0
M  V30 4526 H 425.214 1.80006 -3.81019 0
M  V30 4527 H 423.938 1.99818 -2.58341 0
M  V30 4528 H 422.597 0.158878 -3.66256 0
M  V30 4529 H 422.245 2.54002 -4.34157 0
M  V30 4530 H 421.945 1.42727 -5.70003 0
M  V30 4531 H 423.469 2.35725 -5.63264 0
M  V30 4532 H 424.883 0.0880081 -5.73232 0
M  V30 4533 H 423.28 -0.66861 -5.96364 0
M  V30 4534 H 424.35 -1.26367 -4.68145 0
M  V30 4535 N 425.693 1.55336 -0.266172 0
M  V30 4536 C 426.921 2.03801 0.356756 0
M  V30 4537 C 427.336 1.14485 1.50129 0
M  V30 4538 O 426.693 0.163121 1.8177 0
M  V30 4539 C 426.744 3.51455 0.846281 0
M  V30 4540 O 426.465 4.37371 -0.252663 0
M  V30 4541 C 427.966 4.15767 1.53794 0
M  V30 4542 H 425.186 0.665906 0.0825218 0
M  V30 4543 H 427.73 2.00636 -0.39566 0
M  V30 4544 H 425.885 3.55092 1.54881 0
M  V30 4545 H 426.299 5.24358 0.122173 0
M  V30 4546 H 427.773 5.20714 1.83198 0
M  V30 4547 H 428.25 3.63404 2.46646 0
M  V30 4548 H 428.856 4.16107 0.879488 0
M  V30 4549 N 427.171 -0.0066808 1.57599 0
M  V30 4550 C 428.399 -0.704087 1.94551 0
M  V30 4551 C 428.814 -1.67677 0.867746 0
M  V30 4552 O 428.171 -1.8185 -0.153925 0
M  V30 4553 C 428.222 -1.44177 3.31505 0
M  V30 4554 O 427.943 -0.508097 4.35144 0
M  V30 4555 C 429.444 -2.23429 3.82876 0
M  V30 4556 H 426.664 -0.196523 0.641576 0
M  V30 4557 H 429.208 0.042453 2.04456 0
M  V30 4558 H 427.363 -2.13999 3.22929 0
M  V30 4559 H 427.777 -1.02782 5.14331 0
M  V30 4560 H 429.251 -2.70552 4.8115 0
M  V30 4561 H 429.728 -3.05818 3.15233 0
M  V30 4562 H 430.334 -1.58636 3.94607 0
M  V30 4563 N 428.649 -1.55105 -0.279332 0
M  V30 4564 C 429.898 -1.74618 -1.00952 0
M  V30 4565 C 430.211 -0.551096 -1.87676 0
M  V30 4566 O 431.417 -0.628507 -2.64125 0
M  V30 4567 C 429.873 -3.09025 -1.84476 0
M  V30 4568 C 429.481 -4.36081 -1.0265 0
M  V30 4569 C 431.225 -3.37891 -2.56963 0
M  V30 4570 C 429.132 -5.6153 -1.85576 0
M  V30 4571 H 428.062 -0.650868 -0.38064 0
M  V30 4572 H 430.713 -1.81569 -0.265475 0
M  V30 4573 H 429.095 -2.96095 -2.62952 0
M  V30 4574 H 430.269 -4.59909 -0.286354 0
M  V30 4575 H 428.584 -4.14312 -0.416464 0
M  V30 4576 H 431.181 -4.28822 -3.19399 0
M  V30 4577 H 431.524 -2.57737 -3.26921 0
M  V30 4578 H 432.057 -3.5189 -1.85522 0
M  V30 4579 H 428.796 -6.44413 -1.2005 0
M  V30 4580 H 428.316 -5.41854 -2.57204 0
M  V30 4581 H 429.995 -5.99594 -2.43096 0
M  V30 4582 N 430.127 0.543554 -1.4793 0
M  V30 4583 C 431.09 1.63156 -1.60975 0
M  V30 4584 C 432.09 1.53346 -0.483899 0
M  V30 4585 O 433.28 1.5726 -0.749339 0
M  V30 4586 C 430.412 3.02743 -1.56716 0
M  V30 4587 H 431.605 1.52934 -2.57975 0
M  V30 4588 H 429.158 0.764557 -1.36324 0
M  V30 4589 H 429.893 3.18484 -0.611418 0
M  V30 4590 H 429.678 3.11272 -2.38438 0
M  V30 4591 H 431.168 3.81871 -1.6901 0
M  V30 4592 N 431.605 1.3629 0.791371 0
M  V30 4593 C 432.845 1.31792 1.56238 0
M  V30 4594 C 433.209 -0.102237 1.91728 0
M  V30 4595 O 434.41 -0.271759 2.67423 0
M  V30 4596 C 432.681 2.21303 2.80642 0
M  V30 4597 S 434.24 2.34468 3.70904 0
M  V30 4598 H 431.058 0.468141 0.535131 0
M  V30 4599 H 433.66 1.71841 0.932246 0
M  V30 4600 H 432.364 3.23439 2.52617 0
M  V30 4601 H 431.895 1.82266 3.4863 0
M  V30 4602 H 433.91 1.54074 4.71673 0
M  V30 4603 N 433.083 -1.0153 1.20538 0
M  V30 4604 C 434.331 -1.74803 1.01432 0
M  V30 4605 C 434.652 -1.8963 -0.454456 0
M  V30 4606 O 433.922 -1.43975 -1.32846 0
M  V30 4607 H 432.502 -0.647598 0.372324 0
M  V30 4608 H 435.164 -1.22402 1.5167 0
M  V30 4609 H 434.26 -2.75114 1.47373 0
M  V30 4610 N 434.561 -1.01147 -1.20859 0
M  V30 4611 C 435.972 -0.730205 -1.71828 0
M  V30 4612 C 436.323 0.751662 -1.8123 0
M  V30 4613 O 435.448 1.58686 -1.47132 0
M  V30 4614 C 436.043 -1.31885 -3.12077 0
M  V30 4615 C 434.602 -1.08656 -3.60376 0
M  V30 4616 C 433.749 -1.42769 -2.37723 0
M  V30 4617 H 436.7 -1.18158 -1.05945 0
M  V30 4618 H 436.721 -0.706793 -3.73878 0
M  V30 4619 H 436.233 -2.39737 -3.05201 0
M  V30 4620 H 434.334 -0.0254814 -3.72591 0
M  V30 4621 H 434.447 -1.76301 -4.45483 0
M  V30 4622 H 432.811 -0.846603 -2.40218 0
M  V30 4623 H 433.594 -2.51666 -2.33493 0
M  V30 4624 N 436.039 1.36541 -0.78704 0
M  V30 4625 C 437.267 2.03561 -0.370199 0
M  V30 4626 C 437.682 1.59347 1.01263 0
M  V30 4627 O 437.039 0.781781 1.64907 0
M  V30 4628 C 437.09 3.59033 -0.421614 0
M  V30 4629 O 436.811 4.01634 -1.7499 0
M  V30 4630 C 438.312 4.433 0.00489763 0
M  V30 4631 H 435.532 0.653346 -0.152904 0
M  V30 4632 H 438.076 1.74566 -1.06522 0
M  V30 4633 H 436.231 3.86746 0.224971 0
M  V30 4634 H 436.645 4.96217 -1.69909 0
M  V30 4635 H 438.119 5.51939 -0.0822184 0
M  V30 4636 H 438.596 4.26285 1.05723 0
M  V30 4637 H 439.202 4.20843 -0.614085 0
M  V30 4638 N 437.518 0.538854 1.48102 0
M  V30 4639 C 438.766 0.00798599 2.02098 0
M  V30 4640 C 439.087 -1.33922 1.41739 0
M  V30 4641 O 438.357 -1.86932 0.585934 0
M  V30 4642 H 436.937 -3.62179e-05 0.747 0
M  V30 4643 H 439.599 0.7047 1.81714 0
M  V30 4644 H 438.695 -0.0937672 3.11959 0
M  V30 4645 N 438.996 -1.55193 0.274407 0
M  V30 4646 C 439.906 -2.26164 -0.623473 0
M  V30 4647 C 440.922 -1.28729 -1.17068 0
M  V30 4648 O 442.098 -1.61663 -1.20112 0
M  V30 4649 C 439.163 -2.96833 -1.7914 0
M  V30 4650 C 438.224 -4.09745 -1.28093 0
M  V30 4651 C 437.457 -4.77034 -2.3932 0
M  V30 4652 O 437.68 -4.4353 -3.5866 0
M  V30 4653 O 436.614 -5.64996 -2.07516 0
M  V30 4654 H 440.44 -3.03661 -0.0485661 0
M  V30 4655 H 438.025 -1.49341 0.0418382 0
M  V30 4656 H 439.907 -3.41248 -2.4724 0
M  V30 4657 H 438.582 -2.22253 -2.35341 0
M  V30 4658 H 437.489 -3.69787 -0.566416 0
M  V30 4659 H 438.822 -4.86224 -0.764683 0
M  V30 4660 N 440.474 -0.00167713 -1.576 0
M  V30 4661 C 441.72 0.683832 -1.90923 0
M  V30 4662 C 442.053 1.7333 -0.875799 0
M  V30 4663 O 441.328 1.94215 0.10525 0
M  V30 4664 C 441.611 1.32543 -3.3482 0
M  V30 4665 C 441.464 0.287387 -4.48881 0
M  V30 4666 C 442.783 2.25114 -3.78169 0
M  V30 4667 H 439.902 0.247125 -0.694333 0
M  V30 4668 H 442.544 -0.0533149 -1.89925 0
M  V30 4669 H 440.694 1.95372 -3.35801 0
M  V30 4670 H 442.366 -0.341346 -4.60035 0
M  V30 4671 H 440.609 -0.39017 -4.32042 0
M  V30 4672 H 441.28 0.775393 -5.46527 0
M  V30 4673 H 443.756 1.723 -3.7875 0
M  V30 4674 H 442.632 2.66971 -4.79602 0
M  V30 4675 H 442.893 3.13092 -3.12131 0
M  V30 4676 N 441.952 1.55251 0.271103 0
M  V30 4677 C 442.9 1.89054 1.35504 0
M  V30 4678 C 443.894 0.767064 1.51038 0
M  V30 4679 O 445.1 0.951429 1.528 0
M  V30 4680 H 441.475 0.600072 0.45323 0
M  V30 4681 H 443.446 2.79598 1.04247 0
M  V30 4682 C 442.195 2.18068 2.70817 0
M  V30 4683 H 441.518 3.04005 2.59656 0
M  V30 4684 H 442.958 2.4564 3.45597 0
M  V30 4685 C 441.417 0.988901 3.2206 0
M  V30 4686 O 441.947 0.224501 4.01072 0
M  V30 4687 N 440.153 0.786085 2.79766 0
M  V30 4688 H 439.7 1.40937 2.15626 0
M  V30 4689 H 439.658 -0.00969349 3.14399 0
M  V30 4690 N 443.43 -0.535701 1.48216 0
M  V30 4691 C 444.66 -1.3148 1.59363 0
M  V30 4692 C 445.068 -1.8753 0.250844 0
M  V30 4693 O 444.411 -1.66821 -0.769174 0
M  V30 4694 C 444.473 -2.50731 2.57632 0
M  V30 4695 C 444.137 -2.15811 4.02833 0
M  V30 4696 C 445.134 -1.71822 4.90686 0
M  V30 4697 C 442.819 -2.26509 4.48329 0
M  V30 4698 C 444.813 -1.3899 6.22062 0
M  V30 4699 C 442.5 -1.93289 5.79726 0
M  V30 4700 C 443.498 -1.49599 6.66415 0
M  V30 4701 O 443.186 -1.16812 7.95368 0
M  V30 4702 H 442.918 -0.406315 0.540263 0
M  V30 4703 H 445.472 -0.653569 1.94725 0
M  V30 4704 H 443.702 -3.19817 2.1738 0
M  V30 4705 H 445.391 -3.12797 2.58675 0
M  V30 4706 H 446.157 -1.63031 4.56778 0
M  V30 4707 H 442.036 -2.59471 3.81045 0
M  V30 4708 H 445.58 -1.04816 6.89681 0
M  V30 4709 H 441.477 -2.01718 6.13172 0
M  V30 4710 H 442.245 -1.30259 8.08069 0
M  V30 4711 N 444.908 -1.36708 -0.784132 0
M  V30 4712 C 445.871 -1.31307 -1.87859 0
M  V30 4713 C 446.871 -0.219654 -1.59293 0
M  V30 4714 O 448.061 -0.47476 -1.67606 0
M  V30 4715 C 445.193 -1.03679 -3.24751 0
M  V30 4716 H 446.386 -2.28647 -1.94064 0
M  V30 4717 H 443.939 -1.21558 -0.98252 0
M  V30 4718 H 444.674 -0.0681936 -3.24228 0
M  V30 4719 H 444.459 -1.82811 -3.46876 0
M  V30 4720 H 445.949 -1.02518 -4.04821 0
M  V30 4721 N 446.386 1.0089 -1.21074 0
M  V30 4722 C 447.316 2.1145 -0.990523 0
M  V30 4723 C 448.297 1.69897 0.0831699 0
M  V30 4724 O 449.482 1.94052 -0.0758853 0
M  V30 4725 C 446.612 3.42914 -0.550177 0
M  V30 4726 C 445.566 3.98244 -1.56799 0
M  V30 4727 C 444.892 5.25568 -0.984013 0
M  V30 4728 C 446.192 4.30752 -2.95381 0
M  V30 4729 H 447.886 2.3013 -1.91521 0
M  V30 4730 H 445.432 1.10592 -0.92225 0
M  V30 4731 H 447.385 4.19653 -0.383305 0
M  V30 4732 H 446.109 3.24014 0.41015 0
M  V30 4733 H 444.768 3.23621 -1.72236 0
M  V30 4734 H 444.416 5.02998 -0.0155216 0
M  V30 4735 H 444.116 5.63551 -1.66384 0
M  V30 4736 H 445.64 6.04955 -0.828378 0
M  V30 4737 H 447.054 4.98349 -2.8341 0
M  V30 4738 H 445.451 4.79869 -3.60341 0
M  V30 4739 H 446.521 3.39192 -3.46521 0
M  V30 4740 N 447.864 1.01787 1.20321 0
M  V30 4741 C 448.774 0.598898 2.26827 0
M  V30 4742 C 449.79 -0.36418 1.70146 0
M  V30 4743 O 450.966 -0.224812 2.00141 0
M  V30 4744 C 448.031 -0.0549769 3.46656 0
M  V30 4745 C 447.092 0.954205 4.18561 0
M  V30 4746 C 446.325 0.331439 5.3267 0
M  V30 4747 O 446.548 -0.86851 5.63749 0
M  V30 4748 O 445.482 1.0488 5.92692 0
M  V30 4749 H 449.308 1.48562 2.64883 0
M  V30 4750 H 446.893 0.787434 1.26964 0
M  V30 4751 H 448.775 -0.420102 4.19301 0
M  V30 4752 H 447.45 -0.915876 3.10473 0
M  V30 4753 H 446.357 1.37072 3.48083 0
M  V30 4754 H 447.69 1.78511 4.58688 0
M  V30 4755 N 449.342 -1.36122 0.79427 0
M  V30 4756 C 450.59 -1.98718 0.368177 0
M  V30 4757 C 450.911 -1.63345 -1.06506 0
M  V30 4758 O 450.181 -0.909825 -1.73491 0
M  V30 4759 H 448.761 -0.735038 0.133146 0
M  V30 4760 H 451.423 -1.66239 1.01739 0
M  V30 4761 H 450.519 -3.08633 0.463923 0
M  V30 4762 N 450.82 -0.546701 -1.47814 0
M  V30 4763 C 451.783 0.196287 -2.28358 0
M  V30 4764 C 452.783 0.852437 -1.36346 0
M  V30 4765 O 453.973 0.709913 -1.59078 0
M  V30 4766 C 451.105 1.28579 -3.15722 0
M  V30 4767 H 452.298 -0.511086 -2.95513 0
M  V30 4768 H 449.851 -0.303248 -1.5333 0
M  V30 4769 H 450.586 2.0259 -2.53235 0
M  V30 4770 H 450.371 0.820229 -3.83425 0
M  V30 4771 H 451.861 1.80793 -3.76435 0
M  V30 4772 N 452.299 1.55045 -0.282633 0
M  V30 4773 C 453.545 2.00056 0.332481 0
M  V30 4774 C 453.878 1.1708 1.54939 0
M  V30 4775 O 453.153 0.2427 1.9298 0
M  V30 4776 C 453.436 3.53086 0.70725 0
M  V30 4777 C 453.289 4.46813 -0.517521 0
M  V30 4778 C 454.608 4.12245 1.54084 0
M  V30 4779 H 451.727 0.727268 0.119373 0
M  V30 4780 H 454.369 1.85932 -0.391076 0
M  V30 4781 H 452.519 3.65253 1.32372 0
M  V30 4782 H 454.191 4.46579 -1.15607 0
M  V30 4783 H 452.434 4.18163 -1.1542 0
M  V30 4784 H 453.105 5.51595 -0.211426 0
M  V30 4785 H 455.581 4.03401 1.02013 0
M  V30 4786 H 454.457 5.19515 1.77186 0
M  V30 4787 H 454.718 3.62951 2.52427 0
M  V30 4788 N 453.777 0.010035 1.57597 0
M  V30 4789 C 455.024 -0.6727 1.91 0
M  V30 4790 C 455.352 -1.73219 0.884614 0
M  V30 4791 O 454.607 -1.95395 -0.109215 0
M  V30 4792 C 454.906 -1.34434 3.31153 0
M  V30 4793 C 454.572 -0.417083 4.48967 0
M  V30 4794 C 453.234 -0.161809 4.80928 0
M  V30 4795 C 455.586 0.220753 5.20732 0
M  V30 4796 C 452.914 0.739426 5.82022 0
M  V30 4797 C 455.266 1.10993 6.22787 0
M  V30 4798 C 453.93 1.37428 6.532 0
M  V30 4799 H 453.2 -0.246158 0.698918 0
M  V30 4800 H 455.847 0.0677145 1.9138 0
M  V30 4801 H 454.152 -2.15905 3.26944 0
M  V30 4802 H 455.849 -1.87883 3.54261 0
M  V30 4803 H 452.439 -0.626217 4.24001 0
M  V30 4804 H 456.623 0.0365643 4.96287 0
M  V30 4805 H 451.879 0.952139 6.03941 0
M  V30 4806 H 456.053 1.61046 6.77523 0
M  V30 4807 H 453.68 2.0743 7.31353 0
M  V30 4808 N 455.255 -1.55392 -0.262866 0
M  V30 4809 C 456.188 -1.8391 -1.35101 0
M  V30 4810 C 457.166 -0.692901 -1.47097 0
M  V30 4811 O 458.35 -0.936979 -1.63563 0
M  V30 4812 C 455.477 -2.00969 -2.72634 0
M  V30 4813 C 454.523 -3.23559 -2.7787 0
M  V30 4814 S 455.356 -4.80647 -2.3609 0
M  V30 4815 C 456.512 -5.00692 -3.75578 0
M  V30 4816 H 456.745 -2.75918 -1.1071 0
M  V30 4817 H 454.278 -1.47294 -0.463029 0
M  V30 4818 H 456.236 -2.11482 -3.51832 0
M  V30 4819 H 454.897 -1.09832 -2.94272 0
M  V30 4820 H 454.09 -3.32413 -3.78837 0
M  V30 4821 H 453.692 -3.11689 -2.06702 0
M  V30 4822 H 455.984 -4.87055 -4.70939 0
M  V30 4823 H 456.927 -6.02717 -3.71669 0
M  V30 4824 H 457.335 -4.28619 -3.6735 0
M  V30 4825 N 456.733 0.527833 -1.48498 0
M  V30 4826 C 457.696 1.61439 -1.62696 0
M  V30 4827 C 458.696 1.52824 -0.500136 0
M  V30 4828 O 459.886 1.56456 -0.765976 0
M  V30 4829 C 457.018 3.01063 -1.59918 0
M  V30 4830 H 458.211 1.50189 -2.59583 0
M  V30 4831 H 455.764 0.750055 -1.37127 0
M  V30 4832 H 456.499 3.17818 -0.645163 0
M  V30 4833 H 456.284 3.08725 -2.41726 0
M  V30 4834 H 457.774 3.80057 -1.73051 0
M  V30 4835 N 458.211 1.37122 0.776871 0
M  V30 4836 C 459.459 1.31787 1.53221 0
M  V30 4837 C 459.78 -0.0987589 1.9475 0
M  V30 4838 O 459.05 -1.0417 1.65908 0
M  V30 4839 H 457.63 0.484839 0.568278 0
M  V30 4840 H 460.292 1.71556 0.924917 0
M  V30 4841 H 459.388 1.95355 2.43398 0
M  V30 4842 N 459.689 -1.00246 1.21608 0
M  V30 4843 C 460.652 -2.07233 0.979133 0
M  V30 4844 C 461.652 -1.6072 -0.0508219 0
M  V30 4845 O 462.842 -1.73196 0.186712 0
M  V30 4846 C 459.974 -3.37546 0.477016 0
M  V30 4847 H 461.167 -2.29687 1.92831 0
M  V30 4848 H 458.72 -1.17261 1.03342 0
M  V30 4849 H 459.455 -3.20773 -0.476966 0
M  V30 4850 H 459.24 -3.72638 1.21997 0
M  V30 4851 H 460.73 -4.16285 0.331181 0
M  V30 4852 N 461.167 -1.02423 -1.1978 0
M  V30 4853 C 462.392 -0.7373 -1.93852 0
M  V30 4854 C 462.817 0.696923 -1.74713 0
M  V30 4855 O 462.175 1.48056 -1.04638 0
M  V30 4856 C 462.223 -1.08783 -3.438 0
M  V30 4857 O 461.327 -0.20383 -4.11896 0
M  V30 4858 H 460.668 -0.27284 -0.605355 0
M  V30 4859 H 463.198 -1.36966 -1.51992 0
M  V30 4860 H 463.208 -1.04276 -3.9445 0
M  V30 4861 H 461.883 -2.13274 -3.57053 0
M  V30 4862 H 460.46 -0.307091 -3.71633 0
M  V30 4863 N 462.645 1.35699 -0.801477 0
M  V30 4864 C 463.894 1.98165 -0.375979 0
M  V30 4865 C 464.207 1.64306 1.06127 0
M  V30 4866 O 465.413 2.20097 1.58964 0
M  V30 4867 C 463.869 3.54497 -0.621305 0
M  V30 4868 C 463.477 3.9727 -2.07076 0
M  V30 4869 C 465.221 4.23697 -0.26091 0
M  V30 4870 C 463.128 5.46427 -2.26211 0
M  V30 4871 H 462.058 0.741478 -0.136844 0
M  V30 4872 H 464.709 1.54834 -0.984814 0
M  V30 4873 H 463.091 3.95958 0.0574112 0
M  V30 4874 H 464.265 3.66974 -2.78687 0
M  V30 4875 H 462.58 3.40943 -2.39054 0
M  V30 4876 H 465.177 5.33334 -0.381994 0
M  V30 4877 H 465.52 4.0869 0.792344 0
M  V30 4878 H 466.053 3.87639 -0.893339 0
M  V30 4879 H 462.792 5.66396 -3.29963 0
M  V30 4880 H 462.312 5.78309 -1.59119 0
M  V30 4881 H 463.991 6.12819 -2.07513 0
M  V30 4882 N 464.123 0.554532 1.47522 0
M  V30 4883 C 465.055 -0.232106 2.28022 0
M  V30 4884 C 466.068 -0.881865 1.36847 0
M  V30 4885 O 467.257 -0.756168 1.61692 0
M  V30 4886 C 464.357 -1.34604 3.11022 0
M  V30 4887 C 463.53 -0.793582 4.30141 0
M  V30 4888 C 462.589 -1.79168 4.94758 0
M  V30 4889 O 461.615 -1.33886 5.5323 0
M  V30 4890 N 462.817 -3.12495 4.89211 0
M  V30 4891 H 465.582 0.458407 2.96173 0
M  V30 4892 H 463.143 0.390433 1.57122 0
M  V30 4893 H 465.135 -2.01243 3.51118 0
M  V30 4894 H 463.705 -1.93983 2.45131 0
M  V30 4895 H 462.925 0.0495025 3.94169 0
M  V30 4896 H 464.213 -0.403776 5.07195 0
M  V30 4897 H 463.611 -3.51931 4.42901 0
M  V30 4898 H 462.168 -3.74698 5.33333 0
M  V30 4899 N 465.601 -1.54893 0.290851 0
M  V30 4900 C 466.847 -2.00949 -0.314784 0
M  V30 4901 C 467.202 -1.1757 -1.52299 0
M  V30 4902 O 466.495 -0.241558 -1.90071 0
M  V30 4903 C 466.689 -3.49815 -0.732397 0
M  V30 4904 C 466.518 -4.47603 0.433799 0
M  V30 4905 C 465.288 -4.96806 0.922599 0
M  V30 4906 C 467.486 -4.98233 1.27546 0
M  V30 4907 N 465.468 -5.78426 2.05662 0
M  V30 4908 C 466.839 -5.77455 2.25712 0
M  V30 4909 C 468.894 -4.80439 1.307 0
M  V30 4910 C 467.597 -6.40778 3.26796 0
M  V30 4911 C 469.623 -5.44574 2.30637 0
M  V30 4912 C 468.985 -6.23619 3.27533 0
M  V30 4913 H 465.084 -0.777905 -0.0799257 0
M  V30 4914 H 467.668 -1.9015 0.418458 0
M  V30 4915 H 465.839 -3.60925 -1.43483 0
M  V30 4916 H 467.571 -3.82681 -1.31671 0
M  V30 4917 H 464.326 -4.70961 0.49926 0
M  V30 4918 H 464.75 -6.23923 2.62772 0
M  V30 4919 H 469.392 -4.18918 0.571622 0
M  V30 4920 H 467.11 -7.01439 4.01258 0
M  V30 4921 H 470.696 -5.32739 2.33838 0
M  V30 4922 H 469.576 -6.72367 4.03599 0
M  V30 4923 N 467.08 -0.0183926 -1.57589 0
M  V30 4924 C 468.01 0.965596 -2.12599 0
M  V30 4925 C 468.991 1.34641 -1.0395 0
M  V30 4926 O 470.176 1.42693 -1.31729 0
M  V30 4927 C 467.306 2.25149 -2.64434 0
M  V30 4928 C 466.26 2.01175 -3.77773 0
M  V30 4929 C 465.586 3.35937 -4.15994 0
M  V30 4930 C 466.886 1.35953 -5.04296 0
M  V30 4931 H 468.58 0.507504 -2.95067 0
M  V30 4932 H 466.126 0.242671 -1.41941 0
M  V30 4933 H 468.079 2.94357 -3.01549 0
M  V30 4934 H 466.803 2.73105 -1.79112 0
M  V30 4935 H 465.462 1.34388 -3.4108 0
M  V30 4936 H 465.11 3.81631 -3.27669 0
M  V30 4937 H 464.81 3.20705 -4.92364 0
M  V30 4938 H 466.334 4.0643 -4.55683 0
M  V30 4939 H 467.748 1.95144 -5.39065 0
M  V30 4940 H 466.145 1.31152 -5.85593 0
M  V30 4941 H 467.215 0.331071 -4.83768 0
M  V30 4942 N 468.558 1.5553 0.254621 0
M  V30 4943 C 469.974 1.4778 0.602753 0
M  V30 4944 C 470.174 0.707047 1.88688 0
M  V30 4945 O 469.23 0.233288 2.5142 0
M  V30 4946 C 470.543 2.92133 0.712648 0
M  V30 4947 C 472.091 3.02458 0.805488 0
M  V30 4948 C 472.566 4.48102 0.947009 0
M  V30 4949 N 474.057 4.52008 1.01207 0
M  V30 4950 C 474.792 5.61939 1.1407 0
M  V30 4951 N 474.288 6.81697 1.23536 0
M  V30 4952 N 476.081 5.49719 1.17325 0
M  V30 4953 H 468.232 2.04085 -0.588463 0
M  V30 4954 H 470.495 0.926229 -0.202001 0
M  V30 4955 H 470.201 3.51332 -0.160766 0
M  V30 4956 H 470.075 3.42187 1.58707 0
M  V30 4957 H 472.462 2.43344 1.66936 0
M  V30 4958 H 472.543 2.55627 -0.0939266 0
M  V30 4959 H 472.187 5.07824 0.087725 0
M  V30 4960 H 472.117 4.92607 1.86135 0
M  V30 4961 H 474.608 3.65749 0.950577 0
M  V30 4962 H 474.921 7.61228 1.33236 0
M  V30 4963 H 473.266 6.84473 1.20508 0
M  V30 4964 H 476.457 4.55095 1.09573 0
M  V30 4965 H 476.63 6.35432 1.27005 0
M  V30 4966 N 470.036 -0.519951 1.48776 0
M  V30 4967 C 471.313 -1.28123 1.47797 0
M  V30 4968 C 471.693 -2.10196 0.195157 0
M  V30 4969 O 471.041 -2.13167 -0.822925 0
M  V30 4970 C 471.251 -2.15413 2.74587 0
M  V30 4971 C 472.599 -2.75225 3.23321 0
M  V30 4972 O 473.623 -2.25694 2.75574 0
M  V30 4973 O 472.482 -3.65346 4.06429 0
M  V30 4974 H 469.576 -0.578793 0.590701 0
M  V30 4975 H 472.122 -0.535779 1.6102 0
M  V30 4976 H 470.894 -1.54617 3.59457 0
M  V30 4977 H 470.517 -2.97186 2.64132 0
M  V30 4978 N 471.514 -1.37532 -0.769588 0
M  V30 4979 C 472.424 -1.35668 -1.91393 0
M  V30 4980 C 473.44 -0.255954 -1.72107 0
M  V30 4981 O 474.616 -0.491704 -1.95305 0
M  V30 4982 C 471.681 -1.16481 -3.26547 0
M  V30 4983 C 470.742 -2.36212 -3.58472 0
M  V30 4984 C 469.975 -2.17932 -4.87177 0
M  V30 4985 O 470.198 -1.1647 -5.58382 0
M  V30 4986 O 469.132 -3.06167 -5.18214 0
M  V30 4987 H 472.958 -2.32055 -1.95918 0
M  V30 4988 H 470.543 -1.18284 -0.912641 0
M  V30 4989 H 472.425 -1.07778 -4.07384 0
M  V30 4990 H 471.1 -0.231687 -3.2287 0
M  V30 4991 H 470.007 -2.50488 -2.77861 0
M  V30 4992 H 471.34 -3.281 -3.66894 0
M  V30 4993 N 472.992 0.995999 -1.22138 0
M  V30 4994 C 473.925 2.08302 -0.931952 0
M  V30 4995 C 474.903 1.62127 0.123956 0
M  V30 4996 O 476.087 1.88499 -0.00696004 0
M  V30 4997 C 473.214 3.36317 -0.401068 0
M  V30 4998 C 472.26 4.01413 -1.44117 0
M  V30 4999 S 473.093 4.42664 -3.01345 0
M  V30 5000 C 474.249 5.73853 -2.49887 0
M  V30 5001 H 474.482 2.32532 -1.85246 0
M  V30 5002 H 472.015 1.13005 -1.0521 0
M  V30 5003 H 473.973 4.10375 -0.101352 0
M  V30 5004 H 472.634 3.10123 0.498272 0
M  V30 5005 H 471.827 4.9358 -1.01952 0
M  V30 5006 H 471.429 3.33668 -1.68943 0
M  V30 5007 H 473.721 6.50039 -1.90934 0
M  V30 5008 H 474.664 6.20841 -3.40532 0
M  V30 5009 H 475.072 5.31105 -1.9128 0
M  V30 5010 N 474.47 1.03057 1.19235 0
M  V30 5011 C 475.417 0.612832 2.22515 0
M  V30 5012 C 476.387 -0.374224 1.61829 0
M  V30 5013 O 477.572 -0.270501 1.88873 0
M  V30 5014 C 474.712 -0.028475 3.45088 0
M  V30 5015 C 473.825 1.00483 4.20151 0
M  V30 5016 C 472.96 0.333102 5.30155 0
M  V30 5017 C 471.999 1.3522 5.96977 0
M  V30 5018 N 471.136 0.70616 6.9854 0
M  V30 5019 H 475.976 1.49812 2.57605 0
M  V30 5020 H 473.513 0.749658 1.26564 0
M  V30 5021 H 475.471 -0.417548 4.15105 0
M  V30 5022 H 474.101 -0.877334 3.10649 0
M  V30 5023 H 473.153 1.51194 3.49062 0
M  V30 5024 H 474.465 1.77929 4.65986 0
M  V30 5025 H 473.619 -0.110725 6.06599 0
M  V30 5026 H 472.358 -0.473547 4.85396 0
M  V30 5027 H 471.363 1.80627 5.19282 0
M  V30 5028 H 472.588 2.16037 6.4382 0
M  V30 5029 H 470.534 -0.0803667 6.55951 0
M  V30 5030 H 470.451 1.41848 7.42573 0
M  V30 5031 H 471.719 0.286391 7.78974 0
M  V30 5032 N 475.948 -1.35272 0.808662 0
M  V30 5033 C 476.878 -2.32315 0.234981 0
M  V30 5034 C 477.859 -1.57572 -0.64071 0
M  V30 5035 O 479.044 -1.8563 -0.570551 0
M  V30 5036 C 476.174 -3.41801 -0.615601 0
M  V30 5037 C 475.128 -4.27694 0.161767 0
M  V30 5038 C 474.454 -5.28519 -0.810649 0
M  V30 5039 C 475.754 -5.04231 1.36193 0
M  V30 5040 H 477.448 -2.80543 1.04575 0
M  V30 5041 H 474.994 -1.3488 0.504315 0
M  V30 5042 H 476.947 -4.08693 -1.02702 0
M  V30 5043 H 475.671 -2.92186 -1.45928 0
M  V30 5044 H 474.33 -3.62384 0.554382 0
M  V30 5045 H 473.978 -4.75171 -1.64988 0
M  V30 5046 H 473.678 -5.8686 -0.294822 0
M  V30 5047 H 475.202 -5.98283 -1.22023 0
M  V30 5048 H 476.616 -5.64058 1.02528 0
M  V30 5049 H 475.013 -5.72077 1.81239 0
M  V30 5050 H 476.083 -4.34753 2.14751 0
M  V30 5051 N 477.426 -0.562348 -1.47226 0
M  V30 5052 C 478.675 -0.038041 -2.01664 0
M  V30 5053 C 478.988 1.32199 -1.44162 0
M  V30 5054 O 480.194 1.9365 -1.90294 0
M  V30 5055 C 478.65 -0.0174958 -3.59896 0
M  V30 5056 C 478.258 -1.3746 -4.2639 0
M  V30 5057 C 480.002 0.453934 -4.22066 0
M  V30 5058 C 477.909 -1.31289 -5.76643 0
M  V30 5059 H 476.839 -0.0104511 -0.753928 0
M  V30 5060 H 479.49 -0.710966 -1.69167 0
M  V30 5061 H 477.872 0.721182 -3.89378 0
M  V30 5062 H 479.046 -2.1314 -4.08544 0
M  V30 5063 H 477.361 -1.78438 -3.7623 0
M  V30 5064 H 479.958 0.518584 -5.32179 0
M  V30 5065 H 480.301 1.46706 -3.89594 0
M  V30 5066 H 480.834 -0.230044 -3.97134 0
M  V30 5067 H 477.573 -2.30217 -6.13743 0
M  V30 5068 H 477.093 -0.597973 -5.96812 0
M  V30 5069 H 478.772 -1.01713 -6.38955 0
M  V30 5070 N 478.904 1.54736 -0.299062 0
M  V30 5071 C 479.852 2.24897 0.593658 0
M  V30 5072 C 480.846 1.25429 1.13859 0
M  V30 5073 O 482.052 1.43286 1.08945 0
M  V30 5074 H 478.427 0.72207 0.210046 0
M  V30 5075 H 480.398 2.98393 -0.0206421 0
M  V30 5076 C 479.147 3.00159 1.75499 0
M  V30 5077 H 478.47 3.76501 1.34489 0
M  V30 5078 H 479.91 3.52535 2.35574 0
M  V30 5079 C 478.369 2.07015 2.65794 0
M  V30 5080 O 478.899 1.63692 3.66835 0
M  V30 5081 N 477.105 1.73012 2.33485 0
M  V30 5082 H 476.652 2.08439 1.51364 0
M  V30 5083 H 476.61 1.10965 2.94167 0
M  V30 5084 N 480.382 0.0267497 1.57577 0
M  V30 5085 C 481.659 -0.690926 1.82991 0
M  V30 5086 C 482.039 -1.90471 0.910164 0
M  V30 5087 O 481.387 -2.28474 -0.0347985 0
M  V30 5088 C 481.597 -1.07139 3.32148 0
M  V30 5089 C 482.945 -1.46402 3.98562 0
M  V30 5090 O 483.969 -1.16443 3.36629 0
M  V30 5091 O 482.828 -2.02214 5.07712 0
M  V30 5092 H 479.922 -0.338747 0.75444 0
M  V30 5093 H 482.468 0.0542506 1.69613 0
M  V30 5094 H 481.24 -0.207394 3.9075 0
M  V30 5095 H 480.863 -1.87481 3.50623 0
M  V30 5096 N 481.861 -1.55662 -0.24637 0
M  V30 5097 C 482.824 -1.89558 -1.28842 0
M  V30 5098 C 483.824 -0.772082 -1.41052 0
M  V30 5099 O 485.014 -1.04007 -1.39743 0
M  V30 5100 C 482.146 -2.12449 -2.66605 0
M  V30 5101 H 483.339 -2.82735 -1.00004 0
M  V30 5102 H 480.892 -1.48562 -0.485684 0
M  V30 5103 H 481.627 -1.21742 -3.00582 0
M  V30 5104 H 481.412 -2.94273 -2.59125 0
M  V30 5105 H 482.902 -2.39854 -3.41847 0
M  V30 5106 N 483.339 0.512053 -1.4905 0
M  V30 5107 C 484.569 1.28928 -1.61434 0
M  V30 5108 C 484.977 1.87107 -0.280647 0
M  V30 5109 O 484.32 1.68024 0.742537 0
M  V30 5110 C 484.382 2.466 -2.61588 0
M  V30 5111 C 484.046 2.09375 -4.06216 0
M  V30 5112 C 485.043 1.63994 -4.93358 0
M  V30 5113 C 482.728 2.19348 -4.51876 0
M  V30 5114 C 484.722 1.29076 -6.24194 0
M  V30 5115 C 482.409 1.84041 -5.82728 0
M  V30 5116 C 483.407 1.38978 -6.68711 0
M  V30 5117 O 483.095 1.04144 -7.97126 0
M  V30 5118 H 482.827 0.397668 -0.546659 0
M  V30 5119 H 485.381 0.622507 -1.9574 0
M  V30 5120 H 483.611 3.16318 -2.22441 0
M  V30 5121 H 485.3 3.08642 -2.63619 0
M  V30 5122 H 486.066 1.55744 -4.59313 0
M  V30 5123 H 481.945 2.53376 -3.85125 0
M  V30 5124 H 485.489 0.938303 -6.91261 0
M  V30 5125 H 481.386 1.91938 -6.16304 0
M  V30 5126 H 482.154 1.17387 -8.10039 0
M  V30 5127 N 484.817 1.37938 0.762283 0
M  V30 5128 C 486.094 1.24196 1.51112 0
M  V30 5129 C 486.474 -0.160409 2.1049 0
M  V30 5130 O 485.822 -1.16904 1.96331 0
M  V30 5131 C 486.032 2.34537 2.58445 0
M  V30 5132 C 487.38 2.7254 3.25588 0
M  V30 5133 O 488.404 2.33783 2.68745 0
M  V30 5134 O 487.263 3.39343 4.28379 0
M  V30 5135 H 484.357 0.485175 0.669727 0
M  V30 5136 H 486.903 1.49743 0.798438 0
M  V30 5137 H 485.675 3.28406 2.12756 0
M  V30 5138 H 485.298 2.10505 3.37303 0
M  V30 5139 N 486.295 -0.989507 1.22664 0
M  V30 5140 C 487.52 -1.77031 1.08051 0
M  V30 5141 C 487.945 -1.84535 -0.364483 0
M  V30 5142 O 487.303 -1.3003 -1.2634 0
M  V30 5143 C 487.351 -3.18 1.70024 0
M  V30 5144 O 486.455 -4.01161 0.956216 0
M  V30 5145 H 485.796 -0.545008 0.379292 0
M  V30 5146 H 488.326 -1.24277 1.62531 0
M  V30 5147 H 488.336 -3.68616 1.74888 0
M  V30 5148 H 487.011 -3.11853 2.75174 0
M  V30 5149 H 485.588 -3.59687 0.98384 0
M  V30 5150 N 487.773 -1.03688 -1.18687 0
M  V30 5151 C 488.683 -0.634908 -2.25845 0
M  V30 5152 C 489.699 0.337065 -1.70704 0
M  V30 5153 O 490.875 0.192943 -2.00474 0
M  V30 5154 C 487.94 -0.000180054 -3.467 0
M  V30 5155 C 487.001 -1.02067 -4.1699 0
M  V30 5156 C 486.234 -0.41614 -5.32075 0
M  V30 5157 O 486.457 0.778712 -5.65059 0
M  V30 5158 O 485.391 -1.14296 -5.90948 0
M  V30 5159 H 489.217 -1.52757 -2.62486 0
M  V30 5160 H 486.802 -0.807533 -1.25695 0
M  V30 5161 H 488.684 0.353342 -4.19916 0
M  V30 5162 H 487.359 0.866367 -3.11891 0
M  V30 5163 H 486.266 -1.42592 -3.45859 0
M  V30 5164 H 487.599 -1.85786 -4.5579 0
M  V30 5165 N 489.251 1.34841 -0.815825 0
M  V30 5166 C 490.481 2.02436 -0.412695 0
M  V30 5167 C 490.889 1.61604 0.983906 0
M  V30 5168 O 490.232 0.813729 1.64694 0
M  V30 5169 C 490.294 3.56953 -0.427182 0
M  V30 5170 C 489.958 4.21083 -1.77589 0
M  V30 5171 C 490.955 4.42107 -2.73564 0
M  V30 5172 C 488.64 4.58006 -2.06243 0
M  V30 5173 C 490.634 4.99169 -3.9637 0
M  V30 5174 C 488.321 5.1478 -3.2931 0
M  V30 5175 C 489.319 5.35304 -4.24191 0
M  V30 5176 O 489.007 5.90878 -5.45086 0
M  V30 5177 H 488.739 0.655631 -0.164695 0
M  V30 5178 H 491.293 1.73246 -1.1034 0
M  V30 5179 H 489.523 3.85372 0.320175 0
M  V30 5180 H 491.212 4.05875 -0.0450875 0
M  V30 5181 H 491.978 4.13953 -2.52721 0
M  V30 5182 H 487.857 4.41339 -1.33196 0
M  V30 5183 H 491.401 5.15105 -4.70439 0
M  V30 5184 H 487.298 5.42362 -3.5002 0
M  V30 5185 H 488.066 6.0932 -5.46508 0
M  V30 5186 N 490.729 0.570148 1.46925 0
M  V30 5187 C 491.976 0.0509529 2.02436 0
M  V30 5188 C 492.304 -1.30405 1.44308 0
M  V30 5189 O 491.559 -1.86493 0.593198 0
M  V30 5190 C 491.858 -0.0780336 3.57315 0
M  V30 5191 C 491.524 1.20775 4.34424 0
M  V30 5192 C 490.186 1.56004 4.5521 0
M  V30 5193 C 492.538 2.0592 4.78797 0
M  V30 5194 C 489.866 2.76201 5.17619 0
M  V30 5195 C 492.218 3.25332 5.42533 0
M  V30 5196 C 490.882 3.60859 5.61549 0
M  V30 5197 H 490.152 0.018645 0.740765 0
M  V30 5198 H 492.799 0.744262 1.76445 0
M  V30 5199 H 491.104 -0.854394 3.82371 0
M  V30 5200 H 492.801 -0.495312 3.97929 0
M  V30 5201 H 489.391 0.923469 4.18533 0
M  V30 5202 H 493.575 1.80008 4.62505 0
M  V30 5203 H 488.831 3.0388 5.30535 0
M  V30 5204 H 493.005 3.91586 5.75876 0
M  V30 5205 H 490.632 4.54088 6.09678 0
M  V30 5206 N 492.207 -1.54576 0.307264 0
M  V30 5207 C 493.17 -2.22423 -0.553224 0
M  V30 5208 C 494.17 -1.21231 -1.05639 0
M  V30 5209 O 495.36 -1.45923 -0.951419 0
M  V30 5210 C 492.492 -2.91552 -1.76664 0
M  V30 5211 H 493.685 -2.99874 0.0396484 0
M  V30 5212 H 491.238 -1.56192 0.0581629 0
M  V30 5213 H 491.973 -2.18196 -2.39918 0
M  V30 5214 H 491.758 -3.65738 -1.41343 0
M  V30 5215 H 493.248 -3.43292 -2.37783 0
M  V30 5216 N 493.685 -0.035106 -1.57561 0
M  V30 5217 C 494.913 0.652258 -1.9635 0
M  V30 5218 C 495.328 1.65317 -0.911897 0
M  V30 5219 O 494.685 1.82194 0.105657 0
M  V30 5220 C 494.736 1.35337 -3.35211 0
M  V30 5221 O 494.457 0.392548 -4.36338 0
M  V30 5222 C 495.958 2.13199 -3.88666 0
M  V30 5223 H 493.178 0.179444 -0.646561 0
M  V30 5224 H 495.722 -0.0966459 -2.04271 0
M  V30 5225 H 493.877 2.05362 -3.28489 0
M  V30 5226 H 494.291 0.891097 -5.16875 0
M  V30 5227 H 495.765 2.577 -4.88154 0
M  V30 5228 H 496.242 2.97353 -3.23231 0
M  V30 5229 H 496.848 1.48118 -3.98674 0
M  V30 5230 N 495.163 1.55791 0.238111 0
M  V30 5231 C 496.11 1.9105 1.29493 0
M  V30 5232 C 497.08 0.765733 1.47397 0
M  V30 5233 O 498.265 1.02017 1.61236 0
M  V30 5234 C 495.405 2.21826 2.64362 0
M  V30 5235 C 494.518 3.49153 2.54394 0
M  V30 5236 C 493.653 3.69455 3.81676 0
M  V30 5237 C 492.692 4.90353 3.66361 0
M  V30 5238 N 491.829 5.07131 4.85554 0
M  V30 5239 H 496.669 2.81172 0.987233 0
M  V30 5240 H 494.206 1.39179 0.476203 0
M  V30 5241 H 496.164 2.37675 3.4288 0
M  V30 5242 H 494.794 1.34897 2.93262 0
M  V30 5243 H 493.846 3.41587 1.67399 0
M  V30 5244 H 495.158 4.37818 2.38991 0
M  V30 5245 H 494.312 3.85311 4.68636 0
M  V30 5246 H 493.051 2.7904 3.99985 0
M  V30 5247 H 492.056 4.74464 2.77784 0
M  V30 5248 H 493.281 5.82237 3.49538 0
M  V30 5249 H 491.227 4.19654 5.04209 0
M  V30 5250 H 491.144 5.89899 4.72816 0
M  V30 5251 H 492.412 5.27407 5.73988 0
M  V30 5252 N 496.642 -0.504142 1.49319 0
M  V30 5253 C 497.888 -1.26033 1.58882 0
M  V30 5254 C 498.221 -1.92268 0.273274 0
M  V30 5255 O 497.496 -1.80567 -0.72291 0
M  V30 5256 C 497.779 -2.32976 2.7458 0
M  V30 5257 C 497.632 -1.71263 4.1592 0
M  V30 5258 C 498.951 -3.34561 2.85932 0
M  V30 5259 H 496.07 -0.456863 0.578312 0
M  V30 5260 H 498.712 -0.558965 1.81592 0
M  V30 5261 H 496.862 -2.92796 2.55348 0
M  V30 5262 H 498.534 -1.15294 4.4666 0
M  V30 5263 H 496.777 -1.01686 4.21714 0
M  V30 5264 H 497.448 -2.48816 4.92742 0
M  V30 5265 H 499.924 -2.84727 3.0343 0
M  V30 5266 H 498.8 -4.06754 3.68568 0
M  V30 5267 H 499.061 -3.96695 1.95154 0
M  V30 5268 N 498.12 -1.38341 -0.754957 0
M  V30 5269 C 499.052 -1.31347 -1.87831 0
M  V30 5270 C 500.065 -0.225955 -1.61224 0
M  V30 5271 O 501.254 -0.48341 -1.7183 0
M  V30 5272 C 498.354 -1.01201 -3.23437 0
M  V30 5273 C 497.527 -2.20834 -3.77559 0
M  V30 5274 C 496.586 -1.87454 -4.91678 0
M  V30 5275 O 495.612 -2.59934 -5.06382 0
M  V30 5276 N 496.814 -0.828682 -5.74555 0
M  V30 5277 H 499.579 -2.28147 -1.94342 0
M  V30 5278 H 497.14 -1.32184 -0.934828 0
M  V30 5279 H 499.132 -0.769249 -3.97322 0
M  V30 5280 H 497.702 -0.132011 -3.12321 0
M  V30 5281 H 496.922 -2.61184 -2.95256 0
M  V30 5282 H 498.21 -3.00678 -4.10451 0
M  V30 5283 H 497.608 -0.227591 -5.65242 0
M  V30 5284 H 496.165 -0.645802 -6.48593 0
M  V30 5285 N 499.598 0.982988 -1.23187 0
M  V30 5286 C 500.546 2.09616 -1.00817 0
M  V30 5287 C 501.54 1.6932 0.0519995 0
M  V30 5288 O 502.746 1.79715 -0.101284 0
M  V30 5289 H 499.121 0.685628 -0.308899 0
M  V30 5290 H 501.092 2.25652 -1.95253 0
M  V30 5291 C 499.841 3.42249 -0.613243 0
M  V30 5292 H 499.164 3.73705 -1.42073 0
M  V30 5293 H 500.604 4.21086 -0.496208 0
M  V30 5294 C 499.063 3.30002 0.678233 0
M  V30 5295 O 499.593 3.6263 1.72807 0
M  V30 5296 N 497.799 2.83164 0.653165 0
M  V30 5297 H 497.346 2.56811 -0.201492 0
M  V30 5298 H 497.304 2.75352 1.51752 0
M  V30 5299 N 501.076 1.04316 1.18135 0
M  V30 5300 C 502.304 0.768117 1.92113 0
M  V30 5301 C 502.719 -0.675057 1.76319 0
M  V30 5302 O 502.076 -1.46038 1.09449 0
M  V30 5303 C 502.127 1.12808 3.43448 0
M  V30 5304 O 501.848 2.5146 3.58747 0
M  V30 5305 C 503.349 0.8779 4.3452 0
M  V30 5306 H 500.569 0.279937 0.609817 0
M  V30 5307 H 503.113 1.39149 1.49859 0
M  V30 5308 H 501.268 0.549623 3.83481 0
M  V30 5309 H 501.682 2.65313 4.52448 0
M  V30 5310 H 503.156 1.17959 5.39249 0
M  V30 5311 H 503.633 -0.187239 4.38801 0
M  V30 5312 H 504.239 1.43977 4.00188 0
M  V30 5313 N 502.554 -1.34406 0.822964 0
M  V30 5314 C 503.502 -2.31428 0.233165 0
M  V30 5315 C 504.496 -1.57404 -0.626118 0
M  V30 5316 O 505.702 -1.72402 -0.517453 0
M  V30 5317 H 502.077 -0.749863 0.0566557 0
M  V30 5318 H 504.048 -2.78699 1.06628 0
M  V30 5319 C 502.797 -3.42653 -0.590264 0
M  V30 5320 H 502.12 -3.99753 0.0616129 0
M  V30 5321 H 503.56 -4.12778 -0.969054 0
M  V30 5322 C 502.019 -2.87112 -1.76262 0
M  V30 5323 O 502.549 -2.81995 -2.8608 0
M  V30 5324 N 500.755 -2.43934 -1.57938 0
M  V30 5325 H 500.302 -2.48296 -0.686078 0
M  V30 5326 H 500.26 -2.07123 -2.36532 0
M  V30 5327 N 504.032 -0.577932 -1.46621 0
M  V30 5328 C 505.28 -0.061566 -2.02006 0
M  V30 5329 C 505.601 1.30117 -1.4524 0
M  V30 5330 O 504.871 1.85313 -0.63529 0
M  V30 5331 H 503.451 -0.0197692 -0.746738 0
M  V30 5332 H 506.113 -0.752631 -1.79782 0
M  V30 5333 H 505.209 0.0110238 -3.12098 0
M  V30 5334 N 505.51 1.54411 -0.315457 0
M  V30 5335 C 506.756 2.00716 0.289972 0
M  V30 5336 C 507.089 1.2034 1.5242 0
M  V30 5337 O 506.364 0.283579 1.92422 0
M  V30 5338 C 506.647 3.54507 0.632196 0
M  V30 5339 C 506.5 4.45615 -0.61218 0
M  V30 5340 C 507.819 4.15421 1.45305 0
M  V30 5341 H 504.938 0.729637 0.10392 0
M  V30 5342 H 507.58 1.8506 -0.430427 0
M  V30 5343 H 505.73 3.67979 1.24595 0
M  V30 5344 H 507.402 4.44026 -1.25053 0
M  V30 5345 H 505.645 4.15621 -1.24264 0
M  V30 5346 H 506.316 5.51022 -0.328379 0
M  V30 5347 H 508.792 4.05474 0.934331 0
M  V30 5348 H 507.668 5.23157 1.66127 0
M  V30 5349 H 507.929 3.68223 2.44671 0
M  V30 5350 N 506.988 0.0434614 1.5754 0
M  V30 5351 C 508.218 -0.640905 1.96408 0
M  V30 5352 C 508.626 -1.65365 0.919297 0
M  V30 5353 O 507.969 -1.83395 -0.105795 0
M  V30 5354 C 508.031 -1.39141 3.31482 0
M  V30 5355 C 507.695 -0.535375 4.53853 0
M  V30 5356 C 508.692 0.195335 5.19533 0
M  V30 5357 C 506.377 -0.468564 5.0011 0
M  V30 5358 C 508.371 0.981377 6.298 0
M  V30 5359 C 506.058 0.321171 6.10255 0
M  V30 5360 C 507.056 1.04484 6.74961 0
M  V30 5361 O 506.744 1.8216 7.8299 0
M  V30 5362 H 506.476 -0.180584 0.651433 0
M  V30 5363 H 509.03 0.103848 2.05137 0
M  V30 5364 H 507.26 -2.18162 3.19284 0
M  V30 5365 H 508.949 -1.96526 3.55151 0
M  V30 5366 H 509.715 0.15314 4.84758 0
M  V30 5367 H 505.594 -1.02142 4.49542 0
M  V30 5368 H 509.138 1.54674 6.80237 0
M  V30 5369 H 505.035 0.365032 6.44467 0
M  V30 5370 H 505.803 1.74289 7.99728 0
M  V30 5371 N 508.466 -1.55915 -0.229846 0
M  V30 5372 C 509.712 -1.78807 -0.956868 0
M  V30 5373 C 510.045 -0.611687 -1.84315 0
M  V30 5374 O 509.32 0.389398 -1.90562 0
M  V30 5375 C 509.603 -3.11718 -1.80288 0
M  V30 5376 C 509.456 -4.3979 -0.943649 0
M  V30 5377 C 510.775 -3.40999 -2.78222 0
M  V30 5378 H 507.894 -0.6505 -0.346437 0
M  V30 5379 H 510.536 -1.88648 -0.226252 0
M  V30 5380 H 508.686 -3.03459 -2.42579 0
M  V30 5381 H 510.358 -4.60059 -0.338121 0
M  V30 5382 H 508.601 -4.33086 -0.248705 0
M  V30 5383 H 509.272 -5.29208 -1.5698 0
M  V30 5384 H 511.748 -3.49332 -2.26067 0
M  V30 5385 H 510.624 -4.35183 -3.34526 0
M  V30 5386 H 510.885 -2.62754 -3.55546 0
M  V30 5387 N 509.944 0.496216 -1.49584 0
M  V30 5388 C 511.19 1.25189 -1.59548 0
M  V30 5389 C 511.523 1.9212 -0.283466 0
M  V30 5390 O 510.798 1.80947 0.713324 0
M  V30 5391 C 511.081 2.31516 -2.75812 0
M  V30 5392 C 510.934 1.69054 -4.16822 0
M  V30 5393 C 512.253 3.3304 -2.87702 0
M  V30 5394 H 509.372 0.45379 -0.580727 0
M  V30 5395 H 512.014 0.549327 -1.81886 0
M  V30 5396 H 510.164 2.91438 -2.56897 0
M  V30 5397 H 511.836 1.12923 -4.47265 0
M  V30 5398 H 510.079 0.994485 -4.22247 0
M  V30 5399 H 510.75 2.462 -4.94054 0
M  V30 5400 H 513.226 2.83114 -3.04936 0
M  V30 5401 H 512.102 4.04794 -3.7072 0
M  V30 5402 H 512.363 3.95655 -1.97255 0
M  V30 5403 N 511.423 1.38739 0.74761 0
M  V30 5404 C 512.834 1.31507 1.32524 0
M  V30 5405 C 513.185 -0.0263963 1.96182 0
M  V30 5406 O 512.31 -0.92849 1.95469 0
M  V30 5407 C 512.905 2.38162 2.40966 0
M  V30 5408 C 511.464 2.34489 2.94434 0
M  V30 5409 C 510.611 2.20712 1.67873 0
M  V30 5410 H 513.562 1.4901 0.546043 0
M  V30 5411 H 513.583 2.04222 3.21051 0
M  V30 5412 H 513.095 3.35783 1.94605 0
M  V30 5413 H 511.196 1.40467 3.45108 0
M  V30 5414 H 511.309 3.28861 3.48407 0
M  V30 5415 H 509.673 1.67667 1.91729 0
M  V30 5416 H 510.456 3.20285 1.23582 0
M  V30 5417 N 512.901 -0.976442 1.23707 0
M  V30 5418 C 513.864 -2.0511 1.02287 0
M  V30 5419 C 514.864 -1.60791 -0.0167195 0
M  V30 5420 O 516.054 -1.72761 0.223408 0
M  V30 5421 C 513.186 -3.36458 0.548507 0
M  V30 5422 H 514.379 -2.25545 1.9766 0
M  V30 5423 H 511.932 -1.15042 1.05806 0
M  V30 5424 H 512.667 -3.21713 -0.408818 0
M  V30 5425 H 512.452 -3.69967 1.29874 0
M  V30 5426 H 513.942 -4.15489 0.419406 0
M  V30 5427 N 514.379 -1.04941 -1.1758 0
M  V30 5428 C 515.626 -0.757989 -1.87779 0
M  V30 5429 C 515.954 0.714827 -1.80888 0
M  V30 5430 O 515.209 1.53824 -1.20982 0
M  V30 5431 C 515.508 -1.18062 -3.37337 0
M  V30 5432 C 515.174 -2.65521 -3.6443 0
M  V30 5433 C 513.836 -3.05804 -3.71534 0
M  V30 5434 C 516.188 -3.60822 -3.76108 0
M  V30 5435 C 513.516 -4.40256 -3.87803 0
M  V30 5436 C 515.868 -4.95005 -3.93895 0
M  V30 5437 C 514.532 -5.34945 -3.99237 0
M  V30 5438 H 513.802 -0.277368 -0.68713 0
M  V30 5439 H 516.449 -1.31603 -1.39115 0
M  V30 5440 H 514.754 -0.541525 -3.8804 0
M  V30 5441 H 516.451 -0.932368 -3.9001 0
M  V30 5442 H 513.041 -2.33324 -3.59524 0
M  V30 5443 H 517.225 -3.30841 -3.69943 0
M  V30 5444 H 512.481 -4.70707 -3.90186 0
M  V30 5445 H 516.655 -5.68746 -4.01872 0
M  V30 5446 H 514.282 -6.39135 -4.11596 0
M  V30 5447 N 515.857 1.33968 -0.830081 0
M  V30 5448 C 517.085 2.0228 -0.434773 0
M  V30 5449 C 517.5 1.62487 0.961419 0
M  V30 5450 O 516.857 0.833849 1.62337 0
M  V30 5451 C 516.908 3.5751 -0.535625 0
M  V30 5452 O 516.629 3.95864 -1.87679 0
M  V30 5453 C 518.13 4.43091 -0.136137 0
M  V30 5454 H 515.35 0.648151 -0.173613 0
M  V30 5455 H 517.894 1.71089 -1.12022 0
M  V30 5456 H 516.049 3.87266 0.101817 0
M  V30 5457 H 516.463 4.9056 -1.85609 0
M  V30 5458 H 517.937 5.51398 -0.257772 0
M  V30 5459 H 518.414 4.29433 0.921076 0
M  V30 5460 H 519.02 4.18677 -0.747662 0
M  V30 5461 N 517.335 0.585699 1.46312 0
M  V30 5462 C 518.583 0.072278 2.01971 0
M  V30 5463 C 518.904 -1.29345 1.45928 0
M  V30 5464 O 518.174 -1.84973 0.645109 0
M  V30 5465 H 516.754 0.023729 0.746623 0
M  V30 5466 H 519.416 0.762155 1.7938 0
M  V30 5467 H 518.512 0.00552767 3.121 0
M  V30 5468 N 518.813 -1.54241 0.323641 0
M  V30 5469 C 519.743 -2.27289 -0.534993 0
M  V30 5470 C 520.724 -1.28087 -1.11927 0
M  V30 5471 O 521.909 -1.56899 -1.14439 0
M  V30 5472 C 519.039 -3.03075 -1.69596 0
M  V30 5473 C 517.993 -4.09614 -1.24098 0
M  V30 5474 C 517.319 -4.73242 -2.4889 0
M  V30 5475 C 518.619 -5.21087 -0.355789 0
M  V30 5476 H 520.313 -2.99308 0.0743257 0
M  V30 5477 H 517.859 -1.43952 0.0371874 0
M  V30 5478 H 519.812 -3.52907 -2.30293 0
M  V30 5479 H 518.536 -2.28673 -2.33187 0
M  V30 5480 H 517.195 -3.60666 -0.656945 0
M  V30 5481 H 516.843 -3.95455 -3.10845 0
M  V30 5482 H 516.543 -5.45209 -2.19138 0
M  V30 5483 H 518.067 -5.25848 -3.10348 0
M  V30 5484 H 519.481 -5.66675 -0.869042 0
M  V30 5485 H 517.878 -5.9991 -0.151045 0
M  V30 5486 H 518.948 -4.81005 0.613339 0
M  V30 5487 N 520.291 -0.0518155 -1.57515 0
M  V30 5488 C 521.539 0.620595 -1.92336 0
M  V30 5489 C 521.86 1.71345 -0.930907 0
M  V30 5490 O 521.13 1.95885 0.0241341 0
M  V30 5491 H 519.71 0.232226 -0.709986 0
M  V30 5492 H 522.372 -0.104969 -1.94617 0
M  V30 5493 H 521.468 1.05879 -2.93592 0
M  V30 5494 N 521.769 1.56035 0.221574 0
M  V30 5495 C 522.732 1.91584 1.2581 0
M  V30 5496 C 523.732 0.794425 1.39805 0
M  V30 5497 O 524.922 1.06217 1.38071 0
M  V30 5498 C 522.054 2.16663 2.63192 0
M  V30 5499 H 523.247 2.8429 0.954935 0
M  V30 5500 H 520.8 1.49316 0.461988 0
M  V30 5501 H 521.535 1.26508 2.98607 0
M  V30 5502 H 521.32 2.98358 2.5441 0
M  V30 5503 H 522.81 2.45262 3.37988 0
M  V30 5504 N 523.247 -0.488276 1.49845 0
M  V30 5505 C 524.658 -1.06955 1.53028 0
M  V30 5506 C 525.009 -1.9351 0.323797 0
M  V30 5507 O 524.134 -2.08891 -0.565116 0
M  V30 5508 C 524.729 -1.94643 2.77307 0
M  V30 5509 C 523.288 -2.4791 2.83227 0
M  V30 5510 C 522.435 -1.25833 2.47106 0
M  V30 5511 H 525.386 -0.271626 1.56358 0
M  V30 5512 H 525.407 -2.79496 2.5819 0
M  V30 5513 H 524.919 -1.31621 3.65099 0
M  V30 5514 H 523.02 -3.14535 1.99745 0
M  V30 5515 H 523.133 -2.84193 3.85709 0
M  V30 5516 H 521.497 -1.58764 1.99163 0
M  V30 5517 H 522.28 -0.644993 3.37186 0
M  V30 5518 N 524.725 -1.39134 -0.740242 0
M  V30 5519 C 525.955 -1.39132 -1.52728 0
M  V30 5520 C 526.363 0.0173133 -1.89192 0
M  V30 5521 O 525.706 0.997715 -1.54244 0
M  V30 5522 C 525.768 -2.1952 -2.84695 0
M  V30 5523 C 525.432 -3.68203 -2.70695 0
M  V30 5524 C 526.429 -4.61401 -2.39593 0
M  V30 5525 C 524.114 -4.11724 -2.8773 0
M  V30 5526 C 526.108 -5.96102 -2.25701 0
M  V30 5527 C 523.795 -5.46503 -2.73456 0
M  V30 5528 C 524.793 -6.38506 -2.42486 0
M  V30 5529 O 524.481 -7.70803 -2.28295 0
M  V30 5530 H 524.213 -0.477263 -0.478744 0
M  V30 5531 H 526.767 -1.83504 -0.922799 0
M  V30 5532 H 524.997 -1.69888 -3.47383 0
M  V30 5533 H 526.686 -2.1176 -3.46284 0
M  V30 5534 H 527.452 -4.29079 -2.26088 0
M  V30 5535 H 523.331 -3.4045 -3.10829 0
M  V30 5536 H 526.875 -6.6788 -2.0145 0
M  V30 5537 H 522.772 -5.78417 -2.86538 0
M  V30 5538 H 523.54 -7.8147 -2.43405 0
M  V30 5539 N 526.204 0.969867 -1.24223 0
M  V30 5540 C 527.45 1.71582 -1.09231 0
M  V30 5541 C 527.805 1.88898 0.365432 0
M  V30 5542 O 527.098 1.43781 1.2664 0
M  V30 5543 C 527.292 3.10883 -1.76314 0
M  V30 5544 C 527.121 3.07155 -3.2846 0
M  V30 5545 C 525.891 3.11757 -3.97663 0
M  V30 5546 C 528.089 2.895 -4.25082 0
M  V30 5547 N 526.071 2.98025 -5.36707 0
M  V30 5548 C 527.442 2.84041 -5.51109 0
M  V30 5549 C 529.497 2.74064 -4.15684 0
M  V30 5550 C 528.2 2.64725 -6.68815 0
M  V30 5551 C 530.226 2.56115 -5.33066 0
M  V30 5552 C 529.588 2.51363 -6.58024 0
M  V30 5553 H 525.687 0.636496 -0.454309 0
M  V30 5554 H 528.271 1.15004 -1.57106 0
M  V30 5555 H 526.442 3.65657 -1.30955 0
M  V30 5556 H 528.174 3.74171 -1.54201 0
M  V30 5557 H 524.929 3.20352 -3.48814 0
M  V30 5558 H 525.353 2.94405 -6.09635 0
M  V30 5559 H 529.995 2.76521 -3.19837 0
M  V30 5560 H 527.713 2.61011 -7.64787 0
M  V30 5561 H 531.299 2.45119 -5.27644 0
M  V30 5562 H 530.179 2.37651 -7.47323 0
M  V30 5563 N 527.682 1.05563 1.17022 0
M  V30 5564 C 528.959 0.68165 1.83338 0
M  V30 5565 C 529.339 -0.837665 1.93769 0
M  V30 5566 O 528.687 -1.74507 1.47511 0
M  V30 5567 C 528.897 1.375 3.20772 0
M  V30 5568 C 530.245 1.51545 3.96635 0
M  V30 5569 O 531.269 1.33431 3.30264 0
M  V30 5570 O 530.128 1.812 5.15586 0
M  V30 5571 H 527.222 0.240412 0.791285 0
M  V30 5572 H 529.768 1.15545 1.24288 0
M  V30 5573 H 528.54 2.41135 3.08171 0
M  V30 5574 H 528.163 0.890798 3.87493 0
M  V30 5575 N 529.16 -1.33526 0.837174 0
M  V30 5576 C 530.571 -1.80182 0.489017 0
M  V30 5577 C 530.922 -1.69285 -0.991826 0
M  V30 5578 O 530.047 -1.24113 -1.77271 0
M  V30 5579 C 530.642 -3.27149 0.880866 0
M  V30 5580 C 529.201 -3.71828 0.584872 0
M  V30 5581 C 528.348 -2.54974 1.09011 0
M  V30 5582 H 531.299 -1.21071 1.02603 0
M  V30 5583 H 531.32 -3.80024 0.190239 0
M  V30 5584 H 530.832 -3.35048 1.95869 0
M  V30 5585 H 528.933 -3.69457 -0.48295 0
M  V30 5586 H 529.046 -4.65366 1.13892 0
M  V30 5587 H 527.41 -2.4952 0.511047 0
M  V30 5588 H 528.193 -2.65637 2.17467 0
M  V30 5589 N 530.638 -0.59345 -1.46 0
M  V30 5590 C 531.868 -0.0889642 -2.06408 0
M  V30 5591 C 532.276 1.22597 -1.44106 0
M  V30 5592 O 531.619 1.75448 -0.544398 0
M  V30 5593 C 531.681 0.139902 -3.59228 0
M  V30 5594 C 531.345 -1.09107 -4.43784 0
M  V30 5595 C 532.342 -2.00577 -4.79651 0
M  V30 5596 C 530.027 -1.31593 -4.84756 0
M  V30 5597 C 532.021 -3.12873 -5.55328 0
M  V30 5598 C 529.708 -2.44192 -5.60191 0
M  V30 5599 C 530.706 -3.34661 -5.95392 0
M  V30 5600 O 530.394 -4.45302 -6.69299 0
M  V30 5601 H 530.126 -0.0594613 -0.67338 0
M  V30 5602 H 532.68 -0.817 -1.88452 0
M  V30 5603 H 530.91 0.922672 -3.75531 0
M  V30 5604 H 532.599 0.594228 -4.01527 0
M  V30 5605 H 533.365 -1.84425 -4.48567 0
M  V30 5606 H 529.244 -0.620801 -4.56801 0
M  V30 5607 H 532.788 -3.83511 -5.82722 0
M  V30 5608 H 528.685 -2.60303 -5.90688 0
M  V30 5609 H 529.453 -4.43805 -6.87735 0
M  V30 5610 N 532.116 1.54067 -0.331816 0
M  V30 5611 C 533.079 2.23275 0.517768 0
M  V30 5612 C 534.079 1.22897 1.03697 0
M  V30 5613 O 535.269 1.47419 0.928084 0
M  V30 5614 C 532.401 2.94326 1.72004 0
M  V30 5615 H 533.594 2.99773 -0.0873507 0
M  V30 5616 H 531.147 1.56079 -0.0830042 0
M  V30 5617 H 531.882 2.21986 2.36417 0
M  V30 5618 H 531.667 3.67941 1.35507 0
M  V30 5619 H 533.157 3.47031 2.32291 0
M  V30 5620 N 533.594 0.0601682 1.57485 0
M  V30 5621 C 535.01 -0.296422 1.56823 0
M  V30 5622 C 535.21 -1.70831 1.0686 0
M  V30 5623 O 534.266 -2.4174 0.729245 0
M  V30 5624 C 535.579 -0.116681 3.00474 0
M  V30 5625 C 537.127 -0.187103 3.1244 0
M  V30 5626 C 537.602 -0.035783 4.57986 0
M  V30 5627 N 539.093 -0.0917676 4.63109 0
M  V30 5628 C 539.828 0.00107251 5.734 0
M  V30 5629 N 539.324 0.146773 6.92645 0
M  V30 5630 N 541.117 -0.0551577 5.62073 0
M  V30 5631 H 533.268 0.983055 1.88281 0
M  V30 5632 H 535.531 0.382386 0.867459 0
M  V30 5633 H 535.237 0.85712 3.41096 0
M  V30 5634 H 535.111 -0.873929 3.66936 0
M  V30 5635 H 537.498 -1.15138 2.71712 0
M  V30 5636 H 537.579 0.601052 2.48638 0
M  V30 5637 H 537.223 0.925212 4.99402 0
M  V30 5638 H 537.153 -0.843196 5.19806 0
M  V30 5639 H 539.644 -0.203261 3.77353 0
M  V30 5640 H 539.957 0.210076 7.72514 0
M  V30 5641 H 538.302 0.181979 6.94762 0
M  V30 5642 H 541.493 -0.167605 4.678 0
M  V30 5643 H 541.666 0.020652 6.47997 0
M  V30 5644 N 535.072 -1.5615 -0.213296 0
M  V30 5645 C 536.32 -1.79191 -0.934612 0
M  V30 5646 C 536.641 -0.630112 -1.84539 0
M  V30 5647 O 535.911 0.35257 -1.92701 0
M  V30 5648 H 534.491 -0.660937 -0.348097 0
M  V30 5649 H 537.153 -1.93618 -0.22317 0
M  V30 5650 H 536.249 -2.71656 -1.53654 0
M  V30 5651 N 536.55 0.480323 -1.50102 0
M  V30 5652 C 537.513 1.56181 -1.6775 0
M  V30 5653 C 538.513 1.51156 -0.548503 0
M  V30 5654 O 539.703 1.5394 -0.815363 0
M  V30 5655 C 536.835 2.95823 -1.69415 0
M  V30 5656 H 538.028 1.41855 -2.6423 0
M  V30 5657 H 535.581 0.70605 -1.39444 0
M  V30 5658 H 536.316 3.15604 -0.745948 0
M  V30 5659 H 536.101 3.00878 -2.51425 0
M  V30 5660 H 537.591 3.74359 -1.85054 0
M  V30 5661 N 538.028 1.39524 0.732853 0
M  V30 5662 C 539.277 1.36175 1.48792 0
M  V30 5663 C 539.59 -0.0388195 1.95561 0
M  V30 5664 O 540.796 -0.194899 2.708 0
M  V30 5665 C 539.252 2.39242 2.68871 0
M  V30 5666 C 538.86 3.85024 2.29042 0
M  V30 5667 C 540.604 2.44972 3.46683 0
M  V30 5668 C 538.511 4.79727 3.45856 0
M  V30 5669 H 537.441 0.506267 0.558757 0
M  V30 5670 H 540.092 1.65181 0.799226 0
M  V30 5671 H 538.474 2.0331 3.39825 0
M  V30 5672 H 539.648 4.30008 1.6562 0
M  V30 5673 H 537.963 3.82609 1.64316 0
M  V30 5674 H 540.56 3.12918 4.33574 0
M  V30 5675 H 540.903 1.4749 3.89297 0
M  V30 5676 H 541.436 2.79808 2.82759 0
M  V30 5677 H 538.175 5.78479 3.08289 0
M  V30 5678 H 537.695 4.39421 4.08251 0
M  V30 5679 H 539.374 4.98731 4.12161 0
M  V30 5680 N 539.506 -0.963266 1.24736 0
M  V30 5681 C 540.753 -1.7068 1.0897 0
M  V30 5682 C 541.081 -1.90934 -0.370751 0
M  V30 5683 O 540.336 -1.47155 -1.29011 0
M  V30 5684 C 540.635 -3.09944 1.7796 0
M  V30 5685 C 540.301 -3.09518 3.27887 0
M  V30 5686 C 538.963 -3.09109 3.68789 0
M  V30 5687 C 541.315 -3.03509 4.23712 0
M  V30 5688 C 538.643 -3.00429 5.03944 0
M  V30 5689 C 540.995 -2.96371 5.5888 0
M  V30 5690 C 539.659 -2.94293 5.99123 0
M  V30 5691 H 538.929 -0.624564 0.398749 0
M  V30 5692 H 541.576 -1.12603 1.54896 0
M  V30 5693 H 539.881 -3.71513 1.2444 0
M  V30 5694 H 541.578 -3.66278 1.63222 0
M  V30 5695 H 538.168 -3.10603 2.95337 0
M  V30 5696 H 542.352 -3.0295 3.93109 0
M  V30 5697 H 537.608 -2.97183 5.34314 0
M  V30 5698 H 541.782 -2.90681 6.32833 0
M  V30 5699 H 539.409 -2.87322 7.03811 0
M  V30 5700 N 540.985 -1.06182 -1.16461 0
M  V30 5701 C 542.233 -0.776326 -1.86595 0
M  V30 5702 C 542.554 0.69921 -1.82033 0
M  V30 5703 O 541.824 1.50579 -1.2531 0
M  V30 5704 H 540.404 -0.284184 -0.690832 0
M  V30 5705 H 543.066 -1.34308 -1.41235 0
M  V30 5706 H 542.162 -1.10022 -2.92064 0
M  V30 5707 N 542.463 1.3308 -0.844243 0
M  V30 5708 C 543.393 2.3161 -0.296493 0
M  V30 5709 C 544.374 1.59215 0.598707 0
M  V30 5710 O 545.559 1.87077 0.521134 0
M  V30 5711 C 542.689 3.43313 0.524762 0
M  V30 5712 C 541.643 4.27115 -0.275106 0
M  V30 5713 C 540.969 5.30483 0.670236 0
M  V30 5714 C 542.269 5.00443 -1.49514 0
M  V30 5715 H 543.963 2.77672 -1.11976 0
M  V30 5716 H 541.509 1.33496 -0.539899 0
M  V30 5717 H 543.462 4.11273 0.918298 0
M  V30 5718 H 542.186 2.95952 1.3813 0
M  V30 5719 H 540.845 3.60787 -0.650267 0
M  V30 5720 H 540.493 4.79379 1.52332 0
M  V30 5721 H 540.193 5.87435 0.139123 0
M  V30 5722 H 541.717 6.01308 1.06117 0
M  V30 5723 H 543.131 5.61141 -1.17447 0
M  V30 5724 H 541.528 5.67071 -1.96343 0
M  V30 5725 H 542.598 4.28906 -2.26202 0
M  V30 5726 N 543.941 0.601185 1.45683 0
M  V30 5727 C 545.169 0.100054 2.06658 0
M  V30 5728 C 545.584 -1.21285 1.44691 0
M  V30 5729 O 544.941 -1.73735 0.558772 0
M  V30 5730 C 544.992 -0.0528579 3.61461 0
M  V30 5731 O 544.713 1.20809 4.21114 0
M  V30 5732 C 546.214 -0.586193 4.39407 0
M  V30 5733 H 543.434 0.065905 0.667756 0
M  V30 5734 H 545.978 0.827101 1.87028 0
M  V30 5735 H 544.133 -0.730203 3.80456 0
M  V30 5736 H 544.547 1.03368 5.14213 0
M  V30 5737 H 546.021 -0.642297 5.4825 0
M  V30 5738 H 546.498 -1.60713 4.0874 0
M  V30 5739 H 547.104 0.0568935 4.25262 0
M  V30 5740 N 545.419 -1.53889 0.339982 0
M  V30 5741 C 546.835 -1.59595 -0.0120752 0
M  V30 5742 C 547.035 -1.35605 -1.49042 0
M  V30 5743 O 546.091 -1.14856 -2.24865 0
M  V30 5744 C 547.404 -2.9774 0.420898 0
M  V30 5745 C 548.952 -3.1077 0.37294 0
M  V30 5746 C 549.427 -4.51286 0.781327 0
M  V30 5747 N 550.918 -4.57325 0.735374 0
M  V30 5748 C 551.653 -5.64194 1.02336 0
M  V30 5749 N 551.149 -6.7893 1.37933 0
M  V30 5750 N 552.942 -5.54051 0.947838 0
M  V30 5751 H 545.093 -1.67738 1.30299 0
M  V30 5752 H 547.356 -0.785385 0.530918 0
M  V30 5753 H 547.062 -3.20349 1.45152 0
M  V30 5754 H 546.936 -3.76639 -0.205721 0
M  V30 5755 H 549.323 -2.87886 -0.648505 0
M  V30 5756 H 549.404 -2.33939 1.03472 0
M  V30 5757 H 549.048 -4.74905 1.80077 0
M  V30 5758 H 548.978 -5.26511 0.0970679 0
M  V30 5759 H 551.469 -3.74931 0.472773 0
M  V30 5760 H 551.782 -7.56392 1.58402 0
M  V30 5761 H 550.127 -6.80386 1.41774 0
M  V30 5762 H 553.318 -4.63293 0.669115 0
M  V30 5763 H 553.491 -6.37246 1.17563 0
M  V30 5764 N 546.897 -0.0685191 -1.57451 0
M  V30 5765 C 548.145 0.60016 -1.92983 0
M  V30 5766 C 548.466 1.70348 -0.949028 0
M  V30 5767 O 547.736 1.959 0.00335647 0
M  V30 5768 H 546.316 0.224682 -0.712409 0
M  V30 5769 H 548.978 -0.125605 -1.94495 0
M  V30 5770 H 548.074 1.02759 -2.94698 0
M  V30 5771 N 548.375 1.56261 0.205012 0
M  V30 5772 C 549.621 1.80306 0.9283 0
M  V30 5773 C 549.954 0.640932 1.83319 0
M  V30 5774 O 549.229 -0.359032 1.91158 0
M  V30 5775 C 549.512 3.14547 1.75306 0
M  V30 5776 C 549.365 4.41236 0.873562 0
M  V30 5777 C 550.684 3.45382 2.72762 0
M  V30 5778 H 547.803 0.655929 0.336044 0
M  V30 5779 H 550.445 1.88984 0.196211 0
M  V30 5780 H 548.595 3.0728 2.37721 0
M  V30 5781 H 550.267 4.60539 0.264887 0
M  V30 5782 H 548.51 4.33427 0.179773 0
M  V30 5783 H 549.181 5.31639 1.48541 0
M  V30 5784 H 551.657 3.52884 2.20481 0
M  V30 5785 H 550.533 4.40449 3.2756 0
M  V30 5786 H 550.794 2.68377 3.51321 0
M  V30 5787 N 549.853 -0.472356 1.50355 0
M  V30 5788 C 550.801 -1.59126 1.69651 0
M  V30 5789 C 551.795 -1.59793 0.56237 0
M  V30 5790 O 553.001 -1.63957 0.742832 0
M  V30 5791 H 549.376 -0.528008 0.535454 0
M  V30 5792 H 551.347 -1.40013 2.63513 0
M  V30 5793 C 550.096 -2.97075 1.8067 0
M  V30 5794 H 549.419 -2.9728 2.67329 0
M  V30 5795 H 550.859 -3.74825 1.98197 0
M  V30 5796 C 549.318 -3.32247 0.558016 0
M  V30 5797 O 549.848 -4.00553 -0.303399 0
M  V30 5798 N 548.054 -2.87659 0.412415 0
M  V30 5799 H 547.601 -2.32246 1.11443 0
M  V30 5800 H 547.559 -3.11556 -0.421908 0
M  V30 5801 N 551.331 -1.39911 -0.725443 0
M  V30 5802 C 552.294 -1.39156 -1.82121 0
M  V30 5803 C 553.294 -0.287018 -1.58218 0
M  V30 5804 O 554.484 -0.545421 -1.65441 0
M  V30 5805 C 551.616 -1.1736 -3.20062 0
M  V30 5806 H 552.809 -2.36672 -1.84191 0
M  V30 5807 H 550.362 -1.25615 -0.930079 0
M  V30 5808 H 551.097 -0.205648 -3.23647 0
M  V30 5809 H 550.882 -1.97358 -3.3881 0
M  V30 5810 H 552.372 -1.19596 -4.00108 0
M  V30 5811 N 552.809 0.956637 -1.25245 0
M  V30 5812 C 553.757 2.0743 -1.0524 0
M  V30 5813 C 554.751 1.69392 0.0160725 0
M  V30 5814 O 555.957 1.7946 -0.139382 0
M  V30 5815 H 552.332 0.678921 -0.323373 0
M  V30 5816 H 554.303 2.2146 -1.99995 0
M  V30 5817 C 553.052 3.40872 -0.685702 0
M  V30 5818 H 552.375 3.70607 -1.49968 0
M  V30 5819 H 553.815 4.19939 -0.585415 0
M  V30 5820 C 552.274 3.31367 0.608082 0
M  V30 5821 O 552.804 3.66214 1.65076 0
M  V30 5822 N 551.01 2.84486 0.592955 0
M  V30 5823 H 550.557 2.56326 -0.25592 0
M  V30 5824 H 550.515 2.78509 1.45877 0
M  V30 5825 N 554.287 1.06798 1.15896 0
M  V30 5826 C 555.237 0.653213 2.18443 0
M  V30 5827 C 556.221 -0.318763 1.57711 0
M  V30 5828 O 557.413 -0.133388 1.76497 0
M  V30 5829 C 554.542 0.0465785 3.43268 0
M  V30 5830 C 553.628 1.04336 4.11066 0
M  V30 5831 N 554.019 2.22084 4.54436 0
M  V30 5832 C 552.317 0.875433 4.37324 0
M  V30 5833 C 553.018 2.85276 5.06944 0
M  V30 5834 N 551.994 2.12973 5.00143 0
M  V30 5835 H 555.796 1.55011 2.49698 0
M  V30 5836 H 553.31 0.940384 1.32403 0
M  V30 5837 H 555.307 -0.26843 4.16035 0
M  V30 5838 H 553.967 -0.845504 3.13499 0
M  V30 5839 H 554.978 2.59833 4.48004 0
M  V30 5840 H 551.655 0.0357721 4.17485 0
M  V30 5841 H 553.045 3.85223 5.50503 0
M  V30 5842 N 555.766 -1.3263 0.851289 0
M  V30 5843 C 557.015 -1.96633 0.449267 0
M  V30 5844 C 557.328 -1.68131 -0.999562 0
M  V30 5845 O 558.534 -2.25845 -1.50685 0
M  V30 5846 C 556.99 -3.51946 0.752446 0
M  V30 5847 C 556.598 -3.89311 2.21678 0
M  V30 5848 C 558.342 -4.22437 0.417983 0
M  V30 5849 C 556.249 -5.37655 2.46336 0
M  V30 5850 H 555.179 -0.735888 0.164269 0
M  V30 5851 H 557.83 -1.51073 1.0416 0
M  V30 5852 H 556.212 -3.95899 0.0895858 0
M  V30 5853 H 557.386 -3.56378 2.92115 0
M  V30 5854 H 555.701 -3.31836 2.51543 0
M  V30 5855 H 558.298 -5.31549 0.579674 0
M  V30 5856 H 558.641 -4.11349 -0.640115 0
M  V30 5857 H 559.174 -3.84057 1.03659 0
M  V30 5858 H 555.913 -5.5376 3.50757 0
M  V30 5859 H 555.433 -5.72005 1.80473 0
M  V30 5860 H 557.112 -6.04695 2.30115 0
M  V30 5861 N 557.244 -0.608902 -1.45362 0
M  V30 5862 C 558.493 -0.10218 -2.01441 0
M  V30 5863 C 558.806 1.27546 -1.48295 0
M  V30 5864 O 560.012 1.87498 -1.96359 0
M  V30 5865 C 558.468 -0.131985 -3.59658 0
M  V30 5866 C 558.076 -1.50956 -4.21801 0
M  V30 5867 C 559.82 0.319427 -4.23296 0
M  V30 5868 C 557.727 -1.49568 -5.72174 0
M  V30 5869 H 556.657 -0.0344314 -0.753213 0
M  V30 5870 H 559.308 -0.764426 -1.6682 0
M  V30 5871 H 557.69 0.596939 -3.91475 0
M  V30 5872 H 558.864 -2.26029 -4.01556 0
M  V30 5873 H 557.179 -1.90318 -3.70362 0
M  V30 5874 H 559.776 0.349013 -5.3356 0
M  V30 5875 H 560.119 1.34237 -3.94064 0
M  V30 5876 H 560.652 -0.356273 -3.96201 0
M  V30 5877 H 557.391 -2.49626 -6.06108 0
M  V30 5878 H 556.911 -0.787542 -5.94607 0
M  V30 5879 H 558.59 -1.21989 -6.35396 0
M  V30 5880 N 558.722 1.53707 -0.348139 0
M  V30 5881 C 560.138 1.596 0.00361134 0
M  V30 5882 C 560.338 1.36394 1.4832 0
M  V30 5883 O 559.394 1.16046 2.24253 0
M  V30 5884 C 560.707 2.97512 -0.436682 0
M  V30 5885 C 562.255 3.10568 -0.389416 0
M  V30 5886 C 562.73 4.50866 -0.805249 0
M  V30 5887 N 564.221 4.56929 -0.759616 0
M  V30 5888 C 564.956 5.63643 -1.05327 0
M  V30 5889 N 564.452 6.78189 -1.41531 0
M  V30 5890 N 566.245 5.5354 -0.977207 0
M  V30 5891 H 558.396 1.67044 -1.31187 0
M  V30 5892 H 560.659 0.782559 -0.535075 0
M  V30 5893 H 560.365 3.19575 -1.46849 0
M  V30 5894 H 560.239 3.76742 0.185744 0
M  V30 5895 H 562.626 2.88226 0.633228 0
M  V30 5896 H 562.707 2.33387 -1.04711 0
M  V30 5897 H 562.351 4.73943 -1.82593 0
M  V30 5898 H 562.281 5.26452 -0.124989 0
M  V30 5899 H 564.772 3.74675 -0.49265 0
M  V30 5900 H 565.085 7.55541 -1.62411 0
M  V30 5901 H 563.43 6.79624 -1.45381 0
M  V30 5902 H 566.621 4.62932 -0.693675 0
M  V30 5903 H 566.794 6.36614 -1.2094 0
M  V30 5904 N 560.2 0.0768682 1.57412 0
M  V30 5905 C 561.163 -0.873949 2.11884 0
M  V30 5906 C 562.163 -1.22301 1.04398 0
M  V30 5907 O 563.353 -1.15545 1.30365 0
M  V30 5908 C 560.485 -2.17575 2.62438 0
M  V30 5909 H 561.678 -0.401278 2.97203 0
M  V30 5910 H 559.231 -0.171904 1.55352 0
M  V30 5911 H 559.966 -2.69368 1.80587 0
M  V30 5912 H 559.751 -1.93534 3.41009 0
M  V30 5913 H 561.241 -2.85631 3.04639 0
M  V30 5914 N 561.678 -1.56367 -0.196722 0
M  V30 5915 C 562.906 -1.84639 -0.933608 0
M  V30 5916 C 563.321 -0.659164 -1.76919 0
M  V30 5917 O 562.678 0.372142 -1.78665 0
M  V30 5918 C 562.729 -3.11694 -1.83109 0
M  V30 5919 O 562.45 -4.25838 -1.02924 0
M  V30 5920 C 563.951 -3.53132 -2.67979 0
M  V30 5921 H 561.171 -0.613188 -0.272473 0
M  V30 5922 H 563.715 -2.03475 -0.204465 0
M  V30 5923 H 561.87 -2.94759 -2.51387 0
M  V30 5924 H 562.284 -4.98178 -1.64069 0
M  V30 5925 H 563.758 -4.45005 -3.26611 0
M  V30 5926 H 564.235 -2.76045 -3.41608 0
M  V30 5927 H 564.841 -3.72592 -2.05074 0
M  V30 5928 N 563.156 0.464375 -1.50603 0
M  V30 5929 C 564.086 1.56944 -1.72889 0
M  V30 5930 C 565.067 1.59979 -0.577997 0
M  V30 5931 O 566.252 1.76138 -0.817855 0
M  V30 5932 C 563.382 2.95225 -1.8292 0
M  V30 5933 C 562.336 3.07056 -2.98162 0
M  V30 5934 C 561.662 4.47051 -2.93343 0
M  V30 5935 C 562.962 2.83648 -4.38567 0
M  V30 5936 H 564.656 1.38547 -2.65415 0
M  V30 5937 H 562.202 0.665082 -1.27721 0
M  V30 5938 H 564.155 3.72467 -1.97095 0
M  V30 5939 H 562.879 3.14793 -0.870209 0
M  V30 5940 H 561.538 2.32248 -2.83648 0
M  V30 5941 H 561.186 4.63547 -1.95276 0
M  V30 5942 H 560.886 4.55902 -3.70712 0
M  V30 5943 H 562.41 5.26304 -3.09575 0
M  V30 5944 H 563.824 3.50636 -4.53572 0
M  V30 5945 H 562.221 3.03937 -5.17438 0
M  V30 5946 H 563.291 1.79451 -4.50472 0
M  V30 5947 N 564.634 1.40294 0.718013 0
M  V30 5948 C 565.544 1.42678 1.86226 0
M  V30 5949 C 566.56 0.319655 1.71039 0
M  V30 5950 O 567.736 0.563852 1.93346 0
M  V30 5951 C 564.801 1.2852 3.21999 0
M  V30 5952 C 563.862 2.49354 3.49458 0
M  V30 5953 C 563.095 2.35863 4.78753 0
M  V30 5954 O 563.318 1.37114 5.53675 0
M  V30 5955 O 562.252 3.25189 5.06494 0
M  V30 5956 H 566.078 2.39167 1.87171 0
M  V30 5957 H 563.663 1.2159 0.868112 0
M  V30 5958 H 565.545 1.22824 4.03103 0
M  V30 5959 H 564.22 0.351359 3.21787 0
M  V30 5960 H 563.127 2.60628 2.68373 0
M  V30 5961 H 564.46 3.41491 3.54464 0
M  V30 5962 N 566.112 -0.949982 1.2575 0
M  V30 5963 C 567.337 -1.73503 1.13628 0
M  V30 5964 C 567.762 -1.85601 -0.30559 0
M  V30 5965 O 567.12 -1.33984 -1.22139 0
M  V30 5966 C 567.168 -3.1243 1.80055 0
M  V30 5967 O 566.272 -3.97916 1.08336 0
M  V30 5968 H 565.613 -0.532665 0.396439 0
M  V30 5969 H 568.143 -1.19043 1.66403 0
M  V30 5970 H 568.153 -3.62866 1.86527 0
M  V30 5971 H 566.828 -3.02941 2.84956 0
M  V30 5972 H 565.405 -3.56375 1.09777 0
M  V30 5973 N 567.59 -1.07411 -1.15328 0
M  V30 5974 C 568.839 -0.792643 -1.85473 0
M  V30 5975 C 569.152 0.683789 -1.83259 0
M  V30 5976 O 570.358 1.08005 -2.49093 0
M  V30 5977 C 568.814 -1.36787 -3.32892 0
M  V30 5978 C 568.422 -2.87536 -3.43551 0
M  V30 5979 C 570.166 -1.16444 -4.08217 0
M  V30 5980 C 568.073 -3.38247 -4.85122 0
M  V30 5981 H 567.003 -0.292838 -0.694811 0
M  V30 5982 H 569.654 -1.29426 -1.30082 0
M  V30 5983 H 568.036 -0.793993 -3.87958 0
M  V30 5984 H 569.21 -3.50973 -2.98588 0
M  V30 5985 H 567.525 -3.06676 -2.81672 0
M  V30 5986 H 570.122 -1.51808 -5.12697 0
M  V30 5987 H 570.465 -0.10353 -4.16171 0
M  V30 5988 H 570.998 -1.70472 -3.59422 0
M  V30 5989 H 567.737 -4.43866 -4.82351 0
M  V30 5990 H 567.257 -2.79564 -5.30664 0
M  V30 5991 H 568.936 -3.34238 -5.5398 0
M  V30 5992 N 569.068 1.32177 -0.85831 0
M  V30 5993 C 570.031 2.27086 -0.310588 0
M  V30 5994 C 571.031 1.51751 0.531806 0
M  V30 5995 O 572.221 1.70794 0.34279 0
M  V30 5996 C 569.353 3.36266 0.560179 0
M  V30 5997 H 570.546 2.77045 -1.1483 0
M  V30 5998 H 568.099 1.42911 -0.632942 0
M  V30 5999 H 568.834 2.9158 1.41956 0
M  V30 6000 H 568.619 3.92077 -0.0428473 0
M  V30 6001 H 570.109 4.06974 0.936056 0
M  V30 6002 N 570.547 0.616602 1.45037 0
M  V30 6003 C 571.777 0.121791 2.06241 0
M  V30 6004 C 572.185 -1.20289 1.46038 0
M  V30 6005 O 571.528 -1.7456 0.572242 0
M  V30 6006 C 571.59 -0.0827345 3.59405 0
M  V30 6007 C 571.254 1.16153 4.41993 0
M  V30 6008 C 572.251 2.08183 4.76399 0
M  V30 6009 C 569.936 1.39288 4.82601 0
M  V30 6010 C 571.93 3.21668 5.5028 0
M  V30 6011 C 569.617 2.53073 5.56235 0
M  V30 6012 C 570.615 3.44091 5.89992 0
M  V30 6013 O 570.303 4.55894 6.6213 0
M  V30 6014 H 570.035 0.0701667 0.672349 0
M  V30 6015 H 572.589 0.846877 1.87129 0
M  V30 6016 H 570.819 -0.862812 3.76952 0
M  V30 6017 H 572.508 -0.530273 4.02421 0
M  V30 6018 H 573.274 1.91538 4.45576 0
M  V30 6019 H 569.153 0.693396 4.55755 0
M  V30 6020 H 572.697 3.92733 5.76547 0
M  V30 6021 H 568.594 2.69667 5.86472 0
M  V30 6022 H 569.362 4.5469 6.80587 0
M  V30 6023 N 572.025 -1.5352 0.356285 0
M  V30 6024 C 572.957 -2.23009 -0.529127 0
M  V30 6025 C 573.97 -1.241 -1.05371 0
M  V30 6026 O 575.159 -1.50379 -0.961679 0
M  V30 6027 C 572.259 -2.90685 -1.74229 0
M  V30 6028 C 571.432 -4.16019 -1.35081 0
M  V30 6029 C 570.491 -4.66989 -2.42502 0
M  V30 6030 O 569.517 -5.30895 -2.05279 0
M  V30 6031 N 570.719 -4.44006 -3.7395 0
M  V30 6032 H 573.484 -2.99627 0.0660501 0
M  V30 6033 H 571.045 -1.60885 0.181014 0
M  V30 6034 H 573.037 -3.21695 -2.4555 0
M  V30 6035 H 571.607 -2.17575 -2.24454 0
M  V30 6036 H 570.827 -3.91414 -0.467833 0
M  V30 6037 H 572.115 -4.9752 -1.06542 0
M  V30 6038 H 571.513 -3.92924 -4.06973 0
M  V30 6039 H 570.07 -4.7959 -4.41403 0
M  V30 6040 N 573.503 -0.0852151 -1.57369 0
M  V30 6041 C 574.731 0.58946 -1.98325 0
M  V30 6042 C 575.146 1.62333 -0.96403 0
M  V30 6043 O 574.503 1.82438 0.0476395 0
M  V30 6044 C 574.554 1.24604 -3.39347 0
M  V30 6045 O 574.275 0.253532 -4.37366 0
M  V30 6046 C 575.776 2.00726 -3.95252 0
M  V30 6047 H 572.996 0.158783 -0.651942 0
M  V30 6048 H 575.54 -0.161584 -2.03861 0
M  V30 6049 H 573.695 1.94808 -3.34856 0
M  V30 6050 H 574.109 0.726207 -5.19448 0
M  V30 6051 H 575.583 2.42039 -4.96106 0
M  V30 6052 H 576.06 2.86919 -3.32527 0
M  V30 6053 H 576.666 1.3536 -4.03185 0
M  V30 6054 N 574.981 1.5647 0.188427 0
M  V30 6055 C 576.397 1.50204 0.539532 0
M  V30 6056 C 576.597 0.78644 1.85519 0
M  V30 6057 O 575.653 0.339714 2.50204 0
M  V30 6058 C 576.966 2.94893 0.588103 0
M  V30 6059 C 578.514 3.05602 0.67648 0
M  V30 6060 C 578.989 4.51716 0.756101 0
M  V30 6061 N 580.48 4.55894 0.819451 0
M  V30 6062 C 581.215 5.66272 0.90134 0
M  V30 6063 N 580.711 6.86323 0.945118 0
M  V30 6064 N 582.504 5.54201 0.939043 0
M  V30 6065 H 574.655 2.01406 -0.674493 0
M  V30 6066 H 576.918 0.916828 -0.241103 0
M  V30 6067 H 576.624 3.50334 -0.309633 0
M  V30 6068 H 576.498 3.4861 1.44051 0
M  V30 6069 H 578.885 2.50206 1.56465 0
M  V30 6070 H 578.966 2.54999 -0.202262 0
M  V30 6071 H 578.61 5.07739 -0.12774 0
M  V30 6072 H 578.54 5.00058 1.65074 0
M  V30 6073 H 581.031 3.69452 0.794594 0
M  V30 6074 H 581.344 7.66194 1.0083 0
M  V30 6075 H 579.689 6.88968 0.913683 0
M  V30 6076 H 582.88 4.59333 0.901725 0
M  V30 6077 H 583.053 6.40247 0.999402 0
M  V30 6078 N 576.459 -0.456382 1.50847 0
M  V30 6079 C 577.736 -1.21739 1.53098 0
M  V30 6080 C 578.116 -2.09179 0.284132 0
M  V30 6081 O 577.464 -2.16466 -0.731773 0
M  V30 6082 C 577.674 -2.03573 2.83477 0
M  V30 6083 C 579.022 -2.61264 3.34703 0
M  V30 6084 O 580.046 -2.13802 2.84898 0
M  V30 6085 O 578.905 -3.47779 4.21559 0
M  V30 6086 H 575.999 -0.553219 0.614718 0
M  V30 6087 H 578.545 -0.467003 1.63148 0
M  V30 6088 H 577.317 -1.39232 3.65691 0
M  V30 6089 H 576.94 -2.85716 2.76499 0
M  V30 6090 N 577.937 -1.40673 -0.710563 0
M  V30 6091 C 579.183 -1.39428 -1.47267 0
M  V30 6092 C 579.516 0.00182129 -1.942 0
M  V30 6093 O 578.791 0.971387 -1.68506 0
M  V30 6094 C 579.074 -2.38812 -2.6952 0
M  V30 6095 C 578.927 -3.87467 -2.28449 0
M  V30 6096 C 580.246 -2.3566 -3.71689 0
M  V30 6097 H 577.365 -0.507768 -0.534173 0
M  V30 6098 H 580.007 -1.71843 -0.810547 0
M  V30 6099 H 578.157 -2.113 -3.26013 0
M  V30 6100 H 579.829 -4.25825 -1.77399 0
M  V30 6101 H 578.072 -4.03058 -1.60395 0
M  V30 6102 H 578.743 -4.5253 -3.16103 0
M  V30 6103 H 581.219 -2.6004 -3.24836 0
M  V30 6104 H 580.095 -3.07237 -4.54859 0
M  V30 6105 H 580.356 -1.36996 -4.20339 0
M  V30 6106 N 579.415 0.9433 -1.26252 0
M  V30 6107 C 580.345 2.05902 -1.10122 0
M  V30 6108 C 581.326 1.70099 -0.00700552 0
M  V30 6109 O 582.511 1.93377 -0.178641 0
M  V30 6110 C 579.641 3.39516 -0.731175 0
M  V30 6111 C 578.595 3.89372 -1.77688 0
M  V30 6112 C 577.921 5.19613 -1.26122 0
M  V30 6113 C 579.221 4.14489 -3.17799 0
M  V30 6114 H 580.915 2.19655 -2.03451 0
M  V30 6115 H 578.461 1.05548 -0.979576 0
M  V30 6116 H 580.414 4.17031 -0.605215 0
M  V30 6117 H 579.138 3.25733 0.23782 0
M  V30 6118 H 577.797 3.14036 -1.89148 0
M  V30 6119 H 577.445 5.02208 -0.282128 0
M  V30 6120 H 577.145 5.53939 -1.96023 0
M  V30 6121 H 578.669 5.99713 -1.14789 0
M  V30 6122 H 580.083 4.82625 -3.09428 0
M  V30 6123 H 578.48 4.60094 -3.85271 0
M  V30 6124 H 579.55 3.20347 -3.64014 0
M  V30 6125 N 580.893 1.08022 1.14757 0
M  V30 6126 C 581.803 0.718292 2.23333 0
M  V30 6127 C 582.819 -0.273477 1.71837 0
M  V30 6128 O 583.995 -0.118406 2.01052 0
M  V30 6129 C 581.06 0.128855 3.4646 0
M  V30 6130 C 580.121 1.17473 4.12915 0
M  V30 6131 C 579.354 0.61333 5.30164 0
M  V30 6132 O 579.577 -0.568458 5.6756 0
M  V30 6133 O 578.511 1.3615 5.86299 0
M  V30 6134 H 582.337 1.62394 2.56636 0
M  V30 6135 H 579.922 0.853628 1.22611 0
M  V30 6136 H 581.804 -0.197249 4.20938 0
M  V30 6137 H 580.479 -0.750014 3.14891 0
M  V30 6138 H 579.386 1.5533 3.40328 0
M  V30 6139 H 580.719 2.02574 4.48581 0
M  V30 6140 N 582.371 -1.3172 0.865308 0
M  V30 6141 C 583.334 -2.26918 0.322627 0
M  V30 6142 C 584.334 -1.52031 -0.523751 0
M  V30 6143 O 585.524 -1.70973 -0.333727 0
M  V30 6144 C 582.656 -3.36558 -0.542338 0
M  V30 6145 H 583.849 -2.76432 1.16298 0
M  V30 6146 H 581.402 -1.42573 0.640512 0
M  V30 6147 H 582.137 -2.92329 -1.40407 0
M  V30 6148 H 581.922 -3.92048 0.0636395 0
M  V30 6149 H 583.412 -4.07465 -0.91446 0
M  V30 6150 N 583.85 -0.624285 -1.44708 0
M  V30 6151 C 584.783 0.133905 -2.27807 0
M  V30 6152 C 585.76 0.857794 -1.38133 0
M  V30 6153 O 586.945 0.863277 -1.6757 0
M  V30 6154 C 584.072 1.19541 -3.16903 0
M  V30 6155 C 583.118 0.572813 -4.22636 0
M  V30 6156 S 583.951 -0.631953 -5.31758 0
M  V30 6157 C 585.106 0.429733 -6.24423 0
M  V30 6158 H 585.34 -0.571072 -2.91764 0
M  V30 6159 H 582.873 -0.412261 -1.48794 0
M  V30 6160 H 584.831 1.80293 -3.68788 0
M  V30 6161 H 583.492 1.87255 -2.5218 0
M  V30 6162 H 582.685 1.37205 -4.84965 0
M  V30 6163 H 582.287 0.0400641 -3.73979 0
M  V30 6164 H 584.579 1.30421 -6.64828 0
M  V30 6165 H 585.522 -0.157804 -7.07924 0
M  V30 6166 H 585.93 0.75256 -5.59461 0
M  V30 6167 N 585.328 1.53329 -0.364422 0
M  V30 6168 C 586.26 2.23286 0.517293 0
M  V30 6169 C 587.273 1.24657 1.04711 0
M  V30 6170 O 588.462 1.50887 0.95369 0
M  V30 6171 C 585.562 2.91604 1.72685 0
M  V30 6172 C 584.735 4.1673 1.32873 0
M  V30 6173 C 583.794 4.68269 2.40022 0
M  V30 6174 O 582.82 5.31976 2.02461 0
M  V30 6175 N 584.022 4.45983 3.7159 0
M  V30 6176 H 586.787 2.99588 -0.0819391 0
M  V30 6177 H 584.348 1.60787 -0.189544 0
M  V30 6178 H 586.34 3.22992 2.4384 0
M  V30 6179 H 584.91 2.18763 2.23297 0
M  V30 6180 H 584.13 3.91657 0.447069 0
M  V30 6181 H 585.418 4.98078 1.03902 0
M  V30 6182 H 584.816 3.95077 4.04883 0
M  V30 6183 H 583.373 4.81924 4.38854 0
M  V30 6184 N 586.806 0.0935595 1.57322 0
M  V30 6185 C 587.769 -0.851426 2.12799 0
M  V30 6186 C 588.769 -1.21187 1.0569 0
M  V30 6187 O 589.959 -1.14156 1.31583 0
M  V30 6188 C 587.091 -2.14779 2.64731 0
M  V30 6189 H 588.284 -0.369733 2.97612 0
M  V30 6190 H 585.837 -0.155417 1.55525 0
M  V30 6191 H 586.572 -2.67437 1.83434 0
M  V30 6192 H 586.357 -1.89907 3.43042 0
M  V30 6193 H 587.847 -2.82383 3.07651 0
M  V30 6194 N 588.284 -1.56567 -0.180126 0
M  V30 6195 C 589.561 -1.7235 -0.924931 0
M  V30 6196 C 589.941 -0.652523 -2.00762 0
M  V30 6197 O 589.289 0.334115 -2.26044 0
M  V30 6198 C 589.499 -3.1523 -1.49771 0
M  V30 6199 C 590.847 -3.75921 -1.97405 0
M  V30 6200 O 591.871 -3.18452 -1.59583 0
M  V30 6201 O 590.73 -4.7681 -2.67048 0
M  V30 6202 H 587.824 -0.703502 -0.434758 0
M  V30 6203 H 590.37 -1.6886 -0.168647 0
M  V30 6204 H 589.142 -3.84656 -0.718027 0
M  V30 6205 H 588.765 -3.23009 -2.31842 0
M  V30 6206 N 589.762 0.448376 -1.51087 0
M  V30 6207 C 590.987 1.22605 -1.6728 0
M  V30 6208 C 591.412 1.84524 -0.365045 0
M  V30 6209 O 590.77 1.6832 0.673642 0
M  V30 6210 C 590.818 2.29393 -2.78229 0
M  V30 6211 O 589.922 3.34608 -2.41063 0
M  V30 6212 H 589.263 0.359705 -0.558129 0
M  V30 6213 H 591.793 0.530903 -1.97592 0
M  V30 6214 H 591.803 2.74352 -3.01986 0
M  V30 6215 H 590.478 1.83701 -3.73131 0
M  V30 6216 H 589.055 2.95202 -2.27838 0
M  V30 6217 N 591.24 1.41047 0.703093 0
M  V30 6218 C 592.488 1.39723 1.4602 0
M  V30 6219 C 592.809 0.00461257 1.94999 0
M  V30 6220 O 592.079 -0.952292 1.71196 0
M  V30 6221 H 590.659 0.514281 0.541779 0
M  V30 6222 H 593.321 1.76217 0.832678 0
M  V30 6223 H 592.417 2.07982 2.32701 0
M  V30 6224 N 592.718 -0.936591 1.26751 0
M  V30 6225 C 593.967 -1.67778 1.11953 0
M  V30 6226 C 594.28 -1.92694 -0.33589 0
M  V30 6227 O 595.486 -2.64682 -0.604618 0
M  V30 6228 C 593.942 -3.02138 1.95551 0
M  V30 6229 C 593.55 -2.84953 3.45696 0
M  V30 6230 C 595.294 -3.79917 1.89377 0
M  V30 6231 C 593.201 -4.14814 4.21525 0
M  V30 6232 H 592.131 -0.629275 0.415366 0
M  V30 6233 H 594.782 -1.04122 1.51099 0
M  V30 6234 H 593.164 -3.668 1.49243 0
M  V30 6235 H 594.338 -2.29112 3.99805 0
M  V30 6236 H 592.653 -2.20612 3.53156 0
M  V30 6237 H 595.25 -4.76134 2.43312 0
M  V30 6238 H 595.593 -4.07204 0.865464 0
M  V30 6239 H 596.126 -3.22037 2.33532 0
M  V30 6240 H 592.865 -3.92709 5.24843 0
M  V30 6241 H 592.385 -4.70352 3.72195 0
M  V30 6242 H 594.064 -4.83239 4.3022 0
M  V30 6243 N 594.196 -1.08629 -1.14182 0
M  V30 6244 C 595.612 -0.814363 -1.3726 0
M  V30 6245 C 595.812 0.575271 -1.93114 0
M  V30 6246 O 594.868 1.33165 -2.1453 0
M  V30 6247 C 596.181 -1.8989 -2.33157 0
M  V30 6248 C 597.729 -1.92518 -2.46791 0
M  V30 6249 C 598.204 -3.00092 -3.45989 0
M  V30 6250 N 599.695 -2.99279 -3.53534 0
M  V30 6251 C 600.43 -3.79158 -4.30147 0
M  V30 6252 N 599.926 -4.68923 -5.09983 0
M  V30 6253 N 601.719 -3.67451 -4.25366 0
M  V30 6254 H 593.87 -1.98232 -0.762758 0
M  V30 6255 H 596.133 -0.860383 -0.398051 0
M  V30 6256 H 595.839 -2.89809 -1.99257 0
M  V30 6257 H 595.713 -1.77013 -3.33086 0
M  V30 6258 H 598.1 -0.932425 -2.79982 0
M  V30 6259 H 598.181 -2.09473 -1.46816 0
M  V30 6260 H 597.825 -3.99575 -3.13532 0
M  V30 6261 H 597.755 -2.80382 -4.45751 0
M  V30 6262 H 600.246 -2.3422 -2.96563 0
M  V30 6263 H 600.559 -5.26475 -5.65724 0
M  V30 6264 H 598.904 -4.72964 -5.09244 0
M  V30 6265 H 602.095 -2.9669 -3.62067 0
M  V30 6266 H 602.268 -4.29944 -4.84822 0
M  V30 6267 N 595.674 1.31259 -0.872281 0
M  V30 6268 C 596.604 2.30929 -0.345554 0
M  V30 6269 C 597.585 1.60449 0.5648 0
M  V30 6270 O 598.77 1.8814 0.481335 0
M  V30 6271 C 595.9 3.44348 0.451823 0
M  V30 6272 C 594.854 4.26435 -0.365641 0
M  V30 6273 C 594.18 5.31785 0.557562 0
M  V30 6274 C 595.48 4.97159 -1.60095 0
M  V30 6275 H 597.174 2.75234 -1.17841 0
M  V30 6276 H 594.72 1.3232 -0.568094 0
M  V30 6277 H 596.673 4.13128 0.830854 0
M  V30 6278 H 595.397 2.98816 1.31821 0
M  V30 6279 H 594.056 3.59326 -0.726649 0
M  V30 6280 H 593.704 4.82502 1.4213 0
M  V30 6281 H 593.404 5.87598 0.0144878 0
M  V30 6282 H 594.928 6.03424 0.933387 0
M  V30 6283 H 596.342 5.58523 -1.29323 0
M  V30 6284 H 594.739 5.62779 -2.08327 0
M  V30 6285 H 595.809 4.24012 -2.35249 0
M  V30 6286 N 597.152 0.631951 1.44375 0
M  V30 6287 C 598.102 -0.0943862 2.27805 0
M  V30 6288 C 599.086 -0.815359 1.38711 0
M  V30 6289 O 600.278 -0.701331 1.62513 0
M  V30 6290 C 597.407 -1.07472 3.26044 0
M  V30 6291 C 596.493 -0.353329 4.22626 0
M  V30 6292 N 596.884 0.618512 5.02004 0
M  V30 6293 C 595.182 -0.597662 4.41977 0
M  V30 6294 C 595.883 1.0448 5.7224 0
M  V30 6295 N 594.859 0.383413 5.42246 0
M  V30 6296 H 598.661 0.651672 2.86584 0
M  V30 6297 H 596.175 0.45752 1.55822 0
M  V30 6298 H 598.172 -1.60969 3.84571 0
M  V30 6299 H 596.832 -1.82107 2.68825 0
M  V30 6300 H 597.843 0.996356 5.08226 0
M  V30 6301 H 594.52 -1.32682 3.95856 0
M  V30 6302 H 595.91 1.84773 6.45994 0
M  V30 6303 N 598.631 -1.53133 0.372548 0
M  V30 6304 C 599.594 -2.24569 -0.458389 0
M  V30 6305 C 600.594 -1.25603 -1.00402 0
M  V30 6306 O 601.784 -1.49827 -0.888672 0
M  V30 6307 C 598.916 -2.98783 -1.6414 0
M  V30 6308 H 600.109 -2.99436 0.166799 0
M  V30 6309 H 597.662 -1.55805 0.124357 0
M  V30 6310 H 598.397 -2.28176 -2.30448 0
M  V30 6311 H 598.182 -3.71404 -1.25704 0
M  V30 6312 H 599.672 -3.53068 -2.23008 0
M  V30 6313 N 600.109 -0.101901 -1.5727 0
M  V30 6314 C 601.039 0.851544 -2.17419 0
M  V30 6315 C 602.02 1.28942 -1.10941 0
M  V30 6316 O 603.205 1.35509 -1.39107 0
M  V30 6317 C 600.335 2.10816 -2.75996 0
M  V30 6318 C 599.289 1.80867 -3.87906 0
M  V30 6319 C 598.615 3.13413 -4.33216 0
M  V30 6320 C 599.915 1.0903 -5.10793 0
M  V30 6321 H 601.609 0.350381 -2.97343 0
M  V30 6322 H 599.155 0.16709 -1.43027 0
M  V30 6323 H 601.108 2.77959 -3.16729 0
M  V30 6324 H 599.832 2.63227 -1.93337 0
M  V30 6325 H 598.491 1.16119 -3.47724 0
M  V30 6326 H 598.139 3.63725 -3.47438 0
M  V30 6327 H 597.839 2.94155 -5.08671 0
M  V30 6328 H 599.363 3.81704 -4.76586 0
M  V30 6329 H 600.777 1.66295 -5.48652 0
M  V30 6330 H 599.174 0.99927 -5.91722 0
M  V30 6331 H 600.244 0.0741704 -4.84843 0
M  V30 6332 N 601.587 1.56661 0.17182 0
M  V30 6333 C 603.003 1.50768 0.52357 0
M  V30 6334 C 603.203 0.806072 1.84675 0
M  V30 6335 O 602.259 0.366233 2.4983 0
M  V30 6336 C 603.572 2.955 0.556793 0
M  V30 6337 C 605.12 3.06303 0.644029 0
M  V30 6338 C 605.595 4.52492 0.708148 0
M  V30 6339 N 607.086 4.56737 0.771051 0
M  V30 6340 C 607.821 5.67196 0.841229 0
M  V30 6341 N 607.317 6.87287 0.872272 0
M  V30 6342 N 609.11 5.55165 0.88021 0
M  V30 6343 H 601.261 2.00679 -0.695817 0
M  V30 6344 H 603.524 0.914219 -0.250814 0
M  V30 6345 H 603.23 3.49986 -0.346774 0
M  V30 6346 H 603.104 3.50119 1.40346 0
M  V30 6347 H 605.491 2.51851 1.53802 0
M  V30 6348 H 605.572 2.5477 -0.229297 0
M  V30 6349 H 605.216 5.07575 -0.181585 0
M  V30 6350 H 605.146 5.01781 1.59761 0
M  V30 6351 H 607.637 3.70274 0.755364 0
M  V30 6352 H 607.95 7.6722 0.92698 0
M  V30 6353 H 606.295 6.89898 0.840557 0
M  V30 6354 H 609.486 4.60263 0.852956 0
M  V30 6355 H 609.659 6.41271 0.931439 0
M  V30 6356 N 603.065 -0.440357 1.51323 0
M  V30 6357 C 604.311 -1.19181 1.64085 0
M  V30 6358 C 604.644 -1.90936 0.354575 0
M  V30 6359 O 603.919 -1.8347 -0.645675 0
M  V30 6360 C 604.202 -2.2112 2.84215 0
M  V30 6361 C 604.055 -1.53468 4.22809 0
M  V30 6362 C 605.374 -3.22133 2.99864 0
M  V30 6363 H 602.493 -0.431924 0.597169 0
M  V30 6364 H 605.135 -0.481443 1.83799 0
M  V30 6365 H 603.285 -2.81703 2.67537 0
M  V30 6366 H 604.957 -0.962455 4.51148 0
M  V30 6367 H 603.2 -0.837086 4.25647 0
M  V30 6368 H 603.871 -2.27694 5.02852 0
M  V30 6369 H 606.347 -2.71601 3.15233 0
M  V30 6370 H 605.223 -3.90756 3.85488 0
M  V30 6371 H 605.484 -3.88061 2.11804 0
M  V30 6372 N 604.543 -1.41418 -0.695603 0
M  V30 6373 C 605.82 -1.31264 -1.45014 0
M  V30 6374 C 606.2 0.0597994 -2.11015 0
M  V30 6375 O 605.548 1.07403 -2.01685 0
M  V30 6376 C 605.758 -2.466 -2.4696 0
M  V30 6377 C 607.106 -2.87763 -3.12214 0
M  V30 6378 O 608.13 -2.46339 -2.57285 0
M  V30 6379 O 606.989 -3.59395 -4.11701 0
M  V30 6380 H 604.083 -0.516576 -0.645816 0
M  V30 6381 H 606.629 -1.53382 -0.726084 0
M  V30 6382 H 605.401 -3.38183 -1.96845 0
M  V30 6383 H 605.024 -2.26358 -3.26876 0
M  V30 6384 N 606.021 0.929856 -1.27246 0
M  V30 6385 C 607.269 1.674 -1.13233 0
M  V30 6386 C 607.59 1.92311 0.322744 0
M  V30 6387 O 606.86 1.52784 1.22612 0
M  V30 6388 H 605.44 0.620411 -0.416052 0
M  V30 6389 H 608.102 1.11663 -1.59741 0
M  V30 6390 H 607.198 2.64308 -1.65975 0
M  V30 6391 N 607.499 1.09233 1.13605 0
M  V30 6392 C 608.747 0.825525 1.84471 0
M  V30 6393 C 609.068 -0.650702 1.83823 0
M  V30 6394 O 608.338 -1.47204 1.29259 0
M  V30 6395 H 606.918 0.3024 0.683054 0
M  V30 6396 H 609.58 1.38006 1.37624 0
M  V30 6397 H 608.676 1.17727 2.89045 0
M  V30 6398 N 608.977 -1.30795 0.87923 0
M  V30 6399 C 609.94 -2.26563 0.346676 0
M  V30 6400 C 610.94 -1.52578 -0.507597 0
M  V30 6401 O 612.13 -1.71318 -0.315575 0
M  V30 6402 C 609.262 -3.37115 -0.506611 0
M  V30 6403 H 610.455 -2.75183 1.19223 0
M  V30 6404 H 608.008 -1.41886 0.655598 0
M  V30 6405 H 608.743 -2.93802 -1.37299 0
M  V30 6406 H 608.528 -3.91959 0.105218 0
M  V30 6407 H 610.018 -4.08412 -0.871192 0
M  V30 6408 N 610.455 -0.639598 -1.44038 0
M  V30 6409 C 611.701 -0.147698 -2.02261 0
M  V30 6410 C 612.034 1.23031 -1.50256 0
M  V30 6411 O 611.309 1.81847 -0.690068 0
M  V30 6412 C 611.592 -0.14362 -3.59813 0
M  V30 6413 C 611.445 -1.55458 -4.22082 0
M  V30 6414 C 612.764 0.527317 -4.36929 0
M  V30 6415 H 609.883 -0.0551453 -0.734934 0
M  V30 6416 H 612.525 -0.817688 -1.71505 0
M  V30 6417 H 610.675 0.426898 -3.86147 0
M  V30 6418 H 612.347 -2.17464 -4.06826 0
M  V30 6419 H 610.59 -2.10594 -3.79253 0
M  V30 6420 H 611.261 -1.50369 -5.31124 0
M  V30 6421 H 613.737 0.0420504 -4.16079 0
M  V30 6422 H 612.613 0.499389 -5.46624 0
M  V30 6423 H 612.874 1.59914 -4.12165 0
M  V30 6424 N 611.933 1.52934 -0.380664 0
M  V30 6425 C 612.896 2.24809 0.446473 0
M  V30 6426 C 613.896 1.26133 0.997347 0
M  V30 6427 O 615.086 1.50297 0.880714 0
M  V30 6428 C 612.218 2.99649 1.62553 0
M  V30 6429 H 613.411 2.99343 -0.182677 0
M  V30 6430 H 610.964 1.55736 -0.132618 0
M  V30 6431 H 611.699 2.29395 2.29235 0
M  V30 6432 H 611.484 3.72066 1.23732 0
M  V30 6433 H 612.974 3.54246 2.21133 0
M  V30 6434 N 613.412 0.11024 1.57214 0
M  V30 6435 C 614.36 -0.860586 2.16094 0
M  V30 6436 C 615.354 -1.28156 1.1078 0
M  V30 6437 O 616.56 -1.25433 1.29099 0
M  V30 6438 H 612.935 -0.295606 0.691463 0
M  V30 6439 H 614.906 -0.33942 2.96463 0
M  V30 6440 C 613.655 -2.10421 2.768 0
M  V30 6441 H 612.978 -1.7892 3.5753 0
M  V30 6442 H 614.418 -2.76375 3.21547 0
M  V30 6443 C 612.877 -2.88823 1.73444 0
M  V30 6444 O 613.407 -3.839 1.18251 0
M  V30 6445 N 611.613 -2.52649 1.43586 0
M  V30 6446 H 611.16 -1.754 1.8866 0
M  V30 6447 H 611.118 -3.05403 0.746735 0
M  V30 6448 N 614.89 -1.56749 -0.16351 0
M  V30 6449 C 615.838 -1.97939 -1.22159 0
M  V30 6450 C 616.832 -0.869288 -1.45395 0
M  V30 6451 O 618.038 -1.05443 -1.45883 0
M  V30 6452 H 614.413 -0.629869 -0.410815 0
M  V30 6453 H 616.384 -2.86115 -0.847381 0
M  V30 6454 C 615.133 -2.36206 -2.55151 0
M  V30 6455 H 614.456 -3.2117 -2.38097 0
M  V30 6456 H 615.896 -2.68863 -3.27854 0
M  V30 6457 C 614.355 -1.20841 -3.14482 0
M  V30 6458 O 614.885 -0.500258 -3.98573 0
M  V30 6459 N 613.091 -0.976943 -2.73686 0
M  V30 6460 H 612.638 -1.55457 -2.05404 0
M  V30 6461 H 612.596 -0.206912 -3.13718 0
M  V30 6462 N 616.368 0.432326 -1.51554 0
M  V30 6463 C 617.615 1.18134 -1.64471 0
M  V30 6464 C 617.943 1.91076 -0.363349 0
M  V30 6465 O 617.198 1.84492 0.65279 0
M  V30 6466 C 617.497 2.21907 -2.80164 0
M  V30 6467 C 617.163 1.65941 -4.19255 0
M  V30 6468 C 615.825 1.50401 -4.57092 0
M  V30 6469 C 618.177 1.24843 -5.06027 0
M  V30 6470 C 615.505 0.922443 -5.79403 0
M  V30 6471 C 617.857 0.68113 -6.28922 0
M  V30 6472 C 616.521 0.512673 -6.65528 0
M  V30 6473 H 615.791 0.432283 -0.601841 0
M  V30 6474 H 618.438 0.471701 -1.856 0
M  V30 6475 H 616.743 2.98928 -2.53277 0
M  V30 6476 H 618.44 2.79691 -2.87357 0
M  V30 6477 H 615.03 1.79014 -3.89425 0
M  V30 6478 H 619.214 1.35667 -4.77397 0
M  V30 6479 H 614.47 0.779733 -6.06408 0
M  V30 6480 H 618.644 0.35418 -6.95499 0
M  V30 6481 H 616.271 0.0599084 -7.60176 0
M  V30 6482 N 617.846 1.41785 0.688094 0
M  V30 6483 C 618.776 1.47 1.8142 0
M  V30 6484 C 619.757 0.327881 1.6691 0
M  V30 6485 O 620.942 0.540362 1.86531 0
M  V30 6486 C 618.072 1.35876 3.19617 0
M  V30 6487 C 617.026 2.47976 3.48844 0
M  V30 6488 C 616.352 2.21915 4.86475 0
M  V30 6489 C 617.652 3.90309 3.47068 0
M  V30 6490 H 619.346 2.41247 1.77314 0
M  V30 6491 H 616.892 1.16116 0.851651 0
M  V30 6492 H 618.845 1.38134 3.98117 0
M  V30 6493 H 617.569 0.38116 3.24368 0
M  V30 6494 H 616.228 2.45013 2.72698 0
M  V30 6495 H 615.876 1.2248 4.8786 0
M  V30 6496 H 615.576 2.97037 5.06994 0
M  V30 6497 H 617.1 2.25901 5.67275 0
M  V30 6498 H 618.514 3.94947 4.1556 0
M  V30 6499 H 616.911 4.65175 3.7912 0
M  V30 6500 H 617.981 4.17927 2.45896 0
M  V30 6501 N 619.324 -0.923095 1.27737 0
M  V30 6502 C 620.257 -2.02515 1.05181 0
M  V30 6503 C 621.235 -1.62574 -0.0292204 0
M  V30 6504 O 622.419 -1.88137 0.116848 0
M  V30 6505 C 619.546 -3.33407 0.596468 0
M  V30 6506 C 618.592 -3.92328 1.67276 0
M  V30 6507 S 619.425 -4.24342 3.26641 0
M  V30 6508 C 620.581 -5.58308 2.82919 0
M  V30 6509 H 620.814 -2.21336 1.98488 0
M  V30 6510 H 618.347 -1.06679 1.1162 0
M  V30 6511 H 620.305 -4.09086 0.34044 0
M  V30 6512 H 618.966 -3.125 -0.316614 0
M  V30 6513 H 618.159 -4.86797 1.30556 0
M  V30 6514 H 617.761 -3.2325 1.8811 0
M  V30 6515 H 620.053 -6.37801 2.28509 0
M  V30 6516 H 620.996 -5.99931 3.7615 0
M  V30 6517 H 621.404 -5.19049 2.21919 0
M  V30 6518 N 620.802 -1.09834 -1.13024 0
M  V30 6519 C 621.734 -0.699379 -2.18269 0
M  V30 6520 C 622.747 0.260841 -1.60697 0
M  V30 6521 O 623.936 0.0462538 -1.7844 0
M  V30 6522 C 621.036 -0.0104537 -3.38898 0
M  V30 6523 C 620.209 -0.993275 -4.25973 0
M  V30 6524 C 619.268 -0.336982 -5.2512 0
M  V30 6525 O 618.294 -0.985892 -5.60597 0
M  V30 6526 N 619.496 0.90716 -5.73368 0
M  V30 6527 H 622.261 -1.60486 -2.5311 0
M  V30 6528 H 619.822 -0.986337 -1.28386 0
M  V30 6529 H 621.814 0.43991 -4.02302 0
M  V30 6530 H 620.384 0.797335 -3.0226 0
M  V30 6531 H 619.604 -1.62208 -3.5928 0
M  V30 6532 H 620.892 -1.65876 -4.81002 0
M  V30 6533 H 620.29 1.45384 -5.46699 0
M  V30 6534 H 618.847 1.30077 -6.38689 0
M  V30 6535 N 622.28 1.30327 -0.886154 0
M  V30 6536 C 623.527 1.96097 -0.505192 0
M  V30 6537 C 623.855 1.69952 0.945868 0
M  V30 6538 O 623.11 0.997653 1.68361 0
M  V30 6539 C 623.409 3.49906 -0.728042 0
M  V30 6540 C 623.075 3.96103 -2.15437 0
M  V30 6541 C 621.737 4.08428 -2.5444 0
M  V30 6542 C 624.089 4.20177 -3.08384 0
M  V30 6543 C 621.417 4.42189 -3.85598 0
M  V30 6544 C 623.769 4.55407 -4.39075 0
M  V30 6545 C 622.433 4.65941 -4.7797 0
M  V30 6546 H 621.703 0.71757 -0.184863 0
M  V30 6547 H 624.35 1.55171 -1.12223 0
M  V30 6548 H 622.655 3.9179 -0.027978 0
M  V30 6549 H 624.352 3.98869 -0.412862 0
M  V30 6550 H 620.942 3.87017 -1.84162 0
M  V30 6551 H 625.126 4.10134 -2.7947 0
M  V30 6552 H 620.382 4.48544 -4.15473 0
M  V30 6553 H 624.556 4.72986 -5.11133 0
M  V30 6554 H 622.183 4.91856 -5.79639 0
M  V30 6555 N 623.758 0.647228 1.43697 0
M  V30 6556 C 624.69 -0.0866232 2.29036 0
M  V30 6557 C 625.703 -0.793051 1.42178 0
M  V30 6558 O 626.892 -0.651807 1.66174 0
M  V30 6559 C 623.992 -1.14552 3.18953 0
M  V30 6560 C 623.165 -0.518422 4.34317 0
M  V30 6561 C 622.224 -1.4734 5.05151 0
M  V30 6562 O 621.25 -0.984312 5.60625 0
M  V30 6563 N 622.452 -2.8075 5.08094 0
M  V30 6564 H 625.217 0.645834 2.92659 0
M  V30 6565 H 622.778 0.489567 1.54321 0
M  V30 6566 H 624.77 -1.78505 3.63205 0
M  V30 6567 H 623.34 -1.78001 2.56971 0
M  V30 6568 H 622.56 0.300079 3.93056 0
M  V30 6569 H 623.848 -0.080401 5.08736 0
M  V30 6570 H 623.246 -3.23052 4.64386 0
M  V30 6571 H 621.803 -3.40022 5.56083 0
M  V30 6572 N 625.236 -1.5273 0.388769 0
M  V30 6573 C 626.461 -2.0647 -0.19621 0
M  V30 6574 C 626.886 -1.25865 -1.39784 0
M  V30 6575 O 626.244 -0.283562 -1.79069 0
M  V30 6576 C 626.292 -3.56456 -0.5451 0
M  V30 6577 O 625.396 -3.78426 -1.63912 0
M  V30 6578 H 624.737 -0.663599 -0.023067 0
M  V30 6579 H 627.267 -1.96898 0.556084 0
M  V30 6580 H 627.277 -3.99888 -0.809557 0
M  V30 6581 H 625.952 -4.14561 0.333417 0
M  V30 6582 H 624.529 -3.46884 -1.36842 0
M  V30 6583 N 626.714 -0.118576 -1.57153 0
M  V30 6584 C 627.991 0.583062 -1.86708 0
M  V30 6585 C 628.371 1.84841 -1.01967 0
M  V30 6586 O 627.719 2.28288 -0.0984673 0
M  V30 6587 C 627.929 0.875912 -3.3783 0
M  V30 6588 C 629.277 1.22916 -4.0642 0
M  V30 6589 O 630.301 0.966188 -3.42846 0
M  V30 6590 O 629.16 1.72269 -5.18638 0
M  V30 6591 H 626.254 0.294185 -0.772906 0
M  V30 6592 H 628.8 -0.153048 -1.69008 0
M  V30 6593 H 627.572 -0.0207776 -3.91294 0
M  V30 6594 H 627.195 1.66719 -3.60958 0
M  V30 6595 N 628.193 1.56834 0.155195 0
M  V30 6596 C 629.442 1.82088 0.867567 0
M  V30 6597 C 629.755 0.69849 1.82703 0
M  V30 6598 O 630.961 0.836407 2.58295 0
M  V30 6599 C 629.417 3.22707 1.59336 0
M  V30 6600 C 629.025 4.42859 0.676719 0
M  V30 6601 C 630.769 3.57242 2.293 0
M  V30 6602 C 628.676 5.74501 1.40367 0
M  V30 6603 H 627.606 0.679057 0.327715 0
M  V30 6604 H 630.257 1.83105 0.120351 0
M  V30 6605 H 628.639 3.16054 2.38591 0
M  V30 6606 H 629.813 4.60731 -0.0800196 0
M  V30 6607 H 628.128 4.16311 0.0859129 0
M  V30 6608 H 630.725 4.52847 2.84312 0
M  V30 6609 H 631.068 2.82901 3.05406 0
M  V30 6610 H 631.601 3.6552 1.56972 0
M  V30 6611 H 628.34 6.51915 0.684623 0
M  V30 6612 H 627.86 5.60579 2.13332 0
M  V30 6613 H 629.539 6.17016 1.94681 0
M  V30 6614 N 629.671 -0.424282 1.51781 0
M  V30 6615 C 630.601 -1.52305 1.7699 0
M  V30 6616 C 631.582 -1.5839 0.620209 0
M  V30 6617 O 632.767 -1.73908 0.864268 0
M  V30 6618 C 629.897 -2.90271 1.90683 0
M  V30 6619 C 628.851 -2.99043 3.06198 0
M  V30 6620 C 628.177 -4.39116 3.05092 0
M  V30 6621 C 629.477 -2.7192 4.45934 0
M  V30 6622 H 631.171 -1.31461 2.68995 0
M  V30 6623 H 628.717 -0.630985 1.29439 0
M  V30 6624 H 630.67 -3.6711 2.06901 0
M  V30 6625 H 629.394 -3.12376 0.953365 0
M  V30 6626 H 628.053 -2.24646 2.89706 0
M  V30 6627 H 627.701 -4.58207 2.07498 0
M  V30 6628 H 627.401 -4.45912 3.82669 0
M  V30 6629 H 628.925 -5.17911 3.2342 0
M  V30 6630 H 630.339 -3.38487 4.62709 0
M  V30 6631 H 628.736 -2.90111 5.25315 0
M  V30 6632 H 629.806 -1.67445 4.55072 0
M  V30 6633 N 631.149 -1.42148 -0.680565 0
M  V30 6634 C 632.397 -1.42029 -1.43779 0
M  V30 6635 C 632.718 -0.0356347 -1.94967 0
M  V30 6636 O 631.988 0.924936 -1.7269 0
M  V30 6637 H 630.568 -0.522835 -0.533529 0
M  V30 6638 H 633.23 -1.7752 -0.804538 0
M  V30 6639 H 632.326 -2.11658 -2.29363 0
M  V30 6640 N 632.627 0.916307 -1.28225 0
M  V30 6641 C 633.855 1.69901 -1.18073 0
M  V30 6642 C 634.27 1.86988 0.260968 0
M  V30 6643 O 633.627 1.39505 1.17663 0
M  V30 6644 C 633.678 3.09254 -1.87201 0
M  V30 6645 O 633.399 2.92959 -3.2574 0
M  V30 6646 C 634.9 4.0362 -1.83319 0
M  V30 6647 H 632.12 0.531181 -0.409985 0
M  V30 6648 H 634.664 1.14703 -1.69303 0
M  V30 6649 H 632.819 3.61277 -1.39848 0
M  V30 6650 H 633.233 3.81139 -3.60324 0
M  V30 6651 H 634.707 4.98873 -2.36282 0
M  V30 6652 H 635.184 4.3176 -0.805007 0
M  V30 6653 H 635.79 3.57524 -2.3034 0
M  V30 6654 N 634.105 1.10431 1.1244 0
M  V30 6655 C 635.521 0.836096 1.35947 0
M  V30 6656 C 635.721 -0.544475 1.94004 0
M  V30 6657 O 634.777 -1.29735 2.16622 0
M  V30 6658 C 636.09 1.93575 2.30107 0
M  V30 6659 C 637.638 1.9642 2.43697 0
M  V30 6660 C 638.113 3.05559 3.41171 0
M  V30 6661 N 639.604 3.04865 3.48728 0
M  V30 6662 C 640.339 3.85954 4.24061 0
M  V30 6663 N 639.835 4.76977 5.02458 0
M  V30 6664 N 641.628 3.74172 4.19466 0
M  V30 6665 H 633.779 1.9942 0.731124 0
M  V30 6666 H 636.042 0.866607 0.384312 0
M  V30 6667 H 635.748 2.92943 1.94621 0
M  V30 6668 H 635.622 1.8229 3.30227 0
M  V30 6669 H 638.009 0.97685 2.78463 0
M  V30 6670 H 638.09 2.11782 1.43465 0
M  V30 6671 H 637.734 4.04513 3.07135 0
M  V30 6672 H 637.664 2.87438 4.41234 0
M  V30 6673 H 640.155 2.38908 2.92799 0
M  V30 6674 H 640.468 5.35409 5.57277 0
M  V30 6675 H 638.813 4.81006 5.01655 0
M  V30 6676 H 642.004 3.02412 3.57302 0
M  V30 6677 H 642.177 4.37602 4.77921 0
M  V30 6678 N 635.583 -1.29855 0.893053 0
M  V30 6679 C 636.829 -1.96116 0.516349 0
M  V30 6680 C 637.162 -1.70281 -0.933695 0
M  V30 6681 O 636.437 -1.01205 -1.66096 0
M  V30 6682 C 636.72 -3.51068 0.801455 0
M  V30 6683 C 636.573 -3.86387 2.30272 0
M  V30 6684 C 637.892 -4.39186 0.283423 0
M  V30 6685 H 635.011 -0.712335 0.189072 0
M  V30 6686 H 637.653 -1.53587 1.11852 0
M  V30 6687 H 635.803 -3.87424 0.288949 0
M  V30 6688 H 637.475 -3.60012 2.88425 0
M  V30 6689 H 635.718 -3.34167 2.76613 0
M  V30 6690 H 636.389 -4.94512 2.45279 0
M  V30 6691 H 638.865 -4.09785 0.722187 0
M  V30 6692 H 637.741 -5.46505 0.512169 0
M  V30 6693 H 638.002 -4.34511 -0.815643 0
M  V30 6694 N 637.061 -0.65484 -1.43351 0
M  V30 6695 C 637.971 0.0363603 -2.34572 0
M  V30 6696 C 638.987 0.810432 -1.53974 0
M  V30 6697 O 640.163 0.757308 -1.86619 0
M  V30 6698 C 637.228 0.989733 -3.32273 0
M  V30 6699 C 636.289 0.212414 -4.28774 0
M  V30 6700 C 635.522 1.12038 -5.21808 0
M  V30 6701 O 635.745 2.35967 -5.19303 0
M  V30 6702 O 634.679 0.59191 -5.98982 0
M  V30 6703 H 638.505 -0.714527 -2.95175 0
M  V30 6704 H 636.09 -0.415029 -1.4352 0
M  V30 6705 H 637.972 1.53759 -3.92347 0
M  V30 6706 H 636.647 1.72082 -2.74171 0
M  V30 6707 H 635.554 -0.379062 -3.72175 0
M  V30 6708 H 636.887 -0.479138 -4.89862 0
M  V30 6709 N 638.539 1.52521 -0.396863 0
M  V30 6710 C 639.955 1.5953 -0.0471659 0
M  V30 6711 C 640.155 1.41044 1.43906 0
M  V30 6712 O 639.211 1.23122 2.20448 0
M  V30 6713 C 640.524 2.95972 -0.531113 0
M  V30 6714 C 642.072 3.09172 -0.488024 0
M  V30 6715 C 642.547 4.48075 -0.948281 0
M  V30 6716 N 644.038 4.54281 -0.9046 0
M  V30 6717 C 644.773 5.60007 -1.23205 0
M  V30 6718 N 644.269 6.73343 -1.63036 0
M  V30 6719 N 646.062 5.50151 -1.15282 0
M  V30 6720 H 638.213 1.62786 -1.36435 0
M  V30 6721 H 640.476 0.76514 -0.559701 0
M  V30 6722 H 640.182 3.14741 -1.56942 0
M  V30 6723 H 640.056 3.77143 0.0657922 0
M  V30 6724 H 642.443 2.90095 0.541211 0
M  V30 6725 H 642.524 2.29937 -1.12083 0
M  V30 6726 H 642.168 4.67894 -1.97578 0
M  V30 6727 H 642.098 5.25788 -0.292412 0
M  V30 6728 H 644.589 3.72918 -0.6116 0
M  V30 6729 H 644.902 7.49992 -1.86365 0
M  V30 6730 H 643.247 6.74655 -1.66929 0
M  V30 6731 H 646.438 4.6049 -0.840602 0
M  V30 6732 H 646.611 6.32444 -1.41133 0
M  V30 6733 N 640.017 0.126909 1.57088 0
M  V30 6734 C 641.428 -0.397201 1.82426 0
M  V30 6735 C 641.779 -1.66084 1.04453 0
M  V30 6736 O 640.904 -2.14534 0.283552 0
M  V30 6737 C 641.499 -0.727411 3.30899 0
M  V30 6738 C 640.058 -1.19612 3.56889 0
M  V30 6739 C 639.205 -0.20885 2.76512 0
M  V30 6740 H 642.156 0.351924 1.54749 0
M  V30 6741 H 642.177 -1.58407 3.45959 0
M  V30 6742 H 641.689 0.19247 3.87622 0
M  V30 6743 H 639.79 -2.13263 3.05532 0
M  V30 6744 H 639.903 -1.13598 4.65438 0
M  V30 6745 H 638.267 -0.697479 2.44964 0
M  V30 6746 H 639.05 0.704267 3.35998 0
M  V30 6747 N 641.495 -1.56914 -0.146875 0
M  V30 6748 C 642.405 -2.0154 -1.20079 0
M  V30 6749 C 643.421 -0.930838 -1.47008 0
M  V30 6750 O 644.597 -1.24032 -1.58676 0
M  V30 6751 C 641.662 -2.38715 -2.51428 0
M  V30 6752 C 640.723 -3.6112 -2.32145 0
M  V30 6753 C 639.956 -3.96512 -3.57231 0
M  V30 6754 O 640.179 -3.32566 -4.63418 0
M  V30 6755 O 639.113 -4.89758 -3.49887 0
M  V30 6756 H 642.939 -2.91506 -0.851924 0
M  V30 6757 H 640.524 -1.45106 -0.355607 0
M  V30 6758 H 642.406 -2.63485 -3.28867 0
M  V30 6759 H 641.081 -1.51903 -2.85845 0
M  V30 6760 H 639.988 -3.41536 -1.52656 0
M  V30 6761 H 641.321 -4.48549 -2.02644 0
M  V30 6762 N 642.974 0.416227 -1.52004 0
M  V30 6763 C 644.22 1.16555 -1.6596 0
M  V30 6764 C 644.553 1.90347 -0.384906 0
M  V30 6765 O 643.828 1.84474 0.616405 0
M  V30 6766 C 644.111 2.1657 -2.87696 0
M  V30 6767 C 643.964 1.46722 -4.25197 0
M  V30 6768 C 645.283 3.17321 -3.04951 0
M  V30 6769 H 642.402 0.422369 -0.603965 0
M  V30 6770 H 645.044 0.452141 -1.84542 0
M  V30 6771 H 643.194 2.77411 -2.71985 0
M  V30 6772 H 644.866 0.89056 -4.52622 0
M  V30 6773 H 643.109 0.769263 -4.26925 0
M  V30 6774 H 643.78 2.19665 -5.0641 0
M  V30 6775 H 646.256 2.66552 -3.19514 0
M  V30 6776 H 645.132 3.84573 -3.91656 0
M  V30 6777 H 645.393 3.84643 -2.17951 0
M  V30 6778 N 644.452 1.42507 0.673017 0
M  V30 6779 C 645.868 1.25472 0.986355 0
M  V30 6780 C 646.068 0.160181 2.00862 0
M  V30 6781 O 645.124 -0.467993 2.48125 0
M  V30 6782 C 646.437 2.61219 1.48947 0
M  V30 6783 C 647.985 2.68589 1.60715 0
M  V30 6784 C 648.46 4.04707 2.14422 0
M  V30 6785 N 649.951 4.0667 2.21752 0
M  V30 6786 C 650.686 5.0881 2.64386 0
M  V30 6787 N 650.182 6.21332 3.0646 0
M  V30 6788 N 651.975 4.96166 2.64151 0
M  V30 6789 H 644.126 2.124 -0.00378532 0
M  V30 6790 H 646.389 0.946046 0.0608367 0
M  V30 6791 H 646.095 3.42179 0.812812 0
M  V30 6792 H 645.969 2.85261 2.46791 0
M  V30 6793 H 648.356 1.87974 2.27486 0
M  V30 6794 H 648.437 2.48333 0.613552 0
M  V30 6795 H 648.081 4.8578 1.48258 0
M  V30 6796 H 648.011 4.22315 3.14575 0
M  V30 6797 H 650.502 3.25438 1.92089 0
M  V30 6798 H 650.815 6.95118 3.37684 0
M  V30 6799 H 649.16 6.24835 3.04313 0
M  V30 6800 H 652.351 4.07334 2.30644 0
M  V30 6801 H 652.524 5.759 2.97057 0
M  V30 6802 N 645.93 -0.909495 1.28709 0
M  V30 6803 C 646.84 -2.04558 1.14861 0
M  V30 6804 C 647.856 -1.73842 0.0741621 0
M  V30 6805 O 649.032 -1.99383 0.2843 0
M  V30 6806 C 646.097 -3.36957 0.816148 0
M  V30 6807 C 645.158 -3.81255 1.97341 0
M  V30 6808 C 644.391 -5.07335 1.65671 0
M  V30 6809 O 644.614 -5.67514 0.573053 0
M  V30 6810 O 643.548 -5.47449 2.50167 0
M  V30 6811 H 647.374 -2.19161 2.10243 0
M  V30 6812 H 644.959 -1.03159 1.08068 0
M  V30 6813 H 646.841 -4.16436 0.644873 0
M  V30 6814 H 645.516 -3.2352 -0.107983 0
M  V30 6815 H 644.423 -3.02584 2.19986 0
M  V30 6816 H 645.756 -3.99261 2.87839 0
M  V30 6817 N 647.408 -1.11026 -1.11852 0
M  V30 6818 C 648.654 -0.857729 -1.83768 0
M  V30 6819 C 648.987 0.615143 -1.842 0
M  V30 6820 O 648.262 1.45391 -1.29196 0
M  V30 6821 C 648.545 -1.41453 -3.31154 0
M  V30 6822 C 648.398 -2.95471 -3.39142 0
M  V30 6823 C 649.717 -1.0619 -4.27097 0
M  V30 6824 H 646.836 -0.313044 -0.667212 0
M  V30 6825 H 649.478 -1.37443 -1.31185 0
M  V30 6826 H 647.628 -0.975052 -3.76065 0
M  V30 6827 H 649.3 -3.4799 -3.02821 0
M  V30 6828 H 647.543 -3.31759 -2.79497 0
M  V30 6829 H 648.214 -3.29515 -4.42859 0
M  V30 6830 H 650.69 -1.44122 -3.90344 0
M  V30 6831 H 649.566 -1.47832 -5.28618 0
M  V30 6832 H 649.827 0.0278912 -4.42091 0
M  V30 6833 N 648.886 1.2938 -0.899927 0
M  V30 6834 C 650.114 1.99691 -0.541386 0
M  V30 6835 C 650.529 1.67355 0.873936 0
M  V30 6836 O 649.886 0.918728 1.57688 0
M  V30 6837 C 649.937 3.54168 -0.72438 0
M  V30 6838 O 649.658 3.85359 -2.08399 0
M  V30 6839 C 651.159 4.41746 -0.370819 0
M  V30 6840 H 648.379 0.638037 -0.207726 0
M  V30 6841 H 650.923 1.6491 -1.20934 0
M  V30 6842 H 649.078 3.87261 -0.103607 0
M  V30 6843 H 649.492 4.80032 -2.11352 0
M  V30 6844 H 650.966 5.49256 -0.549693 0
M  V30 6845 H 651.443 4.33712 0.692148 0
M  V30 6846 H 652.049 4.14125 -0.968543 0
M  V30 6847 N 650.364 0.662433 1.43002 0
M  V30 6848 C 651.327 -0.0142016 2.29196 0
M  V30 6849 C 652.327 -0.741394 1.42688 0
M  V30 6850 O 653.517 -0.581257 1.64216 0
M  V30 6851 C 650.649 -1.03084 3.24941 0
M  V30 6852 H 651.842 0.7443 2.90517 0
M  V30 6853 H 649.395 0.424133 1.50435 0
M  V30 6854 H 650.13 -1.81826 2.68533 0
M  V30 6855 H 649.915 -0.512946 3.8873 0
M  V30 6856 H 651.405 -1.50308 3.89612 0
M  V30 6857 N 651.842 -1.52309 0.404946 0
M  V30 6858 C 652.772 -2.29805 -0.41376 0
M  V30 6859 C 653.753 -1.3384 -1.0498 0
M  V30 6860 O 654.938 -1.62745 -1.05961 0
M  V30 6861 C 652.068 -3.11639 -1.53292 0
M  V30 6862 C 651.022 -4.15616 -1.02211 0
M  V30 6863 C 650.348 -4.8577 -2.23455 0
M  V30 6864 C 651.648 -5.2224 -0.0790725 0
M  V30 6865 H 653.342 -2.98493 0.232878 0
M  V30 6866 H 650.888 -1.43552 0.113441 0
M  V30 6867 H 652.841 -3.64618 -2.11262 0
M  V30 6868 H 651.565 -2.40712 -2.20738 0
M  V30 6869 H 650.224 -3.63641 -0.46484 0
M  V30 6870 H 649.872 -4.11376 -2.89445 0
M  V30 6871 H 649.572 -5.56058 -1.89929 0
M  V30 6872 H 651.096 -5.4156 -2.82038 0
M  V30 6873 H 652.51 -5.70485 -0.567438 0
M  V30 6874 H 650.907 -5.99867 0.167167 0
M  V30 6875 H 651.977 -4.77078 0.867447 0
M  V30 6876 N 653.32 -0.135238 -1.57019 0
M  V30 6877 C 654.568 0.51777 -1.95355 0
M  V30 6878 C 654.889 1.6617 -1.02042 0
M  V30 6879 O 654.159 1.95738 -0.0797343 0
M  V30 6880 H 652.739 0.194264 -0.721298 0
M  V30 6881 H 655.401 -0.207983 -1.93787 0
M  V30 6882 H 654.497 0.901675 -2.98791 0
M  V30 6883 N 654.798 1.5699 0.138552 0
M  V30 6884 C 655.761 1.97984 1.15478 0
M  V30 6885 C 656.761 0.867416 1.35398 0
M  V30 6886 O 657.951 1.13387 1.32246 0
M  V30 6887 C 655.083 2.3031 2.51337 0
M  V30 6888 H 656.276 2.88953 0.802896 0
M  V30 6889 H 653.829 1.51555 0.382189 0
M  V30 6890 H 654.564 1.42159 2.91481 0
M  V30 6891 H 654.349 3.11425 2.38237 0
M  V30 6892 H 655.839 2.62834 3.24512 0
M  V30 6893 N 656.276 -0.40816 1.52223 0
M  V30 6894 C 657.239 -1.48 1.7501 0
M  V30 6895 C 658.239 -1.48367 0.619996 0
M  V30 6896 O 659.429 -1.49874 0.887881 0
M  V30 6897 C 656.561 -2.87403 1.83336 0
M  V30 6898 H 657.754 -1.29086 2.70697 0
M  V30 6899 H 655.307 -0.638715 1.42654 0
M  V30 6900 H 656.042 -3.11686 0.895677 0
M  V30 6901 H 655.827 -2.8854 2.65494 0
M  V30 6902 H 657.317 -3.65103 2.02705 0
M  V30 6903 N 657.755 -1.42862 -0.66545 0
M  V30 6904 C 658.985 -1.47032 -1.45138 0
M  V30 6905 C 659.393 -0.0829977 -1.89018 0
M  V30 6906 O 658.736 0.914551 -1.59316 0
M  V30 6907 C 658.798 -2.34302 -2.72659 0
M  V30 6908 C 658.462 -3.82034 -2.50796 0
M  V30 6909 C 659.459 -4.73453 -2.14799 0
M  V30 6910 C 657.144 -4.26397 -2.655 0
M  V30 6911 C 659.138 -6.07228 -1.93785 0
M  V30 6912 C 656.825 -5.6023 -2.44103 0
M  V30 6913 C 657.823 -6.50462 -2.08299 0
M  V30 6914 O 657.511 -7.8182 -1.87116 0
M  V30 6915 H 657.243 -0.501969 -0.452772 0
M  V30 6916 H 659.797 -1.88137 -0.82423 0
M  V30 6917 H 658.027 -1.88063 -3.37889 0
M  V30 6918 H 659.716 -2.29818 -3.34572 0
M  V30 6919 H 660.482 -4.4046 -2.03026 0
M  V30 6920 H 656.361 -3.56448 -2.92345 0
M  V30 6921 H 659.905 -6.7762 -1.65763 0
M  V30 6922 H 655.802 -5.92793 -2.55475 0
M  V30 6923 H 656.57 -7.93274 -2.01639 0
M  V30 6924 N 659.233 0.902656 -1.29189 0
M  V30 6925 C 660.163 2.02294 -1.16616 0
M  V30 6926 C 661.144 1.6999 -0.0611175 0
M  V30 6927 O 662.329 1.9271 -0.240072 0
M  V30 6928 C 659.459 3.37018 -0.83882 0
M  V30 6929 C 658.413 3.83522 -1.89986 0
M  V30 6930 C 657.739 5.15337 -1.42589 0
M  V30 6931 C 659.039 4.04169 -3.30824 0
M  V30 6932 H 660.733 2.13071 -2.10336 0
M  V30 6933 H 658.279 1.02378 -1.01266 0
M  V30 6934 H 660.232 4.14895 -0.737584 0
M  V30 6935 H 658.956 3.26325 0.134071 0
M  V30 6936 H 657.615 3.07859 -1.99043 0
M  V30 6937 H 657.263 5.01056 -0.441759 0
M  V30 6938 H 656.963 5.47423 -2.13547 0
M  V30 6939 H 658.487 5.95758 -1.3381 0
M  V30 6940 H 659.901 4.72537 -3.24626 0
M  V30 6941 H 658.298 4.47604 -3.99713 0
M  V30 6942 H 659.368 3.08604 -3.74021 0
M  V30 6943 N 660.711 1.11618 1.11262 0
M  V30 6944 C 661.674 0.779447 2.15539 0
M  V30 6945 C 662.674 -0.202081 1.59525 0
M  V30 6946 O 663.864 0.0226356 1.74185 0
M  V30 6947 C 660.996 0.15674 3.40539 0
M  V30 6948 H 662.189 1.70324 2.4684 0
M  V30 6949 H 659.742 0.918298 1.26479 0
M  V30 6950 H 660.477 -0.777186 3.1485 0
M  V30 6951 H 660.262 0.863308 3.82478 0
M  V30 6952 H 661.752 -0.062661 4.17553 0
M  V30 6953 N 662.189 -1.289 0.906776 0
M  V30 6954 C 663.437 -1.94883 0.535266 0
M  V30 6955 C 663.758 -1.71784 -0.922791 0
M  V30 6956 O 663.028 -1.05359 -1.65156 0
M  V30 6957 H 661.608 -0.721109 0.194962 0
M  V30 6958 H 664.27 -1.57018 1.15461 0
M  V30 6959 H 663.366 -3.03591 0.723821 0
M  V30 6960 N 663.667 -0.670007 -1.42649 0
M  V30 6961 C 664.597 -0.00258501 -2.335 0
M  V30 6962 C 665.578 0.794364 -1.50412 0
M  V30 6963 O 666.763 0.75248 -1.79029 0
M  V30 6964 C 663.893 0.952748 -3.33976 0
M  V30 6965 C 662.847 0.264733 -4.2718 0
M  V30 6966 C 662.173 1.33267 -5.17826 0
M  V30 6967 C 663.473 -0.853289 -5.15283 0
M  V30 6968 H 665.167 -0.761326 -2.89559 0
M  V30 6969 H 662.713 -0.367561 -1.3923 0
M  V30 6970 H 664.666 1.4287 -3.96442 0
M  V30 6971 H 663.39 1.74285 -2.7621 0
M  V30 6972 H 662.049 -0.190938 -3.66102 0
M  V30 6973 H 661.697 2.11464 -4.5639 0
M  V30 6974 H 661.397 0.877476 -5.81011 0
M  V30 6975 H 662.921 1.80965 -5.83167 0
M  V30 6976 H 664.335 -0.458763 -5.71462 0
M  V30 6977 H 662.732 -1.23398 -5.87276 0
M  V30 6978 H 663.802 -1.70412 -4.53969 0
M  V30 6979 N 665.145 1.52092 -0.413018 0
M  V30 6980 C 666.108 2.25706 0.398687 0
M  V30 6981 C 667.108 1.28221 0.970368 0
M  V30 6982 O 668.298 1.52131 0.848635 0
M  V30 6983 C 665.43 3.03029 1.5616 0
M  V30 6984 H 666.623 2.98888 -0.246131 0
M  V30 6985 H 664.176 1.5542 -0.165622 0
M  V30 6986 H 664.911 2.34205 2.24317 0
M  V30 6987 H 664.696 3.74606 1.15812 0
M  V30 6988 H 666.186 3.58857 2.13569 0
M  V30 6989 N 666.623 0.143563 1.56945 0
M  V30 6990 C 667.869 -0.50916 1.96304 0
M  V30 6991 C 668.202 -1.64741 1.0283 0
M  V30 6992 O 667.477 -1.94374 0.0700361 0
M  V30 6993 C 667.76 -1.0186 3.45393 0
M  V30 6994 C 667.613 0.117923 4.49645 0
M  V30 6995 C 668.932 -1.90151 3.96901 0
M  V30 6996 H 666.051 -0.183608 0.713763 0
M  V30 6997 H 668.693 0.224095 1.88674 0
M  V30 6998 H 666.843 -1.64345 3.52027 0
M  V30 6999 H 668.515 0.754145 4.55094 0
M  V30 7000 H 666.758 0.777568 4.26774 0
M  V30 7001 H 667.429 -0.280187 5.51288 0
M  V30 7002 H 669.905 -1.375 3.92725 0
M  V30 7003 H 668.781 -2.22707 5.0169 0
M  V30 7004 H 669.042 -2.83718 3.39052 0
M  V30 7005 N 668.101 -1.57061 -0.130224 0
M  V30 7006 C 669.349 -1.83893 -0.838313 0
M  V30 7007 C 669.67 -0.727046 -1.80939 0
M  V30 7008 O 668.94 0.249927 -1.94299 0
M  V30 7009 H 667.52 -0.67846 -0.312573 0
M  V30 7010 H 670.182 -1.94529 -0.120224 0
M  V30 7011 H 669.278 -2.79419 -1.39038 0
M  V30 7012 N 669.579 0.400081 -1.52437 0
M  V30 7013 C 670.826 1.14619 -1.6694 0
M  V30 7014 C 671.154 1.90262 -0.403797 0
M  V30 7015 O 670.409 1.85835 0.61351 0
M  V30 7016 C 670.708 2.15914 -2.84808 0
M  V30 7017 C 670.374 1.57011 -4.2268 0
M  V30 7018 C 669.036 1.40672 -4.60179 0
M  V30 7019 C 671.388 1.14081 -5.08562 0
M  V30 7020 C 668.716 0.799335 -5.81229 0
M  V30 7021 C 671.068 0.547573 -6.30226 0
M  V30 7022 C 669.732 0.371389 -6.66466 0
M  V30 7023 H 669.002 0.419419 -0.610875 0
M  V30 7024 H 671.649 0.432227 -1.86558 0
M  V30 7025 H 669.954 2.93488 -2.59561 0
M  V30 7026 H 671.651 2.73533 -2.93225 0
M  V30 7027 H 668.241 1.70713 -3.93135 0
M  V30 7028 H 672.425 1.2551 -4.80168 0
M  V30 7029 H 667.681 0.65093 -6.07925 0
M  V30 7030 H 671.855 0.206575 -6.96094 0
M  V30 7031 H 669.482 -0.10135 -7.60132 0
M  V30 7032 N 671.057 1.43213 0.657864 0
M  V30 7033 C 672.303 1.45795 1.41829 0
M  V30 7034 C 672.658 0.0792176 1.92237 0
M  V30 7035 O 671.951 -0.901406 1.69072 0
M  V30 7036 C 672.145 2.43143 2.61947 0
M  V30 7037 C 671.974 3.90345 2.23295 0
M  V30 7038 C 670.744 4.58749 2.11843 0
M  V30 7039 C 672.942 4.80308 1.83873 0
M  V30 7040 N 670.924 5.90898 1.66473 0
M  V30 7041 C 672.295 6.01693 1.49549 0
M  V30 7042 C 674.35 4.67609 1.71015 0
M  V30 7043 C 673.053 7.11792 1.03657 0
M  V30 7044 C 675.079 5.77707 1.26527 0
M  V30 7045 C 674.441 6.98215 0.931379 0
M  V30 7046 H 670.54 0.588628 0.514822 0
M  V30 7047 H 673.124 1.7936 0.7575 0
M  V30 7048 H 671.295 2.11612 3.25692 0
M  V30 7049 H 673.027 2.36193 3.28626 0
M  V30 7050 H 669.782 4.1319 2.31453 0
M  V30 7051 H 670.206 6.61034 1.46163 0
M  V30 7052 H 674.848 3.74902 1.95469 0
M  V30 7053 H 672.566 8.04332 0.779502 0
M  V30 7054 H 676.152 5.69899 1.17074 0
M  V30 7055 H 675.032 7.81959 0.592379 0
M  V30 7056 N 672.536 -0.895792 1.29666 0
M  V30 7057 C 673.468 -2.00563 1.10937 0
M  V30 7058 C 674.481 -1.62705 0.055734 0
M  V30 7059 O 675.67 -1.7595 0.300656 0
M  V30 7060 C 672.77 -3.32262 0.667448 0
M  V30 7061 C 671.943 -3.98625 1.80047 0
M  V30 7062 C 671.002 -5.08617 1.3489 0
M  V30 7063 O 670.028 -5.30837 2.05429 0
M  V30 7064 N 671.23 -5.80076 0.221937 0
M  V30 7065 H 673.995 -2.17184 2.06522 0
M  V30 7066 H 671.556 -1.06822 1.21658 0
M  V30 7067 H 673.548 -4.03196 0.348586 0
M  V30 7068 H 672.118 -3.11985 -0.196055 0
M  V30 7069 H 671.338 -3.21005 2.28801 0
M  V30 7070 H 672.626 -4.39704 2.56003 0
M  V30 7071 H 672.024 -5.64514 -0.366084 0
M  V30 7072 H 670.581 -6.51789 -0.0375346 0
M  V30 7073 N 674.014 -1.12206 -1.10668 0
M  V30 7074 C 674.962 -0.782918 -2.19028 0
M  V30 7075 C 675.956 0.229175 -1.67843 0
M  V30 7076 O 677.162 0.0876295 -1.79787 0
M  V30 7077 H 673.537 -0.235339 -0.714227 0
M  V30 7078 H 675.508 -1.70527 -2.44874 0
M  V30 7079 C 674.257 -0.25116 -3.46792 0
M  V30 7080 H 673.58 -1.02123 -3.86537 0
M  V30 7081 H 675.02 -0.0521409 -4.23968 0
M  V30 7082 C 673.479 1.02037 -3.21076 0
M  V30 7083 O 674.009 2.09862 -3.42522 0
M  V30 7084 N 672.215 0.946348 -2.74759 0
M  V30 7085 H 671.762 0.068777 -2.57508 0
M  V30 7086 H 671.72 1.79775 -2.57931 0
M  V30 7087 N 675.492 1.28418 -0.913599 0
M  V30 7088 C 676.422 2.29713 -0.418847 0
M  V30 7089 C 677.403 1.62165 0.513469 0
M  V30 7090 O 678.588 1.89576 0.421235 0
M  V30 7091 C 675.718 3.45612 0.342042 0
M  V30 7092 C 674.672 4.25056 -0.501123 0
M  V30 7093 C 673.998 5.3329 0.388097 0
M  V30 7094 C 675.298 4.91814 -1.75831 0
M  V30 7095 H 676.992 2.71346 -1.26538 0
M  V30 7096 H 674.538 1.30446 -0.609903 0
M  V30 7097 H 676.491 4.15562 0.699 0
M  V30 7098 H 675.215 3.02858 1.22248 0
M  V30 7099 H 673.874 3.56833 -0.840598 0
M  V30 7100 H 673.522 4.8678 1.26707 0
M  V30 7101 H 673.222 5.87347 -0.172459 0
M  V30 7102 H 674.746 6.06088 0.74094 0
M  V30 7103 H 676.16 5.54126 -1.47026 0
M  V30 7104 H 674.557 5.55866 -2.26126 0
M  V30 7105 H 675.627 4.16313 -2.4862 0
M  V30 7106 N 676.97 0.677563 1.42291 0
M  V30 7107 C 678.247 0.129803 1.95169 0
M  V30 7108 C 678.627 -1.35605 1.61786 0
M  V30 7109 O 677.975 -2.09361 0.915444 0
M  V30 7110 C 678.185 0.401889 3.46678 0
M  V30 7111 C 679.533 0.319889 4.23393 0
M  V30 7112 O 680.557 0.33579 3.54614 0
M  V30 7113 O 679.416 0.264459 5.4586 0
M  V30 7114 H 676.51 0.00447433 0.826988 0
M  V30 7115 H 679.056 0.752483 1.52105 0
M  V30 7116 H 677.828 1.43108 3.64192 0
M  V30 7117 H 677.451 -0.252662 3.96796 0
M  V30 7118 N 678.448 -1.51871 0.421078 0
M  V30 7119 C 679.358 -2.31077 -0.405069 0
M  V30 7120 C 680.374 -1.39301 -1.04265 0
M  V30 7121 O 681.55 -1.72376 -1.04157 0
M  V30 7122 C 678.615 -3.12556 -1.50032 0
M  V30 7123 C 677.676 -4.20088 -0.884559 0
M  V30 7124 C 676.909 -4.97673 -1.92762 0
M  V30 7125 O 677.132 -4.75696 -3.14753 0
M  V30 7126 O 676.066 -5.82203 -1.52719 0
M  V30 7127 H 679.892 -3.02742 0.241086 0
M  V30 7128 H 677.477 -1.48263 0.183991 0
M  V30 7129 H 679.359 -3.6326 -2.13589 0
M  V30 7130 H 678.034 -2.43672 -2.13086 0
M  V30 7131 H 676.941 -3.73502 -0.211379 0
M  V30 7132 H 678.274 -4.91298 -0.297763 0
M  V30 7133 N 679.926 -0.151884 -1.56866 0
M  V30 7134 C 680.856 0.781943 -2.20018 0
M  V30 7135 C 681.837 1.25347 -1.14987 0
M  V30 7136 O 683.022 1.31015 -1.43348 0
M  V30 7137 C 680.152 2.01928 -2.82564 0
M  V30 7138 C 679.106 1.68434 -3.93464 0
M  V30 7139 C 678.432 2.99472 -4.42968 0
M  V30 7140 C 679.732 0.927244 -5.14003 0
M  V30 7141 H 681.426 0.255607 -2.98307 0
M  V30 7142 H 678.972 0.121502 -1.43486 0
M  V30 7143 H 680.925 2.67741 -3.25411 0
M  V30 7144 H 679.649 2.56943 -2.01614 0
M  V30 7145 H 678.308 1.04998 -3.51242 0
M  V30 7146 H 677.956 3.52488 -3.58834 0
M  V30 7147 H 677.656 2.77823 -5.17772 0
M  V30 7148 H 679.18 3.66348 -4.88489 0
M  V30 7149 H 680.594 1.48756 -5.53665 0
M  V30 7150 H 678.991 0.810513 -5.94601 0
M  V30 7151 H 680.061 -0.0801163 -4.84834 0
M  V30 7152 N 681.404 1.57128 0.121893 0
M  V30 7153 C 682.336 1.96773 1.17529 0
M  V30 7154 C 683.349 0.866668 1.37814 0
M  V30 7155 O 684.538 1.14497 1.3694 0
M  V30 7156 C 681.638 2.24832 2.53582 0
M  V30 7157 C 680.811 3.56138 2.53939 0
M  V30 7158 C 679.87 3.72443 3.71716 0
M  V30 7159 O 678.896 4.44584 3.55434 0
M  V30 7160 N 680.098 3.10993 4.90167 0
M  V30 7161 H 682.863 2.87743 0.838086 0
M  V30 7162 H 680.424 1.58881 0.311199 0
M  V30 7163 H 682.416 2.32958 3.30927 0
M  V30 7164 H 680.986 1.40002 2.79496 0
M  V30 7165 H 680.206 3.59226 1.62329 0
M  V30 7166 H 681.494 4.42448 2.51231 0
M  V30 7167 H 680.892 2.52345 5.06299 0
M  V30 7168 H 679.449 3.24644 5.65198 0
M  V30 7169 N 682.882 -0.391992 1.52647 0
M  V30 7170 C 683.792 -1.503 1.80131 0
M  V30 7171 C 684.808 -1.59825 0.687882 0
M  V30 7172 O 685.984 -1.76218 0.975149 0
M  V30 7173 C 683.049 -2.85863 1.96171 0
M  V30 7174 C 682.11 -2.86084 3.20085 0
M  V30 7175 C 681.343 -4.15181 3.35351 0
M  V30 7176 O 681.566 -5.09981 2.55491 0
M  V30 7177 O 680.5 -4.22603 4.28591 0
M  V30 7178 H 684.326 -1.30007 2.74466 0
M  V30 7179 H 681.911 -0.579539 1.37701 0
M  V30 7180 H 683.793 -3.66236 2.08445 0
M  V30 7181 H 682.468 -3.06189 1.05025 0
M  V30 7182 H 681.375 -2.04504 3.13256 0
M  V30 7183 H 682.708 -2.7071 4.11068 0
M  V30 7184 N 684.36 -1.4356 -0.65026 0
M  V30 7185 C 685.307 -1.48948 -1.76304 0
M  V30 7186 C 686.277 -0.338919 -1.62605 0
M  V30 7187 O 687.462 -0.54649 -1.82806 0
M  V30 7188 C 684.602 -1.42131 -3.14472 0
M  V30 7189 C 683.715 -2.67415 -3.39284 0
M  V30 7190 C 682.85 -2.52565 -4.67316 0
M  V30 7191 C 681.889 -3.73103 -4.85243 0
M  V30 7192 N 681.026 -3.57046 -6.04535 0
M  V30 7193 H 685.866 -2.44032 -1.71034 0
M  V30 7194 H 683.403 -1.21131 -0.834601 0
M  V30 7195 H 685.361 -1.36172 -3.94351 0
M  V30 7196 H 683.991 -0.506273 -3.18805 0
M  V30 7197 H 683.043 -2.8364 -2.53481 0
M  V30 7198 H 684.355 -3.56943 -3.48415 0
M  V30 7199 H 683.509 -2.44331 -5.55326 0
M  V30 7200 H 682.248 -1.60566 -4.60511 0
M  V30 7201 H 681.253 -3.81743 -3.95667 0
M  V30 7202 H 682.478 -4.66115 -4.93876 0
M  V30 7203 H 680.424 -2.67783 -5.98856 0
M  V30 7204 H 680.341 -4.40178 -6.14638 0
M  V30 7205 H 681.609 -3.52669 -6.95158 0
M  V30 7206 N 685.838 0.888903 -1.30139 0
M  V30 7207 C 686.801 1.97576 -1.16174 0
M  V30 7208 C 687.801 1.60525 -0.094086 0
M  V30 7209 O 688.991 1.70812 -0.341889 0
M  V30 7210 C 686.123 3.3188 -0.778983 0
M  V30 7211 H 687.316 2.11393 -2.12728 0
M  V30 7212 H 684.869 1.0748 -1.1348 0
M  V30 7213 H 685.604 3.23765 0.186225 0
M  V30 7214 H 685.389 3.60141 -1.55051 0
M  V30 7215 H 686.879 4.11612 -0.704631 0
M  V30 7216 N 687.317 1.12792 1.10072 0
M  V30 7217 C 688.563 0.886857 1.82381 0
M  V30 7218 C 688.896 -0.58576 1.85155 0
M  V30 7219 O 688.171 -1.43317 1.31493 0
M  V30 7220 C 688.454 1.46703 3.28862 0
M  V30 7221 C 688.307 3.00829 3.34398 0
M  V30 7222 C 689.626 1.12971 4.25353 0
M  V30 7223 H 686.745 0.32362 0.662148 0
M  V30 7224 H 689.387 1.39513 1.28982 0
M  V30 7225 H 687.537 1.03476 3.74466 0
M  V30 7226 H 689.209 3.52764 2.97247 0
M  V30 7227 H 687.452 3.36164 2.74183 0
M  V30 7228 H 688.123 3.36519 4.3756 0
M  V30 7229 H 690.599 1.50313 3.88001 0
M  V30 7230 H 689.475 1.56223 5.26199 0
M  V30 7231 H 689.736 0.0424452 4.4208 0
M  V30 7232 N 688.795 -1.27931 0.920396 0
M  V30 7233 C 690.044 -1.93975 0.552867 0
M  V30 7234 C 690.357 -1.73193 -0.909035 0
M  V30 7235 O 691.563 -2.33515 -1.38502 0
M  V30 7236 C 690.019 -3.47463 0.937947 0
M  V30 7237 C 689.627 -3.77013 2.42003 0
M  V30 7238 C 691.371 -4.19628 0.64132 0
M  V30 7239 C 689.278 -5.23841 2.74489 0
M  V30 7240 H 688.208 -0.726146 0.203046 0
M  V30 7241 H 690.859 -1.45339 1.12022 0
M  V30 7242 H 689.241 -3.94867 0.299317 0
M  V30 7243 H 690.415 -3.40393 3.10595 0
M  V30 7244 H 688.73 -3.18035 2.6878 0
M  V30 7245 H 691.327 -5.27729 0.860622 0
M  V30 7246 H 691.67 -4.14164 -0.421168 0
M  V30 7247 H 692.203 -3.78022 1.23872 0
M  V30 7248 H 688.942 -5.34388 3.79618 0
M  V30 7249 H 688.462 -5.61634 2.1054 0
M  V30 7250 H 690.141 -5.91647 2.61845 0
M  V30 7251 N 690.273 -0.685099 -1.4193 0
M  V30 7252 C 691.183 -0.013404 -2.34596 0
M  V30 7253 C 692.199 0.777589 -1.55658 0
M  V30 7254 O 693.375 0.717553 -1.88184 0
M  V30 7255 C 690.44 0.919031 -3.34297 0
M  V30 7256 C 689.501 0.121417 -4.29128 0
M  V30 7257 C 688.734 1.00944 -5.24067 0
M  V30 7258 O 688.957 2.24898 -5.24192 0
M  V30 7259 O 687.891 0.464724 -6.00103 0
M  V30 7260 H 691.717 -0.776978 -2.93593 0
M  V30 7261 H 689.302 -0.445379 -1.42607 0
M  V30 7262 H 691.184 1.45402 -3.9552 0
M  V30 7263 H 689.859 1.66228 -2.77759 0
M  V30 7264 H 688.766 -0.45792 -3.71287 0
M  V30 7265 H 690.099 -0.582937 -4.88736 0
M  V30 7266 N 691.751 1.51645 -0.429126 0
M  V30 7267 C 693.167 1.59394 -0.080994 0
M  V30 7268 C 693.367 1.44064 1.40882 0
M  V30 7269 O 692.423 1.27771 2.17786 0
M  V30 7270 C 693.736 2.94779 -0.593773 0
M  V30 7271 C 695.284 3.08067 -0.553494 0
M  V30 7272 C 695.759 4.45963 -1.04311 0
M  V30 7273 N 697.25 4.5226 -1.00076 0
M  V30 7274 C 697.985 5.57268 -1.35056 0
M  V30 7275 N 697.481 6.69734 -1.77282 0
M  V30 7276 N 699.274 5.47582 -1.26925 0
M  V30 7277 H 691.425 1.59856 -1.39857 0
M  V30 7278 H 693.688 0.753095 -0.575805 0
M  V30 7279 H 693.394 3.11342 -1.63583 0
M  V30 7280 H 693.268 3.77197 -0.0142202 0
M  V30 7281 H 695.655 2.91177 0.479556 0
M  V30 7282 H 695.736 2.27508 -1.16935 0
M  V30 7283 H 695.38 4.63598 -2.07459 0
M  V30 7284 H 695.31 5.25049 -0.403873 0
M  V30 7285 H 697.801 3.71537 -0.690564 0
M  V30 7286 H 698.114 7.4587 -2.02232 0
M  V30 7287 H 696.459 6.70963 -1.81202 0
M  V30 7288 H 699.65 4.58604 -0.93809 0
M  V30 7289 H 699.823 6.29308 -1.54516 0
M  V30 7290 N 693.229 0.160201 1.56784 0
M  V30 7291 C 694.139 -0.787167 2.21 0
M  V30 7292 C 695.155 -1.26167 1.19825 0
M  V30 7293 O 696.331 -1.31611 1.52448 0
M  V30 7294 C 693.396 -2.00364 2.8294 0
M  V30 7295 C 692.457 -1.5771 3.99282 0
M  V30 7296 C 691.69 -2.73558 4.58259 0
M  V30 7297 O 691.913 -3.90129 4.16119 0
M  V30 7298 O 690.847 -2.48271 5.48311 0
M  V30 7299 H 694.673 -0.270462 3.02493 0
M  V30 7300 H 692.258 -0.0674666 1.49248 0
M  V30 7301 H 694.14 -2.71529 3.22257 0
M  V30 7302 H 692.815 -2.50961 2.04451 0
M  V30 7303 H 691.722 -0.835274 3.64656 0
M  V30 7304 H 693.055 -1.11815 4.79331 0
M  V30 7305 N 694.707 -1.5719 -0.113559 0
M  V30 7306 C 695.954 -1.85138 -0.820382 0
M  V30 7307 C 696.282 -0.74608 -1.79622 0
M  V30 7308 O 695.537 0.262077 -1.93937 0
M  V30 7309 C 695.836 -3.19593 -1.59984 0
M  V30 7310 C 695.502 -4.44315 -0.767809 0
M  V30 7311 C 694.164 -4.78179 -0.538379 0
M  V30 7312 C 696.516 -5.2086 -0.188203 0
M  V30 7313 C 693.844 -5.86028 0.28082 0
M  V30 7314 C 696.196 -6.29572 0.618217 0
M  V30 7315 C 694.86 -6.61964 0.857912 0
M  V30 7316 H 694.13 -0.677467 -0.300199 0
M  V30 7317 H 696.777 -1.91322 -0.0825443 0
M  V30 7318 H 695.082 -3.0901 -2.40874 0
M  V30 7319 H 696.779 -3.3844 -2.1508 0
M  V30 7320 H 693.369 -4.17786 -0.956724 0
M  V30 7321 H 697.553 -4.95045 -0.352658 0
M  V30 7322 H 692.809 -6.09547 0.475693 0
M  V30 7323 H 696.983 -6.88064 1.0743 0
M  V30 7324 H 694.61 -7.45365 1.49451 0
M  V30 7325 N 696.185 0.383891 -1.52853 0
M  V30 7326 C 697.601 0.724316 -1.42218 0
M  V30 7327 C 697.801 1.93943 -0.546654 0
M  V30 7328 O 696.857 2.5249 -0.0220562 0
M  V30 7329 C 698.17 0.954635 -2.85144 0
M  V30 7330 C 699.718 1.05579 -2.94656 0
M  V30 7331 C 700.193 1.3187 -4.38605 0
M  V30 7332 N 701.684 1.38681 -4.41952 0
M  V30 7333 C 702.419 1.60699 -5.50421 0
M  V30 7334 N 701.915 1.80154 -6.68967 0
M  V30 7335 N 703.708 1.6292 -5.37972 0
M  V30 7336 H 695.859 -0.4156 -2.08294 0
M  V30 7337 H 698.122 -0.123776 -0.939885 0
M  V30 7338 H 697.828 0.133829 -3.51445 0
M  V30 7339 H 697.702 1.86788 -3.27704 0
M  V30 7340 H 700.089 1.86716 -2.2852 0
M  V30 7341 H 700.17 0.120338 -2.55517 0
M  V30 7342 H 699.814 0.512416 -5.05309 0
M  V30 7343 H 699.744 2.26708 -4.75301 0
M  V30 7344 H 702.235 1.25334 -3.56511 0
M  V30 7345 H 702.548 1.96476 -7.47407 0
M  V30 7346 H 700.893 1.77368 -6.71986 0
M  V30 7347 H 704.084 1.47276 -4.44328 0
M  V30 7348 H 704.257 1.79739 -6.22574 0
M  V30 7349 N 697.663 1.43903 0.642637 0
M  V30 7350 C 699.074 1.40975 1.22404 0
M  V30 7351 C 699.425 0.1192 1.95838 0
M  V30 7352 O 698.55 -0.780939 2.01818 0
M  V30 7353 C 699.145 2.5538 2.22636 0
M  V30 7354 C 697.704 2.55684 2.76229 0
M  V30 7355 C 696.851 2.32556 1.51039 0
M  V30 7356 H 699.802 1.5265 0.434006 0
M  V30 7357 H 699.823 2.27474 3.05017 0
M  V30 7358 H 699.335 3.49294 1.69161 0
M  V30 7359 H 697.436 1.65679 3.33738 0
M  V30 7360 H 697.549 3.53799 3.23053 0
M  V30 7361 H 695.913 1.81427 1.78764 0
M  V30 7362 H 696.696 3.28569 0.99484 0
M  V30 7363 N 699.141 -0.881989 1.30609 0
M  V30 7364 C 700.389 -1.63082 1.19368 0
M  V30 7365 C 700.71 -1.93376 -0.251147 0
M  V30 7366 O 699.98 -1.5723 -1.16857 0
M  V30 7367 H 698.56 -0.604542 0.438791 0
M  V30 7368 H 701.222 -1.05658 1.63776 0
M  V30 7369 H 700.318 -2.57966 1.7567 0
M  V30 7370 N 700.619 -1.13374 -1.09472 0
M  V30 7371 C 701.868 -0.889844 -1.8101 0
M  V30 7372 C 702.181 0.585686 -1.86625 0
M  V30 7373 O 703.387 0.946497 -2.54467 0
M  V30 7374 C 701.843 -1.54241 -3.25174 0
M  V30 7375 C 701.451 -3.05343 -3.27826 0
M  V30 7376 C 703.195 -1.37919 -4.0147 0
M  V30 7377 C 701.102 -3.63486 -4.6651 0
M  V30 7378 H 700.032 -0.329256 -0.678311 0
M  V30 7379 H 702.683 -1.36139 -1.23038 0
M  V30 7380 H 701.065 -0.998525 -3.83204 0
M  V30 7381 H 702.239 -3.66307 -2.79563 0
M  V30 7382 H 700.554 -3.21175 -2.65019 0
M  V30 7383 H 703.151 -1.78771 -5.03929 0
M  V30 7384 H 703.494 -0.323987 -4.15037 0
M  V30 7385 H 704.027 -1.89284 -3.49881 0
M  V30 7386 H 700.766 -4.68811 -4.58145 0
M  V30 7387 H 700.286 -3.073 -5.15099 0
M  V30 7388 H 701.965 -3.63134 -5.35484 0
M  V30 7389 N 702.098 1.27442 -0.927168 0
M  V30 7390 C 703.008 2.30599 -0.431448 0
M  V30 7391 C 704.024 1.67028 0.48761 0
M  V30 7392 O 705.2 1.97962 0.370546 0
M  V30 7393 C 702.265 3.45327 0.308292 0
M  V30 7394 C 701.326 4.24418 -0.645615 0
M  V30 7395 C 700.559 5.33667 0.0589164 0
M  V30 7396 O 700.782 5.5589 1.27838 0
M  V30 7397 O 699.716 5.98774 -0.612638 0
M  V30 7398 H 703.542 2.75036 -1.28797 0
M  V30 7399 H 701.127 1.32382 -0.692495 0
M  V30 7400 H 703.009 4.15107 0.725555 0
M  V30 7401 H 701.684 3.02945 1.14043 0
M  V30 7402 H 700.591 3.57174 -1.11255 0
M  V30 7403 H 701.924 4.70512 -1.44496 0
M  V30 7404 N 703.576 0.692616 1.41565 0
M  V30 7405 C 704.804 0.231279 2.05603 0
M  V30 7406 C 705.219 -1.11837 1.52111 0
M  V30 7407 O 704.576 -1.6983 0.66813 0
M  V30 7408 C 704.627 0.177125 3.61066 0
M  V30 7409 O 704.348 1.47346 4.12578 0
M  V30 7410 C 705.849 -0.30556 4.42246 0
M  V30 7411 H 703.069 0.108238 0.662213 0
M  V30 7412 H 705.613 0.944369 1.81389 0
M  V30 7413 H 703.768 -0.486769 3.8433 0
M  V30 7414 H 704.182 1.35861 5.06599 0
M  V30 7415 H 705.656 -0.29233 5.51225 0
M  V30 7416 H 706.133 -1.34393 4.18133 0
M  V30 7417 H 706.739 0.327229 4.24039 0
M  V30 7418 N 705.054 -1.51416 0.437162 0
M  V30 7419 C 706.282 -2.06503 -0.128045 0
M  V30 7420 C 706.697 -1.30461 -1.36475 0
M  V30 7421 O 706.054 -0.364127 -1.78831 0
M  V30 7422 C 706.105 -3.58683 -0.450437 0
M  V30 7423 O 705.826 -4.31853 0.737186 0
M  V30 7424 C 707.327 -4.30284 -1.06633 0
M  V30 7425 H 704.547 -0.670952 -0.00800269 0
M  V30 7426 H 707.091 -1.94996 0.616193 0
M  V30 7427 H 705.246 -3.70106 -1.14457 0
M  V30 7428 H 705.66 -5.22467 0.461347 0
M  V30 7429 H 707.134 -5.37848 -1.24191 0
M  V30 7430 H 707.611 -3.88564 -2.0473 0
M  V30 7431 H 708.217 -4.23304 -0.411585 0
M  V30 7432 N 706.532 -0.168513 -1.56696 0
M  V30 7433 C 707.442 0.775435 -2.21414 0
M  V30 7434 C 708.458 1.25529 -1.20492 0
M  V30 7435 O 709.634 1.30801 -1.53144 0
M  V30 7436 C 706.699 1.9886 -2.83999 0
M  V30 7437 C 705.76 1.5559 -4.00113 0
M  V30 7438 C 704.993 2.71124 -4.59704 0
M  V30 7439 O 705.216 3.87917 -4.18182 0
M  V30 7440 O 704.15 2.4536 -5.4962 0
M  V30 7441 H 707.976 0.254416 -3.02632 0
M  V30 7442 H 705.561 0.0595507 -1.49281 0
M  V30 7443 H 707.443 2.69816 -3.23693 0
M  V30 7444 H 706.118 2.49874 -2.05779 0
M  V30 7445 H 705.025 0.815924 -3.65094 0
M  V30 7446 H 706.358 1.09271 -4.79917 0
M  V30 7447 N 708.01 1.57248 0.105221 0
M  V30 7448 C 709.426 1.52853 0.459153 0
M  V30 7449 C 709.626 0.883674 1.8109 0
M  V30 7450 O 708.682 0.471864 2.48052 0
M  V30 7451 C 709.995 2.97596 0.43096 0
M  V30 7452 C 711.543 3.08758 0.513536 0
M  V30 7453 C 712.018 4.55089 0.515593 0
M  V30 7454 N 713.509 4.59597 0.576639 0
M  V30 7455 C 714.244 5.70253 0.599904 0
M  V30 7456 N 713.74 6.90368 0.579985 0
M  V30 7457 N 715.533 5.58399 0.643953 0
M  V30 7458 H 707.684 1.97547 -0.780306 0
M  V30 7459 H 709.947 0.902758 -0.289363 0
M  V30 7460 H 709.653 3.48201 -0.494903 0
M  V30 7461 H 709.527 3.55756 1.2537 0
M  V30 7462 H 711.914 2.58148 1.42982 0
M  V30 7463 H 711.995 2.53568 -0.337148 0
M  V30 7464 H 711.639 5.06348 -0.396701 0
M  V30 7465 H 711.569 5.08105 1.38335 0
M  V30 7466 H 714.06 3.73144 0.597639 0
M  V30 7467 H 714.373 7.70462 0.600741 0
M  V30 7468 H 712.718 6.92843 0.547191 0
M  V30 7469 H 715.909 4.63467 0.656975 0
M  V30 7470 H 716.082 6.44644 0.658616 0
M  V30 7471 N 709.488 -0.375779 1.53054 0
M  V30 7472 C 710.436 -1.48015 1.79428 0
M  V30 7473 C 711.43 -1.55893 0.662854 0
M  V30 7474 O 712.636 -1.58901 0.845599 0
M  V30 7475 H 709.011 -0.492887 0.56795 0
M  V30 7476 H 710.982 -1.22971 2.71884 0
M  V30 7477 C 709.731 -2.84984 1.99197 0
M  V30 7478 H 709.054 -2.79677 2.85693 0
M  V30 7479 H 710.494 -3.61462 2.21633 0
M  V30 7480 C 708.953 -3.28025 0.768183 0
M  V30 7481 O 709.483 -4.01671 -0.0480482 0
M  V30 7482 N 707.689 -2.84454 0.594521 0
M  V30 7483 H 707.236 -2.24688 1.25988 0
M  V30 7484 H 707.194 -3.13609 -0.222916 0
M  V30 7485 N 710.966 -1.44241 -0.634997 0
M  V30 7486 C 712.196 -1.50078 -1.41987 0
M  V30 7487 C 712.604 -0.123072 -1.88799 0
M  V30 7488 O 711.947 0.880552 -1.6122 0
M  V30 7489 C 712.009 -2.40033 -2.67628 0
M  V30 7490 C 711.673 -3.87268 -2.42637 0
M  V30 7491 C 712.67 -4.77902 -2.04708 0
M  V30 7492 C 710.355 -4.31933 -2.56396 0
M  V30 7493 C 712.349 -6.11202 -1.80862 0
M  V30 7494 C 710.036 -5.65281 -2.32164 0
M  V30 7495 C 711.034 -6.54734 -1.94455 0
M  V30 7496 O 710.722 -7.85613 -1.7049 0
M  V30 7497 H 710.454 -0.51146 -0.442023 0
M  V30 7498 H 713.008 -1.89843 -0.784138 0
M  V30 7499 H 711.238 -1.95188 -3.33824 0
M  V30 7500 H 712.927 -2.36863 -3.29622 0
M  V30 7501 H 713.693 -4.44668 -1.93638 0
M  V30 7502 H 709.572 -3.62569 -2.84719 0
M  V30 7503 H 713.116 -6.80983 -1.51353 0
M  V30 7504 H 709.013 -5.98078 -2.42843 0
M  V30 7505 H 709.781 -7.97373 -1.84767 0
M  V30 7506 N 712.444 0.87505 -1.31075 0
M  V30 7507 C 713.86 1.15997 -1.09622 0
M  V30 7508 C 714.06 2.01036 0.136611 0
M  V30 7509 O 713.116 2.38559 0.827397 0
M  V30 7510 C 714.429 1.85702 -2.36506 0
M  V30 7511 C 715.977 1.98425 -2.42067 0
M  V30 7512 C 716.452 2.71544 -3.68819 0
M  V30 7513 N 717.943 2.79084 -3.69684 0
M  V30 7514 C 718.678 3.36259 -4.64454 0
M  V30 7515 N 718.174 3.94406 -5.69575 0
M  V30 7516 N 719.967 3.34169 -4.51982 0
M  V30 7517 H 712.118 0.308258 -2.10151 0
M  V30 7518 H 714.381 0.199145 -0.926847 0
M  V30 7519 H 714.087 1.30663 -3.26527 0
M  V30 7520 H 713.961 2.86017 -2.45915 0
M  V30 7521 H 716.348 2.5263 -1.52518 0
M  V30 7522 H 716.429 0.971682 -2.36626 0
M  V30 7523 H 716.073 2.18008 -4.58732 0
M  V30 7524 H 716.003 3.73198 -3.71525 0
M  V30 7525 H 718.494 2.3781 -2.93691 0
M  V30 7526 H 718.807 4.36129 -6.37974 0
M  V30 7527 H 717.152 3.92797 -5.73355 0
M  V30 7528 H 720.343 2.87977 -3.69035 0
M  V30 7529 H 720.516 3.78431 -5.26017 0
M  V30 7530 N 713.922 1.13953 1.08869 0
M  V30 7531 C 715.152 0.926825 1.84644 0
M  V30 7532 C 715.56 -0.527941 1.81685 0
M  V30 7533 O 714.903 -1.37742 1.21543 0
M  V30 7534 C 714.965 1.34416 3.33426 0
M  V30 7535 C 714.629 2.81351 3.60126 0
M  V30 7536 C 715.626 3.79486 3.55368 0
M  V30 7537 C 713.311 3.1865 3.88288 0
M  V30 7538 C 715.305 5.1293 3.78393 0
M  V30 7539 C 712.992 4.5227 4.10968 0
M  V30 7540 C 713.99 5.4922 4.06013 0
M  V30 7541 O 713.678 6.80429 4.28102 0
M  V30 7542 H 713.41 0.33013 0.589907 0
M  V30 7543 H 715.964 1.51738 1.38436 0
M  V30 7544 H 714.194 0.696901 3.80368 0
M  V30 7545 H 715.883 1.10302 3.90626 0
M  V30 7546 H 716.649 3.52017 3.3363 0
M  V30 7547 H 712.528 2.43785 3.91267 0
M  V30 7548 H 716.072 5.88591 3.74442 0
M  V30 7549 H 711.969 4.79462 4.32188 0
M  V30 7550 H 712.737 6.86617 4.45533 0
M  V30 7551 N 715.4 -1.26948 0.933913 0
M  V30 7552 C 716.363 -2.24889 0.442457 0
M  V30 7553 C 717.363 -1.54594 -0.442426 0
M  V30 7554 O 718.553 -1.72502 -0.242629 0
M  V30 7555 C 715.685 -3.3896 -0.363173 0
M  V30 7556 H 716.878 -2.69879 1.30787 0
M  V30 7557 H 714.431 -1.38978 0.715187 0
M  V30 7558 H 715.166 -2.99361 -1.24714 0
M  V30 7559 H 714.951 -3.9116 0.271366 0
M  V30 7560 H 716.441 -4.11739 -0.697186 0
M  V30 7561 N 716.879 -0.700114 -1.41195 0
M  V30 7562 C 718.127 -0.232546 -2.00758 0
M  V30 7563 C 718.448 1.1734 -1.55745 0
M  V30 7564 O 717.718 1.79262 -0.790058 0
M  V30 7565 H 716.298 -0.0829845 -0.742376 0
M  V30 7566 H 718.96 -0.902289 -1.72756 0
M  V30 7567 H 718.056 -0.253521 -3.11069 0
M  V30 7568 N 718.357 1.51182 -0.445186 0
M  V30 7569 C 719.603 2.03097 0.111049 0
M  V30 7570 C 719.958 1.32293 1.397 0
M  V30 7571 O 719.251 0.431529 1.86677 0
M  V30 7572 C 719.445 3.55408 0.376797 0
M  V30 7573 C 719.274 4.40969 -0.88185 0
M  V30 7574 C 718.044 4.85006 -1.41766 0
M  V30 7575 C 720.242 4.82876 -1.77017 0
M  V30 7576 N 718.224 5.54804 -2.62803 0
M  V30 7577 C 719.595 5.51821 -2.82654 0
M  V30 7578 C 721.65 4.64855 -1.78365 0
M  V30 7579 C 720.353 6.04655 -3.89595 0
M  V30 7580 C 722.379 5.18612 -2.84246 0
M  V30 7581 C 721.741 5.87509 -3.88603 0
M  V30 7582 H 717.84 0.781999 0.0012696 0
M  V30 7583 H 720.424 1.84976 -0.60761 0
M  V30 7584 H 718.595 3.73528 1.06449 0
M  V30 7585 H 720.327 3.93985 0.925082 0
M  V30 7586 H 717.082 4.6355 -0.970476 0
M  V30 7587 H 717.506 5.94326 -3.24201 0
M  V30 7588 H 722.148 4.11043 -0.990119 0
M  V30 7589 H 719.866 6.57518 -4.69782 0
M  V30 7590 H 723.452 5.06515 -2.86241 0
M  V30 7591 H 722.332 6.28358 -4.69186 0
M  V30 7592 N 719.835 0.176821 1.56605 0
M  V30 7593 C 720.782 -0.751312 2.18229 0
M  V30 7594 C 721.752 -1.22297 1.12395 0
M  V30 7595 O 722.937 -1.29015 1.40569 0
M  V30 7596 C 720.077 -1.97291 2.83143 0
M  V30 7597 C 719.19 -1.54431 4.03454 0
M  V30 7598 C 718.325 -2.72 4.56278 0
M  V30 7599 C 717.364 -2.25657 5.68986 0
M  V30 7600 N 716.501 -3.36338 6.16296 0
M  V30 7601 H 721.341 -0.219033 2.97194 0
M  V30 7602 H 718.878 -0.0963803 1.46784 0
M  V30 7603 H 720.836 -2.68949 3.1894 0
M  V30 7604 H 719.466 -2.4788 2.06773 0
M  V30 7605 H 718.518 -0.724273 3.73441 0
M  V30 7606 H 719.83 -1.16417 4.85024 0
M  V30 7607 H 718.984 -3.51806 4.94285 0
M  V30 7608 H 717.723 -3.13277 3.73777 0
M  V30 7609 H 716.728 -1.44299 5.30526 0
M  V30 7610 H 717.953 -1.85432 6.53293 0
M  V30 7611 H 715.899 -3.7718 5.36723 0
M  V30 7612 H 715.816 -3.02435 6.9287 0
M  V30 7613 H 717.084 -4.16413 6.58954 0
M  V30 7614 N 721.313 -1.57302 -0.09688 0
M  V30 7615 C 722.26 -2.01933 -1.11766 0
M  V30 7616 C 723.23 -0.895329 -1.39904 0
M  V30 7617 O 724.415 -1.16119 -1.51397 0
M  V30 7618 C 721.555 -2.44726 -2.43317 0
M  V30 7619 C 720.668 -3.70639 -2.21925 0
M  V30 7620 C 719.803 -4.02318 -3.46862 0
M  V30 7621 C 718.842 -5.21346 -3.20725 0
M  V30 7622 N 717.979 -5.48787 -4.37924 0
M  V30 7623 H 722.819 -2.88919 -0.730075 0
M  V30 7624 H 720.356 -1.42901 -0.348962 0
M  V30 7625 H 722.314 -2.6758 -3.20088 0
M  V30 7626 H 720.944 -1.60753 -2.79926 0
M  V30 7627 H 719.996 -3.55271 -1.35965 0
M  V30 7628 H 721.308 -4.57557 -1.98603 0
M  V30 7629 H 720.462 -4.25939 -4.32042 0
M  V30 7630 H 719.201 -3.13918 -3.73238 0
M  V30 7631 H 718.206 -4.97547 -2.33938 0
M  V30 7632 H 719.431 -6.11343 -2.95697 0
M  V30 7633 H 717.377 -4.63346 -4.64378 0
M  V30 7634 H 717.294 -6.30073 -4.17785 0
M  V30 7635 H 718.562 -5.76943 -5.24173 0
M  V30 7636 N 722.791 0.367657 -1.53252 0
M  V30 7637 C 723.754 1.43308 -1.78873 0
M  V30 7638 C 724.754 1.46671 -0.659115 0
M  V30 7639 O 725.944 1.47468 -0.927306 0
M  V30 7640 C 723.076 2.82442 -1.90892 0
M  V30 7641 H 724.269 1.21864 -2.74024 0
M  V30 7642 H 721.822 0.600668 -1.44297 0
M  V30 7643 H 722.557 3.09202 -0.978 0
M  V30 7644 H 722.342 2.81399 -2.73051 0
M  V30 7645 H 723.832 3.59601 -2.12314 0
M  V30 7646 N 724.269 1.44576 0.627338 0
M  V30 7647 C 725.515 1.47777 1.38888 0
M  V30 7648 C 725.848 0.111406 1.9388 0
M  V30 7649 O 725.123 -0.87149 1.73883 0
M  V30 7650 C 725.406 2.54119 2.55138 0
M  V30 7651 C 725.259 4.00128 2.0547 0
M  V30 7652 C 726.578 2.56929 3.57317 0
M  V30 7653 H 723.697 0.538048 0.50366 0
M  V30 7654 H 726.339 1.76277 0.708978 0
M  V30 7655 H 724.489 2.29948 3.13139 0
M  V30 7656 H 726.161 4.35444 1.5227 0
M  V30 7657 H 724.404 4.11724 1.36623 0
M  V30 7658 H 725.075 4.7019 2.89181 0
M  V30 7659 H 727.551 2.78536 3.09122 0
M  V30 7660 H 726.427 3.33234 4.36173 0
M  V30 7661 H 726.688 1.6127 4.11636 0
M  V30 7662 N 725.747 -0.868086 1.31537 0
M  V30 7663 C 726.694 -1.97548 1.19346 0
M  V30 7664 C 727.664 -1.65913 0.0787922 0
M  V30 7665 O 728.849 -1.89129 0.251985 0
M  V30 7666 C 725.989 -3.32922 0.908692 0
M  V30 7667 C 725.102 -3.77141 2.10687 0
M  V30 7668 C 724.237 -5.01241 1.75873 0
M  V30 7669 C 723.276 -5.37914 2.92088 0
M  V30 7670 N 722.413 -6.53192 2.57457 0
M  V30 7671 H 727.253 -2.07307 2.14074 0
M  V30 7672 H 724.79 -1.01483 1.06487 0
M  V30 7673 H 726.748 -4.10867 0.724138 0
M  V30 7674 H 725.378 -3.228 -0.0017611 0
M  V30 7675 H 724.43 -2.94961 2.40213 0
M  V30 7676 H 725.742 -4.00248 2.97663 0
M  V30 7677 H 724.896 -5.86858 1.53891 0
M  V30 7678 H 723.635 -4.80041 0.86091 0
M  V30 7679 H 722.64 -4.50814 3.14717 0
M  V30 7680 H 723.865 -5.61077 3.82582 0
M  V30 7681 H 721.811 -6.33536 1.702 0
M  V30 7682 H 721.728 -6.76252 3.37963 0
M  V30 7683 H 722.996 -7.41997 2.38873 0
M  V30 7684 N 727.225 -1.14528 -1.08264 0
M  V30 7685 C 728.641 -0.885976 -1.3275 0
M  V30 7686 C 728.841 0.472096 -1.95892 0
M  V30 7687 O 727.897 1.21606 -2.21288 0
M  V30 7688 C 729.21 -2.01982 -2.22764 0
M  V30 7689 C 730.758 -2.05329 -2.36239 0
M  V30 7690 C 731.233 -3.1801 -3.29596 0
M  V30 7691 N 732.724 -3.17598 -3.37173 0
M  V30 7692 C 733.459 -4.01426 -4.09444 0
M  V30 7693 N 732.955 -4.95297 -4.8441 0
M  V30 7694 N 734.748 -3.89482 -4.0529 0
M  V30 7695 H 726.899 -2.01996 -0.656607 0
M  V30 7696 H 729.162 -0.880274 -0.351884 0
M  V30 7697 H 728.868 -2.99964 -1.83615 0
M  V30 7698 H 728.742 -1.94421 -3.23234 0
M  V30 7699 H 731.129 -1.07953 -2.74646 0
M  V30 7700 H 731.21 -2.1696 -1.35506 0
M  V30 7701 H 730.854 -4.15633 -2.9191 0
M  V30 7702 H 730.784 -3.03616 -4.30261 0
M  V30 7703 H 733.275 -2.4961 -2.83731 0
M  V30 7704 H 733.588 -5.55723 -5.37021 0
M  V30 7705 H 731.933 -4.99293 -4.83457 0
M  V30 7706 H 735.124 -3.15465 -3.45832 0
M  V30 7707 H 735.297 -4.55039 -4.6135 0
M  V30 7708 N 728.703 1.26451 -0.940633 0
M  V30 7709 C 729.666 2.24651 -0.454378 0
M  V30 7710 C 730.666 1.54826 0.434222 0
M  V30 7711 O 731.856 1.72628 0.233477 0
M  V30 7712 C 728.988 3.39148 0.345192 0
M  V30 7713 H 730.181 2.69182 -1.32217 0
M  V30 7714 H 727.734 1.38596 -0.722547 0
M  V30 7715 H 728.469 3.00018 1.23125 0
M  V30 7716 H 728.254 3.9101 -0.292107 0
M  V30 7717 H 729.744 4.12103 0.675341 0
M  V30 7718 N 730.181 0.707592 1.40822 0
M  V30 7719 C 731.114 -0.000859377 2.282 0
M  V30 7720 C 732.092 -0.7758 1.42899 0
M  V30 7721 O 733.276 -0.76411 1.72318 0
M  V30 7722 C 730.403 -1.00861 3.23334 0
M  V30 7723 C 729.449 -0.32543 4.25257 0
M  V30 7724 S 730.282 0.940908 5.27169 0
M  V30 7725 C 731.438 -0.0649459 6.25866 0
M  V30 7726 H 731.671 0.740207 2.87938 0
M  V30 7727 H 729.204 0.498311 1.46138 0
M  V30 7728 H 731.162 -1.58485 3.78672 0
M  V30 7729 H 729.823 -1.72233 2.62668 0
M  V30 7730 H 729.016 -1.08697 4.92139 0
M  V30 7731 H 728.618 0.178044 3.73576 0
M  V30 7732 H 730.91 -0.914377 6.71301 0
M  V30 7733 H 731.853 0.570276 7.058 0
M  V30 7734 H 732.261 -0.425098 5.62897 0
M  V30 7735 N 731.66 -1.50943 0.453197 0
M  V30 7736 C 732.623 -2.26684 -0.338705 0
M  V30 7737 C 733.623 -1.30748 -0.936032 0
M  V30 7738 O 734.813 -1.54327 -0.808002 0
M  V30 7739 C 731.945 -3.07063 -1.48071 0
M  V30 7740 H 733.138 -2.98131 0.325289 0
M  V30 7741 H 730.691 -1.54926 0.206771 0
M  V30 7742 H 731.426 -2.4007 -2.18029 0
M  V30 7743 H 731.211 -3.77545 -1.0584 0
M  V30 7744 H 732.701 -3.64393 -2.0398 0
M  V30 7745 N 733.138 -0.185124 -1.56509 0
M  V30 7746 C 734.384 0.450356 -1.98352 0
M  V30 7747 C 734.739 1.59923 -1.06969 0
M  V30 7748 O 734.032 1.91272 -0.112084 0
M  V30 7749 C 734.226 0.967977 -3.44042 0
M  V30 7750 C 734.055 -0.129208 -4.49514 0
M  V30 7751 C 732.825 -0.58351 -5.0192 0
M  V30 7752 C 735.023 -0.93459 -5.05737 0
M  V30 7753 N 733.005 -1.65956 -5.91043 0
M  V30 7754 C 734.376 -1.86026 -5.91434 0
M  V30 7755 C 736.431 -0.978125 -4.88198 0
M  V30 7756 C 735.134 -2.82582 -6.61468 0
M  V30 7757 C 737.16 -1.93169 -5.58963 0
M  V30 7758 C 736.522 -2.84481 -6.44399 0
M  V30 7759 H 732.621 0.132504 -0.770692 0
M  V30 7760 H 735.205 -0.288523 -1.9255 0
M  V30 7761 H 733.376 1.67633 -3.50362 0
M  V30 7762 H 735.108 1.57323 -3.72869 0
M  V30 7763 H 731.863 -0.178676 -4.73263 0
M  V30 7764 H 732.287 -2.19848 -6.40309 0
M  V30 7765 H 736.929 -0.286169 -4.2183 0
M  V30 7766 H 734.647 -3.52758 -7.2704 0
M  V30 7767 H 738.233 -1.97166 -5.47373 0
M  V30 7768 H 737.113 -3.57065 -6.98194 0
M  V30 7769 N 734.616 1.57351 0.0885366 0
M  V30 7770 C 735.526 2.05858 1.12516 0
M  V30 7771 C 736.542 0.984758 1.43452 0
M  V30 7772 O 737.718 1.29836 1.53963 0
M  V30 7773 C 734.783 2.47882 2.42395 0
M  V30 7774 C 733.844 3.69487 2.18582 0
M  V30 7775 C 733.077 4.09497 3.42268 0
M  V30 7776 O 733.3 3.49536 4.50755 0
M  V30 7777 O 732.234 5.02406 3.31469 0
M  V30 7778 H 736.06 2.94467 0.743146 0
M  V30 7779 H 733.645 1.46326 0.301507 0
M  V30 7780 H 735.527 2.75509 3.18862 0
M  V30 7781 H 734.202 1.62408 2.8001 0
M  V30 7782 H 733.109 3.46967 1.39875 0
M  V30 7783 H 734.442 4.55761 1.85857 0
M  V30 7784 N 736.094 -0.359525 1.53444 0
M  V30 7785 C 737.004 -1.46445 1.83278 0
M  V30 7786 C 738.02 -1.5833 0.721629 0
M  V30 7787 O 739.196 -1.7411 1.01231 0
M  V30 7788 C 736.261 -2.81638 2.02191 0
M  V30 7789 C 735.322 -2.7923 3.26082 0
M  V30 7790 C 734.555 -4.07974 3.44082 0
M  V30 7791 O 734.778 -5.04447 2.66251 0
M  V30 7792 O 733.712 -4.13417 4.37458 0
M  V30 7793 H 737.538 -1.24156 2.77162 0
M  V30 7794 H 735.123 -0.550201 1.389 0
M  V30 7795 H 737.005 -3.61732 2.16167 0
M  V30 7796 H 735.68 -3.03892 1.11496 0
M  V30 7797 H 734.587 -1.97813 3.17523 0
M  V30 7798 H 735.92 -2.6193 4.16718 0
M  V30 7799 N 737.572 -1.44907 -0.619662 0
M  V30 7800 C 738.522 -1.49085 -1.72504 0
M  V30 7801 C 739.506 -0.355372 -1.56926 0
M  V30 7802 O 740.698 -0.601441 -1.66468 0
M  V30 7803 C 737.827 -1.44889 -3.11227 0
M  V30 7804 C 736.913 -2.63593 -3.32234 0
M  V30 7805 N 737.304 -3.88775 -3.23555 0
M  V30 7806 C 735.602 -2.59033 -3.63067 0
M  V30 7807 C 736.303 -4.67932 -3.45564 0
M  V30 7808 N 735.279 -3.9919 -3.68983 0
M  V30 7809 H 739.081 -2.43706 -1.6427 0
M  V30 7810 H 736.595 -1.4003 -0.82252 0
M  V30 7811 H 738.592 -1.45966 -3.90512 0
M  V30 7812 H 737.252 -0.513143 -3.2062 0
M  V30 7813 H 738.263 -4.20574 -3.02221 0
M  V30 7814 H 734.94 -1.7431 -3.79371 0
M  V30 7815 H 736.33 -5.76952 -3.44349 0
M  V30 7816 N 739.05 0.861098 -1.31996 0
M  V30 7817 C 740.327 1.59788 -1.12814 0
M  V30 7818 C 740.707 2.08753 0.313882 0
M  V30 7819 O 740.055 1.87258 1.30946 0
M  V30 7820 C 740.265 2.74901 -2.15012 0
M  V30 7821 C 741.613 3.44643 -2.48004 0
M  V30 7822 O 742.637 2.85119 -2.13508 0
M  V30 7823 O 741.496 4.52044 -3.07113 0
M  V30 7824 H 738.59 0.703408 -0.434909 0
M  V30 7825 H 741.136 0.905788 -1.43505 0
M  V30 7826 H 739.908 2.36198 -3.11971 0
M  V30 7827 H 739.531 3.51792 -1.85279 0
M  V30 7828 N 740.528 1.15101 1.07655 0
M  V30 7829 C 741.438 0.858869 2.18313 0
M  V30 7830 C 742.454 -0.163641 1.73229 0
M  V30 7831 O 743.63 0.00969541 2.01398 0
M  V30 7832 C 740.695 0.34893 3.4494 0
M  V30 7833 C 739.756 1.43495 4.04608 0
M  V30 7834 C 738.989 0.949253 5.2519 0
M  V30 7835 O 739.212 -0.20636 5.70027 0
M  V30 7836 O 738.146 1.73161 5.76454 0
M  V30 7837 H 741.972 1.78386 2.45788 0
M  V30 7838 H 739.557 0.929876 1.16934 0
M  V30 7839 H 741.439 0.070851 4.2134 0
M  V30 7840 H 740.114 -0.548237 3.19024 0
M  V30 7841 H 739.021 1.7666 3.29761 0
M  V30 7842 H 740.354 2.30692 4.3479 0
M  V30 7843 O 742.045 -1.2028 1.07773 0
M  V30 7844 H 742.736 -1.77907 0.76608 0
M  V30 END ATOM
M  V30 BEGIN BOND
M  V30 END BOND
M  V30 END CTAB
M  END
$$$$
