drugbank_target|Q16881 Thioredoxin reductase 1, cytoplasmic (DB01169; DB02338; DB03147; DB03566; DB04106; DB05428; DB05448)
 OpenBabel12092120033D

  0  0  0     0  0            999 V3000
M  V30 BEGIN CTAB
M  V30 COUNTS 9984 10079 0 0 0
M  V30 BEGIN ATOM
M  V30 1 H -0.908 1.98254 -0.117106 0
M  V30 2 N 0 1.576 0 0
M  V30 3 C 0.933 2.03868 1.02534 0
M  V30 4 C 1.911 0.928543 1.3348 0
M  V30 5 O 3.095 1.19667 1.45644 0
M  V30 6 C 0.222 2.43627 2.35294 0
M  V30 7 C -0.732 3.65373 2.2001 0
M  V30 8 S 0.101 5.13292 1.52614 0
M  V30 9 C 1.257 5.56322 2.86805 0
M  V30 10 H 1.49 2.90518 0.631377 0
M  V30 11 H -0.977 1.52953 0.210867 0
M  V30 12 H 0.981 2.67203 3.11629 0
M  V30 13 H -0.358 1.57376 2.7183 0
M  V30 14 H -1.165 3.90944 3.18086 0
M  V30 15 H -1.563 3.418 1.51819 0
M  V30 16 H 0.729 5.58782 3.83104 0
M  V30 17 H 1.672 6.56266 2.65933 0
M  V30 18 H 2.08 4.83886 2.90714 0
M  V30 19 N 1.4781 -0.272755 1.55222 0
M  V30 20 C 2.7261 -1.00234 1.75492 0
M  V30 21 C 3.0471 -1.8681 0.5592 0
M  V30 22 O 2.3171 -1.91215 -0.425882 0
M  V30 23 H 0.8971 -0.373076 0.647166 0
M  V30 24 H 3.5591 -0.296926 1.92625 0
M  V30 25 H 2.6551 -1.63913 2.65592 0
M  V30 26 N 2.9562 -1.48159 -0.537278 0
M  V30 27 C 4.1962 -1.57397 -1.30405 0
M  V30 28 C 4.5602 -0.239202 -1.90504 0
M  V30 29 O 5.7612 -0.206528 -2.68005 0
M  V30 30 C 4.0322 -2.6754 -2.36974 0
M  V30 31 S 5.5912 -2.96496 -3.23475 0
M  V30 32 H 2.4092 -0.555577 -0.443684 0
M  V30 33 H 5.0112 -1.85644 -0.612912 0
M  V30 34 H 3.7152 -3.63092 -1.91291 0
M  V30 35 H 3.2462 -2.41172 -3.10805 0
M  V30 36 H 5.2612 -2.35234 -4.36897 0
M  V30 37 N 4.4343 0.785586 -1.36625 0
M  V30 38 C 5.3973 1.87999 -1.31107 0
M  V30 39 C 6.3973 1.59316 -0.217959 0
M  V30 40 O 7.5873 1.67656 -0.472977 0
M  V30 41 C 4.7193 3.24861 -1.03334 0
M  V30 42 H 5.9123 1.94307 -2.2844 0
M  V30 43 H 3.4653 0.983813 -1.21453 0
M  V30 44 H 4.2003 3.24235 -0.0647432 0
M  V30 45 H 3.9853 3.4707 -1.82441 0
M  V30 46 H 5.4753 4.04929 -1.02088 0
M  V30 47 N 5.9124 1.20967 1.01018 0
M  V30 48 C 6.8224 0.980157 2.13143 0
M  V30 49 C 7.8384 -0.0660665 1.73875 0
M  V30 50 O 9.0144 0.122821 2.01025 0
M  V30 51 C 6.0794 0.54216 3.42435 0
M  V30 52 C 5.1404 1.65999 3.95908 0
M  V30 53 C 4.3734 1.2428 5.19028 0
M  V30 54 O 4.5964 0.114196 5.70286 0
M  V30 55 O 3.5304 2.05271 5.65816 0
M  V30 56 H 7.3564 1.91913 2.35379 0
M  V30 57 H 4.9414 0.994099 1.11526 0
M  V30 58 H 6.8234 0.30744 4.20277 0
M  V30 59 H 5.4984 -0.36815 3.216 0
M  V30 60 H 4.4054 1.94906 3.19316 0
M  V30 61 H 5.7384 2.54753 4.21143 0
M  V30 62 N 7.3905 -1.2043 1.01659 0
M  V30 63 C 8.6385 -1.89423 0.704522 0
M  V30 64 C 8.9595 -1.79231 -0.768197 0
M  V30 65 O 8.2295 -1.1947 -1.55254 0
M  V30 66 H 6.8095 -0.701178 0.257602 0
M  V30 67 H 9.4715 -1.4626 1.28818 0
M  V30 68 H 8.5675 -2.96052 0.987916 0
M  V30 69 N 8.8686 -0.792821 -1.36206 0
M  V30 70 C 9.8156 -0.191653 -2.30003 0
M  V30 71 C 10.7856 0.666453 -1.52143 0
M  V30 72 O 11.9706 0.61442 -1.80636 0
M  V30 73 C 9.1106 0.664848 -3.38635 0
M  V30 74 C 8.2236 -0.212175 -4.31479 0
M  V30 75 C 7.3586 0.651022 -5.27196 0
M  V30 76 C 6.3976 -0.227247 -6.11678 0
M  V30 77 N 5.5346 0.595127 -6.99573 0
M  V30 78 H 10.3746 -0.996978 -2.80828 0
M  V30 79 H 7.9116 -0.503206 -1.38225 0
M  V30 80 H 9.8696 1.17645 -4.00269 0
M  V30 81 H 8.4996 1.43557 -2.89122 0
M  V30 82 H 7.5516 -0.841777 -3.70969 0
M  V30 83 H 8.8636 -0.888751 -4.90818 0
M  V30 84 H 8.0176 1.2283 -5.94136 0
M  V30 85 H 6.7566 1.36121 -4.68319 0
M  V30 86 H 5.7616 -0.816904 -5.43697 0
M  V30 87 H 6.9866 -0.93509 -6.72631 0
M  V30 88 H 4.9326 1.28955 -6.432 0
M  V30 89 H 4.8496 -0.0236952 -7.55996 0
M  V30 90 H 6.1176 1.15613 -7.70879 0
M  V30 91 N 10.3467 1.47872 -0.545128 0
M  V30 92 C 11.3097 2.28337 0.198717 0
M  V30 93 C 12.3097 1.36255 0.853888 0
M  V30 94 O 13.4997 1.59003 0.711606 0
M  V30 95 C 10.6317 3.15585 1.28915 0
M  V30 96 H 11.8247 2.95567 -0.507941 0
M  V30 97 H 9.3777 1.53362 -0.301616 0
M  V30 98 H 10.1127 2.53019 2.02859 0
M  V30 99 H 9.8977 3.83337 0.824309 0
M  V30 100 H 11.3877 3.76243 1.81194 0
M  V30 101 N 11.8248 0.280983 1.55075 0
M  V30 102 C 13.0708 -0.33461 2.00021 0
M  V30 103 C 13.4038 -1.55063 1.16915 0
M  V30 104 O 12.6788 -1.93006 0.240646 0
M  V30 105 C 12.9618 -0.711007 3.53011 0
M  V30 106 C 12.8148 0.512766 4.46868 0
M  V30 107 C 14.1338 -1.54522 4.12081 0
M  V30 108 H 11.2528 -0.120147 0.727141 0
M  V30 109 H 13.8948 0.389097 1.85973 0
M  V30 110 H 12.0448 -1.32761 3.65112 0
M  V30 111 H 13.7168 1.15131 4.46702 0
M  V30 112 H 11.9598 1.14975 4.18286 0
M  V30 113 H 12.6308 0.205556 5.51617 0
M  V30 114 H 15.1068 -1.02442 4.03293 0
M  V30 115 H 13.9828 -1.77739 5.19327 0
M  V30 116 H 14.2438 -2.52813 3.62682 0
M  V30 117 N 13.3029 -1.57598 0.00835791 0
M  V30 118 C 14.2659 -2.07884 -0.965242 0
M  V30 119 C 15.2659 -0.989825 -1.26725 0
M  V30 120 O 16.4559 -1.25218 -1.21104 0
M  V30 121 C 13.5879 -2.52731 -2.28779 0
M  V30 122 H 14.7809 -2.95178 -0.530112 0
M  V30 123 H 12.3339 -1.54458 -0.239283 0
M  V30 124 H 13.0689 -1.68705 -2.76964 0
M  V30 125 H 12.8539 -3.32272 -2.08177 0
M  V30 126 H 14.3439 -2.91933 -2.98605 0
M  V30 127 N 14.781 0.264519 -1.55364 0
M  V30 128 C 15.744 1.31046 -1.88042 0
M  V30 129 C 16.744 1.41943 -0.755569 0
M  V30 130 O 17.934 1.40947 -1.02369 0
M  V30 131 C 15.066 2.69067 -2.09323 0
M  V30 132 H 16.259 1.03297 -2.81549 0
M  V30 133 H 13.812 0.502989 -1.47986 0
M  V30 134 H 14.547 3.01982 -1.18226 0
M  V30 135 H 14.332 2.62542 -2.91229 0
M  V30 136 H 15.822 3.44623 -2.35848 0
M  V30 137 N 16.2591 1.48442 0.529413 0
M  V30 138 C 17.2221 1.62524 1.61612 0
M  V30 139 C 18.2221 0.498509 1.52877 0
M  V30 140 O 19.4121 0.76431 1.56537 0
M  V30 141 C 16.5441 1.59597 3.01233 0
M  V30 142 H 17.7371 2.59423 1.50465 0
M  V30 143 H 15.2901 1.37047 0.751514 0
M  V30 144 H 16.0251 0.641781 3.17886 0
M  V30 145 H 15.8101 2.41397 3.08982 0
M  V30 146 H 17.3001 1.72646 3.80241 0
M  V30 147 N 17.7372 -0.778329 1.37039 0
M  V30 148 C 18.7002 -1.87301 1.32102 0
M  V30 149 C 19.7002 -1.59198 0.226405 0
M  V30 150 O 20.8902 -1.67403 0.481861 0
M  V30 151 C 18.0222 -3.24309 1.05055 0
M  V30 152 H 19.2152 -1.93093 2.29467 0
M  V30 153 H 16.7682 -0.977358 1.21973 0
M  V30 154 H 17.5032 -3.24196 0.0819373 0
M  V30 155 H 17.2882 -3.46098 1.84279 0
M  V30 156 H 18.7782 -4.04382 1.04234 0
M  V30 157 N 19.2153 -1.21501 -1.00376 0
M  V30 158 C 20.6263 -1.03146 -1.55621 0
M  V30 159 C 20.9773 0.408375 -1.91903 0
M  V30 160 O 20.1023 1.29177 -1.73616 0
M  V30 161 C 20.6973 -1.86612 -2.82775 0
M  V30 162 C 19.2563 -1.72586 -3.34501 0
M  V30 163 C 18.4033 -1.83747 -2.07683 0
M  V30 164 H 21.3543 -1.35505 -0.826081 0
M  V30 165 H 21.3753 -1.3771 -3.54706 0
M  V30 166 H 20.8873 -2.91399 -2.56336 0
M  V30 167 H 18.9883 -0.704877 -3.65872 0
M  V30 168 H 19.1013 -2.54623 -4.05837 0
M  V30 169 H 17.4653 -1.27069 -2.20739 0
M  V30 170 H 18.2483 -2.90044 -1.83655 0
M  V30 171 N 20.6934 1.19889 -1.02296 0
M  V30 172 C 21.9214 1.9339 -0.735399 0
M  V30 173 C 22.3364 1.75148 0.704887 0
M  V30 174 O 21.6934 1.06954 1.47875 0
M  V30 175 C 21.7444 3.45313 -1.06962 0
M  V30 176 O 21.4654 3.62964 -2.45334 0
M  V30 177 C 22.9664 4.35948 -0.804021 0
M  V30 178 H 20.1864 0.61448 -0.269546 0
M  V30 179 H 22.7304 1.522 -1.36585 0
M  V30 180 H 20.8854 3.84359 -0.484455 0
M  V30 181 H 21.2994 4.56886 -2.57595 0
M  V30 182 H 22.7734 5.41174 -1.0879 0
M  V30 183 H 23.2504 4.3842 0.261691 0
M  V30 184 H 23.8564 4.02574 -1.37164 0
M  V30 185 N 22.1715 0.800033 1.35784 0
M  V30 186 C 23.0815 0.207204 2.33683 0
M  V30 187 C 24.0975 -0.64631 1.61551 0
M  V30 188 O 25.2735 -0.559604 1.93469 0
M  V30 189 C 22.3385 -0.639659 3.40748 0
M  V30 190 C 21.3995 0.233585 4.28664 0
M  V30 191 C 20.6325 -0.572954 5.30616 0
M  V30 192 O 20.8555 -1.80816 5.40982 0
M  V30 193 O 19.7895 0.0327285 6.01891 0
M  V30 194 H 23.6155 1.01692 2.86169 0
M  V30 195 H 21.2005 0.561691 1.38439 0
M  V30 196 H 23.0825 -1.12223 4.06182 0
M  V30 197 H 21.7575 -1.42708 2.90544 0
M  V30 198 H 20.6645 0.763147 3.66233 0
M  V30 199 H 21.9975 0.984784 4.82248 0
M  V30 200 N 23.6496 -1.47581 0.552962 0
M  V30 201 C 24.5796 -2.32762 -0.185451 0
M  V30 202 C 25.5606 -1.43527 -0.912905 0
M  V30 203 O 26.7456 -1.72388 -0.894201 0
M  V30 204 C 23.8756 -3.25219 -1.21859 0
M  V30 205 C 22.8296 -4.23661 -0.607864 0
M  V30 206 C 22.1556 -5.05413 -1.74533 0
M  V30 207 C 23.4556 -5.20481 0.435582 0
M  V30 208 H 25.1496 -2.94749 0.525684 0
M  V30 209 H 22.6956 -1.41738 0.254251 0
M  V30 210 H 24.6486 -3.8365 -1.7433 0
M  V30 211 H 23.3726 -2.61279 -1.95961 0
M  V30 212 H 22.0316 -3.66451 -0.104489 0
M  V30 213 H 21.6796 -4.3788 -2.47529 0
M  V30 214 H 21.3796 -5.72059 -1.34249 0
M  V30 215 H 22.9036 -5.66701 -2.27338 0
M  V30 216 H 24.3176 -5.733 -0.00290157 0
M  V30 217 H 22.7146 -5.95305 0.757067 0
M  V30 218 H 23.7846 -4.66217 1.33303 0
M  V30 219 N 25.1277 -0.289203 -1.54924 0
M  V30 220 C 26.0597 0.625583 -2.20497 0
M  V30 221 C 27.0727 1.10667 -1.19402 0
M  V30 222 O 28.2617 1.02615 -1.46056 0
M  V30 223 C 25.3617 1.86702 -2.82835 0
M  V30 224 C 24.5347 1.5304 -4.09753 0
M  V30 225 C 23.5937 2.62576 -4.56005 0
M  V30 226 O 22.6197 2.28167 -5.21468 0
M  V30 227 N 23.8217 3.92901 -4.27328 0
M  V30 228 H 26.5867 0.0642801 -2.99631 0
M  V30 229 H 24.1477 -0.110896 -1.6152 0
M  V30 230 H 26.1397 2.59304 -3.10715 0
M  V30 231 H 24.7097 2.33702 -2.07611 0
M  V30 232 H 23.9297 0.637564 -3.8901 0
M  V30 233 H 25.2177 1.28072 -4.92418 0
M  V30 234 H 24.6157 4.23671 -3.74859 0
M  V30 235 H 23.1727 4.61837 -4.59946 0
M  V30 236 N 26.6058 1.57591 -0.0167156 0
M  V30 237 C 27.8338 1.95575 0.675128 0
M  V30 238 C 28.2488 0.892542 1.6637 0
M  V30 239 O 27.6058 -0.126912 1.82058 0
M  V30 240 C 27.6568 3.33608 1.39239 0
M  V30 241 O 27.3778 4.3585 0.443444 0
M  V30 242 C 28.8788 3.86151 2.17721 0
M  V30 243 H 26.0988 0.644423 0.186978 0
M  V30 244 H 28.6428 2.0437 -0.0728 0
M  V30 245 H 26.7978 3.2607 2.09182 0
M  V30 246 H 27.2118 5.158 0.951358 0
M  V30 247 H 28.6858 4.85114 2.63379 0
M  V30 248 H 29.1628 3.19738 3.01105 0
M  V30 249 H 29.7688 3.96918 1.52761 0
M  V30 250 N 28.0839 -0.256276 1.55502 0
M  V30 251 C 29.0309 -1.31714 1.89526 0
M  V30 252 C 30.0009 -1.4828 0.748479 0
M  V30 253 O 31.1859 -1.62416 1.00128 0
M  V30 254 C 28.3259 -2.66933 2.18725 0
M  V30 255 C 27.4389 -2.58452 3.4616 0
M  V30 256 C 26.5739 -3.85961 3.64976 0
M  V30 257 C 25.6129 -3.72059 4.86044 0
M  V30 258 N 24.7499 -4.9144 5.01429 0
M  V30 259 H 29.5899 -1.01998 2.80001 0
M  V30 260 H 27.1269 -0.492413 1.38613 0
M  V30 261 H 29.0849 -3.4563 2.33657 0
M  V30 262 H 27.7149 -2.94816 1.31466 0
M  V30 263 H 26.7669 -1.71374 3.3961 0
M  V30 264 H 28.0789 -2.44085 4.34999 0
M  V30 265 H 27.2329 -4.73101 3.79816 0
M  V30 266 H 25.9719 -4.03215 2.74353 0
M  V30 267 H 24.9769 -2.83302 4.7119 0
M  V30 268 H 26.2019 -3.56309 5.78118 0
M  V30 269 H 24.1479 -5.09072 4.13741 0
M  V30 270 H 24.0649 -4.79668 5.84341 0
M  V30 271 H 25.3329 -5.80104 5.20672 0
M  V30 272 N 29.562 -1.4872 -0.521534 0
M  V30 273 C 30.81 -1.56857 -1.27437 0
M  V30 274 C 31.131 -0.247982 -1.93417 0
M  V30 275 O 30.401 0.731151 -1.81744 0
M  V30 276 H 28.981 -0.577885 -0.473347 0
M  V30 277 H 31.643 -1.85233 -0.606205 0
M  V30 278 H 30.739 -2.35402 -2.0492 0
M  V30 279 N 31.0401 0.771051 -1.3745 0
M  V30 280 C 31.9871 1.88435 -1.3327 0
M  V30 281 C 32.9571 1.64914 -0.198136 0
M  V30 282 O 34.1421 1.86821 -0.387606 0
M  V30 283 C 31.2821 3.25509 -1.14622 0
M  V30 284 C 30.3951 3.60979 -2.37314 0
M  V30 285 C 29.5301 4.87265 -2.11533 0
M  V30 286 C 28.5691 5.15469 -3.30088 0
M  V30 287 N 27.7061 6.32944 -3.03853 0
M  V30 288 H 32.5461 1.91344 -2.28455 0
M  V30 289 H 30.0831 0.935466 -1.13523 0
M  V30 290 H 32.0411 4.04582 -1.01831 0
M  V30 291 H 30.6711 3.21974 -0.230837 0
M  V30 292 H 29.7231 2.76885 -2.60842 0
M  V30 293 H 31.0351 3.77759 -3.25729 0
M  V30 294 H 30.1891 5.74244 -1.95777 0
M  V30 295 H 28.9281 4.7259 -1.20457 0
M  V30 296 H 27.9331 4.26966 -3.46382 0
M  V30 297 H 29.1581 5.32052 -4.22016 0
M  V30 298 H 27.1041 6.19625 -2.15407 0
M  V30 299 H 27.0211 6.50143 -3.85812 0
M  V30 300 H 28.2891 7.22857 -2.91716 0
M  V30 301 N 32.5182 1.22032 0.997298 0
M  V30 302 C 33.4662 0.983634 2.10778 0
M  V30 303 C 34.4602 -0.0717564 1.69248 0
M  V30 304 O 35.6662 0.080304 1.79821 0
M  V30 305 H 32.0412 0.300877 0.689186 0
M  V30 306 H 34.0122 1.92606 2.27916 0
M  V30 307 C 32.7612 0.57326 3.42942 0
M  V30 308 H 32.0842 1.37702 3.75338 0
M  V30 309 H 33.5242 0.447031 4.21637 0
M  V30 310 C 31.9832 -0.7167 3.29188 0
M  V30 311 O 32.5132 -1.77027 3.60589 0
M  V30 312 N 30.7192 -0.686167 2.82383 0
M  V30 313 H 30.2662 0.171507 2.57028 0
M  V30 314 H 30.2242 -1.54955 2.73562 0
M  V30 315 N 33.9963 -1.19345 1.0293 0
M  V30 316 C 35.2443 -1.88665 0.724574 0
M  V30 317 C 35.5653 -1.80036 -0.749144 0
M  V30 318 O 34.8353 -1.2111 -1.53978 0
M  V30 319 H 33.4153 -0.698406 0.265025 0
M  V30 320 H 36.0773 -1.44885 1.30362 0
M  V30 321 H 35.1733 -2.94987 1.01926 0
M  V30 322 N 35.4744 -0.807222 -1.35358 0
M  V30 323 C 36.7514 -0.311126 -1.9311 0
M  V30 324 C 37.1314 1.19937 -1.73719 0
M  V30 325 O 36.4794 1.99918 -1.10657 0
M  V30 326 C 36.6894 -0.723226 -3.41424 0
M  V30 327 C 38.0374 -0.713078 -4.18569 0
M  V30 328 O 39.0614 -0.664811 -3.49941 0
M  V30 329 O 37.9204 -0.772022 -5.41019 0
M  V30 330 H 35.0144 -0.081526 -0.822972 0
M  V30 331 H 37.5604 -0.890962 -1.4443 0
M  V30 332 H 36.3324 -1.76426 -3.4927 0
M  V30 333 H 35.9554 -0.118232 -3.97424 0
M  V30 334 N 36.9525 1.47285 -0.560781 0
M  V30 335 C 38.2005 2.02064 -0.0379868 0
M  V30 336 C 38.5215 1.43711 1.31803 0
M  V30 337 O 37.7915 0.61362 1.86042 0
M  V30 338 H 36.3715 0.746918 -0.0110531 0
M  V30 339 H 39.0335 1.80648 -0.731598 0
M  V30 340 H 38.1295 3.12064 0.0474463 0
M  V30 341 N 38.4306 0.297415 1.54768 0
M  V30 342 C 39.8466 -0.0560823 1.59501 0
M  V30 343 C 40.0466 -1.52725 1.31444 0
M  V30 344 O 39.1026 -2.27947 1.08611 0
M  V30 345 C 40.4156 0.338631 2.98787 0
M  V30 346 C 41.9636 0.287097 3.11681 0
M  V30 347 C 42.4386 0.656579 4.53269 0
M  V30 348 N 43.9296 0.608977 4.59179 0
M  V30 349 C 44.6646 0.867385 5.66802 0
M  V30 350 N 44.1606 1.19157 6.82476 0
M  V30 351 N 45.9536 0.794687 5.56454 0
M  V30 352 H 38.1046 1.25624 1.71267 0
M  V30 353 H 40.3676 0.509057 0.799728 0
M  V30 354 H 40.0736 1.36263 3.2423 0
M  V30 355 H 39.9476 -0.309508 3.75928 0
M  V30 356 H 42.3346 -0.727649 2.85988 0
M  V30 357 H 42.4156 0.969809 2.36703 0
M  V30 358 H 42.0596 1.66912 4.7969 0
M  V30 359 H 41.9896 -0.0481649 5.26578 0
M  V30 360 H 44.4806 0.369198 3.76092 0
M  V30 361 H 44.7936 1.37482 7.60473 0
M  V30 362 H 43.1386 1.22958 6.84037 0
M  V30 363 H 46.3296 0.541098 4.64962 0
M  V30 364 H 46.5026 0.999445 6.40246 0
M  V30 365 N 39.9087 -1.5758 0.0250728 0
M  V30 366 C 41.3247 -1.56124 -0.331282 0
M  V30 367 C 41.5247 -1.03029 -1.73169 0
M  V30 368 O 40.5807 -0.675215 -2.43305 0
M  V30 369 C 41.8937 -3.00139 -0.183584 0
M  V30 370 C 43.4417 -3.11946 -0.256654 0
M  V30 371 C 43.9167 -4.57793 -0.137792 0
M  V30 372 N 45.4077 -4.6279 -0.194904 0
M  V30 373 C 46.1427 -5.7326 -0.126655 0
M  V30 374 N 45.6387 -6.928 -0.00755288 0
M  V30 375 N 47.4317 -5.61811 -0.180348 0
M  V30 376 H 39.5827 -1.90424 0.94087 0
M  V30 377 H 41.8457 -0.875761 0.362968 0
M  V30 378 H 41.5517 -3.4292 0.780927 0
M  V30 379 H 41.4257 -3.64899 -0.955448 0
M  V30 380 H 43.8127 -2.69079 -1.21162 0
M  V30 381 H 43.8937 -2.49915 0.545517 0
M  V30 382 H 43.5377 -5.01339 0.813739 0
M  V30 383 H 43.4677 -5.17798 -0.958775 0
M  V30 384 H 45.9587 -3.76807 -0.287267 0
M  V30 385 H 46.2717 -7.72791 0.0379428 0
M  V30 386 H 44.6167 -6.94995 0.0271731 0
M  V30 387 H 47.8077 -4.6731 -0.271767 0
M  V30 388 H 47.9807 -6.47882 -0.123697 0
M  V30 389 N 41.3868 0.248026 -1.55636 0
M  V30 390 C 42.8028 0.596483 -1.48035 0
M  V30 391 C 43.0028 1.88386 -0.715039 0
M  V30 392 O 42.0588 2.51319 -0.243944 0
M  V30 393 C 43.3718 0.700258 -2.92433 0
M  V30 394 C 44.9198 0.792659 -3.02797 0
M  V30 395 C 45.3948 0.928005 -4.485 0
M  V30 396 N 46.8858 0.992903 -4.52433 0
M  V30 397 C 47.6208 1.11687 -5.62418 0
M  V30 398 N 47.1168 1.20645 -6.82214 0
M  V30 399 N 48.9098 1.14994 -5.50212 0
M  V30 400 H 41.0608 -0.597109 -2.03834 0
M  V30 401 H 43.3238 -0.205925 -0.925364 0
M  V30 402 H 43.0298 -0.175658 -3.51261 0
M  V30 403 H 42.9038 1.57255 -3.42857 0
M  V30 404 H 45.2908 1.65903 -2.4405 0
M  V30 405 H 45.3718 -0.104762 -2.55585 0
M  V30 406 H 45.0158 0.0661971 -5.07857 0
M  V30 407 H 44.9458 1.84045 -4.93391 0
M  V30 408 H 47.4368 0.935064 -3.66149 0
M  V30 409 H 47.7498 1.30008 -7.61786 0
M  V30 410 H 46.0948 1.17605 -6.84977 0
M  V30 411 H 49.2858 1.07643 -4.55555 0
M  V30 412 H 49.4588 1.24311 -6.35965 0
M  V30 413 N 42.8649 1.48995 0.513639 0
M  V30 414 C 44.0899 1.61792 1.29762 0
M  V30 415 C 44.5149 0.284475 1.85936 0
M  V30 416 O 43.8729 -0.746185 1.65232 0
M  V30 417 C 43.9209 2.67993 2.41272 0
M  V30 418 O 43.0249 2.26287 3.44772 0
M  V30 419 H 42.3659 0.541963 0.38363 0
M  V30 420 H 44.8959 1.95097 0.616307 0
M  V30 421 H 44.9059 2.89772 2.87221 0
M  V30 422 H 43.5809 3.64791 1.9975 0
M  V30 423 H 42.1579 2.14788 3.04829 0
M  V30 424 N 44.343 -0.763751 1.37857 0
M  V30 425 C 45.306 -1.85889 1.34081 0
M  V30 426 C 46.306 -1.58949 0.243277 0
M  V30 427 O 47.496 -1.66882 0.499589 0
M  V30 428 C 44.628 -3.23176 1.08489 0
M  V30 429 H 45.821 -1.90648 2.31502 0
M  V30 430 H 43.374 -0.964367 1.23003 0
M  V30 431 H 44.109 -3.24091 0.116318 0
M  V30 432 H 43.894 -3.44124 1.8794 0
M  V30 433 H 45.384 -4.03254 1.08517 0
M  V30 434 N 45.8211 -1.22559 -0.990812 0
M  V30 435 C 46.7681 -0.997519 -2.0813 0
M  V30 436 C 47.7381 0.0814702 -1.659 0
M  V30 437 O 48.9231 -0.0685424 -1.90677 0
M  V30 438 C 46.0631 -0.583615 -3.40129 0
M  V30 439 C 45.1761 -1.7336 -3.9569 0
M  V30 440 C 44.3111 -1.26748 -5.15857 0
M  V30 441 C 43.3501 -2.38888 -5.63559 0
M  V30 442 N 42.4871 -1.93308 -6.74964 0
M  V30 443 H 47.3271 -1.93099 -2.26973 0
M  V30 444 H 44.8641 -0.962114 -1.11273 0
M  V30 445 H 46.8221 -0.324801 -4.15934 0
M  V30 446 H 45.4521 0.312845 -3.2128 0
M  V30 447 H 44.5041 -2.10669 -3.16738 0
M  V30 448 H 45.8161 -2.57704 -4.27071 0
M  V30 449 H 44.9701 -0.966173 -5.98957 0
M  V30 450 H 43.7091 -0.394272 -4.86104 0
M  V30 451 H 42.7141 -2.69805 -4.79046 0
M  V30 452 H 43.9391 -3.26728 -5.95336 0
M  V30 453 H 41.8851 -1.08352 -6.4699 0
M  V30 454 H 41.8021 -2.71217 -7.05675 0
M  V30 455 H 43.0701 -1.66252 -7.61564 0
M  V30 456 N 47.2992 1.18797 -1.03562 0
M  V30 457 C 48.5762 1.84469 -0.650434 0
M  V30 458 C 48.9562 1.92319 0.870433 0
M  V30 459 O 48.3042 1.44528 1.76986 0
M  V30 460 C 48.5142 3.2306 -1.32036 0
M  V30 461 C 49.8622 3.9915 -1.44792 0
M  V30 462 O 50.8862 3.32481 -1.27806 0
M  V30 463 O 49.7452 5.18587 -1.72423 0
M  V30 464 H 46.8392 0.795251 -0.226946 0
M  V30 465 H 49.3852 1.26231 -1.13419 0
M  V30 466 H 48.1572 3.1222 -2.3587 0
M  V30 467 H 47.7802 3.88949 -0.8249 0
M  V30 468 N 48.7773 0.814389 1.34928 0
M  V30 469 C 49.7273 0.202752 2.27097 0
M  V30 470 C 50.7113 -0.62799 1.48139 0
M  V30 471 O 51.9033 -0.483969 1.70255 0
M  V30 472 C 49.0323 -0.64146 3.37254 0
M  V30 473 C 48.1183 0.19944 4.23631 0
M  V30 474 N 48.5093 1.26628 4.89693 0
M  V30 475 C 46.8073 -0.0176433 4.45997 0
M  V30 476 C 47.5083 1.78031 5.53787 0
M  V30 477 N 46.4843 1.08553 5.32651 0
M  V30 478 H 50.2863 1.01893 2.75672 0
M  V30 479 H 47.8003 0.656332 1.48546 0
M  V30 480 H 49.7973 -1.09575 4.02243 0
M  V30 481 H 48.4573 -1.4559 2.9023 0
M  V30 482 H 49.4683 1.64901 4.90946 0
M  V30 483 H 46.1453 -0.800601 4.09752 0
M  V30 484 H 47.5353 2.67236 6.16469 0
M  V30 485 N 50.2554 -1.46986 0.568584 0
M  V30 486 C 51.2054 -2.27179 -0.193339 0
M  V30 487 C 52.1894 -1.35035 -0.874895 0
M  V30 488 O 53.3814 -1.5931 -0.771322 0
M  V30 489 C 50.5104 -3.21063 -1.21546 0
M  V30 490 C 49.5964 -4.2069 -0.536738 0
M  V30 491 N 49.9874 -5.04218 0.399673 0
M  V30 492 C 48.2854 -4.38961 -0.789254 0
M  V30 493 C 48.9864 -5.76242 0.795017 0
M  V30 494 N 47.9624 -5.434 0.1473 0
M  V30 495 H 51.7644 -2.89146 0.526458 0
M  V30 496 H 49.2784 -1.57664 0.389342 0
M  V30 497 H 51.2754 -3.77209 -1.77536 0
M  V30 498 H 49.9354 -2.60654 -1.93623 0
M  V30 499 H 50.9464 -5.12077 0.774454 0
M  V30 500 H 47.6234 -3.89713 -1.49767 0
M  V30 501 H 49.0134 -6.53417 1.56513 0
M  V30 502 N 51.7335 -0.305618 -1.54608 0
M  V30 503 C 53.1445 0.186098 -1.8577 0
M  V30 504 C 53.4955 1.53058 -1.22751 0
M  V30 505 O 52.6205 2.09888 -0.526893 0
M  V30 506 C 53.2155 0.344449 -3.37044 0
M  V30 507 C 51.7745 0.780384 -3.68221 0
M  V30 508 C 50.9215 -0.108554 -2.77087 0
M  V30 509 H 53.8725 -0.526485 -1.49712 0
M  V30 510 H 53.8935 1.17828 -3.61796 0
M  V30 511 H 53.4055 -0.634235 -3.82883 0
M  V30 512 H 51.5065 1.76945 -3.27904 0
M  V30 513 H 51.6195 0.596572 -4.75371 0
M  V30 514 H 49.9835 0.412931 -2.5133 0
M  V30 515 H 50.7665 -1.08368 -3.25747 0
M  V30 516 N 53.2116 1.57565 -0.0334293 0
M  V30 517 C 54.4596 1.91598 0.642999 0
M  V30 518 C 54.7806 0.910847 1.7242 0
M  V30 519 O 54.0506 -0.0469931 1.95844 0
M  V30 520 H 52.6306 0.707228 0.240496 0
M  V30 521 H 55.2926 1.94726 -0.0822488 0
M  V30 522 H 54.3886 2.92336 1.09298 0
M  V30 523 N 54.6897 -0.239769 1.55765 0
M  V30 524 C 55.6367 -1.29696 1.90913 0
M  V30 525 C 56.6067 -1.47478 0.764164 0
M  V30 526 O 57.7917 -1.61345 1.01845 0
M  V30 527 C 54.9317 -2.64598 2.21544 0
M  V30 528 C 54.0447 -2.54765 3.48882 0
M  V30 529 C 53.1797 -3.82069 3.69049 0
M  V30 530 C 52.2187 -3.66883 4.89963 0
M  V30 531 N 51.3557 -4.86094 5.06614 0
M  V30 532 H 56.1957 -0.990224 2.81067 0
M  V30 533 H 53.7327 -0.477684 1.39128 0
M  V30 534 H 55.6907 -3.43132 2.3731 0
M  V30 535 H 54.3207 -2.93405 1.34585 0
M  V30 536 H 53.3727 -1.67763 3.41409 0
M  V30 537 H 54.6847 -2.39457 4.37563 0
M  V30 538 H 53.8387 -4.69046 3.84812 0
M  V30 539 H 52.5777 -4.00282 2.78614 0
M  V30 540 H 51.5827 -2.78289 4.74168 0
M  V30 541 H 52.8077 -3.50157 5.81865 0
M  V30 542 H 50.7537 -5.04655 4.19117 0
M  V30 543 H 50.6707 -4.73443 5.89396 0
M  V30 544 H 51.9387 -5.74549 5.26795 0
M  V30 545 N 56.1678 -1.49265 -0.50573 0
M  V30 546 C 57.3958 -1.62215 -1.28429 0
M  V30 547 C 57.8108 -0.291697 -1.86533 0
M  V30 548 O 57.1678 0.722233 -1.67601 0
M  V30 549 C 57.2188 -2.68735 -2.41793 0
M  V30 550 O 56.9398 -3.96619 -1.86078 0
M  V30 551 C 58.4408 -2.92346 -3.3324 0
M  V30 552 H 55.6608 -0.546239 -0.389697 0
M  V30 553 H 58.2048 -1.95265 -0.607609 0
M  V30 554 H 56.3598 -2.38476 -3.053 0
M  V30 555 H 56.7738 -4.55256 -2.60465 0
M  V30 556 H 58.2478 -3.70623 -4.09075 0
M  V30 557 H 58.7248 -2.02081 -3.89948 0
M  V30 558 H 59.3308 -3.24003 -2.75503 0
M  V30 559 N 57.6459 0.756429 -1.3826 0
M  V30 560 C 58.5759 1.88374 -1.37976 0
M  V30 561 C 59.5569 1.68311 -0.246082 0
M  V30 562 O 60.7419 1.88944 -0.44874 0
M  V30 563 C 57.8719 3.25864 -1.20125 0
M  V30 564 C 56.8259 3.60523 -2.30666 0
M  V30 565 C 56.1519 4.9672 -1.97923 0
M  V30 566 C 57.4519 3.65692 -3.72916 0
M  V30 567 H 59.1459 1.88869 -2.32312 0
M  V30 568 H 56.6919 0.907272 -1.11824 0
M  V30 569 H 58.6449 4.0438 -1.18552 0
M  V30 570 H 57.3689 3.25841 -0.222498 0
M  V30 571 H 56.0279 2.84324 -2.3142 0
M  V30 572 H 55.6759 4.93253 -0.985393 0
M  V30 573 H 55.3759 5.20878 -2.71955 0
M  V30 574 H 56.8999 5.77618 -1.97964 0
M  V30 575 H 58.3139 4.34328 -3.74208 0
M  V30 576 H 56.7109 4.01358 -4.4613 0
M  V30 577 H 57.7809 2.65987 -4.05436 0
M  V30 578 N 59.124 1.23083 0.984299 0
M  V30 579 C 60.535 1.05609 1.5396 0
M  V30 580 C 60.886 -0.377793 1.92528 0
M  V30 581 O 60.011 -1.26398 1.75649 0
M  V30 582 C 60.606 1.91087 2.7977 0
M  V30 583 C 59.165 1.77885 3.31713 0
M  V30 584 C 58.312 1.87028 2.04733 0
M  V30 585 H 61.263 1.36802 0.804419 0
M  V30 586 H 61.284 1.43336 3.5247 0
M  V30 587 H 60.796 2.9544 2.51668 0
M  V30 588 H 58.897 0.762995 3.64704 0
M  V30 589 H 59.01 2.61047 4.01735 0
M  V30 590 H 57.374 1.30565 2.18689 0
M  V30 591 H 58.157 2.92929 1.79017 0
M  V30 592 N 60.6021 -1.18246 1.0419 0
M  V30 593 C 61.5121 -2.25574 0.644476 0
M  V30 594 C 62.5281 -1.70845 -0.329826 0
M  V30 595 O 63.7041 -2.00554 -0.184443 0
M  V30 596 C 60.7691 -3.46697 0.014877 0
M  V30 597 C 59.8301 -4.16554 1.03834 0
M  V30 598 C 59.0631 -5.31894 0.438692 0
M  V30 599 O 59.2861 -5.65385 -0.754752 0
M  V30 600 O 58.2201 -5.90459 1.168 0
M  V30 601 H 62.0461 -2.61836 1.53869 0
M  V30 602 H 59.6311 -1.25352 0.812854 0
M  V30 603 H 61.5131 -4.20062 -0.335538 0
M  V30 604 H 60.1881 -3.12255 -0.853138 0
M  V30 605 H 59.0951 -3.45251 1.44057 0
M  V30 606 H 60.4281 -4.54998 1.87716 0
M  V30 607 N 62.0802 -0.821533 -1.34494 0
M  V30 608 C 63.0282 -0.230702 -2.31453 0
M  V30 609 C 64.0222 0.627793 -1.57338 0
M  V30 610 O 65.2282 0.519288 -1.72347 0
M  V30 611 H 61.6032 -0.0558577 -0.749923 0
M  V30 612 H 63.5742 -1.06332 -2.78812 0
M  V30 613 C 62.3232 0.59391 -3.4259 0
M  V30 614 H 61.6462 -0.0573588 -3.99759 0
M  V30 615 H 63.0862 0.973446 -4.12674 0
M  V30 616 C 61.5452 1.76568 -2.86924 0
M  V30 617 O 62.0752 2.8638 -2.81691 0
M  V30 618 N 60.2812 1.58198 -2.43766 0
M  V30 619 H 59.8282 0.68872 -2.48222 0
M  V30 620 H 59.7862 2.36752 -2.06871 0
M  V30 621 N 63.5583 1.46682 -0.576371 0
M  V30 622 C 64.9693 1.86112 -0.148091 0
M  V30 623 C 65.3203 1.48073 1.2872 0
M  V30 624 O 64.4453 0.892656 1.97131 0
M  V30 625 C 65.0403 3.37786 -0.261982 0
M  V30 626 C 63.5993 3.76235 0.111384 0
M  V30 627 C 62.7463 2.70713 -0.60083 0
M  V30 628 H 65.6973 1.37927 -0.78497 0
M  V30 629 H 65.7183 3.77007 0.514364 0
M  V30 630 H 65.2303 3.6544 -1.30671 0
M  V30 631 H 63.3313 3.54198 1.15649 0
M  V30 632 H 63.4443 4.78391 -0.26052 0
M  V30 633 H 61.8083 2.54666 -0.0417783 0
M  V30 634 H 62.5913 3.01208 -1.64708 0
M  V30 635 N 65.0364 0.313813 1.54444 0
M  V30 636 C 65.9994 -0.54379 2.22656 0
M  V30 637 C 66.9994 -1.05124 1.21678 0
M  V30 638 O 68.1894 -0.945225 1.46325 0
M  V30 639 C 65.3214 -1.75427 2.92298 0
M  V30 640 H 66.5144 0.0523599 2.99854 0
M  V30 641 H 64.0674 0.0647834 1.56166 0
M  V30 642 H 64.8024 -2.38991 2.19211 0
M  V30 643 H 64.5874 -1.39791 3.66334 0
M  V30 644 H 66.0774 -2.36325 3.44297 0
M  V30 645 N 66.5145 -1.57545 0.0417849 0
M  V30 646 C 67.7625 -1.91937 -0.632829 0
M  V30 647 C 68.0835 -0.919978 -1.71934 0
M  V30 648 O 67.3535 0.0366064 -1.95866 0
M  V30 649 H 65.9335 -0.708493 -0.236742 0
M  V30 650 H 68.5955 -1.9468 0.0925745 0
M  V30 651 H 67.6915 -2.92912 -1.07746 0
M  V30 652 N 67.9926 0.231505 -1.5589 0
M  V30 653 C 69.2396 0.957352 -1.78441 0
M  V30 654 C 69.5676 1.84726 -0.60882 0
M  V30 655 O 68.8226 1.91416 0.40725 0
M  V30 656 C 69.1216 1.83577 -3.0665 0
M  V30 657 C 68.7876 1.09993 -4.37278 0
M  V30 658 C 67.4496 0.896629 -4.72773 0
M  V30 659 C 69.8016 0.579558 -5.17968 0
M  V30 660 C 67.1296 0.160896 -5.86479 0
M  V30 661 C 69.4816 -0.142783 -6.32439 0
M  V30 662 C 68.1456 -0.357427 -6.66542 0
M  V30 663 H 67.4156 0.35032 -0.65296 0
M  V30 664 H 70.0626 0.226259 -1.90159 0
M  V30 665 H 68.3676 2.63441 -2.90011 0
M  V30 666 H 70.0646 2.39934 -3.21298 0
M  V30 667 H 66.6546 1.26835 -4.09403 0
M  V30 668 H 70.8386 0.724125 -4.90989 0
M  V30 669 H 66.0946 -0.0157293 -6.11398 0
M  V30 670 H 70.2686 -0.553559 -6.94196 0
M  V30 671 H 67.8956 -0.929466 -7.54497 0
M  V30 672 N 69.4707 1.49531 0.497807 0
M  V30 673 C 70.6987 1.62893 1.27567 0
M  V30 674 C 71.1137 0.301585 1.86376 0
M  V30 675 O 70.4707 -0.713335 1.67982 0
M  V30 676 C 70.5217 2.70013 2.40364 0
M  V30 677 O 70.2427 3.976 1.83972 0
M  V30 678 C 71.7437 2.94109 3.31685 0
M  V30 679 H 68.9637 0.548298 0.386794 0
M  V30 680 H 71.5077 1.95584 0.597245 0
M  V30 681 H 69.6627 2.40092 3.04031 0
M  V30 682 H 70.0767 4.56631 2.58047 0
M  V30 683 H 71.5507 3.72788 4.07104 0
M  V30 684 H 72.0277 2.04147 3.88871 0
M  V30 685 H 72.6337 3.2546 2.73781 0
M  V30 686 N 70.9488 -0.749086 1.3866 0
M  V30 687 C 72.1738 -1.54344 1.38538 0
M  V30 688 C 72.5988 -1.88088 -0.0216655 0
M  V30 689 O 71.9568 -1.50899 -1.00494 0
M  V30 690 C 72.0048 -2.8164 2.25192 0
M  V30 691 O 71.1088 -3.7698 1.67212 0
M  V30 692 H 70.4498 -0.466654 0.472367 0
M  V30 693 H 72.9798 -0.925355 1.82478 0
M  V30 694 H 72.9898 -3.30519 2.3921 0
M  V30 695 H 71.6648 -2.56411 3.27454 0
M  V30 696 H 70.2418 -3.35699 1.6236 0
M  V30 697 N 72.4269 -1.23603 -0.977757 0
M  V30 698 C 73.6549 -1.09646 -1.75458 0
M  V30 699 C 74.0699 0.351859 -1.85492 0
M  V30 700 O 73.4269 1.24327 -1.336 0
M  V30 701 C 73.4779 -1.71895 -3.18016 0
M  V30 702 O 73.1989 -3.11063 -3.08498 0
M  V30 703 C 74.6999 -1.63415 -4.12081 0
M  V30 704 H 71.9199 -0.38359 -0.550545 0
M  V30 705 H 74.4639 -1.63507 -1.22824 0
M  V30 706 H 72.6189 -1.22061 -3.67668 0
M  V30 707 H 73.0329 -3.41305 -3.9826 0
M  V30 708 H 74.5069 -2.11669 -5.09804 0
M  V30 709 H 74.9839 -0.593462 -4.35172 0
M  V30 710 H 75.5899 -2.12628 -3.68334 0
M  V30 711 N 73.905 1.17692 -1.04816 0
M  V30 712 C 74.868 2.19787 -0.650117 0
M  V30 713 C 75.868 1.58044 0.296427 0
M  V30 714 O 77.058 1.74012 0.0808097 0
M  V30 715 C 74.19 3.40869 0.0456987 0
M  V30 716 H 75.383 2.56516 -1.5537 0
M  V30 717 H 72.936 1.31708 -0.841594 0
M  V30 718 H 73.671 3.09681 0.962726 0
M  V30 719 H 73.456 3.86928 -0.634727 0
M  V30 720 H 74.946 4.16445 0.310432 0
M  V30 721 N 75.3831 0.828654 1.34056 0
M  V30 722 C 76.6111 0.43262 2.02326 0
M  V30 723 C 77.0261 -0.963147 1.62385 0
M  V30 724 O 76.3831 -1.62425 0.832121 0
M  V30 725 C 76.4341 0.53182 3.57567 0
M  V30 726 O 76.1551 1.87258 3.96063 0
M  V30 727 C 77.6561 0.131422 4.43105 0
M  V30 728 H 74.8761 0.172923 0.648335 0
M  V30 729 H 77.4201 1.1184 1.71208 0
M  V30 730 H 75.5751 -0.105938 3.87255 0
M  V30 731 H 75.9891 1.85087 4.90758 0
M  V30 732 H 77.4631 0.251904 5.51425 0
M  V30 733 H 77.9401 -0.925645 4.29335 0
M  V30 734 H 78.5461 0.743207 4.18756 0
M  V30 735 N 76.8612 -1.46375 0.584142 0
M  V30 736 C 77.8242 -2.28784 -0.138108 0
M  V30 737 C 78.8242 -1.38471 -0.817462 0
M  V30 738 O 80.0142 -1.60833 -0.669199 0
M  V30 739 C 77.1462 -3.18892 -1.20503 0
M  V30 740 H 78.3392 -2.94117 0.586127 0
M  V30 741 H 75.8922 -1.52509 0.342171 0
M  V30 742 H 76.6272 -2.58309 -1.96079 0
M  V30 743 H 76.4122 -3.85388 -0.722384 0
M  V30 744 H 77.9022 -3.80914 -1.71155 0
M  V30 745 N 78.3393 -0.321999 -1.54275 0
M  V30 746 C 79.6163 0.335232 -1.92706 0
M  V30 747 C 79.9963 1.70006 -1.25145 0
M  V30 748 O 79.3443 2.25067 -0.394596 0
M  V30 749 C 79.5543 0.429008 -3.46353 0
M  V30 750 C 80.9023 0.690029 -4.18956 0
M  V30 751 O 81.9263 0.511992 -3.52501 0
M  V30 752 O 80.7853 1.03338 -5.36641 0
M  V30 753 H 77.8793 0.191143 -0.804608 0
M  V30 754 H 80.4253 -0.3716 -1.65581 0
M  V30 755 H 79.1973 -0.529611 -3.87699 0
M  V30 756 H 78.8203 1.18348 -3.79578 0
M  V30 757 N 79.8174 1.5752 -0.0501392 0
M  V30 758 C 81.0424 1.97376 0.636997 0
M  V30 759 C 81.4674 0.927466 1.63645 0
M  V30 760 O 80.8254 -0.10941 1.8097 0
M  V30 761 C 80.8734 3.36304 1.30123 0
M  V30 762 O 79.9774 3.34156 2.41689 0
M  V30 763 H 79.3184 0.642998 0.165679 0
M  V30 764 H 81.8484 2.04258 -0.118233 0
M  V30 765 H 81.8584 3.73008 1.65315 0
M  V30 766 H 80.5334 4.11993 0.568746 0
M  V30 767 H 79.1104 3.09196 2.08451 0
M  V30 768 N 81.2955 -0.223234 1.56011 0
M  V30 769 C 82.7115 -0.572856 1.48965 0
M  V30 770 C 82.9115 -1.87225 0.74492 0
M  V30 771 O 81.9675 -2.50899 0.283896 0
M  V30 772 C 83.2805 -0.653646 2.9351 0
M  V30 773 C 84.8285 -0.744386 3.0402 0
M  V30 774 C 85.3035 -0.856535 4.49919 0
M  V30 775 N 86.7945 -0.9208 4.53955 0
M  V30 776 C 87.5295 -1.02726 5.64123 0
M  V30 777 N 87.0255 -1.09777 6.84047 0
M  V30 778 N 88.8185 -1.06226 5.51971 0
M  V30 779 H 80.9695 0.629462 2.02858 0
M  V30 780 H 83.2325 0.220621 0.921971 0
M  V30 781 H 82.9385 0.231518 3.50937 0
M  V30 782 H 82.8125 -1.51781 3.45315 0
M  V30 783 H 85.1995 -1.61999 2.46658 0
M  V30 784 H 85.2805 0.14541 2.55386 0
M  V30 785 H 84.9245 0.0146069 5.07898 0
M  V30 786 H 84.8545 -1.76172 4.96257 0
M  V30 787 H 87.3455 -0.876694 3.6759 0
M  V30 788 H 87.6585 -1.17872 7.63758 0
M  V30 789 H 86.0035 -1.06693 6.86762 0
M  V30 790 H 89.1945 -1.00382 4.5721 0
M  V30 791 H 89.3675 -1.14177 6.37862 0
M  V30 792 N 82.7736 -1.49793 -0.48987 0
M  V30 793 C 83.7366 -1.66752 -1.57246 0
M  V30 794 C 84.7366 -0.538867 -1.51502 0
M  V30 795 O 85.9266 -0.805545 -1.54456 0
M  V30 796 C 83.0586 -1.67528 -2.96896 0
M  V30 797 H 84.2516 -2.63321 -1.43534 0
M  V30 798 H 81.8046 -1.38992 -0.714914 0
M  V30 799 H 82.5396 -0.725837 -3.16073 0
M  V30 800 H 82.3246 -2.49504 -3.02473 0
M  V30 801 H 83.8146 -1.82667 -3.7553 0
M  V30 802 N 84.2517 0.741722 -1.39055 0
M  V30 803 C 85.1817 1.869 -1.39966 0
M  V30 804 C 86.1627 1.6804 -0.26392 0
M  V30 805 O 87.3477 1.88458 -0.468755 0
M  V30 806 C 84.4777 3.24572 -1.23574 0
M  V30 807 C 83.4317 3.58056 -2.34477 0
M  V30 808 C 82.7577 4.94593 -2.0318 0
M  V30 809 C 84.0577 3.61716 -3.76774 0
M  V30 810 H 85.7517 1.86395 -2.34302 0
M  V30 811 H 83.2977 0.895361 -1.1278 0
M  V30 812 H 85.2507 4.031 -1.22834 0
M  V30 813 H 83.9747 3.25587 -0.257045 0
M  V30 814 H 82.6337 2.81854 -2.34423 0
M  V30 815 H 82.2817 4.92181 -1.03765 0
M  V30 816 H 81.9817 5.17964 -2.77465 0
M  V30 817 H 83.5057 5.75486 -2.04079 0
M  V30 818 H 84.9197 4.30335 -3.78794 0
M  V30 819 H 83.3167 3.96603 -4.50362 0
M  V30 820 H 84.3867 2.61672 -4.08235 0
M  V30 821 N 85.7298 1.2412 0.971189 0
M  V30 822 C 86.6598 1.05508 2.08304 0
M  V30 823 C 87.6408 -0.0308864 1.70072 0
M  V30 824 O 88.8258 0.135521 1.93727 0
M  V30 825 C 85.9558 0.655365 3.4106 0
M  V30 826 C 84.9098 1.68971 3.93234 0
M  V30 827 C 84.2358 1.14516 5.22293 0
M  V30 828 C 85.5358 3.08487 4.21465 0
M  V30 829 H 87.2298 1.98507 2.24132 0
M  V30 830 H 84.7758 0.955821 1.07704 0
M  V30 831 H 86.7288 0.51217 4.18276 0
M  V30 832 H 85.4528 -0.31032 3.25122 0
M  V30 833 H 84.1118 1.82106 3.18171 0
M  V30 834 H 83.7598 0.170189 5.02712 0
M  V30 835 H 83.4598 1.83635 5.58168 0
M  V30 836 H 84.9838 1.01401 6.02121 0
M  V30 837 H 86.3978 2.98601 4.89398 0
M  V30 838 H 84.7948 3.74926 4.68562 0
M  V30 839 H 85.8648 3.56787 3.28376 0
M  V30 840 N 87.2079 -1.17134 1.05439 0
M  V30 841 C 88.1399 -2.2078 0.615539 0
M  V30 842 C 89.1529 -1.59584 -0.322001 0
M  V30 843 O 90.3419 -1.78133 -0.114344 0
M  V30 844 C 87.4419 -3.38691 -0.118938 0
M  V30 845 C 86.6149 -4.29454 0.829924 0
M  V30 846 C 85.6739 -5.26024 0.136258 0
M  V30 847 O 84.6999 -5.63952 0.77115 0
M  V30 848 N 85.9019 -5.69487 -1.1254 0
M  V30 849 H 88.6669 -2.59052 1.50705 0
M  V30 850 H 86.2279 -1.32058 0.936603 0
M  V30 851 H 88.2199 -4.00329 -0.593179 0
M  V30 852 H 86.7899 -2.98996 -0.91215 0
M  V30 853 H 86.0099 -3.65211 1.48373 0
M  V30 854 H 87.2979 -4.86984 1.47392 0
M  V30 855 H 86.6959 -5.4075 -1.6615 0
M  V30 856 H 85.2529 -6.33257 -1.54366 0
M  V30 857 N 88.686 -0.835752 -1.33615 0
M  V30 858 C 89.649 -0.272 -2.2758 0
M  V30 859 C 90.649 0.557487 -1.50827 0
M  V30 860 O 91.839 0.37173 -1.70188 0
M  V30 861 C 88.971 0.617173 -3.35267 0
M  V30 862 H 90.164 -1.10111 -2.78954 0
M  V30 863 H 87.717 -0.608594 -1.43965 0
M  V30 864 H 88.452 1.46884 -2.89129 0
M  V30 865 H 88.237 0.0237066 -3.92093 0
M  V30 866 H 89.727 1.005 -4.05326 0
M  V30 867 N 90.1641 1.46063 -0.591896 0
M  V30 868 C 91.3941 2.06418 -0.0867676 0
M  V30 869 C 91.8021 1.43975 1.22751 0
M  V30 870 O 91.1451 0.542531 1.75506 0
M  V30 871 C 91.2071 3.59213 0.143725 0
M  V30 872 C 90.8711 4.439 -1.08635 0
M  V30 873 C 91.8681 4.79864 -2.00067 0
M  V30 874 C 89.5531 4.84896 -1.31077 0
M  V30 875 C 91.5471 5.55661 -3.12282 0
M  V30 876 C 89.2341 5.6045 -2.43596 0
M  V30 877 C 90.2321 5.95747 -3.34027 0
M  V30 878 O 89.9201 6.69772 -4.4459 0
M  V30 879 H 89.6521 0.673443 -0.0587447 0
M  V30 880 H 92.2061 1.88539 -0.814994 0
M  V30 881 H 90.4361 3.75433 0.926668 0
M  V30 882 H 92.1251 4.01463 0.5985 0
M  V30 883 H 92.8911 4.48763 -1.83947 0
M  V30 884 H 88.7701 4.56867 -0.61594 0
M  V30 885 H 92.3141 5.8313 -3.82891 0
M  V30 886 H 88.2111 5.90965 -2.59674 0
M  V30 887 H 88.9791 6.88207 -4.43073 0
M  V30 888 N 91.6422 0.330177 1.54103 0
M  V30 889 C 92.8912 -0.271336 1.99867 0
M  V30 890 C 93.2042 -1.52723 1.22209 0
M  V30 891 O 94.4102 -2.20515 1.58383 0
M  V30 892 C 92.8662 -0.534032 3.55916 0
M  V30 893 C 92.4742 0.705193 4.42415 0
M  V30 894 C 94.2182 -1.09514 4.1013 0
M  V30 895 C 92.1252 0.414035 5.89949 0
M  V30 896 H 91.0552 -0.105166 0.74663 0
M  V30 897 H 93.7062 0.443429 1.78062 0
M  V30 898 H 92.0882 -1.30915 3.73734 0
M  V30 899 H 93.2622 1.4804 4.36372 0
M  V30 900 H 91.5772 1.18698 3.99124 0
M  V30 901 H 94.1742 -1.3277 5.17954 0
M  V30 902 H 94.5172 -2.04656 3.62521 0
M  V30 903 H 95.0502 -0.381038 3.95971 0
M  V30 904 H 91.7892 1.33481 6.41766 0
M  V30 905 H 91.3092 -0.323336 5.98928 0
M  V30 906 H 92.9882 0.0263105 6.46995 0
M  V30 907 N 93.1203 -1.57491 0.0584922 0
M  V30 908 C 94.3973 -1.84346 -0.653918 0
M  V30 909 C 94.7773 -0.948355 -1.88599 0
M  V30 910 O 94.1253 -0.0112403 -2.28497 0
M  V30 911 C 94.3353 -3.34239 -1.00425 0
M  V30 912 C 95.6833 -4.01431 -1.38342 0
M  V30 913 O 96.7073 -3.38907 -1.09637 0
M  V30 914 O 95.5663 -5.11683 -1.91943 0
M  V30 915 H 92.6603 -0.761112 -0.323478 0
M  V30 916 H 95.2063 -1.6947 0.0884125 0
M  V30 917 H 93.9783 -3.91089 -0.128625 0
M  V30 918 H 93.6013 -3.54329 -1.80378 0
M  V30 919 N 94.5984 0.214957 -1.56127 0
M  V30 920 C 95.8464 0.936518 -1.79091 0
M  V30 921 C 96.1674 1.84606 -0.628148 0
M  V30 922 O 95.4374 1.92664 0.35462 0
M  V30 923 H 94.0174 0.3488 -0.660566 0
M  V30 924 H 96.6794 0.22523 -1.93594 0
M  V30 925 H 95.7754 1.53943 -2.71492 0
M  V30 926 N 96.0765 1.50051 0.48192 0
M  V30 927 C 97.0265 1.64512 1.5786 0
M  V30 928 C 98.0105 0.500073 1.52932 0
M  V30 929 O 99.2025 0.753964 1.60139 0
M  V30 930 C 96.3315 1.73263 2.9637 0
M  V30 931 C 95.4175 2.93409 3.06222 0
M  V30 932 N 95.8085 4.17236 2.85915 0
M  V30 933 C 94.1065 2.91742 3.37346 0
M  V30 934 C 94.8075 4.981 3.00451 0
M  V30 935 N 93.7835 4.3184 3.30174 0
M  V30 936 H 97.5855 2.57955 1.40842 0
M  V30 937 H 95.0995 1.47086 0.688439 0
M  V30 938 H 97.0965 1.81724 3.75209 0
M  V30 939 H 95.7565 0.809711 3.14442 0
M  V30 940 H 96.7675 4.46909 2.6171 0
M  V30 941 H 93.4445 2.08907 3.61475 0
M  V30 942 H 94.8345 6.06532 2.89082 0
M  V30 943 N 97.5546 -0.734337 1.39446 0
M  V30 944 C 98.7796 -1.52866 1.40167 0
M  V30 945 C 99.2046 -1.881 -0.00171513 0
M  V30 946 O 98.5626 -1.51957 -0.988879 0
M  V30 947 C 98.6106 -2.79235 2.28167 0
M  V30 948 O 97.7146 -3.75185 1.71201 0
M  V30 949 H 97.0556 -0.461618 0.477289 0
M  V30 950 H 99.5856 -0.905949 1.8345 0
M  V30 951 H 99.5956 -3.27963 2.42702 0
M  V30 952 H 98.2706 -2.52923 3.30156 0
M  V30 953 H 96.8476 -3.33958 1.65912 0
M  V30 954 N 99.0327 -1.24633 -0.964593 0
M  V30 955 C 100.279 -1.08949 -1.71049 0
M  V30 956 C 100.612 0.370302 -1.90637 0
M  V30 957 O 99.8867 1.27349 -1.47011 0
M  V30 958 C 100.17 -1.83329 -3.0994 0
M  V30 959 C 100.023 -3.37077 -2.97824 0
M  V30 960 C 101.342 -1.60846 -4.09654 0
M  V30 961 H 98.4607 -0.397178 -0.620821 0
M  V30 962 H 101.103 -1.5334 -1.12191 0
M  V30 963 H 99.2527 -1.45597 -3.60186 0
M  V30 964 H 100.925 -3.84425 -2.5498 0
M  V30 965 H 99.1677 -3.65298 -2.33965 0
M  V30 966 H 99.8387 -3.84324 -3.96231 0
M  V30 967 H 102.315 -1.93674 -3.68279 0
M  V30 968 H 101.191 -2.1534 -5.04896 0
M  V30 969 H 101.452 -0.547434 -4.38698 0
M  V30 970 N 100.511 1.16574 -1.06058 0
M  V30 971 C 101.757 1.87324 -0.777022 0
M  V30 972 C 102.09 1.81351 0.694645 0
M  V30 973 O 101.365 1.22753 1.50871 0
M  V30 974 C 101.648 3.36991 -1.26922 0
M  V30 975 C 101.501 3.51667 -2.80447 0
M  V30 976 C 102.82 4.3131 -0.87521 0
M  V30 977 H 99.9388 0.680191 -0.28374 0
M  V30 978 H 102.581 1.37036 -1.3161 0
M  V30 979 H 100.731 3.79949 -0.81063 0
M  V30 980 H 102.403 3.17664 -3.34495 0
M  V30 981 H 100.646 2.93656 -3.19294 0
M  V30 982 H 101.317 4.56766 -3.0995 0
M  V30 983 H 103.793 3.9624 -1.27014 0
M  V30 984 H 102.669 5.34545 -1.2471 0
M  V30 985 H 102.93 4.41552 0.220071 0
M  V30 986 N 101.989 0.842826 1.3317 0
M  V30 987 C 103.238 0.436738 1.96915 0
M  V30 988 C 103.551 -1.01025 1.67491 0
M  V30 989 O 104.757 -1.5212 2.24881 0
M  V30 990 C 103.213 0.730021 3.52418 0
M  V30 991 C 102.821 2.19195 3.90714 0
M  V30 992 C 104.565 0.391076 4.22695 0
M  V30 993 C 102.472 2.42907 5.39212 0
M  V30 994 H 101.402 0.15958 0.736919 0
M  V30 995 H 104.053 1.03196 1.51733 0
M  V30 996 H 102.435 0.0643755 3.95948 0
M  V30 997 H 103.609 2.8984 3.58231 0
M  V30 998 H 101.924 2.49425 3.33431 0
M  V30 999 H 104.521 0.545817 5.31907 0
M  V30 1000 H 104.864 -0.666294 4.10933 0
M  V30 1001 H 105.397 1.01212 3.84709 0
M  V30 1002 H 102.136 3.47224 5.55982 0
M  V30 1003 H 101.656 1.76827 5.73142 0
M  V30 1004 H 103.335 2.2626 6.06148 0
M  V30 1005 N 103.467 -1.45747 0.599634 0
M  V30 1006 C 104.714 -2.02292 0.0917284 0
M  V30 1007 C 105.042 -1.46906 -1.27472 0
M  V30 1008 O 104.297 -0.630652 -1.8526 0
M  V30 1009 C 104.596 -3.57399 -0.00602758 0
M  V30 1010 C 104.262 -4.31902 1.29503 0
M  V30 1011 C 102.924 -4.51974 1.65144 0
M  V30 1012 C 105.276 -4.74551 2.15525 0
M  V30 1013 C 102.604 -5.11949 2.86574 0
M  V30 1014 C 104.956 -5.35868 3.36196 0
M  V30 1015 C 103.62 -5.54165 3.72099 0
M  V30 1016 H 102.89 -0.740239 0.0335658 0
M  V30 1017 H 105.537 -1.7491 0.779661 0
M  V30 1018 H 103.842 -3.84014 -0.777183 0
M  V30 1019 H 105.539 -3.98846 -0.415038 0
M  V30 1020 H 102.129 -4.16588 1.00761 0
M  V30 1021 H 106.313 -4.58784 1.8929 0
M  V30 1022 H 101.569 -5.24305 3.14507 0
M  V30 1023 H 105.743 -5.6787 4.03109 0
M  V30 1024 H 103.37 -6.00406 4.6628 0
M  V30 1025 N 104.945 -0.338344 -1.53925 0
M  V30 1026 C 106.17 0.263987 -2.05713 0
M  V30 1027 C 106.595 1.43847 -1.21201 0
M  V30 1028 O 105.953 1.79904 -0.224535 0
M  V30 1029 C 106.001 0.662 -3.54471 0
M  V30 1030 O 105.105 1.76265 -3.72833 0
M  V30 1031 H 104.446 0.0448722 -0.662482 0
M  V30 1032 H 106.976 -0.491048 -1.9862 0
M  V30 1033 H 106.986 0.940594 -3.9701 0
M  V30 1034 H 105.661 -0.196937 -4.15433 0
M  V30 1035 H 104.238 1.48173 -3.42198 0
M  V30 1036 N 106.423 1.57458 -0.0668435 0
M  V30 1037 C 107.839 1.56947 0.289772 0
M  V30 1038 C 108.039 1.07584 1.70376 0
M  V30 1039 O 107.095 0.739486 2.41429 0
M  V30 1040 C 108.408 3.0052 0.103943 0
M  V30 1041 C 109.956 3.12517 0.173857 0
M  V30 1042 C 110.431 4.57997 0.0163682 0
M  V30 1043 N 111.922 4.63144 0.0721352 0
M  V30 1044 C 112.657 5.73394 -0.0253794 0
M  V30 1045 N 112.153 6.92576 -0.176133 0
M  V30 1046 N 113.946 5.62091 0.0313305 0
M  V30 1047 H 106.097 1.87863 -0.991027 0
M  V30 1048 H 108.36 0.86583 -0.38606 0
M  V30 1049 H 108.066 3.40729 -0.871572 0
M  V30 1050 H 107.94 3.67304 0.858366 0
M  V30 1051 H 110.327 2.72197 1.13985 0
M  V30 1052 H 110.408 2.48381 -0.611586 0
M  V30 1053 H 110.052 4.99005 -0.946374 0
M  V30 1054 H 109.982 5.20158 0.821153 0
M  V30 1055 H 112.473 3.77436 0.187263 0
M  V30 1056 H 112.786 7.72418 -0.242821 0
M  V30 1057 H 111.131 6.94678 -0.211429 0
M  V30 1058 H 114.322 4.67867 0.147773 0
M  V30 1059 H 114.495 6.47982 -0.048121 0
M  V30 1060 N 107.901 -0.206675 1.56239 0
M  V30 1061 C 109.126 -0.949474 1.8439 0
M  V30 1062 C 109.551 -1.76549 0.649016 0
M  V30 1063 O 108.909 -1.76782 -0.402231 0
M  V30 1064 C 108.957 -1.83078 3.10668 0
M  V30 1065 O 108.061 -2.9281 2.90407 0
M  V30 1066 H 107.402 -0.268033 0.607499 0
M  V30 1067 H 109.932 -0.215488 2.03462 0
M  V30 1068 H 109.942 -2.2377 3.41161 0
M  V30 1069 H 108.617 -1.23112 3.97261 0
M  V30 1070 H 107.194 -2.55956 2.71184 0
M  V30 1071 N 109.379 -1.50304 -0.473955 0
M  V30 1072 C 110.607 -1.64902 -1.24959 0
M  V30 1073 C 111.022 -0.331198 -1.85872 0
M  V30 1074 O 110.379 0.68652 -1.69095 0
M  V30 1075 C 110.43 -2.73803 -2.36038 0
M  V30 1076 O 110.151 -4.00477 -1.77624 0
M  V30 1077 C 111.652 -2.99349 -3.26964 0
M  V30 1078 H 108.872 -0.554383 -0.378022 0
M  V30 1079 H 111.416 -1.9651 -0.566054 0
M  V30 1080 H 109.571 -2.44898 -3.00173 0
M  V30 1081 H 109.985 -4.60678 -2.5075 0
M  V30 1082 H 111.459 -3.79217 -4.01121 0
M  V30 1083 H 111.936 -2.10307 -3.85574 0
M  V30 1084 H 112.542 -3.29774 -2.68569 0
M  V30 1085 N 110.857 0.726932 -1.39834 0
M  V30 1086 C 112.097 1.4992 -1.38936 0
M  V30 1087 C 112.461 1.91996 0.0126883 0
M  V30 1088 O 113.662 2.68399 0.146715 0
M  V30 1089 C 111.933 2.70013 -2.34153 0
M  V30 1090 S 113.492 3.59563 -2.51515 0
M  V30 1091 H 110.31 0.51271 -0.492595 0
M  V30 1092 H 112.912 0.85107 -1.76003 0
M  V30 1093 H 111.616 2.37254 -3.34871 0
M  V30 1094 H 111.147 3.39748 -1.98331 0
M  V30 1095 H 113.162 4.63973 -1.75909 0
M  V30 1096 N 112.336 1.25143 0.95797 0
M  V30 1097 C 113.564 1.12424 1.73691 0
M  V30 1098 C 113.979 -0.322304 1.86029 0
M  V30 1099 O 113.336 -1.22186 1.35561 0
M  V30 1100 C 113.387 1.76933 3.15241 0
M  V30 1101 O 113.108 3.15932 3.03511 0
M  V30 1102 C 114.609 1.6995 4.09429 0
M  V30 1103 H 111.829 0.3923 0.544373 0
M  V30 1104 H 114.373 1.6544 1.20207 0
M  V30 1105 H 112.528 1.27895 3.6568 0
M  V30 1106 H 112.942 3.47598 3.9278 0
M  V30 1107 H 114.416 2.19753 5.06372 0
M  V30 1108 H 114.893 0.662619 4.34173 0
M  V30 1109 H 115.499 2.18461 3.64904 0
M  V30 1110 N 113.814 -1.1601 1.06675 0
M  V30 1111 C 115.23 -1.38622 0.790948 0
M  V30 1112 C 115.43 -1.92109 -0.607965 0
M  V30 1113 O 114.486 -2.12239 -1.36787 0
M  V30 1114 C 115.799 -2.36347 1.85905 0
M  V30 1115 C 117.347 -2.50023 1.88301 0
M  V30 1116 C 117.822 -3.51033 2.94176 0
M  V30 1117 N 119.313 -3.58563 2.93235 0
M  V30 1118 C 120.048 -4.36521 3.71803 0
M  V30 1119 N 119.544 -5.17869 4.602 0
M  V30 1120 N 121.337 -4.31541 3.60178 0
M  V30 1121 H 113.488 -0.796294 1.96908 0
M  V30 1122 H 115.751 -0.412597 0.853503 0
M  V30 1123 H 115.457 -2.04147 2.86386 0
M  V30 1124 H 115.331 -3.36042 1.71334 0
M  V30 1125 H 117.718 -2.81524 0.884769 0
M  V30 1126 H 117.799 -1.5035 2.06951 0
M  V30 1127 H 117.443 -3.20268 3.94196 0
M  V30 1128 H 117.373 -4.50445 2.72776 0
M  V30 1129 H 119.864 -3.00496 2.29152 0
M  V30 1130 H 120.177 -5.74578 5.16797 0
M  V30 1131 H 118.522 -5.17199 4.64253 0
M  V30 1132 H 121.713 -3.67051 2.90502 0
M  V30 1133 H 121.886 -4.9205 4.21653 0
M  V30 1134 N 115.292 -0.849877 -1.32721 0
M  V30 1135 C 116.532 -0.457146 -1.99222 0
M  V30 1136 C 116.896 0.968038 -1.6581 0
M  V30 1137 O 118.097 1.46507 -2.25364 0
M  V30 1138 C 116.368 -0.683966 -3.50794 0
M  V30 1139 S 117.927 -0.388095 -4.3708 0
M  V30 1140 H 114.745 -0.171464 -0.690015 0
M  V30 1141 H 117.347 -1.10155 -1.61512 0
M  V30 1142 H 116.051 -1.72038 -3.726 0
M  V30 1143 H 115.582 -0.0258086 -3.93392 0
M  V30 1144 H 117.597 0.787791 -4.89906 0
M  V30 1145 N 116.77 1.45427 -0.607355 0
M  V30 1146 C 117.998 2.06614 -0.108814 0
M  V30 1147 C 118.413 1.45204 1.2067 0
M  V30 1148 O 117.77 0.566132 1.73497 0
M  V30 1149 C 117.821 3.61481 0.0375347 0
M  V30 1150 O 117.542 4.20598 -1.22593 0
M  V30 1151 C 119.043 4.39652 0.567561 0
M  V30 1152 H 116.263 0.66747 -0.0687351 0
M  V30 1153 H 118.807 1.86675 -0.835022 0
M  V30 1154 H 116.962 3.80762 0.714068 0
M  V30 1155 H 117.376 5.1377 -1.05547 0
M  V30 1156 H 118.85 5.48518 0.61905 0
M  V30 1157 H 119.327 4.09417 1.58978 0
M  V30 1158 H 119.933 4.25234 -0.0749202 0
M  V30 1159 N 118.248 0.346503 1.53744 0
M  V30 1160 C 119.158 -0.517293 2.28826 0
M  V30 1161 C 120.174 -1.10935 1.3405 0
M  V30 1162 O 121.35 -1.1244 1.6709 0
M  V30 1163 C 118.415 -1.65098 3.04866 0
M  V30 1164 C 117.476 -1.0884 4.15274 0
M  V30 1165 C 116.709 -2.16806 4.87679 0
M  V30 1166 O 116.932 -3.3758 4.59778 0
M  V30 1167 O 115.866 -1.80934 5.74061 0
M  V30 1168 H 119.692 0.0931396 3.03557 0
M  V30 1169 H 117.277 0.111458 1.48984 0
M  V30 1170 H 119.159 -2.31053 3.5241 0
M  V30 1171 H 117.834 -2.24717 2.32989 0
M  V30 1172 H 116.741 -0.3933 3.72027 0
M  V30 1173 H 118.074 -0.537036 4.89261 0
M  V30 1174 N 119.726 -1.57421 0.075193 0
M  V30 1175 C 120.972 -1.93905 -0.594025 0
M  V30 1176 C 121.305 -0.955701 -1.69056 0
M  V30 1177 O 120.58 0.0145373 -1.94495 0
M  V30 1178 C 120.863 -3.40638 -1.1678 0
M  V30 1179 C 120.716 -4.49733 -0.0776792 0
M  V30 1180 C 122.035 -3.88259 -2.07228 0
M  V30 1181 H 119.154 -0.705105 -0.214466 0
M  V30 1182 H 121.796 -1.8947 0.141854 0
M  V30 1183 H 119.946 -3.44549 -1.79494 0
M  V30 1184 H 121.618 -4.57942 0.555573 0
M  V30 1185 H 119.861 -4.29751 0.591286 0
M  V30 1186 H 120.532 -5.49549 -0.519603 0
M  V30 1187 H 123.008 -3.86376 -1.54445 0
M  V30 1188 H 121.884 -4.91533 -2.44308 0
M  V30 1189 H 122.145 -3.26396 -2.98191 0
M  V30 1190 N 121.204 0.198386 -1.56346 0
M  V30 1191 C 122.151 1.24589 -1.94284 0
M  V30 1192 C 123.121 1.454 -0.802997 0
M  V30 1193 O 124.306 1.58588 -1.06087 0
M  V30 1194 C 121.446 2.58631 -2.28482 0
M  V30 1195 C 120.559 2.45426 -3.55514 0
M  V30 1196 C 119.694 3.7215 -3.79049 0
M  V30 1197 C 118.733 3.53763 -4.99518 0
M  V30 1198 N 117.87 4.72491 -5.19323 0
M  V30 1199 H 122.71 0.915356 -2.83593 0
M  V30 1200 H 120.247 0.440629 -1.40346 0
M  V30 1201 H 122.205 3.3672 -2.46324 0
M  V30 1202 H 120.835 2.89734 -1.42317 0
M  V30 1203 H 119.887 1.58652 -3.45737 0
M  V30 1204 H 121.199 2.27772 -4.43758 0
M  V30 1205 H 120.353 4.58679 -3.97113 0
M  V30 1206 H 119.092 3.92754 -2.89129 0
M  V30 1207 H 118.097 2.65619 -4.8138 0
M  V30 1208 H 119.322 3.34607 -5.90944 0
M  V30 1209 H 117.268 4.93365 -4.3235 0
M  V30 1210 H 117.185 4.5765 -6.01741 0
M  V30 1211 H 118.453 5.6038 -5.41843 0
M  V30 1212 N 122.682 1.50554 0.465978 0
M  V30 1213 C 123.629 1.6979 1.56333 0
M  V30 1214 C 124.599 0.539239 1.57103 0
M  V30 1215 O 125.784 0.770401 1.74555 0
M  V30 1216 C 122.924 1.80273 2.94271 0
M  V30 1217 C 122.037 3.07674 3.0325 0
M  V30 1218 C 121.172 3.08922 4.32135 0
M  V30 1219 C 120.211 4.30755 4.34875 0
M  V30 1220 N 119.348 4.29714 5.55239 0
M  V30 1221 H 124.188 2.63472 1.39235 0
M  V30 1222 H 121.725 1.30602 0.676873 0
M  V30 1223 H 123.683 1.84332 3.74269 0
M  V30 1224 H 122.313 0.900258 3.09992 0
M  V30 1225 H 121.365 3.13062 2.16094 0
M  V30 1226 H 122.677 3.97642 3.01135 0
M  V30 1227 H 121.831 3.11738 5.20485 0
M  V30 1228 H 120.57 2.16792 4.36866 0
M  V30 1229 H 119.575 4.28146 3.44922 0
M  V30 1230 H 120.8 5.24117 4.31831 0
M  V30 1231 H 118.746 3.4044 5.60746 0
M  V30 1232 H 118.663 5.13456 5.54886 0
M  V30 1233 H 119.931 4.36683 6.457 0
M  V30 1234 N 124.16 -0.719506 1.40217 0
M  V30 1235 C 125.09 -1.8465 1.42922 0
M  V30 1236 C 126.071 -1.67599 0.29062 0
M  V30 1237 O 127.256 -1.87688 0.498677 0
M  V30 1238 C 124.386 -3.22565 1.28722 0
M  V30 1239 C 123.34 -3.54281 2.40144 0
M  V30 1240 C 122.666 -4.91298 2.11023 0
M  V30 1241 C 123.966 -3.55676 3.82481 0
M  V30 1242 H 125.66 -1.82644 2.37237 0
M  V30 1243 H 123.206 -0.877305 1.1419 0
M  V30 1244 H 125.159 -4.01095 1.29232 0
M  V30 1245 H 123.883 -3.25137 0.308811 0
M  V30 1246 H 122.542 -2.78088 2.38877 0
M  V30 1247 H 122.19 -4.90468 1.11582 0
M  V30 1248 H 121.89 -5.13485 2.8567 0
M  V30 1249 H 123.414 -5.72166 2.13209 0
M  V30 1250 H 124.828 -4.24254 3.85592 0
M  V30 1251 H 123.225 -3.89388 4.56614 0
M  V30 1252 H 124.295 -2.55144 4.12346 0
M  V30 1253 N 125.638 -1.25649 -0.95132 0
M  V30 1254 C 126.885 -1.10594 -1.69633 0
M  V30 1255 C 127.213 0.352515 -1.91279 0
M  V30 1256 O 126.468 1.27601 -1.4838 0
M  V30 1257 C 126.767 -1.80909 -3.08231 0
M  V30 1258 C 126.433 -3.30825 -3.06375 0
M  V30 1259 C 125.095 -3.71722 -3.05576 0
M  V30 1260 C 127.447 -4.26589 -2.99452 0
M  V30 1261 C 124.775 -5.06788 -2.95606 0
M  V30 1262 C 127.127 -5.61683 -2.91024 0
M  V30 1263 C 125.791 -6.01904 -2.88562 0
M  V30 1264 H 125.061 -0.404691 -0.620731 0
M  V30 1265 H 127.708 -1.55964 -1.11119 0
M  V30 1266 H 126.013 -1.27979 -3.70309 0
M  V30 1267 H 127.71 -1.6671 -3.64704 0
M  V30 1268 H 124.3 -2.98287 -3.07771 0
M  V30 1269 H 128.484 -3.95982 -2.99185 0
M  V30 1270 H 123.74 -5.37126 -2.92071 0
M  V30 1271 H 127.914 -6.35578 -2.84629 0
M  V30 1272 H 125.541 -7.06521 -2.80593 0
M  V30 1273 N 127.117 1.15442 -1.07289 0
M  V30 1274 C 128.064 2.20161 -0.692653 0
M  V30 1275 C 129.034 1.63073 0.31564 0
M  V30 1276 O 130.219 1.89725 0.202235 0
M  V30 1277 C 127.359 3.44967 -0.0959509 0
M  V30 1278 C 126.472 4.16256 -1.15564 0
M  V30 1279 C 125.607 5.28609 -0.524011 0
M  V30 1280 C 124.646 5.91715 -1.56653 0
M  V30 1281 N 123.783 6.9554 -0.957531 0
M  V30 1282 H 128.623 2.52037 -1.59002 0
M  V30 1283 H 126.16 1.2378 -0.794798 0
M  V30 1284 H 128.118 4.16341 0.267628 0
M  V30 1285 H 126.748 3.1361 0.764772 0
M  V30 1286 H 125.8 3.43385 -1.6368 0
M  V30 1287 H 127.112 4.59268 -1.94613 0
M  V30 1288 H 126.266 6.06604 -0.108032 0
M  V30 1289 H 125.005 4.86787 0.29825 0
M  V30 1290 H 124.01 5.12433 -1.9923 0
M  V30 1291 H 125.235 6.35614 -2.39107 0
M  V30 1292 H 123.181 6.55814 -0.156162 0
M  V30 1293 H 123.098 7.36977 -1.68526 0
M  V30 1294 H 124.366 7.77435 -0.567032 0
M  V30 1295 N 128.595 0.856903 1.32268 0
M  V30 1296 C 129.82 0.474569 2.01897 0
M  V30 1297 C 130.245 -0.921766 1.63967 0
M  V30 1298 O 129.603 -1.60589 0.84148 0
M  V30 1299 C 129.651 0.623799 3.55164 0
M  V30 1300 O 128.755 -0.342459 4.10976 0
M  V30 1301 H 128.096 0.190422 0.63611 0
M  V30 1302 H 130.626 1.15672 1.68764 0
M  V30 1303 H 130.636 0.512169 4.04773 0
M  V30 1304 H 129.311 1.64202 3.82113 0
M  V30 1305 H 127.888 -0.18688 3.72431 0
M  V30 1306 N 130.073 -1.45103 0.615059 0
M  V30 1307 C 131.003 -2.33339 -0.0865619 0
M  V30 1308 C 131.984 -1.4727 -0.851209 0
M  V30 1309 O 133.169 -1.76026 -0.820281 0
M  V30 1310 C 130.299 -3.30095 -1.07956 0
M  V30 1311 C 129.253 -4.25858 -0.427628 0
M  V30 1312 C 128.579 -5.12361 -1.5294 0
M  V30 1313 C 129.879 -5.18165 0.655944 0
M  V30 1314 H 131.573 -2.92254 0.650224 0
M  V30 1315 H 129.119 -1.40532 0.314138 0
M  V30 1316 H 131.072 -3.90698 -1.57901 0
M  V30 1317 H 129.796 -2.69355 -1.84703 0
M  V30 1318 H 128.455 -3.66564 0.0510292 0
M  V30 1319 H 128.103 -4.47984 -2.28734 0
M  V30 1320 H 127.803 -5.77238 -1.09865 0
M  V30 1321 H 129.327 -5.75833 -2.03098 0
M  V30 1322 H 130.741 -5.72796 0.240257 0
M  V30 1323 H 129.138 -5.91559 1.00888 0
M  V30 1324 H 130.208 -4.60144 1.52957 0
M  V30 1325 N 131.551 -0.354651 -1.53558 0
M  V30 1326 C 132.791 0.238651 -2.03002 0
M  V30 1327 C 133.155 1.46878 -1.23656 0
M  V30 1328 O 134.356 2.13699 -1.63053 0
M  V30 1329 C 132.627 0.534175 -3.53386 0
M  V30 1330 S 134.186 1.10271 -4.24719 0
M  V30 1331 H 131.004 0.0702908 -0.707517 0
M  V30 1332 H 133.606 -0.494987 -1.8913 0
M  V30 1333 H 132.31 -0.368765 -4.0874 0
M  V30 1334 H 131.841 1.29718 -3.71398 0
M  V30 1335 H 133.856 2.38772 -4.34974 0
M  V30 1336 N 133.029 1.57378 -0.0835403 0
M  V30 1337 C 134.275 1.94217 0.583733 0
M  V30 1338 C 134.608 0.964653 1.68547 0
M  V30 1339 O 133.883 -0.00422258 1.945 0
M  V30 1340 C 134.166 3.41253 1.14972 0
M  V30 1341 C 134.019 4.49768 0.0538277 0
M  V30 1342 C 135.338 3.89352 2.05166 0
M  V30 1343 H 132.457 0.706233 0.210724 0
M  V30 1344 H 135.099 1.89392 -0.1519 0
M  V30 1345 H 133.249 3.45496 1.77665 0
M  V30 1346 H 134.921 4.57641 -0.579851 0
M  V30 1347 H 133.164 4.29432 -0.614068 0
M  V30 1348 H 133.835 5.49817 0.490452 0
M  V30 1349 H 136.311 3.87189 1.52393 0
M  V30 1350 H 135.187 4.92822 2.41698 0
M  V30 1351 H 135.448 3.27973 2.96456 0
M  V30 1352 N 134.507 -0.190092 1.56449 0
M  V30 1353 C 135.918 -0.754312 1.70784 0
M  V30 1354 C 136.269 -1.83631 0.690951 0
M  V30 1355 O 135.394 -2.15868 -0.151604 0
M  V30 1356 C 135.989 -1.37503 3.09642 0
M  V30 1357 C 134.548 -1.88628 3.25725 0
M  V30 1358 C 133.695 -0.758098 2.66736 0
M  V30 1359 H 136.646 0.0350524 1.58661 0
M  V30 1360 H 136.667 -2.2445 3.0725 0
M  V30 1361 H 136.179 -0.587302 3.83631 0
M  V30 1362 H 134.28 -2.70103 2.56661 0
M  V30 1363 H 134.393 -2.04462 4.3328 0
M  V30 1364 H 132.757 -1.17369 2.26046 0
M  V30 1365 H 133.54 0.0174705 3.43296 0
M  V30 1366 N 135.985 -1.50799 -0.457987 0
M  V30 1367 C 137.215 -1.65977 -1.23025 0
M  V30 1368 C 137.623 -0.347918 -1.85974 0
M  V30 1369 O 136.966 0.68148 -1.70592 0
M  V30 1370 C 137.028 -2.70309 -2.3701 0
M  V30 1371 C 136.692 -4.135 -1.94594 0
M  V30 1372 C 137.689 -4.98949 -1.46101 0
M  V30 1373 C 135.374 -4.5949 -2.02915 0
M  V30 1374 C 137.368 -6.28442 -1.06489 0
M  V30 1375 C 135.055 -5.88984 -1.62914 0
M  V30 1376 C 136.053 -6.73286 -1.1478 0
M  V30 1377 O 135.741 -8.00362 -0.75339 0
M  V30 1378 H 135.473 -0.56064 -0.377702 0
M  V30 1379 H 138.027 -1.97857 -0.551537 0
M  V30 1380 H 136.257 -2.337 -3.08093 0
M  V30 1381 H 137.946 -2.74574 -2.98938 0
M  V30 1382 H 138.712 -4.6463 -1.39084 0
M  V30 1383 H 134.591 -3.94009 -2.39328 0
M  V30 1384 H 138.135 -6.94194 -0.688488 0
M  V30 1385 H 134.032 -6.22822 -1.69595 0
M  V30 1386 H 134.8 -8.13744 -0.88108 0
M  V30 1387 N 137.463 0.71206 -1.40597 0
M  V30 1388 C 138.71 1.47197 -1.39065 0
M  V30 1389 C 139.038 1.94499 0.00583891 0
M  V30 1390 O 138.293 1.68752 0.99102 0
M  V30 1391 C 138.592 2.71039 -2.32965 0
M  V30 1392 C 138.258 2.42484 -3.80148 0
M  V30 1393 C 136.92 2.34406 -4.20247 0
M  V30 1394 C 139.272 2.18598 -4.73143 0
M  V30 1395 C 136.6 2.00516 -5.51371 0
M  V30 1396 C 138.952 1.8622 -6.0457 0
M  V30 1397 C 137.616 1.76626 -6.43708 0
M  V30 1398 H 136.886 0.538634 -0.508876 0
M  V30 1399 H 139.533 0.815325 -1.73276 0
M  V30 1400 H 137.838 3.41558 -1.91951 0
M  V30 1401 H 139.535 3.29138 -2.29061 0
M  V30 1402 H 136.125 2.49659 -3.4838 0
M  V30 1403 H 140.309 2.23793 -4.42979 0
M  V30 1404 H 135.565 1.91628 -5.80593 0
M  V30 1405 H 139.739 1.66752 -6.76141 0
M  V30 1406 H 137.366 1.50133 -7.45228 0
M  V30 1407 N 138.941 1.26152 0.944643 0
M  V30 1408 C 140.187 1.11657 1.69294 0
M  V30 1409 C 140.52 -0.339926 1.91202 0
M  V30 1410 O 139.795 -1.24994 1.49019 0
M  V30 1411 C 140.078 1.88236 3.06984 0
M  V30 1412 C 139.931 3.41772 2.92424 0
M  V30 1413 C 141.25 1.67343 4.07043 0
M  V30 1414 H 138.369 0.407004 0.614424 0
M  V30 1415 H 141.011 1.55106 1.09737 0
M  V30 1416 H 139.161 1.51308 3.57824 0
M  V30 1417 H 140.833 3.88433 2.48832 0
M  V30 1418 H 139.076 3.68974 2.28124 0
M  V30 1419 H 139.747 3.90579 3.90067 0
M  V30 1420 H 142.223 1.99509 3.65151 0
M  V30 1421 H 141.099 2.23346 5.01406 0
M  V30 1422 H 141.36 0.617158 4.37771 0
M  V30 1423 N 140.419 -1.14872 1.07899 0
M  V30 1424 C 141.349 -2.2193 0.725887 0
M  V30 1425 C 142.33 -1.67622 -0.28927 0
M  V30 1426 O 143.515 -1.93533 -0.160787 0
M  V30 1427 C 140.645 -3.47061 0.128856 0
M  V30 1428 C 139.599 -4.14363 1.07178 0
M  V30 1429 C 138.925 -5.33636 0.337229 0
M  V30 1430 C 140.225 -4.63492 2.40775 0
M  V30 1431 H 141.919 -2.51724 1.62097 0
M  V30 1432 H 139.465 -1.20991 0.780838 0
M  V30 1433 H 141.418 -4.21199 -0.130147 0
M  V30 1434 H 140.142 -3.16617 -0.80134 0
M  V30 1435 H 138.801 -3.42173 1.3158 0
M  V30 1436 H 138.449 -4.99449 -0.596606 0
M  V30 1437 H 138.149 -5.79609 0.965788 0
M  V30 1438 H 139.673 -6.10539 0.0861567 0
M  V30 1439 H 141.087 -5.2913 2.20669 0
M  V30 1440 H 139.484 -5.20148 2.99276 0
M  V30 1441 H 140.554 -3.78834 3.02676 0
M  V30 1442 N 141.898 -0.863906 -1.31812 0
M  V30 1443 C 142.808 -0.318461 -2.32428 0
M  V30 1444 C 143.824 0.568496 -1.64451 0
M  V30 1445 O 145 0.46666 -1.95919 0
M  V30 1446 C 142.065 0.476355 -3.43412 0
M  V30 1447 C 141.126 -0.43784 -4.27061 0
M  V30 1448 C 140.359 0.319138 -5.32745 0
M  V30 1449 O 140.582 1.54799 -5.48993 0
M  V30 1450 O 139.516 -0.319861 -6.01049 0
M  V30 1451 H 143.342 -1.15229 -2.80991 0
M  V30 1452 H 140.927 -0.627103 -1.35602 0
M  V30 1453 H 142.809 0.927156 -4.11074 0
M  V30 1454 H 141.484 1.28683 -2.97022 0
M  V30 1455 H 140.391 -0.937013 -3.62175 0
M  V30 1456 H 141.724 -1.21375 -4.77 0
M  V30 1457 N 143.376 1.44774 -0.622745 0
M  V30 1458 C 144.306 2.33382 0.0741861 0
M  V30 1459 C 145.287 1.47719 0.843387 0
M  V30 1460 O 146.472 1.76458 0.810934 0
M  V30 1461 C 143.602 3.30663 1.06204 0
M  V30 1462 C 142.556 4.26079 0.405037 0
M  V30 1463 C 141.882 5.13165 1.5022 0
M  V30 1464 C 143.182 5.1781 -0.683414 0
M  V30 1465 H 144.876 2.91905 -0.665713 0
M  V30 1466 H 142.422 1.40363 -0.321587 0
M  V30 1467 H 144.375 3.9153 1.55827 0
M  V30 1468 H 143.099 2.70331 1.83272 0
M  V30 1469 H 141.758 3.66532 -0.0704683 0
M  V30 1470 H 141.406 4.49191 2.26355 0
M  V30 1471 H 141.106 5.77812 1.06803 0
M  V30 1472 H 142.63 5.76902 2.00041 0
M  V30 1473 H 144.044 5.72661 -0.270631 0
M  V30 1474 H 142.441 5.91015 -1.04023 0
M  V30 1475 H 143.511 4.59326 -1.55395 0
M  V30 1476 N 144.854 0.36279 1.53368 0
M  V30 1477 C 146.131 -0.284021 1.93527 0
M  V30 1478 C 146.511 -1.66628 1.29608 0
M  V30 1479 O 145.859 -2.23942 0.45413 0
M  V30 1480 C 146.069 -0.337028 3.47369 0
M  V30 1481 C 147.417 -0.578708 4.20638 0
M  V30 1482 O 148.441 -0.418352 3.53735 0
M  V30 1483 O 147.3 -0.89074 5.39192 0
M  V30 1484 H 144.394 -0.169743 0.809393 0
M  V30 1485 H 146.94 0.41537 1.64538 0
M  V30 1486 H 145.712 0.632217 3.86159 0
M  V30 1487 H 145.335 -1.08243 3.82582 0
M  V30 1488 N 146.332 -1.57332 0.0918853 0
M  V30 1489 C 147.264 -2.10869 -0.898168 0
M  V30 1490 C 148.277 -1.04521 -1.24817 0
M  V30 1491 O 149.466 -1.31977 -1.20184 0
M  V30 1492 C 146.566 -2.57083 -2.2082 0
M  V30 1493 C 145.739 -3.87229 -2.03402 0
M  V30 1494 C 144.798 -4.19324 -3.17889 0
M  V30 1495 O 143.824 -4.88598 -2.91994 0
M  V30 1496 N 145.026 -3.74471 -4.43567 0
M  V30 1497 H 147.791 -2.96439 -0.440943 0
M  V30 1498 H 145.352 -1.61631 -0.0933064 0
M  V30 1499 H 147.344 -2.75602 -2.96354 0
M  V30 1500 H 145.914 -1.76541 -2.57977 0
M  V30 1501 H 145.134 -3.7789 -1.12218 0
M  V30 1502 H 146.422 -4.72379 -1.89038 0
M  V30 1503 H 145.82 -3.18546 -4.67488 0
M  V30 1504 H 144.377 -3.98151 -5.16061 0
M  V30 1505 N 147.81 0.181792 -1.56548 0
M  V30 1506 C 149.038 0.915947 -1.85521 0
M  V30 1507 C 149.453 1.76282 -0.676016 0
M  V30 1508 O 148.81 1.79012 0.355077 0
M  V30 1509 C 148.861 1.80126 -3.13427 0
M  V30 1510 O 148.582 0.988562 -4.26801 0
M  V30 1511 C 150.083 2.64597 -3.55673 0
M  V30 1512 H 147.303 0.26661 -0.61576 0
M  V30 1513 H 149.847 0.185039 -2.03661 0
M  V30 1514 H 148.002 2.48563 -2.97145 0
M  V30 1515 H 148.416 1.59308 -4.99721 0
M  V30 1516 H 149.89 3.2235 -4.48101 0
M  V30 1517 H 150.367 3.38958 -2.79292 0
M  V30 1518 H 150.973 2.0151 -3.74532 0
M  V30 1519 N 149.288 1.51039 0.449983 0
M  V30 1520 C 150.198 1.74261 1.57067 0
M  V30 1521 C 151.214 0.626363 1.62335 0
M  V30 1522 O 152.39 0.907162 1.79812 0
M  V30 1523 C 149.455 1.85114 2.93144 0
M  V30 1524 C 148.516 3.0893 2.98095 0
M  V30 1525 C 147.749 3.19256 4.27681 0
M  V30 1526 O 147.972 2.35835 5.19363 0
M  V30 1527 O 146.906 4.12144 4.38658 0
M  V30 1528 H 150.732 2.69303 1.40391 0
M  V30 1529 H 148.317 1.35389 0.631688 0
M  V30 1530 H 150.199 1.94311 3.73926 0
M  V30 1531 H 148.874 0.932588 3.09975 0
M  V30 1532 H 147.781 3.0522 2.16314 0
M  V30 1533 H 149.114 4.00433 2.86206 0
M  V30 1534 N 150.766 -0.704594 1.40972 0
M  V30 1535 C 152.043 -1.45847 1.30338 0
M  V30 1536 C 152.423 -2.10973 -0.0732344 0
M  V30 1537 O 151.771 -2.00997 -1.08685 0
M  V30 1538 C 151.981 -2.48525 2.45023 0
M  V30 1539 C 153.329 -3.1404 2.8577 0
M  V30 1540 O 154.353 -2.58848 2.44696 0
M  V30 1541 O 153.212 -4.13981 3.56766 0
M  V30 1542 H 150.306 -0.649092 0.512454 0
M  V30 1543 H 152.852 -0.735836 1.52917 0
M  V30 1544 H 151.624 -1.98994 3.36923 0
M  V30 1545 H 151.247 -3.2831 2.24272 0
M  V30 1546 N 152.244 -1.26651 -0.937939 0
M  V30 1547 C 153.492 -1.12165 -1.68118 0
M  V30 1548 C 153.813 0.334983 -1.92101 0
M  V30 1549 O 153.083 1.23583 -1.52 0
M  V30 1550 H 151.663 -0.412093 -0.623048 0
M  V30 1551 H 154.325 -1.59027 -1.12678 0
M  V30 1552 H 153.421 -1.64289 -2.6536 0
M  V30 1553 N 153.722 1.14298 -1.08507 0
M  V30 1554 C 155.138 1.37347 -0.812901 0
M  V30 1555 C 155.338 1.93052 0.577325 0
M  V30 1556 O 154.394 2.14389 1.33393 0
M  V30 1557 C 155.707 2.33359 -1.89642 0
M  V30 1558 C 157.255 2.46996 -1.92255 0
M  V30 1559 C 157.73 3.46309 -2.99724 0
M  V30 1560 N 159.221 3.53853 -2.98902 0
M  V30 1561 C 159.956 4.3055 -3.787 0
M  V30 1562 N 159.452 5.10482 -4.6838 0
M  V30 1563 N 161.245 4.25757 -3.66998 0
M  V30 1564 H 153.396 0.764867 -1.9815 0
M  V30 1565 H 155.659 0.398966 -0.859959 0
M  V30 1566 H 155.365 1.99565 -2.89597 0
M  V30 1567 H 155.239 3.33274 -1.76659 0
M  V30 1568 H 157.626 2.80081 -0.929445 0
M  V30 1569 H 157.707 1.47039 -2.09316 0
M  V30 1570 H 157.351 3.13957 -3.99241 0
M  V30 1571 H 157.281 4.46049 -2.79907 0
M  V30 1572 H 159.772 2.96812 -2.33904 0
M  V30 1573 H 160.085 5.66284 -5.25873 0
M  V30 1574 H 158.43 5.09747 -4.72422 0
M  V30 1575 H 161.621 3.62383 -2.96304 0
M  V30 1576 H 161.794 4.85279 -4.29427 0
M  V30 1577 N 155.201 0.870884 1.31352 0
M  V30 1578 C 156.164 0.332243 2.26779 0
M  V30 1579 C 157.164 -0.517302 1.52252 0
M  V30 1580 O 158.354 -0.326477 1.71113 0
M  V30 1581 C 155.486 -0.528066 3.36785 0
M  V30 1582 H 156.679 1.17469 2.75937 0
M  V30 1583 H 154.232 0.64655 1.423 0
M  V30 1584 H 154.967 -1.39167 2.92922 0
M  V30 1585 H 154.752 0.0802582 3.92018 0
M  V30 1586 H 156.242 -0.897179 4.07849 0
M  V30 1587 N 156.679 -1.44442 0.630414 0
M  V30 1588 C 157.609 -2.33418 -0.0618083 0
M  V30 1589 C 158.59 -1.48165 -0.835541 0
M  V30 1590 O 159.775 -1.76886 -0.801564 0
M  V30 1591 C 156.905 -3.31222 -1.04449 0
M  V30 1592 C 155.859 -4.26288 -0.382436 0
M  V30 1593 C 155.185 -5.13954 -1.47497 0
M  V30 1594 C 156.485 -5.1744 0.710865 0
M  V30 1595 H 158.179 -2.91548 0.681184 0
M  V30 1596 H 155.725 -1.40191 0.329026 0
M  V30 1597 H 157.678 -3.92351 -1.53748 0
M  V30 1598 H 156.402 -2.71299 -1.81836 0
M  V30 1599 H 155.061 -3.6649 0.0899054 0
M  V30 1600 H 154.709 -4.50385 -2.2397 0
M  V30 1601 H 154.409 -5.7837 -1.03737 0
M  V30 1602 H 155.933 -5.77955 -1.96979 0
M  V30 1603 H 157.347 -5.72509 0.300996 0
M  V30 1604 H 155.744 -5.90455 1.07156 0
M  V30 1605 H 156.814 -4.58496 1.57829 0
M  V30 1606 N 158.157 -0.370918 -1.53173 0
M  V30 1607 C 159.067 0.480823 -2.2962 0
M  V30 1608 C 160.083 1.08789 -1.35798 0
M  V30 1609 O 161.259 1.09768 -1.68858 0
M  V30 1610 C 158.324 1.60227 -3.07454 0
M  V30 1611 C 157.385 1.0222 -4.16953 0
M  V30 1612 C 156.618 2.0902 -4.91066 0
M  V30 1613 O 156.841 3.30222 -4.65091 0
M  V30 1614 O 155.775 1.71778 -5.76867 0
M  V30 1615 H 159.601 -0.141421 -3.03371 0
M  V30 1616 H 157.186 -0.135146 -1.48787 0
M  V30 1617 H 159.068 2.25417 -3.56041 0
M  V30 1618 H 157.743 2.20982 -2.36535 0
M  V30 1619 H 156.65 0.334064 -3.72605 0
M  V30 1620 H 157.983 0.459131 -4.90054 0
M  V30 1621 N 159.635 1.57281 -0.100228 0
M  V30 1622 C 160.883 1.94153 0.561157 0
M  V30 1623 C 161.204 0.983157 1.68401 0
M  V30 1624 O 160.474 0.0361132 1.95867 0
M  V30 1625 H 159.054 0.716791 0.210283 0
M  V30 1626 H 161.716 1.94202 -0.164765 0
M  V30 1627 H 160.812 2.96709 0.968008 0
M  V30 1628 N 161.113 -0.173488 1.56642 0
M  V30 1629 C 162.341 -0.906095 1.86004 0
M  V30 1630 C 162.756 -1.75921 0.685355 0
M  V30 1631 O 162.113 -1.79198 -0.345578 0
M  V30 1632 C 162.164 -1.78462 3.14378 0
M  V30 1633 O 161.885 -0.965914 4.27319 0
M  V30 1634 C 163.386 -2.62707 3.57071 0
M  V30 1635 H 160.606 -0.263341 0.617165 0
M  V30 1636 H 163.15 -0.174236 2.03756 0
M  V30 1637 H 161.305 -2.46984 2.98459 0
M  V30 1638 H 161.719 -1.56655 5.00559 0
M  V30 1639 H 163.193 -3.19969 4.49804 0
M  V30 1640 H 163.67 -3.37472 2.81086 0
M  V30 1641 H 164.276 -1.99521 3.75595 0
M  V30 1642 N 162.591 -1.51276 -0.441967 0
M  V30 1643 C 163.521 -1.752 -1.54361 0
M  V30 1644 C 164.502 -0.601682 -1.59103 0
M  V30 1645 O 165.687 -0.843913 -1.74905 0
M  V30 1646 C 162.817 -1.87282 -2.92477 0
M  V30 1647 C 161.771 -3.02687 -3.02596 0
M  V30 1648 C 161.097 -2.99947 -4.42647 0
M  V30 1649 C 162.397 -4.4273 -2.77106 0
M  V30 1650 H 164.091 -2.67442 -1.34592 0
M  V30 1651 H 161.637 -1.28694 -0.646048 0
M  V30 1652 H 163.59 -2.02602 -3.695 0
M  V30 1653 H 162.314 -0.916844 -3.13467 0
M  V30 1654 H 160.973 -2.87065 -2.28012 0
M  V30 1655 H 160.621 -2.02136 -4.60597 0
M  V30 1656 H 160.321 -3.77439 -4.50348 0
M  V30 1657 H 161.845 -3.17354 -5.2165 0
M  V30 1658 H 163.259 -4.58727 -3.43864 0
M  V30 1659 H 161.656 -5.21893 -2.96222 0
M  V30 1660 H 162.726 -4.53087 -1.72744 0
M  V30 1661 N 164.069 0.697108 -1.41344 0
M  V30 1662 C 165.294 1.49096 -1.44171 0
M  V30 1663 C 165.719 1.88038 -0.0481568 0
M  V30 1664 O 165.077 1.54525 0.948243 0
M  V30 1665 C 165.125 2.73088 -2.3549 0
M  V30 1666 O 164.229 3.70514 -1.81088 0
M  V30 1667 H 163.57 0.448801 -0.489361 0
M  V30 1668 H 166.1 0.856992 -1.85787 0
M  V30 1669 H 166.11 3.21413 -2.51312 0
M  V30 1670 H 164.785 2.44081 -3.36745 0
M  V30 1671 H 163.362 3.29441 -1.74708 0
M  V30 1672 N 165.547 1.27147 0.931209 0
M  V30 1673 C 166.457 1.11372 2.06478 0
M  V30 1674 C 167.473 0.044645 1.73943 0
M  V30 1675 O 168.649 0.250417 1.99837 0
M  V30 1676 C 165.714 0.758838 3.38294 0
M  V30 1677 C 164.775 1.90841 3.84549 0
M  V30 1678 C 164.008 1.57036 5.10074 0
M  V30 1679 O 164.231 0.476645 5.68405 0
M  V30 1680 O 163.165 2.40839 5.51616 0
M  V30 1681 H 166.991 2.06493 2.22698 0
M  V30 1682 H 164.576 1.06301 1.04978 0
M  V30 1683 H 166.458 0.574098 4.17471 0
M  V30 1684 H 165.133 -0.162879 3.2329 0
M  V30 1685 H 164.04 2.14819 3.06274 0
M  V30 1686 H 165.373 2.81021 4.04089 0
M  V30 1687 N 167.025 -1.13721 1.09112 0
M  V30 1688 C 167.955 -2.21148 0.749385 0
M  V30 1689 C 168.936 -1.6792 -0.271475 0
M  V30 1690 O 170.121 -1.93693 -0.140251 0
M  V30 1691 C 167.251 -3.46905 0.165659 0
M  V30 1692 C 166.205 -4.13203 1.11567 0
M  V30 1693 C 165.531 -5.33248 0.393809 0
M  V30 1694 C 166.831 -4.60912 2.45678 0
M  V30 1695 H 168.525 -2.4999 1.64758 0
M  V30 1696 H 166.071 -1.20156 0.793626 0
M  V30 1697 H 168.024 -4.21313 -0.085466 0
M  V30 1698 H 166.748 -3.17449 -0.767714 0
M  V30 1699 H 165.407 -3.40758 1.35202 0
M  V30 1700 H 165.055 -5.00054 -0.543599 0
M  V30 1701 H 164.755 -5.78552 1.02721 0
M  V30 1702 H 166.279 -6.10413 0.150908 0
M  V30 1703 H 167.693 -5.26759 2.26269 0
M  V30 1704 H 166.09 -5.16944 3.04776 0
M  V30 1705 H 167.16 -3.75603 3.06677 0
M  V30 1706 N 168.503 -0.877838 -1.30888 0
M  V30 1707 C 169.466 -0.344265 -2.266 0
M  V30 1708 C 170.466 0.50922 -1.52524 0
M  V30 1709 O 171.656 0.317398 -1.71284 0
M  V30 1710 C 168.788 0.510198 -3.37061 0
M  V30 1711 H 169.981 -1.1893 -2.7531 0
M  V30 1712 H 167.534 -0.654088 -1.41956 0
M  V30 1713 H 168.269 1.37612 -2.93655 0
M  V30 1714 H 168.054 -0.101047 -3.9197 0
M  V30 1715 H 169.544 0.875537 -4.08319 0
M  V30 1716 N 169.982 1.44106 -0.638065 0
M  V30 1717 C 170.945 2.29138 0.0531013 0
M  V30 1718 C 171.945 1.41409 0.765506 0
M  V30 1719 O 173.135 1.63206 0.609046 0
M  V30 1720 C 170.267 3.23144 1.08584 0
M  V30 1721 H 171.46 2.91739 -0.694883 0
M  V30 1722 H 169.013 1.51134 -0.398538 0
M  V30 1723 H 169.748 2.65408 1.86357 0
M  V30 1724 H 169.533 3.87804 0.578852 0
M  V30 1725 H 171.023 3.87004 1.56899 0
M  V30 1726 N 171.46 0.379036 1.52974 0
M  V30 1727 C 172.37 -0.468639 2.29872 0
M  V30 1728 C 173.386 -1.08067 1.36373 0
M  V30 1729 O 174.562 -1.08871 1.69438 0
M  V30 1730 C 171.627 -1.58594 3.083 0
M  V30 1731 C 170.688 -1.00007 4.17489 0
M  V30 1732 C 169.921 -2.06413 4.92168 0
M  V30 1733 O 170.144 -3.27751 4.66835 0
M  V30 1734 O 169.078 -1.68717 5.7777 0
M  V30 1735 H 172.904 0.157508 3.03291 0
M  V30 1736 H 170.489 0.143035 1.48714 0
M  V30 1737 H 172.371 -2.23525 3.57232 0
M  V30 1738 H 171.046 -2.19724 2.37703 0
M  V30 1739 H 169.953 -0.314299 3.72777 0
M  V30 1740 H 171.286 -0.433135 4.90291 0
M  V30 1741 N 172.938 -1.57226 0.108567 0
M  V30 1742 C 174.166 -1.99179 -0.559954 0
M  V30 1743 C 174.581 -0.988022 -1.60884 0
M  V30 1744 O 173.938 0.0205512 -1.82488 0
M  V30 1745 C 173.989 -3.41159 -1.19552 0
M  V30 1746 O 173.71 -4.37694 -0.188577 0
M  V30 1747 C 175.211 -3.98188 -1.94837 0
M  V30 1748 H 172.431 -0.654228 -0.149088 0
M  V30 1749 H 174.975 -2.03598 0.19183 0
M  V30 1750 H 173.13 -3.37711 -1.89815 0
M  V30 1751 H 173.544 -5.20469 -0.649014 0
M  V30 1752 H 175.018 -4.99644 -2.34648 0
M  V30 1753 H 175.495 -3.3675 -2.81951 0
M  V30 1754 H 176.101 -4.0515 -1.2936 0
M  V30 1755 N 174.416 0.165178 -1.56732 0
M  V30 1756 C 175.693 0.908443 -1.73224 0
M  V30 1757 C 176.073 2.0013 -0.67165 0
M  V30 1758 O 175.421 2.26353 0.31253 0
M  V30 1759 C 175.631 1.46756 -3.16644 0
M  V30 1760 C 176.979 1.93809 -3.77787 0
M  V30 1761 O 178.003 1.56537 -3.1996 0
M  V30 1762 O 176.862 2.62486 -4.79336 0
M  V30 1763 H 173.956 0.428025 -0.707618 0
M  V30 1764 H 176.502 0.152526 -1.69013 0
M  V30 1765 H 175.274 0.68129 -3.85323 0
M  V30 1766 H 174.897 2.28749 -3.25207 0
M  V30 1767 N 175.894 1.51508 0.433938 0
M  V30 1768 C 176.824 1.76016 1.53429 0
M  V30 1769 C 177.805 0.610112 1.58782 0
M  V30 1770 O 178.99 0.853177 1.74455 0
M  V30 1771 C 176.12 1.88831 2.9148 0
M  V30 1772 C 175.074 3.04288 3.00987 0
M  V30 1773 C 174.4 3.0229 4.4105 0
M  V30 1774 C 175.7 4.44193 2.74754 0
M  V30 1775 H 177.394 2.68152 1.33171 0
M  V30 1776 H 174.94 1.29035 0.639214 0
M  V30 1777 H 176.893 2.04559 3.6842 0
M  V30 1778 H 175.617 0.933455 3.12976 0
M  V30 1779 H 174.276 2.8827 2.26486 0
M  V30 1780 H 173.924 2.04576 4.59519 0
M  V30 1781 H 173.624 3.79822 4.4834 0
M  V30 1782 H 175.148 3.20116 5.1996 0
M  V30 1783 H 176.562 4.60544 3.41426 0
M  V30 1784 H 174.959 5.23457 2.9345 0
M  V30 1785 H 176.029 4.53996 1.70339 0
M  V30 1786 N 177.372 -0.689602 1.41712 0
M  V30 1787 C 178.783 -1.26973 1.36875 0
M  V30 1788 C 179.134 -1.96124 0.054748 0
M  V30 1789 O 178.259 -1.99141 -0.84687 0
M  V30 1790 C 178.854 -2.30912 2.47922 0
M  V30 1791 C 177.413 -2.84486 2.46464 0
M  V30 1792 C 176.56 -1.58603 2.27465 0
M  V30 1793 H 179.511 -0.48396 1.51141 0
M  V30 1794 H 179.532 -3.12331 2.17323 0
M  V30 1795 H 179.044 -1.80554 3.43543 0
M  V30 1796 H 177.145 -3.39005 1.54617 0
M  V30 1797 H 177.258 -3.34511 3.42986 0
M  V30 1798 H 175.622 -1.84632 1.75451 0
M  V30 1799 H 176.405 -1.10233 3.25121 0
M  V30 1800 N 178.85 -1.27639 -0.924453 0
M  V30 1801 C 180.096 -1.14336 -1.67497 0
M  V30 1802 C 180.429 0.309465 -1.91718 0
M  V30 1803 O 179.704 1.22608 -1.50989 0
M  V30 1804 C 179.987 -1.93096 -3.0395 0
M  V30 1805 C 179.84 -3.46381 -2.8695 0
M  V30 1806 C 181.159 -1.73798 -4.0433 0
M  V30 1807 H 178.278 -0.416728 -0.607871 0
M  V30 1808 H 180.92 -1.56832 -1.07256 0
M  V30 1809 H 179.07 -1.56982 -3.55372 0
M  V30 1810 H 180.742 -3.92343 -2.42621 0
M  V30 1811 H 178.985 -3.72557 -2.22225 0
M  V30 1812 H 179.656 -3.96735 -3.83804 0
M  V30 1813 H 182.132 -2.05293 -3.61931 0
M  V30 1814 H 181.008 -2.31294 -4.97789 0
M  V30 1815 H 181.269 -0.686725 -4.36734 0
M  V30 1816 N 180.328 1.1314 -1.09713 0
M  V30 1817 C 181.574 1.84757 -0.836224 0
M  V30 1818 C 181.907 1.8347 0.636598 0
M  V30 1819 O 181.182 1.27491 1.46889 0
M  V30 1820 C 181.465 3.32782 -1.37578 0
M  V30 1821 C 181.318 3.42567 -2.91493 0
M  V30 1822 C 182.637 4.28307 -1.01198 0
M  V30 1823 H 179.756 0.67082 -0.305236 0
M  V30 1824 H 182.398 1.3278 -1.35903 0
M  V30 1825 H 180.548 3.77177 -0.931097 0
M  V30 1826 H 182.22 3.06862 -3.44432 0
M  V30 1827 H 180.463 2.83349 -3.28475 0
M  V30 1828 H 181.134 4.46674 -3.24324 0
M  V30 1829 H 183.61 3.91999 -1.39556 0
M  V30 1830 H 182.486 5.30307 -1.41653 0
M  V30 1831 H 182.747 4.42029 0.0794833 0
M  V30 1832 N 181.806 0.884767 1.30421 0
M  V30 1833 C 183.053 0.503105 1.96151 0
M  V30 1834 C 183.381 -0.947676 1.69851 0
M  V30 1835 O 182.636 -1.68467 0.995861 0
M  V30 1836 C 182.935 0.724318 3.49983 0
M  V30 1837 C 182.601 2.15015 3.96332 0
M  V30 1838 C 181.263 2.54005 4.08699 0
M  V30 1839 C 183.615 3.07936 4.20505 0
M  V30 1840 C 180.943 3.85128 4.42599 0
M  V30 1841 C 183.295 4.3859 4.55874 0
M  V30 1842 C 181.959 4.77474 4.66449 0
M  V30 1843 H 181.229 0.184099 0.717766 0
M  V30 1844 H 183.876 1.12058 1.55291 0
M  V30 1845 H 182.181 0.0238086 3.91793 0
M  V30 1846 H 183.878 0.408617 3.98913 0
M  V30 1847 H 180.468 1.8375 3.87213 0
M  V30 1848 H 184.652 2.79033 4.10431 0
M  V30 1849 H 179.908 4.14996 4.48986 0
M  V30 1850 H 184.082 5.10629 4.7353 0
M  V30 1851 H 181.709 5.79115 4.92473 0
M  V30 1852 N 183.284 -1.43765 0.645699 0
M  V30 1853 C 184.53 -2.02197 0.156271 0
M  V30 1854 C 184.863 -1.50776 -1.22393 0
M  V30 1855 O 184.138 -0.697771 -1.81553 0
M  V30 1856 C 184.421 -3.59749 0.158872 0
M  V30 1857 C 184.274 -4.21419 1.57245 0
M  V30 1858 C 185.593 -4.37149 -0.50879 0
M  V30 1859 H 182.712 -0.734694 0.0582602 0
M  V30 1860 H 185.354 -1.71157 0.824951 0
M  V30 1861 H 183.504 -3.86325 -0.410525 0
M  V30 1862 H 185.176 -4.059 2.19186 0
M  V30 1863 H 183.419 -3.78356 2.122 0
M  V30 1864 H 184.09 -5.30482 1.52619 0
M  V30 1865 H 186.566 -4.16093 -0.024412 0
M  V30 1866 H 185.442 -5.4683 -0.476213 0
M  V30 1867 H 185.703 -4.12839 -1.58165 0
M  V30 1868 N 184.763 -0.387143 -1.52771 0
M  V30 1869 C 185.71 0.449048 -2.26389 0
M  V30 1870 C 186.68 1.05961 -1.27912 0
M  V30 1871 O 187.865 1.08804 -1.56737 0
M  V30 1872 C 185.005 1.57155 -3.0724 0
M  V30 1873 C 184.118 0.984066 -4.20643 0
M  V30 1874 C 183.253 2.07745 -4.88892 0
M  V30 1875 C 182.292 1.46574 -5.94292 0
M  V30 1876 N 181.429 2.49834 -6.56146 0
M  V30 1877 H 186.269 -0.185205 -2.97424 0
M  V30 1878 H 183.806 -0.103164 -1.46738 0
M  V30 1879 H 185.764 2.23309 -3.52405 0
M  V30 1880 H 184.394 2.17615 -2.38419 0
M  V30 1881 H 183.446 0.212193 -3.79808 0
M  V30 1882 H 184.758 0.497029 -4.96318 0
M  V30 1883 H 183.912 2.81673 -5.3735 0
M  V30 1884 H 182.651 2.59807 -4.12737 0
M  V30 1885 H 181.656 0.711696 -5.45174 0
M  V30 1886 H 182.881 0.953088 -6.72379 0
M  V30 1887 H 180.827 3.0107 -5.82832 0
M  V30 1888 H 180.744 2.05879 -7.27427 0
M  V30 1889 H 182.012 3.23399 -7.09249 0
M  V30 1890 N 186.241 1.57166 -0.116904 0
M  V30 1891 C 187.173 2.12271 0.864507 0
M  V30 1892 C 188.186 1.06494 1.23138 0
M  V30 1893 O 189.375 1.33873 1.18069 0
M  V30 1894 C 186.475 2.60564 2.16702 0
M  V30 1895 C 185.648 3.90416 1.97216 0
M  V30 1896 C 184.707 4.24329 3.11178 0
M  V30 1897 O 183.733 4.93182 2.84184 0
M  V30 1898 N 184.935 3.8148 4.37554 0
M  V30 1899 H 187.7 2.97102 0.393726 0
M  V30 1900 H 185.261 1.61759 0.0675805 0
M  V30 1901 H 187.253 2.80282 2.91932 0
M  V30 1902 H 185.823 1.80623 2.55135 0
M  V30 1903 H 185.043 3.79627 1.06192 0
M  V30 1904 H 186.331 4.75327 1.81499 0
M  V30 1905 H 185.729 3.25943 4.62361 0
M  V30 1906 H 184.286 4.06311 5.09661 0
M  V30 1907 N 187.719 -0.156864 1.56817 0
M  V30 1908 C 189.135 -0.50916 1.5126 0
M  V30 1909 C 189.335 -1.83897 0.823658 0
M  V30 1910 O 188.391 -2.49469 0.390055 0
M  V30 1911 C 189.704 -0.52857 2.96018 0
M  V30 1912 C 191.252 -0.614771 3.06903 0
M  V30 1913 C 191.727 -0.664938 4.53147 0
M  V30 1914 N 193.218 -0.727433 4.57452 0
M  V30 1915 C 193.953 -0.787067 5.67973 0
M  V30 1916 N 193.449 -0.806649 6.88088 0
M  V30 1917 N 195.242 -0.827195 5.5598 0
M  V30 1918 H 187.393 0.714935 2.00006 0
M  V30 1919 H 189.656 0.259526 0.911784 0
M  V30 1920 H 189.362 0.380154 3.49639 0
M  V30 1921 H 189.236 -1.36998 3.51442 0
M  V30 1922 H 191.623 -1.51392 2.53307 0
M  V30 1923 H 191.704 0.253597 2.5454 0
M  V30 1924 H 191.348 0.230011 5.07379 0
M  V30 1925 H 191.278 -1.54966 5.03282 0
M  V30 1926 H 193.769 -0.719998 3.70978 0
M  V30 1927 H 194.082 -0.853727 7.6807 0
M  V30 1928 H 192.427 -0.774687 6.90669 0
M  V30 1929 H 195.618 -0.808998 4.61056 0
M  V30 1930 H 195.791 -0.870206 6.4213 0
M  V30 1931 N 189.197 -1.51736 -0.425897 0
M  V30 1932 C 190.144 -1.73875 -1.51776 0
M  V30 1933 C 191.114 -0.580702 -1.55618 0
M  V30 1934 O 192.299 -0.81641 -1.72451 0
M  V30 1935 C 189.439 -1.88012 -2.89388 0
M  V30 1936 C 188.552 -3.15606 -2.94986 0
M  V30 1937 C 187.687 -3.20271 -4.23793 0
M  V30 1938 C 186.726 -4.42134 -4.23302 0
M  V30 1939 N 185.863 -4.44284 -5.43651 0
M  V30 1940 H 190.703 -2.67071 -1.32201 0
M  V30 1941 H 188.24 -1.32351 -0.642008 0
M  V30 1942 H 190.198 -1.9419 -3.69251 0
M  V30 1943 H 188.828 -0.98213 -3.07496 0
M  V30 1944 H 187.88 -3.18681 -2.07717 0
M  V30 1945 H 189.192 -4.05486 -2.90486 0
M  V30 1946 H 188.346 -3.25428 -5.12036 0
M  V30 1947 H 187.085 -2.28299 -4.30965 0
M  V30 1948 H 186.09 -4.3714 -3.3345 0
M  V30 1949 H 187.315 -5.35382 -4.17783 0
M  V30 1950 H 185.261 -3.55188 -5.51523 0
M  V30 1951 H 185.178 -5.27988 -5.41078 0
M  V30 1952 H 186.446 -4.53649 -6.33895 0
M  V30 1953 N 190.675 0.682077 -1.42076 0
M  V30 1954 C 191.924 1.43786 -1.41451 0
M  V30 1955 C 192.237 1.95574 -0.0317074 0
M  V30 1956 O 193.443 2.71326 0.0971462 0
M  V30 1957 C 191.899 2.60071 -2.48779 0
M  V30 1958 C 191.507 2.15013 -3.93031 0
M  V30 1959 C 193.251 3.37626 -2.57311 0
M  V30 1960 C 191.158 3.28336 -4.91883 0
M  V30 1961 H 190.088 0.540143 -0.526082 0
M  V30 1962 H 192.739 0.739157 -1.67955 0
M  V30 1963 H 191.121 3.32275 -2.15429 0
M  V30 1964 H 192.295 1.5001 -4.35699 0
M  V30 1965 H 190.61 1.50416 -3.88284 0
M  V30 1966 H 193.207 4.22012 -3.28345 0
M  V30 1967 H 193.55 3.83727 -1.61429 0
M  V30 1968 H 194.083 2.72488 -2.89819 0
M  V30 1969 H 190.822 2.87234 -5.89217 0
M  V30 1970 H 190.342 3.92145 -4.53853 0
M  V30 1971 H 192.021 3.93913 -5.13265 0
M  V30 1972 N 192.153 1.28127 0.917671 0
M  V30 1973 C 193.401 1.14825 1.66312 0
M  V30 1974 C 193.722 -0.304379 1.9261 0
M  V30 1975 O 192.992 -1.21149 1.53947 0
M  V30 1976 H 191.572 0.421953 0.616413 0
M  V30 1977 H 194.234 1.608 1.10134 0
M  V30 1978 H 193.33 1.68489 2.62712 0
M  V30 1979 N 193.631 -1.12557 1.10312 0
M  V30 1980 C 194.879 -1.83675 0.843091 0
M  V30 1981 C 195.2 -1.84435 -0.633131 0
M  V30 1982 O 194.47 -1.30657 -1.45964 0
M  V30 1983 H 193.05 -0.680138 0.308904 0
M  V30 1984 H 195.712 -1.36301 1.39313 0
M  V30 1985 H 194.808 -2.87908 1.2048 0
M  V30 1986 N 195.109 -0.891671 -1.2995 0
M  V30 1987 C 196.059 -0.334811 -2.25528 0
M  V30 1988 C 197.043 0.540553 -1.51548 0
M  V30 1989 O 198.235 0.383882 -1.72787 0
M  V30 1990 C 195.364 0.44374 -3.4042 0
M  V30 1991 C 194.45 -0.44609 -4.21747 0
M  V30 1992 N 194.841 -1.54963 -4.81477 0
M  V30 1993 C 193.139 -0.242415 -4.45341 0
M  V30 1994 C 193.84 -2.10015 -5.42465 0
M  V30 1995 N 192.816 -1.39423 -5.25416 0
M  V30 1996 H 196.618 -1.17792 -2.69262 0
M  V30 1997 H 194.132 -0.741822 -1.44467 0
M  V30 1998 H 196.129 0.859362 -4.07947 0
M  V30 1999 H 194.789 1.28421 -2.98225 0
M  V30 2000 H 195.8 -1.93244 -4.80497 0
M  V30 2001 H 192.477 0.560342 -4.13723 0
M  V30 2002 H 193.867 -3.02724 -5.9984 0
M  V30 2003 N 196.587 1.43421 -0.653314 0
M  V30 2004 C 197.835 2.01414 -0.166415 0
M  V30 2005 C 198.156 1.51803 1.22397 0
M  V30 2006 O 197.426 0.730693 1.81763 0
M  V30 2007 H 196.006 0.744703 -0.0585319 0
M  V30 2008 H 198.668 1.75629 -0.845003 0
M  V30 2009 H 197.764 3.11734 -0.151111 0
M  V30 2010 N 198.065 0.39524 1.52563 0
M  V30 2011 C 199.476 -0.0774719 1.86539 0
M  V30 2012 C 199.827 -1.45641 1.31466 0
M  V30 2013 O 198.952 -2.06459 0.648367 0
M  V30 2014 C 199.547 -0.147356 3.38479 0
M  V30 2015 C 198.106 -0.564373 3.72145 0
M  V30 2016 C 197.253 0.269919 2.75983 0
M  V30 2017 H 200.204 0.612876 1.46388 0
M  V30 2018 H 200.225 -0.965343 3.68051 0
M  V30 2019 H 199.737 0.856387 3.78534 0
M  V30 2020 H 197.838 -1.57527 3.37663 0
M  V30 2021 H 197.951 -0.318402 4.78041 0
M  V30 2022 H 196.315 -0.265696 2.5331 0
M  V30 2023 H 197.098 1.27175 3.18875 0
M  V30 2024 N 199.544 -1.57102 0.125237 0
M  V30 2025 C 200.772 -1.99761 -0.538797 0
M  V30 2026 C 201.187 -1.00503 -1.59827 0
M  V30 2027 O 200.544 0.00119474 -1.825 0
M  V30 2028 C 200.595 -3.42408 -1.15927 0
M  V30 2029 O 200.316 -4.37869 -0.142143 0
M  V30 2030 C 201.817 -4.00232 -1.90602 0
M  V30 2031 H 199.037 -0.655772 -0.14214 0
M  V30 2032 H 201.581 -2.03383 0.213413 0
M  V30 2033 H 199.736 -3.39706 -1.86223 0
M  V30 2034 H 200.15 -5.21128 -0.593775 0
M  V30 2035 H 201.624 -5.02105 -2.29335 0
M  V30 2036 H 202.101 -3.39721 -2.78363 0
M  V30 2037 H 202.707 -4.06499 -1.25055 0
M  V30 2038 N 201.022 0.148545 -1.56898 0
M  V30 2039 C 201.952 1.18524 -2.01182 0
M  V30 2040 C 202.933 1.4489 -0.891123 0
M  V30 2041 O 204.118 1.55836 -1.15882 0
M  V30 2042 C 201.248 2.51879 -2.39112 0
M  V30 2043 C 200.202 2.40038 -3.54353 0
M  V30 2044 C 199.528 3.78089 -3.78091 0
M  V30 2045 C 200.828 1.88577 -4.87069 0
M  V30 2046 H 202.522 0.817029 -2.88036 0
M  V30 2047 H 200.068 0.391575 -1.38574 0
M  V30 2048 H 202.021 3.24627 -2.68692 0
M  V30 2049 H 200.745 2.90532 -1.49193 0
M  V30 2050 H 199.404 1.69742 -3.24936 0
M  V30 2051 H 199.052 4.14175 -2.85426 0
M  V30 2052 H 198.752 3.71028 -4.55645 0
M  V30 2053 H 200.276 4.52387 -4.10095 0
M  V30 2054 H 201.69 2.51117 -5.15377 0
M  V30 2055 H 200.087 1.9241 -5.68417 0
M  V30 2056 H 201.157 0.84136 -4.77545 0
M  V30 2057 N 202.5 1.5196 0.417844 0
M  V30 2058 C 203.447 1.74678 1.50852 0
M  V30 2059 C 204.417 0.588947 1.55308 0
M  V30 2060 O 205.602 0.825544 1.72016 0
M  V30 2061 C 202.742 1.89544 2.88387 0
M  V30 2062 C 201.855 3.17166 2.93309 0
M  V30 2063 C 200.99 3.22513 4.22088 0
M  V30 2064 C 200.029 4.44372 4.20951 0
M  V30 2065 N 199.166 4.47161 5.41287 0
M  V30 2066 H 204.006 2.67768 1.30783 0
M  V30 2067 H 201.543 1.32689 0.63498 0
M  V30 2068 H 203.501 1.96146 3.68216 0
M  V30 2069 H 202.131 0.998424 3.06971 0
M  V30 2070 H 201.183 3.19778 2.06024 0
M  V30 2071 H 202.495 4.07021 2.88332 0
M  V30 2072 H 201.649 3.28139 5.10303 0
M  V30 2073 H 200.388 2.30581 4.29748 0
M  V30 2074 H 199.393 4.38902 3.31127 0
M  V30 2075 H 200.618 5.3759 4.14938 0
M  V30 2076 H 198.564 3.58108 5.49632 0
M  V30 2077 H 198.481 5.3085 5.3827 0
M  V30 2078 H 199.749 4.57005 6.3148 0
M  V30 2079 N 203.978 -0.674533 1.42435 0
M  V30 2080 C 204.941 -1.76986 1.45632 0
M  V30 2081 C 205.941 -1.5708 0.343871 0
M  V30 2082 O 207.131 -1.63367 0.604709 0
M  V30 2083 C 204.263 -3.15623 1.28822 0
M  V30 2084 H 205.456 -1.75539 2.43158 0
M  V30 2085 H 203.009 -0.884189 1.28887 0
M  V30 2086 H 203.744 -3.22696 0.322193 0
M  V30 2087 H 203.529 -3.31475 2.09444 0
M  V30 2088 H 205.019 -3.95537 1.33942 0
M  V30 2089 N 205.456 -1.28612 -0.910864 0
M  V30 2090 C 206.686 -1.1862 -1.69153 0
M  V30 2091 C 207.094 0.257324 -1.87442 0
M  V30 2092 O 206.437 1.18543 -1.40332 0
M  V30 2093 C 206.499 -1.81606 -3.10257 0
M  V30 2094 C 206.163 -3.30864 -3.15243 0
M  V30 2095 C 207.16 -4.27256 -2.96223 0
M  V30 2096 C 204.845 -3.71871 -3.37664 0
M  V30 2097 C 206.839 -5.62631 -2.99541 0
M  V30 2098 C 204.526 -5.07371 -3.40614 0
M  V30 2099 C 205.524 -6.02561 -3.21573 0
M  V30 2100 O 205.212 -7.35589 -3.2429 0
M  V30 2101 H 204.944 -0.412633 -0.535453 0
M  V30 2102 H 207.498 -1.70306 -1.14827 0
M  V30 2103 H 205.728 -1.24418 -3.66138 0
M  V30 2104 H 207.417 -1.66092 -3.70362 0
M  V30 2105 H 208.183 -3.9691 -2.78725 0
M  V30 2106 H 204.062 -2.98241 -3.5153 0
M  V30 2107 H 207.606 -6.36907 -2.84597 0
M  V30 2108 H 203.503 -5.37366 -3.57642 0
M  V30 2109 H 204.271 -7.44252 -3.40633 0
M  V30 2110 N 206.934 1.1197 -1.10907 0
M  V30 2111 C 207.866 2.17592 -0.720175 0
M  V30 2112 C 208.879 1.60938 0.245495 0
M  V30 2113 O 210.068 1.78476 0.0292245 0
M  V30 2114 C 207.168 3.38873 -0.0427917 0
M  V30 2115 C 206.341 4.25006 -1.03388 0
M  V30 2116 C 205.4 5.24774 -0.387075 0
M  V30 2117 O 204.426 5.59631 -1.03934 0
M  V30 2118 N 205.628 5.74208 0.852407 0
M  V30 2119 H 208.393 2.51567 -1.62893 0
M  V30 2120 H 205.954 1.27439 -0.998543 0
M  V30 2121 H 207.946 4.02703 0.401501 0
M  V30 2122 H 206.516 3.03007 0.768456 0
M  V30 2123 H 205.736 3.57716 -1.65629 0
M  V30 2124 H 207.024 4.79397 -1.70458 0
M  V30 2125 H 206.422 5.48062 1.40161 0
M  V30 2126 H 204.979 6.39901 1.23977 0
M  V30 2127 N 208.412 0.89855 1.29475 0
M  V30 2128 C 209.322 0.379974 2.31502 0
M  V30 2129 C 210.338 -0.524695 1.659 0
M  V30 2130 O 211.514 -0.414551 1.97087 0
M  V30 2131 C 208.579 -0.385138 3.44554 0
M  V30 2132 C 207.64 0.550914 4.2575 0
M  V30 2133 C 206.873 -0.177778 5.33404 0
M  V30 2134 O 207.096 -1.40189 5.52904 0
M  V30 2135 O 206.03 0.479106 5.9999 0
M  V30 2136 H 209.856 1.22639 2.77837 0
M  V30 2137 H 207.441 0.662834 1.33891 0
M  V30 2138 H 209.323 -0.817841 4.13388 0
M  V30 2139 H 207.998 -1.20763 3.0033 0
M  V30 2140 H 206.905 1.03271 3.59564 0
M  V30 2141 H 208.238 1.33979 4.73614 0
M  V30 2142 N 209.89 -1.43072 0.660911 0
M  V30 2143 C 211.138 -2.01323 0.177094 0
M  V30 2144 C 211.459 -1.5245 -1.2159 0
M  V30 2145 O 210.729 -0.740322 -1.81373 0
M  V30 2146 H 209.309 -0.744382 0.0624804 0
M  V30 2147 H 211.971 -1.75179 0.854305 0
M  V30 2148 H 211.067 -3.11649 0.167641 0
M  V30 2149 N 211.368 -0.403325 -1.52352 0
M  V30 2150 C 212.784 -0.0539281 -1.59509 0
M  V30 2151 C 212.984 1.43307 -1.41652 0
M  V30 2152 O 212.04 2.19924 -1.24056 0
M  V30 2153 C 213.353 -0.543654 -2.95745 0
M  V30 2154 C 214.901 -0.501125 -3.08962 0
M  V30 2155 C 215.376 -0.967267 -4.47669 0
M  V30 2156 N 216.867 -0.923849 -4.53893 0
M  V30 2157 C 217.602 -1.25578 -5.5948 0
M  V30 2158 N 217.098 -1.65889 -6.72646 0
M  V30 2159 N 218.891 -1.17613 -5.49658 0
M  V30 2160 H 211.042 -1.37123 -1.62206 0
M  V30 2161 H 213.305 -0.56294 -0.76276 0
M  V30 2162 H 213.011 -1.58275 -3.14073 0
M  V30 2163 H 212.885 0.0498042 -3.77167 0
M  V30 2164 H 215.272 0.528909 -2.90321 0
M  V30 2165 H 215.353 -1.13056 -2.2946 0
M  V30 2166 H 214.997 -1.9956 -4.67053 0
M  V30 2167 H 214.927 -0.314698 -5.25659 0
M  V30 2168 H 217.418 -0.627403 -3.72655 0
M  V30 2169 H 217.731 -1.89543 -7.49195 0
M  V30 2170 H 216.076 -1.69787 -6.73942 0
M  V30 2171 H 219.267 -0.860115 -4.6013 0
M  V30 2172 H 219.44 -1.43812 -6.3184 0
M  V30 2173 N 212.846 1.57033 -0.133567 0
M  V30 2174 C 213.776 2.1909 0.807567 0
M  V30 2175 C 214.757 1.13517 1.26681 0
M  V30 2176 O 215.942 1.41809 1.32679 0
M  V30 2177 C 213.072 2.80188 2.05212 0
M  V30 2178 C 212.026 3.91471 1.73015 0
M  V30 2179 C 211.352 4.39443 3.04622 0
M  V30 2180 C 212.652 5.12886 0.987168 0
M  V30 2181 H 214.346 2.97988 0.290403 0
M  V30 2182 H 211.892 1.43335 0.138239 0
M  V30 2183 H 213.845 3.22264 2.71521 0
M  V30 2184 H 212.569 1.98601 2.59278 0
M  V30 2185 H 211.228 3.49993 1.0909 0
M  V30 2186 H 210.876 3.54695 3.56651 0
M  V30 2187 H 210.576 5.14495 2.83847 0
M  V30 2188 H 212.1 4.8418 3.72024 0
M  V30 2189 H 213.514 5.51891 1.55208 0
M  V30 2190 H 211.911 5.93615 0.87985 0
M  V30 2191 H 212.981 4.84894 -0.0235286 0
M  V30 2192 N 214.325 -0.140222 1.56975 0
M  V30 2193 C 215.257 -1.19818 1.95388 0
M  V30 2194 C 216.27 -1.38816 0.850525 0
M  V30 2195 O 217.459 -1.38267 1.12891 0
M  V30 2196 C 214.559 -2.56189 2.21857 0
M  V30 2197 C 213.732 -2.58077 3.5315 0
M  V30 2198 C 212.791 -3.76037 3.6808 0
M  V30 2199 O 211.817 -3.60598 4.40406 0
M  V30 2200 N 213.019 -4.93763 3.05251 0
M  V30 2201 H 215.784 -0.871609 2.86746 0
M  V30 2202 H 213.345 -0.32972 1.58507 0
M  V30 2203 H 215.337 -3.33623 2.2908 0
M  V30 2204 H 213.907 -2.81111 1.36731 0
M  V30 2205 H 213.127 -1.6651 3.57307 0
M  V30 2206 H 214.415 -2.56377 4.39486 0
M  V30 2207 H 213.813 -5.09209 2.46419 0
M  V30 2208 H 212.37 -5.68949 3.18026 0
M  V30 2209 N 215.803 -1.52179 -0.40978 0
M  V30 2210 C 216.75 -1.75475 -1.49924 0
M  V30 2211 C 217.72 -0.597175 -1.54994 0
M  V30 2212 O 218.905 -0.834655 -1.71575 0
M  V30 2213 C 216.045 -1.9107 -2.87378 0
M  V30 2214 C 215.158 -3.18717 -2.91622 0
M  V30 2215 C 214.293 -3.24747 -4.20372 0
M  V30 2216 C 213.332 -4.46598 -4.18588 0
M  V30 2217 N 212.469 -4.50025 -5.38908 0
M  V30 2218 H 217.309 -2.68458 -1.29361 0
M  V30 2219 H 214.846 -1.33024 -0.627934 0
M  V30 2220 H 216.804 -1.98096 -3.6717 0
M  V30 2221 H 215.434 -1.01469 -3.06437 0
M  V30 2222 H 214.486 -3.20866 -2.04326 0
M  V30 2223 H 215.798 -4.08544 -2.86169 0
M  V30 2224 H 214.952 -3.30841 -5.08556 0
M  V30 2225 H 213.691 -2.32857 -4.28519 0
M  V30 2226 H 212.696 -4.40652 -3.28794 0
M  V30 2227 H 213.921 -5.39783 -4.12081 0
M  V30 2228 H 211.867 -3.61017 -5.47725 0
M  V30 2229 H 211.784 -5.33697 -5.35447 0
M  V30 2230 H 213.052 -4.60347 -6.29048 0
M  V30 2231 N 217.281 0.66697 -1.42791 0
M  V30 2232 C 218.211 1.79218 -1.49677 0
M  V30 2233 C 219.192 1.66405 -0.352623 0
M  V30 2234 O 220.377 1.85708 -0.567993 0
M  V30 2235 C 217.507 3.17565 -1.40605 0
M  V30 2236 C 216.461 3.45124 -2.53127 0
M  V30 2237 C 215.787 4.83127 -2.29112 0
M  V30 2238 C 217.087 3.41236 -3.95418 0
M  V30 2239 H 218.781 1.73713 -2.43853 0
M  V30 2240 H 216.327 0.83432 -1.17367 0
M  V30 2241 H 218.28 3.96022 -1.44029 0
M  V30 2242 H 217.004 3.23767 -0.429271 0
M  V30 2243 H 215.663 2.69031 -2.49034 0
M  V30 2244 H 215.311 4.85988 -1.29709 0
M  V30 2245 H 215.011 5.02528 -3.04531 0
M  V30 2246 H 216.535 5.63859 -2.34297 0
M  V30 2247 H 217.949 4.09651 -4.01073 0
M  V30 2248 H 216.346 3.72173 -4.70752 0
M  V30 2249 H 217.416 2.39665 -4.21532 0
M  V30 2250 N 218.759 1.29093 0.90403 0
M  V30 2251 C 219.689 1.16401 2.02418 0
M  V30 2252 C 220.67 0.0593085 1.69997 0
M  V30 2253 O 221.855 0.238021 1.92736 0
M  V30 2254 C 218.985 0.835233 3.37107 0
M  V30 2255 C 217.939 1.89578 3.83724 0
M  V30 2256 C 217.265 1.42041 5.15489 0
M  V30 2257 C 218.565 3.30394 4.04521 0
M  V30 2258 H 220.259 2.10109 2.13295 0
M  V30 2259 H 217.805 1.01157 1.02486 0
M  V30 2260 H 219.758 0.733169 4.14973 0
M  V30 2261 H 218.482 -0.137543 3.2631 0
M  V30 2262 H 217.141 1.98715 3.08071 0
M  V30 2263 H 216.789 0.436426 5.01103 0
M  V30 2264 H 216.489 2.12964 5.4765 0
M  V30 2265 H 218.013 1.33176 5.959 0
M  V30 2266 H 219.427 3.24123 4.72882 0
M  V30 2267 H 217.824 3.99237 4.48029 0
M  V30 2268 H 218.894 3.73692 3.09002 0
M  V30 2269 N 220.237 -1.11381 1.11499 0
M  V30 2270 C 221.184 -2.17439 0.773887 0
M  V30 2271 C 222.154 -1.64132 -0.254899 0
M  V30 2272 O 223.339 -1.90345 -0.13168 0
M  V30 2273 C 220.479 -3.44373 0.223917 0
M  V30 2274 C 219.592 -4.1168 1.30934 0
M  V30 2275 C 218.727 -5.263 0.71984 0
M  V30 2276 C 217.766 -5.85493 1.78507 0
M  V30 2277 N 216.903 -6.91507 1.21502 0
M  V30 2278 H 221.743 -2.45962 1.68246 0
M  V30 2279 H 219.28 -1.20744 0.840191 0
M  V30 2280 H 221.238 -4.17047 -0.112921 0
M  V30 2281 H 219.868 -3.16232 -0.647851 0
M  V30 2282 H 218.92 -3.37073 1.76312 0
M  V30 2283 H 220.232 -4.51729 2.11524 0
M  V30 2284 H 219.386 -6.05785 0.333094 0
M  V30 2285 H 218.125 -4.87559 -0.117377 0
M  V30 2286 H 217.13 -5.04686 2.18111 0
M  V30 2287 H 218.355 -6.26301 2.62533 0
M  V30 2288 H 216.301 -6.54783 0.399455 0
M  V30 2289 H 216.218 -7.30214 1.95763 0
M  V30 2290 H 217.486 -7.74795 0.855181 0
M  V30 2291 N 221.715 -0.905404 -1.28997 0
M  V30 2292 C 222.648 -0.331959 -2.25773 0
M  V30 2293 C 223.626 0.559099 -1.52685 0
M  V30 2294 O 224.81 0.50463 -1.8162 0
M  V30 2295 C 221.937 0.526276 -3.34586 0
M  V30 2296 C 220.983 -0.298249 -4.25456 0
M  V30 2297 S 221.816 -1.69968 -5.0781 0
M  V30 2298 C 222.972 -0.848519 -6.20122 0
M  V30 2299 H 223.205 -1.15222 -2.74064 0
M  V30 2300 H 220.738 -0.706112 -1.37308 0
M  V30 2301 H 222.696 1.01565 -3.97737 0
M  V30 2302 H 221.357 1.32084 -2.84978 0
M  V30 2303 H 220.55 0.357607 -5.0273 0
M  V30 2304 H 220.152 -0.720968 -3.66985 0
M  V30 2305 H 222.444 -0.0744325 -6.77459 0
M  V30 2306 H 223.387 -1.59353 -6.89937 0
M  V30 2307 H 223.795 -0.400383 -5.63078 0
M  V30 2308 N 223.193 1.4272 -0.668489 0
M  V30 2309 C 224.141 2.32586 0.0254857 0
M  V30 2310 C 225.135 1.49471 0.797176 0
M  V30 2311 O 226.341 1.65583 0.705853 0
M  V30 2312 H 222.716 0.751514 0.0270339 0
M  V30 2313 H 224.687 2.88823 -0.749936 0
M  V30 2314 C 223.436 3.3397 0.967427 0
M  V30 2315 H 222.759 3.97961 0.383048 0
M  V30 2316 H 224.199 3.9945 1.42181 0
M  V30 2317 C 222.658 2.65744 2.0708 0
M  V30 2318 O 223.188 2.48454 3.15648 0
M  V30 2319 N 221.394 2.2487 1.8407 0
M  V30 2320 H 220.941 2.39132 0.95778 0
M  V30 2321 H 220.899 1.79552 2.58086 0
M  V30 2322 N 224.671 0.411399 1.52136 0
M  V30 2323 C 225.919 -0.163322 2.01439 0
M  V30 2324 C 226.24 -1.45453 1.29879 0
M  V30 2325 O 225.51 -1.91225 0.4254 0
M  V30 2326 H 224.09 -0.0633447 0.744309 0
M  V30 2327 H 226.752 0.548161 1.87033 0
M  V30 2328 H 225.848 -0.357817 3.10042 0
M  V30 2329 N 226.149 -1.5696 0.141893 0
M  V30 2330 C 227.56 -1.82797 -0.379776 0
M  V30 2331 C 227.911 -1.06033 -1.6508 0
M  V30 2332 O 227.036 -0.304011 -2.14254 0
M  V30 2333 C 227.631 -3.31578 -0.695802 0
M  V30 2334 C 226.19 -3.58014 -1.16201 0
M  V30 2335 C 225.337 -2.76699 -0.182455 0
M  V30 2336 H 228.288 -1.54406 0.366675 0
M  V30 2337 H 228.309 -3.47454 -1.55099 0
M  V30 2338 H 227.821 -3.87421 0.229449 0
M  V30 2339 H 225.922 -3.07553 -2.10338 0
M  V30 2340 H 226.035 -4.66501 -1.09151 0
M  V30 2341 H 224.399 -2.45618 -0.674072 0
M  V30 2342 H 225.182 -3.35311 0.736297 0
M  V30 2343 N 227.627 0.131896 -1.57047 0
M  V30 2344 C 228.537 1.1815 -2.02676 0
M  V30 2345 C 229.553 1.46113 -0.944824 0
M  V30 2346 O 230.729 1.57485 -1.25541 0
M  V30 2347 C 227.794 2.49139 -2.41103 0
M  V30 2348 C 226.855 2.28688 -3.63318 0
M  V30 2349 C 226.088 3.53431 -3.99903 0
M  V30 2350 O 226.311 4.60223 -3.36973 0
M  V30 2351 O 225.245 3.45198 -4.93074 0
M  V30 2352 H 229.071 0.824069 -2.92306 0
M  V30 2353 H 226.656 0.341745 -1.45439 0
M  V30 2354 H 228.538 3.26338 -2.66611 0
M  V30 2355 H 227.213 2.84382 -1.54624 0
M  V30 2356 H 226.12 1.4939 -3.42977 0
M  V30 2357 H 227.453 1.98355 -4.50462 0
M  V30 2358 N 229.106 1.52395 0.401703 0
M  V30 2359 C 230.383 1.57387 1.16141 0
M  V30 2360 C 230.763 0.359359 2.08019 0
M  V30 2361 O 230.111 -0.65326 2.18963 0
M  V30 2362 C 230.321 2.90631 1.93221 0
M  V30 2363 C 231.669 3.43904 2.49028 0
M  V30 2364 O 232.693 2.92421 2.03393 0
M  V30 2365 O 231.552 4.33823 3.32356 0
M  V30 2366 H 228.646 0.634262 0.530698 0
M  V30 2367 H 231.192 1.64725 0.407883 0
M  V30 2368 H 229.964 3.70473 1.25958 0
M  V30 2369 H 229.587 2.8662 2.75563 0
M  V30 2370 N 230.584 -0.659388 1.43143 0
M  V30 2371 C 231.514 -1.78422 1.50625 0
M  V30 2372 C 232.495 -1.66216 0.361443 0
M  V30 2373 O 233.68 -1.85404 0.577834 0
M  V30 2374 C 230.81 -3.16815 1.42287 0
M  V30 2375 C 229.764 -3.43777 2.54954 0
M  V30 2376 C 229.09 -4.81905 2.31671 0
M  V30 2377 C 230.39 -3.39134 3.97222 0
M  V30 2378 H 232.084 -1.72417 2.44771 0
M  V30 2379 H 229.63 -0.828084 1.17808 0
M  V30 2380 H 231.583 -3.95253 1.46127 0
M  V30 2381 H 230.307 -3.23534 0.446435 0
M  V30 2382 H 228.966 -2.67707 2.50457 0
M  V30 2383 H 228.614 -4.85294 1.32284 0
M  V30 2384 H 228.314 -5.00906 3.07192 0
M  V30 2385 H 229.838 -5.62609 2.37284 0
M  V30 2386 H 231.252 -4.07518 4.03239 0
M  V30 2387 H 229.649 -3.69671 4.72719 0
M  V30 2388 H 230.719 -2.37426 4.22797 0
M  V30 2389 N 232.062 -1.29571 -0.897171 0
M  V30 2390 C 233.473 -1.15964 -1.46319 0
M  V30 2391 C 233.824 0.244267 -1.94674 0
M  V30 2392 O 232.949 1.13998 -1.83939 0
M  V30 2393 C 233.544 -2.09906 -2.65942 0
M  V30 2394 C 232.103 -2.00314 -3.18671 0
M  V30 2395 C 231.25 -2.00687 -1.91363 0
M  V30 2396 H 234.201 -1.42019 -0.708268 0
M  V30 2397 H 234.222 -1.67276 -3.41759 0
M  V30 2398 H 233.734 -3.12075 -2.30718 0
M  V30 2399 H 231.835 -1.01242 -3.58582 0
M  V30 2400 H 231.948 -2.88102 -3.82798 0
M  V30 2401 H 230.312 -1.45319 -2.09175 0
M  V30 2402 H 231.095 -3.04566 -1.58413 0
M  V30 2403 N 233.54 1.10788 -1.12088 0
M  V30 2404 C 234.487 2.17025 -0.785407 0
M  V30 2405 C 235.457 1.64265 0.246191 0
M  V30 2406 O 236.642 1.90412 0.121584 0
M  V30 2407 C 233.782 3.44249 -0.242177 0
M  V30 2408 C 232.895 4.1098 -1.33115 0
M  V30 2409 C 232.03 5.25911 -0.747741 0
M  V30 2410 C 231.069 5.84538 -1.81609 0
M  V30 2411 N 230.206 6.90853 -1.25167 0
M  V30 2412 H 235.046 2.45066 -1.69548 0
M  V30 2413 H 232.583 1.20297 -0.846582 0
M  V30 2414 H 234.541 4.17101 0.0908026 0
M  V30 2415 H 233.171 3.16571 0.631072 0
M  V30 2416 H 232.223 3.36133 -1.78097 0
M  V30 2417 H 233.535 4.50601 -2.13917 0
M  V30 2418 H 232.689 6.056 -0.365216 0
M  V30 2419 H 231.428 4.87614 0.0915188 0
M  V30 2420 H 230.433 5.03522 -2.20785 0
M  V30 2421 H 231.658 6.249 -2.6585 0
M  V30 2422 H 229.604 6.54562 -0.434174 0
M  V30 2423 H 229.521 7.29166 -1.99633 0
M  V30 2424 H 230.789 7.7433 -0.896259 0
M  V30 2425 N 235.018 0.912232 1.28515 0
M  V30 2426 C 236.243 0.559774 1.99703 0
M  V30 2427 C 236.668 -0.851393 1.67729 0
M  V30 2428 O 236.026 -1.56875 0.908834 0
M  V30 2429 C 236.074 0.773874 3.52198 0
M  V30 2430 O 235.178 -0.167842 4.12058 0
M  V30 2431 H 234.519 0.21723 0.627461 0
M  V30 2432 H 237.049 1.22725 1.63706 0
M  V30 2433 H 237.059 0.683386 4.02236 0
M  V30 2434 H 235.734 1.80261 3.74805 0
M  V30 2435 H 234.311 -0.0287509 3.72889 0
M  V30 2436 N 236.496 -1.42363 0.676048 0
M  V30 2437 C 237.726 -2.05561 0.206967 0
M  V30 2438 C 238.134 -1.50887 -1.14148 0
M  V30 2439 O 237.477 -0.643933 -1.72044 0
M  V30 2440 C 237.539 -3.5944 0.0659508 0
M  V30 2441 C 237.203 -4.36812 1.34331 0
M  V30 2442 C 238.2 -4.67383 2.27704 0
M  V30 2443 C 235.885 -4.76429 1.59125 0
M  V30 2444 C 237.879 -5.36509 3.44147 0
M  V30 2445 C 235.566 -5.45294 2.75857 0
M  V30 2446 C 236.564 -5.75259 3.68193 0
M  V30 2447 O 236.252 -6.42712 4.82883 0
M  V30 2448 H 235.984 -0.668872 0.0979084 0
M  V30 2449 H 238.538 -1.83467 0.923531 0
M  V30 2450 H 236.768 -3.80197 -0.706204 0
M  V30 2451 H 238.457 -4.0427 -0.363418 0
M  V30 2452 H 239.223 -4.37275 2.09799 0
M  V30 2453 H 235.102 -4.52498 0.881258 0
M  V30 2454 H 238.646 -5.59814 4.16238 0
M  V30 2455 H 234.543 -5.7482 2.93688 0
M  V30 2456 H 235.311 -6.61204 4.82444 0
M  V30 2457 N 237.974 -0.419461 -1.51915 0
M  V30 2458 C 239.251 0.211999 -1.94448 0
M  V30 2459 C 239.631 1.61703 -1.35703 0
M  V30 2460 O 238.979 2.22102 -0.536931 0
M  V30 2461 C 239.189 0.207872 -3.4838 0
M  V30 2462 C 240.537 0.422192 -4.22496 0
M  V30 2463 O 241.561 0.286778 -3.55044 0
M  V30 2464 O 240.42 0.690009 -5.42126 0
M  V30 2465 H 237.514 0.139586 -0.815135 0
M  V30 2466 H 240.06 -0.476151 -1.62883 0
M  V30 2467 H 238.832 -0.775102 -3.83546 0
M  V30 2468 H 238.455 0.939688 -3.86336 0
M  V30 2469 N 239.452 1.56882 -0.150215 0
M  V30 2470 C 240.682 2.00302 0.506213 0
M  V30 2471 C 241.09 1.02934 1.58749 0
M  V30 2472 O 240.433 0.0188384 1.8369 0
M  V30 2473 C 240.495 3.40156 1.16337 0
M  V30 2474 C 240.159 4.56439 0.226311 0
M  V30 2475 C 241.156 5.17012 -0.547265 0
M  V30 2476 C 238.841 5.02136 0.128279 0
M  V30 2477 C 240.835 6.21693 -1.40629 0
M  V30 2478 C 238.522 6.06672 -0.734345 0
M  V30 2479 C 239.52 6.6632 -1.50023 0
M  V30 2480 O 239.208 7.68831 -2.34848 0
M  V30 2481 H 238.94 0.662182 0.135984 0
M  V30 2482 H 241.494 2.03961 -0.242746 0
M  V30 2483 H 239.724 3.33346 1.96004 0
M  V30 2484 H 241.413 3.67663 1.71985 0
M  V30 2485 H 242.179 4.82603 -0.48158 0
M  V30 2486 H 238.058 4.55435 0.714157 0
M  V30 2487 H 241.602 6.68179 -2.00455 0
M  V30 2488 H 237.499 6.40507 -0.801309 0
M  V30 2489 H 238.267 7.86065 -2.28131 0
M  V30 2490 N 240.93 -0.123565 1.57115 0
M  V30 2491 C 242.207 -0.862196 1.75572 0
M  V30 2492 C 242.587 -1.98279 0.724475 0
M  V30 2493 O 241.935 -2.27102 -0.252407 0
M  V30 2494 C 242.145 -1.38309 3.20424 0
M  V30 2495 C 243.493 -1.83724 3.82793 0
M  V30 2496 O 244.517 -1.47999 3.23998 0
M  V30 2497 O 243.376 -2.49685 4.86127 0
M  V30 2498 H 240.47 -0.409113 0.718718 0
M  V30 2499 H 243.016 -0.107661 1.69358 0
M  V30 2500 H 241.788 -0.578889 3.86994 0
M  V30 2501 H 241.411 -2.20046 3.31158 0
M  V30 2502 N 242.408 -1.52605 -0.393616 0
M  V30 2503 C 243.338 -1.80022 -1.48709 0
M  V30 2504 C 244.319 -0.651995 -1.57108 0
M  V30 2505 O 245.504 -0.89913 -1.72132 0
M  V30 2506 C 242.634 -1.96492 -2.86371 0
M  V30 2507 C 241.588 -3.12161 -2.92813 0
M  V30 2508 C 240.914 -3.13877 -4.3288 0
M  V30 2509 C 242.214 -4.51322 -2.6288 0
M  V30 2510 H 243.908 -2.71589 -1.26015 0
M  V30 2511 H 241.454 -1.30684 -0.604778 0
M  V30 2512 H 243.407 -2.14255 -3.62867 0
M  V30 2513 H 242.131 -1.01611 -3.10391 0
M  V30 2514 H 240.79 -2.94173 -2.18764 0
M  V30 2515 H 240.438 -2.16687 -4.53933 0
M  V30 2516 H 240.138 -3.91576 -4.38112 0
M  V30 2517 H 241.662 -3.33789 -5.1129 0
M  V30 2518 H 243.076 -4.69435 -3.29096 0
M  V30 2519 H 241.473 -5.31053 -2.79468 0
M  V30 2520 H 242.543 -4.58353 -1.58242 0
M  V30 2521 N 243.887 0.651787 -1.4349 0
M  V30 2522 C 245.136 1.40754 -1.44469 0
M  V30 2523 C 245.449 1.95463 -0.0731845 0
M  V30 2524 O 246.655 2.71471 0.0395721 0
M  V30 2525 C 245.111 2.54735 -2.5424 0
M  V30 2526 C 244.719 2.06628 -3.97504 0
M  V30 2527 C 246.463 3.32092 -2.64414 0
M  V30 2528 C 244.37 3.17829 -4.98737 0
M  V30 2529 H 243.3 0.528862 -0.53742 0
M  V30 2530 H 245.951 0.703365 -1.69485 0
M  V30 2531 H 244.333 3.2763 -2.22428 0
M  V30 2532 H 245.507 1.40734 -4.38783 0
M  V30 2533 H 243.822 1.42146 -3.91387 0
M  V30 2534 H 246.419 4.14952 -3.37223 0
M  V30 2535 H 246.762 3.80217 -1.69532 0
M  V30 2536 H 247.295 2.66279 -2.95534 0
M  V30 2537 H 244.034 2.74671 -5.95177 0
M  V30 2538 H 243.554 3.82429 -4.62069 0
M  V30 2539 H 245.233 3.82937 -5.21505 0
M  V30 2540 N 245.365 1.30045 0.890287 0
M  V30 2541 C 246.614 1.17929 1.63633 0
M  V30 2542 C 246.927 -0.266204 1.9378 0
M  V30 2543 O 248.133 -0.508804 2.6669 0
M  V30 2544 C 246.589 2.06317 2.94892 0
M  V30 2545 C 246.197 3.55745 2.72305 0
M  V30 2546 C 247.941 2.0295 3.72843 0
M  V30 2547 C 245.848 4.36205 3.99348 0
M  V30 2548 H 244.778 0.437782 0.613892 0
M  V30 2549 H 247.429 1.54754 0.986075 0
M  V30 2550 H 245.811 1.6237 3.61182 0
M  V30 2551 H 246.985 4.07805 2.1455 0
M  V30 2552 H 245.3 3.6088 2.07737 0
M  V30 2553 H 247.897 2.60319 4.67053 0
M  V30 2554 H 248.24 1.0117 4.0382 0
M  V30 2555 H 248.773 2.4499 3.13408 0
M  V30 2556 H 245.512 5.38659 3.73533 0
M  V30 2557 H 245.032 3.8891 4.56628 0
M  V30 2558 H 246.711 4.47362 4.67415 0
M  V30 2559 N 246.843 -1.10192 1.12674 0
M  V30 2560 C 248.092 -1.81573 0.8783 0
M  V30 2561 C 248.405 -1.86249 -0.597557 0
M  V30 2562 O 249.611 -2.5386 -0.962681 0
M  V30 2563 C 248.067 -3.26149 1.52167 0
M  V30 2564 C 247.675 -3.29763 3.03249 0
M  V30 2565 C 249.419 -4.0234 1.3536 0
M  V30 2566 C 247.326 -4.68815 3.60508 0
M  V30 2567 H 246.256 -0.680394 0.324931 0
M  V30 2568 H 248.907 -1.23902 1.35353 0
M  V30 2569 H 247.289 -3.83832 0.974104 0
M  V30 2570 H 248.463 -2.8189 3.6452 0
M  V30 2571 H 246.778 -2.67059 3.19481 0
M  V30 2572 H 249.375 -5.05058 1.75559 0
M  V30 2573 H 249.718 -4.15235 0.297554 0
M  V30 2574 H 250.251 -3.51079 1.87052 0
M  V30 2575 H 246.99 -4.61121 4.65884 0
M  V30 2576 H 246.51 -5.17045 3.04014 0
M  V30 2577 H 248.189 -5.37785 3.59717 0
M  V30 2578 N 248.321 -0.919034 -1.28029 0
M  V30 2579 C 249.569 -0.553838 -1.94363 0
M  V30 2580 C 249.89 0.906357 -1.72656 0
M  V30 2581 O 249.16 1.64143 -1.0693 0
M  V30 2582 H 247.74 -0.201834 -0.719216 0
M  V30 2583 H 250.402 -1.16954 -1.55909 0
M  V30 2584 H 249.498 -0.752758 -3.02886 0
M  V30 2585 N 249.799 1.42003 -0.683588 0
M  V30 2586 C 251.047 2.01015 -0.209101 0
M  V30 2587 C 251.368 1.54365 1.19149 0
M  V30 2588 O 250.638 0.769083 1.80172 0
M  V30 2589 H 249.218 0.743294 -0.074315 0
M  V30 2590 H 251.88 1.73798 -0.882066 0
M  V30 2591 H 250.976 3.11343 -0.2172 0
M  V30 2592 N 251.277 0.427512 1.51691 0
M  V30 2593 C 252.525 -0.141948 2.01601 0
M  V30 2594 C 252.846 -1.44067 1.31414 0
M  V30 2595 O 252.116 -1.90763 0.445658 0
M  V30 2596 H 250.696 -0.0554468 0.744939 0
M  V30 2597 H 253.358 0.567968 1.86441 0
M  V30 2598 H 252.454 -0.324913 3.10404 0
M  V30 2599 N 252.755 -1.56801 0.158532 0
M  V30 2600 C 253.98 -2.01295 -0.499516 0
M  V30 2601 C 254.405 -1.03799 -1.56867 0
M  V30 2602 O 253.763 -0.0155162 -1.81293 0
M  V30 2603 C 253.811 -3.44469 -1.06647 0
M  V30 2604 O 252.915 -3.50012 -2.18095 0
M  V30 2605 H 252.256 -0.652884 -0.12099 0
M  V30 2606 H 254.786 -2.02958 0.258661 0
M  V30 2607 H 254.796 -3.8351 -1.39227 0
M  V30 2608 H 253.471 -4.14932 -0.283581 0
M  V30 2609 H 252.048 -3.22822 -1.86656 0
M  V30 2610 N 254.233 0.115231 -1.57178 0
M  V30 2611 C 255.481 0.820727 -1.84685 0
M  V30 2612 C 255.802 1.80237 -0.744279 0
M  V30 2613 O 255.072 1.94529 0.231375 0
M  V30 2614 H 253.652 0.306084 -0.681411 0
M  V30 2615 H 256.314 0.101656 -1.94635 0
M  V30 2616 H 255.41 1.36366 -2.80733 0
M  V30 2617 N 255.711 1.52812 0.385517 0
M  V30 2618 C 256.959 1.67694 1.12797 0
M  V30 2619 C 257.28 0.421115 1.90399 0
M  V30 2620 O 256.55 -0.564551 1.87589 0
M  V30 2621 H 255.13 0.618155 0.419396 0
M  V30 2622 H 257.792 1.89938 0.436972 0
M  V30 2623 H 256.888 2.52896 1.82894 0
M  V30 2624 N 257.189 -0.644168 1.43834 0
M  V30 2625 C 258.119 -1.76814 1.52509 0
M  V30 2626 C 259.1 -1.65823 0.379052 0
M  V30 2627 O 260.285 -1.84781 0.597466 0
M  V30 2628 C 257.415 -3.15288 1.4564 0
M  V30 2629 C 256.369 -3.41053 2.58586 0
M  V30 2630 C 255.695 -4.79421 2.36769 0
M  V30 2631 C 256.995 -3.34902 4.00797 0
M  V30 2632 H 258.689 -1.69812 2.46586 0
M  V30 2633 H 256.235 -0.815542 1.1868 0
M  V30 2634 H 258.188 -3.93681 1.50311 0
M  V30 2635 H 256.912 -3.23043 0.480725 0
M  V30 2636 H 255.571 -2.65035 2.53282 0
M  V30 2637 H 255.219 -4.83863 1.37424 0
M  V30 2638 H 254.919 -4.9762 3.12487 0
M  V30 2639 H 256.443 -5.6006 2.43238 0
M  V30 2640 H 257.857 -4.03218 4.07539 0
M  V30 2641 H 256.254 -3.64637 4.76613 0
M  V30 2642 H 257.324 -2.32928 4.25291 0
M  V30 2643 N 258.668 -1.30515 -0.883378 0
M  V30 2644 C 259.631 -1.1701 -1.97082 0
M  V30 2645 C 260.631 -0.10089 -1.60483 0
M  V30 2646 O 261.821 -0.349127 -1.70666 0
M  V30 2647 C 258.953 -0.793045 -3.31547 0
M  V30 2648 H 260.146 -2.13622 -2.10489 0
M  V30 2649 H 257.699 -1.13935 -1.06998 0
M  V30 2650 H 258.434 0.172499 -3.23841 0
M  V30 2651 H 258.219 -1.56576 -3.5948 0
M  V30 2652 H 259.709 -0.722073 -4.1131 0
M  V30 2653 N 260.146 1.09593 -1.13257 0
M  V30 2654 C 261.109 2.14359 -0.811358 0
M  V30 2655 C 262.109 1.59808 0.178377 0
M  V30 2656 O 263.299 1.74132 -0.0484911 0
M  V30 2657 C 260.431 3.40269 -0.207276 0
M  V30 2658 H 261.624 2.44284 -1.73969 0
M  V30 2659 H 259.177 1.25102 -0.936973 0
M  V30 2660 H 259.912 3.15969 0.73036 0
M  V30 2661 H 259.697 3.81154 -0.919992 0
M  V30 2662 H 261.187 4.176 0.000667944 0
M  V30 2663 N 261.624 0.925811 1.2754 0
M  V30 2664 C 262.587 0.428129 2.25166 0
M  V30 2665 C 263.587 -0.452261 1.54309 0
M  V30 2666 O 264.777 -0.253608 1.72344 0
M  V30 2667 C 261.909 -0.384749 3.38722 0
M  V30 2668 H 263.102 1.29066 2.70706 0
M  V30 2669 H 260.655 0.706323 1.3943 0
M  V30 2670 H 261.39 -1.26618 2.98561 0
M  V30 2671 H 261.175 0.246454 3.91325 0
M  V30 2672 H 262.665 -0.723389 4.11287 0
M  V30 2673 N 263.102 -1.41638 0.69111 0
M  V30 2674 C 264.049 -2.30789 0.0229705 0
M  V30 2675 C 265.019 -1.46863 -0.775911 0
M  V30 2676 O 266.204 -1.75661 -0.74485 0
M  V30 2677 C 263.344 -3.32868 -0.910666 0
M  V30 2678 C 262.457 -4.31875 -0.103874 0
M  V30 2679 C 261.592 -5.21024 -1.03475 0
M  V30 2680 C 260.631 -6.11702 -0.220598 0
M  V30 2681 N 259.768 -6.93349 -1.10504 0
M  V30 2682 H 264.608 -2.87366 0.788978 0
M  V30 2683 H 262.145 -1.41535 0.400794 0
M  V30 2684 H 264.103 -3.90596 -1.46597 0
M  V30 2685 H 262.733 -2.77851 -1.64312 0
M  V30 2686 H 261.785 -3.76131 0.568285 0
M  V30 2687 H 263.097 -4.96003 0.527504 0
M  V30 2688 H 262.251 -5.83565 -1.65943 0
M  V30 2689 H 260.99 -4.57112 -1.69999 0
M  V30 2690 H 259.995 -5.48215 0.417187 0
M  V30 2691 H 261.22 -6.77668 0.440784 0
M  V30 2692 H 259.166 -6.3205 -1.75638 0
M  V30 2693 H 259.083 -7.54146 -0.529125 0
M  V30 2694 H 260.351 -7.60362 -1.71667 0
M  V30 2695 N 264.58 -0.43555 -1.51462 0
M  V30 2696 C 265.49 0.383001 -2.31453 0
M  V30 2697 C 266.506 1.02931 -1.4029 0
M  V30 2698 O 267.682 1.02507 -1.73362 0
M  V30 2699 C 264.747 1.47043 -3.13973 0
M  V30 2700 C 263.808 0.844433 -4.20913 0
M  V30 2701 C 263.041 1.88004 -4.9949 0
M  V30 2702 O 263.264 3.10199 -4.78678 0
M  V30 2703 O 262.198 1.47157 -5.83634 0
M  V30 2704 H 266.024 -0.269964 -3.02498 0
M  V30 2705 H 263.609 -0.19813 -1.4808 0
M  V30 2706 H 265.491 2.10113 -3.65281 0
M  V30 2707 H 264.166 2.10751 -2.45695 0
M  V30 2708 H 263.073 0.175729 -3.73687 0
M  V30 2709 H 264.406 0.250869 -4.9156 0
M  V30 2710 N 266.058 1.56714 -0.166846 0
M  V30 2711 C 267.021 2.16539 0.751232 0
M  V30 2712 C 268.021 1.11228 1.16125 0
M  V30 2713 O 269.211 1.36765 1.07894 0
M  V30 2714 C 266.343 2.74462 2.02196 0
M  V30 2715 H 267.536 2.99013 0.230499 0
M  V30 2716 H 265.089 1.56081 0.0826982 0
M  V30 2717 H 265.824 1.95709 2.58589 0
M  V30 2718 H 265.609 3.51527 1.73698 0
M  V30 2719 H 267.099 3.20489 2.67725 0
M  V30 2720 N 267.536 -0.106894 1.57237 0
M  V30 2721 C 268.499 -1.11466 2.0027 0
M  V30 2722 C 269.499 -1.33623 0.894519 0
M  V30 2723 O 270.689 -1.29935 1.16028 0
M  V30 2724 C 267.821 -2.46646 2.35327 0
M  V30 2725 H 269.014 -0.744516 2.90512 0
M  V30 2726 H 266.567 -0.351576 1.52295 0
M  V30 2727 H 267.302 -2.88558 1.48003 0
M  V30 2728 H 267.087 -2.31915 3.16161 0
M  V30 2729 H 268.577 -3.19151 2.69318 0
M  V30 2730 N 269.014 -1.53014 -0.377408 0
M  V30 2731 C 269.946 -1.74884 -1.48149 0
M  V30 2732 C 270.959 -0.629433 -1.5014 0
M  V30 2733 O 272.148 -0.905416 -1.53833 0
M  V30 2734 C 269.248 -1.80299 -2.86959 0
M  V30 2735 C 268.421 -3.09776 -3.08801 0
M  V30 2736 C 267.48 -3.06586 -4.27658 0
M  V30 2737 O 266.506 -3.80419 -4.23403 0
M  V30 2738 N 267.708 -2.26578 -5.34455 0
M  V30 2739 H 270.473 -2.70147 -1.29771 0
M  V30 2740 H 268.034 -1.51646 -0.56703 0
M  V30 2741 H 270.026 -1.75657 -3.64591 0
M  V30 2742 H 268.596 -0.92372 -2.98641 0
M  V30 2743 H 267.816 -3.27815 -2.18931 0
M  V30 2744 H 269.104 -3.95366 -3.20255 0
M  V30 2745 H 268.502 -1.66081 -5.40771 0
M  V30 2746 H 267.059 -2.27766 -6.10709 0
M  V30 2747 N 270.492 0.636531 -1.44174 0
M  V30 2748 C 271.722 1.42146 -1.49927 0
M  V30 2749 C 272.13 1.88812 -0.121063 0
M  V30 2750 O 271.473 1.61126 0.882267 0
M  V30 2751 C 271.535 2.67883 -2.39748 0
M  V30 2752 C 271.199 2.43048 -3.8701 0
M  V30 2753 C 272.196 2.05216 -4.77684 0
M  V30 2754 C 269.881 2.56856 -4.3166 0
M  V30 2755 C 271.875 1.81512 -6.11009 0
M  V30 2756 C 269.562 2.32766 -5.65034 0
M  V30 2757 C 270.56 1.95152 -6.54526 0
M  V30 2758 O 270.248 1.71326 -7.85431 0
M  V30 2759 H 269.98 0.442567 -0.51099 0
M  V30 2760 H 272.534 0.786158 -1.8976 0
M  V30 2761 H 270.764 3.34032 -1.94832 0
M  V30 2762 H 272.453 3.29874 -2.36513 0
M  V30 2763 H 273.219 1.94111 -4.44462 0
M  V30 2764 H 269.098 2.85104 -3.62266 0
M  V30 2765 H 272.642 1.52077 -6.80822 0
M  V30 2766 H 268.539 2.43479 -5.97819 0
M  V30 2767 H 269.307 1.85616 -7.97176 0
M  V30 2768 N 271.97 1.30982 0.876444 0
M  V30 2769 C 273.218 1.20058 1.62575 0
M  V30 2770 C 273.539 -0.242947 1.93481 0
M  V30 2771 O 272.809 -1.1619 1.57724 0
M  V30 2772 H 271.389 0.44135 0.602677 0
M  V30 2773 H 274.051 1.64222 1.04962 0
M  V30 2774 H 273.147 1.76762 2.57219 0
M  V30 2775 N 273.449 -1.08991 1.13837 0
M  V30 2776 C 274.396 -2.15748 0.819835 0
M  V30 2777 C 275.366 -1.64636 -0.220026 0
M  V30 2778 O 276.551 -1.90582 -0.0912757 0
M  V30 2779 C 273.691 -3.4382 0.296913 0
M  V30 2780 C 272.804 -4.0881 1.39636 0
M  V30 2781 C 271.939 -5.24655 0.831314 0
M  V30 2782 C 270.978 -5.81575 1.90886 0
M  V30 2783 N 270.115 -6.88774 1.36142 0
M  V30 2784 H 274.955 -2.42338 1.73426 0
M  V30 2785 H 272.492 -1.18935 0.865613 0
M  V30 2786 H 274.45 -4.17193 -0.0244339 0
M  V30 2787 H 273.08 -3.17535 -0.580628 0
M  V30 2788 H 272.132 -3.33258 1.83422 0
M  V30 2789 H 273.444 -4.47141 2.21058 0
M  V30 2790 H 272.598 -6.04942 0.461515 0
M  V30 2791 H 271.337 -4.87698 -0.013932 0
M  V30 2792 H 270.342 -4.99946 2.28767 0
M  V30 2793 H 271.567 -6.20592 2.75758 0
M  V30 2794 H 269.513 -6.53788 0.538254 0
M  V30 2795 H 269.43 -7.25898 2.11208 0
M  V30 2796 H 270.698 -7.72806 1.01933 0
M  V30 2797 N 274.927 -0.932562 -1.27047 0
M  V30 2798 C 275.874 -0.434072 -2.26681 0
M  V30 2799 C 276.844 0.501639 -1.58344 0
M  V30 2800 O 278.029 0.419734 -1.86126 0
M  V30 2801 C 275.169 0.30261 -3.43771 0
M  V30 2802 C 274.282 -0.667774 -4.26808 0
M  V30 2803 C 273.417 0.0892393 -5.31125 0
M  V30 2804 C 272.456 -0.873532 -6.05835 0
M  V30 2805 N 271.593 -0.148832 -7.01942 0
M  V30 2806 H 276.433 -1.28868 -2.68695 0
M  V30 2807 H 273.97 -0.646713 -1.32121 0
M  V30 2808 H 275.928 0.746092 -4.10474 0
M  V30 2809 H 274.558 1.12142 -3.02695 0
M  V30 2810 H 273.61 -1.22978 -3.59973 0
M  V30 2811 H 274.922 -1.40337 -4.78651 0
M  V30 2812 H 274.076 0.592409 -6.03801 0
M  V30 2813 H 272.815 0.85777 -4.80097 0
M  V30 2814 H 271.82 -1.38791 -5.31994 0
M  V30 2815 H 273.045 -1.64193 -6.58952 0
M  V30 2816 H 270.991 0.601365 -6.53238 0
M  V30 2817 H 270.908 -0.82391 -7.51497 0
M  V30 2818 H 272.176 0.333527 -7.78786 0
M  V30 2819 N 276.405 1.4127 -0.698611 0
M  V30 2820 C 277.651 2.01478 -0.231207 0
M  V30 2821 C 277.984 1.55215 1.16713 0
M  V30 2822 O 277.259 0.764672 1.78838 0
M  V30 2823 C 277.542 3.58912 -0.292281 0
M  V30 2824 C 277.395 4.15293 -1.72778 0
M  V30 2825 C 278.714 4.38736 0.346194 0
M  V30 2826 H 275.833 0.732025 -0.0854878 0
M  V30 2827 H 278.475 1.67977 -0.887906 0
M  V30 2828 H 276.625 3.87582 0.26686 0
M  V30 2829 H 278.297 3.97486 -2.341 0
M  V30 2830 H 276.54 3.7022 -2.26096 0
M  V30 2831 H 277.211 5.24452 -1.72202 0
M  V30 2832 H 279.687 4.15897 -0.130035 0
M  V30 2833 H 278.563 5.48221 0.272932 0
M  V30 2834 H 278.824 4.18425 1.42734 0
M  V30 2835 N 277.883 0.443576 1.51229 0
M  V30 2836 C 278.816 -0.410089 2.24485 0
M  V30 2837 C 279.794 -1.01949 1.26669 0
M  V30 2838 O 280.978 -1.06075 1.55821 0
M  V30 2839 C 278.105 -1.57211 3.00004 0
M  V30 2840 C 277.151 -1.08279 4.12526 0
M  V30 2841 S 277.984 -0.0197476 5.35496 0
M  V30 2842 C 279.14 -1.18629 6.14555 0
M  V30 2843 H 279.373 0.211832 2.96544 0
M  V30 2844 H 276.906 0.228156 1.52705 0
M  V30 2845 H 278.864 -2.23825 3.44111 0
M  V30 2846 H 277.525 -2.16547 2.27522 0
M  V30 2847 H 276.718 -1.95193 4.64667 0
M  V30 2848 H 276.32 -0.494797 3.70713 0
M  V30 2849 H 278.612 -2.10344 6.4402 0
M  V30 2850 H 279.555 -0.70472 7.04584 0
M  V30 2851 H 279.963 -1.42768 5.46148 0
M  V30 2852 N 279.361 -1.56624 0.175154 0
M  V30 2853 C 280.607 -1.9729 -0.469506 0
M  V30 2854 C 280.94 -1.06128 -1.62636 0
M  V30 2855 O 280.215 -0.109183 -1.94193 0
M  V30 2856 C 280.498 -3.47375 -0.948804 0
M  V30 2857 C 280.351 -4.49317 0.208491 0
M  V30 2858 C 281.67 -4.00652 -1.82116 0
M  V30 2859 H 278.789 -0.717317 -0.16919 0
M  V30 2860 H 281.431 -1.88184 0.262062 0
M  V30 2861 H 279.581 -3.55267 -1.57219 0
M  V30 2862 H 281.253 -4.53482 0.845682 0
M  V30 2863 H 279.496 -4.25121 0.863395 0
M  V30 2864 H 280.167 -5.51741 -0.169059 0
M  V30 2865 H 282.643 -3.95416 -1.2956 0
M  V30 2866 H 281.519 -5.06075 -2.12554 0
M  V30 2867 H 281.78 -3.44699 -2.7683 0
M  V30 2868 N 280.839 0.0985539 -1.57292 0
M  V30 2869 C 281.769 1.12064 -2.04851 0
M  V30 2870 C 282.75 1.41981 -0.936767 0
M  V30 2871 O 283.935 1.52071 -1.20781 0
M  V30 2872 C 281.065 2.44144 -2.47004 0
M  V30 2873 C 280.019 2.28643 -3.6181 0
M  V30 2874 C 279.345 3.65869 -3.89929 0
M  V30 2875 C 280.645 1.72986 -4.92822 0
M  V30 2876 H 282.339 0.724979 -2.9049 0
M  V30 2877 H 279.885 0.34729 -1.39749 0
M  V30 2878 H 281.838 3.15914 -2.78884 0
M  V30 2879 H 280.562 2.85639 -1.5836 0
M  V30 2880 H 279.221 1.59318 -3.30172 0
M  V30 2881 H 278.869 4.04885 -2.98458 0
M  V30 2882 H 278.569 3.56344 -4.67218 0
M  V30 2883 H 280.093 4.39112 -4.2428 0
M  V30 2884 H 281.507 2.34593 -5.23105 0
M  V30 2885 H 279.904 1.74229 -5.74251 0
M  V30 2886 H 280.974 0.689007 -4.7998 0
M  V30 2887 N 282.317 1.53212 0.369288 0
M  V30 2888 C 283.594 1.59815 1.12776 0
M  V30 2889 C 283.974 0.403402 2.0721 0
M  V30 2890 O 283.322 -0.606667 2.20299 0
M  V30 2891 C 283.532 2.94664 1.87013 0
M  V30 2892 C 284.88 3.49109 2.41677 0
M  V30 2893 O 285.904 2.96669 1.97144 0
M  V30 2894 O 284.763 4.40775 3.23079 0
M  V30 2895 H 281.857 0.645376 0.517125 0
M  V30 2896 H 284.403 1.65553 0.37285 0
M  V30 2897 H 283.175 3.73061 1.18071 0
M  V30 2898 H 282.798 2.92401 2.69421 0
M  V30 2899 N 283.795 -0.628877 1.44509 0
M  V30 2900 C 285.042 -1.38839 1.47411 0
M  V30 2901 C 285.37 -1.94202 0.10757 0
M  V30 2902 O 284.625 -1.74243 -0.890947 0
M  V30 2903 C 284.924 -2.56995 2.48371 0
M  V30 2904 C 284.59 -2.19908 3.93639 0
M  V30 2905 C 283.252 -2.09506 4.33198 0
M  V30 2906 C 285.604 -1.9064 4.85083 0
M  V30 2907 C 282.932 -1.68028 5.62124 0
M  V30 2908 C 285.284 -1.50655 6.14399 0
M  V30 2909 C 283.948 -1.38796 6.5291 0
M  V30 2910 H 283.218 -0.508048 0.539414 0
M  V30 2911 H 285.865 -0.712913 1.77735 0
M  V30 2912 H 284.17 -3.29786 2.11538 0
M  V30 2913 H 285.867 -3.15223 2.47861 0
M  V30 2914 H 282.457 -2.28922 3.62343 0
M  V30 2915 H 286.641 -1.97585 4.55273 0
M  V30 2916 H 281.897 -1.57452 5.90778 0
M  V30 2917 H 286.071 -1.27048 6.84713 0
M  V30 2918 H 283.698 -1.06429 7.52713 0
M  V30 2919 N 285.273 -1.31445 -0.869486 0
M  V30 2920 C 286.519 -1.21337 -1.62496 0
M  V30 2921 C 286.852 0.227872 -1.92858 0
M  V30 2922 O 286.127 1.16094 -1.56053 0
M  V30 2923 C 286.41 -2.05814 -2.95487 0
M  V30 2924 C 286.263 -3.5824 -2.72 0
M  V30 2925 C 287.582 -1.9079 -3.96594 0
M  V30 2926 H 284.701 -0.442135 -0.589649 0
M  V30 2927 H 287.343 -1.6124 -1.00507 0
M  V30 2928 H 285.493 -1.71913 -3.48394 0
M  V30 2929 H 287.165 -4.0228 -2.25762 0
M  V30 2930 H 285.408 -3.81647 -2.06224 0
M  V30 2931 H 286.079 -4.12657 -3.66631 0
M  V30 2932 H 288.555 -2.20459 -3.52898 0
M  V30 2933 H 287.431 -2.52199 -4.87531 0
M  V30 2934 H 287.692 -0.871341 -4.33428 0
M  V30 2935 N 286.751 1.08385 -1.14413 0
M  V30 2936 C 287.979 1.84517 -0.936001 0
M  V30 2937 C 288.394 1.81626 0.515503 0
M  V30 2938 O 287.751 1.22008 1.35721 0
M  V30 2939 C 287.802 3.32049 -1.42918 0
M  V30 2940 O 287.523 3.34951 -2.82381 0
M  V30 2941 C 289.024 4.24986 -1.26103 0
M  V30 2942 H 286.244 0.582491 -0.333084 0
M  V30 2943 H 288.788 1.36885 -1.5193 0
M  V30 2944 H 286.943 3.7707 -0.888641 0
M  V30 2945 H 287.357 4.27048 -3.04517 0
M  V30 2946 H 288.831 5.26615 -1.6547 0
M  V30 2947 H 289.308 4.38726 -0.20392 0
M  V30 2948 H 289.914 3.85791 -1.79012 0
M  V30 2949 N 288.23 0.939286 1.26551 0
M  V30 2950 C 289.641 0.628782 1.75793 0
M  V30 2951 C 289.992 -0.856046 1.7654 0
M  V30 2952 O 289.117 -1.66994 1.3763 0
M  V30 2953 C 289.712 1.13465 3.19235 0
M  V30 2954 C 288.271 0.874601 3.66098 0
M  V30 2955 C 287.418 1.28667 2.45642 0
M  V30 2956 H 290.369 1.1178 1.12654 0
M  V30 2957 H 290.39 0.487609 3.77363 0
M  V30 2958 H 289.902 2.21535 3.1866 0
M  V30 2959 H 288.003 -0.191793 3.72106 0
M  V30 2960 H 288.116 1.50028 4.55004 0
M  V30 2961 H 286.48 0.705109 2.44745 0
M  V30 2962 H 287.263 2.37625 2.47769 0
M  V30 2963 N 289.708 -1.40897 0.706093 0
M  V30 2964 C 290.936 -2.05373 0.250887 0
M  V30 2965 C 291.351 -1.53172 -1.10381 0
M  V30 2966 O 290.708 -0.684305 -1.69185 0
M  V30 2967 C 290.759 -3.6088 0.211571 0
M  V30 2968 O 290.48 -4.11153 1.51276 0
M  V30 2969 C 291.981 -4.42517 -0.263346 0
M  V30 2970 H 289.201 -0.66115 0.114552 0
M  V30 2971 H 291.745 -1.80479 0.961635 0
M  V30 2972 H 289.9 -3.84777 -0.450073 0
M  V30 2973 H 290.314 -5.05279 1.40689 0
M  V30 2974 H 291.788 -5.51479 -0.239718 0
M  V30 2975 H 292.265 -4.19396 -1.30397 0
M  V30 2976 H 292.871 -4.23708 0.367677 0
M  V30 2977 N 291.186 -0.45159 -1.50991 0
M  V30 2978 C 292.597 0.00818571 -1.86698 0
M  V30 2979 C 292.948 1.40661 -1.3678 0
M  V30 2980 O 292.073 2.0391 -0.724546 0
M  V30 2981 C 292.668 0.0216303 -3.38793 0
M  V30 2982 C 291.227 0.425865 -3.73983 0
M  V30 2983 C 290.374 -0.372163 -2.74791 0
M  V30 2984 H 293.325 -0.666785 -1.44013 0
M  V30 2985 H 293.346 0.828078 -3.7138 0
M  V30 2986 H 292.858 -0.996288 -3.75094 0
M  V30 2987 H 290.959 1.44886 -3.43277 0
M  V30 2988 H 291.072 0.140761 -4.78893 0
M  V30 2989 H 289.436 0.171498 -2.54122 0
M  V30 2990 H 290.219 -1.38922 -3.13935 0
M  V30 2991 N 292.664 1.56529 -0.183458 0
M  V30 2992 C 293.594 2.21549 0.737456 0
M  V30 2993 C 294.575 1.17489 1.23005 0
M  V30 2994 O 295.76 1.45959 1.281 0
M  V30 2995 C 292.89 2.86575 1.96194 0
M  V30 2996 C 291.844 3.96778 1.60473 0
M  V30 2997 C 291.17 4.48911 2.90487 0
M  V30 2998 C 292.47 5.15767 0.823497 0
M  V30 2999 H 294.164 2.98761 0.195453 0
M  V30 3000 H 291.71 1.43702 0.0925686 0
M  V30 3001 H 293.663 3.30739 2.61131 0
M  V30 3002 H 292.387 2.06749 2.52828 0
M  V30 3003 H 291.046 3.53286 0.978997 0
M  V30 3004 H 290.694 3.65862 3.45186 0
M  V30 3005 H 290.394 5.23265 2.67335 0
M  V30 3006 H 291.918 4.95771 3.56432 0
M  V30 3007 H 293.332 5.56549 1.37571 0
M  V30 3008 H 291.729 5.96114 0.690551 0
M  V30 3009 H 292.799 4.84574 -0.177782 0
M  V30 3010 N 294.142 -0.090211 1.57342 0
M  V30 3011 C 295.39 -0.791241 1.85967 0
M  V30 3012 C 295.711 -1.7903 0.772859 0
M  V30 3013 O 294.981 -1.94872 -0.200398 0
M  V30 3014 H 293.561 -0.295205 0.686195 0
M  V30 3015 H 296.223 -0.0706782 1.94772 0
M  V30 3016 H 295.319 -1.31882 2.82867 0
M  V30 3017 N 295.62 -1.53406 -0.361157 0
M  V30 3018 C 296.848 -1.73717 -1.12383 0
M  V30 3019 C 297.263 -0.468161 -1.82904 0
M  V30 3020 O 296.62 0.559198 -1.73722 0
M  V30 3021 C 296.671 -2.90558 -2.15078 0
M  V30 3022 O 296.392 -4.12549 -1.47428 0
M  V30 3023 C 297.893 -3.22777 -3.03858 0
M  V30 3024 H 295.113 -0.580896 -0.335858 0
M  V30 3025 H 297.657 -2.00167 -0.418728 0
M  V30 3026 H 295.812 -2.66489 -2.8118 0
M  V30 3027 H 296.226 -4.78009 -2.15887 0
M  V30 3028 H 297.7 -4.07927 -3.71887 0
M  V30 3029 H 298.177 -2.38329 -3.68912 0
M  V30 3030 H 298.783 -3.48787 -2.43367 0
M  V30 3031 N 297.098 0.621204 -1.44841 0
M  V30 3032 C 298.514 0.94048 -1.28946 0
M  V30 3033 C 298.714 2.00154 -0.23249 0
M  V30 3034 O 297.77 2.49651 0.378237 0
M  V30 3035 C 299.083 1.39433 -2.66419 0
M  V30 3036 C 300.631 1.50927 -2.74208 0
M  V30 3037 C 301.106 1.99692 -4.12174 0
M  V30 3038 N 302.597 2.06947 -4.144 0
M  V30 3039 C 303.332 2.45871 -5.1801 0
M  V30 3040 N 302.828 2.83862 -6.31977 0
M  V30 3041 N 304.621 2.46092 -5.05366 0
M  V30 3042 H 296.772 -0.0803548 -2.12248 0
M  V30 3043 H 299.035 0.0266913 -0.947624 0
M  V30 3044 H 298.741 0.688925 -3.44887 0
M  V30 3045 H 298.615 2.36347 -2.93973 0
M  V30 3046 H 301.002 2.20561 -1.96053 0
M  V30 3047 H 301.083 0.523627 -2.50383 0
M  V30 3048 H 300.727 1.30649 -4.90809 0
M  V30 3049 H 300.657 2.99146 -4.33381 0
M  V30 3050 H 303.148 1.80232 -3.32152 0
M  V30 3051 H 303.461 3.12405 -7.0684 0
M  V30 3052 H 301.806 2.8159 -6.35399 0
M  V30 3053 H 304.997 2.1581 -4.15384 0
M  V30 3054 H 305.17 2.76102 -5.86235 0
M  V30 3055 N 298.576 1.31904 0.862503 0
M  V30 3056 C 299.822 1.23207 1.61838 0
M  V30 3057 C 300.177 -0.206062 1.91293 0
M  V30 3058 O 299.47 -1.14162 1.53875 0
M  V30 3059 C 299.664 2.01713 2.95037 0
M  V30 3060 C 299.493 3.53014 2.78588 0
M  V30 3061 C 298.263 4.22359 2.77382 0
M  V30 3062 C 300.461 4.47819 2.52909 0
M  V30 3063 N 298.443 5.59766 2.52062 0
M  V30 3064 C 299.814 5.72947 2.36922 0
M  V30 3065 C 301.869 4.37162 2.38314 0
M  V30 3066 C 300.572 6.88623 2.07823 0
M  V30 3067 C 302.598 5.5263 2.10604 0
M  V30 3068 C 301.96 6.76752 1.95411 0
M  V30 3069 H 298.059 0.505984 0.596242 0
M  V30 3070 H 300.643 1.66179 1.01452 0
M  V30 3071 H 298.814 1.61098 3.53415 0
M  V30 3072 H 300.546 1.84975 3.59953 0
M  V30 3073 H 297.301 3.74401 2.90036 0
M  V30 3074 H 297.725 6.32135 2.42352 0
M  V30 3075 H 302.367 3.41857 2.48784 0
M  V30 3076 H 300.085 7.83948 1.9609 0
M  V30 3077 H 303.671 5.46307 2.00101 0
M  V30 3078 H 302.551 7.6459 1.74274 0
M  V30 3079 N 300.054 -1.07777 1.14986 0
M  V30 3080 C 301.302 -1.79934 0.920235 0
M  V30 3081 C 301.623 -1.86955 -0.554336 0
M  V30 3082 O 300.893 -1.36731 -1.40291 0
M  V30 3083 H 299.473 -0.666424 0.337473 0
M  V30 3084 H 302.135 -1.3027 1.44968 0
M  V30 3085 H 301.231 -2.82539 1.32583 0
M  V30 3086 N 301.532 -0.945985 -1.26051 0
M  V30 3087 C 302.462 -0.477172 -2.28572 0
M  V30 3088 C 303.443 0.472032 -1.63419 0
M  V30 3089 O 304.628 0.372853 -1.90587 0
M  V30 3090 C 301.758 0.253975 -3.4637 0
M  V30 3091 C 300.712 -0.609135 -4.23643 0
M  V30 3092 C 300.038 0.252252 -5.34105 0
M  V30 3093 C 301.338 -1.8829 -4.8718 0
M  V30 3094 H 303.032 -1.33402 -2.68038 0
M  V30 3095 H 300.578 -0.642904 -1.28852 0
M  V30 3096 H 302.531 0.593016 -4.17207 0
M  V30 3097 H 301.255 1.145 -3.05871 0
M  V30 3098 H 299.914 -0.931138 -3.54578 0
M  V30 3099 H 299.562 1.14278 -4.89846 0
M  V30 3100 H 299.262 -0.32188 -5.86718 0
M  V30 3101 H 300.786 0.586454 -6.07777 0
M  V30 3102 H 302.2 -1.61081 -5.50205 0
M  V30 3103 H 300.597 -2.40199 -5.49931 0
M  V30 3104 H 301.667 -2.59134 -4.09851 0
M  V30 3105 N 303.011 1.40521 -0.713556 0
M  V30 3106 C 304.259 2.00527 -0.251692 0
M  V30 3107 C 304.58 1.56857 1.15848 0
M  V30 3108 O 303.85 0.807127 1.785 0
M  V30 3109 H 302.43 0.741551 -0.0900646 0
M  V30 3110 H 305.092 1.71887 -0.918733 0
M  V30 3111 H 304.188 3.10813 -0.283192 0
M  V30 3112 N 304.489 0.459591 1.5075 0
M  V30 3113 C 305.737 -0.0991532 2.01857 0
M  V30 3114 C 306.058 -1.41247 1.34441 0
M  V30 3115 O 305.328 -1.89775 0.486022 0
M  V30 3116 H 303.908 -0.039633 0.745948 0
M  V30 3117 H 306.57 0.607387 1.85194 0
M  V30 3118 H 305.666 -0.258998 3.11023 0
M  V30 3119 N 305.967 -1.56429 0.191757 0
M  V30 3120 C 307.195 -2.01867 -0.453586 0
M  V30 3121 C 307.61 -1.07191 -1.5542 0
M  V30 3122 O 306.967 -0.0762108 -1.82341 0
M  V30 3123 C 307.018 -3.47017 -1.013 0
M  V30 3124 O 306.739 -4.38078 0.0437005 0
M  V30 3125 C 308.24 -4.07956 -1.73456 0
M  V30 3126 H 305.46 -0.661211 -0.114199 0
M  V30 3127 H 308.004 -2.02295 0.299483 0
M  V30 3128 H 306.159 -3.47298 -1.71647 0
M  V30 3129 H 306.573 -5.23178 -0.372212 0
M  V30 3130 H 308.047 -5.1138 -2.07833 0
M  V30 3131 H 308.524 -3.51222 -2.63704 0
M  V30 3132 H 309.13 -4.11437 -1.07702 0
M  V30 3133 N 307.445 0.0818655 -1.57387 0
M  V30 3134 C 308.685 0.788375 -1.88584 0
M  V30 3135 C 309.049 1.75248 -0.784351 0
M  V30 3136 O 310.25 2.50334 -0.979105 0
M  V30 3137 C 308.521 1.48654 -3.25018 0
M  V30 3138 S 310.08 2.22951 -3.7794 0
M  V30 3139 H 306.898 0.262383 -0.660815 0
M  V30 3140 H 309.5 0.0448995 -1.95448 0
M  V30 3141 H 308.204 0.770919 -4.03094 0
M  V30 3142 H 307.735 2.26965 -3.21326 0
M  V30 3143 H 309.75 3.49309 -3.52417 0
M  V30 3144 N 308.923 1.53595 0.353017 0
M  V30 3145 C 310.169 1.70638 1.09593 0
M  V30 3146 C 310.502 0.463286 1.88593 0
M  V30 3147 O 309.777 -0.539597 1.86865 0
M  V30 3148 C 310.06 2.96406 2.04489 0
M  V30 3149 C 309.913 4.30901 1.29014 0
M  V30 3150 C 311.232 3.17812 3.0444 0
M  V30 3151 H 308.351 0.620913 0.397034 0
M  V30 3152 H 310.993 1.86254 0.375446 0
M  V30 3153 H 309.143 2.83223 2.65927 0
M  V30 3154 H 310.815 4.55917 0.702638 0
M  V30 3155 H 309.058 4.29741 0.592071 0
M  V30 3156 H 309.729 5.1506 1.98537 0
M  V30 3157 H 312.205 3.30263 2.53112 0
M  V30 3158 H 311.081 4.07223 3.6805 0
M  V30 3159 H 311.342 2.33669 3.75301 0
M  V30 3160 N 310.401 -0.613514 1.45168 0
M  V30 3161 C 311.349 -1.74572 1.53712 0
M  V30 3162 C 312.343 -1.64426 0.407505 0
M  V30 3163 O 313.549 -1.70291 0.583176 0
M  V30 3164 H 309.924 -0.576641 0.48269 0
M  V30 3165 H 311.895 -1.64492 2.48968 0
M  V30 3166 C 310.644 -3.12943 1.51532 0
M  V30 3167 H 309.967 -3.21407 2.37776 0
M  V30 3168 H 311.407 -3.9201 1.61569 0
M  V30 3169 C 309.866 -3.36053 0.238798 0
M  V30 3170 O 310.396 -3.95837 -0.6838 0
M  V30 3171 N 308.602 -2.9028 0.136359 0
M  V30 3172 H 308.149 -2.41811 0.887999 0
M  V30 3173 H 308.107 -3.06116 -0.716944 0
M  V30 3174 N 311.879 -1.3236 -0.855495 0
M  V30 3175 C 313.125 -1.23054 -1.612 0
M  V30 3176 C 313.458 0.207404 -1.93089 0
M  V30 3177 O 312.733 1.14432 -1.57275 0
M  V30 3178 C 313.016 -2.08937 -2.93287 0
M  V30 3179 C 312.869 -3.61105 -2.68185 0
M  V30 3180 C 314.188 -1.94986 -3.94549 0
M  V30 3181 H 311.307 -0.448364 -0.584926 0
M  V30 3182 H 313.949 -1.62297 -0.987917 0
M  V30 3183 H 312.099 -1.75599 -3.46551 0
M  V30 3184 H 313.771 -4.04652 -2.21483 0
M  V30 3185 H 312.014 -3.83813 -2.02164 0
M  V30 3186 H 312.685 -4.16522 -3.62234 0
M  V30 3187 H 315.161 -2.24189 -3.5054 0
M  V30 3188 H 314.037 -2.57356 -4.84829 0
M  V30 3189 H 314.298 -0.917263 -4.3248 0
M  V30 3190 N 313.357 1.07166 -1.15556 0
M  V30 3191 C 314.605 1.79443 -0.929764 0
M  V30 3192 C 314.926 1.87246 0.544414 0
M  V30 3193 O 314.196 1.37473 1.39564 0
M  V30 3194 H 312.776 0.664625 -0.341003 0
M  V30 3195 H 315.438 1.29499 -1.45657 0
M  V30 3196 H 314.534 2.81832 -1.34079 0
M  V30 3197 N 314.835 0.952656 1.25548 0
M  V30 3198 C 316.075 0.614013 1.9496 0
M  V30 3199 C 316.439 -0.833215 1.72978 0
M  V30 3200 O 317.64 -1.28135 2.36294 0
M  V30 3201 C 315.911 0.960562 3.4425 0
M  V30 3202 S 317.47 0.734195 4.32614 0
M  V30 3203 H 314.288 0.225754 0.674208 0
M  V30 3204 H 316.89 1.22641 1.52248 0
M  V30 3205 H 315.594 2.01103 3.57751 0
M  V30 3206 H 315.125 0.338336 3.91942 0
M  V30 3207 H 317.14 -0.395995 4.94617 0
M  V30 3208 N 316.313 -1.40141 0.720998 0
M  V30 3209 C 317.562 -2.0002 0.259804 0
M  V30 3210 C 317.875 -1.57839 -1.15526 0
M  V30 3211 O 319.081 -2.10455 -1.71525 0
M  V30 3212 C 317.537 -3.57516 0.413566 0
M  V30 3213 C 317.145 -4.08667 1.83562 0
M  V30 3214 C 318.889 -4.24498 0.0134387 0
M  V30 3215 C 316.796 -5.58686 1.93968 0
M  V30 3216 H 315.726 -0.748195 0.0933806 0
M  V30 3217 H 318.377 -1.60313 0.892866 0
M  V30 3218 H 316.759 -3.9495 -0.288169 0
M  V30 3219 H 317.933 -3.82598 2.56817 0
M  V30 3220 H 316.248 -3.543 2.1877 0
M  V30 3221 H 318.845 -5.34654 0.0703954 0
M  V30 3222 H 319.188 -4.03375 -1.02927 0
M  V30 3223 H 319.721 -3.92188 0.665815 0
M  V30 3224 H 316.46 -5.8467 2.96379 0
M  V30 3225 H 315.98 -5.86602 1.25131 0
M  V30 3226 H 317.659 -6.23875 1.71431 0
M  V30 3227 N 317.792 -0.46758 -1.50504 0
M  V30 3228 C 319.203 -0.0116166 -1.86696 0
M  V30 3229 C 319.554 1.39202 -1.38265 0
M  V30 3230 O 318.679 2.0313 -0.746132 0
M  V30 3231 C 319.274 -0.0143044 -3.38797 0
M  V30 3232 C 317.833 0.386175 -3.74414 0
M  V30 3233 C 316.98 -0.401287 -2.74381 0
M  V30 3234 H 319.931 -0.682022 -1.43297 0
M  V30 3235 H 319.952 0.788641 -3.72237 0
M  V30 3236 H 319.464 -1.03602 -3.74016 0
M  V30 3237 H 317.565 1.41237 -3.44794 0
M  V30 3238 H 317.678 0.0899596 -4.79016 0
M  V30 3239 H 316.042 0.144536 -2.5429 0
M  V30 3240 H 316.825 -1.42244 -3.12444 0
M  V30 3241 N 319.27 1.56325 -0.20005 0
M  V30 3242 C 320.217 2.1932 0.718833 0
M  V30 3243 C 321.187 1.14198 1.20615 0
M  V30 3244 O 322.372 1.42469 1.26914 0
M  V30 3245 C 319.512 2.86041 1.93066 0
M  V30 3246 C 318.625 4.05702 1.48425 0
M  V30 3247 C 317.76 4.60266 2.65196 0
M  V30 3248 C 316.799 5.72273 2.17185 0
M  V30 3249 N 315.936 6.21221 3.27152 0
M  V30 3250 H 320.776 2.97486 0.17489 0
M  V30 3251 H 318.313 1.46911 0.0745794 0
M  V30 3252 H 320.271 3.22897 2.64184 0
M  V30 3253 H 318.901 2.1043 2.44783 0
M  V30 3254 H 317.953 3.74475 0.668755 0
M  V30 3255 H 319.265 4.86699 1.09204 0
M  V30 3256 H 318.419 4.99453 3.4443 0
M  V30 3257 H 317.158 3.78386 3.07693 0
M  V30 3258 H 316.163 5.3261 1.36407 0
M  V30 3259 H 317.388 6.55974 1.75713 0
M  V30 3260 H 315.334 5.42263 3.69171 0
M  V30 3261 H 315.251 6.97284 2.92116 0
M  V30 3262 H 316.519 6.65063 4.06585 0
M  V30 3263 N 320.748 -0.0735177 1.57428 0
M  V30 3264 C 321.695 -1.08756 2.0357 0
M  V30 3265 C 322.665 -1.38559 0.916 0
M  V30 3266 O 323.85 -1.49656 1.18354 0
M  V30 3267 C 320.99 -2.39657 2.48311 0
M  V30 3268 C 320.103 -2.16399 3.73892 0
M  V30 3269 C 319.238 -3.40852 4.07423 0
M  V30 3270 C 318.277 -3.1295 5.2605 0
M  V30 3271 N 317.414 -4.29729 5.55228 0
M  V30 3272 H 322.254 -0.687104 2.8997 0
M  V30 3273 H 319.791 -0.327709 1.43403 0
M  V30 3274 H 321.749 -3.16081 2.72303 0
M  V30 3275 H 320.379 -2.77508 1.64891 0
M  V30 3276 H 319.431 -1.30676 3.57251 0
M  V30 3277 H 320.743 -1.91788 4.60455 0
M  V30 3278 H 319.897 -4.25671 4.32306 0
M  V30 3279 H 318.636 -3.68537 3.19425 0
M  V30 3280 H 317.641 -2.26526 5.00965 0
M  V30 3281 H 318.866 -2.86589 6.15665 0
M  V30 3282 H 316.812 -4.57448 4.70188 0
M  V30 3283 H 316.729 -4.08385 6.36206 0
M  V30 3284 H 317.997 -5.1555 5.84661 0
M  V30 3285 N 322.226 -1.5378 -0.344866 0
M  V30 3286 C 323.156 -1.84662 -1.42906 0
M  V30 3287 C 324.137 -0.701648 -1.54955 0
M  V30 3288 O 325.322 -0.953438 -1.69184 0
M  V30 3289 C 322.452 -2.05503 -2.79974 0
M  V30 3290 C 321.406 -3.21318 -2.82734 0
M  V30 3291 C 320.732 -3.2749 -4.22675 0
M  V30 3292 C 322.032 -4.59456 -2.48389 0
M  V30 3293 H 323.726 -2.75461 -1.17311 0
M  V30 3294 H 321.272 -1.32542 -0.562896 0
M  V30 3295 H 323.225 -2.25691 -3.55867 0
M  V30 3296 H 321.949 -1.11434 -3.07002 0
M  V30 3297 H 320.608 -3.00984 -2.09294 0
M  V30 3298 H 320.256 -2.31019 -4.4681 0
M  V30 3299 H 319.956 -4.05316 -4.25433 0
M  V30 3300 H 321.48 -3.49887 -5.00412 0
M  V30 3301 H 322.894 -4.79667 -3.13995 0
M  V30 3302 H 321.291 -5.39675 -2.62432 0
M  V30 3303 H 322.361 -4.63155 -1.4358 0
M  V30 3304 N 323.704 0.605807 -1.45491 0
M  V30 3305 C 324.637 1.73022 -1.48791 0
M  V30 3306 C 325.615 1.58917 -0.344112 0
M  V30 3307 O 326.799 1.80453 -0.544876 0
M  V30 3308 C 323.926 3.10865 -1.34463 0
M  V30 3309 C 322.972 3.43554 -2.5273 0
M  V30 3310 S 323.805 3.38196 -4.15191 0
M  V30 3311 C 324.961 4.78616 -4.03333 0
M  V30 3312 H 325.194 1.69961 -2.43928 0
M  V30 3313 H 322.727 0.782611 -1.33096 0
M  V30 3314 H 324.685 3.90398 -1.26884 0
M  V30 3315 H 323.346 3.1144 -0.40794 0
M  V30 3316 H 322.539 4.43924 -2.38637 0
M  V30 3317 H 322.141 2.71541 -2.5718 0
M  V30 3318 H 324.433 5.68463 -3.68587 0
M  V30 3319 H 325.376 4.97767 -5.03621 0
M  V30 3320 H 325.784 4.54381 -3.34959 0
M  V30 3321 N 325.182 1.32811 0.848464 0
M  V30 3322 C 326.132 1.18842 1.94578 0
M  V30 3323 C 327.116 0.0937517 1.60627 0
M  V30 3324 O 328.308 0.320887 1.74067 0
M  V30 3325 C 325.437 0.91999 3.30743 0
M  V30 3326 C 324.523 2.05665 3.70894 0
M  V30 3327 N 324.914 3.30579 3.8282 0
M  V30 3328 C 323.212 1.9612 4.00566 0
M  V30 3329 C 323.913 4.05067 4.17487 0
M  V30 3330 N 322.889 3.33419 4.2934 0
M  V30 3331 H 326.691 2.13536 2.0194 0
M  V30 3332 H 324.205 1.2468 1.0406 0
M  V30 3333 H 326.202 0.800859 4.09136 0
M  V30 3334 H 324.862 -0.0185076 3.24695 0
M  V30 3335 H 325.873 3.65441 3.66978 0
M  V30 3336 H 322.55 1.09871 4.02784 0
M  V30 3337 H 323.94 5.12815 4.34131 0
M  V30 3338 N 326.66 -1.06551 1.16123 0
M  V30 3339 C 327.592 -2.13908 0.823171 0
M  V30 3340 C 328.605 -1.61926 -0.16843 0
M  V30 3341 O 329.794 -1.78412 0.055962 0
M  V30 3342 C 326.894 -3.38283 0.204424 0
M  V30 3343 C 326.067 -4.19589 1.23548 0
M  V30 3344 C 325.126 -5.2233 0.637011 0
M  V30 3345 O 324.152 -5.54034 1.30516 0
M  V30 3346 N 325.354 -5.77621 -0.577474 0
M  V30 3347 H 328.119 -2.43508 1.74711 0
M  V30 3348 H 325.68 -1.2253 1.05821 0
M  V30 3349 H 327.672 -4.0416 -0.208909 0
M  V30 3350 H 326.242 -3.06329 -0.623012 0
M  V30 3351 H 325.462 -3.49406 1.82507 0
M  V30 3352 H 326.75 -4.70718 1.93137 0
M  V30 3353 H 326.148 -5.54125 -1.13853 0
M  V30 3354 H 324.705 -6.45087 -0.933053 0
M  V30 3355 N 328.138 -0.959301 -1.25041 0
M  V30 3356 C 329.101 -0.487677 -2.23952 0
M  V30 3357 C 330.101 0.41119 -1.55454 0
M  V30 3358 O 331.291 0.207825 -1.72956 0
M  V30 3359 C 328.423 0.294807 -3.39623 0
M  V30 3360 H 329.616 -1.36198 -2.67189 0
M  V30 3361 H 327.169 -0.743042 -1.37508 0
M  V30 3362 H 327.904 1.18658 -3.01813 0
M  V30 3363 H 327.689 -0.35012 -3.90534 0
M  V30 3364 H 329.179 0.614089 -4.1306 0
M  V30 3365 N 329.616 1.39756 -0.72842 0
M  V30 3366 C 330.579 2.29012 -0.0927297 0
M  V30 3367 C 331.579 1.45992 0.674025 0
M  V30 3368 O 332.769 1.66749 0.50402 0
M  V30 3369 C 329.901 3.29396 0.878137 0
M  V30 3370 H 331.094 2.86729 -0.879011 0
M  V30 3371 H 328.647 1.48293 -0.493847 0
M  V30 3372 H 329.382 2.76722 1.69101 0
M  V30 3373 H 329.167 3.907 0.331051 0
M  V30 3374 H 330.657 3.96199 1.3197 0
M  V30 3375 N 331.094 0.475555 1.50254 0
M  V30 3376 C 332.024 -0.30611 2.31485 0
M  V30 3377 C 333.005 -0.986228 1.38591 0
M  V30 3378 O 334.19 -0.982541 1.67511 0
M  V30 3379 C 331.32 -1.38588 3.1845 0
M  V30 3380 C 330.274 -0.827115 4.19932 0
M  V30 3381 C 329.6 -2.00551 4.95665 0
M  V30 3382 C 330.9 0.16463 5.2204 0
M  V30 3383 H 332.594 0.371866 2.97082 0
M  V30 3384 H 330.14 0.180282 1.42867 0
M  V30 3385 H 332.093 -1.94023 3.74076 0
M  V30 3386 H 330.817 -2.09269 2.50747 0
M  V30 3387 H 329.476 -0.294702 3.65414 0
M  V30 3388 H 329.124 -2.6994 4.2443 0
M  V30 3389 H 328.824 -1.63784 5.64313 0
M  V30 3390 H 330.348 -2.56468 5.54127 0
M  V30 3391 H 331.762 -0.300699 5.72511 0
M  V30 3392 H 330.159 0.446813 5.98434 0
M  V30 3393 H 331.229 1.08905 4.72512 0
M  V30 3394 N 332.573 -1.56217 0.208337 0
M  V30 3395 C 333.503 -2.22694 -0.702116 0
M  V30 3396 C 334.484 -1.19432 -1.2112 0
M  V30 3397 O 335.669 -1.47978 -1.25762 0
M  V30 3398 C 332.799 -2.8966 -1.9161 0
M  V30 3399 C 331.753 -3.9928 -1.5414 0
M  V30 3400 C 331.079 -4.53476 -2.83308 0
M  V30 3401 C 332.379 -5.17012 -0.741339 0
M  V30 3402 H 334.073 -2.99034 -0.147898 0
M  V30 3403 H 331.619 -1.43831 -0.0696951 0
M  V30 3404 H 333.572 -3.34852 -2.55836 0
M  V30 3405 H 332.296 -2.10746 -2.49507 0
M  V30 3406 H 330.955 -3.54799 -0.922668 0
M  V30 3407 H 330.603 -3.71308 -3.39322 0
M  V30 3408 H 330.303 -5.27451 -2.58976 0
M  V30 3409 H 331.827 -5.01378 -3.485 0
M  V30 3410 H 333.241 -5.58667 -1.28699 0
M  V30 3411 H 331.638 -5.97137 -0.595627 0
M  V30 3412 H 332.708 -4.8423 0.254851 0
M  V30 3413 N 334.051 0.0651679 -1.57465 0
M  V30 3414 C 335.299 0.761555 -1.87202 0
M  V30 3415 C 335.62 1.77778 -0.801243 0
M  V30 3416 O 334.89 1.95166 0.16937 0
M  V30 3417 H 333.47 0.284251 -0.690804 0
M  V30 3418 H 336.132 0.0396827 -1.9486 0
M  V30 3419 H 335.228 1.27365 -2.84929 0
M  V30 3420 N 335.529 1.53961 0.336706 0
M  V30 3421 C 336.461 1.78751 1.4346 0
M  V30 3422 C 337.474 0.669019 1.48418 0
M  V30 3423 O 338.663 0.945884 1.51378 0
M  V30 3424 C 335.763 1.87844 2.82078 0
M  V30 3425 C 334.936 3.17854 3.00479 0
M  V30 3426 C 333.995 3.17816 4.19379 0
M  V30 3427 O 333.021 3.91511 4.13168 0
M  V30 3428 N 334.223 2.40669 5.2826 0
M  V30 3429 H 336.988 2.73493 1.22563 0
M  V30 3430 H 334.549 1.53096 0.526625 0
M  V30 3431 H 336.541 1.85261 3.59806 0
M  V30 3432 H 335.111 1.00257 2.96086 0
M  V30 3433 H 334.331 3.33504 2.10163 0
M  V30 3434 H 335.619 4.03718 3.0966 0
M  V30 3435 H 335.017 1.8036 5.36178 0
M  V30 3436 H 333.574 2.43877 6.04456 0
M  V30 3437 N 337.007 -0.598083 1.45811 0
M  V30 3438 C 337.97 -1.69018 1.54808 0
M  V30 3439 C 338.97 -1.55037 0.426652 0
M  V30 3440 O 340.16 -1.59932 0.690456 0
M  V30 3441 C 337.292 -3.0835 1.45371 0
M  V30 3442 H 338.485 -1.62403 2.52121 0
M  V30 3443 H 336.038 -0.814626 1.33392 0
M  V30 3444 H 336.773 -3.20534 0.492793 0
M  V30 3445 H 336.558 -3.19907 2.26721 0
M  V30 3446 H 338.048 -3.8788 1.54721 0
M  V30 3447 N 338.485 -1.33259 -0.841409 0
M  V30 3448 C 339.415 -1.25926 -1.96634 0
M  V30 3449 C 340.396 -0.140349 -1.6952 0
M  V30 3450 O 341.581 -0.329707 -1.91381 0
M  V30 3451 C 338.711 -0.99512 -3.32738 0
M  V30 3452 C 337.665 -2.0767 -3.74242 0
M  V30 3453 C 336.991 -1.66474 -5.08125 0
M  V30 3454 C 338.291 -3.49318 -3.88297 0
M  V30 3455 H 339.985 -2.20046 -2.03027 0
M  V30 3456 H 337.531 -1.05931 -0.975425 0
M  V30 3457 H 339.484 -0.930323 -4.11002 0
M  V30 3458 H 338.208 -0.0183004 -3.26595 0
M  V30 3459 H 336.867 -2.13187 -2.98239 0
M  V30 3460 H 336.515 -0.675012 -4.9845 0
M  V30 3461 H 336.215 -2.3885 -5.36865 0
M  V30 3462 H 337.739 -1.61455 -5.88867 0
M  V30 3463 H 339.153 -3.46316 -4.56879 0
M  V30 3464 H 337.55 -4.20158 -4.28471 0
M  V30 3465 H 338.62 -3.8801 -2.9082 0
M  V30 3466 N 339.963 1.05934 -1.16686 0
M  V30 3467 C 340.895 2.13468 -0.834503 0
M  V30 3468 C 341.908 1.62013 0.15984 0
M  V30 3469 O 343.097 1.7838 -0.0654228 0
M  V30 3470 C 340.197 3.3817 -0.222361 0
M  V30 3471 C 339.37 4.18928 -1.25771 0
M  V30 3472 C 338.429 5.21985 -0.664703 0
M  V30 3473 O 337.455 5.53334 -1.33453 0
M  V30 3474 N 338.657 5.77919 0.546834 0
M  V30 3475 H 341.422 2.42578 -1.75999 0
M  V30 3476 H 338.983 1.21967 -1.06469 0
M  V30 3477 H 340.975 4.04266 0.187472 0
M  V30 3478 H 339.545 3.06655 0.606758 0
M  V30 3479 H 338.765 3.48433 -1.84358 0
M  V30 3480 H 340.053 4.69687 -1.95631 0
M  V30 3481 H 339.451 5.54721 1.10912 0
M  V30 3482 H 338.008 6.45573 0.898829 0
M  V30 3483 N 341.441 0.965919 1.2453 0
M  V30 3484 C 342.718 0.543777 1.87889 0
M  V30 3485 C 343.098 -0.97909 1.87021 0
M  V30 3486 O 342.446 -1.84969 1.3416 0
M  V30 3487 C 342.656 1.13327 3.30088 0
M  V30 3488 C 344.004 1.21707 4.06783 0
M  V30 3489 O 345.028 1.08566 3.39252 0
M  V30 3490 O 343.887 1.42456 5.27606 0
M  V30 3491 H 340.981 0.181054 0.806938 0
M  V30 3492 H 343.527 1.06007 1.32516 0
M  V30 3493 H 342.299 2.17612 3.25209 0
M  V30 3494 H 341.922 0.600911 3.93033 0
M  V30 3495 N 342.919 -1.39368 0.735821 0
M  V30 3496 C 344.144 -2.05319 0.293052 0
M  V30 3497 C 344.569 -1.55115 -1.064 0
M  V30 3498 O 343.927 -0.695261 -1.67439 0
M  V30 3499 C 343.975 -3.59305 0.305323 0
M  V30 3500 O 343.079 -4.06299 -0.706761 0
M  V30 3501 H 342.42 -0.650529 0.13307 0
M  V30 3502 H 344.95 -1.78386 1.00197 0
M  V30 3503 H 344.96 -4.07724 0.149997 0
M  V30 3504 H 343.635 -3.95207 1.29553 0
M  V30 3505 H 342.212 -3.69292 -0.517504 0
M  V30 3506 N 344.397 -0.483516 -1.5 0
M  V30 3507 C 345.813 -0.138404 -1.58999 0
M  V30 3508 C 346.013 1.35597 -1.4905 0
M  V30 3509 O 345.069 2.13039 -1.35539 0
M  V30 3510 C 346.382 -0.699658 -2.92447 0
M  V30 3511 C 347.93 -0.664195 -3.05872 0
M  V30 3512 C 348.405 -1.20321 -4.41913 0
M  V30 3513 N 349.896 -1.16315 -4.48358 0
M  V30 3514 C 350.631 -1.55058 -5.52037 0
M  V30 3515 N 350.127 -2.01311 -6.62907 0
M  V30 3516 N 351.92 -1.46584 -5.42651 0
M  V30 3517 H 344.071 -1.45529 -1.5471 0
M  V30 3518 H 346.334 -0.60258 -0.731848 0
M  V30 3519 H 346.04 -1.747 -3.05242 0
M  V30 3520 H 345.914 -0.150194 -3.76901 0
M  V30 3521 H 348.301 0.374272 -2.92717 0
M  V30 3522 H 348.382 -1.25061 -2.23144 0
M  V30 3523 H 348.026 -2.24037 -4.55818 0
M  V30 3524 H 347.956 -0.592896 -5.23252 0
M  V30 3525 H 350.447 -0.824058 -3.68806 0
M  V30 3526 H 350.76 -2.2899 -7.38095 0
M  V30 3527 H 349.105 -2.05273 -6.63994 0
M  V30 3528 H 352.296 -1.10281 -4.54924 0
M  V30 3529 H 352.469 -1.77103 -6.23329 0
M  V30 3530 N 345.875 1.56104 -0.216619 0
M  V30 3531 C 346.823 2.21434 0.712036 0
M  V30 3532 C 347.817 1.19218 1.20348 0
M  V30 3533 O 349.023 1.3731 1.16387 0
M  V30 3534 H 345.398 0.70992 0.248026 0
M  V30 3535 H 347.369 2.98083 0.137558 0
M  V30 3536 C 346.118 2.90434 1.91163 0
M  V30 3537 H 345.441 3.68842 1.54258 0
M  V30 3538 H 346.881 3.39552 2.5393 0
M  V30 3539 C 345.34 1.92635 2.76394 0
M  V30 3540 O 345.87 1.44017 3.74996 0
M  V30 3541 N 344.076 1.60392 2.42328 0
M  V30 3542 H 343.623 2.00122 1.622 0
M  V30 3543 H 343.581 0.952159 2.99635 0
M  V30 3544 N 347.353 -0.0568162 1.57498 0
M  V30 3545 C 348.583 -0.764515 1.91934 0
M  V30 3546 C 348.991 -1.70877 0.81227 0
M  V30 3547 O 348.334 -1.82351 -0.222213 0
M  V30 3548 C 348.396 -1.5994 3.21962 0
M  V30 3549 C 348.06 -0.822925 4.4953 0
M  V30 3550 C 349.057 -0.135464 5.19723 0
M  V30 3551 C 346.742 -0.785666 4.96117 0
M  V30 3552 C 348.736 0.578861 6.34766 0
M  V30 3553 C 346.423 -0.0675784 6.11063 0
M  V30 3554 C 347.421 0.613471 6.80239 0
M  V30 3555 O 347.109 1.31996 7.92989 0
M  V30 3556 H 346.841 -0.221647 0.63863 0
M  V30 3557 H 349.395 -0.0268218 2.05382 0
M  V30 3558 H 347.625 -2.38026 3.04763 0
M  V30 3559 H 349.314 -2.18715 3.41934 0
M  V30 3560 H 350.08 -0.155458 4.84751 0
M  V30 3561 H 345.959 -1.30524 4.42136 0
M  V30 3562 H 349.503 1.111 6.88696 0
M  V30 3563 H 345.4 -0.0455636 6.45484 0
M  V30 3564 H 346.168 1.23077 8.09194 0
M  V30 3565 N 348.832 -1.54138 -0.328536 0
M  V30 3566 C 350.08 -1.71765 -1.06496 0
M  V30 3567 C 350.401 -0.49149 -1.88704 0
M  V30 3568 O 349.671 0.494539 -1.89555 0
M  V30 3569 H 348.251 -0.633295 -0.396164 0
M  V30 3570 H 350.913 -1.91429 -0.366176 0
M  V30 3571 H 350.009 -2.5951 -1.73381 0
M  V30 3572 N 350.31 0.590341 -1.46126 0
M  V30 3573 C 351.556 1.34874 -1.52252 0
M  V30 3574 C 351.911 1.91658 -0.168807 0
M  V30 3575 O 351.204 1.73093 0.821556 0
M  V30 3576 C 351.398 2.5032 -2.55097 0
M  V30 3577 C 351.227 2.04843 -4.00337 0
M  V30 3578 C 349.997 1.90213 -4.68132 0
M  V30 3579 C 352.195 1.61267 -4.88362 0
M  V30 3580 N 350.177 1.38727 -5.9802 0
M  V30 3581 C 351.548 1.21319 -6.08015 0
M  V30 3582 C 353.603 1.49015 -4.75078 0
M  V30 3583 C 352.306 0.7034 -7.15852 0
M  V30 3584 C 354.332 0.994401 -5.8298 0
M  V30 3585 C 353.694 0.604659 -7.018 0
M  V30 3586 H 349.793 0.486803 -0.612002 0
M  V30 3587 H 352.377 0.673007 -1.82698 0
M  V30 3588 H 350.548 3.15466 -2.26574 0
M  V30 3589 H 352.28 3.1725 -2.51266 0
M  V30 3590 H 349.035 2.11927 -4.23537 0
M  V30 3591 H 349.459 1.15168 -6.67132 0
M  V30 3592 H 354.101 1.77768 -3.83612 0
M  V30 3593 H 351.819 0.403446 -8.07092 0
M  V30 3594 H 355.405 0.903621 -5.7474 0
M  V30 3595 H 354.285 0.226963 -7.83871 0
M  V30 3596 N 351.788 1.33704 0.83433 0
M  V30 3597 C 352.735 1.24335 1.94447 0
M  V30 3598 C 353.705 0.120991 1.65659 0
M  V30 3599 O 354.89 0.300035 1.88426 0
M  V30 3600 C 352.03 0.993124 3.30501 0
M  V30 3601 C 351.143 2.20217 3.71657 0
M  V30 3602 C 350.278 1.88572 4.96602 0
M  V30 3603 C 349.317 3.05683 5.30306 0
M  V30 3604 N 348.454 2.73997 6.46429 0
M  V30 3605 H 353.294 2.1928 2.01792 0
M  V30 3606 H 350.831 1.09035 0.987404 0
M  V30 3607 H 352.789 0.828467 4.08892 0
M  V30 3608 H 351.419 0.0803902 3.227 0
M  V30 3609 H 350.471 2.47642 2.88752 0
M  V30 3610 H 351.783 3.07752 3.92543 0
M  V30 3611 H 350.937 1.68776 5.82752 0
M  V30 3612 H 349.676 0.982799 4.77695 0
M  V30 3613 H 348.681 3.26088 4.42659 0
M  V30 3614 H 349.906 3.96737 5.51159 0
M  V30 3615 H 347.852 1.86268 6.28999 0
M  V30 3616 H 347.769 3.55064 6.67432 0
M  V30 3617 H 349.037 2.57679 7.35678 0
M  V30 3618 N 353.266 -1.05314 1.17247 0
M  V30 3619 C 354.512 -1.78557 0.961513 0
M  V30 3620 C 354.845 -1.87419 -0.508697 0
M  V30 3621 O 354.12 -1.37307 -1.37757 0
M  V30 3622 C 354.403 -3.22514 1.60176 0
M  V30 3623 C 354.256 -3.21673 3.14399 0
M  V30 3624 C 355.575 -4.20318 1.30463 0
M  V30 3625 H 352.694 -0.6482 0.350723 0
M  V30 3626 H 355.336 -1.23102 1.44727 0
M  V30 3627 H 353.486 -3.69867 1.18871 0
M  V30 3628 H 355.158 -2.82405 3.64753 0
M  V30 3629 H 353.401 -2.60048 3.47214 0
M  V30 3630 H 354.072 -4.23271 3.54324 0
M  V30 3631 H 356.548 -3.81454 1.66229 0
M  V30 3632 H 355.424 -5.19289 1.77848 0
M  V30 3633 H 355.685 -4.41526 0.22521 0
M  V30 3634 N 354.744 -0.972509 -1.24016 0
M  V30 3635 C 355.654 -0.5143 -2.28893 0
M  V30 3636 C 356.67 0.427078 -1.68677 0
M  V30 3637 O 357.846 0.298939 -1.99169 0
M  V30 3638 C 354.911 0.183598 -3.46214 0
M  V30 3639 C 353.972 -0.798202 -4.21814 0
M  V30 3640 C 353.205 -0.133514 -5.33533 0
M  V30 3641 O 353.428 1.07714 -5.60137 0
M  V30 3642 O 352.362 -0.828103 -5.96176 0
M  V30 3643 H 356.188 -1.38629 -2.70214 0
M  V30 3644 H 353.773 -0.739769 -1.29799 0
M  V30 3645 H 355.655 0.575433 -4.17453 0
M  V30 3646 H 354.33 1.03048 -3.0686 0
M  V30 3647 H 353.237 -1.24059 -3.52931 0
M  V30 3648 H 354.57 -1.61364 -4.64997 0
M  V30 3649 N 356.222 1.38976 -0.743202 0
M  V30 3650 C 357.132 2.3434 -0.110399 0
M  V30 3651 C 358.148 1.58741 0.712559 0
M  V30 3652 O 359.324 1.9099 0.639125 0
M  V30 3653 C 356.389 3.37812 0.780012 0
M  V30 3654 C 355.45 4.29263 -0.0561319 0
M  V30 3655 C 354.683 5.27793 0.791875 0
M  V30 3656 O 354.906 5.33043 2.03031 0
M  V30 3657 O 353.84 6.01512 0.216183 0
M  V30 3658 H 357.666 2.90129 -0.897714 0
M  V30 3659 H 355.251 1.40643 -0.503966 0
M  V30 3660 H 357.133 4.01194 1.28923 0
M  V30 3661 H 355.808 2.84395 1.546 0
M  V30 3662 H 354.715 3.69076 -0.611056 0
M  V30 3663 H 356.048 4.85907 -0.784531 0
M  V30 3664 N 357.7 0.491464 1.49741 0
M  V30 3665 C 358.928 -0.0535151 2.06831 0
M  V30 3666 C 359.343 -1.31683 1.35296 0
M  V30 3667 O 358.7 -1.77402 0.42836 0
M  V30 3668 C 358.751 -0.320835 3.60073 0
M  V30 3669 O 358.472 0.892394 4.28915 0
M  V30 3670 C 359.973 -0.910519 4.33848 0
M  V30 3671 H 357.193 0.0161909 0.670805 0
M  V30 3672 H 359.737 0.68609 1.92647 0
M  V30 3673 H 357.892 -1.0104 3.73991 0
M  V30 3674 H 358.306 0.649401 5.20464 0
M  V30 3675 H 359.78 -1.04721 5.41976 0
M  V30 3676 H 360.257 -1.90589 3.95692 0
M  V30 3677 H 360.863 -0.258712 4.24512 0
M  V30 3678 N 359.178 -1.55987 0.224894 0
M  V30 3679 C 360.424 -1.98684 -0.406502 0
M  V30 3680 C 360.757 -1.11248 -1.59177 0
M  V30 3681 O 360.032 -0.170909 -1.93748 0
M  V30 3682 C 360.315 -3.50218 -0.837808 0
M  V30 3683 C 360.168 -4.48426 0.351332 0
M  V30 3684 C 361.487 -4.06243 -1.69278 0
M  V30 3685 H 358.606 -0.722337 -0.146283 0
M  V30 3686 H 361.248 -1.87255 0.321799 0
M  V30 3687 H 359.398 -3.60089 -1.45837 0
M  V30 3688 H 361.07 -4.50562 0.989526 0
M  V30 3689 H 359.313 -4.22159 0.998207 0
M  V30 3690 H 359.984 -5.52 0.00655905 0
M  V30 3691 H 362.46 -3.99337 -1.16914 0
M  V30 3692 H 361.336 -5.12581 -1.96346 0
M  V30 3693 H 361.597 -3.53332 -2.65723 0
M  V30 3694 N 360.656 0.0484629 -1.57525 0
M  V30 3695 C 361.603 1.05504 -2.05275 0
M  V30 3696 C 362.573 1.37084 -0.937927 0
M  V30 3697 O 363.758 1.47754 -1.2072 0
M  V30 3698 C 360.898 2.35676 -2.52093 0
M  V30 3699 C 360.011 2.10423 -3.77288 0
M  V30 3700 C 359.146 3.34327 -4.12794 0
M  V30 3701 C 358.185 3.04542 -5.30962 0
M  V30 3702 N 357.322 4.20841 -5.61994 0
M  V30 3703 H 362.162 0.640885 -2.91027 0
M  V30 3704 H 359.699 0.304854 -1.43906 0
M  V30 3705 H 361.657 3.11709 -2.77297 0
M  V30 3706 H 360.287 2.7485 -1.69285 0
M  V30 3707 H 359.339 1.24976 -3.59284 0
M  V30 3708 H 360.651 1.84438 -4.63448 0
M  V30 3709 H 359.805 4.1874 -4.39024 0
M  V30 3710 H 358.544 3.63408 -3.25247 0
M  V30 3711 H 357.549 2.18528 -5.04505 0
M  V30 3712 H 358.774 2.76758 -6.20146 0
M  V30 3713 H 356.72 4.4991 -4.77406 0
M  V30 3714 H 356.637 3.98212 -6.42622 0
M  V30 3715 H 357.905 5.06184 -5.92789 0
M  V30 3716 N 362.134 1.5431 0.320358 0
M  V30 3717 C 363.084 1.803 1.39556 0
M  V30 3718 C 364.068 0.659166 1.46778 0
M  V30 3719 O 365.26 0.91926 1.51257 0
M  V30 3720 C 362.389 2.03665 2.76361 0
M  V30 3721 C 361.475 3.24178 2.73439 0
M  V30 3722 N 361.866 4.4516 2.40137 0
M  V30 3723 C 360.164 3.25816 3.04565 0
M  V30 3724 C 360.865 5.27109 2.4603 0
M  V30 3725 N 359.841 4.64368 2.82601 0
M  V30 3726 H 363.643 2.71416 1.12742 0
M  V30 3727 H 361.157 1.53548 0.528856 0
M  V30 3728 H 363.154 2.20425 3.53862 0
M  V30 3729 H 361.814 1.13805 3.04103 0
M  V30 3730 H 362.825 4.72104 2.12927 0
M  V30 3731 H 359.502 2.46001 3.37328 0
M  V30 3732 H 360.892 6.33728 2.23246 0
M  V30 3733 N 363.613 -0.582584 1.46437 0
M  V30 3734 C 364.89 -1.34276 1.4223 0
M  V30 3735 C 365.27 -2.10835 0.10583 0
M  V30 3736 O 364.618 -2.09485 -0.912596 0
M  V30 3737 C 364.828 -2.26865 2.65204 0
M  V30 3738 C 366.176 -2.88691 3.11356 0
M  V30 3739 O 367.2 -2.37178 2.65753 0
M  V30 3740 O 366.059 -3.82255 3.90568 0
M  V30 3741 H 363.153 -0.603326 0.565621 0
M  V30 3742 H 365.699 -0.603591 1.58603 0
M  V30 3743 H 364.471 -1.69724 3.52576 0
M  V30 3744 H 364.094 -3.08122 2.5129 0
M  V30 3745 N 365.091 -1.34144 -0.827227 0
M  V30 3746 C 366.337 -1.27455 -1.58515 0
M  V30 3747 C 366.692 0.155271 -1.91772 0
M  V30 3748 O 365.985 1.10042 -1.56848 0
M  V30 3749 C 366.179 -2.09464 -2.89585 0
M  V30 3750 C 366.008 -3.60276 -2.69131 0
M  V30 3751 C 364.778 -4.29565 -2.66087 0
M  V30 3752 C 366.976 -4.54367 -2.40947 0
M  V30 3753 N 364.958 -5.66252 -2.37132 0
M  V30 3754 C 366.329 -5.79027 -2.21648 0
M  V30 3755 C 368.384 -4.43327 -2.26639 0
M  V30 3756 C 367.087 -6.93891 -1.89492 0
M  V30 3757 C 369.113 -5.58019 -1.95878 0
M  V30 3758 C 368.475 -6.81695 -1.774 0
M  V30 3759 H 364.574 -0.521614 -0.582617 0
M  V30 3760 H 367.158 -1.68811 -0.970105 0
M  V30 3761 H 365.329 -1.70411 -3.49019 0
M  V30 3762 H 367.061 -1.94453 -3.54923 0
M  V30 3763 H 363.816 -3.81959 -2.80008 0
M  V30 3764 H 364.24 -6.38338 -2.25507 0
M  V30 3765 H 368.882 -3.48333 -2.39633 0
M  V30 3766 H 366.6 -7.88871 -1.75236 0
M  V30 3767 H 370.186 -5.5142 -1.85546 0
M  V30 3768 H 369.066 -7.68942 -1.53941 0
M  V30 3769 N 366.569 1.04691 -1.17803 0
M  V30 3770 C 367.846 1.7472 -0.879328 0
M  V30 3771 C 368.226 2.01812 0.619271 0
M  V30 3772 O 367.574 1.65824 1.57209 0
M  V30 3773 C 367.784 3.03686 -1.71976 0
M  V30 3774 C 369.132 3.77542 -1.94286 0
M  V30 3775 O 370.156 3.13569 -1.68976 0
M  V30 3776 O 369.015 4.92506 -2.36855 0
M  V30 3777 H 366.109 0.760011 -0.326056 0
M  V30 3778 H 368.655 1.10813 -1.28525 0
M  V30 3779 H 367.427 2.79754 -2.73594 0
M  V30 3780 H 367.05 3.75332 -1.31194 0
M  V30 3781 N 368.047 0.979072 1.23499 0
M  V30 3782 C 369.463 0.687475 1.44034 0
M  V30 3783 C 369.663 -0.746801 1.8715 0
M  V30 3784 O 368.719 -1.51939 2.0167 0
M  V30 3785 C 370.032 1.68127 2.49307 0
M  V30 3786 C 371.58 1.69516 2.63122 0
M  V30 3787 C 372.055 2.67723 3.71603 0
M  V30 3788 N 373.546 2.66233 3.79044 0
M  V30 3789 C 374.281 3.38891 4.62537 0
M  V30 3790 N 373.777 4.21103 5.50131 0
M  V30 3791 N 375.57 3.27661 4.56721 0
M  V30 3792 H 367.721 1.90559 0.938135 0
M  V30 3793 H 369.984 0.821051 0.473897 0
M  V30 3794 H 369.69 2.70693 2.2454 0
M  V30 3795 H 369.564 1.46306 3.4767 0
M  V30 3796 H 371.951 0.676561 2.8724 0
M  V30 3797 H 372.032 1.95404 1.65079 0
M  V30 3798 H 371.676 3.69724 3.48233 0
M  V30 3799 H 371.606 2.39111 4.69184 0
M  V30 3800 H 374.097 2.06568 3.16446 0
M  V30 3801 H 374.41 4.73403 6.10827 0
M  V30 3802 H 372.755 4.25195 5.49759 0
M  V30 3803 H 375.946 2.62887 3.87309 0
M  V30 3804 H 376.119 3.84547 5.21562 0
M  V30 3805 N 369.525 -1.3858 0.750561 0
M  V30 3806 C 370.458 -2.28095 0.0693139 0
M  V30 3807 C 371.436 -1.45217 -0.731491 0
M  V30 3808 O 372.62 -1.74587 -0.71076 0
M  V30 3809 C 369.747 -3.26282 -0.90871 0
M  V30 3810 C 368.793 -4.26056 -0.194507 0
M  V30 3811 S 369.626 -5.24026 1.10257 0
M  V30 3812 C 370.782 -6.2577 0.127542 0
M  V30 3813 H 371.015 -2.85526 0.8284 0
M  V30 3814 H 368.548 -1.44536 0.543014 0
M  V30 3815 H 370.506 -3.83367 -1.46766 0
M  V30 3816 H 369.167 -2.6784 -1.64075 0
M  V30 3817 H 368.36 -4.95249 -0.93512 0
M  V30 3818 H 367.962 -3.72852 0.292837 0
M  V30 3819 H 370.254 -6.73796 -0.707516 0
M  V30 3820 H 371.197 -7.03712 0.787044 0
M  V30 3821 H 371.605 -5.63938 -0.251803 0
M  V30 3822 N 371.003 -0.499398 -1.49478 0
M  V30 3823 C 372.252 0.0475259 -2.01644 0
M  V30 3824 C 372.565 1.38195 -1.38425 0
M  V30 3825 O 373.771 2.01547 -1.8191 0
M  V30 3826 C 372.227 0.135164 -3.59646 0
M  V30 3827 C 371.835 -1.19252 -4.31837 0
M  V30 3828 C 373.579 0.632538 -4.19761 0
M  V30 3829 C 371.486 -1.06713 -5.81693 0
M  V30 3830 H 370.416 0.0215349 -0.753692 0
M  V30 3831 H 373.067 -0.638577 -1.7203 0
M  V30 3832 H 371.449 0.885681 -3.85969 0
M  V30 3833 H 372.623 -1.9562 -4.17216 0
M  V30 3834 H 370.938 -1.62321 -3.83459 0
M  V30 3835 H 373.535 0.743833 -5.29501 0
M  V30 3836 H 373.878 1.63098 -3.83021 0
M  V30 3837 H 374.411 -0.0613987 -3.97753 0
M  V30 3838 H 371.15 -2.03979 -6.22955 0
M  V30 3839 H 370.67 -0.344307 -5.98811 0
M  V30 3840 H 372.349 -0.745208 -6.42694 0
M  V30 3841 N 372.481 1.55866 -0.233164 0
M  V30 3842 C 373.391 2.24431 0.683217 0
M  V30 3843 C 374.407 1.2558 1.2044 0
M  V30 3844 O 375.583 1.58422 1.24356 0
M  V30 3845 C 372.648 2.91979 1.86947 0
M  V30 3846 C 371.709 4.06204 1.38912 0
M  V30 3847 C 370.942 4.70522 2.51883 0
M  V30 3848 O 371.165 4.33865 3.70293 0
M  V30 3849 O 370.099 5.59296 2.22423 0
M  V30 3850 H 373.925 3.03426 0.129059 0
M  V30 3851 H 371.51 1.494 -0.0022283 0
M  V30 3852 H 373.392 3.34573 2.56201 0
M  V30 3853 H 372.067 2.15935 2.41151 0
M  V30 3854 H 370.974 3.68155 0.664259 0
M  V30 3855 H 372.307 4.84025 0.893328 0
M  V30 3856 N 373.959 -0.0401083 1.57549 0
M  V30 3857 C 374.922 -1.02871 2.04817 0
M  V30 3858 C 375.922 -1.29708 0.950388 0
M  V30 3859 O 377.112 -1.24897 1.21435 0
M  V30 3860 C 374.244 -2.36443 2.45576 0
M  V30 3861 H 375.437 -0.620631 2.93408 0
M  V30 3862 H 372.99 -0.286667 1.53649 0
M  V30 3863 H 373.725 -2.82021 1.60108 0
M  V30 3864 H 373.51 -2.18296 3.25713 0
M  V30 3865 H 375 -3.07441 2.82612 0
M  V30 3866 N 375.437 -1.54477 -0.31217 0
M  V30 3867 C 376.683 -1.73483 -1.0503 0
M  V30 3868 C 377.016 -0.513125 -1.87298 0
M  V30 3869 O 376.291 0.489864 -1.8823 0
M  V30 3870 C 376.574 -3.01723 -1.96558 0
M  V30 3871 C 376.427 -4.3417 -1.17545 0
M  V30 3872 C 377.746 -3.25772 -2.95907 0
M  V30 3873 H 374.865 -0.631222 -0.380432 0
M  V30 3874 H 377.507 -1.87184 -0.325932 0
M  V30 3875 H 375.657 -2.90174 -2.58324 0
M  V30 3876 H 377.329 -4.5762 -0.581513 0
M  V30 3877 H 375.572 -4.31159 -0.477925 0
M  V30 3878 H 376.243 -5.20143 -1.84811 0
M  V30 3879 H 378.719 -3.36857 -2.44267 0
M  V30 3880 H 377.595 -4.16838 -3.57123 0
M  V30 3881 H 377.856 -2.43537 -3.68974 0
M  V30 3882 N 376.915 0.57481 -1.46744 0
M  V30 3883 C 377.847 1.69804 -1.53946 0
M  V30 3884 C 378.86 1.57098 -0.427106 0
M  V30 3885 O 380.049 1.64378 -0.695863 0
M  V30 3886 C 377.149 3.08125 -1.4111 0
M  V30 3887 C 376.322 3.46757 -2.66605 0
M  V30 3888 C 375.381 4.6417 -2.47855 0
M  V30 3889 O 374.407 4.69634 -3.21609 0
M  V30 3890 N 375.609 5.59553 -1.54534 0
M  V30 3891 H 378.374 1.64077 -2.50796 0
M  V30 3892 H 375.935 0.761 -1.429 0
M  V30 3893 H 377.927 3.84478 -1.26328 0
M  V30 3894 H 376.497 3.08175 -0.524109 0
M  V30 3895 H 375.717 2.6003 -2.96274 0
M  V30 3896 H 377.005 3.69337 -3.49954 0
M  V30 3897 H 376.403 5.57881 -0.937304 0
M  V30 3898 H 374.96 6.35304 -1.45711 0
M  V30 3899 N 378.394 1.34581 0.820102 0
M  V30 3900 C 379.342 1.26401 1.95258 0
M  V30 3901 C 380.336 0.161553 1.68628 0
M  V30 3902 O 381.542 0.326703 1.7701 0
M  V30 3903 H 377.917 0.392749 0.64129 0
M  V30 3904 H 379.888 2.22105 1.99279 0
M  V30 3905 C 378.637 1.03919 3.31807 0
M  V30 3906 H 377.96 1.87984 3.52848 0
M  V30 3907 H 379.4 1.02232 4.11491 0
M  V30 3908 C 377.859 -0.257433 3.35915 0
M  V30 3909 O 378.389 -1.25784 3.81499 0
M  V30 3910 N 376.595 -0.291524 2.89134 0
M  V30 3911 H 376.142 0.523161 2.52232 0
M  V30 3912 H 376.1 -1.15883 2.92264 0
M  V30 3913 N 379.872 -1.04064 1.18357 0
M  V30 3914 C 380.822 -2.10393 0.878561 0
M  V30 3915 C 381.806 -1.60183 -0.151713 0
M  V30 3916 O 382.998 -1.76923 0.0523303 0
M  V30 3917 C 380.127 -3.4089 0.406096 0
M  V30 3918 C 379.213 -3.97866 1.46844 0
M  V30 3919 N 379.604 -4.28657 2.68489 0
M  V30 3920 C 377.902 -4.2574 1.32896 0
M  V30 3921 C 378.603 -4.74253 3.36836 0
M  V30 3922 N 377.579 -4.75068 2.64219 0
M  V30 3923 H 381.381 -2.32076 1.80327 0
M  V30 3924 H 378.895 -1.21818 1.07397 0
M  V30 3925 H 380.892 -4.16557 0.169088 0
M  V30 3926 H 379.552 -3.20633 -0.512275 0
M  V30 3927 H 380.563 -4.18304 3.05356 0
M  V30 3928 H 377.24 -4.1481 0.473134 0
M  V30 3929 H 378.63 -5.07096 4.40798 0
M  V30 3930 N 381.35 -0.985608 -1.22978 0
M  V30 3931 C 382.599 -0.652881 -1.90841 0
M  V30 3932 C 382.912 0.817842 -1.77681 0
M  V30 3933 O 384.118 1.26185 -2.40395 0
M  V30 3934 C 382.574 -1.11717 -3.42122 0
M  V30 3935 C 382.182 -2.6126 -3.63933 0
M  V30 3936 C 383.926 -0.85843 -4.1573 0
M  V30 3937 C 381.833 -3.0133 -5.08876 0
M  V30 3938 H 380.763 -0.240491 -0.714619 0
M  V30 3939 H 383.414 -1.1942 -1.39324 0
M  V30 3940 H 381.796 -0.504027 -3.92779 0
M  V30 3941 H 382.97 -3.27858 -3.23799 0
M  V30 3942 H 381.285 -2.84937 -3.03644 0
M  V30 3943 H 383.882 -1.13359 -5.22546 0
M  V30 3944 H 384.225 0.205461 -4.15793 0
M  V30 3945 H 384.758 -1.43341 -3.71077 0
M  V30 3946 H 381.497 -4.06864 -5.13947 0
M  V30 3947 H 381.017 -2.3943 -5.49939 0
M  V30 3948 H 382.696 -2.92224 -5.77247 0
M  V30 3949 N 382.828 1.3818 -0.7579 0
M  V30 3950 C 384.076 1.99624 -0.315361 0
M  V30 3951 C 384.397 1.60464 1.10799 0
M  V30 3952 O 383.667 0.863507 1.75842 0
M  V30 3953 H 382.247 0.73831 -0.113611 0
M  V30 3954 H 384.909 1.68878 -0.972952 0
M  V30 3955 H 384.005 3.09754 -0.381931 0
M  V30 3956 N 384.306 0.507319 1.49211 0
M  V30 3957 C 385.531 -0.033725 2.07373 0
M  V30 3958 C 385.956 -1.29485 1.36437 0
M  V30 3959 O 385.314 -1.76294 0.423087 0
M  V30 3960 C 385.362 -0.263945 3.59633 0
M  V30 3961 O 384.466 -1.33737 3.90113 0
M  V30 3962 H 383.807 0.0290331 0.663365 0
M  V30 3963 H 386.337 0.708749 1.91932 0
M  V30 3964 H 386.347 -0.493536 4.05004 0
M  V30 3965 H 385.022 0.657424 4.10671 0
M  V30 3966 H 383.599 -1.09224 3.56545 0
M  V30 3967 N 385.784 -1.5574 0.241426 0
M  V30 3968 C 386.714 -2.24133 -0.654722 0
M  V30 3969 C 387.695 -1.21974 -1.1856 0
M  V30 3970 O 388.88 -1.50612 -1.22595 0
M  V30 3971 C 386.01 -2.93659 -1.85423 0
M  V30 3972 C 384.964 -4.0246 -1.45636 0
M  V30 3973 C 384.29 -4.59383 -2.73626 0
M  V30 3974 C 385.59 -5.18468 -0.631506 0
M  V30 3975 H 387.284 -2.99281 -0.0844353 0
M  V30 3976 H 384.83 -1.43947 -0.0391707 0
M  V30 3977 H 386.783 -3.40203 -2.48676 0
M  V30 3978 H 385.507 -2.15991 -2.44981 0
M  V30 3979 H 384.166 -3.56676 -0.847202 0
M  V30 3980 H 383.814 -3.78422 -3.3137 0
M  V30 3981 H 383.514 -5.32826 -2.4773 0
M  V30 3982 H 385.038 -5.08658 -3.37786 0
M  V30 3983 H 386.452 -5.61272 -1.1682 0
M  V30 3984 H 384.849 -5.98266 -0.468831 0
M  V30 3985 H 385.919 -4.8358 0.357506 0
M  V30 3986 N 387.262 0.0317525 -1.57568 0
M  V30 3987 C 388.21 1.05165 -2.07468 0
M  V30 3988 C 389.204 1.3761 -0.98792 0
M  V30 3989 O 390.41 1.36546 -1.17282 0
M  V30 3990 H 386.785 0.35666 -0.66204 0
M  V30 3991 H 388.756 0.604958 -2.92203 0
M  V30 3992 C 387.505 2.34488 -2.56731 0
M  V30 3993 H 386.828 2.10383 -3.39969 0
M  V30 3994 H 388.268 3.04203 -2.95358 0
M  V30 3995 C 386.727 3.03266 -1.46736 0
M  V30 3996 O 387.257 3.92988 -0.832069 0
M  V30 3997 N 385.463 2.6455 -1.20256 0
M  V30 3998 H 385.01 1.91674 -1.72102 0
M  V30 3999 H 384.968 3.10886 -0.468737 0
M  V30 4000 N 388.74 1.54641 0.303973 0
M  V30 4001 C 389.986 1.74969 1.03718 0
M  V30 4002 C 390.341 0.527461 1.85029 0
M  V30 4003 O 389.634 -0.480143 1.85486 0
M  V30 4004 C 389.828 2.97753 1.97681 0
M  V30 4005 C 389.657 4.318 1.25613 0
M  V30 4006 C 388.427 4.95616 0.984518 0
M  V30 4007 C 390.625 5.10021 0.662081 0
M  V30 4008 N 388.607 6.13455 0.233794 0
M  V30 4009 C 389.978 6.19984 0.0439736 0
M  V30 4010 C 392.033 4.94663 0.566835 0
M  V30 4011 C 390.736 7.16264 -0.66016 0
M  V30 4012 C 392.762 5.91271 -0.123637 0
M  V30 4013 C 392.124 7.00601 -0.730608 0
M  V30 4014 H 388.223 0.692873 0.362562 0
M  V30 4015 H 390.807 1.92116 0.316135 0
M  V30 4016 H 388.978 2.82036 2.6704 0
M  V30 4017 H 390.71 3.06621 2.64132 0
M  V30 4018 H 387.465 4.55921 1.28191 0
M  V30 4019 H 387.889 6.76879 -0.127996 0
M  V30 4020 H 392.531 4.10267 1.02181 0
M  V30 4021 H 390.249 8.00204 -1.12691 0
M  V30 4022 H 393.835 5.81466 -0.197236 0
M  V30 4023 H 392.715 7.7407 -1.2564 0
M  V30 4024 N 390.218 -0.567019 1.47046 0
M  V30 4025 C 391.466 -1.322 1.52864 0
M  V30 4026 C 391.787 -1.94088 0.188388 0
M  V30 4027 O 391.057 -1.7941 -0.786693 0
M  V30 4028 H 389.637 -0.490894 0.563056 0
M  V30 4029 H 392.299 -0.662879 1.83281 0
M  V30 4030 H 391.395 -2.12062 2.2899 0
M  V30 4031 N 391.696 -1.35014 -0.812953 0
M  V30 4032 C 392.926 -1.30841 -1.59888 0
M  V30 4033 C 393.334 0.117576 -1.88834 0
M  V30 4034 O 392.677 1.07807 -1.48739 0
M  V30 4035 C 392.739 -2.0412 -2.95931 0
M  V30 4036 C 392.403 -3.53336 -2.89832 0
M  V30 4037 C 393.4 -4.48052 -2.63714 0
M  V30 4038 C 391.085 -3.95894 -3.0915 0
M  V30 4039 C 393.079 -5.833 -2.56982 0
M  V30 4040 C 390.766 -5.31239 -3.0204 0
M  V30 4041 C 391.764 -6.24754 -2.75991 0
M  V30 4042 O 391.452 -7.57617 -2.68833 0
M  V30 4043 H 391.184 -0.451215 -0.50337 0
M  V30 4044 H 393.738 -1.78354 -1.01877 0
M  V30 4045 H 391.968 -1.51235 -3.559 0
M  V30 4046 H 393.657 -1.93107 -3.57022 0
M  V30 4047 H 394.423 -4.16492 -2.48515 0
M  V30 4048 H 390.302 -3.23495 -3.28438 0
M  V30 4049 H 393.846 -6.56263 -2.36569 0
M  V30 4050 H 389.743 -5.62415 -3.16796 0
M  V30 4051 H 390.511 -7.67469 -2.84487 0
M  V30 4052 N 393.175 1.03435 -1.18907 0
M  V30 4053 C 394.591 1.28973 -0.940111 0
M  V30 4054 C 394.791 1.97676 0.390691 0
M  V30 4055 O 393.847 2.26127 1.12352 0
M  V30 4056 C 395.16 2.14221 -2.11021 0
M  V30 4057 C 396.708 2.27547 -2.14922 0
M  V30 4058 C 397.183 3.16164 -3.31367 0
M  V30 4059 N 398.674 3.23752 -3.31269 0
M  V30 4060 C 399.409 3.92495 -4.18014 0
M  V30 4061 N 398.905 4.63515 -5.14904 0
M  V30 4062 N 400.698 3.88838 -4.05908 0
M  V30 4063 H 392.849 0.57252 -2.04538 0
M  V30 4064 H 395.112 0.315184 -0.894071 0
M  V30 4065 H 394.818 1.71054 -3.073 0
M  V30 4066 H 394.692 3.14919 -2.0762 0
M  V30 4067 H 397.079 2.69947 -1.19217 0
M  V30 4068 H 397.16 1.26418 -2.22378 0
M  V30 4069 H 396.804 2.74474 -4.27348 0
M  V30 4070 H 396.734 4.17339 -3.21148 0
M  V30 4071 H 399.225 2.73167 -2.61129 0
M  V30 4072 H 399.538 5.13583 -5.77453 0
M  V30 4073 H 397.883 4.62398 -5.18857 0
M  V30 4074 H 401.074 3.32491 -3.29495 0
M  V30 4075 H 401.247 4.4214 -4.73726 0
M  V30 4076 N 394.653 0.992116 1.22453 0
M  V30 4077 C 395.899 0.668523 1.91464 0
M  V30 4078 C 396.232 -0.797313 1.77078 0
M  V30 4079 O 395.507 -1.5765 1.13916 0
M  V30 4080 C 395.79 1.07424 3.43703 0
M  V30 4081 C 395.643 2.59857 3.67143 0
M  V30 4082 C 396.962 0.626891 4.35612 0
M  V30 4083 H 394.081 0.244341 0.695318 0
M  V30 4084 H 396.723 1.2355 1.44345 0
M  V30 4085 H 394.873 0.591816 3.83966 0
M  V30 4086 H 396.545 3.15764 3.3629 0
M  V30 4087 H 394.788 3.01961 3.11451 0
M  V30 4088 H 395.459 2.83296 4.73759 0
M  V30 4089 H 397.935 1.04125 4.02861 0
M  V30 4090 H 396.811 0.939076 5.40807 0
M  V30 4091 H 397.072 -0.472457 4.39568 0
M  V30 4092 N 396.131 -1.37776 0.765217 0
M  V30 4093 C 397.094 -2.28686 0.153416 0
M  V30 4094 C 398.094 -1.47727 -0.635081 0
M  V30 4095 O 399.284 -1.68027 -0.459632 0
M  V30 4096 C 396.416 -3.31608 -0.790495 0
M  V30 4097 H 397.609 -2.84297 0.954723 0
M  V30 4098 H 395.162 -1.46932 0.53299 0
M  V30 4099 H 395.897 -2.81109 -1.61705 0
M  V30 4100 H 395.682 -3.9144 -0.227348 0
M  V30 4101 H 397.172 -3.99559 -1.21419 0
M  V30 4102 N 397.609 -0.515225 -1.4894 0
M  V30 4103 C 398.539 0.244628 -2.32215 0
M  V30 4104 C 399.52 0.949136 -1.41157 0
M  V30 4105 O 400.705 0.937783 -1.70057 0
M  V30 4106 C 397.835 1.30096 -3.22013 0
M  V30 4107 C 396.789 0.715486 -4.21977 0
M  V30 4108 C 396.115 1.87339 -5.00808 0
M  V30 4109 C 397.415 -0.302982 -5.2142 0
M  V30 4110 H 399.109 -0.450501 -2.95991 0
M  V30 4111 H 396.655 -0.218098 -1.42339 0
M  V30 4112 H 398.608 1.84037 -3.79089 0
M  V30 4113 H 397.332 2.02547 -2.56207 0
M  V30 4114 H 395.991 0.197715 -3.66066 0
M  V30 4115 H 395.639 2.58592 -4.31438 0
M  V30 4116 H 395.339 1.48764 -5.68457 0
M  V30 4117 H 396.863 2.41686 -5.60732 0
M  V30 4118 H 398.277 0.148802 -5.73107 0
M  V30 4119 H 396.674 -0.60532 -5.97039 0
M  V30 4120 H 397.744 -1.21395 -4.69459 0
M  V30 4121 N 399.087 1.5561 -0.249682 0
M  V30 4122 C 400.503 1.59254 0.105103 0
M  V30 4123 C 400.703 1.26685 1.56694 0
M  V30 4124 O 399.759 1.0155 2.31179 0
M  V30 4125 C 401.072 2.99687 -0.246592 0
M  V30 4126 C 402.62 3.12416 -0.191118 0
M  V30 4127 C 403.095 4.55074 -0.516885 0
M  V30 4128 N 404.586 4.60835 -0.467489 0
M  V30 4129 C 405.321 5.69201 -0.69268 0
M  V30 4130 N 404.817 6.85817 -0.981146 0
M  V30 4131 N 406.61 5.58635 -0.623198 0
M  V30 4132 H 398.761 1.75049 -1.20298 0
M  V30 4133 H 401.024 0.815003 -0.484225 0
M  V30 4134 H 400.73 3.28267 -1.26228 0
M  V30 4135 H 400.604 3.74798 0.424962 0
M  V30 4136 H 402.991 2.83615 0.815247 0
M  V30 4137 H 403.072 2.39573 -0.896563 0
M  V30 4138 H 402.716 4.84596 -1.52082 0
M  V30 4139 H 402.646 5.26181 0.210068 0
M  V30 4140 H 405.137 3.7705 -0.253373 0
M  V30 4141 H 405.45 7.64341 -1.14032 0
M  V30 4142 H 403.795 6.87494 -1.01865 0
M  V30 4143 H 406.986 4.66406 -0.397863 0
M  V30 4144 H 407.159 6.43017 -0.802093 0
M  V30 4145 N 400.565 -0.0233959 1.57583 0
M  V30 4146 C 401.475 -1.03907 2.10334 0
M  V30 4147 C 402.491 -1.39257 1.04323 0
M  V30 4148 O 403.667 -1.48462 1.36091 0
M  V30 4149 C 400.732 -2.31938 2.57693 0
M  V30 4150 C 399.793 -2.03117 3.78209 0
M  V30 4151 C 399.026 -3.25043 4.233 0
M  V30 4152 O 399.249 -4.35916 3.67876 0
M  V30 4153 O 398.183 -3.10411 5.15683 0
M  V30 4154 H 402.009 -0.620748 2.97288 0
M  V30 4155 H 399.594 -0.240743 1.47448 0
M  V30 4156 H 401.476 -3.07196 2.88458 0
M  V30 4157 H 400.151 -2.73055 1.73847 0
M  V30 4158 H 399.058 -1.25408 3.52454 0
M  V30 4159 H 400.391 -1.66852 4.63056 0
M  V30 4160 N 402.043 -1.548 -0.295768 0
M  V30 4161 C 402.99 -1.86113 -1.36494 0
M  V30 4162 C 403.96 -0.7105 -1.50137 0
M  V30 4163 O 405.145 -0.959626 -1.64912 0
M  V30 4164 C 402.285 -2.11861 -2.72413 0
M  V30 4165 C 401.398 -3.39471 -2.67177 0
M  V30 4166 C 400.533 -3.55035 -3.95125 0
M  V30 4167 C 399.572 -4.76418 -3.84308 0
M  V30 4168 N 398.709 -4.8876 -5.04042 0
M  V30 4169 H 403.549 -2.77314 -1.09091 0
M  V30 4170 H 401.086 -1.37315 -0.52753 0
M  V30 4171 H 403.044 -2.24786 -3.51464 0
M  V30 4172 H 401.674 -1.2392 -2.98066 0
M  V30 4173 H 400.726 -3.35139 -1.79962 0
M  V30 4174 H 402.038 -4.28646 -2.55076 0
M  V30 4175 H 401.192 -3.67653 -4.82614 0
M  V30 4176 H 399.931 -2.64002 -4.10066 0
M  V30 4177 H 398.936 -4.63827 -2.95202 0
M  V30 4178 H 400.161 -5.68863 -3.70906 0
M  V30 4179 H 398.107 -4.00652 -5.19436 0
M  V30 4180 H 398.024 -5.71945 -4.94384 0
M  V30 4181 H 399.292 -5.0574 -5.93167 0
M  V30 4182 N 403.521 0.559213 -1.47345 0
M  V30 4183 C 404.468 1.66645 -1.59682 0
M  V30 4184 C 405.438 1.60168 -0.43994 0
M  V30 4185 O 406.623 1.79031 -0.659736 0
M  V30 4186 C 403.763 3.04969 -1.61518 0
M  V30 4187 C 402.876 3.21897 -2.88108 0
M  V30 4188 C 402.011 4.50608 -2.81294 0
M  V30 4189 C 401.05 4.60961 -4.02717 0
M  V30 4190 N 400.187 5.81024 -3.94151 0
M  V30 4191 H 405.027 1.55439 -2.54249 0
M  V30 4192 H 402.564 0.757219 -1.26113 0
M  V30 4193 H 404.522 3.85064 -1.60566 0
M  V30 4194 H 403.152 3.15015 -0.704645 0
M  V30 4195 H 402.204 2.35248 -2.98936 0
M  V30 4196 H 403.516 3.25412 -3.78032 0
M  V30 4197 H 402.67 5.3896 -2.7858 0
M  V30 4198 H 401.409 4.49568 -1.89049 0
M  V30 4199 H 400.414 3.71021 -4.05738 0
M  V30 4200 H 401.639 4.63761 -4.96087 0
M  V30 4201 H 399.585 5.80938 -3.04708 0
M  V30 4202 H 399.502 5.85909 -4.77752 0
M  V30 4203 H 400.77 6.71744 -3.9545 0
M  V30 4204 N 404.999 1.35443 0.805782 0
M  V30 4205 C 406.245 1.28952 1.56522 0
M  V30 4206 C 406.578 -0.135597 1.93726 0
M  V30 4207 O 405.853 -1.08516 1.61414 0
M  V30 4208 C 406.136 2.19678 2.85331 0
M  V30 4209 C 405.989 3.7081 2.54598 0
M  V30 4210 C 407.308 2.09495 3.8704 0
M  V30 4211 H 404.427 0.469764 0.567883 0
M  V30 4212 H 407.069 1.65851 0.927001 0
M  V30 4213 H 405.219 1.8834 3.39795 0
M  V30 4214 H 406.891 4.12593 2.06312 0
M  V30 4215 H 405.134 3.91051 1.8778 0
M  V30 4216 H 405.805 4.29679 3.46525 0
M  V30 4217 H 408.281 2.37045 3.41978 0
M  V30 4218 H 407.157 2.75173 4.74943 0
M  V30 4219 H 407.418 1.07714 4.28777 0
M  V30 4220 N 406.477 -1.02803 1.19454 0
M  V30 4221 C 407.723 -1.76478 0.999171 0
M  V30 4222 C 408.056 -1.88456 -0.468828 0
M  V30 4223 O 407.331 -1.40198 -1.34814 0
M  V30 4224 C 407.614 -3.19044 1.66981 0
M  V30 4225 C 407.467 -3.14932 3.21151 0
M  V30 4226 C 408.786 -4.17456 1.39349 0
M  V30 4227 H 405.905 -0.640614 0.364393 0
M  V30 4228 H 408.547 -1.20005 1.47305 0
M  V30 4229 H 406.697 -3.67263 1.2669 0
M  V30 4230 H 408.369 -2.74605 3.70661 0
M  V30 4231 H 406.612 -2.52625 3.52652 0
M  V30 4232 H 407.283 -4.1566 3.63223 0
M  V30 4233 H 409.759 -3.77842 1.74283 0
M  V30 4234 H 408.635 -5.154 1.88823 0
M  V30 4235 H 408.896 -4.40949 0.318813 0
M  V30 4236 N 407.956 -0.998596 -1.21925 0
M  V30 4237 C 409.186 -0.695276 -1.94549 0
M  V30 4238 C 409.594 0.745079 -1.73911 0
M  V30 4239 O 408.937 1.51507 -1.03881 0
M  V30 4240 C 408.999 -0.928485 -3.47303 0
M  V30 4241 C 408.663 -2.35443 -3.91683 0
M  V30 4242 C 409.66 -3.33428 -3.98901 0
M  V30 4243 C 407.345 -2.69038 -4.24174 0
M  V30 4244 C 409.339 -4.63079 -4.37992 0
M  V30 4245 C 407.026 -3.98906 -4.62944 0
M  V30 4246 C 408.024 -4.95738 -4.69822 0
M  V30 4247 O 407.712 -6.23285 -5.07711 0
M  V30 4248 H 407.444 -0.255902 -0.625692 0
M  V30 4249 H 409.998 -1.33767 -1.5587 0
M  V30 4250 H 408.228 -0.228917 -3.86022 0
M  V30 4251 H 409.917 -0.619539 -4.01144 0
M  V30 4252 H 410.683 -3.08807 -3.73983 0
M  V30 4253 H 406.562 -1.94367 -4.18022 0
M  V30 4254 H 410.106 -5.38658 -4.43275 0
M  V30 4255 H 406.003 -4.23314 -4.87314 0
M  V30 4256 H 406.771 -6.27306 -5.25766 0
M  V30 4257 N 409.434 1.37368 -0.772513 0
M  V30 4258 C 410.344 2.34053 -0.160081 0
M  V30 4259 C 411.36 1.60216 0.678728 0
M  V30 4260 O 412.536 1.92303 0.59847 0
M  V30 4261 C 409.601 3.3939 0.708182 0
M  V30 4262 C 408.662 4.29048 -0.147172 0
M  V30 4263 C 407.895 5.29354 0.679744 0
M  V30 4264 O 408.118 5.3723 1.91678 0
M  V30 4265 O 407.052 6.01835 0.0885444 0
M  V30 4266 H 410.878 2.88159 -0.959053 0
M  V30 4267 H 408.463 1.39543 -0.533685 0
M  V30 4268 H 410.345 4.03839 1.20384 0
M  V30 4269 H 409.02 2.8761 1.48533 0
M  V30 4270 H 407.927 3.67697 -0.689205 0
M  V30 4271 H 409.26 4.84134 -0.887423 0
M  V30 4272 N 410.912 0.523116 1.48665 0
M  V30 4273 C 411.86 -0.256859 2.31177 0
M  V30 4274 C 412.854 -0.94199 1.40794 0
M  V30 4275 O 414.06 -0.867157 1.57735 0
M  V30 4276 H 410.435 -0.1017 0.745091 0
M  V30 4277 H 412.406 0.458739 2.94853 0
M  V30 4278 C 411.155 -1.29503 3.22683 0
M  V30 4279 H 410.478 -0.777248 3.92172 0
M  V30 4280 H 411.918 -1.81233 3.83315 0
M  V30 4281 C 410.377 -2.32501 2.43813 0
M  V30 4282 O 410.907 -3.3881 2.15803 0
M  V30 4283 N 409.113 -2.05538 2.05432 0
M  V30 4284 H 408.66 -1.19104 2.28412 0
M  V30 4285 H 408.618 -2.74676 1.52973 0
M  V30 4286 N 412.39 -1.55475 0.257931 0
M  V30 4287 C 413.353 -2.20551 -0.623706 0
M  V30 4288 C 414.353 -1.17809 -1.09443 0
M  V30 4289 O 415.543 -1.42823 -0.997362 0
M  V30 4290 C 412.675 -2.85784 -1.8585 0
M  V30 4291 H 413.868 -2.99848 -0.0557743 0
M  V30 4292 H 411.421 -1.56298 0.0084422 0
M  V30 4293 H 412.156 -2.10453 -2.46739 0
M  V30 4294 H 411.941 -3.61057 -1.52907 0
M  V30 4295 H 413.431 -3.35553 -2.48584 0
M  V30 4296 N 413.868 0.0150385 -1.57593 0
M  V30 4297 C 415.098 0.713359 -1.93894 0
M  V30 4298 C 415.506 1.68663 -0.857289 0
M  V30 4299 O 414.849 1.82876 0.173788 0
M  V30 4300 C 414.911 1.51348 -3.26089 0
M  V30 4301 C 414.575 0.703451 -4.51554 0
M  V30 4302 C 415.572 -0.00237924 -5.199 0
M  V30 4303 C 413.257 0.653854 -4.98026 0
M  V30 4304 C 415.251 -0.746955 -6.33008 0
M  V30 4305 C 412.938 -0.0944578 -6.11027 0
M  V30 4306 C 413.936 -0.793609 -6.78374 0
M  V30 4307 O 413.624 -1.52974 -7.89211 0
M  V30 4308 H 413.356 0.204637 -0.644282 0
M  V30 4309 H 415.91 -0.0276411 -2.05381 0
M  V30 4310 H 414.14 2.29862 -3.10967 0
M  V30 4311 H 415.829 2.09572 -3.47612 0
M  V30 4312 H 416.595 0.0268803 -4.84993 0
M  V30 4313 H 412.474 1.18756 -4.45441 0
M  V30 4314 H 416.018 -1.2932 -6.85509 0
M  V30 4315 H 411.915 -0.125591 -6.45378 0
M  V30 4316 H 412.683 -1.44488 -8.05646 0
M  V30 4317 N 415.346 1.54954 0.287554 0
M  V30 4318 C 416.594 1.74528 1.01904 0
M  V30 4319 C 416.915 0.541349 1.87335 0
M  V30 4320 O 416.185 -0.444108 1.908 0
M  V30 4321 H 414.765 0.643576 0.379235 0
M  V30 4322 H 417.427 1.92333 0.315294 0
M  V30 4323 H 416.523 2.64015 1.6644 0
M  V30 4324 N 416.824 -0.551391 1.4764 0
M  V30 4325 C 417.756 -1.67333 1.56628 0
M  V30 4326 C 418.769 -1.56398 0.452045 0
M  V30 4327 O 419.958 -1.6325 0.721926 0
M  V30 4328 C 417.058 -3.05841 1.45994 0
M  V30 4329 C 416.231 -3.42472 2.72088 0
M  V30 4330 C 415.29 -4.60168 2.55209 0
M  V30 4331 O 414.316 -4.64458 3.2904 0
M  V30 4332 N 415.518 -5.57024 1.63416 0
M  V30 4333 H 418.283 -1.60066 2.53375 0
M  V30 4334 H 415.844 -0.738169 1.44093 0
M  V30 4335 H 417.836 -3.8242 1.32428 0
M  V30 4336 H 416.406 -3.07302 0.573071 0
M  V30 4337 H 415.626 -2.55284 3.00373 0
M  V30 4338 H 416.914 -3.63723 3.55785 0
M  V30 4339 H 416.312 -5.56319 1.02594 0
M  V30 4340 H 414.869 -6.32906 1.558 0
M  V30 4341 N 418.302 -1.35869 -0.798587 0
M  V30 4342 C 419.549 -1.29588 -1.55606 0
M  V30 4343 C 419.877 0.127456 -1.94082 0
M  V30 4344 O 419.132 1.09461 -1.62225 0
M  V30 4345 C 419.431 -2.1556 -2.85077 0
M  V30 4346 C 419.097 -3.6424 -2.65781 0
M  V30 4347 C 417.759 -4.04766 -2.60227 0
M  V30 4348 C 420.111 -4.58547 -2.47758 0
M  V30 4349 C 417.439 -5.37753 -2.34603 0
M  V30 4350 C 419.791 -5.91742 -2.23662 0
M  V30 4351 C 418.455 -6.31402 -2.16534 0
M  V30 4352 H 417.725 -0.474197 -0.569402 0
M  V30 4353 H 420.372 -1.67839 -0.922086 0
M  V30 4354 H 418.677 -1.70216 -3.52893 0
M  V30 4355 H 420.374 -2.08031 -3.42818 0
M  V30 4356 H 416.964 -3.32086 -2.70956 0
M  V30 4357 H 421.148 -4.28117 -2.51056 0
M  V30 4358 H 416.404 -5.67474 -2.2756 0
M  V30 4359 H 420.578 -6.6439 -2.08708 0
M  V30 4360 H 418.205 -7.34381 -1.96441 0
M  V30 4361 N 419.78 1.02168 -1.19998 0
M  V30 4362 C 421.029 1.75091 -1.0013 0
M  V30 4363 C 421.342 1.89923 0.467835 0
M  V30 4364 O 422.548 2.59888 0.785515 0
M  V30 4365 C 421.004 3.14892 -1.74273 0
M  V30 4366 C 420.612 3.0809 -3.25245 0
M  V30 4367 C 422.356 3.9206 -1.62755 0
M  V30 4368 C 420.263 4.42867 -3.91948 0
M  V30 4369 H 419.193 0.656394 -0.37103 0
M  V30 4370 H 421.844 1.14284 -1.43567 0
M  V30 4371 H 420.226 3.7621 -1.2362 0
M  V30 4372 H 421.4 2.5611 -3.83072 0
M  V30 4373 H 419.715 2.44416 -3.3712 0
M  V30 4374 H 422.312 4.91764 -2.09934 0
M  V30 4375 H 422.655 4.12199 -0.582894 0
M  V30 4376 H 423.188 3.37359 -2.10793 0
M  V30 4377 H 419.927 4.27931 -4.96543 0
M  V30 4378 H 419.447 4.94874 -3.3891 0
M  V30 4379 H 421.126 5.11728 -3.95909 0
M  V30 4380 N 421.258 1.00505 1.21394 0
M  V30 4381 C 422.506 0.686415 1.90086 0
M  V30 4382 C 422.827 -0.785264 1.7849 0
M  V30 4383 O 422.097 -1.56387 1.17983 0
M  V30 4384 H 420.677 0.2509 0.703604 0
M  V30 4385 H 423.339 1.27417 1.47482 0
M  V30 4386 H 422.435 0.959621 2.96981 0
M  V30 4387 N 422.737 -1.36956 0.779787 0
M  V30 4388 C 424.148 -1.82094 0.412156 0
M  V30 4389 C 424.499 -1.64926 -1.06273 0
M  V30 4390 O 423.624 -1.16483 -1.82375 0
M  V30 4391 C 424.219 -3.3059 0.741319 0
M  V30 4392 C 422.778 -3.73974 0.426641 0
M  V30 4393 C 421.925 -2.59368 0.980987 0
M  V30 4394 H 424.876 -1.25314 0.973758 0
M  V30 4395 H 424.897 -3.80489 0.028887 0
M  V30 4396 H 424.409 -3.43054 1.81482 0
M  V30 4397 H 422.51 -3.67076 -0.639215 0
M  V30 4398 H 422.623 -4.69778 0.940515 0
M  V30 4399 H 420.987 -2.51463 0.404757 0
M  V30 4400 H 421.77 -2.74621 2.06005 0
M  V30 4401 N 424.215 -0.530993 -1.48385 0
M  V30 4402 C 425.165 0.251092 -2.26613 0
M  V30 4403 C 426.149 0.908977 -1.32765 0
M  V30 4404 O 427.341 0.811616 -1.57295 0
M  V30 4405 C 424.47 1.29677 -3.17866 0
M  V30 4406 C 423.556 0.643627 -4.19188 0
M  V30 4407 N 423.947 -0.271223 -5.05072 0
M  V30 4408 C 422.245 0.900711 -4.3681 0
M  V30 4409 C 422.946 -0.648109 -5.78078 0
M  V30 4410 N 421.922 -0.00895987 -5.43599 0
M  V30 4411 H 425.724 -0.452702 -2.90393 0
M  V30 4412 H 423.238 -0.349091 -1.58604 0
M  V30 4413 H 425.235 1.87079 -3.72568 0
M  V30 4414 H 423.895 2.00193 -2.55642 0
M  V30 4415 H 424.906 -0.643883 -5.13882 0
M  V30 4416 H 421.583 1.59636 -3.85775 0
M  V30 4417 H 422.973 -1.39833 -6.57188 0
M  V30 4418 N 425.693 1.55336 -0.266172 0
M  V30 4419 C 427.109 1.59356 0.0882065 0
M  V30 4420 C 427.309 1.2834 1.55342 0
M  V30 4421 O 426.365 1.03996 2.30089 0
M  V30 4422 C 427.678 2.99409 -0.278364 0
M  V30 4423 C 429.226 3.12196 -0.224243 0
M  V30 4424 C 429.701 4.545 -0.565123 0
M  V30 4425 N 431.192 4.60313 -0.51634 0
M  V30 4426 C 431.927 5.68434 -0.753013 0
M  V30 4427 N 431.423 6.84738 -1.05383 0
M  V30 4428 N 433.216 5.57942 -0.682414 0
M  V30 4429 H 425.367 1.73764 -1.22147 0
M  V30 4430 H 427.63 0.809822 -0.492841 0
M  V30 4431 H 427.336 3.2691 -1.29703 0
M  V30 4432 H 427.21 3.75228 0.385186 0
M  V30 4433 H 429.597 2.84464 0.78512 0
M  V30 4434 H 429.678 2.38609 -0.921922 0
M  V30 4435 H 429.322 4.82956 -1.57213 0
M  V30 4436 H 429.252 5.26374 0.154248 0
M  V30 4437 H 431.743 3.7676 -0.29335 0
M  V30 4438 H 432.056 7.63088 -1.22133 0
M  V30 4439 H 430.401 6.86375 -1.09151 0
M  V30 4440 H 433.592 4.65958 -0.44731 0
M  V30 4441 H 433.765 6.4213 -0.870248 0
M  V30 4442 N 427.171 -0.0066808 1.57599 0
M  V30 4443 C 428.42 -0.692078 1.89455 0
M  V30 4444 C 428.733 -1.75306 0.867586 0
M  V30 4445 O 429.939 -2.49262 1.07614 0
M  V30 4446 C 428.395 -1.2821 3.36289 0
M  V30 4447 C 428.003 -0.256291 4.47266 0
M  V30 4448 C 429.747 -1.94608 3.77264 0
M  V30 4449 C 427.654 -0.855927 5.85173 0
M  V30 4450 H 426.584 -0.262252 0.706923 0
M  V30 4451 H 429.235 0.052769 1.83424 0
M  V30 4452 H 427.617 -2.0774 3.37135 0
M  V30 4453 H 428.791 0.513923 4.57925 0
M  V30 4454 H 427.106 0.306862 4.15268 0
M  V30 4455 H 429.703 -2.40364 4.77629 0
M  V30 4456 H 430.046 -2.77382 3.10427 0
M  V30 4457 H 430.579 -1.21822 3.78688 0
M  V30 4458 H 427.318 -0.0671161 6.55466 0
M  V30 4459 H 426.838 -1.59546 5.78191 0
M  V30 4460 H 428.517 -1.35658 6.32618 0
M  V30 4461 N 428.649 -1.55105 -0.279332 0
M  V30 4462 C 429.596 -1.8755 -1.34513 0
M  V30 4463 C 430.566 -0.726384 -1.49375 0
M  V30 4464 O 431.751 -0.977063 -1.63884 0
M  V30 4465 C 428.891 -2.14738 -2.70151 0
M  V30 4466 C 428.004 -3.42285 -2.63562 0
M  V30 4467 C 427.139 -3.59206 -3.91337 0
M  V30 4468 C 426.178 -4.80467 -3.79233 0
M  V30 4469 N 425.315 -4.94079 -4.98829 0
M  V30 4470 H 430.155 -2.78456 -1.06143 0
M  V30 4471 H 427.692 -1.37867 -0.512936 0
M  V30 4472 H 429.65 -2.28501 -3.49061 0
M  V30 4473 H 428.28 -1.27075 -2.96735 0
M  V30 4474 H 427.332 -3.37029 -1.76397 0
M  V30 4475 H 428.644 -4.31328 -2.50515 0
M  V30 4476 H 427.798 -3.72751 -4.78687 0
M  V30 4477 H 426.537 -2.68337 -4.07243 0
M  V30 4478 H 425.542 -4.66932 -2.90266 0
M  V30 4479 H 426.767 -5.72765 -3.64852 0
M  V30 4480 H 424.713 -4.06139 -5.15158 0
M  V30 4481 H 424.63 -5.77156 -4.8829 0
M  V30 4482 H 425.898 -5.12003 -5.8777 0
M  V30 4483 N 430.127 0.543554 -1.4793 0
M  V30 4484 C 431.09 1.63156 -1.60975 0
M  V30 4485 C 432.09 1.53346 -0.483899 0
M  V30 4486 O 433.28 1.5726 -0.749339 0
M  V30 4487 C 430.412 3.02743 -1.56716 0
M  V30 4488 H 431.605 1.52934 -2.57975 0
M  V30 4489 H 429.158 0.764557 -1.36324 0
M  V30 4490 H 429.893 3.18484 -0.611418 0
M  V30 4491 H 429.678 3.11272 -2.38438 0
M  V30 4492 H 431.168 3.81871 -1.6901 0
M  V30 4493 N 431.605 1.3629 0.791371 0
M  V30 4494 C 432.833 1.33562 1.58016 0
M  V30 4495 C 433.248 -0.0835616 1.88615 0
M  V30 4496 O 432.605 -1.0399 1.49974 0
M  V30 4497 C 432.656 2.15517 2.90232 0
M  V30 4498 O 432.377 3.51902 2.60953 0
M  V30 4499 C 433.878 2.20546 3.84544 0
M  V30 4500 H 431.098 0.458226 0.490173 0
M  V30 4501 H 433.642 1.79361 0.982345 0
M  V30 4502 H 431.797 1.73278 3.46487 0
M  V30 4503 H 432.211 3.94644 3.4548 0
M  V30 4504 H 433.685 2.82252 4.74382 0
M  V30 4505 H 434.162 1.20838 4.2225 0
M  V30 4506 H 434.768 2.63013 3.34222 0
M  V30 4507 N 433.083 -1.0153 1.20538 0
M  V30 4508 C 434.031 -2.12215 0.952235 0
M  V30 4509 C 435.025 -1.69123 -0.0968735 0
M  V30 4510 O 436.231 -1.7992 0.0536006 0
M  V30 4511 H 432.606 -0.693576 0.290613 0
M  V30 4512 H 434.577 -2.3075 1.89201 0
M  V30 4513 C 433.326 -3.43755 0.522287 0
M  V30 4514 H 432.649 -3.7734 1.32115 0
M  V30 4515 H 434.089 -4.22254 0.384389 0
M  V30 4516 C 432.548 -3.28088 -0.765489 0
M  V30 4517 O 433.078 -3.57921 -1.8236 0
M  V30 4518 N 431.284 -2.81333 -0.728011 0
M  V30 4519 H 430.831 -2.57255 0.133332 0
M  V30 4520 H 430.789 -2.71232 -1.58999 0
M  V30 4521 N 434.561 -1.01147 -1.20859 0
M  V30 4522 C 435.509 -0.57059 -2.25493 0
M  V30 4523 C 436.503 0.388109 -1.64894 0
M  V30 4524 O 437.709 0.258592 -1.78133 0
M  V30 4525 H 434.084 -0.166191 -0.733406 0
M  V30 4526 H 436.055 -1.46411 -2.60012 0
M  V30 4527 C 434.804 0.0805241 -3.47607 0
M  V30 4528 H 434.127 -0.648156 -3.94511 0
M  V30 4529 H 435.567 0.352197 -4.22535 0
M  V30 4530 C 434.026 1.32175 -3.09889 0
M  V30 4531 O 434.556 2.41553 -3.20959 0
M  V30 4532 N 432.762 1.20392 -2.64488 0
M  V30 4533 H 432.309 0.313905 -2.5568 0
M  V30 4534 H 432.267 2.03541 -2.39621 0
M  V30 4535 N 436.039 1.36541 -0.78704 0
M  V30 4536 C 436.986 2.30082 -0.181901 0
M  V30 4537 C 437.956 1.5186 0.672896 0
M  V30 4538 O 439.141 1.80374 0.622072 0
M  V30 4539 C 436.281 3.3835 0.679197 0
M  V30 4540 C 435.394 4.31565 -0.193882 0
M  V30 4541 C 434.529 5.26915 0.673364 0
M  V30 4542 C 433.568 6.11769 -0.201315 0
M  V30 4543 N 432.705 6.99315 0.624777 0
M  V30 4544 H 437.545 2.81248 -0.985064 0
M  V30 4545 H 435.082 1.38437 -0.497342 0
M  V30 4546 H 437.04 3.99767 1.19341 0
M  V30 4547 H 435.67 2.8851 1.44781 0
M  V30 4548 H 434.722 3.71323 -0.826044 0
M  V30 4549 H 436.034 4.91191 -0.867937 0
M  V30 4550 H 435.188 5.9361 1.25348 0
M  V30 4551 H 433.927 4.67737 1.38105 0
M  V30 4552 H 432.932 5.44039 -0.793849 0
M  V30 4553 H 434.157 6.73022 -0.906568 0
M  V30 4554 H 432.103 6.42648 1.3168 0
M  V30 4555 H 432.02 7.56 0.00835237 0
M  V30 4556 H 433.288 7.70382 1.18879 0
M  V30 4557 N 437.518 0.538854 1.48102 0
M  V30 4558 C 438.766 0.00798599 2.02098 0
M  V30 4559 C 439.087 -1.33922 1.41739 0
M  V30 4560 O 438.357 -1.86932 0.585934 0
M  V30 4561 H 436.937 -3.62179e-05 0.747 0
M  V30 4562 H 439.599 0.7047 1.81714 0
M  V30 4563 H 438.695 -0.0937672 3.11959 0
M  V30 4564 N 438.996 -1.55193 0.274407 0
M  V30 4565 C 439.943 -2.225 -0.613374 0
M  V30 4566 C 440.913 -1.19823 -1.15029 0
M  V30 4567 O 442.098 -1.48362 -1.19973 0
M  V30 4568 C 439.238 -2.94927 -1.79199 0
M  V30 4569 C 438.351 -4.12322 -1.28899 0
M  V30 4570 C 437.486 -4.72394 -2.42934 0
M  V30 4571 C 436.525 -5.81984 -1.89634 0
M  V30 4572 N 435.662 -6.36123 -2.9714 0
M  V30 4573 H 440.502 -2.97982 -0.032756 0
M  V30 4574 H 438.039 -1.47099 -0.00440146 0
M  V30 4575 H 439.997 -3.35134 -2.48478 0
M  V30 4576 H 438.627 -2.2187 -2.34465 0
M  V30 4577 H 437.679 -3.7724 -0.489327 0
M  V30 4578 H 438.991 -4.91355 -0.858587 0
M  V30 4579 H 438.145 -5.15317 -3.20208 0
M  V30 4580 H 436.884 -3.92636 -2.8929 0
M  V30 4581 H 435.889 -5.38511 -1.1084 0
M  V30 4582 H 437.114 -6.6361 -1.44215 0
M  V30 4583 H 435.06 -5.59259 -3.42878 0
M  V30 4584 H 434.977 -7.10427 -2.58515 0
M  V30 4585 H 436.245 -6.83704 -3.74391 0
M  V30 4586 N 440.474 -0.00167713 -1.576 0
M  V30 4587 C 441.384 1.00548 -2.1196 0
M  V30 4588 C 442.4 1.3758 -1.06526 0
M  V30 4589 O 443.576 1.46278 -1.38436 0
M  V30 4590 C 440.641 2.27809 -2.6135 0
M  V30 4591 C 439.702 1.97074 -3.81393 0
M  V30 4592 C 438.935 3.18267 -4.28417 0
M  V30 4593 O 439.158 4.30009 -3.74765 0
M  V30 4594 O 438.092 3.02167 -5.20556 0
M  V30 4595 H 441.918 0.573373 -2.98238 0
M  V30 4596 H 439.503 0.217255 -1.47812 0
M  V30 4597 H 441.385 3.02568 -2.93309 0
M  V30 4598 H 440.06 2.70254 -1.78169 0
M  V30 4599 H 438.967 1.19785 -3.54404 0
M  V30 4600 H 440.3 1.59464 -4.65652 0
M  V30 4601 N 441.952 1.55251 0.271103 0
M  V30 4602 C 442.899 1.88261 1.33516 0
M  V30 4603 C 443.869 0.734296 1.48988 0
M  V30 4604 O 445.054 0.985741 1.63364 0
M  V30 4605 C 442.194 2.16168 2.69008 0
M  V30 4606 C 441.307 3.43678 2.61743 0
M  V30 4607 C 440.442 3.61276 3.89427 0
M  V30 4608 C 439.481 4.82472 3.7668 0
M  V30 4609 N 438.618 4.96717 4.96202 0
M  V30 4610 H 443.458 2.79015 1.04665 0
M  V30 4611 H 440.995 1.38137 0.505618 0
M  V30 4612 H 442.953 2.30349 3.47844 0
M  V30 4613 H 441.583 1.28646 2.96057 0
M  V30 4614 H 440.635 3.37959 1.74607 0
M  V30 4615 H 441.947 4.3265 2.48224 0
M  V30 4616 H 441.101 3.75284 4.76704 0
M  V30 4617 H 439.84 2.70492 4.05814 0
M  V30 4618 H 438.845 4.68465 2.87786 0
M  V30 4619 H 440.07 5.74692 3.61809 0
M  V30 4620 H 438.016 4.08865 5.12997 0
M  V30 4621 H 437.933 5.79738 4.85222 0
M  V30 4622 H 439.201 5.15113 5.85046 0
M  V30 4623 N 443.43 -0.535701 1.48216 0
M  V30 4624 C 444.679 -1.28828 1.55197 0
M  V30 4625 C 444.992 -1.94263 0.228278 0
M  V30 4626 O 446.198 -2.70927 0.176278 0
M  V30 4627 C 444.654 -2.33727 2.73678 0
M  V30 4628 C 444.262 -1.74386 4.12666 0
M  V30 4629 C 446.006 -3.1003 2.89968 0
M  V30 4630 C 443.913 -2.77192 5.22416 0
M  V30 4631 H 442.843 -0.484484 0.577747 0
M  V30 4632 H 445.494 -0.56646 1.74538 0
M  V30 4633 H 443.876 -3.08919 2.4776 0
M  V30 4634 H 445.05 -1.05421 4.48579 0
M  V30 4635 H 443.365 -1.10595 4.01445 0
M  V30 4636 H 445.962 -3.86842 3.6913 0
M  V30 4637 H 446.305 -3.65542 1.9921 0
M  V30 4638 H 446.838 -2.41952 3.15759 0
M  V30 4639 H 443.577 -2.26507 6.15122 0
M  V30 4640 H 443.097 -3.44502 4.90998 0
M  V30 4641 H 444.776 -3.40285 5.50286 0
M  V30 4642 N 444.908 -1.36708 -0.784132 0
M  V30 4643 C 446.138 -1.34203 -1.57077 0
M  V30 4644 C 446.546 0.0774945 -1.89041 0
M  V30 4645 O 445.889 1.04628 -1.50992 0
M  V30 4646 C 445.951 -2.10351 -2.91535 0
M  V30 4647 C 445.615 -3.59405 -2.82272 0
M  V30 4648 C 446.612 -4.53545 -2.54151 0
M  V30 4649 C 444.297 -4.02362 -3.00683 0
M  V30 4650 C 446.291 -5.8862 -2.44551 0
M  V30 4651 C 443.978 -5.37526 -2.90704 0
M  V30 4652 C 444.976 -6.30468 -2.62677 0
M  V30 4653 O 444.664 -7.63149 -2.52702 0
M  V30 4654 H 444.396 -0.461791 -0.493685 0
M  V30 4655 H 446.95 -1.80475 -0.980712 0
M  V30 4656 H 445.18 -1.5875 -3.52612 0
M  V30 4657 H 446.869 -2.00636 -3.52845 0
M  V30 4658 H 447.635 -4.21669 -2.39625 0
M  V30 4659 H 443.514 -3.30389 -3.21503 0
M  V30 4660 H 447.058 -6.61133 -2.22596 0
M  V30 4661 H 442.955 -5.69008 -3.04795 0
M  V30 4662 H 443.723 -7.73331 -2.68144 0
M  V30 4663 N 446.386 1.0089 -1.21074 0
M  V30 4664 C 447.611 1.78727 -1.05221 0
M  V30 4665 C 448.036 1.83932 0.393795 0
M  V30 4666 O 447.394 1.28004 1.28393 0
M  V30 4667 C 447.442 3.20665 -1.64944 0
M  V30 4668 O 446.546 4.02632 -0.892273 0
M  V30 4669 H 445.887 0.550973 -0.370574 0
M  V30 4670 H 448.417 1.26847 -1.60534 0
M  V30 4671 H 448.427 3.71352 -1.69002 0
M  V30 4672 H 447.102 3.16191 -2.70177 0
M  V30 4673 H 445.679 3.61207 -0.926492 0
M  V30 4674 N 447.864 1.01787 1.20321 0
M  V30 4675 C 448.827 0.593972 2.2137 0
M  V30 4676 C 449.827 -0.336553 1.57239 0
M  V30 4677 O 451.017 -0.125069 1.7375 0
M  V30 4678 C 448.149 -0.132433 3.40643 0
M  V30 4679 H 449.342 1.48791 2.60387 0
M  V30 4680 H 446.895 0.807803 1.33807 0
M  V30 4681 H 447.63 -1.04123 3.0713 0
M  V30 4682 H 447.415 0.53605 3.88418 0
M  V30 4683 H 448.905 -0.416314 4.1552 0
M  V30 4684 N 449.342 -1.36122 0.79427 0
M  V30 4685 C 450.252 -2.33769 0.197296 0
M  V30 4686 C 451.268 -1.61276 -0.653153 0
M  V30 4687 O 452.444 -1.9323 -0.5678 0
M  V30 4688 C 449.509 -3.40474 -0.654098 0
M  V30 4689 C 448.57 -4.28759 0.215411 0
M  V30 4690 C 447.803 -5.30368 -0.595443 0
M  V30 4691 O 448.026 -5.40211 -1.83107 0
M  V30 4692 O 446.96 -6.019 0.00721351 0
M  V30 4693 H 450.786 -2.86597 1.00478 0
M  V30 4694 H 448.371 -1.38676 0.555818 0
M  V30 4695 H 450.253 -4.05703 -1.13944 0
M  V30 4696 H 448.928 -2.89937 -1.43938 0
M  V30 4697 H 447.835 -3.66554 0.747615 0
M  V30 4698 H 449.168 -4.82661 0.964332 0
M  V30 4699 N 450.82 -0.546701 -1.47814 0
M  V30 4700 C 452.236 -0.205717 -1.58269 0
M  V30 4701 C 452.436 1.29153 -1.54667 0
M  V30 4702 O 451.492 2.07098 -1.44453 0
M  V30 4703 C 452.805 -0.823065 -2.89216 0
M  V30 4704 C 454.353 -0.793328 -3.02779 0
M  V30 4705 C 454.828 -1.38955 -4.36412 0
M  V30 4706 N 456.319 -1.35227 -4.43021 0
M  V30 4707 C 457.054 -1.78333 -5.44963 0
M  V30 4708 N 456.55 -2.29246 -6.53772 0
M  V30 4709 N 458.343 -1.69467 -5.35945 0
M  V30 4710 H 450.494 -1.5196 -1.48398 0
M  V30 4711 H 452.757 -0.633078 -0.705632 0
M  V30 4712 H 452.463 -1.8749 -2.97558 0
M  V30 4713 H 452.337 -0.309915 -3.75925 0
M  V30 4714 H 454.724 0.249784 -2.94041 0
M  V30 4715 H 454.805 -1.34412 -2.17639 0
M  V30 4716 H 454.449 -2.43168 -4.45906 0
M  V30 4717 H 454.379 -0.814291 -5.20266 0
M  V30 4718 H 456.87 -0.979739 -3.64979 0
M  V30 4719 H 457.183 -2.60089 -7.27718 0
M  V30 4720 H 455.528 -2.3325 -6.5469 0
M  V30 4721 H 458.719 -1.29477 -4.49837 0
M  V30 4722 H 458.892 -2.03381 -6.15256 0
M  V30 4723 N 452.299 1.55045 -0.282633 0
M  V30 4724 C 453.546 1.9976 0.33199 0
M  V30 4725 C 453.874 1.17105 1.55295 0
M  V30 4726 O 453.129 0.230599 1.94337 0
M  V30 4727 C 453.428 3.49422 0.750938 0
M  V30 4728 C 453.094 4.4941 -0.366228 0
M  V30 4729 C 451.756 4.76471 -0.672964 0
M  V30 4730 C 454.108 5.09054 -1.11864 0
M  V30 4731 C 451.436 5.60442 -1.73556 0
M  V30 4732 C 453.788 5.9418 -2.17102 0
M  V30 4733 C 452.452 6.19558 -2.48402 0
M  V30 4734 H 451.722 0.730974 0.121484 0
M  V30 4735 H 454.369 1.8732 -0.39791 0
M  V30 4736 H 452.674 3.59377 1.56063 0
M  V30 4737 H 454.371 3.81432 1.23736 0
M  V30 4738 H 450.961 4.2844 -0.117041 0
M  V30 4739 H 455.145 4.88165 -0.894925 0
M  V30 4740 H 450.401 5.78349 -1.983 0
M  V30 4741 H 454.575 6.39427 -2.75873 0
M  V30 4742 H 452.202 6.84417 -3.30874 0
M  V30 4743 N 453.777 0.010035 1.57597 0
M  V30 4744 C 454.707 -0.976857 2.12084 0
M  V30 4745 C 455.688 -1.35191 1.03235 0
M  V30 4746 O 456.873 -1.43389 1.3097 0
M  V30 4747 C 454.003 -2.26548 2.63236 0
M  V30 4748 C 452.957 -2.03175 3.76701 0
M  V30 4749 C 452.283 -3.38138 4.14206 0
M  V30 4750 C 453.583 -1.38625 5.03568 0
M  V30 4751 H 455.277 -0.523145 2.94794 0
M  V30 4752 H 452.823 -0.250195 1.4181 0
M  V30 4753 H 454.776 -2.95952 2.99984 0
M  V30 4754 H 453.5 -2.74051 1.77661 0
M  V30 4755 H 452.159 -1.36195 3.40362 0
M  V30 4756 H 451.807 -3.83363 3.25641 0
M  V30 4757 H 451.507 -3.23312 4.90656 0
M  V30 4758 H 453.031 -4.08841 4.53521 0
M  V30 4759 H 454.445 -1.98 5.38023 0
M  V30 4760 H 452.842 -1.34256 5.84889 0
M  V30 4761 H 453.912 -0.356722 4.83586 0
M  V30 4762 N 455.255 -1.55392 -0.262866 0
M  V30 4763 C 456.504 -1.75679 -0.990943 0
M  V30 4764 C 456.817 -0.57097 -1.87081 0
M  V30 4765 O 458.023 -0.656486 -2.63444 0
M  V30 4766 C 456.479 -3.10964 -1.81188 0
M  V30 4767 C 456.087 -4.37146 -0.980188 0
M  V30 4768 C 457.831 -3.40597 -2.53365 0
M  V30 4769 C 455.738 -5.63466 -1.7961 0
M  V30 4770 H 454.668 -0.654868 -0.373716 0
M  V30 4771 H 457.319 -1.81841 -0.246203 0
M  V30 4772 H 455.701 -2.98867 -2.59797 0
M  V30 4773 H 456.875 -4.60187 -0.237558 0
M  V30 4774 H 455.19 -4.14731 -0.372497 0
M  V30 4775 H 457.787 -4.32186 -3.14833 0
M  V30 4776 H 458.13 -2.6119 -3.24169 0
M  V30 4777 H 458.663 -3.53838 -1.81779 0
M  V30 4778 H 455.402 -6.4565 -1.13209 0
M  V30 4779 H 454.922 -5.44552 -2.51443 0
M  V30 4780 H 456.601 -6.02139 -2.36723 0
M  V30 4781 N 456.733 0.527833 -1.48498 0
M  V30 4782 C 457.696 1.61439 -1.62696 0
M  V30 4783 C 458.696 1.52824 -0.500136 0
M  V30 4784 O 459.886 1.56456 -0.765976 0
M  V30 4785 C 457.018 3.01063 -1.59918 0
M  V30 4786 H 458.211 1.50189 -2.59583 0
M  V30 4787 H 455.764 0.750055 -1.37127 0
M  V30 4788 H 456.499 3.17818 -0.645163 0
M  V30 4789 H 456.284 3.08725 -2.41726 0
M  V30 4790 H 457.774 3.80057 -1.73051 0
M  V30 4791 N 458.211 1.37122 0.776871 0
M  V30 4792 C 459.439 1.3523 1.5659 0
M  V30 4793 C 459.854 -0.0635518 1.88693 0
M  V30 4794 O 459.211 -1.02394 1.51069 0
M  V30 4795 C 459.262 2.18583 2.8793 0
M  V30 4796 O 458.983 3.5465 2.57206 0
M  V30 4797 C 460.484 2.24612 3.82183 0
M  V30 4798 H 457.704 0.4634 0.485285 0
M  V30 4799 H 460.248 1.80392 0.963266 0
M  V30 4800 H 458.403 1.76943 3.4463 0
M  V30 4801 H 458.817 3.98286 3.41275 0
M  V30 4802 H 460.291 2.87267 4.71361 0
M  V30 4803 H 460.768 1.25309 4.20944 0
M  V30 4804 H 461.374 2.66543 3.31414 0
M  V30 4805 N 459.689 -1.00246 1.21608 0
M  V30 4806 C 460.937 -1.73717 1.0328 0
M  V30 4807 C 461.258 -1.90102 -0.434318 0
M  V30 4808 O 460.528 -1.45376 -1.31311 0
M  V30 4809 H 459.108 -0.643613 0.379172 0
M  V30 4810 H 461.77 -1.20787 1.52959 0
M  V30 4811 H 460.866 -2.73535 1.50283 0
M  V30 4812 N 461.167 -1.02423 -1.1978 0
M  V30 4813 C 462.077 -0.610919 -2.26506 0
M  V30 4814 C 463.093 0.355152 -1.70337 0
M  V30 4815 O 464.269 0.214195 -2.00258 0
M  V30 4816 C 461.334 0.0365921 -3.46681 0
M  V30 4817 C 460.395 -0.976389 -4.18049 0
M  V30 4818 C 459.628 -0.359683 -5.32487 0
M  V30 4819 O 459.851 0.838601 -5.64202 0
M  V30 4820 O 458.785 -1.08022 -5.92127 0
M  V30 4821 H 462.611 -1.49965 -2.64091 0
M  V30 4822 H 460.196 -0.794156 -1.26545 0
M  V30 4823 H 462.078 0.39786 -4.19518 0
M  V30 4824 H 460.753 0.899398 -3.10954 0
M  V30 4825 H 459.66 -1.38916 -3.47352 0
M  V30 4826 H 460.993 -1.80941 -4.57735 0
M  V30 4827 N 462.645 1.35699 -0.801477 0
M  V30 4828 C 464.061 1.52065 -0.484596 0
M  V30 4829 C 464.261 1.75215 0.995084 0
M  V30 4830 O 463.317 1.79061 1.78026 0
M  V30 4831 C 464.63 2.69908 -1.32552 0
M  V30 4832 C 466.178 2.83784 -1.32044 0
M  V30 4833 C 466.653 4.04646 -2.14536 0
M  V30 4834 N 468.144 4.11814 -2.12046 0
M  V30 4835 C 468.879 5.04437 -2.72636 0
M  V30 4836 N 468.375 6.02426 -3.42133 0
M  V30 4837 N 470.168 4.97144 -2.62305 0
M  V30 4838 H 462.319 1.18928 -1.75983 0
M  V30 4839 H 464.582 0.581455 -0.748741 0
M  V30 4840 H 464.288 2.59363 -2.37537 0
M  V30 4841 H 464.162 3.64376 -0.975181 0
M  V30 4842 H 466.549 2.93783 -0.27846 0
M  V30 4843 H 466.63 1.90188 -1.71062 0
M  V30 4844 H 466.274 3.95407 -3.18772 0
M  V30 4845 H 466.204 4.97413 -1.72882 0
M  V30 4846 H 468.695 3.41664 -1.61476 0
M  V30 4847 H 469.008 6.69688 -3.85666 0
M  V30 4848 H 467.353 6.02615 -3.46237 0
M  V30 4849 H 470.544 4.19546 -2.07603 0
M  V30 4850 H 470.717 5.69138 -3.09815 0
M  V30 4851 N 464.123 0.554532 1.47522 0
M  V30 4852 C 465.534 0.120446 1.86311 0
M  V30 4853 C 465.885 -1.30904 1.46145 0
M  V30 4854 O 465.01 -1.98434 0.863294 0
M  V30 4855 C 465.605 0.211808 3.38137 0
M  V30 4856 C 464.164 -0.167224 3.76028 0
M  V30 4857 C 463.311 0.560576 2.71575 0
M  V30 4858 H 466.262 0.764408 1.39077 0
M  V30 4859 H 466.283 -0.570275 3.76202 0
M  V30 4860 H 465.795 1.25232 3.6734 0
M  V30 4861 H 463.896 -1.20894 3.52442 0
M  V30 4862 H 464.009 0.189473 4.78725 0
M  V30 4863 H 462.373 0.00396836 2.547 0
M  V30 4864 H 463.156 1.60219 3.0362 0
M  V30 4865 N 465.601 -1.54893 0.290851 0
M  V30 4866 C 467.017 -1.59476 -0.0628432 0
M  V30 4867 C 467.217 -1.30795 -1.5328 0
M  V30 4868 O 466.273 -1.07644 -2.28406 0
M  V30 4869 C 467.586 -2.98928 0.325962 0
M  V30 4870 C 469.134 -3.11799 0.273882 0
M  V30 4871 C 469.609 -4.53544 0.637359 0
M  V30 4872 N 471.1 -4.59433 0.589507 0
M  V30 4873 C 471.835 -5.67164 0.84335 0
M  V30 4874 N 471.331 -6.82975 1.16263 0
M  V30 4875 N 473.124 -5.56786 0.771091 0
M  V30 4876 H 465.275 -1.71798 1.24896 0
M  V30 4877 H 467.538 -0.801879 0.505663 0
M  V30 4878 H 467.244 -3.24805 1.34887 0
M  V30 4879 H 467.118 -3.75793 -0.325441 0
M  V30 4880 H 469.505 -2.85677 -0.739765 0
M  V30 4881 H 469.586 -2.37112 0.959766 0
M  V30 4882 H 469.23 -4.80394 1.64877 0
M  V30 4883 H 469.16 -5.26553 -0.0704866 0
M  V30 4884 H 471.651 -3.76245 0.353252 0
M  V30 4885 H 471.964 -7.61048 1.34257 0
M  V30 4886 H 470.309 -6.84552 1.20057 0
M  V30 4887 H 473.5 -4.65187 0.521383 0
M  V30 4888 H 473.673 -6.40664 0.972295 0
M  V30 4889 N 467.08 -0.0183926 -1.57589 0
M  V30 4890 C 468.31 0.67207 -1.95363 0
M  V30 4891 C 468.718 1.66807 -0.892872 0
M  V30 4892 O 468.061 1.83204 0.134958 0
M  V30 4893 C 468.123 1.44397 -3.29226 0
M  V30 4894 C 467.787 0.607511 -4.52944 0
M  V30 4895 C 468.784 -0.112657 -5.19778 0
M  V30 4896 C 466.469 0.548068 -4.99301 0
M  V30 4897 C 468.463 -0.881057 -6.31281 0
M  V30 4898 C 466.15 -0.224044 -6.10689 0
M  V30 4899 C 467.148 -0.937323 -6.76538 0
M  V30 4900 O 466.836 -1.6968 -7.85789 0
M  V30 4901 H 466.568 0.190925 -0.648478 0
M  V30 4902 H 469.122 -0.0711994 -2.05277 0
M  V30 4903 H 467.352 2.23214 -3.15773 0
M  V30 4904 H 469.041 2.02152 -3.51979 0
M  V30 4905 H 469.807 -0.0759998 -4.8494 0
M  V30 4906 H 465.686 1.09281 -4.4786 0
M  V30 4907 H 469.23 -1.43832 -6.82611 0
M  V30 4908 H 465.127 -0.262457 -6.44966 0
M  V30 4909 H 465.895 -1.61544 -8.024 0
M  V30 4910 N 468.558 1.5553 0.254621 0
M  V30 4911 C 469.488 1.9268 1.31897 0
M  V30 4912 C 470.469 0.790797 1.506 0
M  V30 4913 O 471.654 1.05045 1.63337 0
M  V30 4914 C 468.784 2.21477 2.67517 0
M  V30 4915 C 467.738 3.37256 2.63519 0
M  V30 4916 C 467.064 3.51576 4.02862 0
M  V30 4917 C 468.364 4.73157 2.21179 0
M  V30 4918 H 470.058 2.81832 1.01051 0
M  V30 4919 H 467.604 1.35599 0.484662 0
M  V30 4920 H 469.557 2.46055 3.42104 0
M  V30 4921 H 468.281 1.29144 2.99982 0
M  V30 4922 H 466.94 3.12675 1.9139 0
M  V30 4923 H 466.588 2.56676 4.32581 0
M  V30 4924 H 466.288 4.2943 4.01078 0
M  V30 4925 H 467.812 3.78467 4.79161 0
M  V30 4926 H 469.226 4.97158 2.85494 0
M  V30 4927 H 467.623 5.54058 2.30521 0
M  V30 4928 H 468.693 4.70739 1.16332 0
M  V30 4929 N 470.036 -0.519951 1.48776 0
M  V30 4930 C 471.284 -1.2727 1.56993 0
M  V30 4931 C 471.605 -1.9339 0.25004 0
M  V30 4932 O 470.875 -1.81822 -0.729216 0
M  V30 4933 H 469.455 -0.472732 0.578389 0
M  V30 4934 H 472.117 -0.604234 1.85297 0
M  V30 4935 H 471.213 -2.04669 2.3562 0
M  V30 4936 N 471.514 -1.37532 -0.769588 0
M  V30 4937 C 472.763 -1.32183 -1.5235 0
M  V30 4938 C 473.076 0.0906555 -1.9539 0
M  V30 4939 O 474.282 0.266628 -2.70188 0
M  V30 4940 C 472.738 -2.32029 -2.75119 0
M  V30 4941 C 472.346 -3.78816 -2.3917 0
M  V30 4942 C 474.09 -2.35694 -3.53056 0
M  V30 4943 C 471.997 -4.70388 -3.58453 0
M  V30 4944 H 470.927 -0.491275 -0.571984 0
M  V30 4945 H 473.578 -1.63004 -0.842739 0
M  V30 4946 H 471.96 -1.94229 -3.45096 0
M  V30 4947 H 473.134 -4.25466 -1.76962 0
M  V30 4948 H 471.449 -3.78117 -1.74402 0
M  V30 4949 H 474.046 -3.01312 -4.41718 0
M  V30 4950 H 474.389 -1.37117 -3.93071 0
M  V30 4951 H 474.922 -2.72212 -2.90078 0
M  V30 4952 H 471.661 -5.70102 -3.23518 0
M  V30 4953 H 471.181 -4.28442 -4.19758 0
M  V30 4954 H 472.86 -4.87628 -4.25239 0
M  V30 4955 N 472.992 0.995999 -1.22138 0
M  V30 4956 C 474.403 1.54961 -1.04135 0
M  V30 4957 C 474.754 1.92159 0.396147 0
M  V30 4958 O 473.879 1.74435 1.28069 0
M  V30 4959 C 474.474 2.81581 -1.88408 0
M  V30 4960 C 473.033 3.33396 -1.74712 0
M  V30 4961 C 472.18 2.06509 -1.85066 0
M  V30 4962 H 475.131 0.817436 -1.36028 0
M  V30 4963 H 475.152 3.53822 -1.39966 0
M  V30 4964 H 474.664 2.54476 -2.93025 0
M  V30 4965 H 472.765 3.65416 -0.728159 0
M  V30 4966 H 472.878 4.04208 -2.57202 0
M  V30 4967 H 471.242 2.19925 -1.28472 0
M  V30 4968 H 472.025 1.81804 -2.91208 0
M  V30 4969 N 474.47 1.03057 1.19235 0
M  V30 4970 C 475.718 0.726581 1.88587 0
M  V30 4971 C 476.039 -0.747227 1.80115 0
M  V30 4972 O 475.309 -1.53849 1.21274 0
M  V30 4973 H 473.889 0.265768 0.698124 0
M  V30 4974 H 476.551 1.30516 1.44746 0
M  V30 4975 H 475.647 1.0224 2.94879 0
M  V30 4976 N 475.948 -1.35272 0.808662 0
M  V30 4977 C 477.225 -1.93077 0.313181 0
M  V30 4978 C 477.605 -1.73847 -1.19752 0
M  V30 4979 O 476.953 -1.1087 -1.998 0
M  V30 4980 C 477.163 -3.41347 0.726859 0
M  V30 4981 C 478.511 -4.18493 0.717532 0
M  V30 4982 O 479.535 -3.4987 0.668535 0
M  V30 4983 O 478.394 -5.40937 0.777779 0
M  V30 4984 H 475.488 -0.822885 0.0824018 0
M  V30 4985 H 478.034 -1.44335 0.892499 0
M  V30 4986 H 476.806 -3.49082 1.76797 0
M  V30 4987 H 476.429 -3.97411 0.122461 0
M  V30 4988 N 477.426 -0.562348 -1.47226 0
M  V30 4989 C 478.373 0.182461 -2.30078 0
M  V30 4990 C 479.343 0.903503 -1.39377 0
M  V30 4991 O 480.528 0.898188 -1.68337 0
M  V30 4992 C 477.668 1.20322 -3.23445 0
M  V30 4993 C 476.781 0.487717 -4.29238 0
M  V30 4994 C 475.916 1.49422 -5.09752 0
M  V30 4995 C 474.955 0.763976 -6.07314 0
M  V30 4996 N 474.092 1.71755 -6.80768 0
M  V30 4997 H 478.932 -0.530169 -2.93246 0
M  V30 4998 H 476.469 -0.273276 -1.44539 0
M  V30 4999 H 478.427 1.80768 -3.76004 0
M  V30 5000 H 477.057 1.88382 -2.6213 0
M  V30 5001 H 476.109 -0.231374 -3.79696 0
M  V30 5002 H 477.421 -0.0841003 -4.98729 0
M  V30 5003 H 476.575 2.17206 -5.66486 0
M  V30 5004 H 475.314 2.09995 -4.40174 0
M  V30 5005 H 474.319 0.0722344 -5.49753 0
M  V30 5006 H 475.544 0.16391 -6.78902 0
M  V30 5007 H 473.49 2.31177 -6.13916 0
M  V30 5008 H 473.407 1.19802 -7.46447 0
M  V30 5009 H 474.675 2.38638 -7.42073 0
M  V30 5010 N 478.904 1.54736 -0.299062 0
M  V30 5011 C 479.814 2.27127 0.587413 0
M  V30 5012 C 480.83 1.30575 1.15005 0
M  V30 5013 O 482.006 1.63554 1.17525 0
M  V30 5014 C 479.071 2.99645 1.74395 0
M  V30 5015 C 478.132 4.11731 1.21559 0
M  V30 5016 C 477.365 4.80781 2.317 0
M  V30 5017 O 477.588 4.4918 3.51558 0
M  V30 5018 O 476.522 5.68226 1.98501 0
M  V30 5019 H 480.348 3.037 0.000250109 0
M  V30 5020 H 477.933 1.49256 -0.0655919 0
M  V30 5021 H 479.815 3.45138 2.4178 0
M  V30 5022 H 478.49 2.25969 2.31775 0
M  V30 5023 H 477.397 3.70641 0.507514 0
M  V30 5024 H 478.73 4.87379 0.687233 0
M  V30 5025 N 480.382 0.0267497 1.57577 0
M  V30 5026 C 481.612 -0.6617 1.95717 0
M  V30 5027 C 482.02 -1.66331 0.901706 0
M  V30 5028 O 481.363 -1.83273 -0.125241 0
M  V30 5029 C 481.425 -1.42649 3.29987 0
M  V30 5030 C 481.089 -0.583482 4.5326 0
M  V30 5031 C 482.086 0.140221 5.19711 0
M  V30 5032 C 479.771 -0.521581 4.99585 0
M  V30 5033 C 481.765 0.914523 6.30805 0
M  V30 5034 C 479.452 0.256428 6.10562 0
M  V30 5035 C 480.45 0.973189 6.76031 0
M  V30 5036 O 480.138 1.73845 7.84878 0
M  V30 5037 H 479.87 -0.187483 0.649481 0
M  V30 5038 H 482.424 0.0820847 2.05236 0
M  V30 5039 H 480.654 -2.21536 3.16952 0
M  V30 5040 H 482.343 -2.00282 3.53047 0
M  V30 5041 H 483.109 0.101716 4.84893 0
M  V30 5042 H 478.988 -1.06904 4.48433 0
M  V30 5043 H 482.532 1.4745 6.81839 0
M  V30 5044 H 478.429 0.296657 6.44818 0
M  V30 5045 H 479.197 1.65797 8.01532 0
M  V30 5046 N 481.861 -1.55662 -0.24637 0
M  V30 5047 C 483.101 -1.79283 -0.981685 0
M  V30 5048 C 483.465 -0.596356 -1.82504 0
M  V30 5049 O 484.666 -0.711342 -2.59217 0
M  V30 5050 C 482.937 -3.07648 -1.819 0
M  V30 5051 S 484.496 -3.52491 -2.61334 0
M  V30 5052 H 481.314 -0.629676 -0.330196 0
M  V30 5053 H 483.916 -1.93901 -0.249498 0
M  V30 5054 H 482.62 -3.92794 -1.18915 0
M  V30 5055 H 482.151 -2.95768 -2.59393 0
M  V30 5056 H 484.166 -3.13866 -3.84321 0
M  V30 5057 N 483.339 0.512053 -1.4905 0
M  V30 5058 C 484.588 1.26343 -1.57227 0
M  V30 5059 C 484.901 1.93876 -0.259155 0
M  V30 5060 O 486.107 2.70612 -0.219358 0
M  V30 5061 C 484.563 2.29343 -2.77362 0
M  V30 5062 C 484.171 1.67799 -4.15388 0
M  V30 5063 C 485.915 3.05378 -2.94864 0
M  V30 5064 C 483.822 2.68845 -5.2676 0
M  V30 5065 H 482.752 0.475231 -0.585382 0
M  V30 5066 H 485.403 0.53862 -1.75417 0
M  V30 5067 H 483.785 3.04938 -2.52643 0
M  V30 5068 H 484.959 0.982715 -4.50199 0
M  V30 5069 H 483.274 1.04194 -4.03153 0
M  V30 5070 H 485.871 3.80921 -3.75238 0
M  V30 5071 H 486.214 3.62327 -2.05 0
M  V30 5072 H 486.747 2.36898 -3.19569 0
M  V30 5073 H 483.486 2.16692 -6.18647 0
M  V30 5074 H 483.006 3.36647 -4.96416 0
M  V30 5075 H 484.685 3.31487 -5.5563 0
M  V30 5076 N 484.817 1.37938 0.762283 0
M  V30 5077 C 486.042 1.37059 1.55659 0
M  V30 5078 C 486.467 -0.0396123 1.88058 0
M  V30 5079 O 485.825 -1.01929 1.49934 0
M  V30 5080 C 485.873 2.22494 2.83776 0
M  V30 5081 O 484.977 1.63607 3.78559 0
M  V30 5082 H 484.318 0.467892 0.47114 0
M  V30 5083 H 486.848 1.81587 0.942725 0
M  V30 5084 H 486.858 2.36045 3.32786 0
M  V30 5085 H 485.533 3.24993 2.59524 0
M  V30 5086 H 484.11 1.5915 3.37233 0
M  V30 5087 N 486.295 -0.989507 1.22664 0
M  V30 5088 C 487.52 -1.77031 1.08051 0
M  V30 5089 C 487.945 -1.84535 -0.364483 0
M  V30 5090 O 487.303 -1.3003 -1.2634 0
M  V30 5091 C 487.351 -3.18 1.70024 0
M  V30 5092 O 486.455 -4.01161 0.956216 0
M  V30 5093 H 485.796 -0.545008 0.379292 0
M  V30 5094 H 488.326 -1.24277 1.62531 0
M  V30 5095 H 488.336 -3.68616 1.74888 0
M  V30 5096 H 487.011 -3.11853 2.75174 0
M  V30 5097 H 485.588 -3.59687 0.98384 0
M  V30 5098 N 487.773 -1.03688 -1.18687 0
M  V30 5099 C 489.05 -0.652397 -1.84399 0
M  V30 5100 C 489.43 0.868386 -1.92412 0
M  V30 5101 O 488.778 1.76832 -1.44716 0
M  V30 5102 C 488.988 -1.3238 -3.22919 0
M  V30 5103 C 490.336 -1.45216 -3.98996 0
M  V30 5104 O 491.36 -1.2816 -3.32345 0
M  V30 5105 O 490.219 -1.72975 -5.18403 0
M  V30 5106 H 487.313 -0.227793 -0.795009 0
M  V30 5107 H 489.859 -1.13553 -1.2611 0
M  V30 5108 H 488.631 -2.36202 -3.11968 0
M  V30 5109 H 488.254 -0.829039 -3.88861 0
M  V30 5110 N 489.251 1.34841 -0.815825 0
M  V30 5111 C 490.528 1.92908 -0.323416 0
M  V30 5112 C 490.908 1.74479 1.18828 0
M  V30 5113 O 490.256 1.11928 1.99209 0
M  V30 5114 C 490.466 3.40957 -0.744952 0
M  V30 5115 C 491.814 4.18107 -0.739716 0
M  V30 5116 O 492.838 3.49511 -0.68708 0
M  V30 5117 O 491.697 5.40517 -0.806456 0
M  V30 5118 H 488.791 0.822436 -0.0867646 0
M  V30 5119 H 491.337 1.4386 -0.90014 0
M  V30 5120 H 490.109 3.4814 -1.78646 0
M  V30 5121 H 489.732 3.97341 -0.143535 0
M  V30 5122 N 490.729 0.570148 1.46925 0
M  V30 5123 C 491.659 -0.158274 2.32963 0
M  V30 5124 C 492.64 -0.896093 1.44583 0
M  V30 5125 O 493.825 -0.874022 1.7342 0
M  V30 5126 C 490.955 -1.18055 3.26619 0
M  V30 5127 C 489.909 -0.558379 4.24342 0
M  V30 5128 C 489.235 -1.68623 5.07415 0
M  V30 5129 C 490.535 0.496295 5.19937 0
M  V30 5130 H 492.229 0.560046 2.94115 0
M  V30 5131 H 489.775 0.270775 1.41431 0
M  V30 5132 H 491.728 -1.69841 3.85658 0
M  V30 5133 H 490.452 -1.92899 2.63548 0
M  V30 5134 H 489.111 -0.0617157 3.66548 0
M  V30 5135 H 488.759 -2.42402 4.40738 0
M  V30 5136 H 488.459 -1.27564 5.73586 0
M  V30 5137 H 489.983 -2.20709 5.69315 0
M  V30 5138 H 491.397 0.0640052 5.73264 0
M  V30 5139 H 489.794 0.82649 5.94381 0
M  V30 5140 H 490.864 1.38735 4.6463 0
M  V30 5141 N 492.207 -1.54576 0.307264 0
M  V30 5142 C 493.454 -2.00263 -0.300167 0
M  V30 5143 C 493.782 -1.19561 -1.53413 0
M  V30 5144 O 493.037 -0.261487 -1.93945 0
M  V30 5145 C 493.336 -3.50572 -0.695253 0
M  V30 5146 C 493.002 -4.48771 0.437679 0
M  V30 5147 C 491.664 -4.7534 0.748681 0
M  V30 5148 C 494.016 -5.0721 1.19949 0
M  V30 5149 C 491.344 -5.5761 1.8245 0
M  V30 5150 C 493.696 -5.90651 2.26527 0
M  V30 5151 C 492.36 -6.15528 2.58227 0
M  V30 5152 H 491.63 -0.732814 -0.109839 0
M  V30 5153 H 494.277 -1.86664 0.427661 0
M  V30 5154 H 492.582 -3.61814 -1.50326 0
M  V30 5155 H 494.279 -3.83352 -1.17653 0
M  V30 5156 H 490.869 -4.282 0.185187 0
M  V30 5157 H 495.053 -4.86679 0.972474 0
M  V30 5158 H 490.309 -5.75121 2.07476 0
M  V30 5159 H 494.483 -6.34957 2.86011 0
M  V30 5160 H 492.11 -6.79066 3.4172 0
M  V30 5161 N 493.685 -0.035106 -1.57561 0
M  V30 5162 C 494.91 0.655802 -1.96759 0
M  V30 5163 C 495.335 1.64523 -0.911809 0
M  V30 5164 O 494.693 1.80857 0.126673 0
M  V30 5165 C 494.741 1.33326 -3.35047 0
M  V30 5166 O 493.845 2.44866 -3.31835 0
M  V30 5167 H 493.186 0.171807 -0.641388 0
M  V30 5168 H 495.716 -0.0987369 -2.04362 0
M  V30 5169 H 495.726 1.68867 -3.71413 0
M  V30 5170 H 494.401 0.608033 -4.11431 0
M  V30 5171 H 492.978 2.11392 -3.07193 0
M  V30 5172 N 495.163 1.55791 0.238111 0
M  V30 5173 C 496.093 1.94068 1.29846 0
M  V30 5174 C 497.074 0.806726 1.49753 0
M  V30 5175 O 498.259 1.06772 1.62214 0
M  V30 5176 C 495.389 2.24302 2.65153 0
M  V30 5177 C 494.343 3.40032 2.59927 0
M  V30 5178 C 493.669 3.55829 3.99111 0
M  V30 5179 C 494.969 4.75476 2.16148 0
M  V30 5180 H 496.663 2.82887 0.980563 0
M  V30 5181 H 494.209 1.36105 0.470253 0
M  V30 5182 H 496.162 2.4967 3.39475 0
M  V30 5183 H 494.886 1.32318 2.98596 0
M  V30 5184 H 493.545 3.14687 1.88063 0
M  V30 5185 H 493.193 2.6125 4.29834 0
M  V30 5186 H 492.893 4.3366 3.96501 0
M  V30 5187 H 494.417 3.83528 4.7512 0
M  V30 5188 H 495.831 5.00158 2.80205 0
M  V30 5189 H 494.228 5.56472 2.24631 0
M  V30 5190 H 495.298 4.71946 1.11333 0
M  V30 5191 N 496.642 -0.504142 1.49319 0
M  V30 5192 C 498.053 -1.08572 1.51885 0
M  V30 5193 C 498.404 -1.93842 0.303255 0
M  V30 5194 O 497.529 -2.0828 -0.58724 0
M  V30 5195 C 498.124 -1.97574 2.75227 0
M  V30 5196 C 496.683 -2.509 2.80581 0
M  V30 5197 C 495.83 -1.28447 2.45757 0
M  V30 5198 H 498.781 -0.288194 1.56061 0
M  V30 5199 H 498.802 -2.82219 2.55211 0
M  V30 5200 H 498.314 -1.35486 3.63683 0
M  V30 5201 H 496.415 -3.16636 1.96398 0
M  V30 5202 H 496.528 -2.88268 3.82673 0
M  V30 5203 H 494.892 -1.60868 1.97468 0
M  V30 5204 H 495.675 -0.68072 3.36483 0
M  V30 5205 N 498.12 -1.38341 -0.754957 0
M  V30 5206 C 499.35 -1.37504 -1.54195 0
M  V30 5207 C 499.758 0.0373787 -1.89163 0
M  V30 5208 O 499.101 1.01402 -1.53178 0
M  V30 5209 C 499.163 -2.16488 -2.87008 0
M  V30 5210 C 498.827 -3.65311 -2.74585 0
M  V30 5211 C 499.824 -4.58834 -2.44474 0
M  V30 5212 C 497.509 -4.08649 -2.9208 0
M  V30 5213 C 499.503 -5.93675 -2.32011 0
M  V30 5214 C 497.19 -5.43571 -2.79237 0
M  V30 5215 C 498.188 -6.35898 -2.49245 0
M  V30 5216 O 497.876 -7.68338 -2.36458 0
M  V30 5217 H 497.608 -0.472159 -0.483779 0
M  V30 5218 H 500.162 -1.82515 -0.94221 0
M  V30 5219 H 498.392 -1.66194 -3.49166 0
M  V30 5220 H 500.081 -2.08076 -3.4851 0
M  V30 5221 H 500.847 -4.26657 -2.30627 0
M  V30 5222 H 496.726 -3.37134 -3.14422 0
M  V30 5223 H 500.27 -6.65706 -2.08522 0
M  V30 5224 H 496.167 -5.75345 -2.92657 0
M  V30 5225 H 496.935 -7.78845 -2.5168 0
M  V30 5226 N 499.598 0.982988 -1.23187 0
M  V30 5227 C 500.838 1.73903 -1.07412 0
M  V30 5228 C 501.202 1.88146 0.382764 0
M  V30 5229 O 502.403 2.6053 0.661638 0
M  V30 5230 C 500.674 3.10105 -1.77678 0
M  V30 5231 S 502.233 4.01323 -1.77441 0
M  V30 5232 H 499.051 0.598093 -0.384456 0
M  V30 5233 H 501.653 1.17456 -1.56283 0
M  V30 5234 H 500.357 2.97388 -2.82822 0
M  V30 5235 H 499.888 3.71622 -1.29077 0
M  V30 5236 H 501.903 4.89189 -0.831162 0
M  V30 5237 N 501.076 1.04316 1.18135 0
M  V30 5238 C 502.487 0.775505 1.69832 0
M  V30 5239 C 502.838 -0.703348 1.8316 0
M  V30 5240 O 501.963 -1.54729 1.51287 0
M  V30 5241 C 502.558 1.40112 3.0847 0
M  V30 5242 C 501.117 1.18172 3.57368 0
M  V30 5243 C 500.264 1.49022 2.33854 0
M  V30 5244 H 503.215 1.20925 1.02775 0
M  V30 5245 H 503.236 0.805672 3.71873 0
M  V30 5246 H 502.748 2.47744 2.98738 0
M  V30 5247 H 500.849 0.124258 3.72393 0
M  V30 5248 H 500.962 1.8805 4.40652 0
M  V30 5249 H 499.326 0.909995 2.37889 0
M  V30 5250 H 500.109 2.57768 2.26738 0
M  V30 5251 N 502.554 -1.34406 0.822964 0
M  V30 5252 C 503.802 -1.97892 0.410245 0
M  V30 5253 C 504.123 -1.65567 -1.03017 0
M  V30 5254 O 503.393 -0.94642 -1.71522 0
M  V30 5255 H 501.973 -0.732049 0.148707 0
M  V30 5256 H 504.635 -1.64043 1.05242 0
M  V30 5257 H 503.731 -3.07579 0.529284 0
M  V30 5258 N 504.032 -0.577932 -1.46621 0
M  V30 5259 C 504.979 0.158048 -2.30258 0
M  V30 5260 C 505.949 0.888669 -1.40328 0
M  V30 5261 O 507.134 0.880283 -1.6928 0
M  V30 5262 C 504.274 1.16884 -3.24703 0
M  V30 5263 C 503.387 0.442163 -4.29731 0
M  V30 5264 C 502.522 1.44007 -5.11308 0
M  V30 5265 C 501.561 0.69952 -6.0809 0
M  V30 5266 N 500.698 1.64525 -6.82551 0
M  V30 5267 H 505.538 -0.561242 -2.92667 0
M  V30 5268 H 503.075 -0.288591 -1.44241 0
M  V30 5269 H 505.033 1.7677 -3.779 0
M  V30 5270 H 503.663 1.85591 -2.64113 0
M  V30 5271 H 502.715 -0.271632 -3.79429 0
M  V30 5272 H 504.027 -0.136992 -4.98612 0
M  V30 5273 H 503.181 2.11186 -5.68758 0
M  V30 5274 H 501.92 2.05315 -4.42377 0
M  V30 5275 H 500.925 0.0139217 -5.49798 0
M  V30 5276 H 502.15 0.091894 -6.79038 0
M  V30 5277 H 500.096 2.24653 -6.16334 0
M  V30 5278 H 500.013 1.11878 -7.47676 0
M  V30 5279 H 501.281 2.30754 -7.44562 0
M  V30 5280 N 505.51 1.54411 -0.315457 0
M  V30 5281 C 506.738 2.04833 0.291738 0
M  V30 5282 C 507.153 1.19203 1.46411 0
M  V30 5283 O 506.51 0.220867 1.81159 0
M  V30 5284 C 506.561 3.53969 0.73404 0
M  V30 5285 O 506.282 4.36346 -0.391682 0
M  V30 5286 C 507.783 4.2045 1.40489 0
M  V30 5287 H 505.003 0.668195 0.0612947 0
M  V30 5288 H 507.547 1.99276 -0.45929 0
M  V30 5289 H 505.702 3.5984 1.43506 0
M  V30 5290 H 506.116 5.24481 -0.0447088 0
M  V30 5291 H 507.59 5.26278 1.66539 0
M  V30 5292 H 508.067 3.71067 2.3496 0
M  V30 5293 H 508.673 4.18694 0.746662 0
M  V30 5294 N 506.988 0.0434614 1.5754 0
M  V30 5295 C 507.918 -0.931651 2.14109 0
M  V30 5296 C 508.899 -1.32971 1.06079 0
M  V30 5297 O 510.084 -1.40579 1.33982 0
M  V30 5298 C 507.214 -2.20914 2.67982 0
M  V30 5299 C 506.168 -1.95139 3.80926 0
M  V30 5300 C 505.494 -3.29276 4.21285 0
M  V30 5301 C 506.794 -1.27913 5.06395 0
M  V30 5302 H 508.488 -0.460497 2.95837 0
M  V30 5303 H 506.034 -0.220058 1.42309 0
M  V30 5304 H 507.987 -2.89522 3.06194 0
M  V30 5305 H 506.711 -2.70221 1.83434 0
M  V30 5306 H 505.37 -1.28945 3.43175 0
M  V30 5307 H 505.018 -3.76369 3.33699 0
M  V30 5308 H 504.718 -3.12831 4.97404 0
M  V30 5309 H 506.242 -3.99129 4.62091 0
M  V30 5310 H 507.656 -1.86544 5.42102 0
M  V30 5311 H 506.053 -1.2182 5.87605 0
M  V30 5312 H 507.123 -0.254066 4.84234 0
M  V30 5313 N 508.466 -1.55915 -0.229846 0
M  V30 5314 C 509.712 -1.78807 -0.956868 0
M  V30 5315 C 510.045 -0.611687 -1.84315 0
M  V30 5316 O 509.32 0.389398 -1.90562 0
M  V30 5317 C 509.603 -3.11718 -1.80288 0
M  V30 5318 C 509.456 -4.3979 -0.943649 0
M  V30 5319 C 510.775 -3.40999 -2.78222 0
M  V30 5320 H 507.894 -0.6505 -0.346437 0
M  V30 5321 H 510.536 -1.88648 -0.226252 0
M  V30 5322 H 508.686 -3.03459 -2.42579 0
M  V30 5323 H 510.358 -4.60059 -0.338121 0
M  V30 5324 H 508.601 -4.33086 -0.248705 0
M  V30 5325 H 509.272 -5.29208 -1.5698 0
M  V30 5326 H 511.748 -3.49332 -2.26067 0
M  V30 5327 H 510.624 -4.35183 -3.34526 0
M  V30 5328 H 510.885 -2.62754 -3.55546 0
M  V30 5329 N 509.944 0.496216 -1.49584 0
M  V30 5330 C 511.19 1.25189 -1.59548 0
M  V30 5331 C 511.523 1.9212 -0.283466 0
M  V30 5332 O 510.798 1.80947 0.713324 0
M  V30 5333 C 511.081 2.31516 -2.75812 0
M  V30 5334 C 510.934 1.69054 -4.16822 0
M  V30 5335 C 512.253 3.3304 -2.87702 0
M  V30 5336 H 509.372 0.45379 -0.580727 0
M  V30 5337 H 512.014 0.549327 -1.81886 0
M  V30 5338 H 510.164 2.91438 -2.56897 0
M  V30 5339 H 511.836 1.12923 -4.47265 0
M  V30 5340 H 510.079 0.994485 -4.22247 0
M  V30 5341 H 510.75 2.462 -4.94054 0
M  V30 5342 H 513.226 2.83114 -3.04936 0
M  V30 5343 H 512.102 4.04794 -3.7072 0
M  V30 5344 H 512.363 3.95655 -1.97255 0
M  V30 5345 N 511.423 1.38739 0.74761 0
M  V30 5346 C 512.671 1.35007 1.50391 0
M  V30 5347 C 512.992 -0.0574274 1.94915 0
M  V30 5348 O 512.262 -1.00628 1.6808 0
M  V30 5349 H 510.842 0.496784 0.557866 0
M  V30 5350 H 513.504 1.73479 0.888319 0
M  V30 5351 H 512.6 2.00474 2.392 0
M  V30 5352 N 512.901 -0.976442 1.23707 0
M  V30 5353 C 513.864 -2.0511 1.02287 0
M  V30 5354 C 514.864 -1.60791 -0.0167195 0
M  V30 5355 O 516.054 -1.72761 0.223408 0
M  V30 5356 C 513.186 -3.36458 0.548507 0
M  V30 5357 H 514.379 -2.25545 1.9766 0
M  V30 5358 H 511.932 -1.15042 1.05806 0
M  V30 5359 H 512.667 -3.21713 -0.408818 0
M  V30 5360 H 512.452 -3.69967 1.29874 0
M  V30 5361 H 513.942 -4.15489 0.419406 0
M  V30 5362 N 514.379 -1.04941 -1.1758 0
M  V30 5363 C 515.604 -0.778253 -1.92245 0
M  V30 5364 C 516.029 0.659707 -1.76152 0
M  V30 5365 O 515.387 1.45803 -1.07755 0
M  V30 5366 C 515.435 -1.16051 -3.41416 0
M  V30 5367 O 514.539 -0.291153 -4.11371 0
M  V30 5368 H 513.88 -0.285619 -0.599431 0
M  V30 5369 H 516.41 -1.40159 -1.49052 0
M  V30 5370 H 516.42 -1.12619 -3.92149 0
M  V30 5371 H 515.095 -2.208 -3.52449 0
M  V30 5372 H 513.672 -0.385851 -3.70898 0
M  V30 5373 N 515.857 1.33968 -0.830081 0
M  V30 5374 C 517.087 2.01987 -0.434142 0
M  V30 5375 C 517.495 1.62639 0.96671 0
M  V30 5376 O 516.838 0.831151 1.63822 0
M  V30 5377 C 516.9 3.5648 -0.465018 0
M  V30 5378 C 516.564 4.19176 -1.82045 0
M  V30 5379 C 517.561 4.39181 -2.78237 0
M  V30 5380 C 515.246 4.55792 -2.11089 0
M  V30 5381 C 517.24 4.94937 -4.01642 0
M  V30 5382 C 514.927 5.11258 -3.34752 0
M  V30 5383 C 515.925 5.30775 -4.29845 0
M  V30 5384 O 515.613 5.85064 -5.51322 0
M  V30 5385 H 515.345 0.653847 -0.171639 0
M  V30 5386 H 517.899 1.72066 -1.12171 0
M  V30 5387 H 516.129 3.8569 0.279284 0
M  V30 5388 H 517.818 4.05804 -0.0881334 0
M  V30 5389 H 518.584 4.11249 -2.57097 0
M  V30 5390 H 514.463 4.39901 -1.3787 0
M  V30 5391 H 518.007 5.10086 -4.75876 0
M  V30 5392 H 513.904 5.38619 -3.55753 0
M  V30 5393 H 514.672 6.03489 -5.5294 0
M  V30 5394 N 517.335 0.585699 1.46312 0
M  V30 5395 C 518.581 0.0725284 2.0267 0
M  V30 5396 C 518.914 -1.28523 1.45586 0
M  V30 5397 O 518.189 -1.84283 0.622101 0
M  V30 5398 C 518.472 0.0099788 3.60099 0
M  V30 5399 C 518.325 1.39685 4.27561 0
M  V30 5400 C 519.644 -0.689117 4.34671 0
M  V30 5401 H 516.763 0.0278307 0.736474 0
M  V30 5402 H 519.405 0.753472 1.74421 0
M  V30 5403 H 517.555 -0.56992 3.84297 0
M  V30 5404 H 519.227 2.02215 4.14617 0
M  V30 5405 H 517.47 1.96374 3.86807 0
M  V30 5406 H 518.141 1.30553 5.36339 0
M  V30 5407 H 520.617 -0.196446 4.15636 0
M  V30 5408 H 519.493 -0.701921 5.44393 0
M  V30 5409 H 519.754 -1.75101 4.05946 0
M  V30 5410 N 518.813 -1.54241 0.323641 0
M  V30 5411 C 519.776 -2.22997 -0.529602 0
M  V30 5412 C 520.776 -1.22345 -1.04347 0
M  V30 5413 O 521.966 -1.46924 -0.935889 0
M  V30 5414 C 519.098 -2.93409 -1.73562 0
M  V30 5415 H 520.291 -2.99815 0.0714518 0
M  V30 5416 H 517.844 -1.56121 0.0747258 0
M  V30 5417 H 518.579 -2.20729 -2.37591 0
M  V30 5418 H 518.364 -3.67217 -1.37456 0
M  V30 5419 H 519.854 -3.45794 -2.34128 0
M  V30 5420 N 520.291 -0.0518155 -1.57515 0
M  V30 5421 C 521.221 0.920283 -2.146 0
M  V30 5422 C 522.202 1.32406 -1.06783 0
M  V30 5423 O 523.387 1.39866 -1.34726 0
M  V30 5424 C 520.517 2.1949 -2.6915 0
M  V30 5425 C 519.471 1.93116 -3.81956 0
M  V30 5426 C 518.797 3.27037 -4.23026 0
M  V30 5427 C 520.097 1.25225 -5.07066 0
M  V30 5428 H 521.791 0.444801 -2.96077 0
M  V30 5429 H 519.337 0.212508 -1.42423 0
M  V30 5430 H 521.29 2.87894 -3.07725 0
M  V30 5431 H 520.014 2.69244 -1.84865 0
M  V30 5432 H 518.673 1.27123 -3.43854 0
M  V30 5433 H 518.321 3.74595 -3.3569 0
M  V30 5434 H 518.021 3.10189 -4.99056 0
M  V30 5435 H 519.545 3.96673 -4.64202 0
M  V30 5436 H 520.959 1.83666 -5.43083 0
M  V30 5437 H 519.356 1.18702 -5.88243 0
M  V30 5438 H 520.426 0.228382 -4.84362 0
M  V30 5439 N 521.769 1.56035 0.221574 0
M  V30 5440 C 522.679 1.95581 1.29558 0
M  V30 5441 C 523.695 0.859639 1.51282 0
M  V30 5442 O 524.871 1.16321 1.64413 0
M  V30 5443 C 521.936 2.26447 2.62531 0
M  V30 5444 C 520.997 3.49632 2.4911 0
M  V30 5445 C 520.23 3.79017 3.75742 0
M  V30 5446 O 520.453 3.10077 4.78757 0
M  V30 5447 O 519.387 4.72507 3.72855 0
M  V30 5448 H 523.213 2.8711 0.990035 0
M  V30 5449 H 520.798 1.43244 0.424434 0
M  V30 5450 H 522.68 2.47494 3.41064 0
M  V30 5451 H 521.355 1.38092 2.92766 0
M  V30 5452 H 520.262 3.33864 1.68777 0
M  V30 5453 H 521.595 4.3837 2.23814 0
M  V30 5454 N 523.247 -0.488276 1.49845 0
M  V30 5455 C 524.487 -1.2516 1.61599 0
M  V30 5456 C 524.851 -1.89615 0.301706 0
M  V30 5457 O 526.052 -2.67182 0.29453 0
M  V30 5458 C 524.323 -2.2805 2.75187 0
M  V30 5459 S 525.882 -3.13552 3.0697 0
M  V30 5460 H 522.7 -0.425178 0.569864 0
M  V30 5461 H 525.302 -0.551545 1.87559 0
M  V30 5462 H 524.006 -1.7925 3.69185 0
M  V30 5463 H 523.537 -3.02708 2.5126 0
M  V30 5464 H 525.552 -4.28927 2.49471 0
M  V30 5465 N 524.725 -1.39134 -0.740242 0
M  V30 5466 C 525.688 -1.37217 -1.83587 0
M  V30 5467 C 526.688 -0.270221 -1.58513 0
M  V30 5468 O 527.878 -0.527843 -1.6601 0
M  V30 5469 C 525.01 -1.13959 -3.21288 0
M  V30 5470 H 526.203 -2.34705 -1.86691 0
M  V30 5471 H 523.756 -1.24622 -0.94335 0
M  V30 5472 H 524.491 -0.17131 -3.23847 0
M  V30 5473 H 524.276 -1.93754 -3.40884 0
M  V30 5474 H 525.766 -1.15346 -4.01354 0
M  V30 5475 N 526.204 0.969867 -1.24223 0
M  V30 5476 C 527.452 1.70918 -1.0785 0
M  V30 5477 C 527.773 1.91186 0.383763 0
M  V30 5478 O 527.043 1.48806 1.27411 0
M  V30 5479 H 525.623 0.633334 -0.396103 0
M  V30 5480 H 528.285 1.16689 -1.56108 0
M  V30 5481 H 527.381 2.69455 -1.57482 0
M  V30 5482 N 527.682 1.05563 1.17022 0
M  V30 5483 C 528.929 0.767937 1.87374 0
M  V30 5484 C 529.257 -0.705224 1.81265 0
M  V30 5485 O 528.512 -1.5318 1.21796 0
M  V30 5486 C 528.811 1.19849 3.36706 0
M  V30 5487 C 528.477 2.6745 3.63017 0
M  V30 5488 C 527.139 3.0777 3.69907 0
M  V30 5489 C 529.491 3.62811 3.74189 0
M  V30 5490 C 526.819 4.42307 3.85463 0
M  V30 5491 C 529.171 4.97087 3.91264 0
M  V30 5492 C 527.835 5.37055 3.96394 0
M  V30 5493 H 527.105 0.281008 0.68565 0
M  V30 5494 H 529.752 1.32339 1.38415 0
M  V30 5495 H 528.057 0.562096 3.87747 0
M  V30 5496 H 529.754 0.953038 3.8951 0
M  V30 5497 H 526.344 2.35228 3.58282 0
M  V30 5498 H 530.528 3.32798 3.68183 0
M  V30 5499 H 525.784 4.72769 3.87684 0
M  V30 5500 H 529.958 5.70869 3.9885 0
M  V30 5501 H 527.585 6.41308 4.082 0
M  V30 5502 N 529.16 -1.33526 0.837174 0
M  V30 5503 C 530.09 -2.31764 0.284206 0
M  V30 5504 C 531.071 -1.58896 -0.607142 0
M  V30 5505 O 532.256 -1.86798 -0.531047 0
M  V30 5506 C 529.386 -3.43029 -0.542962 0
M  V30 5507 C 528.34 -4.27255 0.252451 0
M  V30 5508 C 527.666 -5.3012 -0.69836 0
M  V30 5509 C 528.966 -5.01229 1.46858 0
M  V30 5510 H 530.66 -2.78262 1.10502 0
M  V30 5511 H 528.206 -1.3378 0.532812 0
M  V30 5512 H 530.159 -4.1078 -0.940096 0
M  V30 5513 H 528.883 -2.95216 -1.39697 0
M  V30 5514 H 527.542 -3.61127 0.631124 0
M  V30 5515 H 527.19 -4.78564 -1.54872 0
M  V30 5516 H 526.89 -5.87353 -0.170274 0
M  V30 5517 H 528.414 -6.00737 -1.09305 0
M  V30 5518 H 529.828 -5.61756 1.14469 0
M  V30 5519 H 528.225 -5.68104 1.93333 0
M  V30 5520 H 529.295 -4.301 2.23924 0
M  V30 5521 N 530.638 -0.59345 -1.46 0
M  V30 5522 C 531.601 0.123538 -2.28867 0
M  V30 5523 C 532.601 0.808628 -1.38989 0
M  V30 5524 O 533.791 0.658945 -1.61256 0
M  V30 5525 C 530.923 1.1847 -3.19653 0
M  V30 5526 H 532.116 -0.604843 -2.93737 0
M  V30 5527 H 529.669 -0.351875 -1.52288 0
M  V30 5528 H 530.404 1.94431 -2.59552 0
M  V30 5529 H 530.189 0.69783 -3.8584 0
M  V30 5530 H 531.679 1.68726 -3.81997 0
M  V30 5531 N 532.116 1.54067 -0.331816 0
M  V30 5532 C 533.364 2.00319 0.267739 0
M  V30 5533 C 533.685 1.22148 1.52003 0
M  V30 5534 O 532.955 0.325494 1.93177 0
M  V30 5535 H 531.535 0.740014 0.101922 0
M  V30 5536 H 534.197 1.89628 -0.450267 0
M  V30 5537 H 533.293 3.07765 0.518385 0
M  V30 5538 N 533.594 0.0601682 1.57485 0
M  V30 5539 C 534.843 -0.611101 1.9222 0
M  V30 5540 C 535.156 -1.71469 0.941159 0
M  V30 5541 O 536.362 -2.44473 1.18089 0
M  V30 5542 C 534.818 -1.13832 3.41424 0
M  V30 5543 C 534.426 -0.0663596 4.47951 0
M  V30 5544 C 536.17 -1.78432 3.85178 0
M  V30 5545 C 534.077 -0.606965 5.88277 0
M  V30 5546 H 533.007 -0.232033 0.71741 0
M  V30 5547 H 535.658 0.130518 1.83035 0
M  V30 5548 H 534.04 -1.93254 3.45643 0
M  V30 5549 H 535.214 0.707682 4.55333 0
M  V30 5550 H 533.529 0.482715 4.13593 0
M  V30 5551 H 536.126 -2.1989 4.87394 0
M  V30 5552 H 536.469 -2.63966 3.21913 0
M  V30 5553 H 537.002 -1.05651 3.83514 0
M  V30 5554 H 533.741 0.21095 6.5516 0
M  V30 5555 H 533.261 -1.34879 5.84438 0
M  V30 5556 H 534.94 -1.08704 6.37803 0
M  V30 5557 N 535.072 -1.5615 -0.213296 0
M  V30 5558 C 536.32 -1.79191 -0.934612 0
M  V30 5559 C 536.641 -0.630112 -1.84539 0
M  V30 5560 O 535.911 0.35257 -1.92701 0
M  V30 5561 H 534.491 -0.660937 -0.348097 0
M  V30 5562 H 537.153 -1.93618 -0.22317 0
M  V30 5563 H 536.249 -2.71656 -1.53654 0
M  V30 5564 N 536.55 0.480323 -1.50102 0
M  V30 5565 C 537.48 1.58769 -1.71215 0
M  V30 5566 C 538.461 1.60583 -0.560997 0
M  V30 5567 O 539.646 1.76996 -0.799127 0
M  V30 5568 C 536.776 2.97148 -1.79778 0
M  V30 5569 C 535.73 3.10201 -2.94888 0
M  V30 5570 C 535.056 4.50137 -2.88584 0
M  V30 5571 C 536.356 2.88283 -4.35534 0
M  V30 5572 H 538.05 1.41354 -2.6393 0
M  V30 5573 H 535.596 0.678591 -1.27008 0
M  V30 5574 H 537.549 3.74536 -1.93133 0
M  V30 5575 H 536.273 3.15699 -0.836772 0
M  V30 5576 H 534.932 2.35244 -2.81169 0
M  V30 5577 H 534.58 4.65593 -1.90349 0
M  V30 5578 H 534.28 4.59808 -3.65856 0
M  V30 5579 H 535.804 5.29558 -3.03976 0
M  V30 5580 H 537.218 3.55427 -4.49827 0
M  V30 5581 H 535.615 3.09408 -5.14186 0
M  V30 5582 H 536.685 1.84219 -4.48544 0
M  V30 5583 N 538.028 1.39524 0.732853 0
M  V30 5584 C 539.305 1.27373 1.48444 0
M  V30 5585 C 539.685 -0.115725 2.10783 0
M  V30 5586 O 539.033 -1.12713 1.98766 0
M  V30 5587 C 539.243 2.39966 2.53412 0
M  V30 5588 C 540.591 2.79384 3.19733 0
M  V30 5589 O 541.615 2.39431 2.63725 0
M  V30 5590 O 540.474 3.48353 4.21085 0
M  V30 5591 H 537.568 0.499272 0.659285 0
M  V30 5592 H 540.114 1.51403 0.766496 0
M  V30 5593 H 538.886 3.32845 2.05742 0
M  V30 5594 H 538.509 2.17612 3.32762 0
M  V30 5595 N 539.506 -0.963266 1.24736 0
M  V30 5596 C 540.752 -1.70933 1.09131 0
M  V30 5597 C 541.085 -1.90676 -0.368273 0
M  V30 5598 O 540.36 -1.47147 -1.27193 0
M  V30 5599 C 540.643 -3.09744 1.83658 0
M  V30 5600 C 540.496 -2.97465 3.37394 0
M  V30 5601 C 541.815 -4.09483 1.61282 0
M  V30 5602 H 538.934 -0.620398 0.397838 0
M  V30 5603 H 541.576 -1.12028 1.53459 0
M  V30 5604 H 539.726 -3.60031 1.4598 0
M  V30 5605 H 541.398 -2.54571 3.84696 0
M  V30 5606 H 539.641 -2.33576 3.65547 0
M  V30 5607 H 540.312 -3.95822 3.84745 0
M  V30 5608 H 542.788 -3.68073 1.94066 0
M  V30 5609 H 541.664 -5.04666 2.15878 0
M  V30 5610 H 541.925 -4.38639 0.552102 0
M  V30 5611 N 540.985 -1.06182 -1.16461 0
M  V30 5612 C 542.213 -0.798583 -1.90867 0
M  V30 5613 C 542.628 0.646921 -1.77371 0
M  V30 5614 O 541.985 1.44279 -1.11758 0
M  V30 5615 C 542.036 -1.18258 -3.4161 0
M  V30 5616 O 541.757 -2.57135 -3.54701 0
M  V30 5617 C 543.258 -0.946917 -4.33069 0
M  V30 5618 H 540.478 -0.289603 -0.605286 0
M  V30 5619 H 543.022 -1.41515 -1.47627 0
M  V30 5620 H 541.177 -0.610562 -3.82558 0
M  V30 5621 H 541.591 -2.72477 -4.4817 0
M  V30 5622 H 543.065 -1.26523 -5.37304 0
M  V30 5623 H 543.542 0.117406 -4.39043 0
M  V30 5624 H 544.148 -1.50326 -3.97847 0
M  V30 5625 N 542.463 1.3308 -0.844243 0
M  V30 5626 C 543.709 1.97898 -0.443206 0
M  V30 5627 C 544.042 1.66699 0.99625 0
M  V30 5628 O 543.317 0.949704 1.69738 0
M  V30 5629 C 543.6 3.53801 -0.670606 0
M  V30 5630 C 543.453 3.94667 -2.15772 0
M  V30 5631 C 544.772 4.39936 -0.120226 0
M  V30 5632 H 541.891 0.718861 -0.162504 0
M  V30 5633 H 544.533 1.57633 -1.06075 0
M  V30 5634 H 542.683 3.88229 -0.14496 0
M  V30 5635 H 544.355 3.70469 -2.74865 0
M  V30 5636 H 542.598 3.44203 -2.6402 0
M  V30 5637 H 543.269 5.03275 -2.26757 0
M  V30 5638 H 545.745 4.12183 -0.5696 0
M  V30 5639 H 544.621 5.4803 -0.308984 0
M  V30 5640 H 544.882 4.31184 0.976347 0
M  V30 5641 N 543.941 0.601185 1.45683 0
M  V30 5642 C 544.874 -0.17013 2.27565 0
M  V30 5643 C 545.852 -0.879661 1.36751 0
M  V30 5644 O 547.036 -0.889827 1.66176 0
M  V30 5645 C 544.163 -1.24568 3.14961 0
M  V30 5646 C 543.209 -0.639978 4.21671 0
M  V30 5647 S 544.042 0.547275 5.32696 0
M  V30 5648 C 545.198 -0.529019 6.2366 0
M  V30 5649 H 545.431 0.524583 2.92635 0
M  V30 5650 H 542.964 0.388537 1.49431 0
M  V30 5651 H 544.922 -1.86138 3.65873 0
M  V30 5652 H 543.583 -1.91243 2.49169 0
M  V30 5653 H 542.776 -1.44903 4.8272 0
M  V30 5654 H 542.378 -0.0995558 3.73867 0
M  V30 5655 H 544.67 -1.40981 6.62669 0
M  V30 5656 H 545.613 0.0451599 7.08086 0
M  V30 5657 H 546.021 -0.84147 5.58193 0
M  V30 5658 N 545.419 -1.53889 0.339982 0
M  V30 5659 C 546.665 -2.01152 -0.258003 0
M  V30 5660 C 546.998 -1.22749 -1.50487 0
M  V30 5661 O 546.273 -0.314156 -1.91946 0
M  V30 5662 C 546.556 -3.55468 -0.575717 0
M  V30 5663 C 546.409 -4.44584 0.682996 0
M  V30 5664 C 547.728 -4.1768 -1.38677 0
M  V30 5665 H 544.847 -0.731198 -0.0922992 0
M  V30 5666 H 547.489 -1.84352 0.459814 0
M  V30 5667 H 545.639 -3.69914 -1.18725 0
M  V30 5668 H 547.311 -4.41981 1.32102 0
M  V30 5669 H 545.554 -4.13592 1.3086 0
M  V30 5670 H 546.225 -5.5043 0.416001 0
M  V30 5671 H 548.701 -4.0691 -0.869705 0
M  V30 5672 H 547.577 -5.25734 -1.57783 0
M  V30 5673 H 547.838 -3.72069 -2.38782 0
M  V30 5674 N 546.897 -0.0685191 -1.57451 0
M  V30 5675 C 548.313 0.288101 -1.56978 0
M  V30 5676 C 548.513 1.70262 -1.07765 0
M  V30 5677 O 547.569 2.4135 -0.742054 0
M  V30 5678 C 548.882 0.100745 -3.00531 0
M  V30 5679 C 550.43 0.170531 -3.12535 0
M  V30 5680 C 550.905 0.0114944 -4.57999 0
M  V30 5681 N 552.396 0.0672065 -4.63151 0
M  V30 5682 C 553.131 -0.0314813 -5.73391 0
M  V30 5683 N 552.627 -0.183503 -6.92557 0
M  V30 5684 N 554.42 0.0253489 -5.62094 0
M  V30 5685 H 546.571 -0.993026 -1.87757 0
M  V30 5686 H 548.834 -0.386981 -0.865419 0
M  V30 5687 H 548.54 -0.875197 -3.40636 0
M  V30 5688 H 548.414 0.854457 -3.67395 0
M  V30 5689 H 550.801 1.13696 -2.72318 0
M  V30 5690 H 550.882 -0.614229 -2.48316 0
M  V30 5691 H 550.526 -0.951684 -4.98904 0
M  V30 5692 H 550.456 0.815617 -5.20245 0
M  V30 5693 H 552.947 0.183246 -3.77455 0
M  V30 5694 H 553.26 -0.251041 -7.72392 0
M  V30 5695 H 551.605 -0.218822 -6.94655 0
M  V30 5696 H 554.796 0.142794 -4.67882 0
M  V30 5697 H 554.969 -0.0550166 -6.47977 0
M  V30 5698 N 548.375 1.56261 0.205012 0
M  V30 5699 C 549.6 1.84491 0.947512 0
M  V30 5700 C 550.025 0.650894 1.76479 0
M  V30 5701 O 549.383 -0.40035 1.76824 0
M  V30 5702 C 549.431 3.10863 1.82747 0
M  V30 5703 O 548.535 2.90719 2.925 0
M  V30 5704 H 547.876 0.607783 0.267386 0
M  V30 5705 H 550.406 2.03485 0.213323 0
M  V30 5706 H 550.416 3.41399 2.23407 0
M  V30 5707 H 549.091 3.97392 1.2269 0
M  V30 5708 H 547.668 2.71457 2.55667 0
M  V30 5709 N 549.853 -0.472356 1.50355 0
M  V30 5710 C 551.102 -1.2213 1.60522 0
M  V30 5711 C 551.415 -1.9312 0.310466 0
M  V30 5712 O 552.621 -2.69936 0.291029 0
M  V30 5713 C 551.077 -2.21909 2.83345 0
M  V30 5714 C 550.685 -1.56727 4.19691 0
M  V30 5715 C 552.429 -2.97453 3.02856 0
M  V30 5716 C 550.336 -2.54785 5.33703 0
M  V30 5717 H 549.266 -0.459543 0.597776 0
M  V30 5718 H 551.917 -0.491922 1.76783 0
M  V30 5719 H 550.299 -2.98133 2.60639 0
M  V30 5720 H 551.473 -0.863007 4.52646 0
M  V30 5721 H 549.788 -0.934685 4.05774 0
M  V30 5722 H 552.385 -3.70838 3.85205 0
M  V30 5723 H 552.728 -3.56764 2.14534 0
M  V30 5724 H 553.261 -2.28342 3.25737 0
M  V30 5725 H 550 -2.00214 6.24175 0
M  V30 5726 H 549.52 -3.23367 5.05167 0
M  V30 5727 H 551.199 -3.16639 5.64224 0
M  V30 5728 N 551.331 -1.39911 -0.725443 0
M  V30 5729 C 552.261 -1.42138 -1.85254 0
M  V30 5730 C 553.242 -0.283513 -1.67721 0
M  V30 5731 O 554.427 -0.490717 -1.87898 0
M  V30 5732 C 551.557 -1.27354 -3.23107 0
M  V30 5733 C 550.511 -2.3864 -3.55296 0
M  V30 5734 C 549.837 -2.08939 -4.92188 0
M  V30 5735 C 551.137 -3.8097 -3.57295 0
M  V30 5736 H 552.831 -2.36461 -1.83648 0
M  V30 5737 H 550.377 -1.13817 -0.882138 0
M  V30 5738 H 552.33 -1.2753 -4.01639 0
M  V30 5739 H 551.054 -0.295025 -3.25265 0
M  V30 5740 H 549.713 -2.37696 -2.79099 0
M  V30 5741 H 549.361 -1.09502 -4.90936 0
M  V30 5742 H 549.061 -2.83491 -5.14691 0
M  V30 5743 H 550.585 -2.10781 -5.73065 0
M  V30 5744 H 551.999 -3.8379 -4.25885 0
M  V30 5745 H 550.396 -4.5496 -3.9132 0
M  V30 5746 H 551.466 -4.11261 -2.5689 0
M  V30 5747 N 552.809 0.956637 -1.25245 0
M  V30 5748 C 553.739 2.07058 -1.07931 0
M  V30 5749 C 554.72 1.70096 0.0110361 0
M  V30 5750 O 555.905 1.93555 -0.158121 0
M  V30 5751 C 553.035 3.40272 -0.695124 0
M  V30 5752 C 551.989 3.91235 -1.73549 0
M  V30 5753 C 551.315 5.20921 -1.20604 0
M  V30 5754 C 552.615 4.17837 -3.13385 0
M  V30 5755 H 554.309 2.218 -2.01109 0
M  V30 5756 H 551.855 1.06581 -0.968326 0
M  V30 5757 H 553.808 4.1765 -0.560949 0
M  V30 5758 H 552.532 3.25462 0.272355 0
M  V30 5759 H 551.191 3.16025 -1.85807 0
M  V30 5760 H 550.839 5.02479 -0.228846 0
M  V30 5761 H 550.539 5.55987 -1.90136 0
M  V30 5762 H 552.063 6.00897 -1.08421 0
M  V30 5763 H 553.477 4.8588 -3.04292 0
M  V30 5764 H 551.874 4.64154 -3.80369 0
M  V30 5765 H 552.944 3.2419 -3.60595 0
M  V30 5766 N 554.287 1.06798 1.15896 0
M  V30 5767 C 555.703 0.792423 1.38538 0
M  V30 5768 C 555.903 -0.60592 1.92174 0
M  V30 5769 O 554.959 -1.36561 2.12385 0
M  V30 5770 C 556.272 1.86157 2.36149 0
M  V30 5771 C 557.82 1.88567 2.49823 0
M  V30 5772 C 558.295 2.9455 3.5072 0
M  V30 5773 N 559.786 2.93616 3.58251 0
M  V30 5774 C 560.521 3.72267 4.36125 0
M  V30 5775 N 560.017 4.60751 5.17379 0
M  V30 5776 N 561.81 3.60637 4.31158 0
M  V30 5777 H 553.961 1.96993 0.794198 0
M  V30 5778 H 556.224 0.853942 0.411688 0
M  V30 5779 H 555.93 2.86603 2.03843 0
M  V30 5780 H 555.804 1.71692 3.3586 0
M  V30 5781 H 558.191 0.887765 2.8143 0
M  V30 5782 H 558.272 2.0711 1.5013 0
M  V30 5783 H 557.916 3.94537 3.19849 0
M  V30 5784 H 557.846 2.73255 4.50155 0
M  V30 5785 H 560.337 2.29472 3.00252 0
M  V30 5786 H 560.65 5.17408 5.74028 0
M  V30 5787 H 558.995 4.64803 5.16704 0
M  V30 5788 H 562.186 2.90892 3.66742 0
M  V30 5789 H 562.359 4.22176 4.91601 0
M  V30 5790 N 555.766 -1.3263 0.851289 0
M  V30 5791 C 557.014 -1.96978 0.452128 0
M  V30 5792 C 557.335 -1.67715 -0.99482 0
M  V30 5793 O 556.605 -0.98259 -1.69476 0
M  V30 5794 H 555.185 -0.72873 0.164202 0
M  V30 5795 H 557.847 -1.61774 1.08698 0
M  V30 5796 H 556.943 -3.06387 0.594407 0
M  V30 5797 N 557.244 -0.608902 -1.45362 0
M  V30 5798 C 558.491 -0.104607 -2.0223 0
M  V30 5799 C 558.819 1.26534 -1.47714 0
M  V30 5800 O 558.074 1.84855 -0.642435 0
M  V30 5801 C 558.373 -0.0167296 -3.57396 0
M  V30 5802 C 558.039 -1.32251 -4.31069 0
M  V30 5803 C 556.701 -1.68019 -4.50914 0
M  V30 5804 C 559.053 -2.18542 -4.73169 0
M  V30 5805 C 556.381 -2.89828 -5.10114 0
M  V30 5806 C 558.733 -3.39602 -5.33717 0
M  V30 5807 C 557.397 -3.7562 -5.51784 0
M  V30 5808 H 556.667 -0.0382785 -0.740011 0
M  V30 5809 H 559.314 -0.790782 -1.7441 0
M  V30 5810 H 557.619 0.752715 -3.84502 0
M  V30 5811 H 559.316 0.389634 -3.99103 0
M  V30 5812 H 555.906 -1.03411 -4.15938 0
M  V30 5813 H 560.09 -1.92208 -4.5757 0
M  V30 5814 H 555.346 -3.17839 -5.22291 0
M  V30 5815 H 559.52 -4.06716 -5.65292 0
M  V30 5816 H 557.147 -4.70093 -5.97425 0
M  V30 5817 N 558.722 1.53707 -0.348139 0
M  V30 5818 C 559.999 1.93247 0.302475 0
M  V30 5819 C 560.379 1.28012 1.67857 0
M  V30 5820 O 559.727 0.43274 2.24365 0
M  V30 5821 C 559.937 3.47031 0.370159 0
M  V30 5822 C 561.285 4.20066 0.61882 0
M  V30 5823 O 562.309 3.53319 0.452087 0
M  V30 5824 O 561.168 5.38318 0.94215 0
M  V30 5825 H 558.262 0.807736 0.177458 0
M  V30 5826 H 560.808 1.64927 -0.399651 0
M  V30 5827 H 559.58 3.86745 -0.59534 0
M  V30 5828 H 559.203 3.81532 1.11888 0
M  V30 5829 N 560.2 0.0768682 1.57412 0
M  V30 5830 C 561.132 -0.918248 2.10002 0
M  V30 5831 C 562.145 -1.25808 1.03325 0
M  V30 5832 O 563.334 -1.21438 1.30824 0
M  V30 5833 C 560.434 -2.23263 2.54964 0
M  V30 5834 C 559.607 -2.07088 3.8527 0
M  V30 5835 C 558.666 -3.21876 4.16272 0
M  V30 5836 O 557.692 -2.96643 4.8579 0
M  V30 5837 N 558.894 -4.4712 3.70221 0
M  V30 5838 H 561.659 -0.469209 2.96004 0
M  V30 5839 H 559.22 -0.108725 1.61535 0
M  V30 5840 H 561.212 -2.9897 2.72762 0
M  V30 5841 H 559.782 -2.59649 1.74072 0
M  V30 5842 H 559.002 -1.15818 3.76802 0
M  V30 5843 H 560.29 -1.93537 4.70554 0
M  V30 5844 H 559.688 -4.70506 3.1407 0
M  V30 5845 H 558.245 -5.19837 3.93209 0
M  V30 5846 N 561.678 -1.56367 -0.196722 0
M  V30 5847 C 562.955 -1.71359 -0.943159 0
M  V30 5848 C 563.335 -0.631192 -2.01443 0
M  V30 5849 O 562.683 0.358071 -2.25677 0
M  V30 5850 C 562.893 -3.13623 -1.53106 0
M  V30 5851 C 564.241 -3.73806 -2.01381 0
M  V30 5852 O 565.265 -3.16742 -1.62951 0
M  V30 5853 O 564.124 -4.73951 -2.7209 0
M  V30 5854 H 561.218 -0.698851 -0.442195 0
M  V30 5855 H 563.764 -1.68672 -0.186547 0
M  V30 5856 H 562.536 -3.83873 -0.758785 0
M  V30 5857 H 562.159 -3.20532 -2.35255 0
M  V30 5858 N 563.156 0.464375 -1.50603 0
M  V30 5859 C 564.089 1.58052 -1.64605 0
M  V30 5860 C 565.067 1.54914 -0.494016 0
M  V30 5861 O 566.251 1.74438 -0.714393 0
M  V30 5862 C 563.378 2.96634 -1.63481 0
M  V30 5863 C 562.424 3.17901 -2.84325 0
M  V30 5864 S 563.257 2.97083 -4.45536 0
M  V30 5865 C 564.413 4.37994 -4.47115 0
M  V30 5866 H 564.646 1.45937 -2.59017 0
M  V30 5867 H 562.179 0.652189 -1.39949 0
M  V30 5868 H 564.137 3.76527 -1.63517 0
M  V30 5869 H 562.798 3.06134 -0.702928 0
M  V30 5870 H 561.991 4.19158 -2.79862 0
M  V30 5871 H 561.593 2.45792 -2.81891 0
M  V30 5872 H 563.885 5.30743 -4.21091 0
M  V30 5873 H 564.828 4.47499 -5.48772 0
M  V30 5874 H 565.236 4.20386 -3.76743 0
M  V30 5875 N 564.634 1.40294 0.718013 0
M  V30 5876 C 565.597 1.4012 1.81381 0
M  V30 5877 C 566.597 0.295405 1.58063 0
M  V30 5878 O 567.787 0.554187 1.6515 0
M  V30 5879 C 564.919 1.19056 3.19435 0
M  V30 5880 H 566.112 2.37645 1.82933 0
M  V30 5881 H 563.665 1.26107 0.923405 0
M  V30 5882 H 564.4 0.222809 3.23534 0
M  V30 5883 H 564.185 1.99152 3.37758 0
M  V30 5884 H 565.675 1.21716 3.99468 0
M  V30 5885 N 566.112 -0.949982 1.2575 0
M  V30 5886 C 567.06 -2.06869 1.06339 0
M  V30 5887 C 568.054 -1.69399 -0.00708901 0
M  V30 5888 O 569.26 -1.79383 0.148897 0
M  V30 5889 H 565.635 -0.677197 0.326969 0
M  V30 5890 H 567.606 -2.20396 2.01167 0
M  V30 5891 C 566.355 -3.40503 0.703769 0
M  V30 5892 H 565.678 -3.69807 1.51931 0
M  V30 5893 H 567.118 -4.19623 0.607677 0
M  V30 5894 C 565.577 -3.31685 -0.5905 0
M  V30 5895 O 566.107 -3.67085 -1.63131 0
M  V30 5896 N 564.313 -2.84797 -0.577859 0
M  V30 5897 H 563.86 -2.56186 0.26951 0
M  V30 5898 H 563.818 -2.79279 -1.44398 0
M  V30 5899 N 567.59 -1.07411 -1.15328 0
M  V30 5900 C 568.537 -0.694995 -2.20087 0
M  V30 5901 C 569.507 0.313904 -1.63107 0
M  V30 5902 O 570.692 0.200216 -1.89747 0
M  V30 5903 C 567.832 -0.0996218 -3.44956 0
M  V30 5904 C 566.945 -1.16007 -4.16133 0
M  V30 5905 C 566.08 -0.529636 -5.28553 0
M  V30 5906 C 565.119 -1.57283 -5.91548 0
M  V30 5907 N 564.256 -0.964932 -6.95438 0
M  V30 5908 H 569.096 -1.5927 -2.51867 0
M  V30 5909 H 566.633 -0.796115 -1.23695 0
M  V30 5910 H 568.591 0.263197 -4.16369 0
M  V30 5911 H 567.221 0.761435 -3.13691 0
M  V30 5912 H 566.273 -1.64045 -3.4321 0
M  V30 5913 H 567.585 -1.95101 -4.59061 0
M  V30 5914 H 566.739 -0.114487 -6.06592 0
M  V30 5915 H 565.478 0.29307 -4.86819 0
M  V30 5916 H 564.483 -1.99775 -5.12221 0
M  V30 5917 H 565.708 -2.39783 -6.35359 0
M  V30 5918 H 563.654 -0.16314 -6.55797 0
M  V30 5919 H 563.571 -1.69311 -7.36797 0
M  V30 5920 H 564.839 -0.575305 -7.77374 0
M  V30 5921 N 569.068 1.32177 -0.85831 0
M  V30 5922 C 570.317 1.96392 -0.459689 0
M  V30 5923 C 570.63 1.68659 0.990632 0
M  V30 5924 O 571.836 2.26641 1.49485 0
M  V30 5925 C 570.292 3.51542 -0.7711 0
M  V30 5926 C 569.9 3.8813 -2.2374 0
M  V30 5927 C 571.644 4.2221 -0.44038 0
M  V30 5928 C 569.551 5.36341 -2.49183 0
M  V30 5929 H 568.481 0.735007 -0.168169 0
M  V30 5930 H 571.132 1.50518 -1.0496 0
M  V30 5931 H 569.514 3.95846 -0.11058 0
M  V30 5932 H 570.688 3.54824 -2.94001 0
M  V30 5933 H 569.003 3.30497 -2.533 0
M  V30 5934 H 571.6 5.31234 -0.607855 0
M  V30 5935 H 571.943 4.11683 0.618291 0
M  V30 5936 H 572.476 3.83502 -1.05695 0
M  V30 5937 H 569.215 5.51892 -3.53689 0
M  V30 5938 H 568.735 5.7104 -1.83504 0
M  V30 5939 H 570.414 6.03466 -2.33318 0
M  V30 5940 N 570.547 0.616602 1.45037 0
M  V30 5941 C 571.795 0.115103 2.01772 0
M  V30 5942 C 572.116 -1.2622 1.48639 0
M  V30 5943 O 571.386 -1.83563 0.684199 0
M  V30 5944 H 569.966 0.0395607 0.745952 0
M  V30 5945 H 572.628 0.800032 1.77723 0
M  V30 5946 H 571.724 0.0717274 3.12018 0
M  V30 5947 N 572.025 -1.5352 0.356285 0
M  V30 5948 C 572.935 -2.29151 -0.502712 0
M  V30 5949 C 573.951 -1.34753 -1.1008 0
M  V30 5950 O 575.127 -1.67803 -1.11374 0
M  V30 5951 C 572.192 -3.05911 -1.63154 0
M  V30 5952 C 571.253 -4.15958 -1.06194 0
M  V30 5953 C 570.486 -4.8905 -2.13696 0
M  V30 5954 O 570.709 -4.61919 -3.34645 0
M  V30 5955 O 569.643 -5.75202 -1.77275 0
M  V30 5956 H 573.469 -3.03492 0.112466 0
M  V30 5957 H 571.054 -1.4891 0.120942 0
M  V30 5958 H 572.936 -3.53874 -2.28804 0
M  V30 5959 H 571.611 -2.34415 -2.23229 0
M  V30 5960 H 570.518 -3.7227 -0.369603 0
M  V30 5961 H 571.851 -4.89593 -0.505872 0
M  V30 5962 N 573.503 -0.0852151 -1.57369 0
M  V30 5963 C 574.453 0.88767 -2.10011 0
M  V30 5964 C 575.437 1.25021 -1.01285 0
M  V30 5965 O 576.629 1.22694 -1.27574 0
M  V30 5966 C 573.758 2.15037 -2.67608 0
M  V30 5967 C 572.844 1.81371 -3.83361 0
M  V30 5968 N 573.235 1.18216 -4.91791 0
M  V30 5969 C 571.533 2.11041 -3.92909 0
M  V30 5970 C 572.234 1.02941 -5.72519 0
M  V30 5971 N 571.21 1.54351 -5.21226 0
M  V30 5972 H 575.012 0.395279 -2.9123 0
M  V30 5973 H 572.526 0.11829 -1.61969 0
M  V30 5974 H 574.523 2.85667 -3.03644 0
M  V30 5975 H 573.183 2.64851 -1.8784 0
M  V30 5976 H 574.194 0.850168 -5.10874 0
M  V30 5977 H 570.871 2.63138 -3.24136 0
M  V30 5978 H 572.261 0.536298 -6.69756 0
M  V30 5979 N 574.981 1.5647 0.188427 0
M  V30 5980 C 575.914 1.90146 1.26173 0
M  V30 5981 C 576.892 0.762294 1.43624 0
M  V30 5982 O 578.076 1.01395 1.58907 0
M  V30 5983 C 575.203 2.13748 2.62735 0
M  V30 5984 C 574.249 3.36448 2.62116 0
M  V30 5985 S 575.082 4.91364 2.12889 0
M  V30 5986 C 576.238 5.18041 3.51261 0
M  V30 5987 H 576.471 2.80886 0.974192 0
M  V30 5988 H 574.004 1.49335 0.392226 0
M  V30 5989 H 575.962 2.28028 3.41341 0
M  V30 5990 H 574.623 1.23747 2.88696 0
M  V30 5991 H 573.816 3.50109 3.62546 0
M  V30 5992 H 573.418 3.21196 1.91596 0
M  V30 5993 H 575.71 5.0897 4.47164 0
M  V30 5994 H 576.653 6.19764 3.42489 0
M  V30 5995 H 577.061 4.45657 3.46482 0
M  V30 5996 N 576.459 -0.456382 1.50847 0
M  V30 5997 C 577.369 -1.57805 1.73594 0
M  V30 5998 C 578.385 -1.62599 0.619476 0
M  V30 5999 O 579.561 -1.80195 0.899532 0
M  V30 6000 C 576.626 -2.93926 1.8387 0
M  V30 6001 C 575.687 -2.99402 3.07663 0
M  V30 6002 C 574.92 -4.29031 3.1744 0
M  V30 6003 O 575.143 -5.20358 2.33631 0
M  V30 6004 O 574.077 -4.40401 4.10281 0
M  V30 6005 H 577.903 -1.41531 2.68705 0
M  V30 6006 H 575.488 -0.637422 1.3512 0
M  V30 6007 H 577.37 -3.74747 1.92725 0
M  V30 6008 H 576.045 -3.10368 0.91944 0
M  V30 6009 H 574.952 -2.17606 3.043 0
M  V30 6010 H 576.285 -2.87901 3.99216 0
M  V30 6011 N 577.937 -1.40673 -0.710563 0
M  V30 6012 C 578.847 -1.43663 -1.85467 0
M  V30 6013 C 579.863 -0.328721 -1.70867 0
M  V30 6014 O 581.039 -0.574098 -1.93044 0
M  V30 6015 C 578.104 -1.30226 -3.21313 0
M  V30 6016 C 577.165 -2.51204 -3.48131 0
M  V30 6017 C 576.398 -2.38398 -4.77495 0
M  V30 6018 O 576.621 -1.40048 -5.5294 0
M  V30 6019 O 575.555 -3.2787 -5.04762 0
M  V30 6020 H 579.381 -2.40156 -1.859 0
M  V30 6021 H 576.966 -1.22049 -0.861652 0
M  V30 6022 H 578.848 -1.2496 -4.02446 0
M  V30 6023 H 577.523 -0.368419 -3.21597 0
M  V30 6024 H 576.43 -2.62048 -2.66987 0
M  V30 6025 H 577.763 -3.43366 -3.52648 0
M  V30 6026 N 579.415 0.9433 -1.26252 0
M  V30 6027 C 580.365 2.02746 -1.04297 0
M  V30 6028 C 581.349 1.60882 0.0239435 0
M  V30 6029 O 582.541 1.75947 -0.192757 0
M  V30 6030 C 579.67 3.36585 -0.6757 0
M  V30 6031 C 578.756 3.84939 -1.77996 0
M  V30 6032 N 579.147 4.05966 -3.01704 0
M  V30 6033 C 577.445 4.13833 -1.66308 0
M  V30 6034 C 578.146 4.45987 -3.73458 0
M  V30 6035 N 577.122 4.52569 -3.01135 0
M  V30 6036 H 580.924 2.17012 -1.98199 0
M  V30 6037 H 578.438 1.12898 -1.16738 0
M  V30 6038 H 580.435 4.13896 -0.499571 0
M  V30 6039 H 579.095 3.2369 0.255863 0
M  V30 6040 H 580.106 3.92716 -3.37631 0
M  V30 6041 H 576.783 4.09739 -0.801267 0
M  V30 6042 H 578.173 4.70465 -4.79701 0
M  V30 6043 N 580.893 1.08022 1.14757 0
M  V30 6044 C 582.141 0.805913 1.85336 0
M  V30 6045 C 582.462 -0.670162 1.83122 0
M  V30 6046 O 581.732 -1.48567 1.2769 0
M  V30 6047 H 580.312 0.295138 0.686223 0
M  V30 6048 H 582.974 1.36538 1.3908 0
M  V30 6049 H 582.07 1.14655 2.90277 0
M  V30 6050 N 582.371 -1.3172 0.865308 0
M  V30 6051 C 583.62 -1.96145 0.470098 0
M  V30 6052 C 583.933 -1.69182 -0.981674 0
M  V30 6053 O 585.139 -2.27431 -1.48281 0
M  V30 6054 C 583.595 -3.51129 0.789732 0
M  V30 6055 C 583.203 -3.86938 2.25795 0
M  V30 6056 C 584.947 -4.2197 0.462765 0
M  V30 6057 C 582.854 -5.35012 2.52024 0
M  V30 6058 H 581.784 -0.734105 0.172065 0
M  V30 6059 H 584.435 -1.49959 1.05757 0
M  V30 6060 H 582.817 -3.95781 0.131571 0
M  V30 6061 H 583.991 -3.5326 2.95879 0
M  V30 6062 H 582.306 -3.29149 2.55049 0
M  V30 6063 H 584.903 -5.30904 0.636019 0
M  V30 6064 H 585.246 -4.12005 -0.59645 0
M  V30 6065 H 585.779 -3.82936 1.07727 0
M  V30 6066 H 582.518 -5.50008 3.56611 0
M  V30 6067 H 582.038 -5.70058 1.8653 0
M  V30 6068 H 583.717 -6.0222 2.36515 0
M  V30 6069 N 583.85 -0.624285 -1.44708 0
M  V30 6070 C 584.797 0.0847135 -2.30644 0
M  V30 6071 C 585.767 0.843575 -1.43084 0
M  V30 6072 O 586.952 0.825982 -1.71995 0
M  V30 6073 C 584.091 1.06495 -3.28257 0
M  V30 6074 C 583.205 0.305224 -4.3092 0
M  V30 6075 C 582.34 1.27667 -5.1563 0
M  V30 6076 C 581.379 0.505706 -6.10007 0
M  V30 6077 N 580.516 1.42727 -6.8744 0
M  V30 6078 H 585.356 -0.654068 -2.90733 0
M  V30 6079 H 582.893 -0.334334 -1.4325 0
M  V30 6080 H 584.851 1.64658 -3.83332 0
M  V30 6081 H 583.481 1.77094 -2.69884 0
M  V30 6082 H 582.533 -0.392207 -3.78373 0
M  V30 6083 H 583.845 -0.295553 -4.97924 0
M  V30 6084 H 582.999 1.92984 -5.75189 0
M  V30 6085 H 581.738 1.91137 -4.48685 0
M  V30 6086 H 580.743 -0.160999 -5.49564 0
M  V30 6087 H 581.968 -0.124183 -6.78986 0
M  V30 6088 H 579.913 2.04931 -6.23169 0
M  V30 6089 H 579.831 0.880345 -7.50857 0
M  V30 6090 H 581.099 2.0695 -7.51526 0
M  V30 6091 N 585.328 1.53329 -0.364422 0
M  V30 6092 C 586.575 2.01239 0.225634 0
M  V30 6093 C 586.903 1.25172 1.48869 0
M  V30 6094 O 586.158 0.333289 1.92841 0
M  V30 6095 C 586.457 3.52911 0.564661 0
M  V30 6096 C 586.123 4.46837 -0.603936 0
M  V30 6097 C 584.785 4.72234 -0.924585 0
M  V30 6098 C 587.137 5.02409 -1.38691 0
M  V30 6099 C 584.465 5.50454 -2.0302 0
M  V30 6100 C 586.817 5.81836 -2.48293 0
M  V30 6101 C 585.481 6.0552 -2.80894 0
M  V30 6102 H 584.751 0.736386 0.0825654 0
M  V30 6103 H 587.398 1.84948 -0.496645 0
M  V30 6104 H 585.703 3.67144 1.36794 0
M  V30 6105 H 587.4 3.87455 1.03344 0
M  V30 6106 H 583.99 4.27217 -0.343983 0
M  V30 6107 H 588.174 4.82735 -1.15243 0
M  V30 6108 H 583.43 5.67024 -2.28678 0
M  V30 6109 H 587.604 6.23905 -3.0938 0
M  V30 6110 H 585.231 6.65916 -3.66688 0
M  V30 6111 N 586.806 0.0935595 1.57322 0
M  V30 6112 C 588.055 -0.570191 1.93473 0
M  V30 6113 C 588.368 -1.69434 0.977318 0
M  V30 6114 O 589.574 -2.41914 1.23248 0
M  V30 6115 C 588.03 -1.06564 3.43762 0
M  V30 6116 C 587.638 0.0286723 4.47991 0
M  V30 6117 C 589.382 -1.70221 3.88877 0
M  V30 6118 C 587.289 -0.482046 5.89432 0
M  V30 6119 H 586.219 -0.216764 0.72217 0
M  V30 6120 H 588.87 0.169313 1.82717 0
M  V30 6121 H 587.252 -1.85878 3.49664 0
M  V30 6122 H 588.426 0.804106 4.5373 0
M  V30 6123 H 586.741 0.570336 4.12476 0
M  V30 6124 H 589.338 -2.09502 4.91948 0
M  V30 6125 H 589.681 -2.57078 3.27439 0
M  V30 6126 H 590.214 -0.974919 3.85668 0
M  V30 6127 H 586.953 0.349871 6.54566 0
M  V30 6128 H 586.473 -1.22452 5.87167 0
M  V30 6129 H 588.152 -0.951508 6.39965 0
M  V30 6130 N 588.284 -1.56567 -0.180126 0
M  V30 6131 C 589.7 -1.50488 -0.531559 0
M  V30 6132 C 589.9 -0.796267 -1.851 0
M  V30 6133 O 588.956 -0.352978 -2.50021 0
M  V30 6134 C 590.269 -2.95201 -0.572456 0
M  V30 6135 C 591.817 -3.05957 -0.660264 0
M  V30 6136 C 592.292 -4.5211 -0.732135 0
M  V30 6137 N 593.783 -4.56322 -0.795262 0
M  V30 6138 C 594.518 -5.66742 -0.871296 0
M  V30 6139 N 594.014 -6.86815 -0.908708 0
M  V30 6140 N 595.807 -5.54691 -0.909639 0
M  V30 6141 H 587.958 -2.01045 0.685165 0
M  V30 6142 H 590.221 -0.915536 0.245962 0
M  V30 6143 H 589.927 -3.50165 0.328208 0
M  V30 6144 H 589.801 -3.49369 -1.422 0
M  V30 6145 H 592.188 -2.51032 -1.55136 0
M  V30 6146 H 592.269 -2.54888 0.215783 0
M  V30 6147 H 591.913 -5.07664 0.154664 0
M  V30 6148 H 591.843 -5.00926 -1.6242 0
M  V30 6149 H 594.334 -3.69868 -0.77499 0
M  V30 6150 H 594.647 -7.66718 -0.967654 0
M  V30 6151 H 592.992 -6.89443 -0.877132 0
M  V30 6152 H 596.183 -4.59804 -0.877353 0
M  V30 6153 H 596.356 -6.40768 -0.965434 0
M  V30 6154 N 589.762 0.448376 -1.51087 0
M  V30 6155 C 590.694 1.56146 -1.67783 0
M  V30 6156 C 591.707 1.52913 -0.55871 0
M  V30 6157 O 592.896 1.57889 -0.83267 0
M  V30 6158 C 589.996 2.95057 -1.66716 0
M  V30 6159 C 589.169 3.22915 -2.95033 0
M  V30 6160 C 588.228 4.41495 -2.86302 0
M  V30 6161 O 587.254 4.40688 -3.60254 0
M  V30 6162 N 588.456 5.44443 -2.014 0
M  V30 6163 H 591.221 1.42232 -2.638 0
M  V30 6164 H 588.782 0.637153 -1.48835 0
M  V30 6165 H 590.774 3.72388 -1.58458 0
M  V30 6166 H 589.344 3.02624 -0.783403 0
M  V30 6167 H 588.564 2.33985 -3.17245 0
M  V30 6168 H 589.852 3.38349 -3.79996 0
M  V30 6169 H 589.25 5.4793 -1.40674 0
M  V30 6170 H 587.807 6.2067 -1.99029 0
M  V30 6171 N 591.24 1.41047 0.703093 0
M  V30 6172 C 592.487 1.4 1.46309 0
M  V30 6173 C 592.815 0.00654574 1.94499 0
M  V30 6174 O 592.07 -0.980255 1.6938 0
M  V30 6175 C 592.369 2.34686 2.6955 0
M  V30 6176 C 592.035 3.81684 2.40058 0
M  V30 6177 C 590.697 4.21731 2.31725 0
M  V30 6178 C 593.049 4.74525 2.15581 0
M  V30 6179 C 590.377 5.52637 1.97001 0
M  V30 6180 C 592.729 6.05744 1.82366 0
M  V30 6181 C 591.393 6.44819 1.72524 0
M  V30 6182 H 590.663 0.512295 0.535382 0
M  V30 6183 H 593.31 1.73792 0.804275 0
M  V30 6184 H 591.615 1.94122 3.40329 0
M  V30 6185 H 593.312 2.31152 3.27673 0
M  V30 6186 H 589.902 3.49963 2.47435 0
M  V30 6187 H 594.086 4.44395 2.20968 0
M  V30 6188 H 589.342 5.81802 1.87928 0
M  V30 6189 H 593.516 6.77189 1.62444 0
M  V30 6190 H 591.143 7.46168 1.45385 0
M  V30 6191 N 592.718 -0.936591 1.26751 0
M  V30 6192 C 593.964 -1.6858 1.12733 0
M  V30 6193 C 594.297 -1.91414 -0.327745 0
M  V30 6194 O 593.572 -1.49812 -1.24043 0
M  V30 6195 C 593.855 -3.05779 1.90187 0
M  V30 6196 C 593.708 -2.90242 3.43627 0
M  V30 6197 C 595.027 -4.0597 1.69931 0
M  V30 6198 H 592.146 -0.61182 0.410908 0
M  V30 6199 H 594.788 -1.08747 1.55801 0
M  V30 6200 H 592.938 -3.56853 1.53584 0
M  V30 6201 H 594.61 -2.46354 3.9001 0
M  V30 6202 H 592.853 -2.2577 3.70419 0
M  V30 6203 H 593.524 -3.87572 3.93055 0
M  V30 6204 H 596 -3.63874 2.0183 0
M  V30 6205 H 594.876 -4.99974 2.26534 0
M  V30 6206 H 595.137 -4.37369 0.64502 0
M  V30 6207 N 594.196 -1.08629 -1.14182 0
M  V30 6208 C 595.607 -0.838003 -1.66836 0
M  V30 6209 C 595.958 0.634885 -1.85644 0
M  V30 6210 O 595.083 1.49008 -1.56926 0
M  V30 6211 C 595.678 -1.51465 -3.03058 0
M  V30 6212 C 594.237 -1.31355 -3.52736 0
M  V30 6213 C 593.384 -1.57599 -2.28162 0
M  V30 6214 H 596.335 -1.24656 -0.982165 0
M  V30 6215 H 596.356 -0.943134 -3.68626 0
M  V30 6216 H 595.868 -2.58661 -2.89337 0
M  V30 6217 H 593.969 -0.262384 -3.71675 0
M  V30 6218 H 594.082 -2.04275 -4.33369 0
M  V30 6219 H 592.446 -0.997659 -2.34348 0
M  V30 6220 H 593.229 -2.66006 -2.17015 0
M  V30 6221 N 595.674 1.31259 -0.872281 0
M  V30 6222 C 596.923 1.95893 -0.480493 0
M  V30 6223 C 597.236 1.697 0.972688 0
M  V30 6224 O 598.442 2.28214 1.47073 0
M  V30 6225 C 596.898 3.50705 -0.808342 0
M  V30 6226 C 596.506 3.85735 -2.27844 0
M  V30 6227 C 598.25 4.21719 -0.485136 0
M  V30 6228 C 596.157 5.33668 -2.54858 0
M  V30 6229 H 595.087 0.733182 -0.175955 0
M  V30 6230 H 597.738 1.49396 -1.0655 0
M  V30 6231 H 596.12 3.95706 -0.152558 0
M  V30 6232 H 597.294 3.51686 -2.97748 0
M  V30 6233 H 595.609 3.27792 -2.56791 0
M  V30 6234 H 598.206 5.30559 -0.664166 0
M  V30 6235 H 598.549 4.12316 0.574592 0
M  V30 6236 H 599.082 3.82359 -1.09756 0
M  V30 6237 H 595.821 5.48109 -3.59523 0
M  V30 6238 H 595.341 5.69061 -1.8955 0
M  V30 6239 H 597.02 6.00958 -2.39706 0
M  V30 6240 N 597.152 0.631951 1.44375 0
M  V30 6241 C 598.099 -0.0724807 2.30686 0
M  V30 6242 C 599.069 -0.835975 1.43529 0
M  V30 6243 O 600.254 -0.816849 1.7243 0
M  V30 6244 C 597.394 -1.04753 3.28817 0
M  V30 6245 C 596.507 -0.282367 4.31076 0
M  V30 6246 C 595.642 -1.2493 5.163 0
M  V30 6247 C 594.681 -0.473349 6.10267 0
M  V30 6248 N 593.818 -1.39079 6.88187 0
M  V30 6249 H 598.658 0.669477 2.90383 0
M  V30 6250 H 596.195 0.341927 1.43071 0
M  V30 6251 H 598.153 -1.62623 3.842 0
M  V30 6252 H 596.783 -1.75661 2.70819 0
M  V30 6253 H 595.835 0.412268 3.78159 0
M  V30 6254 H 597.147 0.321955 4.9776 0
M  V30 6255 H 596.301 -1.89931 5.76204 0
M  V30 6256 H 595.04 -1.88755 4.49692 0
M  V30 6257 H 594.045 0.190142 5.49471 0
M  V30 6258 H 595.27 0.16019 6.78911 0
M  V30 6259 H 593.216 -2.01623 6.24247 0
M  V30 6260 H 593.133 -0.840513 7.51313 0
M  V30 6261 H 594.401 -2.02961 7.52613 0
M  V30 6262 N 598.631 -1.53133 0.372548 0
M  V30 6263 C 599.877 -2.01654 -0.215277 0
M  V30 6264 C 600.21 -1.25914 -1.47849 0
M  V30 6265 O 599.485 -0.3548 -1.91237 0
M  V30 6266 C 599.768 -3.56609 -0.500187 0
M  V30 6267 C 599.621 -4.43036 0.777145 0
M  V30 6268 C 600.94 -4.20528 -1.29786 0
M  V30 6269 H 598.059 -0.732991 -0.0767686 0
M  V30 6270 H 600.701 -1.83335 0.498814 0
M  V30 6271 H 598.851 -3.7235 -1.10852 0
M  V30 6272 H 600.523 -4.39079 1.41447 0
M  V30 6273 H 598.766 -4.10723 1.39604 0
M  V30 6274 H 599.437 -5.49424 0.532662 0
M  V30 6275 H 601.913 -4.08663 -0.783198 0
M  V30 6276 H 600.789 -5.28962 -1.46596 0
M  V30 6277 H 601.05 -3.77051 -2.30836 0
M  V30 6278 N 600.109 -0.101901 -1.5727 0
M  V30 6279 C 601.019 0.868647 -2.17926 0
M  V30 6280 C 602.035 1.30527 -1.1506 0
M  V30 6281 O 603.211 1.37178 -1.47459 0
M  V30 6282 C 600.276 2.10727 -2.75309 0
M  V30 6283 C 599.337 1.7242 -3.93154 0
M  V30 6284 C 598.57 2.90377 -4.47791 0
M  V30 6285 O 598.793 4.05305 -4.01353 0
M  V30 6286 O 597.727 2.6845 -5.38719 0
M  V30 6287 H 601.553 0.382544 -3.01281 0
M  V30 6288 H 599.138 0.122812 -1.48894 0
M  V30 6289 H 601.02 2.83303 -3.11958 0
M  V30 6290 H 599.695 2.58376 -1.94996 0
M  V30 6291 H 598.602 0.970039 -3.61305 0
M  V30 6292 H 599.935 1.29528 -4.74851 0
M  V30 6293 N 601.587 1.56661 0.17182 0
M  V30 6294 C 602.519 1.92934 1.2373 0
M  V30 6295 C 603.532 0.822385 1.40502 0
M  V30 6296 O 604.721 1.10083 1.40514 0
M  V30 6297 C 601.821 2.16651 2.60607 0
M  V30 6298 C 600.994 3.47878 2.6514 0
M  V30 6299 C 600.053 3.60429 3.83377 0
M  V30 6300 O 599.079 4.33051 3.69398 0
M  V30 6301 N 600.281 2.95241 4.99813 0
M  V30 6302 H 603.046 2.84931 0.929205 0
M  V30 6303 H 600.607 1.5781 0.361588 0
M  V30 6304 H 602.599 2.22312 3.38171 0
M  V30 6305 H 601.169 1.3104 2.83809 0
M  V30 6306 H 600.389 3.53879 1.73675 0
M  V30 6307 H 601.677 4.34232 2.6518 0
M  V30 6308 H 601.075 2.3611 5.14071 0
M  V30 6309 H 599.632 3.06499 5.75241 0
M  V30 6310 N 603.065 -0.440357 1.51323 0
M  V30 6311 C 604.314 -1.18697 1.63076 0
M  V30 6312 C 604.627 -1.92418 0.35136 0
M  V30 6313 O 605.833 -2.69258 0.348221 0
M  V30 6314 C 604.289 -2.15849 2.87988 0
M  V30 6315 C 603.897 -1.47789 4.22921 0
M  V30 6316 C 605.641 -2.90962 3.09098 0
M  V30 6317 C 603.548 -2.43407 5.38987 0
M  V30 6318 H 602.478 -0.44676 0.607389 0
M  V30 6319 H 605.129 -0.454313 1.77787 0
M  V30 6320 H 603.511 -2.92537 2.66905 0
M  V30 6321 H 604.685 -0.7668 4.54375 0
M  V30 6322 H 603 -0.848404 4.07665 0
M  V30 6323 H 605.597 -3.62584 3.92985 0
M  V30 6324 H 605.94 -3.52133 2.22053 0
M  V30 6325 H 606.473 -2.21381 3.30507 0
M  V30 6326 H 603.212 -1.86929 6.28282 0
M  V30 6327 H 602.732 -3.12579 5.11913 0
M  V30 6328 H 604.411 -3.046 5.70813 0
M  V30 6329 N 604.543 -1.41418 -0.695603 0
M  V30 6330 C 605.453 -1.45622 -1.83933 0
M  V30 6331 C 606.469 -0.346825 -1.70508 0
M  V30 6332 O 607.645 -0.59454 -1.92424 0
M  V30 6333 C 604.71 -1.33627 -3.19914 0
M  V30 6334 C 603.771 -2.54882 -3.45447 0
M  V30 6335 C 603.004 -2.43449 -4.7494 0
M  V30 6336 O 603.227 -1.45905 -5.51424 0
M  V30 6337 O 602.161 -3.33206 -5.01256 0
M  V30 6338 H 605.987 -2.42114 -1.83342 0
M  V30 6339 H 603.572 -1.22956 -0.848658 0
M  V30 6340 H 605.454 -1.29221 -4.01098 0
M  V30 6341 H 604.129 -0.402508 -3.21188 0
M  V30 6342 H 603.036 -2.64865 -2.64192 0
M  V30 6343 H 604.369 -3.47087 -3.48987 0
M  V30 6344 N 606.021 0.929856 -1.27246 0
M  V30 6345 C 606.984 2.01172 -1.09829 0
M  V30 6346 C 607.984 1.60743 -0.0429687 0
M  V30 6347 O 609.174 1.71813 -0.287373 0
M  V30 6348 C 606.306 3.34191 -0.673003 0
M  V30 6349 H 607.499 2.18054 -2.05895 0
M  V30 6350 H 605.052 1.11036 -1.10003 0
M  V30 6351 H 605.787 3.23009 0.289134 0
M  V30 6352 H 605.572 3.64892 -1.43515 0
M  V30 6353 H 607.062 4.13646 -0.573323 0
M  V30 6354 N 607.499 1.09233 1.13605 0
M  V30 6355 C 608.747 0.825525 1.84471 0
M  V30 6356 C 609.068 -0.650702 1.83823 0
M  V30 6357 O 608.338 -1.47204 1.29259 0
M  V30 6358 H 606.918 0.3024 0.683054 0
M  V30 6359 H 609.58 1.38006 1.37624 0
M  V30 6360 H 608.676 1.17727 2.89045 0
M  V30 6361 N 608.977 -1.30795 0.87923 0
M  V30 6362 C 610.205 -2.00527 0.509548 0
M  V30 6363 C 610.62 -1.65944 -0.90045 0
M  V30 6364 O 609.977 -0.893525 -1.5913 0
M  V30 6365 C 610.028 -3.55276 0.667943 0
M  V30 6366 O 609.749 -3.88625 2.02242 0
M  V30 6367 C 611.25 -4.4228 0.300494 0
M  V30 6368 H 608.47 -0.641261 0.197549 0
M  V30 6369 H 611.014 -1.66813 1.18295 0
M  V30 6370 H 609.169 -3.87377 0.0419843 0
M  V30 6371 H 609.583 -4.83334 2.03688 0
M  V30 6372 H 611.057 -5.50061 0.462242 0
M  V30 6373 H 611.534 -4.32556 -0.76106 0
M  V30 6374 H 612.14 -4.15613 0.902536 0
M  V30 6375 N 610.455 -0.639598 -1.44038 0
M  V30 6376 C 611.866 -0.228866 -1.85292 0
M  V30 6377 C 612.217 1.22161 -1.53529 0
M  V30 6378 O 611.342 1.93064 -0.977518 0
M  V30 6379 C 611.937 -0.408592 -3.36327 0
M  V30 6380 C 610.496 -0.0522953 -3.76364 0
M  V30 6381 C 609.643 -0.717959 -2.67844 0
M  V30 6382 H 612.594 -0.844194 -1.34384 0
M  V30 6383 H 612.615 0.349968 -3.78887 0
M  V30 6384 H 612.127 -1.46435 -3.59414 0
M  V30 6385 H 610.228 1.0014 -3.58891 0
M  V30 6386 H 610.341 -0.468261 -4.76806 0
M  V30 6387 H 608.705 -0.152459 -2.54243 0
M  V30 6388 H 609.488 -1.77648 -2.93762 0
M  V30 6389 N 611.933 1.52934 -0.380664 0
M  V30 6390 C 613.181 2.01069 0.203874 0
M  V30 6391 C 613.502 1.26922 1.4804 0
M  V30 6392 O 612.772 0.386787 1.92044 0
M  V30 6393 H 611.352 0.742882 0.0783279 0
M  V30 6394 H 614.014 1.88099 -0.510368 0
M  V30 6395 H 613.11 3.09258 0.42021 0
M  V30 6396 N 613.412 0.11024 1.57214 0
M  V30 6397 C 614.828 -0.24638 1.57687 0
M  V30 6398 C 615.028 -1.67344 1.12241 0
M  V30 6399 O 614.084 -2.39298 0.805783 0
M  V30 6400 C 615.397 -0.0210288 3.00693 0
M  V30 6401 C 616.945 -0.0876077 3.12877 0
M  V30 6402 C 617.42 0.10994 4.57868 0
M  V30 6403 N 618.911 0.0556135 4.63167 0
M  V30 6404 C 619.646 0.183495 5.73106 0
M  V30 6405 N 619.142 0.367058 6.91827 0
M  V30 6406 N 620.935 0.123689 5.61964 0
M  V30 6407 H 613.086 1.04246 1.85058 0
M  V30 6408 H 615.349 0.40979 0.854854 0
M  V30 6409 H 615.055 0.965203 3.38196 0
M  V30 6410 H 614.929 -0.756748 3.69531 0
M  V30 6411 H 617.316 -1.06436 2.75237 0
M  V30 6412 H 617.397 0.67985 2.466 0
M  V30 6413 H 617.041 1.08362 4.96206 0
M  V30 6414 H 616.971 -0.677397 5.22225 0
M  V30 6415 H 619.462 -0.0831062 3.77809 0
M  V30 6416 H 619.775 0.455739 7.71455 0
M  V30 6417 H 618.12 0.40292 6.93831 0
M  V30 6418 H 621.311 -0.0186928 4.68096 0
M  V30 6419 H 621.484 0.226797 6.47603 0
M  V30 6420 N 614.89 -1.56749 -0.16351 0
M  V30 6421 C 615.82 -2.00042 -1.20438 0
M  V30 6422 C 616.801 -0.877256 -1.45733 0
M  V30 6423 O 617.986 -1.1439 -1.56935 0
M  V30 6424 C 615.116 -2.36697 -2.54149 0
M  V30 6425 C 614.07 -3.52046 -2.43408 0
M  V30 6426 C 613.396 -3.74466 -3.81679 0
M  V30 6427 C 614.696 -4.85247 -1.93216 0
M  V30 6428 H 616.39 -2.87244 -0.844477 0
M  V30 6429 H 613.936 -1.38194 -0.40478 0
M  V30 6430 H 615.889 -2.65582 -3.27176 0
M  V30 6431 H 614.613 -1.46414 -2.91943 0
M  V30 6432 H 613.272 -3.23301 -1.72834 0
M  V30 6433 H 612.92 -2.81461 -4.1688 0
M  V30 6434 H 612.62 -4.52084 -3.75359 0
M  V30 6435 H 614.144 -4.0576 -4.5628 0
M  V30 6436 H 615.558 -5.12957 -2.56023 0
M  V30 6437 H 613.955 -5.66556 -1.97825 0
M  V30 6438 H 615.025 -4.7672 -0.88689 0
M  V30 6439 N 616.368 0.432326 -1.51554 0
M  V30 6440 C 617.784 0.769195 -1.39841 0
M  V30 6441 C 617.984 1.95584 -0.484675 0
M  V30 6442 O 617.04 2.52433 0.0582829 0
M  V30 6443 C 618.353 1.04487 -2.81963 0
M  V30 6444 C 619.901 1.149 -2.91148 0
M  V30 6445 C 620.376 1.45758 -4.34187 0
M  V30 6446 N 621.867 1.52671 -4.37317 0
M  V30 6447 C 622.602 1.78129 -5.4503 0
M  V30 6448 N 622.098 2.01345 -6.62897 0
M  V30 6449 N 623.891 1.79953 -5.32516 0
M  V30 6450 H 616.042 -0.349122 -2.09511 0
M  V30 6451 H 618.305 -0.0938113 -0.943347 0
M  V30 6452 H 618.011 0.24557 -3.50842 0
M  V30 6453 H 617.885 1.97119 -3.21596 0
M  V30 6454 H 620.272 1.93891 -2.22464 0
M  V30 6455 H 620.353 0.201568 -2.55005 0
M  V30 6456 H 619.997 0.672917 -5.03423 0
M  V30 6457 H 619.927 2.41715 -4.67848 0
M  V30 6458 H 622.418 1.36612 -3.52343 0
M  V30 6459 H 622.731 2.20155 -7.40778 0
M  V30 6460 H 621.076 1.98657 -6.66003 0
M  V30 6461 H 624.267 1.61337 -4.39418 0
M  V30 6462 H 624.44 1.99455 -6.1654 0
M  V30 6463 N 617.846 1.41785 0.688094 0
M  V30 6464 C 619.092 1.41753 1.4503 0
M  V30 6465 C 619.425 0.0290745 1.94178 0
M  V30 6466 O 618.7 -0.944456 1.7003 0
M  V30 6467 C 618.983 2.43069 2.65686 0
M  V30 6468 C 618.836 3.91053 2.22256 0
M  V30 6469 C 620.155 2.41543 3.67893 0
M  V30 6470 H 617.274 0.516202 0.526027 0
M  V30 6471 H 619.916 1.73111 0.783105 0
M  V30 6472 H 618.066 2.1646 3.2261 0
M  V30 6473 H 619.738 4.28594 1.70602 0
M  V30 6474 H 617.981 4.05559 1.53963 0
M  V30 6475 H 618.652 4.57501 3.08863 0
M  V30 6476 H 621.128 2.65175 3.20658 0
M  V30 6477 H 620.004 3.14434 4.49914 0
M  V30 6478 H 620.265 1.43666 4.18106 0
M  V30 6479 N 619.324 -0.923095 1.27737 0
M  V30 6480 C 620.57 -1.67375 1.14514 0
M  V30 6481 C 620.903 -1.91751 -0.307424 0
M  V30 6482 O 620.178 -1.51119 -1.22447 0
M  V30 6483 C 620.461 -3.03745 1.9342 0
M  V30 6484 C 620.314 -2.86581 3.46686 0
M  V30 6485 C 621.633 -4.04144 1.74228 0
M  V30 6486 H 618.752 -0.607427 0.417374 0
M  V30 6487 H 621.394 -1.07089 1.56946 0
M  V30 6488 H 619.544 -3.55204 1.5736 0
M  V30 6489 H 621.216 -2.42203 3.92601 0
M  V30 6490 H 619.459 -2.21829 3.72793 0
M  V30 6491 H 620.13 -3.83381 3.97143 0
M  V30 6492 H 622.606 -3.61712 2.05678 0
M  V30 6493 H 621.482 -4.97543 2.31824 0
M  V30 6494 H 621.743 -4.36661 0.691373 0
M  V30 6495 N 620.802 -1.09834 -1.13024 0
M  V30 6496 C 621.765 -0.745058 -2.16752 0
M  V30 6497 C 622.765 0.227435 -1.59183 0
M  V30 6498 O 623.955 0.0050786 -1.74199 0
M  V30 6499 C 621.087 -0.102543 -3.40746 0
M  V30 6500 H 622.28 -1.66375 -2.49518 0
M  V30 6501 H 619.833 -0.898061 -1.27924 0
M  V30 6502 H 620.568 0.827177 -3.13573 0
M  V30 6503 H 620.353 -0.80235 -3.83803 0
M  V30 6504 H 621.843 0.129082 -4.174 0
M  V30 6505 N 622.28 1.30327 -0.886154 0
M  V30 6506 C 623.212 2.27079 -0.311072 0
M  V30 6507 C 624.225 1.53758 0.53502 0
M  V30 6508 O 625.414 1.74947 0.354378 0
M  V30 6509 C 622.514 3.33965 0.576228 0
M  V30 6510 C 621.687 4.36735 -0.241064 0
M  V30 6511 C 620.746 5.23028 0.576916 0
M  V30 6512 O 619.772 5.692 -0.000802231 0
M  V30 6513 N 620.974 5.49016 1.88579 0
M  V30 6514 H 623.739 2.77065 -1.14259 0
M  V30 6515 H 621.3 1.43519 -0.749258 0
M  V30 6516 H 623.292 3.88618 1.12953 0
M  V30 6517 H 621.862 2.839 1.30842 0
M  V30 6518 H 621.082 3.81932 -0.975805 0
M  V30 6519 H 622.37 5.02451 -0.801272 0
M  V30 6520 H 621.768 5.13288 2.37806 0
M  V30 6521 H 620.325 6.06539 2.38651 0
M  V30 6522 N 623.758 0.647228 1.43697 0
M  V30 6523 C 624.983 0.164083 2.0675 0
M  V30 6524 C 625.408 -1.15892 1.48158 0
M  V30 6525 O 624.766 -1.71459 0.589194 0
M  V30 6526 C 624.814 0.0800368 3.60511 0
M  V30 6527 O 623.918 -0.959453 4.01084 0
M  V30 6528 H 623.259 0.0921288 0.657578 0
M  V30 6529 H 625.789 0.88846 1.84303 0
M  V30 6530 H 625.799 -0.105263 4.07864 0
M  V30 6531 H 624.474 1.04586 4.02535 0
M  V30 6532 H 623.051 -0.747425 3.65333 0
M  V30 6533 N 625.236 -1.5273 0.388769 0
M  V30 6534 C 626.464 -2.05992 -0.193677 0
M  V30 6535 C 626.879 -1.26053 -1.40557 0
M  V30 6536 O 626.236 -0.307049 -1.79898 0
M  V30 6537 C 626.287 -3.57068 -0.564321 0
M  V30 6538 O 626.008 -4.3398 0.599422 0
M  V30 6539 C 627.509 -4.26674 -1.20269 0
M  V30 6540 H 624.729 -0.670358 -0.0293445 0
M  V30 6541 H 627.273 -1.96857 0.553844 0
M  V30 6542 H 625.428 -3.66277 -1.26174 0
M  V30 6543 H 625.842 -5.2367 0.294895 0
M  V30 6544 H 627.316 -5.33625 -1.4124 0
M  V30 6545 H 627.793 -3.81854 -2.16989 0
M  V30 6546 H 628.399 -4.2178 -0.546047 0
M  V30 6547 N 626.714 -0.118576 -1.57153 0
M  V30 6548 C 627.662 0.849114 -2.16547 0
M  V30 6549 C 628.656 1.27567 -1.11458 0
M  V30 6550 O 629.862 1.24746 -1.29763 0
M  V30 6551 H 626.237 0.291935 -0.693021 0
M  V30 6552 H 628.208 0.323693 -2.96639 0
M  V30 6553 C 626.957 2.08951 -2.77912 0
M  V30 6554 H 626.28 1.77021 -3.58474 0
M  V30 6555 H 627.72 2.74666 -3.23008 0
M  V30 6556 C 626.179 2.87899 -1.74974 0
M  V30 6557 O 626.709 3.83268 -1.20285 0
M  V30 6558 N 624.915 2.51884 -1.44924 0
M  V30 6559 H 624.462 1.74397 -1.89587 0
M  V30 6560 H 624.42 3.05003 -0.762921 0
M  V30 6561 N 628.193 1.56834 0.155195 0
M  V30 6562 C 629.418 1.87412 0.888337 0
M  V30 6563 C 629.843 0.70671 1.74319 0
M  V30 6564 O 629.201 -0.343892 1.78009 0
M  V30 6565 C 629.249 3.1652 1.72765 0
M  V30 6566 O 628.353 2.99877 2.83103 0
M  V30 6567 H 627.694 0.615983 0.247914 0
M  V30 6568 H 630.224 2.04061 0.148478 0
M  V30 6569 H 630.234 3.48334 2.12433 0
M  V30 6570 H 628.909 4.01094 1.09985 0
M  V30 6571 H 627.486 2.79453 2.46902 0
M  V30 6572 N 629.671 -0.424282 1.51781 0
M  V30 6573 C 630.581 -1.54087 1.76902 0
M  V30 6574 C 631.597 -1.61249 0.653826 0
M  V30 6575 O 632.773 -1.78247 0.937552 0
M  V30 6576 C 629.838 -2.8996 1.90063 0
M  V30 6577 C 628.899 -2.92809 3.13945 0
M  V30 6578 C 628.132 -4.22201 3.26469 0
M  V30 6579 O 628.355 -5.15286 2.44616 0
M  V30 6580 O 627.289 -4.31599 4.1953 0
M  V30 6581 H 631.115 -1.358 2.71647 0
M  V30 6582 H 628.7 -0.608618 1.36441 0
M  V30 6583 H 630.582 -3.70575 2.0063 0
M  V30 6584 H 629.257 -3.08347 0.985067 0
M  V30 6585 H 628.164 -2.11102 3.08847 0
M  V30 6586 H 629.497 -2.79369 4.05233 0
M  V30 6587 N 631.149 -1.42148 -0.680565 0
M  V30 6588 C 632.059 -1.47565 -1.82378 0
M  V30 6589 C 633.075 -0.36489 -1.70131 0
M  V30 6590 O 634.251 -0.614916 -1.91783 0
M  V30 6591 C 631.316 -1.37013 -3.18478 0
M  V30 6592 C 630.377 -2.58532 -3.42724 0
M  V30 6593 C 629.61 -2.48473 -4.72331 0
M  V30 6594 O 629.833 -1.51745 -5.49845 0
M  V30 6595 O 628.767 -3.38503 -4.97694 0
M  V30 6596 H 632.593 -2.44045 -1.80764 0
M  V30 6597 H 630.178 -1.23849 -0.835569 0
M  V30 6598 H 632.06 -1.33468 -3.99705 0
M  V30 6599 H 630.735 -0.436552 -3.20743 0
M  V30 6600 H 629.642 -2.67652 -2.61368 0
M  V30 6601 H 630.975 -3.50769 -3.45286 0
M  V30 6602 N 632.627 0.916307 -1.28225 0
M  V30 6603 C 633.876 1.65975 -1.14608 0
M  V30 6604 C 634.189 1.93204 0.305191 0
M  V30 6605 O 635.395 2.65611 0.562432 0
M  V30 6606 C 633.851 2.98989 -2.00333 0
M  V30 6607 C 633.459 2.79417 -3.50186 0
M  V30 6608 C 635.203 3.76856 -1.95397 0
M  V30 6609 C 633.11 4.08056 -4.28071 0
M  V30 6610 H 632.04 0.622587 -0.425324 0
M  V30 6611 H 634.691 1.01705 -1.52736 0
M  V30 6612 H 633.073 3.6438 -1.5506 0
M  V30 6613 H 634.247 2.22723 -4.034 0
M  V30 6614 H 632.562 2.14966 -3.56621 0
M  V30 6615 H 635.159 4.72203 -2.50856 0
M  V30 6616 H 635.502 4.05776 -0.930137 0
M  V30 6617 H 636.035 3.1828 -2.38626 0
M  V30 6618 H 632.774 3.8431 -5.31024 0
M  V30 6619 H 632.294 4.64371 -3.79631 0
M  V30 6620 H 633.973 4.76333 -4.37854 0
M  V30 6621 N 634.105 1.10431 1.1244 0
M  V30 6622 C 635.354 0.841539 1.83306 0
M  V30 6623 C 635.667 -0.634961 1.85007 0
M  V30 6624 O 636.873 -1.01363 2.51869 0
M  V30 6625 C 635.329 1.45565 3.29149 0
M  V30 6626 C 634.937 2.96544 3.35806 0
M  V30 6627 C 636.681 1.27227 4.04986 0
M  V30 6628 C 634.588 3.5099 4.75983 0
M  V30 6629 H 633.518 0.311156 0.686803 0
M  V30 6630 H 636.169 1.32829 1.26604 0
M  V30 6631 H 634.551 0.896574 3.85717 0
M  V30 6632 H 635.725 3.58766 2.89177 0
M  V30 6633 H 634.04 3.14036 2.73442 0
M  V30 6634 H 636.637 1.65348 5.08492 0
M  V30 6635 H 636.98 0.213834 4.1575 0
M  V30 6636 H 637.513 1.79941 3.54776 0
M  V30 6637 H 634.252 4.56499 4.70413 0
M  V30 6638 H 633.772 2.93535 5.23065 0
M  V30 6639 H 635.451 3.48808 5.44924 0
M  V30 6640 N 635.583 -1.29855 0.893053 0
M  V30 6641 C 636.493 -2.31661 0.370157 0
M  V30 6642 C 637.509 -1.65677 -0.531723 0
M  V30 6643 O 638.685 -1.9691 -0.422902 0
M  V30 6644 C 635.75 -3.44388 -0.399741 0
M  V30 6645 C 634.811 -4.2598 0.532861 0
M  V30 6646 C 634.044 -5.33324 -0.200388 0
M  V30 6647 O 634.267 -5.52305 -1.42531 0
M  V30 6648 O 633.201 -6.00188 0.453668 0
M  V30 6649 H 637.027 -2.78354 1.2146 0
M  V30 6650 H 634.612 -1.34171 0.657153 0
M  V30 6651 H 636.494 -4.13037 -0.835358 0
M  V30 6652 H 635.169 -2.99815 -1.22035 0
M  V30 6653 H 634.076 -3.59998 1.01746 0
M  V30 6654 H 635.409 -4.74178 1.3197 0
M  V30 6655 N 637.061 -0.65484 -1.43351 0
M  V30 6656 C 638.309 -0.168559 -2.01396 0
M  V30 6657 C 638.63 1.22235 -1.51933 0
M  V30 6658 O 637.9 1.81685 -0.732627 0
M  V30 6659 H 636.48 -0.0593244 -0.744641 0
M  V30 6660 H 639.142 -0.846871 -1.75539 0
M  V30 6661 H 638.238 -0.154428 -3.11718 0
M  V30 6662 N 638.539 1.52521 -0.396863 0
M  V30 6663 C 639.449 2.30403 0.44178 0
M  V30 6664 C 640.465 1.37625 1.06468 0
M  V30 6665 O 641.641 1.70697 1.06886 0
M  V30 6666 C 638.706 3.1013 1.54986 0
M  V30 6667 C 637.767 4.18628 0.951279 0
M  V30 6668 C 637 4.94543 2.00655 0
M  V30 6669 O 637.223 4.70629 3.22281 0
M  V30 6670 O 636.157 5.797 1.61962 0
M  V30 6671 H 639.983 3.03087 -0.192892 0
M  V30 6672 H 637.568 1.48537 -0.16038 0
M  V30 6673 H 639.45 3.59816 2.19341 0
M  V30 6674 H 638.125 2.40251 2.16935 0
M  V30 6675 H 637.032 3.73119 0.270773 0
M  V30 6676 H 638.365 4.90763 0.375887 0
M  V30 6677 N 640.017 0.126909 1.57088 0
M  V30 6678 C 641.247 -0.535892 1.99529 0
M  V30 6679 C 641.655 -1.60259 1.00566 0
M  V30 6680 O 640.998 -1.83698 -0.00843269 0
M  V30 6681 C 641.06 -1.21374 3.38391 0
M  V30 6682 C 640.724 -0.294044 4.56053 0
M  V30 6683 C 641.721 0.470454 5.17767 0
M  V30 6684 C 639.406 -0.202808 5.0189 0
M  V30 6685 C 641.4 1.31384 6.23712 0
M  V30 6686 C 639.087 0.644203 6.07695 0
M  V30 6687 C 640.085 1.40115 6.68473 0
M  V30 6688 O 639.773 2.23408 7.72233 0
M  V30 6689 H 639.505 -0.145799 0.66009 0
M  V30 6690 H 642.059 0.212441 2.04298 0
M  V30 6691 H 640.289 -2.00931 3.30399 0
M  V30 6692 H 641.978 -1.77424 3.65069 0
M  V30 6693 H 642.744 0.409884 4.83265 0
M  V30 6694 H 638.623 -0.781688 4.54324 0
M  V30 6695 H 642.167 1.90514 6.71081 0
M  V30 6696 H 638.064 0.706137 6.41626 0
M  V30 6697 H 638.832 2.16436 7.89365 0
M  V30 6698 N 641.495 -1.56914 -0.146875 0
M  V30 6699 C 642.443 -1.99224 -1.20053 0
M  V30 6700 C 643.437 -0.884661 -1.44465 0
M  V30 6701 O 644.643 -1.06984 -1.44756 0
M  V30 6702 H 641.018 -0.634191 -0.404112 0
M  V30 6703 H 642.989 -2.86998 -0.816987 0
M  V30 6704 C 641.738 -2.38899 -2.52632 0
M  V30 6705 H 641.061 -3.23677 -2.34677 0
M  V30 6706 H 642.501 -2.72326 -3.24984 0
M  V30 6707 C 640.96 -1.2417 -3.13183 0
M  V30 6708 O 641.49 -0.542503 -3.9802 0
M  V30 6709 N 639.696 -1.00592 -2.72635 0
M  V30 6710 H 639.243 -1.57627 -2.03744 0
M  V30 6711 H 639.201 -0.240174 -3.13481 0
M  V30 6712 N 642.974 0.416227 -1.52004 0
M  V30 6713 C 644.202 1.18573 -1.69553 0
M  V30 6714 C 644.617 1.84472 -0.401919 0
M  V30 6715 O 643.974 1.71593 0.621463 0
M  V30 6716 C 644.025 2.25413 -2.82615 0
M  V30 6717 O 643.746 1.62205 -4.06966 0
M  V30 6718 C 645.247 3.15297 -3.11613 0
M  V30 6719 H 642.467 0.356582 -0.56841 0
M  V30 6720 H 645.011 0.490618 -1.98528 0
M  V30 6721 H 643.166 2.90604 -2.56179 0
M  V30 6722 H 643.58 2.3298 -4.69916 0
M  V30 6723 H 645.054 3.86351 -3.94255 0
M  V30 6724 H 645.531 3.77264 -2.24874 0
M  V30 6725 H 646.137 2.55783 -3.39787 0
M  V30 6726 N 644.452 1.42507 0.673017 0
M  V30 6727 C 645.698 1.43284 1.43519 0
M  V30 6728 C 646.031 0.049668 1.94136 0
M  V30 6729 O 645.306 -0.926369 1.71022 0
M  V30 6730 C 645.589 2.45874 2.63093 0
M  V30 6731 C 645.442 3.93388 2.18096 0
M  V30 6732 C 646.761 2.45431 3.6531 0
M  V30 6733 H 643.88 0.521752 0.520522 0
M  V30 6734 H 646.522 1.73932 0.764701 0
M  V30 6735 H 644.672 2.19869 3.20296 0
M  V30 6736 H 646.344 4.30379 1.66046 0
M  V30 6737 H 644.587 4.07169 1.49652 0
M  V30 6738 H 645.258 4.60752 3.03993 0
M  V30 6739 H 647.734 2.68561 3.17827 0
M  V30 6740 H 646.61 3.19189 4.46553 0
M  V30 6741 H 646.871 1.48092 4.16559 0
M  V30 6742 N 645.93 -0.909495 1.28709 0
M  V30 6743 C 646.863 -2.01388 1.07323 0
M  V30 6744 C 647.841 -1.62596 -0.0119757 0
M  V30 6745 O 649.025 -1.88003 0.136796 0
M  V30 6746 C 646.152 -3.32755 0.631797 0
M  V30 6747 C 645.198 -3.90532 1.71428 0
M  V30 6748 S 646.031 -4.20853 3.31124 0
M  V30 6749 C 647.187 -5.55276 2.88825 0
M  V30 6750 H 647.42 -2.19219 2.00824 0
M  V30 6751 H 644.953 -1.05489 1.12745 0
M  V30 6752 H 646.911 -4.08702 0.38381 0
M  V30 6753 H 645.572 -3.12818 -0.283451 0
M  V30 6754 H 644.765 -4.85385 1.35712 0
M  V30 6755 H 644.367 -3.21237 1.91528 0
M  V30 6756 H 646.659 -6.35341 2.3526 0
M  V30 6757 H 647.602 -5.95907 3.82492 0
M  V30 6758 H 648.01 -5.16666 2.27412 0
M  V30 6759 N 647.408 -1.11026 -1.11852 0
M  V30 6760 C 648.338 -0.786812 -2.19844 0
M  V30 6761 C 649.319 0.242935 -1.68356 0
M  V30 6762 O 650.504 0.107355 -1.93903 0
M  V30 6763 C 647.634 -0.224516 -3.46574 0
M  V30 6764 C 646.588 -1.18564 -4.1125 0
M  V30 6765 C 645.914 -0.484261 -5.32503 0
M  V30 6766 C 647.214 -2.53465 -4.56676 0
M  V30 6767 H 648.908 -1.68978 -2.47158 0
M  V30 6768 H 646.454 -0.813906 -1.18792 0
M  V30 6769 H 648.407 0.0139435 -4.21398 0
M  V30 6770 H 647.131 0.713722 -3.18706 0
M  V30 6771 H 645.79 -1.40966 -3.38414 0
M  V30 6772 H 645.438 0.458646 -5.00905 0
M  V30 6773 H 645.138 -1.12526 -5.76725 0
M  V30 6774 H 646.662 -0.254492 -6.10069 0
M  V30 6775 H 648.076 -2.35177 -5.22843 0
M  V30 6776 H 646.473 -3.13507 -5.11697 0
M  V30 6777 H 647.543 -3.13008 -3.70343 0
M  V30 6778 N 648.886 1.2938 -0.899927 0
M  V30 6779 C 649.849 2.25983 -0.382677 0
M  V30 6780 C 650.849 1.53366 0.483259 0
M  V30 6781 O 652.039 1.71798 0.28828 0
M  V30 6782 C 649.171 3.37878 0.452915 0
M  V30 6783 H 650.364 2.73252 -1.23586 0
M  V30 6784 H 647.917 1.40825 -0.678088 0
M  V30 6785 H 648.652 2.95949 1.32608 0
M  V30 6786 H 648.437 3.91742 -0.167562 0
M  V30 6787 H 649.927 4.09746 0.806107 0
M  V30 6788 N 650.364 0.662433 1.43002 0
M  V30 6789 C 651.613 0.176873 2.00923 0
M  V30 6790 C 651.926 -1.21954 1.52927 0
M  V30 6791 O 653.132 -1.80081 2.03182 0
M  V30 6792 C 651.588 0.265379 3.5892 0
M  V30 6793 C 651.196 1.66507 4.15908 0
M  V30 6794 C 652.94 -0.162103 4.2419 0
M  V30 6795 C 650.847 1.707 5.66229 0
M  V30 6796 H 649.777 0.0623627 0.751417 0
M  V30 6797 H 652.428 0.825813 1.63868 0
M  V30 6798 H 650.81 -0.451235 3.93421 0
M  V30 6799 H 651.984 2.40777 3.92891 0
M  V30 6800 H 650.299 2.03932 3.63044 0
M  V30 6801 H 652.896 -0.150745 5.34487 0
M  V30 6802 H 653.239 -1.19519 3.98774 0
M  V30 6803 H 653.772 0.503075 3.94606 0
M  V30 6804 H 650.511 2.7195 5.96426 0
M  V30 6805 H 650.031 1.00768 5.91275 0
M  V30 6806 H 651.71 1.45487 6.3043 0
M  V30 6807 N 651.842 -1.52309 0.404946 0
M  V30 6808 C 653.09 -2.01368 -0.17186 0
M  V30 6809 C 653.411 -1.29261 -1.46002 0
M  V30 6810 O 652.681 -0.41729 -1.91404 0
M  V30 6811 H 651.261 -0.744034 -0.0664993 0
M  V30 6812 H 653.923 -1.87263 0.540228 0
M  V30 6813 H 653.019 -3.09888 -0.370957 0
M  V30 6814 N 653.32 -0.135238 -1.57019 0
M  V30 6815 C 654.736 0.221262 -1.58059 0
M  V30 6816 C 654.936 1.65538 -1.14889 0
M  V30 6817 O 653.992 2.37985 -0.843751 0
M  V30 6818 C 655.305 -0.0268114 -3.00688 0
M  V30 6819 C 656.853 0.0378206 -3.12977 0
M  V30 6820 C 657.328 -0.182769 -4.57635 0
M  V30 6821 N 658.819 -0.129292 -4.6302 0
M  V30 6822 C 659.554 -0.274648 -5.72742 0
M  V30 6823 N 659.05 -0.477075 -6.91155 0
M  V30 6824 N 660.843 -0.213077 -5.61696 0
M  V30 6825 H 652.994 -1.07177 -1.83376 0
M  V30 6826 H 655.257 -0.423338 -0.848227 0
M  V30 6827 H 654.963 -1.01889 -3.36618 0
M  V30 6828 H 654.837 0.697863 -3.70688 0
M  V30 6829 H 657.224 1.02043 -2.76896 0
M  V30 6830 H 657.305 -0.718996 -2.45487 0
M  V30 6831 H 656.949 -1.16243 -4.94419 0
M  V30 6832 H 656.879 0.59423 -5.23237 0
M  V30 6833 H 659.37 0.0229896 -3.77893 0
M  V30 6834 H 659.683 -0.578413 -7.70632 0
M  V30 6835 H 658.028 -0.513252 -6.93102 0
M  V30 6836 H 661.219 -0.0557796 -4.68067 0
M  V30 6837 H 661.392 -0.329796 -6.4716 0
M  V30 6838 N 654.798 1.5699 0.138552 0
M  V30 6839 C 656.075 1.74741 0.87891 0
M  V30 6840 C 656.455 0.705522 1.98961 0
M  V30 6841 O 655.803 -0.274066 2.2685 0
M  V30 6842 C 656.013 3.1909 1.4136 0
M  V30 6843 C 657.361 3.81023 1.87368 0
M  V30 6844 O 658.385 3.22571 1.51084 0
M  V30 6845 O 657.244 4.83722 2.54312 0
M  V30 6846 H 654.338 0.714781 0.415953 0
M  V30 6847 H 656.884 1.69248 0.123817 0
M  V30 6848 H 655.656 3.86424 0.61579 0
M  V30 6849 H 655.279 3.29043 2.23196 0
M  V30 6850 N 656.276 -0.40816 1.52223 0
M  V30 6851 C 657.239 -1.48 1.7501 0
M  V30 6852 C 658.239 -1.48367 0.619996 0
M  V30 6853 O 659.429 -1.49874 0.887881 0
M  V30 6854 C 656.561 -2.87403 1.83336 0
M  V30 6855 H 657.754 -1.29086 2.70697 0
M  V30 6856 H 655.307 -0.638715 1.42654 0
M  V30 6857 H 656.042 -3.11686 0.895677 0
M  V30 6858 H 655.827 -2.8854 2.65494 0
M  V30 6859 H 657.317 -3.65103 2.02705 0
M  V30 6860 N 657.755 -1.42862 -0.66545 0
M  V30 6861 C 658.995 -1.45323 -1.43738 0
M  V30 6862 C 659.359 -0.0707969 -1.91869 0
M  V30 6863 O 660.56 0.0298852 -2.68783 0
M  V30 6864 C 658.831 -2.45671 -2.59577 0
M  V30 6865 S 660.39 -2.6691 -3.48288 0
M  V30 6866 H 657.208 -0.51442 -0.490809 0
M  V30 6867 H 659.81 -1.79537 -0.773745 0
M  V30 6868 H 658.514 -3.44869 -2.22471 0
M  V30 6869 H 658.045 -2.12914 -3.30804 0
M  V30 6870 H 660.06 -1.95914 -4.55886 0
M  V30 6871 N 659.233 0.902656 -1.29189 0
M  V30 6872 C 660.461 1.68639 -1.19869 0
M  V30 6873 C 660.876 1.87254 0.241121 0
M  V30 6874 O 660.233 1.40745 1.16177 0
M  V30 6875 C 660.284 3.07251 -1.90471 0
M  V30 6876 O 660.005 2.89488 -3.28829 0
M  V30 6877 C 661.506 4.01653 -1.8759 0
M  V30 6878 H 658.726 0.526802 -0.415596 0
M  V30 6879 H 661.27 1.12901 -1.7051 0
M  V30 6880 H 659.425 3.59774 -1.43672 0
M  V30 6881 H 659.839 3.77296 -3.64346 0
M  V30 6882 H 661.313 4.96339 -2.4156 0
M  V30 6883 H 661.79 4.30881 -0.850756 0
M  V30 6884 H 662.396 3.55061 -2.34119 0
M  V30 6885 N 660.711 1.11618 1.11262 0
M  V30 6886 C 662.127 0.850468 1.35053 0
M  V30 6887 C 662.327 -0.523868 1.94571 0
M  V30 6888 O 661.383 -1.2743 2.17986 0
M  V30 6889 C 662.696 1.96005 2.28041 0
M  V30 6890 C 664.244 1.98993 2.416 0
M  V30 6891 C 664.719 3.0916 3.37911 0
M  V30 6892 N 666.21 3.08547 3.45475 0
M  V30 6893 C 666.945 3.9043 4.19943 0
M  V30 6894 N 666.441 4.8228 4.97371 0
M  V30 6895 N 668.234 3.786 4.15474 0
M  V30 6896 H 660.385 2.00184 0.709932 0
M  V30 6897 H 662.648 0.870635 0.375099 0
M  V30 6898 H 662.354 2.9499 1.91503 0
M  V30 6899 H 662.228 1.85782 3.28275 0
M  V30 6900 H 664.615 1.00633 2.77411 0
M  V30 6901 H 664.696 2.13292 1.4121 0
M  V30 6902 H 664.34 4.07748 3.02827 0
M  V30 6903 H 664.27 2.92102 4.3816 0
M  V30 6904 H 666.761 2.42 2.90249 0
M  V30 6905 H 667.074 5.41289 5.51567 0
M  V30 6906 H 665.419 4.863 4.96525 0
M  V30 6907 H 668.61 3.06185 3.54074 0
M  V30 6908 H 668.783 4.42647 4.73253 0
M  V30 6909 N 662.189 -1.289 0.906776 0
M  V30 6910 C 663.136 -2.2751 0.388313 0
M  V30 6911 C 664.106 -1.57301 -0.533439 0
M  V30 6912 O 665.291 -1.85243 -0.457148 0
M  V30 6913 C 662.431 -3.43091 -0.37181 0
M  V30 6914 C 661.544 -4.28066 0.581647 0
M  V30 6915 C 660.679 -5.30837 -0.19623 0
M  V30 6916 C 659.718 -6.07472 0.751294 0
M  V30 6917 N 658.855 -7.021 0.00737727 0
M  V30 6918 H 663.695 -2.71237 1.23428 0
M  V30 6919 H 661.232 -1.33397 0.619962 0
M  V30 6920 H 663.19 -4.08888 -0.828641 0
M  V30 6921 H 661.82 -3.00374 -1.18218 0
M  V30 6922 H 660.872 -3.62378 1.157 0
M  V30 6923 H 662.184 -4.81382 1.30665 0
M  V30 6924 H 661.338 -6.02485 -0.71394 0
M  V30 6925 H 660.077 -4.78272 -0.954324 0
M  V30 6926 H 659.082 -5.34682 1.28044 0
M  V30 6927 H 660.307 -6.62126 1.50883 0
M  V30 6928 H 658.253 -6.51894 -0.732854 0
M  V30 6929 H 658.17 -7.53004 0.672334 0
M  V30 6930 H 659.438 -7.77956 -0.490365 0
M  V30 6931 N 663.667 -0.670007 -1.42649 0
M  V30 6932 C 664.916 -0.187526 -2.00826 0
M  V30 6933 C 665.229 1.21142 -1.53571 0
M  V30 6934 O 666.435 1.79001 -2.04134 0
M  V30 6935 C 664.891 -0.284409 -3.58774 0
M  V30 6936 C 664.499 -1.6871 -4.15019 0
M  V30 6937 C 666.243 0.139605 -4.2427 0
M  V30 6938 C 664.15 -1.73701 -5.65316 0
M  V30 6939 H 663.08 -0.0663468 -0.751075 0
M  V30 6940 H 665.731 -0.834492 -1.63427 0
M  V30 6941 H 664.113 0.430364 -3.93655 0
M  V30 6942 H 665.287 -2.42857 -3.91608 0
M  V30 6943 H 663.602 -2.05855 -3.61957 0
M  V30 6944 H 666.199 0.122398 -5.3456 0
M  V30 6945 H 666.542 1.17403 -3.99402 0
M  V30 6946 H 667.075 -0.523995 -3.94334 0
M  V30 6947 H 663.814 -2.75109 -5.94975 0
M  V30 6948 H 663.334 -1.03903 -5.90732 0
M  V30 6949 H 665.013 -1.48829 -6.2965 0
M  V30 6950 N 665.145 1.52092 -0.413018 0
M  V30 6951 C 666.393 2.01456 0.161178 0
M  V30 6952 C 666.714 1.30034 1.45314 0
M  V30 6953 O 665.984 0.427435 1.9118 0
M  V30 6954 H 664.564 0.744376 0.0625526 0
M  V30 6955 H 667.226 1.86974 -0.550151 0
M  V30 6956 H 666.322 3.1008 0.354517 0
M  V30 6957 N 666.623 0.143563 1.56945 0
M  V30 6958 C 667.553 -0.7936 2.196 0
M  V30 6959 C 668.534 -1.25955 1.14321 0
M  V30 6960 O 669.719 -1.31773 1.42651 0
M  V30 6961 C 666.849 -2.03424 2.81489 0
M  V30 6962 C 665.803 -1.70519 3.92565 0
M  V30 6963 C 665.129 -3.01817 4.41373 0
M  V30 6964 C 666.429 -0.95449 5.13504 0
M  V30 6965 H 668.123 -0.271423 2.98167 0
M  V30 6966 H 665.669 -0.12911 1.4342 0
M  V30 6967 H 667.622 -2.69463 3.23987 0
M  V30 6968 H 666.346 -2.58008 2.00248 0
M  V30 6969 H 665.005 -1.06859 3.5068 0
M  V30 6970 H 664.653 -3.54386 3.56959 0
M  V30 6971 H 664.353 -2.80565 5.16292 0
M  V30 6972 H 665.877 -3.68934 4.86539 0
M  V30 6973 H 667.291 -1.5169 5.52868 0
M  V30 6974 H 665.688 -0.842035 5.94163 0
M  V30 6975 H 666.758 0.0544033 4.84869 0
M  V30 6976 N 668.101 -1.57061 -0.130224 0
M  V30 6977 C 669.011 -2.02802 -1.17934 0
M  V30 6978 C 670.027 -0.946378 -1.46013 0
M  V30 6979 O 671.203 -1.25708 -1.57351 0
M  V30 6980 C 668.268 -2.41368 -2.48882 0
M  V30 6981 C 667.329 -3.63561 -2.28301 0
M  V30 6982 C 666.562 -4.00279 -3.53005 0
M  V30 6983 O 666.785 -3.37463 -4.59864 0
M  V30 6984 O 665.719 -4.93441 -3.44673 0
M  V30 6985 H 669.545 -2.92394 -0.820958 0
M  V30 6986 H 667.13 -1.45475 -0.340197 0
M  V30 6987 H 669.012 -2.66958 -3.26054 0
M  V30 6988 H 667.687 -1.54926 -2.84217 0
M  V30 6989 H 666.594 -3.43136 -1.49025 0
M  V30 6990 H 667.927 -4.50673 -1.97875 0
M  V30 6991 N 669.579 0.400081 -1.52437 0
M  V30 6992 C 670.807 1.16768 -1.70801 0
M  V30 6993 C 671.222 1.84036 -0.421462 0
M  V30 6994 O 670.579 1.72242 0.603228 0
M  V30 6995 C 670.63 2.22403 -2.8499 0
M  V30 6996 O 670.351 1.57879 -4.08663 0
M  V30 6997 C 671.852 3.11974 -3.1494 0
M  V30 6998 H 669.072 0.350533 -0.57216 0
M  V30 6999 H 671.616 0.469534 -1.99037 0
M  V30 7000 H 669.771 2.87871 -2.59247 0
M  V30 7001 H 670.185 2.27982 -4.7236 0
M  V30 7002 H 671.659 3.82148 -3.9833 0
M  V30 7003 H 672.136 3.74858 -2.28863 0
M  V30 7004 H 672.742 2.52165 -3.42481 0
M  V30 7005 N 671.057 1.43213 0.657864 0
M  V30 7006 C 672.303 1.44798 1.41991 0
M  V30 7007 C 672.636 0.070256 1.94073 0
M  V30 7008 O 671.911 -0.908177 1.71995 0
M  V30 7009 C 672.194 2.4865 2.60471 0
M  V30 7010 C 672.047 3.95679 2.13911 0
M  V30 7011 C 673.366 2.49292 3.62686 0
M  V30 7012 H 670.485 0.527244 0.514959 0
M  V30 7013 H 673.127 1.74733 0.74621 0
M  V30 7014 H 671.277 2.23254 3.17946 0
M  V30 7015 H 672.949 4.32116 1.61472 0
M  V30 7016 H 671.192 4.08733 1.45325 0
M  V30 7017 H 671.863 4.6395 2.99089 0
M  V30 7018 H 674.339 2.71917 3.14961 0
M  V30 7019 H 673.215 3.23907 4.43143 0
M  V30 7020 H 673.476 1.52502 4.14964 0
M  V30 7021 N 672.536 -0.895792 1.29666 0
M  V30 7022 C 673.784 -1.64339 1.17631 0
M  V30 7023 C 674.105 -1.93099 -0.271643 0
M  V30 7024 O 673.375 -1.55981 -1.18518 0
M  V30 7025 H 671.955 -0.609162 0.432354 0
M  V30 7026 H 674.617 -1.07389 1.62646 0
M  V30 7027 H 673.713 -2.59815 1.72924 0
M  V30 7028 N 674.014 -1.12206 -1.10668 0
M  V30 7029 C 675.26 -0.877172 -1.82848 0
M  V30 7030 C 675.593 0.595571 -1.84842 0
M  V30 7031 O 674.868 1.44013 -1.30731 0
M  V30 7032 C 675.151 -1.44957 -3.29635 0
M  V30 7033 C 675.004 -2.99051 -3.35989 0
M  V30 7034 C 676.323 -1.10714 -4.25946 0
M  V30 7035 H 673.442 -0.320103 -0.663854 0
M  V30 7036 H 676.084 -1.38827 -1.2972 0
M  V30 7037 H 674.234 -1.01488 -3.7501 0
M  V30 7038 H 675.906 -3.51182 -2.99113 0
M  V30 7039 H 674.149 -3.34705 -2.75962 0
M  V30 7040 H 674.82 -3.34194 -4.39339 0
M  V30 7041 H 677.296 -1.48254 -3.88793 0
M  V30 7042 H 676.172 -1.5343 -5.2702 0
M  V30 7043 H 676.433 -0.019 -4.42096 0
M  V30 7044 N 675.492 1.28418 -0.913599 0
M  V30 7045 C 676.439 2.27301 -0.400373 0
M  V30 7046 C 677.409 1.57582 0.52509 0
M  V30 7047 O 678.594 1.85482 0.447318 0
M  V30 7048 C 675.734 3.43284 0.35361 0
M  V30 7049 C 674.847 4.27752 -0.604341 0
M  V30 7050 C 673.982 5.30934 0.168075 0
M  V30 7051 C 673.021 6.07065 -0.783499 0
M  V30 7052 N 672.158 7.02086 -0.0446112 0
M  V30 7053 H 676.998 2.70579 -1.24865 0
M  V30 7054 H 674.535 1.33067 -0.627028 0
M  V30 7055 H 676.493 4.09322 0.806945 0
M  V30 7056 H 675.123 3.00997 1.16623 0
M  V30 7057 H 674.175 3.61759 -1.17621 0
M  V30 7058 H 675.487 4.80682 -1.33216 0
M  V30 7059 H 674.641 6.02855 0.681979 0
M  V30 7060 H 673.38 4.78771 0.928947 0
M  V30 7061 H 672.385 5.33995 -1.30878 0
M  V30 7062 H 673.61 6.61317 -1.54392 0
M  V30 7063 H 671.556 6.52273 0.698272 0
M  V30 7064 H 671.473 7.52637 -0.712258 0
M  V30 7065 H 672.741 7.78205 0.449102 0
M  V30 7066 N 676.97 0.677563 1.42291 0
M  V30 7067 C 678.219 0.198173 2.00724 0
M  V30 7068 C 678.532 -1.20325 1.54211 0
M  V30 7069 O 679.738 -1.77916 2.05081 0
M  V30 7070 C 678.194 0.303432 3.58619 0
M  V30 7071 C 677.802 1.70909 4.14119 0
M  V30 7072 C 679.546 -0.117103 4.24338 0
M  V30 7073 C 677.453 1.76696 5.64387 0
M  V30 7074 H 676.383 0.070329 0.750713 0
M  V30 7075 H 679.034 0.843147 1.62982 0
M  V30 7076 H 677.416 -0.409482 3.93877 0
M  V30 7077 H 678.59 2.44931 3.90315 0
M  V30 7078 H 676.905 2.07771 3.6086 0
M  V30 7079 H 679.502 -0.0940471 5.34617 0
M  V30 7080 H 679.845 -1.15283 4.00019 0
M  V30 7081 H 680.378 0.5449 3.9405 0
M  V30 7082 H 677.117 2.7826 5.93508 0
M  V30 7083 H 676.637 1.07034 5.90173 0
M  V30 7084 H 678.316 1.52166 6.28852 0
M  V30 7085 N 678.448 -1.51871 0.421078 0
M  V30 7086 C 679.396 -2.28903 -0.413066 0
M  V30 7087 C 680.39 -1.3408 -1.03532 0
M  V30 7088 O 681.596 -1.5149 -0.972146 0
M  V30 7089 H 677.971 -0.736478 -0.152003 0
M  V30 7090 H 679.942 -2.97285 0.257695 0
M  V30 7091 C 678.691 -3.13156 -1.51091 0
M  V30 7092 H 678.014 -3.85997 -1.04145 0
M  V30 7093 H 679.454 -3.7014 -2.06814 0
M  V30 7094 C 677.913 -2.27482 -2.48503 0
M  V30 7095 O 678.443 -1.92325 -3.52667 0
M  V30 7096 N 676.649 -1.91019 -2.18998 0
M  V30 7097 H 676.196 -2.19808 -1.34322 0
M  V30 7098 H 676.154 -1.3399 -2.84419 0
M  V30 7099 N 679.926 -0.151884 -1.56866 0
M  V30 7100 C 680.836 0.798876 -2.20579 0
M  V30 7101 C 681.852 1.268 -1.19154 0
M  V30 7102 O 683.028 1.32418 -1.51748 0
M  V30 7103 C 680.093 2.01861 -2.81874 0
M  V30 7104 C 679.154 1.59825 -3.9844 0
M  V30 7105 C 678.387 2.75984 -4.56802 0
M  V30 7106 O 678.61 3.92331 -4.14044 0
M  V30 7107 O 677.544 2.51175 -5.46987 0
M  V30 7108 H 681.37 0.2865 -3.02346 0
M  V30 7109 H 678.955 0.0753806 -1.4921 0
M  V30 7110 H 680.837 2.73235 -3.20813 0
M  V30 7111 H 679.512 2.52042 -2.03117 0
M  V30 7112 H 678.419 0.854601 -3.64208 0
M  V30 7113 H 679.752 1.14355 -4.78731 0
M  V30 7114 N 681.404 1.57128 0.121893 0
M  V30 7115 C 682.351 2.0013 1.14964 0
M  V30 7116 C 683.321 0.872959 1.4131 0
M  V30 7117 O 684.506 1.13696 1.53225 0
M  V30 7118 C 681.646 2.40824 2.4718 0
M  V30 7119 C 680.759 3.67061 2.27794 0
M  V30 7120 C 679.894 3.96749 3.53219 0
M  V30 7121 C 678.933 5.16178 3.28978 0
M  V30 7122 N 678.07 5.41751 4.46599 0
M  V30 7123 H 682.91 2.8772 0.775947 0
M  V30 7124 H 680.447 1.42328 0.371652 0
M  V30 7125 H 682.405 2.62454 3.24305 0
M  V30 7126 H 681.035 1.56279 2.82448 0
M  V30 7127 H 680.087 3.53063 1.416 0
M  V30 7128 H 681.399 4.5434 2.05857 0
M  V30 7129 H 680.553 4.19012 4.38764 0
M  V30 7130 H 679.292 3.07941 3.78185 0
M  V30 7131 H 678.297 4.93762 2.41824 0
M  V30 7132 H 679.522 6.06561 3.05386 0
M  V30 7133 H 677.468 4.55899 4.71691 0
M  V30 7134 H 677.385 6.23347 4.27756 0
M  V30 7135 H 678.653 5.68531 5.33285 0
M  V30 7136 N 682.882 -0.391992 1.52647 0
M  V30 7137 C 684.11 -1.1586 1.71418 0
M  V30 7138 C 684.525 -1.8381 0.431216 0
M  V30 7139 O 683.882 -1.7256 -0.594085 0
M  V30 7140 C 683.933 -2.20888 2.86165 0
M  V30 7141 O 683.654 -1.5571 4.09495 0
M  V30 7142 C 685.155 -3.103 3.1659 0
M  V30 7143 H 682.375 -0.347494 0.574011 0
M  V30 7144 H 684.919 -0.458972 1.99283 0
M  V30 7145 H 683.074 -2.86492 2.6077 0
M  V30 7146 H 683.488 -2.25474 4.73563 0
M  V30 7147 H 684.962 -3.8003 4.00351 0
M  V30 7148 H 685.439 -3.73639 2.30848 0
M  V30 7149 H 686.045 -2.50345 3.43813 0
M  V30 7150 N 684.36 -1.4356 -0.65026 0
M  V30 7151 C 685.608 -1.45046 -1.40734 0
M  V30 7152 C 685.929 -0.0769822 -1.94848 0
M  V30 7153 O 685.199 0.888098 -1.74613 0
M  V30 7154 H 683.779 -0.534034 -0.522318 0
M  V30 7155 H 686.441 -1.79186 -0.766703 0
M  V30 7156 H 685.537 -2.16476 -2.24822 0
M  V30 7157 N 685.838 0.888903 -1.30139 0
M  V30 7158 C 686.785 1.99422 -1.16188 0
M  V30 7159 C 687.755 1.66017 -0.0523869 0
M  V30 7160 O 688.94 1.89506 -0.221864 0
M  V30 7161 C 686.08 3.34325 -0.855612 0
M  V30 7162 C 685.193 3.80445 -2.0466 0
M  V30 7163 C 684.328 5.03975 -1.67876 0
M  V30 7164 C 683.367 5.42492 -2.83493 0
M  V30 7165 N 682.504 6.57206 -2.47032 0
M  V30 7166 H 687.344 2.10687 -2.10749 0
M  V30 7167 H 684.881 1.03165 -1.04859 0
M  V30 7168 H 686.839 4.11968 -0.658681 0
M  V30 7169 H 685.469 3.22756 0.0531155 0
M  V30 7170 H 684.521 2.98745 -2.3549 0
M  V30 7171 H 685.833 4.04933 -2.91257 0
M  V30 7172 H 684.987 5.89232 -1.44535 0
M  V30 7173 H 683.726 4.8135 -0.784431 0
M  V30 7174 H 682.731 4.55764 -3.07505 0
M  V30 7175 H 683.956 5.67093 -3.73607 0
M  V30 7176 H 681.902 6.36164 -1.601 0
M  V30 7177 H 681.819 6.81543 -3.27161 0
M  V30 7178 H 683.087 7.45704 -2.27038 0
M  V30 7179 N 687.317 1.12792 1.10072 0
M  V30 7180 C 688.566 0.880232 1.81479 0
M  V30 7181 C 688.879 -0.595575 1.86312 0
M  V30 7182 O 690.085 -0.959979 2.53962 0
M  V30 7183 C 688.541 1.52514 3.25987 0
M  V30 7184 C 688.149 3.036 3.29441 0
M  V30 7185 C 689.893 1.35788 4.02196 0
M  V30 7186 C 687.8 3.61007 4.68431 0
M  V30 7187 H 686.73 0.325654 0.680048 0
M  V30 7188 H 689.381 1.35485 1.23758 0
M  V30 7189 H 687.763 0.978188 3.83728 0
M  V30 7190 H 688.937 3.64819 2.81502 0
M  V30 7191 H 687.252 3.19765 2.66719 0
M  V30 7192 H 689.849 1.76096 5.0487 0
M  V30 7193 H 690.192 0.301972 4.15203 0
M  V30 7194 H 690.725 1.87426 3.50879 0
M  V30 7195 H 687.464 4.66375 4.60625 0
M  V30 7196 H 686.984 3.04564 5.16721 0
M  V30 7197 H 688.663 3.60289 5.37402 0
M  V30 7198 N 688.795 -1.27931 0.920396 0
M  V30 7199 C 690.206 -1.76707 0.602616 0
M  V30 7200 C 690.557 -1.75249 -0.882159 0
M  V30 7201 O 689.682 -1.35135 -1.69019 0
M  V30 7202 C 690.277 -3.20884 1.08714 0
M  V30 7203 C 688.836 -3.67356 0.820157 0
M  V30 7204 C 687.983 -2.47525 1.25006 0
M  V30 7205 H 690.934 -1.14301 1.10095 0
M  V30 7206 H 690.955 -3.78045 0.431535 0
M  V30 7207 H 690.467 -3.21913 2.1678 0
M  V30 7208 H 688.568 -3.7178 -0.247012 0
M  V30 7209 H 688.681 -4.57181 1.43257 0
M  V30 7210 H 687.045 -2.45765 0.668698 0
M  V30 7211 H 687.828 -2.51269 2.3392 0
M  V30 7212 N 690.273 -0.685099 -1.4193 0
M  V30 7213 C 691.519 -0.211971 -2.01689 0
M  V30 7214 C 691.852 1.18189 -1.54094 0
M  V30 7215 O 691.127 1.79559 -0.747572 0
M  V30 7216 C 691.41 -0.258019 -3.59174 0
M  V30 7217 C 691.263 -1.68807 -4.16922 0
M  V30 7218 C 692.582 0.388044 -4.38386 0
M  V30 7219 H 689.701 -0.0784987 -0.732808 0
M  V30 7220 H 692.343 -0.871837 -1.68816 0
M  V30 7221 H 690.493 0.303832 -3.8731 0
M  V30 7222 H 692.165 -2.30296 -3.99702 0
M  V30 7223 H 690.408 -2.22553 -3.72361 0
M  V30 7224 H 691.079 -1.6719 -5.26072 0
M  V30 7225 H 693.555 -0.0903432 -4.16002 0
M  V30 7226 H 692.431 0.325232 -5.47936 0
M  V30 7227 H 692.692 1.4672 -4.17044 0
M  V30 7228 N 691.751 1.51645 -0.429126 0
M  V30 7229 C 692.979 2.06433 0.138994 0
M  V30 7230 C 693.394 1.29735 1.37165 0
M  V30 7231 O 692.751 0.354638 1.79021 0
M  V30 7232 C 692.802 3.58439 0.469452 0
M  V30 7233 O 692.523 4.32238 -0.714273 0
M  V30 7234 C 694.024 4.29712 1.08914 0
M  V30 7235 H 691.244 0.6709 0.0115608 0
M  V30 7236 H 693.788 1.9532 -0.605843 0
M  V30 7237 H 691.943 3.69494 1.16419 0
M  V30 7238 H 692.357 5.22704 -0.433633 0
M  V30 7239 H 693.831 5.37182 1.27042 0
M  V30 7240 H 694.308 3.87473 2.06788 0
M  V30 7241 H 694.914 4.2308 0.434028 0
M  V30 7242 N 693.229 0.160201 1.56784 0
M  V30 7243 C 694.506 -0.533355 1.88188 0
M  V30 7244 C 694.886 -1.82072 1.06831 0
M  V30 7245 O 694.234 -2.27946 0.158959 0
M  V30 7246 C 694.444 -0.786034 3.40033 0
M  V30 7247 C 695.792 -1.12097 4.09536 0
M  V30 7248 O 696.816 -0.874949 3.45287 0
M  V30 7249 O 695.675 -1.58457 5.23023 0
M  V30 7250 H 692.769 -0.273589 0.780434 0
M  V30 7251 H 695.315 0.197803 1.68543 0
M  V30 7252 H 694.087 0.124515 3.91102 0
M  V30 7253 H 693.71 -1.57091 3.65251 0
M  V30 7254 N 694.707 -1.5719 -0.113559 0
M  V30 7255 C 695.617 -2.04041 -1.15777 0
M  V30 7256 C 696.633 -0.961812 -1.45001 0
M  V30 7257 O 697.809 -1.2737 -1.56009 0
M  V30 7258 C 694.874 -2.43994 -2.46308 0
M  V30 7259 C 693.935 -3.65962 -2.24433 0
M  V30 7260 C 693.168 -4.04 -3.4874 0
M  V30 7261 O 693.391 -3.42321 -4.56259 0
M  V30 7262 O 692.325 -4.97069 -3.3942 0
M  V30 7263 H 696.151 -2.93248 -0.789899 0
M  V30 7264 H 693.736 -1.45828 -0.324748 0
M  V30 7265 H 695.618 -2.70401 -3.23204 0
M  V30 7266 H 694.293 -1.57932 -2.82558 0
M  V30 7267 H 693.2 -3.44697 -1.45377 0
M  V30 7268 H 694.533 -4.52746 -1.93084 0
M  V30 7269 N 696.185 0.383891 -1.52853 0
M  V30 7270 C 697.095 1.49343 -1.80925 0
M  V30 7271 C 698.111 1.59458 -0.696348 0
M  V30 7272 O 699.287 1.75698 -0.984481 0
M  V30 7273 C 696.352 2.84819 -1.97684 0
M  V30 7274 C 695.413 2.84382 -3.21598 0
M  V30 7275 C 694.646 4.13397 -3.37548 0
M  V30 7276 O 694.869 5.08619 -2.58192 0
M  V30 7277 O 693.803 4.20325 -4.30826 0
M  V30 7278 H 697.629 1.2855 -2.75152 0
M  V30 7279 H 695.214 0.572229 -1.38007 0
M  V30 7280 H 697.096 3.65125 -2.10385 0
M  V30 7281 H 695.771 3.05627 -1.06647 0
M  V30 7282 H 694.678 2.0284 -3.14336 0
M  V30 7283 H 696.011 2.68526 -4.12498 0
M  V30 7284 N 697.663 1.43903 0.642637 0
M  V30 7285 C 698.595 1.45857 1.768 0
M  V30 7286 C 699.608 0.353358 1.58919 0
M  V30 7287 O 700.797 0.618426 1.67445 0
M  V30 7288 C 697.897 1.26583 3.14372 0
M  V30 7289 C 697.07 2.50139 3.58817 0
M  V30 7290 C 696.129 2.25933 4.75227 0
M  V30 7291 O 695.155 2.99351 4.84125 0
M  V30 7292 N 696.357 1.28263 5.66153 0
M  V30 7293 H 699.122 2.42869 1.75598 0
M  V30 7294 H 696.683 1.39194 0.826832 0
M  V30 7295 H 698.675 1.08255 3.89953 0
M  V30 7296 H 697.245 0.37978 3.10284 0
M  V30 7297 H 696.465 2.83821 2.73568 0
M  V30 7298 H 697.753 3.32344 3.8526 0
M  V30 7299 H 697.151 0.676041 5.61646 0
M  V30 7300 H 695.708 1.15916 6.4141 0
M  V30 7301 N 699.141 -0.881989 1.30609 0
M  V30 7302 C 700.369 -1.66711 1.22536 0
M  V30 7303 C 700.784 -1.87614 -0.2113 0
M  V30 7304 O 700.141 -1.42576 -1.13923 0
M  V30 7305 C 700.192 -3.04182 1.95335 0
M  V30 7306 O 699.913 -2.8422 3.33393 0
M  V30 7307 C 701.414 -3.98617 1.93956 0
M  V30 7308 H 698.634 -0.520124 0.423925 0
M  V30 7309 H 701.178 -1.10174 1.72285 0
M  V30 7310 H 699.333 -3.57442 1.49378 0
M  V30 7311 H 699.747 -3.71452 3.70302 0
M  V30 7312 H 701.221 -4.92433 2.49426 0
M  V30 7313 H 701.698 -4.29473 0.919198 0
M  V30 7314 H 702.304 -3.51292 2.39738 0
M  V30 7315 N 700.619 -1.13374 -1.09472 0
M  V30 7316 C 701.567 -0.806105 -2.18185 0
M  V30 7317 C 702.561 0.21136 -1.68076 0
M  V30 7318 O 703.767 0.0685558 -1.79869 0
M  V30 7319 H 700.142 -0.242901 -0.71169 0
M  V30 7320 H 702.113 -1.73115 -2.43051 0
M  V30 7321 C 700.862 -0.287928 -3.46506 0
M  V30 7322 H 700.185 -1.06217 -3.85432 0
M  V30 7323 H 701.625 -0.0971054 -4.23889 0
M  V30 7324 C 700.084 0.986256 -3.22141 0
M  V30 7325 O 700.614 2.06217 -3.44728 0
M  V30 7326 N 698.82 0.917153 -2.75747 0
M  V30 7327 H 698.367 0.0414609 -2.57567 0
M  V30 7328 H 698.325 1.77029 -2.59823 0
M  V30 7329 N 702.098 1.27442 -0.927168 0
M  V30 7330 C 703.344 1.94679 -0.568164 0
M  V30 7331 C 703.677 1.72697 0.888219 0
M  V30 7332 O 702.952 1.05573 1.63354 0
M  V30 7333 C 703.235 3.4882 -0.894253 0
M  V30 7334 C 703.088 3.80146 -2.40435 0
M  V30 7335 C 704.407 4.38281 -0.399766 0
M  V30 7336 H 701.526 0.707071 -0.207892 0
M  V30 7337 H 704.168 1.50568 -1.15885 0
M  V30 7338 H 702.318 3.86522 -0.391566 0
M  V30 7339 H 703.99 3.52238 -2.97869 0
M  V30 7340 H 702.233 3.26716 -2.85375 0
M  V30 7341 H 702.904 4.87835 -2.58304 0
M  V30 7342 H 705.38 4.07726 -0.83058 0
M  V30 7343 H 704.256 5.44955 -0.656885 0
M  V30 7344 H 704.517 4.36521 0.700153 0
M  V30 7345 N 703.576 0.692616 1.41565 0
M  V30 7346 C 704.987 0.297478 1.84315 0
M  V30 7347 C 705.338 -1.16379 1.57957 0
M  V30 7348 O 704.463 -1.89303 1.0485 0
M  V30 7349 C 705.058 0.533136 3.34579 0
M  V30 7350 C 703.617 0.191944 3.7591 0
M  V30 7351 C 702.764 0.816873 2.64995 0
M  V30 7352 H 705.715 0.893488 1.31158 0
M  V30 7353 H 705.736 -0.209105 3.79925 0
M  V30 7354 H 705.248 1.59674 3.53731 0
M  V30 7355 H 703.349 -0.867512 3.6236 0
M  V30 7356 H 703.462 0.644902 4.7474 0
M  V30 7357 H 701.826 0.246715 2.53502 0
M  V30 7358 H 702.609 1.88429 2.86966 0
M  V30 7359 N 705.054 -1.51416 0.437162 0
M  V30 7360 C 706.284 -2.06204 -0.127859 0
M  V30 7361 C 706.692 -1.30463 -1.37026 0
M  V30 7362 O 706.035 -0.357516 -1.80187 0
M  V30 7363 C 706.097 -3.55783 -0.515632 0
M  V30 7364 C 705.761 -4.52776 0.619937 0
M  V30 7365 C 706.758 -4.98031 1.49201 0
M  V30 7366 C 704.443 -4.95878 0.800618 0
M  V30 7367 C 706.437 -5.85061 2.52947 0
M  V30 7368 C 704.124 -5.82699 1.84135 0
M  V30 7369 C 705.122 -6.27188 2.70416 0
M  V30 7370 O 704.81 -7.12284 3.72702 0
M  V30 7371 H 704.542 -0.675903 -0.011442 0
M  V30 7372 H 707.096 -1.95977 0.614986 0
M  V30 7373 H 705.326 -3.63793 -1.31118 0
M  V30 7374 H 707.015 -3.93087 -1.01179 0
M  V30 7375 H 707.781 -4.65426 1.36395 0
M  V30 7376 H 703.66 -4.60792 0.138617 0
M  V30 7377 H 707.204 -6.19708 3.20325 0
M  V30 7378 H 703.101 -6.14717 1.9696 0
M  V30 7379 H 703.869 -7.30462 3.69281 0
M  V30 7380 N 706.532 -0.168513 -1.56696 0
M  V30 7381 C 707.781 0.477233 -1.95973 0
M  V30 7382 C 708.094 1.64578 -1.05704 0
M  V30 7383 O 709.3 2.35758 -1.3465 0
M  V30 7384 C 707.756 0.900413 -3.48455 0
M  V30 7385 C 707.364 -0.242382 -4.47344 0
M  V30 7386 C 709.108 1.51474 -3.96555 0
M  V30 7387 C 707.015 0.200272 -5.91061 0
M  V30 7388 H 705.945 0.182061 -0.73169 0
M  V30 7389 H 708.596 -0.256297 -1.81701 0
M  V30 7390 H 706.978 1.68984 -3.58135 0
M  V30 7391 H 708.152 -1.01967 -4.49377 0
M  V30 7392 H 706.467 -0.766484 -4.09285 0
M  V30 7393 H 709.064 1.85792 -5.01384 0
M  V30 7394 H 709.407 2.41163 -3.39332 0
M  V30 7395 H 709.94 0.789802 -3.89881 0
M  V30 7396 H 706.679 -0.661775 -6.52151 0
M  V30 7397 H 706.199 0.942979 -5.92341 0
M  V30 7398 H 707.878 0.645088 -6.43776 0
M  V30 7399 N 708.01 1.57248 0.105221 0
M  V30 7400 C 709.24 1.89492 0.823175 0
M  V30 7401 C 709.648 0.75934 1.73294 0
M  V30 7402 O 708.991 -0.278182 1.81581 0
M  V30 7403 C 709.053 3.16891 1.69765 0
M  V30 7404 C 708.717 4.46787 0.960769 0
M  V30 7405 C 709.714 5.19061 0.295218 0
M  V30 7406 C 707.399 4.93467 0.937854 0
M  V30 7407 C 709.393 6.36246 -0.383393 0
M  V30 7408 C 707.08 6.10566 0.255452 0
M  V30 7409 C 708.078 6.81804 -0.404003 0
M  V30 7410 O 707.766 7.96673 -1.07549 0
M  V30 7411 H 707.498 0.631512 0.24118 0
M  V30 7412 H 710.052 2.05203 0.0899655 0
M  V30 7413 H 708.282 2.973 2.47285 0
M  V30 7414 H 709.971 3.35046 2.29126 0
M  V30 7415 H 710.737 4.84044 0.304448 0
M  V30 7416 H 706.616 4.37913 1.44058 0
M  V30 7417 H 710.16 6.91787 -0.898696 0
M  V30 7418 H 706.057 6.45039 0.244032 0
M  V30 7419 H 706.825 8.12596 -0.981355 0
M  V30 7420 N 709.488 -0.375779 1.53054 0
M  V30 7421 C 710.451 -1.44254 1.7811 0
M  V30 7422 C 711.451 -1.47018 0.651328 0
M  V30 7423 O 712.641 -1.47957 0.919472 0
M  V30 7424 C 709.773 -2.8345 1.89391 0
M  V30 7425 H 710.966 -1.23316 2.73374 0
M  V30 7426 H 708.519 -0.608312 1.43977 0
M  V30 7427 H 709.254 -3.09716 0.961589 0
M  V30 7428 H 709.039 -2.82844 2.71555 0
M  V30 7429 H 710.529 -3.60722 2.10404 0
M  V30 7430 N 710.966 -1.44241 -0.634997 0
M  V30 7431 C 712.215 -1.46102 -1.39058 0
M  V30 7432 C 712.528 -0.0959909 -1.95364 0
M  V30 7433 O 713.734 0.00788751 -2.71499 0
M  V30 7434 C 712.19 -2.57195 -2.51751 0
M  V30 7435 C 711.798 -3.99888 -2.01974 0
M  V30 7436 C 713.542 -2.68272 -3.28984 0
M  V30 7437 C 711.449 -5.02412 -3.11987 0
M  V30 7438 H 710.379 -0.543556 -0.522554 0
M  V30 7439 H 713.03 -1.70294 -0.683538 0
M  V30 7440 H 711.412 -2.26237 -3.25012 0
M  V30 7441 H 712.586 -4.40396 -1.35604 0
M  V30 7442 H 710.901 -3.93019 -1.37568 0
M  V30 7443 H 713.498 -3.42042 -4.10988 0
M  V30 7444 H 713.841 -1.73957 -3.78212 0
M  V30 7445 H 714.374 -2.98622 -2.62812 0
M  V30 7446 H 711.113 -5.98342 -2.67707 0
M  V30 7447 H 710.633 -4.66501 -3.77011 0
M  V30 7448 H 712.312 -5.25939 -3.76825 0
M  V30 7449 N 712.444 0.87505 -1.31075 0
M  V30 7450 C 713.692 1.62447 -1.20231 0
M  V30 7451 C 714.013 1.93506 0.240888 0
M  V30 7452 O 713.283 1.57847 1.16022 0
M  V30 7453 H 711.863 0.602207 -0.441991 0
M  V30 7454 H 714.525 1.04788 -1.64334 0
M  V30 7455 H 713.621 2.57031 -1.77036 0
M  V30 7456 N 713.922 1.13953 1.08869 0
M  V30 7457 C 715.199 0.815768 1.77777 0
M  V30 7458 C 715.579 -0.691624 1.99449 0
M  V30 7459 O 714.927 -1.63085 1.60049 0
M  V30 7460 C 715.137 1.60916 3.09689 0
M  V30 7461 C 716.485 1.80549 3.84301 0
M  V30 7462 O 717.509 1.57562 3.19457 0
M  V30 7463 O 716.368 2.18946 5.00724 0
M  V30 7464 H 713.462 0.298445 0.771271 0
M  V30 7465 H 716.008 1.24446 1.15374 0
M  V30 7466 H 714.78 2.6333 2.89435 0
M  V30 7467 H 714.403 1.17578 3.79817 0
M  V30 7468 N 715.4 -1.26948 0.933913 0
M  V30 7469 C 716.649 -1.93378 0.573409 0
M  V30 7470 C 716.962 -1.74148 -0.890614 0
M  V30 7471 O 718.168 -2.34971 -1.36017 0
M  V30 7472 C 716.624 -3.46449 0.974747 0
M  V30 7473 C 716.232 -3.74425 2.45988 0
M  V30 7474 C 717.976 -4.18924 0.685791 0
M  V30 7475 C 715.883 -5.209 2.8003 0
M  V30 7476 H 714.813 -0.723952 0.210736 0
M  V30 7477 H 717.464 -1.44143 1.13557 0
M  V30 7478 H 715.846 -3.94528 0.341181 0
M  V30 7479 H 717.02 -3.37079 3.14188 0
M  V30 7480 H 715.335 -3.15167 2.72138 0
M  V30 7481 H 717.932 -5.26786 0.916546 0
M  V30 7482 H 718.275 -4.14587 -0.377217 0
M  V30 7483 H 718.808 -3.76687 1.27874 0
M  V30 7484 H 715.547 -5.30332 3.85264 0
M  V30 7485 H 715.067 -5.59369 2.16485 0
M  V30 7486 H 716.746 -5.88837 2.68105 0
M  V30 7487 N 716.879 -0.700114 -1.41195 0
M  V30 7488 C 717.809 -0.0521132 -2.33442 0
M  V30 7489 C 718.79 0.76228 -1.52063 0
M  V30 7490 O 719.975 0.714336 -1.80585 0
M  V30 7491 C 717.105 0.881693 -3.35922 0
M  V30 7492 C 716.059 0.174062 -4.27646 0
M  V30 7493 C 715.385 1.22254 -5.20536 0
M  V30 7494 C 716.685 -0.962396 -5.13357 0
M  V30 7495 H 718.379 -0.822574 -2.87879 0
M  V30 7496 H 715.925 -0.397011 -1.38419 0
M  V30 7497 H 717.878 1.34429 -3.99383 0
M  V30 7498 H 716.602 1.68387 -2.79845 0
M  V30 7499 H 715.261 -0.268551 -3.65615 0
M  V30 7500 H 714.909 2.01736 -4.60773 0
M  V30 7501 H 714.609 0.754038 -5.82742 0
M  V30 7502 H 716.133 1.68555 -5.86874 0
M  V30 7503 H 717.547 -0.579875 -5.7036 0
M  V30 7504 H 715.944 -1.35828 -5.84526 0
M  V30 7505 H 717.014 -1.80003 -4.50252 0
M  V30 7506 N 718.357 1.51182 -0.445186 0
M  V30 7507 C 719.267 2.31692 0.368255 0
M  V30 7508 C 720.283 1.40942 1.02036 0
M  V30 7509 O 721.459 1.74011 1.01401 0
M  V30 7510 C 718.524 3.14903 1.45041 0
M  V30 7511 C 717.585 4.21442 0.817615 0
M  V30 7512 C 716.818 5.00677 1.8482 0
M  V30 7513 O 717.041 4.80644 3.07145 0
M  V30 7514 O 715.975 5.84559 1.43438 0
M  V30 7515 H 719.801 3.0232 -0.289219 0
M  V30 7516 H 717.386 1.47951 -0.207555 0
M  V30 7517 H 719.268 3.66612 2.07783 0
M  V30 7518 H 717.943 2.47031 2.09182 0
M  V30 7519 H 716.85 3.73791 0.151931 0
M  V30 7520 H 718.183 4.9171 0.219564 0
M  V30 7521 N 719.835 0.176821 1.56605 0
M  V30 7522 C 721.112 -0.513365 1.88743 0
M  V30 7523 C 721.492 -1.80929 1.08757 0
M  V30 7524 O 720.84 -2.27765 0.183127 0
M  V30 7525 C 721.05 -0.749925 3.40848 0
M  V30 7526 C 722.398 -1.07747 4.10701 0
M  V30 7527 O 723.422 -0.838277 3.46196 0
M  V30 7528 O 722.281 -1.52901 5.24675 0
M  V30 7529 H 719.375 -0.265296 0.783292 0
M  V30 7530 H 721.921 0.215669 1.68324 0
M  V30 7531 H 720.693 0.16599 3.90948 0
M  V30 7532 H 720.316 -1.53208 3.66897 0
M  V30 7533 N 721.313 -1.57302 -0.09688 0
M  V30 7534 C 722.26 -2.01933 -1.11766 0
M  V30 7535 C 723.23 -0.895329 -1.39904 0
M  V30 7536 O 724.415 -1.16119 -1.51397 0
M  V30 7537 C 721.555 -2.44726 -2.43317 0
M  V30 7538 C 720.668 -3.70639 -2.21925 0
M  V30 7539 C 719.803 -4.02318 -3.46862 0
M  V30 7540 C 718.842 -5.21346 -3.20725 0
M  V30 7541 N 717.979 -5.48787 -4.37924 0
M  V30 7542 H 722.819 -2.88919 -0.730075 0
M  V30 7543 H 720.356 -1.42901 -0.348962 0
M  V30 7544 H 722.314 -2.6758 -3.20088 0
M  V30 7545 H 720.944 -1.60753 -2.79926 0
M  V30 7546 H 719.996 -3.55271 -1.35965 0
M  V30 7547 H 721.308 -4.57557 -1.98603 0
M  V30 7548 H 720.462 -4.25939 -4.32042 0
M  V30 7549 H 719.201 -3.13918 -3.73238 0
M  V30 7550 H 718.206 -4.97547 -2.33938 0
M  V30 7551 H 719.431 -6.11343 -2.95697 0
M  V30 7552 H 717.377 -4.63346 -4.64378 0
M  V30 7553 H 717.294 -6.30073 -4.17785 0
M  V30 7554 H 718.562 -5.76943 -5.24173 0
M  V30 7555 N 722.791 0.367657 -1.53252 0
M  V30 7556 C 724.037 1.11216 -1.69584 0
M  V30 7557 C 724.37 1.89026 -0.445269 0
M  V30 7558 O 723.645 1.86342 0.557404 0
M  V30 7559 C 723.928 2.07308 -2.94441 0
M  V30 7560 C 723.781 1.3312 -4.2965 0
M  V30 7561 C 725.1 3.07459 -3.14892 0
M  V30 7562 H 722.219 0.40294 -0.617096 0
M  V30 7563 H 724.861 0.393201 -1.85887 0
M  V30 7564 H 723.011 2.68617 -2.80673 0
M  V30 7565 H 724.683 0.746111 -4.55226 0
M  V30 7566 H 722.926 0.633051 -4.29156 0
M  V30 7567 H 723.597 2.03443 -5.13142 0
M  V30 7568 H 726.073 2.56252 -3.27832 0
M  V30 7569 H 724.949 3.71919 -4.03693 0
M  V30 7570 H 725.21 3.77514 -2.30077 0
M  V30 7571 N 724.269 1.44576 0.627338 0
M  V30 7572 C 725.179 1.54232 1.76776 0
M  V30 7573 C 726.195 0.427782 1.6866 0
M  V30 7574 O 727.371 0.685671 1.89369 0
M  V30 7575 C 724.436 1.48738 3.13174 0
M  V30 7576 C 723.497 2.71074 3.32893 0
M  V30 7577 C 722.73 2.65832 4.62784 0
M  V30 7578 O 722.953 1.72048 5.43834 0
M  V30 7579 O 721.887 3.56742 4.84787 0
M  V30 7580 H 725.713 2.50586 1.71582 0
M  V30 7581 H 723.298 1.26865 0.789028 0
M  V30 7582 H 725.18 1.48211 3.94476 0
M  V30 7583 H 723.855 0.555292 3.18902 0
M  V30 7584 H 722.762 2.77168 2.51254 0
M  V30 7585 H 724.095 3.63342 3.32029 0
M  V30 7586 N 725.747 -0.868086 1.31537 0
M  V30 7587 C 726.677 -1.99131 1.21939 0
M  V30 7588 C 727.658 -1.69768 0.106166 0
M  V30 7589 O 728.843 -1.92006 0.291081 0
M  V30 7590 C 725.973 -3.34676 0.927879 0
M  V30 7591 C 724.927 -3.7835 2.00088 0
M  V30 7592 C 724.253 -5.11375 1.56203 0
M  V30 7593 C 725.553 -3.95256 3.41424 0
M  V30 7594 H 727.247 -2.07419 2.15911 0
M  V30 7595 H 724.793 -0.996569 1.03945 0
M  V30 7596 H 726.746 -4.12793 0.847327 0
M  V30 7597 H 725.47 -3.26565 -0.0475042 0
M  V30 7598 H 724.129 -3.02474 2.07135 0
M  V30 7599 H 723.777 -4.99709 0.57445 0
M  V30 7600 H 723.477 -5.41568 2.27985 0
M  V30 7601 H 725.001 -5.92001 1.49558 0
M  V30 7602 H 726.415 -4.63764 3.3704 0
M  V30 7603 H 724.812 -4.36849 4.1144 0
M  V30 7604 H 725.882 -2.98579 3.82072 0
M  V30 7605 N 727.225 -1.14528 -1.08264 0
M  V30 7606 C 728.453 -0.937964 -1.84418 0
M  V30 7607 C 728.868 0.51357 -1.81681 0
M  V30 7608 O 728.225 1.35591 -1.22153 0
M  V30 7609 C 728.276 -1.43272 -3.31897 0
M  V30 7610 O 727.997 -2.82738 -3.34651 0
M  V30 7611 C 729.498 -1.26555 -4.24851 0
M  V30 7612 H 726.718 -0.333704 -0.582136 0
M  V30 7613 H 729.262 -1.52076 -1.36723 0
M  V30 7614 H 727.417 -0.892653 -3.76975 0
M  V30 7615 H 727.831 -3.04971 -4.26724 0
M  V30 7616 H 729.305 -1.66031 -5.26439 0
M  V30 7617 H 729.782 -0.208589 -4.38704 0
M  V30 7618 H 730.388 -1.79423 -3.856 0
M  V30 7619 N 728.703 1.26451 -0.940633 0
M  V30 7620 C 730.114 1.75726 -0.630653 0
M  V30 7621 C 730.465 1.76631 0.854167 0
M  V30 7622 O 729.59 1.37807 1.66848 0
M  V30 7623 C 730.185 3.19114 -1.13805 0
M  V30 7624 C 728.744 3.66005 -0.878497 0
M  V30 7625 C 727.891 2.45505 -1.28928 0
M  V30 7626 H 730.842 1.12535 -1.119 0
M  V30 7627 H 730.863 3.77311 -0.491625 0
M  V30 7628 H 730.375 3.18424 -2.21874 0
M  V30 7629 H 728.476 3.72126 0.187833 0
M  V30 7630 H 728.589 4.54844 -1.50512 0
M  V30 7631 H 726.953 2.4467 -0.707713 0
M  V30 7632 H 727.736 2.47516 -2.37888 0
M  V30 7633 N 730.181 0.707592 1.40822 0
M  V30 7634 C 731.427 0.244031 2.01326 0
M  V30 7635 C 731.76 -1.15722 1.55955 0
M  V30 7636 O 731.035 -1.78347 0.776044 0
M  V30 7637 C 731.318 0.315128 3.58718 0
M  V30 7638 C 731.171 1.75419 4.14184 0
M  V30 7639 C 732.49 -0.318251 4.38948 0
M  V30 7640 H 729.609 0.0901471 0.731466 0
M  V30 7641 H 732.251 0.898584 1.67408 0
M  V30 7642 H 730.401 -0.242176 3.87744 0
M  V30 7643 H 732.073 2.36626 3.95987 0
M  V30 7644 H 730.316 2.28449 3.68773 0
M  V30 7645 H 730.987 1.75538 5.23345 0
M  V30 7646 H 733.463 0.156514 4.15806 0
M  V30 7647 H 732.339 -0.238019 5.48384 0
M  V30 7648 H 732.6 -1.40067 4.19325 0
M  V30 7649 N 731.66 -1.50943 0.453197 0
M  V30 7650 C 732.623 -2.26684 -0.338705 0
M  V30 7651 C 733.623 -1.30748 -0.936032 0
M  V30 7652 O 734.813 -1.54327 -0.808002 0
M  V30 7653 C 731.945 -3.07063 -1.48071 0
M  V30 7654 H 733.138 -2.98131 0.325289 0
M  V30 7655 H 730.691 -1.54926 0.206771 0
M  V30 7656 H 731.426 -2.4007 -2.18029 0
M  V30 7657 H 731.211 -3.77545 -1.0584 0
M  V30 7658 H 732.701 -3.64393 -2.0398 0
M  V30 7659 N 733.138 -0.185124 -1.56509 0
M  V30 7660 C 734.387 0.456421 -1.96468 0
M  V30 7661 C 734.7 1.63448 -1.07444 0
M  V30 7662 O 735.906 2.34316 -1.37143 0
M  V30 7663 C 734.362 0.863404 -3.4939 0
M  V30 7664 C 733.97 -0.289815 -4.47062 0
M  V30 7665 C 735.714 1.47259 -3.98139 0
M  V30 7666 C 733.621 0.137571 -5.9124 0
M  V30 7667 H 732.551 0.17429 -0.733579 0
M  V30 7668 H 735.202 -0.275554 -1.81419 0
M  V30 7669 H 733.584 1.65176 -3.59907 0
M  V30 7670 H 734.758 -1.06728 -4.4827 0
M  V30 7671 H 733.073 -0.809851 -4.08449 0
M  V30 7672 H 735.67 1.80463 -5.03326 0
M  V30 7673 H 736.013 2.3755 -3.41871 0
M  V30 7674 H 736.546 0.748405 -3.90696 0
M  V30 7675 H 733.285 -0.730907 -6.51412 0
M  V30 7676 H 732.805 0.8801 -5.93308 0
M  V30 7677 H 734.484 0.576771 -6.44424 0
M  V30 7678 N 734.616 1.57351 0.0885366 0
M  V30 7679 C 735.548 1.99221 1.13329 0
M  V30 7680 C 736.561 0.895705 1.35945 0
M  V30 7681 O 737.75 1.17376 1.34481 0
M  V30 7682 C 734.85 2.3016 2.48756 0
M  V30 7683 C 734.023 3.61444 2.46327 0
M  V30 7684 C 733.082 3.80244 3.63732 0
M  V30 7685 O 732.108 4.52024 3.45924 0
M  V30 7686 N 733.31 3.2132 4.8346 0
M  V30 7687 H 736.075 2.89456 0.776862 0
M  V30 7688 H 733.636 1.59505 0.277428 0
M  V30 7689 H 735.628 2.39925 3.25911 0
M  V30 7690 H 734.198 1.459 2.76464 0
M  V30 7691 H 733.418 3.62588 1.54673 0
M  V30 7692 H 734.706 4.47678 2.41789 0
M  V30 7693 H 734.104 2.63028 5.00832 0
M  V30 7694 H 732.661 3.3656 5.58185 0
M  V30 7695 N 736.094 -0.359525 1.53444 0
M  V30 7696 C 737.057 -1.42357 1.7963 0
M  V30 7697 C 738.057 -1.46319 0.666884 0
M  V30 7698 O 739.247 -1.46974 0.935113 0
M  V30 7699 C 736.379 -2.81425 1.92387 0
M  V30 7700 H 737.572 -1.20409 2.74666 0
M  V30 7701 H 735.125 -0.593007 1.44614 0
M  V30 7702 H 735.86 -3.08679 0.994384 0
M  V30 7703 H 735.645 -2.79947 2.74539 0
M  V30 7704 H 737.135 -3.5847 2.14218 0
M  V30 7705 N 737.572 -1.44907 -0.619662 0
M  V30 7706 C 738.82 -1.47999 -1.37625 0
M  V30 7707 C 739.141 -0.118295 -1.94641 0
M  V30 7708 O 738.411 0.85086 -1.76457 0
M  V30 7709 H 736.991 -0.544993 -0.510873 0
M  V30 7710 H 739.653 -1.80772 -0.728522 0
M  V30 7711 H 738.749 -2.21196 -2.20179 0
M  V30 7712 N 739.05 0.861098 -1.31996 0
M  V30 7713 C 740.466 1.14827 -1.10846 0
M  V30 7714 C 740.666 2.0117 0.11528 0
M  V30 7715 O 739.722 2.39423 0.802048 0
M  V30 7716 C 741.035 1.83183 -2.38462 0
M  V30 7717 C 742.583 1.95847 -2.44158 0
M  V30 7718 C 743.058 2.67617 -3.71679 0
M  V30 7719 N 744.549 2.75147 -3.72624 0
M  V30 7720 C 745.284 3.31314 -4.67994 0
M  V30 7721 N 744.78 3.88343 -5.73726 0
M  V30 7722 N 746.573 3.29356 -4.55501 0
M  V30 7723 H 738.724 0.285951 -2.10466 0
M  V30 7724 H 740.987 0.189303 -0.928907 0
M  V30 7725 H 740.693 1.27193 -3.27895 0
M  V30 7726 H 740.567 2.83393 -2.48935 0
M  V30 7727 H 742.954 2.50999 -1.55189 0
M  V30 7728 H 743.035 0.94653 -2.37644 0
M  V30 7729 H 742.679 2.13131 -4.61018 0
M  V30 7730 H 742.609 3.69237 -3.75462 0
M  V30 7731 H 745.1 2.34682 -2.96197 0
M  V30 7732 H 745.413 4.29338 -6.42564 0
M  V30 7733 H 743.758 3.86693 -5.77489 0
M  V30 7734 H 746.949 2.84047 -3.72069 0
M  V30 7735 H 747.122 3.7283 -5.30001 0
M  V30 7736 N 740.528 1.15101 1.07655 0
M  V30 7737 C 741.458 0.867864 2.16773 0
M  V30 7738 C 742.439 -0.180283 1.69142 0
M  V30 7739 O 743.624 -0.0353152 1.94168 0
M  V30 7740 C 740.754 0.35299 3.45501 0
M  V30 7741 C 739.708 1.33746 4.06566 0
M  V30 7742 C 739.034 0.681562 5.30338 0
M  V30 7743 C 740.334 2.7024 4.46954 0
M  V30 7744 H 742.028 1.78034 2.40716 0
M  V30 7745 H 739.574 0.857435 1.15689 0
M  V30 7746 H 741.527 0.142465 4.21159 0
M  V30 7747 H 740.251 -0.594945 3.21135 0
M  V30 7748 H 738.91 1.53429 3.32949 0
M  V30 7749 H 738.558 -0.272422 5.02262 0
M  V30 7750 H 738.258 1.33853 5.72151 0
M  V30 7751 H 739.782 0.48074 6.08705 0
M  V30 7752 H 741.196 2.5442 5.13754 0
M  V30 7753 H 739.593 3.32282 4.99709 0
M  V30 7754 H 740.663 3.26537 3.58471 0
M  V30 7755 N 742.006 -1.2595 0.947325 0
M  V30 7756 C 742.936 -2.28521 0.479604 0
M  V30 7757 C 743.917 -1.63469 -0.470293 0
M  V30 7758 O 745.102 -1.90627 -0.370824 0
M  V30 7759 C 742.232 -3.46397 -0.250289 0
M  V30 7760 C 741.186 -4.23578 0.613643 0
M  V30 7761 C 740.512 -5.34131 -0.246568 0
M  V30 7762 C 741.812 -4.86979 1.88809 0
M  V30 7763 H 743.506 -2.67895 1.33688 0
M  V30 7764 H 741.052 -1.28783 0.644274 0
M  V30 7765 H 743.005 -4.17269 -0.588576 0
M  V30 7766 H 741.729 -3.05993 -1.14175 0
M  V30 7767 H 740.388 -3.54478 0.93491 0
M  V30 7768 H 740.036 -4.89968 -1.13756 0
M  V30 7769 H 739.736 -5.86683 0.328123 0
M  V30 7770 H 741.26 -6.07839 -0.579986 0
M  V30 7771 H 742.674 -5.50034 1.61666 0
M  V30 7772 H 741.071 -5.49675 2.40784 0
M  V30 7773 H 742.141 -4.09575 2.5957 0
M  V30 7774 N 743.484 -0.715051 -1.40445 0
M  V30 7775 C 744.447 -0.0708726 -2.2909 0
M  V30 7776 C 745.447 0.687926 -1.45342 0
M  V30 7777 O 746.637 0.519908 -1.66261 0
M  V30 7778 C 743.769 0.909528 -3.28543 0
M  V30 7779 H 744.962 -0.851611 -2.87555 0
M  V30 7780 H 742.515 -0.479674 -1.48758 0
M  V30 7781 H 743.25 1.71734 -2.75096 0
M  V30 7782 H 743.035 0.368318 -3.90366 0
M  V30 7783 H 744.525 1.35744 -3.94922 0
M  V30 7784 N 744.962 1.50701 -0.461195 0
M  V30 7785 C 745.894 2.26124 0.374244 0
M  V30 7786 C 746.907 1.31064 0.965715 0
M  V30 7787 O 748.096 1.56647 0.855801 0
M  V30 7788 C 745.196 3.01996 1.5379 0
M  V30 7789 C 744.369 4.24336 1.06101 0
M  V30 7790 C 743.428 4.82585 2.09756 0
M  V30 7791 O 742.454 5.43775 1.68219 0
M  V30 7792 N 743.656 4.68712 3.42475 0
M  V30 7793 H 746.421 2.9846 -0.2723 0
M  V30 7794 H 743.982 1.59256 -0.291415 0
M  V30 7795 H 745.974 3.37846 2.22806 0
M  V30 7796 H 744.544 2.32521 2.08933 0
M  V30 7797 H 743.764 3.93707 0.197085 0
M  V30 7798 H 745.052 5.03678 0.720156 0
M  V30 7799 H 744.45 4.20026 3.78938 0
M  V30 7800 H 743.007 5.08858 4.07317 0
M  V30 7801 N 746.441 0.193421 1.56409 0
M  V30 7802 C 747.857 -0.162447 1.58771 0
M  V30 7803 C 748.057 -1.6116 1.20954 0
M  V30 7804 O 747.113 -2.3469 0.931497 0
M  V30 7805 C 748.426 0.138391 3.00381 0
M  V30 7806 C 749.974 0.0783649 3.12902 0
M  V30 7807 C 750.449 0.352491 4.56642 0
M  V30 7808 N 751.94 0.30105 4.62221 0
M  V30 7809 C 752.675 0.487028 5.71328 0
M  V30 7810 N 752.171 0.733265 6.88909 0
M  V30 7811 N 753.964 0.4214 5.60518 0
M  V30 7812 H 746.115 1.13909 1.79272 0
M  V30 7813 H 748.378 0.454528 0.83193 0
M  V30 7814 H 748.084 1.14312 3.32604 0
M  V30 7815 H 747.958 -0.559804 3.73023 0
M  V30 7816 H 750.345 -0.916963 2.80492 0
M  V30 7817 H 750.426 0.809611 2.4265 0
M  V30 7818 H 750.07 1.34513 4.89764 0
M  V30 7819 H 750 -0.399624 5.25081 0
M  V30 7820 H 752.491 0.117279 3.77718 0
M  V30 7821 H 752.804 0.86403 7.67955 0
M  V30 7822 H 751.149 0.770138 6.9072 0
M  V30 7823 H 754.34 0.229461 4.67537 0
M  V30 7824 H 754.513 0.569758 6.4549 0
M  V30 7825 N 747.919 -1.57396 -0.0801906 0
M  V30 7826 C 748.849 -2.06145 -1.09665 0
M  V30 7827 C 749.83 -0.953273 -1.40878 0
M  V30 7828 O 751.015 -1.22548 -1.50651 0
M  V30 7829 C 748.145 -2.49836 -2.41245 0
M  V30 7830 C 747.099 -3.64454 -2.24405 0
M  V30 7831 C 746.425 -3.94172 -3.61293 0
M  V30 7832 C 747.725 -4.94807 -1.67223 0
M  V30 7833 H 749.419 -2.91316 -0.691028 0
M  V30 7834 H 746.965 -1.40145 -0.330957 0
M  V30 7835 H 748.918 -2.82552 -3.12638 0
M  V30 7836 H 747.642 -1.61683 -2.83771 0
M  V30 7837 H 746.301 -3.32008 -1.55454 0
M  V30 7838 H 745.949 -3.03163 -4.01374 0
M  V30 7839 H 745.649 -4.71345 -3.50867 0
M  V30 7840 H 747.173 -4.29376 -4.3413 0
M  V30 7841 H 748.587 -5.25807 -2.28472 0
M  V30 7842 H 746.984 -5.76245 -1.67515 0
M  V30 7843 H 748.054 -4.80751 -0.632944 0
M  V30 7844 N 749.397 0.351382 -1.53633 0
M  V30 7845 C 750.627 1.11113 -1.74176 0
M  V30 7846 C 751.035 1.83084 -0.477154 0
M  V30 7847 O 750.378 1.74941 0.560483 0
M  V30 7848 C 750.44 2.17521 -2.86225 0
M  V30 7849 C 750.104 1.65193 -4.26099 0
M  V30 7850 C 751.101 1.10842 -5.07947 0
M  V30 7851 C 748.786 1.70277 -4.72558 0
M  V30 7852 C 750.78 0.622689 -6.34351 0
M  V30 7853 C 748.467 1.21316 -5.98937 0
M  V30 7854 C 749.465 0.674033 -6.79666 0
M  V30 7855 O 749.153 0.191696 -8.03671 0
M  V30 7856 H 748.885 0.33756 -0.585687 0
M  V30 7857 H 751.439 0.411786 -2.0123 0
M  V30 7858 H 749.669 2.90991 -2.54678 0
M  V30 7859 H 751.358 2.78999 -2.94812 0
M  V30 7860 H 752.124 1.06243 -4.7322 0
M  V30 7861 H 748.003 2.11181 -4.09785 0
M  V30 7862 H 751.547 0.201216 -6.9731 0
M  V30 7863 H 747.444 1.25613 -6.3316 0
M  V30 7864 H 748.212 0.309712 -8.17914 0
M  V30 7865 N 750.875 1.45233 0.611969 0
M  V30 7866 C 751.838 1.53189 1.70487 0
M  V30 7867 C 752.838 0.411839 1.55437 0
M  V30 7868 O 754.028 0.675164 1.60584 0
M  V30 7869 C 751.16 1.42422 3.09723 0
M  V30 7870 H 752.353 2.5056 1.64802 0
M  V30 7871 H 749.906 1.32609 0.827318 0
M  V30 7872 H 750.641 0.462185 3.2099 0
M  V30 7873 H 750.426 2.23658 3.22055 0
M  V30 7874 H 751.916 1.51012 3.89339 0
M  V30 7875 N 752.353 -0.854086 1.3245 0
M  V30 7876 C 753.601 -1.60513 1.228 0
M  V30 7877 C 753.922 -1.93865 -0.210073 0
M  V30 7878 O 753.192 -1.59673 -1.13496 0
M  V30 7879 H 751.772 -0.595099 0.451516 0
M  V30 7880 H 754.434 -1.0216 1.6598 0
M  V30 7881 H 753.53 -2.54182 1.81102 0
M  V30 7882 N 753.831 -1.1567 -1.07043 0
M  V30 7883 C 755.056 -0.957946 -1.83952 0
M  V30 7884 C 755.481 0.488807 -1.81638 0
M  V30 7885 O 754.839 1.34869 -1.21162 0
M  V30 7886 C 754.887 -1.48064 -3.288 0
M  V30 7887 O 753.991 -0.681921 -4.06723 0
M  V30 7888 H 753.332 -0.341453 -0.569479 0
M  V30 7889 H 755.862 -1.53728 -1.35015 0
M  V30 7890 H 755.872 -1.49484 -3.7963 0
M  V30 7891 H 754.547 -2.53388 -3.29799 0
M  V30 7892 H 753.124 -0.737612 -3.65532 0
M  V30 7893 N 755.309 1.25446 -0.953992 0
M  V30 7894 C 756.537 1.97215 -0.625595 0
M  V30 7895 C 756.952 1.70911 0.802168 0
M  V30 7896 O 756.309 0.984782 1.5365 0
M  V30 7897 C 756.36 3.50777 -0.873943 0
M  V30 7898 O 756.081 3.76173 -2.24556 0
M  V30 7899 C 757.582 4.39776 -0.557845 0
M  V30 7900 H 754.802 0.628652 -0.2346 0
M  V30 7901 H 757.346 1.59632 -1.27819 0
M  V30 7902 H 755.501 3.86474 -0.267765 0
M  V30 7903 H 755.915 4.70636 -2.31522 0
M  V30 7904 H 757.389 5.46431 -0.782157 0
M  V30 7905 H 757.866 4.36257 0.507573 0
M  V30 7906 H 758.472 4.09644 -1.14332 0
M  V30 7907 N 756.787 0.722489 1.40064 0
M  V30 7908 C 758.033 0.265371 2.01056 0
M  V30 7909 C 758.366 -1.14062 1.57174 0
M  V30 7910 O 757.641 -1.77514 0.794916 0
M  V30 7911 C 757.924 0.353157 3.58364 0
M  V30 7912 C 757.777 1.79802 4.123 0
M  V30 7913 C 759.096 -0.271677 4.39261 0
M  V30 7914 H 756.215 0.0979002 0.730469 0
M  V30 7915 H 758.857 0.916289 1.66446 0
M  V30 7916 H 757.007 -0.201037 3.87979 0
M  V30 7917 H 758.679 2.40813 3.93455 0
M  V30 7918 H 756.922 2.32348 3.66329 0
M  V30 7919 H 757.593 1.81079 5.21454 0
M  V30 7920 H 760.069 0.200607 4.15616 0
M  V30 7921 H 758.945 -0.179843 5.48605 0
M  V30 7922 H 759.206 -1.35611 4.20787 0
M  V30 7923 N 758.265 -1.50454 0.469181 0
M  V30 7924 C 759.212 -2.28486 -0.325982 0
M  V30 7925 C 760.182 -1.33455 -0.988893 0
M  V30 7926 O 761.367 -1.6239 -1.0017 0
M  V30 7927 C 758.507 -3.15288 -1.40313 0
M  V30 7928 C 757.62 -4.25348 -0.755183 0
M  V30 7929 C 756.755 -4.9941 -1.81006 0
M  V30 7930 C 755.794 -6.01348 -1.14226 0
M  V30 7931 N 754.931 -6.68695 -2.1399 0
M  V30 7932 H 759.771 -2.95987 0.345753 0
M  V30 7933 H 757.308 -1.45965 0.182355 0
M  V30 7934 H 759.266 -3.63964 -2.03927 0
M  V30 7935 H 757.896 -2.49837 -2.04405 0
M  V30 7936 H 756.948 -3.80399 -0.00651901 0
M  V30 7937 H 758.26 -4.98279 -0.227941 0
M  V30 7938 H 757.414 -5.51794 -2.52206 0
M  V30 7939 H 756.153 -4.26181 -2.3711 0
M  V30 7940 H 755.158 -5.48225 -0.415876 0
M  V30 7941 H 756.383 -6.76548 -0.588135 0
M  V30 7942 H 754.329 -5.98258 -2.69115 0
M  V30 7943 H 754.246 -7.37495 -1.66246 0
M  V30 7944 H 755.514 -7.25697 -2.84576 0
M  V30 7945 N 759.743 -0.201713 -1.56304 0
M  V30 7946 C 760.983 0.437395 -1.99665 0
M  V30 7947 C 761.347 1.58341 -1.08592 0
M  V30 7948 O 762.548 2.28716 -1.41217 0
M  V30 7949 C 760.819 0.879572 -3.46408 0
M  V30 7950 S 762.378 1.51558 -4.11795 0
M  V30 7951 H 759.196 0.139621 -0.697156 0
M  V30 7952 H 761.798 -0.306337 -1.93085 0
M  V30 7953 H 760.502 0.0355295 -4.10385 0
M  V30 7954 H 760.033 1.65661 -3.56819 0
M  V30 7955 H 762.048 2.80445 -4.09347 0
M  V30 7956 N 761.222 1.57436 0.0718424 0
M  V30 7957 C 762.499 1.78312 0.804006 0
M  V30 7958 C 762.879 0.789273 1.9579 0
M  V30 7959 O 762.227 -0.177605 2.27809 0
M  V30 7960 C 762.437 3.24798 1.277 0
M  V30 7961 C 763.785 3.88627 1.71039 0
M  V30 7962 O 764.809 3.28689 1.37266 0
M  V30 7963 O 763.668 4.94073 2.33567 0
M  V30 7964 H 760.762 0.73178 0.385262 0
M  V30 7965 H 763.308 1.69621 0.0519219 0
M  V30 7966 H 762.08 3.88688 0.45134 0
M  V30 7967 H 761.703 3.38213 2.0904 0
M  V30 7968 N 762.7 -0.34323 1.53817 0
M  V30 7969 C 763.93 -1.10188 1.74763 0
M  V30 7970 C 764.338 -1.82829 0.486856 0
M  V30 7971 O 763.681 -1.75236 -0.551198 0
M  V30 7972 C 763.743 -2.16 2.87375 0
M  V30 7973 C 763.407 -1.62931 4.26969 0
M  V30 7974 C 764.404 -1.08147 5.08528 0
M  V30 7975 C 762.089 -1.67769 4.73454 0
M  V30 7976 C 764.083 -0.589039 6.34672 0
M  V30 7977 C 761.77 -1.18138 5.99572 0
M  V30 7978 C 762.768 -0.637979 6.80014 0
M  V30 7979 O 762.456 -0.149073 8.03762 0
M  V30 7980 H 762.188 -0.33445 0.587469 0
M  V30 7981 H 764.742 -0.401109 2.01445 0
M  V30 7982 H 762.972 -2.89637 2.56218 0
M  V30 7983 H 764.661 -2.77432 2.96287 0
M  V30 7984 H 765.427 -1.03732 4.73777 0
M  V30 7985 H 761.306 -2.09004 4.10899 0
M  V30 7986 H 764.85 -0.164233 6.97407 0
M  V30 7987 H 760.747 -1.22254 6.33817 0
M  V30 7988 H 761.515 -0.266332 8.18067 0
M  V30 7989 N 764.178 -1.45556 -0.604258 0
M  V30 7990 C 765.088 -1.57025 -1.74299 0
M  V30 7991 C 766.104 -0.45456 -1.67958 0
M  V30 7992 O 767.28 -0.715711 -1.88254 0
M  V30 7993 C 764.345 -1.53702 -3.10768 0
M  V30 7994 C 763.406 -2.76335 -3.28538 0
M  V30 7995 C 762.639 -2.73161 -4.58496 0
M  V30 7996 O 762.862 -1.80678 -5.41028 0
M  V30 7997 O 761.796 -3.64409 -4.79051 0
M  V30 7998 H 765.622 -2.53284 -1.67573 0
M  V30 7999 H 763.207 -1.28104 -0.768745 0
M  V30 8000 H 765.089 -1.54468 -3.92068 0
M  V30 8001 H 763.764 -0.605957 -3.17978 0
M  V30 8002 H 762.671 -2.8113 -2.46813 0
M  V30 8003 H 764.004 -3.68578 -3.26207 0
M  V30 8004 N 765.656 0.84705 -1.32902 0
M  V30 8005 C 766.604 1.97765 -1.22441 0
M  V30 8006 C 767.598 1.68919 -0.127546 0
M  V30 8007 O 768.804 1.77633 -0.290973 0
M  V30 8008 H 765.179 0.649072 -0.379748 0
M  V30 8009 H 767.15 2.03713 -2.18044 0
M  V30 8010 C 765.899 3.33834 -0.972125 0
M  V30 8011 H 765.222 3.56564 -1.80837 0
M  V30 8012 H 766.662 4.13467 -0.939209 0
M  V30 8013 C 765.121 3.35328 0.325059 0
M  V30 8014 O 765.651 3.78887 1.33445 0
M  V30 8015 N 763.857 2.88488 0.349718 0
M  V30 8016 H 763.404 2.53234 -0.472236 0
M  V30 8017 H 763.362 2.8987 1.21748 0
M  V30 8018 N 767.134 1.16236 1.06428 0
M  V30 8019 C 768.38 0.944431 1.79467 0
M  V30 8020 C 768.713 -0.526558 1.86925 0
M  V30 8021 O 767.988 -1.39061 1.35986 0
M  V30 8022 C 768.271 1.57092 3.24028 0
M  V30 8023 C 768.124 3.11315 3.24658 0
M  V30 8024 C 769.443 1.26447 4.21544 0
M  V30 8025 H 766.562 0.344521 0.651517 0
M  V30 8026 H 769.204 1.43545 1.24478 0
M  V30 8027 H 767.354 1.15337 3.70985 0
M  V30 8028 H 769.026 3.62042 2.85873 0
M  V30 8029 H 767.269 3.44716 2.6335 0
M  V30 8030 H 767.94 3.50269 4.26633 0
M  V30 8031 H 770.416 1.62581 3.83023 0
M  V30 8032 H 769.292 1.72885 5.20963 0
M  V30 8033 H 769.553 0.183068 4.41721 0
M  V30 8034 N 768.612 -1.24939 0.960631 0
M  V30 8035 C 770.023 -1.74701 0.658529 0
M  V30 8036 C 770.374 -1.77967 -0.825959 0
M  V30 8037 O 769.499 -1.40444 -1.64634 0
M  V30 8038 C 770.094 -3.17263 1.18867 0
M  V30 8039 C 768.653 -3.64561 0.936614 0
M  V30 8040 C 767.8 -2.43423 1.32817 0
M  V30 8041 H 770.751 -1.10741 1.13676 0
M  V30 8042 H 770.772 -3.76481 0.551589 0
M  V30 8043 H 770.284 -3.14854 2.26912 0
M  V30 8044 H 768.385 -3.72378 -0.128608 0
M  V30 8045 H 768.498 -4.52392 1.57729 0
M  V30 8046 H 766.862 -2.43513 0.746548 0
M  V30 8047 H 767.645 -2.437 2.41796 0
M  V30 8048 N 770.09 -0.729906 -1.39679 0
M  V30 8049 C 771.318 -0.285709 -2.04918 0
M  V30 8050 C 771.733 1.07765 -1.55023 0
M  V30 8051 O 771.09 1.67999 -0.712923 0
M  V30 8052 C 771.141 -0.272793 -3.60469 0
M  V30 8053 O 770.862 -1.58233 -4.08527 0
M  V30 8054 C 772.363 0.188199 -4.429 0
M  V30 8055 H 769.583 -0.125758 -0.65911 0
M  V30 8056 H 772.127 -0.992129 -1.78821 0
M  V30 8057 H 770.282 0.384699 -3.85485 0
M  V30 8058 H 770.696 -1.49245 -5.02818 0
M  V30 8059 H 772.17 0.14608 -5.51807 0
M  V30 8060 H 772.647 1.2326 -4.21549 0
M  V30 8061 H 773.253 -0.439541 -4.23023 0
M  V30 8062 N 771.568 1.50203 -0.477153 0
M  V30 8063 C 772.796 2.0677 0.0732489 0
M  V30 8064 C 773.211 1.34033 1.32968 0
M  V30 8065 O 772.568 0.411412 1.77802 0
M  V30 8066 C 772.619 3.59751 0.35518 0
M  V30 8067 O 772.34 4.29747 -0.851425 0
M  V30 8068 C 773.841 4.3296 0.951877 0
M  V30 8069 H 771.061 0.670929 -0.00978923 0
M  V30 8070 H 773.605 1.93293 -0.667676 0
M  V30 8071 H 771.76 3.7301 1.04605 0
M  V30 8072 H 772.174 5.2106 -0.599708 0
M  V30 8073 H 773.648 5.40952 1.09888 0
M  V30 8074 H 774.125 3.93856 1.94356 0
M  V30 8075 H 774.731 4.24246 0.299208 0
M  V30 8076 N 773.046 0.209999 1.56195 0
M  V30 8077 C 774.292 -0.425442 1.98287 0
M  V30 8078 C 774.625 -1.60232 1.09724 0
M  V30 8079 O 773.9 -1.93902 0.152414 0
M  V30 8080 C 774.183 -0.871189 3.49403 0
M  V30 8081 C 774.036 0.308527 4.48741 0
M  V30 8082 C 775.355 -1.73146 4.04609 0
M  V30 8083 H 772.474 -0.153169 0.720908 0
M  V30 8084 H 775.116 0.303916 1.87554 0
M  V30 8085 H 773.266 -1.49266 3.58681 0
M  V30 8086 H 774.938 0.946487 4.51486 0
M  V30 8087 H 773.181 0.957878 4.23092 0
M  V30 8088 H 773.852 -0.0461143 5.51981 0
M  V30 8089 H 776.328 -1.2072 3.98203 0
M  V30 8090 H 775.204 -2.01228 5.10684 0
M  V30 8091 H 775.465 -2.69083 3.5078 0
M  V30 8092 N 774.524 -1.57472 -0.0634922 0
M  V30 8093 C 775.771 -1.87654 -0.761066 0
M  V30 8094 C 776.099 -0.802847 -1.77157 0
M  V30 8095 O 775.354 0.200244 -1.94673 0
M  V30 8096 C 775.653 -3.24521 -1.49736 0
M  V30 8097 C 775.319 -4.46532 -0.626065 0
M  V30 8098 C 773.981 -4.7965 -0.385978 0
M  V30 8099 C 776.333 -5.21195 -0.0224001 0
M  V30 8100 C 773.661 -5.84837 0.467118 0
M  V30 8101 C 776.013 -6.27286 0.818198 0
M  V30 8102 C 774.677 -6.58899 1.06808 0
M  V30 8103 H 773.947 -0.686675 -0.278494 0
M  V30 8104 H 776.594 -1.91488 -0.0216348 0
M  V30 8105 H 774.899 -3.16516 -2.30921 0
M  V30 8106 H 776.596 -3.45111 -2.04204 0
M  V30 8107 H 773.186 -4.20618 -0.823325 0
M  V30 8108 H 777.37 -4.95917 -0.194985 0
M  V30 8109 H 772.626 -6.07725 0.669375 0
M  V30 8110 H 776.8 -6.84298 1.29265 0
M  V30 8111 H 774.427 -7.40233 1.73088 0
M  V30 8112 N 776.003 0.335068 -1.53997 0
M  V30 8113 C 777.231 1.09418 -1.756 0
M  V30 8114 C 777.646 1.82083 -0.499138 0
M  V30 8115 O 777.003 1.74646 0.529631 0
M  V30 8116 C 777.054 2.10115 -2.94166 0
M  V30 8117 O 776.775 1.40404 -4.14992 0
M  V30 8118 C 778.276 2.98336 -3.27888 0
M  V30 8119 H 775.496 0.32595 -0.586513 0
M  V30 8120 H 778.04 0.384693 -2.00849 0
M  V30 8121 H 776.195 2.76616 -2.71224 0
M  V30 8122 H 776.609 2.07743 -4.81605 0
M  V30 8123 H 778.083 3.6491 -4.1418 0
M  V30 8124 H 778.56 3.64814 -2.44556 0
M  V30 8125 H 779.166 2.37412 -3.52868 0
M  V30 8126 N 777.481 1.45874 0.596531 0
M  V30 8127 C 778.892 1.44798 1.17857 0
M  V30 8128 C 779.243 0.181443 1.95359 0
M  V30 8129 O 778.368 -0.716336 2.042 0
M  V30 8130 C 778.963 2.62333 2.14398 0
M  V30 8131 C 777.522 2.64342 2.67955 0
M  V30 8132 C 776.669 2.37244 1.43564 0
M  V30 8133 H 779.62 1.53954 0.385222 0
M  V30 8134 H 779.641 2.37063 2.97626 0
M  V30 8135 H 779.153 3.54499 1.57963 0
M  V30 8136 H 777.254 1.76213 3.28298 0
M  V30 8137 H 777.367 3.63897 3.11634 0
M  V30 8138 H 775.731 1.87022 1.72901 0
M  V30 8139 H 776.514 3.31568 0.889805 0
M  V30 8140 N 778.959 -0.83999 1.33349 0
M  V30 8141 C 779.889 -1.965 1.26135 0
M  V30 8142 C 780.87 -1.69505 0.142152 0
M  V30 8143 O 782.055 -1.91346 0.331743 0
M  V30 8144 C 779.185 -3.32632 0.99866 0
M  V30 8145 C 778.139 -3.74021 2.08068 0
M  V30 8146 C 777.465 -5.07947 1.67014 0
M  V30 8147 C 778.765 -3.87925 3.49731 0
M  V30 8148 H 780.459 -2.02793 2.20262 0
M  V30 8149 H 778.005 -0.974297 1.06035 0
M  V30 8150 H 779.958 -4.10903 0.934696 0
M  V30 8151 H 778.682 -3.26593 0.0217759 0
M  V30 8152 H 777.341 -2.98012 2.13505 0
M  V30 8153 H 776.989 -4.98378 0.680316 0
M  V30 8154 H 776.689 -5.36611 2.39422 0
M  V30 8155 H 778.213 -5.88695 1.62082 0
M  V30 8156 H 779.627 -4.5651 3.46802 0
M  V30 8157 H 778.024 -4.28023 4.20614 0
M  V30 8158 H 779.094 -2.90407 3.88319 0
M  V30 8159 N 780.437 -1.16799 -1.0581 0
M  V30 8160 C 781.347 -0.893492 -2.16919 0
M  V30 8161 C 782.363 0.136061 -1.73467 0
M  V30 8162 O 783.539 -0.0417348 -2.01357 0
M  V30 8163 C 780.604 -0.403763 -3.44341 0
M  V30 8164 C 779.665 -1.49914 -4.02274 0
M  V30 8165 C 778.898 -1.03269 -5.23614 0
M  V30 8166 O 779.121 0.115647 -5.70283 0
M  V30 8167 O 778.055 -1.8231 -5.73626 0
M  V30 8168 H 781.881 -1.82274 -2.42919 0
M  V30 8169 H 779.466 -0.948361 -1.1544 0
M  V30 8170 H 781.348 -0.137874 -4.21174 0
M  V30 8171 H 780.023 0.497413 -3.19855 0
M  V30 8172 H 778.93 -1.81883 -3.26909 0
M  V30 8173 H 780.263 -2.3758 -4.31064 0
M  V30 8174 N 781.915 1.24427 -0.967243 0
M  V30 8175 C 783.145 1.96256 -0.64554 0
M  V30 8176 C 783.553 1.71959 0.789098 0
M  V30 8177 O 782.896 0.999913 1.54102 0
M  V30 8178 C 782.958 3.49553 -0.839798 0
M  V30 8179 C 782.622 3.97548 -2.25399 0
M  V30 8180 C 783.619 4.07257 -3.23168 0
M  V30 8181 C 781.304 4.30884 -2.58156 0
M  V30 8182 C 783.298 4.49635 -4.51782 0
M  V30 8183 C 780.985 4.72946 -3.86996 0
M  V30 8184 C 781.983 4.82286 -4.83621 0
M  V30 8185 O 781.671 5.23409 -6.10162 0
M  V30 8186 H 781.403 0.632002 -0.239895 0
M  V30 8187 H 783.957 1.59224 -1.29757 0
M  V30 8188 H 782.187 3.86479 -0.130603 0
M  V30 8189 H 783.876 4.02591 -0.517249 0
M  V30 8190 H 784.642 3.8172 -2.9919 0
M  V30 8191 H 780.521 4.22833 -1.83666 0
M  V30 8192 H 784.065 4.5684 -5.27203 0
M  V30 8193 H 779.962 4.9793 -4.10775 0
M  V30 8194 H 780.73 5.4156 -6.13722 0
M  V30 8195 N 783.393 0.737304 1.3929 0
M  V30 8196 C 784.641 0.285691 2.00071 0
M  V30 8197 C 784.962 -1.13169 1.58801 0
M  V30 8198 O 784.232 -1.77104 0.837308 0
M  V30 8199 H 782.812 0.102638 0.739915 0
M  V30 8200 H 785.474 0.947775 1.70303 0
M  V30 8201 H 784.57 0.335906 3.10287 0
M  V30 8202 N 784.871 -1.49948 0.485112 0
M  V30 8203 C 785.834 -2.27351 -0.290546 0
M  V30 8204 C 786.834 -1.32704 -0.908087 0
M  V30 8205 O 788.024 -1.56007 -0.775085 0
M  V30 8206 C 785.156 -3.10135 -1.41524 0
M  V30 8207 H 786.349 -2.97374 0.388454 0
M  V30 8208 H 783.902 -1.54453 0.239586 0
M  V30 8209 H 784.637 -2.44641 -2.12888 0
M  V30 8210 H 784.422 -3.79705 -0.978074 0
M  V30 8211 H 785.912 -3.68638 -1.96204 0
M  V30 8212 N 786.349 -0.21828 -1.56081 0
M  V30 8213 C 787.589 0.416193 -2.00118 0
M  V30 8214 C 787.953 1.5718 -1.10265 0
M  V30 8215 O 789.154 2.27206 -1.43635 0
M  V30 8216 C 787.425 0.842781 -3.47321 0
M  V30 8217 S 788.984 1.47182 -4.1338 0
M  V30 8218 H 785.802 0.132219 -0.698598 0
M  V30 8219 H 788.404 -0.326799 -1.92749 0
M  V30 8220 H 787.108 -0.00799925 -4.10399 0
M  V30 8221 H 786.639 1.61867 -3.58556 0
M  V30 8222 H 788.654 2.76087 -4.12299 0
M  V30 8223 N 787.827 1.57504 0.0551401 0
M  V30 8224 C 789.075 1.87684 0.74962 0
M  V30 8225 C 789.396 0.812547 1.77264 0
M  V30 8226 O 788.666 -0.15694 1.9527 0
M  V30 8227 H 787.246 0.6926 0.279846 0
M  V30 8228 H 789.908 1.94881 0.0272745 0
M  V30 8229 H 789.004 2.85734 1.25548 0
M  V30 8230 N 789.305 -0.326896 1.54172 0
M  V30 8231 C 790.235 -1.40741 1.86317 0
M  V30 8232 C 791.216 -1.54125 0.719684 0
M  V30 8233 O 792.401 -1.6806 0.973117 0
M  V30 8234 C 789.531 -2.77557 2.08757 0
M  V30 8235 C 788.485 -2.78965 3.24596 0
M  V30 8236 C 787.811 -4.18824 3.32401 0
M  V30 8237 C 789.111 -2.4301 4.62324 0
M  V30 8238 H 790.805 -1.14088 2.76811 0
M  V30 8239 H 788.351 -0.547389 1.3319 0
M  V30 8240 H 790.304 -3.53209 2.29829 0
M  V30 8241 H 789.028 -3.0568 1.15009 0
M  V30 8242 H 787.687 -2.05767 3.03406 0
M  V30 8243 H 787.335 -4.44083 2.36218 0
M  V30 8244 H 787.035 -4.20673 4.10253 0
M  V30 8245 H 788.559 -4.96294 3.55703 0
M  V30 8246 H 789.973 -3.08375 4.83299 0
M  V30 8247 H 788.37 -2.56116 5.42701 0
M  V30 8248 H 789.44 -1.38165 4.64799 0
M  V30 8249 N 790.784 -1.46188 -0.588786 0
M  V30 8250 C 792.009 -1.5498 -1.37826 0
M  V30 8251 C 792.434 -0.189498 -1.87143 0
M  V30 8252 O 791.792 0.829293 -1.61222 0
M  V30 8253 C 791.84 -2.55369 -2.54596 0
M  V30 8254 O 790.944 -2.08452 -3.55839 0
M  V30 8255 H 790.285 -0.521741 -0.41071 0
M  V30 8256 H 792.815 -1.91708 -0.714779 0
M  V30 8257 H 792.825 -2.74782 -3.01594 0
M  V30 8258 H 791.5 -3.54155 -2.18052 0
M  V30 8259 H 790.077 -1.98999 -3.15363 0
M  V30 8260 N 792.262 0.832906 -1.33792 0
M  V30 8261 C 793.172 1.97514 -1.26592 0
M  V30 8262 C 794.188 1.73114 -0.175391 0
M  V30 8263 O 795.364 1.97387 -0.400062 0
M  V30 8264 C 792.429 3.31625 -1.01121 0
M  V30 8265 C 791.49 3.69101 -2.19233 0
M  V30 8266 C 790.723 4.96813 -1.94968 0
M  V30 8267 O 790.946 5.63208 -0.902955 0
M  V30 8268 O 789.88 5.31932 -2.8166 0
M  V30 8269 H 793.706 2.0653 -2.22664 0
M  V30 8270 H 791.291 0.966826 -1.13898 0
M  V30 8271 H 793.173 4.11968 -0.886571 0
M  V30 8272 H 791.848 3.23599 -0.080822 0
M  V30 8273 H 790.755 2.89243 -2.37253 0
M  V30 8274 H 792.088 3.818 -3.10628 0
M  V30 8275 N 793.74 1.17359 1.05189 0
M  V30 8276 C 794.65 0.904984 2.16442 0
M  V30 8277 C 795.666 -0.12686 1.73537 0
M  V30 8278 O 796.842 0.0524127 2.01332 0
M  V30 8279 C 793.907 0.422019 3.44122 0
M  V30 8280 C 792.968 1.52045 4.01473 0
M  V30 8281 C 792.201 1.06044 5.23059 0
M  V30 8282 O 792.424 -0.0854023 5.70336 0
M  V30 8283 O 791.358 1.85349 5.72651 0
M  V30 8284 H 795.184 1.8356 2.41949 0
M  V30 8285 H 792.769 0.95447 1.14936 0
M  V30 8286 H 794.651 0.160208 4.21095 0
M  V30 8287 H 793.326 -0.480444 3.20115 0
M  V30 8288 H 792.233 1.83615 3.25939 0
M  V30 8289 H 793.566 2.39863 4.29798 0
M  V30 8290 N 795.218 -1.23913 0.973828 0
M  V30 8291 C 796.165 -2.25132 0.508366 0
M  V30 8292 C 797.135 -1.59908 -0.449307 0
M  V30 8293 O 798.32 -1.87405 -0.358313 0
M  V30 8294 C 795.46 -3.4458 -0.189422 0
M  V30 8295 C 794.573 -4.24381 0.807738 0
M  V30 8296 C 793.708 -5.31131 0.0854315 0
M  V30 8297 C 792.747 -6.02635 1.07225 0
M  V30 8298 N 791.884 -7.01073 0.379535 0
M  V30 8299 H 796.724 -2.64313 1.37632 0
M  V30 8300 H 794.261 -1.29924 0.689802 0
M  V30 8301 H 796.219 -4.12706 -0.610733 0
M  V30 8302 H 794.849 -3.06218 -1.02129 0
M  V30 8303 H 793.901 -3.55735 1.34747 0
M  V30 8304 H 795.213 -4.73778 1.55998 0
M  V30 8305 H 794.367 -6.05422 -0.393572 0
M  V30 8306 H 793.106 -4.82658 -0.699461 0
M  V30 8307 H 792.111 -5.27143 1.56207 0
M  V30 8308 H 793.336 -6.53197 1.85769 0
M  V30 8309 H 791.282 -6.54862 -0.386269 0
M  V30 8310 H 791.199 -7.48382 1.07054 0
M  V30 8311 H 792.467 -7.79462 -0.0772984 0
M  V30 8312 N 796.696 -0.74468 -1.38897 0
M  V30 8313 C 797.659 -0.11945 -2.28889 0
M  V30 8314 C 798.659 0.656942 -1.46768 0
M  V30 8315 O 799.849 0.484525 -1.67326 0
M  V30 8316 C 796.981 0.839635 -3.30398 0
M  V30 8317 H 798.174 -0.912414 -2.85683 0
M  V30 8318 H 795.727 -0.511119 -1.47707 0
M  V30 8319 H 796.462 1.6586 -2.78677 0
M  V30 8320 H 796.247 0.285432 -3.9106 0
M  V30 8321 H 797.737 1.27337 -3.97712 0
M  V30 8322 N 798.174 1.49689 -0.493057 0
M  V30 8323 C 799.42 2.02727 0.0543518 0
M  V30 8324 C 799.753 1.37264 1.37376 0
M  V30 8325 O 799.028 0.505644 1.87812 0
M  V30 8326 C 799.311 3.59456 0.215226 0
M  V30 8327 C 799.164 4.35459 -1.12675 0
M  V30 8328 C 800.483 4.29511 0.959586 0
M  V30 8329 H 797.602 0.736773 0.0182786 0
M  V30 8330 H 800.244 1.78792 -0.642924 0
M  V30 8331 H 798.394 3.79981 0.809122 0
M  V30 8332 H 800.066 4.2645 -1.75891 0
M  V30 8333 H 798.309 3.9833 -1.71801 0
M  V30 8334 H 798.98 5.43454 -0.967578 0
M  V30 8335 H 801.456 4.13594 0.455977 0
M  V30 8336 H 800.332 5.38939 1.04098 0
M  V30 8337 H 800.593 3.94202 2.00144 0
M  V30 8338 N 799.652 0.226554 1.55963 0
M  V30 8339 C 800.562 -0.692725 2.24139 0
M  V30 8340 C 801.578 -1.20971 1.25068 0
M  V30 8341 O 802.754 -1.25027 1.57893 0
M  V30 8342 C 799.819 -1.88183 2.91184 0
M  V30 8343 C 798.88 -1.40633 4.05612 0
M  V30 8344 C 798.113 -2.53875 4.6945 0
M  V30 8345 O 798.336 -3.72129 4.32292 0
M  V30 8346 O 797.27 -2.24792 5.58348 0
M  V30 8347 H 801.096 -0.141921 3.03368 0
M  V30 8348 H 798.681 -0.0041049 1.49399 0
M  V30 8349 H 800.563 -2.57617 3.33484 0
M  V30 8350 H 799.238 -2.42064 2.14911 0
M  V30 8351 H 798.145 -0.67986 3.67871 0
M  V30 8352 H 799.478 -0.913838 4.83642 0
M  V30 8353 N 801.13 -1.57531 -0.0467866 0
M  V30 8354 C 802.077 -2.05387 -1.05285 0
M  V30 8355 C 803.047 -0.939385 -1.36985 0
M  V30 8356 O 804.232 -1.20877 -1.47626 0
M  V30 8357 C 801.372 -2.52343 -2.35408 0
M  V30 8358 C 800.485 -3.77512 -2.10022 0
M  V30 8359 C 799.62 -4.1315 -3.33887 0
M  V30 8360 C 798.659 -5.31286 -3.03976 0
M  V30 8361 N 797.796 -5.62441 -4.20243 0
M  V30 8362 H 802.636 -2.91095 -0.637788 0
M  V30 8363 H 800.173 -1.43939 -0.303322 0
M  V30 8364 H 802.131 -2.77628 -3.11413 0
M  V30 8365 H 800.761 -1.69577 -2.7467 0
M  V30 8366 H 799.813 -3.59417 -1.24594 0
M  V30 8367 H 801.125 -4.63644 -1.83945 0
M  V30 8368 H 800.279 -4.39469 -4.18273 0
M  V30 8369 H 799.018 -3.25634 -3.63062 0
M  V30 8370 H 798.023 -5.04738 -2.17991 0
M  V30 8371 H 799.248 -6.20441 -2.76098 0
M  V30 8372 H 797.194 -4.77885 -4.49402 0
M  V30 8373 H 797.111 -6.43046 -3.97528 0
M  V30 8374 H 798.379 -5.93327 -5.05553 0
M  V30 8375 N 802.608 0.318715 -1.54344 0
M  V30 8376 C 803.855 1.05608 -1.72781 0
M  V30 8377 C 804.183 1.87854 -0.504083 0
M  V30 8378 O 803.438 1.88826 0.51414 0
M  V30 8379 C 803.737 2.00514 -2.95853 0
M  V30 8380 C 803.403 1.34385 -4.30409 0
M  V30 8381 C 802.065 1.16081 -4.66989 0
M  V30 8382 C 804.417 0.869627 -5.13894 0
M  V30 8383 C 801.745 0.490114 -5.84649 0
M  V30 8384 C 804.097 0.212735 -6.32242 0
M  V30 8385 C 802.761 0.0175882 -6.67498 0
M  V30 8386 H 802.031 0.386449 -0.632249 0
M  V30 8387 H 804.678 0.332729 -1.88587 0
M  V30 8388 H 802.983 2.79317 -2.74753 0
M  V30 8389 H 804.68 2.57605 -3.07312 0
M  V30 8390 H 801.27 1.49634 -4.01631 0
M  V30 8391 H 805.454 0.998809 -4.86146 0
M  V30 8392 H 800.71 0.327767 -6.10521 0
M  V30 8393 H 804.884 -0.162699 -6.9621 0
M  V30 8394 H 802.511 -0.504137 -7.58527 0
M  V30 8395 N 804.086 1.46499 0.581025 0
M  V30 8396 C 805.334 1.51596 1.33653 0
M  V30 8397 C 805.655 0.169859 1.94259 0
M  V30 8398 O 804.925 -0.803776 1.78651 0
M  V30 8399 H 803.505 0.558346 0.496244 0
M  V30 8400 H 806.167 1.8264 0.680338 0
M  V30 8401 H 805.263 2.26956 2.14237 0
M  V30 8402 N 805.565 -0.825799 1.34232 0
M  V30 8403 C 806.475 -1.9684 1.27638 0
M  V30 8404 C 807.491 -1.73018 0.184569 0
M  V30 8405 O 808.667 -1.97172 0.410525 0
M  V30 8406 C 805.732 -3.31084 1.02879 0
M  V30 8407 C 804.793 -3.67933 2.21188 0
M  V30 8408 C 804.026 -4.95772 1.976 0
M  V30 8409 O 804.249 -5.62721 0.93281 0
M  V30 8410 O 803.183 -5.30431 2.84477 0
M  V30 8411 H 807.009 -2.05346 2.23756 0
M  V30 8412 H 804.594 -0.960772 1.1441 0
M  V30 8413 H 806.476 -4.11492 0.908406 0
M  V30 8414 H 805.151 -3.23552 0.0979821 0
M  V30 8415 H 804.058 -2.87981 2.38784 0
M  V30 8416 H 805.391 -3.80147 3.12648 0
M  V30 8417 N 807.043 -1.17915 -1.04565 0
M  V30 8418 C 807.953 -0.916449 -2.15959 0
M  V30 8419 C 808.969 0.117655 -1.73602 0
M  V30 8420 O 810.145 -0.063089 -2.01301 0
M  V30 8421 C 807.21 -0.440262 -3.43893 0
M  V30 8422 C 806.271 -1.54172 -4.00661 0
M  V30 8423 C 805.504 -1.08816 -5.22489 0
M  V30 8424 O 805.727 0.0551547 -5.70373 0
M  V30 8425 O 804.661 -1.88383 -5.7166 0
M  V30 8426 H 808.487 -1.8484 -2.40972 0
M  V30 8427 H 806.072 -0.960552 -1.14428 0
M  V30 8428 H 807.954 -0.182537 -4.21004 0
M  V30 8429 H 806.629 0.46346 -3.20365 0
M  V30 8430 H 805.536 -1.85341 -3.24961 0
M  V30 8431 H 806.869 -2.42139 -4.2852 0
M  V30 8432 N 808.521 1.23394 -0.980386 0
M  V30 8433 C 809.469 2.26872 -0.513018 0
M  V30 8434 C 810.463 1.63853 0.429948 0
M  V30 8435 O 811.669 1.77417 0.303842 0
M  V30 8436 H 808.044 0.737398 -0.147473 0
M  V30 8437 H 810.015 2.63654 -1.39746 0
M  V30 8438 C 808.764 3.47289 0.168962 0
M  V30 8439 H 808.087 3.96033 -0.547546 0
M  V30 8440 H 809.527 4.21502 0.459616 0
M  V30 8441 C 807.986 3.06425 1.40019 0
M  V30 8442 O 808.516 3.14708 2.49643 0
M  V30 8443 N 806.722 2.61339 1.27084 0
M  V30 8444 H 806.269 2.54799 0.378872 0
M  V30 8445 H 806.227 2.34364 2.09573 0
M  V30 8446 N 809.999 0.752036 1.385 0
M  V30 8447 C 811.248 0.304294 1.99391 0
M  V30 8448 C 811.561 -1.11982 1.60373 0
M  V30 8449 O 812.767 -1.66795 2.14223 0
M  V30 8450 C 811.223 0.493101 3.56506 0
M  V30 8451 C 810.831 1.9262 4.04477 0
M  V30 8452 C 812.575 0.107994 4.24363 0
M  V30 8453 C 810.482 2.06365 5.54227 0
M  V30 8454 H 809.412 0.110024 0.745929 0
M  V30 8455 H 812.063 0.928355 1.58284 0
M  V30 8456 H 810.445 -0.20012 3.95494 0
M  V30 8457 H 811.619 2.65276 3.76783 0
M  V30 8458 H 809.934 2.26608 3.49339 0
M  V30 8459 H 812.531 0.189474 5.34364 0
M  V30 8460 H 812.874 -0.939165 4.05568 0
M  V30 8461 H 813.407 0.753011 3.90608 0
M  V30 8462 H 810.146 3.0933 5.77923 0
M  V30 8463 H 809.666 1.38167 5.83669 0
M  V30 8464 H 811.345 1.85286 6.19902 0
M  V30 8465 N 811.477 -1.49425 0.500989 0
M  V30 8466 C 812.387 -2.32899 -0.282011 0
M  V30 8467 C 813.403 -1.44632 -0.967346 0
M  V30 8468 O 814.579 -1.77654 -0.94873 0
M  V30 8469 C 811.644 -3.20069 -1.33253 0
M  V30 8470 C 810.705 -4.24186 -0.660636 0
M  V30 8471 C 809.938 -5.07191 -1.6611 0
M  V30 8472 O 810.161 -4.91712 -2.89094 0
M  V30 8473 O 809.095 -5.8948 -1.21643 0
M  V30 8474 H 812.921 -3.01038 0.401224 0
M  V30 8475 H 810.506 -1.47079 0.262323 0
M  V30 8476 H 812.388 -3.74071 -1.94033 0
M  V30 8477 H 811.063 -2.54625 -1.9987 0
M  V30 8478 H 809.97 -3.74098 -0.0130959 0
M  V30 8479 H 811.303 -4.92186 -0.0369179 0
M  V30 8480 N 812.955 -0.234822 -1.55841 0
M  V30 8481 C 814.201 0.393843 -1.98939 0
M  V30 8482 C 814.534 1.58466 -1.1226 0
M  V30 8483 O 813.809 1.93635 -0.183242 0
M  V30 8484 C 814.092 0.815492 -3.50745 0
M  V30 8485 C 813.945 -0.379878 -4.48193 0
M  V30 8486 C 815.264 1.66687 -4.07312 0
M  V30 8487 H 812.383 0.141681 -0.723253 0
M  V30 8488 H 815.025 -0.333716 -1.87046 0
M  V30 8489 H 813.175 1.43541 -3.6101 0
M  V30 8490 H 814.847 -1.0182 -4.49923 0
M  V30 8491 H 813.09 -1.02507 -4.21515 0
M  V30 8492 H 813.761 -0.0417069 -5.51984 0
M  V30 8493 H 816.237 1.14369 -4.00074 0
M  V30 8494 H 815.113 1.93078 -5.13821 0
M  V30 8495 H 815.374 2.63468 -3.55017 0
M  V30 8496 N 814.433 1.57553 0.0384317 0
M  V30 8497 C 815.663 1.92813 0.742064 0
M  V30 8498 C 816.071 0.832157 1.69917 0
M  V30 8499 O 815.414 -0.200917 1.82598 0
M  V30 8500 C 815.476 3.23806 1.56172 0
M  V30 8501 C 815.14 4.50459 0.770407 0
M  V30 8502 C 816.137 5.19846 0.0748006 0
M  V30 8503 C 813.822 4.97001 0.727714 0
M  V30 8504 C 815.816 6.34047 -0.652902 0
M  V30 8505 C 813.503 6.111 -0.00373992 0
M  V30 8506 C 814.501 6.79477 -0.692816 0
M  V30 8507 O 814.189 7.91395 -1.41241 0
M  V30 8508 H 813.921 0.641174 0.214179 0
M  V30 8509 H 816.475 2.054 0.00285095 0
M  V30 8510 H 814.705 3.0752 2.34453 0
M  V30 8511 H 816.394 3.44463 2.14709 0
M  V30 8512 H 817.16 4.84899 0.098875 0
M  V30 8513 H 813.039 4.43629 1.25355 0
M  V30 8514 H 816.583 6.87353 -1.1913 0
M  V30 8515 H 812.48 6.45493 -0.0297703 0
M  V30 8516 H 813.248 8.07702 -1.32512 0
M  V30 8517 N 815.911 -0.310526 1.54511 0
M  V30 8518 C 816.861 -1.38405 1.81185 0
M  V30 8519 C 817.845 -1.46355 0.668499 0
M  V30 8520 O 819.037 -1.50668 0.928873 0
M  V30 8521 C 816.166 -2.75059 2.0542 0
M  V30 8522 C 815.252 -2.7137 3.25913 0
M  V30 8523 N 815.643 -2.37298 4.4668 0
M  V30 8524 C 813.941 -3.02484 3.27749 0
M  V30 8525 C 814.642 -2.42669 5.28665 0
M  V30 8526 N 813.618 -2.79639 4.66158 0
M  V30 8527 H 817.42 -1.11012 2.72128 0
M  V30 8528 H 814.934 -0.519068 1.53881 0
M  V30 8529 H 816.931 -3.52451 2.22674 0
M  V30 8530 H 815.591 -3.03372 1.15739 0
M  V30 8531 H 816.602 -2.09917 4.73451 0
M  V30 8532 H 813.279 -3.35754 2.48144 0
M  V30 8533 H 814.669 -2.19206 6.35136 0
M  V30 8534 N 817.389 -1.46805 -0.573248 0
M  V30 8535 C 818.614 -1.56433 -1.36175 0
M  V30 8536 C 819.039 -0.209336 -1.86932 0
M  V30 8537 O 818.397 0.812146 -1.62092 0
M  V30 8538 C 818.445 -2.58055 -2.51873 0
M  V30 8539 O 817.549 -2.12214 -3.53609 0
M  V30 8540 H 816.89 -0.526068 -0.405153 0
M  V30 8541 H 819.42 -1.92456 -0.694405 0
M  V30 8542 H 819.43 -2.77966 -2.98662 0
M  V30 8543 H 818.105 -3.56448 -2.14284 0
M  V30 8544 H 816.682 -2.02333 -3.13234 0
M  V30 8545 N 818.867 0.818669 -1.34668 0
M  V30 8546 C 820.097 1.60441 -1.30162 0
M  V30 8547 C 820.505 1.88783 0.125579 0
M  V30 8548 O 819.848 1.48281 1.08437 0
M  V30 8549 C 819.91 2.96794 -2.02864 0
M  V30 8550 C 819.574 2.91327 -3.52105 0
M  V30 8551 C 820.571 2.65611 -4.4693 0
M  V30 8552 C 818.256 3.10825 -3.9458 0
M  V30 8553 C 820.25 2.59452 -5.82206 0
M  V30 8554 C 817.937 3.0429 -5.29954 0
M  V30 8555 C 818.935 2.78637 -6.23579 0
M  V30 8556 O 818.623 2.72042 -7.56471 0
M  V30 8557 H 818.355 0.505278 -0.449077 0
M  V30 8558 H 820.909 1.02632 -1.77921 0
M  V30 8559 H 819.139 3.56538 -1.49725 0
M  V30 8560 H 820.828 3.57837 -1.91592 0
M  V30 8561 H 821.594 2.50278 -4.15434 0
M  V30 8562 H 817.473 3.29807 -3.221 0
M  V30 8563 H 821.017 2.39349 -6.55254 0
M  V30 8564 H 816.914 3.19177 -5.61067 0
M  V30 8565 H 817.682 2.87738 -7.66257 0
M  V30 8566 N 820.346 1.18468 1.03938 0
M  V30 8567 C 821.593 0.980833 1.77161 0
M  V30 8568 C 821.921 -0.489425 1.88242 0
M  V30 8569 O 821.176 -1.37961 1.388 0
M  V30 8570 C 821.475 1.58229 3.20466 0
M  V30 8571 C 821.141 3.07889 3.29416 0
M  V30 8572 C 819.803 3.48737 3.31566 0
M  V30 8573 C 822.155 4.03903 3.29411 0
M  V30 8574 C 819.483 4.84171 3.31355 0
M  V30 8575 C 821.835 5.39253 3.3074 0
M  V30 8576 C 820.499 5.79547 3.31182 0
M  V30 8577 H 819.769 0.358912 0.648277 0
M  V30 8578 H 822.416 1.47552 1.22069 0
M  V30 8579 H 820.721 1.00964 3.78568 0
M  V30 8580 H 822.418 1.39998 3.75768 0
M  V30 8581 H 819.008 2.75335 3.28464 0
M  V30 8582 H 823.192 3.73395 3.2694 0
M  V30 8583 H 818.448 5.14685 3.30015 0
M  V30 8584 H 822.622 6.13417 3.29686 0
M  V30 8585 H 820.249 6.84466 3.30772 0
M  V30 8586 N 821.824 -1.22873 0.986916 0
M  V30 8587 C 823.07 -1.92047 0.670042 0
M  V30 8588 C 823.425 -1.75497 -0.788587 0
M  V30 8589 O 822.718 -1.10934 -1.56218 0
M  V30 8590 C 822.912 -3.43014 1.00379 0
M  V30 8591 C 822.741 -3.74251 2.49332 0
M  V30 8592 C 821.511 -3.94589 3.15638 0
M  V30 8593 C 823.709 -3.79208 3.47428 0
M  V30 8594 N 821.691 -4.13086 4.54129 0
M  V30 8595 C 823.062 -4.02775 4.71352 0
M  V30 8596 C 825.117 -3.62029 3.41818 0
M  V30 8597 C 823.82 -4.10946 5.90352 0
M  V30 8598 C 825.846 -3.71457 4.60189 0
M  V30 8599 C 825.208 -3.95468 5.82911 0
M  V30 8600 H 821.307 -0.723668 0.29636 0
M  V30 8601 H 823.891 -1.47946 1.26571 0
M  V30 8602 H 822.062 -3.85936 0.436762 0
M  V30 8603 H 823.794 -3.99551 0.643522 0
M  V30 8604 H 820.549 -3.91762 2.66119 0
M  V30 8605 H 820.973 -4.26275 5.25945 0
M  V30 8606 H 825.615 -3.42457 2.47958 0
M  V30 8607 H 823.333 -4.29324 6.84621 0
M  V30 8608 H 826.919 -3.59511 4.57431 0
M  V30 8609 H 825.799 -4.02584 6.72975 0
M  V30 8610 N 823.302 -0.75937 -1.38099 0
M  V30 8611 C 824.713 -0.385078 -1.82686 0
M  V30 8612 C 825.064 1.0871 -1.6333 0
M  V30 8613 O 824.189 1.84084 -1.13762 0
M  V30 8614 C 824.784 -0.692161 -3.31654 0
M  V30 8615 C 823.343 -0.371077 -3.74566 0
M  V30 8616 C 822.49 -0.942375 -2.60796 0
M  V30 8617 H 825.441 -0.955048 -1.26746 0
M  V30 8618 H 825.462 0.0276001 -3.8049 0
M  V30 8619 H 824.974 -1.76369 -3.4571 0
M  V30 8620 H 823.075 0.693637 -3.66087 0
M  V30 8621 H 823.188 -0.870672 -4.71122 0
M  V30 8622 H 821.552 -0.367383 -2.52036 0
M  V30 8623 H 822.335 -2.01905 -2.77649 0
M  V30 8624 N 824.78 1.49157 -0.508906 0
M  V30 8625 C 825.71 2.32109 0.254469 0
M  V30 8626 C 826.691 1.40754 0.955111 0
M  V30 8627 O 827.876 1.69658 0.944983 0
M  V30 8628 C 825.006 3.21458 1.3146 0
M  V30 8629 C 823.96 4.2167 0.733368 0
M  V30 8630 C 823.286 5.00009 1.8946 0
M  V30 8631 C 824.586 5.21544 -0.280875 0
M  V30 8632 H 826.28 2.9618 -0.43795 0
M  V30 8633 H 823.826 1.4243 -0.212062 0
M  V30 8634 H 825.779 3.78305 1.85643 0
M  V30 8635 H 824.503 2.55346 2.03632 0
M  V30 8636 H 823.162 3.65979 0.213231 0
M  V30 8637 H 822.81 4.30338 2.60419 0
M  V30 8638 H 822.51 5.67821 1.51173 0
M  V30 8639 H 824.034 5.59702 2.44061 0
M  V30 8640 H 825.448 5.73039 0.173095 0
M  V30 8641 H 823.845 5.97291 -0.580006 0
M  V30 8642 H 824.915 4.69969 -1.19404 0
M  V30 8643 N 826.258 0.243083 1.55714 0
M  V30 8644 C 827.168 -0.668913 2.24862 0
M  V30 8645 C 828.184 -1.19638 1.26344 0
M  V30 8646 O 829.36 -1.23345 1.5921 0
M  V30 8647 C 826.425 -1.85084 2.93163 0
M  V30 8648 C 825.486 -1.36323 4.07081 0
M  V30 8649 C 824.719 -2.48882 4.72116 0
M  V30 8650 O 824.942 -3.67523 4.36214 0
M  V30 8651 O 823.876 -2.18857 5.60701 0
M  V30 8652 H 827.702 -0.109737 3.03502 0
M  V30 8653 H 825.287 0.0117411 1.49395 0
M  V30 8654 H 827.169 -2.54065 3.36197 0
M  V30 8655 H 825.844 -2.39771 2.17466 0
M  V30 8656 H 824.751 -0.640804 3.68571 0
M  V30 8657 H 826.084 -0.86249 4.84584 0
M  V30 8658 N 827.736 -1.57571 -0.0300757 0
M  V30 8659 C 828.982 -1.90355 -0.716687 0
M  V30 8660 C 829.337 -0.841568 -1.73018 0
M  V30 8661 O 828.63 0.149847 -1.91013 0
M  V30 8662 C 828.824 -3.27624 -1.42818 0
M  V30 8663 C 828.653 -4.47076 -0.485111 0
M  V30 8664 C 827.423 -5.05188 -0.106533 0
M  V30 8665 C 829.621 -5.13758 0.236059 0
M  V30 8666 N 827.603 -6.08155 0.837899 0
M  V30 8667 C 828.974 -6.1128 1.03619 0
M  V30 8668 C 831.029 -4.96977 0.30311 0
M  V30 8669 C 829.732 -6.93829 1.89721 0
M  V30 8670 C 831.758 -5.80086 1.15125 0
M  V30 8671 C 831.12 -6.77178 1.9393 0
M  V30 8672 H 827.219 -0.745417 -0.236384 0
M  V30 8673 H 829.803 -1.94686 0.0231985 0
M  V30 8674 H 827.974 -3.24224 -2.13854 0
M  V30 8675 H 829.706 -3.47927 -2.0671 0
M  V30 8676 H 826.461 -4.71277 -0.468498 0
M  V30 8677 H 826.885 -6.64311 1.30459 0
M  V30 8678 H 831.527 -4.21791 -0.291858 0
M  V30 8679 H 829.245 -7.6836 2.50298 0
M  V30 8680 H 832.831 -5.6915 1.20665 0
M  V30 8681 H 831.711 -7.4037 2.58499 0
M  V30 8682 N 829.214 0.302327 -1.54673 0
M  V30 8683 C 830.442 1.05669 -1.77881 0
M  V30 8684 C 830.857 1.80983 -0.537648 0
M  V30 8685 O 830.214 1.7573 0.492467 0
M  V30 8686 C 830.265 2.03828 -2.98557 0
M  V30 8687 O 829.986 1.3157 -4.17877 0
M  V30 8688 C 831.487 2.91314 -3.34143 0
M  V30 8689 H 828.707 0.313436 -0.593295 0
M  V30 8690 H 831.251 0.342003 -2.0162 0
M  V30 8691 H 829.406 2.70801 -2.7703 0
M  V30 8692 H 829.82 1.97481 -4.85903 0
M  V30 8693 H 831.294 3.56042 -4.21827 0
M  V30 8694 H 831.771 3.59544 -2.52239 0
M  V30 8695 H 832.377 2.29874 -3.57824 0
M  V30 8696 N 830.692 1.47107 0.565454 0
M  V30 8697 C 831.941 1.5257 1.31929 0
M  V30 8698 C 832.254 0.189092 1.94684 0
M  V30 8699 O 833.46 0.121657 2.71227 0
M  V30 8700 C 831.916 2.68914 2.39193 0
M  V30 8701 C 831.524 4.09069 1.82665 0
M  V30 8702 C 833.268 2.83663 3.1581 0
M  V30 8703 C 831.175 5.16726 2.87661 0
M  V30 8704 H 830.105 0.567869 0.496025 0
M  V30 8705 H 832.756 1.73361 0.60151 0
M  V30 8706 H 831.138 2.41486 3.13848 0
M  V30 8707 H 832.312 4.46364 1.14438 0
M  V30 8708 H 830.627 3.99135 1.1866 0
M  V30 8709 H 833.224 3.61261 3.94201 0
M  V30 8710 H 833.567 1.91804 3.69482 0
M  V30 8711 H 834.1 3.10821 2.48265 0
M  V30 8712 H 830.839 6.10433 2.38854 0
M  V30 8713 H 830.359 4.83957 3.54324 0
M  V30 8714 H 832.038 5.43319 3.51303 0
M  V30 8715 N 832.17 -0.811516 1.35101 0
M  V30 8716 C 833.581 -1.38515 1.25182 0
M  V30 8717 C 833.932 -1.95846 -0.117883 0
M  V30 8718 O 833.057 -1.90925 -1.01866 0
M  V30 8719 C 833.652 -2.51813 2.26662 0
M  V30 8720 C 832.211 -3.05052 2.20499 0
M  V30 8721 C 831.358 -1.77987 2.12641 0
M  V30 8722 H 834.309 -0.614959 1.46301 0
M  V30 8723 H 834.33 -3.30228 1.89023 0
M  V30 8724 H 833.842 -2.10057 3.2634 0
M  V30 8725 H 831.943 -3.51285 1.24215 0
M  V30 8726 H 832.056 -3.63368 3.1225 0
M  V30 8727 H 830.42 -1.99342 1.5854 0
M  V30 8728 H 831.203 -1.38389 3.14171 0
M  V30 8729 N 833.648 -1.19017 -1.03309 0
M  V30 8730 C 834.873 -1.01598 -1.80811 0
M  V30 8731 C 835.298 0.430773 -1.83101 0
M  V30 8732 O 834.656 1.30946 -1.25391 0
M  V30 8733 C 834.704 -1.5845 -3.23923 0
M  V30 8734 O 833.808 -0.810972 -4.04348 0
M  V30 8735 H 833.149 -0.359398 -0.558327 0
M  V30 8736 H 835.679 -1.57945 -1.30055 0
M  V30 8737 H 835.689 -1.61486 -3.74682 0
M  V30 8738 H 834.364 -2.63752 -3.21571 0
M  V30 8739 H 832.941 -0.85353 -3.63 0
M  V30 8740 N 835.127 1.22348 -0.993418 0
M  V30 8741 C 836.543 1.43222 -0.704238 0
M  V30 8742 C 836.743 1.88009 0.724909 0
M  V30 8743 O 835.799 2.03429 1.49575 0
M  V30 8744 C 837.112 2.47328 -1.71025 0
M  V30 8745 C 838.66 2.61126 -1.72576 0
M  V30 8746 C 839.135 3.68453 -2.72041 0
M  V30 8747 N 840.626 3.75911 -2.70639 0
M  V30 8748 C 841.361 4.58551 -3.44266 0
M  V30 8749 N 840.857 5.45179 -4.27495 0
M  V30 8750 N 842.65 4.52866 -3.32969 0
M  V30 8751 H 834.801 0.915832 -1.91641 0
M  V30 8752 H 837.064 0.464283 -0.826526 0
M  V30 8753 H 836.77 2.21366 -2.73295 0
M  V30 8754 H 836.644 3.45939 -1.50353 0
M  V30 8755 H 839.031 2.86431 -0.710037 0
M  V30 8756 H 839.112 1.62787 -1.97317 0
M  V30 8757 H 838.756 3.43895 -3.73763 0
M  V30 8758 H 838.686 4.66362 -2.4457 0
M  V30 8759 H 841.177 3.14014 -2.10247 0
M  V30 8760 H 841.49 6.0526 -4.80499 0
M  V30 8761 H 839.835 5.44759 -4.31582 0
M  V30 8762 H 843.026 3.84215 -2.67389 0
M  V30 8763 H 843.199 5.17039 -3.90608 0
M  V30 8764 N 836.605 0.766683 1.37694 0
M  V30 8765 C 837.882 0.25366 1.93948 0
M  V30 8766 C 838.262 -1.25041 1.70082 0
M  V30 8767 O 837.61 -2.03115 1.04674 0
M  V30 8768 C 837.82 0.621549 3.43421 0
M  V30 8769 C 839.168 0.588504 4.20502 0
M  V30 8770 O 840.192 0.560632 3.5176 0
M  V30 8771 O 839.051 0.61107 5.43073 0
M  V30 8772 H 836.145 0.0570586 0.825029 0
M  V30 8773 H 838.691 0.847693 1.47011 0
M  V30 8774 H 837.463 1.65979 3.54354 0
M  V30 8775 H 837.086 0.000197027 3.976 0
M  V30 8776 N 838.083 -1.48885 0.516809 0
M  V30 8777 C 839.031 -2.31066 -0.266656 0
M  V30 8778 C 840.025 -1.40393 -0.94795 0
M  V30 8779 O 841.231 -1.57366 -0.873836 0
M  V30 8780 H 837.606 -0.744654 -0.104858 0
M  V30 8781 H 839.577 -2.95045 0.446236 0
M  V30 8782 C 838.326 -3.22131 -1.3087 0
M  V30 8783 H 837.649 -3.91839 -0.793865 0
M  V30 8784 H 839.089 -3.82544 -1.82856 0
M  V30 8785 C 837.548 -2.42825 -2.33533 0
M  V30 8786 O 838.078 -2.14364 -3.39722 0
M  V30 8787 N 836.284 -2.04559 -2.06407 0
M  V30 8788 H 835.831 -2.27905 -1.20071 0
M  V30 8789 H 835.789 -1.51807 -2.75322 0
M  V30 8790 N 839.561 -0.251338 -1.55583 0
M  V30 8791 C 840.509 0.662534 -2.22965 0
M  V30 8792 C 841.503 1.17662 -1.21869 0
M  V30 8793 O 842.709 1.133 -1.39868 0
M  V30 8794 H 839.084 0.232151 -0.715269 0
M  V30 8795 H 841.055 0.0711252 -2.98315 0
M  V30 8796 C 839.804 1.84646 -2.94621 0
M  V30 8797 H 839.127 1.46003 -3.72187 0
M  V30 8798 H 840.567 2.46303 -3.45124 0
M  V30 8799 C 839.026 2.72034 -1.98744 0
M  V30 8800 O 839.556 3.71695 -1.52335 0
M  V30 8801 N 837.762 2.38695 -1.6575 0
M  V30 8802 H 837.309 1.57702 -2.03685 0
M  V30 8803 H 837.267 2.9744 -1.01867 0
M  V30 8804 N 841.039 1.57585 0.0217189 0
M  V30 8805 C 841.986 2.07036 1.02004 0
M  V30 8806 C 842.956 0.96106 1.35473 0
M  V30 8807 O 844.141 1.23211 1.45684 0
M  V30 8808 C 841.281 2.56056 2.31364 0
M  V30 8809 C 840.394 3.80805 2.03989 0
M  V30 8810 C 839.529 4.18409 3.27272 0
M  V30 8811 C 838.568 5.36055 2.95486 0
M  V30 8812 N 837.705 5.69056 4.11242 0
M  V30 8813 H 842.545 2.92073 0.591396 0
M  V30 8814 H 840.082 1.44403 0.280384 0
M  V30 8815 H 842.04 2.82548 3.06957 0
M  V30 8816 H 840.67 1.73925 2.71937 0
M  V30 8817 H 839.722 3.61354 1.1886 0
M  V30 8818 H 841.034 4.66512 1.76546 0
M  V30 8819 H 840.188 4.46068 4.11228 0
M  V30 8820 H 838.927 3.31369 3.57835 0
M  V30 8821 H 837.932 5.08142 2.09933 0
M  V30 8822 H 839.157 6.24755 2.66193 0
M  V30 8823 H 837.103 4.84974 4.41742 0
M  V30 8824 H 837.02 6.49288 3.87247 0
M  V30 8825 H 838.288 6.01295 4.96049 0
M  V30 8826 N 842.517 -0.29412 1.54831 0
M  V30 8827 C 843.757 -1.03635 1.76179 0
M  V30 8828 C 844.121 -1.84251 0.539953 0
M  V30 8829 O 845.322 -2.61282 0.631295 0
M  V30 8830 C 843.593 -1.91275 3.01909 0
M  V30 8831 S 845.152 -2.7205 3.44288 0
M  V30 8832 H 841.97 -0.349403 0.619224 0
M  V30 8833 H 844.572 -0.309006 1.93042 0
M  V30 8834 H 843.276 -1.30937 3.88952 0
M  V30 8835 H 842.807 -2.68365 2.87652 0
M  V30 8836 H 844.822 -3.93791 3.01899 0
M  V30 8837 N 843.995 -1.47404 -0.557645 0
M  V30 8838 C 845.225 -1.57393 -1.33832 0
M  V30 8839 C 845.633 -0.222978 -1.87881 0
M  V30 8840 O 844.976 0.793854 -1.65661 0
M  V30 8841 C 845.038 -2.53882 -2.54528 0
M  V30 8842 C 844.702 -3.99585 -2.21767 0
M  V30 8843 C 845.699 -4.88082 -1.79087 0
M  V30 8844 C 843.384 -4.44917 -2.3314 0
M  V30 8845 C 845.378 -6.1993 -1.48209 0
M  V30 8846 C 843.065 -5.76793 -2.01874 0
M  V30 8847 C 844.063 -6.64121 -1.59476 0
M  V30 8848 O 843.751 -7.93546 -1.28607 0
M  V30 8849 H 843.483 -0.534172 -0.41429 0
M  V30 8850 H 846.037 -1.93733 -0.682404 0
M  V30 8851 H 844.267 -2.12609 -3.23009 0
M  V30 8852 H 845.956 -2.54003 -3.16603 0
M  V30 8853 H 846.722 -4.54307 -1.69794 0
M  V30 8854 H 842.601 -3.77152 -2.65099 0
M  V30 8855 H 846.145 -6.88049 -1.15043 0
M  V30 8856 H 842.042 -6.1011 -2.10799 0
M  V30 8857 H 842.81 -8.06046 -1.42241 0
M  V30 8858 N 845.473 0.80434 -1.35529 0
M  V30 8859 C 846.436 1.89788 -1.28503 0
M  V30 8860 C 847.436 1.59601 -0.195983 0
M  V30 8861 O 848.626 1.68292 -0.449827 0
M  V30 8862 C 845.758 3.26255 -0.98847 0
M  V30 8863 H 846.951 1.97436 -2.25741 0
M  V30 8864 H 844.504 1.00046 -1.20086 0
M  V30 8865 H 845.239 3.24294 -0.0200541 0
M  V30 8866 H 845.024 3.49551 -1.77641 0
M  V30 8867 H 846.514 4.06298 -0.964975 0
M  V30 8868 N 846.951 1.19563 1.02676 0
M  V30 8869 C 847.898 0.935291 2.11 0
M  V30 8870 C 848.868 -0.130685 1.65585 0
M  V30 8871 O 850.053 0.0119062 1.90796 0
M  V30 8872 C 847.193 0.482384 3.41712 0
M  V30 8873 C 846.306 1.61537 4.00662 0
M  V30 8874 C 845.441 1.11378 5.19392 0
M  V30 8875 C 844.48 2.22052 5.70403 0
M  V30 8876 N 843.617 1.73185 6.80405 0
M  V30 8877 H 848.457 1.86275 2.32606 0
M  V30 8878 H 845.994 0.928656 1.14081 0
M  V30 8879 H 847.952 0.20118 4.16715 0
M  V30 8880 H 846.582 -0.408086 3.2021 0
M  V30 8881 H 845.634 2.01173 3.22852 0
M  V30 8882 H 846.946 2.44912 4.34534 0
M  V30 8883 H 846.1 0.787935 6.01562 0
M  V30 8884 H 844.839 0.249789 4.8706 0
M  V30 8885 H 843.844 2.55465 4.86845 0
M  V30 8886 H 845.069 3.08911 6.04774 0
M  V30 8887 H 843.015 0.890973 6.49921 0
M  V30 8888 H 842.932 2.50148 7.13416 0
M  V30 8889 H 844.2 1.4357 7.66164 0
M  V30 8890 N 848.429 -1.21819 0.999893 0
M  V30 8891 C 849.678 -1.90066 0.675108 0
M  V30 8892 C 849.991 -1.78624 -0.79705 0
M  V30 8893 O 851.197 -2.41851 -1.23371 0
M  V30 8894 C 849.653 -3.40795 1.15702 0
M  V30 8895 C 849.261 -3.60859 2.6549 0
M  V30 8896 C 851.005 -4.147 0.906889 0
M  V30 8897 C 848.912 -5.05324 3.07248 0
M  V30 8898 H 847.842 -0.711763 0.248815 0
M  V30 8899 H 850.493 -1.3792 1.21038 0
M  V30 8900 H 848.875 -3.92164 0.549832 0
M  V30 8901 H 850.049 -3.19951 3.31614 0
M  V30 8902 H 848.364 -3.00298 2.88461 0
M  V30 8903 H 850.961 -5.21187 1.1945 0
M  V30 8904 H 851.304 -4.16004 -0.156923 0
M  V30 8905 H 851.837 -3.69379 1.47662 0
M  V30 8906 H 848.576 -5.09164 4.12834 0
M  V30 8907 H 848.096 -5.47108 2.45832 0
M  V30 8908 H 849.775 -5.73797 2.98941 0
M  V30 8909 N 849.908 -0.773975 -1.37286 0
M  V30 8910 C 851.157 -0.335977 -1.98882 0
M  V30 8911 C 851.47 1.09416 -1.62134 0
M  V30 8912 O 852.676 1.63366 -2.1685 0
M  V30 8913 C 851.132 -0.549756 -3.55676 0
M  V30 8914 C 850.74 -1.9903 -4.01361 0
M  V30 8915 C 852.484 -0.175493 -4.24137 0
M  V30 8916 C 850.391 -2.15156 -5.50874 0
M  V30 8917 H 849.321 -0.121877 -0.744085 0
M  V30 8918 H 851.972 -0.953419 -1.56787 0
M  V30 8919 H 850.354 0.137175 -3.95762 0
M  V30 8920 H 851.528 -2.71237 -3.72515 0
M  V30 8921 H 849.843 -2.32137 -3.4569 0
M  V30 8922 H 852.44 -0.274463 -5.33995 0
M  V30 8923 H 852.783 0.874524 -4.07011 0
M  V30 8924 H 853.316 -0.815058 -3.89361 0
M  V30 8925 H 850.055 -3.18485 -5.72929 0
M  V30 8926 H 849.575 -1.47435 -5.81397 0
M  V30 8927 H 851.254 -1.95124 -6.16876 0
M  V30 8928 N 851.386 1.48609 -0.524698 0
M  V30 8929 C 852.626 2.04398 0.00938367 0
M  V30 8930 C 852.99 1.39355 1.32077 0
M  V30 8931 O 854.191 1.86 1.94055 0
M  V30 8932 C 852.462 3.57148 0.134318 0
M  V30 8933 S 854.021 4.34409 0.619227 0
M  V30 8934 H 850.839 0.710936 -0.00953362 0
M  V30 8935 H 853.441 1.82382 -0.704058 0
M  V30 8936 H 852.145 4.02022 -0.825027 0
M  V30 8937 H 851.676 3.83607 0.872296 0
M  V30 8938 H 853.691 4.59017 1.88462 0
M  V30 8939 N 852.864 0.259585 1.55447 0
M  V30 8940 C 853.812 -0.6507 2.23313 0
M  V30 8941 C 854.806 -1.17014 1.22491 0
M  V30 8942 O 856.012 -1.12557 1.40467 0
M  V30 8943 H 852.387 -0.228354 0.71649 0
M  V30 8944 H 854.358 -0.0553039 2.98349 0
M  V30 8945 C 853.107 -1.83081 2.95596 0
M  V30 8946 H 852.43 -1.44027 3.72956 0
M  V30 8947 H 853.87 -2.44469 3.46426 0
M  V30 8948 C 852.329 -2.70976 2.00184 0
M  V30 8949 O 852.859 -3.70882 1.54304 0
M  V30 8950 N 851.065 -2.37813 1.67014 0
M  V30 8951 H 850.612 -1.5662 2.04519 0
M  V30 8952 H 850.57 -2.96896 1.03443 0
M  V30 8953 N 854.342 -1.57594 -0.0133615 0
M  V30 8954 C 855.57 -1.94251 -0.712328 0
M  V30 8955 C 855.985 -0.86063 -1.68043 0
M  V30 8956 O 855.342 0.161632 -1.81783 0
M  V30 8957 C 855.393 -3.30891 -1.45581 0
M  V30 8958 O 855.114 -4.34924 -0.526539 0
M  V30 8959 C 856.615 -3.81926 -2.2505 0
M  V30 8960 H 853.835 -0.640737 -0.199241 0
M  V30 8961 H 856.379 -2.04472 0.0337855 0
M  V30 8962 H 854.534 -3.22019 -2.15366 0
M  V30 8963 H 854.948 -5.1389 -1.04962 0
M  V30 8964 H 856.422 -4.79999 -2.72589 0
M  V30 8965 H 856.899 -3.13934 -3.07152 0
M  V30 8966 H 857.505 -3.93931 -1.60308 0
M  V30 8967 N 855.82 0.285905 -1.54985 0
M  V30 8968 C 856.767 1.35306 -1.86978 0
M  V30 8969 C 857.737 1.49682 -0.720046 0
M  V30 8970 O 858.922 1.64297 -0.970107 0
M  V30 8971 C 856.062 2.71059 -2.13591 0
M  V30 8972 C 855.175 2.6501 -3.41165 0
M  V30 8973 C 854.31 3.92856 -3.57544 0
M  V30 8974 C 853.349 3.81266 -4.78855 0
M  V30 8975 N 852.486 5.00919 -4.9196 0
M  V30 8976 H 857.326 1.07323 -2.78003 0
M  V30 8977 H 854.863 0.518776 -1.37649 0
M  V30 8978 H 856.821 3.50026 -2.27019 0
M  V30 8979 H 855.451 2.97271 -1.25816 0
M  V30 8980 H 854.503 1.77824 -3.36278 0
M  V30 8981 H 855.815 2.52342 -4.30262 0
M  V30 8982 H 854.969 4.80263 -3.70718 0
M  V30 8983 H 853.708 4.08377 -2.66608 0
M  V30 8984 H 852.713 2.92243 -4.65698 0
M  V30 8985 H 853.938 3.67277 -5.71213 0
M  V30 8986 H 851.884 5.16875 -4.03951 0
M  V30 8987 H 851.801 4.90732 -5.75081 0
M  V30 8988 H 853.069 5.89935 -5.09507 0
M  V30 8989 N 857.298 1.47698 0.54982 0
M  V30 8990 C 858.575 1.45185 1.31075 0
M  V30 8991 C 858.955 0.152768 2.10547 0
M  V30 8992 O 858.303 -0.865706 2.11466 0
M  V30 8993 C 858.513 2.70192 2.20902 0
M  V30 8994 C 859.861 3.1771 2.81683 0
M  V30 8995 O 860.885 2.70971 2.312 0
M  V30 8996 O 859.744 3.98986 3.7346 0
M  V30 8997 H 856.838 0.57892 0.590577 0
M  V30 8998 H 859.384 1.59908 0.568112 0
M  V30 8999 H 858.156 3.56269 1.61828 0
M  V30 9000 H 857.779 2.58091 3.02448 0
M  V30 9001 N 858.776 -0.797141 1.35954 0
M  V30 9002 C 859.724 -1.93084 1.29697 0
M  V30 9003 C 860.718 -1.68329 0.190152 0
M  V30 9004 O 861.924 -1.7643 0.3567 0
M  V30 9005 H 858.299 -0.634531 0.403577 0
M  V30 9006 H 860.27 -1.95481 2.25455 0
M  V30 9007 C 859.019 -3.29996 1.09536 0
M  V30 9008 H 858.342 -3.49607 1.93946 0
M  V30 9009 H 859.782 -4.09696 1.09202 0
M  V30 9010 C 858.241 -3.36304 -0.200381 0
M  V30 9011 O 858.771 -3.83579 -1.19291 0
M  V30 9012 N 856.977 -2.89587 -0.242406 0
M  V30 9013 H 856.524 -2.51307 0.565897 0
M  V30 9014 H 856.482 -2.94189 -1.10906 0
M  V30 9015 N 860.254 -1.20106 -1.0204 0
M  V30 9016 C 861.164 -0.962051 -2.13967 0
M  V30 9017 C 862.18 0.0808053 -1.73812 0
M  V30 9018 O 863.356 -0.105774 -2.01122 0
M  V30 9019 C 860.421 -0.513108 -3.42882 0
M  V30 9020 C 859.482 -1.62636 -3.97301 0
M  V30 9021 C 858.715 -1.19875 -5.20063 0
M  V30 9022 O 858.938 -0.0658423 -5.70362 0
M  V30 9023 O 857.872 -2.00467 -5.67536 0
M  V30 9024 H 861.698 -1.8991 -2.36998 0
M  V30 9025 H 859.283 -0.984608 -1.12365 0
M  V30 9026 H 861.165 -0.271797 -4.20523 0
M  V30 9027 H 859.84 0.395402 -3.21276 0
M  V30 9028 H 858.747 -1.92192 -3.20957 0
M  V30 9029 H 860.08 -2.51174 -4.23288 0
M  V30 9030 N 861.732 1.21287 -1.00634 0
M  V30 9031 C 863.148 1.42467 -0.719389 0
M  V30 9032 C 863.348 1.88767 0.704927 0
M  V30 9033 O 862.404 2.05004 1.47409 0
M  V30 9034 C 863.717 2.455 -1.73639 0
M  V30 9035 C 865.265 2.59281 -1.75335 0
M  V30 9036 C 865.74 3.65547 -2.75934 0
M  V30 9037 N 867.231 3.73019 -2.74611 0
M  V30 9038 C 867.966 4.54873 -3.4911 0
M  V30 9039 N 867.462 5.40614 -4.33253 0
M  V30 9040 N 869.255 4.49309 -3.37754 0
M  V30 9041 H 861.406 0.895454 -1.92602 0
M  V30 9042 H 863.669 0.455491 -0.831404 0
M  V30 9043 H 863.375 2.18455 -2.75627 0
M  V30 9044 H 863.249 3.44325 -1.54014 0
M  V30 9045 H 865.636 2.85661 -0.740377 0
M  V30 9046 H 865.717 1.60685 -1.99032 0
M  V30 9047 H 865.361 3.39911 -3.77389 0
M  V30 9048 H 865.291 4.63741 -2.49503 0
M  V30 9049 H 867.782 3.11766 -2.13565 0
M  V30 9050 H 868.095 6.0013 -4.86892 0
M  V30 9051 H 866.44 5.40151 -4.37335 0
M  V30 9052 H 869.631 3.81357 -2.71449 0
M  V30 9053 H 869.804 5.12867 -3.9607 0
M  V30 9054 N 863.21 0.781244 1.36873 0
M  V30 9055 C 864.456 0.350407 1.9975 0
M  V30 9056 C 864.789 -1.07293 1.6187 0
M  V30 9057 O 864.064 -1.73983 0.869491 0
M  V30 9058 C 864.347 0.504834 3.56544 0
M  V30 9059 C 864.2 1.97127 4.04303 0
M  V30 9060 C 865.519 -0.0851272 4.40018 0
M  V30 9061 H 862.638 0.128794 0.725659 0
M  V30 9062 H 865.28 0.98606 1.6241 0
M  V30 9063 H 863.43 -0.0363006 3.88483 0
M  V30 9064 H 865.102 2.57284 3.82887 0
M  V30 9065 H 863.345 2.47676 3.56145 0
M  V30 9066 H 864.016 2.03033 5.13305 0
M  V30 9067 H 866.492 0.376704 4.14391 0
M  V30 9068 H 865.368 0.0530015 5.48874 0
M  V30 9069 H 865.629 -1.17642 4.2616 0
M  V30 9070 N 864.689 -1.48329 0.532571 0
M  V30 9071 C 865.935 -2.028 -0.000583219 0
M  V30 9072 C 866.268 -1.40858 -1.33688 0
M  V30 9073 O 865.543 -0.555261 -1.86406 0
M  V30 9074 C 865.826 -3.59901 -0.119846 0
M  V30 9075 C 865.679 -4.32318 1.2418 0
M  V30 9076 C 866.998 -4.31904 -0.845372 0
M  V30 9077 H 864.117 -0.736999 0.00126205 0
M  V30 9078 H 866.759 -1.77024 0.690102 0
M  V30 9079 H 864.909 -3.81993 -0.708092 0
M  V30 9080 H 866.581 -4.21637 1.87136 0
M  V30 9081 H 864.824 -3.93635 1.82301 0
M  V30 9082 H 865.495 -5.40697 1.11132 0
M  V30 9083 H 867.971 -4.14658 -0.346159 0
M  V30 9084 H 866.847 -5.41509 -0.897723 0
M  V30 9085 H 867.108 -3.99369 -1.89622 0
M  V30 9086 N 866.167 -0.267825 -1.55308 0
M  V30 9087 C 867.415 0.350343 -1.9904 0
M  V30 9088 C 867.736 1.56924 -1.15758 0
M  V30 9089 O 867.006 1.94358 -0.245336 0
M  V30 9090 H 865.586 0.132435 -0.735167 0
M  V30 9091 H 868.248 -0.371471 -1.91327 0
M  V30 9092 H 867.344 0.645203 -3.05358 0
M  V30 9093 N 867.645 1.57599 0.00500368 0
M  V30 9094 C 868.892 1.90349 0.690895 0
M  V30 9095 C 869.22 0.868045 1.74055 0
M  V30 9096 O 868.475 -0.127855 1.95282 0
M  V30 9097 C 868.774 3.29855 1.37588 0
M  V30 9098 C 868.44 4.48548 0.459906 0
M  V30 9099 C 867.102 4.80752 0.207693 0
M  V30 9100 C 869.454 5.20919 -0.171054 0
M  V30 9101 C 866.782 5.82701 -0.683855 0
M  V30 9102 C 869.134 6.23818 -1.05045 0
M  V30 9103 C 867.798 6.54481 -1.31189 0
M  V30 9104 H 867.068 0.696538 0.252816 0
M  V30 9105 H 869.715 1.91436 -0.0494495 0
M  V30 9106 H 868.02 3.24869 2.19015 0
M  V30 9107 H 869.717 3.52452 1.91255 0
M  V30 9108 H 866.307 4.23384 0.666648 0
M  V30 9109 H 870.491 4.96299 0.0107942 0
M  V30 9110 H 865.747 6.04822 -0.894467 0
M  V30 9111 H 869.921 6.79029 -1.54574 0
M  V30 9112 H 867.548 7.33299 -2.00442 0
M  V30 9113 N 869.123 -0.277682 1.55134 0
M  V30 9114 C 870.073 -1.34531 1.8408 0
M  V30 9115 C 871.057 -1.44904 0.699393 0
M  V30 9116 O 872.249 -1.48664 0.960623 0
M  V30 9117 C 869.378 -2.7064 2.11208 0
M  V30 9118 C 868.464 -2.64396 3.31596 0
M  V30 9119 N 868.855 -2.2777 4.51613 0
M  V30 9120 C 867.153 -2.95464 3.34091 0
M  V30 9121 C 867.854 -2.31401 5.33693 0
M  V30 9122 N 866.83 -2.69688 4.71984 0
M  V30 9123 H 870.632 -1.05214 2.74421 0
M  V30 9124 H 868.146 -0.486311 1.54948 0
M  V30 9125 H 870.143 -3.47649 2.301 0
M  V30 9126 H 868.803 -3.00849 1.22148 0
M  V30 9127 H 869.814 -1.99827 4.77797 0
M  V30 9128 H 866.491 -3.30415 2.5521 0
M  V30 9129 H 867.881 -2.05685 6.39643 0
M  V30 9130 N 870.601 -1.47988 -0.541979 0
M  V30 9131 C 871.847 -1.55623 -1.30036 0
M  V30 9132 C 872.18 -0.224254 -1.92901 0
M  V30 9133 O 871.455 0.768629 -1.78668 0
M  V30 9134 C 871.738 -2.68562 -2.39888 0
M  V30 9135 C 871.591 -4.11426 -1.81792 0
M  V30 9136 C 872.91 -2.77325 -3.41729 0
M  V30 9137 H 870.029 -0.566498 -0.471433 0
M  V30 9138 H 872.671 -1.8011 -0.604998 0
M  V30 9139 H 870.821 -2.47814 -2.992 0
M  V30 9140 H 872.493 -4.43581 -1.26624 0
M  V30 9141 H 870.736 -4.18989 -1.12386 0
M  V30 9142 H 871.407 -4.8625 -2.61276 0
M  V30 9143 H 873.883 -2.96085 -2.92357 0
M  V30 9144 H 872.759 -3.58097 -4.16002 0
M  V30 9145 H 873.02 -1.84995 -4.01534 0
M  V30 9146 N 872.079 0.78992 -1.36375 0
M  V30 9147 C 873.009 1.91683 -1.33341 0
M  V30 9148 C 873.99 1.68861 -0.204965 0
M  V30 9149 O 875.175 1.89982 -0.402531 0
M  V30 9150 C 872.305 3.28696 -1.12143 0
M  V30 9151 C 871.259 3.66041 -2.21806 0
M  V30 9152 C 870.585 5.01399 -1.85751 0
M  V30 9153 C 871.885 3.74677 -3.63888 0
M  V30 9154 H 873.579 1.94478 -2.27637 0
M  V30 9155 H 871.125 0.934271 -1.09578 0
M  V30 9156 H 873.078 4.07151 -1.08656 0
M  V30 9157 H 871.802 3.26287 -0.142974 0
M  V30 9158 H 870.461 2.89883 -2.24418 0
M  V30 9159 H 870.109 4.9551 -0.864817 0
M  V30 9160 H 869.809 5.27355 -2.59173 0
M  V30 9161 H 871.333 5.82274 -1.83819 0
M  V30 9162 H 872.747 4.43324 -3.63506 0
M  V30 9163 H 871.144 4.12118 -4.3621 0
M  V30 9164 H 872.214 2.75795 -3.9883 0
M  V30 9165 N 873.557 1.20646 1.01402 0
M  V30 9166 C 874.805 1.01618 1.74695 0
M  V30 9167 C 875.126 -0.452438 1.89679 0
M  V30 9168 O 874.396 -1.32693 1.44116 0
M  V30 9169 H 872.976 0.373013 0.647202 0
M  V30 9170 H 875.638 1.518 1.22241 0
M  V30 9171 H 874.734 1.47666 2.74957 0
M  V30 9172 N 875.035 -1.20752 1.01276 0
M  V30 9173 C 876.446 -1.7175 0.732033 0
M  V30 9174 C 876.797 -1.8131 -0.749733 0
M  V30 9175 O 875.922 -1.47301 -1.58529 0
M  V30 9176 C 876.517 -3.11936 1.32217 0
M  V30 9177 C 875.076 -3.6026 1.09039 0
M  V30 9178 C 874.223 -2.37571 1.43022 0
M  V30 9179 H 877.174 -1.0582 1.1827 0
M  V30 9180 H 877.195 -3.73802 0.710771 0
M  V30 9181 H 876.707 -3.04946 2.40061 0
M  V30 9182 H 874.808 -3.72588 0.0294464 0
M  V30 9183 H 874.921 -4.45295 1.76775 0
M  V30 9184 H 873.285 -2.40128 0.849159 0
M  V30 9185 H 874.068 -2.33225 2.51915 0
M  V30 9186 N 876.513 -0.788492 -1.36457 0
M  V30 9187 C 877.461 -0.174192 -2.31947 0
M  V30 9188 C 878.455 0.665974 -1.5576 0
M  V30 9189 O 879.661 0.561161 -1.71029 0
M  V30 9190 H 876.036 -0.0375538 -0.751062 0
M  V30 9191 H 878.007 -0.995011 -2.81322 0
M  V30 9192 C 876.756 0.677276 -3.4104 0
M  V30 9193 H 876.079 0.0401418 -3.9978 0
M  V30 9194 H 877.519 1.07379 -4.10178 0
M  V30 9195 C 875.978 1.83512 -2.82533 0
M  V30 9196 O 876.508 2.93164 -2.74623 0
M  V30 9197 N 874.714 1.64095 -2.39836 0
M  V30 9198 H 874.261 0.749046 -2.46469 0
M  V30 9199 H 874.219 2.41726 -2.01037 0
M  V30 9200 N 877.991 1.48044 -0.54043 0
M  V30 9201 C 878.954 2.28273 0.205966 0
M  V30 9202 C 879.954 1.35983 0.858209 0
M  V30 9203 O 881.144 1.58776 0.716651 0
M  V30 9204 C 878.276 3.15174 1.29917 0
M  V30 9205 H 879.469 2.95727 -0.498555 0
M  V30 9206 H 877.022 1.53457 -0.296745 0
M  V30 9207 H 877.757 2.52374 2.03661 0
M  V30 9208 H 877.542 3.83074 0.836475 0
M  V30 9209 H 879.032 3.75666 1.82387 0
M  V30 9210 N 879.47 0.276058 1.55163 0
M  V30 9211 C 880.718 -0.339782 1.99223 0
M  V30 9212 C 881.039 -1.56307 1.16589 0
M  V30 9213 O 880.309 -1.94225 0.25564 0
M  V30 9214 H 878.889 -0.128534 0.735859 0
M  V30 9215 H 881.551 0.381612 1.91128 0
M  V30 9216 H 880.647 -0.629 3.05696 0
M  V30 9217 N 880.948 -1.576 0.00335426 0
M  V30 9218 C 881.858 -2.12067 -1.00322 0
M  V30 9219 C 882.874 -1.06672 -1.37467 0
M  V30 9220 O 884.05 -1.38592 -1.46131 0
M  V30 9221 C 881.115 -2.61593 -2.27531 0
M  V30 9222 C 880.176 -3.81602 -1.96668 0
M  V30 9223 C 879.409 -4.28756 -3.17811 0
M  V30 9224 O 879.632 -3.75222 -4.2961 0
M  V30 9225 O 878.566 -5.20877 -3.01613 0
M  V30 9226 H 882.392 -2.98299 -0.570199 0
M  V30 9227 H 879.977 -1.47835 -0.215682 0
M  V30 9228 H 881.859 -2.93631 -3.02256 0
M  V30 9229 H 880.534 -1.78457 -2.70065 0
M  V30 9230 H 879.441 -3.54531 -1.19408 0
M  V30 9231 H 880.774 -4.65822 -1.58968 0
M  V30 9232 N 882.426 0.269451 -1.5528 0
M  V30 9233 C 883.672 1.00206 -1.76314 0
M  V30 9234 C 884.005 1.85812 -0.564581 0
M  V30 9235 O 883.28 1.89509 0.437769 0
M  V30 9236 C 883.563 1.88163 -3.07029 0
M  V30 9237 C 883.416 1.05527 -4.37246 0
M  V30 9238 C 884.735 2.8681 -3.33808 0
M  V30 9239 H 881.854 0.36288 -0.641473 0
M  V30 9240 H 884.496 0.274188 -1.88011 0
M  V30 9241 H 882.646 2.50224 -2.97187 0
M  V30 9242 H 884.318 0.455094 -4.5905 0
M  V30 9243 H 882.561 0.358842 -4.32313 0
M  V30 9244 H 883.232 1.70397 -5.25042 0
M  V30 9245 H 885.708 2.34884 -3.43466 0
M  V30 9246 H 884.584 3.45492 -4.26528 0
M  V30 9247 H 884.845 3.62118 -2.5362 0
M  V30 9248 N 883.904 1.48273 0.534124 0
M  V30 9249 C 885.132 1.59734 1.31501 0
M  V30 9250 C 885.547 0.256047 1.87056 0
M  V30 9251 O 884.904 -0.754086 1.66192 0
M  V30 9252 C 884.955 2.64072 2.46877 0
M  V30 9253 O 884.676 3.92995 1.93613 0
M  V30 9254 C 886.177 2.85933 3.38758 0
M  V30 9255 H 883.397 0.538703 0.40005 0
M  V30 9256 H 885.941 1.9407 0.644762 0
M  V30 9257 H 884.096 2.32606 3.09795 0
M  V30 9258 H 884.51 4.50203 2.69106 0
M  V30 9259 H 885.984 3.62749 4.16073 0
M  V30 9260 H 886.461 1.94603 3.93734 0
M  V30 9261 H 887.067 3.18687 2.81636 0
M  V30 9262 N 885.382 -0.782676 1.36792 0
M  V30 9263 C 886.314 -1.9044 1.27536 0
M  V30 9264 C 887.327 -1.61647 0.193426 0
M  V30 9265 O 888.516 -1.72769 0.448692 0
M  V30 9266 C 885.616 -3.2541 0.946641 0
M  V30 9267 C 884.789 -3.81932 2.13183 0
M  V30 9268 C 883.848 -4.95355 1.7751 0
M  V30 9269 O 882.874 -5.11517 2.49678 0
M  V30 9270 N 884.076 -5.76108 0.712755 0
M  V30 9271 H 886.841 -1.98899 2.24186 0
M  V30 9272 H 884.402 -0.96127 1.30274 0
M  V30 9273 H 886.394 -3.98791 0.689043 0
M  V30 9274 H 884.964 -3.12524 0.0690591 0
M  V30 9275 H 884.184 -3.00459 2.55183 0
M  V30 9276 H 885.472 -4.16426 2.92347 0
M  V30 9277 H 884.87 -5.65586 0.113662 0
M  V30 9278 H 883.427 -6.49762 0.514995 0
M  V30 9279 N 886.86 -1.21182 -1.00761 0
M  V30 9280 C 888.108 -1.02543 -1.74153 0
M  V30 9281 C 888.429 0.442372 -1.89916 0
M  V30 9282 O 887.699 1.31927 -1.44818 0
M  V30 9283 H 886.279 -0.37644 -0.645214 0
M  V30 9284 H 888.941 -1.52446 -1.21434 0
M  V30 9285 H 888.037 -1.49122 -2.7417 0
M  V30 9286 N 888.338 1.20213 -1.01915 0
M  V30 9287 C 889.585 1.89647 -0.709955 0
M  V30 9288 C 889.913 1.7901 0.760631 0
M  V30 9289 O 889.168 1.17028 1.56853 0
M  V30 9290 C 889.467 3.40232 -1.09438 0
M  V30 9291 C 889.133 3.7107 -2.5616 0
M  V30 9292 C 887.795 3.79196 -2.96249 0
M  V30 9293 C 890.147 3.85169 -3.51133 0
M  V30 9294 C 887.475 3.98882 -4.30244 0
M  V30 9295 C 889.827 4.06365 -4.8482 0
M  V30 9296 C 888.491 4.12722 -5.24611 0
M  V30 9297 H 887.761 0.693967 -0.259791 0
M  V30 9298 H 890.408 1.42419 -1.2802 0
M  V30 9299 H 888.713 3.89292 -0.442596 0
M  V30 9300 H 890.41 3.92257 -0.832811 0
M  V30 9301 H 887 3.65346 -2.24099 0
M  V30 9302 H 891.184 3.78243 -3.21319 0
M  V30 9303 H 886.44 4.02039 -4.60624 0
M  V30 9304 H 890.614 4.16216 -5.58334 0
M  V30 9305 H 888.241 4.27728 -6.28453 0
M  V30 9306 N 889.816 0.795718 1.36037 0
M  V30 9307 C 890.779 0.204318 2.28287 0
M  V30 9308 C 891.779 -0.602017 1.49105 0
M  V30 9309 O 892.969 -0.422089 1.69009 0
M  V30 9310 C 890.101 -0.716431 3.33287 0
M  V30 9311 H 891.294 1.01781 2.821 0
M  V30 9312 H 888.847 0.565588 1.45708 0
M  V30 9313 H 889.582 -1.55403 2.84641 0
M  V30 9314 H 889.367 -0.140096 3.9185 0
M  V30 9315 H 890.857 -1.12488 4.02164 0
M  V30 9316 N 891.294 -1.47756 0.548274 0
M  V30 9317 C 892.257 -2.28379 -0.193857 0
M  V30 9318 C 893.257 -1.36436 -0.850986 0
M  V30 9319 O 894.447 -1.59154 -0.70822 0
M  V30 9320 C 891.579 -3.15858 -1.28243 0
M  V30 9321 H 892.772 -2.95458 0.514231 0
M  V30 9322 H 890.325 -1.53298 0.304879 0
M  V30 9323 H 891.06 -2.5345 -2.0232 0
M  V30 9324 H 890.845 -3.83512 -0.816148 0
M  V30 9325 H 892.335 -3.76627 -1.80393 0
M  V30 9326 N 892.772 -0.284283 -1.55015 0
M  V30 9327 C 893.735 0.586182 -2.21577 0
M  V30 9328 C 894.735 1.07427 -1.1965 0
M  V30 9329 O 895.925 0.972977 -1.44495 0
M  V30 9330 C 893.057 1.80973 -2.88897 0
M  V30 9331 H 894.25 0.00487253 -2.999 0
M  V30 9332 H 891.803 -0.0349696 -1.56261 0
M  V30 9333 H 892.538 2.43131 -2.14611 0
M  V30 9334 H 892.323 1.46757 -3.636 0
M  V30 9335 H 893.813 2.42853 -3.39724 0
M  V30 9336 N 894.251 1.57596 -0.0117121 0
M  V30 9337 C 895.181 2.12188 0.9746 0
M  V30 9338 C 896.162 1.03379 1.35081 0
M  V30 9339 O 897.347 1.31123 1.4325 0
M  V30 9340 C 894.477 2.63477 2.26268 0
M  V30 9341 C 893.431 3.76917 2.02774 0
M  V30 9342 C 892.757 4.14566 3.37697 0
M  V30 9343 C 894.057 5.03715 1.38089 0
M  V30 9344 H 895.751 2.9485 0.520007 0
M  V30 9345 H 893.297 1.41836 0.248685 0
M  V30 9346 H 895.25 3.00299 2.95633 0
M  V30 9347 H 893.974 1.77953 2.73862 0
M  V30 9348 H 892.633 3.40507 1.35832 0
M  V30 9349 H 892.281 3.26048 3.83016 0
M  V30 9350 H 891.981 4.91 3.22789 0
M  V30 9351 H 893.505 4.53956 4.08358 0
M  V30 9352 H 894.919 5.38233 1.97428 0
M  V30 9353 H 893.316 5.85032 1.33634 0
M  V30 9354 H 894.386 4.83624 0.351575 0
M  V30 9355 N 895.729 -0.261212 1.5542 0
M  V30 9356 C 896.676 -1.32315 1.89107 0
M  V30 9357 C 897.646 -1.48517 0.743767 0
M  V30 9358 O 898.831 -1.62733 0.996123 0
M  V30 9359 C 895.971 -2.67626 2.17877 0
M  V30 9360 C 895.084 -2.59549 3.45338 0
M  V30 9361 C 894.219 -3.87118 3.63748 0
M  V30 9362 C 893.258 -3.736 4.8486 0
M  V30 9363 N 892.395 -4.93029 4.99867 0
M  V30 9364 H 897.235 -1.02886 2.79675 0
M  V30 9365 H 894.772 -0.496812 1.38456 0
M  V30 9366 H 896.73 -3.4637 2.32559 0
M  V30 9367 H 895.36 -2.95232 1.30529 0
M  V30 9368 H 894.412 -1.72452 3.39064 0
M  V30 9369 H 895.724 -2.45465 4.34222 0
M  V30 9370 H 894.878 -4.74305 3.78312 0
M  V30 9371 H 893.617 -4.04084 2.73071 0
M  V30 9372 H 892.622 -2.84797 4.70288 0
M  V30 9373 H 893.847 -3.58143 5.76984 0
M  V30 9374 H 891.793 -5.10383 4.12123 0
M  V30 9375 H 891.71 -4.81521 5.82815 0
M  V30 9376 H 892.978 -5.81754 5.18828 0
M  V30 9377 N 897.207 -1.48554 -0.526253 0
M  V30 9378 C 898.447 -1.58362 -1.29232 0
M  V30 9379 C 898.811 -0.253353 -1.90321 0
M  V30 9380 O 900.012 -0.226439 -2.67845 0
M  V30 9381 C 898.283 -2.69294 -2.3498 0
M  V30 9382 S 899.842 -2.98891 -3.21262 0
M  V30 9383 H 896.66 -0.558859 -0.439543 0
M  V30 9384 H 899.262 -1.86094 -0.599099 0
M  V30 9385 H 897.966 -3.64504 -1.88587 0
M  V30 9386 H 897.497 -2.43475 -3.09004 0
M  V30 9387 H 899.512 -2.38475 -4.35137 0
M  V30 9388 N 898.685 0.775411 -1.37205 0
M  V30 9389 C 899.933 1.53081 -1.3195 0
M  V30 9390 C 900.254 1.9476 0.0966864 0
M  V30 9391 O 899.524 1.66019 1.03993 0
M  V30 9392 H 898.104 0.567762 -0.485444 0
M  V30 9393 H 900.766 0.92309 -1.71654 0
M  V30 9394 H 899.862 2.4319 -1.95614 0
M  V30 9395 N 900.163 1.21714 1.00117 0
M  V30 9396 C 901.093 1.00397 2.10815 0
M  V30 9397 C 902.074 -0.0723502 1.69946 0
M  V30 9398 O 903.259 0.0882398 1.93999 0
M  V30 9399 C 900.389 0.572001 3.42557 0
M  V30 9400 C 899.343 1.59331 3.97237 0
M  V30 9401 C 898.669 1.01746 5.2493 0
M  V30 9402 C 899.969 2.98117 4.28863 0
M  V30 9403 H 901.663 1.92983 2.28906 0
M  V30 9404 H 899.209 0.929273 1.10002 0
M  V30 9405 H 901.162 0.410018 4.19401 0
M  V30 9406 H 899.886 -0.38951 3.24269 0
M  V30 9407 H 898.545 1.74293 3.22518 0
M  V30 9408 H 898.193 0.0475491 5.02978 0
M  V30 9409 H 897.893 1.69969 5.62481 0
M  V30 9410 H 899.417 0.866881 6.04415 0
M  V30 9411 H 900.831 2.86578 4.96534 0
M  V30 9412 H 899.228 3.63389 4.77565 0
M  V30 9413 H 900.298 3.48674 3.36979 0
M  V30 9414 N 901.641 -1.19671 1.02551 0
M  V30 9415 C 902.869 -1.93233 0.739513 0
M  V30 9416 C 903.284 -1.75298 -0.701158 0
M  V30 9417 O 902.641 -1.07269 -1.47647 0
M  V30 9418 C 902.692 -3.45085 1.07697 0
M  V30 9419 O 902.413 -3.62441 2.46106 0
M  V30 9420 C 903.914 -4.35776 0.813298 0
M  V30 9421 H 901.134 -0.613905 0.270853 0
M  V30 9422 H 903.678 -1.51909 1.36909 0
M  V30 9423 H 901.833 -3.84255 0.492635 0
M  V30 9424 H 902.247 -4.56337 2.58567 0
M  V30 9425 H 903.721 -5.40941 1.09941 0
M  V30 9426 H 904.198 -4.38474 -0.252359 0
M  V30 9427 H 904.804 -4.02282 1.38021 0
M  V30 9428 N 903.119 -0.802921 -1.35613 0
M  V30 9429 C 904.066 -0.20874 -2.29854 0
M  V30 9430 C 905.036 0.655128 -1.52634 0
M  V30 9431 O 906.221 0.600979 -1.81088 0
M  V30 9432 C 903.361 0.639663 -3.3912 0
M  V30 9433 C 902.474 -0.244234 -4.31309 0
M  V30 9434 C 901.609 0.611825 -5.27665 0
M  V30 9435 C 900.648 -0.272698 -6.11492 0
M  V30 9436 N 899.785 0.543122 -6.99996 0
M  V30 9437 H 904.625 -1.01782 -2.80079 0
M  V30 9438 H 902.162 -0.513465 -1.37848 0
M  V30 9439 H 904.12 1.14668 -4.01132 0
M  V30 9440 H 902.75 1.41404 -2.9018 0
M  V30 9441 H 901.802 -0.869322 -3.70334 0
M  V30 9442 H 903.114 -0.925202 -4.90144 0
M  V30 9443 H 902.268 1.18412 -5.95032 0
M  V30 9444 H 901.007 1.32637 -4.69317 0
M  V30 9445 H 900.012 -0.857287 -5.43075 0
M  V30 9446 H 901.237 -0.985051 -6.71918 0
M  V30 9447 H 899.183 1.24171 -6.44141 0
M  V30 9448 H 899.1 -0.0798767 -7.55958 0
M  V30 9449 H 900.368 1.09881 -7.71717 0
M  V30 9450 N 904.597 1.47463 -0.556102 0
M  V30 9451 C 905.544 2.29998 0.192213 0
M  V30 9452 C 906.514 1.38993 0.909403 0
M  V30 9453 O 907.699 1.67954 0.905316 0
M  V30 9454 C 904.839 3.22932 1.21692 0
M  V30 9455 C 903.952 4.29027 0.505908 0
M  V30 9456 C 903.087 5.09114 1.51581 0
M  V30 9457 C 902.126 6.06984 0.789714 0
M  V30 9458 N 901.263 6.80033 1.74639 0
M  V30 9459 H 906.103 2.93468 -0.517734 0
M  V30 9460 H 903.64 1.44654 -0.267147 0
M  V30 9461 H 905.598 3.75234 1.8236 0
M  V30 9462 H 904.228 2.61329 1.89491 0
M  V30 9463 H 903.28 3.7979 -0.215276 0
M  V30 9464 H 904.592 4.9876 -0.062958 0
M  V30 9465 H 903.746 5.6556 2.19606 0
M  V30 9466 H 902.485 4.3928 2.11859 0
M  V30 9467 H 901.49 5.49717 0.0955382 0
M  V30 9468 H 902.715 6.78827 0.192688 0
M  V30 9469 H 900.661 6.12931 2.33777 0
M  V30 9470 H 900.578 7.45933 1.22965 0
M  V30 9471 H 901.846 7.41054 2.41782 0
M  V30 9472 N 906.075 0.2925 1.54862 0
M  V30 9473 C 907.007 -0.620889 2.2063 0
M  V30 9474 C 908.02 -1.10412 1.19637 0
M  V30 9475 O 909.209 -1.02304 1.46274 0
M  V30 9476 C 906.309 -1.861 2.83232 0
M  V30 9477 C 905.482 -1.52168 4.10078 0
M  V30 9478 C 904.541 -2.61605 4.56562 0
M  V30 9479 O 903.567 -2.27056 5.21952 0
M  V30 9480 N 904.769 -3.9199 4.28163 0
M  V30 9481 H 907.534 -0.0579028 2.99644 0
M  V30 9482 H 905.095 0.114333 1.61496 0
M  V30 9483 H 907.087 -2.58642 3.11266 0
M  V30 9484 H 905.657 -2.33259 2.08108 0
M  V30 9485 H 904.877 -0.629283 3.89145 0
M  V30 9486 H 906.165 -1.27023 4.92689 0
M  V30 9487 H 905.563 -4.22872 3.7576 0
M  V30 9488 H 904.12 -4.60857 4.60928 0
M  V30 9489 N 907.553 -1.57587 0.0200696 0
M  V30 9490 C 908.483 -2.12702 -0.963333 0
M  V30 9491 C 909.464 -1.04094 -1.34531 0
M  V30 9492 O 910.649 -1.31881 -1.42552 0
M  V30 9493 C 907.779 -2.64673 -2.24868 0
M  V30 9494 C 906.733 -3.77987 -2.00772 0
M  V30 9495 C 906.059 -4.16351 -3.35494 0
M  V30 9496 C 907.359 -5.0444 -1.35416 0
M  V30 9497 H 909.053 -2.95121 -0.504363 0
M  V30 9498 H 906.599 -1.41966 -0.24116 0
M  V30 9499 H 908.552 -3.01862 -2.94036 0
M  V30 9500 H 907.276 -1.79403 -2.72914 0
M  V30 9501 H 905.935 -3.41223 -1.34025 0
M  V30 9502 H 905.583 -3.28075 -3.81282 0
M  V30 9503 H 905.283 -4.92705 -3.20181 0
M  V30 9504 H 906.807 -4.56115 -4.05945 0
M  V30 9505 H 908.221 -5.39273 -1.94571 0
M  V30 9506 H 906.618 -5.85732 -1.30529 0
M  V30 9507 H 907.688 -4.83803 -0.325923 0
M  V30 9508 N 909.032 0.252966 -1.55557 0
M  V30 9509 C 910.309 1.00432 -1.67847 0
M  V30 9510 C 910.689 2.03587 -0.55816 0
M  V30 9511 O 910.037 2.24239 0.439197 0
M  V30 9512 C 910.247 1.64313 -3.079 0
M  V30 9513 C 911.595 2.14726 -3.66303 0
M  V30 9514 O 912.619 1.74264 -3.10661 0
M  V30 9515 O 911.478 2.89 -4.63833 0
M  V30 9516 H 908.572 0.467102 -0.682455 0
M  V30 9517 H 911.118 0.247233 -1.67889 0
M  V30 9518 H 909.89 0.896681 -3.80888 0
M  V30 9519 H 909.513 2.46657 -3.11843 0
M  V30 9520 N 910.51 1.48831 0.518367 0
M  V30 9521 C 911.735 1.61379 1.30275 0
M  V30 9522 C 912.16 0.278571 1.86026 0
M  V30 9523 O 911.518 -0.751427 1.64995 0
M  V30 9524 C 911.566 2.67225 2.42122 0
M  V30 9525 O 910.67 2.25192 3.45489 0
M  V30 9526 H 910.011 0.540742 0.385349 0
M  V30 9527 H 912.541 1.949 0.622498 0
M  V30 9528 H 912.551 2.88859 2.8814 0
M  V30 9529 H 911.226 3.64155 2.00907 0
M  V30 9530 H 909.803 2.13819 3.05509 0
M  V30 9531 N 911.988 -0.768124 1.37614 0
M  V30 9532 C 913.216 -1.55726 1.36224 0
M  V30 9533 C 913.631 -1.8873 -0.0515357 0
M  V30 9534 O 912.988 -1.51718 -1.0143 0
M  V30 9535 C 913.039 -2.86533 2.20412 0
M  V30 9536 O 912.76 -2.54942 3.56281 0
M  V30 9537 C 914.261 -3.80745 2.27041 0
M  V30 9538 H 911.481 -0.482325 0.46648 0
M  V30 9539 H 914.025 -0.95176 1.81002 0
M  V30 9540 H 912.18 -3.43496 1.79134 0
M  V30 9541 H 912.594 -3.38732 4.00451 0
M  V30 9542 H 914.068 -4.69523 2.90263 0
M  V30 9543 H 914.545 -4.20138 1.27987 0
M  V30 9544 H 915.151 -3.2971 2.68647 0
M  V30 9545 N 913.466 -1.22244 -0.994698 0
M  V30 9546 C 914.715 -1.04005 -1.72817 0
M  V30 9547 C 915.028 0.425413 -1.90918 0
M  V30 9548 O 916.234 0.727429 -2.61574 0
M  V30 9549 C 914.69 -1.81244 -3.10932 0
M  V30 9550 C 914.298 -3.32028 -3.00768 0
M  V30 9551 C 916.042 -1.71448 -3.88337 0
M  V30 9552 C 913.949 -4.01716 -4.34026 0
M  V30 9553 H 912.879 -0.385559 -0.647966 0
M  V30 9554 H 915.53 -1.46077 -1.11058 0
M  V30 9555 H 913.912 -1.3197 -3.73363 0
M  V30 9556 H 915.086 -3.88682 -2.47513 0
M  V30 9557 H 913.401 -3.4248 -2.36846 0
M  V30 9558 H 915.998 -2.20836 -4.86965 0
M  V30 9559 H 916.341 -0.674568 -4.10798 0
M  V30 9560 H 916.874 -2.18256 -3.3258 0
M  V30 9561 H 913.613 -5.05952 -4.16765 0
M  V30 9562 H 913.133 -3.49849 -4.87202 0
M  V30 9563 H 914.812 -4.0721 -5.02782 0
M  V30 9564 N 914.944 1.19125 -1.03184 0
M  V30 9565 C 916.192 1.8851 -0.728587 0
M  V30 9566 C 916.513 1.80195 0.74531 0
M  V30 9567 O 915.783 1.21437 1.5372 0
M  V30 9568 H 914.363 0.69784 -0.266511 0
M  V30 9569 H 917.025 1.44607 -1.3067 0
M  V30 9570 H 916.121 2.9477 -1.02554 0
M  V30 9571 N 916.422 0.810101 1.35185 0
M  V30 9572 C 917.671 0.388589 1.97921 0
M  V30 9573 C 917.984 -1.05079 1.64978 0
M  V30 9574 O 919.19 -1.57559 2.21105 0
M  V30 9575 C 917.646 0.643864 3.54094 0
M  V30 9576 C 917.254 2.09602 3.95943 0
M  V30 9577 C 918.998 0.287883 4.23523 0
M  V30 9578 C 916.905 2.29686 5.44976 0
M  V30 9579 H 915.835 0.141562 0.740592 0
M  V30 9580 H 918.486 0.994653 1.54204 0
M  V30 9581 H 916.868 -0.0321978 3.95987 0
M  V30 9582 H 918.042 2.81018 3.65192 0
M  V30 9583 H 916.357 2.4122 3.39414 0
M  V30 9584 H 918.954 0.415946 5.3308 0
M  V30 9585 H 919.297 -0.766305 4.09186 0
M  V30 9586 H 919.83 0.918004 3.87063 0
M  V30 9587 H 916.569 3.33563 5.64284 0
M  V30 9588 H 916.089 1.62798 5.77284 0
M  V30 9589 H 917.768 2.11411 6.11485 0
M  V30 9590 N 917.9 -1.47166 0.563914 0
M  V30 9591 C 918.85 -2.27116 -0.20055 0
M  V30 9592 C 919.834 -1.34756 -0.879177 0
M  V30 9593 O 921.026 -1.59064 -0.776377 0
M  V30 9594 C 918.155 -3.20676 -1.22565 0
M  V30 9595 C 917.241 -4.20517 -0.550092 0
M  V30 9596 N 917.632 -5.04343 0.383662 0
M  V30 9597 C 915.93 -4.38708 -0.803186 0
M  V30 9598 C 916.631 -5.76491 0.776718 0
M  V30 9599 N 915.607 -5.43444 0.130047 0
M  V30 9600 H 919.409 -2.89312 0.517275 0
M  V30 9601 H 916.923 -1.57787 0.384334 0
M  V30 9602 H 918.92 -3.76643 -1.78733 0
M  V30 9603 H 917.58 -2.60038 -1.94449 0
M  V30 9604 H 918.591 -5.1232 0.758192 0
M  V30 9605 H 915.268 -3.89235 -1.51003 0
M  V30 9606 H 916.658 -6.5391 1.54437 0
M  V30 9607 N 919.378 -0.300708 -1.54705 0
M  V30 9608 C 920.789 0.191995 -1.8571 0
M  V30 9609 C 921.14 1.53447 -1.22264 0
M  V30 9610 O 920.265 2.10054 -0.520226 0
M  V30 9611 C 920.86 0.355148 -3.36933 0
M  V30 9612 C 919.419 0.792071 -3.67972 0
M  V30 9613 C 918.566 -0.099756 -2.77121 0
M  V30 9614 H 921.517 -0.521729 -1.49879 0
M  V30 9615 H 921.538 1.18977 -3.61421 0
M  V30 9616 H 921.05 -0.622075 -3.83082 0
M  V30 9617 H 919.151 1.77986 -3.27341 0
M  V30 9618 H 919.264 0.611661 -4.75179 0
M  V30 9619 H 917.628 0.420909 -2.51198 0
M  V30 9620 H 918.411 -1.07333 -3.2609 0
M  V30 9621 N 920.856 1.57574 -0.0284266 0
M  V30 9622 C 922.102 1.92056 0.651327 0
M  V30 9623 C 922.435 0.905092 1.71819 0
M  V30 9624 O 921.71 -0.0722703 1.94366 0
M  V30 9625 C 921.993 3.37021 1.26841 0
M  V30 9626 C 921.846 4.49304 0.211157 0
M  V30 9627 C 923.165 3.81936 2.18662 0
M  V30 9628 H 920.284 0.698428 0.235304 0
M  V30 9629 H 922.926 1.89807 -0.0855435 0
M  V30 9630 H 921.076 3.39068 1.89644 0
M  V30 9631 H 922.748 4.5939 -0.419379 0
M  V30 9632 H 920.991 4.31317 -0.463445 0
M  V30 9633 H 921.662 5.47764 0.682518 0
M  V30 9634 H 924.138 3.8162 1.65847 0
M  V30 9635 H 923.014 4.84064 2.58792 0
M  V30 9636 H 923.275 3.174 3.07749 0
M  V30 9637 N 922.334 -0.244713 1.55689 0
M  V30 9638 C 923.574 -0.979776 1.79387 0
M  V30 9639 C 923.938 -1.8244 0.598298 0
M  V30 9640 O 925.139 -2.59141 0.7141 0
M  V30 9641 C 923.41 -1.81573 3.07841 0
M  V30 9642 S 924.969 -2.60959 3.52769 0
M  V30 9643 H 921.787 -0.329526 0.630027 0
M  V30 9644 H 924.389 -0.247435 1.93928 0
M  V30 9645 H 923.093 -1.18497 3.92921 0
M  V30 9646 H 922.624 -2.59078 2.96044 0
M  V30 9647 H 924.639 -3.83987 3.14275 0
M  V30 9648 N 923.813 -1.49104 -0.510467 0
M  V30 9649 C 924.776 -1.64569 -1.59529 0
M  V30 9650 C 925.776 -0.517937 -1.5223 0
M  V30 9651 O 926.966 -0.784183 -1.55551 0
M  V30 9652 C 924.098 -1.6342 -2.99177 0
M  V30 9653 H 925.291 -2.61318 -1.4715 0
M  V30 9654 H 922.844 -1.37993 -0.734001 0
M  V30 9655 H 923.579 -0.68221 -3.17043 0
M  V30 9656 H 923.364 -2.45312 -3.05883 0
M  V30 9657 H 924.854 -1.77474 -3.78011 0
M  V30 9658 N 925.291 0.760815 -1.38019 0
M  V30 9659 C 926.201 1.90526 -1.36884 0
M  V30 9660 C 927.217 1.71941 -0.266908 0
M  V30 9661 O 928.393 1.94988 -0.50413 0
M  V30 9662 C 925.458 3.25799 -1.18558 0
M  V30 9663 C 924.519 3.56961 -2.3849 0
M  V30 9664 C 923.752 4.8578 -2.21029 0
M  V30 9665 O 923.975 5.57629 -1.20023 0
M  V30 9666 O 922.909 5.16254 -3.0946 0
M  V30 9667 H 926.735 1.94437 -2.33298 0
M  V30 9668 H 924.32 0.905091 -1.18863 0
M  V30 9669 H 926.202 4.0669 -1.1037 0
M  V30 9670 H 924.877 3.22716 -0.252241 0
M  V30 9671 H 923.784 2.7626 -2.52252 0
M  V30 9672 H 925.117 3.64798 -3.30429 0
M  V30 9673 N 926.769 1.22769 0.988202 0
M  V30 9674 C 928.015 1.05665 1.73097 0
M  V30 9675 C 928.348 -0.406615 1.89895 0
M  V30 9676 O 927.623 -1.30132 1.44554 0
M  V30 9677 C 927.906 1.77381 3.13382 0
M  V30 9678 C 927.759 3.31332 3.04203 0
M  V30 9679 C 929.078 1.52999 4.12649 0
M  V30 9680 H 926.197 0.385258 0.628288 0
M  V30 9681 H 928.839 1.51171 1.15097 0
M  V30 9682 H 926.989 1.38696 3.62899 0
M  V30 9683 H 928.661 3.79489 2.6227 0
M  V30 9684 H 926.904 3.60767 2.40894 0
M  V30 9685 H 927.575 3.76692 4.03493 0
M  V30 9686 H 930.051 1.86611 3.71908 0
M  V30 9687 H 928.927 2.05666 5.08913 0
M  V30 9688 H 929.188 0.463615 4.39662 0
M  V30 9689 N 928.247 -1.18576 1.03814 0
M  V30 9690 C 929.494 -1.88493 0.740036 0
M  V30 9691 C 929.822 -1.80198 -0.732056 0
M  V30 9692 O 929.077 -1.19509 -1.54971 0
M  V30 9693 C 929.376 -3.38448 1.14837 0
M  V30 9694 C 929.042 -3.66947 2.62031 0
M  V30 9695 C 927.704 -3.74435 3.02244 0
M  V30 9696 C 930.056 -3.79534 3.57217 0
M  V30 9697 C 927.384 -3.91986 4.36536 0
M  V30 9698 C 929.736 -3.986 4.91223 0
M  V30 9699 C 928.4 -4.04323 5.31111 0
M  V30 9700 H 927.67 -0.689746 0.270798 0
M  V30 9701 H 930.317 -1.40364 1.3027 0
M  V30 9702 H 928.622 -3.88539 0.504472 0
M  V30 9703 H 930.319 -3.90882 0.89511 0
M  V30 9704 H 926.909 -3.61734 2.29883 0
M  V30 9705 H 931.093 -3.73083 3.27296 0
M  V30 9706 H 926.349 -3.9466 4.66962 0
M  V30 9707 H 930.523 -4.07281 5.64885 0
M  V30 9708 H 928.15 -4.17676 6.35178 0
M  V30 9709 N 929.725 -0.817259 -1.34754 0
M  V30 9710 C 930.953 -0.415451 -2.02686 0
M  V30 9711 C 931.368 0.97688 -1.61563 0
M  V30 9712 O 930.725 1.63125 -0.818321 0
M  V30 9713 C 930.776 -0.501486 -3.58005 0
M  V30 9714 O 930.497 -1.83893 -3.97637 0
M  V30 9715 C 931.998 -0.0938504 -4.43201 0
M  V30 9716 H 929.218 -0.16742 -0.649778 0
M  V30 9717 H 931.762 -1.10384 -1.7215 0
M  V30 9718 H 929.917 0.138766 -3.87151 0
M  V30 9719 H 930.331 -1.8092 -4.92309 0
M  V30 9720 H 931.805 -0.205145 -5.51619 0
M  V30 9721 H 932.282 0.962011 -4.28535 0
M  V30 9722 H 932.888 -0.707677 -4.19371 0
M  V30 9723 N 931.203 1.46865 -0.571711 0
M  V30 9724 C 932.431 2.06818 -0.0583975 0
M  V30 9725 C 932.846 1.42218 1.24175 0
M  V30 9726 O 932.203 0.523655 1.74826 0
M  V30 9727 C 932.254 3.61281 0.125673 0
M  V30 9728 O 931.975 4.23462 -1.123 0
M  V30 9729 C 933.476 4.38137 0.674604 0
M  V30 9730 H 930.696 0.668948 -0.052438 0
M  V30 9731 H 933.24 1.88656 -0.789251 0
M  V30 9732 H 931.395 3.78908 0.806707 0
M  V30 9733 H 931.809 5.16192 -0.929869 0
M  V30 9734 H 933.283 5.46845 0.752626 0
M  V30 9735 H 933.76 4.05419 1.68915 0
M  V30 9736 H 934.366 4.2529 0.0287979 0
M  V30 9737 N 932.681 0.308908 1.54543 0
M  V30 9738 C 933.611 -0.556657 2.26768 0
M  V30 9739 C 934.592 -1.13145 1.27013 0
M  V30 9740 O 935.777 -1.15931 1.558 0
M  V30 9741 C 932.907 -1.72481 3.01443 0
M  V30 9742 C 931.861 -1.28001 4.08411 0
M  V30 9743 C 931.187 -2.53395 4.70845 0
M  V30 9744 C 932.487 -0.405497 5.20724 0
M  V30 9745 H 934.181 0.0457618 2.99365 0
M  V30 9746 H 931.727 0.0234495 1.43981 0
M  V30 9747 H 933.68 -2.3365 3.50693 0
M  V30 9748 H 932.404 -2.35359 2.26437 0
M  V30 9749 H 931.063 -0.69133 3.60022 0
M  V30 9750 H 930.711 -3.14604 3.92471 0
M  V30 9751 H 930.411 -2.2433 5.43093 0
M  V30 9752 H 931.935 -3.15352 5.22863 0
M  V30 9753 H 933.349 -0.923076 5.6582 0
M  V30 9754 H 931.746 -0.208282 5.99738 0
M  V30 9755 H 932.816 0.567412 4.81569 0
M  V30 9756 N 934.159 -1.57557 0.0367827 0
M  V30 9757 C 935.384 -1.96828 -0.653707 0
M  V30 9758 C 935.809 -0.913559 -1.64425 0
M  V30 9759 O 935.167 0.124749 -1.8087 0
M  V30 9760 C 935.215 -3.35189 -1.32969 0
M  V30 9761 O 934.319 -3.32095 -2.44513 0
M  V30 9762 H 933.66 -0.64157 -0.171124 0
M  V30 9763 H 936.19 -2.04351 0.100912 0
M  V30 9764 H 936.2 -3.71593 -1.68472 0
M  V30 9765 H 934.875 -4.11496 -0.603654 0
M  V30 9766 H 933.452 -3.07418 -2.11065 0
M  V30 9767 N 935.637 0.236453 -1.55816 0
M  V30 9768 C 936.883 0.964439 -1.784 0
M  V30 9769 C 937.216 1.84573 -0.603868 0
M  V30 9770 O 936.491 1.90395 0.397473 0
M  V30 9771 C 936.774 1.81608 -3.10951 0
M  V30 9772 C 936.627 0.962283 -4.39386 0
M  V30 9773 C 937.946 2.79665 -3.39817 0
M  V30 9774 H 935.065 0.349192 -0.649026 0
M  V30 9775 H 937.707 0.234247 -1.8855 0
M  V30 9776 H 935.857 2.43864 -3.02428 0
M  V30 9777 H 937.529 0.35762 -4.59912 0
M  V30 9778 H 935.772 0.267062 -4.32977 0
M  V30 9779 H 936.443 1.59222 -5.28538 0
M  V30 9780 H 938.919 2.27546 -3.4837 0
M  V30 9781 H 937.795 3.36367 -4.33761 0
M  V30 9782 H 938.056 3.56657 -2.61244 0
M  V30 9783 N 937.115 1.49373 0.502552 0
M  V30 9784 C 938.343 1.62488 1.28084 0
M  V30 9785 C 938.758 0.295667 1.86471 0
M  V30 9786 O 938.115 -0.718664 1.67754 0
M  V30 9787 C 938.166 2.69249 2.4122 0
M  V30 9788 O 937.887 3.97014 1.85234 0
M  V30 9789 C 939.388 2.93054 3.32617 0
M  V30 9790 H 936.608 0.547068 0.388533 0
M  V30 9791 H 939.152 1.95394 0.603452 0
M  V30 9792 H 937.307 2.39125 3.04792 0
M  V30 9793 H 937.721 4.55809 2.59496 0
M  V30 9794 H 939.195 3.71493 4.08285 0
M  V30 9795 H 939.672 2.02911 3.89517 0
M  V30 9796 H 940.278 3.24589 2.74813 0
M  V30 9797 N 938.594 -0.753485 1.38421 0
M  V30 9798 C 939.541 -1.86723 1.35659 0
M  V30 9799 C 940.511 -1.64648 0.219121 0
M  V30 9800 O 941.696 -1.86313 0.411366 0
M  V30 9801 C 938.836 -3.24023 1.18758 0
M  V30 9802 C 937.949 -3.57928 2.41892 0
M  V30 9803 C 937.084 -4.84532 2.17721 0
M  V30 9804 C 936.123 -5.11224 3.36626 0
M  V30 9805 N 935.26 -6.29023 3.11889 0
M  V30 9806 H 940.1 -1.88419 2.30873 0
M  V30 9807 H 937.637 -0.920934 1.14705 0
M  V30 9808 H 939.595 -4.03252 1.06974 0
M  V30 9809 H 938.225 -3.21654 0.27182 0
M  V30 9810 H 937.277 -2.73541 2.64347 0
M  V30 9811 H 938.589 -3.73581 3.30513 0
M  V30 9812 H 937.743 -5.71704 2.03074 0
M  V30 9813 H 936.482 -4.71018 1.26465 0
M  V30 9814 H 935.487 -4.2252 3.51791 0
M  V30 9815 H 936.712 -5.26635 4.28757 0
M  V30 9816 H 934.658 -6.16832 2.2328 0
M  V30 9817 H 934.575 -6.45177 3.9406 0
M  V30 9818 H 935.843 -7.19083 3.00898 0
M  V30 9819 N 940.072 -1.23292 -0.981677 0
M  V30 9820 C 941.488 -0.995295 -1.24764 0
M  V30 9821 C 941.688 0.304379 -1.99188 0
M  V30 9822 O 940.744 1.02414 -2.30798 0
M  V30 9823 C 942.057 -2.20135 -2.04844 0
M  V30 9824 C 943.605 -2.24612 -2.17988 0
M  V30 9825 C 944.08 -3.448 -3.01458 0
M  V30 9826 N 945.571 -3.45031 -3.09044 0
M  V30 9827 C 946.306 -4.34683 -3.7395 0
M  V30 9828 N 945.802 -5.34569 -4.4069 0
M  V30 9829 N 947.595 -4.22429 -3.70823 0
M  V30 9830 H 939.746 -2.06834 -0.483052 0
M  V30 9831 H 942.009 -0.906929 -0.276014 0
M  V30 9832 H 941.715 -3.14446 -1.57532 0
M  V30 9833 H 941.589 -2.21115 -3.05594 0
M  V30 9834 H 943.976 -1.30841 -2.64508 0
M  V30 9835 H 944.057 -2.27664 -1.16631 0
M  V30 9836 H 943.701 -4.38877 -2.55635 0
M  V30 9837 H 943.631 -3.38988 -4.02982 0
M  V30 9838 H 946.122 -2.72759 -2.61555 0
M  V30 9839 H 946.435 -5.99236 -4.87991 0
M  V30 9840 H 944.78 -5.3847 -4.39403 0
M  V30 9841 H 947.971 -3.43639 -3.17851 0
M  V30 9842 H 948.144 -4.92501 -4.21126 0
M  V30 9843 N 941.55 1.18024 -1.04442 0
M  V30 9844 C 942.775 1.92573 -0.770097 0
M  V30 9845 C 943.2 1.75871 0.667169 0
M  V30 9846 O 942.558 1.07136 1.46258 0
M  V30 9847 C 942.606 3.41904 -1.14602 0
M  V30 9848 O 941.71 4.11491 -0.273712 0
M  V30 9849 H 941.051 0.600636 -0.283076 0
M  V30 9850 H 943.581 1.49645 -1.39526 0
M  V30 9851 H 943.591 3.92623 -1.10956 0
M  V30 9852 H 942.266 3.53382 -2.19304 0
M  V30 9853 H 940.843 3.71059 -0.370124 0
M  V30 9854 N 943.028 0.824394 1.34319 0
M  V30 9855 C 944.276 0.41235 1.97849 0
M  V30 9856 C 944.597 -1.02841 1.65677 0
M  V30 9857 O 943.867 -1.71421 0.948245 0
M  V30 9858 H 942.447 0.149486 0.73189 0
M  V30 9859 H 945.109 1.05416 1.63931 0
M  V30 9860 H 944.205 0.532557 3.07523 0
M  V30 9861 N 944.506 -1.46559 0.579492 0
M  V30 9862 C 945.469 -2.28739 -0.145371 0
M  V30 9863 C 946.469 -1.38211 -0.821854 0
M  V30 9864 O 947.659 -1.6062 -0.674302 0
M  V30 9865 C 944.791 -3.18507 -1.21515 0
M  V30 9866 H 945.984 -2.94301 0.576786 0
M  V30 9867 H 943.537 -1.52616 0.337327 0
M  V30 9868 H 944.272 -2.57685 -1.96899 0
M  V30 9869 H 944.057 -3.85157 -0.734616 0
M  V30 9870 H 945.547 -3.80369 -1.72363 0
M  V30 9871 N 945.984 -0.3171 -1.54377 0
M  V30 9872 C 947.209 0.292311 -2.0533 0
M  V30 9873 C 947.634 1.45503 -1.19207 0
M  V30 9874 O 946.992 1.80197 -0.199721 0
M  V30 9875 C 947.04 0.710787 -3.53525 0
M  V30 9876 O 946.144 1.81387 -3.70368 0
M  V30 9877 H 945.485 0.0539976 -0.661801 0
M  V30 9878 H 948.015 -0.463629 -1.99278 0
M  V30 9879 H 948.025 0.995216 -3.95676 0
M  V30 9880 H 946.7 -0.139668 -4.15665 0
M  V30 9881 H 945.277 1.52875 -3.40123 0
M  V30 9882 N 947.462 1.57535 -0.0451378 0
M  V30 9883 C 948.711 1.91628 0.629415 0
M  V30 9884 C 949.024 0.924754 1.72359 0
M  V30 9885 O 950.23 1.15751 2.45589 0
M  V30 9886 C 948.686 3.40322 1.17084 0
M  V30 9887 C 948.294 4.47867 0.109101 0
M  V30 9888 C 950.038 3.83458 1.82099 0
M  V30 9889 C 947.945 5.87671 0.663072 0
M  V30 9890 H 946.875 0.715163 0.238868 0
M  V30 9891 H 949.526 1.83151 -0.113046 0
M  V30 9892 H 947.908 3.43783 1.96543 0
M  V30 9893 H 949.082 4.55988 -0.664201 0
M  V30 9894 H 947.397 4.14034 -0.443227 0
M  V30 9895 H 949.994 4.85273 2.2453 0
M  V30 9896 H 950.337 3.19379 2.67026 0
M  V30 9897 H 950.87 3.82488 1.09305 0
M  V30 9898 H 947.609 6.55332 -0.148423 0
M  V30 9899 H 947.129 5.83124 1.4045 0
M  V30 9900 H 948.808 6.36737 1.14785 0
M  V30 9901 N 948.94 -0.228186 1.55939 0
M  V30 9902 C 949.87 -1.28607 1.94891 0
M  V30 9903 C 950.851 -1.49236 0.816245 0
M  V30 9904 O 952.036 -1.61531 1.07803 0
M  V30 9905 C 949.166 -2.63719 2.25986 0
M  V30 9906 C 948.12 -2.57757 3.4168 0
M  V30 9907 C 947.446 -3.96837 3.58364 0
M  V30 9908 C 948.746 -2.13116 4.76843 0
M  V30 9909 H 950.44 -0.962531 2.83506 0
M  V30 9910 H 947.986 -0.461577 1.36402 0
M  V30 9911 H 949.939 -3.37878 2.51826 0
M  V30 9912 H 948.663 -2.97747 1.34217 0
M  V30 9913 H 947.322 -1.86055 3.15878 0
M  V30 9914 H 946.97 -4.28162 2.63982 0
M  V30 9915 H 946.67 -3.93731 4.36176 0
M  V30 9916 H 948.194 -4.72668 3.86545 0
M  V30 9917 H 949.608 -2.77015 5.01932 0
M  V30 9918 H 948.005 -2.21083 5.57891 0
M  V30 9919 H 949.075 -1.08326 4.72645 0
M  V30 9920 N 950.418 -1.49637 -0.494624 0
M  V30 9921 C 951.35 -1.62902 -1.61231 0
M  V30 9922 C 952.363 -0.511425 -1.54558 0
M  V30 9923 O 953.552 -0.783724 -1.60375 0
M  V30 9924 C 950.652 -1.57564 -3.00045 0
M  V30 9925 C 949.825 -2.84964 -3.31835 0
M  V30 9926 C 948.884 -2.72591 -4.5009 0
M  V30 9927 O 947.91 -3.46532 -4.51558 0
M  V30 9928 N 949.112 -1.84563 -5.50379 0
M  V30 9929 H 951.877 -2.59301 -1.50276 0
M  V30 9930 H 949.438 -1.46806 -0.68262 0
M  V30 9931 H 951.43 -1.46932 -3.77085 0
M  V30 9932 H 950 -0.689974 -3.0489 0
M  V30 9933 H 949.22 -3.099 -2.4363 0
M  V30 9934 H 950.508 -3.69412 -3.49875 0
M  V30 9935 H 949.906 -1.23758 -5.51997 0
M  V30 9936 H 948.463 -1.79849 -6.26496 0
M  V30 9937 N 951.896 0.746133 -1.38819 0
M  V30 9938 C 952.859 1.84167 -1.36437 0
M  V30 9939 C 953.859 1.58626 -0.263499 0
M  V30 9940 O 955.049 1.66233 -0.520801 0
M  V30 9941 C 952.181 3.21769 -1.12596 0
M  V30 9942 H 953.374 1.87684 -2.33912 0
M  V30 9943 H 950.927 0.948625 -1.24221 0
M  V30 9944 H 951.662 3.23917 -0.15758 0
M  V30 9945 H 951.447 3.41702 -1.92307 0
M  V30 9946 H 952.937 4.0184 -1.13643 0
M  V30 9947 N 953.375 1.23811 0.975125 0
M  V30 9948 C 954.623 1.07124 1.71373 0
M  V30 9949 C 954.944 -0.391864 1.91022 0
M  V30 9950 O 954.214 -1.28041 1.48265 0
M  V30 9951 H 952.794 0.393415 0.635007 0
M  V30 9952 H 955.456 1.55612 1.17349 0
M  V30 9953 H 954.552 1.56338 2.7012 0
M  V30 9954 N 954.853 -1.17469 1.05066 0
M  V30 9955 C 956.093 -1.89382 0.769012 0
M  V30 9956 C 956.457 -1.79126 -0.691217 0
M  V30 9957 O 957.658 -2.45845 -1.08692 0
M  V30 9958 C 955.929 -3.35397 1.23465 0
M  V30 9959 S 957.488 -4.25297 1.08018 0
M  V30 9960 H 954.306 -0.653839 0.279312 0
M  V30 9961 H 956.908 -1.41877 1.34503 0
M  V30 9962 H 955.612 -3.40395 2.29258 0
M  V30 9963 H 955.143 -3.87945 0.652853 0
M  V30 9964 H 957.158 -4.962 0.00358573 0
M  V30 9965 N 956.331 -0.831506 -1.3388 0
M  V30 9966 C 957.571 -0.429648 -1.99833 0
M  V30 9967 C 957.935 0.990796 -1.6446 0
M  V30 9968 O 959.136 1.49599 -2.23324 0
M  V30 9969 C 957.407 -0.635558 -3.51704 0
M  V30 9970 Se 958.966 -0.327824 -4.37574 0
M  V30 9971 H 955.784 -0.161939 -0.692313 0
M  V30 9972 H 958.386 -1.07919 -1.63015 0
M  V30 9973 H 957.09 -1.66887 -3.74936 0
M  V30 9974 H 956.621 0.0284073 -3.9339 0
M  V30 9975 H 958.636 0.855231 -4.88774 0
M  V30 9976 N 957.809 1.4625 -0.587256 0
M  V30 9977 C 959.057 2.01963 -0.0744273 0
M  V30 9978 C 959.378 1.46065 1.29189 0
M  V30 9979 O 958.648 0.647077 1.84905 0
M  V30 9980 H 957.228 0.746597 -0.0245236 0
M  V30 9981 H 959.89 1.79299 -0.764063 0
M  V30 9982 H 958.986 3.12099 -0.00884894 0
M  V30 9983 O 959.326 0.46743 1.54588 0
M  V30 9984 H 960.017 -0.0588145 1.93611 0
M  V30 END ATOM
M  V30 BEGIN BOND
M  V30 END BOND
M  V30 END CTAB
M  END
$$$$
