drugbank_target|O15399 Glutamate receptor ionotropic, NMDA 2D (DB00193; DB00289; DB00312; DB00333; DB00418; DB00843; DB00874; DB01174; DB01708; DB04896; DB06738; DB11823)
 OpenBabel12092119313D

  0  0  0     0  0            999 V3000
M  V30 BEGIN CTAB
M  V30 COUNTS 20125 20457 0 0 0
M  V30 BEGIN ATOM
M  V30 1 H -0.908 1.98254 -0.117106 0
M  V30 2 N 0 1.576 0 0
M  V30 3 C 0.933 2.03868 1.02534 0
M  V30 4 C 1.911 0.928543 1.3348 0
M  V30 5 O 3.095 1.19667 1.45644 0
M  V30 6 C 0.222 2.43627 2.35294 0
M  V30 7 C -0.732 3.65373 2.2001 0
M  V30 8 S 0.101 5.13292 1.52614 0
M  V30 9 C 1.257 5.56322 2.86805 0
M  V30 10 H 1.49 2.90518 0.631377 0
M  V30 11 H -0.977 1.52953 0.210867 0
M  V30 12 H 0.981 2.67203 3.11629 0
M  V30 13 H -0.358 1.57376 2.7183 0
M  V30 14 H -1.165 3.90944 3.18086 0
M  V30 15 H -1.563 3.418 1.51819 0
M  V30 16 H 0.729 5.58782 3.83104 0
M  V30 17 H 1.672 6.56266 2.65933 0
M  V30 18 H 2.08 4.83886 2.90714 0
M  V30 19 N 1.4781 -0.272755 1.55222 0
M  V30 20 C 2.8941 -0.619959 1.47067 0
M  V30 21 C 3.0941 -1.895 0.684978 0
M  V30 22 O 2.1501 -2.51675 0.203931 0
M  V30 23 C 3.4631 -0.746693 2.91282 0
M  V30 24 C 5.0111 -0.840731 3.01497 0
M  V30 25 C 5.4861 -0.99924 4.46967 0
M  V30 26 N 6.9771 -1.06476 4.50796 0
M  V30 27 C 7.7121 -1.20621 5.6057 0
M  V30 28 N 7.2081 -1.31483 6.80209 0
M  V30 29 N 9.0011 -1.23733 5.48312 0
M  V30 30 H 1.1521 0.564606 2.04758 0
M  V30 31 H 3.4151 0.191177 0.928523 0
M  V30 32 H 3.1211 0.119753 3.51496 0
M  V30 33 H 2.9951 -1.6269 3.40311 0
M  V30 34 H 5.3821 -1.69764 2.41379 0
M  V30 35 H 5.4631 0.0640874 2.5572 0
M  V30 36 H 5.1071 -0.146984 5.07687 0
M  V30 37 H 5.0371 -1.91871 4.90401 0
M  V30 38 H 7.5281 -0.993196 3.64615 0
M  V30 39 H 7.8411 -1.42111 7.59621 0
M  V30 40 H 6.1861 -1.28487 6.8302 0
M  V30 41 H 9.3771 -1.14877 4.53785 0
M  V30 42 H 9.5501 -1.34412 6.33906 0
M  V30 43 N 2.9562 -1.48159 -0.537278 0
M  V30 44 C 4.2042 -1.55497 -1.29094 0
M  V30 45 C 4.5252 -0.227454 -1.93669 0
M  V30 46 O 3.7952 0.750386 -1.80959 0
M  V30 47 H 2.3752 -0.572832 -0.47945 0
M  V30 48 H 5.0372 -1.84579 -0.625818 0
M  V30 49 H 4.1332 -2.33216 -2.07405 0
M  V30 50 N 4.4343 0.785586 -1.36625 0
M  V30 51 C 5.3973 1.87999 -1.31107 0
M  V30 52 C 6.3973 1.59316 -0.217959 0
M  V30 53 O 7.5873 1.67656 -0.472977 0
M  V30 54 C 4.7193 3.24861 -1.03334 0
M  V30 55 H 5.9123 1.94307 -2.2844 0
M  V30 56 H 3.4653 0.983813 -1.21453 0
M  V30 57 H 4.2003 3.24235 -0.0647432 0
M  V30 58 H 3.9853 3.4707 -1.82441 0
M  V30 59 H 5.4753 4.04929 -1.02088 0
M  V30 60 N 5.9124 1.20967 1.01018 0
M  V30 61 C 7.1604 1.02172 1.74371 0
M  V30 62 C 7.4814 -0.446414 1.89821 0
M  V30 63 O 6.7514 -1.32234 1.44537 0
M  V30 64 H 5.3314 0.375066 0.646014 0
M  V30 65 H 7.9934 1.52187 1.21758 0
M  V30 66 H 7.0894 1.48538 2.74487 0
M  V30 67 N 7.3905 -1.2043 1.01659 0
M  V30 68 C 8.6385 -1.89423 0.704522 0
M  V30 69 C 8.9595 -1.79231 -0.768197 0
M  V30 70 O 8.2295 -1.1947 -1.55254 0
M  V30 71 H 6.8095 -0.701178 0.257602 0
M  V30 72 H 9.4715 -1.4626 1.28818 0
M  V30 73 H 8.5675 -2.96052 0.987916 0
M  V30 74 N 8.8686 -0.792821 -1.36206 0
M  V30 75 C 10.2796 -0.429513 -1.81692 0
M  V30 76 C 10.6306 1.04695 -1.65932 0
M  V30 77 O 9.7556 1.81256 -1.18218 0
M  V30 78 C 10.3506 -0.772831 -3.29868 0
M  V30 79 C 8.9096 -0.462307 -3.7355 0
M  V30 80 C 8.0566 -1.00569 -2.5842 0
M  V30 81 H 11.0076 -0.985672 -1.24379 0
M  V30 82 H 11.0286 -0.0651928 -3.80444 0
M  V30 83 H 10.5406 -1.84747 -3.41307 0
M  V30 84 H 8.6416 0.604158 -3.67669 0
M  V30 85 H 8.7546 -0.985299 -4.68859 0
M  V30 86 H 7.1186 -0.428734 -2.51066 0
M  V30 87 H 7.9016 -2.08616 -2.72643 0
M  V30 88 N 10.3467 1.47872 -0.545128 0
M  V30 89 C 11.7627 1.5829 -0.204032 0
M  V30 90 C 11.9627 1.54529 1.29317 0
M  V30 91 O 11.0187 1.44232 2.07252 0
M  V30 92 C 12.3317 2.89304 -0.819987 0
M  V30 93 C 13.8797 3.02864 -0.790105 0
M  V30 94 C 14.3547 4.3656 -1.38491 0
M  V30 95 N 15.8457 4.43165 -1.34755 0
M  V30 96 C 16.5807 5.45153 -1.77753 0
M  V30 97 N 16.0767 6.54016 -2.2855 0
M  V30 98 N 17.8697 5.36125 -1.68897 0
M  V30 99 H 10.0207 1.4856 -1.51802 0
M  V30 100 H 12.2837 0.706305 -0.632327 0
M  V30 101 H 11.9897 2.97757 -1.87173 0
M  V30 102 H 11.8637 3.75957 -0.305915 0
M  V30 103 H 14.2507 2.94014 0.252913 0
M  V30 104 H 14.3317 2.17782 -1.34181 0
M  V30 105 H 13.9757 4.46164 -2.42693 0
M  V30 106 H 13.9057 5.20353 -0.808754 0
M  V30 107 H 16.3967 3.65083 -0.975855 0
M  V30 108 H 16.7097 7.27994 -2.59314 0
M  V30 109 H 15.0547 6.54938 -2.32553 0
M  V30 110 H 18.2457 4.49975 -1.28998 0
M  V30 111 H 18.4187 6.15472 -2.02726 0
M  V30 112 N 11.8248 0.280983 1.55075 0
M  V30 113 C 13.0728 -0.333455 1.9933 0
M  V30 114 C 13.3938 -1.55937 1.17085 0
M  V30 115 O 12.6638 -1.94143 0.261805 0
M  V30 116 H 11.2438 -0.126197 0.736263 0
M  V30 117 H 13.9058 0.387678 1.91005 0
M  V30 118 H 13.0018 -0.619292 3.05894 0
M  V30 119 N 13.3029 -1.57598 0.00835791 0
M  V30 120 C 14.7139 -1.7892 -0.53333 0
M  V30 121 C 15.0649 -0.916609 -1.73473 0
M  V30 122 O 14.1899 -0.121336 -2.1606 0
M  V30 123 C 14.7849 -3.24488 -0.974313 0
M  V30 124 C 13.3439 -3.46878 -1.46125 0
M  V30 125 C 12.4909 -2.74157 -0.416302 0
M  V30 126 H 15.4419 -1.56958 0.234495 0
M  V30 127 H 15.4629 -3.3306 -1.83988 0
M  V30 128 H 14.9749 -3.87972 -0.099718 0
M  V30 129 H 13.0759 -2.8862 -2.35646 0
M  V30 130 H 13.1889 -4.55572 -1.48295 0
M  V30 131 H 11.5529 -2.39022 -0.87981 0
M  V30 132 H 12.3359 -3.40345 0.44947 0
M  V30 133 N 14.781 0.264519 -1.55364 0
M  V30 134 C 16.197 0.61215 -1.47394 0
M  V30 135 C 16.397 1.89134 -0.695018 0
M  V30 136 O 15.453 2.51563 -0.217275 0
M  V30 137 C 16.766 0.731235 -2.91674 0
M  V30 138 C 18.314 0.82473 -3.01939 0
M  V30 139 C 18.789 0.975522 -4.4749 0
M  V30 140 N 20.28 1.04083 -4.51354 0
M  V30 141 C 21.015 1.17646 -5.61201 0
M  V30 142 N 20.511 1.27874 -6.80896 0
M  V30 143 N 22.304 1.20823 -5.48961 0
M  V30 144 H 14.455 -0.575456 -2.04456 0
M  V30 145 H 16.718 -0.196099 -0.927496 0
M  V30 146 H 16.424 -0.138392 -3.51428 0
M  V30 147 H 16.298 1.60883 -3.41169 0
M  V30 148 H 18.685 1.68482 -2.42276 0
M  V30 149 H 18.766 -0.0776479 -2.55682 0
M  V30 150 H 18.41 0.120058 -5.07758 0
M  V30 151 H 18.34 1.89268 -4.91412 0
M  V30 152 H 20.831 0.973846 -3.65136 0
M  V30 153 H 21.144 1.38081 -7.60364 0
M  V30 154 H 19.489 1.24863 -6.83692 0
M  V30 155 H 22.68 1.12469 -4.54388 0
M  V30 156 H 22.853 1.31049 -6.3461 0
M  V30 157 N 16.2591 1.48442 0.529413 0
M  V30 158 C 17.5071 1.56179 1.28267 0
M  V30 159 C 17.8281 0.237721 1.93546 0
M  V30 160 O 17.0981 -0.740779 1.81354 0
M  V30 161 H 15.6781 0.575367 0.476405 0
M  V30 162 H 18.3401 1.84909 0.61602 0
M  V30 163 H 17.4361 2.34312 2.06165 0
M  V30 164 N 17.7372 -0.778329 1.37039 0
M  V30 165 C 19.1482 -1.35421 1.28523 0
M  V30 166 C 19.4992 -1.96075 -0.0700901 0
M  V30 167 O 18.6242 -1.93352 -0.971801 0
M  V30 168 C 19.2192 -2.46211 2.32735 0
M  V30 169 C 17.7782 -2.99585 2.27873 0
M  V30 170 C 16.9252 -1.72748 2.16918 0
M  V30 171 H 19.8762 -0.5791 1.47757 0
M  V30 172 H 19.8972 -3.2552 1.9702 0
M  V30 173 H 19.4092 -2.02036 3.31365 0
M  V30 174 H 17.5102 -3.48152 1.32745 0
M  V30 175 H 17.6232 -3.55646 3.21018 0
M  V30 176 H 15.9872 -1.95416 1.63354 0
M  V30 177 H 16.7702 -1.30686 3.17452 0
M  V30 178 N 19.2153 -1.21501 -1.00376 0
M  V30 179 C 20.1783 -0.976927 -2.07337 0
M  V30 180 C 21.1783 0.0525322 -1.60714 0
M  V30 181 O 22.3683 -0.184869 -1.73216 0
M  V30 182 C 19.5003 -0.473423 -3.37597 0
M  V30 183 H 20.6933 -1.92587 -2.29892 0
M  V30 184 H 18.2463 -1.03217 -1.17371 0
M  V30 185 H 18.9813 0.480379 -3.20722 0
M  V30 186 H 18.7663 -1.216 -3.72768 0
M  V30 187 H 20.2563 -0.32675 -4.1632 0
M  V30 188 N 20.6934 1.19889 -1.02296 0
M  V30 189 C 21.6404 2.22901 -0.598651 0
M  V30 190 C 22.6104 1.61588 0.384521 0
M  V30 191 O 23.7954 1.88697 0.282522 0
M  V30 192 C 20.9354 3.45063 0.0504476 0
M  V30 193 C 20.0484 4.20783 -0.978053 0
M  V30 194 C 19.1834 5.30356 -0.299338 0
M  V30 195 C 18.2224 5.97826 -1.31416 0
M  V30 196 N 17.3594 6.98975 -0.661667 0
M  V30 197 H 22.1994 2.58554 -1.48169 0
M  V30 198 H 19.7364 1.27039 -0.741584 0
M  V30 199 H 21.6944 4.14831 0.443971 0
M  V30 200 H 20.3244 3.10084 0.897097 0
M  V30 201 H 19.3764 3.50018 -1.48969 0
M  V30 202 H 20.6884 4.67109 -1.74958 0
M  V30 203 H 19.8424 6.06516 0.149347 0
M  V30 204 H 18.5814 4.85084 0.504445 0
M  V30 205 H 17.5864 5.20422 -1.77317 0
M  V30 206 H 18.8114 6.45183 -2.11933 0
M  V30 207 H 16.7574 6.55886 0.122132 0
M  V30 208 H 16.6744 7.43461 -1.37117 0
M  V30 209 H 17.9424 7.7914 -0.236785 0
M  V30 210 N 22.1715 0.800033 1.35784 0
M  V30 211 C 23.1045 0.151499 2.27697 0
M  V30 212 C 24.0825 -0.678663 1.4776 0
M  V30 213 O 25.2665 -0.647358 1.77035 0
M  V30 214 C 22.3935 -0.790492 3.29346 0
M  V30 215 C 21.4395 -0.0407832 4.26481 0
M  V30 216 S 22.2725 1.29077 5.19711 0
M  V30 217 C 23.4285 0.353055 6.24903 0
M  V30 218 H 23.6615 0.930796 2.82353 0
M  V30 219 H 21.1945 0.594767 1.42485 0
M  V30 220 H 23.1525 -1.3285 3.88409 0
M  V30 221 H 21.8135 -1.54312 2.73581 0
M  V30 222 H 21.0065 -0.755971 4.98298 0
M  V30 223 H 20.6085 0.427063 3.71554 0
M  V30 224 H 22.9005 -0.464147 6.75908 0
M  V30 225 H 23.8435 1.04023 7.00418 0
M  V30 226 H 24.2515 -0.0483344 5.64479 0
M  V30 227 N 23.6496 -1.47581 0.552962 0
M  V30 228 C 24.5796 -2.32762 -0.185451 0
M  V30 229 C 25.5606 -1.43527 -0.912905 0
M  V30 230 O 26.7456 -1.72388 -0.894201 0
M  V30 231 C 23.8756 -3.25219 -1.21859 0
M  V30 232 C 22.8296 -4.23661 -0.607864 0
M  V30 233 C 22.1556 -5.05413 -1.74533 0
M  V30 234 C 23.4556 -5.20481 0.435582 0
M  V30 235 H 25.1496 -2.94749 0.525684 0
M  V30 236 H 22.6956 -1.41738 0.254251 0
M  V30 237 H 24.6486 -3.8365 -1.7433 0
M  V30 238 H 23.3726 -2.61279 -1.95961 0
M  V30 239 H 22.0316 -3.66451 -0.104489 0
M  V30 240 H 21.6796 -4.3788 -2.47529 0
M  V30 241 H 21.3796 -5.72059 -1.34249 0
M  V30 242 H 22.9036 -5.66701 -2.27338 0
M  V30 243 H 24.3176 -5.733 -0.00290157 0
M  V30 244 H 22.7146 -5.95305 0.757067 0
M  V30 245 H 23.7846 -4.66217 1.33303 0
M  V30 246 N 25.1277 -0.289203 -1.54924 0
M  V30 247 C 26.0577 0.58549 -2.2604 0
M  V30 248 C 27.0387 1.14753 -1.25562 0
M  V30 249 O 28.2237 1.17906 -1.54311 0
M  V30 250 C 25.3537 1.76305 -2.99222 0
M  V30 251 C 24.3077 1.33191 -4.06748 0
M  V30 252 C 23.6337 2.5937 -4.6758 0
M  V30 253 C 24.9337 0.471775 -5.20165 0
M  V30 254 H 26.6277 -0.00763532 -2.99399 0
M  V30 255 H 24.1737 -0.00511229 -1.43999 0
M  V30 256 H 26.1267 2.38097 -3.47689 0
M  V30 257 H 24.8507 2.38223 -2.23422 0
M  V30 258 H 23.5097 0.737121 -3.59113 0
M  V30 259 H 23.1577 3.19576 -3.88433 0
M  V30 260 H 22.8577 2.31228 -5.40192 0
M  V30 261 H 24.3817 3.21985 -5.18804 0
M  V30 262 H 25.7957 0.995056 -5.64599 0
M  V30 263 H 24.1927 0.284639 -5.99425 0
M  V30 264 H 25.2627 -0.506041 -4.82252 0
M  V30 265 N 26.6058 1.57591 -0.0167156 0
M  V30 266 C 27.5358 2.12496 0.967858 0
M  V30 267 C 28.5168 1.03807 1.34752 0
M  V30 268 O 29.7018 1.31577 1.42833 0
M  V30 269 C 26.8318 2.64194 2.25431 0
M  V30 270 C 25.7858 3.77559 2.01576 0
M  V30 271 C 25.1118 4.15636 3.36379 0
M  V30 272 C 26.4118 5.04151 1.36489 0
M  V30 273 H 28.1058 2.95013 0.510643 0
M  V30 274 H 25.6518 1.41915 0.244181 0
M  V30 275 H 27.6048 3.01236 2.94678 0
M  V30 276 H 26.3288 1.78821 2.73296 0
M  V30 277 H 24.9878 3.40937 1.34751 0
M  V30 278 H 24.6358 3.27263 3.81979 0
M  V30 279 H 24.3358 4.92022 3.21229 0
M  V30 280 H 25.8598 4.5525 4.06915 0
M  V30 281 H 27.2738 5.38857 1.95718 0
M  V30 282 H 25.6708 5.85453 1.31776 0
M  V30 283 H 26.7408 4.83733 0.336219 0
M  V30 284 N 28.0839 -0.256276 1.55502 0
M  V30 285 C 29.0139 -1.32102 1.92539 0
M  V30 286 C 29.9949 -1.50684 0.789194 0
M  V30 287 O 31.1799 -1.63449 1.04872 0
M  V30 288 C 28.3099 -2.67752 2.21192 0
M  V30 289 C 27.2639 -2.63878 3.36975 0
M  V30 290 C 26.5899 -4.03236 3.51147 0
M  V30 291 C 27.8899 -2.21682 4.72921 0
M  V30 292 H 29.5839 -1.01351 2.81724 0
M  V30 293 H 27.1299 -0.486105 1.35547 0
M  V30 294 H 29.0829 -3.42365 2.45691 0
M  V30 295 H 27.8069 -3.0012 1.28824 0
M  V30 296 H 26.4659 -1.91722 3.12471 0
M  V30 297 H 26.1139 -4.32854 2.56216 0
M  V30 298 H 25.8139 -4.01535 4.29003 0
M  V30 299 H 27.3379 -4.79563 3.77957 0
M  V30 300 H 28.7519 -2.86023 4.96854 0
M  V30 301 H 27.1489 -2.3111 5.53812 0
M  V30 302 H 28.2189 -1.16833 4.70615 0
M  V30 303 N 29.562 -1.4872 -0.521534 0
M  V30 304 C 30.525 -1.63379 -1.60748 0
M  V30 305 C 31.525 -0.50661 -1.52611 0
M  V30 306 O 32.715 -0.772601 -1.5613 0
M  V30 307 C 29.847 -1.61192 -3.00383 0
M  V30 308 H 31.04 -2.60217 -1.49087 0
M  V30 309 H 28.593 -1.37444 -0.744235 0
M  V30 310 H 29.328 -0.65863 -3.17541 0
M  V30 311 H 29.113 -2.43032 -3.07698 0
M  V30 312 H 30.603 -1.7466 -3.7932 0
M  V30 313 N 31.0401 0.771051 -1.3745 0
M  V30 314 C 31.9701 1.89827 -1.3597 0
M  V30 315 C 32.9511 1.68562 -0.228216 0
M  V30 316 O 34.1361 1.8941 -0.428675 0
M  V30 317 C 31.2661 3.2712 -1.16662 0
M  V30 318 C 30.2201 3.6295 -2.2683 0
M  V30 319 C 29.5461 4.98791 -1.92644 0
M  V30 320 C 30.8461 3.69627 -3.69017 0
M  V30 321 H 32.5401 1.91323 -2.30295 0
M  V30 322 H 30.0861 0.919082 -1.10855 0
M  V30 323 H 32.0391 4.05615 -1.14256 0
M  V30 324 H 30.7631 3.26059 -0.187926 0
M  V30 325 H 29.4221 2.86763 -2.28392 0
M  V30 326 H 29.0701 4.94271 -0.933021 0
M  V30 327 H 28.7701 5.23733 -2.66416 0
M  V30 328 H 30.2941 5.79685 -1.91826 0
M  V30 329 H 31.7081 4.38273 -3.69581 0
M  V30 330 H 30.1051 4.06067 -4.41848 0
M  V30 331 H 31.1751 2.70273 -4.02592 0
M  V30 332 N 32.5182 1.22032 0.997298 0
M  V30 333 C 33.4812 0.987909 2.06816 0
M  V30 334 C 34.4812 -0.0440084 1.6074 0
M  V30 335 O 35.6712 0.194053 1.73116 0
M  V30 336 C 32.8032 0.49132 3.37341 0
M  V30 337 H 33.9962 1.93803 2.28868 0
M  V30 338 H 31.5492 1.03838 1.16822 0
M  V30 339 H 32.2842 -0.463364 3.20973 0
M  V30 340 H 32.0692 1.23575 3.72118 0
M  V30 341 H 33.5592 0.348824 4.16141 0
M  V30 342 N 33.9963 -1.19345 1.0293 0
M  V30 343 C 35.2363 -1.90738 0.734727 0
M  V30 344 C 35.6003 -1.7785 -0.723414 0
M  V30 345 O 36.8013 -2.43844 -1.13108 0
M  V30 346 C 35.0723 -3.37569 1.17396 0
M  V30 347 S 36.6313 -4.27176 1.00329 0
M  V30 348 H 33.4493 -0.658771 0.267474 0
M  V30 349 H 36.0513 -1.4428 1.31922 0
M  V30 350 H 34.7553 -3.44475 2.23081 0
M  V30 351 H 34.2863 -3.8906 0.582772 0
M  V30 352 H 36.3013 -4.96126 -0.0859152 0
M  V30 353 N 35.4744 -0.807222 -1.35358 0
M  V30 354 C 36.4374 -0.223665 -2.28106 0
M  V30 355 C 37.4374 0.589354 -1.4961 0
M  V30 356 O 38.6274 0.407745 -1.69361 0
M  V30 357 C 35.7594 0.688149 -3.33882 0
M  V30 358 H 36.9524 -1.04169 -2.81227 0
M  V30 359 H 34.5054 -0.577921 -1.45223 0
M  V30 360 H 35.2404 1.52984 -2.85948 0
M  V30 361 H 35.0254 0.10687 -3.91954 0
M  V30 362 H 36.5154 1.09075 -4.03104 0
M  V30 363 N 36.9525 1.47285 -0.560781 0
M  V30 364 C 38.1775 2.07359 -0.0410566 0
M  V30 365 C 38.6025 1.41017 1.24483 0
M  V30 366 O 37.9605 0.486368 1.74654 0
M  V30 367 C 38.0085 3.6035 0.134123 0
M  V30 368 O 37.1125 3.94681 1.19587 0
M  V30 369 H 36.4535 0.661887 -0.0529291 0
M  V30 370 H 38.9835 1.89252 -0.777482 0
M  V30 371 H 38.9935 4.0652 0.347207 0
M  V30 372 H 37.6685 4.08034 -0.805047 0
M  V30 373 H 36.2455 3.60251 0.962987 0
M  V30 374 N 38.4306 0.297415 1.54768 0
M  V30 375 C 39.8416 -0.195947 1.85669 0
M  V30 376 C 40.1926 -1.53707 1.21937 0
M  V30 377 O 39.3176 -2.10164 0.515754 0
M  V30 378 C 39.9126 -0.362318 3.36857 0
M  V30 379 C 38.4716 -0.799901 3.67802 0
M  V30 380 C 37.6186 0.0938578 2.77141 0
M  V30 381 H 40.5696 0.518538 1.4999 0
M  V30 382 H 40.5906 -1.19745 3.61167 0
M  V30 383 H 40.1026 0.613921 3.83214 0
M  V30 384 H 38.2036 -1.78682 3.26961 0
M  V30 385 H 38.3166 -0.621773 4.75048 0
M  V30 386 H 36.6806 -0.426254 2.51108 0
M  V30 387 H 37.4636 1.06639 3.26318 0
M  V30 388 N 39.9087 -1.5758 0.0250728 0
M  V30 389 C 41.1557 -1.91633 -0.654444 0
M  V30 390 C 41.4837 -0.901103 -1.72367 0
M  V30 391 O 40.7387 0.0905647 -1.9549 0
M  V30 392 C 41.0377 -3.32421 -1.31268 0
M  V30 393 C 40.7037 -4.49344 -0.374223 0
M  V30 394 C 39.3657 -4.8106 -0.115911 0
M  V30 395 C 41.7177 -5.20498 0.270432 0
M  V30 396 C 39.0457 -5.8129 0.79493 0
M  V30 397 C 41.3977 -6.21699 1.1693 0
M  V30 398 C 40.0617 -6.51859 1.43655 0
M  V30 399 H 39.3317 -0.701236 -0.239478 0
M  V30 400 H 41.9787 -1.91307 0.0859734 0
M  V30 401 H 40.2837 -3.28989 -2.12775 0
M  V30 402 H 41.9807 -3.56038 -1.84494 0
M  V30 403 H 38.5707 -4.24579 -0.58573 0
M  V30 404 H 42.7547 -4.96229 0.0839194 0
M  V30 405 H 38.0107 -6.03005 1.00973 0
M  V30 406 H 42.1847 -6.75955 1.67504 0
M  V30 407 H 39.8117 -7.2934 2.144 0
M  V30 408 N 41.3868 0.248026 -1.55636 0
M  V30 409 C 42.7978 0.817177 -1.67866 0
M  V30 410 C 43.1488 1.86069 -0.622322 0
M  V30 411 O 42.2738 2.15157 0.231618 0
M  V30 412 C 42.8688 1.489 -3.04326 0
M  V30 413 C 41.4278 2.00587 -3.185 0
M  V30 414 C 40.5748 0.856573 -2.63739 0
M  V30 415 H 43.5258 0.0238579 -1.58682 0
M  V30 416 H 43.5468 2.35698 -2.98708 0
M  V30 417 H 43.0588 0.729279 -3.81186 0
M  V30 418 H 41.1598 2.79443 -2.4646 0
M  V30 419 H 41.2728 2.20402 -4.25393 0
M  V30 420 H 39.6368 1.25678 -2.21534 0
M  V30 421 H 40.4198 0.109953 -3.43124 0
M  V30 422 N 42.8649 1.48995 0.513639 0
M  V30 423 C 43.7749 1.67443 1.64317 0
M  V30 424 C 44.7909 0.556947 1.64846 0
M  V30 425 O 45.9669 0.830082 1.83498 0
M  V30 426 C 43.0319 1.72515 3.00732 0
M  V30 427 C 42.0929 2.96009 3.1093 0
M  V30 428 C 41.3259 3.00829 4.40837 0
M  V30 429 O 41.5489 2.13594 5.28898 0
M  V30 430 O 40.4829 3.93168 4.55744 0
M  V30 431 H 44.3089 2.63106 1.51687 0
M  V30 432 H 41.8939 1.32588 0.688543 0
M  V30 433 H 43.7759 1.78277 3.81831 0
M  V30 434 H 42.4509 0.800278 3.13651 0
M  V30 435 H 41.3579 2.9577 2.29065 0
M  V30 436 H 42.6909 3.87934 3.02933 0
M  V30 437 N 44.343 -0.763751 1.37857 0
M  V30 438 C 45.253 -1.90817 1.36478 0
M  V30 439 C 46.269 -1.71997 0.263248 0
M  V30 440 O 47.445 -1.95095 0.499979 0
M  V30 441 C 44.51 -3.2605 1.17864 0
M  V30 442 C 43.571 -3.57467 2.3773 0
M  V30 443 C 42.804 -4.86249 2.19995 0
M  V30 444 O 43.027 -5.57884 1.18836 0
M  V30 445 O 41.961 -5.16911 3.08361 0
M  V30 446 H 45.787 -1.94933 2.32884 0
M  V30 447 H 43.372 -0.907619 1.1867 0
M  V30 448 H 45.254 -4.06924 1.09504 0
M  V30 449 H 43.929 -3.22769 0.245372 0
M  V30 450 H 42.836 -2.76796 2.51664 0
M  V30 451 H 44.169 -3.655 3.29652 0
M  V30 452 N 45.8211 -1.22559 -0.990812 0
M  V30 453 C 46.7841 -0.998863 -2.0629 0
M  V30 454 C 47.7841 0.0354834 -1.60761 0
M  V30 455 O 48.9741 -0.203231 -1.7301 0
M  V30 456 C 46.1061 -0.509203 -3.37076 0
M  V30 457 H 47.2991 -1.95014 -2.27837 0
M  V30 458 H 44.8521 -1.04456 -1.16269 0
M  V30 459 H 45.5871 0.446335 -3.21214 0
M  V30 460 H 45.3721 -1.25547 -3.71457 0
M  V30 461 H 46.8621 -0.370888 -4.1595 0
M  V30 462 N 47.2992 1.18797 -1.03562 0
M  V30 463 C 48.7102 1.70322 -0.764676 0
M  V30 464 C 49.0612 1.82708 0.714996 0
M  V30 465 O 48.1862 1.50299 1.55689 0
M  V30 466 C 48.7812 3.09356 -1.38145 0
M  V30 467 C 47.3402 3.58114 -1.15895 0
M  V30 468 C 46.4872 2.34798 -1.4753 0
M  V30 469 H 49.4382 1.03543 -1.20268 0
M  V30 470 H 49.4592 3.72378 -0.781977 0
M  V30 471 H 48.9712 3.00309 -2.45837 0
M  V30 472 H 47.0722 3.72464 -0.100544 0
M  V30 473 H 47.1852 4.4184 -1.8524 0
M  V30 474 H 45.5492 2.38464 -0.894829 0
M  V30 475 H 46.3322 2.28375 -2.56319 0
M  V30 476 N 48.7773 0.814389 1.34928 0
M  V30 477 C 50.0253 0.397636 1.9815 0
M  V30 478 C 50.3463 -1.04069 1.64908 0
M  V30 479 O 49.6163 -1.72121 0.93548 0
M  V30 480 H 48.1963 0.144043 0.732981 0
M  V30 481 H 50.8583 1.04195 1.6471 0
M  V30 482 H 49.9543 0.509688 3.0791 0
M  V30 483 N 50.2554 -1.46986 0.568584 0
M  V30 484 C 51.6664 -1.86188 0.138219 0
M  V30 485 C 52.0174 -1.47388 -1.29504 0
M  V30 486 O 51.1424 -0.88219 -1.97602 0
M  V30 487 C 51.7374 -3.3792 0.244065 0
M  V30 488 C 50.2964 -3.76171 -0.131335 0
M  V30 489 C 49.4434 -2.71027 0.586465 0
M  V30 490 H 52.3944 -1.38342 0.777645 0
M  V30 491 H 52.4154 -3.76729 -0.534351 0
M  V30 492 H 51.9274 -3.66128 1.28731 0
M  V30 493 H 50.0284 -3.5358 -1.17526 0
M  V30 494 H 50.1414 -4.78523 0.235146 0
M  V30 495 H 48.5054 -2.54684 0.0282722 0
M  V30 496 H 49.2884 -3.02077 1.63109 0
M  V30 497 N 51.7335 -0.305618 -1.54608 0
M  V30 498 C 52.9815 0.301701 -1.99835 0
M  V30 499 C 53.3025 1.54054 -1.19551 0
M  V30 500 O 52.5725 1.93702 -0.292658 0
M  V30 501 H 51.1525 0.114468 -0.738178 0
M  V30 502 H 53.8145 -0.418016 -1.90364 0
M  V30 503 H 52.9105 0.570548 -3.06841 0
M  V30 504 N 53.2116 1.57565 -0.0334293 0
M  V30 505 C 54.4596 1.91598 0.642999 0
M  V30 506 C 54.7806 0.910847 1.7242 0
M  V30 507 O 54.0506 -0.0469931 1.95844 0
M  V30 508 H 52.6306 0.707228 0.240496 0
M  V30 509 H 55.2926 1.94726 -0.0822488 0
M  V30 510 H 54.3886 2.92336 1.09298 0
M  V30 511 N 54.6897 -0.239769 1.55765 0
M  V30 512 C 55.6527 -1.28038 1.90103 0
M  V30 513 C 56.6527 -1.40723 0.778055 0
M  V30 514 O 57.8427 -1.39301 1.04599 0
M  V30 515 C 54.9747 -2.65702 2.13577 0
M  V30 516 H 56.1677 -0.988048 2.83157 0
M  V30 517 H 53.7207 -0.479382 1.48767 0
M  V30 518 H 54.4557 -3.00063 1.23015 0
M  V30 519 H 54.2407 -2.57875 2.95369 0
M  V30 520 H 55.7307 -3.40828 2.41301 0
M  V30 521 N 56.1678 -1.49265 -0.50573 0
M  V30 522 C 57.4158 -1.582 -1.25766 0
M  V30 523 C 57.7368 -0.268482 -1.93143 0
M  V30 524 O 57.0068 0.711833 -1.8251 0
M  V30 525 H 55.5868 -0.582873 -0.467191 0
M  V30 526 H 58.2488 -1.85865 -0.586525 0
M  V30 527 H 57.3448 -2.37563 -2.02412 0
M  V30 528 N 57.6459 0.756429 -1.3826 0
M  V30 529 C 58.8939 1.51248 -1.34047 0
M  V30 530 C 59.2149 1.94875 0.0698372 0
M  V30 531 O 58.4849 1.67436 1.01696 0
M  V30 532 H 57.0649 0.561018 -0.493222 0
M  V30 533 H 59.7269 0.899347 -1.7291 0
M  V30 534 H 58.8229 2.40472 -1.98947 0
M  V30 535 N 59.124 1.23083 0.984299 0
M  V30 536 C 60.535 1.05609 1.5396 0
M  V30 537 C 60.886 -0.377793 1.92528 0
M  V30 538 O 60.011 -1.26398 1.75649 0
M  V30 539 C 60.606 1.91087 2.7977 0
M  V30 540 C 59.165 1.77885 3.31713 0
M  V30 541 C 58.312 1.87028 2.04733 0
M  V30 542 H 61.263 1.36802 0.804419 0
M  V30 543 H 61.284 1.43336 3.5247 0
M  V30 544 H 60.796 2.9544 2.51668 0
M  V30 545 H 58.897 0.762995 3.64704 0
M  V30 546 H 59.01 2.61047 4.01735 0
M  V30 547 H 57.374 1.30565 2.18689 0
M  V30 548 H 58.157 2.92929 1.79017 0
M  V30 549 N 60.6021 -1.18246 1.0419 0
M  V30 550 C 61.8501 -1.87886 0.744543 0
M  V30 551 C 62.1711 -1.8082 -0.730006 0
M  V30 552 O 61.4411 -1.22736 -1.52685 0
M  V30 553 H 60.0211 -0.695556 0.272417 0
M  V30 554 H 62.6831 -1.43494 1.31892 0
M  V30 555 H 61.7791 -2.9389 1.05049 0
M  V30 556 N 62.0802 -0.821533 -1.34494 0
M  V30 557 C 63.3282 -0.408139 -1.97936 0
M  V30 558 C 63.6492 1.03193 -1.65457 0
M  V30 559 O 62.9192 1.71622 -0.944595 0
M  V30 560 H 61.4992 -0.147928 -0.732206 0
M  V30 561 H 64.1612 -1.05067 -1.64155 0
M  V30 562 H 63.2572 -0.52601 -3.07635 0
M  V30 563 N 63.5583 1.46682 -0.576371 0
M  V30 564 C 64.8063 2.02013 -0.0594163 0
M  V30 565 C 65.1273 1.45101 1.30271 0
M  V30 566 O 64.3973 0.633317 1.8538 0
M  V30 567 H 62.9773 0.746759 -0.0189745 0
M  V30 568 H 65.6393 1.79862 -0.750717 0
M  V30 569 H 64.7353 3.12097 0.014345 0
M  V30 570 N 65.0364 0.313813 1.54444 0
M  V30 571 C 65.9664 -0.549454 2.26943 0
M  V30 572 C 66.9474 -1.12741 1.27372 0
M  V30 573 O 68.1324 -1.15436 1.56167 0
M  V30 574 C 65.2624 -1.71523 3.01989 0
M  V30 575 C 64.2164 -1.26703 4.08816 0
M  V30 576 C 63.5424 -2.51898 4.71647 0
M  V30 577 C 64.8424 -0.388962 5.2085 0
M  V30 578 H 66.5364 0.0552661 2.99349 0
M  V30 579 H 64.0824 0.0280207 1.43973 0
M  V30 580 H 66.0354 -2.32535 3.51433 0
M  V30 581 H 64.7594 -2.34639 2.27183 0
M  V30 582 H 63.4184 -0.679896 3.6024 0
M  V30 583 H 63.0664 -3.13356 3.93468 0
M  V30 584 H 62.7664 -2.22605 5.43802 0
M  V30 585 H 64.2904 -3.1369 5.23861 0
M  V30 586 H 65.7044 -0.905107 5.6611 0
M  V30 587 H 64.1014 -0.18924 5.99802 0
M  V30 588 H 65.1714 0.582699 4.81386 0
M  V30 589 N 66.5145 -1.57545 0.0417849 0
M  V30 590 C 67.7625 -1.91937 -0.632829 0
M  V30 591 C 68.0835 -0.919978 -1.71934 0
M  V30 592 O 67.3535 0.0366064 -1.95866 0
M  V30 593 H 65.9335 -0.708493 -0.236742 0
M  V30 594 H 68.5955 -1.9468 0.0925745 0
M  V30 595 H 67.6915 -2.92912 -1.07746 0
M  V30 596 N 67.9926 0.231505 -1.5589 0
M  V30 597 C 69.2406 0.955461 -1.78088 0
M  V30 598 C 69.5616 1.85262 -0.608533 0
M  V30 599 O 68.8316 1.92277 0.375035 0
M  V30 600 H 67.4116 0.355787 -0.656829 0
M  V30 601 H 70.0736 0.245751 -1.93344 0
M  V30 602 H 69.1696 1.56814 -2.69844 0
M  V30 603 N 69.4707 1.49531 0.497807 0
M  V30 604 C 70.4337 1.65916 1.58128 0
M  V30 605 C 71.4337 0.530825 1.51786 0
M  V30 606 O 72.6237 0.797342 1.54881 0
M  V30 607 C 69.7557 1.65951 2.9778 0
M  V30 608 H 70.9487 2.62556 1.44929 0
M  V30 609 H 68.5017 1.38611 0.722275 0
M  V30 610 H 69.2367 0.709065 3.16453 0
M  V30 611 H 69.0217 2.47897 3.03792 0
M  V30 612 H 70.5117 1.80673 3.76493 0
M  V30 613 N 70.9488 -0.749086 1.3866 0
M  V30 614 C 72.3648 -1.05276 1.19955 0
M  V30 615 C 72.5648 -2.01435 0.05134 0
M  V30 616 O 71.6208 -2.45232 -0.60147 0
M  V30 617 C 72.9338 -1.62853 2.52783 0
M  V30 618 C 74.4818 -1.75002 2.59506 0
M  V30 619 C 74.9568 -2.35991 3.92521 0
M  V30 620 N 76.4478 -2.43416 3.94085 0
M  V30 621 C 77.1828 -2.91511 4.9377 0
M  V30 622 N 76.6788 -3.39608 6.03853 0
M  V30 623 N 78.4718 -2.90592 4.81157 0
M  V30 624 H 70.6228 -0.111066 2.12109 0
M  V30 625 H 72.8858 -0.111901 0.941373 0
M  V30 626 H 72.5918 -0.99664 3.37283 0
M  V30 627 H 72.4658 -2.61854 2.715 0
M  V30 628 H 74.8528 -2.37317 1.75398 0
M  V30 629 H 74.9338 -0.74693 2.44652 0
M  V30 630 H 74.5778 -1.74308 4.77053 0
M  V30 631 H 74.5078 -3.3695 4.04688 0
M  V30 632 H 76.9988 -2.09405 3.14576 0
M  V30 633 H 77.3118 -3.74775 6.75843 0
M  V30 634 H 75.6568 -3.37653 6.07466 0
M  V30 635 H 78.8478 -2.52332 3.94267 0
M  V30 636 H 79.0208 -3.27762 5.58996 0
M  V30 637 N 72.4269 -1.23603 -0.977757 0
M  V30 638 C 73.8379 -1.06424 -1.53398 0
M  V30 639 C 74.1889 0.367578 -1.92726 0
M  V30 640 O 73.3139 1.25465 -1.76316 0
M  V30 641 C 73.9089 -1.92568 -2.78753 0
M  V30 642 C 72.4679 -1.79642 -3.30765 0
M  V30 643 C 71.6149 -1.88111 -2.03739 0
M  V30 644 H 74.5659 -1.37227 -0.797152 0
M  V30 645 H 74.5869 -1.45203 -3.51705 0
M  V30 646 H 74.0989 -2.96771 -2.50098 0
M  V30 647 H 72.1999 -0.782325 -3.64294 0
M  V30 648 H 72.3129 -2.63174 -4.00345 0
M  V30 649 H 70.6769 -1.31723 -2.17994 0
M  V30 650 H 71.4599 -2.93875 -1.77461 0
M  V30 651 N 73.905 1.17692 -1.04816 0
M  V30 652 C 74.835 2.23777 -0.666791 0
M  V30 653 C 75.816 1.66796 0.33361 0
M  V30 654 O 77.001 1.93039 0.212042 0
M  V30 655 C 74.131 3.47281 -0.0367933 0
M  V30 656 C 73.085 4.17059 -0.961546 0
M  V30 657 C 72.411 5.34342 -0.195626 0
M  V30 658 C 73.711 4.69713 -2.28402 0
M  V30 659 H 75.405 2.55933 -1.55367 0
M  V30 660 H 72.951 1.23019 -0.748484 0
M  V30 661 H 74.904 4.20706 0.241775 0
M  V30 662 H 73.628 3.14381 0.885004 0
M  V30 663 H 72.287 3.45541 -1.22462 0
M  V30 664 H 71.935 4.97692 0.728816 0
M  V30 665 H 71.635 5.81966 -0.811775 0
M  V30 666 H 73.159 6.10553 0.0757473 0
M  V30 667 H 74.573 5.34794 -2.06563 0
M  V30 668 H 72.97 5.279 -2.8538 0
M  V30 669 H 74.04 3.86726 -2.92525 0
M  V30 670 N 75.3831 0.828654 1.34056 0
M  V30 671 C 76.3311 0.242973 2.31327 0
M  V30 672 C 77.3251 -0.61944 1.57668 0
M  V30 673 O 78.5311 -0.51014 1.7262 0
M  V30 674 H 74.9061 0.059834 0.749616 0
M  V30 675 H 76.8771 1.07809 2.78244 0
M  V30 676 C 75.6261 -0.575733 3.429 0
M  V30 677 H 74.9491 0.0785582 3.99723 0
M  V30 678 H 76.3891 -0.951547 4.13185 0
M  V30 679 C 74.8481 -1.75044 2.87856 0
M  V30 680 O 75.3781 -2.84882 2.83205 0
M  V30 681 N 73.5841 -1.56903 2.44602 0
M  V30 682 H 73.1311 -0.675547 2.48584 0
M  V30 683 H 73.0891 -2.35652 2.08124 0
M  V30 684 N 76.8612 -1.46375 0.584142 0
M  V30 685 C 78.1072 -2.02678 0.0703716 0
M  V30 686 C 78.4402 -1.4545 -1.28678 0
M  V30 687 O 77.7152 -0.62014 -1.84349 0
M  V30 688 C 77.9982 -3.60099 0.00614674 0
M  V30 689 C 77.8512 -4.27709 1.3923 0
M  V30 690 C 79.1702 -4.34598 -0.693742 0
M  V30 691 H 76.2892 -0.736504 0.027047 0
M  V30 692 H 78.9312 -1.74501 0.751615 0
M  V30 693 H 77.0812 -3.84236 -0.574009 0
M  V30 694 H 78.7532 -4.14832 2.01773 0
M  V30 695 H 76.9962 -3.87016 1.95962 0
M  V30 696 H 77.6672 -5.36478 1.29982 0
M  V30 697 H 80.1432 -4.15615 -0.200869 0
M  V30 698 H 79.0192 -5.44318 -0.707714 0
M  V30 699 H 79.2802 -4.05759 -1.75533 0
M  V30 700 N 78.3393 -0.321999 -1.54275 0
M  V30 701 C 79.3023 0.531975 -2.22941 0
M  V30 702 C 80.3023 1.04478 -1.22234 0
M  V30 703 O 81.4923 0.937452 -1.46825 0
M  V30 704 C 78.6243 1.73874 -2.93224 0
M  V30 705 H 79.8173 -0.0682612 -2.99822 0
M  V30 706 H 77.3703 -0.0730644 -1.56129 0
M  V30 707 H 78.1053 2.37825 -2.20476 0
M  V30 708 H 77.8903 1.37847 -3.6707 0
M  V30 709 H 79.3803 2.34496 -3.45545 0
M  V30 710 N 79.8174 1.5752 -0.0501392 0
M  V30 711 C 80.7474 2.14502 0.922566 0
M  V30 712 C 81.7284 1.06642 1.3252 0
M  V30 713 O 82.9134 1.34577 1.4001 0
M  V30 714 C 80.0434 2.68916 2.19776 0
M  V30 715 C 78.9974 3.8175 1.93523 0
M  V30 716 C 78.3234 4.22677 3.27487 0
M  V30 717 C 79.6234 5.06932 1.25765 0
M  V30 718 H 81.3174 2.9603 0.447952 0
M  V30 719 H 78.8634 1.42401 0.214024 0
M  V30 720 H 80.8164 3.07419 2.88222 0
M  V30 721 H 79.5404 1.84578 2.69441 0
M  V30 722 H 78.1994 3.43718 1.27489 0
M  V30 723 H 77.8474 3.35291 3.74952 0
M  V30 724 H 77.5474 4.98725 3.1072 0
M  V30 725 H 79.0714 4.63779 3.97166 0
M  V30 726 H 80.4854 5.42888 1.84244 0
M  V30 727 H 78.8824 5.88116 1.19328 0
M  V30 728 H 79.9524 4.84337 0.233536 0
M  V30 729 N 81.2955 -0.223234 1.56011 0
M  V30 730 C 82.5415 -0.949279 1.79211 0
M  V30 731 C 82.8745 -1.84054 0.619494 0
M  V30 732 O 82.1495 -1.90726 -0.381317 0
M  V30 733 C 82.4325 -1.78965 3.12479 0
M  V30 734 C 82.2855 -0.924997 4.40186 0
M  V30 735 C 83.6045 -2.76774 3.42175 0
M  V30 736 H 80.7235 -0.343676 0.651963 0
M  V30 737 H 83.3655 -0.218253 1.88742 0
M  V30 738 H 81.5155 -2.41291 3.04485 0
M  V30 739 H 83.1875 -0.318615 4.60198 0
M  V30 740 H 81.4305 -0.230344 4.33188 0
M  V30 741 H 82.1015 -1.54735 5.29869 0
M  V30 742 H 84.5775 -2.24584 3.50287 0
M  V30 743 H 83.4535 -3.32678 4.36597 0
M  V30 744 H 83.7145 -3.54429 2.64258 0
M  V30 745 N 82.7736 -1.49793 -0.48987 0
M  V30 746 C 84.0206 -1.59841 -1.24327 0
M  V30 747 C 84.3486 -0.290135 -1.92324 0
M  V30 748 O 83.6036 0.722749 -1.81865 0
M  V30 749 C 83.9026 -2.71488 -2.32441 0
M  V30 750 C 83.5686 -4.12614 -1.81826 0
M  V30 751 C 82.2306 -4.51017 -1.67742 0
M  V30 752 C 84.5826 -5.00892 -1.4407 0
M  V30 753 C 81.9106 -5.75459 -1.14297 0
M  V30 754 C 84.2626 -6.25863 -0.920742 0
M  V30 755 C 82.9266 -6.63086 -0.766383 0
M  V30 756 H 82.1966 -0.584899 -0.454944 0
M  V30 757 H 84.8436 -1.83663 -0.542215 0
M  V30 758 H 83.1486 -2.4168 -3.0838 0
M  V30 759 H 84.8456 -2.76469 -2.90458 0
M  V30 760 H 81.4356 -3.82307 -1.93751 0
M  V30 761 H 85.6196 -4.7187 -1.53794 0
M  V30 762 H 80.8756 -6.02989 -1.01068 0
M  V30 763 H 85.0496 -6.9364 -0.619448 0
M  V30 764 H 82.6766 -7.59393 -0.350083 0
M  V30 765 N 84.2517 0.741722 -1.39055 0
M  V30 766 C 85.4767 1.53607 -1.39354 0
M  V30 767 C 85.9017 1.88096 0.0116905 0
M  V30 768 O 85.2597 1.5143 0.996924 0
M  V30 769 C 85.3077 2.80441 -2.26682 0
M  V30 770 O 84.4117 3.76088 -1.69208 0
M  V30 771 H 83.7527 0.464142 -0.474835 0
M  V30 772 H 86.2827 0.915665 -1.82967 0
M  V30 773 H 86.2927 3.29246 -2.40959 0
M  V30 774 H 84.9677 2.5467 -3.2881 0
M  V30 775 H 83.5447 3.34833 -1.64138 0
M  V30 776 N 85.7298 1.2412 0.971189 0
M  V30 777 C 86.9778 1.07668 1.71032 0
M  V30 778 C 87.2988 -0.385797 1.91146 0
M  V30 779 O 86.5688 -1.27569 1.4867 0
M  V30 780 H 85.1488 0.395429 0.633755 0
M  V30 781 H 87.8108 1.55984 1.16855 0
M  V30 782 H 86.9068 1.57195 2.69622 0
M  V30 783 N 87.2079 -1.17134 1.05439 0
M  V30 784 C 88.6189 -1.69084 0.791676 0
M  V30 785 C 88.9699 -1.83822 -0.685839 0
M  V30 786 O 88.0949 -1.52757 -1.53278 0
M  V30 787 C 88.6899 -3.07119 1.4305 0
M  V30 788 C 87.2489 -3.56225 1.21577 0
M  V30 789 C 86.3959 -2.32421 1.51247 0
M  V30 790 H 89.3469 -1.01617 1.219 0
M  V30 791 H 89.3679 -3.71087 0.84112 0
M  V30 792 H 88.8799 -2.9636 2.50584 0
M  V30 793 H 86.9809 -3.72257 0.159787 0
M  V30 794 H 87.0939 -4.38837 1.92246 0
M  V30 795 H 85.4579 -2.3701 0.932653 0
M  V30 796 H 86.2409 -2.24268 2.5992 0
M  V30 797 N 88.686 -0.835752 -1.33615 0
M  V30 798 C 89.649 -0.272 -2.2758 0
M  V30 799 C 90.649 0.557487 -1.50827 0
M  V30 800 O 91.839 0.37173 -1.70188 0
M  V30 801 C 88.971 0.617173 -3.35267 0
M  V30 802 H 90.164 -1.10111 -2.78954 0
M  V30 803 H 87.717 -0.608594 -1.43965 0
M  V30 804 H 88.452 1.46884 -2.89129 0
M  V30 805 H 88.237 0.0237066 -3.92093 0
M  V30 806 H 89.727 1.005 -4.05326 0
M  V30 807 N 90.1641 1.46063 -0.591896 0
M  V30 808 C 91.3941 2.06418 -0.0867676 0
M  V30 809 C 91.8021 1.43975 1.22751 0
M  V30 810 O 91.1451 0.542531 1.75506 0
M  V30 811 C 91.2071 3.59213 0.143725 0
M  V30 812 C 90.8711 4.439 -1.08635 0
M  V30 813 C 91.8681 4.79864 -2.00067 0
M  V30 814 C 89.5531 4.84896 -1.31077 0
M  V30 815 C 91.5471 5.55661 -3.12282 0
M  V30 816 C 89.2341 5.6045 -2.43596 0
M  V30 817 C 90.2321 5.95747 -3.34027 0
M  V30 818 O 89.9201 6.69772 -4.4459 0
M  V30 819 H 89.6521 0.673443 -0.0587447 0
M  V30 820 H 92.2061 1.88539 -0.814994 0
M  V30 821 H 90.4361 3.75433 0.926668 0
M  V30 822 H 92.1251 4.01463 0.5985 0
M  V30 823 H 92.8911 4.48763 -1.83947 0
M  V30 824 H 88.7701 4.56867 -0.61594 0
M  V30 825 H 92.3141 5.8313 -3.82891 0
M  V30 826 H 88.2111 5.90965 -2.59674 0
M  V30 827 H 88.9791 6.88207 -4.43073 0
M  V30 828 N 91.6422 0.330177 1.54103 0
M  V30 829 C 92.6052 -0.520144 2.2322 0
M  V30 830 C 93.6052 -1.03828 1.22786 0
M  V30 831 O 94.7952 -0.929652 1.4732 0
M  V30 832 C 91.9272 -1.72317 2.94142 0
M  V30 833 H 93.1202 0.0841605 2.99782 0
M  V30 834 H 90.6732 0.0813433 1.56088 0
M  V30 835 H 91.4082 -2.36653 2.21734 0
M  V30 836 H 91.1932 -1.35898 3.67796 0
M  V30 837 H 92.6832 -2.3266 3.46784 0
M  V30 838 N 93.1203 -1.57491 0.0584922 0
M  V30 839 C 94.0833 -2.1085 -0.898617 0
M  V30 840 C 95.0833 -1.02964 -1.23511 0
M  V30 841 O 96.2733 -1.29007 -1.17059 0
M  V30 842 C 93.4053 -2.59881 -2.20623 0
M  V30 843 H 94.5983 -2.96715 -0.435936 0
M  V30 844 H 92.1513 -1.55141 -0.190023 0
M  V30 845 H 92.8863 -1.77431 -2.71457 0
M  V30 846 H 92.6713 -3.38727 -1.97501 0
M  V30 847 H 94.1613 -3.01285 -2.89166 0
M  V30 848 N 94.5984 0.214957 -1.56127 0
M  V30 849 C 95.5084 1.28727 -1.96129 0
M  V30 850 C 96.5244 1.50916 -0.866044 0
M  V30 851 O 97.7004 1.63918 -1.17016 0
M  V30 852 C 94.7654 2.61569 -2.27558 0
M  V30 853 C 93.8264 2.47625 -3.50685 0
M  V30 854 C 93.0594 3.74132 -3.80606 0
M  V30 855 O 93.2824 4.77438 -3.12104 0
M  V30 856 O 92.2164 3.70849 -4.74083 0
M  V30 857 H 96.0424 0.977855 -2.87527 0
M  V30 858 H 93.6274 0.418358 -1.43423 0
M  V30 859 H 95.5094 3.40012 -2.48938 0
M  V30 860 H 94.1844 2.92178 -1.39332 0
M  V30 861 H 93.0914 1.67361 -3.34576 0
M  V30 862 H 94.4244 2.21954 -4.39315 0
M  V30 863 N 96.0765 1.50051 0.48192 0
M  V30 864 C 97.0395 1.67584 1.5636 0
M  V30 865 C 98.0395 0.546894 1.51214 0
M  V30 866 O 99.2295 0.813725 1.54026 0
M  V30 867 C 96.3615 1.691 2.96003 0
M  V30 868 H 97.5545 2.64078 1.42136 0
M  V30 869 H 95.1075 1.39369 0.707533 0
M  V30 870 H 95.8425 0.742589 3.15684 0
M  V30 871 H 95.6275 2.51105 3.01146 0
M  V30 872 H 97.1175 1.84656 3.74556 0
M  V30 873 N 97.5546 -0.734337 1.39446 0
M  V30 874 C 98.5176 -1.83004 1.37994 0
M  V30 875 C 99.5176 -1.58397 0.276938 0
M  V30 876 O 100.708 -1.65785 0.534875 0
M  V30 877 C 97.8396 -3.20802 1.1532 0
M  V30 878 H 99.0326 -1.85694 2.35494 0
M  V30 879 H 96.5856 -0.938059 1.25021 0
M  V30 880 H 97.3206 -3.23772 0.185036 0
M  V30 881 H 97.1056 -3.4006 1.95197 0
M  V30 882 H 98.5956 -4.00862 1.17046 0
M  V30 883 N 99.0327 -1.24633 -0.964593 0
M  V30 884 C 100.449 -1.01239 -1.2338 0
M  V30 885 C 100.649 0.2769 -1.99588 0
M  V30 886 O 99.7047 0.992241 -2.32187 0
M  V30 887 C 101.018 -2.22937 -2.01791 0
M  V30 888 C 102.566 -2.27594 -2.14872 0
M  V30 889 C 103.041 -3.48921 -2.96678 0
M  V30 890 N 104.532 -3.49257 -3.04259 0
M  V30 891 C 105.267 -4.39795 -3.67924 0
M  V30 892 N 104.763 -5.40591 -4.33281 0
M  V30 893 N 106.556 -4.275 -3.64966 0
M  V30 894 H 98.7067 -2.0748 -0.454502 0
M  V30 895 H 100.97 -0.910647 -0.26349 0
M  V30 896 H 100.676 -3.16587 -1.53184 0
M  V30 897 H 100.55 -2.25306 -3.02518 0
M  V30 898 H 102.937 -1.34473 -2.6268 0
M  V30 899 H 103.018 -2.2925 -1.13482 0
M  V30 900 H 102.662 -4.42359 -2.49562 0
M  V30 901 H 102.592 -3.4451 -3.98272 0
M  V30 902 H 105.083 -2.76337 -2.57771 0
M  V30 903 H 105.396 -6.05904 -4.79687 0
M  V30 904 H 103.741 -5.44475 -4.3194 0
M  V30 905 H 106.932 -3.47987 -3.13086 0
M  V30 906 H 107.105 -4.98258 -4.14298 0
M  V30 907 N 100.511 1.16574 -1.06058 0
M  V30 908 C 101.441 2.23057 -0.690488 0
M  V30 909 C 102.422 1.67141 0.315901 0
M  V30 910 O 103.607 1.93253 0.191556 0
M  V30 911 C 100.737 3.47222 -0.073625 0
M  V30 912 C 99.6908 4.16016 -1.00573 0
M  V30 913 C 99.0168 5.34104 -0.252289 0
M  V30 914 C 100.317 4.67264 -2.33371 0
M  V30 915 H 102.011 2.54271 -1.58072 0
M  V30 916 H 99.5568 1.22218 -0.76149 0
M  V30 917 H 101.51 4.20939 0.19714 0
M  V30 918 H 100.234 3.15302 0.85161 0
M  V30 919 H 98.8928 3.44223 -1.2612 0
M  V30 920 H 98.5408 4.98437 0.675988 0
M  V30 921 H 98.2408 5.81072 -0.873455 0
M  V30 922 H 99.7648 6.10599 0.0109857 0
M  V30 923 H 101.179 5.32573 -2.12223 0
M  V30 924 H 99.5758 5.24843 -2.90963 0
M  V30 925 H 100.646 3.83602 -2.96611 0
M  V30 926 N 101.989 0.842826 1.3317 0
M  V30 927 C 103.237 0.439577 1.97262 0
M  V30 928 C 103.558 -1.00548 1.67078 0
M  V30 929 O 102.828 -1.70098 0.971779 0
M  V30 930 H 101.408 0.159558 0.72976 0
M  V30 931 H 104.07 1.07665 1.62463 0
M  V30 932 H 103.166 0.574886 3.0676 0
M  V30 933 N 103.467 -1.45747 0.599634 0
M  V30 934 C 104.878 -1.85853 0.177681 0
M  V30 935 C 105.229 -1.50102 -1.26348 0
M  V30 936 O 104.354 -0.923905 -1.95686 0
M  V30 937 C 104.949 -3.37326 0.315688 0
M  V30 938 C 103.508 -3.76365 -0.0515144 0
M  V30 939 C 102.655 -2.69722 0.643822 0
M  V30 940 H 105.606 -1.36661 0.806814 0
M  V30 941 H 105.627 -3.77778 -0.454321 0
M  V30 942 H 105.139 -3.63315 1.36468 0
M  V30 943 H 103.24 -3.55993 -1.09999 0
M  V30 944 H 103.353 -4.77916 0.336594 0
M  V30 945 H 101.717 -2.54567 0.0822881 0
M  V30 946 H 102.5 -2.98549 1.6948 0
M  V30 947 N 104.945 -0.338344 -1.53925 0
M  V30 948 C 105.908 0.508299 -2.23493 0
M  V30 949 C 106.908 1.03175 -1.23335 0
M  V30 950 O 108.098 0.921826 -1.47811 0
M  V30 951 C 105.23 1.70754 -2.95052 0
M  V30 952 H 106.423 -0.100058 -2.99733 0
M  V30 953 H 103.976 -0.0896198 -1.56043 0
M  V30 954 H 104.711 2.35474 -2.22986 0
M  V30 955 H 104.496 1.33946 -3.68512 0
M  V30 956 H 105.986 2.30818 -3.48013 0
M  V30 957 N 106.423 1.57458 -0.0668435 0
M  V30 958 C 107.669 1.93587 0.6043 0
M  V30 959 C 108.002 0.946722 1.69561 0
M  V30 960 O 107.277 -0.0248516 1.94484 0
M  V30 961 C 107.56 3.40014 1.18585 0
M  V30 962 C 107.413 4.49685 0.101529 0
M  V30 963 C 108.732 3.87154 2.09284 0
M  V30 964 H 105.851 0.703958 0.218202 0
M  V30 965 H 108.493 1.89542 -0.131804 0
M  V30 966 H 106.643 3.43592 1.81319 0
M  V30 967 H 108.315 4.5823 -0.531279 0
M  V30 968 H 106.558 4.30059 -0.568487 0
M  V30 969 H 107.229 5.49266 0.54874 0
M  V30 970 H 109.705 3.85551 1.56491 0
M  V30 971 H 108.581 4.90231 2.46911 0
M  V30 972 H 108.842 3.2481 2.99918 0
M  V30 973 N 107.901 -0.206675 1.56239 0
M  V30 974 C 108.864 -1.23976 1.92776 0
M  V30 975 C 109.864 -1.39041 0.807729 0
M  V30 976 O 111.054 -1.37051 1.0753 0
M  V30 977 C 108.186 -2.61112 2.19165 0
M  V30 978 H 109.379 -0.927764 2.85189 0
M  V30 979 H 106.932 -0.447718 1.4975 0
M  V30 980 H 107.667 -2.97386 1.29352 0
M  V30 981 H 107.452 -2.51552 3.00772 0
M  V30 982 H 108.942 -3.35633 2.48476 0
M  V30 983 N 109.379 -1.50304 -0.473955 0
M  V30 984 C 110.342 -1.6841 -1.55469 0
M  V30 985 C 111.342 -0.554905 -1.50922 0
M  V30 986 O 112.532 -0.821882 -1.53593 0
M  V30 987 C 109.664 -1.70667 -2.95102 0
M  V30 988 H 110.857 -2.64828 -1.40733 0
M  V30 989 H 108.41 -1.39742 -0.700132 0
M  V30 990 H 109.145 -0.75932 -3.15285 0
M  V30 991 H 108.93 -2.52698 -2.9981 0
M  V30 992 H 110.42 -1.8664 -3.73571 0
M  V30 993 N 110.857 0.726932 -1.39834 0
M  V30 994 C 111.82 1.82269 -1.38962 0
M  V30 995 C 112.82 1.58248 -0.285334 0
M  V30 996 O 114.01 1.65499 -0.54366 0
M  V30 997 C 111.142 3.20186 -1.17019 0
M  V30 998 H 112.335 1.84443 -2.36476 0
M  V30 999 H 109.888 0.931416 -1.25516 0
M  V30 1000 H 110.623 3.23669 -0.202204 0
M  V30 1001 H 110.408 3.3902 -1.96998 0
M  V30 1002 H 111.898 4.00235 -1.1917 0
M  V30 1003 N 112.336 1.25143 0.95797 0
M  V30 1004 C 113.582 1.09855 1.70469 0
M  V30 1005 C 113.915 -0.360187 1.90831 0
M  V30 1006 O 113.19 -1.26568 1.47685 0
M  V30 1007 C 113.473 1.8497 3.08963 0
M  V30 1008 C 113.326 3.38652 2.96032 0
M  V30 1009 C 114.645 1.63016 4.08795 0
M  V30 1010 H 111.764 0.400465 0.618706 0
M  V30 1011 H 114.406 1.53933 1.11376 0
M  V30 1012 H 112.556 1.47505 3.59409 0
M  V30 1013 H 114.228 3.85772 2.52938 0
M  V30 1014 H 112.471 3.66534 2.32025 0
M  V30 1015 H 113.142 3.8642 3.94187 0
M  V30 1016 H 115.618 1.95625 3.67247 0
M  V30 1017 H 114.494 2.18015 5.03747 0
M  V30 1018 H 114.755 0.570692 4.38401 0
M  V30 1019 N 113.814 -1.1601 1.06675 0
M  V30 1020 C 115.23 -1.38622 0.790948 0
M  V30 1021 C 115.43 -1.92109 -0.607965 0
M  V30 1022 O 114.486 -2.12239 -1.36787 0
M  V30 1023 C 115.799 -2.36347 1.85905 0
M  V30 1024 C 117.347 -2.50023 1.88301 0
M  V30 1025 C 117.822 -3.51033 2.94176 0
M  V30 1026 N 119.313 -3.58563 2.93235 0
M  V30 1027 C 120.048 -4.36521 3.71803 0
M  V30 1028 N 119.544 -5.17869 4.602 0
M  V30 1029 N 121.337 -4.31541 3.60178 0
M  V30 1030 H 113.488 -0.796294 1.96908 0
M  V30 1031 H 115.751 -0.412597 0.853503 0
M  V30 1032 H 115.457 -2.04147 2.86386 0
M  V30 1033 H 115.331 -3.36042 1.71334 0
M  V30 1034 H 117.718 -2.81524 0.884769 0
M  V30 1035 H 117.799 -1.5035 2.06951 0
M  V30 1036 H 117.443 -3.20268 3.94196 0
M  V30 1037 H 117.373 -4.50445 2.72776 0
M  V30 1038 H 119.864 -3.00496 2.29152 0
M  V30 1039 H 120.177 -5.74578 5.16797 0
M  V30 1040 H 118.522 -5.17199 4.64253 0
M  V30 1041 H 121.713 -3.67051 2.90502 0
M  V30 1042 H 121.886 -4.9205 4.21653 0
M  V30 1043 N 115.292 -0.849877 -1.32721 0
M  V30 1044 C 116.517 -0.463856 -2.02146 0
M  V30 1045 C 116.942 0.930449 -1.63476 0
M  V30 1046 O 116.3 1.61033 -0.832952 0
M  V30 1047 C 116.348 -0.604955 -3.55489 0
M  V30 1048 O 115.452 0.36425 -4.10788 0
M  V30 1049 H 114.793 -0.187046 -0.637111 0
M  V30 1050 H 117.323 -1.14775 -1.69375 0
M  V30 1051 H 117.333 -0.490696 -4.05038 0
M  V30 1052 H 116.008 -1.62174 -3.82978 0
M  V30 1053 H 114.585 0.206628 -3.72327 0
M  V30 1054 N 116.77 1.45427 -0.607355 0
M  V30 1055 C 118.181 1.85756 -0.187535 0
M  V30 1056 C 118.532 1.5077 1.25551 0
M  V30 1057 O 117.657 0.93427 1.95193 0
M  V30 1058 C 118.252 3.37154 -0.333572 0
M  V30 1059 C 116.811 3.76387 0.0315542 0
M  V30 1060 C 115.958 2.69377 -0.658117 0
M  V30 1061 H 118.909 1.36231 -0.81405 0
M  V30 1062 H 118.93 3.78014 0.43428 0
M  V30 1063 H 118.442 3.62586 -1.38393 0
M  V30 1064 H 116.543 3.56571 1.0811 0
M  V30 1065 H 116.656 4.77731 -0.361935 0
M  V30 1066 H 115.02 2.5452 -0.0957873 0
M  V30 1067 H 115.803 2.97646 -1.7106 0
M  V30 1068 N 118.248 0.346503 1.53744 0
M  V30 1069 C 119.496 -0.248612 2.00565 0
M  V30 1070 C 119.817 -1.5083 1.23593 0
M  V30 1071 O 119.087 -1.92858 0.343912 0
M  V30 1072 H 117.667 -0.0948564 0.740953 0
M  V30 1073 H 120.329 0.468341 1.89189 0
M  V30 1074 H 119.425 -0.488994 3.08245 0
M  V30 1075 N 119.726 -1.57421 0.075193 0
M  V30 1076 C 120.656 -2.15942 -0.888324 0
M  V30 1077 C 121.637 -1.08737 -1.30806 0
M  V30 1078 O 122.822 -1.36787 -1.37851 0
M  V30 1079 C 119.952 -2.72379 -2.1547 0
M  V30 1080 C 118.906 -3.8478 -1.87425 0
M  V30 1081 C 118.232 -4.27834 -3.20721 0
M  V30 1082 C 119.532 -5.08869 -1.17684 0
M  V30 1083 H 121.226 -2.96705 -0.400799 0
M  V30 1084 H 118.772 -1.42723 -0.191342 0
M  V30 1085 H 120.725 -3.11965 -2.83295 0
M  V30 1086 H 119.449 -1.88841 -2.6647 0
M  V30 1087 H 118.108 -3.45703 -1.22004 0
M  V30 1088 H 117.756 -3.41214 -3.6957 0
M  V30 1089 H 117.456 -5.03605 -3.02746 0
M  V30 1090 H 118.98 -4.70039 -3.89738 0
M  V30 1091 H 120.394 -5.4575 -1.75584 0
M  V30 1092 H 118.791 -5.8994 -1.09956 0
M  V30 1093 H 119.861 -4.84648 -0.156453 0
M  V30 1094 N 121.204 0.198386 -1.56346 0
M  V30 1095 C 122.481 0.944982 -1.71258 0
M  V30 1096 C 122.861 2.0151 -0.629048 0
M  V30 1097 O 122.209 2.25639 0.360473 0
M  V30 1098 C 122.419 1.5344 -3.1346 0
M  V30 1099 C 123.767 2.01778 -3.73591 0
M  V30 1100 O 124.791 1.63288 -3.16568 0
M  V30 1101 O 123.65 2.72594 -4.73661 0
M  V30 1102 H 120.744 0.442939 -0.69838 0
M  V30 1103 H 123.29 0.188342 -1.68652 0
M  V30 1104 H 122.062 0.762869 -3.83792 0
M  V30 1105 H 121.685 2.35596 -3.20282 0
M  V30 1106 N 122.682 1.50554 0.465978 0
M  V30 1107 C 123.928 1.62038 1.21949 0
M  V30 1108 C 124.261 0.322116 1.9151 0
M  V30 1109 O 123.536 -0.676723 1.82348 0
M  V30 1110 C 123.819 2.80421 2.25912 0
M  V30 1111 C 123.672 4.20144 1.60622 0
M  V30 1112 C 124.991 2.94354 3.27176 0
M  V30 1113 H 122.11 0.589752 0.441998 0
M  V30 1114 H 124.752 1.82956 0.51257 0
M  V30 1115 H 122.902 2.62717 2.86203 0
M  V30 1116 H 124.574 4.49449 1.03889 0
M  V30 1117 H 122.817 4.24165 0.909211 0
M  V30 1118 H 123.488 4.98914 2.36196 0
M  V30 1119 H 125.964 3.10578 2.76913 0
M  V30 1120 H 124.84 3.788 3.97242 0
M  V30 1121 H 125.101 2.05186 3.916 0
M  V30 1122 N 124.16 -0.719506 1.40217 0
M  V30 1123 C 125.576 -1.02707 1.22161 0
M  V30 1124 C 125.776 -2.0128 0.0940557 0
M  V30 1125 O 124.832 -2.46452 -0.549318 0
M  V30 1126 C 126.145 -1.57454 2.56181 0
M  V30 1127 C 127.693 -1.69458 2.63159 0
M  V30 1128 C 128.168 -2.27611 3.97438 0
M  V30 1129 N 129.659 -2.35002 3.99159 0
M  V30 1130 C 130.394 -2.80972 4.99842 0
M  V30 1131 N 129.89 -3.26723 6.10921 0
M  V30 1132 N 131.683 -2.80321 4.87213 0
M  V30 1133 H 123.834 -0.0660492 2.12297 0
M  V30 1134 H 126.097 -0.0919077 0.943534 0
M  V30 1135 H 125.803 -0.924873 3.39321 0
M  V30 1136 H 125.677 -2.56036 2.76993 0
M  V30 1137 H 128.064 -2.33543 1.80393 0
M  V30 1138 H 128.145 -0.694867 2.46181 0
M  V30 1139 H 127.789 -1.6415 4.80643 0
M  V30 1140 H 127.719 -3.2829 4.11744 0
M  V30 1141 H 130.21 -2.02685 3.18947 0
M  V30 1142 H 130.523 -3.60355 6.8364 0
M  V30 1143 H 128.868 -3.24692 6.14492 0
M  V30 1144 H 132.059 -2.43912 3.9953 0
M  V30 1145 H 132.232 -3.15831 5.65822 0
M  V30 1146 N 125.638 -1.25649 -0.95132 0
M  V30 1147 C 127.049 -1.09654 -1.51106 0
M  V30 1148 C 127.4 0.326615 -1.93462 0
M  V30 1149 O 126.525 1.21697 -1.78938 0
M  V30 1150 C 127.12 -1.98437 -2.74605 0
M  V30 1151 C 125.679 -1.86618 -3.2688 0
M  V30 1152 C 124.826 -1.9239 -1.99703 0
M  V30 1153 H 127.777 -1.38887 -0.767865 0
M  V30 1154 H 127.798 -1.5263 -3.48546 0
M  V30 1155 H 127.31 -3.02009 -2.43746 0
M  V30 1156 H 125.411 -0.859421 -3.62553 0
M  V30 1157 H 125.524 -2.71607 -3.94673 0
M  V30 1158 H 123.888 -1.36317 -2.15151 0
M  V30 1159 H 124.671 -2.97573 -1.71188 0
M  V30 1160 N 127.117 1.15442 -1.07289 0
M  V30 1161 C 128.363 1.86489 -0.796846 0
M  V30 1162 C 128.696 1.82078 0.675371 0
M  V30 1163 O 127.971 1.24346 1.4956 0
M  V30 1164 C 128.254 3.35626 -1.30489 0
M  V30 1165 C 128.107 3.48673 -2.84161 0
M  V30 1166 C 129.426 4.30357 -0.920907 0
M  V30 1167 H 126.545 0.677144 -0.290939 0
M  V30 1168 H 129.187 1.35633 -1.33056 0
M  V30 1169 H 127.337 3.79068 -0.850883 0
M  V30 1170 H 129.009 3.14099 -3.37846 0
M  V30 1171 H 127.252 2.90253 -3.22391 0
M  V30 1172 H 127.923 4.53453 -3.14777 0
M  V30 1173 H 130.399 3.94871 -1.3121 0
M  V30 1174 H 129.275 5.33193 -1.30372 0
M  V30 1175 H 129.536 4.4176 0.173226 0
M  V30 1176 N 128.595 0.856903 1.32268 0
M  V30 1177 C 129.558 0.308171 2.27119 0
M  V30 1178 C 130.558 -0.533421 1.51695 0
M  V30 1179 O 131.748 -0.344607 1.70757 0
M  V30 1180 C 128.88 -0.563757 3.36206 0
M  V30 1181 H 130.073 1.14535 2.77167 0
M  V30 1182 H 127.626 0.631421 1.42978 0
M  V30 1183 H 128.361 -1.42266 2.91429 0
M  V30 1184 H 128.146 0.0386749 3.92081 0
M  V30 1185 H 129.636 -0.940386 4.06874 0
M  V30 1186 N 130.073 -1.45103 0.615059 0
M  V30 1187 C 131.003 -2.33339 -0.0865619 0
M  V30 1188 C 131.984 -1.4727 -0.851209 0
M  V30 1189 O 133.169 -1.76026 -0.820281 0
M  V30 1190 C 130.299 -3.30095 -1.07956 0
M  V30 1191 C 129.253 -4.25858 -0.427628 0
M  V30 1192 C 128.579 -5.12361 -1.5294 0
M  V30 1193 C 129.879 -5.18165 0.655944 0
M  V30 1194 H 131.573 -2.92254 0.650224 0
M  V30 1195 H 129.119 -1.40532 0.314138 0
M  V30 1196 H 131.072 -3.90698 -1.57901 0
M  V30 1197 H 129.796 -2.69355 -1.84703 0
M  V30 1198 H 128.455 -3.66564 0.0510292 0
M  V30 1199 H 128.103 -4.47984 -2.28734 0
M  V30 1200 H 127.803 -5.77238 -1.09865 0
M  V30 1201 H 129.327 -5.75833 -2.03098 0
M  V30 1202 H 130.741 -5.72796 0.240257 0
M  V30 1203 H 129.138 -5.91559 1.00888 0
M  V30 1204 H 130.208 -4.60144 1.52957 0
M  V30 1205 N 131.551 -0.354651 -1.53558 0
M  V30 1206 C 132.797 0.238797 -2.01389 0
M  V30 1207 C 133.13 1.49309 -1.2418 0
M  V30 1208 O 132.405 1.91638 -0.332457 0
M  V30 1209 C 132.688 0.541771 -3.56001 0
M  V30 1210 C 132.541 -0.725388 -4.43912 0
M  V30 1211 C 133.86 1.34685 -4.18984 0
M  V30 1212 H 130.979 0.0853177 -0.732045 0
M  V30 1213 H 133.621 -0.477384 -1.83905 0
M  V30 1214 H 131.771 1.15189 -3.71031 0
M  V30 1215 H 133.443 -1.36313 -4.407 0
M  V30 1216 H 131.686 -1.34801 -4.12324 0
M  V30 1217 H 132.357 -0.468505 -5.50008 0
M  V30 1218 H 134.833 0.830837 -4.07721 0
M  V30 1219 H 133.709 1.52759 -5.27215 0
M  V30 1220 H 133.97 2.35221 -3.74331 0
M  V30 1221 N 133.029 1.57378 -0.0835403 0
M  V30 1222 C 133.959 2.1641 0.87686 0
M  V30 1223 C 134.94 1.09429 1.30228 0
M  V30 1224 O 136.125 1.37516 1.37124 0
M  V30 1225 C 133.255 2.73517 2.14022 0
M  V30 1226 C 132.209 3.85769 1.85381 0
M  V30 1227 C 131.535 4.29529 3.18448 0
M  V30 1228 C 132.835 5.09486 1.14984 0
M  V30 1229 H 134.529 2.96914 0.385059 0
M  V30 1230 H 132.075 1.42823 0.18377 0
M  V30 1231 H 134.028 3.13463 2.81636 0
M  V30 1232 H 132.752 1.90252 2.65465 0
M  V30 1233 H 131.411 3.46345 1.20169 0
M  V30 1234 H 131.059 3.43169 3.67755 0
M  V30 1235 H 130.759 5.05204 3.00071 0
M  V30 1236 H 132.283 4.72099 3.8724 0
M  V30 1237 H 133.697 5.46674 1.72687 0
M  V30 1238 H 132.094 5.90515 1.06826 0
M  V30 1239 H 133.164 4.84724 0.130749 0
M  V30 1240 N 134.507 -0.190092 1.56449 0
M  V30 1241 C 135.455 -1.25501 1.95837 0
M  V30 1242 C 136.449 -1.4685 0.844485 0
M  V30 1243 O 137.655 -1.47651 1.02952 0
M  V30 1244 H 134.03 -0.421447 0.622805 0
M  V30 1245 H 136.001 -0.895821 2.84636 0
M  V30 1246 C 134.75 -2.59124 2.31841 0
M  V30 1247 H 134.073 -2.43514 3.17082 0
M  V30 1248 H 135.513 -3.32371 2.6326 0
M  V30 1249 C 133.972 -3.16488 1.15486 0
M  V30 1250 O 134.502 -3.99365 0.432535 0
M  V30 1251 N 132.708 -2.75305 0.930349 0
M  V30 1252 H 132.255 -2.08013 1.51948 0
M  V30 1253 H 132.213 -3.14024 0.153634 0
M  V30 1254 N 135.985 -1.50799 -0.457987 0
M  V30 1255 C 137.233 -1.62121 -1.2067 0
M  V30 1256 C 137.554 -0.329793 -1.92191 0
M  V30 1257 O 136.824 0.653409 -1.84682 0
M  V30 1258 H 135.404 -0.597441 -0.448411 0
M  V30 1259 H 138.066 -1.87637 -0.527096 0
M  V30 1260 H 137.162 -2.43882 -1.94751 0
M  V30 1261 N 137.463 0.71206 -1.40597 0
M  V30 1262 C 138.688 1.50617 -1.42581 0
M  V30 1263 C 139.113 1.88079 -0.0282102 0
M  V30 1264 O 138.471 1.53511 0.964579 0
M  V30 1265 C 138.519 2.7557 -2.3258 0
M  V30 1266 O 137.623 3.72414 -1.77148 0
M  V30 1267 H 136.964 0.453966 -0.484573 0
M  V30 1268 H 139.494 0.876649 -1.84868 0
M  V30 1269 H 139.504 3.2406 -2.47889 0
M  V30 1270 H 138.179 2.47639 -3.34138 0
M  V30 1271 H 136.756 3.31276 -1.71204 0
M  V30 1272 N 138.941 1.26152 0.944643 0
M  V30 1273 C 140.218 1.02247 1.66748 0
M  V30 1274 C 140.598 -0.448202 2.06287 0
M  V30 1275 O 139.946 -1.42779 1.78399 0
M  V30 1276 C 140.156 1.96788 2.88228 0
M  V30 1277 C 141.504 2.25201 3.59958 0
M  V30 1278 O 142.528 1.94626 2.98327 0
M  V30 1279 O 141.387 2.77242 4.70956 0
M  V30 1280 H 138.481 0.388517 0.730057 0
M  V30 1281 H 141.027 1.37348 0.99668 0
M  V30 1282 H 139.799 2.96047 2.55875 0
M  V30 1283 H 139.422 1.62145 3.63035 0
M  V30 1284 N 140.419 -1.14872 1.07899 0
M  V30 1285 C 141.83 -1.67367 0.827363 0
M  V30 1286 C 142.181 -1.85236 -0.646693 0
M  V30 1287 O 141.306 -1.55974 -1.50004 0
M  V30 1288 C 141.901 -3.04016 1.49532 0
M  V30 1289 C 140.46 -3.53566 1.29106 0
M  V30 1290 C 139.607 -2.29161 1.56143 0
M  V30 1291 H 142.558 -0.990083 1.24028 0
M  V30 1292 H 142.579 -3.69219 0.919643 0
M  V30 1293 H 142.091 -2.90978 2.56814 0
M  V30 1294 H 140.192 -3.71835 0.238713 0
M  V30 1295 H 140.305 -4.34661 2.01511 0
M  V30 1296 H 138.669 -2.34978 0.982717 0
M  V30 1297 H 139.452 -2.18705 2.64619 0
M  V30 1298 N 141.898 -0.863906 -1.31812 0
M  V30 1299 C 143.314 -0.555004 -1.49639 0
M  V30 1300 C 143.514 0.912266 -1.79666 0
M  V30 1301 O 142.57 1.69479 -1.87171 0
M  V30 1302 C 143.883 -1.44998 -2.63431 0
M  V30 1303 C 145.431 -1.45138 -2.77316 0
M  V30 1304 C 145.906 -2.33179 -3.94197 0
M  V30 1305 N 147.397 -2.31025 -4.01474 0
M  V30 1306 C 148.132 -2.95871 -4.9117 0
M  V30 1307 N 147.628 -3.69863 -5.8581 0
M  V30 1308 N 149.421 -2.85211 -4.84367 0
M  V30 1309 H 141.572 -1.81339 -1.10589 0
M  V30 1310 H 143.835 -0.77505 -0.545895 0
M  V30 1311 H 143.541 -2.49377 -2.48 0
M  V30 1312 H 143.415 -1.14409 -3.59431 0
M  V30 1313 H 145.802 -0.415201 -2.92164 0
M  V30 1314 H 145.883 -1.79747 -1.82001 0
M  V30 1315 H 145.527 -3.3687 -3.80107 0
M  V30 1316 H 145.457 -1.95897 -4.88807 0
M  V30 1317 H 147.948 -1.77238 -3.33759 0
M  V30 1318 H 148.261 -4.16486 -6.50968 0
M  V30 1319 H 146.606 -3.73971 -5.85808 0
M  V30 1320 H 149.797 -2.26948 -4.09405 0
M  V30 1321 H 149.97 -3.36027 -5.54066 0
M  V30 1322 N 143.376 1.44774 -0.622745 0
M  V30 1323 C 144.601 2.06999 -0.128968 0
M  V30 1324 C 145.026 1.4617 1.1839 0
M  V30 1325 O 144.384 0.560007 1.72434 0
M  V30 1326 C 144.432 3.60595 -0.0188351 0
M  V30 1327 O 143.536 3.99398 1.02739 0
M  V30 1328 H 142.877 0.659047 -0.0809544 0
M  V30 1329 H 145.407 1.85784 -0.85705 0
M  V30 1330 H 145.417 4.07627 0.174476 0
M  V30 1331 H 144.092 4.04252 -0.977384 0
M  V30 1332 H 142.669 3.64011 0.809326 0
M  V30 1333 N 144.854 0.36279 1.53368 0
M  V30 1334 C 145.784 -0.476976 2.28576 0
M  V30 1335 C 146.765 -1.08631 1.30894 0
M  V30 1336 O 147.95 -1.10409 1.59761 0
M  V30 1337 C 145.08 -1.61828 3.07293 0
M  V30 1338 C 144.034 -1.13633 4.1264 0
M  V30 1339 C 143.36 -2.36766 4.79423 0
M  V30 1340 C 144.66 -0.223061 5.21823 0
M  V30 1341 H 146.354 0.150474 2.99022 0
M  V30 1342 H 143.9 0.0738103 1.43811 0
M  V30 1343 H 145.853 -2.21237 3.58653 0
M  V30 1344 H 144.577 -2.27292 2.34533 0
M  V30 1345 H 143.236 -0.564945 3.62221 0
M  V30 1346 H 142.884 -3.0068 4.03238 0
M  V30 1347 H 142.584 -2.05192 5.50609 0
M  V30 1348 H 144.108 -2.96865 5.33576 0
M  V30 1349 H 145.522 -0.724545 5.68703 0
M  V30 1350 H 143.919 0.001678 6.001 0
M  V30 1351 H 144.989 0.735553 4.79289 0
M  V30 1352 N 146.332 -1.57332 0.0918853 0
M  V30 1353 C 147.578 -1.94524 -0.573425 0
M  V30 1354 C 147.911 -0.973578 -1.68033 0
M  V30 1355 O 147.186 -0.00609226 -1.94499 0
M  V30 1356 C 147.469 -3.41858 -1.13161 0
M  V30 1357 C 147.322 -4.4979 -0.0299747 0
M  V30 1358 C 148.641 -3.90435 -2.03098 0
M  V30 1359 H 145.76 -0.70734 -0.206975 0
M  V30 1360 H 148.402 -1.89309 0.161942 0
M  V30 1361 H 146.552 -3.46433 -1.7583 0
M  V30 1362 H 148.224 -4.57327 0.604112 0
M  V30 1363 H 146.467 -4.291 0.636833 0
M  V30 1364 H 147.138 -5.50069 -0.461287 0
M  V30 1365 H 149.614 -3.87992 -1.50338 0
M  V30 1366 H 148.49 -4.94097 -2.39081 0
M  V30 1367 H 148.751 -3.29541 -2.94712 0
M  V30 1368 N 147.81 0.181792 -1.56548 0
M  V30 1369 C 148.74 1.22765 -1.98623 0
M  V30 1370 C 149.721 1.46747 -0.860189 0
M  V30 1371 O 150.906 1.58259 -1.12551 0
M  V30 1372 C 148.036 2.56894 -2.33715 0
M  V30 1373 C 146.99 2.475 -3.49182 0
M  V30 1374 C 146.316 3.86023 -3.69986 0
M  V30 1375 C 147.616 1.98866 -4.82959 0
M  V30 1376 H 149.31 0.877942 -2.86239 0
M  V30 1377 H 146.856 0.42088 -1.37712 0
M  V30 1378 H 148.809 3.30253 -2.61746 0
M  V30 1379 H 147.533 2.93632 -1.42997 0
M  V30 1380 H 146.192 1.76596 -3.21262 0
M  V30 1381 H 145.84 4.20136 -2.76576 0
M  V30 1382 H 145.54 3.80609 -4.47672 0
M  V30 1383 H 147.064 4.60984 -4.00407 0
M  V30 1384 H 148.478 2.61992 -5.09934 0
M  V30 1385 H 146.875 2.04424 -5.64208 0
M  V30 1386 H 147.945 0.942465 -4.75653 0
M  V30 1387 N 149.288 1.51039 0.449983 0
M  V30 1388 C 150.22 1.67617 1.56324 0
M  V30 1389 C 151.233 0.557083 1.52972 0
M  V30 1390 O 152.422 0.830989 1.57977 0
M  V30 1391 C 149.522 1.66402 2.95235 0
M  V30 1392 C 148.695 2.9469 3.23229 0
M  V30 1393 C 147.754 2.85832 4.41799 0
M  V30 1394 O 146.78 3.59785 4.41071 0
M  V30 1395 N 147.982 2.00821 5.44657 0
M  V30 1396 H 150.747 2.63648 1.42512 0
M  V30 1397 H 148.308 1.48767 0.638737 0
M  V30 1398 H 150.3 1.58062 3.72557 0
M  V30 1399 H 148.87 0.780182 3.02708 0
M  V30 1400 H 148.09 3.16996 2.34323 0
M  V30 1401 H 149.378 3.79636 3.38754 0
M  V30 1402 H 148.776 1.40091 5.48079 0
M  V30 1403 H 147.333 1.98368 6.20881 0
M  V30 1404 N 150.766 -0.704594 1.40972 0
M  V30 1405 C 151.696 -1.83124 1.44872 0
M  V30 1406 C 152.677 -1.67281 0.30838 0
M  V30 1407 O 153.862 -1.87149 0.518556 0
M  V30 1408 C 150.992 -3.21181 1.32136 0
M  V30 1409 C 149.946 -3.51714 2.43888 0
M  V30 1410 C 149.272 -4.89032 2.16222 0
M  V30 1411 C 150.572 -3.516 3.86232 0
M  V30 1412 H 152.266 -1.80117 2.39161 0
M  V30 1413 H 149.812 -0.865145 1.15114 0
M  V30 1414 H 151.765 -3.99702 1.33479 0
M  V30 1415 H 150.489 -3.24791 0.343279 0
M  V30 1416 H 149.148 -2.75539 2.41813 0
M  V30 1417 H 148.796 -4.89256 1.16778 0
M  V30 1418 H 148.496 -5.10426 2.911 0
M  V30 1419 H 150.02 -5.69873 2.19265 0
M  V30 1420 H 151.434 -4.2014 3.9007 0
M  V30 1421 H 149.831 -3.84523 4.60719 0
M  V30 1422 H 150.901 -2.50757 4.15029 0
M  V30 1423 N 152.244 -1.26651 -0.937939 0
M  V30 1424 C 153.484 -1.13611 -1.69917 0
M  V30 1425 C 153.848 0.314687 -1.89404 0
M  V30 1426 O 155.049 0.567285 -2.62746 0
M  V30 1427 C 153.32 -1.88742 -3.03498 0
M  V30 1428 S 154.879 -1.91794 -3.94665 0
M  V30 1429 H 151.697 -0.405767 -0.583844 0
M  V30 1430 H 154.299 -1.60416 -1.11745 0
M  V30 1431 H 153.003 -2.9336 -2.86999 0
M  V30 1432 H 152.534 -1.42391 -3.66727 0
M  V30 1433 H 154.549 -1.00698 -4.85875 0
M  V30 1434 N 153.722 1.14298 -1.08507 0
M  V30 1435 C 154.999 1.81544 -0.728088 0
M  V30 1436 C 155.379 1.95838 0.78808 0
M  V30 1437 O 154.727 1.51904 1.70697 0
M  V30 1438 C 154.937 3.17169 -1.45619 0
M  V30 1439 C 156.285 3.9265 -1.61591 0
M  V30 1440 O 157.309 3.26762 -1.41793 0
M  V30 1441 O 156.168 5.10807 -1.94263 0
M  V30 1442 H 153.262 0.78491 -0.260471 0
M  V30 1443 H 155.808 1.21307 -1.18671 0
M  V30 1444 H 154.58 3.01934 -2.489 0
M  V30 1445 H 154.203 3.851 -0.989124 0
M  V30 1446 N 155.201 0.870884 1.31352 0
M  V30 1447 C 156.131 0.343096 2.30966 0
M  V30 1448 C 157.112 -0.566507 1.60389 0
M  V30 1449 O 158.297 -0.483336 1.88089 0
M  V30 1450 C 155.427 -0.455487 3.443 0
M  V30 1451 C 154.381 0.361103 4.26474 0
M  V30 1452 C 153.707 -0.563221 5.31725 0
M  V30 1453 C 155.007 1.59566 4.97329 0
M  V30 1454 H 156.701 1.17548 2.75359 0
M  V30 1455 H 154.247 0.566686 1.32381 0
M  V30 1456 H 156.2 -0.83525 4.13039 0
M  V30 1457 H 154.924 -1.32139 2.98675 0
M  V30 1458 H 153.583 0.722825 3.59403 0
M  V30 1459 H 153.231 -1.42643 4.82351 0
M  V30 1460 H 152.931 -0.0207409 5.87596 0
M  V30 1461 H 154.455 -0.939808 6.03324 0
M  V30 1462 H 155.869 1.28728 5.58661 0
M  V30 1463 H 154.266 2.07728 5.63 0
M  V30 1464 H 155.336 2.34798 4.24262 0
M  V30 1465 N 156.679 -1.44442 0.630414 0
M  V30 1466 C 157.609 -2.33418 -0.0618083 0
M  V30 1467 C 158.59 -1.48165 -0.835541 0
M  V30 1468 O 159.775 -1.76886 -0.801564 0
M  V30 1469 C 156.905 -3.31222 -1.04449 0
M  V30 1470 C 155.859 -4.26288 -0.382436 0
M  V30 1471 C 155.185 -5.13954 -1.47497 0
M  V30 1472 C 156.485 -5.1744 0.710865 0
M  V30 1473 H 158.179 -2.91548 0.681184 0
M  V30 1474 H 155.725 -1.40191 0.329026 0
M  V30 1475 H 157.678 -3.92351 -1.53748 0
M  V30 1476 H 156.402 -2.71299 -1.81836 0
M  V30 1477 H 155.061 -3.6649 0.0899054 0
M  V30 1478 H 154.709 -4.50385 -2.2397 0
M  V30 1479 H 154.409 -5.7837 -1.03737 0
M  V30 1480 H 155.933 -5.77955 -1.96979 0
M  V30 1481 H 157.347 -5.72509 0.300996 0
M  V30 1482 H 155.744 -5.90455 1.07156 0
M  V30 1483 H 156.814 -4.58496 1.57829 0
M  V30 1484 N 158.157 -0.370918 -1.53173 0
M  V30 1485 C 159.382 0.220293 -2.06227 0
M  V30 1486 C 159.807 1.41243 -1.24225 0
M  V30 1487 O 159.165 1.79387 -0.262645 0
M  V30 1488 C 159.213 0.586663 -3.55796 0
M  V30 1489 O 158.317 1.68317 -3.76488 0
M  V30 1490 H 157.658 0.0308099 -0.663285 0
M  V30 1491 H 160.188 -0.533068 -1.97534 0
M  V30 1492 H 160.198 0.85617 -3.98916 0
M  V30 1493 H 158.873 -0.285013 -4.14922 0
M  V30 1494 H 157.45 1.40881 -3.45264 0
M  V30 1495 N 159.635 1.57281 -0.100228 0
M  V30 1496 C 160.883 1.94153 0.561157 0
M  V30 1497 C 161.204 0.983157 1.68401 0
M  V30 1498 O 160.474 0.0361132 1.95867 0
M  V30 1499 H 159.054 0.716791 0.210283 0
M  V30 1500 H 161.716 1.94202 -0.164765 0
M  V30 1501 H 160.812 2.96709 0.968008 0
M  V30 1502 N 161.113 -0.173488 1.56642 0
M  V30 1503 C 162.043 -1.2171 1.99271 0
M  V30 1504 C 163.024 -1.46289 0.867959 0
M  V30 1505 O 164.209 -1.5766 1.13388 0
M  V30 1506 C 161.339 -2.55651 2.35074 0
M  V30 1507 C 160.293 -2.45645 3.50489 0
M  V30 1508 C 159.619 -3.84056 3.72028 0
M  V30 1509 C 160.919 -1.96302 4.84007 0
M  V30 1510 H 162.613 -0.86275 2.867 0
M  V30 1511 H 160.159 -0.413571 1.37933 0
M  V30 1512 H 162.112 -3.2886 2.63494 0
M  V30 1513 H 160.836 -2.92869 1.44552 0
M  V30 1514 H 159.495 -1.7489 3.22194 0
M  V30 1515 H 159.143 -4.18664 2.788 0
M  V30 1516 H 158.843 -3.7823 4.49684 0
M  V30 1517 H 160.367 -4.58854 4.02846 0
M  V30 1518 H 161.781 -2.59284 5.11317 0
M  V30 1519 H 160.178 -2.01429 5.65284 0
M  V30 1520 H 161.248 -0.917226 4.76146 0
M  V30 1521 N 162.591 -1.51276 -0.441967 0
M  V30 1522 C 164.007 -1.39349 -0.778083 0
M  V30 1523 C 164.207 -0.472212 -1.95889 0
M  V30 1524 O 163.263 0.0743551 -2.5239 0
M  V30 1525 C 164.576 -2.81292 -1.0628 0
M  V30 1526 C 166.124 -2.9041 -1.16751 0
M  V30 1527 C 166.599 -4.33251 -1.48519 0
M  V30 1528 N 168.09 -4.36336 -1.55453 0
M  V30 1529 C 168.825 -5.43885 -1.81596 0
M  V30 1530 N 168.321 -6.61601 -2.05562 0
M  V30 1531 N 170.114 -5.3136 -1.8334 0
M  V30 1532 H 162.265 -2.09729 0.335774 0
M  V30 1533 H 164.528 -0.943925 0.0878028 0
M  V30 1534 H 164.234 -3.50678 -0.267905 0
M  V30 1535 H 164.108 -3.20334 -1.99163 0
M  V30 1536 H 166.495 -2.21225 -1.95304 0
M  V30 1537 H 166.576 -2.54871 -0.217801 0
M  V30 1538 H 166.22 -5.02984 -0.704958 0
M  V30 1539 H 166.15 -4.66299 -2.44689 0
M  V30 1540 H 168.641 -3.51466 -1.38853 0
M  V30 1541 H 168.954 -7.39361 -2.24867 0
M  V30 1542 H 167.299 -6.64725 -2.02894 0
M  V30 1543 H 170.49 -4.38382 -1.64132 0
M  V30 1544 H 170.663 -6.15258 -2.03377 0
M  V30 1545 N 164.069 0.697108 -1.41344 0
M  V30 1546 C 165.315 1.4593 -1.40827 0
M  V30 1547 C 165.648 1.94193 -0.0167098 0
M  V30 1548 O 164.923 1.69425 0.955263 0
M  V30 1549 C 165.206 2.67229 -2.41373 0
M  V30 1550 C 165.059 2.24741 -3.8963 0
M  V30 1551 C 166.378 3.69423 -2.39196 0
M  V30 1552 H 163.497 0.529303 -0.512842 0
M  V30 1553 H 166.139 0.794112 -1.72609 0
M  V30 1554 H 164.289 3.23982 -2.14401 0
M  V30 1555 H 165.961 1.73327 -4.27499 0
M  V30 1556 H 164.204 1.56542 -4.0457 0
M  V30 1557 H 164.875 3.1177 -4.55525 0
M  V30 1558 H 167.351 3.2234 -2.63128 0
M  V30 1559 H 166.227 4.51907 -3.11563 0
M  V30 1560 H 166.488 4.19012 -1.41001 0
M  V30 1561 N 165.547 1.27147 0.931209 0
M  V30 1562 C 166.497 1.06227 2.01742 0
M  V30 1563 C 167.481 -0.00859065 1.60898 0
M  V30 1564 O 168.673 0.209537 1.75755 0
M  V30 1565 C 165.802 0.707787 3.35924 0
M  V30 1566 C 164.888 1.81661 3.83223 0
M  V30 1567 N 165.279 3.05564 4.03069 0
M  V30 1568 C 163.577 1.70249 4.12227 0
M  V30 1569 C 164.278 3.77697 4.42403 0
M  V30 1570 N 163.254 3.0544 4.49675 0
M  V30 1571 H 167.056 2.00261 2.15111 0
M  V30 1572 H 164.57 1.1781 1.11779 0
M  V30 1573 H 166.567 0.539043 4.134 0
M  V30 1574 H 165.227 -0.224964 3.2392 0
M  V30 1575 H 166.238 3.41363 3.89476 0
M  V30 1576 H 162.915 0.840329 4.08956 0
M  V30 1577 H 164.305 4.84168 4.65866 0
M  V30 1578 N 167.025 -1.13721 1.09112 0
M  V30 1579 C 168.273 -1.84559 0.823562 0
M  V30 1580 C 168.594 -1.83754 -0.652658 0
M  V30 1581 O 167.864 -1.29102 -1.47342 0
M  V30 1582 H 166.444 -0.683376 0.301673 0
M  V30 1583 H 169.106 -1.37771 1.37859 0
M  V30 1584 H 168.202 -2.8917 1.17419 0
M  V30 1585 N 168.503 -0.877838 -1.30888 0
M  V30 1586 C 169.749 -0.493426 -1.96706 0
M  V30 1587 C 170.082 0.953504 -1.6918 0
M  V30 1588 O 169.357 1.67266 -0.992594 0
M  V30 1589 C 169.64 -0.760429 -3.51979 0
M  V30 1590 C 169.493 -2.25747 -3.89048 0
M  V30 1591 C 170.812 -0.232148 -4.39487 0
M  V30 1592 H 167.931 -0.180746 -0.714493 0
M  V30 1593 H 170.573 -1.10052 -1.54882 0
M  V30 1594 H 168.723 -0.243715 -3.87735 0
M  V30 1595 H 170.395 -2.84204 -3.63354 0
M  V30 1596 H 168.638 -2.72694 -3.37373 0
M  V30 1597 H 169.309 -2.39491 -4.97341 0
M  V30 1598 H 171.785 -0.674314 -4.106 0
M  V30 1599 H 170.661 -0.448355 -5.47066 0
M  V30 1600 H 170.922 0.866297 -4.33529 0
M  V30 1601 N 169.982 1.44106 -0.638065 0
M  V30 1602 C 171.228 2.02277 -0.145546 0
M  V30 1603 C 171.561 1.50125 1.23191 0
M  V30 1604 O 170.836 0.688133 1.8192 0
M  V30 1605 C 171.119 3.59829 -0.139791 0
M  V30 1606 C 170.972 4.22247 -1.55008 0
M  V30 1607 C 172.291 4.36873 0.531966 0
M  V30 1608 H 169.41 0.734992 -0.0543632 0
M  V30 1609 H 172.052 1.71592 -0.815863 0
M  V30 1610 H 170.202 3.86102 0.431007 0
M  V30 1611 H 171.874 4.07057 -2.1703 0
M  V30 1612 H 170.117 3.79476 -2.10191 0
M  V30 1613 H 170.788 5.31284 -1.49804 0
M  V30 1614 H 173.264 4.16074 0.0464781 0
M  V30 1615 H 172.14 5.4657 0.505206 0
M  V30 1616 H 172.401 4.11995 1.60352 0
M  V30 1617 N 171.46 0.379036 1.52974 0
M  V30 1618 C 172.707 -0.206421 2.01445 0
M  V30 1619 C 173.035 -1.47668 1.26587 0
M  V30 1620 O 172.29 -1.92514 0.351675 0
M  V30 1621 C 172.589 -0.53096 3.53434 0
M  V30 1622 C 172.255 0.646546 4.46241 0
M  V30 1623 C 170.917 0.969604 4.7133 0
M  V30 1624 C 173.269 1.43479 5.01062 0
M  V30 1625 C 170.597 2.08263 5.48492 0
M  V30 1626 C 172.949 2.53834 5.7944 0
M  V30 1627 C 171.613 2.86659 6.02812 0
M  V30 1628 H 170.883 -0.0755349 0.73714 0
M  V30 1629 H 173.53 0.514271 1.84465 0
M  V30 1630 H 171.835 -1.33285 3.68432 0
M  V30 1631 H 173.532 -0.996417 3.88423 0
M  V30 1632 H 170.122 0.384734 4.2687 0
M  V30 1633 H 174.306 1.19844 4.81613 0
M  V30 1634 H 169.562 2.34078 5.64816 0
M  V30 1635 H 173.736 3.15319 6.20924 0
M  V30 1636 H 171.363 3.73026 6.62387 0
M  V30 1637 N 172.938 -1.57226 0.108567 0
M  V30 1638 C 173.848 -2.18292 -0.859401 0
M  V30 1639 C 174.864 -1.15612 -1.30038 0
M  V30 1640 O 176.04 -1.48039 -1.36552 0
M  V30 1641 C 173.105 -2.762 -2.09558 0
M  V30 1642 C 172.166 -3.93881 -1.70752 0
M  V30 1643 C 171.399 -4.49018 -2.88477 0
M  V30 1644 O 171.622 -4.03068 -4.036 0
M  V30 1645 O 170.556 -5.39852 -2.66164 0
M  V30 1646 H 174.382 -3.01441 -0.369769 0
M  V30 1647 H 171.967 -1.48945 -0.1165 0
M  V30 1648 H 173.849 -3.13156 -2.81978 0
M  V30 1649 H 172.524 -1.96089 -2.57548 0
M  V30 1650 H 171.431 -3.61713 -0.954714 0
M  V30 1651 H 172.764 -4.75396 -1.27513 0
M  V30 1652 N 174.416 0.165178 -1.56732 0
M  V30 1653 C 175.693 0.908443 -1.73224 0
M  V30 1654 C 176.073 2.0013 -0.67165 0
M  V30 1655 O 175.421 2.26353 0.31253 0
M  V30 1656 C 175.631 1.46756 -3.16644 0
M  V30 1657 C 176.979 1.93809 -3.77787 0
M  V30 1658 O 178.003 1.56537 -3.1996 0
M  V30 1659 O 176.862 2.62486 -4.79336 0
M  V30 1660 H 173.956 0.428025 -0.707618 0
M  V30 1661 H 176.502 0.152526 -1.69013 0
M  V30 1662 H 175.274 0.68129 -3.85323 0
M  V30 1663 H 174.897 2.28749 -3.25207 0
M  V30 1664 N 175.894 1.51508 0.433938 0
M  V30 1665 C 177.171 1.54888 1.19453 0
M  V30 1666 C 177.551 0.315154 2.08734 0
M  V30 1667 O 176.899 -0.699558 2.17528 0
M  V30 1668 C 177.109 2.86467 1.99342 0
M  V30 1669 C 178.457 3.38545 2.56267 0
M  V30 1670 O 179.481 2.88041 2.0955 0
M  V30 1671 O 178.34 4.26675 3.41483 0
M  V30 1672 H 175.434 0.622863 0.544032 0
M  V30 1673 H 177.98 1.63823 0.442732 0
M  V30 1674 H 176.752 3.67718 1.33788 0
M  V30 1675 H 176.375 2.8071 2.8158 0
M  V30 1676 N 177.372 -0.689602 1.41712 0
M  V30 1677 C 178.597 -1.48329 1.44959 0
M  V30 1678 C 179.022 -1.8801 0.0581283 0
M  V30 1679 O 178.38 -1.55026 -0.940035 0
M  V30 1680 C 178.428 -2.71835 2.36935 0
M  V30 1681 O 177.532 -3.69549 1.8305 0
M  V30 1682 H 176.873 -0.446199 0.491734 0
M  V30 1683 H 179.403 -0.847127 1.86239 0
M  V30 1684 H 179.413 -3.20076 2.53013 0
M  V30 1685 H 178.088 -2.42291 3.38035 0
M  V30 1686 H 176.665 -3.2851 1.76452 0
M  V30 1687 N 178.85 -1.27639 -0.924453 0
M  V30 1688 C 180.266 -1.05113 -1.20097 0
M  V30 1689 C 180.466 0.213262 -2.00368 0
M  V30 1690 O 179.522 0.91787 -2.35226 0
M  V30 1691 C 180.835 -2.29244 -1.94596 0
M  V30 1692 C 182.383 -2.34315 -2.07522 0
M  V30 1693 C 182.858 -3.58183 -2.85427 0
M  V30 1694 N 184.349 -3.5876 -2.92994 0
M  V30 1695 C 185.084 -4.51277 -3.53746 0
M  V30 1696 N 184.58 -5.54102 -4.15863 0
M  V30 1697 N 186.373 -4.38894 -3.51181 0
M  V30 1698 H 178.524 -2.08821 -0.388264 0
M  V30 1699 H 180.787 -0.918568 -0.234385 0
M  V30 1700 H 180.493 -3.21301 -1.43034 0
M  V30 1701 H 180.367 -2.34816 -2.95197 0
M  V30 1702 H 182.754 -1.42762 -2.58269 0
M  V30 1703 H 182.835 -2.32744 -1.06131 0
M  V30 1704 H 182.479 -4.50074 -2.35363 0
M  V30 1705 H 182.409 -3.57006 -3.8711 0
M  V30 1706 H 184.9 -2.84398 -2.4885 0
M  V30 1707 H 185.213 -6.20859 -4.60168 0
M  V30 1708 H 183.558 -5.57941 -4.144 0
M  V30 1709 H 186.749 -3.57772 -3.01856 0
M  V30 1710 H 186.922 -5.11186 -3.98237 0
M  V30 1711 N 180.328 1.1314 -1.09713 0
M  V30 1712 C 181.291 2.16831 -0.742751 0
M  V30 1713 C 182.291 1.59159 0.229129 0
M  V30 1714 O 183.481 1.74199 0.00693237 0
M  V30 1715 C 180.613 3.40756 -0.0989168 0
M  V30 1716 H 181.806 2.49695 -1.66109 0
M  V30 1717 H 179.359 1.2802 -0.896699 0
M  V30 1718 H 180.094 3.13485 0.830514 0
M  V30 1719 H 179.879 3.83888 -0.798265 0
M  V30 1720 H 181.369 4.17386 0.133524 0
M  V30 1721 N 181.806 0.884767 1.30421 0
M  V30 1722 C 183.217 0.553656 1.78302 0
M  V30 1723 C 183.568 -0.930153 1.7275 0
M  V30 1724 O 182.693 -1.72681 1.30423 0
M  V30 1725 C 183.288 0.998234 3.2376 0
M  V30 1726 C 181.847 0.71854 3.69478 0
M  V30 1727 C 180.994 1.18132 2.50879 0
M  V30 1728 H 183.945 1.06901 1.17294 0
M  V30 1729 H 183.966 0.327118 3.79091 0
M  V30 1730 H 183.478 2.0782 3.27769 0
M  V30 1731 H 181.579 -0.349444 3.70958 0
M  V30 1732 H 181.692 1.30595 4.60958 0
M  V30 1733 H 180.056 0.600669 2.47516 0
M  V30 1734 H 180.839 2.26902 2.57624 0
M  V30 1735 N 183.284 -1.43765 0.645699 0
M  V30 1736 C 184.247 -2.29163 -0.0409488 0
M  V30 1737 C 185.247 -1.41813 -0.757996 0
M  V30 1738 O 186.437 -1.63527 -0.600382 0
M  V30 1739 C 183.569 -3.23716 -1.06869 0
M  V30 1740 H 184.762 -2.91366 0.710345 0
M  V30 1741 H 182.315 -1.5092 0.406547 0
M  V30 1742 H 183.05 -2.66393 -1.84947 0
M  V30 1743 H 182.835 -3.88105 -0.558277 0
M  V30 1744 H 184.325 -3.87831 -1.54845 0
M  V30 1745 N 184.763 -0.387143 -1.52771 0
M  V30 1746 C 186.009 0.196025 -2.0185 0
M  V30 1747 C 186.342 1.46641 -1.27319 0
M  V30 1748 O 185.617 1.90889 -0.373032 0
M  V30 1749 C 185.9 0.466136 -3.5707 0
M  V30 1750 C 185.753 -0.819385 -4.42274 0
M  V30 1751 C 187.072 1.25768 -4.21747 0
M  V30 1752 H 184.191 0.0697708 -0.73369 0
M  V30 1753 H 186.833 -0.516286 -1.82851 0
M  V30 1754 H 184.983 1.07293 -3.7339 0
M  V30 1755 H 186.655 -1.4563 -4.37709 0
M  V30 1756 H 184.898 -1.43517 -4.09372 0
M  V30 1757 H 185.569 -0.585065 -5.48891 0
M  V30 1758 H 188.045 0.744167 -4.09391 0
M  V30 1759 H 186.921 1.41541 -5.30337 0
M  V30 1760 H 187.182 2.27228 -3.79236 0
M  V30 1761 N 186.241 1.57166 -0.116904 0
M  V30 1762 C 187.204 2.14039 0.819742 0
M  V30 1763 C 188.204 1.07477 1.19605 0
M  V30 1764 O 189.394 1.33263 1.1219 0
M  V30 1765 C 186.526 2.67891 2.10826 0
M  V30 1766 H 187.719 2.98128 0.325511 0
M  V30 1767 H 185.272 1.55739 0.132312 0
M  V30 1768 H 186.007 1.87384 2.64685 0
M  V30 1769 H 185.792 3.45823 1.84793 0
M  V30 1770 H 187.282 3.11809 2.77785 0
M  V30 1771 N 187.719 -0.156864 1.56817 0
M  V30 1772 C 189.13 -0.717916 1.72345 0
M  V30 1773 C 189.481 -1.82124 0.729747 0
M  V30 1774 O 188.606 -2.16141 -0.105781 0
M  V30 1775 C 189.201 -1.30904 3.12489 0
M  V30 1776 C 187.76 -1.81676 3.29653 0
M  V30 1777 C 186.907 -0.701349 2.68284 0
M  V30 1778 H 189.858 0.0686989 1.58551 0
M  V30 1779 H 189.879 -2.17882 3.11942 0
M  V30 1780 H 189.391 -0.505796 3.8479 0
M  V30 1781 H 187.492 -2.64598 2.62333 0
M  V30 1782 H 187.605 -1.95226 4.3752 0
M  V30 1783 H 185.969 -1.12548 2.28484 0
M  V30 1784 H 186.752 0.0902846 3.43181 0
M  V30 1785 N 189.197 -1.51736 -0.425897 0
M  V30 1786 C 190.446 -1.64201 -1.17136 0
M  V30 1787 C 190.759 -0.369705 -1.92074 0
M  V30 1788 O 191.965 -0.373898 -2.68913 0
M  V30 1789 C 190.421 -2.90035 -2.13091 0
M  V30 1790 C 190.029 -4.24312 -1.43747 0
M  V30 1791 C 191.773 -3.1186 -2.87999 0
M  V30 1792 C 189.68 -5.41285 -2.38253 0
M  V30 1793 H 188.61 -0.611624 -0.440944 0
M  V30 1794 H 191.261 -1.78212 -0.437328 0
M  V30 1795 H 189.643 -2.69684 -2.89977 0
M  V30 1796 H 190.817 -4.55086 -0.723408 0
M  V30 1797 H 189.132 -4.08456 -0.809465 0
M  V30 1798 H 191.729 -3.96427 -3.58817 0
M  V30 1799 H 192.072 -2.25403 -3.49999 0
M  V30 1800 H 192.605 -3.32605 -2.18217 0
M  V30 1801 H 189.344 -6.30037 -1.80925 0
M  V30 1802 H 188.864 -5.14872 -3.0768 0
M  V30 1803 H 190.543 -5.73694 -2.99139 0
M  V30 1804 N 190.675 0.682077 -1.42076 0
M  V30 1805 C 191.605 1.80796 -1.47767 0
M  V30 1806 C 192.586 1.6677 -0.334954 0
M  V30 1807 O 193.771 1.863 -0.548264 0
M  V30 1808 C 190.901 3.19038 -1.37229 0
M  V30 1809 C 189.855 3.47789 -2.49453 0
M  V30 1810 C 189.181 4.8553 -2.23975 0
M  V30 1811 C 190.481 3.45411 -3.91776 0
M  V30 1812 H 192.175 1.7629 -2.41997 0
M  V30 1813 H 189.721 0.846721 -1.16476 0
M  V30 1814 H 191.674 3.97528 -1.39821 0
M  V30 1815 H 190.398 3.24204 -0.394907 0
M  V30 1816 H 189.057 2.71657 -2.46166 0
M  V30 1817 H 188.705 4.87337 -1.24547 0
M  V30 1818 H 188.405 5.0573 -2.99184 0
M  V30 1819 H 189.929 5.66312 -2.28304 0
M  V30 1820 H 191.343 4.13882 -3.96705 0
M  V30 1821 H 189.74 3.77145 -4.66778 0
M  V30 1822 H 190.81 2.44122 -4.18966 0
M  V30 1823 N 192.153 1.28127 0.917671 0
M  V30 1824 C 193.43 1.05761 1.64542 0
M  V30 1825 C 193.81 -0.404344 2.07191 0
M  V30 1826 O 193.158 -1.38963 1.81388 0
M  V30 1827 C 193.368 2.02857 2.83989 0
M  V30 1828 C 194.716 2.32786 3.551 0
M  V30 1829 O 195.74 2.0091 2.94132 0
M  V30 1830 O 194.599 2.87169 4.64969 0
M  V30 1831 H 191.693 0.403916 0.721652 0
M  V30 1832 H 194.239 1.39431 0.967322 0
M  V30 1833 H 193.011 3.01407 2.49538 0
M  V30 1834 H 192.634 1.69809 3.59514 0
M  V30 1835 N 193.631 -1.12557 1.10312 0
M  V30 1836 C 194.878 -1.84038 0.844759 0
M  V30 1837 C 195.206 -1.84026 -0.629668 0
M  V30 1838 O 194.461 -1.28026 -1.48013 0
M  V30 1839 C 194.76 -3.31462 1.33669 0
M  V30 1840 C 194.426 -3.51647 2.82232 0
M  V30 1841 C 193.088 -3.56864 3.22802 0
M  V30 1842 C 195.44 -3.58867 3.77974 0
M  V30 1843 C 192.768 -3.66844 4.57867 0
M  V30 1844 C 195.12 -3.70375 5.1284 0
M  V30 1845 C 193.784 -3.73848 5.52986 0
M  V30 1846 H 193.054 -0.673444 0.309119 0
M  V30 1847 H 195.701 -1.32824 1.37949 0
M  V30 1848 H 194.006 -3.85091 0.721949 0
M  V30 1849 H 195.703 -3.85236 1.11329 0
M  V30 1850 H 192.293 -3.48249 2.49842 0
M  V30 1851 H 196.477 -3.54107 3.47738 0
M  V30 1852 H 191.733 -3.67804 4.88396 0
M  V30 1853 H 195.907 -3.74904 5.86873 0
M  V30 1854 H 193.534 -3.81333 6.57639 0
M  V30 1855 N 195.109 -0.891671 -1.2995 0
M  V30 1856 C 196.039 -0.379797 -2.30391 0
M  V30 1857 C 197.02 0.540919 -1.6127 0
M  V30 1858 O 198.205 0.453352 -1.88834 0
M  V30 1859 C 195.335 0.400654 -3.44981 0
M  V30 1860 C 194.289 -0.428905 -4.25846 0
M  V30 1861 C 193.615 0.478557 -5.32554 0
M  V30 1862 C 194.915 -1.67458 -4.94727 0
M  V30 1863 H 196.609 -1.21914 -2.73454 0
M  V30 1864 H 194.155 -0.587675 -1.31462 0
M  V30 1865 H 196.108 0.769434 -4.14316 0
M  V30 1866 H 194.832 1.27371 -3.0074 0
M  V30 1867 H 193.491 -0.779911 -3.58208 0
M  V30 1868 H 193.139 1.34951 -4.84559 0
M  V30 1869 H 192.839 -0.0727433 -5.87555 0
M  V30 1870 H 194.363 0.843705 -6.04743 0
M  V30 1871 H 195.777 -1.376 -5.56542 0
M  V30 1872 H 194.174 -2.16659 -5.59624 0
M  V30 1873 H 195.244 -2.41518 -4.20473 0
M  V30 1874 N 196.587 1.43421 -0.653314 0
M  V30 1875 C 197.812 2.06678 -0.172846 0
M  V30 1876 C 198.237 1.48648 1.15262 0
M  V30 1877 O 197.595 0.596457 1.71208 0
M  V30 1878 C 197.643 3.60474 -0.0953184 0
M  V30 1879 O 196.747 4.01487 0.942442 0
M  V30 1880 H 196.088 0.657181 -0.0949155 0
M  V30 1881 H 198.618 1.83925 -0.896265 0
M  V30 1882 H 198.628 4.07905 0.0879728 0
M  V30 1883 H 197.303 4.02088 -1.06291 0
M  V30 1884 H 195.88 3.65646 0.731932 0
M  V30 1885 N 198.065 0.39524 1.52563 0
M  V30 1886 C 199.028 -0.425001 2.25225 0
M  V30 1887 C 200.028 -0.985266 1.27079 0
M  V30 1888 O 201.218 -0.866332 1.5113 0
M  V30 1889 C 198.35 -1.59686 3.01186 0
M  V30 1890 H 199.543 0.211233 2.99155 0
M  V30 1891 H 197.096 0.147472 1.55603 0
M  V30 1892 H 197.831 -2.27035 2.31572 0
M  V30 1893 H 197.616 -1.20176 3.73229 0
M  V30 1894 H 199.106 -2.17743 3.5634 0
M  V30 1895 N 199.544 -1.57102 0.125237 0
M  V30 1896 C 200.476 -2.12726 -0.853237 0
M  V30 1897 C 201.489 -1.07145 -1.22571 0
M  V30 1898 O 202.678 -1.34497 -1.17358 0
M  V30 1899 C 199.778 -2.61709 -2.15317 0
M  V30 1900 C 198.951 -3.91456 -1.95143 0
M  V30 1901 C 198.01 -4.25973 -3.08923 0
M  V30 1902 O 197.036 -4.94682 -2.81564 0
M  V30 1903 N 198.238 -3.83795 -4.35524 0
M  V30 1904 H 201.003 -2.97307 -0.377964 0
M  V30 1905 H 198.564 -1.61792 -0.0590011 0
M  V30 1906 H 200.556 -2.81826 -2.90441 0
M  V30 1907 H 199.126 -1.81974 -2.54174 0
M  V30 1908 H 198.346 -3.80185 -1.04177 0
M  V30 1909 H 199.634 -4.76283 -1.78976 0
M  V30 1910 H 199.032 -3.2839 -4.60626 0
M  V30 1911 H 197.589 -4.09008 -5.07499 0
M  V30 1912 N 201.022 0.148545 -1.56898 0
M  V30 1913 C 202.25 0.876389 -1.87422 0
M  V30 1914 C 202.665 1.74809 -0.713256 0
M  V30 1915 O 202.022 1.79725 0.317025 0
M  V30 1916 C 202.073 1.73438 -3.17178 0
M  V30 1917 O 201.794 0.897809 -4.28802 0
M  V30 1918 C 203.295 2.56993 -3.61205 0
M  V30 1919 H 200.515 0.253489 -0.621277 0
M  V30 1920 H 203.059 0.141798 -2.04008 0
M  V30 1921 H 201.214 2.42205 -3.0235 0
M  V30 1922 H 201.628 1.48672 -5.02988 0
M  V30 1923 H 203.102 3.12773 -4.54838 0
M  V30 1924 H 203.579 3.32958 -2.86419 0
M  V30 1925 H 204.185 1.9352 -3.78722 0
M  V30 1926 N 202.5 1.5196 0.417844 0
M  V30 1927 C 203.725 1.69717 1.1921 0
M  V30 1928 C 204.15 0.402148 1.83751 0
M  V30 1929 O 203.508 -0.639593 1.69643 0
M  V30 1930 C 203.556 2.82794 2.2374 0
M  V30 1931 O 202.66 2.47756 3.29683 0
M  V30 1932 H 202.001 0.565263 0.348387 0
M  V30 1933 H 204.531 1.98621 0.490985 0
M  V30 1934 H 204.541 3.07452 2.68212 0
M  V30 1935 H 203.216 3.76756 1.76146 0
M  V30 1936 H 201.793 2.33739 2.90552 0
M  V30 1937 N 203.978 -0.674533 1.42435 0
M  V30 1938 C 204.908 -1.80009 1.48724 0
M  V30 1939 C 205.889 -1.6659 0.343793 0
M  V30 1940 O 207.074 -1.86007 0.558137 0
M  V30 1941 C 204.204 -3.18306 1.38919 0
M  V30 1942 C 203.158 -3.46461 2.51294 0
M  V30 1943 C 202.484 -4.84335 2.26547 0
M  V30 1944 C 203.784 -3.43328 3.93603 0
M  V30 1945 H 205.478 -1.75004 2.42928 0
M  V30 1946 H 203.024 -0.840533 1.16923 0
M  V30 1947 H 204.977 -3.9678 1.41927 0
M  V30 1948 H 203.701 -3.2399 0.412094 0
M  V30 1949 H 202.36 -2.70348 2.47604 0
M  V30 1950 H 202.008 -4.86669 1.2713 0
M  V30 1951 H 201.708 -5.04136 3.01861 0
M  V30 1952 H 203.232 -5.65094 2.31304 0
M  V30 1953 H 204.646 -4.11772 3.98894 0
M  V30 1954 H 203.043 -3.74664 4.68771 0
M  V30 1955 H 204.113 -2.41897 4.20255 0
M  V30 1956 N 205.456 -1.28612 -0.910864 0
M  V30 1957 C 206.867 -1.14406 -1.47541 0
M  V30 1958 C 207.218 0.264901 -1.94403 0
M  V30 1959 O 206.343 1.15942 -1.82719 0
M  V30 1960 C 206.938 -2.07073 -2.68153 0
M  V30 1961 C 205.497 -1.96923 -3.20778 0
M  V30 1962 C 204.644 -1.98646 -1.93481 0
M  V30 1963 H 207.595 -1.41259 -0.723291 0
M  V30 1964 H 207.616 -1.63642 -3.43514 0
M  V30 1965 H 207.128 -3.09611 -2.34015 0
M  V30 1966 H 205.229 -0.97433 -3.59635 0
M  V30 1967 H 205.342 -2.84026 -3.85832 0
M  V30 1968 H 203.706 -1.43093 -2.10705 0
M  V30 1969 H 204.489 -3.02868 -1.61634 0
M  V30 1970 N 206.934 1.1197 -1.10907 0
M  V30 1971 C 208.183 1.82947 -0.849302 0
M  V30 1972 C 208.496 1.85275 0.627112 0
M  V30 1973 O 209.702 2.52296 1.00295 0
M  V30 1974 C 208.158 3.28529 -1.46959 0
M  V30 1975 C 207.766 3.34546 -2.97965 0
M  V30 1976 C 209.51 4.04443 -1.28942 0
M  V30 1977 C 207.417 4.74491 -3.53004 0
M  V30 1978 H 206.347 0.685477 -0.314065 0
M  V30 1979 H 208.998 1.2604 -1.33365 0
M  V30 1980 H 207.38 3.85333 -0.912917 0
M  V30 1981 H 208.554 2.87654 -3.59989 0
M  V30 1982 H 206.869 2.72108 -3.15192 0
M  V30 1983 H 209.466 5.07787 -1.67502 0
M  V30 1984 H 209.809 4.15656 -0.231456 0
M  V30 1985 H 210.342 3.5401 -1.81443 0
M  V30 1986 H 207.081 4.68474 -4.58489 0
M  V30 1987 H 206.601 5.21816 -2.9575 0
M  V30 1988 H 208.28 5.4344 -3.51115 0
M  V30 1989 N 208.412 0.89855 1.29475 0
M  V30 1990 C 209.658 0.524658 1.95896 0
M  V30 1991 C 209.991 -0.926468 1.70676 0
M  V30 1992 O 209.266 -1.65665 1.01908 0
M  V30 1993 C 209.549 0.81633 3.50725 0
M  V30 1994 C 209.402 2.31907 3.85408 0
M  V30 1995 C 210.721 0.302038 4.39062 0
M  V30 1996 H 207.84 0.19209 0.711527 0
M  V30 1997 H 210.482 1.12502 1.53112 0
M  V30 1998 H 208.632 0.305369 3.87298 0
M  V30 1999 H 210.304 2.89949 3.58786 0
M  V30 2000 H 208.547 2.78027 3.32992 0
M  V30 2001 H 209.218 2.47373 4.93468 0
M  V30 2002 H 211.694 0.739551 4.09475 0
M  V30 2003 H 210.57 0.535331 5.46283 0
M  V30 2004 H 210.831 -0.797216 4.34853 0
M  V30 2005 N 209.89 -1.43072 0.660911 0
M  V30 2006 C 210.853 -2.29194 -0.0166406 0
M  V30 2007 C 211.853 -1.42609 -0.742912 0
M  V30 2008 O 213.043 -1.64155 -0.583004 0
M  V30 2009 C 210.175 -3.24831 -1.0343 0
M  V30 2010 H 211.368 -2.90596 0.741208 0
M  V30 2011 H 208.921 -1.5048 0.422532 0
M  V30 2012 H 209.656 -2.68339 -1.82111 0
M  V30 2013 H 209.441 -3.88676 -0.517082 0
M  V30 2014 H 210.931 -3.89451 -1.50723 0
M  V30 2015 N 211.368 -0.403325 -1.52352 0
M  V30 2016 C 212.614 0.174605 -2.02047 0
M  V30 2017 C 212.947 1.45282 -1.28867 0
M  V30 2018 O 212.222 1.90483 -0.393257 0
M  V30 2019 C 212.505 0.428238 -3.57545 0
M  V30 2020 C 212.358 -0.866248 -4.4138 0
M  V30 2021 C 213.677 1.21287 -4.23057 0
M  V30 2022 H 210.796 0.0619851 -0.734389 0
M  V30 2023 H 213.438 -0.53565 -1.82293 0
M  V30 2024 H 211.588 1.03327 -3.74507 0
M  V30 2025 H 213.26 -1.50265 -4.3614 0
M  V30 2026 H 211.503 -1.47851 -4.07827 0
M  V30 2027 H 212.174 -0.643249 -5.48239 0
M  V30 2028 H 214.65 0.700703 -4.10158 0
M  V30 2029 H 213.526 1.35909 -5.31808 0
M  V30 2030 H 213.787 2.23193 -3.81625 0
M  V30 2031 N 212.846 1.57033 -0.133567 0
M  V30 2032 C 213.796 2.12641 0.822671 0
M  V30 2033 C 214.78 1.05081 1.21847 0
M  V30 2034 O 215.972 1.31287 1.18713 0
M  V30 2035 C 213.101 2.74094 2.06706 0
M  V30 2036 C 212.187 3.88757 1.69497 0
M  V30 2037 N 212.578 4.95194 1.03037 0
M  V30 2038 C 210.876 3.99213 1.98859 0
M  V30 2039 C 211.577 5.75414 0.852873 0
M  V30 2040 N 210.553 5.25726 1.3825 0
M  V30 2041 H 214.355 2.92308 0.305537 0
M  V30 2042 H 211.869 1.62256 0.0684276 0
M  V30 2043 H 213.866 3.12285 2.76195 0
M  V30 2044 H 212.526 1.95896 2.5895 0
M  V30 2045 H 213.537 5.13247 0.692669 0
M  V30 2046 H 210.214 3.32075 2.53047 0
M  V30 2047 H 211.604 6.71089 0.330091 0
M  V30 2048 N 214.325 -0.140222 1.56975 0
M  V30 2049 C 215.573 -0.850005 1.83356 0
M  V30 2050 C 215.894 -1.81399 0.71551 0
M  V30 2051 O 215.164 -1.94136 -0.262294 0
M  V30 2052 H 213.744 -0.316886 0.676456 0
M  V30 2053 H 216.406 -0.132608 1.94448 0
M  V30 2054 H 215.502 -1.40814 2.78528 0
M  V30 2055 N 215.803 -1.52179 -0.40978 0
M  V30 2056 C 217.051 -1.65878 -1.15451 0
M  V30 2057 C 217.372 -0.390771 -1.91044 0
M  V30 2058 O 216.642 0.594323 -1.86667 0
M  V30 2059 H 215.222 -0.611405 -0.429177 0
M  V30 2060 H 217.884 -1.89219 -0.467134 0
M  V30 2061 H 216.98 -2.49954 -1.86894 0
M  V30 2062 N 217.281 0.66697 -1.42791 0
M  V30 2063 C 218.244 1.76211 -1.46568 0
M  V30 2064 C 219.244 1.56896 -0.352196 0
M  V30 2065 O 220.434 1.63044 -0.613364 0
M  V30 2066 C 217.566 3.14935 -1.30494 0
M  V30 2067 H 218.759 1.74247 -2.44086 0
M  V30 2068 H 216.312 0.877342 -1.29354 0
M  V30 2069 H 217.047 3.2252 -0.339301 0
M  V30 2070 H 216.832 3.30359 -2.11199 0
M  V30 2071 H 218.322 3.94821 -1.36038 0
M  V30 2072 N 218.759 1.29093 0.90403 0
M  V30 2073 C 219.722 1.1386 1.98919 0
M  V30 2074 C 220.722 0.0753457 1.60623 0
M  V30 2075 O 221.912 0.321931 1.71199 0
M  V30 2076 C 219.044 0.740198 3.32767 0
M  V30 2077 H 220.237 2.10246 2.13861 0
M  V30 2078 H 217.79 1.12218 1.08797 0
M  V30 2079 H 218.525 -0.223997 3.23525 0
M  V30 2080 H 218.31 1.50838 3.61926 0
M  V30 2081 H 219.8 0.656546 4.12407 0
M  V30 2082 N 220.237 -1.11381 1.11499 0
M  V30 2083 C 221.167 -2.19509 0.796125 0
M  V30 2084 C 222.148 -1.68458 -0.235796 0
M  V30 2085 O 223.333 -1.93947 -0.0991344 0
M  V30 2086 C 220.463 -3.46475 0.239205 0
M  V30 2087 C 219.417 -4.10744 1.20307 0
M  V30 2088 C 218.743 -5.32293 0.50683 0
M  V30 2089 C 220.043 -4.55597 2.55399 0
M  V30 2090 H 221.737 -2.46439 1.70024 0
M  V30 2091 H 219.283 -1.18446 0.818935 0
M  V30 2092 H 221.236 -4.214 0.00392006 0
M  V30 2093 H 219.96 -3.19006 -0.700206 0
M  V30 2094 H 218.619 -3.37813 1.42399 0
M  V30 2095 H 218.267 -5.01095 -0.437408 0
M  V30 2096 H 217.967 -5.76243 1.1497 0
M  V30 2097 H 219.491 -6.09956 0.280351 0
M  V30 2098 H 220.905 -5.21841 2.37391 0
M  V30 2099 H 219.302 -5.10363 3.15673 0
M  V30 2100 H 220.372 -3.69013 3.14575 0
M  V30 2101 N 221.715 -0.905404 -1.28997 0
M  V30 2102 C 222.961 -0.535039 -1.95615 0
M  V30 2103 C 223.294 0.917404 -1.71165 0
M  V30 2104 O 222.569 1.65123 -1.02785 0
M  V30 2105 C 222.852 -0.834918 -3.50287 0
M  V30 2106 C 222.705 -2.33948 -3.84172 0
M  V30 2107 C 224.024 -0.325318 -4.38896 0
M  V30 2108 H 221.143 -0.195861 -0.710498 0
M  V30 2109 H 223.785 -1.13313 -1.52513 0
M  V30 2110 H 221.935 -0.325904 -3.87131 0
M  V30 2111 H 223.607 -2.91847 -3.57243 0
M  V30 2112 H 221.85 -2.79789 -3.31513 0
M  V30 2113 H 222.521 -2.49987 -4.92149 0
M  V30 2114 H 224.997 -0.761256 -4.09077 0
M  V30 2115 H 223.873 -0.564295 -5.45992 0
M  V30 2116 H 224.134 0.774144 -4.35269 0
M  V30 2117 N 223.193 1.4272 -0.668489 0
M  V30 2118 C 224.123 2.335 -0.000100175 0
M  V30 2119 C 225.104 1.50328 0.795964 0
M  V30 2120 O 226.289 1.78949 0.754385 0
M  V30 2121 C 223.419 3.33874 0.956302 0
M  V30 2122 C 222.373 4.27152 0.269278 0
M  V30 2123 C 221.699 5.17684 1.33818 0
M  V30 2124 C 222.999 5.15373 -0.847805 0
M  V30 2125 H 224.693 2.89639 -0.758244 0
M  V30 2126 H 222.239 1.39269 -0.366079 0
M  V30 2127 H 224.192 3.9629 1.43292 0
M  V30 2128 H 222.916 2.76025 1.74579 0
M  V30 2129 H 221.575 3.66123 -0.187042 0
M  V30 2130 H 221.223 4.56165 2.1195 0
M  V30 2131 H 220.923 5.80918 0.883659 0
M  V30 2132 H 222.447 5.82974 1.81586 0
M  V30 2133 H 223.861 5.7151 -0.452681 0
M  V30 2134 H 222.258 5.87407 -1.22773 0
M  V30 2135 H 223.328 4.5415 -1.69929 0
M  V30 2136 N 224.671 0.411399 1.52136 0
M  V30 2137 C 225.899 -0.163076 2.06256 0
M  V30 2138 C 226.314 -1.3867 1.28125 0
M  V30 2139 O 225.671 -1.79423 0.333721 0
M  V30 2140 C 225.722 -0.511252 3.57867 0
M  V30 2141 O 225.443 0.66378 4.33042 0
M  V30 2142 C 226.944 -1.13921 4.28412 0
M  V30 2143 H 224.164 -0.0193897 0.67072 0
M  V30 2144 H 226.708 0.583007 1.96013 0
M  V30 2145 H 224.863 -1.20723 3.6811 0
M  V30 2146 H 225.277 0.372601 5.23175 0
M  V30 2147 H 226.751 -1.33302 5.35663 0
M  V30 2148 H 227.228 -2.11296 3.85033 0
M  V30 2149 H 227.834 -0.483373 4.22544 0
M  V30 2150 N 226.149 -1.5696 0.141893 0
M  V30 2151 C 227.56 -1.82797 -0.379776 0
M  V30 2152 C 227.911 -1.06033 -1.6508 0
M  V30 2153 O 227.036 -0.304011 -2.14254 0
M  V30 2154 C 227.631 -3.31578 -0.695802 0
M  V30 2155 C 226.19 -3.58014 -1.16201 0
M  V30 2156 C 225.337 -2.76699 -0.182455 0
M  V30 2157 H 228.288 -1.54406 0.366675 0
M  V30 2158 H 228.309 -3.47454 -1.55099 0
M  V30 2159 H 227.821 -3.87421 0.229449 0
M  V30 2160 H 225.922 -3.07553 -2.10338 0
M  V30 2161 H 226.035 -4.66501 -1.09151 0
M  V30 2162 H 224.399 -2.45618 -0.674072 0
M  V30 2163 H 225.182 -3.35311 0.736297 0
M  V30 2164 N 227.627 0.131896 -1.57047 0
M  V30 2165 C 228.574 1.16236 -1.99393 0
M  V30 2166 C 229.544 1.41863 -0.863943 0
M  V30 2167 O 230.729 1.53946 -1.12718 0
M  V30 2168 C 227.869 2.48708 -2.39245 0
M  V30 2169 C 226.982 2.30127 -3.65603 0
M  V30 2170 C 226.117 3.55738 -3.94492 0
M  V30 2171 C 225.156 3.32259 -5.14073 0
M  V30 2172 N 224.293 4.50039 -5.38896 0
M  V30 2173 H 229.133 0.794251 -2.87221 0
M  V30 2174 H 226.67 0.380707 -1.42088 0
M  V30 2175 H 228.628 3.25969 -2.60384 0
M  V30 2176 H 227.258 2.83437 -1.54478 0
M  V30 2177 H 226.31 1.43845 -3.52154 0
M  V30 2178 H 227.622 2.08746 -4.5302 0
M  V30 2179 H 226.776 4.41423 -4.1621 0
M  V30 2180 H 225.515 3.80138 -3.05526 0
M  V30 2181 H 224.52 2.44963 -4.92212 0
M  V30 2182 H 225.745 3.09242 -6.04604 0
M  V30 2183 H 223.691 4.74584 -4.52886 0
M  V30 2184 H 223.608 4.31716 -6.2061 0
M  V30 2185 H 224.876 5.36895 -5.65123 0
M  V30 2186 N 229.106 1.52395 0.401703 0
M  V30 2187 C 230.016 1.7917 1.51444 0
M  V30 2188 C 231.032 0.677691 1.6026 0
M  V30 2189 O 232.208 0.963909 1.76835 0
M  V30 2190 C 229.273 1.94347 2.87107 0
M  V30 2191 C 228.334 3.18257 2.88116 0
M  V30 2192 C 227.567 3.32701 4.17308 0
M  V30 2193 O 227.79 2.52238 5.11598 0
M  V30 2194 O 226.724 4.25891 4.25324 0
M  V30 2195 H 230.55 2.73633 1.31752 0
M  V30 2196 H 228.135 1.3733 0.588296 0
M  V30 2197 H 230.017 2.06109 3.67555 0
M  V30 2198 H 228.692 1.03073 3.06851 0
M  V30 2199 H 227.599 3.11947 2.06494 0
M  V30 2200 H 228.932 4.09336 2.73322 0
M  V30 2201 N 230.584 -0.659388 1.43143 0
M  V30 2202 C 231.531 -1.77249 1.47822 0
M  V30 2203 C 232.501 -1.62818 0.328558 0
M  V30 2204 O 233.686 -1.83151 0.534838 0
M  V30 2205 C 230.826 -3.15371 1.40126 0
M  V30 2206 C 229.939 -3.4098 2.65249 0
M  V30 2207 C 229.074 -4.68915 2.49584 0
M  V30 2208 C 228.113 -4.87608 3.70006 0
M  V30 2209 N 227.25 -6.06796 3.53189 0
M  V30 2210 H 232.09 -1.72584 2.42938 0
M  V30 2211 H 229.627 -0.842297 1.20598 0
M  V30 2212 H 231.585 -3.9521 1.33659 0
M  V30 2213 H 230.215 -3.19121 0.485964 0
M  V30 2214 H 229.267 -2.55282 2.8202 0
M  V30 2215 H 230.579 -3.50681 3.54717 0
M  V30 2216 H 229.733 -5.56871 2.4079 0
M  V30 2217 H 228.472 -4.61524 1.5763 0
M  V30 2218 H 227.477 -3.9809 3.79215 0
M  V30 2219 H 228.702 -4.96834 4.62961 0
M  V30 2220 H 226.648 -6.00549 2.63965 0
M  V30 2221 H 226.565 -6.17428 4.36255 0
M  V30 2222 H 227.833 -6.9739 3.48236 0
M  V30 2223 N 232.062 -1.29571 -0.897171 0
M  V30 2224 C 233.31 -1.17456 -1.64464 0
M  V30 2225 C 233.631 0.273698 -1.9307 0
M  V30 2226 O 232.901 1.18684 -1.55855 0
M  V30 2227 H 231.481 -0.431706 -0.609622 0
M  V30 2228 H 234.143 -1.62531 -1.07562 0
M  V30 2229 H 233.239 -1.72648 -2.59998 0
M  V30 2230 N 233.54 1.10788 -1.12088 0
M  V30 2231 C 234.765 1.87002 -0.896949 0
M  V30 2232 C 235.19 1.79933 0.548261 0
M  V30 2233 O 234.548 1.16662 1.38779 0
M  V30 2234 C 234.596 3.3349 -1.37174 0
M  V30 2235 O 233.7 4.08745 -0.547831 0
M  V30 2236 H 233.041 0.580397 -0.322545 0
M  V30 2237 H 235.571 1.39996 -1.49206 0
M  V30 2238 H 235.581 3.84339 -1.36922 0
M  V30 2239 H 234.256 3.37951 -2.42408 0
M  V30 2240 H 232.833 3.6776 -0.617034 0
M  V30 2241 N 235.018 0.912232 1.28515 0
M  V30 2242 C 236.246 0.560416 1.99166 0
M  V30 2243 C 236.661 -0.857927 1.68182 0
M  V30 2244 O 236.018 -1.56805 0.933733 0
M  V30 2245 C 236.069 0.758142 3.53461 0
M  V30 2246 O 235.79 2.12067 3.83352 0
M  V30 2247 C 237.291 0.412954 4.41372 0
M  V30 2248 H 234.511 0.213805 0.636026 0
M  V30 2249 H 237.055 1.22502 1.63749 0
M  V30 2250 H 235.21 0.140556 3.87145 0
M  V30 2251 H 235.624 2.15923 4.77993 0
M  V30 2252 H 237.098 0.60208 5.48707 0
M  V30 2253 H 237.575 -0.65073 4.34353 0
M  V30 2254 H 238.181 1.00802 4.13182 0
M  V30 2255 N 236.496 -1.42363 0.676048 0
M  V30 2256 C 237.743 -2.01522 0.19883 0
M  V30 2257 C 238.071 -1.53456 -1.19505 0
M  V30 2258 O 237.326 -0.727967 -1.81657 0
M  V30 2259 C 237.625 -3.56929 0.183431 0
M  V30 2260 C 237.291 -4.24431 1.52215 0
M  V30 2261 C 235.953 -4.42585 1.8887 0
M  V30 2262 C 238.305 -4.62459 2.40377 0
M  V30 2263 C 235.633 -4.96039 3.13309 0
M  V30 2264 C 237.985 -5.17294 3.64129 0
M  V30 2265 C 236.649 -5.33661 4.00951 0
M  V30 2266 H 235.919 -0.737419 0.0727571 0
M  V30 2267 H 238.566 -1.70531 0.871281 0
M  V30 2268 H 236.871 -3.87594 -0.572532 0
M  V30 2269 H 238.568 -4.00486 -0.203035 0
M  V30 2270 H 235.158 -4.10661 1.22701 0
M  V30 2271 H 239.342 -4.48105 2.13343 0
M  V30 2272 H 234.598 -5.06896 3.41857 0
M  V30 2273 H 238.772 -5.45704 4.32644 0
M  V30 2274 H 236.399 -5.74845 4.9745 0
M  V30 2275 N 237.974 -0.419461 -1.51915 0
M  V30 2276 C 238.904 0.391813 -2.30189 0
M  V30 2277 C 239.885 1.03699 -1.34836 0
M  V30 2278 O 241.07 1.04403 -1.63748 0
M  V30 2279 C 238.2 1.50312 -3.13087 0
M  V30 2280 C 237.154 0.9824 -4.16573 0
M  V30 2281 C 236.48 2.18809 -4.8788 0
M  V30 2282 C 237.78 0.0292356 -5.22292 0
M  V30 2283 H 239.474 -0.26135 -2.98257 0
M  V30 2284 H 237.02 -0.127134 -1.43438 0
M  V30 2285 H 238.973 2.07773 -3.66617 0
M  V30 2286 H 237.697 2.18431 -2.42807 0
M  V30 2287 H 236.356 0.430119 -3.64068 0
M  V30 2288 H 236.004 2.85507 -4.14119 0
M  V30 2289 H 235.704 1.84615 -5.57845 0
M  V30 2290 H 237.228 2.76858 -5.44226 0
M  V30 2291 H 238.642 0.512976 -5.71 0
M  V30 2292 H 237.039 -0.2244 -5.9968 0
M  V30 2293 H 238.109 -0.912931 -4.76228 0
M  V30 2294 N 239.452 1.56882 -0.150215 0
M  V30 2295 C 240.384 2.14057 0.819286 0
M  V30 2296 C 241.397 1.09082 1.20851 0
M  V30 2297 O 242.586 1.36347 1.15203 0
M  V30 2298 C 239.686 2.65102 2.11127 0
M  V30 2299 C 238.859 3.94511 1.88891 0
M  V30 2300 C 237.918 4.30834 3.02107 0
M  V30 2301 O 236.944 4.99099 2.73659 0
M  V30 2302 N 238.146 3.90676 4.29363 0
M  V30 2303 H 240.911 2.97871 0.330618 0
M  V30 2304 H 238.472 1.61866 0.0332538 0
M  V30 2305 H 240.464 2.86411 2.85921 0
M  V30 2306 H 239.034 1.85994 2.51247 0
M  V30 2307 H 238.254 3.81795 0.981152 0
M  V30 2308 H 239.542 4.7907 1.71376 0
M  V30 2309 H 238.94 3.35677 4.55343 0
M  V30 2310 H 237.497 4.1703 5.00928 0
M  V30 2311 N 240.93 -0.123565 1.57115 0
M  V30 2312 C 241.86 -1.15309 2.03042 0
M  V30 2313 C 242.841 -1.43454 0.914061 0
M  V30 2314 O 244.026 -1.53973 1.18347 0
M  V30 2315 C 241.156 -2.48043 2.43089 0
M  V30 2316 C 240.11 -2.3437 3.58127 0
M  V30 2317 C 239.436 -3.72026 3.84059 0
M  V30 2318 C 240.736 -1.80804 4.90007 0
M  V30 2319 H 242.43 -0.771102 2.893 0
M  V30 2320 H 239.976 -0.369479 1.39179 0
M  V30 2321 H 241.929 -3.20311 2.73823 0
M  V30 2322 H 240.653 -2.88122 1.53796 0
M  V30 2323 H 239.312 -1.64551 3.27595 0
M  V30 2324 H 238.96 -4.09582 2.91979 0
M  V30 2325 H 238.66 -3.63732 4.6149 0
M  V30 2326 H 240.184 -4.45806 4.1724 0
M  V30 2327 H 241.598 -2.42886 5.19307 0
M  V30 2328 H 239.995 -1.83343 5.71407 0
M  V30 2329 H 241.065 -0.76528 4.78823 0
M  V30 2330 N 242.408 -1.52605 -0.393616 0
M  V30 2331 C 243.656 -1.67093 -1.13685 0
M  V30 2332 C 243.977 -0.411011 -1.90619 0
M  V30 2333 O 243.247 0.574491 -1.87287 0
M  V30 2334 H 241.827 -0.615923 -0.422668 0
M  V30 2335 H 244.489 -1.89704 -0.447039 0
M  V30 2336 H 243.585 -2.51922 -1.84232 0
M  V30 2337 N 243.887 0.651787 -1.4349 0
M  V30 2338 C 245.112 1.44434 -1.48841 0
M  V30 2339 C 245.537 1.8779 -0.107955 0
M  V30 2340 O 244.895 1.57464 0.898602 0
M  V30 2341 C 244.943 2.65458 -2.44059 0
M  V30 2342 O 244.047 3.64566 -1.92784 0
M  V30 2343 H 243.388 0.433005 -0.503391 0
M  V30 2344 H 245.918 0.797451 -1.88419 0
M  V30 2345 H 245.928 3.13255 -2.6141 0
M  V30 2346 H 244.603 2.33244 -3.4434 0
M  V30 2347 H 243.18 3.23716 -1.851 0
M  V30 2348 N 245.365 1.30045 0.890287 0
M  V30 2349 C 246.59 1.21598 1.68014 0
M  V30 2350 C 247.015 -0.218678 1.86825 0
M  V30 2351 O 246.373 -1.15756 1.39536 0
M  V30 2352 C 246.421 1.94434 3.03691 0
M  V30 2353 O 245.525 1.2678 3.92429 0
M  V30 2354 H 244.866 0.420856 0.513592 0
M  V30 2355 H 247.396 1.71775 1.11151 0
M  V30 2356 H 247.406 2.03251 3.5377 0
M  V30 2357 H 246.081 2.98777 2.89318 0
M  V30 2358 H 244.658 1.26282 3.50866 0
M  V30 2359 N 246.843 -1.10192 1.12674 0
M  V30 2360 C 248.071 -1.85983 0.906527 0
M  V30 2361 C 248.486 -1.80783 -0.544333 0
M  V30 2362 O 247.843 -1.19834 -1.37645 0
M  V30 2363 C 247.894 -3.34281 1.37618 0
M  V30 2364 O 247.615 -3.39401 2.77017 0
M  V30 2365 C 249.116 -4.26938 1.19325 0
M  V30 2366 H 246.336 -0.587716 0.323775 0
M  V30 2367 H 248.88 -1.39284 1.49734 0
M  V30 2368 H 247.035 -3.78436 0.828539 0
M  V30 2369 H 247.449 -4.31838 2.97684 0
M  V30 2370 H 248.923 -5.29181 1.57071 0
M  V30 2371 H 249.4 -4.38995 0.134097 0
M  V30 2372 H 250.006 -3.8859 1.72852 0
M  V30 2373 N 248.321 -0.919034 -1.28029 0
M  V30 2374 C 249.231 -0.416756 -2.30869 0
M  V30 2375 C 250.247 0.498235 -1.66714 0
M  V30 2376 O 251.423 0.383144 -1.97722 0
M  V30 2377 C 248.488 0.330274 -3.45123 0
M  V30 2378 C 247.549 -0.618578 -4.2482 0
M  V30 2379 C 246.782 0.0928959 -5.33619 0
M  V30 2380 O 247.005 1.31375 -5.55065 0
M  V30 2381 O 245.939 -0.574499 -5.99152 0
M  V30 2382 H 249.765 -1.27043 -2.75851 0
M  V30 2383 H 247.35 -0.684052 -1.3282 0
M  V30 2384 H 249.232 0.751972 -4.14636 0
M  V30 2385 H 247.907 1.1597 -3.02213 0
M  V30 2386 H 246.814 -1.08978 -3.57875 0
M  V30 2387 H 248.147 -1.41497 -4.71423 0
M  V30 2388 N 249.799 1.42003 -0.683588 0
M  V30 2389 C 250.731 2.29183 0.0283068 0
M  V30 2390 C 251.744 1.4415 0.756611 0
M  V30 2391 O 252.933 1.67779 0.609306 0
M  V30 2392 C 250.033 3.21765 1.06398 0
M  V30 2393 C 249.206 4.35496 0.407723 0
M  V30 2394 C 248.265 5.08737 1.34437 0
M  V30 2395 O 247.291 5.62948 0.841318 0
M  V30 2396 N 248.493 5.15075 2.67728 0
M  V30 2397 H 251.258 2.9092 -0.720105 0
M  V30 2398 H 248.819 1.53025 -0.528682 0
M  V30 2399 H 250.811 3.6763 1.69204 0
M  V30 2400 H 249.381 2.61418 1.71404 0
M  V30 2401 H 248.601 3.92165 -0.400012 0
M  V30 2402 H 249.889 5.08776 -0.0490956 0
M  V30 2403 H 249.287 4.72457 3.11129 0
M  V30 2404 H 247.844 5.64556 3.2576 0
M  V30 2405 N 251.277 0.427512 1.51691 0
M  V30 2406 C 252.209 -0.424521 2.25234 0
M  V30 2407 C 253.222 -0.994671 1.2888 0
M  V30 2408 O 254.411 -0.890483 1.54702 0
M  V30 2409 C 251.511 -1.60479 2.98496 0
M  V30 2410 C 250.684 -1.15527 4.21868 0
M  V30 2411 C 249.743 -2.20454 4.77793 0
M  V30 2412 O 248.769 -1.8029 5.39893 0
M  V30 2413 N 249.971 -3.52831 4.60967 0
M  V30 2414 H 252.736 0.205749 2.98993 0
M  V30 2415 H 250.297 0.255867 1.59865 0
M  V30 2416 H 252.289 -2.30276 3.32799 0
M  V30 2417 H 250.859 -2.14061 2.27809 0
M  V30 2418 H 250.079 -0.284736 3.9317 0
M  V30 2419 H 251.367 -0.832173 5.01949 0
M  V30 2420 H 250.765 -3.88201 4.11481 0
M  V30 2421 H 249.322 -4.18551 4.99658 0
M  V30 2422 N 252.755 -1.56801 0.158532 0
M  V30 2423 C 253.685 -2.20347 -0.772609 0
M  V30 2424 C 254.666 -1.15518 -1.24859 0
M  V30 2425 O 255.851 -1.43902 -1.30406 0
M  V30 2426 C 252.981 -2.83417 -2.00729 0
M  V30 2427 C 251.935 -3.94174 -1.66765 0
M  V30 2428 C 251.261 -4.44233 -2.97592 0
M  V30 2429 C 252.561 -5.14392 -0.905447 0
M  V30 2430 H 254.255 -2.98413 -0.242959 0
M  V30 2431 H 251.801 -1.43537 -0.115419 0
M  V30 2432 H 253.754 -3.26543 -2.6636 0
M  V30 2433 H 252.478 -2.02701 -2.56086 0
M  V30 2434 H 251.137 -3.51684 -1.03508 0
M  V30 2435 H 250.785 -3.60325 -3.50963 0
M  V30 2436 H 250.485 -5.18945 -2.75626 0
M  V30 2437 H 252.009 -4.90037 -3.64274 0
M  V30 2438 H 253.423 -5.5429 -1.46408 0
M  V30 2439 H 251.82 -5.9494 -0.7853 0
M  V30 2440 H 252.89 -4.84795 0.100668 0
M  V30 2441 N 254.233 0.115231 -1.57178 0
M  V30 2442 C 255.165 1.16694 -1.97269 0
M  V30 2443 C 256.178 1.37445 -0.872502 0
M  V30 2444 O 257.367 1.36454 -1.15077 0
M  V30 2445 C 254.467 2.52627 -2.25905 0
M  V30 2446 C 253.64 2.52427 -3.57211 0
M  V30 2447 C 252.699 3.70134 -3.74016 0
M  V30 2448 O 251.725 3.53546 -4.46087 0
M  V30 2449 N 252.927 4.88844 -3.13068 0
M  V30 2450 H 255.692 0.82588 -2.88096 0
M  V30 2451 H 253.253 0.304461 -1.59011 0
M  V30 2452 H 255.245 3.29937 -2.34359 0
M  V30 2453 H 253.815 2.789 -1.41186 0
M  V30 2454 H 253.035 1.60805 -3.5991 0
M  V30 2455 H 254.323 2.49353 -4.43509 0
M  V30 2456 H 253.721 5.05225 -2.54489 0
M  V30 2457 H 252.278 5.63817 -3.27037 0
M  V30 2458 N 255.711 1.52812 0.385517 0
M  V30 2459 C 256.957 1.68275 1.13188 0
M  V30 2460 C 257.29 0.423179 1.89533 0
M  V30 2461 O 256.565 -0.579113 1.85679 0
M  V30 2462 C 256.848 2.92001 2.1073 0
M  V30 2463 C 256.701 4.28067 1.38125 0
M  V30 2464 C 258.02 3.11283 3.11113 0
M  V30 2465 H 255.139 0.612352 0.410115 0
M  V30 2466 H 257.781 1.85415 0.414869 0
M  V30 2467 H 255.931 2.77519 2.71874 0
M  V30 2468 H 257.603 4.54324 0.799187 0
M  V30 2469 H 255.846 4.28388 0.683092 0
M  V30 2470 H 256.517 5.10733 2.09417 0
M  V30 2471 H 258.993 3.2482 2.6006 0
M  V30 2472 H 257.869 3.99325 3.76605 0
M  V30 2473 H 258.13 2.25656 3.80173 0
M  V30 2474 N 257.189 -0.644168 1.43834 0
M  V30 2475 C 258.438 -1.39985 1.45214 0
M  V30 2476 C 258.751 -1.95421 0.0835494 0
M  V30 2477 O 259.957 -2.71488 -0.0251748 0
M  V30 2478 C 258.413 -2.53384 2.55587 0
M  V30 2479 C 258.021 -2.04517 3.98594 0
M  V30 2480 C 259.765 -3.30685 2.66172 0
M  V30 2481 C 257.672 -3.1518 5.00416 0
M  V30 2482 H 256.602 -0.526005 0.540218 0
M  V30 2483 H 259.253 -0.694367 1.69855 0
M  V30 2484 H 257.635 -3.26446 2.24163 0
M  V30 2485 H 258.809 -1.38405 4.39523 0
M  V30 2486 H 257.124 -1.40068 3.92135 0
M  V30 2487 H 259.721 -4.13158 3.39418 0
M  V30 2488 H 260.064 -3.79312 1.71546 0
M  V30 2489 H 260.597 -2.64708 2.96942 0
M  V30 2490 H 257.336 -2.71511 5.96625 0
M  V30 2491 H 256.856 -3.79974 4.64091 0
M  V30 2492 H 258.535 -3.80166 5.23529 0
M  V30 2493 N 258.668 -1.30515 -0.883378 0
M  V30 2494 C 259.915 -1.1943 -1.63532 0
M  V30 2495 C 260.243 0.250627 -1.92878 0
M  V30 2496 O 259.498 1.19556 -1.54935 0
M  V30 2497 C 259.797 -1.96994 -2.98209 0
M  V30 2498 C 259.463 -3.466 -2.88408 0
M  V30 2499 C 258.125 -3.87397 -2.85442 0
M  V30 2500 C 260.477 -4.41863 -2.76418 0
M  V30 2501 C 257.805 -5.21745 -2.68327 0
M  V30 2502 C 260.157 -5.7632 -2.60841 0
M  V30 2503 C 258.821 -6.16354 -2.56251 0
M  V30 2504 H 258.091 -0.437025 -0.598406 0
M  V30 2505 H 260.738 -1.61635 -1.02696 0
M  V30 2506 H 259.043 -1.47429 -3.63004 0
M  V30 2507 H 260.74 -1.85808 -3.55354 0
M  V30 2508 H 257.33 -3.14182 -2.91527 0
M  V30 2509 H 261.514 -4.11285 -2.77775 0
M  V30 2510 H 256.77 -5.51853 -2.63189 0
M  V30 2511 H 260.944 -6.49772 -2.50538 0
M  V30 2512 H 258.571 -7.20401 -2.42748 0
M  V30 2513 N 260.146 1.09593 -1.13257 0
M  V30 2514 C 261.056 2.19739 -0.821691 0
M  V30 2515 C 262.072 1.72926 0.19302 0
M  V30 2516 O 263.248 2.01385 0.0244895 0
M  V30 2517 C 260.313 3.45482 -0.290333 0
M  V30 2518 C 259.374 4.06985 -1.36607 0
M  V30 2519 C 258.607 5.26726 -0.859975 0
M  V30 2520 O 258.83 5.69594 0.303082 0
M  V30 2521 O 257.764 5.7931 -1.63351 0
M  V30 2522 H 261.59 2.48781 -1.74189 0
M  V30 2523 H 259.175 1.18496 -0.909894 0
M  V30 2524 H 261.057 4.214 0.000674022 0
M  V30 2525 H 259.732 3.18047 0.602306 0
M  V30 2526 H 258.639 3.32712 -1.71037 0
M  V30 2527 H 259.972 4.38643 -2.23279 0
M  V30 2528 N 261.624 0.925811 1.2754 0
M  V30 2529 C 262.87 0.566092 1.94739 0
M  V30 2530 C 263.203 -0.890057 1.72603 0
M  V30 2531 O 262.478 -1.63467 1.05399 0
M  V30 2532 C 262.761 0.89054 3.48915 0
M  V30 2533 C 262.614 2.4003 3.80402 0
M  V30 2534 C 263.933 0.395101 4.38323 0
M  V30 2535 H 261.052 0.20714 0.707292 0
M  V30 2536 H 263.694 1.15725 1.50691 0
M  V30 2537 H 261.844 0.387452 3.86563 0
M  V30 2538 H 263.516 2.97494 3.52555 0
M  V30 2539 H 261.759 2.85028 3.2702 0
M  V30 2540 H 262.43 2.57785 4.8811 0
M  V30 2541 H 264.906 0.826241 4.07814 0
M  V30 2542 H 263.782 0.651086 5.45025 0
M  V30 2543 H 264.043 -0.704798 4.36446 0
M  V30 2544 N 263.102 -1.41638 0.69111 0
M  V30 2545 C 264.032 -2.3347 0.037248 0
M  V30 2546 C 265.013 -1.51575 -0.771947 0
M  V30 2547 O 266.198 -1.80126 -0.72582 0
M  V30 2548 C 263.328 -3.35354 -0.903064 0
M  V30 2549 C 262.282 -4.27526 -0.201288 0
M  V30 2550 C 261.608 -5.19747 -1.25565 0
M  V30 2551 C 262.908 -5.13959 0.929689 0
M  V30 2552 H 264.602 -2.88397 0.804227 0
M  V30 2553 H 262.148 -1.38669 0.388189 0
M  V30 2554 H 264.101 -3.98519 -1.36969 0
M  V30 2555 H 262.825 -2.78767 -1.70166 0
M  V30 2556 H 261.484 -3.65779 0.245265 0
M  V30 2557 H 261.132 -4.59479 -2.04666 0
M  V30 2558 H 260.832 -5.8225 -0.791128 0
M  V30 2559 H 262.356 -5.85789 -1.72288 0
M  V30 2560 H 263.77 -5.70718 0.543546 0
M  V30 2561 H 262.167 -5.85379 1.32103 0
M  V30 2562 H 263.237 -4.51389 1.77133 0
M  V30 2563 N 264.58 -0.43555 -1.51462 0
M  V30 2564 C 265.49 0.383001 -2.31453 0
M  V30 2565 C 266.506 1.02931 -1.4029 0
M  V30 2566 O 267.682 1.02507 -1.73362 0
M  V30 2567 C 264.747 1.47043 -3.13973 0
M  V30 2568 C 263.808 0.844433 -4.20913 0
M  V30 2569 C 263.041 1.88004 -4.9949 0
M  V30 2570 O 263.264 3.10199 -4.78678 0
M  V30 2571 O 262.198 1.47157 -5.83634 0
M  V30 2572 H 266.024 -0.269964 -3.02498 0
M  V30 2573 H 263.609 -0.19813 -1.4808 0
M  V30 2574 H 265.491 2.10113 -3.65281 0
M  V30 2575 H 264.166 2.10751 -2.45695 0
M  V30 2576 H 263.073 0.175729 -3.73687 0
M  V30 2577 H 264.406 0.250869 -4.9156 0
M  V30 2578 N 266.058 1.56714 -0.166846 0
M  V30 2579 C 266.968 2.21331 0.777791 0
M  V30 2580 C 267.984 1.20358 1.25658 0
M  V30 2581 O 269.16 1.53005 1.30964 0
M  V30 2582 C 266.225 2.83787 1.99163 0
M  V30 2583 C 265.286 3.99947 1.56016 0
M  V30 2584 C 264.519 4.59415 2.71613 0
M  V30 2585 O 264.742 4.17769 3.88362 0
M  V30 2586 O 263.676 5.49359 2.45945 0
M  V30 2587 H 267.502 3.02605 0.257636 0
M  V30 2588 H 265.087 1.49275 0.0611393 0
M  V30 2589 H 266.969 3.23405 2.70161 0
M  V30 2590 H 265.644 2.05513 2.50092 0
M  V30 2591 H 264.551 3.65007 0.819809 0
M  V30 2592 H 265.884 4.79801 1.09782 0
M  V30 2593 N 267.536 -0.106894 1.57237 0
M  V30 2594 C 268.766 -0.825191 1.89405 0
M  V30 2595 C 269.174 -1.73374 0.757496 0
M  V30 2596 O 268.517 -1.81552 -0.280115 0
M  V30 2597 C 268.579 -1.70102 3.1671 0
M  V30 2598 C 268.243 -0.965523 4.46684 0
M  V30 2599 C 269.24 -0.300741 5.19029 0
M  V30 2600 C 266.925 -0.943105 4.93367 0
M  V30 2601 C 268.919 0.376622 6.36286 0
M  V30 2602 C 266.606 -0.261949 6.10538 0
M  V30 2603 C 267.604 0.396748 6.81847 0
M  V30 2604 O 267.292 1.06701 7.96787 0
M  V30 2605 H 267.024 -0.241852 0.631255 0
M  V30 2606 H 269.578 -0.0921491 2.05193 0
M  V30 2607 H 267.808 -2.47601 2.97036 0
M  V30 2608 H 269.497 -2.29483 3.34802 0
M  V30 2609 H 270.263 -0.309599 4.84011 0
M  V30 2610 H 266.142 -1.44524 4.3776 0
M  V30 2611 H 269.686 0.891334 6.91882 0
M  V30 2612 H 265.583 -0.250896 6.45012 0
M  V30 2613 H 266.351 0.972707 8.127 0
M  V30 2614 N 269.014 -1.53014 -0.377408 0
M  V30 2615 C 270.291 -1.59215 -1.13622 0
M  V30 2616 C 270.671 -0.392407 -2.07421 0
M  V30 2617 O 270.019 0.618342 -2.19975 0
M  V30 2618 C 270.229 -2.93669 -1.88573 0
M  V30 2619 C 271.577 -3.47822 -2.43526 0
M  V30 2620 O 272.601 -2.9562 -1.98715 0
M  V30 2621 O 271.46 -4.39055 -3.25412 0
M  V30 2622 H 268.554 -0.642625 -0.52054 0
M  V30 2623 H 271.1 -1.65353 -0.381625 0
M  V30 2624 H 269.872 -3.7243 -1.20048 0
M  V30 2625 H 269.495 -2.90968 -2.70968 0
M  V30 2626 N 270.492 0.636531 -1.44174 0
M  V30 2627 C 271.738 1.39649 -1.47884 0
M  V30 2628 C 272.093 1.92098 -0.107747 0
M  V30 2629 O 271.386 1.70391 0.876208 0
M  V30 2630 C 271.58 2.58309 -2.47005 0
M  V30 2631 C 271.409 2.17476 -3.93617 0
M  V30 2632 C 270.179 2.0501 -4.61843 0
M  V30 2633 C 272.377 1.76722 -4.82984 0
M  V30 2634 N 270.359 1.57683 -5.93304 0
M  V30 2635 C 271.73 1.40601 -6.03847 0
M  V30 2636 C 273.785 1.64054 -4.70096 0
M  V30 2637 C 272.488 0.930787 -7.13252 0
M  V30 2638 C 274.514 1.17937 -5.79521 0
M  V30 2639 C 273.876 0.827625 -6.99521 0
M  V30 2640 H 269.975 0.506027 -0.596205 0
M  V30 2641 H 272.559 0.730791 -1.80465 0
M  V30 2642 H 270.73 3.22514 -2.16423 0
M  V30 2643 H 272.462 3.25083 -2.41045 0
M  V30 2644 H 269.217 2.25294 -4.16581 0
M  V30 2645 H 269.641 1.36334 -6.63131 0
M  V30 2646 H 274.283 1.89882 -3.77762 0
M  V30 2647 H 272.001 0.660012 -8.054 0
M  V30 2648 H 275.587 1.08601 -5.71574 0
M  V30 2649 H 274.467 0.476231 -7.82753 0
M  V30 2650 N 271.97 1.30982 0.876444 0
M  V30 2651 C 273.198 1.23242 1.6619 0
M  V30 2652 C 273.613 -0.203345 1.87702 0
M  V30 2653 O 272.97 -1.13317 1.43057 0
M  V30 2654 C 273.021 1.96623 3.03351 0
M  V30 2655 O 272.742 3.34594 2.82804 0
M  V30 2656 C 274.243 1.95644 3.97792 0
M  V30 2657 H 271.463 0.426126 0.518322 0
M  V30 2658 H 274.007 1.7275 1.09442 0
M  V30 2659 H 272.162 1.50892 3.56806 0
M  V30 2660 H 272.576 3.71873 3.69879 0
M  V30 2661 H 274.05 2.51511 4.91372 0
M  V30 2662 H 274.527 0.937395 4.2908 0
M  V30 2663 H 275.133 2.41225 3.50272 0
M  V30 2664 N 273.449 -1.08991 1.13837 0
M  V30 2665 C 274.674 -1.85551 0.926585 0
M  V30 2666 C 275.099 -1.80782 -0.519566 0
M  V30 2667 O 274.457 -1.18855 -1.36906 0
M  V30 2668 C 274.505 -3.31266 1.42462 0
M  V30 2669 O 273.609 -4.07822 0.612789 0
M  V30 2670 H 272.95 -0.575192 0.331738 0
M  V30 2671 H 275.48 -1.37604 1.51414 0
M  V30 2672 H 275.49 -3.82112 1.43019 0
M  V30 2673 H 274.165 -3.34052 2.47754 0
M  V30 2674 H 272.742 -3.66731 0.675463 0
M  V30 2675 N 274.927 -0.932562 -1.27047 0
M  V30 2676 C 276.174 -0.575559 -1.94148 0
M  V30 2677 C 276.502 0.883984 -1.73251 0
M  V30 2678 O 275.757 1.64655 -1.0577 0
M  V30 2679 C 276.056 -0.853713 -3.47054 0
M  V30 2680 C 275.722 -2.29577 -3.88079 0
M  V30 2681 C 274.384 -2.68999 -3.9899 0
M  V30 2682 C 276.736 -3.23331 -4.08787 0
M  V30 2683 C 274.064 -4.01289 -4.28 0
M  V30 2684 C 276.416 -4.55207 -4.39282 0
M  V30 2685 C 275.08 -4.94457 -4.48407 0
M  V30 2686 H 274.35 -0.210612 -0.710439 0
M  V30 2687 H 276.997 -1.17744 -1.51025 0
M  V30 2688 H 275.302 -0.169204 -3.91434 0
M  V30 2689 H 276.999 -0.55639 -3.97121 0
M  V30 2690 H 273.589 -1.97994 -3.80127 0
M  V30 2691 H 277.773 -2.94074 -3.99793 0
M  V30 2692 H 273.029 -4.31374 -4.33275 0
M  V30 2693 H 277.203 -5.27852 -4.54252 0
M  V30 2694 H 274.83 -5.96994 -4.7064 0
M  V30 2695 N 276.405 1.4127 -0.698611 0
M  V30 2696 C 277.651 2.01478 -0.231207 0
M  V30 2697 C 277.984 1.55215 1.16713 0
M  V30 2698 O 277.259 0.764672 1.78838 0
M  V30 2699 C 277.542 3.58912 -0.292281 0
M  V30 2700 C 277.395 4.15293 -1.72778 0
M  V30 2701 C 278.714 4.38736 0.346194 0
M  V30 2702 H 275.833 0.732025 -0.0854878 0
M  V30 2703 H 278.475 1.67977 -0.887906 0
M  V30 2704 H 276.625 3.87582 0.26686 0
M  V30 2705 H 278.297 3.97486 -2.341 0
M  V30 2706 H 276.54 3.7022 -2.26096 0
M  V30 2707 H 277.211 5.24452 -1.72202 0
M  V30 2708 H 279.687 4.15897 -0.130035 0
M  V30 2709 H 278.563 5.48221 0.272932 0
M  V30 2710 H 278.824 4.18425 1.42734 0
M  V30 2711 N 277.883 0.443576 1.51229 0
M  V30 2712 C 278.846 -0.353132 2.26463 0
M  V30 2713 C 279.846 -0.944338 1.3015 0
M  V30 2714 O 281.036 -0.817813 1.5381 0
M  V30 2715 C 278.168 -1.50023 3.06114 0
M  V30 2716 H 279.361 0.3063 2.98332 0
M  V30 2717 H 276.914 0.196902 1.55055 0
M  V30 2718 H 277.649 -2.19553 2.38677 0
M  V30 2719 H 277.434 -1.08241 3.76864 0
M  V30 2720 H 278.924 -2.06296 3.63087 0
M  V30 2721 N 279.361 -1.56624 0.175154 0
M  V30 2722 C 280.607 -1.9729 -0.469506 0
M  V30 2723 C 280.94 -1.06128 -1.62636 0
M  V30 2724 O 280.215 -0.109183 -1.94193 0
M  V30 2725 C 280.498 -3.47375 -0.948804 0
M  V30 2726 C 280.351 -4.49317 0.208491 0
M  V30 2727 C 281.67 -4.00652 -1.82116 0
M  V30 2728 H 278.789 -0.717317 -0.16919 0
M  V30 2729 H 281.431 -1.88184 0.262062 0
M  V30 2730 H 279.581 -3.55267 -1.57219 0
M  V30 2731 H 281.253 -4.53482 0.845682 0
M  V30 2732 H 279.496 -4.25121 0.863395 0
M  V30 2733 H 280.167 -5.51741 -0.169059 0
M  V30 2734 H 282.643 -3.95416 -1.2956 0
M  V30 2735 H 281.519 -5.06075 -2.12554 0
M  V30 2736 H 281.78 -3.44699 -2.7683 0
M  V30 2737 N 280.839 0.0985539 -1.57292 0
M  V30 2738 C 282.067 0.816318 -1.90115 0
M  V30 2739 C 282.482 1.72451 -0.768509 0
M  V30 2740 O 281.839 1.80643 0.259687 0
M  V30 2741 C 281.89 1.63259 -3.22535 0
M  V30 2742 O 281.611 0.760934 -4.31441 0
M  V30 2743 C 283.112 2.45372 -3.69199 0
M  V30 2744 H 280.332 0.233595 -0.629027 0
M  V30 2745 H 282.876 0.0768229 -2.04356 0
M  V30 2746 H 281.031 2.32463 -3.09903 0
M  V30 2747 H 281.445 1.32595 -5.07463 0
M  V30 2748 H 282.919 2.98144 -4.64558 0
M  V30 2749 H 283.396 3.23677 -2.96867 0
M  V30 2750 H 284.002 1.81373 -3.84687 0
M  V30 2751 N 282.317 1.53212 0.369288 0
M  V30 2752 C 283.545 1.73119 1.13303 0
M  V30 2753 C 283.96 0.458455 1.83149 0
M  V30 2754 O 283.317 -0.568403 1.73423 0
M  V30 2755 C 283.368 2.89413 2.16616 0
M  V30 2756 O 283.089 4.11761 1.49614 0
M  V30 2757 C 284.59 3.21161 3.05566 0
M  V30 2758 H 281.81 0.579107 0.338934 0
M  V30 2759 H 284.354 1.99942 0.429338 0
M  V30 2760 H 282.509 2.64994 2.82589 0
M  V30 2761 H 282.923 4.76858 2.18419 0
M  V30 2762 H 284.397 4.05949 3.74045 0
M  V30 2763 H 284.874 2.36369 3.70171 0
M  V30 2764 H 285.48 3.47492 2.45213 0
M  V30 2765 N 283.795 -0.628877 1.44509 0
M  V30 2766 C 285.211 -0.947305 1.28446 0
M  V30 2767 C 285.411 -2.00275 0.221872 0
M  V30 2768 O 284.467 -2.49447 -0.391471 0
M  V30 2769 C 285.78 -1.40843 2.65676 0
M  V30 2770 C 287.328 -1.52379 2.73404 0
M  V30 2771 C 287.803 -2.01875 4.11109 0
M  V30 2772 N 289.294 -2.09142 4.13296 0
M  V30 2773 C 290.029 -2.48615 5.16699 0
M  V30 2774 N 289.525 -2.87209 6.30462 0
M  V30 2775 N 291.318 -2.48768 5.04054 0
M  V30 2776 H 283.469 0.0690977 2.12288 0
M  V30 2777 H 285.732 -0.0317164 0.947469 0
M  V30 2778 H 285.438 -0.707206 3.44516 0
M  V30 2779 H 285.312 -2.37902 2.92716 0
M  V30 2780 H 287.699 -2.21598 1.9488 0
M  V30 2781 H 287.78 -0.536898 2.50102 0
M  V30 2782 H 287.424 -1.3325 4.90109 0
M  V30 2783 H 287.354 -3.0144 4.31789 0
M  V30 2784 H 289.845 -1.81991 3.31191 0
M  V30 2785 H 290.158 -3.16149 7.05174 0
M  V30 2786 H 288.503 -2.84955 6.33897 0
M  V30 2787 H 291.694 -2.18009 4.14234 0
M  V30 2788 H 291.867 -2.79207 5.84763 0
M  V30 2789 N 285.273 -1.31445 -0.869486 0
M  V30 2790 C 286.236 -1.19094 -1.9583 0
M  V30 2791 C 287.236 -0.117906 -1.60367 0
M  V30 2792 O 288.426 -0.367208 -1.70286 0
M  V30 2793 C 285.558 -0.828165 -3.30688 0
M  V30 2794 H 286.751 -2.15842 -2.08212 0
M  V30 2795 H 284.304 -1.15063 -1.05784 0
M  V30 2796 H 285.039 0.138142 -3.24006 0
M  V30 2797 H 284.824 -1.6038 -3.578 0
M  V30 2798 H 286.314 -0.765658 -4.10521 0
M  V30 2799 N 286.751 1.08385 -1.14413 0
M  V30 2800 C 288.162 1.62258 -0.923535 0
M  V30 2801 C 288.513 1.88691 0.537595 0
M  V30 2802 O 287.638 1.64454 1.40655 0
M  V30 2803 C 288.233 2.94781 -1.67002 0
M  V30 2804 C 286.792 3.45437 -1.495 0
M  V30 2805 C 285.939 2.19668 -1.69238 0
M  V30 2806 H 288.89 0.916086 -1.2959 0
M  V30 2807 H 288.911 3.63229 -1.13334 0
M  V30 2808 H 288.423 2.7551 -2.73342 0
M  V30 2809 H 286.524 3.6981 -0.455097 0
M  V30 2810 H 286.637 4.22173 -2.2651 0
M  V30 2811 H 285.001 2.28849 -1.11804 0
M  V30 2812 H 285.784 2.02905 -2.7692 0
M  V30 2813 N 288.23 0.939286 1.26551 0
M  V30 2814 C 289.478 0.58469 1.93457 0
M  V30 2815 C 289.799 -0.878774 1.74076 0
M  V30 2816 O 289.069 -1.62421 1.09528 0
M  V30 2817 H 287.649 0.21325 0.715914 0
M  V30 2818 H 290.311 1.1942 1.54029 0
M  V30 2819 H 289.407 0.800849 3.0165 0
M  V30 2820 N 289.708 -1.40897 0.706093 0
M  V30 2821 C 290.658 -2.27987 0.0240746 0
M  V30 2822 C 291.642 -1.42759 -0.742204 0
M  V30 2823 O 292.834 -1.65936 -0.615966 0
M  V30 2824 C 289.963 -3.31186 -0.903907 0
M  V30 2825 C 289.049 -4.2389 -0.133318 0
M  V30 2826 N 289.44 -4.98113 0.878444 0
M  V30 2827 C 287.738 -4.44485 -0.367269 0
M  V30 2828 C 288.439 -5.6604 1.34064 0
M  V30 2829 N 287.415 -5.39522 0.664565 0
M  V30 2830 H 291.217 -2.82812 0.799658 0
M  V30 2831 H 288.731 -1.53235 0.537845 0
M  V30 2832 H 290.728 -3.92413 -1.40775 0
M  V30 2833 H 289.388 -2.77922 -1.67897 0
M  V30 2834 H 290.399 -5.02364 1.25901 0
M  V30 2835 H 287.076 -4.02213 -1.1194 0
M  V30 2836 H 288.466 -6.35524 2.1808 0
M  V30 2837 N 291.186 -0.45159 -1.50991 0
M  V30 2838 C 292.602 -0.104647 -1.59257 0
M  V30 2839 C 292.802 1.38728 -1.4614 0
M  V30 2840 O 291.858 2.15866 -1.30989 0
M  V30 2841 C 293.171 -0.637468 -2.93865 0
M  V30 2842 C 294.719 -0.599166 -3.07212 0
M  V30 2843 C 295.194 -1.1092 -4.44366 0
M  V30 2844 N 296.685 -1.06778 -4.50725 0
M  V30 2845 C 297.42 -1.43314 -5.55201 0
M  V30 2846 N 296.916 -1.87204 -6.67028 0
M  V30 2847 N 298.709 -1.3504 -5.45638 0
M  V30 2848 H 290.86 -1.42214 -1.57762 0
M  V30 2849 H 293.123 -0.586921 -0.744465 0
M  V30 2850 H 292.829 -1.68187 -3.08879 0
M  V30 2851 H 292.703 -0.0702139 -3.77135 0
M  V30 2852 H 295.09 0.436277 -2.91857 0
M  V30 2853 H 295.171 -1.20299 -2.25747 0
M  V30 2854 H 294.815 -2.14318 -4.60467 0
M  V30 2855 H 294.745 -0.481773 -5.24392 0
M  V30 2856 H 297.236 -0.745643 -3.70471 0
M  V30 2857 H 297.549 -2.13282 -7.42786 0
M  V30 2858 H 295.894 -1.91142 -6.68199 0
M  V30 2859 H 299.085 -1.00607 -4.57161 0
M  V30 2860 H 299.258 -1.63841 -6.26945 0
M  V30 2861 N 292.664 1.56529 -0.183458 0
M  V30 2862 C 293.627 2.17324 0.728223 0
M  V30 2863 C 294.627 1.12453 1.14939 0
M  V30 2864 O 295.817 1.37902 1.06437 0
M  V30 2865 C 292.949 2.76591 1.99274 0
M  V30 2866 H 294.142 2.99241 0.198772 0
M  V30 2867 H 291.695 1.5616 0.0661391 0
M  V30 2868 H 292.43 1.98441 2.56499 0
M  V30 2869 H 292.215 3.5335 1.69959 0
M  V30 2870 H 293.705 3.23311 2.6431 0
M  V30 2871 N 294.142 -0.090211 1.57342 0
M  V30 2872 C 295.389 -0.792807 1.86335 0
M  V30 2873 C 295.717 -1.78494 0.772662 0
M  V30 2874 O 294.972 -1.94305 -0.233258 0
M  V30 2875 C 295.271 -1.55222 3.21933 0
M  V30 2876 C 294.937 -0.701765 4.45406 0
M  V30 2877 C 293.599 -0.467334 4.78925 0
M  V30 2878 C 295.951 -0.11086 5.21082 0
M  V30 2879 C 293.279 0.367785 5.85546 0
M  V30 2880 C 295.631 0.711609 6.28585 0
M  V30 2881 C 294.295 0.956086 6.60617 0
M  V30 2882 H 293.565 -0.290109 0.681849 0
M  V30 2883 H 296.212 -0.0541332 1.91423 0
M  V30 2884 H 294.517 -2.3626 3.12551 0
M  V30 2885 H 296.214 -2.10032 3.41595 0
M  V30 2886 H 292.804 -0.894598 4.1916 0
M  V30 2887 H 296.988 -0.279129 4.95514 0
M  V30 2888 H 292.244 0.566128 6.08773 0
M  V30 2889 H 296.418 1.17632 6.86393 0
M  V30 2890 H 294.045 1.60499 7.43064 0
M  V30 2891 N 295.62 -1.53406 -0.361157 0
M  V30 2892 C 296.55 -1.83136 -1.44857 0
M  V30 2893 C 297.531 -0.685174 -1.5569 0
M  V30 2894 O 298.716 -0.93544 -1.70186 0
M  V30 2895 C 295.846 -2.02522 -2.82138 0
M  V30 2896 C 294.8 -3.18302 -2.86126 0
M  V30 2897 C 294.126 -3.22989 -4.26125 0
M  V30 2898 C 295.426 -4.56796 -2.53248 0
M  V30 2899 H 297.12 -2.74201 -1.20226 0
M  V30 2900 H 294.666 -1.31938 -0.576922 0
M  V30 2901 H 296.619 -2.21904 -3.58241 0
M  V30 2902 H 295.343 -1.08172 -3.08166 0
M  V30 2903 H 294.002 -2.98747 -2.12475 0
M  V30 2904 H 293.65 -2.26267 -4.49235 0
M  V30 2905 H 293.35 -4.00781 -4.29708 0
M  V30 2906 H 294.874 -3.44559 -5.04094 0
M  V30 2907 H 296.288 -4.7631 -3.19064 0
M  V30 2908 H 294.685 -5.36862 -2.68141 0
M  V30 2909 H 295.755 -4.61606 -1.48484 0
M  V30 2910 N 297.098 0.621204 -1.44841 0
M  V30 2911 C 298.323 1.41244 -1.51871 0
M  V30 2912 C 298.748 1.87519 -0.147764 0
M  V30 2913 O 298.106 1.59334 0.865 0
M  V30 2914 C 298.154 2.60221 -2.49634 0
M  V30 2915 O 297.258 3.60395 -2.00473 0
M  V30 2916 H 296.599 0.42223 -0.512463 0
M  V30 2917 H 299.129 0.757305 -1.90069 0
M  V30 2918 H 299.139 3.0764 -2.67996 0
M  V30 2919 H 297.814 2.25887 -3.4921 0
M  V30 2920 H 296.391 3.19717 -1.91925 0
M  V30 2921 N 298.576 1.31904 0.862503 0
M  V30 2922 C 299.806 1.24817 1.64634 0
M  V30 2923 C 300.214 -0.187579 1.88268 0
M  V30 2924 O 299.557 -1.13253 1.44635 0
M  V30 2925 C 299.619 1.92996 3.03303 0
M  V30 2926 C 299.283 3.42336 3.02746 0
M  V30 2927 C 300.28 4.37956 2.80162 0
M  V30 2928 C 297.965 3.84147 3.2363 0
M  V30 2929 C 299.959 5.73361 2.78453 0
M  V30 2930 C 297.646 5.19663 3.21549 0
M  V30 2931 C 298.644 6.14081 2.98988 0
M  V30 2932 O 298.332 7.47118 2.96766 0
M  V30 2933 H 298.064 0.432222 0.519769 0
M  V30 2934 H 300.618 1.7445 1.08427 0
M  V30 2935 H 298.848 1.37922 3.61268 0
M  V30 2936 H 300.537 1.79723 3.63943 0
M  V30 2937 H 301.303 4.06981 2.63802 0
M  V30 2938 H 297.182 3.11083 3.40218 0
M  V30 2939 H 300.726 6.4703 2.60763 0
M  V30 2940 H 296.623 5.5027 3.37451 0
M  V30 2941 H 297.391 7.56382 3.12775 0
M  V30 2942 N 300.054 -1.07777 1.14986 0
M  V30 2943 C 301.303 -1.79669 0.916617 0
M  V30 2944 C 301.616 -1.87474 -0.557917 0
M  V30 2945 O 302.822 -2.55845 -0.908617 0
M  V30 2946 C 301.278 -3.22848 1.59051 0
M  V30 2947 C 300.886 -3.23257 3.10176 0
M  V30 2948 C 302.63 -3.99379 1.43864 0
M  V30 2949 C 300.537 -4.61063 3.70372 0
M  V30 2950 H 299.467 -0.673349 0.33929 0
M  V30 2951 H 302.118 -1.21003 1.37951 0
M  V30 2952 H 300.5 -3.8168 1.0553 0
M  V30 2953 H 301.674 -2.74095 3.70417 0
M  V30 2954 H 299.989 -2.60222 3.25074 0
M  V30 2955 H 302.586 -5.0122 1.86232 0
M  V30 2956 H 302.929 -4.14511 0.385564 0
M  V30 2957 H 303.462 -3.47032 1.94457 0
M  V30 2958 H 300.201 -4.51135 4.7556 0
M  V30 2959 H 299.721 -5.1048 3.14913 0
M  V30 2960 H 301.4 -5.30034 3.71043 0
M  V30 2961 N 301.532 -0.945985 -1.26051 0
M  V30 2962 C 302.442 -0.465633 -2.29933 0
M  V30 2963 C 303.458 0.462761 -1.67733 0
M  V30 2964 O 304.634 0.341118 -1.9849 0
M  V30 2965 C 301.699 0.256994 -3.45746 0
M  V30 2966 C 300.76 -0.708549 -4.23412 0
M  V30 2967 C 299.993 -0.0203135 -5.33696 0
M  V30 2968 O 300.216 1.19571 -5.57726 0
M  V30 2969 O 299.15 -0.701459 -5.97799 0
M  V30 2970 H 302.976 -1.32866 -2.73094 0
M  V30 2971 H 300.561 -0.712071 -1.31339 0
M  V30 2972 H 302.443 0.663852 -4.16138 0
M  V30 2973 H 301.118 1.09533 -3.04605 0
M  V30 2974 H 300.025 -1.16545 -3.55483 0
M  V30 2975 H 301.358 -1.51465 -4.68315 0
M  V30 2976 N 303.011 1.40521 -0.713556 0
M  V30 2977 C 304.257 2.01221 -0.252564 0
M  V30 2978 C 304.59 1.56444 1.1506 0
M  V30 2979 O 303.865 0.783597 1.78017 0
M  V30 2980 C 304.148 3.58582 -0.330332 0
M  V30 2981 C 304.001 4.13437 -1.77173 0
M  V30 2982 C 305.32 4.39079 0.299641 0
M  V30 2983 H 302.439 0.731077 -0.0932471 0
M  V30 2984 H 305.081 1.67026 -0.905673 0
M  V30 2985 H 303.231 3.87844 0.225737 0
M  V30 2986 H 304.903 3.9498 -2.38303 0
M  V30 2987 H 303.146 3.67801 -2.3001 0
M  V30 2988 H 303.817 5.22597 -1.77755 0
M  V30 2989 H 306.293 4.15735 -0.174139 0
M  V30 2990 H 305.169 5.4848 0.214771 0
M  V30 2991 H 305.43 4.19915 1.38288 0
M  V30 2992 N 304.489 0.459591 1.5075 0
M  V30 2993 C 305.419 -0.330644 2.31147 0
M  V30 2994 C 306.4 -1.00087 1.37538 0
M  V30 2995 O 307.585 -1.00025 1.66459 0
M  V30 2996 C 304.715 -1.41958 3.16962 0
M  V30 2997 C 303.669 -0.871608 4.19031 0
M  V30 2998 C 302.995 -2.05797 4.9351 0
M  V30 2999 C 304.295 0.109251 5.22186 0
M  V30 3000 H 305.989 0.340336 2.97459 0
M  V30 3001 H 303.535 0.165119 1.4305 0
M  V30 3002 H 305.488 -1.9798 3.71997 0
M  V30 3003 H 304.212 -2.11917 2.48513 0
M  V30 3004 H 302.871 -0.333442 3.6508 0
M  V30 3005 H 302.519 -2.74427 4.21544 0
M  V30 3006 H 302.219 -1.6976 5.62544 0
M  V30 3007 H 303.743 -2.62331 5.51375 0
M  V30 3008 H 305.157 -0.361405 5.7216 0
M  V30 3009 H 303.554 0.383316 5.98875 0
M  V30 3010 H 304.624 1.03887 4.73641 0
M  V30 3011 N 305.967 -1.56429 0.191757 0
M  V30 3012 C 307.195 -2.01867 -0.453586 0
M  V30 3013 C 307.61 -1.07191 -1.5542 0
M  V30 3014 O 306.967 -0.0762108 -1.82341 0
M  V30 3015 C 307.018 -3.47017 -1.013 0
M  V30 3016 O 306.739 -4.38078 0.0437005 0
M  V30 3017 C 308.24 -4.07956 -1.73456 0
M  V30 3018 H 305.46 -0.661211 -0.114199 0
M  V30 3019 H 308.004 -2.02295 0.299483 0
M  V30 3020 H 306.159 -3.47298 -1.71647 0
M  V30 3021 H 306.573 -5.23178 -0.372212 0
M  V30 3022 H 308.047 -5.1138 -2.07833 0
M  V30 3023 H 308.524 -3.51222 -2.63704 0
M  V30 3024 H 309.13 -4.11437 -1.07702 0
M  V30 3025 N 307.445 0.0818655 -1.57387 0
M  V30 3026 C 308.722 0.815343 -1.77796 0
M  V30 3027 C 309.102 1.96289 -0.77679 0
M  V30 3028 O 308.45 2.27691 0.192106 0
M  V30 3029 C 308.66 1.29765 -3.23978 0
M  V30 3030 C 310.008 1.7351 -3.8753 0
M  V30 3031 O 311.032 1.39356 -3.27808 0
M  V30 3032 O 309.891 2.36708 -4.92576 0
M  V30 3033 H 306.985 0.389914 -0.729312 0
M  V30 3034 H 309.531 0.0627213 -1.69584 0
M  V30 3035 H 308.303 0.47608 -3.88393 0
M  V30 3036 H 307.926 2.11189 -3.36875 0
M  V30 3037 N 308.923 1.53595 0.353017 0
M  V30 3038 C 310.171 1.70049 1.09215 0
M  V30 3039 C 310.492 0.461406 1.89463 0
M  V30 3040 O 309.762 -0.524633 1.88744 0
M  V30 3041 H 308.342 0.626912 0.40619 0
M  V30 3042 H 311.004 1.90822 0.396585 0
M  V30 3043 H 310.1 2.56718 1.77488 0
M  V30 3044 N 310.401 -0.613514 1.45168 0
M  V30 3045 C 311.626 -1.40437 1.52618 0
M  V30 3046 C 312.051 -1.87438 0.157707 0
M  V30 3047 O 311.409 -1.59791 -0.856537 0
M  V30 3048 C 311.457 -2.58894 2.51011 0
M  V30 3049 O 310.561 -3.59326 2.02382 0
M  V30 3050 H 309.902 -0.419506 0.514695 0
M  V30 3051 H 312.432 -0.747215 1.90467 0
M  V30 3052 H 312.442 -3.06214 2.69624 0
M  V30 3053 H 311.117 -2.24032 3.50403 0
M  V30 3054 H 309.694 -3.18695 1.93618 0
M  V30 3055 N 311.879 -1.3236 -0.855495 0
M  V30 3056 C 312.809 -1.23833 -1.97958 0
M  V30 3057 C 313.79 -0.122361 -1.69659 0
M  V30 3058 O 314.975 -0.30939 -1.9172 0
M  V30 3059 C 312.105 -0.959772 -3.33775 0
M  V30 3060 C 311.059 -2.03689 -3.76424 0
M  V30 3061 C 310.385 -1.61075 -5.09862 0
M  V30 3062 C 311.685 -3.4518 -3.9198 0
M  V30 3063 H 313.379 -2.1788 -2.0535 0
M  V30 3064 H 310.925 -1.04891 -0.986605 0
M  V30 3065 H 312.878 -0.886678 -4.11966 0
M  V30 3066 H 311.602 0.0163404 -3.26596 0
M  V30 3067 H 310.261 -2.10012 -3.00484 0
M  V30 3068 H 309.909 -0.622107 -4.99138 0
M  V30 3069 H 309.609 -2.33143 -5.39368 0
M  V30 3070 H 311.133 -1.55201 -5.90546 0
M  V30 3071 H 312.547 -3.4145 -4.60526 0
M  V30 3072 H 310.944 -4.1559 -4.32903 0
M  V30 3073 H 312.014 -3.84903 -2.94919 0
M  V30 3074 N 313.357 1.07166 -1.15556 0
M  V30 3075 C 314.603 1.80065 -0.932984 0
M  V30 3076 C 314.936 1.86586 0.53845 0
M  V30 3077 O 314.211 1.35098 1.39924 0
M  V30 3078 C 314.494 3.25022 -1.55025 0
M  V30 3079 C 314.347 3.26634 -3.09242 0
M  V30 3080 C 315.666 4.22341 -1.2376 0
M  V30 3081 H 312.785 0.653697 -0.340366 0
M  V30 3082 H 315.427 1.25389 -1.4275 0
M  V30 3083 H 313.577 3.71712 -1.12972 0
M  V30 3084 H 315.249 2.88173 -3.60214 0
M  V30 3085 H 313.492 2.65539 -3.43033 0
M  V30 3086 H 314.163 4.28854 -3.47546 0
M  V30 3087 H 316.639 3.8405 -1.60139 0
M  V30 3088 H 315.515 5.22053 -1.69564 0
M  V30 3089 H 315.776 4.41828 -0.154938 0
M  V30 3090 N 314.835 0.952656 1.25548 0
M  V30 3091 C 316.083 0.605176 1.92826 0
M  V30 3092 C 316.404 -0.860261 1.74999 0
M  V30 3093 O 315.674 -1.6125 1.11244 0
M  V30 3094 H 314.254 0.220832 0.713612 0
M  V30 3095 H 316.916 1.21047 1.52754 0
M  V30 3096 H 316.012 0.832798 3.00784 0
M  V30 3097 N 316.313 -1.40141 0.720998 0
M  V30 3098 C 317.559 -2.01572 0.272075 0
M  V30 3099 C 317.914 -1.5616 -1.12391 0
M  V30 3100 O 317.207 -0.774198 -1.75262 0
M  V30 3101 C 317.401 -3.56165 0.296892 0
M  V30 3102 C 317.23 -4.16584 1.69375 0
M  V30 3103 C 316 -4.49783 2.30269 0
M  V30 3104 C 318.198 -4.41076 2.64493 0
M  V30 3105 N 316.18 -4.95626 3.62254 0
M  V30 3106 C 317.551 -4.88971 3.81192 0
M  V30 3107 C 319.606 -4.23122 2.62435 0
M  V30 3108 C 318.309 -5.20796 4.96149 0
M  V30 3109 C 320.335 -4.56052 3.76524 0
M  V30 3110 C 319.697 -5.04141 4.91956 0
M  V30 3111 H 315.796 -0.768343 0.145511 0
M  V30 3112 H 318.38 -1.70287 0.943959 0
M  V30 3113 H 316.551 -3.86868 -0.344578 0
M  V30 3114 H 318.283 -4.04346 -0.169254 0
M  V30 3115 H 315.038 -4.37101 1.82318 0
M  V30 3116 H 315.462 -5.22923 4.29977 0
M  V30 3117 H 320.104 -3.85158 1.74393 0
M  V30 3118 H 317.822 -5.57672 5.84831 0
M  V30 3119 H 321.408 -4.43796 3.76213 0
M  V30 3120 H 320.288 -5.29142 5.78774 0
M  V30 3121 N 317.792 -0.46758 -1.50504 0
M  V30 3122 C 318.702 0.33382 -2.32213 0
M  V30 3123 C 319.718 0.999323 -1.42441 0
M  V30 3124 O 320.894 0.988068 -1.75497 0
M  V30 3125 C 317.959 1.4035 -3.17022 0
M  V30 3126 C 317.02 0.754961 -4.2261 0
M  V30 3127 C 316.253 1.77367 -5.03365 0
M  V30 3128 O 316.476 2.99976 -4.8515 0
M  V30 3129 O 315.41 1.34744 -5.86624 0
M  V30 3130 H 319.236 -0.334067 -3.01857 0
M  V30 3131 H 316.821 -0.229496 -1.47627 0
M  V30 3132 H 318.703 2.02318 -3.69656 0
M  V30 3133 H 317.378 2.05492 -2.5011 0
M  V30 3134 H 316.285 0.0964244 -3.73976 0
M  V30 3135 H 317.618 0.146545 -4.91982 0
M  V30 3136 N 319.27 1.56325 -0.20005 0
M  V30 3137 C 320.22 2.15939 0.731743 0
M  V30 3138 C 321.204 1.10154 1.17281 0
M  V30 3139 O 322.396 1.36203 1.13038 0
M  V30 3140 C 319.525 2.82614 1.94895 0
M  V30 3141 C 318.611 3.95596 1.52855 0
M  V30 3142 N 319.002 4.99118 0.819418 0
M  V30 3143 C 317.3 4.07288 1.81748 0
M  V30 3144 C 318.001 5.78513 0.608053 0
M  V30 3145 N 316.977 5.31117 1.15828 0
M  V30 3146 H 320.779 2.9334 0.181285 0
M  V30 3147 H 318.293 1.624 -0.000452172 0
M  V30 3148 H 320.29 3.23718 2.62702 0
M  V30 3149 H 318.95 2.06702 2.50408 0
M  V30 3150 H 319.961 5.15723 0.47436 0
M  V30 3151 H 316.638 3.42509 2.38734 0
M  V30 3152 H 318.028 6.71885 0.0451619 0
M  V30 3153 N 320.748 -0.0735177 1.57428 0
M  V30 3154 C 322.164 -0.428264 1.53747 0
M  V30 3155 C 322.364 -1.79272 0.91998 0
M  V30 3156 O 321.42 -2.47051 0.521745 0
M  V30 3157 C 322.733 -0.370914 2.98404 0
M  V30 3158 C 324.281 -0.451224 3.0973 0
M  V30 3159 C 324.756 -0.4238 4.56035 0
M  V30 3160 N 326.247 -0.483925 4.60665 0
M  V30 3161 C 326.982 -0.484891 5.71346 0
M  V30 3162 N 326.478 -0.440775 6.91396 0
M  V30 3163 N 328.271 -0.531319 5.59583 0
M  V30 3164 H 320.422 0.819949 1.95935 0
M  V30 3165 H 322.685 0.307493 0.896745 0
M  V30 3166 H 322.391 0.564956 3.47133 0
M  V30 3167 H 322.265 -1.18176 3.5821 0
M  V30 3168 H 324.652 -1.37752 2.60976 0
M  V30 3169 H 324.733 0.388167 2.52838 0
M  V30 3170 H 324.377 0.498638 5.05446 0
M  V30 3171 H 324.307 -1.2807 5.10789 0
M  V30 3172 H 326.798 -0.522338 3.74273 0
M  V30 3173 H 327.111 -0.44539 7.71515 0
M  V30 3174 H 325.456 -0.40749 6.93804 0
M  V30 3175 H 328.647 -0.563464 4.64696 0
M  V30 3176 H 328.82 -0.528603 6.4584 0
M  V30 3177 N 322.226 -1.5378 -0.344866 0
M  V30 3178 C 323.474 -1.70625 -1.08311 0
M  V30 3179 C 323.795 -0.471447 -1.89215 0
M  V30 3180 O 323.065 0.514616 -1.8902 0
M  V30 3181 H 321.645 -0.629058 -0.402859 0
M  V30 3182 H 324.307 -1.9103 -0.386459 0
M  V30 3183 H 323.403 -2.57656 -1.76124 0
M  V30 3184 N 323.704 0.605807 -1.45491 0
M  V30 3185 C 324.667 1.69836 -1.5391 0
M  V30 3186 C 325.667 1.55261 -0.418424 0
M  V30 3187 O 326.857 1.60296 -0.681965 0
M  V30 3188 C 323.989 3.09117 -1.43734 0
M  V30 3189 H 325.182 1.63738 -2.51257 0
M  V30 3190 H 322.735 0.821689 -1.32959 0
M  V30 3191 H 323.47 3.20791 -0.475788 0
M  V30 3192 H 323.255 3.21104 -2.25021 0
M  V30 3193 H 324.745 3.88696 -1.52661 0
M  V30 3194 N 325.182 1.32811 0.848464 0
M  V30 3195 C 326.112 1.24882 1.97299 0
M  V30 3196 C 327.093 0.131357 1.69592 0
M  V30 3197 O 328.278 0.319553 1.91553 0
M  V30 3198 C 325.408 0.97746 3.33261 0
M  V30 3199 C 324.362 2.05682 3.75338 0
M  V30 3200 C 323.688 1.63777 5.09 0
M  V30 3201 C 324.988 3.47254 3.90144 0
M  V30 3202 H 326.682 2.18966 2.04191 0
M  V30 3203 H 324.228 1.05413 0.981029 0
M  V30 3204 H 326.181 0.908513 4.1149 0
M  V30 3205 H 324.905 0.000980011 3.266 0
M  V30 3206 H 323.564 2.11603 2.99366 0
M  V30 3207 H 323.212 0.648569 4.98801 0
M  V30 3208 H 322.912 2.36 5.38124 0
M  V30 3209 H 324.436 1.5833 5.89715 0
M  V30 3210 H 325.85 3.43888 4.58709 0
M  V30 3211 H 324.247 4.1788 4.30693 0
M  V30 3212 H 325.317 3.86462 2.92874 0
M  V30 3213 N 326.66 -1.06551 1.16123 0
M  V30 3214 C 327.888 -1.83005 0.965237 0
M  V30 3215 C 328.303 -1.82423 -0.486542 0
M  V30 3216 O 327.66 -1.24152 -1.33763 0
M  V30 3217 C 327.711 -3.29733 1.48183 0
M  V30 3218 O 327.432 -3.30416 2.87674 0
M  V30 3219 C 328.933 -4.22926 1.32848 0
M  V30 3220 H 326.153 -0.577118 0.342309 0
M  V30 3221 H 328.697 -1.3445 1.54089 0
M  V30 3222 H 326.852 -3.75609 0.948517 0
M  V30 3223 H 327.266 -4.22149 3.11272 0
M  V30 3224 H 328.74 -5.23916 1.73827 0
M  V30 3225 H 329.217 -4.38346 0.273692 0
M  V30 3226 H 329.823 -3.82894 1.85127 0
M  V30 3227 N 328.138 -0.959301 -1.25041 0
M  V30 3228 C 329.068 -0.501388 -2.28053 0
M  V30 3229 C 330.049 0.454673 -1.63911 0
M  V30 3230 O 331.234 0.352618 -1.90972 0
M  V30 3231 C 328.364 0.217224 -3.4662 0
M  V30 3232 C 327.318 -0.654034 -4.22973 0
M  V30 3233 C 326.644 0.195589 -5.34342 0
M  V30 3234 C 327.944 -1.93447 -4.85155 0
M  V30 3235 H 329.638 -1.36238 -2.66608 0
M  V30 3236 H 327.184 -0.656534 -1.28163 0
M  V30 3237 H 329.137 0.548732 -4.17812 0
M  V30 3238 H 327.861 1.1125 -3.07068 0
M  V30 3239 H 326.52 -0.968693 -3.5357 0
M  V30 3240 H 326.168 1.09076 -4.91031 0
M  V30 3241 H 325.868 -0.384091 -5.86343 0
M  V30 3242 H 327.392 0.521958 -6.08365 0
M  V30 3243 H 328.806 -1.66908 -5.48466 0
M  V30 3244 H 327.203 -2.46018 -5.47353 0
M  V30 3245 H 328.273 -2.63466 -4.07079 0
M  V30 3246 N 329.616 1.39756 -0.72842 0
M  V30 3247 C 330.893 1.94574 -0.200079 0
M  V30 3248 C 331.273 1.66569 1.29684 0
M  V30 3249 O 330.621 0.990326 2.05924 0
M  V30 3250 C 330.831 3.45004 -0.526608 0
M  V30 3251 C 332.179 4.21965 -0.472318 0
M  V30 3252 O 333.203 3.53173 -0.463413 0
M  V30 3253 O 332.062 5.44552 -0.461075 0
M  V30 3254 H 329.156 0.826289 -0.0342851 0
M  V30 3255 H 331.702 1.49293 -0.806829 0
M  V30 3256 H 330.474 3.58796 -1.56144 0
M  V30 3257 H 330.097 3.97449 0.109449 0
M  V30 3258 N 331.094 0.475555 1.50254 0
M  V30 3259 C 332.505 0.0215174 1.86688 0
M  V30 3260 C 332.856 -1.38467 1.39001 0
M  V30 3261 O 331.981 -2.02732 0.756894 0
M  V30 3262 C 332.576 0.0322715 3.38785 0
M  V30 3263 C 331.135 -0.366314 3.74613 0
M  V30 3264 C 330.282 0.415832 2.74164 0
M  V30 3265 H 333.233 0.689612 1.42934 0
M  V30 3266 H 333.254 -0.76889 3.7265 0
M  V30 3267 H 332.766 1.05584 3.73462 0
M  V30 3268 H 330.867 -1.39406 3.45538 0
M  V30 3269 H 330.98 -0.064555 4.79057 0
M  V30 3270 H 329.344 -0.131048 2.54363 0
M  V30 3271 H 330.127 1.43899 3.11686 0
M  V30 3272 N 332.573 -1.56217 0.208337 0
M  V30 3273 C 333.821 -1.97558 -0.426076 0
M  V30 3274 C 334.142 -1.09683 -1.61229 0
M  V30 3275 O 333.412 -0.170956 -1.95153 0
M  V30 3276 H 331.992 -0.729575 -0.160405 0
M  V30 3277 H 334.654 -1.92606 0.298155 0
M  V30 3278 H 333.75 -3.02672 -0.761312 0
M  V30 3279 N 334.051 0.0651679 -1.57465 0
M  V30 3280 C 335.014 1.06117 -2.03155 0
M  V30 3281 C 336.014 1.31204 -0.929632 0
M  V30 3282 O 337.204 1.26813 -1.19432 0
M  V30 3283 C 334.336 2.4032 -2.41783 0
M  V30 3284 H 335.529 0.667231 -2.92383 0
M  V30 3285 H 333.082 0.311075 -1.53173 0
M  V30 3286 H 333.817 2.84532 -1.55601 0
M  V30 3287 H 333.602 2.23451 -3.22199 0
M  V30 3288 H 335.092 3.11898 -2.77685 0
M  V30 3289 N 335.529 1.53961 0.336706 0
M  V30 3290 C 336.777 1.71197 1.07405 0
M  V30 3291 C 337.098 0.481475 1.88962 0
M  V30 3292 O 336.368 -0.504585 1.8929 0
M  V30 3293 H 334.948 0.631185 0.399517 0
M  V30 3294 H 337.61 1.91232 0.376323 0
M  V30 3295 H 336.706 2.58587 1.74755 0
M  V30 3296 N 337.007 -0.598083 1.45811 0
M  V30 3297 C 337.917 -1.73632 1.57763 0
M  V30 3298 C 338.933 -1.67763 0.461676 0
M  V30 3299 O 340.109 -1.87949 0.723685 0
M  V30 3300 C 337.174 -3.10114 1.55018 0
M  V30 3301 C 336.235 -3.27364 2.77726 0
M  V30 3302 C 335.468 -4.57334 2.75102 0
M  V30 3303 O 335.691 -5.40258 1.8297 0
M  V30 3304 O 334.625 -4.77502 3.66437 0
M  V30 3305 H 338.451 -1.66498 2.53992 0
M  V30 3306 H 336.036 -0.763308 1.28429 0
M  V30 3307 H 337.918 -3.9141 1.56129 0
M  V30 3308 H 336.593 -3.17718 0.619431 0
M  V30 3309 H 335.5 -2.45619 2.82174 0
M  V30 3310 H 336.833 -3.24641 3.69958 0
M  V30 3311 N 338.485 -1.33259 -0.841409 0
M  V30 3312 C 339.448 -1.23221 -1.9326 0
M  V30 3313 C 340.448 -0.151895 -1.60081 0
M  V30 3314 O 341.638 -0.403246 -1.69468 0
M  V30 3315 C 338.77 -0.898123 -3.28856 0
M  V30 3316 H 339.963 -2.2021 -2.03587 0
M  V30 3317 H 337.516 -1.17281 -1.03319 0
M  V30 3318 H 338.251 0.0693841 -3.24226 0
M  V30 3319 H 338.036 -1.67934 -3.54317 0
M  V30 3320 H 339.526 -0.852563 -4.08805 0
M  V30 3321 N 339.963 1.05934 -1.16686 0
M  V30 3322 C 341.209 1.79065 -0.95203 0
M  V30 3323 C 341.542 1.87147 0.518629 0
M  V30 3324 O 340.817 1.36574 1.38484 0
M  V30 3325 C 341.1 3.23359 -1.58464 0
M  V30 3326 C 340.953 3.23336 -3.12689 0
M  V30 3327 C 342.272 4.21004 -1.28232 0
M  V30 3328 H 339.391 0.65005 -0.34728 0
M  V30 3329 H 342.033 1.23868 -1.44072 0
M  V30 3330 H 340.183 3.70493 -1.16908 0
M  V30 3331 H 341.855 2.84336 -3.6325 0
M  V30 3332 H 340.098 2.61886 -3.4583 0
M  V30 3333 H 340.769 4.25144 -3.52075 0
M  V30 3334 H 343.245 3.8233 -1.64203 0
M  V30 3335 H 342.121 5.20225 -1.75092 0
M  V30 3336 H 342.382 4.41639 -0.201791 0
M  V30 3337 N 341.441 0.965919 1.2453 0
M  V30 3338 C 342.371 0.513476 2.27784 0
M  V30 3339 C 343.352 -0.445974 1.6415 0
M  V30 3340 O 344.537 -0.342485 1.91156 0
M  V30 3341 C 341.667 -0.198839 3.4673 0
M  V30 3342 C 340.621 0.676456 4.2262 0
M  V30 3343 C 339.947 -0.167248 5.34438 0
M  V30 3344 C 341.247 1.96017 4.84123 0
M  V30 3345 H 342.941 1.3765 2.65881 0
M  V30 3346 H 340.487 0.663321 1.27813 0
M  V30 3347 H 342.44 -0.526567 4.18097 0
M  V30 3348 H 341.164 -1.0962 3.07654 0
M  V30 3349 H 339.823 0.98743 3.53052 0
M  V30 3350 H 339.471 -1.0647 4.91603 0
M  V30 3351 H 339.171 0.415181 5.86131 0
M  V30 3352 H 340.695 -0.489688 6.08633 0
M  V30 3353 H 342.109 1.69814 5.47573 0
M  V30 3354 H 340.506 2.48918 5.4604 0
M  V30 3355 H 341.576 2.65622 4.05676 0
M  V30 3356 N 342.919 -1.39368 0.735821 0
M  V30 3357 C 344.144 -2.05319 0.293052 0
M  V30 3358 C 344.569 -1.55115 -1.064 0
M  V30 3359 O 343.927 -0.695261 -1.67439 0
M  V30 3360 C 343.975 -3.59305 0.305323 0
M  V30 3361 O 343.079 -4.06299 -0.706761 0
M  V30 3362 H 342.42 -0.650529 0.13307 0
M  V30 3363 H 344.95 -1.78386 1.00197 0
M  V30 3364 H 344.96 -4.07724 0.149997 0
M  V30 3365 H 343.635 -3.95207 1.29553 0
M  V30 3366 H 342.212 -3.69292 -0.517504 0
M  V30 3367 N 344.397 -0.483516 -1.5 0
M  V30 3368 C 345.36 0.292965 -2.2732 0
M  V30 3369 C 346.36 0.909499 -1.32608 0
M  V30 3370 O 347.55 0.776745 -1.55924 0
M  V30 3371 C 344.682 1.41854 -3.09984 0
M  V30 3372 H 345.875 -0.385289 -2.97415 0
M  V30 3373 H 343.428 -0.237942 -1.54478 0
M  V30 3374 H 344.163 2.13148 -2.44414 0
M  V30 3375 H 343.948 0.982114 -3.79601 0
M  V30 3376 H 345.438 1.96597 -3.68429 0
M  V30 3377 N 345.875 1.56104 -0.216619 0
M  V30 3378 C 346.807 2.17339 0.72776 0
M  V30 3379 C 347.82 1.14109 1.16116 0
M  V30 3380 O 349.009 1.4111 1.09317 0
M  V30 3381 C 346.109 2.73818 1.99693 0
M  V30 3382 C 345.282 4.02168 1.71988 0
M  V30 3383 C 344.341 4.43259 2.83562 0
M  V30 3384 O 343.367 5.10257 2.52244 0
M  V30 3385 N 344.569 4.08535 4.12407 0
M  V30 3386 H 347.334 2.99005 0.203983 0
M  V30 3387 H 344.895 1.61861 -0.0354289 0
M  V30 3388 H 346.887 2.9828 2.73516 0
M  V30 3389 H 345.457 1.96483 2.43132 0
M  V30 3390 H 344.677 3.85612 0.818337 0
M  V30 3391 H 345.965 4.85907 1.50903 0
M  V30 3392 H 345.363 3.54687 4.40696 0
M  V30 3393 H 343.92 4.37901 4.8279 0
M  V30 3394 N 347.353 -0.0568162 1.57498 0
M  V30 3395 C 348.283 -1.06593 2.0775 0
M  V30 3396 C 349.264 -1.39448 0.974082 0
M  V30 3397 O 350.449 -1.48815 1.24771 0
M  V30 3398 C 347.579 -2.37509 2.5339 0
M  V30 3399 C 346.533 -2.1897 3.67745 0
M  V30 3400 C 345.859 -3.55402 3.99492 0
M  V30 3401 C 347.159 -1.59859 4.97235 0
M  V30 3402 H 348.853 -0.647706 2.9231 0
M  V30 3403 H 346.399 -0.310116 1.40621 0
M  V30 3404 H 348.352 -3.08409 2.87162 0
M  V30 3405 H 347.076 -2.8134 1.65878 0
M  V30 3406 H 345.735 -1.50508 3.3428 0
M  V30 3407 H 345.383 -3.9683 3.09088 0
M  V30 3408 H 345.083 -3.43831 4.76502 0
M  V30 3409 H 346.607 -4.27708 4.35773 0
M  V30 3410 H 348.021 -2.20642 5.29141 0
M  V30 3411 H 346.418 -1.58942 5.78669 0
M  V30 3412 H 347.488 -0.561506 4.81638 0
M  V30 3413 N 348.832 -1.54138 -0.328536 0
M  V30 3414 C 350.248 -1.44736 -0.672574 0
M  V30 3415 C 350.448 -0.616217 -1.91846 0
M  V30 3416 O 349.504 -0.113067 -2.52247 0
M  V30 3417 C 350.817 -2.884 -0.851217 0
M  V30 3418 C 352.365 -2.98271 -0.948877 0
M  V30 3419 C 352.84 -4.43074 -1.15973 0
M  V30 3420 N 354.331 -4.46665 -1.22658 0
M  V30 3421 C 355.066 -5.55857 -1.40751 0
M  V30 3422 N 354.562 -6.75026 -1.5592 0
M  V30 3423 N 356.355 -5.43495 -1.4342 0
M  V30 3424 H 348.506 -2.06661 0.490421 0
M  V30 3425 H 350.769 -0.934812 0.157579 0
M  V30 3426 H 350.475 -3.51699 -0.00704236 0
M  V30 3427 H 350.349 -3.34225 -1.74853 0
M  V30 3428 H 352.736 -2.35102 -1.78356 0
M  V30 3429 H 352.817 -2.55785 -0.0281435 0
M  V30 3430 H 352.461 -5.06827 -0.329915 0
M  V30 3431 H 352.391 -4.83165 -2.09426 0
M  V30 3432 H 354.882 -3.60797 -1.124 0
M  V30 3433 H 355.195 -7.54004 -1.69404 0
M  V30 3434 H 353.54 -6.77944 -1.53027 0
M  V30 3435 H 356.731 -4.49349 -1.31162 0
M  V30 3436 H 356.904 -6.28649 -1.57178 0
M  V30 3437 N 350.31 0.590341 -1.46126 0
M  V30 3438 C 351.535 1.37991 -1.54833 0
M  V30 3439 C 351.96 1.87163 -0.187506 0
M  V30 3440 O 351.318 1.61133 0.831008 0
M  V30 3441 C 351.366 2.54867 -2.55098 0
M  V30 3442 O 350.47 3.56061 -2.08073 0
M  V30 3443 H 349.811 0.411265 -0.521303 0
M  V30 3444 H 352.341 0.716819 -1.91632 0
M  V30 3445 H 352.351 3.01886 -2.74461 0
M  V30 3446 H 351.026 2.18429 -3.53923 0
M  V30 3447 H 349.603 3.15574 -1.98664 0
M  V30 3448 N 351.788 1.33704 0.83433 0
M  V30 3449 C 353.034 1.25603 1.59222 0
M  V30 3450 C 353.367 -0.176659 1.93395 0
M  V30 3451 O 352.642 -1.11915 1.59076 0
M  V30 3452 C 352.925 2.13576 2.89926 0
M  V30 3453 C 352.778 3.65326 2.62406 0
M  V30 3454 C 354.097 2.01238 3.91397 0
M  V30 3455 H 351.216 0.457613 0.577719 0
M  V30 3456 H 353.858 1.63848 0.961972 0
M  V30 3457 H 352.008 1.8109 3.43713 0
M  V30 3458 H 353.68 4.08124 2.15017 0
M  V30 3459 H 351.923 3.8698 1.96033 0
M  V30 3460 H 352.594 4.22232 3.55562 0
M  V30 3461 H 355.07 2.29738 3.46929 0
M  V30 3462 H 353.946 2.65036 4.80673 0
M  V30 3463 H 354.207 0.985951 4.30966 0
M  V30 3464 N 353.266 -1.05314 1.17247 0
M  V30 3465 C 354.491 -1.82509 0.985148 0
M  V30 3466 C 354.916 -1.82343 -0.461788 0
M  V30 3467 O 354.274 -1.23151 -1.33055 0
M  V30 3468 C 354.322 -3.26566 1.52929 0
M  V30 3469 O 353.426 -4.05666 0.742225 0
M  V30 3470 H 352.767 -0.564347 0.349869 0
M  V30 3471 H 355.297 -1.32718 1.55715 0
M  V30 3472 H 355.307 -3.77369 1.55103 0
M  V30 3473 H 353.982 -3.26001 2.58256 0
M  V30 3474 H 352.559 -3.64397 0.791794 0
M  V30 3475 N 354.744 -0.972509 -1.24016 0
M  V30 3476 C 355.707 -0.511403 -2.23422 0
M  V30 3477 C 356.707 0.394679 -1.55881 0
M  V30 3478 O 357.897 0.189469 -1.73167 0
M  V30 3479 C 355.029 0.258769 -3.39916 0
M  V30 3480 H 356.222 -1.39024 -2.6573 0
M  V30 3481 H 353.775 -0.757585 -1.36713 0
M  V30 3482 H 354.51 1.1545 -3.03054 0
M  V30 3483 H 354.295 -0.391522 -3.9014 0
M  V30 3484 H 355.785 0.570244 -4.13688 0
M  V30 3485 N 356.222 1.38976 -0.743202 0
M  V30 3486 C 357.154 2.29096 -0.0689228 0
M  V30 3487 C 358.167 1.47229 0.694791 0
M  V30 3488 O 359.356 1.70212 0.537597 0
M  V30 3489 C 356.456 3.25988 0.926548 0
M  V30 3490 C 355.629 4.36833 0.222647 0
M  V30 3491 C 354.688 5.13981 1.12739 0
M  V30 3492 O 353.714 5.6601 0.601795 0
M  V30 3493 N 354.916 5.25966 2.45641 0
M  V30 3494 H 357.681 2.87604 -0.842846 0
M  V30 3495 H 355.242 1.50645 -0.593109 0
M  V30 3496 H 357.234 3.74476 1.5346 0
M  V30 3497 H 355.804 2.68453 1.60162 0
M  V30 3498 H 355.024 3.90116 -0.565983 0
M  V30 3499 H 356.312 5.0811 -0.264841 0
M  V30 3500 H 355.71 4.85228 2.9081 0
M  V30 3501 H 354.267 5.77865 3.01522 0
M  V30 3502 N 357.7 0.491464 1.49741 0
M  V30 3503 C 358.949 -0.0582189 2.01616 0
M  V30 3504 C 359.262 -1.38927 1.3769 0
M  V30 3505 O 360.468 -2.02509 1.80838 0
M  V30 3506 C 358.924 -0.154235 3.59569 0
M  V30 3507 C 358.532 1.1696 4.32463 0
M  V30 3508 C 360.276 -0.65479 4.1942 0
M  V30 3509 C 358.183 1.03627 5.8225 0
M  V30 3510 H 357.113 -0.0255317 0.753568 0
M  V30 3511 H 359.764 0.629445 1.72367 0
M  V30 3512 H 358.146 -0.906138 3.85493 0
M  V30 3513 H 359.32 1.93405 4.18248 0
M  V30 3514 H 357.635 1.60285 3.84315 0
M  V30 3515 H 360.232 -0.771903 5.29099 0
M  V30 3516 H 360.575 -1.65127 3.8215 0
M  V30 3517 H 361.108 0.040304 3.9778 0
M  V30 3518 H 357.847 2.00672 6.24028 0
M  V30 3519 H 357.367 0.312546 5.98985 0
M  V30 3520 H 359.046 0.711114 6.4308 0
M  V30 3521 N 359.178 -1.55987 0.224894 0
M  V30 3522 C 360.594 -1.59066 -0.130426 0
M  V30 3523 C 360.794 -1.24176 -1.5869 0
M  V30 3524 O 359.85 -0.978592 -2.32766 0
M  V30 3525 C 361.163 -3.00042 0.198883 0
M  V30 3526 C 362.711 -3.1268 0.141391 0
M  V30 3527 C 363.186 -4.55839 0.444422 0
M  V30 3528 N 364.677 -4.6152 0.394115 0
M  V30 3529 C 365.412 -5.70231 0.602038 0
M  V30 3530 N 364.908 -6.87291 0.871914 0
M  V30 3531 N 366.701 -5.59555 0.534245 0
M  V30 3532 H 358.852 -1.76941 1.17497 0
M  V30 3533 H 361.115 -0.822604 0.471197 0
M  V30 3534 H 360.821 -3.30234 1.2099 0
M  V30 3535 H 360.695 -3.74075 -0.484535 0
M  V30 3536 H 363.082 -2.82283 -0.860265 0
M  V30 3537 H 363.163 -2.40969 0.858335 0
M  V30 3538 H 362.807 -4.86954 1.44353 0
M  V30 3539 H 362.737 -5.2578 -0.293752 0
M  V30 3540 H 365.228 -3.77405 0.193356 0
M  V30 3541 H 365.541 -7.66058 1.01858 0
M  V30 3542 H 363.886 -6.89028 0.909145 0
M  V30 3543 H 367.077 -4.6698 0.323612 0
M  V30 3544 H 367.25 -6.44211 0.699693 0
M  V30 3545 N 360.656 0.0484629 -1.57525 0
M  V30 3546 C 361.586 1.0549 -2.08313 0
M  V30 3547 C 362.567 1.38929 -0.981463 0
M  V30 3548 O 363.752 1.48151 -1.25558 0
M  V30 3549 C 360.882 2.36162 -2.54646 0
M  V30 3550 C 359.836 2.17016 -3.68901 0
M  V30 3551 C 359.162 3.53278 -4.01371 0
M  V30 3552 C 360.462 1.57219 -4.98076 0
M  V30 3553 H 362.156 0.632195 -2.92649 0
M  V30 3554 H 359.702 0.302654 -1.40784 0
M  V30 3555 H 361.655 3.06882 -2.88793 0
M  V30 3556 H 360.379 2.80456 -1.67368 0
M  V30 3557 H 359.038 1.48733 -3.35073 0
M  V30 3558 H 358.686 3.95185 -3.11188 0
M  V30 3559 H 358.386 3.41299 -4.78318 0
M  V30 3560 H 359.91 4.25391 -4.38035 0
M  V30 3561 H 361.324 2.17832 -5.30304 0
M  V30 3562 H 359.721 1.55871 -5.79503 0
M  V30 3563 H 360.791 0.535956 -4.81929 0
M  V30 3564 N 362.134 1.5431 0.320358 0
M  V30 3565 C 363.064 1.86912 1.3995 0
M  V30 3566 C 364.045 0.726211 1.53819 0
M  V30 3567 O 365.23 0.980233 1.67646 0
M  V30 3568 C 362.36 2.09932 2.7667 0
M  V30 3569 C 361.314 3.25776 2.77586 0
M  V30 3570 C 360.64 3.34173 4.17412 0
M  V30 3571 C 361.94 4.6335 2.41048 0
M  V30 3572 H 363.634 2.77292 1.12914 0
M  V30 3573 H 361.18 1.33421 0.541738 0
M  V30 3574 H 363.133 2.31324 3.52232 0
M  V30 3575 H 361.857 1.16304 3.0519 0
M  V30 3576 H 360.516 3.04276 2.04479 0
M  V30 3577 H 360.164 2.38098 4.43078 0
M  V30 3578 H 359.864 4.12033 4.18931 0
M  V30 3579 H 361.388 3.57803 4.94782 0
M  V30 3580 H 362.802 4.84602 3.06324 0
M  V30 3581 H 361.199 5.43782 2.53813 0
M  V30 3582 H 362.269 4.65381 1.36193 0
M  V30 3583 N 363.613 -0.582584 1.46437 0
M  V30 3584 C 364.86 -1.34079 1.51753 0
M  V30 3585 C 365.188 -1.93762 0.169299 0
M  V30 3586 O 364.443 -1.76989 -0.835062 0
M  V30 3587 C 364.742 -2.48964 2.56421 0
M  V30 3588 C 364.408 -2.07273 4.00436 0
M  V30 3589 C 363.07 -1.95618 4.39644 0
M  V30 3590 C 365.422 -1.75111 4.90903 0
M  V30 3591 C 362.75 -1.5006 5.67185 0
M  V30 3592 C 365.102 -1.31032 6.18881 0
M  V30 3593 C 363.766 -1.17954 6.56996 0
M  V30 3594 H 363.036 -0.49063 0.555304 0
M  V30 3595 H 365.683 -0.656007 1.79913 0
M  V30 3596 H 363.988 -3.22889 2.21923 0
M  V30 3597 H 365.685 -3.07178 2.57765 0
M  V30 3598 H 362.275 -2.17279 3.69443 0
M  V30 3599 H 366.459 -1.83001 4.61329 0
M  V30 3600 H 361.715 -1.38577 5.95488 0
M  V30 3601 H 365.889 -1.052 6.88408 0
M  V30 3602 H 363.516 -0.824279 7.55718 0
M  V30 3603 N 365.091 -1.34144 -0.827227 0
M  V30 3604 C 366.331 -1.27603 -1.59677 0
M  V30 3605 C 366.695 0.153035 -1.91389 0
M  V30 3606 O 367.896 0.342566 -2.66608 0
M  V30 3607 C 366.167 -2.13784 -2.86411 0
M  V30 3608 S 367.726 -2.24552 -3.76991 0
M  V30 3609 H 364.544 -0.453789 -0.547354 0
M  V30 3610 H 367.146 -1.69309 -0.977479 0
M  V30 3611 H 365.85 -3.16627 -2.61104 0
M  V30 3612 H 365.381 -1.72959 -3.5334 0
M  V30 3613 H 367.396 -1.41514 -4.75593 0
M  V30 3614 N 366.569 1.04691 -1.17803 0
M  V30 3615 C 367.532 2.10724 -0.901545 0
M  V30 3616 C 368.532 1.6042 0.110437 0
M  V30 3617 O 369.722 1.7377 -0.122303 0
M  V30 3618 C 366.854 3.39084 -0.351409 0
M  V30 3619 H 368.047 2.36686 -1.84174 0
M  V30 3620 H 365.6 1.21015 -0.98919 0
M  V30 3621 H 366.335 3.18782 0.59569 0
M  V30 3622 H 366.12 3.76909 -1.08083 0
M  V30 3623 H 367.61 4.17227 -0.176451 0
M  V30 3624 N 368.047 0.979072 1.23499 0
M  V30 3625 C 369.463 0.687475 1.44034 0
M  V30 3626 C 369.663 -0.746801 1.8715 0
M  V30 3627 O 368.719 -1.51939 2.0167 0
M  V30 3628 C 370.032 1.68127 2.49307 0
M  V30 3629 C 371.58 1.69516 2.63122 0
M  V30 3630 C 372.055 2.67723 3.71603 0
M  V30 3631 N 373.546 2.66233 3.79044 0
M  V30 3632 C 374.281 3.38891 4.62537 0
M  V30 3633 N 373.777 4.21103 5.50131 0
M  V30 3634 N 375.57 3.27661 4.56721 0
M  V30 3635 H 367.721 1.90559 0.938135 0
M  V30 3636 H 369.984 0.821051 0.473897 0
M  V30 3637 H 369.69 2.70693 2.2454 0
M  V30 3638 H 369.564 1.46306 3.4767 0
M  V30 3639 H 371.951 0.676561 2.8724 0
M  V30 3640 H 372.032 1.95404 1.65079 0
M  V30 3641 H 371.676 3.69724 3.48233 0
M  V30 3642 H 371.606 2.39111 4.69184 0
M  V30 3643 H 374.097 2.06568 3.16446 0
M  V30 3644 H 374.41 4.73403 6.10827 0
M  V30 3645 H 372.755 4.25195 5.49759 0
M  V30 3646 H 375.946 2.62887 3.87309 0
M  V30 3647 H 376.119 3.84547 5.21562 0
M  V30 3648 N 369.525 -1.3858 0.750561 0
M  V30 3649 C 370.435 -2.34278 0.122825 0
M  V30 3650 C 371.451 -1.59116 -0.704131 0
M  V30 3651 O 372.627 -1.91326 -0.628987 0
M  V30 3652 C 369.692 -3.38221 -0.762086 0
M  V30 3653 C 368.753 -4.29227 0.078896 0
M  V30 3654 C 367.986 -5.28205 -0.763874 0
M  V30 3655 O 368.209 -5.34112 -2.00201 0
M  V30 3656 O 367.143 -6.01618 -0.18428 0
M  V30 3657 H 370.969 -2.89649 0.913088 0
M  V30 3658 H 368.554 -1.40374 0.511417 0
M  V30 3659 H 370.436 -4.01872 -1.26793 0
M  V30 3660 H 369.111 -2.85211 -1.5309 0
M  V30 3661 H 368.018 -3.68747 0.630621 0
M  V30 3662 H 369.351 -4.85484 0.810289 0
M  V30 3663 N 371.003 -0.499398 -1.49478 0
M  V30 3664 C 371.913 0.284489 -2.32869 0
M  V30 3665 C 372.929 0.968885 -1.44529 0
M  V30 3666 O 374.105 0.95062 -1.77553 0
M  V30 3667 C 371.17 1.33594 -3.19928 0
M  V30 3668 C 370.231 0.665149 -4.24116 0
M  V30 3669 C 369.464 1.6665 -5.07014 0
M  V30 3670 O 369.687 2.89618 -4.91404 0
M  V30 3671 O 368.621 1.22271 -5.8935 0
M  V30 3672 H 372.447 -0.39802 -3.01081 0
M  V30 3673 H 370.032 -0.260758 -1.47107 0
M  V30 3674 H 371.914 1.94431 -3.73864 0
M  V30 3675 H 370.589 2.0014 -2.54412 0
M  V30 3676 H 369.496 0.0170769 -3.74096 0
M  V30 3677 H 370.829 0.0421555 -4.92182 0
M  V30 3678 N 372.481 1.55866 -0.233164 0
M  V30 3679 C 373.444 2.1953 0.658715 0
M  V30 3680 C 374.444 1.16053 1.11303 0
M  V30 3681 O 375.634 1.41218 1.01996 0
M  V30 3682 C 372.766 2.82791 1.90373 0
M  V30 3683 H 373.959 2.99721 0.10347 0
M  V30 3684 H 371.512 1.56291 0.0164245 0
M  V30 3685 H 372.247 2.06501 2.50056 0
M  V30 3686 H 372.032 3.58578 1.58632 0
M  V30 3687 H 373.522 3.31556 2.53891 0
M  V30 3688 N 373.959 -0.0401083 1.57549 0
M  V30 3689 C 374.869 -1.06133 2.0922 0
M  V30 3690 C 375.885 -1.40356 1.0284 0
M  V30 3691 O 377.061 -1.49897 1.34509 0
M  V30 3692 C 374.126 -2.34658 2.55218 0
M  V30 3693 C 373.187 -2.07117 3.76033 0
M  V30 3694 C 372.42 -3.29514 4.19829 0
M  V30 3695 O 372.643 -4.39794 3.63232 0
M  V30 3696 O 371.577 -3.15863 5.12362 0
M  V30 3697 H 375.403 -0.652244 2.96613 0
M  V30 3698 H 372.988 -0.256368 1.47184 0
M  V30 3699 H 374.87 -3.10239 2.85184 0
M  V30 3700 H 373.545 -2.74883 1.70941 0
M  V30 3701 H 372.452 -1.29139 3.51104 0
M  V30 3702 H 373.785 -1.71754 4.61261 0
M  V30 3703 N 375.437 -1.54477 -0.31217 0
M  V30 3704 C 376.848 -1.64344 -0.885891 0
M  V30 3705 C 377.199 -0.54485 -1.88483 0
M  V30 3706 O 376.324 0.320387 -2.14015 0
M  V30 3707 C 376.919 -2.97908 -1.61357 0
M  V30 3708 C 375.478 -3.09933 -2.13585 0
M  V30 3709 C 374.625 -2.59971 -0.964897 0
M  V30 3710 H 377.576 -1.58448 -0.0894528 0
M  V30 3711 H 377.597 -2.88706 -2.47848 0
M  V30 3712 H 377.109 -3.77845 -0.886277 0
M  V30 3713 H 375.21 -2.34694 -2.89395 0
M  V30 3714 H 375.323 -4.15916 -2.37804 0
M  V30 3715 H 373.687 -2.16147 -1.34731 0
M  V30 3716 H 374.47 -3.42376 -0.251742 0
M  V30 3717 N 376.915 0.57481 -1.46744 0
M  V30 3718 C 378.161 1.3347 -1.52688 0
M  V30 3719 C 378.494 1.93353 -0.181229 0
M  V30 3720 O 377.769 1.76912 0.808237 0
M  V30 3721 C 378.052 2.45811 -2.63152 0
M  V30 3722 C 377.905 1.90912 -4.07275 0
M  V30 3723 C 379.224 3.47822 -2.69644 0
M  V30 3724 H 376.343 0.483935 -0.555856 0
M  V30 3725 H 378.985 0.644968 -1.78718 0
M  V30 3726 H 377.135 3.04646 -2.41088 0
M  V30 3727 H 378.807 1.36473 -4.4065 0
M  V30 3728 H 377.05 1.21691 -4.16382 0
M  V30 3729 H 377.721 2.72042 -4.80309 0
M  V30 3730 H 380.197 2.9888 -2.895 0
M  V30 3731 H 379.073 4.23876 -3.48742 0
M  V30 3732 H 379.334 4.05555 -1.76005 0
M  V30 3733 N 378.394 1.34581 0.820102 0
M  V30 3734 C 379.641 1.27096 1.57648 0
M  V30 3735 C 379.969 -0.158317 1.93855 0
M  V30 3736 O 379.224 -1.12028 1.60463 0
M  V30 3737 C 379.523 2.10997 2.8847 0
M  V30 3738 C 379.189 3.59966 2.71543 0
M  V30 3739 C 377.851 4.00575 2.66634 0
M  V30 3740 C 380.203 4.54548 2.55021 0
M  V30 3741 C 377.531 5.33953 2.43128 0
M  V30 3742 C 379.883 5.88109 2.33047 0
M  V30 3743 C 378.547 6.27878 2.26552 0
M  V30 3744 H 377.817 0.465078 0.576874 0
M  V30 3745 H 380.464 1.6635 0.948671 0
M  V30 3746 H 378.769 1.6458 3.55557 0
M  V30 3747 H 380.466 2.0255 3.46084 0
M  V30 3748 H 377.056 3.27733 2.76205 0
M  V30 3749 H 381.24 4.24069 2.57835 0
M  V30 3750 H 376.496 5.63781 2.3656 0
M  V30 3751 H 380.67 6.60985 2.19251 0
M  V30 3752 H 378.297 7.31162 2.081 0
M  V30 3753 N 379.872 -1.04064 1.18357 0
M  V30 3754 C 381.288 -1.2947 0.933258 0
M  V30 3755 C 381.488 -1.97466 -0.401169 0
M  V30 3756 O 380.544 -2.25528 -1.13549 0
M  V30 3757 C 381.857 -2.15337 2.09882 0
M  V30 3758 C 383.405 -2.28683 2.13712 0
M  V30 3759 C 383.88 -3.17917 3.29686 0
M  V30 3760 N 385.371 -3.25504 3.29547 0
M  V30 3761 C 386.106 -3.94706 4.15926 0
M  V30 3762 N 385.602 -4.66239 5.12439 0
M  V30 3763 N 387.395 -3.90986 4.0384 0
M  V30 3764 H 379.546 -0.583359 2.04232 0
M  V30 3765 H 381.809 -0.319921 0.892387 0
M  V30 3766 H 381.515 -1.72682 3.06389 0
M  V30 3767 H 381.389 -3.16015 2.05947 0
M  V30 3768 H 383.776 -2.70575 1.17784 0
M  V30 3769 H 383.857 -1.27596 2.21705 0
M  V30 3770 H 383.501 -2.76736 4.25887 0
M  V30 3771 H 383.431 -4.19036 3.1893 0
M  V30 3772 H 385.922 -2.74547 2.59677 0
M  V30 3773 H 386.235 -5.16638 5.74722 0
M  V30 3774 H 384.58 -4.65143 5.16398 0
M  V30 3775 H 387.771 -3.34234 3.27727 0
M  V30 3776 H 387.944 -4.44646 4.71375 0
M  V30 3777 N 381.35 -0.985608 -1.22978 0
M  V30 3778 C 382.313 -0.535071 -2.22867 0
M  V30 3779 C 383.313 0.378123 -1.56291 0
M  V30 3780 O 384.503 0.171092 -1.73358 0
M  V30 3781 C 381.635 0.222702 -3.40172 0
M  V30 3782 H 382.828 -1.41835 -2.6424 0
M  V30 3783 H 380.381 -0.772042 -1.35901 0
M  V30 3784 H 381.116 1.12229 -3.04262 0
M  V30 3785 H 380.901 -0.43288 -3.89703 0
M  V30 3786 H 382.391 0.526335 -4.1427 0
M  V30 3787 N 382.828 1.3818 -0.7579 0
M  V30 3788 C 383.791 2.28764 -0.141286 0
M  V30 3789 C 384.791 1.47388 0.642907 0
M  V30 3790 O 385.981 1.67781 0.468536 0
M  V30 3791 C 383.113 3.31184 0.808069 0
M  V30 3792 H 384.306 2.848 -0.939633 0
M  V30 3793 H 381.859 1.47212 -0.525191 0
M  V30 3794 H 382.594 2.80247 1.63193 0
M  V30 3795 H 382.379 3.91314 0.248104 0
M  V30 3796 H 383.869 3.98909 1.23536 0
M  V30 3797 N 384.306 0.507319 1.49211 0
M  V30 3798 C 385.216 -0.272136 2.33016 0
M  V30 3799 C 386.232 -0.961206 1.45041 0
M  V30 3800 O 387.408 -0.941191 1.78055 0
M  V30 3801 C 384.473 -1.31895 3.20631 0
M  V30 3802 C 383.534 -0.642648 4.24463 0
M  V30 3803 C 382.767 -1.63959 5.07891 0
M  V30 3804 O 382.99 -2.87007 4.92933 0
M  V30 3805 O 381.924 -1.19143 5.8999 0
M  V30 3806 H 385.75 0.413982 3.00865 0
M  V30 3807 H 383.335 0.268556 1.46966 0
M  V30 3808 H 385.217 -1.92446 3.7489 0
M  V30 3809 H 383.892 -1.98788 2.5547 0
M  V30 3810 H 382.799 0.00276252 3.741 0
M  V30 3811 H 384.132 -0.0160534 4.92197 0
M  V30 3812 N 385.784 -1.5574 0.241426 0
M  V30 3813 C 386.694 -2.2479 -0.671305 0
M  V30 3814 C 387.71 -1.26217 -1.19772 0
M  V30 3815 O 388.886 -1.59079 -1.23514 0
M  V30 3816 C 385.951 -2.92966 -1.85396 0
M  V30 3817 C 385.012 -4.06935 -1.36756 0
M  V30 3818 C 384.245 -4.71851 -2.49384 0
M  V30 3819 O 384.468 -4.35823 -3.67987 0
M  V30 3820 O 383.402 -5.60467 -2.19454 0
M  V30 3821 H 387.228 -3.0349 -0.112966 0
M  V30 3822 H 384.813 -1.49397 0.0101513 0
M  V30 3823 H 386.695 -3.35927 -2.54423 0
M  V30 3824 H 385.37 -2.17211 -2.40002 0
M  V30 3825 H 384.277 -3.68503 -0.644726 0
M  V30 3826 H 385.61 -4.84492 -0.867647 0
M  V30 3827 N 387.262 0.0317525 -1.57568 0
M  V30 3828 C 388.225 1.01783 -2.0536 0
M  V30 3829 C 389.225 1.29203 -0.957253 0
M  V30 3830 O 390.415 1.24251 -1.22095 0
M  V30 3831 C 387.547 2.35137 -2.46827 0
M  V30 3832 H 388.74 0.605062 -2.93733 0
M  V30 3833 H 386.293 0.278514 -1.53799 0
M  V30 3834 H 387.028 2.81168 -1.61602 0
M  V30 3835 H 386.813 2.16566 -3.26866 0
M  V30 3836 H 388.303 3.05938 -2.84239 0
M  V30 3837 N 388.74 1.54641 0.303973 0
M  V30 3838 C 389.988 1.73437 1.0375 0
M  V30 3839 C 390.309 0.521449 1.87899 0
M  V30 3840 O 389.579 -0.46432 1.90318 0
M  V30 3841 H 388.159 0.639518 0.386039 0
M  V30 3842 H 390.821 1.91988 0.335675 0
M  V30 3843 H 389.917 2.62235 1.69231 0
M  V30 3844 N 390.218 -0.567019 1.47046 0
M  V30 3845 C 391.148 -1.68482 1.61667 0
M  V30 3846 C 392.129 -1.6358 0.466418 0
M  V30 3847 O 393.314 -1.81354 0.694574 0
M  V30 3848 C 390.444 -3.07124 1.62148 0
M  V30 3849 C 389.398 -3.26867 2.76301 0
M  V30 3850 C 388.724 -4.66196 2.61849 0
M  V30 3851 C 390.024 -3.13186 4.17986 0
M  V30 3852 H 391.718 -1.56502 2.5524 0
M  V30 3853 H 389.264 -0.751486 1.22836 0
M  V30 3854 H 391.217 -3.8516 1.70968 0
M  V30 3855 H 389.941 -3.2004 0.651287 0
M  V30 3856 H 388.6 -2.51237 2.66975 0
M  V30 3857 H 388.248 -4.75898 1.62879 0
M  V30 3858 H 387.948 -4.80356 3.38425 0
M  V30 3859 H 389.472 -5.46379 2.72584 0
M  V30 3860 H 390.886 -3.81049 4.2834 0
M  V30 3861 H 389.283 -3.3886 4.95272 0
M  V30 3862 H 390.353 -2.10057 4.3704 0
M  V30 3863 N 391.696 -1.35014 -0.812953 0
M  V30 3864 C 392.924 -1.31031 -1.6012 0
M  V30 3865 C 393.339 0.113558 -1.88458 0
M  V30 3866 O 392.696 1.06363 -1.48301 0
M  V30 3867 C 392.747 -2.10872 -2.93624 0
M  V30 3868 O 392.468 -3.47706 -2.66518 0
M  V30 3869 C 393.969 -2.14401 -3.88004 0
M  V30 3870 H 391.189 -0.45037 -0.497401 0
M  V30 3871 H 393.733 -1.77775 -1.01076 0
M  V30 3872 H 391.888 -1.67744 -3.492 0
M  V30 3873 H 392.302 -3.89097 -3.51715 0
M  V30 3874 H 393.776 -2.74669 -4.78812 0
M  V30 3875 H 394.253 -1.14105 -4.24119 0
M  V30 3876 H 394.859 -2.57662 -3.38364 0
M  V30 3877 N 393.175 1.03435 -1.18907 0
M  V30 3878 C 394.423 1.76394 -0.986382 0
M  V30 3879 C 394.744 1.88883 0.484567 0
M  V30 3880 O 394.014 1.41843 1.3512 0
M  V30 3881 H 392.594 0.65344 -0.361975 0
M  V30 3882 H 395.256 1.248 -1.49703 0
M  V30 3883 H 394.352 2.77424 -1.42978 0
M  V30 3884 N 394.653 0.992116 1.22453 0
M  V30 3885 C 395.878 0.685644 1.95739 0
M  V30 3886 C 396.303 -0.743 1.72804 0
M  V30 3887 O 395.661 -1.50778 1.00676 0
M  V30 3888 C 395.709 0.996293 3.46564 0
M  V30 3889 O 394.813 0.0945512 4.12292 0
M  V30 3890 H 394.154 0.256694 0.612376 0
M  V30 3891 H 396.684 1.32888 1.5557 0
M  V30 3892 H 396.694 0.93781 3.97076 0
M  V30 3893 H 395.369 2.03733 3.62582 0
M  V30 3894 H 393.946 0.208451 3.72317 0
M  V30 3895 N 396.131 -1.37776 0.765217 0
M  V30 3896 C 397.379 -1.99454 0.325943 0
M  V30 3897 C 397.7 -1.61049 -1.09947 0
M  V30 3898 O 396.97 -0.872821 -1.75381 0
M  V30 3899 H 395.55 -0.737697 0.117525 0
M  V30 3900 H 398.212 -1.68359 0.981895 0
M  V30 3901 H 397.308 -3.09547 0.398353 0
M  V30 3902 N 397.609 -0.515225 -1.4894 0
M  V30 3903 C 398.839 0.0205735 -2.0659 0
M  V30 3904 C 399.247 1.30064 -1.37405 0
M  V30 3905 O 398.59 1.78087 -0.450632 0
M  V30 3906 C 398.652 0.330124 -3.57981 0
M  V30 3907 C 398.316 -0.854295 -4.48944 0
M  V30 3908 C 399.313 -1.7487 -4.89609 0
M  V30 3909 C 396.998 -1.05712 -4.9105 0
M  V30 3910 C 398.992 -2.82996 -5.71132 0
M  V30 3911 C 396.679 -2.14154 -5.72347 0
M  V30 3912 C 397.677 -3.0263 -6.12294 0
M  V30 3913 O 397.365 -4.09198 -6.91962 0
M  V30 3914 H 397.097 -0.0236833 -0.675585 0
M  V30 3915 H 399.651 -0.715956 -1.92518 0
M  V30 3916 H 397.881 1.12044 -3.70112 0
M  V30 3917 H 399.57 0.806233 -3.97812 0
M  V30 3918 H 400.336 -1.60388 -4.57712 0
M  V30 3919 H 396.215 -0.377788 -4.59449 0
M  V30 3920 H 399.759 -3.52083 -6.02232 0
M  V30 3921 H 395.656 -2.28626 -6.03656 0
M  V30 3922 H 396.424 -4.06726 -7.10293 0
M  V30 3923 N 399.087 1.5561 -0.249682 0
M  V30 3924 C 400.333 1.99306 0.374841 0
M  V30 3925 C 400.666 1.13767 1.57387 0
M  V30 3926 O 399.941 0.201711 1.93451 0
M  V30 3927 C 400.224 3.51507 0.781986 0
M  V30 3928 C 400.077 4.4781 -0.422629 0
M  V30 3929 C 401.396 4.08884 1.62793 0
M  V30 3930 H 398.515 0.724572 0.134773 0
M  V30 3931 H 401.157 1.86719 -0.351549 0
M  V30 3932 H 399.307 3.62363 1.4009 0
M  V30 3933 H 400.979 4.48931 -1.06108 0
M  V30 3934 H 399.222 4.20518 -1.06524 0
M  V30 3935 H 399.893 5.51919 -0.0943766 0
M  V30 3936 H 402.369 4.01147 1.10547 0
M  V30 3937 H 401.245 5.1564 1.88166 0
M  V30 3938 H 401.506 3.57515 2.60068 0
M  V30 3939 N 400.565 -0.0233959 1.57583 0
M  V30 3940 C 401.811 -0.708611 1.90657 0
M  V30 3941 C 402.166 -1.7266 0.848895 0
M  V30 3942 O 401.459 -1.91075 -0.141749 0
M  V30 3943 C 401.653 -1.41428 3.28227 0
M  V30 3944 C 401.482 -0.466155 4.47277 0
M  V30 3945 C 400.252 -0.085117 5.05228 0
M  V30 3946 C 402.45 0.257836 5.13653 0
M  V30 3947 N 400.432 0.863672 6.07794 0
M  V30 3948 C 401.803 1.06209 6.10835 0
M  V30 3949 C 403.858 0.324174 4.96844 0
M  V30 3950 C 402.561 1.9266 6.93018 0
M  V30 3951 C 404.587 1.17583 5.79593 0
M  V30 3952 C 403.949 1.96799 6.7635 0
M  V30 3953 H 400.048 -0.233222 0.746412 0
M  V30 3954 H 402.632 0.0314512 1.94675 0
M  V30 3955 H 400.803 -2.12477 3.25128 0
M  V30 3956 H 402.535 -2.05233 3.488 0
M  V30 3957 H 399.29 -0.448516 4.71471 0
M  V30 3958 H 399.714 1.33274 6.63752 0
M  V30 3959 H 404.356 -0.273975 4.21911 0
M  V30 3960 H 402.074 2.53552 7.67292 0
M  V30 3961 H 405.66 1.23076 5.68633 0
M  V30 3962 H 404.54 2.61635 7.39268 0
M  V30 3963 N 402.043 -1.548 -0.295768 0
M  V30 3964 C 403.29 -1.74329 -1.03032 0
M  V30 3965 C 403.618 -0.531915 -1.87085 0
M  V30 3966 O 402.873 0.486052 -1.89568 0
M  V30 3967 C 403.172 -2.98797 -1.961 0
M  V30 3968 C 402.838 -4.32356 -1.2798 0
M  V30 3969 C 401.5 -4.68661 -1.09135 0
M  V30 3970 C 403.852 -5.15128 -0.793243 0
M  V30 3971 C 401.18 -5.85312 -0.403269 0
M  V30 3972 C 403.532 -6.32488 -0.118854 0
M  V30 3973 C 402.196 -6.6745 0.0815043 0
M  V30 3974 H 401.466 -0.637916 -0.37702 0
M  V30 3975 H 404.113 -1.8906 -0.304696 0
M  V30 3976 H 402.418 -2.78869 -2.75207 0
M  V30 3977 H 404.115 -3.11102 -2.53015 0
M  V30 3978 H 400.705 -4.03808 -1.43655 0
M  V30 3979 H 404.889 -4.87575 -0.92653 0
M  V30 3980 H 400.145 -6.1094 -0.237098 0
M  V30 3981 H 404.319 -6.95892 0.266035 0
M  V30 3982 H 401.946 -7.57695 0.616685 0
M  V30 3983 N 403.521 0.559213 -1.47345 0
M  V30 3984 C 404.454 1.68201 -1.5422 0
M  V30 3985 C 405.432 1.57742 -0.394497 0
M  V30 3986 O 406.616 1.78628 -0.60201 0
M  V30 3987 C 403.743 3.0643 -1.44285 0
M  V30 3988 C 402.789 3.3534 -2.63532 0
M  V30 3989 S 403.622 3.24816 -4.25741 0
M  V30 3990 C 404.778 4.65542 -4.18355 0
M  V30 3991 H 405.011 1.62114 -2.49211 0
M  V30 3992 H 402.544 0.739871 -1.35519 0
M  V30 3993 H 404.502 3.86164 -1.3924 0
M  V30 3994 H 403.163 3.09984 -0.506816 0
M  V30 3995 H 402.356 4.36107 -2.52639 0
M  V30 3996 H 401.958 2.63221 -2.65689 0
M  V30 3997 H 404.25 5.56449 -3.86485 0
M  V30 3998 H 405.193 4.81493 -5.19202 0
M  V30 3999 H 405.601 4.43495 -3.49246 0
M  V30 4000 N 404.999 1.35443 0.805782 0
M  V30 4001 C 406.245 1.28952 1.56522 0
M  V30 4002 C 406.578 -0.135597 1.93726 0
M  V30 4003 O 405.853 -1.08516 1.61414 0
M  V30 4004 C 406.136 2.19678 2.85331 0
M  V30 4005 C 405.989 3.7081 2.54598 0
M  V30 4006 C 407.308 2.09495 3.8704 0
M  V30 4007 H 404.427 0.469764 0.567883 0
M  V30 4008 H 407.069 1.65851 0.927001 0
M  V30 4009 H 405.219 1.8834 3.39795 0
M  V30 4010 H 406.891 4.12593 2.06312 0
M  V30 4011 H 405.134 3.91051 1.8778 0
M  V30 4012 H 405.805 4.29679 3.46525 0
M  V30 4013 H 408.281 2.37045 3.41978 0
M  V30 4014 H 407.157 2.75173 4.74943 0
M  V30 4015 H 407.418 1.07714 4.28777 0
M  V30 4016 N 406.477 -1.02803 1.19454 0
M  V30 4017 C 407.725 -1.75869 0.995722 0
M  V30 4018 C 408.046 -1.89138 -0.474543 0
M  V30 4019 O 407.316 -1.42558 -1.34366 0
M  V30 4020 H 405.896 -0.651511 0.365435 0
M  V30 4021 H 408.558 -1.24004 1.50363 0
M  V30 4022 H 407.654 -2.76661 1.44447 0
M  V30 4023 N 407.956 -0.998596 -1.21925 0
M  V30 4024 C 409.367 -0.711939 -1.72593 0
M  V30 4025 C 409.718 0.770842 -1.80423 0
M  V30 4026 O 408.843 1.60237 -1.4544 0
M  V30 4027 C 409.438 -1.28567 -3.13458 0
M  V30 4028 C 407.997 -1.04828 -3.61508 0
M  V30 4029 C 407.144 -1.4024 -2.39224 0
M  V30 4030 H 410.095 -1.17027 -1.07193 0
M  V30 4031 H 410.116 -0.667098 -3.74607 0
M  V30 4032 H 409.628 -2.36486 -3.07727 0
M  V30 4033 H 407.729 0.0140383 -3.72597 0
M  V30 4034 H 407.842 -1.71566 -4.47328 0
M  V30 4035 H 406.206 -0.821077 -2.41103 0
M  V30 4036 H 406.989 -2.49176 -2.36149 0
M  V30 4037 N 409.434 1.37368 -0.772513 0
M  V30 4038 C 410.366 2.28899 -0.117502 0
M  V30 4039 C 411.379 1.4867 0.663405 0
M  V30 4040 O 412.568 1.71314 0.501372 0
M  V30 4041 C 409.668 3.2788 0.857192 0
M  V30 4042 C 408.841 4.37207 0.129938 0
M  V30 4043 C 407.9 5.16257 1.01811 0
M  V30 4044 O 406.926 5.67159 0.481601 0
M  V30 4045 N 408.128 5.31058 2.3443 0
M  V30 4046 H 410.893 2.85752 -0.903662 0
M  V30 4047 H 408.454 1.49353 -0.62493 0
M  V30 4048 H 410.446 3.77647 1.45482 0
M  V30 4049 H 409.016 2.7179 1.54432 0
M  V30 4050 H 408.236 3.88827 -0.648605 0
M  V30 4051 H 409.524 5.07434 -0.372559 0
M  V30 4052 H 408.922 4.91287 2.80452 0
M  V30 4053 H 407.479 5.84131 2.89197 0
M  V30 4054 N 410.912 0.523116 1.48665 0
M  V30 4055 C 411.842 -0.23231 2.32342 0
M  V30 4056 C 412.823 -0.941637 1.41659 0
M  V30 4057 O 414.008 -0.928751 1.70552 0
M  V30 4058 C 411.138 -1.28387 3.22698 0
M  V30 4059 C 410.092 -0.693098 4.22351 0
M  V30 4060 C 409.418 -1.8468 5.01794 0
M  V30 4061 C 410.718 0.33063 5.21252 0
M  V30 4062 H 412.412 0.466192 2.95748 0
M  V30 4063 H 409.958 0.225643 1.42221 0
M  V30 4064 H 411.911 -1.82024 3.80059 0
M  V30 4065 H 410.635 -2.01186 2.57278 0
M  V30 4066 H 409.294 -0.178299 3.66166 0
M  V30 4067 H 408.942 -2.56301 4.32804 0
M  V30 4068 H 408.642 -1.45747 5.69238 0
M  V30 4069 H 410.166 -2.38709 5.62006 0
M  V30 4070 H 411.58 -0.118407 5.73178 0
M  V30 4071 H 409.977 0.636974 5.9671 0
M  V30 4072 H 411.047 1.23883 4.68808 0
M  V30 4073 N 412.39 -1.55475 0.257931 0
M  V30 4074 C 413.353 -2.20551 -0.623706 0
M  V30 4075 C 414.353 -1.17809 -1.09443 0
M  V30 4076 O 415.543 -1.42823 -0.997362 0
M  V30 4077 C 412.675 -2.85784 -1.8585 0
M  V30 4078 H 413.868 -2.99848 -0.0557743 0
M  V30 4079 H 411.421 -1.56298 0.0084422 0
M  V30 4080 H 412.156 -2.10453 -2.46739 0
M  V30 4081 H 411.941 -3.61057 -1.52907 0
M  V30 4082 H 413.431 -3.35553 -2.48584 0
M  V30 4083 N 413.868 0.0150385 -1.57593 0
M  V30 4084 C 415.116 0.701613 -1.8953 0
M  V30 4085 C 415.437 1.75139 -0.857396 0
M  V30 4086 O 414.707 1.95607 0.107194 0
M  V30 4087 H 413.287 0.26213 -0.699498 0
M  V30 4088 H 415.949 -0.0223304 -1.94887 0
M  V30 4089 H 415.045 1.18236 -2.88837 0
M  V30 4090 N 415.346 1.54954 0.287554 0
M  V30 4091 C 416.594 1.74528 1.01904 0
M  V30 4092 C 416.915 0.541349 1.87335 0
M  V30 4093 O 416.185 -0.444108 1.908 0
M  V30 4094 H 414.765 0.643576 0.379235 0
M  V30 4095 H 417.427 1.92333 0.315294 0
M  V30 4096 H 416.523 2.64015 1.6644 0
M  V30 4097 N 416.824 -0.551391 1.4764 0
M  V30 4098 C 418.072 -1.30572 1.54258 0
M  V30 4099 C 418.393 -1.93877 0.208963 0
M  V30 4100 O 417.663 -1.80234 -0.767619 0
M  V30 4101 H 416.243 -0.484894 0.568231 0
M  V30 4102 H 418.905 -0.643402 1.83974 0
M  V30 4103 H 418.001 -2.09621 2.31226 0
M  V30 4104 N 418.302 -1.35869 -0.798587 0
M  V30 4105 C 419.55 -1.29332 -1.55298 0
M  V30 4106 C 419.871 0.129729 -1.94568 0
M  V30 4107 O 419.141 1.06796 -1.6423 0
M  V30 4108 H 417.721 -0.475737 -0.57592 0
M  V30 4109 H 420.383 -1.70062 -0.952093 0
M  V30 4110 H 419.479 -1.91458 -2.46476 0
M  V30 4111 N 419.78 1.02168 -1.19998 0
M  V30 4112 C 421.005 1.79833 -1.03319 0
M  V30 4113 C 421.43 1.83504 0.413281 0
M  V30 4114 O 420.788 1.26635 1.29743 0
M  V30 4115 C 420.836 3.22396 -1.61533 0
M  V30 4116 O 419.94 4.03555 -0.849519 0
M  V30 4117 H 419.281 0.554872 -0.364709 0
M  V30 4118 H 421.811 1.28542 -1.59179 0
M  V30 4119 H 421.821 3.73124 -1.65054 0
M  V30 4120 H 420.496 3.19039 -2.66809 0
M  V30 4121 H 419.073 3.62169 -0.888129 0
M  V30 4122 N 421.258 1.00505 1.21394 0
M  V30 4123 C 422.506 0.686415 1.90086 0
M  V30 4124 C 422.827 -0.785264 1.7849 0
M  V30 4125 O 422.097 -1.56387 1.17983 0
M  V30 4126 H 420.677 0.2509 0.703604 0
M  V30 4127 H 423.339 1.27417 1.47482 0
M  V30 4128 H 422.435 0.959621 2.96981 0
M  V30 4129 N 422.737 -1.36956 0.779787 0
M  V30 4130 C 423.7 -2.2851 0.177662 0
M  V30 4131 C 424.7 -1.48393 -0.619377 0
M  V30 4132 O 425.89 -1.68505 -0.441785 0
M  V30 4133 C 423.022 -3.32428 -0.755279 0
M  V30 4134 H 424.215 -2.83269 0.984823 0
M  V30 4135 H 421.768 -1.46358 0.548544 0
M  V30 4136 H 422.503 -2.82808 -1.58714 0
M  V30 4137 H 422.288 -3.91659 -0.185817 0
M  V30 4138 H 423.778 -4.00824 -1.17174 0
M  V30 4139 N 424.215 -0.530993 -1.48385 0
M  V30 4140 C 425.626 -0.0907905 -1.86479 0
M  V30 4141 C 425.977 1.33213 -1.44044 0
M  V30 4142 O 425.102 1.99783 -0.831615 0
M  V30 4143 C 425.697 -0.157987 -3.38431 0
M  V30 4144 C 424.256 0.227026 -3.75715 0
M  V30 4145 C 423.403 -0.5173 -2.72432 0
M  V30 4146 H 426.354 -0.742186 -1.40276 0
M  V30 4147 H 426.375 0.630053 -3.75247 0
M  V30 4148 H 425.887 -1.19372 -3.69286 0
M  V30 4149 H 423.988 1.26486 -3.50474 0
M  V30 4150 H 424.101 -0.113288 -4.78966 0
M  V30 4151 H 422.465 0.0365527 -2.54674 0
M  V30 4152 H 423.248 -1.55368 -3.0613 0
M  V30 4153 N 425.693 1.55336 -0.266172 0
M  V30 4154 C 426.941 1.99003 0.35246 0
M  V30 4155 C 427.262 1.15591 1.57047 0
M  V30 4156 O 426.532 0.243268 1.94384 0
M  V30 4157 H 425.112 0.735025 0.133217 0
M  V30 4158 H 427.774 1.91367 -0.369434 0
M  V30 4159 H 426.87 3.05289 0.648453 0
M  V30 4160 N 427.171 -0.0066808 1.57599 0
M  V30 4161 C 428.081 -1.01671 2.11424 0
M  V30 4162 C 429.097 -1.38143 1.05795 0
M  V30 4163 O 430.273 -1.47011 1.37658 0
M  V30 4164 C 427.338 -2.29192 2.60139 0
M  V30 4165 C 426.399 -1.99094 3.80342 0
M  V30 4166 C 425.632 -3.20535 4.26724 0
M  V30 4167 O 425.855 -4.3199 3.72479 0
M  V30 4168 O 424.789 -3.04924 5.18946 0
M  V30 4169 H 428.615 -0.589181 2.9793 0
M  V30 4170 H 426.2 -0.225091 1.47695 0
M  V30 4171 H 428.082 -3.0412 2.917 0
M  V30 4172 H 426.757 -2.71195 1.76733 0
M  V30 4173 H 425.664 -1.21663 3.53764 0
M  V30 4174 H 426.997 -1.61931 4.648 0
M  V30 4175 N 428.649 -1.55105 -0.279332 0
M  V30 4176 C 430.06 -1.66186 -0.850832 0
M  V30 4177 C 430.411 -0.584707 -1.87285 0
M  V30 4178 O 429.536 0.274919 -2.14647 0
M  V30 4179 C 430.131 -3.01264 -1.55001 0
M  V30 4180 C 428.69 -3.14394 -2.06963 0
M  V30 4181 C 427.837 -2.61959 -0.909536 0
M  V30 4182 H 430.788 -1.58602 -0.0558235 0
M  V30 4183 H 430.809 -2.93899 -2.41669 0
M  V30 4184 H 430.321 -3.7964 -0.805931 0
M  V30 4185 H 428.422 -2.4078 -2.84352 0
M  V30 4186 H 428.535 -4.20867 -2.28928 0
M  V30 4187 H 426.899 -2.18957 -1.30116 0
M  V30 4188 H 427.682 -3.42833 -0.179062 0
M  V30 4189 N 430.127 0.543554 -1.4793 0
M  V30 4190 C 431.538 1.12561 -1.48953 0
M  V30 4191 C 431.889 1.94578 -0.251754 0
M  V30 4192 O 431.014 2.0665 0.642255 0
M  V30 4193 C 431.609 2.04801 -2.69892 0
M  V30 4194 C 430.168 2.58251 -2.73831 0
M  V30 4195 C 429.315 1.34918 -2.42265 0
M  V30 4196 H 432.266 0.32947 -1.55242 0
M  V30 4197 H 432.287 2.88886 -2.47639 0
M  V30 4198 H 431.799 1.4508 -3.59963 0
M  V30 4199 H 429.9 3.21732 -1.87934 0
M  V30 4200 H 430.013 2.98312 -3.74895 0
M  V30 4201 H 428.377 1.66046 -1.93134 0
M  V30 4202 H 429.16 0.769693 -3.3456 0
M  V30 4203 N 431.605 1.3629 0.791371 0
M  V30 4204 C 432.535 1.33137 1.91825 0
M  V30 4205 C 433.516 0.203168 1.68882 0
M  V30 4206 O 434.701 0.400509 1.90025 0
M  V30 4207 C 431.831 1.11793 3.28816 0
M  V30 4208 C 430.785 2.21417 3.66277 0
M  V30 4209 C 430.111 1.85218 5.01596 0
M  V30 4210 C 431.411 3.63489 3.75064 0
M  V30 4211 H 433.105 2.2743 1.9472 0
M  V30 4212 H 430.651 1.09479 0.935437 0
M  V30 4213 H 432.604 1.08222 4.07266 0
M  V30 4214 H 431.328 0.139501 3.26302 0
M  V30 4215 H 429.987 2.2411 2.90121 0
M  V30 4216 H 429.635 0.859544 4.95602 0
M  V30 4217 H 429.335 2.58611 5.27631 0
M  V30 4218 H 430.859 1.832 5.82469 0
M  V30 4219 H 432.273 3.63034 4.43711 0
M  V30 4220 H 430.67 4.35771 4.12582 0
M  V30 4221 H 431.74 3.98536 2.76219 0
M  V30 4222 N 433.083 -1.0153 1.20538 0
M  V30 4223 C 434.013 -2.11972 0.979295 0
M  V30 4224 C 434.994 -1.6985 -0.0921787 0
M  V30 4225 O 436.179 -1.94089 0.0655932 0
M  V30 4226 C 433.309 -3.43201 0.531984 0
M  V30 4227 C 432.263 -3.9907 1.54685 0
M  V30 4228 C 431.589 -5.26082 0.956127 0
M  V30 4229 C 432.889 -4.32313 2.93092 0
M  V30 4230 H 434.583 -2.31143 1.90298 0
M  V30 4231 H 432.129 -1.11079 0.916372 0
M  V30 4232 H 434.082 -4.1985 0.361044 0
M  V30 4233 H 432.806 -3.23792 -0.427327 0
M  V30 4234 H 431.465 -3.2453 1.70517 0
M  V30 4235 H 431.113 -5.02999 -0.0111538 0
M  V30 4236 H 430.813 -5.64426 1.63393 0
M  V30 4237 H 432.337 -6.05386 0.796284 0
M  V30 4238 H 433.751 -4.99845 2.80763 0
M  V30 4239 H 432.148 -4.81774 3.57791 0
M  V30 4240 H 433.218 -3.41025 3.44717 0
M  V30 4241 N 434.561 -1.01147 -1.20859 0
M  V30 4242 C 435.972 -0.730205 -1.71828 0
M  V30 4243 C 436.323 0.751662 -1.8123 0
M  V30 4244 O 435.448 1.58686 -1.47132 0
M  V30 4245 C 436.043 -1.31885 -3.12077 0
M  V30 4246 C 434.602 -1.08656 -3.60376 0
M  V30 4247 C 433.749 -1.42769 -2.37723 0
M  V30 4248 H 436.7 -1.18158 -1.05945 0
M  V30 4249 H 436.721 -0.706793 -3.73878 0
M  V30 4250 H 436.233 -2.39737 -3.05201 0
M  V30 4251 H 434.334 -0.0254814 -3.72591 0
M  V30 4252 H 434.447 -1.76301 -4.45483 0
M  V30 4253 H 432.811 -0.846603 -2.40218 0
M  V30 4254 H 433.594 -2.51666 -2.33493 0
M  V30 4255 N 436.039 1.36541 -0.78704 0
M  V30 4256 C 437.287 1.98911 -0.357633 0
M  V30 4257 C 437.608 1.62778 1.07371 0
M  V30 4258 O 436.878 0.900612 1.73971 0
M  V30 4259 H 435.458 0.735734 -0.129246 0
M  V30 4260 H 438.12 1.66776 -1.00855 0
M  V30 4261 H 437.216 3.08874 -0.447549 0
M  V30 4262 N 437.518 0.538854 1.48102 0
M  V30 4263 C 438.766 0.00798599 2.02098 0
M  V30 4264 C 439.087 -1.33922 1.41739 0
M  V30 4265 O 438.357 -1.86932 0.585934 0
M  V30 4266 H 436.937 -3.62179e-05 0.747 0
M  V30 4267 H 439.599 0.7047 1.81714 0
M  V30 4268 H 438.695 -0.0937672 3.11959 0
M  V30 4269 N 438.996 -1.55193 0.274407 0
M  V30 4270 C 439.959 -2.212 -0.600279 0
M  V30 4271 C 440.959 -1.18963 -1.08187 0
M  V30 4272 O 442.149 -1.43873 -0.982158 0
M  V30 4273 C 439.281 -2.87739 -1.82809 0
M  V30 4274 H 440.474 -2.9989 -0.0239682 0
M  V30 4275 H 438.027 -1.5628 0.0250192 0
M  V30 4276 H 438.762 -2.13058 -2.44493 0
M  V30 4277 H 438.547 -3.62658 -1.49069 0
M  V30 4278 H 440.037 -3.38171 -2.45011 0
M  V30 4279 N 440.474 -0.00167713 -1.576 0
M  V30 4280 C 441.885 0.54091 -1.78693 0
M  V30 4281 C 442.236 1.7386 -0.909247 0
M  V30 4282 O 441.361 2.16109 -0.112176 0
M  V30 4283 C 441.956 0.98806 -3.24072 0
M  V30 4284 C 440.515 1.47594 -3.46256 0
M  V30 4285 C 439.662 0.42792 -2.73978 0
M  V30 4286 H 442.613 -0.22784 -1.57056 0
M  V30 4287 H 442.634 1.85398 -3.32277 0
M  V30 4288 H 442.146 0.116164 -3.87926 0
M  V30 4289 H 440.247 2.36868 -2.87618 0
M  V30 4290 H 440.36 1.50225 -4.54939 0
M  V30 4291 H 438.724 0.889934 -2.38647 0
M  V30 4292 H 439.507 -0.435038 -3.40532 0
M  V30 4293 N 441.952 1.55251 0.271103 0
M  V30 4294 C 442.882 1.9127 1.33933 0
M  V30 4295 C 443.863 0.77478 1.5143 0
M  V30 4296 O 445.048 1.03307 1.64442 0
M  V30 4297 C 442.178 2.18627 2.69851 0
M  V30 4298 C 441.132 3.34442 2.67081 0
M  V30 4299 C 440.458 3.47284 4.06569 0
M  V30 4300 C 441.758 4.70784 2.26185 0
M  V30 4301 H 443.452 2.80744 1.04035 0
M  V30 4302 H 440.998 1.35077 0.499017 0
M  V30 4303 H 442.951 2.42413 3.44694 0
M  V30 4304 H 441.675 1.25955 3.01335 0
M  V30 4305 H 440.334 3.10627 1.94695 0
M  V30 4306 H 439.982 2.52074 4.35279 0
M  V30 4307 H 439.682 4.25152 4.0561 0
M  V30 4308 H 441.206 3.73363 4.83148 0
M  V30 4309 H 442.62 4.94102 2.90751 0
M  V30 4310 H 441.017 5.51582 2.36384 0
M  V30 4311 H 442.087 4.69478 1.21319 0
M  V30 4312 N 443.43 -0.535701 1.48216 0
M  V30 4313 C 444.841 -1.11769 1.49548 0
M  V30 4314 C 445.192 -1.94442 0.26207 0
M  V30 4315 O 444.317 -2.06987 -0.631287 0
M  V30 4316 C 444.912 -2.03367 2.70975 0
M  V30 4317 C 443.471 -2.56795 2.75196 0
M  V30 4318 C 442.618 -1.33631 2.42977 0
M  V30 4319 H 445.569 -0.321232 1.55415 0
M  V30 4320 H 445.59 -2.87569 2.49167 0
M  V30 4321 H 445.102 -1.43169 3.60727 0
M  V30 4322 H 443.203 -3.20731 1.89638 0
M  V30 4323 H 443.316 -2.9632 3.76472 0
M  V30 4324 H 441.68 -1.6502 1.94012 0
M  V30 4325 H 442.463 -0.75194 3.34964 0
M  V30 4326 N 444.908 -1.36708 -0.784132 0
M  V30 4327 C 445.871 -1.31307 -1.87859 0
M  V30 4328 C 446.871 -0.219654 -1.59293 0
M  V30 4329 O 448.061 -0.47476 -1.67606 0
M  V30 4330 C 445.193 -1.03679 -3.24751 0
M  V30 4331 H 446.386 -2.28647 -1.94064 0
M  V30 4332 H 443.939 -1.21558 -0.98252 0
M  V30 4333 H 444.674 -0.0681936 -3.24228 0
M  V30 4334 H 444.459 -1.82811 -3.46876 0
M  V30 4335 H 445.949 -1.02518 -4.04821 0
M  V30 4336 N 446.386 1.0089 -1.21074 0
M  V30 4337 C 447.634 1.74262 -1.02358 0
M  V30 4338 C 447.955 1.89869 0.444393 0
M  V30 4339 O 447.225 1.44677 1.32081 0
M  V30 4340 H 445.805 0.645615 -0.375754 0
M  V30 4341 H 448.467 1.21596 -1.52317 0
M  V30 4342 H 447.563 2.74328 -1.4883 0
M  V30 4343 N 447.864 1.01787 1.20321 0
M  V30 4344 C 448.794 0.609625 2.25401 0
M  V30 4345 C 449.775 -0.375951 1.65893 0
M  V30 4346 O 450.96 -0.261101 1.92437 0
M  V30 4347 C 448.09 -0.0515995 3.47262 0
M  V30 4348 C 447.044 0.855095 4.19371 0
M  V30 4349 C 446.37 0.0595757 5.34667 0
M  V30 4350 C 447.67 2.16374 4.75373 0
M  V30 4351 H 449.364 1.48803 2.59804 0
M  V30 4352 H 446.91 0.716934 1.24884 0
M  V30 4353 H 448.863 -0.348764 4.19954 0
M  V30 4354 H 447.587 -0.964726 3.12027 0
M  V30 4355 H 446.246 1.13628 3.48546 0
M  V30 4356 H 445.894 -0.85524 4.95676 0
M  V30 4357 H 445.594 0.663406 5.83843 0
M  V30 4358 H 447.118 -0.231105 6.10162 0
M  V30 4359 H 448.532 1.92885 5.39878 0
M  V30 4360 H 446.929 2.71853 5.34991 0
M  V30 4361 H 447.999 2.82589 3.94045 0
M  V30 4362 N 449.342 -1.36122 0.79427 0
M  V30 4363 C 450.589 -1.99111 0.368905 0
M  V30 4364 C 450.917 -1.63032 -1.0607 0
M  V30 4365 O 450.172 -0.879303 -1.74833 0
M  V30 4366 C 450.471 -3.5409 0.48527 0
M  V30 4367 C 450.137 -4.10003 1.87638 0
M  V30 4368 C 448.799 -4.24986 2.257 0
M  V30 4369 C 451.151 -4.40423 2.78706 0
M  V30 4370 C 448.479 -4.67701 3.54221 0
M  V30 4371 C 450.831 -4.84573 4.0666 0
M  V30 4372 C 449.495 -4.97761 4.44737 0
M  V30 4373 H 448.765 -0.7286 0.134992 0
M  V30 4374 H 451.412 -1.62534 1.01267 0
M  V30 4375 H 449.717 -3.91052 -0.241984 0
M  V30 4376 H 451.414 -4.00766 0.137109 0
M  V30 4377 H 448.004 -3.98784 1.57064 0
M  V30 4378 H 452.188 -4.28412 2.50553 0
M  V30 4379 H 447.444 -4.761 3.83587 0
M  V30 4380 H 451.618 -5.07074 4.77336 0
M  V30 4381 H 449.245 -5.30618 5.44379 0
M  V30 4382 N 450.82 -0.546701 -1.47814 0
M  V30 4383 C 451.783 0.196287 -2.28358 0
M  V30 4384 C 452.783 0.852437 -1.36346 0
M  V30 4385 O 453.973 0.709913 -1.59078 0
M  V30 4386 C 451.105 1.28579 -3.15722 0
M  V30 4387 H 452.298 -0.511086 -2.95513 0
M  V30 4388 H 449.851 -0.303248 -1.5333 0
M  V30 4389 H 450.586 2.0259 -2.53235 0
M  V30 4390 H 450.371 0.820229 -3.83425 0
M  V30 4391 H 451.861 1.80793 -3.76435 0
M  V30 4392 N 452.299 1.55045 -0.282633 0
M  V30 4393 C 453.545 2.00056 0.332481 0
M  V30 4394 C 453.878 1.1708 1.54939 0
M  V30 4395 O 453.153 0.2427 1.9298 0
M  V30 4396 C 453.436 3.53086 0.70725 0
M  V30 4397 C 453.289 4.46813 -0.517521 0
M  V30 4398 C 454.608 4.12245 1.54084 0
M  V30 4399 H 451.727 0.727268 0.119373 0
M  V30 4400 H 454.369 1.85932 -0.391076 0
M  V30 4401 H 452.519 3.65253 1.32372 0
M  V30 4402 H 454.191 4.46579 -1.15607 0
M  V30 4403 H 452.434 4.18163 -1.1542 0
M  V30 4404 H 453.105 5.51595 -0.211426 0
M  V30 4405 H 455.581 4.03401 1.02013 0
M  V30 4406 H 454.457 5.19515 1.77186 0
M  V30 4407 H 454.718 3.62951 2.52427 0
M  V30 4408 N 453.777 0.010035 1.57597 0
M  V30 4409 C 455.193 -0.346164 1.55801 0
M  V30 4410 C 455.393 -1.74144 1.01371 0
M  V30 4411 O 454.449 -2.43938 0.651968 0
M  V30 4412 C 455.762 -0.212216 2.9995 0
M  V30 4413 C 457.31 -0.286409 3.11687 0
M  V30 4414 C 457.785 -0.18147 4.5764 0
M  V30 4415 N 459.276 -0.239056 4.62583 0
M  V30 4416 C 460.011 -0.181351 5.73113 0
M  V30 4417 N 459.507 -0.073661 6.92761 0
M  V30 4418 N 461.3 -0.233949 5.61613 0
M  V30 4419 H 453.451 0.922657 1.91313 0
M  V30 4420 H 455.714 0.354595 0.879185 0
M  V30 4421 H 455.42 0.748169 3.4365 0
M  V30 4422 H 455.294 -0.990224 3.6397 0
M  V30 4423 H 457.681 -1.23724 2.67911 0
M  V30 4424 H 457.762 0.521645 2.50425 0
M  V30 4425 H 457.406 0.765863 5.02093 0
M  V30 4426 H 457.336 -1.00814 5.1686 0
M  V30 4427 H 459.827 -0.32321 3.76515 0
M  V30 4428 H 460.14 -0.0358003 7.72792 0
M  V30 4429 H 458.485 -0.0391461 6.94989 0
M  V30 4430 H 461.676 -0.316347 4.6703 0
M  V30 4431 H 461.849 -0.185514 6.47734 0
M  V30 4432 N 455.255 -1.55392 -0.262866 0
M  V30 4433 C 456.48 -1.80847 -1.01533 0
M  V30 4434 C 456.905 -0.584946 -1.78774 0
M  V30 4435 O 456.263 0.465701 -1.75217 0
M  V30 4436 C 456.311 -3.03866 -1.94159 0
M  V30 4437 O 455.415 -2.79662 -3.03089 0
M  V30 4438 H 454.756 -0.597441 -0.289759 0
M  V30 4439 H 457.286 -2.02553 -0.288698 0
M  V30 4440 H 457.296 -3.32872 -2.35924 0
M  V30 4441 H 455.971 -3.92564 -1.37354 0
M  V30 4442 H 454.548 -2.61781 -2.65566 0
M  V30 4443 N 456.733 0.527833 -1.48498 0
M  V30 4444 C 457.696 1.61439 -1.62696 0
M  V30 4445 C 458.696 1.52824 -0.500136 0
M  V30 4446 O 459.886 1.56456 -0.765976 0
M  V30 4447 C 457.018 3.01063 -1.59918 0
M  V30 4448 H 458.211 1.50189 -2.59583 0
M  V30 4449 H 455.764 0.750055 -1.37127 0
M  V30 4450 H 456.499 3.17818 -0.645163 0
M  V30 4451 H 456.284 3.08725 -2.41726 0
M  V30 4452 H 457.774 3.80057 -1.73051 0
M  V30 4453 N 458.211 1.37122 0.776871 0
M  V30 4454 C 459.459 1.31787 1.53221 0
M  V30 4455 C 459.78 -0.0987589 1.9475 0
M  V30 4456 O 459.05 -1.0417 1.65908 0
M  V30 4457 H 457.63 0.484839 0.568278 0
M  V30 4458 H 460.292 1.71556 0.924917 0
M  V30 4459 H 459.388 1.95355 2.43398 0
M  V30 4460 N 459.689 -1.00246 1.21608 0
M  V30 4461 C 460.935 -1.74417 1.04643 0
M  V30 4462 C 461.29 -1.87862 -0.415387 0
M  V30 4463 O 460.583 -1.40373 -1.30407 0
M  V30 4464 C 460.777 -3.15448 1.68009 0
M  V30 4465 C 460.606 -3.15755 3.20201 0
M  V30 4466 C 459.376 -3.2219 3.89258 0
M  V30 4467 C 461.574 -3.00668 4.17257 0
M  V30 4468 N 459.556 -3.1215 5.28617 0
M  V30 4469 C 460.927 -2.98553 5.43384 0
M  V30 4470 C 462.982 -2.84989 4.08272 0
M  V30 4471 C 461.685 -2.82364 6.61561 0
M  V30 4472 C 463.711 -2.70158 5.26088 0
M  V30 4473 C 463.073 -2.68721 6.51128 0
M  V30 4474 H 459.172 -0.648317 0.437274 0
M  V30 4475 H 461.756 -1.19129 1.54001 0
M  V30 4476 H 459.927 -3.69001 1.21215 0
M  V30 4477 H 461.659 -3.78128 1.44226 0
M  V30 4478 H 458.414 -3.29488 3.40198 0
M  V30 4479 H 458.838 -3.10465 6.01615 0
M  V30 4480 H 463.48 -2.84904 3.12393 0
M  V30 4481 H 461.198 -2.81196 7.57598 0
M  V30 4482 H 464.784 -2.59022 5.20959 0
M  V30 4483 H 463.664 -2.57382 7.40759 0
M  V30 4484 N 461.167 -1.02423 -1.1978 0
M  V30 4485 C 462.583 -0.740459 -1.41384 0
M  V30 4486 C 462.783 0.676827 -1.89793 0
M  V30 4487 O 461.839 1.4435 -2.0717 0
M  V30 4488 C 463.152 -1.77264 -2.42895 0
M  V30 4489 C 464.7 -1.79165 -2.56649 0
M  V30 4490 C 465.175 -2.8133 -3.6141 0
M  V30 4491 N 466.666 -2.80118 -3.68901 0
M  V30 4492 C 467.401 -3.55824 -4.49641 0
M  V30 4493 N 466.897 -4.41231 -5.34123 0
M  V30 4494 N 468.69 -3.44387 -4.44246 0
M  V30 4495 H 460.841 -1.9391 -0.866764 0
M  V30 4496 H 463.104 -0.838074 -0.443098 0
M  V30 4497 H 462.81 -2.7884 -2.14339 0
M  V30 4498 H 462.684 -1.59108 -3.42001 0
M  V30 4499 H 465.071 -0.782702 -2.84531 0
M  V30 4500 H 465.152 -2.01396 -1.57713 0
M  V30 4501 H 464.796 -3.82394 -3.34271 0
M  V30 4502 H 464.726 -2.56359 -4.59986 0
M  V30 4503 H 467.217 -2.1817 -3.08562 0
M  V30 4504 H 467.53 -4.95747 -5.92836 0
M  V30 4505 H 465.875 -4.45306 -5.33599 0
M  V30 4506 H 469.066 -2.7708 -3.77285 0
M  V30 4507 H 469.239 -4.0364 -5.06931 0
M  V30 4508 N 462.645 1.35699 -0.801477 0
M  V30 4509 C 463.922 1.9324 -0.302937 0
M  V30 4510 C 464.302 1.73209 1.20672 0
M  V30 4511 O 463.65 1.09809 2.00385 0
M  V30 4512 C 463.86 3.41728 -0.708747 0
M  V30 4513 C 465.208 4.18868 -0.695328 0
M  V30 4514 O 466.232 3.5022 -0.649971 0
M  V30 4515 O 465.091 5.41342 -0.749081 0
M  V30 4516 H 462.185 0.82331 -0.0780367 0
M  V30 4517 H 464.731 1.44806 -0.884832 0
M  V30 4518 H 463.503 3.50015 -1.74944 0
M  V30 4519 H 463.126 3.97471 -0.101384 0
M  V30 4520 N 464.123 0.554532 1.47522 0
M  V30 4521 C 465.4 -0.0360704 1.95567 0
M  V30 4522 C 465.78 -1.48828 1.49711 0
M  V30 4523 O 465.128 -2.16366 0.734717 0
M  V30 4524 C 465.338 0.106631 3.48837 0
M  V30 4525 C 466.686 -0.0400899 4.24581 0
M  V30 4526 O 467.71 0.0340453 3.56184 0
M  V30 4527 O 466.569 -0.199111 5.46137 0
M  V30 4528 H 463.663 -0.0656294 0.824392 0
M  V30 4529 H 466.209 0.620867 1.57935 0
M  V30 4530 H 464.981 1.11727 3.7501 0
M  V30 4531 H 464.604 -0.58804 3.93227 0
M  V30 4532 N 465.601 -1.54893 0.290851 0
M  V30 4533 C 466.531 -2.26103 -0.583084 0
M  V30 4534 C 467.512 -1.25684 -1.14619 0
M  V30 4535 O 468.697 -1.54436 -1.17741 0
M  V30 4536 C 465.827 -2.99409 -1.75987 0
M  V30 4537 C 464.781 -4.0689 -1.32758 0
M  V30 4538 C 464.107 -4.67856 -2.58872 0
M  V30 4539 C 465.407 -5.20215 -0.46624 0
M  V30 4540 H 467.101 -2.99398 0.0108214 0
M  V30 4541 H 464.647 -1.43998 0.00664468 0
M  V30 4542 H 466.6 -3.47943 -2.37727 0
M  V30 4543 H 465.324 -2.23675 -2.37985 0
M  V30 4544 H 463.983 -3.59191 -0.733299 0
M  V30 4545 H 463.631 -3.88772 -3.19163 0
M  V30 4546 H 463.331 -5.40438 -2.30653 0
M  V30 4547 H 464.855 -5.19147 -3.21433 0
M  V30 4548 H 466.269 -5.64704 -0.989047 0
M  V30 4549 H 464.666 -5.99455 -0.27826 0
M  V30 4550 H 465.736 -4.82198 0.511173 0
M  V30 4551 N 467.08 -0.0183926 -1.57589 0
M  V30 4552 C 468.043 0.951986 -2.08494 0
M  V30 4553 C 469.043 1.26092 -0.997874 0
M  V30 4554 O 470.233 1.20304 -1.25987 0
M  V30 4555 C 467.365 2.27165 -2.54182 0
M  V30 4556 H 468.558 0.511307 -2.95509 0
M  V30 4557 H 466.111 0.229444 -1.54607 0
M  V30 4558 H 466.846 2.75884 -1.70465 0
M  V30 4559 H 466.631 2.06057 -3.33591 0
M  V30 4560 H 468.121 2.9674 -2.93828 0
M  V30 4561 N 468.558 1.5553 0.254621 0
M  V30 4562 C 469.974 1.4778 0.602753 0
M  V30 4563 C 470.174 0.707047 1.88688 0
M  V30 4564 O 469.23 0.233288 2.5142 0
M  V30 4565 C 470.543 2.92133 0.712648 0
M  V30 4566 C 472.091 3.02458 0.805488 0
M  V30 4567 C 472.566 4.48102 0.947009 0
M  V30 4568 N 474.057 4.52008 1.01207 0
M  V30 4569 C 474.792 5.61939 1.1407 0
M  V30 4570 N 474.288 6.81697 1.23536 0
M  V30 4571 N 476.081 5.49719 1.17325 0
M  V30 4572 H 468.232 2.04085 -0.588463 0
M  V30 4573 H 470.495 0.926229 -0.202001 0
M  V30 4574 H 470.201 3.51332 -0.160766 0
M  V30 4575 H 470.075 3.42187 1.58707 0
M  V30 4576 H 472.462 2.43344 1.66936 0
M  V30 4577 H 472.543 2.55627 -0.0939266 0
M  V30 4578 H 472.187 5.07824 0.087725 0
M  V30 4579 H 472.117 4.92607 1.86135 0
M  V30 4580 H 474.608 3.65749 0.950577 0
M  V30 4581 H 474.921 7.61228 1.33236 0
M  V30 4582 H 473.266 6.84473 1.20508 0
M  V30 4583 H 476.457 4.55095 1.09573 0
M  V30 4584 H 476.63 6.35432 1.27005 0
M  V30 4585 N 470.036 -0.519951 1.48776 0
M  V30 4586 C 471.452 -0.849418 1.35119 0
M  V30 4587 C 471.652 -1.98077 0.36982 0
M  V30 4588 O 470.708 -2.51664 -0.205359 0
M  V30 4589 C 472.021 -1.20748 2.75391 0
M  V30 4590 C 473.569 -1.31679 2.83954 0
M  V30 4591 C 474.044 -1.70824 4.24951 0
M  V30 4592 N 475.535 -1.77908 4.27672 0
M  V30 4593 C 476.27 -2.09603 5.33717 0
M  V30 4594 N 475.766 -2.39652 6.5003 0
M  V30 4595 N 477.559 -2.10694 5.21119 0
M  V30 4596 H 469.71 0.226377 2.1119 0
M  V30 4597 H 471.973 0.0386519 0.947212 0
M  V30 4598 H 471.679 -0.449703 3.48813 0
M  V30 4599 H 471.553 -2.15534 3.09556 0
M  V30 4600 H 473.94 -2.06532 2.10781 0
M  V30 4601 H 474.021 -0.3499 2.53396 0
M  V30 4602 H 473.665 -0.965282 4.98643 0
M  V30 4603 H 473.595 -2.6858 4.52959 0
M  V30 4604 H 476.086 -1.56923 3.43779 0
M  V30 4605 H 476.399 -2.6297 7.26682 0
M  V30 4606 H 474.744 -2.37149 6.53288 0
M  V30 4607 H 477.935 -1.86682 4.29264 0
M  V30 4608 H 478.108 -2.35062 6.03863 0
M  V30 4609 N 471.514 -1.37532 -0.769588 0
M  V30 4610 C 472.76 -1.33057 -1.53048 0
M  V30 4611 C 473.093 0.0841865 -1.94017 0
M  V30 4612 O 472.368 1.04198 -1.64235 0
M  V30 4613 C 472.651 -2.27166 -2.79406 0
M  V30 4614 C 472.504 -3.77429 -2.44677 0
M  V30 4615 C 473.823 -2.19683 -3.81349 0
M  V30 4616 H 470.942 -0.484655 -0.555228 0
M  V30 4617 H 473.584 -1.68251 -0.882702 0
M  V30 4618 H 471.734 -1.97283 -3.34682 0
M  V30 4619 H 473.406 -4.17918 -1.953 0
M  V30 4620 H 471.649 -3.95892 -1.77346 0
M  V30 4621 H 472.32 -4.38716 -3.35011 0
M  V30 4622 H 474.796 -2.46029 -3.35573 0
M  V30 4623 H 473.672 -2.87668 -4.67481 0
M  V30 4624 H 473.933 -1.19045 -4.25771 0
M  V30 4625 N 472.992 0.995999 -1.22138 0
M  V30 4626 C 473.955 2.06711 -0.990109 0
M  V30 4627 C 474.955 1.60744 0.0422978 0
M  V30 4628 O 476.145 1.73095 -0.195895 0
M  V30 4629 C 473.277 3.37288 -0.49491 0
M  V30 4630 H 474.47 2.28661 -1.94047 0
M  V30 4631 H 472.023 1.16711 -1.03963 0
M  V30 4632 H 472.758 3.21022 0.459948 0
M  V30 4633 H 472.543 3.71986 -1.23971 0
M  V30 4634 H 474.033 4.16103 -0.353253 0
M  V30 4635 N 474.47 1.03057 1.19235 0
M  V30 4636 C 475.433 0.617418 2.20727 0
M  V30 4637 C 476.433 -0.319856 1.57587 0
M  V30 4638 O 477.623 -0.106633 1.73873 0
M  V30 4639 C 474.755 -0.096296 3.40764 0
M  V30 4640 H 475.948 1.51544 2.58794 0
M  V30 4641 H 473.501 0.821949 1.32942 0
M  V30 4642 H 474.236 -1.00859 3.08217 0
M  V30 4643 H 474.021 0.577217 3.87828 0
M  V30 4644 H 475.511 -0.372219 4.15938 0
M  V30 4645 N 475.948 -1.35272 0.808662 0
M  V30 4646 C 477.196 -1.98316 0.389233 0
M  V30 4647 C 477.517 -1.64465 -1.04767 0
M  V30 4648 O 476.787 -0.928175 -1.72516 0
M  V30 4649 H 475.367 -0.733585 0.140935 0
M  V30 4650 H 478.029 -1.6515 1.03496 0
M  V30 4651 H 477.125 -3.08123 0.496631 0
M  V30 4652 N 477.426 -0.562348 -1.47226 0
M  V30 4653 C 478.672 -0.0402761 -2.0276 0
M  V30 4654 C 479.005 1.30823 -1.43523 0
M  V30 4655 O 478.28 1.85249 -0.592705 0
M  V30 4656 C 478.563 0.047311 -3.60069 0
M  V30 4657 C 478.416 -1.32865 -4.29729 0
M  V30 4658 C 479.735 0.758182 -4.3352 0
M  V30 4659 H 476.854 -0.0161105 -0.736824 0
M  V30 4660 H 479.496 -0.725628 -1.75598 0
M  V30 4661 H 477.646 0.630986 -3.83342 0
M  V30 4662 H 479.318 -1.95593 -4.17781 0
M  V30 4663 H 477.561 -1.90195 -3.89882 0
M  V30 4664 H 478.232 -1.22004 -5.38349 0
M  V30 4665 H 480.708 0.262546 -4.15271 0
M  V30 4666 H 479.584 0.78844 -5.43208 0
M  V30 4667 H 479.845 1.81537 -4.03109 0
M  V30 4668 N 478.904 1.54736 -0.299062 0
M  V30 4669 C 479.867 2.22127 0.565012 0
M  V30 4670 C 480.867 1.20669 1.06281 0
M  V30 4671 O 482.057 1.45417 0.959145 0
M  V30 4672 C 479.189 2.90611 1.78208 0
M  V30 4673 H 480.382 2.99891 -0.0237448 0
M  V30 4674 H 477.935 1.5622 -0.0498788 0
M  V30 4675 H 478.67 2.16921 2.41072 0
M  V30 4676 H 478.455 3.64984 1.43281 0
M  V30 4677 H 479.945 3.42026 2.396 0
M  V30 4678 N 480.382 0.0267497 1.57577 0
M  V30 4679 C 481.628 -0.653371 1.91987 0
M  V30 4680 C 481.961 -1.71915 0.903263 0
M  V30 4681 O 481.236 -1.94358 -0.0743387 0
M  V30 4682 C 481.519 -1.272 3.36886 0
M  V30 4683 C 481.372 -0.215938 4.49281 0
M  V30 4684 C 482.691 -2.19069 3.81703 0
M  V30 4685 H 479.81 -0.236047 0.698177 0
M  V30 4686 H 482.452 0.0835236 1.89816 0
M  V30 4687 H 480.602 -1.90005 3.38866 0
M  V30 4688 H 482.274 0.41449 4.59434 0
M  V30 4689 H 480.517 0.458855 4.31366 0
M  V30 4690 H 481.188 -0.688347 5.47691 0
M  V30 4691 H 483.664 -1.66253 3.81444 0
M  V30 4692 H 482.54 -2.59307 4.83788 0
M  V30 4693 H 482.801 -3.08087 3.17072 0
M  V30 4694 N 481.861 -1.55662 -0.24637 0
M  V30 4695 C 483.107 -1.77782 -0.975779 0
M  V30 4696 C 483.44 -0.592103 -1.84953 0
M  V30 4697 O 482.715 0.409588 -1.90138 0
M  V30 4698 C 482.998 -3.09788 -1.83584 0
M  V30 4699 C 482.851 -4.38764 -0.990241 0
M  V30 4700 C 484.17 -3.38029 -2.81823 0
M  V30 4701 H 481.289 -0.646789 -0.353317 0
M  V30 4702 H 483.931 -1.88398 -0.246248 0
M  V30 4703 H 482.081 -3.00869 -2.45784 0
M  V30 4704 H 483.753 -4.59675 -0.386897 0
M  V30 4705 H 481.996 -4.32798 -0.294626 0
M  V30 4706 H 482.667 -5.27514 -1.62584 0
M  V30 4707 H 485.143 -3.46915 -2.2976 0
M  V30 4708 H 484.019 -4.3161 -3.39122 0
M  V30 4709 H 484.28 -2.58968 -3.58313 0
M  V30 4710 N 483.339 0.512053 -1.4905 0
M  V30 4711 C 484.302 1.59704 -1.64399 0
M  V30 4712 C 485.302 1.52285 -0.516317 0
M  V30 4713 O 486.492 1.55635 -0.782527 0
M  V30 4714 C 483.624 2.9935 -1.63102 0
M  V30 4715 H 484.817 1.47428 -2.61161 0
M  V30 4716 H 482.37 0.735469 -1.37915 0
M  V30 4717 H 483.105 3.17116 -0.678836 0
M  V30 4718 H 482.89 3.06144 -2.44986 0
M  V30 4719 H 484.38 3.782 -1.77072 0
M  V30 4720 N 484.817 1.37938 0.762283 0
M  V30 4721 C 486.233 1.18945 1.06415 0
M  V30 4722 C 486.433 0.0321163 2.01474 0
M  V30 4723 O 485.489 -0.624844 2.44647 0
M  V30 4724 C 486.802 2.51218 1.65258 0
M  V30 4725 C 488.35 2.57824 1.7747 0
M  V30 4726 C 488.825 3.90251 2.39725 0
M  V30 4727 N 490.316 3.91744 2.47166 0
M  V30 4728 C 491.051 4.90966 2.96209 0
M  V30 4729 N 490.547 6.00585 3.45354 0
M  V30 4730 N 492.34 4.78363 2.9517 0
M  V30 4731 H 484.491 2.11994 0.131301 0
M  V30 4732 H 486.754 0.940262 0.120879 0
M  V30 4733 H 486.46 3.36317 1.02878 0
M  V30 4734 H 486.334 2.68989 2.64433 0
M  V30 4735 H 488.721 1.73126 2.3898 0
M  V30 4736 H 488.802 2.43928 0.770241 0
M  V30 4737 H 488.446 4.75368 1.78852 0
M  V30 4738 H 488.376 4.01454 3.40796 0
M  V30 4739 H 490.867 3.12563 2.12397 0
M  V30 4740 H 491.18 6.72236 3.81207 0
M  V30 4741 H 489.525 6.04217 3.43434 0
M  V30 4742 H 492.716 3.91841 2.56082 0
M  V30 4743 H 492.889 5.55843 3.33081 0
M  V30 4744 N 486.295 -0.989507 1.22664 0
M  V30 4745 C 487.543 -1.72612 1.05117 0
M  V30 4746 C 487.864 -1.90552 -0.414131 0
M  V30 4747 O 487.134 -1.4676 -1.29762 0
M  V30 4748 H 485.714 -0.639555 0.385977 0
M  V30 4749 H 488.376 -1.19158 1.54232 0
M  V30 4750 H 487.472 -2.71926 1.53175 0
M  V30 4751 N 487.773 -1.03688 -1.18687 0
M  V30 4752 C 488.736 -0.629115 -2.20397 0
M  V30 4753 C 489.736 0.311495 -1.57754 0
M  V30 4754 O 490.926 0.0974107 -1.73927 0
M  V30 4755 C 488.058 0.0782231 -3.4081 0
M  V30 4756 H 489.251 -1.52915 -2.57987 0
M  V30 4757 H 486.804 -0.828988 -1.32505 0
M  V30 4758 H 487.539 0.992233 -3.08748 0
M  V30 4759 H 487.324 -0.597776 -3.87517 0
M  V30 4760 H 488.814 0.350156 -4.16129 0
M  V30 4761 N 489.251 1.34841 -0.815825 0
M  V30 4762 C 490.183 2.28409 -0.190265 0
M  V30 4763 C 491.196 1.50705 0.615771 0
M  V30 4764 O 492.385 1.72822 0.446616 0
M  V30 4765 C 489.485 3.30441 0.752446 0
M  V30 4766 C 488.658 4.37399 -0.00922152 0
M  V30 4767 C 487.717 5.19234 0.853351 0
M  V30 4768 O 486.743 5.68404 0.300919 0
M  V30 4769 N 487.945 5.38248 2.17416 0
M  V30 4770 H 490.71 2.82732 -0.994114 0
M  V30 4771 H 488.271 1.47289 -0.672129 0
M  V30 4772 H 490.263 3.82084 1.33394 0
M  V30 4773 H 488.833 2.76565 1.45707 0
M  V30 4774 H 488.053 3.86567 -0.771979 0
M  V30 4775 H 489.341 5.05992 -0.533807 0
M  V30 4776 H 488.739 4.99961 2.6468 0
M  V30 4777 H 487.296 5.93035 2.70467 0
M  V30 4778 N 490.729 0.570148 1.46925 0
M  V30 4779 C 491.692 -0.159933 2.28641 0
M  V30 4780 C 492.692 -0.830638 1.37685 0
M  V30 4781 O 493.882 -0.684516 1.60187 0
M  V30 4782 C 491.014 -1.2354 3.17727 0
M  V30 4783 H 492.207 0.558035 2.94662 0
M  V30 4784 H 489.76 0.327603 1.52828 0
M  V30 4785 H 490.495 -1.98535 2.56426 0
M  V30 4786 H 490.28 -0.759125 3.84681 0
M  V30 4787 H 491.77 -1.74782 3.79264 0
M  V30 4788 N 492.207 -1.54576 0.307264 0
M  V30 4789 C 493.137 -2.26708 -0.55907 0
M  V30 4790 C 494.118 -1.26893 -1.1328 0
M  V30 4791 O 495.303 -1.55677 -1.16097 0
M  V30 4792 C 492.433 -3.01259 -1.72801 0
M  V30 4793 C 491.387 -4.08275 -1.28435 0
M  V30 4794 C 490.713 -4.70575 -2.53895 0
M  V30 4795 C 492.013 -5.2068 -0.411038 0
M  V30 4796 H 493.707 -2.9937 0.042576 0
M  V30 4797 H 491.253 -1.43983 0.0219173 0
M  V30 4798 H 493.206 -3.50444 -2.34023 0
M  V30 4799 H 491.93 -2.26187 -2.356 0
M  V30 4800 H 490.589 -3.59949 -0.695161 0
M  V30 4801 H 490.237 -3.92136 -3.15021 0
M  V30 4802 H 489.937 -5.42854 -2.24908 0
M  V30 4803 H 491.461 -5.22527 -3.15908 0
M  V30 4804 H 492.875 -5.65721 -0.929097 0
M  V30 4805 H 491.272 -5.99716 -0.214664 0
M  V30 4806 H 492.342 -4.81629 0.562287 0
M  V30 4807 N 493.685 -0.035106 -1.57561 0
M  V30 4808 C 494.615 0.942993 -2.13612 0
M  V30 4809 C 495.596 1.33531 -1.05373 0
M  V30 4810 O 496.781 1.41287 -1.33235 0
M  V30 4811 C 493.911 2.22332 -2.66807 0
M  V30 4812 C 492.865 1.97156 -3.79886 0
M  V30 4813 C 492.191 3.31506 -4.19533 0
M  V30 4814 C 493.491 1.30596 -5.05709 0
M  V30 4815 H 495.185 0.476179 -2.95589 0
M  V30 4816 H 492.731 0.227602 -1.4219 0
M  V30 4817 H 494.684 2.91142 -3.04654 0
M  V30 4818 H 493.408 2.7119 -1.81999 0
M  V30 4819 H 492.067 1.30763 -3.42486 0
M  V30 4820 H 491.715 3.78134 -3.31698 0
M  V30 4821 H 491.415 3.15465 -4.95738 0
M  V30 4822 H 492.939 4.01574 -4.59968 0
M  V30 4823 H 494.353 1.89416 -5.41105 0
M  V30 4824 H 492.75 1.24934 -5.86951 0
M  V30 4825 H 493.82 0.279742 -4.84092 0
M  V30 4826 N 495.163 1.55791 0.238111 0
M  V30 4827 C 496.579 1.48411 0.587045 0
M  V30 4828 C 496.779 0.72702 1.87927 0
M  V30 4829 O 495.835 0.259942 2.51158 0
M  V30 4830 C 497.148 2.92873 0.681623 0
M  V30 4831 C 498.696 3.03295 0.773363 0
M  V30 4832 C 499.171 4.49082 0.899428 0
M  V30 4833 N 500.662 4.53056 0.964075 0
M  V30 4834 C 501.397 5.63117 1.08104 0
M  V30 4835 N 500.893 6.82969 1.16299 0
M  V30 4836 N 502.686 5.50933 1.11488 0
M  V30 4837 H 494.837 2.0345 -0.610076 0
M  V30 4838 H 497.1 0.924034 -0.211813 0
M  V30 4839 H 496.806 3.51142 -0.19802 0
M  V30 4840 H 496.68 3.43851 1.55069 0
M  V30 4841 H 499.067 2.45101 1.64346 0
M  V30 4842 H 499.148 2.55513 -0.121034 0
M  V30 4843 H 498.792 5.07889 0.0338586 0
M  V30 4844 H 498.722 4.94553 1.809 0
M  V30 4845 H 501.213 3.66737 0.91173 0
M  V30 4846 H 501.526 7.62598 1.25155 0
M  V30 4847 H 499.871 6.85712 1.13241 0
M  V30 4848 H 503.062 4.56231 1.0474 0
M  V30 4849 H 503.235 6.36743 1.20259 0
M  V30 4850 N 496.642 -0.504142 1.49319 0
M  V30 4851 C 497.919 -1.26548 1.49147 0
M  V30 4852 C 498.299 -2.09977 0.21744 0
M  V30 4853 O 497.647 -2.14028 -0.800269 0
M  V30 4854 C 497.857 -2.12489 2.76857 0
M  V30 4855 C 499.205 -2.7178 3.26222 0
M  V30 4856 O 500.229 -2.22758 2.77952 0
M  V30 4857 O 499.088 -3.61015 4.10281 0
M  V30 4858 H 496.182 -0.572495 0.596806 0
M  V30 4859 H 498.728 -0.51867 1.61579 0
M  V30 4860 H 497.5 -1.50796 3.61077 0
M  V30 4861 H 497.123 -2.94368 2.6727 0
M  V30 4862 N 498.12 -1.38341 -0.754957 0
M  V30 4863 C 499.35 -1.37504 -1.54195 0
M  V30 4864 C 499.758 0.0373787 -1.89163 0
M  V30 4865 O 499.101 1.01402 -1.53178 0
M  V30 4866 C 499.163 -2.16488 -2.87008 0
M  V30 4867 C 498.827 -3.65311 -2.74585 0
M  V30 4868 C 499.824 -4.58834 -2.44474 0
M  V30 4869 C 497.509 -4.08649 -2.9208 0
M  V30 4870 C 499.503 -5.93675 -2.32011 0
M  V30 4871 C 497.19 -5.43571 -2.79237 0
M  V30 4872 C 498.188 -6.35898 -2.49245 0
M  V30 4873 O 497.876 -7.68338 -2.36458 0
M  V30 4874 H 497.608 -0.472159 -0.483779 0
M  V30 4875 H 500.162 -1.82515 -0.94221 0
M  V30 4876 H 498.392 -1.66194 -3.49166 0
M  V30 4877 H 500.081 -2.08076 -3.4851 0
M  V30 4878 H 500.847 -4.26657 -2.30627 0
M  V30 4879 H 496.726 -3.37134 -3.14422 0
M  V30 4880 H 500.27 -6.65706 -2.08522 0
M  V30 4881 H 496.167 -5.75345 -2.92657 0
M  V30 4882 H 496.935 -7.78845 -2.5168 0
M  V30 4883 N 499.598 0.982988 -1.23187 0
M  V30 4884 C 500.846 1.72052 -1.06031 0
M  V30 4885 C 501.167 1.90769 0.404019 0
M  V30 4886 O 500.437 1.47446 1.28982 0
M  V30 4887 H 499.017 0.637499 -0.389363 0
M  V30 4888 H 501.679 1.18338 -1.54862 0
M  V30 4889 H 500.775 2.7111 -1.54615 0
M  V30 4890 N 501.076 1.04316 1.18135 0
M  V30 4891 C 502.323 0.74802 1.88178 0
M  V30 4892 C 502.651 -0.72441 1.80506 0
M  V30 4893 O 501.906 -1.54463 1.20165 0
M  V30 4894 C 502.205 1.16271 3.37958 0
M  V30 4895 C 501.871 2.63585 3.65833 0
M  V30 4896 C 500.533 3.03829 3.73151 0
M  V30 4897 C 502.885 3.58822 3.78016 0
M  V30 4898 C 500.213 4.38194 3.90132 0
M  V30 4899 C 502.565 4.92909 3.96514 0
M  V30 4900 C 501.229 5.3282 4.02068 0
M  V30 4901 H 500.499 0.27372 0.688592 0
M  V30 4902 H 503.146 1.30863 1.39811 0
M  V30 4903 H 501.451 0.520938 3.88321 0
M  V30 4904 H 503.148 0.911672 3.90499 0
M  V30 4905 H 499.738 2.31414 3.60757 0
M  V30 4906 H 503.922 3.28875 3.71692 0
M  V30 4907 H 499.178 4.68631 3.92677 0
M  V30 4908 H 503.352 5.66606 4.04883 0
M  V30 4909 H 500.979 6.36943 4.14979 0
M  V30 4910 N 502.554 -1.34406 0.822964 0
M  V30 4911 C 503.484 -2.32052 0.259608 0
M  V30 4912 C 504.465 -1.58243 -0.623961 0
M  V30 4913 O 505.65 -1.86224 -0.55083 0
M  V30 4914 C 502.78 -3.42434 -0.579314 0
M  V30 4915 C 501.734 -4.27499 0.20712 0
M  V30 4916 C 501.06 -5.29349 -0.754547 0
M  V30 4917 C 502.36 -5.02758 1.41533 0
M  V30 4918 H 504.054 -2.79418 1.07545 0
M  V30 4919 H 501.6 -1.34338 0.518593 0
M  V30 4920 H 503.553 -4.0976 -0.983612 0
M  V30 4921 H 502.277 -2.93717 -1.4282 0
M  V30 4922 H 500.936 -3.61776 0.592787 0
M  V30 4923 H 500.584 -4.76895 -1.59939 0
M  V30 4924 H 500.284 -5.8714 -0.232561 0
M  V30 4925 H 501.808 -5.99544 -1.1567 0
M  V30 4926 H 503.222 -5.62938 1.08504 0
M  V30 4927 H 501.619 -5.70123 1.87296 0
M  V30 4928 H 502.689 -4.32451 2.1935 0
M  V30 4929 N 504.032 -0.577932 -1.46621 0
M  V30 4930 C 505.443 -0.150071 -1.86096 0
M  V30 4931 C 505.794 1.28563 -1.48209 0
M  V30 4932 O 504.919 1.97036 -0.894754 0
M  V30 4933 C 505.514 -0.265576 -3.37758 0
M  V30 4934 C 504.073 0.10738 -3.76247 0
M  V30 4935 C 503.22 -0.603711 -2.70649 0
M  V30 4936 H 506.171 -0.786438 -1.37844 0
M  V30 4937 H 506.192 0.510352 -3.77062 0
M  V30 4938 H 505.704 -1.3106 -3.65301 0
M  V30 4939 H 503.805 1.15272 -3.54321 0
M  V30 4940 H 503.918 -0.26561 -4.78363 0
M  V30 4941 H 502.282 -0.0444884 -2.54661 0
M  V30 4942 H 503.065 -1.65029 -3.01032 0
M  V30 4943 N 505.51 1.54411 -0.315457 0
M  V30 4944 C 506.42 2.27737 0.56329 0
M  V30 4945 C 507.436 1.31787 1.13614 0
M  V30 4946 O 508.612 1.64791 1.15784 0
M  V30 4947 C 505.677 3.01478 1.71207 0
M  V30 4948 C 504.738 4.12997 1.17185 0
M  V30 4949 C 503.971 4.83212 2.26588 0
M  V30 4950 O 504.194 4.52884 3.46775 0
M  V30 4951 O 503.128 5.70299 1.92463 0
M  V30 4952 H 506.954 3.03683 -0.0319614 0
M  V30 4953 H 504.539 1.49178 -0.0814188 0
M  V30 4954 H 506.421 3.47683 2.38106 0
M  V30 4955 H 505.096 2.28414 2.29366 0
M  V30 4956 H 504.003 3.71159 0.468174 0
M  V30 4957 H 505.336 4.8808 0.635501 0
M  V30 4958 N 506.988 0.0434614 1.5754 0
M  V30 4959 C 507.918 -0.931651 2.14109 0
M  V30 4960 C 508.899 -1.32971 1.06079 0
M  V30 4961 O 510.084 -1.40579 1.33982 0
M  V30 4962 C 507.214 -2.20914 2.67982 0
M  V30 4963 C 506.168 -1.95139 3.80926 0
M  V30 4964 C 505.494 -3.29276 4.21285 0
M  V30 4965 C 506.794 -1.27913 5.06395 0
M  V30 4966 H 508.488 -0.460497 2.95837 0
M  V30 4967 H 506.034 -0.220058 1.42309 0
M  V30 4968 H 507.987 -2.89522 3.06194 0
M  V30 4969 H 506.711 -2.70221 1.83434 0
M  V30 4970 H 505.37 -1.28945 3.43175 0
M  V30 4971 H 505.018 -3.76369 3.33699 0
M  V30 4972 H 504.718 -3.12831 4.97404 0
M  V30 4973 H 506.242 -3.99129 4.62091 0
M  V30 4974 H 507.656 -1.86544 5.42102 0
M  V30 4975 H 506.053 -1.2182 5.87605 0
M  V30 4976 H 507.123 -0.254066 4.84234 0
M  V30 4977 N 508.466 -1.55915 -0.229846 0
M  V30 4978 C 509.714 -1.7819 -0.953565 0
M  V30 4979 C 510.035 -0.610504 -1.85197 0
M  V30 4980 O 509.305 0.372988 -1.92316 0
M  V30 4981 H 507.885 -0.657208 -0.355087 0
M  V30 4982 H 510.547 -1.9337 -0.243693 0
M  V30 4983 H 509.643 -2.70011 -1.56527 0
M  V30 4984 N 509.944 0.496216 -1.49584 0
M  V30 4985 C 510.894 1.59422 -1.62999 0
M  V30 4986 C 511.878 1.53402 -0.485457 0
M  V30 4987 O 513.07 1.60851 -0.738649 0
M  V30 4988 C 510.199 2.98009 -1.70427 0
M  V30 4989 C 509.285 3.09008 -2.90473 0
M  V30 4990 N 509.676 2.89884 -4.14489 0
M  V30 4991 C 507.974 3.40115 -2.8851 0
M  V30 4992 C 508.675 3.0519 -4.95211 0
M  V30 4993 N 507.651 3.3428 -4.2867 0
M  V30 4994 H 511.453 1.43297 -2.56599 0
M  V30 4995 H 508.967 0.702443 -1.46422 0
M  V30 4996 H 510.964 3.76926 -1.78136 0
M  V30 4997 H 509.624 3.152 -0.77967 0
M  V30 4998 H 510.635 2.65963 -4.44392 0
M  V30 4999 H 507.312 3.63452 -2.05448 0
M  V30 5000 H 508.702 2.94856 -6.03746 0
M  V30 5001 N 511.423 1.38739 0.74761 0
M  V30 5002 C 512.7 1.25791 1.49786 0
M  V30 5003 C 513.08 -0.138075 2.10648 0
M  V30 5004 O 512.428 -1.14815 1.9756 0
M  V30 5005 C 512.638 2.37265 2.55942 0
M  V30 5006 C 513.986 2.75978 3.22679 0
M  V30 5007 O 515.01 2.36621 2.6625 0
M  V30 5008 O 513.869 3.43867 4.24756 0
M  V30 5009 H 510.963 0.492251 0.664543 0
M  V30 5010 H 513.509 1.50582 0.782511 0
M  V30 5011 H 512.281 3.30644 2.0926 0
M  V30 5012 H 511.904 2.14071 3.35051 0
M  V30 5013 N 512.901 -0.976442 1.23707 0
M  V30 5014 C 514.141 -1.73331 1.08332 0
M  V30 5015 C 514.505 -1.88346 -0.372781 0
M  V30 5016 O 515.706 -2.60877 -0.647813 0
M  V30 5017 C 513.977 -3.09159 1.7932 0
M  V30 5018 S 515.536 -4.00376 1.79567 0
M  V30 5019 H 512.354 -0.596045 0.387622 0
M  V30 5020 H 514.956 -1.16625 1.56904 0
M  V30 5021 H 513.66 -2.95884 2.84395 0
M  V30 5022 H 513.191 -3.70932 1.31046 0
M  V30 5023 H 515.206 -4.88742 0.857094 0
M  V30 5024 N 514.379 -1.04941 -1.1758 0
M  V30 5025 C 515.795 -0.770282 -1.39781 0
M  V30 5026 C 515.995 0.636417 -1.91186 0
M  V30 5027 O 515.051 1.39923 -2.10185 0
M  V30 5028 C 516.364 -1.82376 -2.3908 0
M  V30 5029 C 517.912 -1.84569 -2.52791 0
M  V30 5030 C 518.387 -2.88933 -3.55361 0
M  V30 5031 N 519.878 -2.8788 -3.62877 0
M  V30 5032 C 520.613 -3.65282 -4.41992 0
M  V30 5033 N 520.109 -4.52461 -5.24643 0
M  V30 5034 N 521.902 -3.53732 -4.36841 0
M  V30 5035 H 514.053 -1.95705 -0.825438 0
M  V30 5036 H 516.316 -0.847284 -0.425222 0
M  V30 5037 H 516.022 -2.83323 -2.08376 0
M  V30 5038 H 515.896 -1.66327 -3.38549 0
M  V30 5039 H 518.283 -0.842879 -2.82807 0
M  V30 5040 H 518.364 -2.04696 -1.53406 0
M  V30 5041 H 518.008 -3.89398 -3.26085 0
M  V30 5042 H 517.938 -2.66059 -4.54445 0
M  V30 5043 H 520.429 -2.24666 -3.03864 0
M  V30 5044 H 520.742 -5.08211 -5.82187 0
M  V30 5045 H 519.087 -4.56524 -5.24033 0
M  V30 5046 H 522.278 -2.85021 -3.71323 0
M  V30 5047 H 522.451 -4.14302 -4.98255 0
M  V30 5048 N 515.857 1.33968 -0.830081 0
M  V30 5049 C 516.82 2.27694 -0.26235 0
M  V30 5050 C 517.82 1.50589 0.563876 0
M  V30 5051 O 519.01 1.70028 0.378941 0
M  V30 5052 C 516.142 3.35002 0.63138 0
M  V30 5053 H 517.335 2.79419 -1.08928 0
M  V30 5054 H 514.888 1.44221 -0.602486 0
M  V30 5055 H 515.623 2.88504 1.48109 0
M  V30 5056 H 515.408 3.92079 0.0403276 0
M  V30 5057 H 516.898 4.04897 1.02217 0
M  V30 5058 N 517.335 0.585699 1.46312 0
M  V30 5059 C 518.267 -0.183687 2.28463 0
M  V30 5060 C 519.28 -0.85264 1.38686 0
M  V30 5061 O 520.469 -0.721701 1.6326 0
M  V30 5062 C 517.569 -1.27977 3.13808 0
M  V30 5063 C 516.742 -0.702164 4.31727 0
M  V30 5064 C 515.801 -1.68633 4.98447 0
M  V30 5065 O 514.827 -1.22121 5.55945 0
M  V30 5066 N 516.029 -3.02047 4.95729 0
M  V30 5067 H 518.794 0.521127 2.95134 0
M  V30 5068 H 516.355 0.423673 1.56258 0
M  V30 5069 H 518.347 -1.9375 3.55307 0
M  V30 5070 H 516.917 -1.8874 2.4919 0
M  V30 5071 H 516.137 0.1331 3.93975 0
M  V30 5072 H 517.425 -0.296101 5.07938 0
M  V30 5073 H 516.823 -3.42457 4.50266 0
M  V30 5074 H 515.38 -3.63301 5.41161 0
M  V30 5075 N 518.813 -1.54241 0.323641 0
M  V30 5076 C 519.761 -2.25813 -0.557804 0
M  V30 5077 C 520.755 -1.27225 -1.11849 0
M  V30 5078 O 521.961 -1.45001 -1.06652 0
M  V30 5079 H 518.336 -0.72532 -0.198532 0
M  V30 5080 H 520.307 -2.98322 0.0681112 0
M  V30 5081 C 519.056 -3.02913 -1.70701 0
M  V30 5082 H 518.379 -3.78593 -1.28482 0
M  V30 5083 H 519.819 -3.56238 -2.29935 0
M  V30 5084 C 518.278 -2.11217 -2.62467 0
M  V30 5085 O 518.808 -1.69508 -3.64184 0
M  V30 5086 N 517.014 -1.76704 -2.30703 0
M  V30 5087 H 516.561 -2.1082 -1.48029 0
M  V30 5088 H 516.519 -1.15631 -2.92364 0
M  V30 5089 N 520.291 -0.0518155 -1.57515 0
M  V30 5090 C 521.707 0.304735 -1.56664 0
M  V30 5091 C 521.907 1.71395 -1.05953 0
M  V30 5092 O 520.963 2.42123 -0.716414 0
M  V30 5093 C 522.276 0.132614 -3.00407 0
M  V30 5094 C 523.824 0.20367 -3.12337 0
M  V30 5095 C 524.299 0.0600706 -4.57961 0
M  V30 5096 N 525.79 0.116326 -4.63054 0
M  V30 5097 C 526.525 0.0293363 -5.73392 0
M  V30 5098 N 526.021 -0.110038 -6.92713 0
M  V30 5099 N 527.814 0.0849651 -5.62036 0
M  V30 5100 H 519.965 -0.973056 -1.888 0
M  V30 5101 H 522.228 -0.377781 -0.869474 0
M  V30 5102 H 521.934 -0.839019 -3.41546 0
M  V30 5103 H 521.808 0.893376 -3.66468 0
M  V30 5104 H 524.195 1.16578 -2.71097 0
M  V30 5105 H 524.276 -0.587857 -2.48954 0
M  V30 5106 H 523.92 -0.898715 -4.99886 0
M  V30 5107 H 523.85 0.87075 -5.19351 0
M  V30 5108 H 526.341 0.22327 -3.7724 0
M  V30 5109 H 526.654 -0.169104 -7.72615 0
M  V30 5110 H 524.999 -0.145132 -6.94848 0
M  V30 5111 H 528.19 0.192411 -4.67704 0
M  V30 5112 H 528.363 0.0137131 -6.47999 0
M  V30 5113 N 521.769 1.56035 0.221574 0
M  V30 5114 C 522.997 1.8313 0.962864 0
M  V30 5115 C 523.412 0.630934 1.77946 0
M  V30 5116 O 522.769 -0.400519 1.78051 0
M  V30 5117 C 522.82 3.08742 1.88045 0
M  V30 5118 O 522.541 4.24147 1.09686 0
M  V30 5119 C 524.042 3.48824 2.73563 0
M  V30 5120 H 521.262 0.608775 0.282194 0
M  V30 5121 H 523.806 2.03124 0.23681 0
M  V30 5122 H 521.961 2.90723 2.56045 0
M  V30 5123 H 522.375 4.95505 1.71974 0
M  V30 5124 H 523.849 4.39752 3.3365 0
M  V30 5125 H 524.326 2.70575 3.45956 0
M  V30 5126 H 524.932 3.69282 2.10976 0
M  V30 5127 N 523.247 -0.488276 1.49845 0
M  V30 5128 C 524.197 -1.58556 1.63842 0
M  V30 5129 C 525.181 -1.53142 0.493586 0
M  V30 5130 O 526.373 -1.60457 0.747169 0
M  V30 5131 C 523.502 -2.97101 1.72005 0
M  V30 5132 C 522.588 -3.07463 2.92108 0
M  V30 5133 N 522.979 -2.87681 4.16021 0
M  V30 5134 C 521.277 -3.3858 2.90309 0
M  V30 5135 C 521.978 -3.0256 4.96822 0
M  V30 5136 N 520.954 -3.32002 4.30437 0
M  V30 5137 H 524.756 -1.41935 2.57355 0
M  V30 5138 H 522.27 -0.694668 1.46793 0
M  V30 5139 H 524.267 -3.75976 1.80132 0
M  V30 5140 H 522.927 -3.14782 0.796375 0
M  V30 5141 H 523.938 -2.63603 4.45796 0
M  V30 5142 H 520.615 -3.62357 2.07372 0
M  V30 5143 H 522.005 -2.9165 6.05301 0
M  V30 5144 N 524.725 -1.39134 -0.740242 0
M  V30 5145 C 526.141 -1.20623 -1.0451 0
M  V30 5146 C 526.341 -0.0641651 -2.01398 0
M  V30 5147 O 525.397 0.585843 -2.4561 0
M  V30 5148 C 526.71 -2.53815 -1.6124 0
M  V30 5149 C 528.258 -2.60615 -1.73346 0
M  V30 5150 C 528.733 -3.94015 -2.33486 0
M  V30 5151 N 530.224 -3.95627 -2.40902 0
M  V30 5152 C 530.959 -4.95616 -2.88361 0
M  V30 5153 N 530.455 -6.06003 -3.35756 0
M  V30 5154 N 532.248 -4.82998 -2.87523 0
M  V30 5155 H 524.399 -2.12176 -0.0975576 0
M  V30 5156 H 526.662 -0.942066 -0.105904 0
M  V30 5157 H 526.368 -3.37911 -0.975144 0
M  V30 5158 H 526.242 -2.73162 -2.6012 0
M  V30 5159 H 528.629 -1.76906 -2.36195 0
M  V30 5160 H 528.71 -2.45123 -0.731336 0
M  V30 5161 H 528.354 -4.78153 -1.71267 0
M  V30 5162 H 528.284 -4.06825 -3.34366 0
M  V30 5163 H 530.775 -3.15903 -2.07398 0
M  V30 5164 H 531.088 -6.78215 -3.70464 0
M  V30 5165 H 529.433 -6.09604 -3.33778 0
M  V30 5166 H 532.624 -3.95866 -2.49816 0
M  V30 5167 H 532.797 -5.61072 -3.24196 0
M  V30 5168 N 526.204 0.969867 -1.24223 0
M  V30 5169 C 527.452 1.70918 -1.0785 0
M  V30 5170 C 527.773 1.91186 0.383763 0
M  V30 5171 O 527.043 1.48806 1.27411 0
M  V30 5172 H 525.623 0.633334 -0.396103 0
M  V30 5173 H 528.285 1.16689 -1.56108 0
M  V30 5174 H 527.381 2.69455 -1.57482 0
M  V30 5175 N 527.682 1.05563 1.17022 0
M  V30 5176 C 528.592 0.670758 2.24807 0
M  V30 5177 C 529.608 -0.309865 1.71219 0
M  V30 5178 O 530.784 -0.161025 2.00755 0
M  V30 5179 C 527.849 0.055337 3.46656 0
M  V30 5180 C 526.91 1.08688 4.15314 0
M  V30 5181 C 526.143 0.500736 5.31346 0
M  V30 5182 O 526.366 -0.688718 5.66227 0
M  V30 5183 O 525.3 1.23683 5.89055 0
M  V30 5184 H 529.126 1.56914 2.60023 0
M  V30 5185 H 526.711 0.827428 1.24395 0
M  V30 5186 H 528.593 -0.286492 4.20425 0
M  V30 5187 H 527.268 -0.816638 3.13229 0
M  V30 5188 H 526.175 1.48077 3.43546 0
M  V30 5189 H 527.508 1.93014 4.52777 0
M  V30 5190 N 529.16 -1.33526 0.837174 0
M  V30 5191 C 530.385 -2.0258 0.444545 0
M  V30 5192 C 530.81 -1.6258 -0.946006 0
M  V30 5193 O 530.168 -0.817548 -1.6182 0
M  V30 5194 C 530.216 -3.5605 0.571006 0
M  V30 5195 O 529.32 -4.10422 -0.403431 0
M  V30 5196 H 528.661 -0.638866 0.180958 0
M  V30 5197 H 531.191 -1.70462 1.13154 0
M  V30 5198 H 531.201 -4.05488 0.452024 0
M  V30 5199 H 529.876 -3.84509 1.58512 0
M  V30 5200 H 528.453 -3.72113 -0.242147 0
M  V30 5201 N 530.638 -0.59345 -1.46 0
M  V30 5202 C 531.568 0.121192 -2.33185 0
M  V30 5203 C 532.549 0.872977 -1.4599 0
M  V30 5204 O 533.734 0.846321 -1.74789 0
M  V30 5205 C 530.864 1.12844 -3.28456 0
M  V30 5206 C 529.818 0.4908 -4.25177 0
M  V30 5207 C 529.144 1.60529 -5.10034 0
M  V30 5208 C 530.444 -0.578949 -5.19081 0
M  V30 5209 H 532.138 -0.606767 -2.93187 0
M  V30 5210 H 529.684 -0.293242 -1.40983 0
M  V30 5211 H 531.637 1.63684 -3.88311 0
M  V30 5212 H 530.361 1.88681 -2.66584 0
M  V30 5213 H 529.02 0.00339328 -3.666 0
M  V30 5214 H 528.668 2.35359 -4.44539 0
M  V30 5215 H 528.368 1.18422 -5.75543 0
M  V30 5216 H 529.892 2.11623 -5.72755 0
M  V30 5217 H 531.306 -0.155199 -5.7309 0
M  V30 5218 H 529.703 -0.920947 -5.92991 0
M  V30 5219 H 530.773 -1.46109 -4.62364 0
M  V30 5220 N 532.116 1.54067 -0.331816 0
M  V30 5221 C 533.066 2.21363 0.546101 0
M  V30 5222 C 534.05 1.19698 1.07523 0
M  V30 5223 O 535.242 1.45293 1.01088 0
M  V30 5224 C 532.371 2.98115 1.70242 0
M  V30 5225 C 531.457 4.07127 1.18779 0
M  V30 5226 N 531.848 5.04267 0.393465 0
M  V30 5227 C 530.146 4.21226 1.46576 0
M  V30 5228 C 530.847 5.81585 0.115572 0
M  V30 5229 N 529.823 5.39022 0.703987 0
M  V30 5230 H 533.625 2.93821 -0.0679751 0
M  V30 5231 H 531.139 1.61812 -0.138085 0
M  V30 5232 H 533.136 3.44818 2.34321 0
M  V30 5233 H 531.796 2.27181 2.31989 0
M  V30 5234 H 532.807 5.17888 0.0355757 0
M  V30 5235 H 529.484 3.61509 2.08848 0
M  V30 5236 H 530.874 6.6985 -0.524426 0
M  V30 5237 N 533.594 0.0601682 1.57485 0
M  V30 5238 C 535.01 -0.296422 1.56823 0
M  V30 5239 C 535.21 -1.70831 1.0686 0
M  V30 5240 O 534.266 -2.4174 0.729245 0
M  V30 5241 C 535.579 -0.116681 3.00474 0
M  V30 5242 C 537.127 -0.187103 3.1244 0
M  V30 5243 C 537.602 -0.035783 4.57986 0
M  V30 5244 N 539.093 -0.0917676 4.63109 0
M  V30 5245 C 539.828 0.00107251 5.734 0
M  V30 5246 N 539.324 0.146773 6.92645 0
M  V30 5247 N 541.117 -0.0551577 5.62073 0
M  V30 5248 H 533.268 0.983055 1.88281 0
M  V30 5249 H 535.531 0.382386 0.867459 0
M  V30 5250 H 535.237 0.85712 3.41096 0
M  V30 5251 H 535.111 -0.873929 3.66936 0
M  V30 5252 H 537.498 -1.15138 2.71712 0
M  V30 5253 H 537.579 0.601052 2.48638 0
M  V30 5254 H 537.223 0.925212 4.99402 0
M  V30 5255 H 537.153 -0.843196 5.19806 0
M  V30 5256 H 539.644 -0.203261 3.77353 0
M  V30 5257 H 539.957 0.210076 7.72514 0
M  V30 5258 H 538.302 0.181979 6.94762 0
M  V30 5259 H 541.493 -0.167605 4.678 0
M  V30 5260 H 541.666 0.020652 6.47997 0
M  V30 5261 N 535.072 -1.5615 -0.213296 0
M  V30 5262 C 536.302 -1.83372 -0.951757 0
M  V30 5263 C 536.71 -0.638158 -1.78113 0
M  V30 5264 O 536.053 0.402609 -1.79234 0
M  V30 5265 C 536.115 -3.04444 -1.91192 0
M  V30 5266 C 535.779 -4.39107 -1.26627 0
M  V30 5267 C 536.776 -5.15794 -0.652087 0
M  V30 5268 C 534.461 -4.85834 -1.27556 0
M  V30 5269 C 536.455 -6.37376 -0.055814 0
M  V30 5270 C 534.142 -6.07356 -0.675451 0
M  V30 5271 C 535.14 -6.82967 -0.0666367 0
M  V30 5272 O 534.828 -8.0219 0.524119 0
M  V30 5273 H 534.56 -0.613398 -0.284111 0
M  V30 5274 H 537.114 -2.04096 -0.231112 0
M  V30 5275 H 535.344 -2.79559 -2.67178 0
M  V30 5276 H 537.033 -3.18466 -2.51662 0
M  V30 5277 H 537.799 -4.80796 -0.637172 0
M  V30 5278 H 533.678 -4.26949 -1.73883 0
M  V30 5279 H 537.222 -6.96334 0.420004 0
M  V30 5280 H 533.119 -6.41825 -0.687806 0
M  V30 5281 H 533.887 -8.17426 0.419243 0
M  V30 5282 N 536.55 0.480323 -1.50102 0
M  V30 5283 C 537.797 1.23307 -1.60629 0
M  V30 5284 C 538.125 1.92135 -0.302375 0
M  V30 5285 O 537.38 1.82321 0.711154 0
M  V30 5286 C 537.679 2.30708 -2.72963 0
M  V30 5287 C 537.345 1.79195 -4.13763 0
M  V30 5288 C 536.007 1.64867 -4.52076 0
M  V30 5289 C 538.359 1.40878 -5.018 0
M  V30 5290 C 535.687 1.10631 -5.76175 0
M  V30 5291 C 538.039 0.880872 -6.26437 0
M  V30 5292 C 536.703 0.724146 -6.6356 0
M  V30 5293 H 535.973 0.451211 -0.587784 0
M  V30 5294 H 538.62 0.53051 -1.84005 0
M  V30 5295 H 536.925 3.06834 -2.43639 0
M  V30 5296 H 538.622 2.88692 -2.78313 0
M  V30 5297 H 535.212 1.91313 -3.83533 0
M  V30 5298 H 539.396 1.50786 -4.7284 0
M  V30 5299 H 534.652 0.972263 -6.0362 0
M  V30 5300 H 538.826 0.575269 -6.9402 0
M  V30 5301 H 536.453 0.301722 -7.59601 0
M  V30 5302 N 538.028 1.39524 0.732853 0
M  V30 5303 C 538.961 1.32806 1.85574 0
M  V30 5304 C 539.939 0.201354 1.61348 0
M  V30 5305 O 541.123 0.38216 1.84585 0
M  V30 5306 C 538.25 1.06271 3.21596 0
M  V30 5307 C 537.296 2.21161 3.64678 0
M  V30 5308 S 538.129 3.83454 3.73796 0
M  V30 5309 C 539.285 3.59149 5.12604 0
M  V30 5310 H 539.518 2.27838 1.9099 0
M  V30 5311 H 537.051 1.25605 0.897927 0
M  V30 5312 H 539.009 0.916461 4.00139 0
M  V30 5313 H 537.67 0.129223 3.13834 0
M  V30 5314 H 536.863 1.98193 4.63396 0
M  V30 5315 H 536.465 2.32 2.93346 0
M  V30 5316 H 538.757 3.16547 5.99003 0
M  V30 5317 H 539.7 4.57335 5.40602 0
M  V30 5318 H 540.108 2.93203 4.82382 0
M  V30 5319 N 539.506 -0.963266 1.24736 0
M  V30 5320 C 540.454 -2.07985 1.04139 0
M  V30 5321 C 541.448 -1.69381 -0.0250556 0
M  V30 5322 O 542.654 -1.79531 0.129863 0
M  V30 5323 H 539.029 -0.680627 0.319768 0
M  V30 5324 H 541 -2.22517 1.98818 0
M  V30 5325 C 539.749 -3.4123 0.667615 0
M  V30 5326 H 539.072 -3.71397 1.48 0
M  V30 5327 H 540.512 -4.20244 0.563136 0
M  V30 5328 C 538.971 -3.3104 -0.625647 0
M  V30 5329 O 539.501 -3.65334 -1.67016 0
M  V30 5330 N 537.707 -2.84168 -0.608033 0
M  V30 5331 H 537.254 -2.56458 0.242323 0
M  V30 5332 H 537.212 -2.77732 -1.47352 0
M  V30 5333 N 540.985 -1.06182 -1.16461 0
M  V30 5334 C 542.234 -0.772927 -1.86303 0
M  V30 5335 C 542.547 0.703187 -1.82523 0
M  V30 5336 O 543.753 1.10641 -2.47933 0
M  V30 5337 C 542.209 -1.33249 -3.34324 0
M  V30 5338 C 541.817 -2.83876 -3.46581 0
M  V30 5339 C 543.561 -1.12108 -4.09429 0
M  V30 5340 C 541.468 -3.33082 -4.88682 0
M  V30 5341 H 540.398 -0.285452 -0.697878 0
M  V30 5342 H 543.049 -1.28039 -1.31447 0
M  V30 5343 H 541.431 -0.7528 -3.88779 0
M  V30 5344 H 542.605 -3.47786 -3.02293 0
M  V30 5345 H 540.92 -3.03671 -2.84909 0
M  V30 5346 H 543.517 -1.46361 -5.14279 0
M  V30 5347 H 543.86 -0.0593832 -4.16258 0
M  V30 5348 H 544.393 -1.6665 -3.6121 0
M  V30 5349 H 541.132 -4.38726 -4.87032 0
M  V30 5350 H 540.652 -2.73919 -5.33599 0
M  V30 5351 H 542.331 -3.28344 -5.57494 0
M  V30 5352 N 542.463 1.3308 -0.844243 0
M  V30 5353 C 543.691 2.01808 -0.456203 0
M  V30 5354 C 544.106 1.63498 0.944131 0
M  V30 5355 O 543.463 0.85102 1.61443 0
M  V30 5356 C 543.514 3.56922 -0.573513 0
M  V30 5357 O 543.235 3.93851 -1.91868 0
M  V30 5358 C 544.736 4.42922 -0.183125 0
M  V30 5359 H 541.956 0.646273 -0.180477 0
M  V30 5360 H 544.5 1.69891 -1.1383 0
M  V30 5361 H 542.655 3.87352 0.0607367 0
M  V30 5362 H 543.069 4.88564 -1.90802 0
M  V30 5363 H 544.543 5.51093 -0.316241 0
M  V30 5364 H 545.02 4.30386 0.875477 0
M  V30 5365 H 545.626 4.1786 -0.792027 0
M  V30 5366 N 543.941 0.601185 1.45683 0
M  V30 5367 C 545.187 0.102425 2.03142 0
M  V30 5368 C 545.542 -1.25066 1.46207 0
M  V30 5369 O 544.835 -1.81126 0.624806 0
M  V30 5370 C 545.029 -0.00222425 3.574 0
M  V30 5371 C 544.858 1.33917 4.29298 0
M  V30 5372 C 543.628 1.91818 4.67476 0
M  V30 5373 C 545.826 2.26652 4.61664 0
M  V30 5374 N 543.808 3.19504 5.24204 0
M  V30 5375 C 545.179 3.38933 5.19157 0
M  V30 5376 C 547.234 2.26103 4.43601 0
M  V30 5377 C 545.937 4.50823 5.60492 0
M  V30 5378 C 547.963 3.37036 4.85964 0
M  V30 5379 C 547.325 4.48039 5.43545 0
M  V30 5380 H 543.424 0.0806974 0.777825 0
M  V30 5381 H 546.008 0.798134 1.77589 0
M  V30 5382 H 544.179 -0.66714 3.82627 0
M  V30 5383 H 545.911 -0.507058 4.01511 0
M  V30 5384 H 542.666 1.45097 4.50826 0
M  V30 5385 H 543.09 3.84705 5.57073 0
M  V30 5386 H 547.732 1.41547 3.98402 0
M  V30 5387 H 545.45 5.36108 6.0466 0
M  V30 5388 H 549.036 3.37752 4.73725 0
M  V30 5389 H 547.916 5.32459 5.75723 0
M  V30 5390 N 545.419 -1.53889 0.339982 0
M  V30 5391 C 546.696 -1.93084 -0.312719 0
M  V30 5392 C 547.076 -1.2712 -1.68534 0
M  V30 5393 O 546.424 -0.420835 -2.24591 0
M  V30 5394 C 546.634 -3.4683 -0.388558 0
M  V30 5395 C 547.982 -4.19732 -0.641088 0
M  V30 5396 O 549.006 -3.53075 -0.470818 0
M  V30 5397 O 547.865 -5.3781 -0.970685 0
M  V30 5398 H 544.959 -0.806784 -0.18174 0
M  V30 5399 H 547.505 -1.65137 0.390898 0
M  V30 5400 H 546.277 -3.87055 0.574821 0
M  V30 5401 H 545.9 -3.80933 -1.1391 0
M  V30 5402 N 546.897 -0.0685191 -1.57451 0
M  V30 5403 C 547.845 0.917577 -2.13736 0
M  V30 5404 C 548.839 1.31049 -1.07344 0
M  V30 5405 O 550.045 1.28811 -1.25728 0
M  V30 5406 H 546.42 0.313835 -0.683382 0
M  V30 5407 H 548.391 0.417903 -2.95459 0
M  V30 5408 C 547.14 2.17686 -2.71123 0
M  V30 5409 H 546.463 1.88336 -3.52661 0
M  V30 5410 H 547.903 2.84803 -3.14107 0
M  V30 5411 C 546.362 2.9332 -1.65726 0
M  V30 5412 O 546.892 3.86901 -1.08031 0
M  V30 5413 N 545.098 2.56367 -1.36837 0
M  V30 5414 H 544.645 1.80341 -1.83943 0
M  V30 5415 H 544.603 3.07276 -0.665501 0
M  V30 5416 N 548.375 1.56261 0.205012 0
M  V30 5417 C 549.791 1.49623 0.555433 0
M  V30 5418 C 549.991 0.766719 1.86343 0
M  V30 5419 O 549.047 0.313158 2.50551 0
M  V30 5420 C 550.36 2.94253 0.619347 0
M  V30 5421 C 551.908 3.04868 0.708855 0
M  V30 5422 C 552.383 4.50888 0.803969 0
M  V30 5423 N 553.874 4.54999 0.867758 0
M  V30 5424 C 554.609 5.65284 0.96135 0
M  V30 5425 N 554.105 6.85282 1.01786 0
M  V30 5426 N 555.898 5.53174 0.997771 0
M  V30 5427 H 548.049 2.0211 -0.653094 0
M  V30 5428 H 550.312 0.919333 -0.231366 0
M  V30 5429 H 550.018 3.50643 -0.272458 0
M  V30 5430 H 549.892 3.47063 1.47741 0
M  V30 5431 H 552.279 2.48532 1.5911 0
M  V30 5432 H 552.36 2.55199 -0.175205 0
M  V30 5433 H 552.004 5.07846 -0.0738798 0
M  V30 5434 H 551.934 4.98279 1.70369 0
M  V30 5435 H 554.425 3.68588 0.833735 0
M  V30 5436 H 554.738 7.65081 1.08951 0
M  V30 5437 H 553.083 6.8796 0.986706 0
M  V30 5438 H 556.274 4.5835 0.950392 0
M  V30 5439 H 556.447 6.39151 1.06725 0
M  V30 5440 N 549.853 -0.472356 1.50355 0
M  V30 5441 C 551.13 -1.23356 1.51798 0
M  V30 5442 C 551.51 -2.09469 0.26193 0
M  V30 5443 O 550.858 -2.15677 -0.754691 0
M  V30 5444 C 551.068 -2.06568 2.81302 0
M  V30 5445 C 552.416 -2.648 3.31913 0
M  V30 5446 O 553.44 -2.16812 2.82614 0
M  V30 5447 O 552.299 -3.52231 4.17846 0
M  V30 5448 H 549.393 -0.559707 0.608816 0
M  V30 5449 H 551.939 -0.48428 1.62643 0
M  V30 5450 H 550.711 -1.43103 3.64194 0
M  V30 5451 H 550.334 -2.88633 2.73454 0
M  V30 5452 N 551.331 -1.39911 -0.725443 0
M  V30 5453 C 552.561 -1.40744 -1.51244 0
M  V30 5454 C 552.969 -0.00275403 -1.892 0
M  V30 5455 O 552.312 0.981299 -1.55294 0
M  V30 5456 C 552.374 -2.22527 -2.82351 0
M  V30 5457 C 552.038 -3.71053 -2.66774 0
M  V30 5458 C 553.035 -4.63916 -2.34686 0
M  V30 5459 C 550.72 -4.14753 -2.83347 0
M  V30 5460 C 552.714 -5.98463 -2.19366 0
M  V30 5461 C 550.401 -5.49372 -2.67644 0
M  V30 5462 C 551.399 -6.41042 -2.357 0
M  V30 5463 O 551.087 -7.73181 -2.20107 0
M  V30 5464 H 550.819 -0.482314 -0.473655 0
M  V30 5465 H 553.373 -1.84472 -0.903284 0
M  V30 5466 H 551.603 -1.73563 -3.45562 0
M  V30 5467 H 553.292 -2.15421 -3.44018 0
M  V30 5468 H 554.058 -4.31453 -2.21525 0
M  V30 5469 H 549.937 -3.43728 -3.072 0
M  V30 5470 H 553.481 -6.69979 -1.94354 0
M  V30 5471 H 549.378 -5.81424 -2.80387 0
M  V30 5472 H 550.146 -7.84008 -2.35103 0
M  V30 5473 N 552.809 0.956637 -1.25245 0
M  V30 5474 C 554.034 1.74104 -1.12706 0
M  V30 5475 C 554.459 1.85436 0.315429 0
M  V30 5476 O 553.817 1.33334 1.22848 0
M  V30 5477 C 553.865 3.1338 -1.78396 0
M  V30 5478 O 552.969 3.98485 -1.06224 0
M  V30 5479 H 552.31 0.53476 -0.393609 0
M  V30 5480 H 554.84 1.19924 -1.65769 0
M  V30 5481 H 554.85 3.6385 -1.846 0
M  V30 5482 H 553.525 3.04448 -2.83345 0
M  V30 5483 H 552.102 3.56952 -1.07886 0
M  V30 5484 N 554.287 1.06798 1.15896 0
M  V30 5485 C 555.534 0.787767 1.86549 0
M  V30 5486 C 555.862 -0.685959 1.82002 0
M  V30 5487 O 555.117 -1.5188 1.23414 0
M  V30 5488 C 555.416 1.23414 3.35416 0
M  V30 5489 C 555.082 2.71285 3.6016 0
M  V30 5490 C 553.744 3.11676 3.66622 0
M  V30 5491 C 556.096 3.6676 3.7032 0
M  V30 5492 C 553.424 4.4637 3.8075 0
M  V30 5493 C 555.776 5.01209 3.8597 0
M  V30 5494 C 554.44 5.41229 3.90676 0
M  V30 5495 H 553.71 0.288264 0.682631 0
M  V30 5496 H 556.357 1.338 1.37003 0
M  V30 5497 H 554.662 0.60319 3.87129 0
M  V30 5498 H 556.359 0.994298 3.88477 0
M  V30 5499 H 552.949 2.39015 3.55767 0
M  V30 5500 H 557.133 3.36685 3.64633 0
M  V30 5501 H 552.389 4.76855 3.82648 0
M  V30 5502 H 556.563 5.75067 3.92773 0
M  V30 5503 H 554.19 6.45602 4.01375 0
M  V30 5504 N 555.766 -1.3263 0.851289 0
M  V30 5505 C 556.714 -2.30882 0.282202 0
M  V30 5506 C 557.708 -1.58697 -0.592589 0
M  V30 5507 O 558.914 -1.73461 -0.480768 0
M  V30 5508 H 555.289 -0.748492 0.0725487 0
M  V30 5509 H 557.26 -2.76374 1.12516 0
M  V30 5510 C 556.009 -3.43828 -0.517449 0
M  V30 5511 H 555.332 -3.99532 0.146392 0
M  V30 5512 H 556.772 -4.1474 -0.88128 0
M  V30 5513 C 555.231 -2.90786 -1.70133 0
M  V30 5514 O 555.761 -2.88 -2.80034 0
M  V30 5515 N 553.967 -2.4723 -1.52728 0
M  V30 5516 H 553.514 -2.49695 -0.633257 0
M  V30 5517 H 553.472 -2.12094 -2.32085 0
M  V30 5518 N 557.244 -0.608902 -1.45362 0
M  V30 5519 C 558.154 0.110969 -2.34337 0
M  V30 5520 C 559.17 0.859007 -1.51318 0
M  V30 5521 O 560.346 0.816296 -1.84116 0
M  V30 5522 C 557.411 1.09494 -3.28956 0
M  V30 5523 C 556.472 0.348718 -4.27881 0
M  V30 5524 C 555.705 1.28582 -5.17979 0
M  V30 5525 O 555.928 2.52369 -5.11533 0
M  V30 5526 O 554.862 0.782172 -5.96796 0
M  V30 5527 H 558.688 -0.620258 -2.97299 0
M  V30 5528 H 556.273 -0.36916 -1.44767 0
M  V30 5529 H 558.155 1.66163 -3.87257 0
M  V30 5530 H 556.83 1.80717 -2.68557 0
M  V30 5531 H 555.737 -0.260465 -3.73192 0
M  V30 5532 H 557.07 -0.323049 -4.91139 0
M  V30 5533 N 558.722 1.53707 -0.348139 0
M  V30 5534 C 559.999 1.93247 0.302475 0
M  V30 5535 C 560.379 1.28012 1.67857 0
M  V30 5536 O 559.727 0.43274 2.24365 0
M  V30 5537 C 559.937 3.47031 0.370159 0
M  V30 5538 C 561.285 4.20066 0.61882 0
M  V30 5539 O 562.309 3.53319 0.452087 0
M  V30 5540 O 561.168 5.38318 0.94215 0
M  V30 5541 H 558.262 0.807736 0.177458 0
M  V30 5542 H 560.808 1.64927 -0.399651 0
M  V30 5543 H 559.58 3.86745 -0.59534 0
M  V30 5544 H 559.203 3.81532 1.11888 0
M  V30 5545 N 560.2 0.0768682 1.57412 0
M  V30 5546 C 561.448 -0.589918 1.93299 0
M  V30 5547 C 561.769 -1.69842 0.958049 0
M  V30 5548 O 561.039 -1.95899 0.00703261 0
M  V30 5549 H 559.619 -0.220901 0.713591 0
M  V30 5550 H 562.281 0.135917 1.94425 0
M  V30 5551 H 561.377 -1.01195 2.95239 0
M  V30 5552 N 561.678 -1.56367 -0.196722 0
M  V30 5553 C 562.925 -1.80529 -0.917366 0
M  V30 5554 C 563.253 -0.649817 -1.83324 0
M  V30 5555 O 562.508 0.36451 -1.92275 0
M  V30 5556 C 562.807 -3.10663 -1.767 0
M  V30 5557 C 562.473 -4.3962 -1.00225 0
M  V30 5558 C 561.135 -4.74653 -0.791095 0
M  V30 5559 C 563.487 -5.1913 -0.464035 0
M  V30 5560 C 560.815 -5.86692 -0.0302155 0
M  V30 5561 C 563.167 -6.31964 0.283625 0
M  V30 5562 C 561.831 -6.65581 0.505813 0
M  V30 5563 H 561.101 -0.660602 -0.335688 0
M  V30 5564 H 563.748 -1.90615 -0.183844 0
M  V30 5565 H 562.053 -2.95807 -2.56915 0
M  V30 5566 H 563.75 -3.26563 -2.32718 0
M  V30 5567 H 560.34 -4.12127 -1.17684 0
M  V30 5568 H 564.524 -4.9248 -0.614575 0
M  V30 5569 H 559.78 -6.11211 0.151917 0
M  V30 5570 H 563.954 -6.92791 0.708057 0
M  V30 5571 H 561.581 -7.52239 1.0973 0
M  V30 5572 N 563.156 0.464375 -1.50603 0
M  V30 5573 C 564.086 1.56944 -1.72889 0
M  V30 5574 C 565.067 1.59979 -0.577997 0
M  V30 5575 O 566.252 1.76138 -0.817855 0
M  V30 5576 C 563.382 2.95225 -1.8292 0
M  V30 5577 C 562.336 3.07056 -2.98162 0
M  V30 5578 C 561.662 4.47051 -2.93343 0
M  V30 5579 C 562.962 2.83648 -4.38567 0
M  V30 5580 H 564.656 1.38547 -2.65415 0
M  V30 5581 H 562.202 0.665082 -1.27721 0
M  V30 5582 H 564.155 3.72467 -1.97095 0
M  V30 5583 H 562.879 3.14793 -0.870209 0
M  V30 5584 H 561.538 2.32248 -2.83648 0
M  V30 5585 H 561.186 4.63547 -1.95276 0
M  V30 5586 H 560.886 4.55902 -3.70712 0
M  V30 5587 H 562.41 5.26304 -3.09575 0
M  V30 5588 H 563.824 3.50636 -4.53572 0
M  V30 5589 H 562.221 3.03937 -5.17438 0
M  V30 5590 H 563.291 1.79451 -4.50472 0
M  V30 5591 N 564.634 1.40294 0.718013 0
M  V30 5592 C 565.88 1.38645 1.48005 0
M  V30 5593 C 566.213 -0.0121202 1.94196 0
M  V30 5594 O 565.488 -0.980309 1.67989 0
M  V30 5595 C 565.771 2.37379 2.70782 0
M  V30 5596 C 565.624 3.8625 2.30501 0
M  V30 5597 C 566.943 2.33685 3.72933 0
M  V30 5598 H 564.062 0.504928 0.536858 0
M  V30 5599 H 566.704 1.71411 0.819649 0
M  V30 5600 H 564.854 2.09568 3.27129 0
M  V30 5601 H 566.526 4.24879 1.79655 0
M  V30 5602 H 564.769 4.02202 1.6253 0
M  V30 5603 H 565.44 4.50847 3.18498 0
M  V30 5604 H 567.916 2.58314 3.2621 0
M  V30 5605 H 566.792 3.0482 4.56482 0
M  V30 5606 H 567.053 1.34765 4.21059 0
M  V30 5607 N 566.112 -0.949982 1.2575 0
M  V30 5608 C 567.06 -2.06869 1.06339 0
M  V30 5609 C 568.054 -1.69399 -0.00708901 0
M  V30 5610 O 569.26 -1.79383 0.148897 0
M  V30 5611 H 565.635 -0.677197 0.326969 0
M  V30 5612 H 567.606 -2.20396 2.01167 0
M  V30 5613 C 566.355 -3.40503 0.703769 0
M  V30 5614 H 565.678 -3.69807 1.51931 0
M  V30 5615 H 567.118 -4.19623 0.607677 0
M  V30 5616 C 565.577 -3.31685 -0.5905 0
M  V30 5617 O 566.107 -3.67085 -1.63131 0
M  V30 5618 N 564.313 -2.84797 -0.577859 0
M  V30 5619 H 563.86 -2.56186 0.26951 0
M  V30 5620 H 563.818 -2.79279 -1.44398 0
M  V30 5621 N 567.59 -1.07411 -1.15328 0
M  V30 5622 C 569.001 -0.820261 -1.67716 0
M  V30 5623 C 569.352 0.654539 -1.8496 0
M  V30 5624 O 568.477 1.50664 -1.55337 0
M  V30 5625 C 569.072 -1.48242 -3.04647 0
M  V30 5626 C 567.631 -1.27606 -3.5411 0
M  V30 5627 C 566.778 -1.5517 -2.29821 0
M  V30 5628 H 569.729 -1.23608 -0.995332 0
M  V30 5629 H 569.75 -0.903984 -3.69606 0
M  V30 5630 H 569.262 -2.55578 -2.92064 0
M  V30 5631 H 567.363 -0.222948 -3.71932 0
M  V30 5632 H 567.476 -1.99667 -4.35511 0
M  V30 5633 H 565.84 -0.972747 -2.35393 0
M  V30 5634 H 566.623 -2.63689 -2.19824 0
M  V30 5635 N 569.068 1.32177 -0.85831 0
M  V30 5636 C 570.293 2.01847 -0.476718 0
M  V30 5637 C 570.718 1.64065 0.920021 0
M  V30 5638 O 570.076 0.843189 1.60499 0
M  V30 5639 C 570.124 3.55097 -0.627578 0
M  V30 5640 O 569.228 4.11012 0.338086 0
M  V30 5641 H 568.569 0.635907 -0.191099 0
M  V30 5642 H 571.099 1.68641 -1.15851 0
M  V30 5643 H 571.109 4.04718 -0.516476 0
M  V30 5644 H 569.784 3.81938 -1.64609 0
M  V30 5645 H 568.361 3.72451 0.182917 0
M  V30 5646 N 570.547 0.616602 1.45037 0
M  V30 5647 C 571.477 -0.0840787 2.33349 0
M  V30 5648 C 572.458 -0.849641 1.4736 0
M  V30 5649 O 573.643 -0.818407 1.76113 0
M  V30 5650 C 570.773 -1.07604 3.3021 0
M  V30 5651 C 569.727 -0.423096 4.25904 0
M  V30 5652 C 569.053 -1.52394 5.12523 0
M  V30 5653 C 570.353 0.661457 5.18095 0
M  V30 5654 H 572.047 0.653333 2.92185 0
M  V30 5655 H 569.593 0.315634 1.40498 0
M  V30 5656 H 571.546 -1.57485 3.90866 0
M  V30 5657 H 570.27 -1.84416 2.69552 0
M  V30 5658 H 568.929 0.05493 3.66559 0
M  V30 5659 H 568.577 -2.28257 4.48227 0
M  V30 5660 H 568.277 -1.09251 5.77354 0
M  V30 5661 H 569.801 -2.02485 5.76049 0
M  V30 5662 H 571.215 0.246353 5.7277 0
M  V30 5663 H 569.612 1.01517 5.91451 0
M  V30 5664 H 570.682 1.53446 4.59981 0
M  V30 5665 N 572.025 -1.5352 0.356285 0
M  V30 5666 C 573.271 -2.01414 -0.236653 0
M  V30 5667 C 573.604 -1.24339 -1.49176 0
M  V30 5668 O 572.879 -0.334496 -1.91602 0
M  V30 5669 C 573.162 -3.56059 -0.537982 0
M  V30 5670 C 573.015 -4.43835 0.730112 0
M  V30 5671 C 574.334 -4.19127 -1.34239 0
M  V30 5672 H 571.453 -0.732135 -0.0845386 0
M  V30 5673 H 574.095 -1.83854 0.479341 0
M  V30 5674 H 572.245 -3.71153 -1.14795 0
M  V30 5675 H 573.917 -4.40555 1.36782 0
M  V30 5676 H 572.16 -4.1218 1.3524 0
M  V30 5677 H 572.831 -5.49958 0.474358 0
M  V30 5678 H 575.307 -4.07809 -0.826498 0
M  V30 5679 H 574.183 -5.27378 -1.52198 0
M  V30 5680 H 574.444 -3.74581 -2.34822 0
M  V30 5681 N 573.503 -0.0852151 -1.57369 0
M  V30 5682 C 574.749 0.581666 -1.94279 0
M  V30 5683 C 575.082 1.68444 -0.966446 0
M  V30 5684 O 574.357 1.945 0.00215277 0
M  V30 5685 C 574.64 1.14609 -3.41375 0
M  V30 5686 C 574.493 0.0490414 -4.49773 0
M  V30 5687 C 575.812 2.04751 -3.8957 0
M  V30 5688 H 572.931 0.209972 -0.706456 0
M  V30 5689 H 575.573 -0.153915 -1.89376 0
M  V30 5690 H 573.723 1.77297 -3.45685 0
M  V30 5691 H 575.395 -0.584721 -4.57579 0
M  V30 5692 H 573.638 -0.618638 -4.29366 0
M  V30 5693 H 574.309 0.484601 -5.49869 0
M  V30 5694 H 576.785 1.51981 -3.87351 0
M  V30 5695 H 575.661 2.41173 -4.93079 0
M  V30 5696 H 575.922 2.96107 -3.28288 0
M  V30 5697 N 574.981 1.5647 0.188427 0
M  V30 5698 C 576.23 1.80207 0.905995 0
M  V30 5699 C 576.543 0.659579 1.84144 0
M  V30 5700 O 577.749 0.781431 2.60011 0
M  V30 5701 C 576.205 3.19255 1.66145 0
M  V30 5702 C 575.813 4.41324 0.770504 0
M  V30 5703 C 577.557 3.52298 2.36826 0
M  V30 5704 C 575.464 5.71394 1.52521 0
M  V30 5705 H 574.394 0.671953 0.342045 0
M  V30 5706 H 577.045 1.82808 0.159164 0
M  V30 5707 H 575.427 3.10922 2.45242 0
M  V30 5708 H 576.601 4.60797 0.0177261 0
M  V30 5709 H 574.916 4.16035 0.174199 0
M  V30 5710 H 577.513 4.46715 2.93854 0
M  V30 5711 H 577.856 2.76359 3.11338 0
M  V30 5712 H 578.389 3.62108 1.6469 0
M  V30 5713 H 575.128 6.50316 0.82275 0
M  V30 5714 H 574.648 5.55928 2.25175 0
M  V30 5715 H 576.327 6.12747 2.07725 0
M  V30 5716 N 576.459 -0.456382 1.50847 0
M  V30 5717 C 577.684 -1.2349 1.66628 0
M  V30 5718 C 578.109 -1.84715 0.355254 0
M  V30 5719 O 577.467 -1.67961 -0.682559 0
M  V30 5720 C 577.515 -2.30865 2.77009 0
M  V30 5721 O 576.619 -3.35882 2.39285 0
M  V30 5722 H 575.96 -0.36266 0.556214 0
M  V30 5723 H 578.49 -0.541374 1.97308 0
M  V30 5724 H 578.5 -2.75949 3.00526 0
M  V30 5725 H 577.175 -1.85677 3.72152 0
M  V30 5726 H 575.752 -2.96406 2.26269 0
M  V30 5727 N 577.937 -1.40673 -0.710563 0
M  V30 5728 C 578.867 -1.44095 -1.83736 0
M  V30 5729 C 579.848 -0.301286 -1.67411 0
M  V30 5730 O 581.033 -0.510618 -1.87367 0
M  V30 5731 C 578.163 -1.30773 -3.21738 0
M  V30 5732 C 577.117 -2.42395 -3.52745 0
M  V30 5733 C 576.443 -2.14147 -4.89944 0
M  V30 5734 C 577.743 -3.84738 -3.53234 0
M  V30 5735 H 579.437 -2.38396 -1.81129 0
M  V30 5736 H 576.983 -1.14746 -0.870017 0
M  V30 5737 H 578.936 -1.31783 -4.00264 0
M  V30 5738 H 577.66 -0.329507 -3.24934 0
M  V30 5739 H 576.319 -2.40643 -2.76562 0
M  V30 5740 H 575.967 -1.14703 -4.89747 0
M  V30 5741 H 575.667 -2.88934 -5.11655 0
M  V30 5742 H 577.191 -2.16848 -5.70797 0
M  V30 5743 H 578.605 -3.88286 -4.2179 0
M  V30 5744 H 577.002 -4.59085 -3.86473 0
M  V30 5745 H 578.072 -4.13962 -2.52514 0
M  V30 5746 N 579.415 0.9433 -1.26252 0
M  V30 5747 C 580.643 1.72367 -1.14443 0
M  V30 5748 C 581.058 1.86392 0.300572 0
M  V30 5749 O 580.415 1.36978 1.20596 0
M  V30 5750 C 580.466 3.13155 -1.806 0
M  V30 5751 O 580.187 2.99803 -3.19452 0
M  V30 5752 C 581.688 4.07417 -1.74717 0
M  V30 5753 H 578.908 0.539758 -0.398626 0
M  V30 5754 H 581.452 1.18268 -1.66832 0
M  V30 5755 H 579.607 3.64162 -1.32154 0
M  V30 5756 H 580.021 3.88697 -3.52158 0
M  V30 5757 H 581.495 5.03773 -2.25647 0
M  V30 5758 H 581.972 4.3337 -0.713244 0
M  V30 5759 H 582.578 3.6233 -2.22704 0
M  V30 5760 N 580.893 1.08022 1.14757 0
M  V30 5761 C 582.309 0.807072 1.3769 0
M  V30 5762 C 582.509 -0.585504 1.92806 0
M  V30 5763 O 581.565 -1.34301 2.13821 0
M  V30 5764 C 582.878 1.88651 2.34161 0
M  V30 5765 C 584.426 1.91206 2.47809 0
M  V30 5766 C 584.901 2.98253 3.47576 0
M  V30 5767 N 586.392 2.974 3.55117 0
M  V30 5768 C 587.127 3.76872 4.32152 0
M  V30 5769 N 586.623 4.66212 5.12463 0
M  V30 5770 N 588.416 3.6519 4.27309 0
M  V30 5771 H 580.567 1.97824 0.77326 0
M  V30 5772 H 582.83 0.85826 0.402608 0
M  V30 5773 H 582.536 2.88749 2.00791 0
M  V30 5774 H 582.41 1.75244 3.3402 0
M  V30 5775 H 584.797 0.917564 2.80472 0
M  V30 5776 H 584.878 2.08691 1.47925 0
M  V30 5777 H 584.522 3.97907 3.15646 0
M  V30 5778 H 584.452 2.78014 4.47231 0
M  V30 5779 H 586.943 2.32643 2.97801 0
M  V30 5780 H 587.256 5.23468 5.68508 0
M  V30 5781 H 585.601 4.70257 5.11745 0
M  V30 5782 H 588.792 2.94765 3.63636 0
M  V30 5783 H 588.965 4.27366 4.87095 0
M  V30 5784 N 582.371 -1.3172 0.865308 0
M  V30 5785 C 583.648 -1.91574 0.394789 0
M  V30 5786 C 584.028 -1.78769 -1.12271 0
M  V30 5787 O 583.376 -1.19245 -1.94918 0
M  V30 5788 C 583.586 -3.37957 0.870982 0
M  V30 5789 C 584.934 -4.15073 0.894384 0
M  V30 5790 O 585.958 -3.4672 0.816325 0
M  V30 5791 O 584.817 -5.37151 1.00651 0
M  V30 5792 H 581.911 -0.818649 0.117229 0
M  V30 5793 H 584.457 -1.4042 0.952913 0
M  V30 5794 H 583.229 -3.41269 1.91444 0
M  V30 5795 H 582.852 -3.96534 0.290907 0
M  V30 5796 N 583.85 -0.624285 -1.44708 0
M  V30 5797 C 585.266 -0.289322 -1.56956 0
M  V30 5798 C 585.466 1.20773 -1.61295 0
M  V30 5799 O 584.522 1.9915 -1.55227 0
M  V30 5800 C 585.835 -0.975215 -2.84447 0
M  V30 5801 C 587.383 -0.952709 -2.98148 0
M  V30 5802 C 587.858 -1.61893 -4.28433 0
M  V30 5803 N 589.349 -1.5852 -4.35231 0
M  V30 5804 C 590.084 -2.06969 -5.34744 0
M  V30 5805 N 589.58 -2.63579 -6.40701 0
M  V30 5806 N 591.373 -1.97638 -5.26209 0
M  V30 5807 H 583.524 -1.59612 -1.40135 0
M  V30 5808 H 585.787 -0.669592 -0.671081 0
M  V30 5809 H 585.493 -2.02999 -2.87201 0
M  V30 5810 H 585.367 -0.508749 -3.73753 0
M  V30 5811 H 587.754 0.093568 -2.94952 0
M  V30 5812 H 587.835 -1.4576 -2.10209 0
M  V30 5813 H 587.479 -2.66463 -4.32389 0
M  V30 5814 H 587.409 -1.08893 -5.15218 0
M  V30 5815 H 589.899 -1.17183 -3.59272 0
M  V30 5816 H 590.213 -2.98298 -7.12908 0
M  V30 5817 H 588.558 -2.67626 -6.41406 0
M  V30 5818 H 591.749 -1.5314 -4.42341 0
M  V30 5819 H 591.922 -2.35708 -6.03611 0
M  V30 5820 N 585.328 1.53329 -0.364422 0
M  V30 5821 C 586.556 2.05657 0.226424 0
M  V30 5822 C 586.971 1.23801 1.42544 0
M  V30 5823 O 586.328 0.27839 1.80364 0
M  V30 5824 C 586.379 3.56125 0.621056 0
M  V30 5825 O 586.1 4.34879 -0.530304 0
M  V30 5826 C 587.601 4.24706 1.27041 0
M  V30 5827 H 584.821 0.669806 0.0400056 0
M  V30 5828 H 587.365 1.97714 -0.522456 0
M  V30 5829 H 585.52 3.64223 1.31985 0
M  V30 5830 H 585.934 5.24073 -0.211546 0
M  V30 5831 H 587.408 5.3131 1.49711 0
M  V30 5832 H 587.885 3.78354 2.23036 0
M  V30 5833 H 588.491 4.20858 0.613079 0
M  V30 5834 N 586.806 0.0935595 1.57322 0
M  V30 5835 C 588.052 -0.565234 1.95388 0
M  V30 5836 C 588.407 -1.65888 0.974632 0
M  V30 5837 O 587.7 -1.916 0.000376385 0
M  V30 5838 C 587.894 -1.16692 3.37813 0
M  V30 5839 C 587.723 -0.133091 4.49503 0
M  V30 5840 C 586.493 0.289884 5.04468 0
M  V30 5841 C 588.691 0.638141 5.10326 0
M  V30 5842 N 586.673 1.31214 5.99713 0
M  V30 5843 C 588.044 1.51227 6.01274 0
M  V30 5844 C 590.099 0.691827 4.9307 0
M  V30 5845 C 588.802 2.43536 6.76818 0
M  V30 5846 C 590.828 1.60251 5.69274 0
M  V30 5847 C 590.19 2.46427 6.59889 0
M  V30 5848 H 586.289 -0.177212 0.761656 0
M  V30 5849 H 588.873 0.175769 1.93905 0
M  V30 5850 H 587.044 -1.87775 3.39993 0
M  V30 5851 H 588.776 -1.78795 3.63063 0
M  V30 5852 H 585.531 -0.0975541 4.735 0
M  V30 5853 H 585.955 1.82143 6.52038 0
M  V30 5854 H 590.597 0.0397431 4.22781 0
M  V30 5855 H 588.315 3.0977 7.4637 0
M  V30 5856 H 591.901 1.64917 5.57937 0
M  V30 5857 H 590.781 3.15751 7.17824 0
M  V30 5858 N 588.284 -1.56567 -0.180126 0
M  V30 5859 C 589.194 -1.98947 -1.24327 0
M  V30 5860 C 590.21 -0.899446 -1.4895 0
M  V30 5861 O 591.386 -1.20639 -1.61271 0
M  V30 5862 C 588.451 -2.33328 -2.56435 0
M  V30 5863 C 587.512 -3.56114 -2.39752 0
M  V30 5864 C 586.745 -3.88845 -3.65561 0
M  V30 5865 O 586.968 -3.22662 -4.70368 0
M  V30 5866 O 585.902 -4.82226 -3.60197 0
M  V30 5867 H 589.728 -2.89634 -0.913565 0
M  V30 5868 H 587.313 -1.44319 -0.386306 0
M  V30 5869 H 589.195 -2.5645 -3.34382 0
M  V30 5870 H 587.87 -1.45806 -2.89002 0
M  V30 5871 H 586.777 -3.38221 -1.59866 0
M  V30 5872 H 588.11 -4.4415 -2.12113 0
M  V30 5873 N 589.762 0.448376 -1.51087 0
M  V30 5874 C 591.008 1.20049 -1.6345 0
M  V30 5875 C 591.341 1.91121 -0.344444 0
M  V30 5876 O 590.616 1.83125 0.655396 0
M  V30 5877 C 590.899 2.22624 -2.83038 0
M  V30 5878 C 590.752 1.55708 -4.21989 0
M  V30 5879 C 592.071 3.23718 -2.98152 0
M  V30 5880 H 589.19 0.435085 -0.59487 0
M  V30 5881 H 591.832 0.491183 -1.83541 0
M  V30 5882 H 589.982 2.83117 -2.66039 0
M  V30 5883 H 591.654 0.986367 -4.50631 0
M  V30 5884 H 589.897 0.859647 -4.25197 0
M  V30 5885 H 590.568 2.30357 -5.01637 0
M  V30 5886 H 593.044 2.73269 -3.13788 0
M  V30 5887 H 591.92 3.92795 -3.83411 0
M  V30 5888 H 592.181 3.89179 -2.09743 0
M  V30 5889 N 591.24 1.41047 0.703093 0
M  V30 5890 C 592.486 1.40207 1.46526 0
M  V30 5891 C 592.819 0.00847763 1.94198 0
M  V30 5892 O 592.094 -0.962437 1.69019 0
M  V30 5893 C 592.377 2.40238 2.6825 0
M  V30 5894 C 592.23 3.88674 2.26391 0
M  V30 5895 C 593.549 2.37627 3.70434 0
M  V30 5896 H 590.668 0.510594 0.531472 0
M  V30 5897 H 593.31 1.72271 0.801422 0
M  V30 5898 H 591.46 2.13026 3.24888 0
M  V30 5899 H 593.132 4.2676 1.75138 0
M  V30 5900 H 591.375 4.03903 1.58255 0
M  V30 5901 H 592.046 4.542 3.13698 0
M  V30 5902 H 594.522 2.61759 3.23452 0
M  V30 5903 H 593.398 3.09645 4.53223 0
M  V30 5904 H 593.659 1.39223 4.19606 0
M  V30 5905 N 592.718 -0.936591 1.26751 0
M  V30 5906 C 593.966 -1.67998 1.12343 0
M  V30 5907 C 594.287 -1.92137 -0.332938 0
M  V30 5908 O 593.557 -1.52132 -1.23421 0
M  V30 5909 H 592.137 -0.622609 0.412756 0
M  V30 5910 H 594.799 -1.12509 1.59147 0
M  V30 5911 H 593.895 -2.65185 1.64571 0
M  V30 5912 N 594.196 -1.08629 -1.14182 0
M  V30 5913 C 595.421 -0.83902 -1.89671 0
M  V30 5914 C 595.846 0.603332 -1.78161 0
M  V30 5915 O 595.204 1.42301 -1.12339 0
M  V30 5916 C 595.252 -1.26854 -3.37551 0
M  V30 5917 O 594.356 -0.42188 -4.10236 0
M  V30 5918 H 593.697 -0.304545 -0.590041 0
M  V30 5919 H 596.227 -1.4483 -1.44518 0
M  V30 5920 H 596.237 -1.25038 -3.88368 0
M  V30 5921 H 594.912 -2.31901 -3.45246 0
M  V30 5922 H 593.489 -0.503654 -3.69483 0
M  V30 5923 N 595.674 1.31259 -0.872281 0
M  V30 5924 C 596.92 1.973 -0.494414 0
M  V30 5925 C 597.275 1.67684 0.94339 0
M  V30 5926 O 596.568 0.964186 1.65572 0
M  V30 5927 C 596.762 3.50659 -0.690889 0
M  V30 5928 C 596.591 3.95179 -2.14624 0
M  V30 5929 C 595.361 4.21405 -2.7883 0
M  V30 5930 C 597.559 4.08948 -3.11875 0
M  V30 5931 N 595.541 4.52295 -4.15093 0
M  V30 5932 C 596.912 4.43576 -4.33174 0
M  V30 5933 C 598.967 3.91334 -3.07835 0
M  V30 5934 C 597.67 4.62429 -5.50956 0
M  V30 5935 C 599.696 4.11381 -4.24876 0
M  V30 5936 C 599.058 4.46343 -5.44938 0
M  V30 5937 H 595.157 0.747411 -0.230002 0
M  V30 5938 H 597.741 1.58741 -1.12736 0
M  V30 5939 H 595.912 3.88301 -0.0875162 0
M  V30 5940 H 597.644 4.03722 -0.281179 0
M  V30 5941 H 594.399 4.14131 -2.29767 0
M  V30 5942 H 594.823 4.71897 -4.8543 0
M  V30 5943 H 599.465 3.6339 -2.16119 0
M  V30 5944 H 597.183 4.8922 -6.43187 0
M  V30 5945 H 600.769 3.99235 -4.23205 0
M  V30 5946 H 599.649 4.6154 -6.33996 0
M  V30 5947 N 597.152 0.631951 1.44375 0
M  V30 5948 C 598.062 -0.073674 2.34484 0
M  V30 5949 C 599.078 -0.834825 1.52665 0
M  V30 5950 O 600.254 -0.786902 1.85391 0
M  V30 5951 C 597.319 -1.04247 3.30656 0
M  V30 5952 C 596.38 -0.280602 4.28382 0
M  V30 5953 C 595.613 -1.20325 5.19959 0
M  V30 5954 O 595.836 -2.44199 5.15484 0
M  V30 5955 O 594.77 -0.687128 5.97965 0
M  V30 5956 H 598.596 0.667477 2.96274 0
M  V30 5957 H 596.181 0.392144 1.44162 0
M  V30 5958 H 598.063 -1.59981 3.89851 0
M  V30 5959 H 596.738 -1.76422 2.71398 0
M  V30 5960 H 595.645 0.319804 3.72731 0
M  V30 5961 H 596.978 0.401144 4.90563 0
M  V30 5962 N 598.631 -1.53133 0.372548 0
M  V30 5963 C 599.563 -2.23557 -0.505444 0
M  V30 5964 C 600.576 -1.25211 -1.04049 0
M  V30 5965 O 601.765 -1.51391 -0.945675 0
M  V30 5966 C 598.865 -2.92516 -1.71136 0
M  V30 5967 C 598.038 -4.17428 -1.30661 0
M  V30 5968 C 597.097 -4.69535 -2.37536 0
M  V30 5969 O 596.123 -5.33042 -1.99637 0
M  V30 5970 N 597.325 -4.47947 -3.6922 0
M  V30 5971 H 600.09 -2.9954 0.0978259 0
M  V30 5972 H 597.651 -1.60684 0.198068 0
M  V30 5973 H 599.643 -3.24281 -2.42124 0
M  V30 5974 H 598.213 -2.19944 -2.22134 0
M  V30 5975 H 597.433 -3.91888 -0.426292 0
M  V30 5976 H 598.721 -4.98622 -1.01259 0
M  V30 5977 H 598.119 -3.97219 -4.02783 0
M  V30 5978 H 596.676 -4.84245 -4.36292 0
M  V30 5979 N 600.109 -0.101901 -1.5727 0
M  V30 5980 C 601.041 0.884723 -2.11436 0
M  V30 5981 C 602.054 1.24149 -1.05314 0
M  V30 5982 O 603.243 1.19341 -1.3274 0
M  V30 5983 C 600.343 2.19179 -2.58484 0
M  V30 5984 C 599.516 2.00933 -3.88516 0
M  V30 5985 C 598.575 3.15213 -4.2134 0
M  V30 5986 O 597.601 2.88877 -4.90448 0
M  V30 5987 N 598.803 4.41174 -3.77288 0
M  V30 5988 H 601.568 0.422058 -2.96713 0
M  V30 5989 H 599.129 0.0830128 -1.61687 0
M  V30 5990 H 601.121 2.94593 -2.77484 0
M  V30 5991 H 599.691 2.56847 -1.7818 0
M  V30 5992 H 598.911 1.09809 -3.78597 0
M  V30 5993 H 600.199 1.86026 -4.73573 0
M  V30 5994 H 599.597 4.6545 -3.21516 0
M  V30 5995 H 598.154 5.13515 -4.01429 0
M  V30 5996 N 601.587 1.56661 0.17182 0
M  V30 5997 C 602.815 1.861 0.904115 0
M  V30 5998 C 603.23 0.687227 1.75848 0
M  V30 5999 O 602.587 -0.343671 1.79235 0
M  V30 6000 C 602.638 3.14568 1.78127 0
M  V30 6001 O 602.359 4.27422 0.961366 0
M  V30 6002 C 603.86 3.5735 2.62327 0
M  V30 6003 H 601.08 0.617445 0.262684 0
M  V30 6004 H 603.624 2.03775 0.172068 0
M  V30 6005 H 601.779 2.98721 2.46666 0
M  V30 6006 H 602.193 5.00725 1.56123 0
M  V30 6007 H 603.667 4.50144 3.1949 0
M  V30 6008 H 604.144 2.81445 3.37173 0
M  V30 6009 H 604.75 3.75807 1.99121 0
M  V30 6010 N 603.065 -0.440357 1.51323 0
M  V30 6011 C 603.995 -1.54174 1.75364 0
M  V30 6012 C 604.976 -1.59039 0.603375 0
M  V30 6013 O 606.161 -1.74815 0.845774 0
M  V30 6014 C 603.291 -2.92277 1.87593 0
M  V30 6015 C 602.245 -3.02274 3.03009 0
M  V30 6016 C 601.571 -4.42327 3.00418 0
M  V30 6017 C 602.871 -2.76634 4.43024 0
M  V30 6018 H 604.565 -1.34307 2.67585 0
M  V30 6019 H 602.111 -0.644678 1.28763 0
M  V30 6020 H 604.064 -3.69284 2.02995 0
M  V30 6021 H 602.788 -3.13369 0.920179 0
M  V30 6022 H 601.447 -2.27706 2.87307 0
M  V30 6023 H 601.095 -4.60382 2.02626 0
M  V30 6024 H 600.795 -4.49946 3.77918 0
M  V30 6025 H 602.319 -5.21312 3.17909 0
M  V30 6026 H 603.733 -3.43376 4.59093 0
M  V30 6027 H 602.13 -2.95666 5.22208 0
M  V30 6028 H 603.2 -1.72262 4.5327 0
M  V30 6029 N 604.543 -1.41418 -0.695603 0
M  V30 6030 C 605.959 -1.23887 -1.00619 0
M  V30 6031 C 606.159 -0.128206 -2.01092 0
M  V30 6032 O 605.215 0.507408 -2.47349 0
M  V30 6033 C 606.528 -2.58816 -1.53083 0
M  V30 6034 C 608.076 -2.65998 -1.64967 0
M  V30 6035 C 608.551 -4.01244 -2.20833 0
M  V30 6036 N 610.042 -4.0309 -2.28194 0
M  V30 6037 C 610.777 -5.04539 -2.72448 0
M  V30 6038 N 610.273 -6.16378 -3.16306 0
M  V30 6039 N 612.066 -4.91901 -2.72011 0
M  V30 6040 H 604.217 -2.12379 -0.0300061 0
M  V30 6041 H 606.48 -0.944958 -0.0758797 0
M  V30 6042 H 606.186 -3.40842 -0.867147 0
M  V30 6043 H 606.06 -2.81299 -2.51298 0
M  V30 6044 H 608.447 -1.84331 -2.30448 0
M  V30 6045 H 608.528 -2.47325 -0.652982 0
M  V30 6046 H 608.172 -4.83359 -1.55968 0
M  V30 6047 H 608.102 -4.17257 -3.21254 0
M  V30 6048 H 610.593 -3.22341 -1.97242 0
M  V30 6049 H 610.906 -6.89658 -3.487 0
M  V30 6050 H 609.251 -6.19914 -3.14215 0
M  V30 6051 H 612.442 -4.03613 -2.37095 0
M  V30 6052 H 612.615 -5.71102 -3.06181 0
M  V30 6053 N 606.021 0.929856 -1.27246 0
M  V30 6054 C 606.951 2.04722 -1.12299 0
M  V30 6055 C 607.932 1.70082 -0.0250464 0
M  V30 6056 O 609.117 1.93176 -0.199141 0
M  V30 6057 C 606.247 3.38721 -0.767145 0
M  V30 6058 C 605.201 3.87466 -1.81808 0
M  V30 6059 C 604.527 5.18246 -1.31626 0
M  V30 6060 C 605.827 4.11095 -3.22177 0
M  V30 6061 H 607.521 2.17485 -2.05769 0
M  V30 6062 H 605.067 1.04503 -0.990715 0
M  V30 6063 H 607.02 4.16366 -0.649413 0
M  V30 6064 H 605.744 3.25967 0.203259 0
M  V30 6065 H 604.403 3.12012 -1.92468 0
M  V30 6066 H 604.051 5.01881 -0.335378 0
M  V30 6067 H 603.751 5.51829 -2.01887 0
M  V30 6068 H 605.275 5.98462 -1.21143 0
M  V30 6069 H 606.689 4.79316 -3.1453 0
M  V30 6070 H 605.086 4.55982 -3.90129 0
M  V30 6071 H 606.156 3.16468 -3.67391 0
M  V30 6072 N 607.499 1.09233 1.13605 0
M  V30 6073 C 608.446 0.729921 2.18954 0
M  V30 6074 C 609.416 -0.287916 1.63586 0
M  V30 6075 O 610.601 -0.170003 1.90041 0
M  V30 6076 C 607.741 0.154489 3.44754 0
M  V30 6077 C 606.854 1.22613 4.14234 0
M  V30 6078 C 605.989 0.613657 5.27644 0
M  V30 6079 C 605.028 1.66674 5.8897 0
M  V30 6080 N 604.165 1.07545 6.93814 0
M  V30 6081 H 609.005 1.63257 2.49302 0
M  V30 6082 H 606.542 0.815693 1.22413 0
M  V30 6083 H 608.5 -0.196923 4.16735 0
M  V30 6084 H 607.13 -0.711433 3.14863 0
M  V30 6085 H 606.182 1.69485 3.40557 0
M  V30 6086 H 607.494 2.0238 4.55899 0
M  V30 6087 H 606.648 0.210976 6.06333 0
M  V30 6088 H 605.387 -0.215584 4.87223 0
M  V30 6089 H 604.392 2.07899 5.08978 0
M  V30 6090 H 605.617 2.49861 6.31464 0
M  V30 6091 H 603.563 0.267451 6.55455 0
M  V30 6092 H 603.48 1.81011 7.3401 0
M  V30 6093 H 604.748 0.698906 7.7636 0
M  V30 6094 N 608.977 -1.30795 0.87923 0
M  V30 6095 C 610.207 -2.00237 0.50881 0
M  V30 6096 C 610.615 -1.66115 -0.905682 0
M  V30 6097 O 609.958 -0.89138 -1.60624 0
M  V30 6098 C 610.02 -3.54508 0.597003 0
M  V30 6099 C 609.684 -4.12131 1.97477 0
M  V30 6100 C 610.681 -4.28552 2.94346 0
M  V30 6101 C 608.366 -4.47644 2.2786 0
M  V30 6102 C 610.36 -4.79689 4.19735 0
M  V30 6103 C 608.047 -4.98481 3.53496 0
M  V30 6104 C 609.045 -5.14456 4.49248 0
M  V30 6105 O 608.733 -5.64199 5.72656 0
M  V30 6106 H 608.465 -0.647026 0.195788 0
M  V30 6107 H 611.019 -1.67785 1.1848 0
M  V30 6108 H 609.249 -3.86461 -0.135945 0
M  V30 6109 H 610.938 -4.05198 0.238684 0
M  V30 6110 H 611.704 -4.01424 2.72183 0
M  V30 6111 H 607.583 -4.34481 1.54102 0
M  V30 6112 H 611.127 -4.92073 4.9448 0
M  V30 6113 H 607.024 -5.25044 3.75498 0
M  V30 6114 H 607.792 -5.82551 5.74957 0
M  V30 6115 N 610.455 -0.639598 -1.44038 0
M  V30 6116 C 611.866 -0.228866 -1.85292 0
M  V30 6117 C 612.217 1.22161 -1.53529 0
M  V30 6118 O 611.342 1.93064 -0.977518 0
M  V30 6119 C 611.937 -0.408592 -3.36327 0
M  V30 6120 C 610.496 -0.0522953 -3.76364 0
M  V30 6121 C 609.643 -0.717959 -2.67844 0
M  V30 6122 H 612.594 -0.844194 -1.34384 0
M  V30 6123 H 612.615 0.349968 -3.78887 0
M  V30 6124 H 612.127 -1.46435 -3.59414 0
M  V30 6125 H 610.228 1.0014 -3.58891 0
M  V30 6126 H 610.341 -0.468261 -4.76806 0
M  V30 6127 H 608.705 -0.152459 -2.54243 0
M  V30 6128 H 609.488 -1.77648 -2.93762 0
M  V30 6129 N 611.933 1.52934 -0.380664 0
M  V30 6130 C 612.863 2.29118 0.450268 0
M  V30 6131 C 613.844 1.32153 1.07096 0
M  V30 6132 O 615.029 1.61038 1.08537 0
M  V30 6133 C 612.159 3.09161 1.58231 0
M  V30 6134 C 611.113 4.13938 1.0881 0
M  V30 6135 C 610.439 4.82153 2.31155 0
M  V30 6136 C 611.739 5.22048 0.162146 0
M  V30 6137 H 613.433 2.98826 -0.185361 0
M  V30 6138 H 610.979 1.43715 -0.0905886 0
M  V30 6139 H 612.932 3.61211 2.17036 0
M  V30 6140 H 611.656 2.3717 2.2454 0
M  V30 6141 H 610.315 3.62855 0.522633 0
M  V30 6142 H 609.963 4.06719 2.95953 0
M  V30 6143 H 609.663 5.52966 1.98752 0
M  V30 6144 H 611.187 5.37004 2.90618 0
M  V30 6145 H 612.601 5.6951 0.658126 0
M  V30 6146 H 610.998 6.00057 -0.0717122 0
M  V30 6147 H 612.068 4.78398 -0.791438 0
M  V30 6148 N 613.412 0.11024 1.57214 0
M  V30 6149 C 614.658 -0.544479 1.95977 0
M  V30 6150 C 615.013 -1.64845 0.992171 0
M  V30 6151 O 614.306 -1.91589 0.0206981 0
M  V30 6152 C 614.5 -1.13102 3.39032 0
M  V30 6153 C 614.329 -0.0854079 4.49619 0
M  V30 6154 C 613.099 0.343373 5.04132 0
M  V30 6155 C 615.297 0.692232 5.0962 0
M  V30 6156 N 613.279 1.37567 5.98288 0
M  V30 6157 C 614.65 1.57596 5.99636 0
M  V30 6158 C 616.705 0.744085 4.92309 0
M  V30 6159 C 615.408 2.50701 6.74197 0
M  V30 6160 C 617.434 1.6628 5.67543 0
M  V30 6161 C 616.796 2.53412 6.57238 0
M  V30 6162 H 612.895 -0.169124 0.763493 0
M  V30 6163 H 615.479 0.196326 1.93708 0
M  V30 6164 H 613.65 -1.84158 3.41965 0
M  V30 6165 H 615.382 -1.74934 3.64939 0
M  V30 6166 H 612.137 -0.0473277 4.73576 0
M  V30 6167 H 612.561 1.89048 6.50069 0
M  V30 6168 H 617.203 0.0845825 4.22715 0
M  V30 6169 H 614.921 3.17669 7.43043 0
M  V30 6170 H 618.507 1.70825 5.56156 0
M  V30 6171 H 617.387 3.23347 7.14434 0
M  V30 6172 N 614.89 -1.56749 -0.16351 0
M  V30 6173 C 616.115 -1.86938 -0.898264 0
M  V30 6174 C 616.54 -0.697456 -1.74692 0
M  V30 6175 O 615.898 0.353327 -1.77824 0
M  V30 6176 C 615.946 -3.15599 -1.74441 0
M  V30 6177 O 615.05 -2.98371 -2.8469 0
M  V30 6178 H 614.391 -0.614659 -0.251178 0
M  V30 6179 H 616.921 -2.03979 -0.159298 0
M  V30 6180 H 616.931 -3.47202 -2.14277 0
M  V30 6181 H 615.606 -4.00505 -1.1211 0
M  V30 6182 H 614.183 -2.7814 -2.4838 0
M  V30 6183 N 616.368 0.432326 -1.51554 0
M  V30 6184 C 617.784 0.769195 -1.39841 0
M  V30 6185 C 617.984 1.95584 -0.484675 0
M  V30 6186 O 617.04 2.52433 0.0582829 0
M  V30 6187 C 618.353 1.04487 -2.81963 0
M  V30 6188 C 619.901 1.149 -2.91148 0
M  V30 6189 C 620.376 1.45758 -4.34187 0
M  V30 6190 N 621.867 1.52671 -4.37317 0
M  V30 6191 C 622.602 1.78129 -5.4503 0
M  V30 6192 N 622.098 2.01345 -6.62897 0
M  V30 6193 N 623.891 1.79953 -5.32516 0
M  V30 6194 H 616.042 -0.349122 -2.09511 0
M  V30 6195 H 618.305 -0.0938113 -0.943347 0
M  V30 6196 H 618.011 0.24557 -3.50842 0
M  V30 6197 H 617.885 1.97119 -3.21596 0
M  V30 6198 H 620.272 1.93891 -2.22464 0
M  V30 6199 H 620.353 0.201568 -2.55005 0
M  V30 6200 H 619.997 0.672917 -5.03423 0
M  V30 6201 H 619.927 2.41715 -4.67848 0
M  V30 6202 H 622.418 1.36612 -3.52343 0
M  V30 6203 H 622.731 2.20155 -7.40778 0
M  V30 6204 H 621.076 1.98657 -6.66003 0
M  V30 6205 H 624.267 1.61337 -4.39418 0
M  V30 6206 H 624.44 1.99455 -6.1654 0
M  V30 6207 N 617.846 1.41785 0.688094 0
M  V30 6208 C 619.076 1.44705 1.47459 0
M  V30 6209 C 619.484 0.052916 1.89126 0
M  V30 6210 O 618.827 -0.939781 1.57841 0
M  V30 6211 C 618.889 2.29935 2.76352 0
M  V30 6212 C 618.553 3.77996 2.56843 0
M  V30 6213 C 619.55 4.69976 2.22304 0
M  V30 6214 C 617.235 4.2212 2.7225 0
M  V30 6215 C 619.229 6.04068 2.03421 0
M  V30 6216 C 616.916 5.56275 2.52985 0
M  V30 6217 C 617.914 6.47065 2.18621 0
M  V30 6218 O 617.602 7.78744 1.9953 0
M  V30 6219 H 617.334 0.494703 0.460701 0
M  V30 6220 H 619.888 1.86802 0.854057 0
M  V30 6221 H 618.118 1.82664 3.40839 0
M  V30 6222 H 619.807 2.24467 3.38186 0
M  V30 6223 H 620.573 4.37175 2.10008 0
M  V30 6224 H 616.452 3.51752 2.97979 0
M  V30 6225 H 619.996 6.74897 1.76523 0
M  V30 6226 H 615.893 5.88653 2.64873 0
M  V30 6227 H 616.661 7.89966 2.14234 0
M  V30 6228 N 619.324 -0.923095 1.27737 0
M  V30 6229 C 620.572 -1.66797 1.14119 0
M  V30 6230 C 620.893 -1.92479 -0.312541 0
M  V30 6231 O 620.163 -1.53432 -1.218 0
M  V30 6232 H 618.743 -0.618196 0.419336 0
M  V30 6233 H 621.405 -1.10815 1.60331 0
M  V30 6234 H 620.501 -2.63424 1.67374 0
M  V30 6235 N 620.802 -1.09834 -1.13024 0
M  V30 6236 C 622.218 -0.828875 -1.36388 0
M  V30 6237 C 622.418 0.554756 -1.93713 0
M  V30 6238 O 621.474 1.30882 -2.15931 0
M  V30 6239 C 622.787 -1.92352 -2.3113 0
M  V30 6240 C 624.335 -1.95124 -2.44735 0
M  V30 6241 C 624.81 -3.03745 -3.42787 0
M  V30 6242 N 626.301 -3.03012 -3.5034 0
M  V30 6243 C 627.036 -3.83699 -4.26101 0
M  V30 6244 N 626.532 -4.74306 -5.04981 0
M  V30 6245 N 628.325 -3.71942 -4.21445 0
M  V30 6246 H 620.476 -1.99029 -0.74169 0
M  V30 6247 H 622.739 -0.864557 -0.388903 0
M  V30 6248 H 622.445 -2.91906 -1.96172 0
M  V30 6249 H 622.319 -1.80536 -3.3119 0
M  V30 6250 H 624.706 -0.962069 -2.78977 0
M  V30 6251 H 624.787 -2.11018 -1.44586 0
M  V30 6252 H 624.431 -4.02878 -3.09276 0
M  V30 6253 H 624.361 -2.85094 -4.42752 0
M  V30 6254 H 626.852 -2.37352 -2.94062 0
M  V30 6255 H 627.165 -5.32446 -5.60108 0
M  V30 6256 H 625.51 -4.78339 -5.04199 0
M  V30 6257 H 628.701 -3.00513 -3.589 0
M  V30 6258 H 628.874 -4.35062 -4.80235 0
M  V30 6259 N 622.28 1.30327 -0.886154 0
M  V30 6260 C 623.527 1.96097 -0.505192 0
M  V30 6261 C 623.855 1.69952 0.945868 0
M  V30 6262 O 623.11 0.997653 1.68361 0
M  V30 6263 C 623.409 3.49906 -0.728042 0
M  V30 6264 C 623.075 3.96103 -2.15437 0
M  V30 6265 C 621.737 4.08428 -2.5444 0
M  V30 6266 C 624.089 4.20177 -3.08384 0
M  V30 6267 C 621.417 4.42189 -3.85598 0
M  V30 6268 C 623.769 4.55407 -4.39075 0
M  V30 6269 C 622.433 4.65941 -4.7797 0
M  V30 6270 H 621.703 0.71757 -0.184863 0
M  V30 6271 H 624.35 1.55171 -1.12223 0
M  V30 6272 H 622.655 3.9179 -0.027978 0
M  V30 6273 H 624.352 3.98869 -0.412862 0
M  V30 6274 H 620.942 3.87017 -1.84162 0
M  V30 6275 H 625.126 4.10134 -2.7947 0
M  V30 6276 H 620.382 4.48544 -4.15473 0
M  V30 6277 H 624.556 4.72986 -5.11133 0
M  V30 6278 H 622.183 4.91856 -5.79639 0
M  V30 6279 N 623.758 0.647228 1.43697 0
M  V30 6280 C 624.688 -0.0345631 2.33474 0
M  V30 6281 C 625.669 -0.818193 1.4913 0
M  V30 6282 O 626.854 -0.780867 1.77809 0
M  V30 6283 C 623.984 -1.00576 3.32418 0
M  V30 6284 C 622.938 -0.33266 4.26705 0
M  V30 6285 C 622.264 -1.41489 5.1564 0
M  V30 6286 C 623.564 0.771204 5.16575 0
M  V30 6287 H 625.258 0.715163 2.90733 0
M  V30 6288 H 622.804 0.345364 1.39797 0
M  V30 6289 H 624.757 -1.49159 3.94119 0
M  V30 6290 H 623.481 -1.78657 2.73403 0
M  V30 6291 H 622.14 0.13267 3.6636 0
M  V30 6292 H 621.788 -2.18698 4.52968 0
M  V30 6293 H 621.488 -0.969799 5.79542 0
M  V30 6294 H 623.012 -1.9022 5.80214 0
M  V30 6295 H 624.426 0.36779 5.72119 0
M  V30 6296 H 622.823 1.1404 5.89165 0
M  V30 6297 H 623.893 1.63169 4.56622 0
M  V30 6298 N 625.236 -1.5273 0.388769 0
M  V30 6299 C 626.168 -2.24081 -0.481704 0
M  V30 6300 C 627.181 -1.26307 -1.02715 0
M  V30 6301 O 628.37 -1.52386 -0.929565 0
M  V30 6302 C 625.47 -2.94315 -1.68024 0
M  V30 6303 C 624.643 -4.18791 -1.26226 0
M  V30 6304 C 623.702 -4.72028 -2.32542 0
M  V30 6305 O 622.728 -5.35129 -1.93972 0
M  V30 6306 N 623.93 -4.51838 -3.64448 0
M  V30 6307 H 626.695 -2.9942 0.129591 0
M  V30 6308 H 624.256 -1.60465 0.2151 0
M  V30 6309 H 626.248 -3.26831 -2.38671 0
M  V30 6310 H 624.818 -2.22287 -2.19789 0
M  V30 6311 H 624.038 -3.92318 -0.384703 0
M  V30 6312 H 625.326 -4.99668 -0.959647 0
M  V30 6313 H 624.724 -4.01468 -3.98547 0
M  V30 6314 H 623.281 -4.88845 -4.31131 0
M  V30 6315 N 626.714 -0.118576 -1.57153 0
M  V30 6316 C 628.125 0.40687 -1.82213 0
M  V30 6317 C 628.476 1.66636 -1.03571 0
M  V30 6318 O 627.601 2.14682 -0.272171 0
M  V30 6319 C 628.196 0.744949 -3.30509 0
M  V30 6320 C 626.755 1.21503 -3.5625 0
M  V30 6321 C 625.902 0.223511 -2.76398 0
M  V30 6322 H 628.853 -0.343712 -1.54933 0
M  V30 6323 H 628.874 1.6024 -3.45114 0
M  V30 6324 H 628.386 -0.171911 -3.87719 0
M  V30 6325 H 626.487 2.1488 -3.04396 0
M  V30 6326 H 626.6 1.16065 -4.64829 0
M  V30 6327 H 624.964 0.71046 -2.44591 0
M  V30 6328 H 625.747 -0.686439 -3.36367 0
M  V30 6329 N 628.193 1.56834 0.155195 0
M  V30 6330 C 629.439 1.83169 0.870467 0
M  V30 6331 C 629.772 0.698929 1.81187 0
M  V30 6332 O 629.047 -0.298035 1.92203 0
M  V30 6333 C 629.33 3.19965 1.65211 0
M  V30 6334 C 629.183 4.43792 0.732744 0
M  V30 6335 C 630.502 3.53885 2.61636 0
M  V30 6336 H 627.621 0.666288 0.315006 0
M  V30 6337 H 630.263 1.89513 0.135988 0
M  V30 6338 H 628.413 3.14687 2.27825 0
M  V30 6339 H 630.085 4.61148 0.118236 0
M  V30 6340 H 628.328 4.3378 0.0417906 0
M  V30 6341 H 628.999 5.36095 1.31552 0
M  V30 6342 H 631.475 3.5972 2.09143 0
M  V30 6343 H 630.351 4.50648 3.13381 0
M  V30 6344 H 630.612 2.79418 3.42605 0
M  V30 6345 N 629.671 -0.424282 1.51781 0
M  V30 6346 C 630.948 -1.18464 1.55646 0
M  V30 6347 C 631.328 -2.08529 0.328438 0
M  V30 6348 O 630.676 -2.17969 -0.685693 0
M  V30 6349 C 630.886 -1.97514 2.87731 0
M  V30 6350 C 632.234 -2.54106 3.40169 0
M  V30 6351 O 633.258 -2.07711 2.89369 0
M  V30 6352 O 632.117 -3.38759 4.28841 0
M  V30 6353 H 629.211 -0.540055 0.626314 0
M  V30 6354 H 631.757 -0.432291 1.64102 0
M  V30 6355 H 630.529 -1.31444 3.68562 0
M  V30 6356 H 630.152 -2.79787 2.82498 0
M  V30 6357 N 631.149 -1.42148 -0.680565 0
M  V30 6358 C 632.426 -1.32795 -1.43614 0
M  V30 6359 C 632.806 0.037415 -2.11067 0
M  V30 6360 O 632.154 1.05258 -2.02813 0
M  V30 6361 C 632.364 -2.49206 -2.44331 0
M  V30 6362 C 633.712 -2.91059 -3.09144 0
M  V30 6363 O 634.736 -2.49054 -2.54657 0
M  V30 6364 O 633.595 -3.63741 -4.07866 0
M  V30 6365 H 630.689 -0.523397 -0.640301 0
M  V30 6366 H 633.235 -1.54144 -0.709775 0
M  V30 6367 H 632.007 -3.40252 -1.93247 0
M  V30 6368 H 631.63 -2.29813 -3.24456 0
M  V30 6369 N 632.627 0.916307 -1.28225 0
M  V30 6370 C 633.855 1.69901 -1.18073 0
M  V30 6371 C 634.27 1.86988 0.260968 0
M  V30 6372 O 633.627 1.39505 1.17663 0
M  V30 6373 C 633.678 3.09254 -1.87201 0
M  V30 6374 O 633.399 2.92959 -3.2574 0
M  V30 6375 C 634.9 4.0362 -1.83319 0
M  V30 6376 H 632.12 0.531181 -0.409985 0
M  V30 6377 H 634.664 1.14703 -1.69303 0
M  V30 6378 H 632.819 3.61277 -1.39848 0
M  V30 6379 H 633.233 3.81139 -3.60324 0
M  V30 6380 H 634.707 4.98873 -2.36282 0
M  V30 6381 H 635.184 4.3176 -0.805007 0
M  V30 6382 H 635.79 3.57524 -2.3034 0
M  V30 6383 N 634.105 1.10431 1.1244 0
M  V30 6384 C 635.037 0.710945 2.17895 0
M  V30 6385 C 636.05 -0.252315 1.60833 0
M  V30 6386 O 637.239 -0.03679 1.78462 0
M  V30 6387 C 634.339 0.0284262 3.38888 0
M  V30 6388 C 633.512 1.01585 4.2544 0
M  V30 6389 C 632.571 0.364826 5.24934 0
M  V30 6390 O 631.597 1.01561 5.60066 0
M  V30 6391 N 632.799 -0.87674 5.73841 0
M  V30 6392 H 635.564 1.61826 2.52255 0
M  V30 6393 H 633.125 0.993132 1.27861 0
M  V30 6394 H 635.117 -0.418568 4.0253 0
M  V30 6395 H 633.687 -0.781294 3.02679 0
M  V30 6396 H 632.907 1.64111 3.58415 0
M  V30 6397 H 634.195 1.68425 4.80115 0
M  V30 6398 H 633.593 -1.42483 5.47462 0
M  V30 6399 H 632.15 -1.26688 6.39369 0
M  V30 6400 N 635.583 -1.29855 0.893053 0
M  V30 6401 C 636.533 -2.25493 0.337211 0
M  V30 6402 C 637.517 -1.51606 -0.53894 0
M  V30 6403 O 638.709 -1.72828 -0.382043 0
M  V30 6404 C 635.838 -3.40467 -0.440117 0
M  V30 6405 C 634.924 -4.217 0.450578 0
M  V30 6406 N 635.315 -4.81312 1.55476 0
M  V30 6407 C 633.613 -4.45315 0.247154 0
M  V30 6408 C 634.314 -5.42241 2.10593 0
M  V30 6409 N 633.29 -5.25267 1.39982 0
M  V30 6410 H 637.092 -2.69137 1.18079 0
M  V30 6411 H 634.606 -1.44388 0.743359 0
M  V30 6412 H 636.603 -4.08038 -0.855021 0
M  V30 6413 H 635.263 -2.98361 -1.28104 0
M  V30 6414 H 636.274 -4.80291 1.93755 0
M  V30 6415 H 632.951 -4.13782 -0.555939 0
M  V30 6416 H 634.341 -5.99517 3.03362 0
M  V30 6417 N 637.061 -0.65484 -1.43351 0
M  V30 6418 C 637.991 0.0221809 -2.33489 0
M  V30 6419 C 638.972 0.810272 -1.49561 0
M  V30 6420 O 640.157 0.771426 -1.78221 0
M  V30 6421 C 637.287 0.988117 -3.32947 0
M  V30 6422 C 636.241 0.310026 -4.26876 0
M  V30 6423 C 635.567 1.38752 -5.16384 0
M  V30 6424 C 636.867 -0.798589 -5.16159 0
M  V30 6425 H 638.561 -0.730571 -2.9035 0
M  V30 6426 H 636.107 -0.352773 -1.39612 0
M  V30 6427 H 638.06 1.47067 -3.94904 0
M  V30 6428 H 636.784 1.77205 -2.74346 0
M  V30 6429 H 635.443 -0.152097 -3.66284 0
M  V30 6430 H 635.091 2.16293 -4.54121 0
M  V30 6431 H 634.791 0.939051 -5.80048 0
M  V30 6432 H 636.315 1.87141 -5.81215 0
M  V30 6433 H 637.729 -0.398126 -5.71916 0
M  V30 6434 H 636.126 -1.17163 -5.88552 0
M  V30 6435 H 637.196 -1.65588 -4.55751 0
M  V30 6436 N 638.539 1.52521 -0.396863 0
M  V30 6437 C 639.767 2.06091 0.18275 0
M  V30 6438 C 640.182 1.26796 1.39886 0
M  V30 6439 O 639.539 0.316585 1.79733 0
M  V30 6440 C 639.59 3.57362 0.545377 0
M  V30 6441 O 639.311 4.33656 -0.622428 0
M  V30 6442 C 640.812 4.27305 1.18004 0
M  V30 6443 H 638.032 0.670504 0.025789 0
M  V30 6444 H 640.576 1.96561 -0.564276 0
M  V30 6445 H 638.731 3.66941 1.2423 0
M  V30 6446 H 639.145 5.23507 -0.322662 0
M  V30 6447 H 640.619 5.34366 1.38408 0
M  V30 6448 H 641.096 3.83 2.1496 0
M  V30 6449 H 641.702 4.22064 0.523671 0
M  V30 6450 N 640.017 0.126909 1.57088 0
M  V30 6451 C 641.263 -0.529952 1.95753 0
M  V30 6452 C 641.596 -1.65823 1.01077 0
M  V30 6453 O 640.871 -1.94437 0.0494162 0
M  V30 6454 C 641.154 -1.05517 3.44294 0
M  V30 6455 C 641.007 0.0702253 4.49745 0
M  V30 6456 C 642.326 -1.9435 3.94862 0
M  V30 6457 H 639.445 -0.191168 0.711775 0
M  V30 6458 H 642.087 0.204071 1.88901 0
M  V30 6459 H 640.237 -1.68069 3.50264 0
M  V30 6460 H 641.909 0.705834 4.55868 0
M  V30 6461 H 640.152 0.732259 4.27575 0
M  V30 6462 H 640.823 -0.338642 5.5096 0
M  V30 6463 H 643.299 -1.41658 3.91244 0
M  V30 6464 H 642.175 -2.28015 4.993 0
M  V30 6465 H 642.436 -2.87299 3.36024 0
M  V30 6466 N 641.495 -1.56914 -0.146875 0
M  V30 6467 C 642.458 -1.97368 -1.16526 0
M  V30 6468 C 643.458 -0.860223 -1.35856 0
M  V30 6469 O 644.648 -1.12684 -1.32846 0
M  V30 6470 C 641.78 -2.28974 -2.52555 0
M  V30 6471 H 642.973 -2.88523 -0.818209 0
M  V30 6472 H 640.526 -1.5135 -0.390221 0
M  V30 6473 H 641.261 -1.40611 -2.92231 0
M  V30 6474 H 641.046 -3.10157 -2.39886 0
M  V30 6475 H 642.536 -2.61109 -3.25902 0
M  V30 6476 N 642.974 0.416227 -1.52004 0
M  V30 6477 C 644.202 1.18573 -1.69553 0
M  V30 6478 C 644.617 1.84472 -0.401919 0
M  V30 6479 O 643.974 1.71593 0.621463 0
M  V30 6480 C 644.025 2.25413 -2.82615 0
M  V30 6481 O 643.746 1.62205 -4.06966 0
M  V30 6482 C 645.247 3.15297 -3.11613 0
M  V30 6483 H 642.467 0.356582 -0.56841 0
M  V30 6484 H 645.011 0.490618 -1.98528 0
M  V30 6485 H 643.166 2.90604 -2.56179 0
M  V30 6486 H 643.58 2.3298 -4.69916 0
M  V30 6487 H 645.054 3.86351 -3.94255 0
M  V30 6488 H 645.531 3.77264 -2.24874 0
M  V30 6489 H 646.137 2.55783 -3.39787 0
M  V30 6490 N 644.452 1.42507 0.673017 0
M  V30 6491 C 645.382 1.48916 1.79851 0
M  V30 6492 C 646.363 0.345566 1.66553 0
M  V30 6493 O 647.548 0.560116 1.85947 0
M  V30 6494 C 644.678 1.39258 3.18158 0
M  V30 6495 C 643.632 2.51662 3.46194 0
M  V30 6496 C 642.958 2.27062 4.84094 0
M  V30 6497 C 644.258 3.93968 3.42909 0
M  V30 6498 H 645.952 2.43114 1.74745 0
M  V30 6499 H 643.498 1.17013 0.839288 0
M  V30 6500 H 645.451 1.42349 3.96629 0
M  V30 6501 H 644.175 0.415542 3.23946 0
M  V30 6502 H 642.834 2.47891 2.70084 0
M  V30 6503 H 642.482 1.27648 4.86534 0
M  V30 6504 H 642.182 3.02398 5.03815 0
M  V30 6505 H 643.706 2.31905 5.64847 0
M  V30 6506 H 645.12 3.99332 4.11347 0
M  V30 6507 H 643.517 4.6917 3.74165 0
M  V30 6508 H 644.587 4.20512 2.41449 0
M  V30 6509 N 645.93 -0.909495 1.28709 0
M  V30 6510 C 646.84 -2.04558 1.14861 0
M  V30 6511 C 647.856 -1.73842 0.0741621 0
M  V30 6512 O 649.032 -1.99383 0.2843 0
M  V30 6513 C 646.097 -3.36957 0.816148 0
M  V30 6514 C 645.158 -3.81255 1.97341 0
M  V30 6515 C 644.391 -5.07335 1.65671 0
M  V30 6516 O 644.614 -5.67514 0.573053 0
M  V30 6517 O 643.548 -5.47449 2.50167 0
M  V30 6518 H 647.374 -2.19161 2.10243 0
M  V30 6519 H 644.959 -1.03159 1.08068 0
M  V30 6520 H 646.841 -4.16436 0.644873 0
M  V30 6521 H 645.516 -3.2352 -0.107983 0
M  V30 6522 H 644.423 -3.02584 2.19986 0
M  V30 6523 H 645.756 -3.99261 2.87839 0
M  V30 6524 N 647.408 -1.11026 -1.11852 0
M  V30 6525 C 648.318 -0.777252 -2.2135 0
M  V30 6526 C 649.334 0.227821 -1.72502 0
M  V30 6527 O 650.51 0.0650587 -2.01295 0
M  V30 6528 C 647.575 -0.220668 -3.45997 0
M  V30 6529 C 646.636 -1.2838 -4.09655 0
M  V30 6530 C 645.869 -0.753678 -5.28352 0
M  V30 6531 O 646.092 0.417779 -5.68868 0
M  V30 6532 O 645.026 -1.51647 -5.82483 0
M  V30 6533 H 648.852 -1.69141 -2.5224 0
M  V30 6534 H 646.437 -0.885836 -1.20305 0
M  V30 6535 H 648.319 0.0855756 -4.21313 0
M  V30 6536 H 646.994 0.666262 -3.16769 0
M  V30 6537 H 645.901 -1.64299 -3.3609 0
M  V30 6538 H 647.234 -2.14396 -4.43052 0
M  V30 6539 N 648.886 1.2938 -0.899927 0
M  V30 6540 C 650.302 1.48052 -0.596059 0
M  V30 6541 C 650.502 1.82114 0.862372 0
M  V30 6542 O 649.558 1.91774 1.64253 0
M  V30 6543 C 650.871 2.59332 -1.52208 0
M  V30 6544 C 652.419 2.73208 -1.5273 0
M  V30 6545 C 652.894 3.87617 -2.43961 0
M  V30 6546 N 654.385 3.9495 -2.42009 0
M  V30 6547 C 655.12 4.82824 -3.09303 0
M  V30 6548 N 654.616 5.75387 -3.85877 0
M  V30 6549 N 656.409 4.76317 -2.98459 0
M  V30 6550 H 648.56 1.05546 -1.8432 0
M  V30 6551 H 650.823 0.524314 -0.78981 0
M  V30 6552 H 650.529 2.41029 -2.56121 0
M  V30 6553 H 650.403 3.56139 -1.24278 0
M  V30 6554 H 652.79 2.90908 -0.495614 0
M  V30 6555 H 652.871 1.76975 -1.84698 0
M  V30 6556 H 652.515 3.70672 -3.47224 0
M  V30 6557 H 652.445 4.83218 -2.09303 0
M  V30 6558 H 654.936 3.28744 -1.86375 0
M  V30 6559 H 655.249 6.39235 -4.34279 0
M  V30 6560 H 653.594 5.75272 -3.89984 0
M  V30 6561 H 656.785 4.0299 -2.38152 0
M  V30 6562 H 656.958 5.44589 -3.51179 0
M  V30 6563 N 650.364 0.662433 1.43002 0
M  V30 6564 C 651.775 0.258315 1.84904 0
M  V30 6565 C 652.126 -1.19703 1.55453 0
M  V30 6566 O 651.251 -1.91484 1.00811 0
M  V30 6567 C 651.846 0.462047 3.35635 0
M  V30 6568 C 650.405 0.112165 3.76233 0
M  V30 6569 C 649.552 0.760479 2.66668 0
M  V30 6570 H 652.503 0.865467 1.33024 0
M  V30 6571 H 652.524 -0.289646 3.79396 0
M  V30 6572 H 652.036 1.52135 3.57039 0
M  V30 6573 H 650.137 -0.944179 3.60439 0
M  V30 6574 H 650.25 0.544058 4.76001 0
M  V30 6575 H 648.614 0.192887 2.53969 0
M  V30 6576 H 649.397 1.82299 2.90898 0
M  V30 6577 N 651.842 -1.52309 0.404946 0
M  V30 6578 C 653.089 -2.01767 -0.1722 0
M  V30 6579 C 653.417 -1.29075 -1.45498 0
M  V30 6580 O 652.672 -0.3843 -1.9189 0
M  V30 6581 C 652.971 -3.54284 -0.470895 0
M  V30 6582 C 652.637 -4.45079 0.722194 0
M  V30 6583 C 651.299 -4.69617 1.04946 0
M  V30 6584 C 653.651 -4.98555 1.51962 0
M  V30 6585 C 650.979 -5.44878 2.17543 0
M  V30 6586 C 653.331 -5.75049 2.63632 0
M  V30 6587 C 651.995 -5.9786 2.9685 0
M  V30 6588 H 651.265 -0.738316 -0.0630125 0
M  V30 6589 H 653.912 -1.83566 0.545506 0
M  V30 6590 H 652.217 -3.70642 -1.27012 0
M  V30 6591 H 653.914 -3.90058 -0.930346 0
M  V30 6592 H 650.504 -4.26155 0.457131 0
M  V30 6593 H 654.688 -4.79509 1.28002 0
M  V30 6594 H 649.944 -5.60762 2.43631 0
M  V30 6595 H 654.118 -6.15483 3.25813 0
M  V30 6596 H 651.745 -6.5596 3.84215 0
M  V30 6597 N 653.32 -0.135238 -1.57019 0
M  V30 6598 C 654.566 0.519563 -1.96032 0
M  V30 6599 C 654.899 1.65284 -1.01955 0
M  V30 6600 O 654.174 1.94408 -0.059727 0
M  V30 6601 C 654.457 1.0369 -3.44848 0
M  V30 6602 C 654.31 -0.0940754 -4.49702 0
M  V30 6603 C 655.629 1.92254 -3.95887 0
M  V30 6604 H 652.748 0.18739 -0.712779 0
M  V30 6605 H 655.39 -0.214086 -1.8879 0
M  V30 6606 H 653.54 1.66209 -3.5115 0
M  V30 6607 H 655.212 -0.73 -4.55487 0
M  V30 6608 H 653.455 -0.754924 -4.27181 0
M  V30 6609 H 654.126 0.309419 -5.51132 0
M  V30 6610 H 656.602 1.39581 -3.9199 0
M  V30 6611 H 655.478 2.25364 -5.00502 0
M  V30 6612 H 655.739 2.85513 -3.37543 0
M  V30 6613 N 654.798 1.5699 0.138552 0
M  V30 6614 C 656.047 1.82998 0.848205 0
M  V30 6615 C 656.36 0.717829 1.81952 0
M  V30 6616 O 657.566 0.863756 2.57394 0
M  V30 6617 C 656.022 3.24379 1.55904 0
M  V30 6618 C 655.63 4.43552 0.62971 0
M  V30 6619 C 657.374 3.59654 2.25498 0
M  V30 6620 C 655.281 5.75957 1.34266 0
M  V30 6621 H 654.211 0.682495 0.320495 0
M  V30 6622 H 656.862 1.83222 0.100924 0
M  V30 6623 H 655.244 3.18567 2.35226 0
M  V30 6624 H 656.418 4.6062 -0.128882 0
M  V30 6625 H 654.733 4.16379 0.0417526 0
M  V30 6626 H 657.33 4.55837 2.79493 0
M  V30 6627 H 657.673 2.86124 3.02388 0
M  V30 6628 H 658.206 3.67164 1.53087 0
M  V30 6629 H 654.945 6.52604 0.615441 0
M  V30 6630 H 654.465 5.62811 2.07375 0
M  V30 6631 H 656.144 6.19046 1.88126 0
M  V30 6632 N 656.276 -0.40816 1.52223 0
M  V30 6633 C 657.522 -1.15673 1.66576 0
M  V30 6634 C 657.855 -1.90141 0.394996 0
M  V30 6635 O 657.13 -1.84798 -0.606613 0
M  V30 6636 C 657.413 -2.15042 2.88841 0
M  V30 6637 C 657.266 -1.44465 4.25969 0
M  V30 6638 C 658.585 -3.15699 3.0663 0
M  V30 6639 H 655.704 -0.41916 0.606196 0
M  V30 6640 H 658.346 -0.442348 1.84779 0
M  V30 6641 H 656.496 -2.75964 2.73452 0
M  V30 6642 H 658.168 -0.866544 4.53088 0
M  V30 6643 H 656.411 -0.746612 4.27327 0
M  V30 6644 H 657.082 -2.16976 5.07568 0
M  V30 6645 H 659.558 -2.64854 3.20923 0
M  V30 6646 H 658.434 -3.82491 3.9369 0
M  V30 6647 H 658.695 -3.83481 2.19987 0
M  V30 6648 N 657.755 -1.42862 -0.66545 0
M  V30 6649 C 658.665 -1.49491 -1.80803 0
M  V30 6650 C 659.681 -0.382914 -1.69734 0
M  V30 6651 O 660.857 -0.635223 -1.9112 0
M  V30 6652 C 657.922 -1.40383 -3.17007 0
M  V30 6653 C 656.983 -2.62152 -3.39963 0
M  V30 6654 C 656.216 -2.53469 -4.69669 0
M  V30 6655 O 656.439 -1.57568 -5.48205 0
M  V30 6656 O 655.373 -3.43763 -4.94075 0
M  V30 6657 H 659.199 -2.45949 -1.78165 0
M  V30 6658 H 656.784 -1.24728 -0.822387 0
M  V30 6659 H 658.666 -1.377 -3.98267 0
M  V30 6660 H 657.341 -0.470546 -3.20262 0
M  V30 6661 H 656.248 -2.70409 -2.58515 0
M  V30 6662 H 657.581 -3.54411 -3.41546 0
M  V30 6663 N 659.233 0.902656 -1.29189 0
M  V30 6664 C 660.644 1.46809 -1.15343 0
M  V30 6665 C 660.995 1.94568 0.252517 0
M  V30 6666 O 660.12 1.83454 1.14777 0
M  V30 6667 C 660.715 2.66829 -2.08776 0
M  V30 6668 C 659.274 3.19518 -1.98961 0
M  V30 6669 C 658.421 1.92212 -1.99874 0
M  V30 6670 H 661.372 0.714282 -1.41717 0
M  V30 6671 H 661.393 3.42465 -1.65826 0
M  V30 6672 H 660.905 2.32039 -3.11094 0
M  V30 6673 H 659.006 3.59008 -0.99721 0
M  V30 6674 H 659.119 3.84016 -2.86477 0
M  V30 6675 H 657.483 2.0979 -1.44431 0
M  V30 6676 H 658.266 1.59702 -3.03891 0
M  V30 6677 N 660.711 1.11618 1.11262 0
M  V30 6678 C 661.674 0.779447 2.15539 0
M  V30 6679 C 662.674 -0.202081 1.59525 0
M  V30 6680 O 663.864 0.0226356 1.74185 0
M  V30 6681 C 660.996 0.15674 3.40539 0
M  V30 6682 H 662.189 1.70324 2.4684 0
M  V30 6683 H 659.742 0.918298 1.26479 0
M  V30 6684 H 660.477 -0.777186 3.1485 0
M  V30 6685 H 660.262 0.863308 3.82478 0
M  V30 6686 H 661.752 -0.062661 4.17553 0
M  V30 6687 N 662.189 -1.289 0.906776 0
M  V30 6688 C 663.466 -1.90221 0.455537 0
M  V30 6689 C 663.846 -1.82251 -1.06527 0
M  V30 6690 O 663.194 -1.25385 -1.91026 0
M  V30 6691 C 663.404 -3.35015 0.97806 0
M  V30 6692 C 664.752 -4.12018 1.02598 0
M  V30 6693 O 665.776 -3.43947 0.926218 0
M  V30 6694 O 664.635 -5.33677 1.17689 0
M  V30 6695 H 661.729 -0.814505 0.143214 0
M  V30 6696 H 664.275 -1.37317 0.997104 0
M  V30 6697 H 663.047 -3.35006 2.02204 0
M  V30 6698 H 662.67 -3.95408 0.416914 0
M  V30 6699 N 663.667 -0.670007 -1.42649 0
M  V30 6700 C 665.078 -0.268118 -1.84765 0
M  V30 6701 C 665.429 1.18877 -1.56086 0
M  V30 6702 O 664.554 1.90947 -1.01825 0
M  V30 6703 C 665.149 -0.47984 -3.35385 0
M  V30 6704 C 663.708 -0.132116 -3.76168 0
M  V30 6705 C 662.855 -0.774611 -2.66261 0
M  V30 6706 H 665.806 -0.872509 -1.32563 0
M  V30 6707 H 665.827 0.269522 -3.79544 0
M  V30 6708 H 665.339 -1.54026 -3.56227 0
M  V30 6709 H 663.44 0.92505 -3.60934 0
M  V30 6710 H 663.553 -0.569294 -4.75706 0
M  V30 6711 H 661.917 -0.206353 -2.53863 0
M  V30 6712 H 662.7 -1.83839 -2.89928 0
M  V30 6713 N 665.145 1.52092 -0.413018 0
M  V30 6714 C 666.394 2.01041 0.16287 0
M  V30 6715 C 666.707 1.30288 1.45892 0
M  V30 6716 O 667.913 1.70075 2.11629 0
M  V30 6717 C 666.369 3.58283 0.340806 0
M  V30 6718 C 665.977 4.37955 -0.943377 0
M  V30 6719 C 667.721 4.15452 0.871774 0
M  V30 6720 C 665.628 5.86847 -0.732417 0
M  V30 6721 H 664.558 0.751224 0.0646414 0
M  V30 6722 H 667.209 1.75404 -0.539059 0
M  V30 6723 H 665.591 3.80266 1.10516 0
M  V30 6724 H 666.765 4.2773 -1.71418 0
M  V30 6725 H 665.08 3.92122 -1.40105 0
M  V30 6726 H 667.677 5.24375 1.0457 0
M  V30 6727 H 668.02 3.73057 1.84755 0
M  V30 6728 H 668.553 3.97452 0.166377 0
M  V30 6729 H 665.292 6.33609 -1.67986 0
M  V30 6730 H 664.812 5.998 -0.000980058 0
M  V30 6731 H 666.491 6.45906 -0.376105 0
M  V30 6732 N 666.623 0.143563 1.56945 0
M  V30 6733 C 667.848 -0.518701 2.00809 0
M  V30 6734 C 668.273 -1.5785 1.02298 0
M  V30 6735 O 667.631 -1.813 -0.0017839 0
M  V30 6736 C 667.679 -1.09929 3.43436 0
M  V30 6737 O 666.783 -2.21425 3.47915 0
M  V30 6738 H 666.124 -0.127215 0.6517 0
M  V30 6739 H 668.654 0.239283 2.03196 0
M  V30 6740 H 668.664 -1.4288 3.82164 0
M  V30 6741 H 667.339 -0.323162 4.14643 0
M  V30 6742 H 665.916 -1.89728 3.21026 0
M  V30 6743 N 668.101 -1.57061 -0.130224 0
M  V30 6744 C 669.349 -1.83893 -0.838313 0
M  V30 6745 C 669.67 -0.727046 -1.80939 0
M  V30 6746 O 668.94 0.249927 -1.94299 0
M  V30 6747 H 667.52 -0.67846 -0.312573 0
M  V30 6748 H 670.182 -1.94529 -0.120224 0
M  V30 6749 H 669.278 -2.79419 -1.39038 0
M  V30 6750 N 669.579 0.400081 -1.52437 0
M  V30 6751 C 670.807 1.16768 -1.70801 0
M  V30 6752 C 671.222 1.84036 -0.421462 0
M  V30 6753 O 670.579 1.72242 0.603228 0
M  V30 6754 C 670.63 2.22403 -2.8499 0
M  V30 6755 O 670.351 1.57879 -4.08663 0
M  V30 6756 C 671.852 3.11974 -3.1494 0
M  V30 6757 H 669.072 0.350533 -0.57216 0
M  V30 6758 H 671.616 0.469534 -1.99037 0
M  V30 6759 H 669.771 2.87871 -2.59247 0
M  V30 6760 H 670.185 2.27982 -4.7236 0
M  V30 6761 H 671.659 3.82148 -3.9833 0
M  V30 6762 H 672.136 3.74858 -2.28863 0
M  V30 6763 H 672.742 2.52165 -3.42481 0
M  V30 6764 N 671.057 1.43213 0.657864 0
M  V30 6765 C 672.297 1.46083 1.42965 0
M  V30 6766 C 672.661 0.0809712 1.91829 0
M  V30 6767 O 673.862 -0.0156305 2.68795 0
M  V30 6768 C 672.133 2.47044 2.58271 0
M  V30 6769 S 673.692 2.68753 3.46868 0
M  V30 6770 H 670.51 0.517015 0.488074 0
M  V30 6771 H 673.112 1.79945 0.764213 0
M  V30 6772 H 671.816 3.46044 2.20639 0
M  V30 6773 H 671.347 2.14665 3.2967 0
M  V30 6774 H 673.362 1.98329 4.54841 0
M  V30 6775 N 672.536 -0.895792 1.29666 0
M  V30 6776 C 673.785 -1.64131 1.17234 0
M  V30 6777 C 674.098 -1.93665 -0.274416 0
M  V30 6778 O 675.304 -2.66472 -0.520105 0
M  V30 6779 C 673.76 -2.95764 2.05065 0
M  V30 6780 C 673.368 -2.7381 3.54587 0
M  V30 6781 C 675.112 -3.737 2.01367 0
M  V30 6782 C 673.019 -4.01194 4.34508 0
M  V30 6783 H 671.949 -0.615742 0.435175 0
M  V30 6784 H 674.6 -0.992626 1.54335 0
M  V30 6785 H 672.982 -3.61867 1.60837 0
M  V30 6786 H 674.156 -2.16277 4.06892 0
M  V30 6787 H 672.471 -2.09265 3.59996 0
M  V30 6788 H 675.068 -4.68152 2.58337 0
M  V30 6789 H 675.411 -4.04245 0.994575 0
M  V30 6790 H 675.944 -3.14444 2.43659 0
M  V30 6791 H 672.683 -3.75813 5.37071 0
M  V30 6792 H 672.203 -4.58272 3.86971 0
M  V30 6793 H 673.882 -4.69307 4.45376 0
M  V30 6794 N 674.014 -1.12206 -1.10668 0
M  V30 6795 C 675.43 -0.857619 -1.346 0
M  V30 6796 C 675.63 0.513542 -1.94846 0
M  V30 6797 O 674.686 1.26273 -2.18658 0
M  V30 6798 C 675.999 -1.97212 -2.26998 0
M  V30 6799 C 677.547 -2.00272 -2.40542 0
M  V30 6800 C 678.022 -3.10948 -3.36267 0
M  V30 6801 N 679.513 -3.10375 -3.43834 0
M  V30 6802 C 680.248 -3.92651 -4.17867 0
M  V30 6803 N 679.744 -4.84911 -4.94807 0
M  V30 6804 N 681.537 -3.80798 -4.1346 0
M  V30 6805 H 673.688 -2.00558 -0.699306 0
M  V30 6806 H 675.951 -0.872612 -0.370477 0
M  V30 6807 H 675.657 -2.96002 -1.89936 0
M  V30 6808 H 675.531 -1.87521 -3.27286 0
M  V30 6809 H 677.918 -1.02103 -2.76874 0
M  V30 6810 H 677.999 -2.14037 -1.40077 0
M  V30 6811 H 677.643 -4.09348 -3.00661 0
M  V30 6812 H 677.573 -2.94421 -4.36605 0
M  V30 6813 H 680.064 -2.43536 -2.88961 0
M  V30 6814 H 680.377 -5.44207 -5.48688 0
M  V30 6815 H 678.722 -4.88926 -4.93939 0
M  V30 6816 H 681.913 -3.08058 -3.52445 0
M  V30 6817 H 682.086 -4.4515 -4.70898 0
M  V30 6818 N 675.492 1.28418 -0.913599 0
M  V30 6819 C 676.769 1.89977 -0.465619 0
M  V30 6820 C 677.149 1.82813 1.05559 0
M  V30 6821 O 676.497 1.26397 1.90358 0
M  V30 6822 C 676.707 3.34492 -0.995813 0
M  V30 6823 C 678.055 4.11468 -1.04782 0
M  V30 6824 O 679.079 3.43451 -0.944445 0
M  V30 6825 O 677.938 5.33046 -1.20518 0
M  V30 6826 H 675.032 0.813734 -0.147532 0
M  V30 6827 H 677.578 1.36786 -1.00437 0
M  V30 6828 H 676.35 3.33929 -2.03978 0
M  V30 6829 H 675.973 3.95181 -0.437878 0
M  V30 6830 N 676.97 0.677563 1.42291 0
M  V30 6831 C 678.195 0.207901 2.06355 0
M  V30 6832 C 678.62 -1.12723 1.50583 0
M  V30 6833 O 677.978 -1.70171 0.62543 0
M  V30 6834 C 678.026 0.156489 3.6026 0
M  V30 6835 O 677.13 -0.874162 4.03029 0
M  V30 6836 H 676.471 0.106056 0.655475 0
M  V30 6837 H 679.001 0.927354 1.82377 0
M  V30 6838 H 679.011 -0.0187258 4.07996 0
M  V30 6839 H 677.686 1.13101 4.00226 0
M  V30 6840 H 676.263 -0.669764 3.66836 0
M  V30 6841 N 678.448 -1.51871 0.421078 0
M  V30 6842 C 679.694 -2.02237 -0.151014 0
M  V30 6843 C 680.027 -1.30554 -1.43768 0
M  V30 6844 O 679.302 -0.41546 -1.90011 0
M  V30 6845 C 679.585 -3.5802 -0.386482 0
M  V30 6846 C 679.438 -4.40339 0.9177 0
M  V30 6847 C 680.757 -4.24444 -1.16342 0
M  V30 6848 H 677.876 -0.735062 -0.0534102 0
M  V30 6849 H 680.518 -1.81656 0.556888 0
M  V30 6850 H 678.668 -3.75688 -0.989494 0
M  V30 6851 H 680.34 -4.34357 1.55344 0
M  V30 6852 H 678.583 -4.06073 1.526 0
M  V30 6853 H 679.254 -5.47451 0.707187 0
M  V30 6854 H 681.73 -4.10948 -0.652788 0
M  V30 6855 H 680.606 -5.33358 -1.29693 0
M  V30 6856 H 680.867 -3.84204 -2.18724 0
M  V30 6857 N 679.926 -0.151884 -1.56866 0
M  V30 6858 C 681.337 0.368128 -1.83035 0
M  V30 6859 C 681.688 1.64402 -1.07082 0
M  V30 6860 O 680.813 2.14056 -0.317647 0
M  V30 6861 C 681.408 0.674676 -3.32014 0
M  V30 6862 C 679.967 1.13919 -3.58747 0
M  V30 6863 C 679.114 0.164833 -2.7681 0
M  V30 6864 H 682.065 -0.376499 -1.54169 0
M  V30 6865 H 682.086 1.52883 -3.48435 0
M  V30 6866 H 681.598 -0.254113 -3.87267 0
M  V30 6867 H 679.699 2.08375 -3.08886 0
M  V30 6868 H 679.812 1.06179 -4.67186 0
M  V30 6869 H 678.176 0.658419 -2.46043 0
M  V30 6870 H 678.959 -0.757633 -3.34836 0
M  V30 6871 N 681.404 1.57128 0.121893 0
M  V30 6872 C 682.644 1.86517 0.836113 0
M  V30 6873 C 683.008 0.739497 1.77188 0
M  V30 6874 O 684.209 0.91508 2.52744 0
M  V30 6875 C 682.48 3.21129 1.56878 0
M  V30 6876 S 684.039 3.72143 2.32497 0
M  V30 6877 H 680.857 0.653923 0.279115 0
M  V30 6878 H 683.459 1.95271 0.0946254 0
M  V30 6879 H 682.163 4.01002 0.873255 0
M  V30 6880 H 681.694 3.15446 2.35069 0
M  V30 6881 H 683.709 3.43413 3.58164 0
M  V30 6882 N 682.882 -0.391992 1.52647 0
M  V30 6883 C 684.298 -0.731848 1.41831 0
M  V30 6884 C 684.498 -1.9423 0.536361 0
M  V30 6885 O 683.554 -2.52499 0.00866571 0
M  V30 6886 C 684.867 -0.969743 2.84634 0
M  V30 6887 C 686.415 -1.0714 2.94092 0
M  V30 6888 C 686.89 -1.34195 4.37899 0
M  V30 6889 N 688.381 -1.41023 4.41211 0
M  V30 6890 C 689.116 -1.63616 5.49561 0
M  V30 6891 N 688.612 -1.83699 6.68002 0
M  V30 6892 N 690.405 -1.65771 5.371 0
M  V30 6893 H 682.556 0.404547 2.08512 0
M  V30 6894 H 684.819 0.11879 0.940528 0
M  V30 6895 H 684.525 -0.152465 3.51369 0
M  V30 6896 H 684.399 -1.88523 3.26709 0
M  V30 6897 H 686.786 -1.87925 2.27526 0
M  V30 6898 H 686.867 -0.133887 2.55449 0
M  V30 6899 H 686.511 -0.539207 5.0503 0
M  V30 6900 H 686.441 -2.29226 4.74092 0
M  V30 6901 H 688.932 -1.27223 3.55841 0
M  V30 6902 H 689.245 -2.00437 7.46354 0
M  V30 6903 H 687.59 -1.8093 6.71036 0
M  V30 6904 H 690.781 -1.4963 4.43541 0
M  V30 6905 H 690.954 -1.83038 6.21612 0
M  V30 6906 N 684.36 -1.4356 -0.65026 0
M  V30 6907 C 685.585 -1.48995 -1.44275 0
M  V30 6908 C 686.01 -0.109954 -1.87778 0
M  V30 6909 O 685.368 0.896926 -1.57559 0
M  V30 6910 C 685.416 -2.44341 -2.65198 0
M  V30 6911 O 684.52 -1.93172 -3.6436 0
M  V30 6912 H 683.861 -0.503852 -0.432469 0
M  V30 6913 H 686.391 -1.88504 -0.795446 0
M  V30 6914 H 686.401 -2.61743 -3.12977 0
M  V30 6915 H 685.076 -3.44588 -2.32877 0
M  V30 6916 H 683.653 -1.85445 -3.23519 0
M  V30 6917 N 685.838 0.888903 -1.30139 0
M  V30 6918 C 686.77 1.99972 -1.11999 0
M  V30 6919 C 687.783 1.62673 -0.0643619 0
M  V30 6920 O 688.972 1.75788 -0.309983 0
M  V30 6921 C 686.072 3.31904 -0.685059 0
M  V30 6922 C 685.245 3.97665 -1.82158 0
M  V30 6923 C 684.304 5.07894 -1.37585 0
M  V30 6924 O 683.33 5.2974 -2.08241 0
M  V30 6925 N 684.532 5.7995 -0.252697 0
M  V30 6926 H 687.297 2.16085 -2.07671 0
M  V30 6927 H 684.858 1.06175 -1.22223 0
M  V30 6928 H 686.85 4.03005 -0.369964 0
M  V30 6929 H 685.42 3.12084 0.179507 0
M  V30 6930 H 684.64 3.19787 -2.305 0
M  V30 6931 H 685.928 4.3834 -2.58332 0
M  V30 6932 H 685.326 5.647 0.336141 0
M  V30 6933 H 683.883 6.518 0.00296813 0
M  V30 6934 N 687.317 1.12792 1.10072 0
M  V30 6935 C 688.247 0.821688 2.18565 0
M  V30 6936 C 689.228 -0.21612 1.68721 0
M  V30 6937 O 690.413 -0.0764932 1.94049 0
M  V30 6938 C 687.543 0.279624 3.46172 0
M  V30 6939 C 686.497 1.25092 4.09312 0
M  V30 6940 C 685.823 0.568916 5.31665 0
M  V30 6941 C 687.123 2.60699 4.52585 0
M  V30 6942 H 688.817 1.72888 2.44438 0
M  V30 6943 H 686.363 0.832702 1.17482 0
M  V30 6944 H 688.316 0.053099 4.21367 0
M  V30 6945 H 687.04 -0.662929 3.19801 0
M  V30 6946 H 685.699 1.46332 3.36129 0
M  V30 6947 H 685.347 -0.378898 5.01571 0
M  V30 6948 H 685.047 1.21687 5.74862 0
M  V30 6949 H 686.571 0.351517 6.09587 0
M  V30 6950 H 687.985 2.43465 5.19035 0
M  V30 6951 H 686.382 3.21608 5.06644 0
M  V30 6952 H 687.452 3.1886 3.65317 0
M  V30 6953 N 688.795 -1.27931 0.920396 0
M  V30 6954 C 689.743 -2.29061 0.404191 0
M  V30 6955 C 690.737 -1.61615 -0.507634 0
M  V30 6956 O 691.943 -1.75765 -0.388144 0
M  V30 6957 H 688.318 -0.743594 0.112123 0
M  V30 6958 H 690.289 -2.70021 1.27008 0
M  V30 6959 C 689.038 -3.46088 -0.334466 0
M  V30 6960 H 688.361 -3.98194 0.35797 0
M  V30 6961 H 689.801 -4.18829 -0.660196 0
M  V30 6962 C 688.26 -2.99396 -1.54479 0
M  V30 6963 O 688.79 -3.02439 -2.64374 0
M  V30 6964 N 686.996 -2.54978 -1.39408 0
M  V30 6965 H 686.543 -2.52701 -0.500009 0
M  V30 6966 H 686.501 -2.24098 -2.20516 0
M  V30 6967 N 690.273 -0.685099 -1.4193 0
M  V30 6968 C 691.689 -0.355632 -1.55587 0
M  V30 6969 C 691.889 1.13823 -1.66273 0
M  V30 6970 O 690.945 1.92387 -1.63534 0
M  V30 6971 C 692.258 -1.09498 -2.80055 0
M  V30 6972 C 693.806 -1.07831 -2.93839 0
M  V30 6973 C 694.281 -1.79919 -4.21181 0
M  V30 6974 N 695.772 -1.76837 -4.28115 0
M  V30 6975 C 696.507 -2.29463 -5.25485 0
M  V30 6976 N 696.003 -2.90516 -6.28945 0
M  V30 6977 N 697.796 -2.19779 -5.17353 0
M  V30 6978 H 689.947 -1.65412 -1.33239 0
M  V30 6979 H 692.21 -0.697453 -0.642078 0
M  V30 6980 H 691.916 -2.14997 -2.78333 0
M  V30 6981 H 691.79 -0.666813 -3.71259 0
M  V30 6982 H 694.177 -0.0316152 -2.95083 0
M  V30 6983 H 694.258 -1.54545 -2.03837 0
M  V30 6984 H 693.902 -2.84562 -4.20698 0
M  V30 6985 H 693.832 -1.30647 -5.10136 0
M  V30 6986 H 696.323 -1.32315 -3.53979 0
M  V30 6987 H 696.636 -3.28266 -6.99615 0
M  V30 6988 H 694.981 -2.94589 -6.29478 0
M  V30 6989 H 698.172 -1.71763 -4.35448 0
M  V30 6990 H 698.345 -2.61097 -5.9307 0
M  V30 6991 N 691.751 1.51645 -0.429126 0
M  V30 6992 C 692.979 2.06433 0.138994 0
M  V30 6993 C 693.394 1.29735 1.37165 0
M  V30 6994 O 692.751 0.354638 1.79021 0
M  V30 6995 C 692.802 3.58439 0.469452 0
M  V30 6996 O 692.523 4.32238 -0.714273 0
M  V30 6997 C 694.024 4.29712 1.08914 0
M  V30 6998 H 691.244 0.6709 0.0115608 0
M  V30 6999 H 693.788 1.9532 -0.605843 0
M  V30 7000 H 691.943 3.69494 1.16419 0
M  V30 7001 H 692.357 5.22704 -0.433633 0
M  V30 7002 H 693.831 5.37182 1.27042 0
M  V30 7003 H 694.308 3.87473 2.06788 0
M  V30 7004 H 694.914 4.2308 0.434028 0
M  V30 7005 N 693.229 0.160201 1.56784 0
M  V30 7006 C 694.179 -0.786461 2.14007 0
M  V30 7007 C 695.163 -1.20046 1.07134 0
M  V30 7008 O 696.355 -1.16468 1.33283 0
M  V30 7009 C 693.484 -2.02024 2.77563 0
M  V30 7010 C 692.57 -1.62874 3.91578 0
M  V30 7011 N 692.961 -0.946176 4.96871 0
M  V30 7012 C 691.259 -1.92054 4.02531 0
M  V30 7013 C 691.96 -0.755084 5.76778 0
M  V30 7014 N 690.936 -1.29307 5.27997 0
M  V30 7015 H 694.738 -0.255879 2.92784 0
M  V30 7016 H 692.252 -0.0408778 1.62349 0
M  V30 7017 H 694.249 -2.70855 3.16928 0
M  V30 7018 H 692.909 -2.55587 2.00263 0
M  V30 7019 H 693.92 -0.605455 5.14349 0
M  V30 7020 H 690.597 -2.47374 3.36322 0
M  V30 7021 H 691.987 -0.216138 6.71552 0
M  V30 7022 N 694.707 -1.5719 -0.113559 0
M  V30 7023 C 695.932 -1.89702 -0.838336 0
M  V30 7024 C 696.357 -0.752679 -1.72384 0
M  V30 7025 O 695.715 0.296575 -1.78858 0
M  V30 7026 C 695.763 -3.20989 -1.64312 0
M  V30 7027 O 694.867 -3.07278 -2.75053 0
M  V30 7028 H 694.208 -0.622339 -0.231496 0
M  V30 7029 H 696.738 -2.04382 -0.0943228 0
M  V30 7030 H 696.748 -3.53843 -2.03123 0
M  V30 7031 H 695.423 -4.03869 -0.993119 0
M  V30 7032 H 694 -2.85901 -2.39406 0
M  V30 7033 N 696.185 0.383891 -1.52853 0
M  V30 7034 C 697.596 0.961591 -1.60032 0
M  V30 7035 C 697.947 1.90819 -0.456333 0
M  V30 7036 O 697.072 2.12288 0.419873 0
M  V30 7037 C 697.667 1.75078 -2.90057 0
M  V30 7038 C 696.226 2.2781 -2.99632 0
M  V30 7039 C 695.373 1.08512 -2.55187 0
M  V30 7040 H 698.324 0.163269 -1.57858 0
M  V30 7041 H 698.345 2.61046 -2.7683 0
M  V30 7042 H 697.857 1.06157 -3.73299 0
M  V30 7043 H 695.958 3.00028 -2.20939 0
M  V30 7044 H 696.071 2.56947 -4.0437 0
M  V30 7045 H 694.435 1.44667 -2.09627 0
M  V30 7046 H 695.218 0.41118 -3.40829 0
M  V30 7047 N 697.663 1.43903 0.642637 0
M  V30 7048 C 699.074 1.40975 1.22404 0
M  V30 7049 C 699.425 0.1192 1.95838 0
M  V30 7050 O 698.55 -0.780939 2.01818 0
M  V30 7051 C 699.145 2.5538 2.22636 0
M  V30 7052 C 697.704 2.55684 2.76229 0
M  V30 7053 C 696.851 2.32556 1.51039 0
M  V30 7054 H 699.802 1.5265 0.434006 0
M  V30 7055 H 699.823 2.27474 3.05017 0
M  V30 7056 H 699.335 3.49294 1.69161 0
M  V30 7057 H 697.436 1.65679 3.33738 0
M  V30 7058 H 697.549 3.53799 3.23053 0
M  V30 7059 H 695.913 1.81427 1.78764 0
M  V30 7060 H 696.696 3.28569 0.99484 0
M  V30 7061 N 699.141 -0.881989 1.30609 0
M  V30 7062 C 700.552 -1.44956 1.17664 0
M  V30 7063 C 700.903 -1.94945 -0.221531 0
M  V30 7064 O 700.028 -1.85257 -1.11844 0
M  V30 7065 C 700.623 -2.63474 2.12995 0
M  V30 7066 C 699.182 -3.16312 2.04019 0
M  V30 7067 C 698.329 -1.89008 2.02907 0
M  V30 7068 H 701.28 -0.691645 1.42835 0
M  V30 7069 H 701.301 -3.39783 1.71253 0
M  V30 7070 H 700.813 -2.2706 3.14746 0
M  V30 7071 H 698.914 -3.57376 1.0542 0
M  V30 7072 H 699.027 -3.79409 2.9255 0
M  V30 7073 H 697.391 -2.07465 1.47751 0
M  V30 7074 H 698.174 -1.54848 3.06394 0
M  V30 7075 N 700.619 -1.13374 -1.09472 0
M  V30 7076 C 701.896 -0.806329 -1.78207 0
M  V30 7077 C 702.276 0.702191 -1.99079 0
M  V30 7078 O 701.624 1.63931 -1.59182 0
M  V30 7079 C 701.834 -1.59271 -3.10538 0
M  V30 7080 C 703.182 -1.78509 -3.85253 0
M  V30 7081 O 704.206 -1.55866 -3.20288 0
M  V30 7082 O 703.065 -2.16287 -5.01879 0
M  V30 7083 H 700.159 -0.29435 -0.772843 0
M  V30 7084 H 702.705 -1.23833 -1.16033 0
M  V30 7085 H 701.477 -2.61792 -2.90828 0
M  V30 7086 H 701.1 -1.15562 -3.80436 0
M  V30 7087 N 702.098 1.27442 -0.927168 0
M  V30 7088 C 703.061 2.2512 -0.430525 0
M  V30 7089 C 704.061 1.54357 0.450619 0
M  V30 7090 O 705.251 1.72371 0.251774 0
M  V30 7091 C 702.383 3.38763 0.381144 0
M  V30 7092 H 703.576 2.70569 -1.29354 0
M  V30 7093 H 701.129 1.39355 -0.707806 0
M  V30 7094 H 701.864 2.98695 1.263 0
M  V30 7095 H 701.649 3.91298 -0.250618 0
M  V30 7096 H 703.139 4.11364 0.719012 0
M  V30 7097 N 703.576 0.692616 1.41565 0
M  V30 7098 C 704.987 0.297478 1.84315 0
M  V30 7099 C 705.338 -1.16379 1.57957 0
M  V30 7100 O 704.463 -1.89303 1.0485 0
M  V30 7101 C 705.058 0.533136 3.34579 0
M  V30 7102 C 703.617 0.191944 3.7591 0
M  V30 7103 C 702.764 0.816873 2.64995 0
M  V30 7104 H 705.715 0.893488 1.31158 0
M  V30 7105 H 705.736 -0.209105 3.79925 0
M  V30 7106 H 705.248 1.59674 3.53731 0
M  V30 7107 H 703.349 -0.867512 3.6236 0
M  V30 7108 H 703.462 0.644902 4.7474 0
M  V30 7109 H 701.826 0.246715 2.53502 0
M  V30 7110 H 702.609 1.88429 2.86966 0
M  V30 7111 N 705.054 -1.51416 0.437162 0
M  V30 7112 C 706.47 -1.59349 0.0894459 0
M  V30 7113 C 706.67 -1.44809 -1.40116 0
M  V30 7114 O 705.726 -1.28924 -2.17106 0
M  V30 7115 C 707.039 -2.9446 0.609398 0
M  V30 7116 C 708.587 -3.07769 0.569824 0
M  V30 7117 C 709.062 -4.45404 1.06675 0
M  V30 7118 N 710.553 -4.51723 1.02473 0
M  V30 7119 C 711.288 -5.56544 1.3801 0
M  V30 7120 N 710.784 -6.68784 1.80831 0
M  V30 7121 N 712.577 -5.46901 1.29828 0
M  V30 7122 H 704.728 -1.59112 1.40703 0
M  V30 7123 H 706.991 -0.750031 0.579791 0
M  V30 7124 H 706.697 -3.1047 1.65231 0
M  V30 7125 H 706.571 -3.77184 0.0342236 0
M  V30 7126 H 708.958 -2.91428 -0.464107 0
M  V30 7127 H 709.039 -2.26885 1.1814 0
M  V30 7128 H 708.683 -4.62492 2.09914 0
M  V30 7129 H 708.613 -5.24827 0.431712 0
M  V30 7130 H 711.104 -3.71165 0.710258 0
M  V30 7131 H 711.417 -7.44787 2.06185 0
M  V30 7132 H 709.762 -6.69992 1.84757 0
M  V30 7133 H 712.953 -4.581 0.962397 0
M  V30 7134 H 713.126 -6.2848 1.57851 0
M  V30 7135 N 706.532 -0.168513 -1.56696 0
M  V30 7136 C 707.943 0.348694 -1.83415 0
M  V30 7137 C 708.294 1.63257 -1.0882 0
M  V30 7138 O 707.419 2.13707 -0.340333 0
M  V30 7139 C 708.014 0.639423 -3.32711 0
M  V30 7140 C 706.573 1.10108 -3.59935 0
M  V30 7141 C 705.72 0.135464 -2.76969 0
M  V30 7142 H 708.671 -0.392829 -1.53761 0
M  V30 7143 H 708.692 1.49179 -3.50037 0
M  V30 7144 H 708.204 -0.295173 -3.86976 0
M  V30 7145 H 706.305 2.05088 -3.11079 0
M  V30 7146 H 706.418 1.01218 -4.68286 0
M  V30 7147 H 704.782 0.632286 -2.46727 0
M  V30 7148 H 705.565 -0.793104 -3.34013 0
M  V30 7149 N 708.01 1.57248 0.105221 0
M  V30 7150 C 708.92 2.04653 1.14693 0
M  V30 7151 C 709.936 0.969488 1.44489 0
M  V30 7152 O 711.112 1.28196 1.55331 0
M  V30 7153 C 708.177 2.45297 2.45011 0
M  V30 7154 C 707.238 3.67148 2.22489 0
M  V30 7155 C 706.471 4.05844 3.46592 0
M  V30 7156 O 706.694 3.44736 4.54437 0
M  V30 7157 O 705.628 4.98862 3.36779 0
M  V30 7158 H 709.454 2.93663 0.774336 0
M  V30 7159 H 707.039 1.45998 0.31701 0
M  V30 7160 H 708.921 2.72112 3.21766 0
M  V30 7161 H 707.596 1.59429 2.81717 0
M  V30 7162 H 706.503 3.45463 1.43547 0
M  V30 7163 H 707.836 4.53764 1.9068 0
M  V30 7164 N 709.488 -0.375779 1.53054 0
M  V30 7165 C 710.435 -1.45978 1.78771 0
M  V30 7166 C 711.405 -1.53625 0.631552 0
M  V30 7167 O 712.59 -1.69674 0.872667 0
M  V30 7168 C 709.73 -2.8305 1.97425 0
M  V30 7169 C 708.843 -2.84451 3.25134 0
M  V30 7170 C 707.978 -4.13034 3.34031 0
M  V30 7171 C 707.017 -4.08536 4.55812 0
M  V30 7172 N 706.154 -5.2875 4.61918 0
M  V30 7173 H 710.994 -1.23349 2.71273 0
M  V30 7174 H 708.531 -0.598147 1.3439 0
M  V30 7175 H 710.489 -3.62666 2.06225 0
M  V30 7176 H 709.119 -3.04101 1.0827 0
M  V30 7177 H 708.171 -1.97127 3.25338 0
M  V30 7178 H 709.483 -2.76998 4.14818 0
M  V30 7179 H 708.637 -5.0106 3.42087 0
M  V30 7180 H 707.376 -4.23226 2.42345 0
M  V30 7181 H 706.381 -3.18897 4.47867 0
M  V30 7182 H 707.606 -3.99955 5.48828 0
M  V30 7183 H 705.552 -5.39547 3.73129 0
M  V30 7184 H 705.469 -5.23426 5.45492 0
M  V30 7185 H 706.737 -6.18637 4.74245 0
M  V30 7186 N 710.966 -1.44241 -0.634997 0
M  V30 7187 C 712.382 -1.28043 -0.952742 0
M  V30 7188 C 712.582 -0.21338 -2.00367 0
M  V30 7189 O 711.638 0.402042 -2.49279 0
M  V30 7190 C 712.951 -2.65076 -1.41968 0
M  V30 7191 C 714.499 -2.72755 -1.53537 0
M  V30 7192 C 714.974 -4.10249 -2.03616 0
M  V30 7193 N 716.465 -4.12406 -2.10892 0
M  V30 7194 C 717.2 -5.15641 -2.50803 0
M  V30 7195 N 716.696 -6.29239 -2.89879 0
M  V30 7196 N 718.489 -5.02995 -2.50903 0
M  V30 7197 H 710.64 -2.12315 0.060098 0
M  V30 7198 H 712.903 -0.947326 -0.0357325 0
M  V30 7199 H 712.609 -3.44213 -0.721804 0
M  V30 7200 H 712.483 -2.91704 -2.39141 0
M  V30 7201 H 714.87 -1.93939 -2.22422 0
M  V30 7202 H 714.951 -2.49872 -0.547496 0
M  V30 7203 H 714.595 -4.8954 -1.35327 0
M  V30 7204 H 714.525 -4.30507 -3.03268 0
M  V30 7205 H 717.016 -3.30417 -1.83393 0
M  V30 7206 H 717.329 -7.03827 -3.19135 0
M  V30 7207 H 715.674 -6.32683 -2.8764 0
M  V30 7208 H 718.865 -4.13306 -2.19763 0
M  V30 7209 H 719.038 -5.83574 -2.81683 0
M  V30 7210 N 712.444 0.87505 -1.31075 0
M  V30 7211 C 713.684 1.64174 -1.21763 0
M  V30 7212 C 714.048 1.90713 0.221933 0
M  V30 7213 O 715.249 2.652 0.438458 0
M  V30 7214 C 713.52 2.93932 -2.0332 0
M  V30 7215 S 715.079 3.84841 -2.10815 0
M  V30 7216 H 711.897 0.563358 -0.433761 0
M  V30 7217 H 714.499 1.03788 -1.65675 0
M  V30 7218 H 713.203 2.72349 -3.07009 0
M  V30 7219 H 712.734 3.59345 -1.60108 0
M  V30 7220 H 714.749 4.80385 -1.24276 0
M  V30 7221 N 713.922 1.13953 1.08869 0
M  V30 7222 C 715.162 0.915128 1.8277 0
M  V30 7223 C 715.526 -0.548647 1.83994 0
M  V30 7224 O 716.727 -0.890817 2.5361 0
M  V30 7225 C 714.998 1.49382 3.24684 0
M  V30 7226 S 716.557 1.4103 4.15519 0
M  V30 7227 H 713.375 0.329716 0.629927 0
M  V30 7228 H 715.977 1.45213 1.30895 0
M  V30 7229 H 714.681 2.55241 3.21372 0
M  V30 7230 H 714.212 0.955008 3.81632 0
M  V30 7231 H 716.227 0.392617 4.94644 0
M  V30 7232 N 715.4 -1.26948 0.933913 0
M  V30 7233 C 716.347 -2.26635 0.436484 0
M  V30 7234 C 717.317 -1.58397 -0.499953 0
M  V30 7235 O 718.502 -1.86171 -0.417753 0
M  V30 7236 C 715.642 -3.43803 -0.298951 0
M  V30 7237 C 714.755 -4.26736 0.672316 0
M  V30 7238 C 713.89 -5.31134 -0.0835872 0
M  V30 7239 C 712.929 -6.05742 0.879979 0
M  V30 7240 N 712.066 -7.01926 0.156301 0
M  V30 7241 H 716.906 -2.68558 1.29154 0
M  V30 7242 H 714.443 -1.32052 0.648118 0
M  V30 7243 H 716.401 -4.10554 -0.741723 0
M  V30 7244 H 715.031 -3.02814 -1.1182 0
M  V30 7245 H 714.083 -3.59842 1.23361 0
M  V30 7246 H 715.395 -4.78502 1.40846 0
M  V30 7247 H 714.549 -6.03863 -0.585984 0
M  V30 7248 H 713.288 -4.80188 -0.852661 0
M  V30 7249 H 712.293 -5.31846 1.39357 0
M  V30 7250 H 713.518 -6.58777 1.64894 0
M  V30 7251 H 711.464 -6.53301 -0.594413 0
M  V30 7252 H 711.381 -7.51409 0.831906 0
M  V30 7253 H 712.649 -7.78821 -0.325239 0
M  V30 7254 N 716.879 -0.700114 -1.41195 0
M  V30 7255 C 718.127 -0.232546 -2.00758 0
M  V30 7256 C 718.448 1.1734 -1.55745 0
M  V30 7257 O 717.718 1.79262 -0.790058 0
M  V30 7258 H 716.298 -0.0829845 -0.742376 0
M  V30 7259 H 718.96 -0.902289 -1.72756 0
M  V30 7260 H 718.056 -0.253521 -3.11069 0
M  V30 7261 N 718.357 1.51182 -0.445186 0
M  V30 7262 C 719.604 2.02152 0.118645 0
M  V30 7263 C 719.932 1.32888 1.42025 0
M  V30 7264 O 719.187 0.435041 1.90803 0
M  V30 7265 C 719.486 3.55408 0.376797 0
M  V30 7266 C 719.152 4.43008 -0.839945 0
M  V30 7267 C 717.814 4.66669 -1.17361 0
M  V30 7268 C 720.166 4.9435 -1.65127 0
M  V30 7269 C 717.494 5.38919 -2.31913 0
M  V30 7270 C 719.846 5.67857 -2.78786 0
M  V30 7271 C 718.51 5.89779 -3.12597 0
M  V30 7272 H 717.78 0.739727 0.0434152 0
M  V30 7273 H 720.427 1.82055 -0.593984 0
M  V30 7274 H 718.732 3.73879 1.1714 0
M  V30 7275 H 720.429 3.92388 0.826602 0
M  V30 7276 H 717.019 4.24793 -0.569958 0
M  V30 7277 H 721.203 4.75947 -1.4067 0
M  V30 7278 H 716.459 5.54105 -2.58413 0
M  V30 7279 H 720.633 6.06628 -3.42017 0
M  V30 7280 H 718.26 6.45542 -4.01471 0
M  V30 7281 N 719.835 0.176821 1.56605 0
M  V30 7282 C 721.075 -0.469104 1.98944 0
M  V30 7283 C 721.439 -1.60048 1.06059 0
M  V30 7284 O 722.64 -2.30934 1.3756 0
M  V30 7285 C 720.911 -0.934571 3.44965 0
M  V30 7286 S 722.47 -1.58091 4.09332 0
M  V30 7287 H 719.288 -0.150695 0.694847 0
M  V30 7288 H 721.89 0.27558 1.93548 0
M  V30 7289 H 720.594 -0.100814 4.10276 0
M  V30 7290 H 720.125 -1.71316 3.54139 0
M  V30 7291 H 722.14 -2.86922 4.04834 0
M  V30 7292 N 721.313 -1.57302 -0.09688 0
M  V30 7293 C 722.562 -1.85183 -0.799388 0
M  V30 7294 C 722.875 -0.765818 -1.79985 0
M  V30 7295 O 724.081 -0.931696 -2.55013 0
M  V30 7296 C 722.537 -3.28399 -1.47249 0
M  V30 7297 C 722.145 -4.45066 -0.511888 0
M  V30 7298 C 723.889 -3.65506 -2.15883 0
M  V30 7299 C 721.796 -5.79315 -1.18948 0
M  V30 7300 H 720.726 -0.690752 -0.302287 0
M  V30 7301 H 723.377 -1.83425 -0.0523104 0
M  V30 7302 H 721.759 -3.24692 -2.26697 0
M  V30 7303 H 722.933 -4.60116 0.250962 0
M  V30 7304 H 721.248 -4.16343 0.0686576 0
M  V30 7305 H 723.845 -4.63087 -2.67309 0
M  V30 7306 H 724.188 -2.94041 -2.94696 0
M  V30 7307 H 724.721 -3.71094 -1.43298 0
M  V30 7308 H 721.46 -6.54007 -0.442198 0
M  V30 7309 H 720.98 -5.68111 -1.9238 0
M  V30 7310 H 722.659 -6.23816 -1.71646 0
M  V30 7311 N 722.791 0.367657 -1.53252 0
M  V30 7312 C 724.068 1.12606 -1.59935 0
M  V30 7313 C 724.448 2.07167 -0.405606 0
M  V30 7314 O 723.796 2.20364 0.604323 0
M  V30 7315 C 724.006 1.86699 -2.94863 0
M  V30 7316 C 725.354 2.41306 -3.49366 0
M  V30 7317 O 726.378 1.96828 -2.96879 0
M  V30 7318 O 725.237 3.2261 -4.41118 0
M  V30 7319 H 722.331 0.516438 -0.645926 0
M  V30 7320 H 724.877 0.371088 -1.65593 0
M  V30 7321 H 723.649 1.17674 -3.73187 0
M  V30 7322 H 723.272 2.6911 -2.92687 0
M  V30 7323 N 724.269 1.44576 0.627338 0
M  V30 7324 C 725.518 1.46837 1.38281 0
M  V30 7325 C 725.831 0.10635 1.95311 0
M  V30 7326 O 727.037 0.00651084 2.71499 0
M  V30 7327 C 725.493 2.58527 2.50384 0
M  V30 7328 C 725.101 4.00953 1.99851 0
M  V30 7329 C 726.845 2.70013 3.27557 0
M  V30 7330 C 724.752 5.0406 3.09318 0
M  V30 7331 H 723.682 0.546319 0.519664 0
M  V30 7332 H 726.333 1.70654 0.674497 0
M  V30 7333 H 724.715 2.27957 3.23808 0
M  V30 7334 H 725.889 4.41108 1.33267 0
M  V30 7335 H 724.204 3.93743 1.35482 0
M  V30 7336 H 726.801 3.44217 4.09168 0
M  V30 7337 H 727.144 1.75961 3.77284 0
M  V30 7338 H 727.677 3.00011 2.61224 0
M  V30 7339 H 724.416 5.99753 2.6453 0
M  V30 7340 H 723.936 4.68493 3.74532 0
M  V30 7341 H 725.615 5.2793 3.74031 0
M  V30 7342 N 725.747 -0.868086 1.31537 0
M  V30 7343 C 726.677 -1.99131 1.21939 0
M  V30 7344 C 727.658 -1.69768 0.106166 0
M  V30 7345 O 728.843 -1.92006 0.291081 0
M  V30 7346 C 725.973 -3.34676 0.927879 0
M  V30 7347 C 724.927 -3.7835 2.00088 0
M  V30 7348 C 724.253 -5.11375 1.56203 0
M  V30 7349 C 725.553 -3.95256 3.41424 0
M  V30 7350 H 727.247 -2.07419 2.15911 0
M  V30 7351 H 724.793 -0.996569 1.03945 0
M  V30 7352 H 726.746 -4.12793 0.847327 0
M  V30 7353 H 725.47 -3.26565 -0.0475042 0
M  V30 7354 H 724.129 -3.02474 2.07135 0
M  V30 7355 H 723.777 -4.99709 0.57445 0
M  V30 7356 H 723.477 -5.41568 2.27985 0
M  V30 7357 H 725.001 -5.92001 1.49558 0
M  V30 7358 H 726.415 -4.63764 3.3704 0
M  V30 7359 H 724.812 -4.36849 4.1144 0
M  V30 7360 H 725.882 -2.98579 3.82072 0
M  V30 7361 N 727.225 -1.14528 -1.08264 0
M  V30 7362 C 728.172 -0.833556 -2.15222 0
M  V30 7363 C 729.142 0.209539 -1.64773 0
M  V30 7364 O 730.327 0.0791388 -1.90636 0
M  V30 7365 C 727.467 -0.318799 -3.43624 0
M  V30 7366 C 726.58 -1.42237 -4.07913 0
M  V30 7367 C 725.715 -0.864704 -5.24115 0
M  V30 7368 C 724.754 -1.94585 -5.80347 0
M  V30 7369 N 723.891 -1.40525 -6.87893 0
M  V30 7370 H 728.731 -1.74965 -2.41228 0
M  V30 7371 H 726.268 -0.873169 -1.18381 0
M  V30 7372 H 728.226 -0.00213088 -4.172 0
M  V30 7373 H 726.856 0.560397 -3.17898 0
M  V30 7374 H 725.908 -1.8554 -3.32083 0
M  V30 7375 H 727.22 -2.23901 -4.45724 0
M  V30 7376 H 726.374 -0.500025 -6.04636 0
M  V30 7377 H 725.113 -0.0171219 -4.87697 0
M  V30 7378 H 724.118 -2.31946 -4.98479 0
M  V30 7379 H 725.343 -2.79704 -6.18823 0
M  V30 7380 H 723.289 -0.579873 -6.53432 0
M  V30 7381 H 723.206 -2.15825 -7.24538 0
M  V30 7382 H 724.474 -1.06852 -7.72142 0
M  V30 7383 N 728.703 1.26451 -0.940633 0
M  V30 7384 C 730.119 1.4608 -0.642859 0
M  V30 7385 C 730.319 1.84765 0.803998 0
M  V30 7386 O 729.375 1.96902 1.58069 0
M  V30 7387 C 730.688 2.54359 -1.60381 0
M  V30 7388 C 732.236 2.6821 -1.61345 0
M  V30 7389 C 732.711 3.79659 -2.56169 0
M  V30 7390 N 734.202 3.87051 -2.54452 0
M  V30 7391 C 734.937 4.72739 -3.24507 0
M  V30 7392 N 734.433 5.6282 -4.03987 0
M  V30 7393 N 736.226 4.66581 -3.13462 0
M  V30 7394 H 728.377 0.996289 -1.87584 0
M  V30 7395 H 730.64 0.498921 -0.80609 0
M  V30 7396 H 730.346 2.32758 -2.6366 0
M  V30 7397 H 730.22 3.52005 -1.35545 0
M  V30 7398 H 732.607 2.89184 -0.587913 0
M  V30 7399 H 732.688 1.7101 -1.90235 0
M  V30 7400 H 732.332 3.59438 -3.58841 0
M  V30 7401 H 732.262 4.76315 -2.2457 0
M  V30 7402 H 734.753 3.22649 -1.96739 0
M  V30 7403 H 735.066 6.25095 -4.54396 0
M  V30 7404 H 733.411 5.62574 -4.08088 0
M  V30 7405 H 736.602 3.9521 -2.50852 0
M  V30 7406 H 736.775 5.33141 -3.68327 0
M  V30 7407 N 730.181 0.707592 1.40822 0
M  V30 7408 C 731.111 0.0644925 2.33411 0
M  V30 7409 C 732.092 -0.754205 1.52466 0
M  V30 7410 O 733.277 -0.704749 1.80961 0
M  V30 7411 C 730.407 -0.863865 3.36385 0
M  V30 7412 C 729.361 -0.15138 4.27732 0
M  V30 7413 C 728.687 -1.19491 5.21177 0
M  V30 7414 C 729.987 0.989607 5.12839 0
M  V30 7415 H 731.681 0.837829 2.87438 0
M  V30 7416 H 729.227 0.404346 1.38207 0
M  V30 7417 H 731.18 -1.32309 4.0009 0
M  V30 7418 H 729.904 -1.66901 2.80734 0
M  V30 7419 H 728.563 0.287937 3.65467 0
M  V30 7420 H 728.211 -1.9929 4.61836 0
M  V30 7421 H 727.911 -0.723123 5.83134 0
M  V30 7422 H 729.435 -1.6544 5.8776 0
M  V30 7423 H 730.849 0.610114 5.70044 0
M  V30 7424 H 729.246 1.38926 5.83798 0
M  V30 7425 H 730.316 1.82389 4.49291 0
M  V30 7426 N 731.66 -1.50943 0.453197 0
M  V30 7427 C 732.623 -2.26684 -0.338705 0
M  V30 7428 C 733.623 -1.30748 -0.936032 0
M  V30 7429 O 734.813 -1.54327 -0.808002 0
M  V30 7430 C 731.945 -3.07063 -1.48071 0
M  V30 7431 H 733.138 -2.98131 0.325289 0
M  V30 7432 H 730.691 -1.54926 0.206771 0
M  V30 7433 H 731.426 -2.4007 -2.18029 0
M  V30 7434 H 731.211 -3.77545 -1.0584 0
M  V30 7435 H 732.701 -3.64393 -2.0398 0
M  V30 7436 N 733.138 -0.185124 -1.56509 0
M  V30 7437 C 734.088 0.752315 -2.15231 0
M  V30 7438 C 735.072 1.18327 -1.0903 0
M  V30 7439 O 736.264 1.14333 -1.35119 0
M  V30 7440 C 733.393 1.97583 -2.80742 0
M  V30 7441 C 732.479 1.56623 -3.94119 0
M  V30 7442 N 732.87 0.867008 -4.98314 0
M  V30 7443 C 731.168 1.85626 -4.05535 0
M  V30 7444 C 731.869 0.663228 -5.77907 0
M  V30 7445 N 730.845 1.20891 -5.29987 0
M  V30 7446 H 734.647 0.209267 -2.93154 0
M  V30 7447 H 732.161 0.0150444 -1.62393 0
M  V30 7448 H 734.158 2.65779 -3.21197 0
M  V30 7449 H 732.818 2.52369 -2.04303 0
M  V30 7450 H 733.829 0.52355 -5.15247 0
M  V30 7451 H 730.506 2.41992 -3.40215 0
M  V30 7452 H 731.896 0.109273 -6.71811 0
M  V30 7453 N 734.616 1.57351 0.0885366 0
M  V30 7454 C 735.844 1.90631 0.804196 0
M  V30 7455 C 736.259 0.779474 1.71958 0
M  V30 7456 O 735.616 -0.248179 1.80805 0
M  V30 7457 C 735.667 3.23568 1.61202 0
M  V30 7458 O 735.388 4.31917 0.733447 0
M  V30 7459 C 736.889 3.70753 2.43016 0
M  V30 7460 H 734.109 0.630501 0.229585 0
M  V30 7461 H 736.653 2.044 0.0638092 0
M  V30 7462 H 734.808 3.11377 2.30485 0
M  V30 7463 H 735.222 5.08297 1.29361 0
M  V30 7464 H 736.696 4.66447 2.9518 0
M  V30 7465 H 737.173 2.98922 3.2178 0
M  V30 7466 H 737.779 3.85834 1.7892 0
M  V30 7467 N 736.094 -0.359525 1.53444 0
M  V30 7468 C 737.343 -1.09886 1.69139 0
M  V30 7469 C 737.656 -1.90285 0.452863 0
M  V30 7470 O 738.862 -2.67033 0.490459 0
M  V30 7471 C 737.318 -2.0028 2.99025 0
M  V30 7472 C 736.926 -1.25164 4.30161 0
M  V30 7473 C 738.67 -2.74168 3.24086 0
M  V30 7474 C 736.577 -2.14494 5.51132 0
M  V30 7475 H 735.507 -0.413936 0.630217 0
M  V30 7476 H 738.158 -0.359434 1.79945 0
M  V30 7477 H 736.54 -2.77978 2.82036 0
M  V30 7478 H 737.714 -0.524867 4.57801 0
M  V30 7479 H 736.029 -0.631116 4.11589 0
M  V30 7480 H 738.626 -3.41243 4.11652 0
M  V30 7481 H 738.969 -3.39868 2.40407 0
M  V30 7482 H 739.502 -2.0355 3.41778 0
M  V30 7483 H 736.241 -1.53362 6.37307 0
M  V30 7484 H 735.761 -2.85004 5.27762 0
M  V30 7485 H 737.44 -2.73914 5.86157 0
M  V30 7486 N 737.572 -1.44907 -0.619662 0
M  V30 7487 C 738.82 -1.47999 -1.37625 0
M  V30 7488 C 739.141 -0.118295 -1.94641 0
M  V30 7489 O 738.411 0.85086 -1.76457 0
M  V30 7490 H 736.991 -0.544993 -0.510873 0
M  V30 7491 H 739.653 -1.80772 -0.728522 0
M  V30 7492 H 738.749 -2.21196 -2.20179 0
M  V30 7493 N 739.05 0.861098 -1.31996 0
M  V30 7494 C 740.297 1.61481 -1.22188 0
M  V30 7495 C 740.625 1.93276 0.217853 0
M  V30 7496 O 739.88 1.56942 1.16909 0
M  V30 7497 C 740.179 2.94822 -2.02027 0
M  V30 7498 C 739.845 2.82483 -3.51446 0
M  V30 7499 C 738.507 2.78825 -3.92186 0
M  V30 7500 C 740.859 2.68878 -4.46491 0
M  V30 7501 C 738.187 2.59433 -5.26224 0
M  V30 7502 C 740.539 2.51022 -5.80664 0
M  V30 7503 C 739.203 2.45753 -6.20614 0
M  V30 7504 H 738.473 0.590902 -0.447119 0
M  V30 7505 H 741.12 0.999376 -1.63355 0
M  V30 7506 H 739.425 3.6045 -1.53569 0
M  V30 7507 H 741.122 3.52149 -1.91812 0
M  V30 7508 H 737.712 2.86152 -3.19085 0
M  V30 7509 H 741.896 2.70754 -4.1594 0
M  V30 7510 H 737.152 2.53784 -5.5624 0
M  V30 7511 H 741.326 2.39473 -6.53931 0
M  V30 7512 H 738.953 2.30485 -7.24417 0
M  V30 7513 N 740.528 1.15101 1.07655 0
M  V30 7514 C 741.753 0.948177 1.84457 0
M  V30 7515 C 742.178 -0.498432 1.81376 0
M  V30 7516 O 741.536 -1.35509 1.20445 0
M  V30 7517 C 741.584 1.46318 3.29581 0
M  V30 7518 O 740.688 0.660342 4.07079 0
M  V30 7519 H 740.029 0.338428 0.571281 0
M  V30 7520 H 742.559 1.5301 1.35828 0
M  V30 7521 H 742.569 1.47468 3.80417 0
M  V30 7522 H 741.244 2.51635 3.31138 0
M  V30 7523 H 739.821 0.718216 3.65918 0
M  V30 7524 N 742.006 -1.2595 0.947325 0
M  V30 7525 C 743.236 -1.97258 0.614235 0
M  V30 7526 C 743.644 -1.70682 -0.816355 0
M  V30 7527 O 742.987 -0.97527 -1.55673 0
M  V30 7528 C 743.049 -3.50845 0.784081 0
M  V30 7529 C 742.713 -4.01084 2.19045 0
M  V30 7530 C 743.71 -4.12347 3.16648 0
M  V30 7531 C 741.395 -4.34936 2.51268 0
M  V30 7532 C 743.389 -4.56766 4.44572 0
M  V30 7533 C 741.076 -4.79043 3.79422 0
M  V30 7534 C 742.074 -4.89919 4.75887 0
M  V30 7535 O 741.762 -5.3305 6.01758 0
M  V30 7536 H 741.494 -0.635738 0.22981 0
M  V30 7537 H 744.048 -1.61268 1.27207 0
M  V30 7538 H 742.278 -3.86638 0.069101 0
M  V30 7539 H 743.967 -4.03363 0.453135 0
M  V30 7540 H 744.733 -3.86432 2.93079 0
M  V30 7541 H 740.612 -4.25702 1.76916 0
M  V30 7542 H 744.156 -4.6517 5.19868 0
M  V30 7543 H 740.053 -5.04402 4.02802 0
M  V30 7544 H 740.821 -5.51255 6.05029 0
M  V30 7545 N 743.484 -0.715051 -1.40445 0
M  V30 7546 C 744.761 -0.181503 -1.94756 0
M  V30 7547 C 745.141 1.31268 -1.65324 0
M  V30 7548 O 744.489 2.0686 -0.970631 0
M  V30 7549 C 744.699 -0.493663 -3.45491 0
M  V30 7550 C 746.047 -0.432032 -4.22396 0
M  V30 7551 O 747.071 -0.429692 -3.53599 0
M  V30 7552 O 745.93 -0.409091 -5.44967 0
M  V30 7553 H 743.024 -0.0263989 -0.826579 0
M  V30 7554 H 745.57 -0.792546 -1.50056 0
M  V30 7555 H 744.342 -1.52713 -3.6027 0
M  V30 7556 H 743.965 0.14737 -3.97327 0
M  V30 7557 N 744.962 1.50701 -0.461195 0
M  V30 7558 C 745.892 2.31182 0.328184 0
M  V30 7559 C 746.873 1.37644 0.999408 0
M  V30 7560 O 748.058 1.66565 0.99848 0
M  V30 7561 C 745.188 3.17113 1.41621 0
M  V30 7562 C 744.142 4.19124 0.867148 0
M  V30 7563 C 743.468 4.93728 2.05272 0
M  V30 7564 C 744.768 5.22174 -0.114808 0
M  V30 7565 H 746.462 2.97423 -0.343501 0
M  V30 7566 H 744.008 1.43033 -0.166641 0
M  V30 7567 H 745.961 3.72208 1.97584 0
M  V30 7568 H 744.685 2.48739 2.11652 0
M  V30 7569 H 743.344 3.65116 0.329557 0
M  V30 7570 H 742.992 4.21835 2.73978 0
M  V30 7571 H 742.692 5.62724 1.69161 0
M  V30 7572 H 744.216 5.51654 2.61744 0
M  V30 7573 H 745.63 5.72198 0.355316 0
M  V30 7574 H 744.027 5.98833 -0.389689 0
M  V30 7575 H 745.097 4.7353 -1.04391 0
M  V30 7576 N 746.441 0.193421 1.56409 0
M  V30 7577 C 747.671 -0.450783 2.01622 0
M  V30 7578 C 748.079 -1.5585 1.07273 0
M  V30 7579 O 747.422 -1.83569 0.0694875 0
M  V30 7580 C 747.484 -1.06913 3.43235 0
M  V30 7581 C 747.148 -0.100352 4.5689 0
M  V30 7582 C 748.145 0.689633 5.15306 0
M  V30 7583 C 745.83 0.0102436 5.02299 0
M  V30 7584 C 747.824 1.5772 6.17579 0
M  V30 7585 C 745.511 0.901368 6.04416 0
M  V30 7586 C 746.509 1.68341 6.61929 0
M  V30 7587 O 746.197 2.5596 7.62063 0
M  V30 7588 H 745.929 -0.117671 0.66568 0
M  V30 7589 H 748.483 0.2989 2.03214 0
M  V30 7590 H 746.713 -1.86736 3.38624 0
M  V30 7591 H 748.402 -1.61781 3.72266 0
M  V30 7592 H 749.168 0.614485 4.81092 0
M  V30 7593 H 745.047 -0.58829 4.57231 0
M  V30 7594 H 748.591 2.18805 6.62397 0
M  V30 7595 H 744.488 0.977637 6.38054 0
M  V30 7596 H 745.256 2.49721 7.79475 0
M  V30 7597 N 747.919 -1.57396 -0.0801906 0
M  V30 7598 C 748.849 -2.06145 -1.09665 0
M  V30 7599 C 749.83 -0.953273 -1.40878 0
M  V30 7600 O 751.015 -1.22548 -1.50651 0
M  V30 7601 C 748.145 -2.49836 -2.41245 0
M  V30 7602 C 747.099 -3.64454 -2.24405 0
M  V30 7603 C 746.425 -3.94172 -3.61293 0
M  V30 7604 C 747.725 -4.94807 -1.67223 0
M  V30 7605 H 749.419 -2.91316 -0.691028 0
M  V30 7606 H 746.965 -1.40145 -0.330957 0
M  V30 7607 H 748.918 -2.82552 -3.12638 0
M  V30 7608 H 747.642 -1.61683 -2.83771 0
M  V30 7609 H 746.301 -3.32008 -1.55454 0
M  V30 7610 H 745.949 -3.03163 -4.01374 0
M  V30 7611 H 745.649 -4.71345 -3.50867 0
M  V30 7612 H 747.173 -4.29376 -4.3413 0
M  V30 7613 H 748.587 -5.25807 -2.28472 0
M  V30 7614 H 746.984 -5.76245 -1.67515 0
M  V30 7615 H 748.054 -4.80751 -0.632944 0
M  V30 7616 N 749.397 0.351382 -1.53633 0
M  V30 7617 C 750.643 1.09411 -1.70754 0
M  V30 7618 C 750.976 1.88544 -0.465293 0
M  V30 7619 O 750.251 1.86923 0.537608 0
M  V30 7620 C 750.534 2.04173 -2.96623 0
M  V30 7621 C 750.387 1.28556 -4.31038 0
M  V30 7622 C 751.706 3.04102 -3.18136 0
M  V30 7623 H 748.825 0.396373 -0.621335 0
M  V30 7624 H 751.467 0.373464 -1.86293 0
M  V30 7625 H 749.617 2.65625 -2.83506 0
M  V30 7626 H 751.289 0.697786 -4.55992 0
M  V30 7627 H 749.532 0.587498 -4.29803 0
M  V30 7628 H 750.203 1.97989 -5.15271 0
M  V30 7629 H 752.679 2.5276 -3.30532 0
M  V30 7630 H 751.555 3.67616 -4.07615 0
M  V30 7631 H 751.816 3.75053 -2.34068 0
M  V30 7632 N 750.875 1.45233 0.611969 0
M  V30 7633 C 752.103 1.52539 1.39784 0
M  V30 7634 C 752.518 0.156533 1.8815 0
M  V30 7635 O 751.875 -0.84112 1.61961 0
M  V30 7636 C 751.926 2.50614 2.60528 0
M  V30 7637 O 751.647 3.8218 2.14173 0
M  V30 7638 C 753.148 2.67574 3.53439 0
M  V30 7639 H 750.368 0.51674 0.428043 0
M  V30 7640 H 752.912 1.90379 0.746727 0
M  V30 7641 H 751.067 2.15858 3.2169 0
M  V30 7642 H 751.481 4.35305 2.92592 0
M  V30 7643 H 752.955 3.40184 4.34717 0
M  V30 7644 H 753.432 1.73458 4.03496 0
M  V30 7645 H 754.038 3.0331 2.98133 0
M  V30 7646 N 752.353 -0.854086 1.3245 0
M  V30 7647 C 753.301 -1.98411 1.21391 0
M  V30 7648 C 754.295 -1.68984 0.118586 0
M  V30 7649 O 755.501 -1.77784 0.281549 0
M  V30 7650 H 751.876 -0.651077 0.376301 0
M  V30 7651 H 753.847 -2.04867 2.16961 0
M  V30 7652 C 752.596 -3.34345 0.954407 0
M  V30 7653 H 751.919 -3.57518 1.78944 0
M  V30 7654 H 753.359 -4.13959 0.917269 0
M  V30 7655 C 751.818 -3.35151 -0.342838 0
M  V30 7656 O 752.348 -3.78174 -1.35452 0
M  V30 7657 N 750.554 -2.88298 -0.365012 0
M  V30 7658 H 750.101 -2.53481 0.4588 0
M  V30 7659 H 750.059 -2.8922 -1.23284 0
M  V30 7660 N 753.831 -1.1567 -1.07043 0
M  V30 7661 C 755.079 -0.931673 -1.79344 0
M  V30 7662 C 755.4 0.542421 -1.87304 0
M  V30 7663 O 754.67 1.39418 -1.37621 0
M  V30 7664 H 753.25 -0.34171 -0.664262 0
M  V30 7665 H 755.912 -1.45795 -1.29344 0
M  V30 7666 H 755.008 -1.34379 -2.81689 0
M  V30 7667 N 755.309 1.25446 -0.953992 0
M  V30 7668 C 756.256 2.25912 -0.472485 0
M  V30 7669 C 757.226 1.59173 0.47469 0
M  V30 7670 O 758.411 1.86812 0.388082 0
M  V30 7671 C 755.551 3.44235 0.244218 0
M  V30 7672 C 754.664 4.25613 -0.740121 0
M  V30 7673 C 753.799 5.312 -0.000922267 0
M  V30 7674 C 752.838 6.04265 -0.976236 0
M  V30 7675 N 751.975 7.01589 -0.267952 0
M  V30 7676 H 756.815 2.66469 -1.3341 0
M  V30 7677 H 754.352 1.31005 -0.669045 0
M  V30 7678 H 756.31 4.11682 0.676314 0
M  V30 7679 H 754.94 3.04554 1.06988 0
M  V30 7680 H 753.992 3.57834 -1.2907 0
M  V30 7681 H 755.304 4.762 -1.48441 0
M  V30 7682 H 754.458 6.04719 0.48984 0
M  V30 7683 H 753.197 4.81484 0.776159 0
M  V30 7684 H 752.202 5.29561 -1.478 0
M  V30 7685 H 753.427 6.5607 -1.75354 0
M  V30 7686 H 751.373 6.54164 0.490403 0
M  V30 7687 H 751.29 7.4999 -0.951344 0
M  V30 7688 H 752.558 7.7924 0.201294 0
M  V30 7689 N 756.787 0.722489 1.40064 0
M  V30 7690 C 757.737 0.0506801 2.27944 0
M  V30 7691 C 758.721 -0.725493 1.43615 0
M  V30 7692 O 759.913 -0.596559 1.66644 0
M  V30 7693 C 757.042 -0.865195 3.32219 0
M  V30 7694 C 756.128 -0.0838393 4.24017 0
M  V30 7695 N 756.519 0.936516 4.97054 0
M  V30 7696 C 754.817 -0.315371 4.44884 0
M  V30 7697 C 755.518 1.4066 5.64437 0
M  V30 7698 N 754.494 0.727485 5.3871 0
M  V30 7699 H 758.296 0.832609 2.8186 0
M  V30 7700 H 755.81 0.555691 1.52597 0
M  V30 7701 H 757.807 -1.36186 3.94029 0
M  V30 7702 H 756.467 -1.64642 2.79862 0
M  V30 7703 H 757.478 1.31755 5.0086 0
M  V30 7704 H 754.155 -1.07238 4.03492 0
M  V30 7705 H 755.545 2.25482 6.32936 0
M  V30 7706 N 758.265 -1.50454 0.469181 0
M  V30 7707 C 759.513 -2.01916 -0.0862982 0
M  V30 7708 C 759.834 -1.35337 -1.40388 0
M  V30 7709 O 759.104 -0.498096 -1.89462 0
M  V30 7710 H 757.684 -0.746185 -0.0348825 0
M  V30 7711 H 760.346 -1.84804 0.619167 0
M  V30 7712 H 759.442 -3.11182 -0.239189 0
M  V30 7713 N 759.743 -0.201713 -1.56304 0
M  V30 7714 C 760.69 0.716499 -2.19397 0
M  V30 7715 C 761.66 1.20494 -1.14326 0
M  V30 7716 O 762.845 1.26763 -1.42604 0
M  V30 7717 C 759.985 1.92762 -2.86246 0
M  V30 7718 C 759.098 1.47993 -4.0586 0
M  V30 7719 C 758.233 2.64706 -4.60547 0
M  V30 7720 C 757.272 2.16576 -5.72504 0
M  V30 7721 N 756.409 3.26491 -6.21569 0
M  V30 7722 H 761.249 0.171724 -2.97505 0
M  V30 7723 H 758.786 0.073016 -1.46919 0
M  V30 7724 H 760.744 2.6384 -3.23178 0
M  V30 7725 H 759.374 2.44559 -2.10691 0
M  V30 7726 H 758.426 0.66477 -3.74546 0
M  V30 7727 H 759.738 1.08686 -4.86815 0
M  V30 7728 H 758.892 3.43898 -4.99819 0
M  V30 7729 H 757.631 3.0729 -3.78713 0
M  V30 7730 H 756.636 1.3584 -5.32755 0
M  V30 7731 H 757.861 1.75015 -6.56161 0
M  V30 7732 H 755.807 3.68594 -5.42655 0
M  V30 7733 H 755.724 2.91374 -6.97594 0
M  V30 7734 H 756.992 4.05877 -6.65495 0
M  V30 7735 N 761.222 1.57436 0.0718424 0
M  V30 7736 C 762.169 2.03686 1.08539 0
M  V30 7737 C 763.139 0.917474 1.38462 0
M  V30 7738 O 764.324 1.18513 1.4953 0
M  V30 7739 C 761.464 2.48566 2.39393 0
M  V30 7740 C 760.577 3.74122 2.16001 0
M  V30 7741 C 759.712 4.07786 3.40418 0
M  V30 7742 C 758.751 5.26383 3.1239 0
M  V30 7743 N 757.888 5.55685 4.29138 0
M  V30 7744 H 762.728 2.90043 0.684018 0
M  V30 7745 H 760.265 1.43438 0.326183 0
M  V30 7746 H 762.223 2.72639 3.15791 0
M  V30 7747 H 760.853 1.65186 2.77333 0
M  V30 7748 H 759.905 3.57389 1.30296 0
M  V30 7749 H 761.217 4.60659 1.91298 0
M  V30 7750 H 760.371 4.32759 4.25211 0
M  V30 7751 H 759.11 3.19817 3.68197 0
M  V30 7752 H 758.115 5.01206 2.25993 0
M  V30 7753 H 759.34 6.1597 2.85934 0
M  V30 7754 H 757.286 4.70675 4.56948 0
M  V30 7755 H 757.203 6.3664 4.07708 0
M  V30 7756 H 758.471 5.85209 5.14928 0
M  V30 7757 N 762.7 -0.34323 1.53817 0
M  V30 7758 C 763.949 -1.08086 1.70295 0
M  V30 7759 C 764.262 -1.89794 0.47302 0
M  V30 7760 O 765.468 -2.66498 0.518754 0
M  V30 7761 C 763.924 -1.97097 3.01133 0
M  V30 7762 C 763.532 -1.20594 4.31464 0
M  V30 7763 C 765.276 -2.70715 3.26976 0
M  V30 7764 C 763.183 -2.08636 5.53376 0
M  V30 7765 H 762.113 -0.407228 0.634572 0
M  V30 7766 H 764.764 -0.340328 1.80316 0
M  V30 7767 H 763.146 -2.74971 2.84969 0
M  V30 7768 H 764.32 -0.476282 4.58332 0
M  V30 7769 H 762.635 -0.587426 4.12236 0
M  V30 7770 H 765.232 -3.36857 4.15248 0
M  V30 7771 H 765.575 -3.37299 2.43998 0
M  V30 7772 H 766.108 -1.99914 3.43917 0
M  V30 7773 H 762.847 -1.46594 6.38898 0
M  V30 7774 H 762.367 -2.7939 5.30755 0
M  V30 7775 H 764.046 -2.67682 5.89029 0
M  V30 7776 N 764.178 -1.45556 -0.604258 0
M  V30 7777 C 765.455 -1.40221 -1.36373 0
M  V30 7778 C 765.835 -0.0745195 -2.10968 0
M  V30 7779 O 765.183 0.943594 -2.08107 0
M  V30 7780 C 765.393 -2.61807 -2.30777 0
M  V30 7781 C 766.741 -3.07037 -2.93281 0
M  V30 7782 O 767.765 -2.62203 -2.41097 0
M  V30 7783 O 766.624 -3.8485 -3.88011 0
M  V30 7784 H 763.718 -0.556602 -0.611656 0
M  V30 7785 H 766.264 -1.57689 -0.627069 0
M  V30 7786 H 765.036 -3.50017 -1.74939 0
M  V30 7787 H 764.659 -2.46688 -3.11818 0
M  V30 7788 N 765.656 0.84705 -1.32902 0
M  V30 7789 C 766.904 1.5986 -1.2365 0
M  V30 7790 C 767.225 1.93974 0.199789 0
M  V30 7791 O 766.495 1.60273 1.12648 0
M  V30 7792 H 765.075 0.592696 -0.454665 0
M  V30 7793 H 767.737 1.01278 -1.66519 0
M  V30 7794 H 766.833 2.53218 -1.82448 0
M  V30 7795 N 767.134 1.16236 1.06428 0
M  V30 7796 C 768.38 0.944431 1.79467 0
M  V30 7797 C 768.713 -0.526558 1.86925 0
M  V30 7798 O 767.988 -1.39061 1.35986 0
M  V30 7799 C 768.271 1.57092 3.24028 0
M  V30 7800 C 768.124 3.11315 3.24658 0
M  V30 7801 C 769.443 1.26447 4.21544 0
M  V30 7802 H 766.562 0.344521 0.651517 0
M  V30 7803 H 769.204 1.43545 1.24478 0
M  V30 7804 H 767.354 1.15337 3.70985 0
M  V30 7805 H 769.026 3.62042 2.85873 0
M  V30 7806 H 767.269 3.44716 2.6335 0
M  V30 7807 H 767.94 3.50269 4.26633 0
M  V30 7808 H 770.416 1.62581 3.83023 0
M  V30 7809 H 769.292 1.72885 5.20963 0
M  V30 7810 H 769.553 0.183068 4.41721 0
M  V30 7811 N 768.612 -1.24939 0.960631 0
M  V30 7812 C 769.858 -1.93425 0.629155 0
M  V30 7813 C 770.213 -1.73784 -0.825635 0
M  V30 7814 O 769.506 -1.07595 -1.58536 0
M  V30 7815 C 769.7 -3.45066 0.930809 0
M  V30 7816 C 769.529 -3.79455 2.41337 0
M  V30 7817 C 768.299 -4.01195 3.07197 0
M  V30 7818 C 770.497 -3.86492 3.39306 0
M  V30 7819 N 768.479 -4.22626 4.45265 0
M  V30 7820 C 769.85 -4.12682 4.62702 0
M  V30 7821 C 771.905 -3.69198 3.34061 0
M  V30 7822 C 770.608 -4.23376 5.81502 0
M  V30 7823 C 772.634 -3.81135 4.52206 0
M  V30 7824 C 771.996 -4.07743 5.74391 0
M  V30 7825 H 768.095 -0.729791 0.280943 0
M  V30 7826 H 770.679 -1.50597 1.23404 0
M  V30 7827 H 768.85 -3.86776 0.354801 0
M  V30 7828 H 770.582 -4.00826 0.558627 0
M  V30 7829 H 767.337 -3.97319 2.5775 0
M  V30 7830 H 767.761 -4.37335 5.16785 0
M  V30 7831 H 772.403 -3.47639 2.40638 0
M  V30 7832 H 770.121 -4.4375 6.75361 0
M  V30 7833 H 773.707 -3.69133 4.49702 0
M  V30 7834 H 772.587 -4.16768 6.64284 0
M  V30 7835 N 770.09 -0.729906 -1.39679 0
M  V30 7836 C 771.038 -0.0756589 -2.32477 0
M  V30 7837 C 772.032 0.731438 -1.52795 0
M  V30 7838 O 773.238 0.633195 -1.68495 0
M  V30 7839 H 769.613 -0.00566492 -0.751979 0
M  V30 7840 H 771.584 -0.874797 -2.85289 0
M  V30 7841 C 770.333 0.821313 -3.37861 0
M  V30 7842 H 769.656 0.209666 -3.9925 0
M  V30 7843 H 771.096 1.24679 -4.05254 0
M  V30 7844 C 769.555 1.9533 -2.74495 0
M  V30 7845 O 770.085 3.04548 -2.61942 0
M  V30 7846 N 768.291 1.74119 -2.3266 0
M  V30 7847 H 767.838 0.852908 -2.4307 0
M  V30 7848 H 767.796 2.50036 -1.90603 0
M  V30 7849 N 771.568 1.50203 -0.477153 0
M  V30 7850 C 772.816 2.01959 0.0755889 0
M  V30 7851 C 773.137 1.3608 1.39668 0
M  V30 7852 O 772.407 0.508136 1.89195 0
M  V30 7853 H 770.987 0.74636 0.0309248 0
M  V30 7854 H 773.649 1.84473 -0.628959 0
M  V30 7855 H 772.745 3.11305 0.222683 0
M  V30 7856 N 773.046 0.209999 1.56195 0
M  V30 7857 C 773.979 -0.744546 2.15712 0
M  V30 7858 C 774.957 -1.19917 1.09812 0
M  V30 7859 O 776.141 -1.284 1.38006 0
M  V30 7860 C 773.268 -2.00733 2.72807 0
M  V30 7861 C 772.314 -1.69363 3.91431 0
M  V30 7862 S 773.147 -0.828579 5.29051 0
M  V30 7863 C 774.303 -2.10118 5.89577 0
M  V30 7864 H 774.536 -0.238636 2.96341 0
M  V30 7865 H 772.069 -0.00517877 1.54399 0
M  V30 7866 H 774.027 -2.73246 3.06344 0
M  V30 7867 H 772.688 -2.48436 1.92193 0
M  V30 7868 H 771.881 -2.63157 4.29842 0
M  V30 7869 H 771.483 -1.04921 3.58981 0
M  V30 7870 H 773.775 -3.05231 6.04847 0
M  V30 7871 H 774.718 -1.76116 6.85849 0
M  V30 7872 H 775.126 -2.23644 5.18308 0
M  V30 7873 N 774.524 -1.57472 -0.0634922 0
M  V30 7874 C 775.773 -1.86837 -0.759928 0
M  V30 7875 C 776.086 -0.803823 -1.7832 0
M  V30 7876 O 777.292 -0.985578 -2.52979 0
M  V30 7877 C 775.748 -3.31448 -1.4025 0
M  V30 7878 C 775.356 -4.46052 -0.417368 0
M  V30 7879 C 777.1 -3.70003 -2.08082 0
M  V30 7880 C 775.007 -5.81707 -1.06633 0
M  V30 7881 H 773.937 -0.697009 -0.287567 0
M  V30 7882 H 776.588 -1.83495 -0.0133914 0
M  V30 7883 H 774.97 -3.29427 -2.19759 0
M  V30 7884 H 776.144 -4.5948 0.348503 0
M  V30 7885 H 774.459 -4.16104 0.156955 0
M  V30 7886 H 777.056 -4.68653 -2.57426 0
M  V30 7887 H 777.399 -3.00226 -2.88393 0
M  V30 7888 H 777.932 -3.7405 -1.35394 0
M  V30 7889 H 774.671 -6.54798 -0.303374 0
M  V30 7890 H 774.191 -5.72064 -1.80286 0
M  V30 7891 H 775.87 -6.27317 -1.58376 0
M  V30 7892 N 776.003 0.335068 -1.53997 0
M  V30 7893 C 777.251 1.07223 -1.71312 0
M  V30 7894 C 777.572 1.88911 -0.483486 0
M  V30 7895 O 776.842 1.89344 0.50257 0
M  V30 7896 H 775.422 0.398846 -0.63161 0
M  V30 7897 H 778.084 0.374288 -1.91272 0
M  V30 7898 H 777.18 1.7448 -2.58772 0
M  V30 7899 N 777.481 1.45874 0.596531 0
M  V30 7900 C 778.391 1.57947 1.73464 0
M  V30 7901 C 779.407 0.463461 1.67714 0
M  V30 7902 O 780.583 0.725685 1.87872 0
M  V30 7903 C 777.648 1.55348 3.09948 0
M  V30 7904 C 776.709 2.78074 3.27068 0
M  V30 7905 C 775.942 2.75589 4.57041 0
M  V30 7906 O 776.165 1.83545 5.40063 0
M  V30 7907 O 775.099 3.66945 4.77111 0
M  V30 7908 H 778.925 2.54169 1.66228 0
M  V30 7909 H 776.51 1.2851 0.76194 0
M  V30 7910 H 778.392 1.56545 3.91244 0
M  V30 7911 H 777.067 0.622811 3.17652 0
M  V30 7912 H 775.974 2.82435 2.45319 0
M  V30 7913 H 777.307 3.70303 3.24248 0
M  V30 7914 N 778.959 -0.83999 1.33349 0
M  V30 7915 C 780.205 -1.59753 1.24927 0
M  V30 7916 C 780.538 -1.93318 -0.184855 0
M  V30 7917 O 779.813 -1.586 -1.12589 0
M  V30 7918 C 780.096 -2.90829 2.12345 0
M  V30 7919 C 779.949 -2.63953 3.6421 0
M  V30 7920 C 781.268 -3.92246 1.99577 0
M  V30 7921 H 778.387 -0.579654 0.45516 0
M  V30 7922 H 781.029 -0.968909 1.63439 0
M  V30 7923 H 779.179 -3.44478 1.79631 0
M  V30 7924 H 780.851 -2.16745 4.07209 0
M  V30 7925 H 779.094 -1.97671 3.86146 0
M  V30 7926 H 779.765 -3.57348 4.20721 0
M  V30 7927 H 782.241 -3.479 2.28265 0
M  V30 7928 H 781.117 -4.81793 2.62996 0
M  V30 7929 H 781.378 -4.3138 0.967673 0
M  V30 7930 N 780.437 -1.16799 -1.0581 0
M  V30 7931 C 781.684 -0.952524 -1.78699 0
M  V30 7932 C 782.012 0.51931 -1.87439 0
M  V30 7933 O 781.267 1.40151 -1.36587 0
M  V30 7934 C 781.566 -1.53111 -3.22942 0
M  V30 7935 C 781.232 -3.0261 -3.34273 0
M  V30 7936 C 779.894 -3.43418 -3.37072 0
M  V30 7937 C 782.246 -3.98611 -3.35795 0
M  V30 7938 C 779.574 -4.78838 -3.39015 0
M  V30 7939 C 781.926 -5.33923 -3.39277 0
M  V30 7940 C 780.59 -5.74205 -3.40361 0
M  V30 7941 H 779.86 -0.348553 -0.653905 0
M  V30 7942 H 782.507 -1.45591 -1.244 0
M  V30 7943 H 780.812 -0.949286 -3.80126 0
M  V30 7944 H 782.509 -1.34002 -3.77948 0
M  V30 7945 H 779.099 -2.70075 -3.32803 0
M  V30 7946 H 783.283 -3.68146 -3.32839 0
M  V30 7947 H 778.539 -5.09369 -3.38161 0
M  V30 7948 H 782.713 -6.08094 -3.39403 0
M  V30 7949 H 780.34 -6.79117 -3.4162 0
M  V30 7950 N 781.915 1.24427 -0.967243 0
M  V30 7951 C 783.145 1.96256 -0.64554 0
M  V30 7952 C 783.553 1.71959 0.789098 0
M  V30 7953 O 782.896 0.999913 1.54102 0
M  V30 7954 C 782.958 3.49553 -0.839798 0
M  V30 7955 C 782.622 3.97548 -2.25399 0
M  V30 7956 C 783.619 4.07257 -3.23168 0
M  V30 7957 C 781.304 4.30884 -2.58156 0
M  V30 7958 C 783.298 4.49635 -4.51782 0
M  V30 7959 C 780.985 4.72946 -3.86996 0
M  V30 7960 C 781.983 4.82286 -4.83621 0
M  V30 7961 O 781.671 5.23409 -6.10162 0
M  V30 7962 H 781.403 0.632002 -0.239895 0
M  V30 7963 H 783.957 1.59224 -1.29757 0
M  V30 7964 H 782.187 3.86479 -0.130603 0
M  V30 7965 H 783.876 4.02591 -0.517249 0
M  V30 7966 H 784.642 3.8172 -2.9919 0
M  V30 7967 H 780.521 4.22833 -1.83666 0
M  V30 7968 H 784.065 4.5684 -5.27203 0
M  V30 7969 H 779.962 4.9793 -4.10775 0
M  V30 7970 H 780.73 5.4156 -6.13722 0
M  V30 7971 N 783.393 0.737304 1.3929 0
M  V30 7972 C 784.325 0.0592106 2.29124 0
M  V30 7973 C 785.338 -0.701026 1.46934 0
M  V30 7974 O 786.527 -0.544808 1.69983 0
M  V30 7975 C 783.627 -0.940358 3.25592 0
M  V30 7976 C 782.8 -0.241163 4.36735 0
M  V30 7977 C 781.859 -1.14916 5.13498 0
M  V30 7978 O 780.885 -0.625783 5.6575 0
M  V30 7979 N 782.087 -2.47869 5.2492 0
M  V30 7980 H 784.852 0.830647 2.87959 0
M  V30 7981 H 782.413 0.586718 1.50895 0
M  V30 7982 H 784.405 -1.55046 3.73822 0
M  V30 7983 H 782.975 -1.61299 2.67771 0
M  V30 7984 H 782.195 0.549441 3.90352 0
M  V30 7985 H 783.483 0.243299 5.08218 0
M  V30 7986 H 782.881 -2.92864 4.83991 0
M  V30 7987 H 781.438 -3.03969 5.76581 0
M  V30 7988 N 784.871 -1.49948 0.485112 0
M  V30 7989 C 786.287 -1.58984 0.140096 0
M  V30 7990 C 786.487 -1.49194 -1.35438 0
M  V30 7991 O 785.543 -1.35765 -2.12894 0
M  V30 7992 C 786.856 -2.92372 0.702769 0
M  V30 7993 C 788.404 -3.05801 0.66745 0
M  V30 7994 C 788.879 -4.41785 1.20791 0
M  V30 7995 N 790.37 -4.48234 1.16792 0
M  V30 7996 C 791.105 -5.51871 1.55646 0
M  V30 7997 N 790.601 -6.62692 2.02016 0
M  V30 7998 N 792.394 -5.42494 1.47161 0
M  V30 7999 H 784.545 -1.54555 1.45693 0
M  V30 8000 H 786.808 -0.731206 0.603359 0
M  V30 8001 H 786.514 -3.05056 1.75025 0
M  V30 8002 H 786.388 -3.76885 0.154205 0
M  V30 8003 H 788.775 -2.92757 -0.371157 0
M  V30 8004 H 788.856 -2.23011 1.25298 0
M  V30 8005 H 788.5 -4.55579 2.24522 0
M  V30 8006 H 788.43 -5.23188 0.598464 0
M  V30 8007 H 790.921 -3.68718 0.827982 0
M  V30 8008 H 791.234 -7.3785 2.29775 0
M  V30 8009 H 789.579 -6.63775 2.05979 0
M  V30 8010 H 792.77 -4.54806 1.10765 0
M  V30 8011 H 792.943 -6.2314 1.77766 0
M  V30 8012 N 786.349 -0.21828 -1.56081 0
M  V30 8013 C 787.312 0.679633 -2.18892 0
M  V30 8014 C 788.312 1.12405 -1.14986 0
M  V30 8015 O 789.502 1.03339 -1.40238 0
M  V30 8016 C 786.634 1.93063 -2.80962 0
M  V30 8017 H 787.827 0.132066 -2.99609 0
M  V30 8018 H 785.38 0.0313374 -1.56269 0
M  V30 8019 H 786.115 2.52015 -2.04106 0
M  V30 8020 H 785.9 1.62046 -3.57048 0
M  V30 8021 H 787.39 2.57043 -3.29118 0
M  V30 8022 N 787.827 1.57504 0.0551401 0
M  V30 8023 C 789.104 1.79155 0.785048 0
M  V30 8024 C 789.484 0.809995 1.94942 0
M  V30 8025 O 788.832 -0.153432 2.27984 0
M  V30 8026 C 789.042 3.26134 1.24247 0
M  V30 8027 C 790.39 3.90419 1.66908 0
M  V30 8028 O 791.414 3.30126 1.33772 0
M  V30 8029 O 790.273 4.96523 2.28314 0
M  V30 8030 H 787.367 0.735825 0.377479 0
M  V30 8031 H 789.913 1.69666 0.0339285 0
M  V30 8032 H 788.685 3.89145 0.410089 0
M  V30 8033 H 788.308 3.40411 2.05441 0
M  V30 8034 N 789.305 -0.326896 1.54172 0
M  V30 8035 C 790.238 -1.42591 1.78166 0
M  V30 8036 C 791.216 -1.49837 0.631484 0
M  V30 8037 O 792.4 -1.67298 0.868544 0
M  V30 8038 C 789.527 -2.8071 1.89524 0
M  V30 8039 C 788.573 -2.91012 3.11792 0
M  V30 8040 S 789.406 -2.55763 4.70474 0
M  V30 8041 C 790.562 -3.9596 4.84733 0
M  V30 8042 H 790.795 -1.22024 2.71104 0
M  V30 8043 H 788.328 -0.523539 1.45253 0
M  V30 8044 H 790.286 -3.60276 1.96753 0
M  V30 8045 H 788.947 -2.98562 0.975696 0
M  V30 8046 H 788.14 -3.92258 3.16464 0
M  V30 8047 H 787.742 -2.19414 3.02876 0
M  V30 8048 H 790.034 -4.90676 4.67166 0
M  V30 8049 H 790.977 -3.96273 5.86833 0
M  V30 8050 H 791.385 -3.8476 4.13062 0
M  V30 8051 N 790.784 -1.46188 -0.588786 0
M  V30 8052 C 791.747 -1.55882 -1.68029 0
M  V30 8053 C 792.747 -0.436515 -1.54762 0
M  V30 8054 O 793.937 -0.700626 -1.59489 0
M  V30 8055 C 791.069 -1.47332 -3.07418 0
M  V30 8056 H 792.262 -2.5315 -1.60795 0
M  V30 8057 H 789.815 -1.33908 -0.806116 0
M  V30 8058 H 790.55 -0.513193 -3.20214 0
M  V30 8059 H 790.335 -2.28753 -3.18456 0
M  V30 8060 H 791.825 -1.57187 -3.86887 0
M  V30 8061 N 792.262 0.832906 -1.33792 0
M  V30 8062 C 793.511 1.58351 -1.24932 0
M  V30 8063 C 793.824 1.94754 0.181703 0
M  V30 8064 O 795.03 2.6865 0.392375 0
M  V30 8065 C 793.486 2.85643 -2.18943 0
M  V30 8066 C 793.094 2.56581 -3.67247 0
M  V30 8067 C 794.838 3.63667 -2.18968 0
M  V30 8068 C 792.745 3.80006 -4.53155 0
M  V30 8069 H 791.675 0.594278 -0.464058 0
M  V30 8070 H 794.326 0.91786 -1.58895 0
M  V30 8071 H 792.708 3.53781 -1.77919 0
M  V30 8072 H 793.882 1.96617 -4.16747 0
M  V30 8073 H 792.197 1.91851 -3.6957 0
M  V30 8074 H 794.794 4.55293 -2.80379 0
M  V30 8075 H 795.137 3.99039 -1.18631 0
M  V30 8076 H 795.67 3.0246 -2.58384 0
M  V30 8077 H 792.409 3.4976 -5.5439 0
M  V30 8078 H 791.929 4.39288 -4.08395 0
M  V30 8079 H 793.608 4.47523 -4.6726 0
M  V30 8080 N 793.74 1.17359 1.05189 0
M  V30 8081 C 794.988 0.960087 1.77839 0
M  V30 8082 C 795.309 -0.512554 1.88143 0
M  V30 8083 O 794.579 -1.3721 1.39822 0
M  V30 8084 H 793.159 0.352234 0.658741 0
M  V30 8085 H 795.821 1.47834 1.27008 0
M  V30 8086 H 794.917 1.38843 2.79516 0
M  V30 8087 N 795.218 -1.23913 0.973828 0
M  V30 8088 C 796.443 -1.96735 0.656511 0
M  V30 8089 C 796.868 -1.71682 -0.768571 0
M  V30 8090 O 796.226 -0.984267 -1.52256 0
M  V30 8091 C 796.274 -3.48004 0.944735 0
M  V30 8092 O 795.378 -4.12387 0.0333357 0
M  V30 8093 H 794.719 -0.616119 0.247575 0
M  V30 8094 H 797.249 -1.57525 1.30564 0
M  V30 8095 H 797.259 -3.98424 0.87876 0
M  V30 8096 H 795.934 -3.65567 1.98328 0
M  V30 8097 H 794.511 -3.72585 0.153157 0
M  V30 8098 N 796.696 -0.74468 -1.38897 0
M  V30 8099 C 797.626 -0.126355 -2.33158 0
M  V30 8100 C 798.607 0.713517 -1.54412 0
M  V30 8101 O 799.792 0.656523 -1.82766 0
M  V30 8102 C 796.922 0.774375 -3.38557 0
M  V30 8103 C 795.876 0.0379214 -4.27983 0
M  V30 8104 C 795.202 1.05631 -5.24162 0
M  V30 8105 C 796.502 -1.12523 -5.10035 0
M  V30 8106 H 798.196 -0.913744 -2.85116 0
M  V30 8107 H 795.742 -0.440847 -1.37086 0
M  V30 8108 H 797.695 1.21655 -4.03458 0
M  V30 8109 H 796.419 1.59399 -2.85061 0
M  V30 8110 H 795.078 -0.384733 -3.64576 0
M  V30 8111 H 794.726 1.86975 -4.66958 0
M  V30 8112 H 794.426 0.568261 -5.84846 0
M  V30 8113 H 795.95 1.49799 -5.9194 0
M  V30 8114 H 797.364 -0.761037 -5.68226 0
M  V30 8115 H 795.761 -1.54355 -5.79909 0
M  V30 8116 H 796.831 -1.94237 -4.44297 0
M  V30 8117 N 798.174 1.49689 -0.493057 0
M  V30 8118 C 799.402 2.06836 0.0513141 0
M  V30 8119 C 799.817 1.35436 1.31539 0
M  V30 8120 O 799.174 0.430248 1.77356 0
M  V30 8121 C 799.225 3.60107 0.317003 0
M  V30 8122 O 798.946 4.2882 -0.896957 0
M  V30 8123 C 800.447 4.33945 0.905902 0
M  V30 8124 H 797.667 0.670787 -0.0169048 0
M  V30 8125 H 800.211 1.92574 -0.688139 0
M  V30 8126 H 798.366 3.74099 1.00642 0
M  V30 8127 H 798.78 5.20395 -0.654939 0
M  V30 8128 H 800.254 5.42087 1.04144 0
M  V30 8129 H 800.731 3.95895 1.90168 0
M  V30 8130 H 801.337 4.2454 0.254195 0
M  V30 8131 N 799.652 0.226554 1.55963 0
M  V30 8132 C 800.901 -0.40417 1.97609 0
M  V30 8133 C 801.214 -1.60541 1.1174 0
M  V30 8134 O 802.42 -2.30598 1.43307 0
M  V30 8135 C 800.876 -0.770466 3.51556 0
M  V30 8136 C 800.484 0.408244 4.46136 0
M  V30 8137 C 802.228 -1.36651 4.01904 0
M  V30 8138 C 800.135 0.0192347 5.91397 0
M  V30 8139 H 799.065 -0.15478 0.737943 0
M  V30 8140 H 801.716 0.323558 1.80625 0
M  V30 8141 H 800.098 -1.55575 3.6416 0
M  V30 8142 H 801.272 1.18575 4.45283 0
M  V30 8143 H 799.587 0.917859 4.06158 0
M  V30 8144 H 802.184 -1.67055 5.07934 0
M  V30 8145 H 802.527 -2.28403 3.48049 0
M  V30 8146 H 803.06 -0.644556 3.92543 0
M  V30 8147 H 799.799 0.90336 6.49245 0
M  V30 8148 H 799.319 -0.722485 5.95433 0
M  V30 8149 H 800.998 -0.405711 6.45727 0
M  V30 8150 N 801.13 -1.57531 -0.0467866 0
M  V30 8151 C 802.078 -2.06455 -1.0714 0
M  V30 8152 C 803.072 -0.974744 -1.38546 0
M  V30 8153 O 804.278 -1.15974 -1.37659 0
M  V30 8154 H 800.653 -0.658607 -0.362962 0
M  V30 8155 H 802.624 -2.91613 -0.632813 0
M  V30 8156 C 801.373 -2.54481 -2.36927 0
M  V30 8157 H 800.696 -3.37946 -2.13617 0
M  V30 8158 H 802.136 -2.92442 -3.07007 0
M  V30 8159 C 800.595 -1.43836 -3.04652 0
M  V30 8160 O 801.125 -0.794531 -3.93764 0
M  V30 8161 N 799.331 -1.17727 -2.65686 0
M  V30 8162 H 798.878 -1.70265 -1.93307 0
M  V30 8163 H 798.836 -0.439051 -3.11319 0
M  V30 8164 N 802.608 0.318715 -1.54344 0
M  V30 8165 C 803.518 1.41535 -1.87097 0
M  V30 8166 C 804.534 1.56361 -0.763353 0
M  V30 8167 O 805.71 1.71365 -1.05811 0
M  V30 8168 C 802.775 2.76178 -2.09587 0
M  V30 8169 C 801.836 2.70486 -3.3337 0
M  V30 8170 C 801.069 3.98708 -3.54778 0
M  V30 8171 O 801.292 4.9721 -2.79532 0
M  V30 8172 O 800.226 4.01674 -4.48266 0
M  V30 8173 H 804.052 1.16764 -2.80357 0
M  V30 8174 H 801.637 0.51318 -1.4031 0
M  V30 8175 H 803.519 3.55873 -2.25682 0
M  V30 8176 H 802.194 3.00829 -1.19514 0
M  V30 8177 H 801.101 1.89325 -3.22656 0
M  V30 8178 H 802.434 2.50789 -4.23516 0
M  V30 8179 N 804.086 1.46499 0.581025 0
M  V30 8180 C 804.996 1.59778 1.71779 0
M  V30 8181 C 806.012 0.481223 1.67213 0
M  V30 8182 O 807.188 0.74557 1.87091 0
M  V30 8183 C 804.253 1.58626 3.08283 0
M  V30 8184 C 803.314 2.81527 3.241 0
M  V30 8185 C 802.547 2.80421 4.54092 0
M  V30 8186 O 802.77 1.89262 5.38085 0
M  V30 8187 O 801.704 3.71984 4.73193 0
M  V30 8188 H 805.53 2.55918 1.63523 0
M  V30 8189 H 803.115 1.29311 0.748267 0
M  V30 8190 H 804.997 1.60686 3.89561 0
M  V30 8191 H 803.672 0.656467 3.16973 0
M  V30 8192 H 802.579 2.85021 2.42309 0
M  V30 8193 H 803.912 3.73721 3.20302 0
M  V30 8194 N 805.565 -0.825799 1.34232 0
M  V30 8195 C 806.981 -1.11848 1.13851 0
M  V30 8196 C 807.181 -2.01405 -0.0619031 0
M  V30 8197 O 806.237 -2.41465 -0.738287 0
M  V30 8198 C 807.55 -1.76797 2.43235 0
M  V30 8199 C 809.098 -1.89304 2.49265 0
M  V30 8200 C 809.573 -2.57669 3.78643 0
M  V30 8201 N 811.064 -2.65171 3.79788 0
M  V30 8202 C 811.799 -3.1879 4.76614 0
M  V30 8203 N 811.295 -3.72995 5.83821 0
M  V30 8204 N 813.088 -3.17164 4.64073 0
M  V30 8205 H 805.239 -0.230049 2.11151 0
M  V30 8206 H 807.502 -0.164609 0.9336 0
M  V30 8207 H 807.208 -1.18455 3.31152 0
M  V30 8208 H 807.082 -2.76693 2.56361 0
M  V30 8209 H 809.469 -2.46796 1.6179 0
M  V30 8210 H 809.55 -0.883191 2.4007 0
M  V30 8211 H 809.194 -2.00833 4.66507 0
M  V30 8212 H 809.124 -3.59152 3.8512 0
M  V30 8213 H 811.615 -2.26746 3.02315 0
M  V30 8214 H 811.928 -4.12151 6.53721 0
M  V30 8215 H 810.273 -3.71246 5.87538 0
M  V30 8216 H 813.464 -2.74082 3.79469 0
M  V30 8217 H 813.637 -3.58647 5.397 0
M  V30 8218 N 807.043 -1.17915 -1.04565 0
M  V30 8219 C 808.268 -0.996749 -1.81878 0
M  V30 8220 C 808.693 0.450169 -1.82634 0
M  V30 8221 O 808.051 1.32268 -1.23995 0
M  V30 8222 C 808.099 -1.55005 -3.25585 0
M  V30 8223 O 807.203 -0.76804 -4.05185 0
M  V30 8224 H 806.544 -0.353456 -0.562108 0
M  V30 8225 H 809.074 -1.56557 -1.31723 0
M  V30 8226 H 809.084 -1.57503 -3.76373 0
M  V30 8227 H 807.759 -2.60327 -3.2435 0
M  V30 8228 H 806.336 -0.81498 -3.63885 0
M  V30 8229 N 808.521 1.23394 -0.980386 0
M  V30 8230 C 809.431 2.28561 -0.528864 0
M  V30 8231 C 810.447 1.68946 0.416329 0
M  V30 8232 O 811.623 1.99355 0.286251 0
M  V30 8233 C 808.688 3.46323 0.16155 0
M  V30 8234 C 807.749 4.21297 -0.825044 0
M  V30 8235 C 806.982 5.33437 -0.167483 0
M  V30 8236 O 807.205 5.60812 1.04146 0
M  V30 8237 O 806.139 5.95637 -0.866047 0
M  V30 8238 H 809.965 2.69326 -1.40346 0
M  V30 8239 H 807.55 1.29325 -0.748019 0
M  V30 8240 H 809.432 4.17811 0.548841 0
M  V30 8241 H 808.107 3.0751 1.01092 0
M  V30 8242 H 807.014 3.52134 -1.26303 0
M  V30 8243 H 808.347 4.6396 -1.64322 0
M  V30 8244 N 809.999 0.752036 1.385 0
M  V30 8245 C 811.248 0.304294 1.99391 0
M  V30 8246 C 811.561 -1.11982 1.60373 0
M  V30 8247 O 812.767 -1.66795 2.14223 0
M  V30 8248 C 811.223 0.493101 3.56506 0
M  V30 8249 C 810.831 1.9262 4.04477 0
M  V30 8250 C 812.575 0.107994 4.24363 0
M  V30 8251 C 810.482 2.06365 5.54227 0
M  V30 8252 H 809.412 0.110024 0.745929 0
M  V30 8253 H 812.063 0.928355 1.58284 0
M  V30 8254 H 810.445 -0.20012 3.95494 0
M  V30 8255 H 811.619 2.65276 3.76783 0
M  V30 8256 H 809.934 2.26608 3.49339 0
M  V30 8257 H 812.531 0.189474 5.34364 0
M  V30 8258 H 812.874 -0.939165 4.05568 0
M  V30 8259 H 813.407 0.753011 3.90608 0
M  V30 8260 H 810.146 3.0933 5.77923 0
M  V30 8261 H 809.666 1.38167 5.83669 0
M  V30 8262 H 811.345 1.85286 6.19902 0
M  V30 8263 N 811.477 -1.49425 0.500989 0
M  V30 8264 C 812.723 -2.02753 -0.0436 0
M  V30 8265 C 813.056 -1.37991 -1.36646 0
M  V30 8266 O 812.331 -0.515597 -1.87542 0
M  V30 8267 C 812.614 -3.59565 -0.19616 0
M  V30 8268 C 812.467 -4.34855 1.14982 0
M  V30 8269 C 813.786 -4.30014 -0.936795 0
M  V30 8270 H 810.905 -0.73686 -0.0143711 0
M  V30 8271 H 813.547 -1.78448 0.652397 0
M  V30 8272 H 811.697 -3.80405 -0.788959 0
M  V30 8273 H 813.369 -4.25512 1.7815 0
M  V30 8274 H 811.612 -3.97414 1.73911 0
M  V30 8275 H 812.283 -5.42933 0.996385 0
M  V30 8276 H 814.759 -4.1383 -0.434036 0
M  V30 8277 H 813.635 -5.39483 -1.01238 0
M  V30 8278 H 813.896 -3.95257 -1.9805 0
M  V30 8279 N 812.955 -0.234822 -1.55841 0
M  V30 8280 C 814.232 0.442961 -1.90518 0
M  V30 8281 C 814.612 1.76768 -1.15397 0
M  V30 8282 O 813.96 2.26928 -0.267534 0
M  V30 8283 C 814.17 0.622905 -3.43396 0
M  V30 8284 C 815.518 0.9243 -4.14417 0
M  V30 8285 O 816.542 0.709211 -3.49068 0
M  V30 8286 O 815.401 1.33323 -5.29988 0
M  V30 8287 H 812.495 0.236042 -0.792599 0
M  V30 8288 H 815.041 -0.277992 -1.67408 0
M  V30 8289 H 813.813 -0.310973 -3.90062 0
M  V30 8290 H 813.436 1.39485 -3.7233 0
M  V30 8291 N 814.433 1.57553 0.0384317 0
M  V30 8292 C 815.68 1.88841 0.731116 0
M  V30 8293 C 816.008 0.83093 1.75857 0
M  V30 8294 O 815.263 -0.169248 1.94967 0
M  V30 8295 C 815.562 3.26862 1.44554 0
M  V30 8296 C 815.228 4.47472 0.554946 0
M  V30 8297 C 813.89 4.80203 0.309621 0
M  V30 8298 C 816.242 5.21165 -0.0605204 0
M  V30 8299 C 813.57 5.8402 -0.560101 0
M  V30 8300 C 815.922 6.25905 -0.91789 0
M  V30 8301 C 814.586 6.57117 -1.17277 0
M  V30 8302 H 813.856 0.691018 0.267534 0
M  V30 8303 H 816.503 1.91498 -0.00883195 0
M  V30 8304 H 814.808 3.2015 2.25856 0
M  V30 8305 H 816.505 3.48316 1.98688 0
M  V30 8306 H 813.095 4.21874 0.756304 0
M  V30 8307 H 817.279 4.96164 0.116064 0
M  V30 8308 H 812.535 6.06583 -0.765974 0
M  V30 8309 H 816.709 6.82155 -1.40136 0
M  V30 8310 H 814.336 7.37385 -1.84843 0
M  V30 8311 N 815.911 -0.310526 1.54511 0
M  V30 8312 C 817.136 -1.07046 1.7764 0
M  V30 8313 C 817.561 -1.80488 0.529696 0
M  V30 8314 O 816.919 -1.73702 -0.519361 0
M  V30 8315 C 816.967 -2.03411 2.97752 0
M  V30 8316 O 816.071 -3.11545 2.7021 0
M  V30 8317 H 815.412 -0.307994 0.588248 0
M  V30 8318 H 817.942 -0.350848 2.01569 0
M  V30 8319 H 817.952 -2.46048 3.2546 0
M  V30 8320 H 816.627 -1.49361 3.88155 0
M  V30 8321 H 815.204 -2.7349 2.53491 0
M  V30 8322 N 817.389 -1.46805 -0.573248 0
M  V30 8323 C 818.635 -1.5283 -1.33307 0
M  V30 8324 C 818.968 -0.183287 -1.93333 0
M  V30 8325 O 818.243 0.806354 -1.76998 0
M  V30 8326 C 818.526 -2.63414 -2.45531 0
M  V30 8327 C 818.379 -4.07478 -1.90478 0
M  V30 8328 C 819.698 -2.70014 -3.47535 0
M  V30 8329 H 816.817 -0.556371 -0.483343 0
M  V30 8330 H 819.459 -1.78787 -0.643066 0
M  V30 8331 H 817.609 -2.41412 -3.04389 0
M  V30 8332 H 819.281 -4.40795 -1.36004 0
M  V30 8333 H 817.524 -4.16511 -1.21248 0
M  V30 8334 H 818.195 -4.80598 -2.71531 0
M  V30 8335 H 820.671 -2.89817 -2.98572 0
M  V30 8336 H 819.547 -3.49192 -4.23504 0
M  V30 8337 H 819.808 -1.76436 -4.05367 0
M  V30 8338 N 818.867 0.818669 -1.34668 0
M  V30 8339 C 820.278 1.39177 -1.24446 0
M  V30 8340 C 820.629 1.9578 0.128268 0
M  V30 8341 O 819.754 1.90382 1.02877 0
M  V30 8342 C 820.349 2.53012 -2.25323 0
M  V30 8343 C 818.908 3.06218 -2.18878 0
M  V30 8344 C 818.055 1.79112 -2.11694 0
M  V30 8345 H 821.006 0.622709 -1.45973 0
M  V30 8346 H 821.027 3.31226 -1.8727 0
M  V30 8347 H 820.539 2.11784 -3.25221 0
M  V30 8348 H 818.64 3.51939 -1.22351 0
M  V30 8349 H 818.753 3.65019 -3.10319 0
M  V30 8350 H 817.117 2.0018 -1.57481 0
M  V30 8351 H 817.9 1.40053 -3.13433 0
M  V30 8352 N 820.346 1.18468 1.03938 0
M  V30 8353 C 821.593 0.980833 1.77161 0
M  V30 8354 C 821.921 -0.489425 1.88242 0
M  V30 8355 O 821.176 -1.37961 1.388 0
M  V30 8356 C 821.475 1.58229 3.20466 0
M  V30 8357 C 821.141 3.07889 3.29416 0
M  V30 8358 C 819.803 3.48737 3.31566 0
M  V30 8359 C 822.155 4.03903 3.29411 0
M  V30 8360 C 819.483 4.84171 3.31355 0
M  V30 8361 C 821.835 5.39253 3.3074 0
M  V30 8362 C 820.499 5.79547 3.31182 0
M  V30 8363 H 819.769 0.358912 0.648277 0
M  V30 8364 H 822.416 1.47552 1.22069 0
M  V30 8365 H 820.721 1.00964 3.78568 0
M  V30 8366 H 822.418 1.39998 3.75768 0
M  V30 8367 H 819.008 2.75335 3.28464 0
M  V30 8368 H 823.192 3.73395 3.2694 0
M  V30 8369 H 818.448 5.14685 3.30015 0
M  V30 8370 H 822.622 6.13417 3.29686 0
M  V30 8371 H 820.249 6.84466 3.30772 0
M  V30 8372 N 821.824 -1.22873 0.986916 0
M  V30 8373 C 823.07 -1.91746 0.660401 0
M  V30 8374 C 823.403 -1.76738 -0.804812 0
M  V30 8375 O 822.678 -1.13246 -1.58131 0
M  V30 8376 C 822.961 -3.44156 1.05966 0
M  V30 8377 C 822.814 -3.68242 2.58298 0
M  V30 8378 C 824.133 -4.35874 0.60842 0
M  V30 8379 H 821.252 -0.696347 0.241391 0
M  V30 8380 H 823.894 -1.44867 1.22937 0
M  V30 8381 H 822.044 -3.84213 0.575534 0
M  V30 8382 H 823.716 -3.37626 3.14335 0
M  V30 8383 H 821.959 -3.12728 3.00638 0
M  V30 8384 H 822.63 -4.74956 2.81285 0
M  V30 8385 H 825.106 -4.03299 1.02417 0
M  V30 8386 H 823.982 -5.41201 0.916142 0
M  V30 8387 H 824.243 -4.39364 -0.491086 0
M  V30 8388 N 823.302 -0.75937 -1.38099 0
M  V30 8389 C 824.212 -0.13774 -2.34195 0
M  V30 8390 C 825.228 0.693985 -1.59561 0
M  V30 8391 O 826.404 0.616792 -1.91723 0
M  V30 8392 C 823.469 0.740535 -3.38699 0
M  V30 8393 C 822.53 -0.106225 -4.29169 0
M  V30 8394 C 821.763 0.730225 -5.28681 0
M  V30 8395 O 821.986 1.96796 -5.35376 0
M  V30 8396 O 820.92 0.145969 -6.01723 0
M  V30 8397 H 824.746 -0.931512 -2.89061 0
M  V30 8398 H 822.331 -0.520345 -1.40046 0
M  V30 8399 H 824.213 1.24232 -4.02672 0
M  V30 8400 H 822.888 1.51271 -2.8618 0
M  V30 8401 H 821.795 -0.654088 -3.68337 0
M  V30 8402 H 823.128 -0.841186 -4.84959 0
M  V30 8403 N 824.78 1.49157 -0.508906 0
M  V30 8404 C 826.008 2.06879 0.0293734 0
M  V30 8405 C 826.423 1.36823 1.30095 0
M  V30 8406 O 825.78 0.449034 1.7689 0
M  V30 8407 C 825.831 3.60423 0.278791 0
M  V30 8408 O 825.552 4.27844 -0.942389 0
M  V30 8409 C 827.053 4.34881 0.859825 0
M  V30 8410 H 824.273 0.67057 -0.0240184 0
M  V30 8411 H 826.817 1.91834 -0.708526 0
M  V30 8412 H 824.972 3.75145 0.966689 0
M  V30 8413 H 825.386 5.19671 -0.710097 0
M  V30 8414 H 826.86 5.43161 0.983884 0
M  V30 8415 H 827.337 3.9789 1.85958 0
M  V30 8416 H 827.943 4.24785 0.209152 0
M  V30 8417 N 826.258 0.243083 1.55714 0
M  V30 8418 C 827.506 -0.381964 1.98458 0
M  V30 8419 C 827.827 -1.58745 1.13247 0
M  V30 8420 O 827.097 -1.94723 0.214384 0
M  V30 8421 H 825.677 -0.144114 0.732967 0
M  V30 8422 H 828.339 0.340985 1.91894 0
M  V30 8423 H 827.435 -0.693702 3.04293 0
M  V30 8424 N 827.736 -1.57571 -0.0300757 0
M  V30 8425 C 828.985 -1.88407 -0.720126 0
M  V30 8426 C 829.298 -0.841466 -1.76575 0
M  V30 8427 O 830.504 -1.03902 -2.50832 0
M  V30 8428 C 828.96 -3.34348 -1.33188 0
M  V30 8429 C 828.568 -4.46837 -0.32266 0
M  V30 8430 C 830.312 -3.74333 -2.00187 0
M  V30 8431 C 828.219 -5.83838 -0.942703 0
M  V30 8432 H 827.149 -0.702952 -0.272718 0
M  V30 8433 H 829.8 -1.83482 0.0255337 0
M  V30 8434 H 828.182 -3.34014 -2.12721 0
M  V30 8435 H 829.356 -4.58638 0.445887 0
M  V30 8436 H 827.671 -4.15678 0.245181 0
M  V30 8437 H 830.268 -4.74008 -2.47428 0
M  V30 8438 H 830.611 -3.06275 -2.81959 0
M  V30 8439 H 831.144 -3.76837 -1.2743 0
M  V30 8440 H 827.883 -6.55294 -0.164413 0
M  V30 8441 H 827.403 -5.75759 -1.68111 0
M  V30 8442 H 829.082 -6.30535 -1.45034 0
M  V30 8443 N 829.214 0.302327 -1.54673 0
M  V30 8444 C 830.439 1.06103 -1.78205 0
M  V30 8445 C 830.864 1.80204 -0.53926 0
M  V30 8446 O 830.222 1.73975 0.510142 0
M  V30 8447 C 830.27 2.01829 -2.98827 0
M  V30 8448 O 829.374 3.10108 -2.71858 0
M  V30 8449 H 828.715 0.30487 -0.589873 0
M  V30 8450 H 831.245 0.340153 -2.01753 0
M  V30 8451 H 831.255 2.44319 -3.2676 0
M  V30 8452 H 829.93 1.473 -3.88942 0
M  V30 8453 H 828.507 2.72142 -2.54937 0
M  V30 8454 N 830.692 1.47107 0.565454 0
M  V30 8455 C 831.938 1.53535 1.32495 0
M  V30 8456 C 832.271 0.193537 1.93233 0
M  V30 8457 O 831.546 -0.796956 1.77423 0
M  V30 8458 C 831.829 2.64712 2.4413 0
M  V30 8459 C 831.682 4.08482 1.88314 0
M  V30 8460 C 833.001 2.71853 3.46098 0
M  V30 8461 H 830.12 0.558926 0.480386 0
M  V30 8462 H 832.762 1.79125 0.633575 0
M  V30 8463 H 830.912 2.43023 3.03104 0
M  V30 8464 H 832.584 4.4151 1.33665 0
M  V30 8465 H 830.827 4.17148 1.19037 0
M  V30 8466 H 831.498 4.82032 2.68978 0
M  V30 8467 H 833.974 2.91397 2.97031 0
M  V30 8468 H 832.85 3.51433 4.21646 0
M  V30 8469 H 833.111 1.78584 4.04426 0
M  V30 8470 N 832.17 -0.811516 1.35101 0
M  V30 8471 C 833.103 -1.92872 1.21966 0
M  V30 8472 C 834.081 -1.62236 0.108667 0
M  V30 8473 O 835.265 -1.8647 0.275875 0
M  V30 8474 C 832.392 -3.27152 0.876886 0
M  V30 8475 C 831.438 -3.7674 1.99924 0
M  V30 8476 S 832.271 -3.95132 3.61429 0
M  V30 8477 C 833.427 -5.32322 3.29218 0
M  V30 8478 H 833.66 -2.03718 2.16532 0
M  V30 8479 H 831.193 -0.968352 1.20259 0
M  V30 8480 H 833.151 -4.04729 0.685917 0
M  V30 8481 H 831.812 -3.14059 -0.0506289 0
M  V30 8482 H 831.005 -4.73981 1.71343 0
M  V30 8483 H 830.607 -3.06145 2.14829 0
M  V30 8484 H 832.899 -6.1614 2.8174 0
M  V30 8485 H 833.842 -5.65893 4.25641 0
M  V30 8486 H 834.25 -4.98374 2.65111 0
M  V30 8487 N 833.648 -1.19017 -1.03309 0
M  V30 8488 C 834.894 -0.991681 -1.769 0
M  V30 8489 C 835.227 0.476813 -1.88255 0
M  V30 8490 O 834.502 1.35407 -1.39625 0
M  V30 8491 C 834.785 -1.65627 -3.19749 0
M  V30 8492 C 834.638 -3.19813 -3.1629 0
M  V30 8493 C 835.957 -1.37579 -4.18043 0
M  V30 8494 H 833.076 -0.361674 -0.642153 0
M  V30 8495 H 835.718 -1.46795 -1.20628 0
M  V30 8496 H 833.868 -1.25132 -3.67796 0
M  V30 8497 H 835.54 -3.69494 -2.76174 0
M  V30 8498 H 833.783 -3.51578 -2.54117 0
M  V30 8499 H 834.454 -3.61457 -4.17196 0
M  V30 8500 H 836.93 -1.72679 -3.78578 0
M  V30 8501 H 835.806 -1.86636 -5.16196 0
M  V30 8502 H 836.067 -0.300118 -4.4108 0
M  V30 8503 N 835.127 1.22348 -0.993418 0
M  V30 8504 C 836.09 2.22522 -0.549251 0
M  V30 8505 C 837.09 1.56529 0.368164 0
M  V30 8506 O 838.28 1.73463 0.16005 0
M  V30 8507 C 835.412 3.40307 0.201037 0
M  V30 8508 H 836.605 2.63332 -1.43515 0
M  V30 8509 H 834.158 1.35407 -0.78068 0
M  V30 8510 H 834.893 3.0497 1.10289 0
M  V30 8511 H 834.678 3.8942 -0.457685 0
M  V30 8512 H 836.168 4.14597 0.499946 0
M  V30 8513 N 836.605 0.766683 1.37694 0
M  V30 8514 C 838.021 0.445739 1.53249 0
M  V30 8515 C 838.221 -1.03935 1.72626 0
M  V30 8516 O 837.277 -1.82525 1.74473 0
M  V30 8517 C 838.59 1.2564 2.73194 0
M  V30 8518 C 840.138 1.24779 2.87053 0
M  V30 8519 C 840.613 2.04169 4.09974 0
M  V30 8520 N 842.104 2.01497 4.17077 0
M  V30 8521 C 842.839 2.5971 5.11212 0
M  V30 8522 N 842.335 3.26691 6.10938 0
M  V30 8523 N 844.128 2.49568 5.03659 0
M  V30 8524 H 836.279 1.72899 1.23368 0
M  V30 8525 H 838.542 0.733701 0.600322 0
M  V30 8526 H 838.248 2.30859 2.65324 0
M  V30 8527 H 838.122 0.882133 3.6674 0
M  V30 8528 H 840.509 0.203603 2.94397 0
M  V30 8529 H 840.59 1.66166 1.9448 0
M  V30 8530 H 840.234 3.08606 4.03392 0
M  V30 8531 H 840.164 1.60167 5.01651 0
M  V30 8532 H 842.655 1.52728 3.45662 0
M  V30 8533 H 842.968 3.68497 6.79286 0
M  V30 8534 H 841.313 3.30789 6.11231 0
M  V30 8535 H 844.504 1.96859 4.24693 0
M  V30 8536 H 844.677 2.95231 5.76839 0
M  V30 8537 N 838.083 -1.48885 0.516809 0
M  V30 8538 C 839.308 -2.0739 -0.0205201 0
M  V30 8539 C 839.733 -1.37259 -1.28614 0
M  V30 8540 O 839.091 -0.434304 -1.76021 0
M  V30 8541 C 839.139 -3.59793 -0.24104 0
M  V30 8542 O 838.243 -3.90957 -1.31251 0
M  V30 8543 H 837.584 -0.663167 0.0332564 0
M  V30 8544 H 840.114 -1.91477 0.720956 0
M  V30 8545 H 840.124 -4.0531 -0.467737 0
M  V30 8546 H 838.799 -4.10244 0.68356 0
M  V30 8547 H 837.376 -3.57234 -1.06951 0
M  V30 8548 N 839.561 -0.251338 -1.55583 0
M  V30 8549 C 840.509 0.662534 -2.22965 0
M  V30 8550 C 841.503 1.17662 -1.21869 0
M  V30 8551 O 842.709 1.133 -1.39868 0
M  V30 8552 H 839.084 0.232151 -0.715269 0
M  V30 8553 H 841.055 0.0711252 -2.98315 0
M  V30 8554 C 839.804 1.84646 -2.94621 0
M  V30 8555 H 839.127 1.46003 -3.72187 0
M  V30 8556 H 840.567 2.46303 -3.45124 0
M  V30 8557 C 839.026 2.72034 -1.98744 0
M  V30 8558 O 839.556 3.71695 -1.52335 0
M  V30 8559 N 837.762 2.38695 -1.6575 0
M  V30 8560 H 837.309 1.57702 -2.03685 0
M  V30 8561 H 837.267 2.9744 -1.01867 0
M  V30 8562 N 841.039 1.57585 0.0217189 0
M  V30 8563 C 842.287 1.89231 0.709641 0
M  V30 8564 C 842.608 0.849964 1.75501 0
M  V30 8565 O 841.878 -0.115485 1.95559 0
M  V30 8566 H 840.458 0.69838 0.265092 0
M  V30 8567 H 843.12 1.94895 -0.0140688 0
M  V30 8568 H 842.216 2.88333 1.19459 0
M  V30 8569 N 842.517 -0.29412 1.54831 0
M  V30 8570 C 843.745 -1.04724 1.78439 0
M  V30 8571 C 844.16 -1.80695 0.547239 0
M  V30 8572 O 843.517 -1.75989 -0.483141 0
M  V30 8573 C 843.568 -2.02242 2.99634 0
M  V30 8574 O 843.289 -1.29352 4.18568 0
M  V30 8575 C 844.79 -2.89537 3.35683 0
M  V30 8576 H 842.01 -0.310285 0.594949 0
M  V30 8577 H 844.554 -0.331306 2.01798 0
M  V30 8578 H 842.709 -2.69328 2.78462 0
M  V30 8579 H 843.123 -1.94901 4.86943 0
M  V30 8580 H 844.597 -3.538 4.23709 0
M  V30 8581 H 845.074 -3.58201 2.54143 0
M  V30 8582 H 845.68 -2.27973 3.59038 0
M  V30 8583 N 843.995 -1.47404 -0.557645 0
M  V30 8584 C 845.241 -1.54235 -1.31679 0
M  V30 8585 C 845.574 -0.203782 -1.93128 0
M  V30 8586 O 844.849 0.787536 -1.77843 0
M  V30 8587 C 845.132 -2.66003 -2.42723 0
M  V30 8588 C 844.985 -4.09475 -1.86145 0
M  V30 8589 C 846.304 -2.73685 -3.44652 0
M  V30 8590 H 843.423 -0.561466 -0.477415 0
M  V30 8591 H 846.065 -1.79459 -0.624067 0
M  V30 8592 H 844.215 -2.44627 -3.01811 0
M  V30 8593 H 845.887 -4.42213 -1.31321 0
M  V30 8594 H 844.13 -4.17774 -1.16823 0
M  V30 8595 H 844.801 -4.83451 -2.66418 0
M  V30 8596 H 847.277 -2.92968 -2.95481 0
M  V30 8597 H 846.153 -3.53665 -4.19777 0
M  V30 8598 H 846.414 -1.80726 -4.03473 0
M  V30 8599 N 845.473 0.80434 -1.35529 0
M  V30 8600 C 846.698 1.598 -1.32207 0
M  V30 8601 C 847.123 1.87848 0.0974226 0
M  V30 8602 O 846.481 1.46728 1.06492 0
M  V30 8603 C 846.529 2.90483 -2.13663 0
M  V30 8604 O 845.633 3.83411 -1.51888 0
M  V30 8605 H 844.974 0.485305 -0.453183 0
M  V30 8606 H 847.504 0.998119 -1.78602 0
M  V30 8607 H 847.514 3.39888 -2.257 0
M  V30 8608 H 846.189 2.69395 -3.16859 0
M  V30 8609 H 844.766 3.41967 -1.48704 0
M  V30 8610 N 846.951 1.19563 1.02676 0
M  V30 8611 C 848.362 1.00158 1.57561 0
M  V30 8612 C 848.713 -0.444922 1.91089 0
M  V30 8613 O 847.838 -1.32466 1.71119 0
M  V30 8614 C 848.433 1.81181 2.86284 0
M  V30 8615 C 846.992 1.66171 3.37734 0
M  V30 8616 C 846.139 1.7975 2.11152 0
M  V30 8617 H 849.09 1.33904 0.85179 0
M  V30 8618 H 849.111 1.30916 3.57269 0
M  V30 8619 H 848.623 2.86454 2.6185 0
M  V30 8620 H 846.724 0.634927 3.6715 0
M  V30 8621 H 846.837 2.46832 4.10622 0
M  V30 8622 H 845.201 1.22833 2.23123 0
M  V30 8623 H 845.984 2.86487 1.89157 0
M  V30 8624 N 848.429 -1.21819 0.999893 0
M  V30 8625 C 849.654 -1.95298 0.698094 0
M  V30 8626 C 850.079 -1.73273 -0.731982 0
M  V30 8627 O 849.437 -1.01634 -1.50134 0
M  V30 8628 C 849.485 -3.45922 1.01834 0
M  V30 8629 O 848.589 -4.12223 0.120801 0
M  V30 8630 H 847.93 -0.610729 0.260588 0
M  V30 8631 H 850.46 -1.5472 1.33876 0
M  V30 8632 H 850.47 -3.96471 0.963074 0
M  V30 8633 H 849.145 -3.61278 2.06037 0
M  V30 8634 H 847.722 -3.72177 0.232153 0
M  V30 8635 N 849.908 -0.773975 -1.37286 0
M  V30 8636 C 850.871 -0.167974 -2.28584 0
M  V30 8637 C 851.871 0.625662 -1.48129 0
M  V30 8638 O 853.061 0.448924 -1.68316 0
M  V30 8639 C 850.193 0.769364 -3.32105 0
M  V30 8640 H 851.386 -0.972806 -2.83684 0
M  V30 8641 H 848.939 -0.542335 -1.46589 0
M  V30 8642 H 849.674 1.59912 -2.82132 0
M  V30 8643 H 849.459 0.202419 -3.91577 0
M  V30 8644 H 850.949 1.18872 -4.00324 0
M  V30 8645 N 851.386 1.48609 -0.524698 0
M  V30 8646 C 852.633 2.02497 0.0113214 0
M  V30 8647 C 852.961 1.40229 1.34781 0
M  V30 8648 O 852.216 0.53557 1.88229 0
M  V30 8649 C 852.515 3.56906 0.187873 0
M  V30 8650 C 852.181 4.37932 -1.07359 0
M  V30 8651 C 850.843 4.59792 -1.41933 0
M  V30 8652 C 853.195 4.84902 -1.911 0
M  V30 8653 C 850.523 5.25868 -2.60154 0
M  V30 8654 C 852.875 5.52281 -3.08495 0
M  V30 8655 C 851.539 5.7238 -3.4342 0
M  V30 8656 H 850.809 0.740988 0.0041428 0
M  V30 8657 H 853.456 1.78651 -0.689652 0
M  V30 8658 H 851.761 3.79563 0.971572 0
M  V30 8659 H 853.458 3.96218 0.617443 0
M  V30 8660 H 850.048 4.21175 -0.794331 0
M  V30 8661 H 854.232 4.67821 -1.65701 0
M  V30 8662 H 849.488 5.39628 -2.87422 0
M  V30 8663 H 853.662 5.87645 -3.73692 0
M  V30 8664 H 851.289 6.23354 -4.35126 0
M  V30 8665 N 852.864 0.259585 1.55447 0
M  V30 8666 C 853.794 -0.62852 2.24882 0
M  V30 8667 C 854.775 -1.17128 1.23349 0
M  V30 8668 O 855.96 -1.20829 1.52033 0
M  V30 8669 C 853.09 -1.81983 2.95803 0
M  V30 8670 C 852.044 -1.40929 4.04132 0
M  V30 8671 C 851.37 -2.68246 4.62545 0
M  V30 8672 C 852.67 -0.570956 5.1917 0
M  V30 8673 H 854.364 -0.0495021 2.99359 0
M  V30 8674 H 851.91 -0.0223688 1.43983 0
M  V30 8675 H 853.863 -2.44689 3.43082 0
M  V30 8676 H 852.587 -2.42444 2.18835 0
M  V30 8677 H 851.246 -0.805519 3.57641 0
M  V30 8678 H 850.894 -3.26931 3.82263 0
M  V30 8679 H 850.594 -2.41495 5.35681 0
M  V30 8680 H 852.118 -3.31827 5.12565 0
M  V30 8681 H 853.532 -1.10262 5.62597 0
M  V30 8682 H 851.929 -0.398979 5.98772 0
M  V30 8683 H 852.999 0.413918 4.8313 0
M  V30 8684 N 854.342 -1.57594 -0.0133615 0
M  V30 8685 C 855.252 -2.10991 -1.02566 0
M  V30 8686 C 856.268 -1.05208 -1.3859 0
M  V30 8687 O 857.444 -1.37034 -1.47593 0
M  V30 8688 C 854.509 -2.59165 -2.30292 0
M  V30 8689 C 853.57 -3.79495 -2.00704 0
M  V30 8690 C 852.803 -4.25361 -3.22341 0
M  V30 8691 O 853.026 -3.70645 -4.33565 0
M  V30 8692 O 851.96 -5.17649 -3.07121 0
M  V30 8693 H 855.786 -2.97678 -0.601806 0
M  V30 8694 H 853.371 -1.47598 -0.23135 0
M  V30 8695 H 855.253 -2.90409 -3.05354 0
M  V30 8696 H 853.928 -1.75582 -2.71942 0
M  V30 8697 H 852.835 -3.53245 -1.23161 0
M  V30 8698 H 854.168 -4.64109 -1.639 0
M  V30 8699 N 855.82 0.285905 -1.54985 0
M  V30 8700 C 857.231 0.857869 -1.65824 0
M  V30 8701 C 857.582 1.87531 -0.576763 0
M  V30 8702 O 856.707 2.14528 0.284016 0
M  V30 8703 C 857.302 1.56277 -3.00604 0
M  V30 8704 C 855.861 2.08294 -3.13513 0
M  V30 8705 C 855.008 0.920633 -2.61571 0
M  V30 8706 H 857.959 0.0625463 -1.58577 0
M  V30 8707 H 857.98 2.42912 -2.92872 0
M  V30 8708 H 857.492 0.822017 -3.79295 0
M  V30 8709 H 855.593 2.8537 -2.39572 0
M  V30 8710 H 855.706 2.3071 -4.19892 0
M  V30 8711 H 854.07 1.31043 -2.18403 0
M  V30 8712 H 854.853 0.193594 -3.42754 0
M  V30 8713 N 857.298 1.47698 0.54982 0
M  V30 8714 C 858.528 1.58101 1.32995 0
M  V30 8715 C 858.936 0.232939 1.87761 0
M  V30 8716 O 858.279 -0.785058 1.6608 0
M  V30 8717 C 858.341 2.55228 2.53178 0
M  V30 8718 C 858.005 4.00756 2.19645 0
M  V30 8719 C 859.002 4.89025 1.76496 0
M  V30 8720 C 856.687 4.46147 2.30777 0
M  V30 8721 C 858.681 6.20707 1.44919 0
M  V30 8722 C 856.368 5.77856 1.98812 0
M  V30 8723 C 857.366 6.64957 1.55952 0
M  V30 8724 O 857.054 7.94217 1.24396 0
M  V30 8725 H 856.786 0.536362 0.411451 0
M  V30 8726 H 859.34 1.94092 0.67212 0
M  V30 8727 H 857.57 2.14319 3.21876 0
M  V30 8728 H 859.259 2.55678 3.15251 0
M  V30 8729 H 860.025 4.55201 1.67383 0
M  V30 8730 H 855.904 3.78552 2.63096 0
M  V30 8731 H 859.448 6.88649 1.11392 0
M  V30 8732 H 855.345 6.11219 2.0756 0
M  V30 8733 H 856.113 8.06789 1.37964 0
M  V30 8734 N 858.776 -0.797141 1.35954 0
M  V30 8735 C 860.001 -1.59097 1.33053 0
M  V30 8736 C 860.426 -1.87897 -0.0874592 0
M  V30 8737 O 859.784 -1.47291 -1.05712 0
M  V30 8738 C 859.832 -2.89346 2.152 0
M  V30 8739 O 858.936 -3.826 1.5392 0
M  V30 8740 H 858.277 -0.482895 0.45575 0
M  V30 8741 H 860.807 -0.988633 1.79129 0
M  V30 8742 H 860.817 -3.38686 2.27499 0
M  V30 8743 H 859.492 -2.6771 3.18283 0
M  V30 8744 H 858.069 -3.41174 1.50516 0
M  V30 8745 N 860.254 -1.20106 -1.0204 0
M  V30 8746 C 861.665 -1.00992 -1.57027 0
M  V30 8747 C 862.016 0.434782 -1.91322 0
M  V30 8748 O 861.141 1.31557 -1.71819 0
M  V30 8749 C 861.736 -1.82697 -2.85319 0
M  V30 8750 C 860.295 -1.67959 -3.36848 0
M  V30 8751 C 859.442 -1.80868 -2.10195 0
M  V30 8752 H 862.393 -1.34354 -0.844676 0
M  V30 8753 H 862.414 -1.32809 -3.5657 0
M  V30 8754 H 861.926 -2.87839 -2.60328 0
M  V30 8755 H 860.027 -0.654389 -3.66809 0
M  V30 8756 H 860.14 -2.49006 -4.09308 0
M  V30 8757 H 858.504 -1.24015 -2.22469 0
M  V30 8758 H 859.287 -2.87486 -1.87635 0
M  V30 8759 N 861.732 1.21287 -1.00634 0
M  V30 8760 C 862.695 2.21927 -0.572821 0
M  V30 8761 C 863.695 1.5691 0.351541 0
M  V30 8762 O 864.885 1.73623 0.141643 0
M  V30 8763 C 862.017 3.40501 0.164932 0
M  V30 8764 H 863.21 2.61795 -1.463 0
M  V30 8765 H 860.763 1.34571 -0.794998 0
M  V30 8766 H 861.498 3.06123 1.07049 0
M  V30 8767 H 861.283 3.88912 -0.498962 0
M  V30 8768 H 862.773 4.15103 0.455945 0
M  V30 8769 N 863.21 0.781244 1.36873 0
M  V30 8770 C 864.456 0.350407 1.9975 0
M  V30 8771 C 864.789 -1.07293 1.6187 0
M  V30 8772 O 864.064 -1.73983 0.869491 0
M  V30 8773 C 864.347 0.504834 3.56544 0
M  V30 8774 C 864.2 1.97127 4.04303 0
M  V30 8775 C 865.519 -0.0851272 4.40018 0
M  V30 8776 H 862.638 0.128794 0.725659 0
M  V30 8777 H 865.28 0.98606 1.6241 0
M  V30 8778 H 863.43 -0.0363006 3.88483 0
M  V30 8779 H 865.102 2.57284 3.82887 0
M  V30 8780 H 863.345 2.47676 3.56145 0
M  V30 8781 H 864.016 2.03033 5.13305 0
M  V30 8782 H 866.492 0.376704 4.14391 0
M  V30 8783 H 865.368 0.0530015 5.48874 0
M  V30 8784 H 865.629 -1.17642 4.2616 0
M  V30 8785 N 864.689 -1.48329 0.532571 0
M  V30 8786 C 865.935 -2.03399 0.00755104 0
M  V30 8787 C 866.29 -1.40213 -1.3175 0
M  V30 8788 O 865.583 -0.539633 -1.83844 0
M  V30 8789 C 865.777 -3.57 -0.168943 0
M  V30 8790 C 865.606 -4.35077 1.13745 0
M  V30 8791 C 864.376 -4.75915 1.69803 0
M  V30 8792 C 866.574 -4.71734 2.04869 0
M  V30 8793 N 864.556 -5.38538 2.94703 0
M  V30 8794 C 865.927 -5.34403 3.14346 0
M  V30 8795 C 867.982 -4.53665 2.05164 0
M  V30 8796 C 866.685 -5.80912 4.24186 0
M  V30 8797 C 868.711 -5.01157 3.13999 0
M  V30 8798 C 868.073 -5.63853 4.22195 0
M  V30 8799 H 864.172 -0.780743 0.0443253 0
M  V30 8800 H 866.756 -1.81119 0.714423 0
M  V30 8801 H 864.927 -3.79099 -0.844903 0
M  V30 8802 H 866.659 -3.98708 -0.693804 0
M  V30 8803 H 863.414 -4.57103 1.23909 0
M  V30 8804 H 863.838 -5.74413 3.583 0
M  V30 8805 H 868.48 -4.04571 1.22808 0
M  V30 8806 H 866.198 -6.2901 5.07318 0
M  V30 8807 H 869.784 -4.88965 3.15285 0
M  V30 8808 H 868.664 -5.99935 5.05023 0
M  V30 8809 N 866.167 -0.267825 -1.55308 0
M  V30 8810 C 867.413 0.351556 -1.9973 0
M  V30 8811 C 867.746 1.56049 -1.15596 0
M  V30 8812 O 867.021 1.93203 -0.224274 0
M  V30 8813 C 867.304 0.74091 -3.52395 0
M  V30 8814 C 867.157 -0.474861 -4.47286 0
M  V30 8815 C 868.476 1.5801 -4.10756 0
M  V30 8816 H 865.595 0.126308 -0.726096 0
M  V30 8817 H 868.237 -0.373316 -1.86296 0
M  V30 8818 H 866.387 1.35851 -3.63973 0
M  V30 8819 H 868.059 -1.1134 -4.47662 0
M  V30 8820 H 866.302 -1.11425 -4.19246 0
M  V30 8821 H 866.973 -0.158782 -5.51772 0
M  V30 8822 H 869.449 1.05857 -4.0241 0
M  V30 8823 H 868.325 1.82135 -5.17801 0
M  V30 8824 H 868.586 2.55878 -3.60526 0
M  V30 8825 N 867.645 1.57599 0.00500368 0
M  V30 8826 C 868.578 2.03541 1.03181 0
M  V30 8827 C 869.556 0.924301 1.33774 0
M  V30 8828 O 870.74 1.19204 1.46023 0
M  V30 8829 C 867.867 2.42879 2.36067 0
M  V30 8830 C 866.913 3.64673 2.21169 0
M  V30 8831 S 867.746 5.12805 1.54243 0
M  V30 8832 C 868.902 5.55408 2.88569 0
M  V30 8833 H 869.135 2.90316 0.640598 0
M  V30 8834 H 866.668 1.52886 0.215722 0
M  V30 8835 H 868.626 2.66212 3.12476 0
M  V30 8836 H 867.287 1.56512 2.72329 0
M  V30 8837 H 866.48 3.89932 3.19326 0
M  V30 8838 H 866.082 3.41316 1.52904 0
M  V30 8839 H 868.374 5.57563 3.84876 0
M  V30 8840 H 869.317 6.55418 2.68016 0
M  V30 8841 H 869.725 4.82961 2.92249 0
M  V30 8842 N 869.123 -0.277682 1.55134 0
M  V30 8843 C 870.056 -1.3685 1.82612 0
M  V30 8844 C 871.034 -1.47752 0.678833 0
M  V30 8845 O 872.218 -1.6445 0.921329 0
M  V30 8846 C 869.345 -2.74539 1.98359 0
M  V30 8847 C 868.391 -2.80945 3.20893 0
M  V30 8848 S 869.224 -2.40666 4.78373 0
M  V30 8849 C 870.38 -3.80338 4.97085 0
M  V30 8850 H 870.613 -1.13338 2.74849 0
M  V30 8851 H 868.146 -0.477063 1.46845 0
M  V30 8852 H 870.104 -3.53834 2.08115 0
M  V30 8853 H 868.765 -2.95306 1.07019 0
M  V30 8854 H 867.958 -3.81992 3.28783 0
M  V30 8855 H 867.56 -2.09667 3.09703 0
M  V30 8856 H 869.852 -4.75565 4.8254 0
M  V30 8857 H 870.795 -3.77403 5.99143 0
M  V30 8858 H 871.203 -3.71424 4.25094 0
M  V30 8859 N 870.601 -1.47988 -0.541979 0
M  V30 8860 C 871.848 -1.55393 -1.29843 0
M  V30 8861 C 872.176 -0.222668 -1.93221 0
M  V30 8862 O 871.431 0.785936 -1.79225 0
M  V30 8863 C 871.73 -2.63189 -2.41798 0
M  V30 8864 C 871.396 -4.05999 -1.96151 0
M  V30 8865 C 870.058 -4.44872 -1.83419 0
M  V30 8866 C 872.41 -4.95545 -1.61507 0
M  V30 8867 C 869.738 -5.71108 -1.34361 0
M  V30 8868 C 872.09 -6.22259 -1.13915 0
M  V30 8869 C 870.754 -6.59998 -0.997911 0
M  V30 8870 H 870.024 -0.568623 -0.47513 0
M  V30 8871 H 872.671 -1.81654 -0.606142 0
M  V30 8872 H 870.976 -2.30743 -3.16647 0
M  V30 8873 H 872.673 -2.66138 -2.99953 0
M  V30 8874 H 869.263 -3.75294 -2.07008 0
M  V30 8875 H 873.447 -4.662 -1.70209 0
M  V30 8876 H 868.703 -5.99083 -1.22103 0
M  V30 8877 H 872.877 -6.91048 -0.861755 0
M  V30 8878 H 870.504 -7.57704 -0.615561 0
M  V30 8879 N 872.079 0.78992 -1.36375 0
M  V30 8880 C 873.325 1.55007 -1.3077 0
M  V30 8881 C 873.658 1.93871 0.112979 0
M  V30 8882 O 872.933 1.6267 1.06625 0
M  V30 8883 C 873.216 2.82748 -2.22993 0
M  V30 8884 C 873.069 2.50253 -3.73756 0
M  V30 8885 C 874.388 3.84569 -2.13998 0
M  V30 8886 H 871.507 0.562362 -0.476359 0
M  V30 8887 H 874.149 0.907582 -1.66922 0
M  V30 8888 H 872.299 3.37573 -1.92292 0
M  V30 8889 H 873.971 2.01482 -4.14973 0
M  V30 8890 H 872.214 1.83203 -3.93216 0
M  V30 8891 H 872.885 3.41487 -4.33694 0
M  V30 8892 H 875.361 3.39188 -2.4102 0
M  V30 8893 H 874.237 4.717 -2.80697 0
M  V30 8894 H 874.498 4.27491 -1.12711 0
M  V30 8895 N 873.557 1.20646 1.01402 0
M  V30 8896 C 874.49 0.900926 2.09663 0
M  V30 8897 C 875.468 -0.14801 1.61925 0
M  V30 8898 O 876.652 -0.0210235 1.88488 0
M  V30 8899 C 873.779 0.351097 3.36875 0
M  V30 8900 C 872.825 1.38142 4.03508 0
M  V30 8901 S 873.658 2.94741 4.47089 0
M  V30 8902 C 874.814 2.41341 5.77499 0
M  V30 8903 H 875.047 1.81773 2.35257 0
M  V30 8904 H 872.58 1.03521 1.14555 0
M  V30 8905 H 874.538 0.0404201 4.1048 0
M  V30 8906 H 873.199 -0.544255 3.09349 0
M  V30 8907 H 872.392 0.94614 4.9504 0
M  V30 8908 H 871.994 1.63971 3.36139 0
M  V30 8909 H 874.286 1.81263 6.52802 0
M  V30 8910 H 875.229 3.31278 6.25828 0
M  V30 8911 H 875.637 1.83374 5.33886 0
M  V30 8912 N 875.035 -1.20752 1.01276 0
M  V30 8913 C 876.275 -1.91733 0.708372 0
M  V30 8914 C 876.639 -1.76836 -0.747855 0
M  V30 8915 O 877.84 -2.42262 -1.16458 0
M  V30 8916 C 876.111 -3.39155 1.12732 0
M  V30 8917 S 877.67 -4.28518 0.944325 0
M  V30 8918 H 874.488 -0.662394 0.25837 0
M  V30 8919 H 877.09 -1.46085 1.29921 0
M  V30 8920 H 875.794 -3.47516 2.18313 0
M  V30 8921 H 875.325 -3.89826 0.5291 0
M  V30 8922 H 877.34 -4.9596 -0.154278 0
M  V30 8923 N 876.513 -0.788492 -1.36457 0
M  V30 8924 C 877.443 -0.200468 -2.32638 0
M  V30 8925 C 878.424 0.664031 -1.56603 0
M  V30 8926 O 879.609 0.598045 -1.84762 0
M  V30 8927 C 876.739 0.666274 -3.40849 0
M  V30 8928 C 875.693 -0.0982574 -4.27887 0
M  V30 8929 C 875.019 0.889018 -5.27258 0
M  V30 8930 C 876.319 -1.28692 -5.06197 0
M  V30 8931 H 878.013 -1.00399 -2.82065 0
M  V30 8932 H 875.559 -0.484237 -1.35614 0
M  V30 8933 H 877.512 1.08757 -4.07124 0
M  V30 8934 H 876.236 1.50249 -2.89987 0
M  V30 8935 H 874.895 -0.500525 -3.63167 0
M  V30 8936 H 874.543 1.72024 -4.7267 0
M  V30 8937 H 874.243 0.381909 -5.86358 0
M  V30 8938 H 875.767 1.30891 -5.96406 0
M  V30 8939 H 877.181 -0.941429 -5.65517 0
M  V30 8940 H 875.578 -1.72726 -5.74705 0
M  V30 8941 H 876.648 -2.08273 -4.37893 0
M  V30 8942 N 877.991 1.48044 -0.54043 0
M  V30 8943 C 879.219 2.06895 -0.0145153 0
M  V30 8944 C 879.634 1.39552 1.27164 0
M  V30 8945 O 878.991 0.486454 1.75897 0
M  V30 8946 C 879.042 3.60934 0.202278 0
M  V30 8947 O 878.763 4.25749 -1.03293 0
M  V30 8948 C 880.264 4.36607 0.767387 0
M  V30 8949 H 877.484 0.66991 -0.0382368 0
M  V30 8950 H 880.028 1.90288 -0.749057 0
M  V30 8951 H 878.183 3.77111 0.886897 0
M  V30 8952 H 878.597 5.18048 -0.820167 0
M  V30 8953 H 880.071 5.45126 0.86845 0
M  V30 8954 H 880.548 4.01745 1.77477 0
M  V30 8955 H 881.154 4.25133 0.119002 0
M  V30 8956 N 879.47 0.276058 1.55163 0
M  V30 8957 C 880.716 -0.340959 1.99913 0
M  V30 8958 C 881.049 -1.55434 1.16422 0
M  V30 8959 O 880.324 -1.93081 0.234517 0
M  V30 8960 C 880.607 -0.722211 3.52783 0
M  V30 8961 C 880.46 0.498575 4.47028 0
M  V30 8962 C 881.779 -1.5583 4.11589 0
M  V30 8963 H 878.898 -0.122455 0.726756 0
M  V30 8964 H 881.54 0.38319 1.86096 0
M  V30 8965 H 879.69 -1.33919 3.64689 0
M  V30 8966 H 881.362 1.13713 4.47065 0
M  V30 8967 H 879.605 1.13646 4.18649 0
M  V30 8968 H 880.276 0.188041 5.5168 0
M  V30 8969 H 882.752 -1.03722 4.02965 0
M  V30 8970 H 881.628 -1.79387 5.1876 0
M  V30 8971 H 881.889 -2.53963 3.61877 0
M  V30 8972 N 880.948 -1.576 0.00335426 0
M  V30 8973 C 882.194 -1.90996 -0.681799 0
M  V30 8974 C 882.527 -0.877643 -1.73237 0
M  V30 8975 O 881.802 0.103183 -1.94226 0
M  V30 8976 C 882.085 -3.34961 -1.32187 0
M  V30 8977 C 881.938 -4.48911 -0.28261 0
M  V30 8978 C 883.257 -3.78408 -2.24711 0
M  V30 8979 H 880.376 -0.694596 -0.246386 0
M  V30 8980 H 883.018 -1.89919 0.055336 0
M  V30 8981 H 881.168 -3.36008 -1.95014 0
M  V30 8982 H 882.84 -4.59999 0.346241 0
M  V30 8983 H 881.083 -4.32 0.394768 0
M  V30 8984 H 881.754 -5.46609 -0.769576 0
M  V30 8985 H 884.23 -3.78934 -1.71897 0
M  V30 8986 H 883.106 -4.79885 -2.66461 0
M  V30 8987 H 883.367 -3.12464 -3.1276 0
M  V30 8988 N 882.426 0.269451 -1.5528 0
M  V30 8989 C 883.389 1.31642 -1.87625 0
M  V30 8990 C 884.389 1.42182 -0.751058 0
M  V30 8991 O 885.579 1.41272 -1.01921 0
M  V30 8992 C 882.711 2.6973 -2.08467 0
M  V30 8993 H 883.904 1.0419 -2.81219 0
M  V30 8994 H 881.457 0.507685 -1.47825 0
M  V30 8995 H 882.192 3.02356 -1.17266 0
M  V30 8996 H 881.977 2.63465 -2.90394 0
M  V30 8997 H 883.467 3.4537 -2.34753 0
M  V30 8998 N 883.904 1.48273 0.534124 0
M  V30 8999 C 885.15 1.56311 1.29208 0
M  V30 9000 C 885.483 0.234481 1.92779 0
M  V30 9001 O 884.758 -0.759143 1.79073 0
M  V30 9002 C 885.041 2.69831 2.3846 0
M  V30 9003 C 884.894 4.12385 1.79608 0
M  V30 9004 C 886.213 2.79133 3.40254 0
M  V30 9005 H 883.332 0.56899 0.468422 0
M  V30 9006 H 885.974 1.80429 0.595438 0
M  V30 9007 H 884.124 2.49397 2.97881 0
M  V30 9008 H 885.796 4.44246 1.24269 0
M  V30 9009 H 884.039 4.19579 1.10162 0
M  V30 9010 H 884.71 4.87629 2.58693 0
M  V30 9011 H 887.186 2.97632 2.90783 0
M  V30 9012 H 886.062 3.60298 4.14097 0
M  V30 9013 H 886.323 1.87122 4.00547 0
M  V30 9014 N 885.382 -0.782676 1.36792 0
M  V30 9015 C 886.61 -1.57162 1.34565 0
M  V30 9016 C 887.025 -1.88664 -0.0715501 0
M  V30 9017 O 886.382 -1.50633 -1.03033 0
M  V30 9018 C 886.433 -2.88854 2.1736 0
M  V30 9019 O 886.154 -2.58707 3.53557 0
M  V30 9020 C 887.655 -3.83132 2.2299 0
M  V30 9021 H 884.875 -0.487245 0.461338 0
M  V30 9022 H 887.419 -0.970905 1.79982 0
M  V30 9023 H 885.574 -3.45377 1.7548 0
M  V30 9024 H 885.988 -3.42961 3.96835 0
M  V30 9025 H 887.462 -4.72575 2.85266 0
M  V30 9026 H 887.939 -4.21472 1.23524 0
M  V30 9027 H 888.545 -3.32541 2.65135 0
M  V30 9028 N 886.86 -1.21182 -1.00761 0
M  V30 9029 C 888.106 -1.02898 -1.74756 0
M  V30 9030 C 888.439 0.436774 -1.89225 0
M  V30 9031 O 887.714 1.32415 -1.42466 0
M  V30 9032 C 887.997 -1.72372 -3.16164 0
M  V30 9033 C 887.85 -3.2645 -3.09435 0
M  V30 9034 C 889.169 -1.46415 -4.15031 0
M  V30 9035 H 886.288 -0.375214 -0.634337 0
M  V30 9036 H 888.93 -1.49321 -1.17487 0
M  V30 9037 H 887.08 -1.32906 -3.65059 0
M  V30 9038 H 888.752 -3.75269 -2.68274 0
M  V30 9039 H 886.995 -3.56889 -2.46603 0
M  V30 9040 H 887.666 -3.70226 -4.09435 0
M  V30 9041 H 890.142 -1.80671 -3.7483 0
M  V30 9042 H 889.018 -1.97544 -5.12121 0
M  V30 9043 H 889.279 -0.39361 -4.40344 0
M  V30 9044 N 888.338 1.20213 -1.01915 0
M  V30 9045 C 889.585 1.89647 -0.709955 0
M  V30 9046 C 889.913 1.7901 0.760631 0
M  V30 9047 O 889.168 1.17028 1.56853 0
M  V30 9048 C 889.467 3.40232 -1.09438 0
M  V30 9049 C 889.133 3.7107 -2.5616 0
M  V30 9050 C 887.795 3.79196 -2.96249 0
M  V30 9051 C 890.147 3.85169 -3.51133 0
M  V30 9052 C 887.475 3.98882 -4.30244 0
M  V30 9053 C 889.827 4.06365 -4.8482 0
M  V30 9054 C 888.491 4.12722 -5.24611 0
M  V30 9055 H 887.761 0.693967 -0.259791 0
M  V30 9056 H 890.408 1.42419 -1.2802 0
M  V30 9057 H 888.713 3.89292 -0.442596 0
M  V30 9058 H 890.41 3.92257 -0.832811 0
M  V30 9059 H 887 3.65346 -2.24099 0
M  V30 9060 H 891.184 3.78243 -3.21319 0
M  V30 9061 H 886.44 4.02039 -4.60624 0
M  V30 9062 H 890.614 4.16216 -5.58334 0
M  V30 9063 H 888.241 4.27728 -6.28453 0
M  V30 9064 N 889.816 0.795718 1.36037 0
M  V30 9065 C 891.065 0.367575 1.98322 0
M  V30 9066 C 891.378 -1.06823 1.63854 0
M  V30 9067 O 892.584 -1.59895 2.19421 0
M  V30 9068 C 891.04 0.606272 3.54757 0
M  V30 9069 C 890.648 2.0539 3.98144 0
M  V30 9070 C 892.392 0.242947 4.23804 0
M  V30 9071 C 890.299 2.23893 5.47381 0
M  V30 9072 H 889.229 0.133699 0.742052 0
M  V30 9073 H 891.88 0.978242 1.5525 0
M  V30 9074 H 890.262 -0.0741957 3.9593 0
M  V30 9075 H 891.436 2.77129 3.68152 0
M  V30 9076 H 889.751 2.37607 3.41953 0
M  V30 9077 H 892.348 0.359382 5.33491 0
M  V30 9078 H 892.691 -0.809661 4.08351 0
M  V30 9079 H 893.224 0.876899 3.88015 0
M  V30 9080 H 889.963 3.27559 5.6779 0
M  V30 9081 H 889.483 1.56666 5.78978 0
M  V30 9082 H 891.162 2.04914 6.13693 0
M  V30 9083 N 891.294 -1.47756 0.548274 0
M  V30 9084 C 892.541 -2.02489 0.0208955 0
M  V30 9085 C 892.869 -1.42356 -1.32533 0
M  V30 9086 O 892.124 -0.565448 -1.87353 0
M  V30 9087 C 892.423 -3.5716 -0.131069 0
M  V30 9088 C 892.089 -4.36169 1.14313 0
M  V30 9089 C 890.751 -4.57476 1.4923 0
M  V30 9090 C 893.103 -4.81801 1.9879 0
M  V30 9091 C 890.431 -5.21662 2.68487 0
M  V30 9092 C 892.783 -5.47303 3.17242 0
M  V30 9093 C 891.447 -5.66844 3.52483 0
M  V30 9094 H 890.717 -0.740961 0.00764621 0
M  V30 9095 H 893.364 -1.77531 0.717987 0
M  V30 9096 H 891.669 -3.8106 -0.911063 0
M  V30 9097 H 893.366 -3.9715 -0.55433 0
M  V30 9098 H 889.956 -4.19858 0.861235 0
M  V30 9099 H 894.14 -4.65126 1.73123 0
M  V30 9100 H 889.396 -5.34987 2.95971 0
M  V30 9101 H 893.57 -5.81626 3.82994 0
M  V30 9102 H 891.197 -6.16352 4.44988 0
M  V30 9103 N 892.772 -0.284283 -1.55015 0
M  V30 9104 C 893.682 0.60906 -2.26556 0
M  V30 9105 C 894.698 1.16246 -1.29472 0
M  V30 9106 O 895.874 1.1908 -1.62425 0
M  V30 9107 C 892.939 1.77246 -2.97968 0
M  V30 9108 C 892 1.25482 -4.10552 0
M  V30 9109 C 891.233 2.36277 -4.78549 0
M  V30 9110 O 891.456 3.55829 -4.45805 0
M  V30 9111 O 890.39 2.03914 -5.66306 0
M  V30 9112 H 894.216 0.0292298 -3.03686 0
M  V30 9113 H 891.801 -0.0513466 -1.49312 0
M  V30 9114 H 893.683 2.45062 -3.42815 0
M  V30 9115 H 892.358 2.33921 -2.23747 0
M  V30 9116 H 891.265 0.542859 -3.7014 0
M  V30 9117 H 892.598 0.733708 -4.86701 0
M  V30 9118 N 894.251 1.57596 -0.0117121 0
M  V30 9119 C 895.481 1.95077 0.680346 0
M  V30 9120 C 895.889 0.885793 1.67184 0
M  V30 9121 O 895.232 -0.142723 1.83145 0
M  V30 9122 C 895.294 3.28611 1.45791 0
M  V30 9123 C 894.958 4.52682 0.626706 0
M  V30 9124 C 895.955 5.19821 -0.0906223 0
M  V30 9125 C 893.64 4.99064 0.569229 0
M  V30 9126 C 895.634 6.31649 -0.854289 0
M  V30 9127 C 893.321 6.10779 -0.198155 0
M  V30 9128 C 894.319 6.76929 -0.908636 0
M  V30 9129 O 894.007 7.86501 -1.66348 0
M  V30 9130 H 893.739 0.647663 0.193672 0
M  V30 9131 H 896.293 2.05305 -0.0624969 0
M  V30 9132 H 894.523 3.14824 2.2455 0
M  V30 9133 H 896.212 3.51119 2.03642 0
M  V30 9134 H 896.978 4.84968 -0.0554421 0
M  V30 9135 H 892.857 4.47393 1.11178 0
M  V30 9136 H 896.401 6.83215 -1.40937 0
M  V30 9137 H 892.298 6.45072 -0.235114 0
M  V30 9138 H 893.066 8.03078 -1.58141 0
M  V30 9139 N 895.729 -0.261212 1.5542 0
M  V30 9140 C 896.659 -1.32712 1.92119 0
M  V30 9141 C 897.64 -1.50934 0.784406 0
M  V30 9142 O 898.825 -1.63781 1.04352 0
M  V30 9143 C 895.955 -2.68453 2.20341 0
M  V30 9144 C 894.909 -2.64947 3.36136 0
M  V30 9145 C 894.235 -4.04349 3.49865 0
M  V30 9146 C 895.535 -2.23182 4.72215 0
M  V30 9147 H 897.229 -1.02245 2.81401 0
M  V30 9148 H 894.775 -0.490406 1.35392 0
M  V30 9149 H 896.728 -3.43144 2.44603 0
M  V30 9150 H 895.452 -3.00527 1.27871 0
M  V30 9151 H 894.111 -1.92714 3.11861 0
M  V30 9152 H 893.759 -4.33665 2.5484 0
M  V30 9153 H 893.459 -4.02895 4.27726 0
M  V30 9154 H 894.983 -4.80761 3.76432 0
M  V30 9155 H 896.397 -2.87599 4.95943 0
M  V30 9156 H 894.794 -2.32867 5.53076 0
M  V30 9157 H 895.864 -1.18327 4.70241 0
M  V30 9158 N 897.207 -1.48554 -0.526253 0
M  V30 9159 C 898.432 -1.60686 -1.31129 0
M  V30 9160 C 898.857 -0.268701 -1.86171 0
M  V30 9161 O 898.215 0.760167 -1.64594 0
M  V30 9162 C 898.263 -2.65938 -2.43536 0
M  V30 9163 O 897.367 -2.23356 -3.46678 0
M  V30 9164 H 896.708 -0.538691 -0.388211 0
M  V30 9165 H 899.238 -1.94567 -0.632826 0
M  V30 9166 H 899.248 -2.87327 -2.89668 0
M  V30 9167 H 897.923 -3.63085 -2.02835 0
M  V30 9168 H 896.5 -2.12196 -3.06639 0
M  V30 9169 N 898.685 0.775411 -1.37205 0
M  V30 9170 C 900.096 1.35147 -1.28811 0
M  V30 9171 C 900.447 1.96089 0.0659168 0
M  V30 9172 O 899.572 1.93558 0.967684 0
M  V30 9173 C 900.167 2.45715 -2.33258 0
M  V30 9174 C 898.726 2.99099 -2.2851 0
M  V30 9175 C 897.873 1.72286 -2.17285 0
M  V30 9176 H 900.824 0.575954 -1.4788 0
M  V30 9177 H 900.845 3.251 -1.97712 0
M  V30 9178 H 900.357 2.01331 -3.31795 0
M  V30 9179 H 898.458 3.47868 -1.33485 0
M  V30 9180 H 898.571 3.54962 -3.21774 0
M  V30 9181 H 896.935 1.95068 -1.6377 0
M  V30 9182 H 897.718 1.3001 -3.1773 0
M  V30 9183 N 900.163 1.21714 1.00117 0
M  V30 9184 C 901.409 1.03823 1.74208 0
M  V30 9185 C 901.742 -0.426733 1.89454 0
M  V30 9186 O 901.017 -1.31658 1.43166 0
M  V30 9187 C 901.3 1.74047 3.15246 0
M  V30 9188 C 901.153 3.28087 3.077 0
M  V30 9189 C 902.472 1.48614 4.14249 0
M  V30 9190 H 899.591 0.378573 0.632338 0
M  V30 9191 H 902.233 1.49942 1.16694 0
M  V30 9192 H 900.383 1.3484 3.64349 0
M  V30 9193 H 902.055 3.76686 2.6628 0
M  V30 9194 H 900.298 3.58191 2.44707 0
M  V30 9195 H 900.969 3.72392 4.07466 0
M  V30 9196 H 903.445 1.82656 3.73866 0
M  V30 9197 H 902.321 2.00257 5.11066 0
M  V30 9198 H 902.582 0.416957 4.40129 0
M  V30 9199 N 901.641 -1.19671 1.02551 0
M  V30 9200 C 902.889 -1.88894 0.71858 0
M  V30 9201 C 903.21 -1.79797 -0.754856 0
M  V30 9202 O 902.48 -1.20621 -1.54362 0
M  V30 9203 H 901.06 -0.699244 0.262806 0
M  V30 9204 H 903.722 -1.45298 1.29902 0
M  V30 9205 H 902.818 -2.95309 1.00989 0
M  V30 9206 N 903.119 -0.802921 -1.35613 0
M  V30 9207 C 904.349 -0.393359 -2.02821 0
M  V30 9208 C 904.757 0.999282 -1.60658 0
M  V30 9209 O 904.1 1.65463 -0.797977 0
M  V30 9210 C 904.162 -0.393102 -3.57344 0
M  V30 9211 C 903.826 -1.73563 -4.22759 0
M  V30 9212 C 904.823 -2.69333 -4.44698 0
M  V30 9213 C 902.508 -2.01863 -4.59953 0
M  V30 9214 C 904.502 -3.91589 -5.02928 0
M  V30 9215 C 902.189 -3.24383 -5.17898 0
M  V30 9216 C 903.187 -4.19064 -5.39328 0
M  V30 9217 O 902.875 -5.39422 -5.96053 0
M  V30 9218 H 902.607 -0.158431 -0.657172 0
M  V30 9219 H 905.161 -1.08682 -1.74291 0
M  V30 9220 H 903.391 0.356934 -3.85049 0
M  V30 9221 H 905.08 -0.00635596 -4.059 0
M  V30 9222 H 905.846 -2.48759 -4.16346 0
M  V30 9223 H 901.725 -1.28979 -4.42589 0
M  V30 9224 H 905.269 -4.65502 -5.1957 0
M  V30 9225 H 901.166 -3.44829 -5.45677 0
M  V30 9226 H 901.934 -5.40669 -6.14507 0
M  V30 9227 N 904.597 1.47463 -0.556102 0
M  V30 9228 C 905.545 2.31692 0.205299 0
M  V30 9229 C 906.539 1.42857 0.910394 0
M  V30 9230 O 907.745 1.59628 0.831806 0
M  V30 9231 H 904.12 0.747172 0.0850775 0
M  V30 9232 H 906.091 2.93758 -0.524305 0
M  V30 9233 C 904.84 3.25487 1.22283 0
M  V30 9234 H 904.163 3.93806 0.689697 0
M  V30 9235 H 905.603 3.87257 1.7265 0
M  V30 9236 C 904.062 2.48931 2.27013 0
M  V30 9237 O 904.592 2.23296 3.33919 0
M  V30 9238 N 902.798 2.0996 2.00911 0
M  V30 9239 H 902.345 2.31008 1.13986 0
M  V30 9240 H 902.303 1.59053 2.712 0
M  V30 9241 N 906.075 0.2925 1.54862 0
M  V30 9242 C 907.491 -0.0611461 1.59483 0
M  V30 9243 C 907.691 -1.53141 1.30958 0
M  V30 9244 O 906.747 -2.28291 1.07887 0
M  V30 9245 C 908.06 0.329143 2.98893 0
M  V30 9246 C 909.608 0.2772 3.1177 0
M  V30 9247 C 910.083 0.642185 4.53475 0
M  V30 9248 N 911.574 0.594396 4.5937 0
M  V30 9249 C 912.309 0.849385 5.67074 0
M  V30 9250 N 911.805 1.1699 6.82851 0
M  V30 9251 N 913.598 0.777016 5.56704 0
M  V30 9252 H 905.749 1.25079 1.71665 0
M  V30 9253 H 908.012 0.506516 0.80134 0
M  V30 9254 H 907.718 1.35233 3.24661 0
M  V30 9255 H 907.592 -0.321442 3.75828 0
M  V30 9256 H 909.979 -0.736725 2.85756 0
M  V30 9257 H 910.06 0.962289 2.3701 0
M  V30 9258 H 909.704 1.65388 4.80218 0
M  V30 9259 H 909.634 -0.0648831 5.2656 0
M  V30 9260 H 912.125 0.357256 3.76208 0
M  V30 9261 H 912.438 1.35067 7.60905 0
M  V30 9262 H 910.783 1.20785 6.84424 0
M  V30 9263 H 913.974 0.526333 4.65132 0
M  V30 9264 H 914.147 0.979113 6.4056 0
M  V30 9265 N 907.553 -1.57587 0.0200696 0
M  V30 9266 C 908.778 -1.96124 -0.674547 0
M  V30 9267 C 909.203 -0.896068 -1.65385 0
M  V30 9268 O 908.561 0.143925 -1.80728 0
M  V30 9269 C 908.609 -3.3376 -1.36517 0
M  V30 9270 O 907.713 -3.29483 -2.48022 0
M  V30 9271 H 907.054 -0.639719 -0.177919 0
M  V30 9272 H 909.584 -2.04447 0.0792317 0
M  V30 9273 H 909.594 -3.69785 -1.72403 0
M  V30 9274 H 908.269 -4.10832 -0.647265 0
M  V30 9275 H 906.846 -3.05162 -2.14314 0
M  V30 9276 N 909.032 0.252966 -1.55557 0
M  V30 9277 C 909.962 1.31691 -1.9282 0
M  V30 9278 C 910.943 1.50516 -0.7924 0
M  V30 9279 O 912.128 1.63225 -1.05219 0
M  V30 9280 C 909.258 2.67281 -2.21762 0
M  V30 9281 C 908.212 2.6316 -3.37536 0
M  V30 9282 C 907.538 4.02488 -3.52005 0
M  V30 9283 C 908.838 2.20675 -4.73392 0
M  V30 9284 H 910.532 1.00751 -2.81939 0
M  V30 9285 H 908.078 0.483219 -1.3565 0
M  V30 9286 H 910.031 3.41842 -2.46419 0
M  V30 9287 H 908.755 2.99845 -1.29463 0
M  V30 9288 H 907.414 1.91057 -3.12878 0
M  V30 9289 H 907.062 4.32307 -2.57137 0
M  V30 9290 H 906.762 4.00621 -4.29857 0
M  V30 9291 H 908.286 4.78758 -3.78977 0
M  V30 9292 H 909.7 2.84965 -4.97461 0
M  V30 9293 H 908.097 2.29931 -5.54303 0
M  V30 9294 H 909.167 1.15831 -4.70862 0
M  V30 9295 N 910.51 1.48831 0.518367 0
M  V30 9296 C 911.473 1.63721 1.604 0
M  V30 9297 C 912.473 0.509857 1.52503 0
M  V30 9298 O 913.663 0.775922 1.55965 0
M  V30 9299 C 910.795 1.61831 3.00039 0
M  V30 9300 H 911.988 2.60534 1.48533 0
M  V30 9301 H 909.541 1.37602 0.741309 0
M  V30 9302 H 910.276 0.665387 3.17401 0
M  V30 9303 H 910.061 2.43686 3.0718 0
M  V30 9304 H 911.551 1.75467 3.78947 0
M  V30 9305 N 911.988 -0.768124 1.37614 0
M  V30 9306 C 913.216 -1.55726 1.36224 0
M  V30 9307 C 913.631 -1.8873 -0.0515357 0
M  V30 9308 O 912.988 -1.51718 -1.0143 0
M  V30 9309 C 913.039 -2.86533 2.20412 0
M  V30 9310 O 912.76 -2.54942 3.56281 0
M  V30 9311 C 914.261 -3.80745 2.27041 0
M  V30 9312 H 911.481 -0.482325 0.46648 0
M  V30 9313 H 914.025 -0.95176 1.81002 0
M  V30 9314 H 912.18 -3.43496 1.79134 0
M  V30 9315 H 912.594 -3.38732 4.00451 0
M  V30 9316 H 914.068 -4.69523 2.90263 0
M  V30 9317 H 914.545 -4.20138 1.27987 0
M  V30 9318 H 915.151 -3.2971 2.68647 0
M  V30 9319 N 913.466 -1.22244 -0.994698 0
M  V30 9320 C 914.714 -1.04384 -1.73056 0
M  V30 9321 C 915.035 0.422204 -1.90374 0
M  V30 9322 O 914.305 1.30383 -1.46209 0
M  V30 9323 H 912.885 -0.383263 -0.641185 0
M  V30 9324 H 915.547 -1.53725 -1.1981 0
M  V30 9325 H 914.643 -1.52021 -2.72573 0
M  V30 9326 N 914.944 1.19125 -1.03184 0
M  V30 9327 C 915.891 2.2245 -0.6152 0
M  V30 9328 C 916.861 1.61869 0.372502 0
M  V30 9329 O 918.046 1.88901 0.268491 0
M  V30 9330 C 915.186 3.45091 0.0248027 0
M  V30 9331 C 914.299 4.20044 -1.0093 0
M  V30 9332 C 913.434 5.30119 -0.338744 0
M  V30 9333 C 912.473 5.96833 -1.35855 0
M  V30 9334 N 911.61 6.98464 -0.713594 0
M  V30 9335 H 916.45 2.57445 -1.50086 0
M  V30 9336 H 913.987 1.26485 -0.751005 0
M  V30 9337 H 915.945 4.15149 0.413131 0
M  V30 9338 H 914.575 3.10742 0.874028 0
M  V30 9339 H 913.627 3.48901 -1.51566 0
M  V30 9340 H 914.939 4.65796 -1.78425 0
M  V30 9341 H 914.093 6.0661 0.104269 0
M  V30 9342 H 912.832 4.85446 0.468382 0
M  V30 9343 H 911.837 5.1909 -1.81179 0
M  V30 9344 H 913.062 6.4359 -2.16722 0
M  V30 9345 H 911.008 6.55959 0.0733863 0
M  V30 9346 H 910.925 7.42422 -1.42638 0
M  V30 9347 H 912.193 7.78943 -0.294681 0
M  V30 9348 N 916.422 0.810101 1.35185 0
M  V30 9349 C 917.838 0.494269 1.51754 0
M  V30 9350 C 918.038 -0.983907 1.75845 0
M  V30 9351 O 917.094 -1.76882 1.80191 0
M  V30 9352 C 918.407 1.34268 2.69059 0
M  V30 9353 C 919.955 1.33848 2.82938 0
M  V30 9354 C 920.43 2.17109 4.03271 0
M  V30 9355 N 921.921 2.14664 4.10456 0
M  V30 9356 C 922.656 2.75843 5.02691 0
M  V30 9357 N 922.152 3.45962 6.00235 0
M  V30 9358 N 923.945 2.65465 4.95464 0
M  V30 9359 H 916.096 1.76736 1.17805 0
M  V30 9360 H 918.359 0.752429 0.576676 0
M  V30 9361 H 918.065 2.39183 2.57845 0
M  V30 9362 H 917.939 0.998362 3.63748 0
M  V30 9363 H 920.326 0.29716 2.936 0
M  V30 9364 H 920.407 1.72269 1.89095 0
M  V30 9365 H 920.051 3.21283 3.93369 0
M  V30 9366 H 919.981 1.76046 4.96302 0
M  V30 9367 H 922.472 1.63648 3.40628 0
M  V30 9368 H 922.785 3.89922 6.67219 0
M  V30 9369 H 921.13 3.50067 6.00398 0
M  V30 9370 H 924.321 2.1027 4.18215 0
M  V30 9371 H 924.494 3.13433 5.67154 0
M  V30 9372 N 917.9 -1.47166 0.563914 0
M  V30 9373 C 919.311 -1.86231 0.132307 0
M  V30 9374 C 919.662 -1.46976 -1.29971 0
M  V30 9375 O 918.787 -0.875911 -1.97881 0
M  V30 9376 C 919.382 -3.37996 0.233335 0
M  V30 9377 C 917.941 -3.76127 -0.143278 0
M  V30 9378 C 917.088 -2.71212 0.577857 0
M  V30 9379 H 920.039 -1.38588 0.773249 0
M  V30 9380 H 920.06 -3.76558 -0.546309 0
M  V30 9381 H 919.572 -3.66535 1.27568 0
M  V30 9382 H 917.673 -3.53205 -1.18648 0
M  V30 9383 H 917.786 -4.78595 0.219952 0
M  V30 9384 H 916.15 -2.54692 0.020186 0
M  V30 9385 H 916.933 -3.02593 1.62149 0
M  V30 9386 N 919.378 -0.300708 -1.54705 0
M  V30 9387 C 920.626 0.308044 -1.99739 0
M  V30 9388 C 920.947 1.54433 -1.19061 0
M  V30 9389 O 920.217 1.93794 -0.286507 0
M  V30 9390 H 918.797 0.116811 -0.73781 0
M  V30 9391 H 921.459 -0.41197 -1.90496 0
M  V30 9392 H 920.555 0.580287 -3.06658 0
M  V30 9393 N 920.856 1.57574 -0.0284266 0
M  V30 9394 C 922.104 1.91393 0.649079 0
M  V30 9395 C 922.425 0.905368 1.72708 0
M  V30 9396 O 921.695 -0.0532107 1.95828 0
M  V30 9397 H 920.275 0.70646 0.24274 0
M  V30 9398 H 922.937 1.94752 -0.076066 0
M  V30 9399 H 922.033 2.91988 1.10226 0
M  V30 9400 N 922.334 -0.244713 1.55689 0
M  V30 9401 C 923.559 -0.994157 1.8202 0
M  V30 9402 C 923.984 -1.78079 0.60577 0
M  V30 9403 O 923.342 -1.75748 -0.445221 0
M  V30 9404 C 923.39 -1.90599 3.06111 0
M  V30 9405 O 922.494 -2.99804 2.8318 0
M  V30 9406 H 921.835 -0.282767 0.600782 0
M  V30 9407 H 924.365 -0.26504 2.02876 0
M  V30 9408 H 924.375 -2.32023 3.35603 0
M  V30 9409 H 923.05 -1.32763 3.9414 0
M  V30 9410 H 921.627 -2.62493 2.64862 0
M  V30 9411 N 923.813 -1.49104 -0.510467 0
M  V30 9412 C 925.041 -1.61806 -1.28944 0
M  V30 9413 C 925.456 -0.285774 -1.86625 0
M  V30 9414 O 924.813 0.727551 -1.67371 0
M  V30 9415 C 924.864 -2.67966 -2.42645 0
M  V30 9416 O 924.585 -3.96026 -1.87337 0
M  V30 9417 C 926.086 -2.91286 -3.34166 0
M  V30 9418 H 923.306 -0.544999 -0.391429 0
M  V30 9419 H 925.85 -1.95071 -0.613805 0
M  V30 9420 H 924.005 -2.37505 -3.06056 0
M  V30 9421 H 924.419 -4.54427 -2.61909 0
M  V30 9422 H 925.893 -3.69323 -4.1025 0
M  V30 9423 H 926.37 -2.00842 -3.90588 0
M  V30 9424 H 926.976 -3.23127 -2.76531 0
M  V30 9425 N 925.291 0.760815 -1.38019 0
M  V30 9426 C 926.538 1.51973 -1.3383 0
M  V30 9427 C 926.866 1.9436 0.0738855 0
M  V30 9428 O 926.121 1.65181 1.04946 0
M  V30 9429 C 926.42 2.79024 -2.23339 0
M  V30 9430 C 926.086 2.55636 -3.71431 0
M  V30 9431 C 924.748 2.48966 -4.11788 0
M  V30 9432 C 927.1 2.35018 -4.65205 0
M  V30 9433 C 924.428 2.19684 -5.44018 0
M  V30 9434 C 926.78 2.07258 -5.97685 0
M  V30 9435 C 925.444 1.9904 -6.37134 0
M  V30 9436 H 924.714 0.556108 -0.489719 0
M  V30 9437 H 927.361 0.87545 -1.70318 0
M  V30 9438 H 925.666 3.48065 -1.79883 0
M  V30 9439 H 927.363 3.36951 -2.17405 0
M  V30 9440 H 923.953 2.61695 -3.39432 0
M  V30 9441 H 928.137 2.39154 -4.34878 0
M  V30 9442 H 923.393 2.11825 -5.73533 0
M  V30 9443 H 927.567 1.90307 -6.69893 0
M  V30 9444 H 925.194 1.76115 -7.39519 0
M  V30 9445 N 926.769 1.22769 0.988202 0
M  V30 9446 C 927.997 1.08155 1.76381 0
M  V30 9447 C 928.412 -0.367573 1.85187 0
M  V30 9448 O 927.769 -1.25455 1.32541 0
M  V30 9449 C 927.82 1.69193 3.19462 0
M  V30 9450 O 927.541 3.08437 3.11125 0
M  V30 9451 C 929.042 1.59915 4.13451 0
M  V30 9452 H 926.262 0.378908 0.553778 0
M  V30 9453 H 928.806 1.6246 1.24206 0
M  V30 9454 H 926.961 1.18939 3.6869 0
M  V30 9455 H 927.375 3.37916 4.0114 0
M  V30 9456 H 928.849 2.07339 5.1158 0
M  V30 9457 H 929.326 0.556546 4.3566 0
M  V30 9458 H 929.932 2.09497 3.70123 0
M  V30 9459 N 928.247 -1.18576 1.03814 0
M  V30 9460 C 929.496 -1.87822 0.735235 0
M  V30 9461 C 929.809 -1.81069 -0.739819 0
M  V30 9462 O 931.015 -2.45654 -1.15614 0
M  V30 9463 C 929.471 -3.36941 1.26486 0
M  V30 9464 C 929.079 -3.5223 2.76836 0
M  V30 9465 C 930.823 -4.11604 1.03836 0
M  V30 9466 C 928.73 -4.95294 3.23169 0
M  V30 9467 H 927.66 -0.703487 0.271333 0
M  V30 9468 H 930.311 -1.34 1.25365 0
M  V30 9469 H 928.693 -3.90217 0.674318 0
M  V30 9470 H 929.867 -3.09239 3.41625 0
M  V30 9471 H 928.182 -2.90969 2.97869 0
M  V30 9472 H 930.779 -5.17123 1.3597 0
M  V30 9473 H 931.122 -4.16293 -0.0244945 0
M  V30 9474 H 931.655 -3.64494 1.59338 0
M  V30 9475 H 928.394 -4.95772 4.28824 0
M  V30 9476 H 927.914 -5.3901 2.63113 0
M  V30 9477 H 929.593 -5.63996 3.17045 0
M  V30 9478 N 929.725 -0.817259 -1.34754 0
M  V30 9479 C 930.973 -0.401852 -1.98065 0
M  V30 9480 C 931.294 1.03718 -1.65129 0
M  V30 9481 O 930.564 1.71921 -0.939141 0
M  V30 9482 H 929.144 -0.145603 -0.732672 0
M  V30 9483 H 931.806 -1.04545 -1.64488 0
M  V30 9484 H 930.902 -0.516241 -3.07801 0
M  V30 9485 N 931.203 1.46865 -0.571711 0
M  V30 9486 C 932.15 2.30189 0.167808 0
M  V30 9487 C 933.12 1.3995 0.89461 0
M  V30 9488 O 934.305 1.68905 0.887451 0
M  V30 9489 C 931.445 3.24205 1.1826 0
M  V30 9490 C 930.558 4.2954 0.460376 0
M  V30 9491 C 929.693 5.10693 1.46173 0
M  V30 9492 C 928.732 6.07788 0.725291 0
M  V30 9493 N 927.869 6.81847 1.67417 0
M  V30 9494 H 932.709 2.92902 -0.548831 0
M  V30 9495 H 930.246 1.44362 -0.282474 0
M  V30 9496 H 932.204 3.77147 1.7837 0
M  V30 9497 H 930.834 2.63324 1.86709 0
M  V30 9498 H 929.886 3.79541 -0.255546 0
M  V30 9499 H 931.198 4.98665 -0.115855 0
M  V30 9500 H 930.352 5.67857 2.13595 0
M  V30 9501 H 929.091 4.41502 2.07188 0
M  V30 9502 H 928.096 5.49787 0.037228 0
M  V30 9503 H 929.321 6.78993 0.120678 0
M  V30 9504 H 927.267 6.15376 2.27263 0
M  V30 9505 H 927.184 7.47195 1.15046 0
M  V30 9506 H 928.452 7.43577 2.33908 0
M  V30 9507 N 932.681 0.308908 1.54543 0
M  V30 9508 C 933.906 -0.303196 2.05172 0
M  V30 9509 C 934.331 -1.46133 1.18434 0
M  V30 9510 O 933.689 -1.803 0.190162 0
M  V30 9511 C 933.737 -0.729526 3.53143 0
M  V30 9512 O 932.841 -1.83348 3.69401 0
M  V30 9513 H 932.182 -0.0575066 0.661505 0
M  V30 9514 H 934.712 0.453055 1.99521 0
M  V30 9515 H 934.722 -1.01619 3.95143 0
M  V30 9516 H 933.397 0.117622 4.15734 0
M  V30 9517 H 931.974 -1.54676 3.39308 0
M  V30 9518 N 934.159 -1.57557 0.0367827 0
M  V30 9519 C 935.408 -1.91291 -0.639569 0
M  V30 9520 C 935.721 -0.915601 -1.72847 0
M  V30 9521 O 936.927 -1.14447 -2.46199 0
M  V30 9522 C 935.383 -3.39697 -1.18888 0
M  V30 9523 C 934.991 -4.47803 -0.132851 0
M  V30 9524 C 936.735 -3.82487 -1.8413 0
M  V30 9525 C 934.642 -5.87311 -0.694229 0
M  V30 9526 H 933.572 -0.713886 -0.242658 0
M  V30 9527 H 936.223 -1.83209 0.103332 0
M  V30 9528 H 934.605 -3.42736 -1.98363 0
M  V30 9529 H 935.779 -4.56334 0.640009 0
M  V30 9530 H 934.094 -4.14264 0.421264 0
M  V30 9531 H 936.691 -4.84076 -2.27101 0
M  V30 9532 H 937.034 -3.17959 -2.68716 0
M  V30 9533 H 937.567 -3.81903 -1.11332 0
M  V30 9534 H 934.306 -6.55401 0.113667 0
M  V30 9535 H 933.826 -5.82371 -1.4354 0
M  V30 9536 H 935.505 -6.36119 -1.1816 0
M  V30 9537 N 935.637 0.236453 -1.55816 0
M  V30 9538 C 936.883 0.960127 -1.79313 0
M  V30 9539 C 937.238 1.8256 -0.607406 0
M  V30 9540 O 936.531 1.87398 0.399046 0
M  V30 9541 C 936.725 1.84549 -3.06066 0
M  V30 9542 C 936.554 1.06721 -4.36853 0
M  V30 9543 C 935.324 0.76811 -4.99428 0
M  V30 9544 C 937.522 0.439715 -5.12417 0
M  V30 9545 N 935.504 -0.0331365 -6.13891 0
M  V30 9546 C 936.875 -0.225616 -6.19589 0
M  V30 9547 C 938.93 0.351237 -4.9666 0
M  V30 9548 C 937.633 -0.970943 -7.12717 0
M  V30 9549 C 939.659 -0.380585 -5.90174 0
M  V30 9550 C 939.021 -1.03451 -6.96762 0
M  V30 9551 H 935.12 0.332095 -0.707981 0
M  V30 9552 H 937.704 0.232311 -1.93309 0
M  V30 9553 H 935.875 2.54525 -2.93379 0
M  V30 9554 H 937.607 2.50552 -3.17814 0
M  V30 9555 H 934.362 1.08248 -4.61063 0
M  V30 9556 H 934.786 -0.422159 -6.75682 0
M  V30 9557 H 939.428 0.842469 -4.14321 0
M  V30 9558 H 937.146 -1.47374 -7.94548 0
M  V30 9559 H 940.732 -0.449851 -5.80058 0
M  V30 9560 H 939.612 -1.59175 -7.67876 0
M  V30 9561 N 937.115 1.49373 0.502552 0
M  V30 9562 C 938.045 1.68839 1.61294 0
M  V30 9563 C 939.026 0.537096 1.61398 0
M  V30 9564 O 940.211 0.772764 1.78163 0
M  V30 9565 C 937.341 1.75347 2.99784 0
M  V30 9566 C 936.295 2.90251 3.14545 0
M  V30 9567 C 935.621 2.8187 4.54371 0
M  V30 9568 C 936.921 4.31207 2.94717 0
M  V30 9569 H 938.615 2.61803 1.45257 0
M  V30 9570 H 936.161 1.25987 0.697371 0
M  V30 9571 H 938.114 1.87552 3.77362 0
M  V30 9572 H 936.838 0.789814 3.16906 0
M  V30 9573 H 935.497 2.77646 2.39392 0
M  V30 9574 H 935.145 1.83416 4.68367 0
M  V30 9575 H 934.845 3.5899 4.65188 0
M  V30 9576 H 936.369 2.96081 5.34012 0
M  V30 9577 H 937.783 4.44501 3.62065 0
M  V30 9578 H 936.18 5.09536 3.17007 0
M  V30 9579 H 937.25 4.45759 1.90857 0
M  V30 9580 N 938.594 -0.753485 1.38421 0
M  V30 9581 C 939.524 -1.8808 1.38377 0
M  V30 9582 C 940.505 -1.68258 0.249664 0
M  V30 9583 O 941.69 -1.88848 0.45276 0
M  V30 9584 C 938.82 -3.25608 1.20818 0
M  V30 9585 C 937.774 -3.60032 2.31433 0
M  V30 9586 C 937.1 -4.96297 1.9898 0
M  V30 9587 C 938.4 -3.64898 3.73694 0
M  V30 9588 H 940.094 -1.88375 2.32713 0
M  V30 9589 H 937.64 -0.90489 1.12017 0
M  V30 9590 H 939.593 -4.04127 1.19412 0
M  V30 9591 H 938.317 -3.25793 0.229433 0
M  V30 9592 H 936.976 -2.83831 2.32025 0
M  V30 9593 H 936.624 -4.93043 0.995889 0
M  V30 9594 H 936.324 -5.20298 2.73063 0
M  V30 9595 H 937.848 -5.77196 1.99193 0
M  V30 9596 H 939.262 -4.33531 3.75132 0
M  V30 9597 H 937.659 -4.00407 4.46983 0
M  V30 9598 H 938.729 -2.65124 4.06002 0
M  V30 9599 N 940.072 -1.23292 -0.981677 0
M  V30 9600 C 941.318 -1.07588 -1.72616 0
M  V30 9601 C 941.673 0.383441 -1.8854 0
M  V30 9602 O 940.966 1.28006 -1.42566 0
M  V30 9603 C 941.16 -1.73339 -3.12551 0
M  V30 9604 C 940.989 -3.25514 -3.10275 0
M  V30 9605 C 939.759 -3.9467 -3.15537 0
M  V30 9606 C 941.957 -4.223 -2.93543 0
M  V30 9607 N 939.939 -5.33839 -3.03133 0
M  V30 9608 C 941.31 -5.48373 -2.89287 0
M  V30 9609 C 943.365 -4.1305 -2.78018 0
M  V30 9610 C 942.068 -6.66258 -2.71095 0
M  V30 9611 C 944.094 -5.30598 -2.6119 0
M  V30 9612 C 943.456 -6.55596 -2.57631 0
M  V30 9613 H 939.555 -0.448215 -0.640802 0
M  V30 9614 H 942.139 -1.56001 -1.16498 0
M  V30 9615 H 940.31 -1.2746 -3.6689 0
M  V30 9616 H 942.042 -1.50624 -3.75626 0
M  V30 9617 H 938.797 -3.45741 -3.23666 0
M  V30 9618 H 939.221 -6.06798 -3.00209 0
M  V30 9619 H 943.863 -3.17184 -2.7956 0
M  V30 9620 H 941.581 -7.62261 -2.68297 0
M  V30 9621 H 945.167 -5.25281 -2.50143 0
M  V30 9622 H 944.047 -7.45021 -2.44772 0
M  V30 9623 N 941.55 1.18024 -1.04442 0
M  V30 9624 C 942.513 2.19992 -0.643136 0
M  V30 9625 C 943.513 1.57949 0.301444 0
M  V30 9626 O 944.703 1.73986 0.0863341 0
M  V30 9627 C 941.835 3.40853 0.0565208 0
M  V30 9628 H 943.028 2.57008 -1.54554 0
M  V30 9629 H 940.581 1.31974 -0.837408 0
M  V30 9630 H 941.316 3.09373 0.972553 0
M  V30 9631 H 941.101 3.87128 -0.622439 0
M  V30 9632 H 942.591 4.16344 0.323652 0
M  V30 9633 N 943.028 0.824394 1.34319 0
M  V30 9634 C 943.958 0.262077 2.32025 0
M  V30 9635 C 944.939 -0.622277 1.58309 0
M  V30 9636 O 946.124 -0.548848 1.86283 0
M  V30 9637 C 943.254 -0.57567 3.42496 0
M  V30 9638 C 942.208 0.21167 4.27476 0
M  V30 9639 C 941.534 -0.748913 5.29429 0
M  V30 9640 C 942.834 1.42068 5.02607 0
M  V30 9641 H 944.528 1.07842 2.79304 0
M  V30 9642 H 942.074 0.520022 1.34282 0
M  V30 9643 H 944.027 -0.979251 4.09864 0
M  V30 9644 H 942.751 -1.42508 2.93869 0
M  V30 9645 H 941.41 0.596636 3.61712 0
M  V30 9646 H 941.058 -1.59432 4.77064 0
M  V30 9647 H 940.758 -0.226313 5.87164 0
M  V30 9648 H 942.282 -1.15032 5.99667 0
M  V30 9649 H 943.696 1.09103 5.62823 0
M  V30 9650 H 942.093 1.87903 5.69923 0
M  V30 9651 H 943.163 2.1981 4.32217 0
M  V30 9652 N 944.506 -1.46559 0.579492 0
M  V30 9653 C 945.752 -2.02699 0.0639363 0
M  V30 9654 C 946.085 -1.4504 -1.29139 0
M  V30 9655 O 945.36 -0.614284 -1.84545 0
M  V30 9656 C 945.643 -3.601 -0.00528618 0
M  V30 9657 C 945.496 -4.28149 1.37871 0
M  V30 9658 C 946.815 -4.34375 -0.707537 0
M  V30 9659 H 943.934 -0.736586 0.0247085 0
M  V30 9660 H 946.576 -1.74739 0.746071 0
M  V30 9661 H 944.726 -3.84052 -0.586206 0
M  V30 9662 H 946.398 -4.1547 2.00455 0
M  V30 9663 H 944.641 -3.87636 1.94732 0
M  V30 9664 H 945.312 -5.36888 1.28278 0
M  V30 9665 H 947.788 -4.15549 -0.214064 0
M  V30 9666 H 946.664 -5.44091 -0.724992 0
M  V30 9667 H 946.925 -4.052 -1.7682 0
M  V30 9668 N 945.984 -0.3171 -1.54377 0
M  V30 9669 C 947.231 0.28741 -2.0045 0
M  V30 9670 C 947.559 1.52648 -1.20535 0
M  V30 9671 O 946.814 1.93775 -0.273831 0
M  V30 9672 C 947.113 0.672917 -3.51008 0
M  V30 9673 C 946.779 -0.466245 -4.48483 0
M  V30 9674 C 945.441 -0.778933 -4.74854 0
M  V30 9675 C 947.793 -1.23176 -5.06436 0
M  V30 9676 C 945.121 -1.85997 -5.56437 0
M  V30 9677 C 947.473 -2.30284 -5.89196 0
M  V30 9678 C 946.137 -2.62141 -6.13872 0
M  V30 9679 H 945.407 0.105171 -0.733499 0
M  V30 9680 H 948.054 -0.439538 -1.86388 0
M  V30 9681 H 946.359 1.48019 -3.62764 0
M  V30 9682 H 948.056 1.15209 -3.84094 0
M  V30 9683 H 944.646 -0.212449 -4.28073 0
M  V30 9684 H 948.83 -1.00344 -4.8605 0
M  V30 9685 H 944.086 -2.11134 -5.73788 0
M  V30 9686 H 948.26 -2.90048 -6.33123 0
M  V30 9687 H 945.887 -3.46037 -6.76877 0
M  V30 9688 N 947.462 1.57535 -0.0451378 0
M  V30 9689 C 948.41 2.12351 0.949205 0
M  V30 9690 C 949.404 1.05386 1.32628 0
M  V30 9691 O 950.61 1.23802 1.30664 0
M  V30 9692 H 946.985 0.678648 0.323945 0
M  V30 9693 H 948.956 2.94806 0.461718 0
M  V30 9694 C 947.705 2.67862 2.21687 0
M  V30 9695 H 947.028 3.49826 1.93551 0
M  V30 9696 H 948.468 3.09844 2.89435 0
M  V30 9697 C 946.927 1.61353 2.95748 0
M  V30 9698 O 947.457 1.02276 3.88462 0
M  V30 9699 N 945.663 1.33017 2.5837 0
M  V30 9700 H 945.21 1.81246 1.83051 0
M  V30 9701 H 945.168 0.619812 3.0823 0
M  V30 9702 N 948.94 -0.228186 1.55939 0
M  V30 9703 C 949.888 -1.30239 1.92719 0
M  V30 9704 C 950.882 -1.48865 0.808424 0
M  V30 9705 O 952.088 -1.50118 0.993204 0
M  V30 9706 H 948.463 -0.436509 0.612343 0
M  V30 9707 H 950.434 -0.964965 2.82367 0
M  V30 9708 C 949.183 -2.647 2.25453 0
M  V30 9709 H 948.506 -2.51173 3.1105 0
M  V30 9710 H 949.946 -3.38691 2.55077 0
M  V30 9711 C 948.405 -3.1921 1.07734 0
M  V30 9712 O 948.935 -4.00301 0.335019 0
M  V30 9713 N 947.141 -2.77492 0.862938 0
M  V30 9714 H 946.688 -2.11657 1.4683 0
M  V30 9715 H 946.646 -3.14306 0.0770119 0
M  V30 9716 N 950.418 -1.49637 -0.494624 0
M  V30 9717 C 951.643 -1.63431 -1.27691 0
M  V30 9718 C 952.068 -0.30813 -1.85559 0
M  V30 9719 O 951.426 0.725083 -1.66169 0
M  V30 9720 C 951.474 -2.71043 -2.3784 0
M  V30 9721 O 950.578 -2.3066 -3.41862 0
M  V30 9722 H 949.919 -0.546804 -0.376698 0
M  V30 9723 H 952.449 -1.95866 -0.591413 0
M  V30 9724 H 952.459 -2.93406 -2.83508 0
M  V30 9725 H 951.134 -3.67306 -1.95088 0
M  V30 9726 H 949.711 -2.18652 -3.02069 0
M  V30 9727 N 951.896 0.746133 -1.38819 0
M  V30 9728 C 953.142 1.50768 -1.35635 0
M  V30 9729 C 953.475 1.94132 0.0512435 0
M  V30 9730 O 952.75 1.65979 1.01396 0
M  V30 9731 C 953.033 2.7551 -2.31875 0
M  V30 9732 C 952.886 2.38236 -3.81528 0
M  V30 9733 C 954.205 3.77566 -2.26124 0
M  V30 9734 H 951.324 0.546922 -0.494009 0
M  V30 9735 H 953.966 0.854017 -1.69725 0
M  V30 9736 H 952.116 3.31285 -2.02935 0
M  V30 9737 H 953.788 1.88178 -4.21173 0
M  V30 9738 H 952.031 1.70601 -3.98846 0
M  V30 9739 H 952.702 3.27517 -4.44339 0
M  V30 9740 H 955.178 3.31349 -2.51689 0
M  V30 9741 H 954.054 4.62531 -2.95561 0
M  V30 9742 H 954.315 4.23689 -1.26254 0
M  V30 9743 N 953.375 1.23811 0.975125 0
M  V30 9744 C 954.786 1.0675 1.53171 0
M  V30 9745 C 955.137 -0.363475 1.92804 0
M  V30 9746 O 954.262 -1.25089 1.76583 0
M  V30 9747 C 954.857 1.93161 2.78342 0
M  V30 9748 C 953.416 1.80346 3.30382 0
M  V30 9749 C 952.563 1.88544 2.03338 0
M  V30 9750 H 955.514 1.37396 0.79423 0
M  V30 9751 H 955.535 1.45951 3.51395 0
M  V30 9752 H 955.047 2.97302 2.49465 0
M  V30 9753 H 953.148 0.790077 3.64127 0
M  V30 9754 H 953.261 2.64026 3.99784 0
M  V30 9755 H 951.625 1.32186 2.17713 0
M  V30 9756 H 952.408 2.94252 1.76836 0
M  V30 9757 N 954.853 -1.17469 1.05066 0
M  V30 9758 C 956.099 -1.87976 0.761113 0
M  V30 9759 C 956.432 -1.80756 -0.709995 0
M  V30 9760 O 955.707 -1.21469 -1.51906 0
M  V30 9761 C 955.99 -3.38055 1.2406 0
M  V30 9762 C 955.843 -3.54032 2.77455 0
M  V30 9763 C 957.162 -4.32036 0.838612 0
M  V30 9764 H 954.281 -0.682573 0.277963 0
M  V30 9765 H 956.923 -1.38147 1.30443 0
M  V30 9766 H 955.073 -3.80622 0.778388 0
M  V30 9767 H 956.745 -3.20489 3.3179 0
M  V30 9768 H 954.988 -2.96352 3.16793 0
M  V30 9769 H 955.659 -4.59377 3.06066 0
M  V30 9770 H 958.135 -3.97303 1.23651 0
M  V30 9771 H 957.011 -5.35583 1.20173 0
M  V30 9772 H 957.272 -4.41349 -0.257498 0
M  V30 9773 N 956.331 -0.831506 -1.3388 0
M  V30 9774 C 957.241 -0.261688 -2.33136 0
M  V30 9775 C 958.257 0.608429 -1.63016 0
M  V30 9776 O 959.433 0.514297 -1.94723 0
M  V30 9777 C 956.498 0.559957 -3.42148 0
M  V30 9778 C 955.559 -0.333569 -4.28002 0
M  V30 9779 C 954.792 0.448956 -5.31808 0
M  V30 9780 O 955.015 1.6814 -5.45055 0
M  V30 9781 O 953.949 -0.173197 -6.01651 0
M  V30 9782 H 957.775 -1.08343 -2.83717 0
M  V30 9783 H 955.36 -0.593849 -1.3709 0
M  V30 9784 H 957.242 1.02712 -4.08691 0
M  V30 9785 H 955.917 1.35888 -2.93796 0
M  V30 9786 H 954.824 -0.848416 -3.64352 0
M  V30 9787 H 956.157 -1.09707 -4.79818 0
M  V30 9788 N 957.809 1.4625 -0.587256 0
M  V30 9789 C 958.757 2.32076 0.156108 0
M  V30 9790 C 959.751 1.44756 0.879887 0
M  V30 9791 O 960.957 1.61356 0.797759 0
M  V30 9792 H 957.332 0.748808 0.0692098 0
M  V30 9793 H 959.303 2.9258 -0.586497 0
M  V30 9794 C 958.052 3.28008 1.15352 0
M  V30 9795 H 957.375 3.9518 0.60601 0
M  V30 9796 H 958.815 3.90832 1.64396 0
M  V30 9797 C 957.274 2.53691 2.21681 0
M  V30 9798 O 957.804 2.30329 3.29107 0
M  V30 9799 N 956.01 2.14174 1.96412 0
M  V30 9800 H 955.557 2.33374 1.09061 0
M  V30 9801 H 955.515 1.6477 2.67765 0
M  V30 9802 N 959.287 0.325282 1.54207 0
M  V30 9803 C 960.698 -0.162426 1.85992 0
M  V30 9804 C 961.049 -1.51482 1.2469 0
M  V30 9805 O 960.174 -2.092 0.553578 0
M  V30 9806 C 960.769 -0.3015 3.37456 0
M  V30 9807 C 959.328 -0.73343 3.69185 0
M  V30 9808 C 958.475 0.143831 2.76927 0
M  V30 9809 H 961.426 0.545508 1.4903 0
M  V30 9810 H 961.447 -1.13212 3.63268 0
M  V30 9811 H 960.959 0.682942 3.82044 0
M  V30 9812 H 959.06 -1.72755 3.30131 0
M  V30 9813 H 959.173 -0.535987 4.76092 0
M  V30 9814 H 957.537 -0.380892 2.51836 0
M  V30 9815 H 958.32 1.12507 3.24341 0
M  V30 9816 N 960.765 -1.57509 0.0534917 0
M  V30 9817 C 962.181 -1.56696 -0.303067 0
M  V30 9818 C 962.381 -1.06135 -1.71282 0
M  V30 9819 O 961.437 -0.71899 -2.42047 0
M  V30 9820 C 962.75 -3.00421 -0.129418 0
M  V30 9821 C 964.298 -3.12358 -0.200346 0
M  V30 9822 C 964.773 -4.57967 -0.0551971 0
M  V30 9823 N 966.264 -4.63066 -0.111398 0
M  V30 9824 C 966.999 -5.73395 -0.0232344 0
M  V30 9825 N 966.495 -6.92701 0.11741 0
M  V30 9826 N 968.288 -5.62045 -0.078984 0
M  V30 9827 H 960.439 -1.88696 0.975064 0
M  V30 9828 H 962.702 -0.869072 0.378706 0
M  V30 9829 H 962.408 -3.41456 0.842653 0
M  V30 9830 H 962.282 -3.66563 -0.889476 0
M  V30 9831 H 964.669 -2.71221 -1.16289 0
M  V30 9832 H 964.75 -2.48891 0.590506 0
M  V30 9833 H 964.394 -4.9979 0.904034 0
M  V30 9834 H 964.324 -5.19443 -0.865223 0
M  V30 9835 H 966.815 -3.77263 -0.219256 0
M  V30 9836 H 967.128 -7.72597 0.177326 0
M  V30 9837 H 965.473 -6.94833 0.152526 0
M  V30 9838 H 968.664 -4.67725 -0.187434 0
M  V30 9839 H 968.837 -6.48 -0.00681731 0
M  V30 9840 N 962.243 0.219913 -1.56058 0
M  V30 9841 C 963.491 0.942199 -1.78793 0
M  V30 9842 C 963.812 1.84804 -0.622284 0
M  V30 9843 O 963.082 1.9255 0.360735 0
M  V30 9844 H 961.662 0.350895 -0.659455 0
M  V30 9845 H 964.324 0.231376 -1.93522 0
M  V30 9846 H 963.42 1.54804 -2.71002 0
M  V30 9847 N 963.721 1.49897 0.486681 0
M  V30 9848 C 964.949 1.63837 1.26353 0
M  V30 9849 C 965.364 0.315428 1.86146 0
M  V30 9850 O 964.721 -0.700831 1.68507 0
M  V30 9851 C 964.772 2.71792 2.38351 0
M  V30 9852 O 964.493 3.98956 1.81013 0
M  V30 9853 C 965.994 2.96566 3.2949 0
M  V30 9854 H 963.214 0.551158 0.382709 0
M  V30 9855 H 965.758 1.96023 0.582694 0
M  V30 9856 H 963.913 2.42344 3.02238 0
M  V30 9857 H 964.327 4.58536 2.54647 0
M  V30 9858 H 965.801 3.75803 4.04322 0
M  V30 9859 H 966.278 2.07031 3.87343 0
M  V30 9860 H 966.884 3.27485 2.71355 0
M  V30 9861 N 965.199 -0.738761 1.39212 0
M  V30 9862 C 966.427 -1.52801 1.39497 0
M  V30 9863 C 966.842 -1.88797 -0.0114917 0
M  V30 9864 O 966.199 -1.53835 -0.981887 0
M  V30 9865 C 966.25 -2.81793 2.2644 0
M  V30 9866 O 965.971 -2.47328 3.61608 0
M  V30 9867 C 967.472 -3.75844 2.35067 0
M  V30 9868 H 964.692 -0.472322 0.476606 0
M  V30 9869 H 967.236 -0.913153 1.8298 0
M  V30 9870 H 965.391 -3.3962 1.8638 0
M  V30 9871 H 965.805 -3.30162 4.07545 0
M  V30 9872 H 967.279 -4.6326 3.00157 0
M  V30 9873 H 967.756 -4.17329 1.3687 0
M  V30 9874 H 968.362 -3.23937 2.75581 0
M  V30 9875 N 966.677 -1.24326 -0.968545 0
M  V30 9876 C 967.902 -1.1104 -1.75171 0
M  V30 9877 C 968.327 0.333109 -1.85127 0
M  V30 9878 O 967.685 1.24115 -1.32156 0
M  V30 9879 C 967.733 -1.75397 -3.15068 0
M  V30 9880 O 966.837 -1.02417 -3.9948 0
M  V30 9881 H 966.178 -0.388488 -0.538491 0
M  V30 9882 H 968.708 -1.64617 -1.215 0
M  V30 9883 H 968.718 -1.8112 -3.65595 0
M  V30 9884 H 967.393 -2.80427 -3.07138 0
M  V30 9885 H 965.97 -1.04475 -3.57966 0
M  V30 9886 N 968.156 1.1691 -1.05688 0
M  V30 9887 C 969.103 2.21095 -0.662246 0
M  V30 9888 C 970.073 1.62623 0.338083 0
M  V30 9889 O 971.258 1.89428 0.228362 0
M  V30 9890 C 968.398 3.45066 -0.0484018 0
M  V30 9891 C 967.511 4.17809 -1.09817 0
M  V30 9892 C 966.646 5.29281 -0.451114 0
M  V30 9893 C 965.685 5.93817 -1.48484 0
M  V30 9894 N 964.822 6.96793 -0.861588 0
M  V30 9895 H 969.662 2.54204 -1.55513 0
M  V30 9896 H 967.199 1.24863 -0.777665 0
M  V30 9897 H 969.157 4.15932 0.324978 0
M  V30 9898 H 967.787 3.12526 0.807918 0
M  V30 9899 H 966.839 3.45608 -1.58932 0
M  V30 9900 H 968.151 4.61907 -1.88265 0
M  V30 9901 H 967.305 6.06695 -0.0244251 0
M  V30 9902 H 966.044 4.8633 0.365306 0
M  V30 9903 H 965.049 5.1513 -1.92149 0
M  V30 9904 H 966.274 6.38848 -2.30325 0
M  V30 9905 H 964.22 6.55967 -0.0657688 0
M  V30 9906 H 964.137 7.39229 -1.58354 0
M  V30 9907 H 965.405 7.78142 -0.45984 0
M  V30 9908 N 969.634 0.838594 1.33437 0
M  V30 9909 C 970.883 0.430484 1.97053 0
M  V30 9910 C 971.196 -1.01556 1.6717 0
M  V30 9911 O 972.402 -1.52834 2.24397 0
M  V30 9912 C 970.858 0.718828 3.52648 0
M  V30 9913 C 970.466 2.17953 3.91408 0
M  V30 9914 C 972.21 0.377654 4.22817 0
M  V30 9915 C 970.117 2.41194 5.39981 0
M  V30 9916 H 969.047 0.157239 0.737422 0
M  V30 9917 H 971.698 1.02714 1.5206 0
M  V30 9918 H 970.08 0.0518042 3.95966 0
M  V30 9919 H 971.254 2.88701 3.59149 0
M  V30 9920 H 969.569 2.48366 3.34221 0
M  V30 9921 H 972.166 0.528926 5.32077 0
M  V30 9922 H 972.509 -0.679338 4.1072 0
M  V30 9923 H 973.042 0.999899 3.85028 0
M  V30 9924 H 969.781 3.45457 5.57081 0
M  V30 9925 H 969.301 1.75007 5.73701 0
M  V30 9926 H 970.98 2.24334 6.06863 0
M  V30 9927 N 971.112 -1.45937 0.595003 0
M  V30 9928 C 972.045 -2.27491 -0.179775 0
M  V30 9929 C 973.023 -1.36376 -0.88545 0
M  V30 9930 O 974.207 -1.65797 -0.896863 0
M  V30 9931 C 971.334 -3.1443 -1.25902 0
M  V30 9932 C 970.38 -4.21396 -0.657847 0
M  V30 9933 S 971.213 -5.32923 0.524689 0
M  V30 9934 C 972.369 -6.2343 -0.555452 0
M  V30 9935 H 972.602 -2.92855 0.512173 0
M  V30 9936 H 970.135 -1.49595 0.382199 0
M  V30 9937 H 972.093 -3.65081 -1.87687 0
M  V30 9938 H 970.754 -2.48356 -1.92297 0
M  V30 9939 H 969.947 -4.82102 -1.46948 0
M  V30 9940 H 969.549 -3.73822 -0.115403 0
M  V30 9941 H 971.841 -6.62066 -1.43789 0
M  V30 9942 H 972.784 -7.08098 0.0151431 0
M  V30 9943 H 973.192 -5.57831 -0.865125 0
M  V30 9944 N 972.59 -0.333456 -1.54032 0
M  V30 9945 C 973.836 0.266527 -2.01041 0
M  V30 9946 C 974.169 1.51006 -1.2211 0
M  V30 9947 O 973.444 1.92078 -0.306016 0
M  V30 9948 C 973.727 0.59078 -3.55221 0
M  V30 9949 C 973.58 -0.664143 -4.4487 0
M  V30 9950 C 974.899 1.40447 -4.17088 0
M  V30 9951 H 972.018 0.0953979 -0.7308 0
M  V30 9952 H 974.66 -0.451995 -1.84545 0
M  V30 9953 H 972.81 1.20292 -3.69408 0
M  V30 9954 H 974.482 -1.30227 -4.42537 0
M  V30 9955 H 972.725 -1.29106 -4.14143 0
M  V30 9956 H 973.396 -0.392664 -5.50602 0
M  V30 9957 H 975.872 0.886946 -4.06537 0
M  V30 9958 H 974.748 1.6001 -5.2506 0
M  V30 9959 H 975.009 2.40357 -3.71054 0
M  V30 9960 N 974.068 1.57479 -0.061844 0
M  V30 9961 C 974.998 2.15181 0.9066 0
M  V30 9962 C 975.979 1.07624 1.31724 0
M  V30 9963 O 977.164 1.35614 1.39006 0
M  V30 9964 C 974.294 2.70542 2.17771 0
M  V30 9965 C 973.248 3.83178 1.9068 0
M  V30 9966 C 972.574 4.25099 3.24337 0
M  V30 9967 C 973.874 5.07853 1.21994 0
M  V30 9968 H 975.568 2.96355 0.42594 0
M  V30 9969 H 973.114 1.42556 0.203435 0
M  V30 9970 H 975.067 3.09552 2.85929 0
M  V30 9971 H 973.791 1.86575 2.68062 0
M  V30 9972 H 972.45 3.44656 1.24931 0
M  V30 9973 H 972.098 3.38069 3.72449 0
M  V30 9974 H 971.798 5.01021 3.07005 0
M  V30 9975 H 973.322 4.66718 3.93709 0
M  V30 9976 H 974.736 5.44242 1.80204 0
M  V30 9977 H 973.133 5.88987 1.14954 0
M  V30 9978 H 974.203 4.84497 0.197536 0
M  V30 9979 N 975.546 -0.211634 1.56173 0
M  V30 9980 C 976.792 -0.935935 1.79911 0
M  V30 9981 C 977.125 -1.83589 0.633155 0
M  V30 9982 O 976.4 -1.91004 -0.367132 0
M  V30 9983 C 976.683 -1.76638 3.13801 0
M  V30 9984 C 976.536 -0.892259 4.40861 0
M  V30 9985 C 977.855 -2.74224 3.44223 0
M  V30 9986 H 974.974 -0.338822 0.654499 0
M  V30 9987 H 977.616 -0.20422 1.88899 0
M  V30 9988 H 975.766 -2.39021 3.0627 0
M  V30 9989 H 977.438 -0.284407 4.60422 0
M  V30 9990 H 975.681 -0.198145 4.33347 0
M  V30 9991 H 976.352 -1.50793 5.31004 0
M  V30 9992 H 978.828 -2.21975 3.51946 0
M  V30 9993 H 977.704 -3.29424 4.39057 0
M  V30 9994 H 977.965 -3.52455 2.66885 0
M  V30 9995 N 977.024 -1.50153 -0.478725 0
M  V30 9996 C 978.27 -1.61968 -1.23036 0
M  V30 9997 C 978.625 -0.312529 -1.89845 0
M  V30 9998 O 977.918 0.688995 -1.78783 0
M  V30 9999 C 978.112 -2.73208 -2.30417 0
M  V30 10000 C 977.941 -4.14614 -1.74142 0
M  V30 10001 C 976.711 -4.81116 -1.54452 0
M  V30 10002 C 978.909 -4.99111 -1.24066 0
M  V30 10003 N 976.891 -6.06763 -0.933399 0
M  V30 10004 C 978.262 -6.15419 -0.752286 0
M  V30 10005 C 980.317 -4.84943 -1.12849 0
M  V30 10006 C 979.02 -7.19116 -0.162808 0
M  V30 10007 C 981.046 -5.88809 -0.552955 0
M  V30 10008 C 980.408 -7.0436 -0.0749195 0
M  V30 10009 H 976.507 -0.646894 -0.439377 0
M  V30 10010 H 979.091 -1.87244 -0.53364 0
M  V30 10011 H 977.262 -2.49667 -2.97525 0
M  V30 10012 H 978.994 -2.74423 -2.97446 0
M  V30 10013 H 975.749 -4.38282 -1.7946 0
M  V30 10014 H 976.173 -6.73906 -0.64647 0
M  V30 10015 H 980.815 -3.959 -1.48402 0
M  V30 10016 H 978.533 -8.0784 0.204943 0
M  V30 10017 H 982.119 -5.7991 -0.468633 0
M  V30 10018 H 980.999 -7.83357 0.363455 0
M  V30 10019 N 978.502 0.731368 -1.39602 0
M  V30 10020 C 979.465 1.8271 -1.38383 0
M  V30 10021 C 980.465 1.58338 -0.280309 0
M  V30 10022 O 981.655 1.65671 -0.538402 0
M  V30 10023 C 978.787 3.20556 -1.16002 0
M  V30 10024 H 979.98 1.85193 -2.35889 0
M  V30 10025 H 977.533 0.935396 -1.2522 0
M  V30 10026 H 978.268 3.23732 -0.191927 0
M  V30 10027 H 978.053 3.39643 -1.9592 0
M  V30 10028 H 979.543 4.00612 -1.17899 0
M  V30 10029 N 979.98 1.24838 0.961938 0
M  V30 10030 C 981.227 1.09151 1.70564 0
M  V30 10031 C 981.555 -0.368719 1.90973 0
M  V30 10032 O 980.81 -1.28854 1.47293 0
M  V30 10033 C 981.109 1.78289 3.09754 0
M  V30 10034 C 980.775 3.28216 3.09169 0
M  V30 10035 C 979.437 3.69118 3.08716 0
M  V30 10036 C 981.789 4.24035 3.03058 0
M  V30 10037 C 979.117 5.04263 2.99892 0
M  V30 10038 C 981.469 5.59195 2.95776 0
M  V30 10039 C 980.133 5.99436 2.93655 0
M  V30 10040 H 979.403 0.399414 0.624139 0
M  V30 10041 H 982.05 1.55016 1.12438 0
M  V30 10042 H 980.355 1.24835 3.7138 0
M  V30 10043 H 982.052 1.63612 3.66104 0
M  V30 10044 H 978.642 2.95667 3.10289 0
M  V30 10045 H 982.826 3.93431 3.02532 0
M  V30 10046 H 978.082 5.3463 2.96615 0
M  V30 10047 H 982.256 6.33142 2.90007 0
M  V30 10048 H 979.883 7.04116 2.86573 0
M  V30 10049 N 981.458 -1.16348 1.06306 0
M  V30 10050 C 982.705 -1.86881 0.779852 0
M  V30 10051 C 983.033 -1.8171 -0.693668 0
M  V30 10052 O 982.288 -1.22769 -1.52401 0
M  V30 10053 C 982.587 -3.35936 1.21991 0
M  V30 10054 C 982.253 -3.61307 2.69756 0
M  V30 10055 C 980.915 -3.6794 3.10119 0
M  V30 10056 C 983.267 -3.71871 3.65187 0
M  V30 10057 C 980.595 -3.82639 4.44752 0
M  V30 10058 C 982.947 -3.88091 4.99568 0
M  V30 10059 C 981.611 -3.92967 5.39568 0
M  V30 10060 H 980.881 -0.683847 0.285368 0
M  V30 10061 H 983.528 -1.37569 1.33218 0
M  V30 10062 H 981.833 -3.87381 0.586774 0
M  V30 10063 H 983.53 -3.88895 0.977821 0
M  V30 10064 H 980.12 -3.56777 2.37504 0
M  V30 10065 H 984.304 -3.66057 3.35136 0
M  V30 10066 H 979.56 -3.84666 4.75228 0
M  V30 10067 H 983.734 -3.95207 5.73397 0
M  V30 10068 H 981.361 -4.04109 6.43895 0
M  V30 10069 N 982.937 -0.845659 -1.3299 0
M  V30 10070 C 983.9 -0.288905 -2.27372 0
M  V30 10071 C 984.9 0.546263 -1.51237 0
M  V30 10072 O 986.09 0.359072 -1.70459 0
M  V30 10073 C 983.222 0.59224 -3.35716 0
M  V30 10074 H 984.415 -1.12181 -2.78128 0
M  V30 10075 H 981.968 -0.619276 -1.43508 0
M  V30 10076 H 982.703 1.44732 -2.90212 0
M  V30 10077 H 982.488 -0.00543255 -3.921 0
M  V30 10078 H 983.978 0.974848 -4.06062 0
M  V30 10079 N 984.415 1.45619 -0.602734 0
M  V30 10080 C 985.661 2.02572 -0.0961759 0
M  V30 10081 C 985.994 1.47076 1.26815 0
M  V30 10082 O 985.269 0.643566 1.83544 0
M  V30 10083 C 985.552 3.60062 -0.0520032 0
M  V30 10084 C 985.405 4.25901 -1.44665 0
M  V30 10085 C 986.724 4.35446 0.638342 0
M  V30 10086 H 983.843 0.736099 -0.0364238 0
M  V30 10087 H 986.485 1.7353 -0.773776 0
M  V30 10088 H 984.635 3.84936 0.525032 0
M  V30 10089 H 986.307 4.12228 -2.0704 0
M  V30 10090 H 984.55 3.84489 -2.00874 0
M  V30 10091 H 985.221 5.34779 -1.36803 0
M  V30 10092 H 987.697 4.15837 0.147926 0
M  V30 10093 H 986.573 5.45176 0.63834 0
M  V30 10094 H 986.834 4.07962 1.70351 0
M  V30 10095 N 985.893 0.34162 1.53853 0
M  V30 10096 C 987.142 -0.256475 2.00063 0
M  V30 10097 C 987.455 -1.51811 1.23341 0
M  V30 10098 O 988.661 -2.19332 1.60017 0
M  V30 10099 C 987.117 -0.507567 3.56303 0
M  V30 10100 C 986.725 0.738052 4.41879 0
M  V30 10101 C 988.469 -1.06463 4.10933 0
M  V30 10102 C 986.376 0.457865 5.89625 0
M  V30 10103 H 985.306 -0.0996143 0.747391 0
M  V30 10104 H 987.957 0.456649 1.77727 0
M  V30 10105 H 986.339 -1.28134 3.74697 0
M  V30 10106 H 987.513 1.51278 4.3526 0
M  V30 10107 H 985.828 1.21661 3.98231 0
M  V30 10108 H 988.425 -1.28918 5.18926 0
M  V30 10109 H 988.768 -2.01956 3.64032 0
M  V30 10110 H 989.301 -0.351601 3.96243 0
M  V30 10111 H 986.04 1.38247 6.40756 0
M  V30 10112 H 985.56 -0.278818 5.99152 0
M  V30 10113 H 987.239 0.0743914 6.46957 0
M  V30 10114 N 987.371 -1.57444 0.0701946 0
M  V30 10115 C 988.618 -1.93429 -0.59929 0
M  V30 10116 C 988.946 -0.9501 -1.69715 0
M  V30 10117 O 988.201 0.0345377 -1.9567 0
M  V30 10118 C 988.5 -3.36044 -1.21694 0
M  V30 10119 C 988.166 -4.50232 -0.245374 0
M  V30 10120 C 986.828 -4.81195 0.0219161 0
M  V30 10121 C 989.18 -5.1951 0.419396 0
M  V30 10122 C 986.508 -5.78775 0.96109 0
M  V30 10123 C 988.86 -6.18095 1.34688 0
M  V30 10124 C 987.524 -6.47477 1.62265 0
M  V30 10125 H 986.794 -0.707807 -0.219296 0
M  V30 10126 H 989.441 -1.90982 0.14073 0
M  V30 10127 H 987.746 -3.34948 -2.03265 0
M  V30 10128 H 989.443 -3.61176 -1.74221 0
M  V30 10129 H 986.033 -4.26082 -0.463887 0
M  V30 10130 H 990.217 -4.95785 0.226009 0
M  V30 10131 H 985.473 -5.99865 1.18202 0
M  V30 10132 H 989.647 -6.7088 1.86795 0
M  V30 10133 H 987.274 -7.229 2.352 0
M  V30 10134 N 988.849 0.203349 -1.56283 0
M  V30 10135 C 989.779 1.2549 -1.96912 0
M  V30 10136 C 990.76 1.47919 -0.839884 0
M  V30 10137 O 991.945 1.59795 -1.10359 0
M  V30 10138 C 989.075 2.6009 -2.30153 0
M  V30 10139 C 988.029 2.52289 -3.45738 0
M  V30 10140 C 987.355 3.91086 -3.64632 0
M  V30 10141 C 988.655 2.05503 -4.80173 0
M  V30 10142 H 990.349 0.917306 -2.85002 0
M  V30 10143 H 987.895 0.439818 -1.37119 0
M  V30 10144 H 989.848 3.33829 -2.5717 0
M  V30 10145 H 988.572 2.95574 -1.38937 0
M  V30 10146 H 987.231 1.81006 -3.18798 0
M  V30 10147 H 986.879 4.23908 -2.7076 0
M  V30 10148 H 986.579 3.86742 -4.42385 0
M  V30 10149 H 988.103 4.66459 -3.94016 0
M  V30 10150 H 989.517 2.68995 -5.06275 0
M  V30 10151 H 987.914 2.1218 -5.61337 0
M  V30 10152 H 988.984 1.00793 -4.74309 0
M  V30 10153 N 990.327 1.50405 0.470755 0
M  V30 10154 C 991.29 1.68741 1.5511 0
M  V30 10155 C 992.29 0.558116 1.50804 0
M  V30 10156 O 993.48 0.825149 1.53418 0
M  V30 10157 C 990.612 1.71295 2.94739 0
M  V30 10158 H 991.805 2.65127 1.40169 0
M  V30 10159 H 989.358 1.39891 0.697156 0
M  V30 10160 H 990.093 0.766029 3.15123 0
M  V30 10161 H 989.878 2.53336 2.99271 0
M  V30 10162 H 991.368 1.87434 3.73173 0
M  V30 10163 N 991.805 -0.723954 1.39988 0
M  V30 10164 C 993.03 -1.5182 1.41299 0
M  V30 10165 C 993.455 -1.88096 0.0122636 0
M  V30 10166 O 992.813 -1.52687 -0.977559 0
M  V30 10167 C 992.861 -2.77532 2.30235 0
M  V30 10168 O 991.965 -3.73903 1.73984 0
M  V30 10169 H 991.306 -0.458058 0.480707 0
M  V30 10170 H 993.836 -0.892291 1.84118 0
M  V30 10171 H 993.846 -3.2615 2.45132 0
M  V30 10172 H 992.521 -2.50462 3.32026 0
M  V30 10173 H 991.098 -3.32715 1.68389 0
M  V30 10174 N 993.283 -1.25346 -0.955304 0
M  V30 10175 C 994.513 -1.12629 -1.732 0
M  V30 10176 C 994.921 0.322748 -1.86427 0
M  V30 10177 O 994.264 1.23381 -1.36099 0
M  V30 10178 C 994.326 -1.7064 -3.16421 0
M  V30 10179 C 993.99 -3.19632 -3.26626 0
M  V30 10180 C 994.987 -4.1663 -3.10991 0
M  V30 10181 C 992.672 -3.59829 -3.50468 0
M  V30 10182 C 994.666 -5.51806 -3.19043 0
M  V30 10183 C 992.353 -4.95143 -3.58157 0
M  V30 10184 C 993.351 -5.90941 -3.42459 0
M  V30 10185 O 993.039 -7.23792 -3.49828 0
M  V30 10186 H 992.771 -0.393646 -0.549562 0
M  V30 10187 H 995.325 -1.66184 -1.20715 0
M  V30 10188 H 993.555 -1.11532 -3.70267 0
M  V30 10189 H 995.244 -1.53032 -3.75947 0
M  V30 10190 H 996.01 -3.86915 -2.92441 0
M  V30 10191 H 991.889 -2.8576 -3.61749 0
M  V30 10192 H 995.433 -6.26559 -3.06707 0
M  V30 10193 H 991.33 -5.24525 -3.76224 0
M  V30 10194 H 992.098 -7.31879 -3.66463 0
M  V30 10195 N 994.761 1.15782 -1.06922 0
M  V30 10196 C 995.989 1.90355 -0.81072 0
M  V30 10197 C 996.404 1.77779 0.635614 0
M  V30 10198 O 995.761 1.12675 1.43564 0
M  V30 10199 C 995.812 3.4085 -1.2043 0
M  V30 10200 O 995.533 3.53057 -2.59388 0
M  V30 10201 C 997.034 4.32457 -0.974473 0
M  V30 10202 H 994.254 0.60343 -0.293451 0
M  V30 10203 H 996.798 1.46723 -1.42452 0
M  V30 10204 H 994.953 3.82162 -0.634909 0
M  V30 10205 H 995.367 4.46426 -2.75326 0
M  V30 10206 H 996.841 5.36488 -1.29942 0
M  V30 10207 H 997.318 4.39109 0.0894481 0
M  V30 10208 H 997.924 3.96882 -1.52856 0
M  V30 10209 N 996.239 0.8527 1.3254 0
M  V30 10210 C 997.202 0.300959 2.27215 0
M  V30 10211 C 998.202 -0.538235 1.51525 0
M  V30 10212 O 999.392 -0.350027 1.70647 0
M  V30 10213 C 996.524 -0.574428 3.36025 0
M  V30 10214 H 997.717 1.13655 2.77529 0
M  V30 10215 H 995.27 0.626878 1.43178 0
M  V30 10216 H 996.005 -1.43191 2.90976 0
M  V30 10217 H 995.79 0.0262265 3.92091 0
M  V30 10218 H 997.28 -0.9533 4.06573 0
M  V30 10219 N 997.718 -1.45297 0.610449 0
M  V30 10220 C 998.666 -2.32295 -0.119167 0
M  V30 10221 C 999.66 -1.46138 -0.856746 0
M  V30 10222 O 1000.87 -1.62605 -0.771988 0
M  V30 10223 H 997.241 -0.749815 -0.0572881 0
M  V30 10224 H 999.212 -2.91609 0.63297 0
M  V30 10225 C 997.961 -3.29802 -1.10119 0
M  V30 10226 H 997.284 -3.96095 -0.543063 0
M  V30 10227 H 998.724 -3.93398 -1.58158 0
M  V30 10228 C 997.183 -2.57185 -2.17617 0
M  V30 10229 O 997.713 -2.35535 -3.25401 0
M  V30 10230 N 995.919 -2.17272 -1.9298 0
M  V30 10231 H 995.466 -2.3508 -1.05334 0
M  V30 10232 H 995.424 -1.69009 -2.6511 0
M  V30 10233 N 999.196 -0.349774 -1.5367 0
M  V30 10234 C 1000.13 0.496338 -2.28164 0
M  V30 10235 C 1001.11 1.09737 -1.29968 0
M  V30 10236 O 1002.29 1.11759 -1.58819 0
M  V30 10237 C 999.422 1.64428 -3.0591 0
M  V30 10238 C 998.376 1.17127 -4.11661 0
M  V30 10239 C 997.702 2.40822 -4.77398 0
M  V30 10240 C 999.002 0.267293 -5.21616 0
M  V30 10241 H 1000.7 -0.125117 -2.99138 0
M  V30 10242 H 998.242 -0.0616152 -1.43868 0
M  V30 10243 H 1000.19 2.2427 -3.56765 0
M  V30 10244 H 998.919 2.29272 -2.32598 0
M  V30 10245 H 997.578 0.595634 -3.61729 0
M  V30 10246 H 997.226 3.04088 -4.00674 0
M  V30 10247 H 996.926 2.09852 -5.48849 0
M  V30 10248 H 998.45 3.01378 -5.3104 0
M  V30 10249 H 999.864 0.772734 -5.68068 0
M  V30 10250 H 998.261 0.0491991 -6.0008 0
M  V30 10251 H 999.331 -0.694892 -4.79895 0
M  V30 10252 N 1000.67 1.57404 -0.0785433 0
M  V30 10253 C 1001.64 2.11977 0.871693 0
M  V30 10254 C 1002.64 1.04529 1.2219 0
M  V30 10255 O 1003.83 1.30488 1.15406 0
M  V30 10256 C 1000.96 2.6267 2.17296 0
M  V30 10257 H 1002.15 2.97246 0.398115 0
M  V30 10258 H 999.705 1.5537 0.170251 0
M  V30 10259 H 1000.44 1.80873 2.69175 0
M  V30 10260 H 1000.22 3.41214 1.93171 0
M  V30 10261 H 1001.71 3.04943 2.85306 0
M  V30 10262 N 1002.15 -0.195058 1.56388 0
M  V30 10263 C 1003.11 -1.2254 1.93692 0
M  V30 10264 C 1004.11 -1.38437 0.81804 0
M  V30 10265 O 1005.3 -1.36248 1.08545 0
M  V30 10266 C 1002.44 -2.59476 2.21099 0
M  V30 10267 H 1003.63 -0.906544 2.8587 0
M  V30 10268 H 1001.18 -0.436577 1.50079 0
M  V30 10269 H 1001.92 -2.96417 1.31558 0
M  V30 10270 H 1001.7 -2.4931 3.02634 0
M  V30 10271 H 1003.19 -3.33777 2.50964 0
M  V30 10272 N 1003.63 -1.50653 -0.462772 0
M  V30 10273 C 1004.88 -1.62057 -1.21424 0
M  V30 10274 C 1005.2 -0.324778 -1.91769 0
M  V30 10275 O 1004.46 0.689828 -1.83139 0
M  V30 10276 C 1004.76 -2.75637 -2.27507 0
M  V30 10277 C 1004.42 -4.15826 -1.74354 0
M  V30 10278 C 1003.09 -4.53969 -1.5958 0
M  V30 10279 C 1005.44 -5.03409 -1.35012 0
M  V30 10280 C 1002.77 -5.77427 -1.03899 0
M  V30 10281 C 1005.12 -6.27422 -0.807704 0
M  V30 10282 C 1003.78 -6.6436 -0.646657 0
M  V30 10283 H 1003.05 -0.59301 -0.44432 0
M  V30 10284 H 1005.7 -1.84612 -0.508999 0
M  V30 10285 H 1004 -2.47203 -3.0397 0
M  V30 10286 H 1005.7 -2.81663 -2.85424 0
M  V30 10287 H 1002.29 -3.85739 -1.86823 0
M  V30 10288 H 1006.48 -4.74567 -1.45258 0
M  V30 10289 H 1001.73 -6.04713 -0.901751 0
M  V30 10290 H 1005.91 -6.94644 -0.494234 0
M  V30 10291 H 1003.53 -7.59901 -0.213053 0
M  V30 10292 N 1005.11 0.71652 -1.4037 0
M  V30 10293 C 1006.04 1.84012 -1.34963 0
M  V30 10294 C 1007.02 1.61102 -0.22017 0
M  V30 10295 O 1008.2 1.84127 -0.403676 0
M  V30 10296 C 1005.33 3.20334 -1.10017 0
M  V30 10297 C 1004.38 3.62072 -2.25402 0
M  V30 10298 S 1005.21 3.69295 -3.8779 0
M  V30 10299 C 1006.37 5.08378 -3.65107 0
M  V30 10300 H 1006.6 1.88318 -2.30052 0
M  V30 10301 H 1004.13 0.883208 -1.26644 0
M  V30 10302 H 1006.09 3.99042 -0.963097 0
M  V30 10303 H 1004.75 3.13662 -0.16584 0
M  V30 10304 H 1003.94 4.61051 -2.03587 0
M  V30 10305 H 1003.55 2.90619 -2.35408 0
M  V30 10306 H 1005.84 5.95268 -3.23516 0
M  V30 10307 H 1006.78 5.35228 -4.63613 0
M  V30 10308 H 1007.19 4.78927 -2.98813 0
M  V30 10309 N 1006.59 1.25851 0.948643 0
M  V30 10310 C 1007.84 1.10347 1.68838 0
M  V30 10311 C 1008.15 -0.354262 1.92365 0
M  V30 10312 O 1009.35 -0.629847 2.64093 0
M  V30 10313 C 1007.81 1.92659 3.03991 0
M  V30 10314 C 1007.42 3.42962 2.88238 0
M  V30 10315 C 1009.16 1.85743 3.81707 0
M  V30 10316 C 1007.07 4.17547 4.18818 0
M  V30 10317 H 1006 0.409342 0.63321 0
M  V30 10318 H 1008.65 1.50098 1.05559 0
M  V30 10319 H 1007.03 1.45736 3.68208 0
M  V30 10320 H 1008.21 3.97601 2.32917 0
M  V30 10321 H 1006.52 3.51035 2.23972 0
M  V30 10322 H 1009.12 2.38758 4.78434 0
M  V30 10323 H 1009.46 0.826568 4.08012 0
M  V30 10324 H 1009.99 2.30449 3.2425 0
M  V30 10325 H 1006.73 5.21072 3.97699 0
M  V30 10326 H 1006.25 3.6769 4.73882 0
M  V30 10327 H 1007.93 4.25589 4.87322 0
M  V30 10328 N 1008.06 -1.15214 1.07534 0
M  V30 10329 C 1009 -2.19634 0.655261 0
M  V30 10330 C 1010.01 -1.60139 -0.293165 0
M  V30 10331 O 1011.2 -1.78311 -0.0821957 0
M  V30 10332 C 1008.3 -3.38851 -0.0578281 0
M  V30 10333 C 1007.47 -4.27888 0.90725 0
M  V30 10334 C 1006.53 -5.25692 0.231115 0
M  V30 10335 O 1005.56 -5.62469 0.872746 0
M  V30 10336 N 1006.76 -5.71424 -1.0225 0
M  V30 10337 H 1009.52 -2.56292 1.55353 0
M  V30 10338 H 1007.08 -1.30347 0.960271 0
M  V30 10339 H 1009.08 -4.01334 -0.520874 0
M  V30 10340 H 1007.65 -3.00593 -0.858071 0
M  V30 10341 H 1006.87 -3.62475 1.54937 0
M  V30 10342 H 1008.15 -4.84246 1.56151 0
M  V30 10343 H 1007.55 -5.43659 -1.56369 0
M  V30 10344 H 1006.11 -6.35938 -1.42919 0
M  V30 10345 N 1009.54 -0.859717 -1.32086 0
M  V30 10346 C 1010.45 -0.31108 -2.32528 0
M  V30 10347 C 1011.47 0.573714 -1.6427 0
M  V30 10348 O 1012.64 0.472878 -1.9577 0
M  V30 10349 C 1009.71 0.487256 -3.43259 0
M  V30 10350 C 1008.77 -0.424279 -4.27198 0
M  V30 10351 C 1008 0.336051 -5.32641 0
M  V30 10352 O 1008.23 1.56541 -5.48499 0
M  V30 10353 O 1007.16 -0.300777 -6.01148 0
M  V30 10354 H 1010.99 -1.14336 -2.81355 0
M  V30 10355 H 1008.57 -0.622794 -1.358 0
M  V30 10356 H 1010.45 0.940203 -4.10777 0
M  V30 10357 H 1009.13 1.29626 -2.96612 0
M  V30 10358 H 1008.04 -0.925509 -3.62471 0
M  V30 10359 H 1009.37 -1.1986 -4.77383 0
M  V30 10360 N 1011.02 1.44971 -0.618145 0
M  V30 10361 C 1011.93 2.34403 0.0960457 0
M  V30 10362 C 1012.95 1.51862 0.849355 0
M  V30 10363 O 1014.12 1.84632 0.804557 0
M  V30 10364 C 1011.19 3.29646 1.07397 0
M  V30 10365 C 1010.25 4.28095 0.321466 0
M  V30 10366 C 1009.48 5.18787 1.25281 0
M  V30 10367 O 1009.7 5.1313 2.49106 0
M  V30 10368 O 1008.64 5.97282 0.744156 0
M  V30 10369 H 1012.46 2.96898 -0.639176 0
M  V30 10370 H 1010.05 1.44529 -0.37837 0
M  V30 10371 H 1011.93 3.88307 1.63694 0
M  V30 10372 H 1010.61 2.69702 1.79004 0
M  V30 10373 H 1009.51 3.73019 -0.284223 0
M  V30 10374 H 1010.85 4.90923 -0.354315 0
M  V30 10375 N 1012.5 0.357919 1.53482 0
M  V30 10376 C 1013.73 -0.234799 2.05261 0
M  V30 10377 C 1014.14 -1.43618 1.23169 0
M  V30 10378 O 1013.48 -1.81801 0.263435 0
M  V30 10379 C 1013.54 -0.699748 3.52624 0
M  V30 10380 C 1013.21 0.383905 4.55385 0
M  V30 10381 C 1014.2 1.23129 5.05109 0
M  V30 10382 C 1011.89 0.541953 4.99368 0
M  V30 10383 C 1013.88 2.22214 5.97411 0
M  V30 10384 C 1011.57 1.53618 5.91477 0
M  V30 10385 C 1012.57 2.37471 6.40388 0
M  V30 10386 O 1012.25 3.35199 7.30682 0
M  V30 10387 H 1011.99 -0.0465364 0.674396 0
M  V30 10388 H 1014.54 0.512355 1.98907 0
M  V30 10389 H 1012.77 -1.49838 3.5649 0
M  V30 10390 H 1014.46 -1.21461 3.87301 0
M  V30 10391 H 1015.23 1.12035 4.71883 0
M  V30 10392 H 1011.1 -0.100929 4.6089 0
M  V30 10393 H 1014.65 2.87702 6.35511 0
M  V30 10394 H 1010.55 1.64763 6.24118 0
M  V30 10395 H 1011.31 3.30838 7.48658 0
M  V30 10396 N 1013.98 -1.5736 0.0868897 0
M  V30 10397 C 1015.22 -1.94341 -0.579598 0
M  V30 10398 C 1015.56 -0.968238 -1.68341 0
M  V30 10399 O 1014.83 8.29649e-05 -1.945 0
M  V30 10400 C 1015.11 -3.41497 -1.14245 0
M  V30 10401 C 1014.97 -4.49778 -0.044255 0
M  V30 10402 C 1016.29 -3.89788 -2.04336 0
M  V30 10403 H 1013.4 -0.70668 -0.20922 0
M  V30 10404 H 1016.05 -1.89359 0.15593 0
M  V30 10405 H 1014.2 -3.45873 -1.76929 0
M  V30 10406 H 1015.87 -4.57517 0.58959 0
M  V30 10407 H 1014.11 -4.293 0.623207 0
M  V30 10408 H 1014.78 -5.4992 -0.478749 0
M  V30 10409 H 1017.26 -3.87513 -1.51569 0
M  V30 10410 H 1016.13 -4.93335 -2.40648 0
M  V30 10411 H 1016.4 -3.28603 -2.95757 0
M  V30 10412 N 1015.45 0.186762 -1.56489 0
M  V30 10413 C 1016.73 0.932229 -1.71956 0
M  V30 10414 C 1017.11 2.01037 -0.644006 0
M  V30 10415 O 1016.46 2.259 0.343694 0
M  V30 10416 C 1016.67 1.51106 -3.14592 0
M  V30 10417 C 1018.02 1.98997 -3.75081 0
M  V30 10418 O 1019.04 1.60931 -3.17773 0
M  V30 10419 O 1017.9 2.69067 -4.75673 0
M  V30 10420 H 1014.99 0.437736 -0.701652 0
M  V30 10421 H 1017.54 0.175803 -1.68787 0
M  V30 10422 H 1016.31 0.734327 -3.84348 0
M  V30 10423 H 1015.94 2.33209 -3.22024 0
M  V30 10424 N 1016.93 1.50896 0.454776 0
M  V30 10425 C 1018.16 1.6648 1.22849 0
M  V30 10426 C 1018.58 0.354841 1.85435 0
M  V30 10427 O 1017.93 -0.664931 1.69956 0
M  V30 10428 C 1017.98 2.76787 2.32532 0
M  V30 10429 O 1017.7 4.02706 1.72509 0
M  V30 10430 C 1019.21 3.03488 3.23125 0
M  V30 10431 H 1016.43 0.559152 0.370932 0
M  V30 10432 H 1018.97 1.97215 0.540983 0
M  V30 10433 H 1017.12 2.48701 2.9703 0
M  V30 10434 H 1017.54 4.63834 2.44863 0
M  V30 10435 H 1019.01 3.84294 3.9626 0
M  V30 10436 H 1019.49 2.152 3.82865 0
M  V30 10437 H 1020.1 3.33167 2.64347 0
M  V30 10438 N 1018.41 -0.709066 1.40748 0
M  V30 10439 C 1019.66 -1.47119 1.39585 0
M  V30 10440 C 1019.99 -1.942 0.000245323 0
M  V30 10441 O 1019.26 -1.68609 -0.969593 0
M  V30 10442 C 1019.55 -2.69266 2.39099 0
M  V30 10443 C 1019.4 -2.28037 3.8771 0
M  V30 10444 C 1020.72 -3.71438 2.36055 0
M  V30 10445 H 1017.84 -0.533632 0.508336 0
M  V30 10446 H 1020.48 -0.808718 1.7193 0
M  V30 10447 H 1018.63 -3.25788 2.11647 0
M  V30 10448 H 1020.3 -1.76946 4.26014 0
M  V30 10449 H 1018.55 -1.59966 4.03229 0
M  V30 10450 H 1019.22 -3.15621 4.52866 0
M  V30 10451 H 1021.69 -3.24559 2.60385 0
M  V30 10452 H 1020.57 -4.54532 3.07721 0
M  V30 10453 H 1020.83 -4.20193 1.37443 0
M  V30 10454 N 1019.89 -1.26353 -0.941956 0
M  V30 10455 C 1021.11 -1.14731 -1.72776 0
M  V30 10456 C 1021.54 0.293766 -1.85792 0
M  V30 10457 O 1020.9 1.21284 -1.34759 0
M  V30 10458 C 1020.95 -1.82041 -3.11277 0
M  V30 10459 O 1020.05 -1.10867 -3.97218 0
M  V30 10460 H 1019.39 -0.399823 -0.53013 0
M  V30 10461 H 1021.92 -1.67157 -1.17981 0
M  V30 10462 H 1021.93 -1.88834 -3.61671 0
M  V30 10463 H 1020.61 -2.86879 -3.0112 0
M  V30 10464 H 1019.18 -1.12044 -3.55669 0
M  V30 10465 N 1021.37 1.14642 -1.08144 0
M  V30 10466 C 1022.62 1.8525 -0.807885 0
M  V30 10467 C 1022.94 1.83194 0.668213 0
M  V30 10468 O 1022.21 1.27848 1.48431 0
M  V30 10469 H 1020.79 0.685909 -0.295868 0
M  V30 10470 H 1023.45 1.38935 -1.36686 0
M  V30 10471 H 1022.54 2.90155 -1.14964 0
M  V30 10472 N 1022.85 0.866709 1.31628 0
M  V30 10473 C 1023.78 0.335762 2.31073 0
M  V30 10474 C 1024.76 -0.571597 1.60209 0
M  V30 10475 O 1025.94 -0.489306 1.87935 0
M  V30 10476 C 1023.07 -0.466416 3.44154 0
M  V30 10477 C 1022.03 0.347561 4.26586 0
M  V30 10478 C 1021.35 -0.5801 5.31544 0
M  V30 10479 C 1022.65 1.57986 4.97833 0
M  V30 10480 H 1024.35 1.16673 2.75731 0
M  V30 10481 H 1021.89 0.56248 1.3256 0
M  V30 10482 H 1023.84 -0.84836 4.12772 0
M  V30 10483 H 1022.57 -1.33086 2.98254 0
M  V30 10484 H 1021.23 0.71141 3.59631 0
M  V30 10485 H 1020.88 -1.44174 4.81895 0
M  V30 10486 H 1020.58 -0.0393965 5.87587 0
M  V30 10487 H 1022.1 -0.958958 6.03023 0
M  V30 10488 H 1023.51 1.26954 5.59067 0
M  V30 10489 H 1021.91 2.05939 5.63657 0
M  V30 10490 H 1022.98 2.3345 4.25005 0
M  V30 10491 N 1024.32 -1.44642 0.625825 0
M  V30 10492 C 1025.55 -2.06971 0.133373 0
M  V30 10493 C 1025.97 -1.46421 -1.18078 0
M  V30 10494 O 1025.33 -0.563676 -1.72315 0
M  V30 10495 C 1025.38 -3.6059 0.0265097 0
M  V30 10496 O 1024.48 -3.99615 -1.01889 0
M  V30 10497 H 1023.82 -0.658873 0.0823568 0
M  V30 10498 H 1026.35 -1.85601 0.861002 0
M  V30 10499 H 1026.36 -4.07663 -0.1658 0
M  V30 10500 H 1025.04 -4.04043 0.985986 0
M  V30 10501 H 1023.62 -3.64183 -0.801577 0
M  V30 10502 N 1025.8 -0.366053 -1.5329 0
M  V30 10503 C 1027.08 0.279902 -1.93587 0
M  V30 10504 C 1027.46 1.66352 -1.29963 0
M  V30 10505 O 1026.81 2.23845 -0.458895 0
M  V30 10506 C 1027.02 0.329634 -3.4744 0
M  V30 10507 C 1028.36 0.569754 -4.2076 0
M  V30 10508 O 1029.39 0.410823 -3.53823 0
M  V30 10509 O 1028.25 0.879262 -5.3938 0
M  V30 10510 H 1025.34 0.16802 -0.809752 0
M  V30 10511 H 1027.89 -0.418871 -1.64449 0
M  V30 10512 H 1026.66 -0.640434 -3.86023 0
M  V30 10513 H 1026.28 1.07428 -3.82812 0
M  V30 10514 N 1027.28 1.57312 -0.0952337 0
M  V30 10515 C 1028.7 1.57445 0.261416 0
M  V30 10516 C 1028.9 1.10639 1.68408 0
M  V30 10517 O 1027.95 0.782912 2.40056 0
M  V30 10518 C 1029.26 3.00659 0.0497206 0
M  V30 10519 C 1030.81 3.1278 0.117459 0
M  V30 10520 C 1031.29 4.57952 -0.0662441 0
M  V30 10521 N 1032.78 4.63199 -0.0114146 0
M  V30 10522 C 1033.51 5.73255 -0.128799 0
M  V30 10523 N 1033.01 6.92146 -0.301026 0
M  V30 10524 N 1034.8 5.62056 -0.0700599 0
M  V30 10525 H 1026.95 1.86045 -1.02475 0
M  V30 10526 H 1029.22 0.858726 -0.401614 0
M  V30 10527 H 1028.92 3.39102 -0.932888 0
M  V30 10528 H 1028.8 3.68792 0.791975 0
M  V30 10529 H 1031.18 2.74209 1.09057 0
M  V30 10530 H 1031.26 2.47238 -0.656288 0
M  V30 10531 H 1030.91 4.97217 -1.03623 0
M  V30 10532 H 1030.84 5.21555 0.727198 0
M  V30 10533 H 1033.33 3.77712 0.119154 0
M  V30 10534 H 1033.64 7.71855 -0.382104 0
M  V30 10535 H 1031.99 6.94184 -0.336695 0
M  V30 10536 H 1035.18 4.68057 0.0633587 0
M  V30 10537 H 1035.35 6.4779 -0.164991 0
M  V30 10538 N 1028.76 -0.17846 1.56586 0
M  V30 10539 C 1029.7 -1.22104 1.95855 0
M  V30 10540 C 1030.67 -1.44366 0.821447 0
M  V30 10541 O 1031.86 -1.57224 1.08098 0
M  V30 10542 C 1029 -2.55701 2.31757 0
M  V30 10543 C 1028.11 -2.40879 3.5861 0
M  V30 10544 C 1027.25 -3.67293 3.83757 0
M  V30 10545 C 1026.29 -3.47373 5.03982 0
M  V30 10546 N 1025.42 -4.65839 5.25298 0
M  V30 10547 H 1030.26 -0.879168 2.84736 0
M  V30 10548 H 1027.8 -0.422721 1.40895 0
M  V30 10549 H 1029.76 -3.33556 2.50592 0
M  V30 10550 H 1028.39 -2.87898 1.45995 0
M  V30 10551 H 1027.44 -1.54236 3.47729 0
M  V30 10552 H 1028.75 -2.22102 4.46623 0
M  V30 10553 H 1027.91 -4.53584 4.02922 0
M  V30 10554 H 1026.65 -3.89041 2.94107 0
M  V30 10555 H 1025.65 -2.59467 4.84723 0
M  V30 10556 H 1026.88 -3.27055 5.95157 0
M  V30 10557 H 1024.82 -4.8782 4.38598 0
M  V30 10558 H 1024.74 -4.4995 6.0752 0
M  V30 10559 H 1026.01 -5.53435 5.48936 0
M  V30 10560 N 1030.24 -1.51135 -0.446768 0
M  V30 10561 C 1031.48 -1.63336 -1.19698 0
M  V30 10562 C 1031.81 -0.345099 -1.91414 0
M  V30 10563 O 1031.07 0.670365 -1.8386 0
M  V30 10564 C 1031.36 -2.78034 -2.2457 0
M  V30 10565 C 1031.03 -4.17652 -1.69934 0
M  V30 10566 C 1029.69 -4.55636 -1.54756 0
M  V30 10567 C 1032.04 -5.04813 -1.29665 0
M  V30 10568 C 1029.37 -5.78496 -0.977689 0
M  V30 10569 C 1031.72 -6.28244 -0.741112 0
M  V30 10570 C 1030.39 -6.65009 -0.576156 0
M  V30 10571 H 1029.66 -0.597689 -0.438006 0
M  V30 10572 H 1032.31 -1.85141 -0.48939 0
M  V30 10573 H 1030.61 -2.50413 -3.01331 0
M  V30 10574 H 1032.31 -2.84675 -2.8242 0
M  V30 10575 H 1028.9 -3.87699 -1.82722 0
M  V30 10576 H 1033.08 -4.76081 -1.40216 0
M  V30 10577 H 1028.34 -6.05636 -0.837563 0
M  V30 10578 H 1032.51 -6.95129 -0.42053 0
M  V30 10579 H 1030.14 -7.60085 -0.132443 0
M  V30 10580 N 1031.71 0.701592 -1.41122 0
M  V30 10581 C 1032.65 1.8268 -1.38422 0
M  V30 10582 C 1033.66 1.60244 -0.287342 0
M  V30 10583 O 1034.85 1.69859 -0.548658 0
M  V30 10584 C 1031.95 3.19338 -1.13475 0
M  V30 10585 C 1031.12 3.68853 -2.35088 0
M  V30 10586 C 1030.18 4.84163 -2.06089 0
M  V30 10587 O 1029.21 4.9609 -2.79077 0
M  V30 10588 N 1030.41 5.70972 -1.04743 0
M  V30 10589 H 1033.17 1.8549 -2.35401 0
M  V30 10590 H 1030.73 0.883682 -1.35656 0
M  V30 10591 H 1032.73 3.94095 -0.920377 0
M  V30 10592 H 1031.3 3.11589 -0.251152 0
M  V30 10593 H 1030.52 2.8507 -2.72266 0
M  V30 10594 H 1031.8 3.98673 -3.16129 0
M  V30 10595 H 1031.2 5.63961 -0.443221 0
M  V30 10596 H 1029.76 6.45654 -0.892949 0
M  V30 10597 N 1033.19 1.2685 0.935242 0
M  V30 10598 C 1034.61 1.04091 1.20984 0
M  V30 10599 C 1034.81 -0.230242 2.0018 0
M  V30 10600 O 1033.86 -0.93778 2.3444 0
M  V30 10601 C 1035.18 2.27586 1.96533 0
M  V30 10602 C 1036.72 2.32547 2.09501 0
M  V30 10603 C 1037.2 3.55751 2.88454 0
M  V30 10604 N 1038.69 3.56263 2.96025 0
M  V30 10605 C 1039.43 4.48262 3.57559 0
M  V30 10606 N 1038.92 5.50557 4.20546 0
M  V30 10607 N 1040.71 4.35901 3.5489 0
M  V30 10608 H 1032.87 2.08484 0.405954 0
M  V30 10609 H 1035.13 0.916548 0.242164 0
M  V30 10610 H 1034.83 3.20076 1.45753 0
M  V30 10611 H 1034.71 2.32305 2.97177 0
M  V30 10612 H 1037.1 1.40568 2.5947 0
M  V30 10613 H 1037.18 2.31836 1.08101 0
M  V30 10614 H 1036.82 4.48063 2.3917 0
M  V30 10615 H 1036.75 3.53711 3.90123 0
M  V30 10616 H 1039.24 2.82278 2.51252 0
M  V30 10617 H 1039.55 6.16935 4.65415 0
M  V30 10618 H 1037.9 5.54407 4.19115 0
M  V30 10619 H 1041.09 3.552 3.04879 0
M  V30 10620 H 1041.26 5.07792 4.02557 0
M  V30 10621 N 1034.67 -1.14067 1.0875 0
M  V30 10622 C 1036.08 -1.66747 0.839778 0
M  V30 10623 C 1036.43 -1.85711 -0.632909 0
M  V30 10624 O 1035.56 -1.57084 -1.48841 0
M  V30 10625 C 1036.15 -3.02896 1.51787 0
M  V30 10626 C 1034.71 -3.52596 1.3173 0
M  V30 10627 C 1033.86 -2.27994 1.57841 0
M  V30 10628 H 1036.81 -0.980838 1.24761 0
M  V30 10629 H 1036.83 -3.68526 0.947057 0
M  V30 10630 H 1036.34 -2.89062 2.58969 0
M  V30 10631 H 1034.44 -3.71647 0.266339 0
M  V30 10632 H 1034.56 -4.33151 2.04736 0
M  V30 10633 H 1032.92 -2.34241 1.00015 0
M  V30 10634 H 1033.7 -2.16732 2.66237 0
M  V30 10635 N 1036.15 -0.873678 -1.31166 0
M  V30 10636 C 1037.08 -0.289389 -2.27366 0
M  V30 10637 C 1038.09 0.549667 -1.5324 0
M  V30 10638 O 1039.28 0.371056 -1.74601 0
M  V30 10639 C 1036.38 0.60807 -3.334 0
M  V30 10640 C 1035.56 -0.199379 -4.36945 0
M  V30 10641 C 1034.61 0.626798 -5.22454 0
M  V30 10642 O 1033.64 0.0535121 -5.69175 0
M  V30 10643 N 1034.84 1.93809 -5.47191 0
M  V30 10644 H 1037.61 -1.1161 -2.78143 0
M  V30 10645 H 1035.17 -0.735529 -1.44228 0
M  V30 10646 H 1037.16 1.16656 -3.87522 0
M  V30 10647 H 1035.73 1.33545 -2.82638 0
M  V30 10648 H 1034.95 -0.939316 -3.82845 0
M  V30 10649 H 1036.24 -0.75329 -5.03193 0
M  V30 10650 H 1035.64 2.42693 -5.10995 0
M  V30 10651 H 1034.19 2.44428 -6.04234 0
M  V30 10652 N 1037.63 1.44308 -0.633487 0
M  V30 10653 C 1038.54 2.34492 0.0711787 0
M  V30 10654 C 1039.55 1.52754 0.8332 0
M  V30 10655 O 1040.73 1.85475 0.784929 0
M  V30 10656 C 1037.79 3.30767 1.03895 0
M  V30 10657 C 1036.85 4.28412 0.276043 0
M  V30 10658 C 1036.09 5.20087 1.19772 0
M  V30 10659 O 1036.31 5.15743 2.4365 0
M  V30 10660 O 1035.24 5.98038 0.680764 0
M  V30 10661 H 1039.07 2.96203 -0.67063 0
M  V30 10662 H 1036.66 1.4412 -0.393678 0
M  V30 10663 H 1038.54 3.90021 1.59566 0
M  V30 10664 H 1037.21 2.71586 1.76133 0
M  V30 10665 H 1036.12 3.72696 -0.32377 0
M  V30 10666 H 1037.45 4.9052 -0.406364 0
M  V30 10667 N 1039.1 0.374177 1.53094 0
M  V30 10668 C 1040.04 -0.503065 2.23611 0
M  V30 10669 C 1041.05 -1.03915 1.25321 0
M  V30 10670 O 1042.24 -0.944064 1.51492 0
M  V30 10671 C 1039.34 -1.70825 2.92698 0
M  V30 10672 C 1038.51 -1.30217 4.17567 0
M  V30 10673 C 1037.57 -2.37036 4.69788 0
M  V30 10674 O 1036.6 -1.99069 5.33254 0
M  V30 10675 N 1037.8 -3.68743 4.4834 0
M  V30 10676 H 1040.56 0.101013 2.9953 0
M  V30 10677 H 1038.12 0.199778 1.60663 0
M  V30 10678 H 1040.12 -2.41779 3.24538 0
M  V30 10679 H 1038.69 -2.219 2.2018 0
M  V30 10680 H 1037.91 -0.422121 3.91933 0
M  V30 10681 H 1039.19 -1.00728 4.9873 0
M  V30 10682 H 1038.59 -4.0236 3.97647 0
M  V30 10683 H 1037.15 -4.35776 4.84709 0
M  V30 10684 N 1040.58 -1.57259 0.103575 0
M  V30 10685 C 1041.81 -1.98711 -0.565454 0
M  V30 10686 C 1042.22 -0.981759 -1.61735 0
M  V30 10687 O 1041.56 0.0357019 -1.83665 0
M  V30 10688 C 1041.63 -3.36552 -1.26384 0
M  V30 10689 C 1041.29 -4.55566 -0.361714 0
M  V30 10690 C 1042.29 -5.18408 0.393539 0
M  V30 10691 C 1039.97 -5.01534 -0.277292 0
M  V30 10692 C 1041.97 -6.25594 1.2211 0
M  V30 10693 C 1039.65 -6.08584 0.553919 0
M  V30 10694 C 1040.65 -6.7048 1.30176 0
M  V30 10695 O 1040.34 -7.75464 2.1192 0
M  V30 10696 H 1040.07 -0.657853 -0.155582 0
M  V30 10697 H 1042.62 -2.04591 0.182089 0
M  V30 10698 H 1040.85 -3.2738 -2.05813 0
M  V30 10699 H 1042.54 -3.62395 -1.82824 0
M  V30 10700 H 1043.31 -4.8382 0.338098 0
M  V30 10701 H 1039.19 -4.53114 -0.849047 0
M  V30 10702 H 1042.73 -6.73836 1.80531 0
M  V30 10703 H 1038.63 -6.42604 0.610809 0
M  V30 10704 H 1039.4 -7.92491 2.04694 0
M  V30 10705 N 1042.06 0.170153 -1.56679 0
M  V30 10706 C 1043.47 0.732502 -1.7173 0
M  V30 10707 C 1043.82 1.82736 -0.71428 0
M  V30 10708 O 1042.95 2.16044 0.124102 0
M  V30 10709 C 1043.54 1.33548 -3.11368 0
M  V30 10710 C 1042.1 1.84464 -3.281 0
M  V30 10711 C 1041.25 0.724069 -2.6768 0
M  V30 10712 H 1044.2 -0.0552543 -1.58604 0
M  V30 10713 H 1044.22 2.20519 -3.10083 0
M  V30 10714 H 1043.73 0.5384 -3.84347 0
M  V30 10715 H 1041.83 2.66813 -2.6008 0
M  V30 10716 H 1041.95 1.98928 -4.35849 0
M  V30 10717 H 1040.31 1.14481 -2.27522 0
M  V30 10718 H 1041.09 -0.0611861 -3.43245 0
M  V30 10719 N 1043.54 1.5137 0.438746 0
M  V30 10720 C 1044.95 1.56462 1.01866 0
M  V30 10721 C 1045.3 0.387244 1.9234 0
M  V30 10722 O 1044.43 -0.496131 2.10636 0
M  V30 10723 C 1045.02 2.83557 1.85421 0
M  V30 10724 C 1043.58 2.91224 2.38464 0
M  V30 10725 C 1042.73 2.51109 1.17641 0
M  V30 10726 H 1045.68 1.57167 0.220072 0
M  V30 10727 H 1045.7 2.6724 2.70857 0
M  V30 10728 H 1045.21 3.69229 1.19546 0
M  V30 10729 H 1043.31 2.09979 3.07798 0
M  V30 10730 H 1043.42 3.94844 2.71358 0
M  V30 10731 H 1041.79 2.04276 1.5213 0
M  V30 10732 H 1042.57 3.39125 0.533785 0
M  V30 10733 N 1045.02 -0.694098 1.41492 0
M  V30 10734 C 1045.95 -1.82042 1.46229 0
M  V30 10735 C 1046.93 -1.67047 0.320803 0
M  V30 10736 O 1048.11 -1.86758 0.53245 0
M  V30 10737 C 1045.24 -3.2019 1.34519 0
M  V30 10738 C 1044.2 -3.49892 2.46495 0
M  V30 10739 C 1043.52 -4.87411 2.1985 0
M  V30 10740 C 1044.82 -3.4872 3.88834 0
M  V30 10741 H 1046.52 -1.78335 2.40493 0
M  V30 10742 H 1044.06 -0.856566 1.15754 0
M  V30 10743 H 1046.02 -3.98699 1.36445 0
M  V30 10744 H 1044.74 -3.24527 0.367406 0
M  V30 10745 H 1043.4 -2.73734 2.43854 0
M  V30 10746 H 1043.05 -4.88375 1.20411 0
M  V30 10747 H 1042.75 -5.08248 2.94885 0
M  V30 10748 H 1044.27 -5.68228 2.23494 0
M  V30 10749 H 1045.68 -4.1723 3.93182 0
M  V30 10750 H 1044.08 -3.81089 4.63564 0
M  V30 10751 H 1045.15 -2.47665 4.16881 0
M  V30 10752 N 1046.49 -1.27344 -0.928501 0
M  V30 10753 C 1047.44 -1.10001 -2.029 0
M  V30 10754 C 1048.41 -0.00131084 -1.661 0
M  V30 10755 O 1049.6 -0.163485 -1.90098 0
M  V30 10756 C 1046.74 -0.7524 -3.36798 0
M  V30 10757 C 1045.85 -1.92865 -3.86558 0
M  V30 10758 C 1044.98 -1.52299 -5.08899 0
M  V30 10759 C 1044.02 -2.66677 -5.50953 0
M  V30 10760 N 1043.16 -2.26706 -6.64491 0
M  V30 10761 H 1048 -2.0417 -2.17068 0
M  V30 10762 H 1045.54 -1.01637 -1.0634 0
M  V30 10763 H 1047.5 -0.531687 -4.13798 0
M  V30 10764 H 1046.13 0.15234 -3.2244 0
M  V30 10765 H 1045.18 -2.26192 -3.05845 0
M  V30 10766 H 1046.49 -2.78668 -4.13698 0
M  V30 10767 H 1045.64 -1.26348 -5.93398 0
M  V30 10768 H 1044.38 -0.636042 -4.83535 0
M  V30 10769 H 1043.39 -2.93344 -4.65004 0
M  V30 10770 H 1044.61 -3.55992 -5.78313 0
M  V30 10771 H 1042.56 -1.40462 -6.40786 0
M  V30 10772 H 1042.48 -3.06049 -6.91281 0
M  V30 10773 H 1043.74 -2.04 -7.52333 0
M  V30 10774 N 1047.97 1.13488 -1.09353 0
M  V30 10775 C 1049.22 1.84748 -0.829126 0
M  V30 10776 C 1049.55 1.83485 0.645247 0
M  V30 10777 O 1048.8 1.26767 1.49093 0
M  V30 10778 C 1049.1 3.32584 -1.30854 0
M  V30 10779 C 1048.77 3.54028 -2.7924 0
M  V30 10780 C 1047.43 3.59588 -3.19765 0
M  V30 10781 C 1049.78 3.62058 -3.74918 0
M  V30 10782 C 1047.11 3.70712 -4.54741 0
M  V30 10783 C 1049.46 3.7471 -5.09682 0
M  V30 10784 C 1048.13 3.78523 -5.49797 0
M  V30 10785 H 1047.4 0.67604 -0.303399 0
M  V30 10786 H 1050.04 1.33989 -1.36818 0
M  V30 10787 H 1048.35 3.85689 -0.689275 0
M  V30 10788 H 1050.04 3.86166 -1.08059 0
M  V30 10789 H 1046.63 3.50354 -2.4688 0
M  V30 10790 H 1050.82 3.57043 -3.44723 0
M  V30 10791 H 1046.07 3.71931 -4.8526 0
M  V30 10792 H 1050.25 3.79866 -5.83674 0
M  V30 10793 H 1047.88 3.86895 -6.54382 0
M  V30 10794 N 1049.45 0.880621 1.30701 0
M  V30 10795 C 1050.7 0.495894 1.95922 0
M  V30 10796 C 1051.02 -0.957214 1.69889 0
M  V30 10797 O 1050.29 -1.67245 1.0201 0
M  V30 10798 H 1048.87 0.180394 0.724891 0
M  V30 10799 H 1051.53 1.12274 1.59313 0
M  V30 10800 H 1050.63 0.662508 3.04987 0
M  V30 10801 N 1050.93 -1.4397 0.641131 0
M  V30 10802 C 1052.16 -2.06303 0.157006 0
M  V30 10803 C 1052.57 -1.47981 -1.17248 0
M  V30 10804 O 1051.93 -0.606471 -1.72128 0
M  V30 10805 C 1051.98 -3.6147 0.0468425 0
M  V30 10806 O 1051.7 -4.17622 1.32376 0
M  V30 10807 C 1053.2 -4.40857 -0.464795 0
M  V30 10808 H 1050.42 -0.665684 0.0842946 0
M  V30 10809 H 1052.97 -1.84675 0.878363 0
M  V30 10810 H 1051.12 -3.82325 -0.625006 0
M  V30 10811 H 1051.54 -5.11167 1.17509 0
M  V30 10812 H 1053.01 -5.49813 -0.490862 0
M  V30 10813 H 1053.49 -4.13016 -1.4938 0
M  V30 10814 H 1054.09 -4.24943 0.174146 0
M  V30 10815 N 1052.41 -0.382291 -1.52893 0
M  V30 10816 C 1053.65 0.202433 -2.01787 0
M  V30 10817 C 1053.99 1.47044 -1.26853 0
M  V30 10818 O 1053.26 1.91007 -0.366969 0
M  V30 10819 C 1053.54 0.477471 -3.5692 0
M  V30 10820 C 1053.4 -0.805339 -4.42532 0
M  V30 10821 C 1054.72 1.27106 -4.21346 0
M  V30 10822 H 1051.84 0.0720998 -0.733465 0
M  V30 10823 H 1054.48 -0.510478 -1.83014 0
M  V30 10824 H 1052.63 1.08478 -3.73048 0
M  V30 10825 H 1054.3 -1.4424 -4.3817 0
M  V30 10826 H 1052.54 -1.42216 -4.09826 0
M  V30 10827 H 1053.21 -0.567635 -5.49074 0
M  V30 10828 H 1055.69 0.757161 -4.09153 0
M  V30 10829 H 1054.57 1.43225 -5.29885 0
M  V30 10830 H 1054.83 2.28431 -3.78513 0
M  V30 10831 N 1053.89 1.57202 -0.111913 0
M  V30 10832 C 1055.3 1.82039 0.414591 0
M  V30 10833 C 1055.65 1.02863 1.67074 0
M  V30 10834 O 1054.77 0.263068 2.14795 0
M  V30 10835 C 1055.37 3.3019 0.758953 0
M  V30 10836 C 1053.93 3.55732 1.23012 0
M  V30 10837 C 1053.07 2.76301 0.235226 0
M  V30 10838 H 1056.02 1.55078 -0.337142 0
M  V30 10839 H 1056.05 3.44431 1.61701 0
M  V30 10840 H 1055.56 3.87788 -0.155473 0
M  V30 10841 H 1053.66 3.03483 2.16169 0
M  V30 10842 H 1053.77 4.64333 1.18034 0
M  V30 10843 H 1052.14 2.44287 0.720822 0
M  V30 10844 H 1052.92 3.36655 -0.672173 0
M  V30 10845 N 1055.36 -0.161842 1.56767 0
M  V30 10846 C 1056.31 -1.21948 1.98069 0
M  V30 10847 C 1057.31 -1.45303 0.870835 0
M  V30 10848 O 1058.51 -1.45771 1.05598 0
M  V30 10849 H 1054.89 -0.410145 0.630306 0
M  V30 10850 H 1056.86 -0.844336 2.86205 0
M  V30 10851 C 1055.61 -2.549 2.36477 0
M  V30 10852 H 1054.93 -2.37755 3.21423 0
M  V30 10853 H 1056.37 -3.27568 2.69212 0
M  V30 10854 C 1054.83 -3.14353 1.21176 0
M  V30 10855 O 1055.36 -3.98519 0.504499 0
M  V30 10856 N 1053.56 -2.73582 0.979855 0
M  V30 10857 H 1053.11 -2.05239 1.55675 0
M  V30 10858 H 1053.07 -3.13696 0.21025 0
M  V30 10859 N 1056.84 -1.516 -0.430713 0
M  V30 10860 C 1058.09 -1.64271 -1.17726 0
M  V30 10861 C 1058.41 -0.364406 -1.91565 0
M  V30 10862 O 1057.68 0.619991 -1.8583 0
M  V30 10863 H 1056.26 -0.605432 -0.437562 0
M  V30 10864 H 1058.92 -1.88557 -0.493166 0
M  V30 10865 H 1058.02 -2.47355 -1.90321 0
M  V30 10866 N 1058.32 0.686584 -1.41858 0
M  V30 10867 C 1059.54 1.4802 -1.45275 0
M  V30 10868 C 1059.97 1.87997 -0.0621297 0
M  V30 10869 O 1059.33 1.55226 0.936733 0
M  V30 10870 C 1059.38 2.7133 -2.37513 0
M  V30 10871 O 1058.48 3.69159 -1.83836 0
M  V30 10872 H 1057.82 0.445152 -0.492682 0
M  V30 10873 H 1060.35 0.843161 -1.86419 0
M  V30 10874 H 1060.36 3.19537 -2.53693 0
M  V30 10875 H 1059.04 2.41571 -3.3855 0
M  V30 10876 H 1057.61 3.28134 -1.77151 0
M  V30 10877 N 1059.8 1.27835 0.921735 0
M  V30 10878 C 1061.03 1.17352 1.704 0
M  V30 10879 C 1061.44 -0.268892 1.86875 0
M  V30 10880 O 1060.8 -1.18253 1.39005 0
M  V30 10881 C 1060.85 1.85889 3.10045 0
M  V30 10882 O 1060.57 3.24495 2.94338 0
M  V30 10883 C 1062.07 1.81607 4.04393 0
M  V30 10884 H 1059.29 0.40773 0.532914 0
M  V30 10885 H 1061.83 1.68815 1.15419 0
M  V30 10886 H 1059.99 1.38316 3.61867 0
M  V30 10887 H 1060.4 3.58705 3.82663 0
M  V30 10888 H 1061.88 2.34165 4.99871 0
M  V30 10889 H 1062.35 0.786697 4.32097 0
M  V30 10890 H 1062.96 2.28822 3.58498 0
M  V30 10891 N 1061.28 -1.12907 1.09954 0
M  V30 10892 C 1062.19 -2.22082 0.756095 0
M  V30 10893 C 1063.2 -1.72277 -0.244272 0
M  V30 10894 O 1064.38 -2.01224 -0.0842637 0
M  V30 10895 C 1061.44 -3.46192 0.187642 0
M  V30 10896 C 1060.5 -4.10861 1.24465 0
M  V30 10897 C 1059.74 -5.29047 0.703227 0
M  V30 10898 O 1059.96 -5.68443 -0.472043 0
M  V30 10899 O 1058.89 -5.83904 1.46082 0
M  V30 10900 H 1062.72 -2.53842 1.66727 0
M  V30 10901 H 1060.3 -1.21145 0.874316 0
M  V30 10902 H 1062.19 -4.21212 -0.125774 0
M  V30 10903 H 1060.86 -3.16119 -0.696459 0
M  V30 10904 H 1059.77 -3.37643 1.61085 0
M  V30 10905 H 1061.1 -4.45078 2.10159 0
M  V30 10906 N 1062.75 -0.88754 -1.30232 0
M  V30 10907 C 1063.7 -0.354497 -2.28061 0
M  V30 10908 C 1064.67 0.556732 -1.56492 0
M  V30 10909 O 1065.86 0.484597 -1.84543 0
M  V30 10910 C 1063 0.422701 -3.42501 0
M  V30 10911 C 1062.11 -0.518036 -4.28883 0
M  V30 10912 C 1061.24 0.275011 -5.30488 0
M  V30 10913 C 1060.28 -0.661032 -6.0852 0
M  V30 10914 N 1059.42 0.0968509 -7.02033 0
M  V30 10915 H 1064.26 -1.19388 -2.73039 0
M  V30 10916 H 1061.8 -0.600091 -1.34303 0
M  V30 10917 H 1063.75 0.889249 -4.07613 0
M  V30 10918 H 1062.38 1.22664 -2.98586 0
M  V30 10919 H 1061.44 -1.10308 -3.64055 0
M  V30 10920 H 1062.75 -1.23504 -4.83268 0
M  V30 10921 H 1061.9 0.803301 -6.01358 0
M  V30 10922 H 1060.64 1.02522 -4.76802 0
M  V30 10923 H 1059.65 -1.20093 -5.36524 0
M  V30 10924 H 1060.87 -1.41037 -6.64293 0
M  V30 10925 H 1058.82 0.829548 -6.50734 0
M  V30 10926 H 1058.73 -0.560476 -7.5392 0
M  V30 10927 H 1060 0.6058 -7.77142 0
M  V30 10928 N 1064.23 1.43628 -0.648757 0
M  V30 10929 C 1065.18 2.32529 0.057536 0
M  V30 10930 C 1066.17 1.48358 0.817699 0
M  V30 10931 O 1067.38 1.64595 0.728605 0
M  V30 10932 H 1063.76 0.75107 0.037388 0
M  V30 10933 H 1065.73 2.89829 -0.710062 0
M  V30 10934 C 1064.48 3.32605 1.01336 0
M  V30 10935 H 1063.8 3.97395 0.437855 0
M  V30 10936 H 1065.24 3.97453 1.47672 0
M  V30 10937 C 1063.7 2.62865 2.10722 0
M  V30 10938 O 1064.23 2.4408 3.19042 0
M  V30 10939 N 1062.43 2.22312 1.87152 0
M  V30 10940 H 1061.98 2.3779 0.990644 0
M  V30 10941 H 1061.94 1.75979 2.60536 0
M  V30 10942 N 1065.71 0.390394 1.52688 0
M  V30 10943 C 1066.96 -0.192697 2.00777 0
M  V30 10944 C 1067.27 -1.4781 1.28108 0
M  V30 10945 O 1068.48 -2.1413 1.66914 0
M  V30 10946 C 1066.93 -0.393955 3.57737 0
M  V30 10947 C 1066.54 0.878259 4.39307 0
M  V30 10948 C 1068.29 -0.933352 4.14112 0
M  V30 10949 C 1066.19 0.645218 5.8787 0
M  V30 10950 H 1065.12 -0.0757862 0.750182 0
M  V30 10951 H 1067.77 0.512961 1.76184 0
M  V30 10952 H 1066.16 -1.16149 3.78583 0
M  V30 10953 H 1067.33 1.65049 4.30227 0
M  V30 10954 H 1065.65 1.34269 3.94158 0
M  V30 10955 H 1068.24 -1.12343 5.22765 0
M  V30 10956 H 1068.59 -1.90272 3.70273 0
M  V30 10957 H 1069.12 -0.225361 3.97161 0
M  V30 10958 H 1065.86 1.58562 6.36033 0
M  V30 10959 H 1065.38 -0.0880609 5.99735 0
M  V30 10960 H 1067.06 0.280178 6.46393 0
M  V30 10961 N 1067.19 -1.57141 0.120249 0
M  V30 10962 C 1068.6 -1.5784 -0.236335 0
M  V30 10963 C 1068.8 -1.13304 -1.66626 0
M  V30 10964 O 1067.86 -0.821004 -2.3878 0
M  V30 10965 C 1069.17 -3.007 -0.00188211 0
M  V30 10966 C 1070.72 -3.12927 -0.0676838 0
M  V30 10967 C 1071.2 -4.57789 0.139092 0
M  V30 10968 N 1072.69 -4.63122 0.085104 0
M  V30 10969 C 1073.42 -5.72978 0.219983 0
M  V30 10970 N 1072.92 -6.91579 0.411102 0
M  V30 10971 N 1074.71 -5.61874 0.159469 0
M  V30 10972 H 1066.86 -1.84391 1.05422 0
M  V30 10973 H 1069.13 -0.852228 0.415225 0
M  V30 10974 H 1068.83 -3.37575 0.986718 0
M  V30 10975 H 1068.71 -3.70005 -0.733203 0
M  V30 10976 H 1071.09 -2.75909 -1.04681 0
M  V30 10977 H 1071.17 -2.46162 0.695538 0
M  V30 10978 H 1070.82 -4.95506 1.1152 0
M  V30 10979 H 1070.75 -5.22646 -0.644131 0
M  V30 10980 H 1073.24 -3.77854 -0.0590479 0
M  V30 10981 H 1073.55 -7.71149 0.504851 0
M  V30 10982 H 1071.9 -6.9356 0.447091 0
M  V30 10983 H 1075.09 -4.68099 0.0111131 0
M  V30 10984 H 1075.26 -6.47445 0.268028 0
M  V30 10985 N 1068.67 0.153526 -1.5685 0
M  V30 10986 C 1069.89 0.886343 -1.87507 0
M  V30 10987 C 1070.32 1.74244 -0.708565 0
M  V30 10988 O 1069.67 1.78045 0.341997 0
M  V30 10989 C 1069.72 1.72428 -3.16703 0
M  V30 10990 O 1068.83 2.82784 -3.00178 0
M  V30 10991 H 1068.17 0.247259 -0.616246 0
M  V30 10992 H 1070.7 0.146306 -2.04076 0
M  V30 10993 H 1070.71 2.12062 -3.4856 0
M  V30 10994 H 1069.38 1.09558 -4.01211 0
M  V30 10995 H 1067.96 2.46604 -2.79716 0
M  V30 10996 N 1070.14 1.51827 0.422667 0
M  V30 10997 C 1071.09 1.74791 1.53463 0
M  V30 10998 C 1072.09 0.614602 1.57858 0
M  V30 10999 O 1073.29 0.796336 1.61426 0
M  V30 11000 H 1069.67 0.552524 0.510118 0
M  V30 11001 H 1071.64 2.67974 1.31273 0
M  V30 11002 C 1070.39 1.90339 2.90975 0
M  V30 11003 H 1069.71 2.76958 2.8833 0
M  V30 11004 H 1071.15 2.10413 3.68106 0
M  V30 11005 C 1069.61 0.66695 3.30232 0
M  V30 11006 O 1070.14 -0.171542 4.01334 0
M  V30 11007 N 1068.35 0.506768 2.86147 0
M  V30 11008 H 1067.89 1.19019 2.28456 0
M  V30 11009 H 1067.85 -0.319247 3.12775 0
M  V30 11010 N 1071.62 -0.679052 1.4222 0
M  V30 11011 C 1072.85 -1.46534 1.45641 0
M  V30 11012 C 1073.26 -1.89088 0.0649574 0
M  V30 11013 O 1072.6 -1.58436 -0.929712 0
M  V30 11014 C 1072.67 -2.74882 2.3169 0
M  V30 11015 C 1072.33 -2.5443 3.79624 0
M  V30 11016 C 1073.33 -2.19307 4.71382 0
M  V30 11017 C 1071.01 -2.69557 4.23845 0
M  V30 11018 C 1073.01 -1.99571 6.05351 0
M  V30 11019 C 1070.69 -2.49437 5.57875 0
M  V30 11020 C 1071.69 -2.14497 6.48444 0
M  V30 11021 O 1071.38 -1.94567 7.79999 0
M  V30 11022 H 1071.11 -0.457542 0.497626 0
M  V30 11023 H 1073.66 -0.842145 1.87342 0
M  V30 11024 H 1071.89 -3.39669 1.8483 0
M  V30 11025 H 1073.58 -3.3675 2.26615 0
M  V30 11026 H 1074.35 -2.0722 4.38503 0
M  V30 11027 H 1070.23 -2.95733 3.53642 0
M  V30 11028 H 1073.77 -1.72222 6.76007 0
M  V30 11029 H 1069.67 -2.61119 5.90328 0
M  V30 11030 H 1070.44 -2.092 7.91314 0
M  V30 11031 N 1073.1 -1.28322 -0.914942 0
M  V30 11032 C 1074.51 -1.13937 -1.47903 0
M  V30 11033 C 1074.86 0.271072 -1.94318 0
M  V30 11034 O 1073.99 1.16522 -1.8235 0
M  V30 11035 C 1074.58 -2.06221 -2.68809 0
M  V30 11036 C 1073.14 -1.95903 -3.21402 0
M  V30 11037 C 1072.29 -1.98031 -1.94111 0
M  V30 11038 H 1075.24 -1.41029 -0.727772 0
M  V30 11039 H 1075.26 -1.6255 -3.44031 0
M  V30 11040 H 1074.77 -3.08866 -2.34997 0
M  V30 11041 H 1072.87 -0.962907 -3.59943 0
M  V30 11042 H 1072.99 -2.82799 -3.86732 0
M  V30 11043 H 1071.35 -1.42423 -2.11158 0
M  V30 11044 H 1072.13 -3.02354 -1.62595 0
M  V30 11045 N 1074.58 1.12322 -1.10551 0
M  V30 11046 C 1075.86 1.80201 -0.760715 0
M  V30 11047 C 1076.24 1.97228 0.752628 0
M  V30 11048 O 1075.58 1.54958 1.67929 0
M  V30 11049 C 1075.79 3.14491 -1.51316 0
M  V30 11050 C 1077.14 3.89671 -1.68647 0
M  V30 11051 O 1078.17 3.24151 -1.47664 0
M  V30 11052 O 1077.02 5.0722 -2.03445 0
M  V30 11053 H 1074.12 0.780084 -0.274587 0
M  V30 11054 H 1076.66 1.19147 -1.20839 0
M  V30 11055 H 1075.44 2.97396 -2.54306 0
M  V30 11056 H 1075.06 3.83253 -1.05842 0
M  V30 11057 N 1076.06 0.894434 1.2976 0
M  V30 11058 C 1076.99 0.312806 2.26046 0
M  V30 11059 C 1077.97 -0.572024 1.52206 0
M  V30 11060 O 1079.15 -0.520009 1.81185 0
M  V30 11061 C 1076.28 -0.554624 3.34128 0
M  V30 11062 C 1075.32 0.262168 4.25693 0
M  V30 11063 S 1076.16 1.65656 5.09233 0
M  V30 11064 C 1077.31 0.795914 6.20819 0
M  V30 11065 H 1077.55 1.12895 2.75031 0
M  V30 11066 H 1075.08 0.694446 1.37901 0
M  V30 11067 H 1077.04 -1.04933 3.96862 0
M  V30 11068 H 1075.7 -1.34495 2.83848 0
M  V30 11069 H 1074.89 -0.400216 5.02408 0
M  V30 11070 H 1074.49 0.689829 3.67583 0
M  V30 11071 H 1076.79 0.0169942 6.77498 0
M  V30 11072 H 1077.73 1.53497 6.91263 0
M  V30 11073 H 1078.14 0.35263 5.63398 0
M  V30 11074 N 1077.53 -1.43282 0.656365 0
M  V30 11075 C 1078.48 -2.27932 -0.0557069 0
M  V30 11076 C 1079.47 -1.40075 -0.791698 0
M  V30 11077 O 1080.66 -1.6368 -0.673646 0
M  V30 11078 C 1077.79 -3.27821 -1.01923 0
M  V30 11079 C 1076.88 -4.23164 -0.281545 0
M  V30 11080 N 1077.27 -5.00882 0.703629 0
M  V30 11081 C 1075.56 -4.42928 -0.522558 0
M  V30 11082 C 1076.27 -5.70384 1.14177 0
M  V30 11083 N 1075.24 -5.41517 0.475394 0
M  V30 11084 H 1079.04 -2.85437 0.70022 0
M  V30 11085 H 1076.56 -1.55023 0.483902 0
M  V30 11086 H 1078.55 -3.87248 -1.54418 0
M  V30 11087 H 1077.21 -2.71878 -1.77518 0
M  V30 11088 H 1078.23 -5.06461 1.08247 0
M  V30 11089 H 1074.9 -3.98051 -1.25944 0
M  V30 11090 H 1076.29 -6.42765 1.95711 0
M  V30 11091 N 1079.01 -0.398486 -1.52479 0
M  V30 11092 C 1080.24 0.183059 -2.06591 0
M  V30 11093 C 1080.66 1.3898 -1.26753 0
M  V30 11094 O 1080.02 1.78885 -0.294959 0
M  V30 11095 C 1080.07 0.522392 -3.56796 0
M  V30 11096 O 1079.17 1.61499 -3.79462 0
M  V30 11097 H 1078.51 0.0188411 -0.663733 0
M  V30 11098 H 1081.04 -0.56861 -1.9654 0
M  V30 11099 H 1081.05 0.784078 -4.00395 0
M  V30 11100 H 1079.73 -0.359807 -4.14341 0
M  V30 11101 H 1078.31 1.3463 -3.47749 0
M  V30 11102 N 1080.49 1.57075 -0.12858 0
M  V30 11103 C 1081.72 1.99586 0.533769 0
M  V30 11104 C 1082.13 1.00737 1.60152 0
M  V30 11105 O 1081.47 -0.00647783 1.83699 0
M  V30 11106 C 1081.53 3.3852 1.21014 0
M  V30 11107 C 1081.2 4.56084 0.289191 0
M  V30 11108 C 1082.2 5.17717 -0.475963 0
M  V30 11109 C 1079.88 5.01912 0.197467 0
M  V30 11110 C 1081.87 6.23572 -1.32048 0
M  V30 11111 C 1079.56 6.07626 -0.65067 0
M  V30 11112 C 1080.56 6.68324 -1.40826 0
M  V30 11113 O 1080.25 7.71995 -2.2423 0
M  V30 11114 H 1079.98 0.660245 0.145096 0
M  V30 11115 H 1082.53 2.04276 -0.214615 0
M  V30 11116 H 1080.76 3.30613 2.00579 0
M  V30 11117 H 1082.45 3.65258 1.77036 0
M  V30 11118 H 1083.22 4.83221 -0.415027 0
M  V30 11119 H 1079.1 4.54407 0.776853 0
M  V30 11120 H 1082.64 6.70878 -1.91228 0
M  V30 11121 H 1078.54 6.41551 -0.712965 0
M  V30 11122 H 1079.31 7.89135 -2.17276 0
M  V30 11123 N 1081.97 -0.145205 1.5693 0
M  V30 11124 C 1082.9 -1.20881 1.93553 0
M  V30 11125 C 1083.88 -1.41467 0.801612 0
M  V30 11126 O 1085.06 -1.5605 1.05739 0
M  V30 11127 C 1082.19 -2.5674 2.20912 0
M  V30 11128 C 1081.24 -2.52738 3.43549 0
M  V30 11129 S 1082.07 -1.99257 4.97048 0
M  V30 11130 C 1083.23 -3.36842 5.27531 0
M  V30 11131 H 1083.46 -0.896362 2.83465 0
M  V30 11132 H 1080.99 -0.350894 1.5036 0
M  V30 11133 H 1082.95 -3.34923 2.37354 0
M  V30 11134 H 1081.61 -2.85174 1.31661 0
M  V30 11135 H 1080.8 -3.52753 3.59974 0
M  V30 11136 H 1080.41 -1.82665 3.26358 0
M  V30 11137 H 1082.7 -4.32958 5.21108 0
M  V30 11138 H 1083.64 -3.25268 6.28973 0
M  V30 11139 H 1084.05 -3.3406 4.55043 0
M  V30 11140 N 1083.45 -1.52049 -0.414609 0
M  V30 11141 C 1084.69 -1.66084 -1.16379 0
M  V30 11142 C 1085.03 -0.386932 -1.90306 0
M  V30 11143 O 1084.3 0.614441 -1.8454 0
M  V30 11144 C 1084.58 -2.87927 -2.16264 0
M  V30 11145 C 1084.44 -4.25353 -1.46269 0
M  V30 11146 C 1085.76 -3.05289 -3.16996 0
M  V30 11147 H 1082.88 -0.604414 -0.421726 0
M  V30 11148 H 1085.52 -1.8459 -0.450177 0
M  V30 11149 H 1083.67 -2.7228 -2.77121 0
M  V30 11150 H 1085.34 -4.52717 -0.885743 0
M  V30 11151 H 1083.58 -4.27006 -0.76472 0
M  V30 11152 H 1084.25 -5.06644 -2.19126 0
M  V30 11153 H 1086.73 -3.19798 -2.66212 0
M  V30 11154 H 1085.61 -3.92065 -3.84156 0
M  V30 11155 H 1085.87 -2.1836 -3.84411 0
M  V30 11156 N 1084.93 0.6715 -1.42579 0
M  V30 11157 C 1086.34 0.985019 -1.25577 0
M  V30 11158 C 1086.54 2.00845 -0.162319 0
M  V30 11159 O 1085.6 2.48175 0.465352 0
M  V30 11160 C 1086.91 1.48668 -2.61377 0
M  V30 11161 C 1088.46 1.60429 -2.68759 0
M  V30 11162 C 1088.93 2.13991 -4.04935 0
M  V30 11163 N 1090.42 2.21319 -4.06906 0
M  V30 11164 C 1091.16 2.63845 -5.09091 0
M  V30 11165 N 1090.66 3.05799 -6.21658 0
M  V30 11166 N 1092.45 2.63623 -4.96447 0
M  V30 11167 H 1084.6 -0.00604561 -2.12399 0
M  V30 11168 H 1086.86 0.0598299 -0.94611 0
M  V30 11169 H 1086.57 0.80917 -3.42265 0
M  V30 11170 H 1086.44 2.46487 -2.85524 0
M  V30 11171 H 1088.83 2.27286 -1.88216 0
M  V30 11172 H 1088.91 0.610909 -2.48398 0
M  V30 11173 H 1088.55 1.47741 -4.85937 0
M  V30 11174 H 1088.48 3.14126 -4.2265 0
M  V30 11175 H 1090.98 1.91743 -3.25643 0
M  V30 11176 H 1091.29 3.36944 -6.95477 0
M  V30 11177 H 1089.63 3.03648 -6.25158 0
M  V30 11178 H 1092.82 2.30211 -4.07579 0
M  V30 11179 H 1093 2.96444 -5.76216 0
M  V30 11180 N 1086.4 1.28806 0.908124 0
M  V30 11181 C 1087.63 1.1898 1.689 0
M  V30 11182 C 1088.04 -0.253334 1.87496 0
M  V30 11183 O 1087.38 -1.18245 1.40584 0
M  V30 11184 C 1087.45 1.82266 3.0987 0
M  V30 11185 C 1087.11 3.31534 3.14538 0
M  V30 11186 C 1088.11 4.27886 2.95313 0
M  V30 11187 C 1085.79 3.72589 3.36872 0
M  V30 11188 C 1087.79 5.63267 2.98343 0
M  V30 11189 C 1085.47 5.08095 3.39534 0
M  V30 11190 C 1086.47 6.03244 3.2029 0
M  V30 11191 O 1086.16 7.36277 3.22724 0
M  V30 11192 H 1085.89 0.413772 0.534574 0
M  V30 11193 H 1088.45 1.7055 1.14464 0
M  V30 11194 H 1086.68 1.25197 3.65872 0
M  V30 11195 H 1088.36 1.6688 3.70008 0
M  V30 11196 H 1089.13 3.97502 2.77879 0
M  V30 11197 H 1085.01 2.98989 3.50894 0
M  V30 11198 H 1088.55 6.37511 2.83241 0
M  V30 11199 H 1084.45 5.38126 3.56497 0
M  V30 11200 H 1085.22 7.44976 3.39048 0
M  V30 11201 N 1087.88 -1.11734 1.11145 0
M  V30 11202 C 1088.83 -2.19765 0.761982 0
M  V30 11203 C 1089.82 -1.67616 -0.24518 0
M  V30 11204 O 1091.03 -1.79695 -0.104781 0
M  V30 11205 H 1087.4 -0.71644 0.228513 0
M  V30 11206 H 1089.38 -2.4649 1.68183 0
M  V30 11207 C 1088.12 -3.47016 0.218057 0
M  V30 11208 H 1087.45 -3.87494 0.984299 0
M  V30 11209 H 1088.89 -4.23998 0.0116825 0
M  V30 11210 C 1087.35 -3.20088 -1.05096 0
M  V30 11211 O 1087.88 -3.40503 -2.1312 0
M  V30 11212 N 1086.08 -2.73844 -0.972523 0
M  V30 11213 H 1085.63 -2.57431 -0.0933459 0
M  V30 11214 H 1085.59 -2.56204 -1.82228 0
M  V30 11215 N 1089.36 -0.901303 -1.29284 0
M  V30 11216 C 1090.29 -0.337552 -2.26701 0
M  V30 11217 C 1091.3 0.517039 -1.54371 0
M  V30 11218 O 1092.49 0.333937 -1.75349 0
M  V30 11219 C 1089.59 0.537214 -3.34615 0
M  V30 11220 C 1088.77 -0.292017 -4.36424 0
M  V30 11221 C 1087.83 0.515837 -5.23666 0
M  V30 11222 O 1086.85 -0.0672303 -5.6916 0
M  V30 11223 N 1088.05 1.82159 -5.51179 0
M  V30 11224 H 1090.82 -1.17484 -2.75713 0
M  V30 11225 H 1088.38 -0.765957 -1.42635 0
M  V30 11226 H 1090.37 1.0841 -3.8991 0
M  V30 11227 H 1088.94 1.2752 -2.85408 0
M  V30 11228 H 1088.16 -1.02031 -3.80767 0
M  V30 11229 H 1089.45 -0.859855 -5.01482 0
M  V30 11230 H 1088.85 2.318 -5.16028 0
M  V30 11231 H 1087.4 2.31556 -6.09282 0
M  V30 11232 N 1090.84 1.42931 -0.663954 0
M  V30 11233 C 1092.25 1.84877 -0.260283 0
M  V30 11234 C 1092.6 1.5558 1.19538 0
M  V30 11235 O 1091.72 1.01015 1.91377 0
M  V30 11236 C 1092.32 3.35585 -0.465618 0
M  V30 11237 C 1090.88 3.76221 -0.116169 0
M  V30 11238 C 1090.03 2.66587 -0.763317 0
M  V30 11239 H 1092.98 1.32932 -0.866882 0
M  V30 11240 H 1093 3.79427 0.285608 0
M  V30 11241 H 1092.51 3.56877 -1.52515 0
M  V30 11242 H 1090.61 3.60539 0.940342 0
M  V30 11243 H 1090.72 4.75943 -0.549123 0
M  V30 11244 H 1089.09 2.53948 -0.19559 0
M  V30 11245 H 1089.87 2.90704 -1.82609 0
M  V30 11246 N 1092.32 0.406567 1.52266 0
M  V30 11247 C 1093.73 0.0573228 1.59497 0
M  V30 11248 C 1093.93 -1.43005 1.41957 0
M  V30 11249 O 1092.99 -2.19659 1.24523 0
M  V30 11250 C 1094.3 0.549947 2.95628 0
M  V30 11251 C 1095.85 0.5077 3.08855 0
M  V30 11252 C 1096.32 0.976792 4.47463 0
M  V30 11253 N 1097.81 0.933508 4.53696 0
M  V30 11254 C 1098.55 1.26769 5.59211 0
M  V30 11255 N 1098.05 1.6732 6.72292 0
M  V30 11256 N 1099.84 1.18782 5.49406 0
M  V30 11257 H 1091.99 1.37468 1.61914 0
M  V30 11258 H 1094.25 0.564562 0.76156 0
M  V30 11259 H 1093.96 1.58943 3.13736 0
M  V30 11260 H 1093.83 -0.0417767 3.77177 0
M  V30 11261 H 1096.22 -0.522728 2.90433 0
M  V30 11262 H 1096.3 1.13545 2.29219 0
M  V30 11263 H 1095.94 2.00554 4.66627 0
M  V30 11264 H 1095.87 0.325885 5.25591 0
M  V30 11265 H 1098.37 0.635333 3.72521 0
M  V30 11266 H 1098.68 1.91137 7.4879 0
M  V30 11267 H 1097.02 1.71221 6.73579 0
M  V30 11268 H 1100.21 0.869906 4.59946 0
M  V30 11269 H 1100.39 1.45157 6.31533 0
M  V30 11270 N 1093.79 -1.57004 0.136909 0
M  V30 11271 C 1095.04 -1.96087 -0.517477 0
M  V30 11272 C 1095.37 -1.0213 -1.65176 0
M  V30 11273 O 1094.65 -0.0617958 -1.94402 0
M  V30 11274 C 1094.93 -3.44958 -1.03323 0
M  V30 11275 C 1094.78 -4.49691 0.0988609 0
M  V30 11276 C 1096.1 -3.96091 -1.91832 0
M  V30 11277 H 1093.22 -0.712978 -0.186632 0
M  V30 11278 H 1095.86 -1.88767 0.216095 0
M  V30 11279 H 1094.01 -3.51327 -1.65836 0
M  V30 11280 H 1095.69 -4.55409 0.734847 0
M  V30 11281 H 1093.93 -4.271 0.75947 0
M  V30 11282 H 1094.6 -5.51165 -0.303554 0
M  V30 11283 H 1097.08 -3.92139 -1.39164 0
M  V30 11284 H 1095.95 -5.00742 -2.24831 0
M  V30 11285 H 1096.21 -3.37846 -2.85153 0
M  V30 11286 N 1095.27 0.136881 -1.57004 0
M  V30 11287 C 1096.18 1.18793 -2.023 0
M  V30 11288 C 1097.2 1.46412 -0.94018 0
M  V30 11289 O 1098.37 1.57883 -1.2504 0
M  V30 11290 C 1095.44 2.49903 -2.40311 0
M  V30 11291 C 1094.5 2.29841 -3.6259 0
M  V30 11292 C 1093.73 3.54699 -3.98779 0
M  V30 11293 O 1093.96 4.61291 -3.3551 0
M  V30 11294 O 1092.89 3.46761 -4.91976 0
M  V30 11295 H 1096.72 0.833345 -2.92043 0
M  V30 11296 H 1094.3 0.346361 -1.4533 0
M  V30 11297 H 1096.18 3.27183 -2.65574 0
M  V30 11298 H 1094.86 2.84872 -1.5372 0
M  V30 11299 H 1093.77 1.50478 -3.42501 0
M  V30 11300 H 1095.1 1.99784 -4.4983 0
M  V30 11301 N 1096.75 1.52266 0.40654 0
M  V30 11302 C 1097.66 1.78688 1.52012 0
M  V30 11303 C 1098.68 0.6726 1.60475 0
M  V30 11304 O 1099.85 0.95829 1.77141 0
M  V30 11305 C 1096.92 1.93434 2.87722 0
M  V30 11306 C 1095.98 3.17341 2.89125 0
M  V30 11307 C 1095.21 3.31374 4.18362 0
M  V30 11308 O 1095.43 2.50613 5.12396 0
M  V30 11309 O 1094.37 4.24539 4.26674 0
M  V30 11310 H 1098.19 2.73213 1.3262 0
M  V30 11311 H 1095.78 1.37142 0.592653 0
M  V30 11312 H 1097.66 2.04941 3.68208 0
M  V30 11313 H 1096.34 1.02099 3.07177 0
M  V30 11314 H 1095.24 3.1129 2.07483 0
M  V30 11315 H 1096.58 4.08466 2.7462 0
M  V30 11316 N 1098.23 -0.663929 1.42933 0
M  V30 11317 C 1099.19 -1.75899 1.46943 0
M  V30 11318 C 1100.19 -1.5682 0.355535 0
M  V30 11319 O 1101.38 -1.62914 0.616833 0
M  V30 11320 C 1098.51 -3.14657 1.31164 0
M  V30 11321 H 1099.71 -1.73727 2.44456 0
M  V30 11322 H 1097.26 -0.874587 1.2954 0
M  V30 11323 H 1097.99 -3.22447 0.346165 0
M  V30 11324 H 1097.78 -3.29909 2.11902 0
M  V30 11325 H 1099.27 -3.9453 1.36878 0
M  V30 11326 N 1099.71 -1.29285 -0.901281 0
M  V30 11327 C 1100.64 -1.16832 -2.0217 0
M  V30 11328 C 1101.62 -0.0629265 -1.69984 0
M  V30 11329 O 1102.8 -0.242123 -1.92685 0
M  V30 11330 C 1099.93 -0.842406 -3.36929 0
M  V30 11331 C 1098.89 -1.90394 -3.8332 0
M  V30 11332 C 1098.21 -1.43138 -5.15185 0
M  V30 11333 C 1099.51 -3.31254 -4.03817 0
M  V30 11334 H 1101.21 -2.10562 -2.12847 0
M  V30 11335 H 1098.75 -1.01375 -1.0227 0
M  V30 11336 H 1100.71 -0.741999 -4.14816 0
M  V30 11337 H 1099.43 0.130598 -3.26339 0
M  V30 11338 H 1098.09 -1.99371 -3.07647 0
M  V30 11339 H 1097.74 -0.447091 -5.01009 0
M  V30 11340 H 1097.44 -2.14129 -5.47195 0
M  V30 11341 H 1098.96 -1.34444 -5.95615 0
M  V30 11342 H 1100.37 -3.25129 -4.72191 0
M  V30 11343 H 1098.77 -4.00189 -4.47178 0
M  V30 11344 H 1099.84 -3.74349 -3.08206 0
M  V30 11345 N 1101.18 1.11143 -1.11736 0
M  V30 11346 C 1102.41 1.86745 -0.890727 0
M  V30 11347 C 1102.83 1.80315 0.55964 0
M  V30 11348 O 1102.18 1.18663 1.38656 0
M  V30 11349 C 1102.24 3.35436 -1.34779 0
M  V30 11350 O 1101.96 3.41738 -2.74129 0
M  V30 11351 C 1103.46 4.27935 -1.15702 0
M  V30 11352 H 1100.68 0.59044 -0.318781 0
M  V30 11353 H 1103.22 1.40549 -1.48547 0
M  V30 11354 H 1101.38 3.79125 -0.796425 0
M  V30 11355 H 1101.79 4.34347 -2.94012 0
M  V30 11356 H 1103.26 5.30494 -1.52579 0
M  V30 11357 H 1103.74 4.39093 -0.0968735 0
M  V30 11358 H 1104.35 3.90042 -1.69551 0
M  V30 11359 N 1102.66 0.908147 1.28804 0
M  V30 11360 C 1103.59 0.34957 2.26519 0
M  V30 11361 C 1104.61 -0.508845 1.54643 0
M  V30 11362 O 1105.8 -0.324633 1.75523 0
M  V30 11363 C 1102.9 -0.519461 3.34895 0
M  V30 11364 C 1102.07 0.315157 4.36263 0
M  V30 11365 C 1101.13 -0.488059 5.23932 0
M  V30 11366 O 1100.15 0.0974133 5.69117 0
M  V30 11367 N 1101.36 -1.79233 5.52137 0
M  V30 11368 H 1104.12 1.18945 2.75086 0
M  V30 11369 H 1101.68 0.77351 1.42227 0
M  V30 11370 H 1103.67 -1.0634 3.90479 0
M  V30 11371 H 1102.24 -1.26004 2.8608 0
M  V30 11372 H 1101.46 1.04049 3.8022 0
M  V30 11373 H 1102.75 0.886438 5.01019 0
M  V30 11374 H 1102.15 -2.2906 5.1725 0
M  V30 11375 H 1100.71 -2.28322 6.10502 0
M  V30 11376 N 1104.14 -1.42577 0.671525 0
M  V30 11377 C 1105.07 -2.33499 0.00506984 0
M  V30 11378 C 1106.05 -1.50497 -0.792763 0
M  V30 11379 O 1107.24 -1.79109 -0.750574 0
M  V30 11380 C 1104.37 -3.34077 -0.949194 0
M  V30 11381 C 1103.32 -4.27208 -0.260187 0
M  V30 11382 C 1102.65 -5.17968 -1.32716 0
M  V30 11383 C 1103.95 -5.15192 0.858772 0
M  V30 11384 H 1105.64 -2.89477 0.764407 0
M  V30 11385 H 1103.19 -1.39191 0.369043 0
M  V30 11386 H 1105.14 -3.96594 -1.42448 0
M  V30 11387 H 1103.86 -2.76396 -1.73991 0
M  V30 11388 H 1102.52 -3.66082 0.194834 0
M  V30 11389 H 1102.17 -4.56615 -2.10979 0
M  V30 11390 H 1101.87 -5.81104 -0.871293 0
M  V30 11391 H 1103.39 -5.83359 -1.80345 0
M  V30 11392 H 1104.81 -5.71412 0.464844 0
M  V30 11393 H 1103.21 -5.87144 1.24023 0
M  V30 11394 H 1104.28 -4.53787 1.70895 0
M  V30 11395 N 1105.62 -0.414636 -1.52048 0
M  V30 11396 C 1106.57 0.408141 -2.27163 0
M  V30 11397 C 1107.54 1.03636 -1.29803 0
M  V30 11398 O 1108.72 1.05959 -1.58674 0
M  V30 11399 C 1105.86 1.51588 -3.10024 0
M  V30 11400 C 1104.97 0.908034 -4.22349 0
M  V30 11401 C 1104.11 1.98893 -4.9256 0
M  V30 11402 C 1103.15 1.35831 -5.96839 0
M  V30 11403 N 1102.28 2.37958 -6.60545 0
M  V30 11404 H 1107.12 -0.238822 -2.97041 0
M  V30 11405 H 1104.66 -0.129614 -1.46528 0
M  V30 11406 H 1106.62 2.16916 -3.56375 0
M  V30 11407 H 1105.25 2.13279 -2.42305 0
M  V30 11408 H 1104.3 0.143652 -3.80129 0
M  V30 11409 H 1105.61 0.407426 -4.97133 0
M  V30 11410 H 1104.77 2.71935 -5.42343 0
M  V30 11411 H 1103.51 2.5232 -4.17356 0
M  V30 11412 H 1102.51 0.613246 -5.46369 0
M  V30 11413 H 1103.74 0.831655 -6.73988 0
M  V30 11414 H 1101.68 2.90508 -5.88167 0
M  V30 11415 H 1101.6 1.92725 -7.31022 0
M  V30 11416 H 1102.87 3.10553 -7.14966 0
M  V30 11417 N 1107.1 1.56929 -0.145233 0
M  V30 11418 C 1108.06 2.15483 0.781002 0
M  V30 11419 C 1109.06 1.09617 1.17647 0
M  V30 11420 O 1110.25 1.35265 1.09768 0
M  V30 11421 C 1107.38 2.7165 2.05959 0
M  V30 11422 H 1108.57 2.98667 0.271685 0
M  V30 11423 H 1106.13 1.55952 0.1042 0
M  V30 11424 H 1106.86 1.92127 2.61262 0
M  V30 11425 H 1106.65 3.491 1.78526 0
M  V30 11426 H 1108.14 3.16769 2.72116 0
M  V30 11427 N 1108.58 -0.128553 1.57075 0
M  V30 11428 C 1109.82 -0.836355 1.83982 0
M  V30 11429 C 1110.14 -1.80862 0.728971 0
M  V30 11430 O 1109.41 -1.94326 -0.247859 0
M  V30 11431 H 1107.99 -0.31185 0.678792 0
M  V30 11432 H 1110.66 -0.118153 1.94542 0
M  V30 11433 H 1109.75 -1.38741 2.79567 0
M  V30 11434 N 1110.05 -1.5248 -0.398459 0
M  V30 11435 C 1111 -1.76585 -1.48615 0
M  V30 11436 C 1111.97 -0.608677 -1.54546 0
M  V30 11437 O 1113.16 -0.847383 -1.7095 0
M  V30 11438 C 1110.3 -1.93201 -2.8595 0
M  V30 11439 C 1109.41 -3.20875 -2.89246 0
M  V30 11440 C 1108.54 -3.27862 -4.17947 0
M  V30 11441 C 1107.58 -4.49697 -4.15258 0
M  V30 11442 N 1106.72 -4.54017 -5.35549 0
M  V30 11443 H 1111.56 -2.69412 -1.27362 0
M  V30 11444 H 1109.1 -1.33487 -0.618031 0
M  V30 11445 H 1111.05 -2.00819 -3.65688 0
M  V30 11446 H 1109.68 -1.03743 -3.05675 0
M  V30 11447 H 1108.74 -3.22376 -2.01935 0
M  V30 11448 H 1110.05 -4.1066 -2.83125 0
M  V30 11449 H 1109.2 -3.34611 -5.06083 0
M  V30 11450 H 1107.94 -2.36035 -4.26777 0
M  V30 11451 H 1106.95 -4.43083 -3.25511 0
M  V30 11452 H 1108.17 -5.42831 -4.08059 0
M  V30 11453 H 1106.12 -3.65078 -5.45027 0
M  V30 11454 H 1106.03 -5.37661 -5.31466 0
M  V30 11455 H 1107.3 -4.65009 -6.25609 0
M  V30 11456 N 1111.53 0.65634 -1.43283 0
M  V30 11457 C 1112.46 1.78101 -1.51004 0
M  V30 11458 C 1113.44 1.66138 -0.36498 0
M  V30 11459 O 1114.63 1.85281 -0.581778 0
M  V30 11460 C 1111.76 3.16511 -1.42961 0
M  V30 11461 C 1110.71 3.43233 -2.55685 0
M  V30 11462 C 1110.04 4.81411 -2.32696 0
M  V30 11463 C 1111.34 3.38288 -3.97943 0
M  V30 11464 H 1113.03 1.71896 -2.45137 0
M  V30 11465 H 1110.58 0.825575 -1.17984 0
M  V30 11466 H 1112.53 3.94941 -1.46968 0
M  V30 11467 H 1111.25 3.23439 -0.45332 0
M  V30 11468 H 1109.91 2.67173 -2.51026 0
M  V30 11469 H 1109.56 4.85011 -1.33317 0
M  V30 11470 H 1109.26 5.00251 -3.08257 0
M  V30 11471 H 1110.79 5.62102 -2.38481 0
M  V30 11472 H 1112.2 4.06659 -4.04106 0
M  V30 11473 H 1110.6 3.68664 -4.73505 0
M  V30 11474 H 1111.67 2.36525 -4.23301 0
M  V30 11475 N 1113.01 1.29761 0.894412 0
M  V30 11476 C 1114.29 1.08711 1.62608 0
M  V30 11477 C 1114.67 -0.366907 2.07887 0
M  V30 11478 O 1114.01 -1.35669 1.83865 0
M  V30 11479 C 1114.22 2.07947 2.80284 0
M  V30 11480 C 1115.57 2.39153 3.50843 0
M  V30 11481 O 1116.6 2.06183 2.9046 0
M  V30 11482 O 1115.46 2.95509 4.59713 0
M  V30 11483 H 1112.55 0.416866 0.714249 0
M  V30 11484 H 1115.1 1.41153 0.942015 0
M  V30 11485 H 1113.87 3.05859 2.44061 0
M  V30 11486 H 1113.49 1.76266 3.56393 0
M  V30 11487 N 1114.49 -1.10549 1.12324 0
M  V30 11488 C 1115.45 -2.15039 0.793156 0
M  V30 11489 C 1116.45 -1.59651 -0.19192 0
M  V30 11490 O 1117.64 -1.74167 0.0337262 0
M  V30 11491 C 1114.77 -3.40433 0.17842 0
M  V30 11492 H 1115.97 -2.4575 1.71892 0
M  V30 11493 H 1113.52 -1.25892 0.926333 0
M  V30 11494 H 1114.25 -3.15338 -0.757122 0
M  V30 11495 H 1114.04 -3.81921 0.887645 0
M  V30 11496 H 1115.53 -4.17584 -0.0360724 0
M  V30 11497 N 1115.97 -0.914965 -1.28321 0
M  V30 11498 C 1117.21 -0.548749 -1.94923 0
M  V30 11499 C 1117.54 0.907776 -1.72016 0
M  V30 11500 O 1116.8 1.66097 -1.03491 0
M  V30 11501 C 1117.09 -0.805805 -3.48198 0
M  V30 11502 C 1116.76 -2.24207 -3.91206 0
M  V30 11503 C 1115.42 -2.63475 -4.02659 0
M  V30 11504 C 1117.77 -3.17667 -4.13204 0
M  V30 11505 C 1115.1 -3.95353 -4.3349 0
M  V30 11506 C 1117.45 -4.4911 -4.45514 0
M  V30 11507 C 1116.12 -4.8823 -4.55179 0
M  V30 11508 H 1115.39 -0.200801 -0.713274 0
M  V30 11509 H 1118.04 -1.15652 -1.52633 0
M  V30 11510 H 1116.34 -0.115244 -3.9163 0
M  V30 11511 H 1118.04 -0.501609 -3.9785 0
M  V30 11512 H 1114.63 -1.92737 -3.82819 0
M  V30 11513 H 1118.81 -2.88537 -4.03807 0
M  V30 11514 H 1114.07 -4.25362 -4.39178 0
M  V30 11515 H 1118.24 -5.21542 -4.61483 0
M  V30 11516 H 1115.87 -5.90451 -4.78823 0
M  V30 11517 N 1117.44 1.42219 -0.679077 0
M  V30 11518 C 1118.69 2.00703 -0.200309 0
M  V30 11519 C 1119.01 1.54339 1.20161 0
M  V30 11520 O 1120.21 2.0527 1.77698 0
M  V30 11521 C 1118.67 3.58586 -0.307248 0
M  V30 11522 C 1118.28 4.13937 -1.71349 0
M  V30 11523 C 1120.02 4.24351 0.112588 0
M  V30 11524 C 1117.93 5.64198 -1.77297 0
M  V30 11525 H 1116.86 0.750638 -0.0711279 0
M  V30 11526 H 1119.51 1.62893 -0.844881 0
M  V30 11527 H 1117.89 3.93921 0.40529 0
M  V30 11528 H 1119.06 3.90054 -2.45346 0
M  V30 11529 H 1117.38 3.60639 -2.08155 0
M  V30 11530 H 1119.98 5.34627 0.0883578 0
M  V30 11531 H 1120.32 4.00142 1.14857 0
M  V30 11532 H 1120.85 3.93992 -0.549093 0
M  V30 11533 H 1117.59 5.93211 -2.78892 0
M  V30 11534 H 1117.11 5.90058 -1.07662 0
M  V30 11535 H 1118.79 6.2869 -1.52835 0
M  V30 11536 N 1118.92 0.422693 1.51826 0
M  V30 11537 C 1120.15 -0.14753 2.06073 0
M  V30 11538 C 1120.56 -1.38264 1.2915 0
M  V30 11539 O 1119.9 -1.8052 0.340306 0
M  V30 11540 C 1119.96 -0.549558 3.55275 0
M  V30 11541 C 1119.63 0.576704 4.53347 0
M  V30 11542 C 1120.63 1.44442 4.99432 0
M  V30 11543 C 1118.31 0.753264 4.9662 0
M  V30 11544 C 1120.3 2.47352 5.87448 0
M  V30 11545 C 1117.99 1.78566 5.84429 0
M  V30 11546 C 1118.99 2.64419 6.29739 0
M  V30 11547 O 1118.68 3.65888 7.15808 0
M  V30 11548 H 1118.41 -0.0178911 0.675763 0
M  V30 11549 H 1120.96 0.596258 1.96555 0
M  V30 11550 H 1119.19 -1.34583 3.62525 0
M  V30 11551 H 1120.88 -1.04925 3.92104 0
M  V30 11552 H 1121.65 1.31948 4.66706 0
M  V30 11553 H 1117.53 0.0946405 4.60903 0
M  V30 11554 H 1121.07 3.14397 6.22736 0
M  V30 11555 H 1116.97 1.91086 6.16568 0
M  V30 11556 H 1117.74 3.62294 7.33952 0
M  V30 11557 N 1120.4 -1.5685 0.153553 0
M  V30 11558 C 1121.68 -1.8796 -0.541328 0
M  V30 11559 C 1122.06 -1.06059 -1.82523 0
M  V30 11560 O 1121.4 -0.149295 -2.28012 0
M  V30 11561 C 1121.61 -3.39697 -0.800442 0
M  V30 11562 C 1122.96 -4.09057 -1.13832 0
M  V30 11563 O 1123.99 -3.44913 -0.889578 0
M  V30 11564 O 1122.85 -5.22347 -1.60673 0
M  V30 11565 H 1119.94 -0.779268 -0.276895 0
M  V30 11566 H 1122.49 -1.68626 0.190657 0
M  V30 11567 H 1121.26 -3.91151 0.107935 0
M  V30 11568 H 1120.88 -3.64582 -1.58638 0
M  V30 11569 N 1121.88 0.120221 -1.57141 0
M  V30 11570 C 1122.84 1.13159 -1.99318 0
M  V30 11571 C 1123.84 1.34376 -0.883158 0
M  V30 11572 O 1125.03 1.30914 -1.14922 0
M  V30 11573 C 1122.16 2.48632 -2.33227 0
M  V30 11574 H 1123.36 0.769119 -2.8987 0
M  V30 11575 H 1120.91 0.364475 -1.51991 0
M  V30 11576 H 1121.64 2.89802 -1.45551 0
M  V30 11577 H 1121.43 2.34587 -3.14184 0
M  V30 11578 H 1122.92 3.21423 -2.66603 0
M  V30 11579 N 1123.36 1.52689 0.390367 0
M  V30 11580 C 1124.32 1.76726 1.45947 0
M  V30 11581 C 1125.32 0.637269 1.47633 0
M  V30 11582 O 1126.51 0.905312 1.48828 0
M  V30 11583 C 1123.64 1.86678 2.85244 0
M  V30 11584 H 1124.83 2.72185 1.25918 0
M  V30 11585 H 1122.39 1.4339 0.622023 0
M  V30 11586 H 1123.12 0.931991 3.10619 0
M  V30 11587 H 1122.91 2.68843 2.85422 0
M  V30 11588 H 1124.4 2.06952 3.62713 0
M  V30 11589 N 1124.83 -0.648732 1.43629 0
M  V30 11590 C 1126.08 -1.41066 1.45699 0
M  V30 11591 C 1126.41 -1.94024 0.082612 0
M  V30 11592 O 1125.69 -1.7257 -0.897207 0
M  V30 11593 C 1125.97 -2.58882 2.50304 0
M  V30 11594 C 1125.82 -2.11387 3.97033 0
M  V30 11595 C 1127.14 -3.61092 2.51597 0
M  V30 11596 H 1124.26 -0.511591 0.530512 0
M  V30 11597 H 1126.9 -0.735069 1.75205 0
M  V30 11598 H 1125.05 -3.16518 2.25274 0
M  V30 11599 H 1126.73 -1.58718 4.33136 0
M  V30 11600 H 1124.97 -1.4272 4.0965 0
M  V30 11601 H 1125.64 -2.96129 4.65845 0
M  V30 11602 H 1128.12 -3.13223 2.73917 0
M  V30 11603 H 1126.99 -4.41071 3.26722 0
M  V30 11604 H 1127.25 -4.13985 1.55141 0
M  V30 11605 N 1126.31 -1.30234 -0.887518 0
M  V30 11606 C 1127.24 -1.18969 -2.00919 0
M  V30 11607 C 1128.22 -0.080952 -1.69907 0
M  V30 11608 O 1129.41 -0.262546 -1.92417 0
M  V30 11609 C 1126.54 -0.878094 -3.36016 0
M  V30 11610 C 1125.49 -1.94449 -3.81279 0
M  V30 11611 C 1124.82 -1.48594 -5.13638 0
M  V30 11612 C 1126.12 -3.35519 -4.00281 0
M  V30 11613 H 1127.81 -2.12808 -2.10602 0
M  V30 11614 H 1125.36 -1.02454 -1.01189 0
M  V30 11615 H 1127.31 -0.785954 -4.14006 0
M  V30 11616 H 1126.04 0.0959779 -3.26459 0
M  V30 11617 H 1124.69 -2.02622 -3.05516 0
M  V30 11618 H 1124.34 -0.500204 -5.00507 0
M  V30 11619 H 1124.04 -2.19921 -5.44893 0
M  V30 11620 H 1125.57 -1.40754 -5.94156 0
M  V30 11621 H 1126.98 -3.30119 -4.68716 0
M  V30 11622 H 1125.38 -4.0491 -4.42909 0
M  V30 11623 H 1126.45 -3.77597 -3.04218 0
M  V30 11624 N 1127.79 1.09952 -1.12909 0
M  V30 11625 C 1128.74 2.18525 -0.796849 0
M  V30 11626 C 1129.73 1.67985 0.218483 0
M  V30 11627 O 1130.94 1.79839 0.07618 0
M  V30 11628 H 1127.31 0.712714 -0.239882 0
M  V30 11629 H 1129.28 2.43783 -1.72083 0
M  V30 11630 C 1128.03 3.46625 -0.273237 0
M  V30 11631 H 1127.36 3.85879 -1.04582 0
M  V30 11632 H 1128.8 4.23926 -0.0791355 0
M  V30 11633 C 1127.26 3.2172 0.999903 0
M  V30 11634 O 1127.79 3.43851 2.07676 0
M  V30 11635 N 1125.99 2.75356 0.928833 0
M  V30 11636 H 1125.54 2.57547 0.052379 0
M  V30 11637 H 1125.5 2.5907 1.78129 0
M  V30 11638 N 1129.27 0.921757 1.27833 0
M  V30 11639 C 1130.5 0.574368 1.98455 0
M  V30 11640 C 1130.91 -0.850577 1.69002 0
M  V30 11641 O 1130.25 -1.57607 0.943708 0
M  V30 11642 C 1130.31 0.713235 3.52354 0
M  V30 11643 C 1129.98 2.1092 4.05415 0
M  V30 11644 C 1130.97 3.08276 4.18643 0
M  V30 11645 C 1128.66 2.42454 4.3991 0
M  V30 11646 C 1130.65 4.35279 4.6563 0
M  V30 11647 C 1128.34 3.69694 4.8659 0
M  V30 11648 C 1129.34 4.6592 4.99407 0
M  V30 11649 O 1129.02 5.90896 5.45066 0
M  V30 11650 H 1128.76 0.216955 0.640239 0
M  V30 11651 H 1131.31 1.23932 1.63798 0
M  V30 11652 H 1129.54 -0.00881115 3.86699 0
M  V30 11653 H 1131.23 0.371776 4.04194 0
M  V30 11654 H 1132 2.85234 3.92258 0
M  V30 11655 H 1127.87 1.68303 4.2918 0
M  V30 11656 H 1131.42 5.10391 4.75549 0
M  V30 11657 H 1127.32 3.92557 5.12415 0
M  V30 11658 H 1128.08 5.938 5.63333 0
M  V30 11659 N 1130.75 -1.41857 0.686609 0
M  V30 11660 C 1131.68 -2.28174 -0.0347358 0
M  V30 11661 C 1132.66 -1.41732 -0.796928 0
M  V30 11662 O 1133.84 -1.71165 -0.789607 0
M  V30 11663 C 1130.97 -3.21801 -1.0565 0
M  V30 11664 C 1130.01 -4.24727 -0.388523 0
M  V30 11665 S 1130.85 -5.28508 0.862546 0
M  V30 11666 C 1132 -6.25701 -0.157849 0
M  V30 11667 H 1132.24 -2.89005 0.697381 0
M  V30 11668 H 1129.77 -1.46861 0.476562 0
M  V30 11669 H 1131.73 -3.76278 -1.64089 0
M  V30 11670 H 1130.39 -2.60082 -1.76114 0
M  V30 11671 H 1129.58 -4.90471 -1.15991 0
M  V30 11672 H 1129.18 -3.73799 0.122567 0
M  V30 11673 H 1131.48 -6.6987 -1.01393 0
M  V30 11674 H 1132.42 -7.06569 0.465437 0
M  V30 11675 H 1132.83 -5.62204 -0.508614 0
M  V30 11676 N 1132.22 -0.430739 -1.51599 0
M  V30 11677 C 1133.19 0.372319 -2.26156 0
M  V30 11678 C 1134.19 0.955338 -1.29344 0
M  V30 11679 O 1135.38 0.830823 -1.53111 0
M  V30 11680 C 1132.51 1.52613 -3.04831 0
M  V30 11681 H 1133.7 -0.280996 -2.98581 0
M  V30 11682 H 1131.26 -0.183749 -1.55216 0
M  V30 11683 H 1131.99 2.21569 -2.36807 0
M  V30 11684 H 1131.78 1.11433 -3.75932 0
M  V30 11685 H 1133.27 2.09366 -3.61325 0
M  V30 11686 N 1133.7 1.56767 -0.161869 0
M  V30 11687 C 1135.12 1.58412 0.194403 0
M  V30 11688 C 1135.32 1.17682 1.63564 0
M  V30 11689 O 1134.37 0.884024 2.36519 0
M  V30 11690 C 1135.69 3.00599 -0.0778438 0
M  V30 11691 C 1137.24 3.12996 -0.015307 0
M  V30 11692 C 1137.71 4.57259 -0.260418 0
M  V30 11693 N 1139.2 4.62733 -0.207863 0
M  V30 11694 C 1139.94 5.72193 -0.371821 0
M  V30 11695 N 1139.43 6.90246 -0.594318 0
M  V30 11696 N 1141.23 5.61253 -0.308384 0
M  V30 11697 H 1133.38 1.81531 -1.10274 0
M  V30 11698 H 1135.64 0.840919 -0.437675 0
M  V30 11699 H 1135.35 3.3484 -1.07587 0
M  V30 11700 H 1135.22 3.71819 0.634845 0
M  V30 11701 H 1137.61 2.78588 0.97329 0
M  V30 11702 H 1137.69 2.44232 -0.760559 0
M  V30 11703 H 1137.33 4.92375 -1.24618 0
M  V30 11704 H 1137.26 5.2417 0.505334 0
M  V30 11705 H 1139.75 3.77878 -0.0411541 0
M  V30 11706 H 1140.07 7.6954 -0.70913 0
M  V30 11707 H 1138.41 6.92131 -0.630819 0
M  V30 11708 H 1141.6 4.67905 -0.135217 0
M  V30 11709 H 1141.77 6.46507 -0.439592 0
M  V30 11710 N 1135.18 -0.111886 1.57202 0
M  V30 11711 C 1136.13 -1.13688 2.00858 0
M  V30 11712 C 1137.1 -1.40752 0.881939 0
M  V30 11713 O 1138.28 -1.52498 1.14669 0
M  V30 11714 C 1135.42 -2.45641 2.42393 0
M  V30 11715 C 1134.54 -2.25452 3.68504 0
M  V30 11716 C 1133.67 -3.50686 3.9899 0
M  V30 11717 C 1132.71 -3.25685 5.18262 0
M  V30 11718 N 1131.85 -4.4314 5.44583 0
M  V30 11719 H 1136.69 -0.757611 2.88209 0
M  V30 11720 H 1134.22 -0.362582 1.42561 0
M  V30 11721 H 1136.18 -3.22627 2.64514 0
M  V30 11722 H 1134.81 -2.81447 1.58074 0
M  V30 11723 H 1133.86 -1.39349 3.53958 0
M  V30 11724 H 1135.18 -2.0296 4.55641 0
M  V30 11725 H 1134.33 -4.36087 4.21797 0
M  V30 11726 H 1133.07 -3.76216 3.10343 0
M  V30 11727 H 1132.07 -2.38675 4.95292 0
M  V30 11728 H 1133.3 -3.01518 6.08493 0
M  V30 11729 H 1131.24 -4.68778 4.58893 0
M  V30 11730 H 1131.16 -4.23778 6.26058 0
M  V30 11731 H 1132.43 -5.29654 5.71915 0
M  V30 11732 N 1136.66 -1.52894 -0.382264 0
M  V30 11733 C 1137.94 -1.58853 -1.14127 0
M  V30 11734 C 1138.32 -0.38582 -2.07544 0
M  V30 11735 O 1137.66 0.625323 -2.19777 0
M  V30 11736 C 1137.87 -2.93068 -1.89504 0
M  V30 11737 C 1139.22 -3.47048 -2.44629 0
M  V30 11738 O 1140.25 -2.94987 -1.99652 0
M  V30 11739 O 1139.1 -4.3802 -3.26804 0
M  V30 11740 H 1136.2 -0.640969 -0.522578 0
M  V30 11741 H 1138.74 -1.65231 -0.386873 0
M  V30 11742 H 1137.52 -3.72047 -1.2123 0
M  V30 11743 H 1137.14 -2.90106 -2.7189 0
M  V30 11744 N 1138.14 0.641106 -1.43971 0
M  V30 11745 C 1139.05 1.78239 -1.52538 0
M  V30 11746 C 1140.06 1.6906 -0.411668 0
M  V30 11747 O 1141.24 1.90014 -0.66757 0
M  V30 11748 C 1138.3 3.14579 -1.45743 0
M  V30 11749 C 1137.37 3.35464 -2.67885 0
M  V30 11750 C 1136.6 4.65299 -2.61404 0
M  V30 11751 O 1136.82 5.45451 -1.66851 0
M  V30 11752 O 1135.76 4.8817 -3.521 0
M  V30 11753 H 1139.58 1.73965 -2.48937 0
M  V30 11754 H 1137.17 0.801098 -1.26106 0
M  V30 11755 H 1139.05 3.95873 -1.4444 0
M  V30 11756 H 1137.72 3.19417 -0.524837 0
M  V30 11757 H 1136.63 2.53888 -2.74758 0
M  V30 11758 H 1137.96 3.35481 -3.60157 0
M  V30 11759 N 1139.62 1.30703 0.880598 0
M  V30 11760 C 1140.86 1.19541 1.62955 0
M  V30 11761 C 1141.18 -0.249089 1.93403 0
M  V30 11762 O 1140.45 -1.1669 1.57354 0
M  V30 11763 H 1139.03 0.439434 0.604075 0
M  V30 11764 H 1141.7 1.63888 1.05483 0
M  V30 11765 H 1140.79 1.75945 2.57779 0
M  V30 11766 N 1141.09 -1.09351 1.1349 0
M  V30 11767 C 1142.33 -1.83156 0.907372 0
M  V30 11768 C 1142.7 -1.8376 -0.556441 0
M  V30 11769 O 1143.9 -2.5323 -0.90156 0
M  V30 11770 C 1142.17 -3.25315 1.48004 0
M  V30 11771 S 1143.73 -4.16113 1.39268 0
M  V30 11772 H 1140.55 -0.631319 0.327043 0
M  V30 11773 H 1143.15 -1.31509 1.44657 0
M  V30 11774 H 1141.85 -3.22452 2.53876 0
M  V30 11775 H 1141.38 -3.82034 0.938822 0
M  V30 11776 H 1143.4 -4.94806 0.371645 0
M  V30 11777 N 1142.57 -0.928524 -1.27343 0
M  V30 11778 C 1143.52 -0.426873 -2.26818 0
M  V30 11779 C 1144.49 0.506663 -1.58184 0
M  V30 11780 O 1145.67 0.425641 -1.85992 0
M  V30 11781 C 1142.81 0.313523 -3.43673 0
M  V30 11782 C 1141.93 -0.65422 -4.27018 0
M  V30 11783 C 1141.06 0.106102 -5.31094 0
M  V30 11784 C 1140.1 -0.854293 -6.06109 0
M  V30 11785 N 1139.24 -0.126545 -7.01986 0
M  V30 11786 H 1144.08 -1.28014 -2.69103 0
M  V30 11787 H 1141.61 -0.642515 -1.32326 0
M  V30 11788 H 1143.57 0.75912 -4.10236 0
M  V30 11789 H 1142.2 1.13102 -3.02337 0
M  V30 11790 H 1141.25 -1.21834 -3.60362 0
M  V30 11791 H 1142.57 -1.38817 -4.79094 0
M  V30 11792 H 1141.72 0.611577 -6.0361 0
M  V30 11793 H 1140.46 0.873009 -4.79823 0
M  V30 11794 H 1139.46 -1.37101 -5.32432 0
M  V30 11795 H 1140.69 -1.621 -6.5947 0
M  V30 11796 H 1138.64 0.622102 -6.53044 0
M  V30 11797 H 1138.55 -0.800046 -7.51755 0
M  V30 11798 H 1139.82 0.358251 -7.78676 0
M  V30 11799 N 1144.05 1.41491 -0.694123 0
M  V30 11800 C 1144.98 2.33462 -0.0422169 0
M  V30 11801 C 1145.96 1.51739 0.76872 0
M  V30 11802 O 1147.15 1.8028 0.721985 0
M  V30 11803 C 1144.28 3.35545 0.895925 0
M  V30 11804 C 1143.23 4.27568 0.192188 0
M  V30 11805 C 1142.56 5.20014 1.24459 0
M  V30 11806 C 1143.86 5.1376 -0.940626 0
M  V30 11807 H 1145.55 2.88225 -0.810363 0
M  V30 11808 H 1143.1 1.38586 -0.39114 0
M  V30 11809 H 1145.05 3.9881 1.36121 0
M  V30 11810 H 1143.77 2.79129 1.69572 0
M  V30 11811 H 1142.43 3.65726 -0.25305 0
M  V30 11812 H 1142.08 4.59913 2.03687 0
M  V30 11813 H 1141.78 5.82417 0.778734 0
M  V30 11814 H 1143.3 5.86155 1.71041 0
M  V30 11815 H 1144.72 5.70601 -0.555692 0
M  V30 11816 H 1143.11 5.85097 -1.33349 0
M  V30 11817 H 1144.18 4.51011 -1.78093 0
M  V30 11818 N 1145.53 0.438773 1.51369 0
M  V30 11819 C 1146.77 -0.127401 2.02399 0
M  V30 11820 C 1147.11 -1.42235 1.32223 0
M  V30 11821 O 1146.38 -1.89513 0.437607 0
M  V30 11822 C 1146.66 -0.344673 3.58447 0
M  V30 11823 C 1146.52 0.969027 4.39238 0
M  V30 11824 C 1147.84 -1.11381 4.25773 0
M  V30 11825 H 1144.96 -0.0448281 0.735635 0
M  V30 11826 H 1147.6 0.57805 1.80993 0
M  V30 11827 H 1145.75 -0.945582 3.76817 0
M  V30 11828 H 1147.42 1.60403 4.32514 0
M  V30 11829 H 1145.66 1.57329 4.04265 0
M  V30 11830 H 1146.33 0.771029 5.46589 0
M  V30 11831 H 1148.81 -0.604785 4.11681 0
M  V30 11832 H 1147.69 -1.23459 5.34835 0
M  V30 11833 H 1147.95 -2.14225 3.8673 0
M  V30 11834 N 1147.01 -1.56678 0.170181 0
M  V30 11835 C 1148.23 -2.01223 -0.481362 0
M  V30 11836 C 1148.65 -1.05039 -1.56883 0
M  V30 11837 O 1148.01 -0.0510751 -1.82429 0
M  V30 11838 C 1148.06 -3.45588 -1.06073 0
M  V30 11839 O 1147.78 -4.38097 -0.0166754 0
M  V30 11840 C 1149.28 -4.05527 -1.79061 0
M  V30 11841 H 1146.5 -0.659574 -0.1233 0
M  V30 11842 H 1149.04 -2.02689 0.271576 0
M  V30 11843 H 1147.2 -3.449 -1.76417 0
M  V30 11844 H 1147.61 -5.22615 -0.444276 0
M  V30 11845 H 1149.09 -5.08467 -2.1486 0
M  V30 11846 H 1149.56 -3.47554 -2.68519 0
M  V30 11847 H 1150.17 -4.09914 -1.13361 0
M  V30 11848 N 1148.48 0.103547 -1.57259 0
M  V30 11849 C 1149.73 0.807231 -1.84842 0
M  V30 11850 C 1150.05 1.80308 -0.758181 0
M  V30 11851 O 1151.25 2.55406 -0.920877 0
M  V30 11852 C 1149.71 1.4864 -3.27771 0
M  V30 11853 C 1149.32 0.53075 -4.44845 0
M  V30 11854 C 1151.06 2.17431 -3.64587 0
M  V30 11855 C 1148.97 1.21403 -5.78805 0
M  V30 11856 H 1147.9 0.305212 -0.689465 0
M  V30 11857 H 1150.55 0.0600855 -1.83402 0
M  V30 11858 H 1148.93 2.28071 -3.23728 0
M  V30 11859 H 1150.1 -0.231455 -4.60218 0
M  V30 11860 H 1148.42 -0.0510078 -4.16369 0
M  V30 11861 H 1151.02 2.6927 -4.6195 0
M  V30 11862 H 1151.36 2.9594 -2.92789 0
M  V30 11863 H 1151.89 1.4487 -3.70483 0
M  V30 11864 H 1148.63 0.469918 -6.53813 0
M  V30 11865 H 1148.15 1.94787 -5.6729 0
M  V30 11866 H 1149.83 1.74289 -6.23083 0
M  V30 11867 N 1149.96 1.53094 0.37415 0
M  V30 11868 C 1151.21 1.68527 1.11548 0
M  V30 11869 C 1151.53 0.435253 1.9008 0
M  V30 11870 O 1150.8 -0.550594 1.88003 0
M  V30 11871 H 1149.38 0.621255 0.41479 0
M  V30 11872 H 1152.04 1.90258 0.422844 0
M  V30 11873 H 1151.14 2.54248 1.81009 0
M  V30 11874 N 1151.44 -0.633461 1.44309 0
M  V30 11875 C 1152.66 -1.42527 1.50668 0
M  V30 11876 C 1153.09 -1.87637 0.131861 0
M  V30 11877 O 1152.45 -1.58595 -0.878477 0
M  V30 11878 C 1152.5 -2.62328 2.47419 0
M  V30 11879 O 1151.6 -3.62081 1.97411 0
M  V30 11880 H 1150.94 -0.426559 0.508864 0
M  V30 11881 H 1153.47 -0.773392 1.8942 0
M  V30 11882 H 1153.48 -3.09901 2.65378 0
M  V30 11883 H 1152.16 -2.2884 3.47283 0
M  V30 11884 H 1150.73 -3.21333 1.89208 0
M  V30 11885 N 1152.92 -1.31168 -0.873655 0
M  V30 11886 C 1154.17 -1.20404 -1.62319 0
M  V30 11887 C 1154.49 0.238829 -1.93532 0
M  V30 11888 O 1153.76 1.15854 -1.57971 0
M  V30 11889 H 1152.34 -0.442632 -0.601736 0
M  V30 11890 H 1155 -1.64445 -1.04613 0
M  V30 11891 H 1154.1 -1.77309 -2.56842 0
M  V30 11892 N 1154.4 1.08748 -1.14068 0
M  V30 11893 C 1155.34 2.15573 -0.824425 0
M  V30 11894 C 1156.31 1.64683 0.216522 0
M  V30 11895 O 1157.5 1.90601 0.0872193 0
M  V30 11896 C 1154.64 3.43756 -0.30423 0
M  V30 11897 C 1153.75 4.08512 -1.40506 0
M  V30 11898 C 1152.89 5.24477 -0.842479 0
M  V30 11899 C 1151.93 5.81167 -1.92123 0
M  V30 11900 N 1151.06 6.88483 -1.37608 0
M  V30 11901 H 1155.9 2.41968 -1.73941 0
M  V30 11902 H 1153.44 1.18751 -0.868143 0
M  V30 11903 H 1155.4 4.17197 0.0155546 0
M  V30 11904 H 1154.03 3.17658 0.573868 0
M  V30 11905 H 1153.08 3.32866 -1.84131 0
M  V30 11906 H 1154.39 4.46669 -2.2201 0
M  V30 11907 H 1153.55 6.04842 -0.474389 0
M  V30 11908 H 1152.28 4.877 0.00355212 0
M  V30 11909 H 1151.29 4.99458 -2.29831 0
M  V30 11910 H 1152.51 6.20003 -2.77079 0
M  V30 11911 H 1150.46 6.53672 -0.552168 0
M  V30 11912 H 1150.38 7.25446 -2.12752 0
M  V30 11913 H 1151.65 7.72588 -1.03578 0
M  V30 11914 N 1155.87 0.935264 1.26849 0
M  V30 11915 C 1157.12 0.580548 1.94313 0
M  V30 11916 C 1157.45 -0.877205 1.73259 0
M  V30 11917 O 1156.73 -1.62679 1.06611 0
M  V30 11918 C 1157.01 0.916445 3.48243 0
M  V30 11919 C 1156.86 2.42851 3.78607 0
M  V30 11920 C 1158.18 0.427665 4.38017 0
M  V30 11921 H 1155.3 0.21239 0.705733 0
M  V30 11922 H 1157.94 1.16841 1.49827 0
M  V30 11923 H 1156.09 0.416169 3.86265 0
M  V30 11924 H 1157.77 3.00106 3.50335 0
M  V30 11925 H 1156.01 2.8745 3.24892 0
M  V30 11926 H 1156.68 2.61405 4.8618 0
M  V30 11927 H 1159.16 0.856525 4.07189 0
M  V30 11928 H 1158.03 0.691571 5.44526 0
M  V30 11929 H 1158.29 -0.672344 4.36958 0
M  V30 11930 N 1157.35 -1.41121 0.701616 0
M  V30 11931 C 1158.6 -2.0113 0.235147 0
M  V30 11932 C 1158.93 -1.55587 -1.16718 0
M  V30 11933 O 1158.18 -0.760615 -1.80314 0
M  V30 11934 C 1158.48 -3.5654 0.247781 0
M  V30 11935 C 1158.15 -4.21616 1.59846 0
M  V30 11936 C 1156.81 -4.39106 1.96822 0
M  V30 11937 C 1159.16 -4.58048 2.48679 0
M  V30 11938 C 1156.49 -4.90307 3.22205 0
M  V30 11939 C 1158.84 -5.10642 3.734 0
M  V30 11940 C 1157.51 -5.26343 4.10512 0
M  V30 11941 H 1156.78 -0.735987 0.0860462 0
M  V30 11942 H 1159.42 -1.68932 0.901898 0
M  V30 11943 H 1157.73 -3.88564 -0.502528 0
M  V30 11944 H 1159.42 -4.00787 -0.130766 0
M  V30 11945 H 1156.01 -4.08381 1.30088 0
M  V30 11946 H 1160.2 -4.44184 2.21391 0
M  V30 11947 H 1155.45 -5.00647 3.50945 0
M  V30 11948 H 1159.63 -5.37811 4.42416 0
M  V30 11949 H 1157.26 -5.65779 5.07738 0
M  V30 11950 N 1158.83 -0.446794 -1.51134 0
M  V30 11951 C 1159.79 0.348311 -2.26538 0
M  V30 11952 C 1160.79 0.941566 -1.3035 0
M  V30 11953 O 1161.98 0.814537 -1.53984 0
M  V30 11954 C 1159.12 1.49371 -3.06433 0
M  V30 11955 H 1160.31 -0.312648 -2.98266 0
M  V30 11956 H 1157.86 -0.200201 -1.55013 0
M  V30 11957 H 1158.6 2.19045 -2.39144 0
M  V30 11958 H 1158.38 1.07439 -3.77093 0
M  V30 11959 H 1159.87 2.05522 -3.63525 0
M  V30 11960 N 1160.31 1.56586 -0.178487 0
M  V30 11961 C 1161.54 2.01475 0.470684 0
M  V30 11962 C 1161.95 1.0587 1.56323 0
M  V30 11963 O 1161.31 0.060749 1.82399 0
M  V30 11964 C 1161.36 3.46145 1.04238 0
M  V30 11965 O 1161.08 4.381 -0.0065582 0
M  V30 11966 C 1162.58 4.06471 1.76908 0
M  V30 11967 H 1159.8 0.660219 0.119801 0
M  V30 11968 H 1162.35 2.02542 -0.282322 0
M  V30 11969 H 1160.5 3.45831 1.74585 0
M  V30 11970 H 1160.91 5.22843 0.416554 0
M  V30 11971 H 1162.39 5.096 2.12161 0
M  V30 11972 H 1162.87 3.48974 2.66672 0
M  V30 11973 H 1163.47 4.10509 1.11186 0
M  V30 11974 N 1161.79 -0.095206 1.57312 0
M  V30 11975 C 1163.01 -0.81227 1.90289 0
M  V30 11976 C 1163.43 -1.72287 0.772178 0
M  V30 11977 O 1162.79 -1.80698 -0.255841 0
M  V30 11978 C 1162.84 -1.62572 3.22882 0
M  V30 11979 O 1162.56 -0.75175 4.31602 0
M  V30 11980 C 1164.06 -2.44585 3.6972 0
M  V30 11981 H 1161.28 -0.232256 0.629522 0
M  V30 11982 H 1163.82 -0.0724733 2.04372 0
M  V30 11983 H 1161.98 -2.31803 3.10397 0
M  V30 11984 H 1162.39 -1.31514 5.07744 0
M  V30 11985 H 1163.87 -2.97155 4.65191 0
M  V30 11986 H 1164.34 -3.23044 2.97555 0
M  V30 11987 H 1164.95 -1.80554 3.85072 0
M  V30 11988 N 1163.26 -1.53291 -0.366026 0
M  V30 11989 C 1164.51 -1.69117 -1.10653 0
M  V30 11990 C 1164.83 -0.445327 -1.89847 0
M  V30 11991 O 1164.1 0.540616 -1.88293 0
M  V30 11992 H 1162.68 -0.623446 -0.41149 0
M  V30 11993 H 1165.35 -1.90479 -0.412749 0
M  V30 11994 H 1164.44 -2.55205 -1.79658 0
M  V30 11995 N 1164.74 0.6258 -1.44643 0
M  V30 11996 C 1165.97 1.41028 -1.50979 0
M  V30 11997 C 1166.38 1.88717 -0.135092 0
M  V30 11998 O 1165.72 1.61778 0.870268 0
M  V30 11999 C 1165.79 2.66094 -2.41732 0
M  V30 12000 C 1165.45 2.40166 -3.88805 0
M  V30 12001 C 1166.45 2.01661 -4.79196 0
M  V30 12002 C 1164.13 2.53641 -4.33557 0
M  V30 12003 C 1166.13 1.76966 -6.12341 0
M  V30 12004 C 1163.81 2.2856 -5.66748 0
M  V30 12005 C 1164.81 1.90282 -6.55959 0
M  V30 12006 O 1164.5 1.65484 -7.86683 0
M  V30 12007 H 1164.23 0.438757 -0.514265 0
M  V30 12008 H 1166.78 0.772034 -1.90339 0
M  V30 12009 H 1165.01 3.32575 -1.97309 0
M  V30 12010 H 1166.7 3.28107 -2.38957 0
M  V30 12011 H 1167.47 1.90802 -4.45892 0
M  V30 12012 H 1163.35 2.82404 -3.64375 0
M  V30 12013 H 1166.89 1.47014 -6.81933 0
M  V30 12014 H 1162.79 2.3903 -5.99612 0
M  V30 12015 H 1163.56 1.79686 -7.98533 0
M  V30 12016 N 1166.22 1.31629 0.866686 0
M  V30 12017 C 1167.47 1.21263 1.61678 0
M  V30 12018 C 1167.79 -0.228562 1.93656 0
M  V30 12019 O 1167.06 -1.15014 1.58583 0
M  V30 12020 H 1165.64 0.445817 0.59938 0
M  V30 12021 H 1168.3 1.64998 1.03739 0
M  V30 12022 H 1167.4 1.78669 2.55898 0
M  V30 12023 N 1167.7 -1.08142 1.14644 0
M  V30 12024 C 1168.95 -1.79959 0.910908 0
M  V30 12025 C 1169.26 -1.87296 -0.563866 0
M  V30 12026 O 1170.47 -2.55555 -0.916735 0
M  V30 12027 C 1168.92 -3.23351 1.58025 0
M  V30 12028 C 1168.53 -3.2424 3.09148 0
M  V30 12029 C 1170.28 -3.99834 1.42595 0
M  V30 12030 C 1168.18 -4.62236 3.68906 0
M  V30 12031 H 1167.11 -0.674423 0.33715 0
M  V30 12032 H 1169.76 -1.21441 1.37566 0
M  V30 12033 H 1168.15 -3.82013 1.04318 0
M  V30 12034 H 1169.32 -2.75269 3.69545 0
M  V30 12035 H 1167.63 -2.61253 3.24246 0
M  V30 12036 H 1170.23 -5.01809 1.8464 0
M  V30 12037 H 1170.57 -4.14631 0.372402 0
M  V30 12038 H 1171.11 -3.47648 1.93354 0
M  V30 12039 H 1167.85 -4.52642 4.74126 0
M  V30 12040 H 1167.37 -5.11477 3.1329 0
M  V30 12041 H 1169.05 -5.3121 3.69358 0
M  V30 12042 N 1169.18 -0.941978 -1.26351 0
M  V30 12043 C 1170.14 -0.456768 -2.24602 0
M  V30 12044 C 1171.14 0.432574 -1.54872 0
M  V30 12045 O 1172.33 0.23164 -1.72653 0
M  V30 12046 C 1169.46 0.341583 -3.39184 0
M  V30 12047 H 1170.66 -1.32503 -2.69041 0
M  V30 12048 H 1168.21 -0.724021 -1.38519 0
M  V30 12049 H 1168.94 1.22806 -3.00149 0
M  V30 12050 H 1168.73 -0.296268 -3.90979 0
M  V30 12051 H 1170.22 0.670955 -4.12175 0
M  V30 12052 N 1170.66 1.40747 -0.709091 0
M  V30 12053 C 1171.59 2.33404 -0.0669763 0
M  V30 12054 C 1172.57 1.52546 0.752582 0
M  V30 12055 O 1173.75 1.81036 0.702823 0
M  V30 12056 C 1170.88 3.36476 0.860285 0
M  V30 12057 C 1169.84 4.27748 0.146828 0
M  V30 12058 C 1169.16 5.21304 1.18937 0
M  V30 12059 C 1170.46 5.12734 -0.995064 0
M  V30 12060 H 1172.16 2.87349 -0.840888 0
M  V30 12061 H 1169.7 1.38163 -0.405817 0
M  V30 12062 H 1171.65 4.00231 1.31883 0
M  V30 12063 H 1170.38 2.80912 1.66602 0
M  V30 12064 H 1169.04 3.65437 -0.291826 0
M  V30 12065 H 1168.69 4.62048 1.98798 0
M  V30 12066 H 1168.39 5.8321 0.716917 0
M  V30 12067 H 1169.91 5.87936 1.64815 0
M  V30 12068 H 1171.32 5.69979 -0.61618 0
M  V30 12069 H 1169.72 5.83649 -1.39547 0
M  V30 12070 H 1170.79 4.49097 -1.82867 0
M  V30 12071 N 1172.13 0.454803 1.50895 0
M  V30 12072 C 1173.08 -0.366073 2.25042 0
M  V30 12073 C 1174.07 -0.975353 1.27967 0
M  V30 12074 O 1175.26 -0.8906 1.52962 0
M  V30 12075 C 1172.39 -1.45683 3.10856 0
M  V30 12076 C 1171.47 -0.856086 4.1537 0
M  V30 12077 N 1171.87 0.0138787 5.05798 0
M  V30 12078 C 1170.16 -1.1218 4.31661 0
M  V30 12079 C 1170.86 0.35313 5.80627 0
M  V30 12080 N 1169.84 -0.267648 5.42941 0
M  V30 12081 H 1173.64 0.304357 2.9232 0
M  V30 12082 H 1171.16 0.267937 1.60174 0
M  V30 12083 H 1173.15 -2.05793 3.62567 0
M  V30 12084 H 1171.81 -2.12942 2.45124 0
M  V30 12085 H 1172.82 0.381574 5.16492 0
M  V30 12086 H 1169.5 -1.79059 3.77153 0
M  V30 12087 H 1170.89 1.06213 6.63452 0
M  V30 12088 N 1173.61 -1.56489 0.186789 0
M  V30 12089 C 1174.56 -2.18703 -0.737402 0
M  V30 12090 C 1175.53 -1.13171 -1.21579 0
M  V30 12091 O 1176.71 -1.41388 -1.28118 0
M  V30 12092 C 1173.85 -2.84394 -1.95484 0
M  V30 12093 C 1172.97 -4.04429 -1.51859 0
M  V30 12094 C 1172.1 -4.58001 -2.69089 0
M  V30 12095 C 1171.14 -5.70412 -2.22029 0
M  V30 12096 N 1170.28 -6.18425 -3.32407 0
M  V30 12097 H 1175.12 -2.97327 -0.200105 0
M  V30 12098 H 1172.65 -1.46842 -0.087032 0
M  V30 12099 H 1174.61 -3.20646 -2.66912 0
M  V30 12100 H 1173.24 -2.08347 -2.46559 0
M  V30 12101 H 1172.29 -3.73895 -0.70048 0
M  V30 12102 H 1173.61 -4.85756 -1.13327 0
M  V30 12103 H 1172.76 -4.96515 -3.48652 0
M  V30 12104 H 1171.5 -3.75764 -3.1089 0
M  V30 12105 H 1170.5 -5.31434 -1.40918 0
M  V30 12106 H 1171.73 -6.54461 -1.81268 0
M  V30 12107 H 1169.68 -5.39113 -3.73755 0
M  V30 12108 H 1169.59 -6.94782 -2.98017 0
M  V30 12109 H 1170.86 -6.61592 -4.12209 0
M  V30 12110 N 1175.09 0.086862 -1.5736 0
M  V30 12111 C 1176.34 0.787281 -1.86135 0
M  V30 12112 C 1176.66 1.78866 -0.776667 0
M  V30 12113 O 1175.93 1.94915 0.19625 0
M  V30 12114 H 1174.51 0.293744 -0.686821 0
M  V30 12115 H 1177.17 0.0665326 -1.94786 0
M  V30 12116 H 1176.27 1.3128 -2.83147 0
M  V30 12117 N 1176.57 1.53483 0.357892 0
M  V30 12118 C 1177.79 1.74264 1.12458 0
M  V30 12119 C 1178.22 0.473944 1.82031 0
M  V30 12120 O 1177.58 -0.57253 1.72023 0
M  V30 12121 C 1177.62 2.91356 2.12471 0
M  V30 12122 O 1176.73 2.60502 3.19707 0
M  V30 12123 H 1176.07 0.578499 0.325937 0
M  V30 12124 H 1178.6 2.00395 0.412666 0
M  V30 12125 H 1178.61 3.1774 2.5594 0
M  V30 12126 H 1177.28 3.83378 1.61226 0
M  V30 12127 H 1175.86 2.44961 2.81156 0
M  V30 12128 N 1178.05 -0.61812 1.44973 0
M  V30 12129 C 1179.46 -0.937734 1.29146 0
M  V30 12130 C 1179.66 -2.00104 0.236749 0
M  V30 12131 O 1178.72 -2.49731 -0.372923 0
M  V30 12132 C 1180.03 -1.38865 2.66715 0
M  V30 12133 C 1181.58 -1.50343 2.74529 0
M  V30 12134 C 1182.05 -1.98814 4.12598 0
M  V30 12135 N 1183.54 -2.06064 4.14839 0
M  V30 12136 C 1184.28 -2.44768 5.18533 0
M  V30 12137 N 1183.78 -2.82516 6.32579 0
M  V30 12138 N 1185.57 -2.45016 5.05889 0
M  V30 12139 H 1177.72 0.084872 2.1223 0
M  V30 12140 H 1179.98 -0.0246744 0.947679 0
M  V30 12141 H 1179.69 -0.681583 3.45032 0
M  V30 12142 H 1179.56 -2.3572 2.94475 0
M  V30 12143 H 1181.95 -2.20144 1.96522 0
M  V30 12144 H 1182.03 -0.518297 2.50494 0
M  V30 12145 H 1181.67 -1.29604 4.91086 0
M  V30 12146 H 1181.6 -2.98223 4.34017 0
M  V30 12147 H 1184.1 -1.79525 3.32535 0
M  V30 12148 H 1184.41 -3.109 7.07504 0
M  V30 12149 H 1182.75 -2.80237 6.35997 0
M  V30 12150 H 1185.94 -2.14925 4.15842 0
M  V30 12151 H 1186.12 -2.74854 5.86821 0
M  V30 12152 N 1179.52 -1.32087 -0.859693 0
M  V30 12153 C 1180.77 -1.23551 -1.61575 0
M  V30 12154 C 1181.12 0.20199 -1.91337 0
M  V30 12155 O 1180.42 1.13834 -1.54118 0
M  V30 12156 C 1180.61 -2.0234 -2.94607 0
M  V30 12157 C 1180.44 -3.53606 -2.77836 0
M  V30 12158 C 1179.21 -4.22948 -2.76483 0
M  V30 12159 C 1181.41 -4.48356 -2.51955 0
M  V30 12160 N 1179.39 -5.60301 -2.5087 0
M  V30 12161 C 1180.76 -5.7345 -2.35702 0
M  V30 12162 C 1182.82 -4.37669 -2.37383 0
M  V30 12163 C 1181.52 -6.89064 -2.06357 0
M  V30 12164 C 1183.55 -5.53077 -2.09427 0
M  V30 12165 C 1182.91 -6.77167 -1.93971 0
M  V30 12166 H 1179.01 -0.507252 -0.595164 0
M  V30 12167 H 1181.59 -1.66395 -1.01098 0
M  V30 12168 H 1179.76 -1.6185 -3.53071 0
M  V30 12169 H 1181.49 -1.8574 -3.59559 0
M  V30 12170 H 1178.25 -3.75017 -2.89239 0
M  V30 12171 H 1178.67 -6.32649 -2.41006 0
M  V30 12172 H 1183.31 -3.42386 -2.48056 0
M  V30 12173 H 1181.03 -7.84363 -1.94421 0
M  V30 12174 H 1184.62 -5.46731 -1.98937 0
M  V30 12175 H 1183.5 -7.64959 -1.72646 0
M  V30 12176 N 1181 1.07532 -1.15215 0
M  V30 12177 C 1181.95 2.14687 -0.847243 0
M  V30 12178 C 1182.92 1.64903 0.199043 0
M  V30 12179 O 1184.1 1.90682 0.0669986 0
M  V30 12180 C 1181.24 3.43414 -0.340673 0
M  V30 12181 C 1180.36 4.06999 -1.44831 0
M  V30 12182 C 1179.49 5.23554 -0.898059 0
M  V30 12183 C 1178.53 5.79097 -1.98276 0
M  V30 12184 N 1177.67 6.86985 -1.44902 0
M  V30 12185 H 1182.51 2.4011 -1.76498 0
M  V30 12186 H 1180.04 1.17823 -0.880689 0
M  V30 12187 H 1182 4.1719 -0.0286956 0
M  V30 12188 H 1180.63 3.18249 0.540144 0
M  V30 12189 H 1179.68 3.30895 -1.87651 0
M  V30 12190 H 1181 4.44289 -2.26735 0
M  V30 12191 H 1180.15 6.04305 -0.538514 0
M  V30 12192 H 1178.89 4.87676 -0.0481752 0
M  V30 12193 H 1177.89 4.96992 -2.35115 0
M  V30 12194 H 1179.12 6.1703 -2.83639 0
M  V30 12195 H 1177.07 6.5305 -0.621468 0
M  V30 12196 H 1176.98 7.23149 -2.20434 0
M  V30 12197 H 1178.25 7.71446 -1.11767 0
M  V30 12198 N 1182.48 0.948665 1.2585 0
M  V30 12199 C 1183.9 0.652147 1.45668 0
M  V30 12200 C 1184.1 -0.792217 1.85273 0
M  V30 12201 O 1183.15 -1.56812 1.97905 0
M  V30 12202 C 1184.47 1.61998 2.53332 0
M  V30 12203 C 1186.01 1.6305 2.67178 0
M  V30 12204 C 1186.49 2.58582 3.78021 0
M  V30 12205 N 1187.98 2.56911 3.85423 0
M  V30 12206 C 1188.71 3.27511 4.70664 0
M  V30 12207 N 1188.21 4.07563 5.60236 0
M  V30 12208 N 1190 3.16427 4.64576 0
M  V30 12209 H 1182.15 1.88215 0.984325 0
M  V30 12210 H 1184.42 0.809251 0.493778 0
M  V30 12211 H 1184.12 2.65137 2.31075 0
M  V30 12212 H 1184 1.37784 3.51134 0
M  V30 12213 H 1186.38 0.606315 2.88804 0
M  V30 12214 H 1186.47 1.9132 1.69795 0
M  V30 12215 H 1186.11 3.61122 3.57146 0
M  V30 12216 H 1186.04 2.27598 4.74875 0
M  V30 12217 H 1188.53 1.9879 3.21389 0
M  V30 12218 H 1188.84 4.58367 6.22189 0
M  V30 12219 H 1187.19 4.11662 5.59964 0
M  V30 12220 H 1190.38 2.53364 3.93604 0
M  V30 12221 H 1190.55 3.71714 5.30785 0
M  V30 12222 N 1183.96 -1.40369 0.716545 0
M  V30 12223 C 1185.37 -1.83783 0.328719 0
M  V30 12224 C 1185.72 -1.5991 -1.13681 0
M  V30 12225 O 1184.85 -1.08048 -1.87496 0
M  V30 12226 C 1185.44 -3.33626 0.589848 0
M  V30 12227 C 1184 -3.7553 0.25572 0
M  V30 12228 C 1183.15 -2.63571 0.861733 0
M  V30 12229 H 1186.1 -1.29623 0.915621 0
M  V30 12230 H 1186.12 -3.80225 -0.14459 0
M  V30 12231 H 1185.63 -3.5097 1.65655 0
M  V30 12232 H 1183.73 -3.63781 -0.805883 0
M  V30 12233 H 1183.84 -4.73577 0.725388 0
M  V30 12234 H 1182.21 -2.53047 0.289706 0
M  V30 12235 H 1182.99 -2.83727 1.93272 0
M  V30 12236 N 1185.44 -0.462799 -1.50652 0
M  V30 12237 C 1186.69 0.0966838 -2.01468 0
M  V30 12238 C 1187 1.41529 -1.35014 0
M  V30 12239 O 1188.2 2.05923 -1.76941 0
M  V30 12240 C 1186.66 0.222826 -3.5921 0
M  V30 12241 C 1186.27 -1.08686 -4.34616 0
M  V30 12242 C 1188.01 0.734711 -4.18094 0
M  V30 12243 C 1185.92 -0.924964 -5.84122 0
M  V30 12244 H 1184.85 0.0399078 -0.752943 0
M  V30 12245 H 1187.5 -0.596437 -1.73536 0
M  V30 12246 H 1185.88 0.979539 -3.83694 0
M  V30 12247 H 1187.06 -1.85388 -4.21862 0
M  V30 12248 H 1185.37 -1.52922 -3.87303 0
M  V30 12249 H 1187.97 0.872734 -5.2753 0
M  V30 12250 H 1188.31 1.72389 -3.7893 0
M  V30 12251 H 1188.84 0.0356139 -3.97784 0
M  V30 12252 H 1185.58 -1.88727 -6.27744 0
M  V30 12253 H 1185.1 -0.198181 -5.99473 0
M  V30 12254 H 1186.78 -0.588262 -6.4432 0
M  V30 12255 N 1186.91 1.56388 -0.195085 0
M  V30 12256 C 1188.19 1.89329 0.491303 0
M  V30 12257 C 1188.57 1.10861 1.79647 0
M  V30 12258 O 1187.92 0.209696 2.27536 0
M  V30 12259 C 1188.13 3.417 0.710096 0
M  V30 12260 C 1189.48 4.11931 1.02947 0
M  V30 12261 O 1190.5 3.4715 0.797817 0
M  V30 12262 O 1189.36 5.26423 1.46767 0
M  V30 12263 H 1186.45 0.786335 0.256137 0
M  V30 12264 H 1189 1.68061 -0.235298 0
M  V30 12265 H 1187.77 3.90727 -0.211604 0
M  V30 12266 H 1187.4 3.6866 1.48916 0
M  V30 12267 N 1188.39 -0.0785156 1.57404 0
M  V30 12268 C 1189.32 -1.09446 2.06262 0
M  V30 12269 C 1190.3 -1.40777 0.954772 0
M  V30 12270 O 1191.49 -1.5052 1.22708 0
M  V30 12271 C 1188.62 -2.40979 2.50093 0
M  V30 12272 C 1187.57 -2.24017 3.64692 0
M  V30 12273 C 1186.9 -3.60873 3.94556 0
M  V30 12274 C 1188.2 -1.66696 4.94985 0
M  V30 12275 H 1189.89 -0.687928 2.9139 0
M  V30 12276 H 1187.44 -0.329466 1.4018 0
M  V30 12277 H 1189.39 -3.12337 2.82884 0
M  V30 12278 H 1188.12 -2.83599 1.61985 0
M  V30 12279 H 1186.77 -1.55101 3.32174 0
M  V30 12280 H 1186.42 -4.01051 3.0359 0
M  V30 12281 H 1186.12 -3.50365 4.71718 0
M  V30 12282 H 1187.65 -4.33673 4.29837 0
M  V30 12283 H 1189.06 -2.27913 5.2605 0
M  V30 12284 H 1187.46 -1.66902 5.76423 0
M  V30 12285 H 1188.53 -0.627827 4.80818 0
M  V30 12286 N 1189.87 -1.5367 -0.349747 0
M  V30 12287 C 1190.83 -1.80533 -1.41211 0
M  V30 12288 C 1191.83 -0.676188 -1.45892 0
M  V30 12289 O 1193.02 -0.944453 -1.46375 0
M  V30 12290 C 1190.16 -1.94175 -2.80195 0
M  V30 12291 H 1191.35 -2.75428 -1.18658 0
M  V30 12292 H 1188.9 -1.44988 -0.583787 0
M  V30 12293 H 1189.64 -1.01402 -3.08039 0
M  V30 12294 H 1189.42 -2.76316 -2.78194 0
M  V30 12295 H 1190.91 -2.16496 -3.57098 0
M  V30 12296 N 1191.35 0.610423 -1.45298 0
M  V30 12297 C 1192.28 1.73207 -1.56594 0
M  V30 12298 C 1193.26 1.64893 -0.417651 0
M  V30 12299 O 1194.44 1.83336 -0.64043 0
M  V30 12300 C 1191.57 3.11803 -1.52959 0
M  V30 12301 C 1190.53 3.34925 -2.66475 0
M  V30 12302 C 1189.85 4.73764 -2.47894 0
M  V30 12303 C 1191.15 3.25456 -4.08504 0
M  V30 12304 H 1192.85 1.6401 -2.50482 0
M  V30 12305 H 1190.39 0.787621 -1.20551 0
M  V30 12306 H 1192.35 3.90065 -1.59458 0
M  V30 12307 H 1191.07 3.21833 -0.55599 0
M  V30 12308 H 1189.73 2.59051 -2.59399 0
M  V30 12309 H 1189.38 4.80524 -1.4868 0
M  V30 12310 H 1189.08 4.90191 -3.24016 0
M  V30 12311 H 1190.6 5.54231 -2.56243 0
M  V30 12312 H 1192.02 3.93597 -4.16839 0
M  V30 12313 H 1190.41 3.53414 -4.84994 0
M  V30 12314 H 1191.48 2.22939 -4.30612 0
M  V30 12315 N 1192.83 1.32541 0.852676 0
M  V30 12316 C 1193.76 1.24254 1.97694 0
M  V30 12317 C 1194.74 0.125971 1.69633 0
M  V30 12318 O 1195.92 0.31347 1.91653 0
M  V30 12319 C 1193.05 0.966874 3.3357 0
M  V30 12320 C 1192.01 2.0449 3.75989 0
M  V30 12321 C 1191.33 1.6216 5.09518 0
M  V30 12322 C 1192.63 3.46013 3.91244 0
M  V30 12323 H 1194.33 2.18317 2.04886 0
M  V30 12324 H 1191.87 1.05101 0.984371 0
M  V30 12325 H 1193.83 0.895444 4.11776 0
M  V30 12326 H 1192.55 -0.0093893 3.26599 0
M  V30 12327 H 1191.21 2.10651 3.00036 0
M  V30 12328 H 1190.86 0.632729 4.99005 0
M  V30 12329 H 1190.56 2.3429 5.38871 0
M  V30 12330 H 1192.08 1.56457 5.90215 0
M  V30 12331 H 1193.49 3.4243 4.59799 0
M  V30 12332 H 1191.89 4.1651 4.32017 0
M  V30 12333 H 1192.96 3.8553 2.941 0
M  V30 12334 N 1194.3 -1.0692 1.15784 0
M  V30 12335 C 1195.24 -2.14168 0.816375 0
M  V30 12336 C 1196.25 -1.61872 -0.17357 0
M  V30 12337 O 1197.44 -1.78429 0.0502973 0
M  V30 12338 C 1194.54 -3.38346 0.193682 0
M  V30 12339 C 1193.71 -4.19979 1.22215 0
M  V30 12340 C 1192.77 -5.2253 0.620424 0
M  V30 12341 O 1191.8 -5.54446 1.28757 0
M  V30 12342 N 1193 -5.77434 -0.595811 0
M  V30 12343 H 1195.76 -2.44062 1.73937 0
M  V30 12344 H 1193.32 -1.22865 1.05431 0
M  V30 12345 H 1195.32 -4.04092 -0.22174 0
M  V30 12346 H 1193.89 -3.06129 -0.632735 0
M  V30 12347 H 1193.11 -3.49984 1.81397 0
M  V30 12348 H 1194.39 -4.71329 1.91641 0
M  V30 12349 H 1193.79 -5.5376 -1.15611 0
M  V30 12350 H 1192.35 -6.44788 -0.953529 0
M  V30 12351 N 1195.78 -0.955326 -1.25345 0
M  V30 12352 C 1197.03 -0.610484 -1.93079 0
M  V30 12353 C 1197.36 0.852591 -1.74817 0
M  V30 12354 O 1196.61 1.6272 -1.08723 0
M  V30 12355 C 1196.91 -0.916173 -3.45458 0
M  V30 12356 C 1196.58 -2.36539 -3.83875 0
M  V30 12357 C 1195.24 -2.76152 -3.94073 0
M  V30 12358 C 1197.59 -3.30652 -4.02888 0
M  V30 12359 C 1194.92 -4.08944 -4.20692 0
M  V30 12360 C 1197.27 -4.63057 -4.31 0
M  V30 12361 C 1195.94 -5.02464 -4.39415 0
M  V30 12362 H 1195.21 -0.223392 -0.706525 0
M  V30 12363 H 1197.85 -1.20449 -1.48877 0
M  V30 12364 H 1196.16 -0.23978 -3.91066 0
M  V30 12365 H 1197.85 -0.627929 -3.96053 0
M  V30 12366 H 1194.44 -2.04819 -3.76493 0
M  V30 12367 H 1198.63 -3.01237 -3.94423 0
M  V30 12368 H 1193.88 -4.39118 -4.25423 0
M  V30 12369 H 1198.06 -5.3596 -4.44657 0
M  V30 12370 H 1195.69 -6.05386 -4.59795 0
M  V30 12371 N 1197.26 1.39987 -0.723979 0
M  V30 12372 C 1198.19 2.3332 -0.0917282 0
M  V30 12373 C 1199.17 1.53335 0.736361 0
M  V30 12374 O 1200.36 1.81771 0.683582 0
M  V30 12375 C 1197.49 3.3737 0.824549 0
M  V30 12376 C 1196.44 4.2788 0.101452 0
M  V30 12377 C 1195.77 5.22536 1.13401 0
M  V30 12378 C 1197.07 5.11649 -1.04939 0
M  V30 12379 H 1198.76 2.86441 -0.871318 0
M  V30 12380 H 1196.31 1.37725 -0.420448 0
M  V30 12381 H 1198.26 4.01607 1.27631 0
M  V30 12382 H 1196.98 2.82663 1.63613 0
M  V30 12383 H 1195.64 3.65107 -0.330569 0
M  V30 12384 H 1195.29 4.64131 1.93886 0
M  V30 12385 H 1194.99 5.83938 0.65502 0
M  V30 12386 H 1196.52 5.89651 1.58569 0
M  V30 12387 H 1197.93 5.69293 -0.6766 0
M  V30 12388 H 1196.33 5.82137 -1.45729 0
M  V30 12389 H 1197.4 4.47132 -1.8762 0
M  V30 12390 N 1198.74 0.470782 1.50404 0
M  V30 12391 C 1199.99 -0.0841494 2.01925 0
M  V30 12392 C 1200.31 -1.40244 1.35487 0
M  V30 12393 O 1199.58 -1.89409 0.500111 0
M  V30 12394 H 1198.16 -0.0340884 0.746222 0
M  V30 12395 H 1200.82 0.621133 1.84738 0
M  V30 12396 H 1199.92 -0.235877 3.11207 0
M  V30 12397 N 1200.22 -1.56282 0.203376 0
M  V30 12398 C 1201.49 -1.89587 -0.481256 0
M  V30 12399 C 1201.87 -1.11812 -1.79057 0
M  V30 12400 O 1201.22 -0.221759 -2.27421 0
M  V30 12401 C 1201.43 -3.42071 -0.691965 0
M  V30 12402 C 1202.78 -4.12471 -1.00761 0
M  V30 12403 O 1203.8 -3.47568 -0.779396 0
M  V30 12404 O 1202.66 -5.27194 -1.43974 0
M  V30 12405 H 1199.76 -0.787682 -0.251963 0
M  V30 12406 H 1202.3 -1.67934 0.244207 0
M  V30 12407 H 1201.08 -3.9061 0.232322 0
M  V30 12408 H 1200.7 -3.69444 -1.46958 0
M  V30 12409 N 1201.7 0.070167 -1.57444 0
M  V30 12410 C 1202.97 0.802108 -1.78397 0
M  V30 12411 C 1203.35 1.95706 -0.791356 0
M  V30 12412 O 1202.7 2.27827 0.17518 0
M  V30 12413 C 1202.91 1.27354 -3.24934 0
M  V30 12414 C 1204.26 1.70626 -3.88808 0
M  V30 12415 O 1205.28 1.36916 -3.28835 0
M  V30 12416 O 1204.14 2.33041 -4.94322 0
M  V30 12417 H 1201.24 0.384483 -0.73219 0
M  V30 12418 H 1203.78 0.0501168 -1.69626 0
M  V30 12419 H 1202.55 0.447204 -3.88736 0
M  V30 12420 H 1202.18 2.0868 -3.38435 0
M  V30 12421 N 1203.17 1.53854 0.341593 0
M  V30 12422 C 1204.08 1.84975 1.44297 0
M  V30 12423 C 1205.1 0.740057 1.57477 0
M  V30 12424 O 1206.28 1.03256 1.72917 0
M  V30 12425 C 1203.34 2.05464 2.79259 0
M  V30 12426 C 1202.4 3.29318 2.75405 0
M  V30 12427 C 1201.63 3.4882 4.03931 0
M  V30 12428 O 1201.86 2.7212 5.01305 0
M  V30 12429 O 1200.79 4.42253 4.08284 0
M  V30 12430 H 1204.62 2.78592 1.20913 0
M  V30 12431 H 1202.2 1.39532 0.533953 0
M  V30 12432 H 1204.08 2.20374 3.59184 0
M  V30 12433 H 1202.76 1.15035 3.0257 0
M  V30 12434 H 1201.67 3.1981 1.94094 0
M  V30 12435 H 1203 4.19746 2.57049 0
M  V30 12436 N 1204.65 -0.602709 1.4562 0
M  V30 12437 C 1205.9 -1.35769 1.49163 0
M  V30 12438 C 1206.21 -1.95102 0.139485 0
M  V30 12439 O 1207.42 -2.71449 0.0525919 0
M  V30 12440 C 1205.88 -2.45959 2.62739 0
M  V30 12441 C 1205.48 -1.93017 4.04288 0
M  V30 12442 C 1207.23 -3.22926 2.75534 0
M  V30 12443 C 1205.13 -3.00718 5.09237 0
M  V30 12444 H 1204.06 -0.510317 0.555061 0
M  V30 12445 H 1206.72 -0.645434 1.71774 0
M  V30 12446 H 1205.1 -3.19892 2.3342 0
M  V30 12447 H 1206.27 -1.2576 4.43307 0
M  V30 12448 H 1204.59 -1.2878 3.95986 0
M  V30 12449 H 1207.18 -4.03267 3.51112 0
M  V30 12450 H 1207.53 -3.74243 1.82339 0
M  V30 12451 H 1208.06 -2.56095 3.04402 0
M  V30 12452 H 1204.8 -2.54312 6.04157 0
M  V30 12453 H 1204.32 -3.66526 4.74783 0
M  V30 12454 H 1206 -3.65016 5.34202 0
M  V30 12455 N 1206.13 -1.32992 -0.845635 0
M  V30 12456 C 1207.04 -1.24701 -1.98713 0
M  V30 12457 C 1208.06 -0.158864 -1.73273 0
M  V30 12458 O 1209.23 -0.381209 -1.97759 0
M  V30 12459 C 1206.3 -0.979524 -3.32575 0
M  V30 12460 C 1205.36 -2.15701 -3.71176 0
M  V30 12461 C 1204.59 -1.90219 -4.98651 0
M  V30 12462 O 1204.81 -0.849171 -5.64044 0
M  V30 12463 O 1203.75 -2.76571 -5.34595 0
M  V30 12464 H 1207.57 -2.20683 -2.08645 0
M  V30 12465 H 1205.16 -1.12971 -0.97765 0
M  V30 12466 H 1207.04 -0.847219 -4.12796 0
M  V30 12467 H 1205.72 -0.0499398 -3.23661 0
M  V30 12468 H 1204.62 -2.34483 -2.91494 0
M  V30 12469 H 1205.96 -3.0697 -3.84747 0
M  V30 12470 N 1207.61 1.06304 -1.1635 0
M  V30 12471 C 1208.54 2.13209 -0.81346 0
M  V30 12472 C 1209.52 1.61174 0.21484 0
M  V30 12473 O 1210.7 1.8824 0.0989458 0
M  V30 12474 C 1207.83 3.38039 -0.211498 0
M  V30 12475 C 1206.88 4.08875 -1.21339 0
M  V30 12476 S 1207.71 4.58894 -2.76001 0
M  V30 12477 C 1208.86 5.86985 -2.17254 0
M  V30 12478 H 1209.1 2.42572 -1.7189 0
M  V30 12479 H 1206.63 1.18737 -0.986957 0
M  V30 12480 H 1208.59 4.10296 0.129349 0
M  V30 12481 H 1207.25 3.06834 0.671705 0
M  V30 12482 H 1206.44 4.98528 -0.740631 0
M  V30 12483 H 1206.04 3.42632 -1.49932 0
M  V30 12484 H 1208.34 6.59738 -1.54115 0
M  V30 12485 H 1209.28 6.38991 -3.05117 0
M  V30 12486 H 1209.69 5.41012 -1.61141 0
M  V30 12487 N 1209.09 0.96196 1.24836 0
M  V30 12488 C 1210.02 0.506241 2.27946 0
M  V30 12489 C 1211 -0.451183 1.64007 0
M  V30 12490 O 1212.18 -0.348552 1.91046 0
M  V30 12491 C 1209.31 -0.209846 3.46665 0
M  V30 12492 C 1208.27 0.663035 4.22833 0
M  V30 12493 C 1207.59 -0.184216 5.34383 0
M  V30 12494 C 1208.89 1.94479 4.84742 0
M  V30 12495 H 1210.59 1.36805 2.66317 0
M  V30 12496 H 1208.13 0.65926 1.28023 0
M  V30 12497 H 1210.08 -0.539838 4.17928 0
M  V30 12498 H 1208.81 -1.10596 3.07305 0
M  V30 12499 H 1207.47 0.976216 3.53363 0
M  V30 12500 H 1207.12 -1.08031 4.91262 0
M  V30 12501 H 1206.82 0.39657 5.8626 0
M  V30 12502 H 1208.34 -0.509009 6.08475 0
M  V30 12503 H 1209.75 1.68074 5.48109 0
M  V30 12504 H 1208.15 2.47183 5.46828 0
M  V30 12505 H 1209.22 2.64332 4.06517 0
M  V30 12506 N 1210.56 -1.39601 0.731392 0
M  V30 12507 C 1211.47 -2.34425 0.090527 0
M  V30 12508 C 1212.49 -1.58131 -0.725992 0
M  V30 12509 O 1213.67 -1.90441 -0.655294 0
M  V30 12510 C 1210.73 -3.37138 -0.808624 0
M  V30 12511 C 1209.79 -4.29295 0.0197365 0
M  V30 12512 C 1209.02 -5.27102 -0.836593 0
M  V30 12513 O 1209.25 -5.31302 -2.07543 0
M  V30 12514 O 1208.18 -6.01307 -0.267172 0
M  V30 12515 H 1212.01 -2.9088 0.873084 0
M  V30 12516 H 1209.59 -1.41066 0.492024 0
M  V30 12517 H 1211.47 -4.00087 -1.32319 0
M  V30 12518 H 1210.15 -2.83074 -1.57006 0
M  V30 12519 H 1209.06 -3.69581 0.579744 0
M  V30 12520 H 1210.39 -4.86555 0.743308 0
M  V30 12521 N 1212.04 -0.478751 -1.50152 0
M  V30 12522 C 1213.46 -0.133356 -1.59042 0
M  V30 12523 C 1213.66 1.36069 -1.48618 0
M  V30 12524 O 1212.71 2.13468 -1.34862 0
M  V30 12525 C 1214.03 -0.690369 -2.92668 0
M  V30 12526 C 1215.58 -0.654481 -3.06081 0
M  V30 12527 C 1216.05 -1.18917 -4.42293 0
M  V30 12528 N 1217.54 -1.14891 -4.48725 0
M  V30 12529 C 1218.28 -1.53305 -5.52526 0
M  V30 12530 N 1217.77 -1.99205 -6.63543 0
M  V30 12531 N 1219.57 -1.4486 -5.43113 0
M  V30 12532 H 1211.72 -1.45037 -1.55171 0
M  V30 12533 H 1213.98 -0.600254 -0.733757 0
M  V30 12534 H 1213.69 -1.7373 -3.05795 0
M  V30 12535 H 1213.56 -0.138227 -3.76947 0
M  V30 12536 H 1215.95 0.383564 -2.92597 0
M  V30 12537 H 1216.03 -1.24352 -2.2354 0
M  V30 12538 H 1215.67 -2.22588 -4.56527 0
M  V30 12539 H 1215.6 -0.57628 -5.23437 0
M  V30 12540 H 1218.09 -0.812344 -3.69066 0
M  V30 12541 H 1218.41 -2.26645 -7.38818 0
M  V30 12542 H 1216.75 -2.03164 -6.64642 0
M  V30 12543 H 1219.94 -1.08836 -4.55272 0
M  V30 12544 H 1220.11 -1.75123 -6.23888 0
M  V30 12545 N 1213.52 1.56172 -0.211661 0
M  V30 12546 C 1214.45 2.22843 0.697375 0
M  V30 12547 C 1215.43 1.19689 1.20866 0
M  V30 12548 O 1216.62 1.48245 1.25447 0
M  V30 12549 C 1213.75 2.90067 1.90993 0
M  V30 12550 C 1212.7 3.99608 1.5329 0
M  V30 12551 C 1212.03 4.54078 2.82343 0
M  V30 12552 C 1213.33 5.17169 0.730333 0
M  V30 12553 H 1215.02 2.99065 0.141533 0
M  V30 12554 H 1212.57 1.43846 0.0666337 0
M  V30 12555 H 1214.52 3.35396 2.55123 0
M  V30 12556 H 1213.24 2.11276 2.49058 0
M  V30 12557 H 1211.9 3.54995 0.915115 0
M  V30 12558 H 1211.55 3.72029 3.38531 0
M  V30 12559 H 1211.25 5.28001 2.57853 0
M  V30 12560 H 1212.77 5.02119 3.47432 0
M  V30 12561 H 1214.19 5.5894 1.2751 0
M  V30 12562 H 1212.59 5.97262 0.582916 0
M  V30 12563 H 1213.66 4.84174 -0.265157 0
M  V30 12564 N 1215 -0.0618163 1.57479 0
M  V30 12565 C 1216.24 -0.754894 1.88873 0
M  V30 12566 C 1216.6 -1.74679 0.806539 0
M  V30 12567 O 1215.89 -1.90672 -0.188301 0
M  V30 12568 C 1216.09 -1.4939 3.2468 0
M  V30 12569 C 1215.92 -0.575088 4.46008 0
M  V30 12570 C 1214.69 -0.208295 5.04871 0
M  V30 12571 C 1216.88 0.132502 5.14129 0
M  V30 12572 N 1214.87 0.715201 6.0972 0
M  V30 12573 C 1216.24 0.912821 6.13243 0
M  V30 12574 C 1218.29 0.20292 4.97486 0
M  V30 12575 C 1216.99 1.75703 6.97511 0
M  V30 12576 C 1219.02 1.03414 5.82288 0
M  V30 12577 C 1218.38 1.80248 6.80948 0
M  V30 12578 H 1214.48 -0.251354 0.740503 0
M  V30 12579 H 1217.07 -0.0160307 1.94693 0
M  V30 12580 H 1215.24 -2.20343 3.1985 0
M  V30 12581 H 1216.97 -2.13678 3.43691 0
M  V30 12582 H 1213.72 -0.563353 4.70237 0
M  V30 12583 H 1214.15 1.17049 6.66805 0
M  V30 12584 H 1218.79 -0.376779 4.21118 0
M  V30 12585 H 1216.51 2.34766 7.73247 0
M  V30 12586 H 1220.09 1.09173 5.71465 0
M  V30 12587 H 1218.97 2.43529 7.45428 0
M  V30 12588 N 1216.48 -1.54033 -0.333429 0
M  V30 12589 C 1217.41 -1.85719 -1.4153 0
M  V30 12590 C 1218.39 -0.713144 -1.54429 0
M  V30 12591 O 1219.57 -0.965984 -1.68471 0
M  V30 12592 C 1216.7 -2.07578 -2.78439 0
M  V30 12593 C 1215.66 -3.23411 -2.80338 0
M  V30 12594 C 1214.98 -3.30622 -4.2023 0
M  V30 12595 C 1216.28 -4.6129 -2.44968 0
M  V30 12596 H 1217.98 -2.76325 -1.15261 0
M  V30 12597 H 1215.52 -1.32957 -0.55303 0
M  V30 12598 H 1217.48 -2.28329 -3.5418 0
M  V30 12599 H 1216.2 -1.13713 -3.06165 0
M  V30 12600 H 1214.86 -3.02531 -2.07052 0
M  V30 12601 H 1214.51 -2.34333 -4.45081 0
M  V30 12602 H 1214.21 -4.08466 -4.22409 0
M  V30 12603 H 1215.73 -3.53596 -4.97798 0
M  V30 12604 H 1217.14 -4.81987 -3.10421 0
M  V30 12605 H 1215.54 -5.41611 -2.58414 0
M  V30 12606 H 1216.61 -4.6421 -1.40134 0
M  V30 12607 N 1217.95 0.594978 -1.45938 0
M  V30 12608 C 1219.18 1.38482 -1.54394 0
M  V30 12609 C 1219.6 1.87222 -0.181563 0
M  V30 12610 O 1218.96 1.60869 0.836119 0
M  V30 12611 C 1219.01 2.55676 -2.54287 0
M  V30 12612 O 1218.11 3.5672 -2.06941 0
M  V30 12613 H 1217.46 0.412918 -0.519995 0
M  V30 12614 H 1219.99 0.722899 -1.91404 0
M  V30 12615 H 1220 3.02756 -2.73501 0
M  V30 12616 H 1218.67 2.19552 -3.53228 0
M  V30 12617 H 1217.25 3.16204 -1.97661 0
M  V30 12618 N 1219.43 1.33438 0.838571 0
M  V30 12619 C 1220.68 1.24665 1.59069 0
M  V30 12620 C 1221 -0.187433 1.94097 0
M  V30 12621 O 1220.27 -1.11625 1.60987 0
M  V30 12622 H 1218.85 0.45843 0.589789 0
M  V30 12623 H 1221.51 1.67161 1.00216 0
M  V30 12624 H 1220.61 1.84057 2.52051 0
M  V30 12625 N 1220.91 -1.05686 1.16912 0
M  V30 12626 C 1222.16 -1.77987 0.948875 0
M  V30 12627 C 1222.47 -1.8845 -0.524011 0
M  V30 12628 O 1223.68 -2.57442 -0.862322 0
M  V30 12629 C 1222.13 -3.19927 1.64848 0
M  V30 12630 C 1221.74 -3.1761 3.15956 0
M  V30 12631 C 1223.49 -3.96719 1.51044 0
M  V30 12632 C 1221.39 -4.54307 3.78628 0
M  V30 12633 H 1220.32 -0.667119 0.35138 0
M  V30 12634 H 1222.97 -1.18496 1.40111 0
M  V30 12635 H 1221.36 -3.79714 1.12397 0
M  V30 12636 H 1222.53 -2.67369 3.75301 0
M  V30 12637 H 1220.85 -2.54317 3.29715 0
M  V30 12638 H 1223.44 -4.97779 1.95243 0
M  V30 12639 H 1223.79 -4.13748 0.460268 0
M  V30 12640 H 1224.32 -3.43468 2.00685 0
M  V30 12641 H 1221.06 -4.42484 4.8362 0
M  V30 12642 H 1220.58 -5.04717 3.24069 0
M  V30 12643 H 1222.26 -5.23255 3.80543 0
M  V30 12644 N 1222.39 -0.968567 -1.24324 0
M  V30 12645 C 1223.63 -0.63879 -1.94162 0
M  V30 12646 C 1223.99 0.81112 -1.74025 0
M  V30 12647 O 1225.19 1.25116 -2.37906 0
M  V30 12648 C 1223.46 -1.00432 -3.42999 0
M  V30 12649 S 1225.02 -0.789227 -4.31644 0
M  V30 12650 H 1221.84 -0.234322 -0.671278 0
M  V30 12651 H 1224.44 -1.2457 -1.50673 0
M  V30 12652 H 1223.15 -2.05643 -3.55161 0
M  V30 12653 H 1222.68 -0.388221 -3.9148 0
M  V30 12654 H 1224.69 0.332976 -4.95082 0
M  V30 12655 N 1223.87 1.39211 -0.738786 0
M  V30 12656 C 1224.82 2.27869 -0.0772787 0
M  V30 12657 C 1225.8 1.44452 0.708683 0
M  V30 12658 O 1226.99 1.67329 0.57707 0
M  V30 12659 C 1224.12 3.33206 0.826364 0
M  V30 12660 C 1223.21 4.24086 0.034349 0
M  V30 12661 N 1223.6 4.95928 -0.99446 0
M  V30 12662 C 1221.9 4.45221 0.26343 0
M  V30 12663 C 1222.6 5.62757 -1.47238 0
M  V30 12664 N 1221.57 5.37824 -0.790305 0
M  V30 12665 H 1225.38 2.80869 -0.865447 0
M  V30 12666 H 1222.89 1.51938 -0.573462 0
M  V30 12667 H 1224.89 3.95592 1.31578 0
M  V30 12668 H 1223.55 2.81765 1.61365 0
M  V30 12669 H 1224.56 4.99289 -1.37591 0
M  V30 12670 H 1221.23 4.04717 1.02522 0
M  V30 12671 H 1222.62 6.30261 -2.32853 0
M  V30 12672 N 1225.34 0.486708 1.49896 0
M  V30 12673 C 1226.29 -0.313156 2.30482 0
M  V30 12674 C 1227.29 -0.976043 1.38455 0
M  V30 12675 O 1228.49 -0.905364 1.55574 0
M  V30 12676 H 1224.87 -0.119839 0.74239 0
M  V30 12677 H 1226.84 0.386701 2.95884 0
M  V30 12678 C 1225.59 -1.37334 3.19429 0
M  V30 12679 H 1224.91 -0.87265 3.9016 0
M  V30 12680 H 1226.35 -1.90526 3.78782 0
M  V30 12681 C 1224.81 -2.38378 2.38071 0
M  V30 12682 O 1225.34 -3.43972 2.07476 0
M  V30 12683 N 1223.55 -2.10486 2.00359 0
M  V30 12684 H 1223.09 -1.24638 2.2544 0
M  V30 12685 H 1223.05 -2.78324 1.46229 0
M  V30 12686 N 1226.82 -1.56058 0.219941 0
M  V30 12687 C 1228.1 -1.90087 -0.46112 0
M  V30 12688 C 1228.48 -1.13705 -1.77861 0
M  V30 12689 O 1227.83 -0.245868 -2.27173 0
M  V30 12690 C 1228.04 -3.42786 -0.655644 0
M  V30 12691 C 1229.39 -4.13517 -0.963803 0
M  V30 12692 O 1230.41 -3.48376 -0.742488 0
M  V30 12693 O 1229.27 -5.28692 -1.38374 0
M  V30 12694 H 1226.36 -0.790311 -0.243595 0
M  V30 12695 H 1228.91 -1.67665 0.262005 0
M  V30 12696 H 1227.68 -3.90341 0.273738 0
M  V30 12697 H 1227.3 -3.70982 -1.43032 0
M  V30 12698 N 1228.3 0.053464 -1.57509 0
M  V30 12699 C 1229.25 1.06155 -2.04939 0
M  V30 12700 C 1230.22 1.37382 -0.93357 0
M  V30 12701 O 1231.4 1.48137 -1.2025 0
M  V30 12702 C 1228.54 2.36476 -2.51343 0
M  V30 12703 C 1227.66 2.1162 -3.76618 0
M  V30 12704 C 1226.79 3.35636 -4.11731 0
M  V30 12705 C 1225.83 3.06226 -5.29993 0
M  V30 12706 N 1224.97 4.22623 -5.60655 0
M  V30 12707 H 1229.81 0.650122 -2.90822 0
M  V30 12708 H 1227.34 0.309421 -1.43809 0
M  V30 12709 H 1229.3 3.12588 -2.76306 0
M  V30 12710 H 1227.93 2.75386 -1.68411 0
M  V30 12711 H 1226.98 1.26116 -3.58886 0
M  V30 12712 H 1228.3 1.85909 -4.6286 0
M  V30 12713 H 1227.45 4.20132 -4.37692 0
M  V30 12714 H 1226.19 3.64439 -3.24092 0
M  V30 12715 H 1225.19 2.20128 -5.03809 0
M  V30 12716 H 1226.42 2.78726 -6.19265 0
M  V30 12717 H 1224.37 4.51424 -4.75976 0
M  V30 12718 H 1224.28 4.0025 -6.41355 0
M  V30 12719 H 1225.55 5.08063 -5.91178 0
M  V30 12720 N 1229.78 1.54207 0.325255 0
M  V30 12721 C 1231.03 1.71544 1.06091 0
M  V30 12722 C 1231.34 0.495137 1.89229 0
M  V30 12723 O 1232.55 0.54982 2.65874 0
M  V30 12724 C 1231 3.03412 1.93569 0
M  V30 12725 C 1230.61 4.32842 1.1555 0
M  V30 12726 C 1232.36 3.30113 2.66881 0
M  V30 12727 C 1230.26 5.55773 2.02164 0
M  V30 12728 H 1229.19 0.639281 0.399795 0
M  V30 12729 H 1231.84 1.80701 0.319261 0
M  V30 12730 H 1230.23 2.88158 2.71626 0
M  V30 12731 H 1231.4 4.58857 0.42276 0
M  V30 12732 H 1229.71 4.12893 0.539277 0
M  V30 12733 H 1232.31 4.19151 3.31988 0
M  V30 12734 H 1232.65 2.47918 3.34428 0
M  V30 12735 H 1233.19 3.46227 1.95887 0
M  V30 12736 H 1229.93 6.40565 1.39128 0
M  V30 12737 H 1229.45 5.3398 2.73177 0
M  V30 12738 H 1231.13 5.92113 2.60789 0
M  V30 12739 N 1231.26 -0.58723 1.46251 0
M  V30 12740 C 1232.17 -1.72455 1.59048 0
M  V30 12741 C 1233.18 -1.67416 0.47413 0
M  V30 12742 O 1234.36 -1.87406 0.737633 0
M  V30 12743 C 1231.42 -3.08953 1.57318 0
M  V30 12744 C 1230.49 -3.25291 2.80151 0
M  V30 12745 C 1229.72 -4.55277 2.78493 0
M  V30 12746 O 1229.94 -5.38883 1.8698 0
M  V30 12747 O 1228.88 -4.74765 3.69975 0
M  V30 12748 H 1232.7 -1.64606 2.55223 0
M  V30 12749 H 1230.29 -0.753742 1.28993 0
M  V30 12750 H 1232.17 -3.90239 1.59033 0
M  V30 12751 H 1230.84 -3.17249 0.643025 0
M  V30 12752 H 1229.75 -2.43515 2.83991 0
M  V30 12753 H 1231.08 -3.21883 3.7236 0
M  V30 12754 N 1232.74 -1.33881 -0.831482 0
M  V30 12755 C 1233.98 -1.25942 -1.58955 0
M  V30 12756 C 1234.31 0.172542 -1.93432 0
M  V30 12757 O 1233.59 1.11577 -1.59314 0
M  V30 12758 C 1233.87 -2.14193 -2.89471 0
M  V30 12759 C 1233.73 -3.65883 -2.61628 0
M  V30 12760 C 1235.04 -2.02071 -3.90967 0
M  V30 12761 H 1232.16 -0.458841 -0.576744 0
M  V30 12762 H 1234.81 -1.64052 -0.958482 0
M  V30 12763 H 1232.96 -1.81821 -3.43327 0
M  V30 12764 H 1234.63 -4.08581 -2.14148 0
M  V30 12765 H 1232.87 -3.87397 -1.95208 0
M  V30 12766 H 1233.54 -4.22988 -3.54662 0
M  V30 12767 H 1236.02 -2.30476 -3.46439 0
M  V30 12768 H 1234.89 -2.66059 -4.80108 0
M  V30 12769 H 1235.15 -0.995121 -4.30755 0
M  V30 12770 N 1234.21 1.05064 -1.1747 0
M  V30 12771 C 1235.15 2.12334 -0.836028 0
M  V30 12772 C 1236.12 1.61393 0.197733 0
M  V30 12773 O 1237.31 1.88334 0.0789748 0
M  V30 12774 C 1234.44 3.37796 -0.24734 0
M  V30 12775 C 1233.48 4.07565 -1.25669 0
M  V30 12776 S 1234.31 4.55941 -2.80853 0
M  V30 12777 C 1235.47 5.84648 -2.23468 0
M  V30 12778 H 1235.7 2.40735 -1.74453 0
M  V30 12779 H 1233.24 1.17684 -0.999495 0
M  V30 12780 H 1235.19 4.1041 0.0858241 0
M  V30 12781 H 1233.86 3.07529 0.639124 0
M  V30 12782 H 1233.05 4.97715 -0.793465 0
M  V30 12783 H 1232.65 3.41022 -1.53557 0
M  V30 12784 H 1234.94 6.58067 -1.61104 0
M  V30 12785 H 1235.89 6.35719 -3.11877 0
M  V30 12786 H 1236.29 5.39272 -1.6687 0
M  V30 12787 N 1235.69 0.975146 1.23809 0
M  V30 12788 C 1236.92 0.658605 1.96665 0
M  V30 12789 C 1237.34 -0.766744 1.71763 0
M  V30 12790 O 1236.7 -1.52151 0.985887 0
M  V30 12791 C 1236.75 0.948438 3.47904 0
M  V30 12792 O 1235.85 0.0377241 4.12383 0
M  V30 12793 H 1235.19 0.248231 0.615855 0
M  V30 12794 H 1237.72 1.30732 1.57386 0
M  V30 12795 H 1237.73 0.883 3.9833 0
M  V30 12796 H 1236.41 1.98717 3.65355 0
M  V30 12797 H 1234.98 0.157122 3.72569 0
M  V30 12798 N 1237.17 -1.38817 0.746158 0
M  V30 12799 C 1238.39 -2.05096 0.308302 0
M  V30 12800 C 1238.82 -1.55902 -1.05244 0
M  V30 12801 O 1238.18 -0.707685 -1.66918 0
M  V30 12802 C 1238.23 -3.59068 0.332016 0
M  V30 12803 O 1237.33 -4.06813 -0.676547 0
M  V30 12804 H 1236.67 -0.649523 0.1379 0
M  V30 12805 H 1239.2 -1.77637 1.0152 0
M  V30 12806 H 1239.21 -4.07601 0.180293 0
M  V30 12807 H 1237.89 -3.94234 1.32487 0
M  V30 12808 H 1236.46 -3.69666 -0.490046 0
M  V30 12809 N 1238.65 -0.49465 -1.49636 0
M  V30 12810 C 1239.59 0.287153 -2.29007 0
M  V30 12811 C 1240.56 0.966099 -1.35114 0
M  V30 12812 O 1241.75 0.973991 -1.64067 0
M  V30 12813 C 1238.89 1.34941 -3.17624 0
M  V30 12814 C 1238 0.682879 -4.26569 0
M  V30 12815 C 1237.14 1.72503 -5.0241 0
M  V30 12816 C 1236.18 1.04003 -6.032 0
M  V30 12817 N 1235.31 2.0261 -6.7223 0
M  V30 12818 H 1240.15 -0.395941 -2.95358 0
M  V30 12819 H 1237.69 -0.207103 -1.45635 0
M  V30 12820 H 1239.65 1.9772 -3.67372 0
M  V30 12821 H 1238.28 2.00135 -2.5327 0
M  V30 12822 H 1237.33 -0.0580477 -3.80356 0
M  V30 12823 H 1238.64 0.143334 -4.98594 0
M  V30 12824 H 1237.8 2.42804 -5.55996 0
M  V30 12825 H 1236.54 2.29843 -4.30144 0
M  V30 12826 H 1235.54 0.322765 -5.48852 0
M  V30 12827 H 1236.77 0.473219 -6.77449 0
M  V30 12828 H 1234.71 2.58922 -6.0274 0
M  V30 12829 H 1234.63 1.53704 -7.4021 0
M  V30 12830 H 1235.9 2.72218 -7.30423 0
M  V30 12831 N 1240.13 1.55939 -0.228214 0
M  V30 12832 C 1241.06 2.2357 0.6737 0
M  V30 12833 C 1242.04 1.20964 1.1959 0
M  V30 12834 O 1243.22 1.49568 1.23867 0
M  V30 12835 C 1240.35 2.92076 1.87906 0
M  V30 12836 C 1239.31 4.01211 1.49043 0
M  V30 12837 C 1238.63 4.57047 2.77511 0
M  V30 12838 C 1239.93 5.17914 0.67544 0
M  V30 12839 H 1241.63 2.99199 0.109806 0
M  V30 12840 H 1239.17 1.43908 0.0513732 0
M  V30 12841 H 1241.12 3.38083 2.51551 0
M  V30 12842 H 1239.85 2.13906 2.46803 0
M  V30 12843 H 1238.51 3.55945 0.877411 0
M  V30 12844 H 1238.16 3.75599 3.34566 0
M  V30 12845 H 1237.86 5.30707 2.52239 0
M  V30 12846 H 1239.38 5.05776 3.42087 0
M  V30 12847 H 1240.79 5.60261 1.21575 0
M  V30 12848 H 1239.19 5.97847 0.519536 0
M  V30 12849 H 1240.26 4.83866 -0.316495 0
M  V30 12850 N 1241.6 -0.0451101 1.57535 0
M  V30 12851 C 1242.88 -0.773625 1.79651 0
M  V30 12852 C 1243.26 -1.94422 0.822391 0
M  V30 12853 O 1242.61 -2.28077 -0.138913 0
M  V30 12854 C 1242.82 -1.22168 3.26919 0
M  V30 12855 C 1244.17 -1.64419 3.91474 0
M  V30 12856 O 1245.19 -1.31668 3.30971 0
M  V30 12857 O 1244.05 -2.25148 4.97967 0
M  V30 12858 H 1241.14 -0.372786 0.738214 0
M  V30 12859 H 1243.69 -0.0231245 1.69684 0
M  V30 12860 H 1242.46 -0.385302 3.89398 0
M  V30 12861 H 1242.09 -2.03269 3.41713 0
M  V30 12862 N 1243.08 -1.54377 -0.317073 0
M  V30 12863 C 1244.33 -1.72105 -1.0518 0
M  V30 12864 C 1244.64 -0.505166 -1.88964 0
M  V30 12865 O 1245.85 -0.563912 -2.65579 0
M  V30 12866 C 1244.31 -3.04435 -1.91957 0
M  V30 12867 C 1243.91 -4.33449 -1.13253 0
M  V30 12868 C 1245.66 -3.31524 -2.65127 0
M  V30 12869 C 1243.57 -5.56837 -1.99214 0
M  V30 12870 H 1242.5 -0.641392 -0.396399 0
M  V30 12871 H 1245.15 -1.80868 -0.309673 0
M  V30 12872 H 1243.53 -2.89595 -2.70094 0
M  V30 12873 H 1244.7 -4.59074 -0.39842 0
M  V30 12874 H 1243.02 -4.13173 -0.517372 0
M  V30 12875 H 1245.61 -4.20906 -3.29761 0
M  V30 12876 H 1245.96 -2.49688 -3.33109 0
M  V30 12877 H 1246.49 -3.47261 -1.94048 0
M  V30 12878 H 1243.23 -6.41294 -1.35729 0
M  V30 12879 H 1242.75 -5.35421 -2.70341 0
M  V30 12880 H 1244.43 -5.93488 -2.57646 0
M  V30 12881 N 1244.56 0.579466 -1.4656 0
M  V30 12882 C 1245.84 1.33973 -1.42515 0
M  V30 12883 C 1246.22 2.10812 -0.110317 0
M  V30 12884 O 1245.57 2.09679 0.908135 0
M  V30 12885 C 1245.78 2.26301 -2.65686 0
M  V30 12886 C 1247.12 2.88027 -3.1197 0
M  V30 12887 O 1248.15 2.36612 -2.66257 0
M  V30 12888 O 1247.01 3.81423 -3.9138 0
M  V30 12889 H 1244.1 0.602121 -0.566903 0
M  V30 12890 H 1246.65 0.600214 -1.58731 0
M  V30 12891 H 1245.42 1.68973 -3.52936 0
M  V30 12892 H 1245.04 3.07586 -2.51945 0
M  V30 12893 N 1246.04 1.3432 0.824371 0
M  V30 12894 C 1246.99 1.2578 1.95658 0
M  V30 12895 C 1247.98 0.156199 1.68678 0
M  V30 12896 O 1249.19 0.321081 1.77113 0
M  V30 12897 H 1245.56 0.390711 0.642533 0
M  V30 12898 H 1247.53 2.21471 1.99983 0
M  V30 12899 C 1246.28 1.02865 3.32136 0
M  V30 12900 H 1245.6 1.86863 3.53443 0
M  V30 12901 H 1247.04 1.00925 4.11813 0
M  V30 12902 C 1245.5 -0.268097 3.35832 0
M  V30 12903 O 1246.03 -1.26995 3.81097 0
M  V30 12904 N 1244.24 -0.300702 2.8904 0
M  V30 12905 H 1243.79 0.51515 2.52396 0
M  V30 12906 H 1243.74 -1.16811 2.91895 0
M  V30 12907 N 1247.52 -1.0444 1.18026 0
M  V30 12908 C 1248.45 -2.11888 0.847277 0
M  V30 12909 C 1249.43 -1.61496 -0.189171 0
M  V30 12910 O 1250.61 -1.88374 -0.0689859 0
M  V30 12911 C 1247.74 -3.3766 0.26525 0
M  V30 12912 C 1246.78 -4.06893 1.27829 0
M  V30 12913 S 1247.62 -4.54445 2.83267 0
M  V30 12914 C 1248.77 -5.83454 2.26565 0
M  V30 12915 H 1249.01 -2.39806 1.75727 0
M  V30 12916 H 1246.54 -1.17152 1.00572 0
M  V30 12917 H 1248.5 -4.1045 -0.0640578 0
M  V30 12918 H 1247.16 -3.07864 -0.622806 0
M  V30 12919 H 1246.35 -4.97287 0.819849 0
M  V30 12920 H 1245.95 -3.40203 1.55364 0
M  V30 12921 H 1248.25 -6.57203 1.64591 0
M  V30 12922 H 1249.19 -6.34056 3.15244 0
M  V30 12923 H 1249.6 -5.3838 1.69728 0
M  V30 12924 N 1248.99 -0.981699 -1.2329 0
M  V30 12925 C 1249.96 -0.527992 -2.23036 0
M  V30 12926 C 1250.96 0.383083 -1.5617 0
M  V30 12927 O 1252.15 0.176595 -1.73303 0
M  V30 12928 C 1249.28 0.233501 -3.40099 0
M  V30 12929 H 1250.47 -1.40995 -2.64689 0
M  V30 12930 H 1248.03 -0.767724 -1.36146 0
M  V30 12931 H 1248.76 1.13194 -3.03904 0
M  V30 12932 H 1248.55 -0.420505 -3.89839 0
M  V30 12933 H 1250.04 0.539485 -4.14101 0
M  V30 12934 N 1250.47 1.3842 -0.753509 0
M  V30 12935 C 1251.72 1.99723 -0.309021 0
M  V30 12936 C 1252.04 1.60111 1.11308 0
M  V30 12937 O 1251.31 0.85792 1.76115 0
M  V30 12938 H 1249.89 0.738667 -0.111266 0
M  V30 12939 H 1252.55 1.69186 -0.967586 0
M  V30 12940 H 1251.65 3.09874 -0.372095 0
M  V30 12941 N 1251.95 0.502579 1.49372 0
M  V30 12942 C 1253.2 -0.0414423 2.02758 0
M  V30 12943 C 1253.53 -1.36499 1.38136 0
M  V30 12944 O 1252.8 -1.87487 0.517593 0
M  V30 12945 C 1253.09 -0.192333 3.59586 0
M  V30 12946 C 1252.94 1.15445 4.34733 0
M  V30 12947 C 1254.26 -0.932218 4.30114 0
M  V30 12948 H 1251.38 -0.0135869 0.736875 0
M  V30 12949 H 1254.02 0.654296 1.78379 0
M  V30 12950 H 1252.17 -0.78491 3.80488 0
M  V30 12951 H 1253.84 1.78603 4.25322 0
M  V30 12952 H 1252.09 1.74333 3.97228 0
M  V30 12953 H 1252.76 1.00216 5.42827 0
M  V30 12954 H 1255.23 -0.429632 4.13876 0
M  V30 12955 H 1254.11 -1.00664 5.39591 0
M  V30 12956 H 1254.37 -1.9763 3.95468 0
M  V30 12957 N 1253.43 -1.55816 0.23648 0
M  V30 12958 C 1254.68 -1.98686 -0.391146 0
M  V30 12959 C 1255 -1.12443 -1.58703 0
M  V30 12960 O 1254.26 -0.172805 -1.94936 0
M  V30 12961 C 1254.56 -3.47039 -0.85434 0
M  V30 12962 C 1254.22 -4.50299 0.232651 0
M  V30 12963 C 1252.89 -4.78259 0.531218 0
M  V30 12964 C 1255.24 -5.1215 0.967027 0
M  V30 12965 C 1252.57 -5.65347 1.56842 0
M  V30 12966 C 1254.92 -6.00363 1.99367 0
M  V30 12967 C 1253.58 -6.2666 2.299 0
M  V30 12968 H 1252.85 -0.727045 -0.14313 0
M  V30 12969 H 1255.5 -1.88419 0.342125 0
M  V30 12970 H 1253.8 -3.54585 -1.66663 0
M  V30 12971 H 1255.5 -3.7759 -1.35005 0
M  V30 12972 H 1252.09 -4.28599 -0.0102014 0
M  V30 12973 H 1256.27 -4.90606 0.749609 0
M  V30 12974 H 1251.53 -5.83981 1.81043 0
M  V30 12975 H 1255.7 -6.47335 2.56769 0
M  V30 12976 H 1253.33 -6.93938 3.1041 0
M  V30 12977 N 1254.91 0.036755 -1.57557 0
M  V30 12978 C 1256.14 0.740011 -1.92892 0
M  V30 12979 C 1256.54 1.69828 -0.833964 0
M  V30 12980 O 1255.89 1.82619 0.198974 0
M  V30 12981 C 1255.95 1.55827 -3.23972 0
M  V30 12982 C 1255.61 0.765613 -4.50541 0
M  V30 12983 C 1256.61 0.0692686 -5.19854 0
M  V30 12984 C 1254.3 0.722425 -4.97078 0
M  V30 12985 C 1256.29 -0.659649 -6.33977 0
M  V30 12986 C 1253.98 -0.0102431 -6.11099 0
M  V30 12987 C 1254.97 -0.700047 -6.79403 0
M  V30 12988 O 1254.66 -1.42084 -7.91244 0
M  V30 12989 H 1254.39 0.213496 -0.641401 0
M  V30 12990 H 1256.95 0.000665152 -2.054 0
M  V30 12991 H 1255.18 2.34125 -3.0777 0
M  V30 12992 H 1256.87 2.14343 -3.44691 0
M  V30 12993 H 1257.63 0.0937148 -4.84909 0
M  V30 12994 H 1253.51 1.24883 -4.43763 0
M  V30 12995 H 1257.06 -1.19861 -6.87226 0
M  V30 12996 H 1252.95 -0.0366395 -6.4549 0
M  V30 12997 H 1253.72 -1.33372 -8.07561 0
M  V30 12998 N 1256.39 1.54543 0.308881 0
M  V30 12999 C 1257.32 1.79818 1.40502 0
M  V30 13000 C 1258.3 0.648927 1.4909 0
M  V30 13001 O 1259.48 0.888009 1.66273 0
M  V30 13002 C 1256.61 1.92787 2.7848 0
M  V30 13003 C 1255.65 3.15167 2.87353 0
M  V30 13004 S 1256.49 4.73427 2.50255 0
M  V30 13005 C 1257.64 4.89321 3.90276 0
M  V30 13006 H 1257.88 2.7251 1.18852 0
M  V30 13007 H 1255.41 1.45854 0.506551 0
M  V30 13008 H 1257.37 2.00944 3.57955 0
M  V30 13009 H 1256.03 1.01047 2.97403 0
M  V30 13010 H 1255.22 3.2102 3.88538 0
M  V30 13011 H 1254.82 3.05416 2.15864 0
M  V30 13012 H 1257.11 4.7286 4.8519 0
M  V30 13013 H 1258.06 5.91418 3.89398 0
M  V30 13014 H 1258.47 4.17524 3.79913 0
M  V30 13015 N 1257.86 -0.571685 1.46866 0
M  V30 13016 C 1258.79 -1.68994 1.61131 0
M  V30 13017 C 1259.77 -1.63728 0.461222 0
M  V30 13018 O 1260.96 -1.81574 0.688813 0
M  V30 13019 C 1258.09 -3.07638 1.61172 0
M  V30 13020 C 1257.04 -3.27742 2.75262 0
M  V30 13021 C 1256.37 -4.67025 2.60368 0
M  V30 13022 C 1257.67 -3.14511 4.16989 0
M  V30 13023 H 1259.36 -1.57311 2.54742 0
M  V30 13024 H 1256.91 -0.755382 1.22597 0
M  V30 13025 H 1258.86 -3.857 1.69744 0
M  V30 13026 H 1257.59 -3.20245 0.641122 0
M  V30 13027 H 1256.25 -2.52083 2.66176 0
M  V30 13028 H 1255.89 -4.76413 1.61368 0
M  V30 13029 H 1255.59 -4.81428 3.36899 0
M  V30 13030 H 1257.12 -5.47242 2.70848 0
M  V30 13031 H 1258.53 -3.82407 4.27128 0
M  V30 13032 H 1256.93 -3.40431 4.94193 0
M  V30 13033 H 1258 -2.11443 4.36371 0
M  V30 13034 N 1259.34 -1.34755 -0.817236 0
M  V30 13035 C 1260.27 -1.29452 -1.94331 0
M  V30 13036 C 1261.25 -0.170902 -1.69239 0
M  V30 13037 O 1262.44 -0.364173 -1.90755 0
M  V30 13038 C 1259.57 -1.05497 -3.30889 0
M  V30 13039 C 1258.52 -2.14386 -3.70436 0
M  V30 13040 C 1257.85 -1.75612 -5.05039 0
M  V30 13041 C 1259.15 -3.56265 -3.81933 0
M  V30 13042 H 1260.84 -2.23672 -1.99025 0
M  V30 13043 H 1258.39 -1.07674 -0.956159 0
M  V30 13044 H 1260.34 -1.0043 -4.09257 0
M  V30 13045 H 1259.06 -0.0772059 -3.26509 0
M  V30 13046 H 1257.72 -2.18532 -2.94345 0
M  V30 13047 H 1257.37 -0.764809 -4.97152 0
M  V30 13048 H 1257.07 -2.48495 -5.3247 0
M  V30 13049 H 1258.6 -1.72051 -5.85859 0
M  V30 13050 H 1260.01 -3.545 -4.50558 0
M  V30 13051 H 1258.41 -4.27818 -4.20822 0
M  V30 13052 H 1259.48 -3.93192 -2.83775 0
M  V30 13053 N 1260.82 1.03812 -1.18578 0
M  V30 13054 C 1262.07 1.77319 -0.984173 0
M  V30 13055 C 1262.4 1.88052 0.484789 0
M  V30 13056 O 1261.67 1.3905 1.35998 0
M  V30 13057 C 1261.96 3.20448 -1.6427 0
M  V30 13058 C 1261.81 3.17643 -3.1847 0
M  V30 13059 C 1263.13 4.18623 -1.35805 0
M  V30 13060 H 1260.25 0.643681 -0.358949 0
M  V30 13061 H 1262.89 1.21249 -1.46283 0
M  V30 13062 H 1261.04 3.68324 -1.23572 0
M  V30 13063 H 1262.71 2.77738 -3.6832 0
M  V30 13064 H 1260.95 2.55606 -3.50497 0
M  V30 13065 H 1261.63 4.18724 -3.59686 0
M  V30 13066 H 1264.1 3.79306 -1.71073 0
M  V30 13067 H 1262.98 5.16982 -1.84446 0
M  V30 13068 H 1263.24 4.41203 -0.281418 0
M  V30 13069 N 1262.3 0.988223 1.22768 0
M  V30 13070 C 1263.26 0.539813 2.22752 0
M  V30 13071 C 1264.26 -0.374796 1.56371 0
M  V30 13072 O 1265.45 -0.167402 1.73394 0
M  V30 13073 C 1262.58 -0.215461 3.40218 0
M  V30 13074 H 1263.78 1.42397 2.63938 0
M  V30 13075 H 1261.33 0.774933 1.35737 0
M  V30 13076 H 1262.06 -1.11581 3.045 0
M  V30 13077 H 1261.85 0.441173 3.8961 0
M  V30 13078 H 1263.34 -0.517517 4.14381 0
M  V30 13079 N 1263.78 -1.38018 0.760839 0
M  V30 13080 C 1264.71 -2.28037 0.0862629 0
M  V30 13081 C 1265.69 -1.45757 -0.720679 0
M  V30 13082 O 1266.87 -1.7511 -0.697766 0
M  V30 13083 C 1264 -3.26949 -0.884437 0
M  V30 13084 C 1263.04 -4.26189 -0.162839 0
M  V30 13085 S 1263.88 -5.23193 1.14148 0
M  V30 13086 C 1265.03 -6.25658 0.174043 0
M  V30 13087 H 1265.27 -2.84902 0.849596 0
M  V30 13088 H 1262.8 -1.44129 0.55374 0
M  V30 13089 H 1264.76 -3.84447 -1.43913 0
M  V30 13090 H 1263.42 -2.69052 -1.6208 0
M  V30 13091 H 1262.61 -4.9593 -0.89829 0
M  V30 13092 H 1262.21 -3.72624 0.320537 0
M  V30 13093 H 1264.5 -6.74303 -0.657423 0
M  V30 13094 H 1265.45 -7.03108 0.839319 0
M  V30 13095 H 1265.86 -5.6411 -0.209887 0
M  V30 13096 N 1265.25 -0.510493 -1.49103 0
M  V30 13097 C 1266.5 0.0305831 -2.02077 0
M  V30 13098 C 1266.82 1.36602 -1.39157 0
M  V30 13099 O 1266.09 1.88016 -0.550154 0
M  V30 13100 H 1264.67 0.0142916 -0.746863 0
M  V30 13101 H 1267.33 -0.669895 -1.83026 0
M  V30 13102 H 1266.43 0.153283 -3.11723 0
M  V30 13103 N 1266.73 1.55688 -0.24474 0
M  V30 13104 C 1267.66 2.24272 0.64995 0
M  V30 13105 C 1268.64 1.22226 1.183 0
M  V30 13106 O 1269.83 1.50873 1.22274 0
M  V30 13107 C 1266.96 2.94053 1.84798 0
M  V30 13108 C 1265.91 4.02769 1.44779 0
M  V30 13109 C 1265.24 4.59965 2.72647 0
M  V30 13110 C 1266.54 5.18601 0.62047 0
M  V30 13111 H 1268.23 2.99298 0.0780654 0
M  V30 13112 H 1265.78 1.43955 0.0361069 0
M  V30 13113 H 1267.73 3.40732 2.47951 0
M  V30 13114 H 1266.45 2.16511 2.44521 0
M  V30 13115 H 1265.11 3.56856 0.839609 0
M  V30 13116 H 1264.76 3.79126 3.30564 0
M  V30 13117 H 1264.46 5.33352 2.46596 0
M  V30 13118 H 1265.99 5.09376 3.36703 0
M  V30 13119 H 1267.4 5.61519 1.15625 0
M  V30 13120 H 1265.8 5.98364 0.456097 0
M  V30 13121 H 1266.87 4.83503 -0.367798 0
M  V30 13122 N 1268.21 -0.0283989 1.57574 0
M  V30 13123 C 1269.43 -0.734537 1.93957 0
M  V30 13124 C 1269.86 -1.68062 0.844787 0
M  V30 13125 O 1269.22 -1.802 -0.199432 0
M  V30 13126 C 1269.27 -1.46716 3.29404 0
M  V30 13127 O 1268.37 -2.58036 3.217 0
M  V30 13128 H 1267.71 -0.197507 0.633946 0
M  V30 13129 H 1270.24 0.0163258 2.04593 0
M  V30 13130 H 1270.25 -1.83693 3.64309 0
M  V30 13131 H 1268.93 -0.773292 4.08648 0
M  V30 13132 H 1267.5 -2.23597 2.98427 0
M  V30 13133 N 1269.69 -1.54705 -0.300681 0
M  V30 13134 C 1270.62 -1.88679 -1.37559 0
M  V30 13135 C 1271.6 -0.74574 -1.52881 0
M  V30 13136 O 1272.78 -1.0015 -1.66384 0
M  V30 13137 C 1269.91 -2.13438 -2.73974 0
M  V30 13138 C 1268.87 -3.29284 -2.73415 0
M  V30 13139 C 1268.19 -3.39462 -4.13122 0
M  V30 13140 C 1269.49 -4.66382 -2.35128 0
M  V30 13141 H 1271.19 -2.78707 -1.09373 0
M  V30 13142 H 1268.73 -1.341 -0.524704 0
M  V30 13143 H 1270.69 -2.35791 -3.49257 0
M  V30 13144 H 1269.41 -1.20181 -3.03684 0
M  V30 13145 H 1268.07 -3.06855 -2.00588 0
M  V30 13146 H 1267.72 -2.43721 -4.4001 0
M  V30 13147 H 1267.42 -4.17334 -4.1365 0
M  V30 13148 H 1268.94 -3.64075 -4.90185 0
M  V30 13149 H 1270.36 -4.88463 -3.00128 0
M  V30 13150 H 1268.75 -5.4697 -2.46867 0
M  V30 13151 H 1269.82 -4.67078 -1.30256 0
M  V30 13152 N 1271.17 0.563888 -1.47167 0
M  V30 13153 C 1272.1 1.68137 -1.62025 0
M  V30 13154 C 1273.08 1.63481 -0.469899 0
M  V30 13155 O 1274.26 1.81206 -0.698432 0
M  V30 13156 C 1271.39 3.06779 -1.62801 0
M  V30 13157 C 1270.35 3.26278 -2.76996 0
M  V30 13158 C 1269.67 4.65638 -2.62841 0
M  V30 13159 C 1270.97 3.12295 -4.18651 0
M  V30 13160 H 1272.67 1.55958 -2.55573 0
M  V30 13161 H 1270.21 0.74887 -1.22996 0
M  V30 13162 H 1272.17 3.84795 -1.71787 0
M  V30 13163 H 1270.89 3.19901 -0.658097 0
M  V30 13164 H 1269.55 2.50668 -2.67509 0
M  V30 13165 H 1269.2 4.75551 -1.63892 0
M  V30 13166 H 1268.9 4.79635 -3.39447 0
M  V30 13167 H 1270.42 5.45798 -2.73746 0
M  V30 13168 H 1271.83 3.80136 -4.2915 0
M  V30 13169 H 1270.23 3.37805 -4.95992 0
M  V30 13170 H 1271.3 2.09126 -4.37486 0
M  V30 13171 N 1272.64 1.35187 0.810078 0
M  V30 13172 C 1273.89 1.28454 1.56931 0
M  V30 13173 C 1274.22 -0.141747 1.93682 0
M  V30 13174 O 1273.5 -1.09028 1.61069 0
M  V30 13175 C 1273.78 2.18771 2.86027 0
M  V30 13176 C 1273.63 3.69999 2.55774 0
M  V30 13177 C 1274.95 2.08265 3.87703 0
M  V30 13178 H 1272.07 0.467959 0.569371 0
M  V30 13179 H 1274.71 1.65556 0.932262 0
M  V30 13180 H 1272.86 1.8726 3.40391 0
M  V30 13181 H 1274.54 4.11936 2.07621 0
M  V30 13182 H 1272.78 3.90453 1.89021 0
M  V30 13183 H 1273.45 4.28577 3.47888 0
M  V30 13184 H 1275.93 2.35958 3.42729 0
M  V30 13185 H 1274.8 2.73663 4.75815 0
M  V30 13186 H 1275.06 1.06352 4.29117 0
M  V30 13187 N 1274.12 -1.03182 1.19127 0
M  V30 13188 C 1275.37 -1.76533 0.992093 0
M  V30 13189 C 1275.7 -1.88549 -0.477429 0
M  V30 13190 O 1274.95 -1.39675 -1.37074 0
M  V30 13191 C 1275.25 -3.19452 1.60267 0
M  V30 13192 C 1274.92 -3.27449 3.09981 0
M  V30 13193 C 1273.58 -3.29338 3.50841 0
M  V30 13194 C 1275.93 -3.26833 4.05992 0
M  V30 13195 C 1273.26 -3.28265 4.86271 0
M  V30 13196 C 1275.61 -3.27299 5.41348 0
M  V30 13197 C 1274.28 -3.27485 5.81644 0
M  V30 13198 H 1273.55 -0.645979 0.363033 0
M  V30 13199 H 1276.19 -1.21127 1.48326 0
M  V30 13200 H 1274.5 -3.77917 1.03372 0
M  V30 13201 H 1276.19 -3.74869 1.42388 0
M  V30 13202 H 1272.78 -3.26704 2.77421 0
M  V30 13203 H 1276.97 -3.24556 3.75469 0
M  V30 13204 H 1272.22 -3.26731 5.16775 0
M  V30 13205 H 1276.4 -3.25773 6.15504 0
M  V30 13206 H 1274.03 -3.26407 6.86558 0
M  V30 13207 N 1275.6 -0.99472 -1.22242 0
M  V30 13208 C 1276.56 -0.551619 -2.22463 0
M  V30 13209 C 1277.56 0.366498 -1.56568 0
M  V30 13210 O 1278.75 0.158204 -1.7348 0
M  V30 13211 C 1275.89 0.197416 -3.40328 0
M  V30 13212 H 1277.08 -1.43795 -2.63179 0
M  V30 13213 H 1274.63 -0.782121 -1.35324 0
M  V30 13214 H 1275.37 1.09965 -3.05087 0
M  V30 13215 H 1275.15 -0.461829 -3.89371 0
M  V30 13216 H 1276.64 0.495534 -4.1465 0
M  V30 13217 N 1277.08 1.37613 -0.768148 0
M  V30 13218 C 1278.32 2.00532 -0.340335 0
M  V30 13219 C 1278.68 1.59885 1.07026 0
M  V30 13220 O 1277.97 0.833239 1.72533 0
M  V30 13221 C 1278.17 3.54952 -0.417608 0
M  V30 13222 C 1278 4.10595 -1.83417 0
M  V30 13223 C 1276.77 4.41708 -2.45402 0
M  V30 13224 C 1278.96 4.31844 -2.79312 0
M  V30 13225 N 1276.95 4.83045 -3.78868 0
M  V30 13226 C 1278.32 4.75751 -3.97569 0
M  V30 13227 C 1280.37 4.13971 -2.76645 0
M  V30 13228 C 1279.07 5.03656 -5.13539 0
M  V30 13229 C 1281.1 4.4301 -3.91786 0
M  V30 13230 C 1280.46 4.87153 -5.08784 0
M  V30 13231 H 1276.56 0.762961 -0.171505 0
M  V30 13232 H 1279.15 1.66984 -1.00121 0
M  V30 13233 H 1277.32 3.87815 0.213071 0
M  V30 13234 H 1279.05 4.04687 0.0319154 0
M  V30 13235 H 1275.8 4.30661 -1.97048 0
M  V30 13236 H 1276.23 5.08028 -4.47478 0
M  V30 13237 H 1280.87 3.79017 -1.87365 0
M  V30 13238 H 1278.59 5.375 -6.03423 0
M  V30 13239 H 1282.17 4.30772 -3.91059 0
M  V30 13240 H 1281.05 5.09192 -5.964 0
M  V30 13241 N 1278.56 0.518393 1.4883 0
M  V30 13242 C 1279.47 -0.254811 2.33212 0
M  V30 13243 C 1280.48 -0.950401 1.45751 0
M  V30 13244 O 1281.66 -0.927932 1.78749 0
M  V30 13245 C 1278.72 -1.29509 3.21603 0
M  V30 13246 C 1277.78 -0.611086 4.24928 0
M  V30 13247 C 1277.02 -1.6018 5.09095 0
M  V30 13248 O 1277.24 -2.83336 4.95052 0
M  V30 13249 O 1276.17 -1.14756 5.90859 0
M  V30 13250 H 1280 0.436329 3.00549 0
M  V30 13251 H 1277.59 0.27947 1.46763 0
M  V30 13252 H 1279.47 -1.89654 3.7631 0
M  V30 13253 H 1278.14 -1.96884 2.5694 0
M  V30 13254 H 1277.05 0.0305638 3.74088 0
M  V30 13255 H 1278.38 0.0205249 4.92196 0
M  V30 13256 N 1280.03 -1.55556 0.252993 0
M  V30 13257 C 1280.98 -2.18298 -0.658028 0
M  V30 13258 C 1281.97 -1.14072 -1.13474 0
M  V30 13259 O 1283.16 -1.39962 -1.0835 0
M  V30 13260 C 1280.29 -2.89067 -1.8519 0
M  V30 13261 C 1279.38 -4.00556 -1.3934 0
M  V30 13262 N 1279.77 -5.01612 -0.649538 0
M  V30 13263 C 1278.06 -4.13222 -1.67819 0
M  V30 13264 C 1278.77 -5.80244 -0.411347 0
M  V30 13265 N 1277.74 -5.34742 -0.977342 0
M  V30 13266 H 1281.54 -2.93787 -0.0816162 0
M  V30 13267 H 1279.06 -1.62305 0.0555728 0
M  V30 13268 H 1281.05 -3.32448 -2.51563 0
M  V30 13269 H 1279.71 -2.15082 -2.43248 0
M  V30 13270 H 1280.73 -5.17036 -0.299043 0
M  V30 13271 H 1277.4 -3.50414 -2.26972 0
M  V30 13272 H 1278.79 -6.71651 0.182911 0
M  V30 13273 N 1281.51 0.0200419 -1.57587 0
M  V30 13274 C 1282.44 1.01715 -2.10181 0
M  V30 13275 C 1283.42 1.37136 -1.00636 0
M  V30 13276 O 1284.61 1.45862 -1.2821 0
M  V30 13277 C 1281.74 2.31531 -2.58865 0
M  V30 13278 C 1280.69 2.10327 -3.72755 0
M  V30 13279 C 1280.02 3.45981 -4.07678 0
M  V30 13280 C 1281.32 1.4821 -5.0083 0
M  V30 13281 H 1283.01 0.579307 -2.93742 0
M  V30 13282 H 1280.56 0.277211 -1.41307 0
M  V30 13283 H 1282.51 3.01623 -2.94281 0
M  V30 13284 H 1281.24 2.77392 -1.72399 0
M  V30 13285 H 1279.89 1.42665 -3.37701 0
M  V30 13286 H 1279.54 3.89508 -3.18265 0
M  V30 13287 H 1279.24 3.32616 -4.84397 0
M  V30 13288 H 1280.77 4.17421 -4.45637 0
M  V30 13289 H 1282.18 2.08232 -5.34146 0
M  V30 13290 H 1280.58 1.45393 -5.82221 0
M  V30 13291 H 1281.65 0.448942 -4.82817 0
M  V30 13292 N 1282.99 1.54862 0.292472 0
M  V30 13293 C 1284.24 1.74807 1.02813 0
M  V30 13294 C 1284.57 0.536935 1.8663 0
M  V30 13295 O 1283.84 -0.465854 1.88839 0
M  V30 13296 C 1284.13 3.04202 1.927 0
M  V30 13297 C 1283.98 4.35631 1.12006 0
M  V30 13298 C 1285.3 3.29514 2.91734 0
M  V30 13299 H 1282.42 0.636015 0.372362 0
M  V30 13300 H 1285.06 1.87583 0.302069 0
M  V30 13301 H 1283.21 2.9344 2.54608 0
M  V30 13302 H 1284.88 4.58323 0.52319 0
M  V30 13303 H 1283.13 4.31733 0.42298 0
M  V30 13304 H 1283.8 5.22454 1.78172 0
M  V30 13305 H 1286.27 3.39941 2.39957 0
M  V30 13306 H 1285.15 4.21352 3.51786 0
M  V30 13307 H 1285.41 2.48216 3.65843 0
M  V30 13308 N 1284.47 -0.556076 1.47464 0
M  V30 13309 C 1285.7 -1.33664 1.57536 0
M  V30 13310 C 1286.11 -1.87858 0.224977 0
M  V30 13311 O 1285.45 -1.65746 -0.792091 0
M  V30 13312 C 1285.51 -2.54257 2.54152 0
M  V30 13313 C 1285.18 -2.21342 3.99821 0
M  V30 13314 C 1286.17 -1.78568 4.88272 0
M  V30 13315 C 1283.86 -2.32666 4.45165 0
M  V30 13316 C 1285.85 -1.47549 6.20087 0
M  V30 13317 C 1283.54 -2.0126 5.77008 0
M  V30 13318 C 1284.54 -1.58769 6.6429 0
M  V30 13319 O 1284.22 -1.27762 7.93683 0
M  V30 13320 H 1283.96 -0.413721 0.534613 0
M  V30 13321 H 1286.51 -0.680342 1.93805 0
M  V30 13322 H 1284.74 -3.22782 2.12952 0
M  V30 13323 H 1286.43 -3.16332 2.5434 0
M  V30 13324 H 1287.2 -1.69311 4.54487 0
M  V30 13325 H 1283.07 -2.64698 3.77433 0
M  V30 13326 H 1286.62 -1.1431 6.88171 0
M  V30 13327 H 1282.52 -2.10149 6.10334 0
M  V30 13328 H 1283.28 -1.41383 8.06197 0
M  V30 13329 N 1285.95 -1.35615 -0.802897 0
M  V30 13330 C 1287.19 -1.30293 -1.5619 0
M  V30 13331 C 1287.55 0.120656 -1.92021 0
M  V30 13332 O 1286.84 1.07195 -1.58807 0
M  V30 13333 C 1287.04 -2.14653 -2.8576 0
M  V30 13334 C 1286.86 -3.65072 -2.62589 0
M  V30 13335 C 1285.63 -4.34294 -2.58295 0
M  V30 13336 C 1287.83 -4.58639 -2.32712 0
M  V30 13337 N 1285.81 -5.70437 -2.2688 0
M  V30 13338 C 1287.19 -5.82931 -2.11168 0
M  V30 13339 C 1289.24 -4.47343 -2.18606 0
M  V30 13340 C 1287.94 -6.97196 -1.76946 0
M  V30 13341 C 1289.97 -5.61462 -1.85781 0
M  V30 13342 C 1289.33 -6.84784 -1.65075 0
M  V30 13343 H 1285.43 -0.532038 -0.573114 0
M  V30 13344 H 1288.01 -1.70533 -0.939498 0
M  V30 13345 H 1286.19 -1.76679 -3.45889 0
M  V30 13346 H 1287.92 -2.00823 -3.51358 0
M  V30 13347 H 1284.67 -3.86947 -2.73073 0
M  V30 13348 H 1285.1 -6.42302 -2.13956 0
M  V30 13349 H 1289.74 -3.52599 -2.33311 0
M  V30 13350 H 1287.46 -7.91904 -1.60979 0
M  V30 13351 H 1291.04 -5.54677 -1.7557 0
M  V30 13352 H 1289.92 -7.71594 -1.40046 0
M  V30 13353 N 1287.43 1.02549 -1.19673 0
M  V30 13354 C 1288.84 1.28271 -0.94967 0
M  V30 13355 C 1289.04 1.97961 0.37599 0
M  V30 13356 O 1288.1 2.26955 1.10668 0
M  V30 13357 C 1289.41 2.12647 -2.12607 0
M  V30 13358 C 1290.96 2.25943 -2.16607 0
M  V30 13359 C 1291.43 3.13693 -3.33708 0
M  V30 13360 N 1292.92 3.21281 -3.33665 0
M  V30 13361 C 1293.66 3.89377 -4.20919 0
M  V30 13362 N 1293.16 4.59675 -5.18334 0
M  V30 13363 N 1294.95 3.85811 -4.08786 0
M  V30 13364 H 1287.1 0.557304 -2.04958 0
M  V30 13365 H 1289.36 0.308531 -0.896389 0
M  V30 13366 H 1289.07 1.68766 -3.08563 0
M  V30 13367 H 1288.94 3.13367 -2.09955 0
M  V30 13368 H 1291.33 2.69053 -1.2122 0
M  V30 13369 H 1291.41 1.24762 -2.23311 0
M  V30 13370 H 1291.05 2.7129 -4.29376 0
M  V30 13371 H 1290.98 4.14941 -3.2424 0
M  V30 13372 H 1293.48 2.71218 -2.63152 0
M  V30 13373 H 1293.79 5.09277 -5.81254 0
M  V30 13374 H 1292.13 4.58529 -5.22279 0
M  V30 13375 H 1295.32 3.30033 -3.31957 0
M  V30 13376 H 1295.5 4.38607 -4.76999 0
M  V30 13377 N 1288.9 1.00119 1.21713 0
M  V30 13378 C 1289.83 0.578504 2.2622 0
M  V30 13379 C 1290.81 -0.398777 1.6536 0
M  V30 13380 O 1292 -0.287596 1.92059 0
M  V30 13381 C 1289.13 -0.0994508 3.47158 0
M  V30 13382 C 1288.08 0.79722 4.2051 0
M  V30 13383 C 1287.41 -0.0141125 5.34698 0
M  V30 13384 C 1288.71 2.09802 4.7831 0
M  V30 13385 H 1290.4 1.45208 2.6183 0
M  V30 13386 H 1287.95 0.699656 1.2586 0
M  V30 13387 H 1289.9 -0.406605 4.19434 0
M  V30 13388 H 1288.63 -1.00763 3.10667 0
M  V30 13389 H 1287.29 1.08814 3.50079 0
M  V30 13390 H 1286.93 -0.923468 4.9445 0
M  V30 13391 H 1286.63 0.582883 5.84702 0
M  V30 13392 H 1288.16 -0.31517 6.09786 0
M  V30 13393 H 1289.57 1.85427 5.42485 0
M  V30 13394 H 1287.97 2.64455 5.38687 0
M  V30 13395 H 1289.04 2.77132 3.97902 0
M  V30 13396 N 1290.38 -1.37203 0.775435 0
M  V30 13397 C 1291.8 -1.52962 0.455488 0
M  V30 13398 C 1292 -1.73284 -1.02834 0
M  V30 13399 O 1291.05 -1.75631 -1.81411 0
M  V30 13400 C 1292.37 -2.72389 1.27377 0
M  V30 13401 C 1293.91 -2.86252 1.26604 0
M  V30 13402 C 1294.39 -4.08666 2.06775 0
M  V30 13403 N 1295.88 -4.15786 2.04148 0
M  V30 13404 C 1296.62 -5.09548 2.6296 0
M  V30 13405 N 1296.11 -6.08845 3.30574 0
M  V30 13406 N 1297.9 -5.02059 2.5277 0
M  V30 13407 H 1290.06 -1.22265 1.73681 0
M  V30 13408 H 1292.32 -0.595638 0.737509 0
M  V30 13409 H 1292.02 -2.63849 2.32544 0
M  V30 13410 H 1291.9 -3.66171 0.905467 0
M  V30 13411 H 1294.29 -2.94261 0.222345 0
M  V30 13412 H 1294.37 -1.93418 1.67401 0
M  V30 13413 H 1294.01 -4.01419 3.11168 0
M  V30 13414 H 1293.94 -5.00621 1.63358 0
M  V30 13415 H 1296.43 -3.44683 1.54926 0
M  V30 13416 H 1296.74 -6.76926 3.72815 0
M  V30 13417 H 1295.09 -6.09113 3.34674 0
M  V30 13418 H 1298.28 -4.23431 1.99559 0
M  V30 13419 H 1298.45 -5.74947 2.98898 0
M  V30 13420 N 1291.86 -0.526279 -1.48553 0
M  V30 13421 C 1292.81 0.258285 -2.26532 0
M  V30 13422 C 1293.79 0.913187 -1.32475 0
M  V30 13423 O 1294.99 0.816606 -1.57037 0
M  V30 13424 C 1292.11 1.30686 -3.17452 0
M  V30 13425 C 1291.2 0.656933 -4.18981 0
M  V30 13426 N 1291.59 -0.255186 -5.05156 0
M  V30 13427 C 1289.89 0.914575 -4.36522 0
M  V30 13428 C 1290.59 -0.629753 -5.78281 0
M  V30 13429 N 1289.57 0.00829904 -5.43599 0
M  V30 13430 H 1293.37 -0.44348 -2.90535 0
M  V30 13431 H 1290.88 -0.344054 -1.58714 0
M  V30 13432 H 1292.88 1.8826 -3.71973 0
M  V30 13433 H 1291.54 2.01004 -2.55005 0
M  V30 13434 H 1292.55 -0.627564 -5.14084 0
M  V30 13435 H 1289.23 1.6086 -3.85266 0
M  V30 13436 H 1290.62 -1.37746 -6.57629 0
M  V30 13437 N 1293.34 1.5542 -0.261239 0
M  V30 13438 C 1294.58 2.0119 0.360848 0
M  V30 13439 C 1294.94 1.14558 1.5408 0
M  V30 13440 O 1296.14 1.49846 2.23158 0
M  V30 13441 C 1294.41 3.49513 0.74668 0
M  V30 13442 S 1295.97 4.17281 1.35726 0
M  V30 13443 H 1292.79 0.701978 0.112903 0
M  V30 13444 H 1295.39 1.91775 -0.379829 0
M  V30 13445 H 1294.1 4.10221 -0.121172 0
M  V30 13446 H 1293.63 3.62884 1.51917 0
M  V30 13447 H 1295.64 4.19756 2.64612 0
M  V30 13448 N 1294.82 -0.0116844 1.57596 0
M  V30 13449 C 1295.75 -1.00599 2.10718 0
M  V30 13450 C 1296.73 -1.36601 1.01362 0
M  V30 13451 O 1297.91 -1.4518 1.28982 0
M  V30 13452 C 1295.04 -2.30155 2.60089 0
M  V30 13453 C 1294 -2.08347 3.73866 0
M  V30 13454 C 1293.32 -3.43814 4.09507 0
M  V30 13455 C 1294.62 -1.45552 5.01609 0
M  V30 13456 H 1296.32 -0.563721 2.94045 0
M  V30 13457 H 1293.86 -0.269714 1.41452 0
M  V30 13458 H 1295.81 -3.00058 2.95877 0
M  V30 13459 H 1294.54 -2.76473 1.73868 0
M  V30 13460 H 1293.2 -1.40872 3.38453 0
M  V30 13461 H 1292.85 -3.87814 3.20326 0
M  V30 13462 H 1292.55 -3.30043 4.86154 0
M  V30 13463 H 1294.07 -4.15052 4.47844 0
M  V30 13464 H 1295.48 -2.05396 5.35243 0
M  V30 13465 H 1293.88 -1.42304 5.82983 0
M  V30 13466 H 1294.95 -0.423331 4.83049 0
M  V30 13467 N 1296.29 -1.55015 -0.284256 0
M  V30 13468 C 1297.54 -1.74744 -1.01532 0
M  V30 13469 C 1297.86 -0.545334 -1.87219 0
M  V30 13470 O 1297.13 0.440046 -1.90894 0
M  V30 13471 H 1295.71 -0.644382 -0.377864 0
M  V30 13472 H 1298.37 -1.92399 -0.311199 0
M  V30 13473 H 1297.47 -2.64369 -1.65878 0
M  V30 13474 N 1297.77 0.548248 -1.47757 0
M  V30 13475 C 1299.18 1.13033 -1.48595 0
M  V30 13476 C 1299.53 1.94657 -0.245575 0
M  V30 13477 O 1298.66 2.06445 0.648813 0
M  V30 13478 C 1299.25 2.05657 -2.69241 0
M  V30 13479 C 1297.81 2.59119 -2.73009 0
M  V30 13480 C 1296.96 1.35686 -2.41836 0
M  V30 13481 H 1299.91 0.334397 -1.55137 0
M  V30 13482 H 1299.93 2.89671 -2.4672 0
M  V30 13483 H 1299.44 1.46222 -3.595 0
M  V30 13484 H 1297.54 3.22327 -1.86912 0
M  V30 13485 H 1297.66 2.99501 -3.73946 0
M  V30 13486 H 1296.02 1.66659 -1.92606 0
M  V30 13487 H 1296.8 0.780311 -3.34314 0
M  V30 13488 N 1299.25 1.36039 0.795694 0
M  V30 13489 C 1300.48 1.33059 1.58439 0
M  V30 13490 C 1300.89 -0.0895496 1.88588 0
M  V30 13491 O 1300.25 -1.04466 1.49643 0
M  V30 13492 C 1300.3 2.14594 2.90915 0
M  V30 13493 O 1300.02 3.51072 2.62069 0
M  V30 13494 C 1301.52 2.19324 3.85242 0
M  V30 13495 H 1298.74 0.456668 0.491625 0
M  V30 13496 H 1301.29 1.79048 0.988035 0
M  V30 13497 H 1299.44 1.72177 3.47036 0
M  V30 13498 H 1299.86 3.93545 3.46732 0
M  V30 13499 H 1301.33 2.80744 4.75276 0
M  V30 13500 H 1301.81 1.19496 4.22631 0
M  V30 13501 H 1302.41 2.6195 3.35056 0
M  V30 13502 N 1300.73 -1.01913 1.20215 0
M  V30 13503 C 1301.68 -2.08774 0.916367 0
M  V30 13504 C 1302.66 -1.60431 -0.122796 0
M  V30 13505 O 1303.85 -1.76799 0.0842336 0
M  V30 13506 C 1300.98 -3.40102 0.467517 0
M  V30 13507 C 1300.07 -3.95153 1.53997 0
M  V30 13508 N 1300.46 -4.23745 2.76178 0
M  V30 13509 C 1298.76 -4.23274 1.40554 0
M  V30 13510 C 1299.46 -4.681 3.45336 0
M  V30 13511 N 1298.44 -4.70224 2.72745 0
M  V30 13512 H 1302.24 -2.28786 1.84484 0
M  V30 13513 H 1299.75 -1.19861 1.09577 0
M  V30 13514 H 1301.75 -4.16184 0.244195 0
M  V30 13515 H 1300.41 -3.21505 -0.454358 0
M  V30 13516 H 1301.42 -4.12728 3.12852 0
M  V30 13517 H 1298.1 -4.1389 0.547877 0
M  V30 13518 H 1299.49 -4.99063 4.49873 0
M  V30 13519 N 1302.21 -1.00763 -1.2118 0
M  V30 13520 C 1303.62 -0.720905 -1.42391 0
M  V30 13521 C 1303.82 0.702918 -1.88842 0
M  V30 13522 O 1302.88 1.47191 -2.05161 0
M  V30 13523 C 1304.19 -1.739 -2.45315 0
M  V30 13524 C 1305.74 -1.75611 -2.59094 0
M  V30 13525 C 1306.21 -2.76323 -3.65253 0
M  V30 13526 N 1307.71 -2.75007 -3.72727 0
M  V30 13527 C 1308.44 -3.49594 -4.54502 0
M  V30 13528 N 1307.94 -4.33828 -5.40153 0
M  V30 13529 N 1309.73 -3.38232 -4.4895 0
M  V30 13530 H 1301.88 -1.92697 -0.893404 0
M  V30 13531 H 1304.14 -0.831888 -0.454606 0
M  V30 13532 H 1303.85 -2.75859 -2.18162 0
M  V30 13533 H 1303.72 -1.5438 -3.44161 0
M  V30 13534 H 1306.11 -0.743416 -2.85582 0
M  V30 13535 H 1306.19 -1.99203 -1.60474 0
M  V30 13536 H 1305.84 -3.77751 -3.39509 0
M  V30 13537 H 1305.77 -2.49996 -4.63476 0
M  V30 13538 H 1308.26 -2.13897 -3.11539 0
M  V30 13539 H 1308.57 -4.8753 -5.99612 0
M  V30 13540 H 1306.91 -4.3791 -5.39685 0
M  V30 13541 H 1310.11 -2.71855 -3.81068 0
M  V30 13542 H 1310.28 -3.96615 -5.12445 0
M  V30 13543 N 1303.68 1.3679 -0.7827 0
M  V30 13544 C 1304.62 2.27871 -0.122531 0
M  V30 13545 C 1305.6 1.46885 0.697399 0
M  V30 13546 O 1306.78 1.76198 0.669819 0
M  V30 13547 C 1303.91 3.28314 0.832311 0
M  V30 13548 C 1302.95 4.26394 0.0950152 0
M  V30 13549 S 1303.79 5.2131 -1.22457 0
M  V30 13550 C 1304.94 6.25302 -0.273558 0
M  V30 13551 H 1305.17 2.83514 -0.894814 0
M  V30 13552 H 1302.71 1.43229 -0.5766 0
M  V30 13553 H 1304.67 3.86688 1.37778 0
M  V30 13554 H 1303.33 2.71597 1.57779 0
M  V30 13555 H 1302.52 4.97297 0.819278 0
M  V30 13556 H 1302.12 3.72067 -0.379778 0
M  V30 13557 H 1304.41 6.75263 0.550064 0
M  V30 13558 H 1305.36 7.01684 -0.951071 0
M  V30 13559 H 1305.76 5.64372 0.120115 0
M  V30 13560 N 1305.16 0.53415 1.48272 0
M  V30 13561 C 1306.44 -0.0630181 1.95498 0
M  V30 13562 C 1306.82 -1.50877 1.47646 0
M  V30 13563 O 1306.17 -2.17358 0.704829 0
M  V30 13564 C 1306.38 0.0585475 3.48951 0
M  V30 13565 C 1307.73 -0.0985978 4.24486 0
M  V30 13566 O 1308.75 -0.0150438 3.56197 0
M  V30 13567 O 1307.61 -0.274356 5.45811 0
M  V30 13568 H 1304.7 -0.0769841 0.823409 0
M  V30 13569 H 1307.25 0.599043 1.58775 0
M  V30 13570 H 1306.02 1.06549 3.76514 0
M  V30 13571 H 1305.64 -0.642175 3.9238 0
M  V30 13572 N 1306.64 -1.55279 0.269478 0
M  V30 13573 C 1307.89 -1.99471 -0.348913 0
M  V30 13574 C 1308.22 -1.15784 -1.56283 0
M  V30 13575 O 1307.47 -0.214115 -1.94525 0
M  V30 13576 C 1307.77 -3.48773 -0.780535 0
M  V30 13577 C 1307.44 -4.49705 0.328113 0
M  V30 13578 C 1306.1 -4.77024 0.632544 0
M  V30 13579 C 1308.45 -5.09984 1.07544 0
M  V30 13580 C 1305.78 -5.61893 1.68798 0
M  V30 13581 C 1308.13 -5.95999 2.12057 0
M  V30 13582 C 1306.79 -6.21642 2.4314 0
M  V30 13583 H 1306.06 -0.729918 -0.127676 0
M  V30 13584 H 1308.71 -1.87651 0.382015 0
M  V30 13585 H 1307.02 -3.5804 -1.59105 0
M  V30 13586 H 1308.71 -3.80369 -1.26966 0
M  V30 13587 H 1305.3 -4.28524 0.0807131 0
M  V30 13588 H 1309.49 -4.88906 0.853506 0
M  V30 13589 H 1304.74 -5.80009 1.93389 0
M  V30 13590 H 1308.92 -6.41743 2.70442 0
M  V30 13591 H 1306.54 -6.87198 3.25059 0
M  V30 13592 N 1308.12 0.00332656 -1.576 0
M  V30 13593 C 1309.05 0.994803 -2.11248 0
M  V30 13594 C 1310.03 1.36061 -1.02085 0
M  V30 13595 O 1311.21 1.44494 -1.2975 0
M  V30 13596 C 1308.34 2.28772 -2.61306 0
M  V30 13597 C 1307.3 2.06362 -3.74965 0
M  V30 13598 C 1306.62 3.41638 -4.11324 0
M  V30 13599 C 1307.92 1.4289 -5.02374 0
M  V30 13600 H 1309.62 0.548119 -2.9434 0
M  V30 13601 H 1307.16 0.262208 -1.41593 0
M  V30 13602 H 1309.12 2.98485 -2.97464 0
M  V30 13603 H 1307.84 2.75547 -1.75332 0
M  V30 13604 H 1306.5 1.39076 -3.39195 0
M  V30 13605 H 1306.15 3.8611 -3.22379 0
M  V30 13606 H 1305.85 3.2746 -4.87897 0
M  V30 13607 H 1307.37 4.12671 -4.50039 0
M  V30 13608 H 1308.79 2.02555 -5.36325 0
M  V30 13609 H 1307.18 1.3921 -5.8373 0
M  V30 13610 H 1308.25 0.397708 -4.83266 0
M  V30 13611 N 1309.6 1.55164 0.276031 0
M  V30 13612 C 1310.53 1.90844 1.34539 0
M  V30 13613 C 1311.51 0.769968 1.51676 0
M  V30 13614 O 1312.69 1.02785 1.64769 0
M  V30 13615 C 1309.82 2.17769 2.70543 0
M  V30 13616 C 1308.78 3.33592 2.68142 0
M  V30 13617 C 1308.1 3.45991 4.07669 0
M  V30 13618 C 1309.4 4.70064 2.27678 0
M  V30 13619 H 1311.1 2.80412 1.04926 0
M  V30 13620 H 1308.64 1.34918 0.503303 0
M  V30 13621 H 1310.6 2.41317 3.45462 0
M  V30 13622 H 1309.32 1.24997 3.01734 0
M  V30 13623 H 1307.98 3.10007 1.95681 0
M  V30 13624 H 1307.63 2.50691 4.36077 0
M  V30 13625 H 1307.33 4.23862 4.06958 0
M  V30 13626 H 1308.85 3.71828 4.84331 0
M  V30 13627 H 1310.26 4.93176 2.92319 0
M  V30 13628 H 1308.66 5.50829 2.38134 0
M  V30 13629 H 1309.73 4.69091 1.22808 0
M  V30 13630 N 1311.07 -0.540404 1.48045 0
M  V30 13631 C 1312.04 -1.62813 1.61322 0
M  V30 13632 C 1313.04 -1.53243 0.487161 0
M  V30 13633 O 1314.23 -1.571 0.752684 0
M  V30 13634 C 1311.36 -3.02408 1.5736 0
M  V30 13635 H 1312.55 -1.52385 2.583 0
M  V30 13636 H 1310.11 -0.761654 1.36486 0
M  V30 13637 H 1310.84 -3.18353 0.618195 0
M  V30 13638 H 1310.63 -3.10763 2.39099 0
M  V30 13639 H 1312.12 -3.8151 1.69822 0
M  V30 13640 N 1312.55 -1.36459 -0.788468 0
M  V30 13641 C 1313.8 -1.30741 -1.54638 0
M  V30 13642 C 1314.13 0.113029 -1.94171 0
M  V30 13643 O 1313.38 1.08252 -1.63034 0
M  V30 13644 C 1313.68 -2.17672 -2.83467 0
M  V30 13645 C 1313.35 -3.66205 -2.63067 0
M  V30 13646 C 1312.01 -4.06688 -2.57212 0
M  V30 13647 C 1314.36 -4.60376 -2.44343 0
M  V30 13648 C 1311.69 -5.39482 -2.306 0
M  V30 13649 C 1314.04 -5.93388 -2.19258 0
M  V30 13650 C 1312.71 -6.32994 -2.11836 0
M  V30 13651 H 1311.98 -0.478416 -0.565862 0
M  V30 13652 H 1314.62 -1.68519 -0.909588 0
M  V30 13653 H 1312.93 -1.72834 -3.51619 0
M  V30 13654 H 1314.62 -2.10573 -3.41263 0
M  V30 13655 H 1311.21 -3.3409 -2.6848 0
M  V30 13656 H 1315.4 -4.29971 -2.47868 0
M  V30 13657 H 1310.65 -5.69149 -2.23337 0
M  V30 13658 H 1314.83 -6.65923 -2.03765 0
M  V30 13659 H 1312.46 -7.3582 -1.90978 0
M  V30 13660 N 1314.03 1.01274 -1.20754 0
M  V30 13661 C 1315.26 1.7906 -1.04653 0
M  V30 13662 C 1315.68 1.83806 0.399632 0
M  V30 13663 O 1315.04 1.27596 1.28798 0
M  V30 13664 C 1315.09 3.21187 -1.63925 0
M  V30 13665 O 1314.19 4.02913 -0.879486 0
M  V30 13666 H 1313.53 0.552147 -0.368823 0
M  V30 13667 H 1316.06 1.27356 -1.6013 0
M  V30 13668 H 1316.07 3.71887 -1.67822 0
M  V30 13669 H 1314.75 3.17048 -2.69172 0
M  V30 13670 H 1313.32 3.61499 -0.915019 0
M  V30 13671 N 1315.51 1.01404 1.20644 0
M  V30 13672 C 1316.93 0.728446 1.42006 0
M  V30 13673 C 1317.13 -0.692894 1.89212 0
M  V30 13674 O 1316.18 -1.46101 2.05939 0
M  V30 13675 C 1317.49 1.75198 2.44389 0
M  V30 13676 C 1319.04 1.76983 2.58159 0
M  V30 13677 C 1319.52 2.78256 3.63782 0
M  V30 13678 N 1321.01 2.7698 3.71263 0
M  V30 13679 C 1321.74 3.51999 4.52641 0
M  V30 13680 N 1321.24 4.36687 5.37844 0
M  V30 13681 N 1323.03 3.40608 4.47149 0
M  V30 13682 H 1315.18 1.93168 0.883172 0
M  V30 13683 H 1317.45 0.834287 0.450187 0
M  V30 13684 H 1317.15 2.77013 2.16695 0
M  V30 13685 H 1317.03 1.56203 3.43337 0
M  V30 13686 H 1319.41 0.758551 2.85184 0
M  V30 13687 H 1319.49 2.00051 1.59415 0
M  V30 13688 H 1319.14 3.79546 3.37501 0
M  V30 13689 H 1319.07 2.5245 4.62143 0
M  V30 13690 H 1321.56 2.15546 3.104 0
M  V30 13691 H 1321.87 4.90703 5.97018 0
M  V30 13692 H 1320.22 4.40766 5.37355 0
M  V30 13693 H 1323.41 2.73872 3.79621 0
M  V30 13694 H 1323.58 3.99327 5.10335 0
M  V30 13695 N 1316.99 -1.36373 0.789944 0
M  V30 13696 C 1318.24 -1.98834 0.361866 0
M  V30 13697 C 1318.56 -1.63006 -1.07024 0
M  V30 13698 O 1317.83 -0.904312 -1.73779 0
M  V30 13699 H 1316.41 -0.735457 0.130812 0
M  V30 13700 H 1319.07 -1.66561 1.0121 0
M  V30 13701 H 1318.16 -3.08778 0.454122 0
M  V30 13702 N 1318.47 -0.542005 -1.47987 0
M  V30 13703 C 1319.4 0.261671 -2.26695 0
M  V30 13704 C 1320.38 0.93404 -1.33096 0
M  V30 13705 O 1321.56 0.956051 -1.62456 0
M  V30 13706 C 1318.69 1.37155 -3.09687 0
M  V30 13707 C 1317.73 0.809337 -4.18751 0
M  V30 13708 S 1318.57 -0.332224 -5.34468 0
M  V30 13709 C 1319.72 0.779843 -6.21023 0
M  V30 13710 H 1319.96 -0.406263 -2.94511 0
M  V30 13711 H 1317.49 -0.32802 -1.50875 0
M  V30 13712 H 1319.45 2.00726 -3.58077 0
M  V30 13713 H 1318.11 2.01126 -2.41262 0
M  V30 13714 H 1317.3 1.64233 -4.76491 0
M  V30 13715 H 1316.9 0.250095 -3.73163 0
M  V30 13716 H 1319.19 1.67564 -6.56452 0
M  V30 13717 H 1320.14 0.240142 -7.07693 0
M  V30 13718 H 1320.55 1.06567 -5.5435 0
M  V30 13719 N 1319.94 1.55134 -0.277709 0
M  V30 13720 C 1321.17 2.03765 0.341106 0
M  V30 13721 C 1321.58 1.15543 1.49822 0
M  V30 13722 O 1320.92 0.168642 1.82924 0
M  V30 13723 C 1320.99 3.48513 0.881974 0
M  V30 13724 C 1320.65 4.56764 -0.146837 0
M  V30 13725 C 1321.65 5.10823 -0.967252 0
M  V30 13726 C 1319.33 5.01509 -0.281824 0
M  V30 13727 C 1321.33 6.08147 -1.90882 0
M  V30 13728 C 1319.01 5.98658 -1.22686 0
M  V30 13729 C 1320.01 6.51859 -2.03886 0
M  V30 13730 O 1319.7 7.47108 -2.96791 0
M  V30 13731 H 1319.43 0.671068 0.0815052 0
M  V30 13732 H 1321.99 2.013 -0.408341 0
M  V30 13733 H 1320.22 3.48226 1.68154 0
M  V30 13734 H 1321.9 3.80469 1.41416 0
M  V30 13735 H 1322.67 4.77065 -0.873714 0
M  V30 13736 H 1318.55 4.59743 0.340203 0
M  V30 13737 H 1322.09 6.49597 -2.54301 0
M  V30 13738 H 1317.99 6.31834 -1.32121 0
M  V30 13739 H 1318.76 7.64832 -2.91502 0
M  V30 13740 N 1321.42 0.00503138 1.57599 0
M  V30 13741 C 1322.65 -0.693231 1.95471 0
M  V30 13742 C 1323.07 -1.66233 0.880246 0
M  V30 13743 O 1322.43 -1.80582 -0.161164 0
M  V30 13744 C 1322.48 -1.39696 3.32442 0
M  V30 13745 O 1321.58 -2.51154 3.27101 0
M  V30 13746 H 1320.92 -0.184015 0.637992 0
M  V30 13747 H 1323.45 0.0597194 2.04513 0
M  V30 13748 H 1323.46 -1.75924 3.68123 0
M  V30 13749 H 1322.14 -0.686438 4.10196 0
M  V30 13750 H 1320.71 -2.17216 3.03103 0
M  V30 13751 N 1322.9 -1.55308 -0.267798 0
M  V30 13752 C 1324.14 -1.77913 -1.0063 0
M  V30 13753 C 1324.5 -0.571149 -1.83308 0
M  V30 13754 O 1325.7 -0.675552 -2.60173 0
M  V30 13755 C 1323.98 -3.05112 -1.86123 0
M  V30 13756 S 1325.53 -3.48856 -2.66167 0
M  V30 13757 H 1322.35 -0.625065 -0.338843 0
M  V30 13758 H 1324.95 -1.93539 -0.276196 0
M  V30 13759 H 1323.66 -3.91118 -1.24317 0
M  V30 13760 H 1323.19 -2.92165 -2.63444 0
M  V30 13761 H 1325.2 -3.0854 -3.8861 0
M  V30 13762 N 1324.38 0.532545 -1.4833 0
M  V30 13763 C 1325.62 1.29902 -1.57812 0
M  V30 13764 C 1325.98 1.90427 -0.245283 0
M  V30 13765 O 1327.18 2.67938 -0.215083 0
M  V30 13766 C 1325.45 2.36119 -2.68296 0
M  V30 13767 S 1327.01 3.22526 -2.97527 0
M  V30 13768 H 1323.83 0.441908 -0.55699 0
M  V30 13769 H 1326.43 0.606983 -1.85839 0
M  V30 13770 H 1325.14 1.90131 -3.63701 0
M  V30 13771 H 1324.67 3.10033 -2.42163 0
M  V30 13772 H 1326.68 4.36144 -2.36628 0
M  V30 13773 N 1325.86 1.36875 0.78122 0
M  V30 13774 C 1327.08 1.349 1.57533 0
M  V30 13775 C 1327.51 -0.0655249 1.87986 0
M  V30 13776 O 1326.86 -1.03986 1.48515 0
M  V30 13777 C 1326.91 2.18562 2.86815 0
M  V30 13778 O 1326.02 1.58374 3.80777 0
M  V30 13779 H 1325.36 0.461355 0.477543 0
M  V30 13780 H 1327.89 1.80271 0.96766 0
M  V30 13781 H 1327.9 2.31436 3.36008 0
M  V30 13782 H 1326.57 3.21385 2.63978 0
M  V30 13783 H 1325.15 1.54487 3.39394 0
M  V30 13784 N 1327.33 -1.00632 1.21289 0
M  V30 13785 C 1328.3 -2.07543 0.972548 0
M  V30 13786 C 1329.3 -1.60703 -0.0559244 0
M  V30 13787 O 1330.49 -1.73255 0.181213 0
M  V30 13788 C 1327.62 -3.37696 0.466297 0
M  V30 13789 H 1328.81 -2.30298 1.92101 0
M  V30 13790 H 1326.36 -1.17588 1.02969 0
M  V30 13791 H 1327.1 -3.2062 -0.487148 0
M  V30 13792 H 1326.88 -3.73024 1.20813 0
M  V30 13793 H 1328.37 -4.16388 0.317962 0
M  V30 13794 N 1328.81 -1.02043 -1.20104 0
M  V30 13795 C 1329.72 -0.603724 -2.26699 0
M  V30 13796 C 1330.74 0.360558 -1.70223 0
M  V30 13797 O 1331.91 0.220552 -2.00189 0
M  V30 13798 C 1328.98 0.0475988 -3.46667 0
M  V30 13799 C 1328.04 -0.963111 -4.18357 0
M  V30 13800 C 1327.27 -0.342775 -5.32598 0
M  V30 13801 O 1327.5 0.856509 -5.63933 0
M  V30 13802 O 1326.43 -1.06141 -5.92467 0
M  V30 13803 H 1330.26 -1.49125 -2.64566 0
M  V30 13804 H 1327.84 -0.790134 -1.26796 0
M  V30 13805 H 1329.72 0.411177 -4.19389 0
M  V30 13806 H 1328.4 0.909266 -3.10667 0
M  V30 13807 H 1327.3 -1.37813 -3.47791 0
M  V30 13808 H 1328.64 -1.79487 -4.58307 0
M  V30 13809 N 1330.29 1.35952 -0.797165 0
M  V30 13810 C 1331.25 2.28266 -0.206748 0
M  V30 13811 C 1332.25 1.49169 0.60043 0
M  V30 13812 O 1333.44 1.69054 0.42029 0
M  V30 13813 C 1330.58 3.33363 0.712884 0
M  V30 13814 H 1331.77 2.81992 -1.02082 0
M  V30 13815 H 1329.32 1.45648 -0.567138 0
M  V30 13816 H 1330.06 2.84806 1.551 0
M  V30 13817 H 1329.84 3.91864 0.135926 0
M  V30 13818 H 1331.33 4.02284 1.1206 0
M  V30 13819 N 1331.77 0.549846 1.47697 0
M  V30 13820 C 1332.73 -0.191427 2.28399 0
M  V30 13821 C 1333.73 -0.849533 1.36527 0
M  V30 13822 O 1334.92 -0.706526 1.59229 0
M  V30 13823 C 1332.05 -1.27907 3.15995 0
M  V30 13824 H 1333.25 0.517375 2.95404 0
M  V30 13825 H 1330.8 0.30651 1.53265 0
M  V30 13826 H 1331.53 -2.0205 2.53665 0
M  V30 13827 H 1331.32 -0.812066 3.83599 0
M  V30 13828 H 1332.81 -1.79992 3.76819 0
M  V30 13829 N 1333.25 -1.54984 0.285932 0
M  V30 13830 C 1334.66 -1.85519 -0.209707 0
M  V30 13831 C 1335.01 -1.20794 -1.54606 0
M  V30 13832 O 1334.13 -0.500159 -2.10541 0
M  V30 13833 C 1334.73 -3.36579 -0.387283 0
M  V30 13834 C 1333.29 -3.67199 -0.827148 0
M  V30 13835 C 1332.43 -2.77203 0.073308 0
M  V30 13836 H 1335.39 -1.5037 0.507404 0
M  V30 13837 H 1335.41 -3.60269 -1.2242 0
M  V30 13838 H 1334.92 -3.83658 0.585493 0
M  V30 13839 H 1333.02 -3.25627 -1.81101 0
M  V30 13840 H 1333.13 -4.74574 -0.656976 0
M  V30 13841 H 1331.5 -2.50785 -0.444859 0
M  V30 13842 H 1332.28 -3.27099 1.04216 0
M  V30 13843 N 1334.72 -0.0133892 -1.57594 0
M  V30 13844 C 1336.14 0.527615 -1.7909 0
M  V30 13845 C 1336.49 1.73179 -0.922142 0
M  V30 13846 O 1335.61 2.1602 -0.128233 0
M  V30 13847 C 1336.21 0.963949 -3.24798 0
M  V30 13848 C 1334.77 1.45017 -3.47343 0
M  V30 13849 C 1333.91 0.407548 -2.74289 0
M  V30 13850 H 1336.86 -0.239505 -1.56882 0
M  V30 13851 H 1336.88 1.82924 -3.33645 0
M  V30 13852 H 1336.4 0.0873315 -3.88002 0
M  V30 13853 H 1334.5 2.34724 -2.89371 0
M  V30 13854 H 1334.61 1.4684 -4.56043 0
M  V30 13855 H 1332.97 0.872174 -2.39301 0
M  V30 13856 H 1333.76 -0.460333 -3.402 0
M  V30 13857 N 1336.2 1.55448 0.259558 0
M  V30 13858 C 1337.61 1.67256 0.8296 0
M  V30 13859 C 1337.96 0.60851 1.86525 0
M  V30 13860 O 1337.09 -0.247563 2.14979 0
M  V30 13861 C 1337.68 3.03213 1.51152 0
M  V30 13862 C 1336.24 3.17004 2.02943 0
M  V30 13863 C 1335.39 2.63096 0.876103 0
M  V30 13864 H 1338.34 1.5866 0.0356218 0
M  V30 13865 H 1338.36 2.96952 2.37906 0
M  V30 13866 H 1337.87 3.80635 0.75752 0
M  V30 13867 H 1335.98 2.44381 2.81263 0
M  V30 13868 H 1336.09 4.23748 2.2355 0
M  V30 13869 H 1334.45 2.20596 1.27317 0
M  V30 13870 H 1335.24 3.43033 0.13539 0
M  V30 13871 N 1337.68 -0.524672 1.4861 0
M  V30 13872 C 1338.64 -1.61092 1.63039 0
M  V30 13873 C 1339.64 -1.52718 0.503387 0
M  V30 13874 O 1340.83 -1.56293 0.769304 0
M  V30 13875 C 1337.97 -3.00722 1.60558 0
M  V30 13876 H 1339.16 -1.49636 2.59902 0
M  V30 13877 H 1336.71 -0.747135 1.37287 0
M  V30 13878 H 1337.45 -3.1768 0.651926 0
M  V30 13879 H 1337.23 -3.0821 2.42382 0
M  V30 13880 H 1338.72 -3.79688 1.73859 0
M  V30 13881 N 1339.16 -1.37287 -0.77395 0
M  V30 13882 C 1340.11 -1.32872 -1.88716 0
M  V30 13883 C 1341.08 -0.194655 -1.64955 0
M  V30 13884 O 1342.26 -0.383662 -1.86903 0
M  V30 13885 C 1339.4 -1.13934 -3.2575 0
M  V30 13886 C 1338.51 -2.36552 -3.61479 0
M  V30 13887 C 1337.65 -2.10504 -4.87711 0
M  V30 13888 C 1336.69 -3.28999 -5.16165 0
M  V30 13889 N 1335.82 -3.02517 -6.33584 0
M  V30 13890 H 1340.66 -2.28051 -1.91825 0
M  V30 13891 H 1338.2 -1.13325 -0.93786 0
M  V30 13892 H 1340.16 -1.00976 -4.04796 0
M  V30 13893 H 1338.79 -0.22404 -3.22022 0
M  V30 13894 H 1337.84 -2.60257 -2.77435 0
M  V30 13895 H 1339.15 -3.24931 -3.78446 0
M  V30 13896 H 1338.31 -1.94564 -5.74656 0
M  V30 13897 H 1337.05 -1.19459 -4.72843 0
M  V30 13898 H 1336.05 -3.4548 -4.27696 0
M  V30 13899 H 1337.28 -4.20892 -5.32942 0
M  V30 13900 H 1335.22 -2.14099 -6.20079 0
M  V30 13901 H 1335.14 -3.84439 -6.50955 0
M  V30 13902 H 1336.41 -2.9019 -7.23471 0
M  V30 13903 N 1340.64 0.999871 -1.21821 0
M  V30 13904 C 1342.05 1.5529 -1.03642 0
M  V30 13905 C 1342.4 1.92032 0.402246 0
M  V30 13906 O 1341.52 1.74027 1.28622 0
M  V30 13907 C 1342.12 2.82177 -1.87514 0
M  V30 13908 C 1340.68 3.33949 -1.73653 0
M  V30 13909 C 1339.82 2.07095 -1.84409 0
M  V30 13910 H 1342.78 0.821751 -1.35768 0
M  V30 13911 H 1342.8 3.54264 -1.38842 0
M  V30 13912 H 1342.31 2.55405 -2.92216 0
M  V30 13913 H 1340.41 3.65645 -0.716554 0
M  V30 13914 H 1340.52 4.05022 -2.55918 0
M  V30 13915 H 1338.89 2.20332 -1.27773 0
M  V30 13916 H 1339.67 1.82728 -2.90629 0
M  V30 13917 N 1342.11 1.02678 1.19562 0
M  V30 13918 C 1343.53 0.752027 1.70884 0
M  V30 13919 C 1343.88 -0.728523 1.82173 0
M  V30 13920 O 1343 -1.56799 1.49141 0
M  V30 13921 C 1343.6 1.35848 3.10372 0
M  V30 13922 C 1342.16 1.13236 3.58963 0
M  V30 13923 C 1341.3 1.45785 2.35886 0
M  V30 13924 H 1344.25 1.19497 1.04432 0
M  V30 13925 H 1344.27 0.754347 3.72948 0
M  V30 13926 H 1343.79 2.43604 3.02124 0
M  V30 13927 H 1341.89 0.0729271 3.72529 0
M  V30 13928 H 1342 1.81959 4.43202 0
M  V30 13929 H 1340.36 0.877125 2.3912 0
M  V30 13930 H 1341.15 2.54619 2.30269 0
M  V30 13931 N 1343.59 -1.35528 0.804364 0
M  V30 13932 C 1345 -1.81321 0.444933 0
M  V30 13933 C 1345.35 -1.66816 -1.03281 0
M  V30 13934 O 1344.48 -1.19753 -1.80245 0
M  V30 13935 C 1345.07 -3.29199 0.800827 0
M  V30 13936 C 1343.63 -3.73144 0.494026 0
M  V30 13937 C 1342.78 -2.57557 1.02761 0
M  V30 13938 H 1345.73 -1.23537 0.996203 0
M  V30 13939 H 1345.75 -3.80375 0.0975117 0
M  V30 13940 H 1345.26 -3.39725 1.8764 0
M  V30 13941 H 1343.37 -3.68169 -0.572901 0
M  V30 13942 H 1343.48 -4.68005 1.0251 0
M  V30 13943 H 1341.84 -2.50692 0.450048 0
M  V30 13944 H 1342.63 -2.70861 2.10925 0
M  V30 13945 N 1345.07 -0.557671 -1.47404 0
M  V30 13946 C 1346.48 -0.124411 -1.86285 0
M  V30 13947 C 1346.83 1.30593 -1.46424 0
M  V30 13948 O 1345.96 1.9825 -0.867515 0
M  V30 13949 C 1346.55 -0.219005 -3.38091 0
M  V30 13950 C 1345.11 0.159221 -3.76063 0
M  V30 13951 C 1344.26 -0.566355 -2.71455 0
M  V30 13952 H 1347.21 -0.767367 -1.38914 0
M  V30 13953 H 1347.23 0.562267 -3.76323 0
M  V30 13954 H 1346.74 -1.26013 -3.67073 0
M  V30 13955 H 1344.84 1.20144 -3.52698 0
M  V30 13956 H 1344.96 -0.199662 -4.78684 0
M  V30 13957 H 1343.32 -0.00938921 -2.54698 0
M  V30 13958 H 1344.1 -1.60865 -3.03278 0
M  V30 13959 N 1346.55 1.54831 -0.294147 0
M  V30 13960 C 1347.96 1.85627 0.199866 0
M  V30 13961 C 1348.31 1.21613 1.53964 0
M  V30 13962 O 1347.44 0.511317 2.10272 0
M  V30 13963 C 1348.03 3.3678 0.369428 0
M  V30 13964 C 1346.59 3.67633 0.807663 0
M  V30 13965 C 1345.74 2.7716 -0.0880078 0
M  V30 13966 H 1348.69 1.50099 -0.515371 0
M  V30 13967 H 1348.71 3.60913 1.20508 0
M  V30 13968 H 1348.22 3.83342 -0.605831 0
M  V30 13969 H 1346.32 3.26583 1.79372 0
M  V30 13970 H 1346.44 4.74916 0.631799 0
M  V30 13971 H 1344.8 2.51017 0.431553 0
M  V30 13972 H 1345.58 3.26542 -1.0595 0
M  V30 13973 N 1348.03 0.0217466 1.57585 0
M  V30 13974 C 1348.96 -0.99116 2.06661 0
M  V30 13975 C 1349.97 -1.29346 0.988604 0
M  V30 13976 O 1351.16 -1.25941 1.26496 0
M  V30 13977 C 1348.26 -2.32047 2.46997 0
M  V30 13978 C 1347.43 -2.20441 3.77789 0
M  V30 13979 C 1346.49 -3.36243 4.04755 0
M  V30 13980 O 1345.52 -3.13458 4.75114 0
M  V30 13981 N 1346.72 -4.598 3.54351 0
M  V30 13982 H 1349.49 -0.572486 2.94181 0
M  V30 13983 H 1347.05 -0.165175 1.61055 0
M  V30 13984 H 1349.04 -3.0833 2.62135 0
M  V30 13985 H 1347.61 -2.65581 1.64881 0
M  V30 13986 H 1346.83 -1.28931 3.72519 0
M  V30 13987 H 1348.12 -2.09882 4.63494 0
M  V30 13988 H 1347.52 -4.81207 2.97416 0
M  V30 13989 H 1346.07 -5.33276 3.7478 0
M  V30 13990 N 1349.51 -1.55583 -0.251311 0
M  V30 13991 C 1350.92 -1.67693 -0.820719 0
M  V30 13992 C 1351.27 -0.618393 -1.862 0
M  V30 13993 O 1350.39 0.236158 -2.15108 0
M  V30 13994 C 1350.99 -3.04011 -1.49542 0
M  V30 13995 C 1349.55 -3.18075 -2.01259 0
M  V30 13996 C 1348.69 -2.63557 -0.862138 0
M  V30 13997 H 1351.64 -1.58677 -0.0272072 0
M  V30 13998 H 1351.67 -2.9821 -2.36328 0
M  V30 13999 H 1351.18 -3.81032 -0.737323 0
M  V30 14000 H 1349.28 -2.45869 -2.79963 0
M  V30 14001 H 1349.39 -4.24927 -2.213 0
M  V30 14002 H 1347.76 -2.21268 -1.26145 0
M  V30 14003 H 1348.54 -3.431 -0.117196 0
M  V30 14004 N 1350.98 0.516783 -1.48886 0
M  V30 14005 C 1351.91 1.62897 -1.67292 0
M  V30 14006 C 1352.89 1.61903 -0.521671 0
M  V30 14007 O 1354.08 1.78892 -0.755728 0
M  V30 14008 C 1351.21 3.01444 -1.72478 0
M  V30 14009 C 1350.16 3.173 -2.87236 0
M  V30 14010 C 1349.49 4.5704 -2.77522 0
M  V30 14011 C 1350.79 2.98818 -4.28375 0
M  V30 14012 H 1352.48 1.47748 -2.60405 0
M  V30 14013 H 1350.03 0.709361 -1.25316 0
M  V30 14014 H 1351.98 3.79135 -1.83942 0
M  V30 14015 H 1350.71 3.17645 -0.759538 0
M  V30 14016 H 1349.37 2.4203 -2.75349 0
M  V30 14017 H 1349.01 4.70096 -1.78938 0
M  V30 14018 H 1348.71 4.68593 -3.54534 0
M  V30 14019 H 1350.24 5.36813 -2.90972 0
M  V30 14020 H 1351.65 3.66291 -4.41026 0
M  V30 14021 H 1350.05 3.21854 -5.06488 0
M  V30 14022 H 1351.12 1.95102 -4.43918 0
M  V30 14023 N 1352.46 1.37696 0.766659 0
M  V30 14024 C 1353.87 1.29668 1.34324 0
M  V30 14025 C 1354.22 -0.0534297 1.96127 0
M  V30 14026 O 1353.35 -0.95534 1.94171 0
M  V30 14027 C 1353.94 2.34818 2.44225 0
M  V30 14028 C 1352.5 2.3041 2.97638 0
M  V30 14029 C 1351.65 2.18378 1.70899 0
M  V30 14030 H 1354.6 1.48244 0.566526 0
M  V30 14031 H 1354.62 1.99778 3.23835 0
M  V30 14032 H 1354.13 3.3307 1.99214 0
M  V30 14033 H 1352.23 1.35698 3.47011 0
M  V30 14034 H 1352.35 3.24028 3.52906 0
M  V30 14035 H 1350.71 1.65008 1.94021 0
M  V30 14036 H 1351.49 3.18551 1.27985 0
M  V30 14037 N 1353.94 -0.993397 1.22349 0
M  V30 14038 C 1355.16 -1.77373 1.07488 0
M  V30 14039 C 1355.59 -1.84418 -0.37034 0
M  V30 14040 O 1354.95 -1.29629 -1.26752 0
M  V30 14041 C 1355 -3.18538 1.69014 0
M  V30 14042 O 1354.1 -4.01463 0.943474 0
M  V30 14043 H 1353.44 -0.546209 0.37756 0
M  V30 14044 H 1355.97 -1.24792 1.62136 0
M  V30 14045 H 1355.98 -3.6917 1.73717 0
M  V30 14046 H 1354.66 -3.12725 2.74182 0
M  V30 14047 H 1353.23 -3.59998 0.972415 0
M  V30 14048 N 1355.42 -1.03311 -1.19015 0
M  V30 14049 C 1356.83 -0.761079 -1.70483 0
M  V30 14050 C 1357.18 0.718851 -1.82557 0
M  V30 14051 O 1356.3 1.56006 -1.4997 0
M  V30 14052 C 1356.9 -1.37492 -3.09647 0
M  V30 14053 C 1355.46 -1.15138 -3.58358 0
M  V30 14054 C 1354.61 -1.47034 -2.35109 0
M  V30 14055 H 1357.56 -1.2005 -1.03797 0
M  V30 14056 H 1357.58 -0.774115 -3.72542 0
M  V30 14057 H 1357.09 -2.45203 -3.00828 0
M  V30 14058 H 1355.19 -0.0926822 -3.72485 0
M  V30 14059 H 1355.3 -1.84307 -4.4223 0
M  V30 14060 H 1353.67 -0.889794 -2.38652 0
M  V30 14061 H 1354.45 -2.55837 -2.28916 0
M  V30 14062 N 1356.9 1.35099 -0.81154 0
M  V30 14063 C 1357.86 2.28033 -0.230947 0
M  V30 14064 C 1358.86 1.49798 0.584575 0
M  V30 14065 O 1360.05 1.6949 0.402336 0
M  V30 14066 C 1357.18 3.341 0.677486 0
M  V30 14067 H 1358.37 2.80893 -1.05067 0
M  V30 14068 H 1355.93 1.45038 -0.582554 0
M  V30 14069 H 1356.66 2.86435 1.5207 0
M  V30 14070 H 1356.45 3.91986 0.0943563 0
M  V30 14071 H 1357.94 4.0345 1.07787 0
M  V30 14072 N 1358.37 0.56548 1.47106 0
M  V30 14073 C 1359.6 0.0495579 2.06541 0
M  V30 14074 C 1360.01 -1.25325 1.4174 0
M  V30 14075 O 1359.35 -1.76455 0.510818 0
M  V30 14076 C 1359.42 -0.20843 3.58895 0
M  V30 14077 C 1359.08 1.00618 4.45786 0
M  V30 14078 C 1360.08 1.91387 4.83391 0
M  V30 14079 C 1357.76 1.22318 4.87179 0
M  V30 14080 C 1359.76 3.02218 5.61198 0
M  V30 14081 C 1357.44 2.33457 5.64749 0
M  V30 14082 C 1358.44 3.23238 6.0167 0
M  V30 14083 O 1358.13 4.32449 6.77675 0
M  V30 14084 H 1357.86 0.0466 0.674392 0
M  V30 14085 H 1360.42 0.780887 1.89977 0
M  V30 14086 H 1358.65 -0.994169 3.73702 0
M  V30 14087 H 1360.33 -0.670745 4.0032 0
M  V30 14088 H 1361.1 1.75831 4.52005 0
M  V30 14089 H 1356.98 0.533514 4.57902 0
M  V30 14090 H 1360.52 3.72321 5.89935 0
M  V30 14091 H 1356.42 2.48983 5.95548 0
M  V30 14092 H 1357.19 4.306 6.96079 0
M  V30 14093 N 1359.85 -1.54672 0.302354 0
M  V30 14094 C 1361.26 -1.85731 -0.190019 0
M  V30 14095 C 1361.61 -1.22427 -1.53317 0
M  V30 14096 O 1360.74 -0.522461 -2.09998 0
M  V30 14097 C 1361.33 -3.36971 -0.351562 0
M  V30 14098 C 1359.89 -3.68056 -0.788155 0
M  V30 14099 C 1359.04 -2.7711 0.102705 0
M  V30 14100 H 1361.99 -1.49823 0.523324 0
M  V30 14101 H 1362.01 -3.61547 -1.18592 0
M  V30 14102 H 1361.52 -3.83016 0.626152 0
M  V30 14103 H 1359.63 -3.2753 -1.77637 0
M  V30 14104 H 1359.74 -4.75244 -0.606604 0
M  V30 14105 H 1358.1 -2.51243 -0.418235 0
M  V30 14106 H 1358.89 -3.25975 1.0768 0
M  V30 14107 N 1361.33 -0.0301034 -1.57571 0
M  V30 14108 C 1362.29 0.936465 -2.09196 0
M  V30 14109 C 1363.29 1.25347 -1.00722 0
M  V30 14110 O 1364.48 1.19364 -1.26877 0
M  V30 14111 C 1361.62 2.2527 -2.55864 0
M  V30 14112 H 1362.81 0.489332 -2.95881 0
M  V30 14113 H 1360.36 0.217948 -1.54773 0
M  V30 14114 H 1361.1 2.7461 -1.72511 0
M  V30 14115 H 1360.88 2.03573 -3.35113 0
M  V30 14116 H 1362.37 2.94549 -2.96025 0
M  V30 14117 N 1362.81 1.55714 0.243056 0
M  V30 14118 C 1364.22 1.68126 0.811814 0
M  V30 14119 C 1364.57 0.628259 1.85869 0
M  V30 14120 O 1363.7 -0.224747 2.1523 0
M  V30 14121 C 1364.29 3.048 1.47928 0
M  V30 14122 C 1362.85 3.19138 1.99569 0
M  V30 14123 C 1362 2.64011 0.848149 0
M  V30 14124 H 1364.95 1.58689 0.0187918 0
M  V30 14125 H 1364.97 2.99459 2.34743 0
M  V30 14126 H 1364.48 3.81417 0.717106 0
M  V30 14127 H 1362.58 2.4735 2.78655 0
M  V30 14128 H 1362.69 4.26095 2.19043 0
M  V30 14129 H 1361.06 2.21934 1.2497 0
M  V30 14130 H 1361.84 3.43157 0.0989987 0
M  V30 14131 N 1364.29 -0.50888 1.49158 0
M  V30 14132 C 1365.7 -0.839353 1.35746 0
M  V30 14133 C 1365.9 -1.97797 0.38453 0
M  V30 14134 O 1364.96 -2.51809 -0.186651 0
M  V30 14135 C 1366.27 -1.18698 2.76281 0
M  V30 14136 C 1367.82 -1.29565 2.84924 0
M  V30 14137 C 1368.29 -1.67661 4.26209 0
M  V30 14138 N 1369.79 -1.74725 4.28982 0
M  V30 14139 C 1370.52 -2.05631 5.3526 0
M  V30 14140 N 1370.02 -2.34814 6.51793 0
M  V30 14141 N 1371.81 -2.06815 5.2267 0
M  V30 14142 H 1363.96 0.242065 2.11016 0
M  V30 14143 H 1366.22 0.0456901 0.946898 0
M  V30 14144 H 1365.93 -0.423769 3.49138 0
M  V30 14145 H 1365.8 -2.13227 3.11149 0
M  V30 14146 H 1368.19 -2.0496 2.1231 0
M  V30 14147 H 1368.27 -0.331059 2.53649 0
M  V30 14148 H 1367.92 -0.928198 4.99346 0
M  V30 14149 H 1367.85 -2.65207 4.54943 0
M  V30 14150 H 1370.34 -1.54364 3.44935 0
M  V30 14151 H 1370.65 -2.57562 7.28616 0
M  V30 14152 H 1368.99 -2.32288 6.55032 0
M  V30 14153 H 1372.19 -1.83487 4.30639 0
M  V30 14154 H 1372.36 -2.30568 6.05593 0
M  V30 14155 N 1365.76 -1.381 -0.759346 0
M  V30 14156 C 1367.18 -1.30379 -1.33635 0
M  V30 14157 C 1367.53 0.0430279 -1.96153 0
M  V30 14158 O 1366.65 0.945029 -1.94675 0
M  V30 14159 C 1367.25 -2.3611 -2.42976 0
M  V30 14160 C 1365.81 -2.31985 -2.96412 0
M  V30 14161 C 1364.95 -2.19281 -1.69739 0
M  V30 14162 H 1367.9 -1.48542 -0.558656 0
M  V30 14163 H 1367.92 -2.01493 -3.22771 0
M  V30 14164 H 1367.44 -3.34122 -1.97445 0
M  V30 14165 H 1365.54 -1.37536 -3.46287 0
M  V30 14166 H 1365.65 -3.25895 -3.51183 0
M  V30 14167 H 1364.01 -1.66035 -1.93144 0
M  V30 14168 H 1364.8 -3.19225 -1.26293 0
M  V30 14169 N 1367.24 0.986894 -1.22875 0
M  V30 14170 C 1368.21 2.0597 -1.00544 0
M  V30 14171 C 1369.21 1.60771 0.0303509 0
M  V30 14172 O 1370.4 1.72945 -0.208753 0
M  V30 14173 C 1367.53 3.36911 -0.519962 0
M  V30 14174 H 1368.72 2.27213 -1.9574 0
M  V30 14175 H 1366.27 1.15935 -1.04827 0
M  V30 14176 H 1367.01 3.21355 0.436078 0
M  V30 14177 H 1366.79 3.71054 -1.26732 0
M  V30 14178 H 1368.28 4.15829 -0.384166 0
M  V30 14179 N 1368.72 1.0394 1.18466 0
M  V30 14180 C 1370.13 0.77011 1.70077 0
M  V30 14181 C 1370.48 -0.70916 1.82935 0
M  V30 14182 O 1369.61 -1.55209 1.50795 0
M  V30 14183 C 1370.2 1.39132 3.08914 0
M  V30 14184 C 1368.76 1.17037 3.57742 0
M  V30 14185 C 1367.91 1.48279 2.34326 0
M  V30 14186 H 1370.86 1.20598 1.03159 0
M  V30 14187 H 1370.88 0.793861 3.72126 0
M  V30 14188 H 1370.39 2.46795 2.99523 0
M  V30 14189 H 1368.49 0.112435 3.7243 0
M  V30 14190 H 1368.61 1.8665 4.41247 0
M  V30 14191 H 1366.97 0.902438 2.38177 0
M  V30 14192 H 1367.75 2.57047 2.27556 0
M  V30 14193 N 1370.2 -1.34667 0.818693 0
M  V30 14194 C 1371.45 -1.98022 0.40396 0
M  V30 14195 C 1371.77 -1.65239 -1.03542 0
M  V30 14196 O 1371.04 -0.94097 -1.71821 0
M  V30 14197 H 1369.62 -0.732517 0.146382 0
M  V30 14198 H 1372.28 -1.64377 1.0472 0
M  V30 14199 H 1371.38 -3.07746 0.519516 0
M  V30 14200 N 1371.68 -0.573274 -1.46804 0
M  V30 14201 C 1373.09 -0.144162 -1.86143 0
M  V30 14202 C 1373.44 1.29033 -1.47801 0
M  V30 14203 O 1372.56 1.97319 -0.888494 0
M  V30 14204 C 1373.16 -0.254851 -3.3784 0
M  V30 14205 C 1371.72 0.119325 -3.76211 0
M  V30 14206 C 1370.86 -0.595115 -2.70839 0
M  V30 14207 H 1373.82 -0.782057 -1.38093 0
M  V30 14208 H 1373.84 0.522321 -3.76898 0
M  V30 14209 H 1373.35 -1.29899 -3.65715 0
M  V30 14210 H 1371.45 1.16396 -3.53953 0
M  V30 14211 H 1371.56 -0.250421 -4.78445 0
M  V30 14212 H 1369.93 -0.0364028 -2.54674 0
M  V30 14213 H 1370.71 -1.64072 -3.01555 0
M  V30 14214 N 1373.15 1.5451 -0.310553 0
M  V30 14215 C 1374.12 2.2254 0.548489 0
M  V30 14216 C 1375.12 1.21456 1.05381 0
M  V30 14217 O 1376.31 1.46126 0.948311 0
M  V30 14218 C 1373.44 2.91927 1.76043 0
M  V30 14219 H 1374.63 2.99865 -0.0460306 0
M  V30 14220 H 1372.19 1.56179 -0.061487 0
M  V30 14221 H 1372.92 2.18706 2.39454 0
M  V30 14222 H 1372.71 3.66038 1.40564 0
M  V30 14223 H 1374.2 3.43797 2.37051 0
M  V30 14224 N 1374.63 0.0384594 1.57553 0
M  V30 14225 C 1376.04 -0.499057 1.79906 0
M  V30 14226 C 1376.4 -1.7169 0.949577 0
M  V30 14227 O 1375.52 -2.15788 0.162584 0
M  V30 14228 C 1376.12 -0.912155 3.2629 0
M  V30 14229 C 1374.67 -1.39473 3.49606 0
M  V30 14230 C 1373.82 -0.363859 2.74902 0
M  V30 14231 H 1376.77 0.264433 1.56481 0
M  V30 14232 H 1376.79 -1.77592 3.36513 0
M  V30 14233 H 1376.31 -0.0255928 3.88092 0
M  V30 14234 H 1374.41 -2.3009 2.93068 0
M  V30 14235 H 1374.52 -1.39566 4.58321 0
M  V30 14236 H 1372.88 -0.833993 2.40659 0
M  V30 14237 H 1373.67 0.514398 3.39424 0
M  V30 14238 N 1376.11 -1.55841 -0.234795 0
M  V30 14239 C 1377.36 -1.78238 -0.961116 0
M  V30 14240 C 1377.69 -0.604919 -1.84854 0
M  V30 14241 O 1376.94 0.411289 -1.91329 0
M  V30 14242 C 1377.24 -3.06262 -1.84223 0
M  V30 14243 C 1376.91 -4.37045 -1.10916 0
M  V30 14244 C 1375.57 -4.72582 -0.906606 0
M  V30 14245 C 1377.92 -5.17844 -0.59049 0
M  V30 14246 C 1375.25 -5.86444 -0.173275 0
M  V30 14247 C 1377.6 -6.32468 0.129433 0
M  V30 14248 C 1376.26 -6.66616 0.343357 0
M  V30 14249 H 1375.53 -0.652219 -0.351697 0
M  V30 14250 H 1378.18 -1.9011 -0.230272 0
M  V30 14251 H 1376.49 -2.89454 -2.64052 0
M  V30 14252 H 1378.18 -3.20791 -2.40612 0
M  V30 14253 H 1374.77 -4.09134 -1.27699 0
M  V30 14254 H 1378.96 -4.90835 -0.734487 0
M  V30 14255 H 1374.21 -6.114 0.00282409 0
M  V30 14256 H 1378.39 -6.94312 0.538905 0
M  V30 14257 H 1376.01 -7.54691 0.913538 0
M  V30 14258 N 1377.59 0.500963 -1.49426 0
M  V30 14259 C 1378.84 1.25694 -1.5915 0
M  V30 14260 C 1379.17 1.92209 -0.277365 0
M  V30 14261 O 1378.44 1.8072 0.719065 0
M  V30 14262 C 1378.73 2.32391 -2.75076 0
M  V30 14263 C 1378.58 1.70377 -4.16283 0
M  V30 14264 C 1379.9 3.33952 -2.86643 0
M  V30 14265 H 1377.02 0.455631 -0.579283 0
M  V30 14266 H 1379.66 0.555099 -1.8171 0
M  V30 14267 H 1377.81 2.92252 -2.55971 0
M  V30 14268 H 1379.48 1.14343 -4.46904 0
M  V30 14269 H 1377.72 1.00789 -4.21929 0
M  V30 14270 H 1378.4 2.47767 -4.9327 0
M  V30 14271 H 1380.87 2.84081 -3.04035 0
M  V30 14272 H 1379.75 4.05969 -3.69433 0
M  V30 14273 H 1380.01 3.96279 -1.95998 0
M  V30 14274 N 1379.07 1.38501 0.752011 0
M  V30 14275 C 1380.48 1.31086 1.32941 0
M  V30 14276 C 1380.83 -0.0326248 1.96173 0
M  V30 14277 O 1379.95 -0.934692 1.95173 0
M  V30 14278 C 1380.55 2.37395 2.41721 0
M  V30 14279 C 1379.11 2.33553 2.95177 0
M  V30 14280 C 1378.26 2.20178 1.68573 0
M  V30 14281 H 1381.21 1.48836 0.550771 0
M  V30 14282 H 1381.23 2.03202 3.21697 0
M  V30 14283 H 1380.74 3.35164 1.9567 0
M  V30 14284 H 1378.84 1.39371 3.45553 0
M  V30 14285 H 1378.95 3.27753 3.49449 0
M  V30 14286 H 1377.32 1.67057 1.9226 0
M  V30 14287 H 1378.1 3.19891 1.24599 0
M  V30 14288 N 1380.55 -0.980364 1.23396 0
M  V30 14289 C 1381.96 -1.24658 0.996622 0
M  V30 14290 C 1382.16 -1.9922 -0.302259 0
M  V30 14291 O 1381.22 -2.30906 -1.02169 0
M  V30 14292 C 1382.53 -2.0461 2.20353 0
M  V30 14293 C 1384.08 -2.17749 2.24843 0
M  V30 14294 C 1384.55 -3.01091 3.4512 0
M  V30 14295 N 1386.04 -3.08676 3.4536 0
M  V30 14296 C 1386.78 -3.73487 4.3508 0
M  V30 14297 N 1386.28 -4.40121 5.35038 0
M  V30 14298 N 1388.07 -3.70373 4.22824 0
M  V30 14299 H 1380.22 -0.480851 2.06885 0
M  V30 14300 H 1382.48 -0.275049 0.907222 0
M  V30 14301 H 1382.19 -1.57197 3.14614 0
M  V30 14302 H 1382.06 -3.05359 2.21441 0
M  V30 14303 H 1384.45 -2.64369 1.31122 0
M  V30 14304 H 1384.53 -1.16388 2.27788 0
M  V30 14305 H 1384.17 -2.55168 4.39149 0
M  V30 14306 H 1384.1 -4.02621 3.39417 0
M  V30 14307 H 1386.6 -2.61265 2.73037 0
M  V30 14308 H 1386.91 -4.87354 5.99755 0
M  V30 14309 H 1385.25 -4.38829 5.38938 0
M  V30 14310 H 1388.44 -3.17486 3.43977 0
M  V30 14311 H 1388.62 -4.20601 4.92949 0
M  V30 14312 N 1382.02 -1.04567 -1.17913 0
M  V30 14313 C 1382.93 -0.651674 -2.25367 0
M  V30 14314 C 1383.95 0.32437 -1.7095 0
M  V30 14315 O 1385.13 0.178039 -2.00612 0
M  V30 14316 C 1382.19 -0.0259452 -3.4669 0
M  V30 14317 C 1381.25 -1.05163 -4.1622 0
M  V30 14318 C 1380.48 -0.45567 -5.31751 0
M  V30 14319 O 1380.71 0.736698 -5.65623 0
M  V30 14320 O 1379.64 -1.18684 -5.90083 0
M  V30 14321 H 1383.47 -1.54704 -2.61344 0
M  V30 14322 H 1381.05 -0.816852 -1.25092 0
M  V30 14323 H 1382.93 0.322126 -4.20167 0
M  V30 14324 H 1381.61 0.843165 -3.12526 0
M  V30 14325 H 1380.52 -1.45159 -3.44789 0
M  V30 14326 H 1381.85 -1.89168 -4.54397 0
M  V30 14327 N 1383.5 1.34231 -0.825823 0
M  V30 14328 C 1384.92 1.51166 -0.511945 0
M  V30 14329 C 1385.12 1.76981 0.963318 0
M  V30 14330 O 1384.17 1.82243 1.74767 0
M  V30 14331 C 1385.49 2.67474 -1.37399 0
M  V30 14332 C 1387.03 2.81356 -1.37141 0
M  V30 14333 C 1387.51 4.0071 -2.218 0
M  V30 14334 N 1389 4.07922 -2.19439 0
M  V30 14335 C 1389.74 4.99438 -2.81691 0
M  V30 14336 N 1389.23 5.96157 -3.52944 0
M  V30 14337 N 1391.02 4.92332 -2.7123 0
M  V30 14338 H 1383.18 1.15734 -1.78099 0
M  V30 14339 H 1385.44 0.567856 -0.759107 0
M  V30 14340 H 1385.14 2.55036 -2.42176 0
M  V30 14341 H 1385.02 3.62558 -1.04075 0
M  V30 14342 H 1387.41 2.93233 -0.331405 0
M  V30 14343 H 1387.49 1.87072 -1.74464 0
M  V30 14344 H 1387.13 3.89593 -3.25852 0
M  V30 14345 H 1387.06 4.94213 -1.81826 0
M  V30 14346 H 1389.55 3.38695 -1.67612 0
M  V30 14347 H 1389.86 6.62623 -3.97682 0
M  V30 14348 H 1388.21 5.96272 -3.5705 0
M  V30 14349 H 1391.4 4.15733 -2.15137 0
M  V30 14350 H 1391.57 5.63458 -3.20031 0
M  V30 14351 N 1384.98 0.581051 1.46498 0
M  V30 14352 C 1385.94 -0.142937 2.28754 0
M  V30 14353 C 1386.94 -0.820383 1.38298 0
M  V30 14354 O 1388.13 -0.672592 1.60692 0
M  V30 14355 C 1385.26 -1.21176 3.18637 0
M  V30 14356 H 1386.46 0.579918 2.9424 0
M  V30 14357 H 1384.01 0.338951 1.52581 0
M  V30 14358 H 1384.75 -1.96624 2.57894 0
M  V30 14359 H 1384.53 -0.730517 3.85235 0
M  V30 14360 H 1386.02 -1.71958 3.80552 0
M  V30 14361 N 1386.46 -1.54343 0.318742 0
M  V30 14362 C 1387.68 -2.05361 -0.290126 0
M  V30 14363 C 1388.11 -1.19362 -1.45376 0
M  V30 14364 O 1387.47 -0.201639 -1.80175 0
M  V30 14365 C 1387.51 -3.53601 -0.707025 0
M  V30 14366 O 1386.62 -3.70561 -1.80992 0
M  V30 14367 H 1385.96 -0.661858 -0.0532933 0
M  V30 14368 H 1388.49 -1.99228 0.46575 0
M  V30 14369 H 1388.5 -3.95782 -0.991005 0
M  V30 14370 H 1387.17 -4.1565 0.144091 0
M  V30 14371 H 1385.75 -3.40286 -1.52513 0
M  V30 14372 N 1387.94 -0.0468143 -1.5753 0
M  V30 14373 C 1389.18 0.628869 -1.92803 0
M  V30 14374 C 1389.51 1.70751 -0.925083 0
M  V30 14375 O 1388.79 1.94437 0.0495821 0
M  V30 14376 C 1389.07 1.22899 -3.38479 0
M  V30 14377 C 1388.93 0.158707 -4.4952 0
M  V30 14378 C 1390.24 2.1419 -3.84461 0
M  V30 14379 H 1387.36 0.227137 -0.701126 0
M  V30 14380 H 1390.01 -0.107689 -1.89695 0
M  V30 14381 H 1388.16 1.85674 -3.41259 0
M  V30 14382 H 1389.83 -0.472963 -4.58869 0
M  V30 14383 H 1388.07 -0.51375 -4.30747 0
M  V30 14384 H 1388.74 0.618545 -5.48523 0
M  V30 14385 H 1391.22 1.61382 -3.8353 0
M  V30 14386 H 1390.09 2.53125 -4.87051 0
M  V30 14387 H 1390.35 3.04024 -3.2097 0
M  V30 14388 N 1389.41 1.55964 0.226527 0
M  V30 14389 C 1390.69 1.69528 0.975689 0
M  V30 14390 C 1391.07 0.592635 2.02611 0
M  V30 14391 O 1390.42 -0.401073 2.24953 0
M  V30 14392 C 1390.63 3.10644 1.59063 0
M  V30 14393 C 1391.98 3.69895 2.08478 0
M  V30 14394 O 1393 3.13574 1.68966 0
M  V30 14395 O 1391.86 4.68672 2.81085 0
M  V30 14396 H 1388.95 0.690285 0.455451 0
M  V30 14397 H 1391.5 1.68285 0.218702 0
M  V30 14398 H 1390.27 3.82355 0.831903 0
M  V30 14399 H 1389.9 3.15984 2.41329 0
M  V30 14400 N 1390.89 -0.493031 1.4969 0
M  V30 14401 C 1392.31 -0.824908 1.36629 0
M  V30 14402 C 1392.51 -1.97378 0.405487 0
M  V30 14403 O 1391.56 -2.51993 -0.159933 0
M  V30 14404 C 1392.88 -1.15761 2.77524 0
M  V30 14405 C 1394.43 -1.26536 2.86282 0
M  V30 14406 C 1394.9 -1.63131 4.27963 0
M  V30 14407 N 1396.39 -1.70165 4.30811 0
M  V30 14408 C 1397.13 -1.99942 5.37411 0
M  V30 14409 N 1396.62 -2.27888 6.54247 0
M  V30 14410 N 1398.42 -2.0126 5.24834 0
M  V30 14411 H 1390.57 0.264433 2.10748 0
M  V30 14412 H 1392.83 0.0557306 0.94636 0
M  V30 14413 H 1392.54 -0.386714 3.49567 0
M  V30 14414 H 1392.41 -2.09915 3.13393 0
M  V30 14415 H 1394.8 -2.02696 2.14472 0
M  V30 14416 H 1394.88 -0.304137 2.53986 0
M  V30 14417 H 1394.52 -0.875184 5.00303 0
M  V30 14418 H 1394.45 -2.60367 4.5773 0
M  V30 14419 H 1396.94 -1.50696 3.46553 0
M  V30 14420 H 1397.26 -2.4982 7.31307 0
M  V30 14421 H 1395.6 -2.25327 6.57459 0
M  V30 14422 H 1398.79 -1.78909 4.32561 0
M  V30 14423 H 1398.96 -2.24131 6.08004 0
M  V30 14424 N 1392.37 -1.38898 -0.744656 0
M  V30 14425 C 1393.62 -1.368 -1.50523 0
M  V30 14426 C 1393.97 0.0391042 -1.9236 0
M  V30 14427 O 1393.26 1.00363 -1.63211 0
M  V30 14428 C 1393.46 -2.2658 -2.76398 0
M  V30 14429 C 1393.29 -3.7588 -2.46868 0
M  V30 14430 C 1392.06 -4.44859 -2.39643 0
M  V30 14431 C 1394.26 -4.68096 -2.1305 0
M  V30 14432 N 1392.24 -5.79547 -2.02482 0
M  V30 14433 C 1393.61 -5.91362 -1.86254 0
M  V30 14434 C 1395.66 -4.56212 -1.99436 0
M  V30 14435 C 1394.37 -7.04074 -1.47216 0
M  V30 14436 C 1396.39 -5.68836 -1.618 0
M  V30 14437 C 1395.75 -6.9117 -1.35882 0
M  V30 14438 H 1391.85 -0.555867 -0.550032 0
M  V30 14439 H 1394.44 -1.74364 -0.866324 0
M  V30 14440 H 1392.61 -1.9119 -3.38084 0
M  V30 14441 H 1394.34 -2.15545 -3.42524 0
M  V30 14442 H 1391.1 -3.98181 -2.56415 0
M  V30 14443 H 1391.52 -6.50799 -1.86522 0
M  V30 14444 H 1396.16 -3.62177 -2.18146 0
M  V30 14445 H 1393.88 -7.98019 -1.27247 0
M  V30 14446 H 1397.47 -5.61624 -1.51886 0
M  V30 14447 H 1396.35 -7.76839 -1.07195 0
M  V30 14448 N 1393.85 0.973806 -1.23914 0
M  V30 14449 C 1395.26 1.24128 -1.00322 0
M  V30 14450 C 1395.46 1.99378 0.29169 0
M  V30 14451 O 1394.52 2.31445 1.00943 0
M  V30 14452 C 1395.83 2.03438 -2.21435 0
M  V30 14453 C 1397.38 2.16553 -2.25995 0
M  V30 14454 C 1397.86 2.99257 -3.46712 0
M  V30 14455 N 1399.35 3.0684 -3.46992 0
M  V30 14456 C 1400.08 3.71174 -4.37055 0
M  V30 14457 N 1399.58 4.37277 -5.37364 0
M  V30 14458 N 1401.37 3.68126 -4.24782 0
M  V30 14459 H 1393.52 0.469872 -2.07138 0
M  V30 14460 H 1395.79 0.270234 -0.908668 0
M  V30 14461 H 1395.49 1.55527 -3.15443 0
M  V30 14462 H 1395.37 3.0418 -2.23057 0
M  V30 14463 H 1397.75 2.6367 -1.32522 0
M  V30 14464 H 1397.83 1.15179 -2.28402 0
M  V30 14465 H 1397.48 2.52835 -4.40496 0
M  V30 14466 H 1397.41 4.00815 -3.41547 0
M  V30 14467 H 1399.9 2.59813 -2.74419 0
M  V30 14468 H 1400.21 4.84166 -6.02331 0
M  V30 14469 H 1398.56 4.35965 -5.41257 0
M  V30 14470 H 1401.75 3.15657 -3.45656 0
M  V30 14471 H 1401.92 4.17981 -4.95173 0
M  V30 14472 N 1395.33 1.05191 1.17357 0
M  V30 14473 C 1396.74 0.773255 1.39617 0
M  V30 14474 C 1396.94 -0.632346 1.91321 0
M  V30 14475 O 1396 -1.39475 2.10483 0
M  V30 14476 C 1397.31 1.82885 2.38692 0
M  V30 14477 C 1398.86 1.85106 2.52398 0
M  V30 14478 C 1399.33 2.89689 3.54746 0
M  V30 14479 N 1400.83 2.88651 3.62263 0
M  V30 14480 C 1401.56 3.66221 4.41214 0
M  V30 14481 N 1401.06 4.53577 5.23679 0
M  V30 14482 N 1402.85 3.54661 4.36087 0
M  V30 14483 H 1395 1.9588 0.82127 0
M  V30 14484 H 1397.26 0.848187 0.423417 0
M  V30 14485 H 1396.97 2.83766 2.07773 0
M  V30 14486 H 1396.84 1.67047 3.38194 0
M  V30 14487 H 1399.23 0.848896 2.82627 0
M  V30 14488 H 1399.31 2.05022 1.5297 0
M  V30 14489 H 1398.96 3.90091 3.25255 0
M  V30 14490 H 1398.89 2.67025 4.53878 0
M  V30 14491 H 1401.38 2.25312 3.03386 0
M  V30 14492 H 1401.69 5.09449 5.81104 0
M  V30 14493 H 1400.03 4.57638 5.23061 0
M  V30 14494 H 1403.23 2.8581 3.70716 0
M  V30 14495 H 1403.4 4.15361 4.97372 0
M  V30 14496 N 1396.8 -1.33791 0.83293 0
M  V30 14497 C 1398.03 -2.02187 0.439077 0
M  V30 14498 C 1398.45 -1.62692 -0.957958 0
M  V30 14499 O 1397.8 -0.837302 -1.62159 0
M  V30 14500 C 1397.86 -3.57395 0.543232 0
M  V30 14501 O 1397.58 -3.95463 1.88522 0
M  V30 14502 C 1399.08 -4.43061 0.145567 0
M  V30 14503 H 1396.3 -0.64778 0.174992 0
M  V30 14504 H 1398.84 -1.7085 1.12386 0
M  V30 14505 H 1397 -3.87287 -0.0935746 0
M  V30 14506 H 1397.41 -4.90164 1.86653 0
M  V30 14507 H 1398.88 -5.51342 0.269507 0
M  V30 14508 H 1399.36 -4.29628 -0.911934 0
M  V30 14509 H 1399.97 -4.18517 0.756572 0
M  V30 14510 N 1398.28 -0.588812 -1.46187 0
M  V30 14511 C 1399.23 0.140932 -2.30369 0
M  V30 14512 C 1400.2 0.878216 -1.40984 0
M  V30 14513 O 1401.38 0.867678 -1.69929 0
M  V30 14514 C 1398.52 1.14468 -3.25563 0
M  V30 14515 C 1397.64 0.410215 -4.30048 0
M  V30 14516 C 1396.77 1.40203 -5.12364 0
M  V30 14517 C 1395.81 0.65431 -6.08593 0
M  V30 14518 N 1394.95 1.59448 -6.83755 0
M  V30 14519 H 1399.79 -0.582976 -2.92242 0
M  V30 14520 H 1397.33 -0.299302 -1.44023 0
M  V30 14521 H 1399.28 1.73957 -3.79203 0
M  V30 14522 H 1397.91 1.83623 -2.65485 0
M  V30 14523 H 1396.97 -0.299822 -3.79217 0
M  V30 14524 H 1398.28 -0.174043 -4.98496 0
M  V30 14525 H 1397.43 2.06953 -5.70312 0
M  V30 14526 H 1396.17 2.02022 -4.4389 0
M  V30 14527 H 1395.18 -0.0269371 -5.49793 0
M  V30 14528 H 1396.4 0.0414285 -6.79087 0
M  V30 14529 H 1394.35 2.20066 -6.17986 0
M  V30 14530 H 1394.26 1.06318 -7.48487 0
M  V30 14531 H 1395.53 2.25215 -7.46256 0
M  V30 14532 N 1399.76 1.54172 -0.326923 0
M  V30 14533 C 1401.01 2.00233 0.274098 0
M  V30 14534 C 1401.33 1.21665 1.5239 0
M  V30 14535 O 1400.6 0.319359 1.93279 0
M  V30 14536 H 1399.18 0.739687 0.104271 0
M  V30 14537 H 1401.84 1.8977 -0.444244 0
M  V30 14538 H 1400.94 3.07599 0.528154 0
M  V30 14539 N 1401.24 0.0551678 1.57503 0
M  V30 14540 C 1402.2 -0.903065 2.10659 0
M  V30 14541 C 1403.2 -1.23728 1.02703 0
M  V30 14542 O 1404.39 -1.17331 1.2876 0
M  V30 14543 C 1401.52 -2.21171 2.59415 0
M  V30 14544 H 1402.72 -0.442197 2.96622 0
M  V30 14545 H 1400.27 -0.193297 1.551 0
M  V30 14546 H 1401 -2.71831 1.76858 0
M  V30 14547 H 1400.79 -1.98216 3.38309 0
M  V30 14548 H 1402.28 -2.89802 3.00674 0
M  V30 14549 N 1402.72 -1.56081 -0.218252 0
M  V30 14550 C 1403.96 -1.78893 -0.940296 0
M  V30 14551 C 1404.29 -0.62425 -1.84738 0
M  V30 14552 O 1403.56 0.358686 -1.92588 0
M  V30 14553 H 1402.14 -0.659828 -0.350193 0
M  V30 14554 H 1404.8 -1.93546 -0.229316 0
M  V30 14555 H 1403.89 -2.71167 -1.54516 0
M  V30 14556 N 1404.2 0.485086 -1.49949 0
M  V30 14557 C 1405.61 1.06629 -1.53255 0
M  V30 14558 C 1405.96 1.9344 -0.327915 0
M  V30 14559 O 1405.08 2.09011 0.560669 0
M  V30 14560 C 1405.68 1.94053 -2.77721 0
M  V30 14561 C 1404.24 2.47307 -2.83754 0
M  V30 14562 C 1403.38 1.25307 -2.47373 0
M  V30 14563 H 1406.33 0.268297 -1.56416 0
M  V30 14564 H 1406.36 2.78946 -2.58784 0
M  V30 14565 H 1405.87 1.30843 -3.65379 0
M  V30 14566 H 1403.97 3.1411 -2.00414 0
M  V30 14567 H 1404.08 2.83371 -3.86313 0
M  V30 14568 H 1402.45 1.5834 -1.99501 0
M  V30 14569 H 1403.23 0.637815 -3.37323 0
M  V30 14570 N 1405.67 1.39291 0.737279 0
M  V30 14571 C 1407.08 1.32489 1.31543 0
M  V30 14572 C 1407.44 -0.0118162 1.96196 0
M  V30 14573 O 1406.56 -0.913938 1.96153 0
M  V30 14574 C 1407.16 2.39946 2.39189 0
M  V30 14575 C 1405.71 2.36671 2.92684 0
M  V30 14576 C 1404.86 2.21953 1.66229 0
M  V30 14577 H 1407.81 1.49412 0.534954 0
M  V30 14578 H 1407.83 2.06603 3.19524 0
M  V30 14579 H 1407.35 3.3722 1.92104 0
M  V30 14580 H 1405.45 1.43028 3.44055 0
M  V30 14581 H 1405.56 3.31441 3.45953 0
M  V30 14582 H 1403.92 1.69087 1.90478 0
M  V30 14583 H 1404.71 3.21194 1.21199 0
M  V30 14584 N 1407.15 -0.967221 1.24429 0
M  V30 14585 C 1408.4 -1.70688 1.08213 0
M  V30 14586 C 1408.72 -1.91268 -0.379693 0
M  V30 14587 O 1407.99 -1.49077 -1.27094 0
M  V30 14588 H 1406.57 -0.632489 0.39745 0
M  V30 14589 H 1409.23 -1.16356 1.56356 0
M  V30 14590 H 1408.33 -2.69119 1.58055 0
M  V30 14591 N 1408.63 -1.05812 -1.16797 0
M  V30 14592 C 1409.88 -0.770398 -1.8684 0
M  V30 14593 C 1410.2 0.704986 -1.8181 0
M  V30 14594 O 1409.47 1.50977 -1.24832 0
M  V30 14595 H 1408.05 -0.281989 -0.691731 0
M  V30 14596 H 1410.71 -1.33859 -1.41661 0
M  V30 14597 H 1409.81 -1.09094 -2.92412 0
M  V30 14598 N 1410.11 1.33347 -0.840014 0
M  V30 14599 C 1411.07 2.27492 -0.279264 0
M  V30 14600 C 1412.07 1.51004 0.552669 0
M  V30 14601 O 1413.26 1.70305 0.366295 0
M  V30 14602 C 1410.39 3.35462 0.606466 0
M  V30 14603 H 1411.59 2.78601 -1.11001 0
M  V30 14604 H 1409.14 1.4377 -0.613187 0
M  V30 14605 H 1409.87 2.89596 1.45961 0
M  V30 14606 H 1409.66 3.92098 0.0111889 0
M  V30 14607 H 1411.15 4.05645 0.992052 0
M  V30 14608 N 1411.59 0.596556 1.45873 0
M  V30 14609 C 1412.83 0.0872856 2.01911 0
M  V30 14610 C 1413.15 -1.28257 1.46885 0
M  V30 14611 O 1412.42 -1.84489 0.658837 0
M  V30 14612 H 1411 0.0292769 0.746426 0
M  V30 14613 H 1413.67 0.775464 1.78809 0
M  V30 14614 H 1412.76 0.0287213 3.12087 0
M  V30 14615 N 1413.06 -1.53996 0.335095 0
M  V30 14616 C 1413.99 -2.2768 -0.518087 0
M  V30 14617 C 1414.97 -1.28915 -1.10972 0
M  V30 14618 O 1416.16 -1.57745 -1.1327 0
M  V30 14619 C 1413.29 -3.04327 -1.67339 0
M  V30 14620 C 1412.24 -4.10525 -1.2105 0
M  V30 14621 C 1411.57 -4.75078 -2.45366 0
M  V30 14622 C 1412.87 -5.21337 -0.317055 0
M  V30 14623 H 1414.56 -2.99244 0.0965669 0
M  V30 14624 H 1412.11 -1.4392 0.0478842 0
M  V30 14625 H 1414.06 -3.54608 -2.27664 0
M  V30 14626 H 1412.79 -2.30399 -2.31481 0
M  V30 14627 H 1411.45 -3.61144 -0.630124 0
M  V30 14628 H 1411.09 -3.97754 -3.07897 0
M  V30 14629 H 1410.79 -5.46822 -2.1508 0
M  V30 14630 H 1412.32 -5.2814 -3.06432 0
M  V30 14631 H 1413.73 -5.67305 -0.826905 0
M  V30 14632 H 1412.13 -6.00006 -0.106458 0
M  V30 14633 H 1413.2 -4.80536 0.649068 0
M  V30 14634 N 1414.54 -0.0635198 -1.57472 0
M  V30 14635 C 1415.5 0.891881 -2.11135 0
M  V30 14636 C 1416.5 1.23182 -1.03358 0
M  V30 14637 O 1417.69 1.16646 -1.2938 0
M  V30 14638 C 1414.83 2.19792 -2.60584 0
M  V30 14639 H 1416.02 0.426461 -2.96852 0
M  V30 14640 H 1413.57 0.185069 -1.552 0
M  V30 14641 H 1414.31 2.70889 -1.78297 0
M  V30 14642 H 1414.09 1.96419 -3.39355 0
M  V30 14643 H 1415.58 2.88203 -3.02206 0
M  V30 14644 N 1416.02 1.56195 0.209972 0
M  V30 14645 C 1417.3 1.70553 0.957653 0
M  V30 14646 C 1417.68 0.614091 2.01971 0
M  V30 14647 O 1417.02 -0.377192 2.25365 0
M  V30 14648 C 1417.23 3.12314 1.55759 0
M  V30 14649 C 1418.58 3.72085 2.04543 0
M  V30 14650 O 1419.61 3.15349 1.65631 0
M  V30 14651 O 1418.47 4.71627 2.76099 0
M  V30 14652 H 1415.56 0.695077 0.448104 0
M  V30 14653 H 1418.11 1.68507 0.20084 0
M  V30 14654 H 1416.88 3.83215 0.791302 0
M  V30 14655 H 1416.5 3.18526 2.37964 0
M  V30 14656 N 1417.5 -0.477127 1.50204 0
M  V30 14657 C 1418.75 -1.22722 1.60573 0
M  V30 14658 C 1419.07 -1.92595 0.305326 0
M  V30 14659 O 1418.34 -1.83836 -0.676842 0
M  V30 14660 H 1416.92 -0.455973 0.591691 0
M  V30 14661 H 1419.58 -0.550915 1.86952 0
M  V30 14662 H 1418.67 -1.97837 2.41385 0
M  V30 14663 N 1418.98 -1.3968 -0.729882 0
M  V30 14664 C 1420.22 -1.37182 -1.48954 0
M  V30 14665 C 1420.55 0.0305728 -1.94476 0
M  V30 14666 O 1419.81 1.0124 -1.67478 0
M  V30 14667 C 1420.11 -2.29499 -2.7398 0
M  V30 14668 C 1419.77 -3.77034 -2.47298 0
M  V30 14669 C 1418.43 -4.17232 -2.39731 0
M  V30 14670 C 1420.79 -4.70325 -2.24597 0
M  V30 14671 C 1418.11 -5.48777 -2.07511 0
M  V30 14672 C 1420.47 -6.02153 -1.93893 0
M  V30 14673 C 1419.13 -6.41409 -1.84798 0
M  V30 14674 H 1418.4 -0.501985 -0.545061 0
M  V30 14675 H 1421.05 -1.72226 -0.837294 0
M  V30 14676 H 1419.35 -1.87592 -3.43972 0
M  V30 14677 H 1421.05 -2.24857 -3.32024 0
M  V30 14678 H 1417.64 -3.45177 -2.54069 0
M  V30 14679 H 1421.82 -4.40097 -2.29408 0
M  V30 14680 H 1417.08 -5.78109 -1.98996 0
M  V30 14681 H 1421.25 -6.73966 -1.75337 0
M  V30 14682 H 1418.88 -7.43258 -1.59598 0
M  V30 14683 N 1420.45 0.960609 -1.2494 0
M  V30 14684 C 1421.4 2.04164 -1.01493 0
M  V30 14685 C 1422.39 1.60834 0.0461124 0
M  V30 14686 O 1423.58 1.76196 -0.168491 0
M  V30 14687 C 1420.71 3.37484 -0.629251 0
M  V30 14688 C 1419.8 3.87356 -1.72674 0
M  V30 14689 N 1420.19 4.10085 -2.9608 0
M  V30 14690 C 1418.48 4.16086 -1.60589 0
M  V30 14691 C 1419.19 4.51091 -3.67276 0
M  V30 14692 N 1418.16 4.56676 -2.9487 0
M  V30 14693 H 1421.96 2.19723 -1.95189 0
M  V30 14694 H 1419.48 1.14496 -1.15171 0
M  V30 14695 H 1421.47 4.14545 -0.442484 0
M  V30 14696 H 1420.13 3.23307 0.300446 0
M  V30 14697 H 1421.15 3.97331 -3.32187 0
M  V30 14698 H 1417.82 4.10804 -0.744725 0
M  V30 14699 H 1419.21 4.77031 -4.73172 0
M  V30 14700 N 1421.93 1.0643 1.16234 0
M  V30 14701 C 1423.35 0.78802 1.38789 0
M  V30 14702 C 1423.55 -0.612019 1.91981 0
M  V30 14703 O 1422.6 -1.37235 2.1195 0
M  V30 14704 C 1423.92 1.85406 2.36738 0
M  V30 14705 C 1425.47 1.87773 2.5042 0
M  V30 14706 C 1425.94 2.93435 3.51653 0
M  V30 14707 N 1427.43 2.92477 3.59181 0
M  V30 14708 C 1428.17 3.7088 4.37305 0
M  V30 14709 N 1427.66 4.59106 5.18839 0
M  V30 14710 N 1429.46 3.59267 4.32301 0
M  V30 14711 H 1421.61 1.9674 0.800449 0
M  V30 14712 H 1423.87 0.852631 0.414397 0
M  V30 14713 H 1423.58 2.85954 2.04751 0
M  V30 14714 H 1423.45 1.70625 3.36403 0
M  V30 14715 H 1425.84 0.878825 2.8171 0
M  V30 14716 H 1425.92 2.06633 1.50787 0
M  V30 14717 H 1425.56 3.93519 3.211 0
M  V30 14718 H 1425.49 2.71824 4.5102 0
M  V30 14719 H 1427.98 2.28517 3.00979 0
M  V30 14720 H 1428.3 5.15583 5.75668 0
M  V30 14721 H 1426.64 4.6316 5.18177 0
M  V30 14722 H 1429.83 2.89726 3.67663 0
M  V30 14723 H 1430 4.20613 4.92939 0
M  V30 14724 N 1423.41 -1.329 0.847073 0
M  V30 14725 C 1424.64 -2.01418 0.459829 0
M  V30 14726 C 1425.05 -1.63857 -0.945921 0
M  V30 14727 O 1424.39 -0.851946 -1.6275 0
M  V30 14728 C 1424.45 -3.55859 0.510376 0
M  V30 14729 C 1424.12 -4.16824 1.87368 0
M  V30 14730 C 1425.11 -4.35602 2.83808 0
M  V30 14731 C 1422.8 -4.53067 2.16876 0
M  V30 14732 C 1424.79 -4.89782 4.07912 0
M  V30 14733 C 1422.48 -5.06953 3.41235 0
M  V30 14734 C 1423.48 -5.25258 4.36569 0
M  V30 14735 O 1423.17 -5.77995 5.58728 0
M  V30 14736 H 1422.9 -0.651608 0.179952 0
M  V30 14737 H 1425.45 -1.70624 1.14353 0
M  V30 14738 H 1423.68 -3.86015 -0.230145 0
M  V30 14739 H 1425.37 -4.05659 0.139804 0
M  V30 14740 H 1426.14 -4.07942 2.62313 0
M  V30 14741 H 1422.02 -4.3811 1.43461 0
M  V30 14742 H 1425.56 -5.03985 4.82333 0
M  V30 14743 H 1421.46 -5.34045 3.62583 0
M  V30 14744 H 1422.23 -5.96399 5.60581 0
M  V30 14745 N 1424.89 -0.604284 -1.45555 0
M  V30 14746 C 1426.12 -0.104301 -2.06337 0
M  V30 14747 C 1426.53 1.21523 -1.45013 0
M  V30 14748 O 1425.87 1.75039 -0.557422 0
M  V30 14749 C 1425.93 0.113202 -3.59322 0
M  V30 14750 C 1425.6 -1.12402 -4.42961 0
M  V30 14751 C 1426.59 -2.04136 -4.78147 0
M  V30 14752 C 1424.28 -1.35192 -4.83765 0
M  V30 14753 C 1426.27 -3.16991 -5.52988 0
M  V30 14754 C 1423.96 -2.48348 -5.5836 0
M  V30 14755 C 1424.96 -3.39076 -5.92888 0
M  V30 14756 O 1424.64 -4.50264 -6.65971 0
M  V30 14757 H 1424.38 -0.0644639 -0.672919 0
M  V30 14758 H 1426.93 -0.830982 -1.8784 0
M  V30 14759 H 1425.16 0.894739 -3.76206 0
M  V30 14760 H 1426.85 0.564372 -4.01957 0
M  V30 14761 H 1427.62 -1.87753 -4.47184 0
M  V30 14762 H 1423.49 -0.654731 -4.56327 0
M  V30 14763 H 1427.04 -3.87831 -5.79856 0
M  V30 14764 H 1422.94 -2.64686 -5.88737 0
M  V30 14765 H 1423.7 -4.48904 -6.84418 0
M  V30 14766 N 1426.37 1.53816 -0.343257 0
M  V30 14767 C 1427.61 2.00512 0.252845 0
M  V30 14768 C 1427.94 1.23274 1.51091 0
M  V30 14769 O 1427.21 0.339841 1.9293 0
M  V30 14770 H 1425.79 0.740751 0.0964202 0
M  V30 14771 H 1428.45 1.89288 -0.464347 0
M  V30 14772 H 1427.54 3.08142 0.495499 0
M  V30 14773 N 1427.84 0.0718701 1.57436 0
M  V30 14774 C 1429.26 -0.460784 1.80924 0
M  V30 14775 C 1429.61 -1.69637 0.985781 0
M  V30 14776 O 1428.73 -2.15395 0.208319 0
M  V30 14777 C 1429.33 -0.842738 3.28151 0
M  V30 14778 C 1427.89 -1.32026 3.52486 0
M  V30 14779 C 1427.03 -0.305466 2.75612 0
M  V30 14780 H 1429.98 0.297566 1.55885 0
M  V30 14781 H 1430 -1.70414 3.40205 0
M  V30 14782 H 1429.52 0.056733 3.88059 0
M  V30 14783 H 1427.62 -2.23822 2.97883 0
M  V30 14784 H 1427.73 -1.29813 4.61178 0
M  V30 14785 H 1426.09 -0.782758 2.42374 0
M  V30 14786 H 1426.88 0.586279 3.38257 0
M  V30 14787 N 1429.32 -1.56304 -0.201686 0
M  V30 14788 C 1430.57 -1.79433 -0.921241 0
M  V30 14789 C 1430.88 -0.643943 -1.84696 0
M  V30 14790 O 1432.09 -0.759359 -2.60665 0
M  V30 14791 C 1430.55 -3.17835 -1.68846 0
M  V30 14792 C 1430.15 -4.40655 -0.807892 0
M  V30 14793 C 1431.9 -3.50277 -2.39805 0
M  V30 14794 C 1429.81 -5.7008 -1.5736 0
M  V30 14795 H 1428.74 -0.669029 -0.34773 0
M  V30 14796 H 1431.39 -1.82667 -0.174657 0
M  V30 14797 H 1429.77 -3.08832 -2.47869 0
M  V30 14798 H 1430.94 -4.60765 -0.0567923 0
M  V30 14799 H 1429.26 -4.15873 -0.209465 0
M  V30 14800 H 1431.85 -4.44207 -2.97631 0
M  V30 14801 H 1432.2 -2.7371 -3.1367 0
M  V30 14802 H 1432.73 -3.60698 -1.67754 0
M  V30 14803 H 1429.47 -6.49595 -0.877855 0
M  V30 14804 H 1428.99 -5.53999 -2.2988 0
M  V30 14805 H 1430.67 -6.10964 -2.12912 0
M  V30 14806 N 1430.8 0.469154 -1.50455 0
M  V30 14807 C 1431.71 1.59271 -1.7225 0
M  V30 14808 C 1432.73 1.63119 -0.605668 0
M  V30 14809 O 1433.9 1.80952 -0.884222 0
M  V30 14810 C 1430.97 2.95475 -1.81372 0
M  V30 14811 C 1430.03 3.02 -3.05114 0
M  V30 14812 C 1429.26 4.31707 -3.13791 0
M  V30 14813 O 1429.48 5.2232 -2.29211 0
M  V30 14814 O 1428.42 4.43864 -4.06532 0
M  V30 14815 H 1432.24 1.43804 -2.67496 0
M  V30 14816 H 1429.83 0.648855 -1.34574 0
M  V30 14817 H 1431.71 3.76367 -1.89541 0
M  V30 14818 H 1430.39 3.11136 -0.893094 0
M  V30 14819 H 1429.29 2.20178 -3.02444 0
M  V30 14820 H 1430.63 2.91275 -3.96761 0
M  V30 14821 N 1432.28 1.40065 0.722464 0
M  V30 14822 C 1433.69 1.33876 1.30131 0
M  V30 14823 C 1434.04 0.00899369 1.96198 0
M  V30 14824 O 1433.17 -0.893082 1.97112 0
M  V30 14825 C 1433.76 2.42469 2.36631 0
M  V30 14826 C 1432.32 2.39762 2.90157 0
M  V30 14827 C 1431.47 2.23704 1.63865 0
M  V30 14828 H 1434.42 1.49971 0.519077 0
M  V30 14829 H 1434.44 2.0998 3.17315 0
M  V30 14830 H 1433.95 3.39239 1.88517 0
M  V30 14831 H 1432.05 1.46669 3.42519 0
M  V30 14832 H 1432.16 3.35092 3.42419 0
M  V30 14833 H 1430.53 1.71098 1.88674 0
M  V30 14834 H 1431.31 3.22462 1.17785 0
M  V30 14835 N 1433.76 -0.95397 1.25448 0
M  V30 14836 C 1434.69 -2.05412 1.01679 0
M  V30 14837 C 1435.7 -1.62789 -0.0184932 0
M  V30 14838 O 1436.89 -1.77137 0.220136 0
M  V30 14839 C 1433.99 -3.3496 0.515292 0
M  V30 14840 C 1433.16 -4.06418 1.61688 0
M  V30 14841 C 1432.22 -5.14237 1.11564 0
M  V30 14842 O 1431.25 -5.39649 1.81017 0
M  V30 14843 N 1432.45 -5.80484 -0.0427228 0
M  V30 14844 H 1435.22 -2.26372 1.96407 0
M  V30 14845 H 1432.78 -1.12257 1.16662 0
M  V30 14846 H 1434.77 -4.04366 0.164426 0
M  V30 14847 H 1433.34 -3.10767 -0.33807 0
M  V30 14848 H 1432.56 -3.31101 2.1393 0
M  V30 14849 H 1433.85 -4.50917 2.35693 0
M  V30 14850 H 1433.25 -5.62259 -0.623038 0
M  V30 14851 H 1431.8 -6.50941 -0.334615 0
M  V30 14852 N 1435.24 -1.07045 -1.15668 0
M  V30 14853 C 1436.48 -0.790172 -1.86013 0
M  V30 14854 C 1436.8 0.685663 -1.82548 0
M  V30 14855 O 1436.07 1.49644 -1.26426 0
M  V30 14856 H 1434.65 -0.28931 -0.688701 0
M  V30 14857 H 1437.32 -1.35354 -1.40233 0
M  V30 14858 H 1436.41 -1.1219 -2.91239 0
M  V30 14859 N 1436.71 1.32449 -0.85411 0
M  V30 14860 C 1437.64 2.31383 -0.313697 0
M  V30 14861 C 1438.62 1.59656 0.586858 0
M  V30 14862 O 1439.81 1.87459 0.507216 0
M  V30 14863 C 1436.94 3.43693 0.499235 0
M  V30 14864 C 1435.89 4.26899 -0.306839 0
M  V30 14865 C 1435.22 5.30966 0.630795 0
M  V30 14866 C 1436.52 4.99318 -1.53229 0
M  V30 14867 H 1438.21 2.76832 -1.14037 0
M  V30 14868 H 1435.76 1.33091 -0.549805 0
M  V30 14869 H 1437.71 4.11944 0.887709 0
M  V30 14870 H 1436.44 2.96971 1.35926 0
M  V30 14871 H 1435.1 3.60294 -0.677061 0
M  V30 14872 H 1434.74 4.80498 1.48765 0
M  V30 14873 H 1434.44 5.87522 0.0954635 0
M  V30 14874 H 1435.97 6.0208 1.01646 0
M  V30 14875 H 1437.38 5.60253 -1.21614 0
M  V30 14876 H 1435.78 5.65596 -2.00552 0
M  V30 14877 H 1436.85 4.27213 -2.29383 0
M  V30 14878 N 1438.19 0.611994 1.45232 0
M  V30 14879 C 1439.44 0.108696 2.01807 0
M  V30 14880 C 1439.76 -1.26692 1.48237 0
M  V30 14881 O 1439.03 -1.8378 0.678368 0
M  V30 14882 H 1437.61 0.0371921 0.746074 0
M  V30 14883 H 1440.27 0.794386 1.77976 0
M  V30 14884 H 1439.37 0.0618207 3.12039 0
M  V30 14885 N 1439.67 -1.53632 0.351409 0
M  V30 14886 C 1440.6 -2.28217 -0.49391 0
M  V30 14887 C 1441.58 -1.30085 -1.09599 0
M  V30 14888 O 1442.77 -1.58938 -1.1159 0
M  V30 14889 C 1439.9 -3.06085 -1.64102 0
M  V30 14890 C 1438.85 -4.11786 -1.16689 0
M  V30 14891 C 1438.18 -4.77654 -2.40314 0
M  V30 14892 C 1439.48 -5.21644 -0.261742 0
M  V30 14893 H 1441.17 -2.99125 0.1283 0
M  V30 14894 H 1438.72 -1.43861 0.0631462 0
M  V30 14895 H 1440.67 -3.57003 -2.2389 0
M  V30 14896 H 1439.39 -2.32842 -2.29025 0
M  V30 14897 H 1438.05 -3.61792 -0.591784 0
M  V30 14898 H 1437.7 -4.00997 -3.03661 0
M  V30 14899 H 1437.4 -5.49072 -2.09268 0
M  V30 14900 H 1438.92 -5.3136 -3.00813 0
M  V30 14901 H 1440.34 -5.6815 -0.766689 0
M  V30 14902 H 1438.73 -6.00085 -0.0428132 0
M  V30 14903 H 1439.8 -4.79821 0.699999 0
M  V30 14904 N 1441.15 -0.0802183 -1.57396 0
M  V30 14905 C 1442.4 0.585802 -1.93424 0
M  V30 14906 C 1442.72 1.69638 -0.961662 0
M  V30 14907 O 1441.99 1.95897 -0.011202 0
M  V30 14908 H 1440.57 0.219382 -0.714059 0
M  V30 14909 H 1443.23 -0.140055 -1.94396 0
M  V30 14910 H 1442.32 1.00566 -2.95454 0
M  V30 14911 N 1442.63 1.56409 0.193394 0
M  V30 14912 C 1443.56 1.97707 1.24234 0
M  V30 14913 C 1444.54 0.849286 1.47381 0
M  V30 14914 O 1445.72 1.11374 1.59089 0
M  V30 14915 C 1442.85 2.31804 2.5862 0
M  V30 14916 C 1441.81 3.47337 2.50082 0
M  V30 14917 C 1441.13 3.67114 3.88756 0
M  V30 14918 C 1442.43 4.81472 2.02441 0
M  V30 14919 H 1444.13 2.8558 0.89914 0
M  V30 14920 H 1441.67 1.37396 0.431078 0
M  V30 14921 H 1443.62 2.5929 3.32185 0
M  V30 14922 H 1442.35 1.40816 2.94684 0
M  V30 14923 H 1441.01 3.19944 1.78973 0
M  V30 14924 H 1440.66 2.73454 4.22175 0
M  V30 14925 H 1440.36 4.44838 3.83918 0
M  V30 14926 H 1441.88 3.96978 4.6394 0
M  V30 14927 H 1443.29 5.07978 2.65766 0
M  V30 14928 H 1441.69 5.62677 2.08601 0
M  V30 14929 H 1442.76 4.74941 0.977704 0
M  V30 14930 N 1444.1 -0.461169 1.50702 0
M  V30 14931 C 1445.35 -1.21012 1.61866 0
M  V30 14932 C 1445.67 -1.9226 0.325736 0
M  V30 14933 O 1444.94 -1.84543 -0.657306 0
M  V30 14934 H 1443.52 -0.449671 0.596494 0
M  V30 14935 H 1446.18 -0.531056 1.87525 0
M  V30 14936 H 1445.28 -1.95266 2.4347 0
M  V30 14937 N 1445.58 -1.40446 -0.715026 0
M  V30 14938 C 1446.49 -1.43074 -1.85922 0
M  V30 14939 C 1447.51 -0.323294 -1.7097 0
M  V30 14940 O 1448.68 -0.567966 -1.93226 0
M  V30 14941 C 1445.75 -1.29206 -3.21725 0
M  V30 14942 C 1444.81 -2.50097 -3.48927 0
M  V30 14943 C 1444.04 -2.36881 -4.7825 0
M  V30 14944 O 1444.27 -1.38292 -5.53382 0
M  V30 14945 O 1443.2 -3.26266 -5.058 0
M  V30 14946 H 1447.03 -2.39565 -1.86661 0
M  V30 14947 H 1444.61 -1.21775 -0.865522 0
M  V30 14948 H 1446.49 -1.23681 -4.02841 0
M  V30 14949 H 1445.17 -0.358207 -3.21712 0
M  V30 14950 H 1444.07 -2.61199 -2.67817 0
M  V30 14951 H 1445.41 -3.42244 -3.53737 0
M  V30 14952 N 1447.06 0.947303 -1.25952 0
M  V30 14953 C 1448.02 2.02667 -1.07046 0
M  V30 14954 C 1449.02 1.60787 -0.0208127 0
M  V30 14955 O 1450.21 1.72193 -0.263668 0
M  V30 14956 C 1447.34 3.35087 -0.626885 0
M  V30 14957 H 1448.54 2.20871 -2.0287 0
M  V30 14958 H 1446.09 1.12541 -1.08462 0
M  V30 14959 H 1446.83 3.22579 0.333621 0
M  V30 14960 H 1446.61 3.66835 -1.38473 0
M  V30 14961 H 1448.1 4.14397 -0.516264 0
M  V30 14962 N 1448.54 1.07657 1.15099 0
M  V30 14963 C 1449.95 0.802696 1.37945 0
M  V30 14964 C 1450.15 -0.591622 1.92619 0
M  V30 14965 O 1449.21 -1.34979 2.13394 0
M  V30 14966 C 1450.52 1.87907 2.34759 0
M  V30 14967 C 1452.07 1.90418 2.48415 0
M  V30 14968 C 1452.55 2.97148 3.48521 0
M  V30 14969 N 1454.04 2.96271 3.56059 0
M  V30 14970 C 1454.77 3.75498 4.33346 0
M  V30 14971 N 1454.27 4.64583 5.1394 0
M  V30 14972 N 1456.06 3.63831 4.28466 0
M  V30 14973 H 1448.21 1.97578 0.779537 0
M  V30 14974 H 1450.48 0.856978 0.405331 0
M  V30 14975 H 1450.18 2.8811 2.01707 0
M  V30 14976 H 1450.06 1.74183 3.34575 0
M  V30 14977 H 1452.44 0.908655 2.80762 0
M  V30 14978 H 1452.52 2.0822 1.48586 0
M  V30 14979 H 1452.17 3.96903 3.16908 0
M  V30 14980 H 1452.1 2.76593 4.48112 0
M  V30 14981 H 1454.59 2.31697 2.98538 0
M  V30 14982 H 1454.9 5.2166 5.70167 0
M  V30 14983 H 1453.25 4.6863 5.13236 0
M  V30 14984 H 1456.44 2.93609 3.6457 0
M  V30 14985 H 1456.61 4.25818 4.8845 0
M  V30 14986 N 1450.02 -1.31994 0.861122 0
M  V30 14987 C 1450.98 -2.27019 0.315421 0
M  V30 14988 C 1451.98 -1.51864 -0.528575 0
M  V30 14989 O 1453.17 -1.70867 -0.339154 0
M  V30 14990 C 1450.3 -3.36384 -0.553021 0
M  V30 14991 H 1451.49 -2.768 1.1542 0
M  V30 14992 H 1449.05 -1.42776 0.635982 0
M  V30 14993 H 1449.78 -2.91882 -1.41335 0
M  V30 14994 H 1449.57 -3.92067 0.0511919 0
M  V30 14995 H 1451.06 -4.07172 -0.927392 0
M  V30 14996 N 1451.49 -0.619688 -1.44906 0
M  V30 14997 C 1452.46 0.0822364 -2.29052 0
M  V30 14998 C 1453.46 0.783427 -1.40425 0
M  V30 14999 O 1454.65 0.629751 -1.62419 0
M  V30 15000 C 1451.78 1.12685 -3.21737 0
M  V30 15001 H 1452.97 -0.657726 -2.92599 0
M  V30 15002 H 1450.53 -0.379286 -1.51628 0
M  V30 15003 H 1451.26 1.89717 -2.63017 0
M  V30 15004 H 1451.05 0.628122 -3.87036 0
M  V30 15005 H 1452.54 1.61808 -3.84978 0
M  V30 15006 N 1452.97 1.53444 -0.359552 0
M  V30 15007 C 1454.38 1.86308 0.120955 0
M  V30 15008 C 1454.73 1.28033 1.48667 0
M  V30 15009 O 1453.86 0.600041 2.07915 0
M  V30 15010 C 1454.45 3.38044 0.226255 0
M  V30 15011 C 1453.01 3.70727 0.65101 0
M  V30 15012 C 1452.16 2.76538 -0.205482 0
M  V30 15013 H 1455.11 1.47778 -0.578569 0
M  V30 15014 H 1455.13 3.65699 1.05092 0
M  V30 15015 H 1454.64 3.80428 -0.767874 0
M  V30 15016 H 1452.75 3.33897 1.65359 0
M  V30 15017 H 1452.86 4.77168 0.429802 0
M  V30 15018 H 1451.22 2.52622 0.3247 0
M  V30 15019 H 1452.01 3.21754 -1.19704 0
M  V30 15020 N 1454.45 0.0885642 1.57351 0
M  V30 15021 C 1455.87 -0.268088 1.57332 0
M  V30 15022 C 1456.07 -1.68875 1.09924 0
M  V30 15023 O 1455.12 -2.40385 0.772729 0
M  V30 15024 C 1456.44 -0.0624654 3.00635 0
M  V30 15025 C 1457.98 -0.130717 3.12727 0
M  V30 15026 C 1458.46 0.0468305 4.57976 0
M  V30 15027 N 1459.95 -0.00822093 4.63199 0
M  V30 15028 C 1460.68 0.104497 5.73305 0
M  V30 15029 N 1460.18 0.271682 6.92267 0
M  V30 15030 N 1461.97 0.0462333 5.62081 0
M  V30 15031 H 1454.12 1.01686 1.86477 0
M  V30 15032 H 1456.39 0.397971 0.86042 0
M  V30 15033 H 1456.09 0.918505 3.39494 0
M  V30 15034 H 1455.97 -0.807602 3.68453 0
M  V30 15035 H 1458.35 -1.10219 2.73744 0
M  V30 15036 H 1458.44 0.645801 2.47514 0
M  V30 15037 H 1458.08 1.01514 4.97652 0
M  V30 15038 H 1458.01 -0.7493 5.21242 0
M  V30 15039 H 1460.5 -0.135164 3.77658 0
M  V30 15040 H 1460.81 0.349381 7.7201 0
M  V30 15041 H 1459.16 0.307265 6.9432 0
M  V30 15042 H 1462.35 -0.0831995 4.68026 0
M  V30 15043 H 1462.52 0.137529 6.47854 0
M  V30 15044 N 1455.93 -1.56509 -0.185096 0
M  V30 15045 C 1457.18 -1.80848 -0.902139 0
M  V30 15046 C 1457.5 -0.663295 -1.83372 0
M  V30 15047 O 1456.77 0.317754 -1.93306 0
M  V30 15048 H 1455.35 -0.667108 -0.336119 0
M  V30 15049 H 1458.01 -1.93989 -0.188211 0
M  V30 15050 H 1457.11 -2.74383 -1.48729 0
M  V30 15051 N 1457.41 0.45317 -1.50944 0
M  V30 15052 C 1458.37 1.5313 -1.7054 0
M  V30 15053 C 1459.37 1.50142 -0.575678 0
M  V30 15054 O 1460.56 1.52444 -0.842997 0
M  V30 15055 C 1457.69 2.92719 -1.74723 0
M  V30 15056 H 1458.88 1.37066 -2.66745 0
M  V30 15057 H 1456.44 0.680783 -1.40695 0
M  V30 15058 H 1457.17 3.14208 -0.802753 0
M  V30 15059 H 1456.96 2.96295 -2.56811 0
M  V30 15060 H 1458.45 3.7096 -1.91777 0
M  V30 15061 N 1458.88 1.40823 0.707568 0
M  V30 15062 C 1459.85 1.41464 1.80334 0
M  V30 15063 C 1460.85 0.307143 1.57839 0
M  V30 15064 O 1462.04 0.566444 1.64733 0
M  V30 15065 C 1459.17 1.21426 3.18541 0
M  V30 15066 H 1460.36 2.38998 1.81162 0
M  V30 15067 H 1457.92 1.2679 0.914007 0
M  V30 15068 H 1458.65 0.246847 3.23359 0
M  V30 15069 H 1458.44 2.01657 3.36269 0
M  V30 15070 H 1459.93 1.24681 3.98553 0
M  V30 15071 N 1460.36 -0.94061 1.26453 0
M  V30 15072 C 1461.61 -1.68354 1.11809 0
M  V30 15073 C 1461.93 -1.9203 -0.339037 0
M  V30 15074 O 1461.2 -1.51739 -1.23903 0
M  V30 15075 H 1459.78 -0.623916 0.410777 0
M  V30 15076 H 1462.44 -1.13014 1.58789 0
M  V30 15077 H 1461.54 -2.65706 1.63728 0
M  V30 15078 N 1461.84 -1.08266 -1.14527 0
M  V30 15079 C 1463.26 -0.810001 -1.37518 0
M  V30 15080 C 1463.46 0.581399 -1.9293 0
M  V30 15081 O 1462.51 1.33846 -2.14107 0
M  V30 15082 C 1463.83 -1.89149 -2.33759 0
M  V30 15083 C 1465.37 -1.91733 -2.47401 0
M  V30 15084 C 1465.85 -2.98992 -3.4694 0
M  V30 15085 N 1467.34 -2.98155 -3.54483 0
M  V30 15086 C 1468.07 -3.77791 -4.31349 0
M  V30 15087 N 1467.57 -4.67302 -5.11469 0
M  V30 15088 N 1469.36 -3.66099 -4.2653 0
M  V30 15089 H 1461.51 -1.97988 -0.769048 0
M  V30 15090 H 1463.78 -0.859115 -0.40078 0
M  V30 15091 H 1463.48 -2.89175 -2.00176 0
M  V30 15092 H 1463.36 -1.75955 -3.33646 0
M  V30 15093 H 1465.74 -0.923531 -2.80276 0
M  V30 15094 H 1465.83 -2.09005 -1.4748 0
M  V30 15095 H 1465.47 -3.98578 -3.14799 0
M  V30 15096 H 1465.4 -2.78965 -4.46639 0
M  V30 15097 H 1467.89 -2.33277 -2.97305 0
M  V30 15098 H 1468.2 -5.24676 -5.67393 0
M  V30 15099 H 1466.55 -4.71345 -5.10743 0
M  V30 15100 H 1469.74 -2.95539 -3.63008 0
M  V30 15101 H 1469.91 -4.28402 -4.86185 0
M  V30 15102 N 1463.32 1.31536 -0.86811 0
M  V30 15103 C 1464.73 1.78991 -0.530937 0
M  V30 15104 C 1465.08 1.71553 0.952046 0
M  V30 15105 O 1464.21 1.28216 1.74326 0
M  V30 15106 C 1464.8 3.25004 -0.956981 0
M  V30 15107 C 1463.36 3.70362 -0.671495 0
M  V30 15108 C 1462.51 2.52361 -1.14932 0
M  V30 15109 H 1465.46 1.18644 -1.05401 0
M  V30 15110 H 1465.48 3.79477 -0.278883 0
M  V30 15111 H 1464.99 3.30385 -2.03635 0
M  V30 15112 H 1463.09 3.70483 0.39659 0
M  V30 15113 H 1463.21 4.62581 -1.24722 0
M  V30 15114 H 1461.57 2.4826 -0.569144 0
M  V30 15115 H 1462.35 2.60489 -2.23608 0
M  V30 15116 N 1464.8 0.627364 1.44575 0
M  V30 15117 C 1465.73 -0.066735 2.33405 0
M  V30 15118 C 1466.71 -0.838666 1.47988 0
M  V30 15119 O 1467.89 -0.805296 1.76716 0
M  V30 15120 C 1465.02 -1.05148 3.31 0
M  V30 15121 C 1463.98 -0.391433 4.26206 0
M  V30 15122 C 1463.3 -1.48581 5.13642 0
M  V30 15123 C 1464.6 0.699942 5.17589 0
M  V30 15124 H 1466.3 0.675029 2.91691 0
M  V30 15125 H 1463.84 0.326066 1.4026 0
M  V30 15126 H 1465.8 -1.54576 3.92026 0
M  V30 15127 H 1464.52 -1.82408 2.70915 0
M  V30 15128 H 1463.18 0.0821694 3.66508 0
M  V30 15129 H 1462.83 -2.2492 4.49911 0
M  V30 15130 H 1462.53 -1.04957 5.7815 0
M  V30 15131 H 1464.05 -1.98198 5.77538 0
M  V30 15132 H 1465.47 0.288911 5.72572 0
M  V30 15133 H 1463.86 1.0591 5.9068 0
M  V30 15134 H 1464.93 1.5686 4.58828 0
M  V30 15135 N 1466.28 -1.53251 0.367684 0
M  V30 15136 C 1467.5 -2.0618 -0.224645 0
M  V30 15137 C 1467.93 -1.23927 -1.41505 0
M  V30 15138 O 1467.28 -0.258858 -1.79443 0
M  V30 15139 C 1467.33 -3.55671 -0.594171 0
M  V30 15140 O 1466.44 -3.76132 -1.69112 0
M  V30 15141 H 1465.78 -0.663218 -0.0322099 0
M  V30 15142 H 1468.31 -1.97646 0.528897 0
M  V30 15143 H 1468.32 -3.98734 -0.864589 0
M  V30 15144 H 1466.99 -4.14982 0.276254 0
M  V30 15145 H 1465.57 -3.44965 -1.41609 0
M  V30 15146 N 1467.75 -0.0969077 -1.57302 0
M  V30 15147 C 1469.16 0.431942 -1.81635 0
M  V30 15148 C 1469.52 1.68047 -1.01264 0
M  V30 15149 O 1468.64 2.15036 -0.24256 0
M  V30 15150 C 1469.24 0.790426 -3.29451 0
M  V30 15151 C 1467.79 1.26401 -3.54542 0
M  V30 15152 C 1466.94 0.26158 -2.76063 0
M  V30 15153 H 1469.89 -0.322328 -1.55392 0
M  V30 15154 H 1469.91 1.64981 -3.42873 0
M  V30 15155 H 1469.43 -0.118463 -3.87919 0
M  V30 15156 H 1467.53 2.19055 -3.01406 0
M  V30 15157 H 1467.64 1.22459 -4.63185 0
M  V30 15158 H 1466 0.7441 -2.43588 0
M  V30 15159 H 1466.79 -0.640018 -3.37281 0
M  V30 15160 N 1469.23 1.56605 0.176793 0
M  V30 15161 C 1470.64 1.71418 0.739775 0
M  V30 15162 C 1470.99 0.706527 1.83037 0
M  V30 15163 O 1470.12 -0.133259 2.15989 0
M  V30 15164 C 1470.71 3.10799 1.34867 0
M  V30 15165 C 1469.27 3.27315 1.85854 0
M  V30 15166 C 1468.42 2.67371 0.73541 0
M  V30 15167 H 1471.37 1.58626 -0.0485305 0
M  V30 15168 H 1471.39 3.09146 2.21831 0
M  V30 15169 H 1470.9 3.84116 0.554688 0
M  V30 15170 H 1469 2.58947 2.67913 0
M  V30 15171 H 1469.12 4.35002 2.00774 0
M  V30 15172 H 1467.48 2.27035 1.15444 0
M  V30 15173 H 1468.26 3.43268 -0.0466351 0
M  V30 15174 N 1470.71 -0.445159 1.51182 0
M  V30 15175 C 1471.67 -1.52224 1.71349 0
M  V30 15176 C 1472.67 -1.49834 0.583632 0
M  V30 15177 O 1473.86 -1.51995 0.85107 0
M  V30 15178 C 1470.99 -2.91789 1.76273 0
M  V30 15179 H 1472.19 -1.35649 2.67468 0
M  V30 15180 H 1469.74 -0.673312 1.41054 0
M  V30 15181 H 1470.48 -3.13777 0.819405 0
M  V30 15182 H 1470.26 -2.94928 2.58379 0
M  V30 15183 H 1471.75 -3.69938 1.93741 0
M  V30 15184 N 1472.19 -1.41197 -0.700089 0
M  V30 15185 C 1473.15 -1.42419 -1.79582 0
M  V30 15186 C 1474.15 -0.31551 -1.57674 0
M  V30 15187 O 1475.34 -0.575173 -1.64431 0
M  V30 15188 C 1472.47 -1.23114 -3.17893 0
M  V30 15189 H 1473.67 -2.39956 -1.79892 0
M  V30 15190 H 1471.22 -1.27273 -0.907271 0
M  V30 15191 H 1471.95 -0.263992 -3.23224 0
M  V30 15192 H 1471.74 -2.03437 -3.35195 0
M  V30 15193 H 1473.23 -1.26793 -3.97886 0
M  V30 15194 N 1473.67 0.933891 -1.2695 0
M  V30 15195 C 1474.6 2.03768 -1.04934 0
M  V30 15196 C 1475.61 1.62798 -0.00740752 0
M  V30 15197 O 1476.8 1.76765 -0.248289 0
M  V30 15198 C 1473.9 3.34097 -0.568515 0
M  V30 15199 C 1473.07 4.03794 -1.68133 0
M  V30 15200 C 1472.13 5.12397 -1.19731 0
M  V30 15201 O 1471.16 5.36701 -1.89579 0
M  V30 15202 N 1472.36 5.80479 -0.0496327 0
M  V30 15203 H 1475.12 2.23219 -1.99984 0
M  V30 15204 H 1472.69 1.10386 -1.18433 0
M  V30 15205 H 1474.68 4.04053 -0.228736 0
M  V30 15206 H 1473.25 3.11265 0.288587 0
M  V30 15207 H 1472.47 3.27655 -2.1917 0
M  V30 15208 H 1473.76 4.4711 -2.42837 0
M  V30 15209 H 1473.15 5.63179 0.533509 0
M  V30 15210 H 1471.71 6.5139 0.231014 0
M  V30 15211 N 1475.14 1.08871 1.13951 0
M  V30 15212 C 1476.55 0.841552 1.66658 0
M  V30 15213 C 1476.91 -0.630932 1.85779 0
M  V30 15214 O 1476.03 -1.48673 1.57243 0
M  V30 15215 C 1476.63 1.52109 3.02735 0
M  V30 15216 C 1475.18 1.32105 3.52456 0
M  V30 15217 C 1474.33 1.58084 2.27826 0
M  V30 15218 H 1477.28 1.24865 0.97951 0
M  V30 15219 H 1477.3 0.950978 3.68425 0
M  V30 15220 H 1476.82 2.59276 2.88786 0
M  V30 15221 H 1474.92 0.270294 3.71618 0
M  V30 15222 H 1475.03 2.05197 4.32933 0
M  V30 15223 H 1473.39 1.00264 2.34135 0
M  V30 15224 H 1474.18 2.66467 2.16449 0
M  V30 15225 N 1476.62 -1.31073 0.875073 0
M  V30 15226 C 1478.03 -1.78707 0.540422 0
M  V30 15227 C 1478.38 -1.72056 -0.942935 0
M  V30 15228 O 1477.51 -1.29139 -1.73643 0
M  V30 15229 C 1478.1 -3.24491 0.974203 0
M  V30 15230 C 1476.66 -3.70001 0.691127 0
M  V30 15231 C 1475.81 -2.51748 1.16269 0
M  V30 15232 H 1478.76 -1.18083 1.06029 0
M  V30 15233 H 1478.78 -3.79323 0.299003 0
M  V30 15234 H 1478.29 -3.29301 2.05384 0
M  V30 15235 H 1476.39 -3.70688 -0.376937 0
M  V30 15236 H 1476.51 -4.61913 1.27173 0
M  V30 15237 H 1474.87 -2.47954 0.582302 0
M  V30 15238 H 1475.65 -2.59299 2.24986 0
M  V30 15239 N 1478.1 -0.635022 -1.4424 0
M  V30 15240 C 1479.03 0.106038 -2.28955 0
M  V30 15241 C 1480.05 0.805076 -1.415 0
M  V30 15242 O 1481.23 0.665872 -1.65615 0
M  V30 15243 C 1478.33 1.17252 -3.1797 0
M  V30 15244 C 1477.51 0.555225 -4.33862 0
M  V30 15245 C 1476.57 1.51618 -5.03883 0
M  V30 15246 O 1475.59 1.03181 -5.5977 0
M  V30 15247 N 1476.79 2.85048 -5.05696 0
M  V30 15248 H 1479.56 -0.620999 -2.93196 0
M  V30 15249 H 1477.12 -0.476466 -1.5473 0
M  V30 15250 H 1479.11 1.81578 -3.61679 0
M  V30 15251 H 1477.68 1.80174 -2.55453 0
M  V30 15252 H 1476.9 -0.266745 -3.93296 0
M  V30 15253 H 1478.19 0.123529 -5.0865 0
M  V30 15254 H 1477.59 3.26977 -4.6163 0
M  V30 15255 H 1476.15 3.44724 -5.5318 0
M  V30 15256 N 1479.58 1.53054 -0.375806 0
M  V30 15257 C 1480.53 2.2605 0.46582 0
M  V30 15258 C 1481.5 1.27123 1.06906 0
M  V30 15259 O 1482.68 1.55926 1.09963 0
M  V30 15260 C 1479.82 3.06066 1.59429 0
M  V30 15261 C 1478.93 4.19901 1.01523 0
M  V30 15262 C 1478.07 4.87339 2.11363 0
M  V30 15263 C 1477.11 5.93189 1.50976 0
M  V30 15264 N 1476.24 6.54276 2.54692 0
M  V30 15265 H 1481.08 2.97553 -0.163149 0
M  V30 15266 H 1478.62 1.4681 -0.092282 0
M  V30 15267 H 1480.58 3.50739 2.25915 0
M  V30 15268 H 1479.21 2.36799 2.19377 0
M  V30 15269 H 1478.26 3.7964 0.240346 0
M  V30 15270 H 1479.57 4.95935 0.533812 0
M  V30 15271 H 1478.73 5.35247 2.85649 0
M  V30 15272 H 1477.47 4.10799 2.6286 0
M  V30 15273 H 1476.47 5.44632 0.752095 0
M  V30 15274 H 1477.7 6.71654 1.00291 0
M  V30 15275 H 1475.64 5.80584 3.05383 0
M  V30 15276 H 1475.56 7.2588 2.11267 0
M  V30 15277 H 1476.83 7.06831 3.28648 0
M  V30 15278 N 1481.06 0.105248 1.57248 0
M  V30 15279 C 1482.47 -0.422304 1.81861 0
M  V30 15280 C 1482.82 -1.67508 1.02154 0
M  V30 15281 O 1481.94 -2.14905 0.253961 0
M  V30 15282 C 1482.54 -0.772943 3.29865 0
M  V30 15283 C 1481.1 -1.24519 3.55207 0
M  V30 15284 C 1480.24 -0.246936 2.76198 0
M  V30 15285 H 1483.2 0.330565 1.55219 0
M  V30 15286 H 1483.22 -1.6316 3.43743 0
M  V30 15287 H 1482.73 0.139033 3.87851 0
M  V30 15288 H 1480.83 -2.17453 3.02564 0
M  V30 15289 H 1480.94 -1.20001 4.63828 0
M  V30 15290 H 1479.31 -0.731171 2.43979 0
M  V30 15291 H 1480.09 0.657896 3.36937 0
M  V30 15292 N 1482.53 -1.56697 -0.168486 0
M  V30 15293 C 1483.95 -1.71808 -0.730674 0
M  V30 15294 C 1484.3 -0.716224 -1.8266 0
M  V30 15295 O 1483.42 0.121803 -2.16057 0
M  V30 15296 C 1484.02 -3.1151 -1.33217 0
M  V30 15297 C 1482.58 -3.28297 -1.84115 0
M  V30 15298 C 1481.72 -2.67757 -0.72122 0
M  V30 15299 H 1484.67 -1.58598 0.0569421 0
M  V30 15300 H 1484.69 -3.10318 -2.20189 0
M  V30 15301 H 1484.21 -3.84404 -0.53431 0
M  V30 15302 H 1482.31 -2.60364 -2.66536 0
M  V30 15303 H 1482.42 -4.3606 -1.98464 0
M  V30 15304 H 1480.78 -2.27644 -1.14239 0
M  V30 15305 H 1481.57 -3.43239 0.0648388 0
M  V30 15306 N 1484.01 0.437135 -1.51416 0
M  V30 15307 C 1485.42 1.01699 -1.5657 0
M  V30 15308 C 1485.77 1.92299 -0.389291 0
M  V30 15309 O 1484.9 2.10689 0.49389 0
M  V30 15310 C 1485.49 1.85119 -2.83754 0
M  V30 15311 C 1484.05 2.38154 -2.91478 0
M  V30 15312 C 1483.2 1.17374 -2.51234 0
M  V30 15313 H 1486.15 0.218399 -1.5719 0
M  V30 15314 H 1486.17 2.70572 -2.67528 0
M  V30 15315 H 1485.68 1.19153 -3.69357 0
M  V30 15316 H 1483.79 3.07575 -2.10306 0
M  V30 15317 H 1483.9 2.70937 -3.95133 0
M  V30 15318 H 1482.26 1.51913 -2.04437 0
M  V30 15319 H 1483.05 0.530176 -3.39181 0
M  V30 15320 N 1485.49 1.41566 0.692592 0
M  V30 15321 C 1486.72 1.44646 1.48635 0
M  V30 15322 C 1487.14 0.0541597 1.88022 0
M  V30 15323 O 1486.5 -0.943305 1.54827 0
M  V30 15324 C 1486.55 2.3636 2.72335 0
M  V30 15325 O 1485.65 1.8227 3.69934 0
M  V30 15326 H 1484.99 0.490791 0.447236 0
M  V30 15327 H 1487.52 1.8606 0.851056 0
M  V30 15328 H 1487.53 2.52337 3.20609 0
M  V30 15329 H 1486.21 3.37523 2.43004 0
M  V30 15330 H 1484.78 1.75759 3.28882 0
M  V30 15331 N 1486.97 -0.927146 1.27443 0
M  V30 15332 C 1488.2 -1.70648 1.1646 0
M  V30 15333 C 1488.61 -1.871 -0.28114 0
M  V30 15334 O 1487.95 -1.38813 -1.20319 0
M  V30 15335 C 1488.01 -3.12542 1.77646 0
M  V30 15336 C 1487.68 -3.19425 3.26828 0
M  V30 15337 C 1488.67 -3.01633 4.23454 0
M  V30 15338 C 1486.36 -3.42366 3.67547 0
M  V30 15339 C 1488.35 -3.06672 5.58776 0
M  V30 15340 C 1486.04 -3.47039 5.02998 0
M  V30 15341 C 1487.04 -3.2921 5.98423 0
M  V30 15342 O 1486.72 -3.33619 7.31405 0
M  V30 15343 H 1486.46 -0.540657 0.40579 0
M  V30 15344 H 1489.01 -1.16983 1.68832 0
M  V30 15345 H 1487.24 -3.67691 1.19752 0
M  V30 15346 H 1488.93 -3.72445 1.61369 0
M  V30 15347 H 1489.7 -2.8375 3.93333 0
M  V30 15348 H 1485.57 -3.55294 2.93747 0
M  V30 15349 H 1489.12 -2.92674 6.33236 0
M  V30 15350 H 1485.02 -3.64446 5.32775 0
M  V30 15351 H 1485.78 -3.5007 7.3986 0
M  V30 15352 N 1488.45 -1.09474 -1.13372 0
M  V30 15353 C 1489.69 -0.831091 -1.84659 0
M  V30 15354 C 1490.02 0.643294 -1.83554 0
M  V30 15355 O 1489.28 1.48958 -1.26925 0
M  V30 15356 C 1489.58 -1.31208 -3.32444 0
M  V30 15357 C 1489.24 -2.79617 -3.5373 0
M  V30 15358 C 1487.9 -3.20147 -3.59248 0
M  V30 15359 C 1490.26 -3.75303 -3.61659 0
M  V30 15360 C 1487.58 -4.55135 -3.70228 0
M  V30 15361 C 1489.94 -5.1008 -3.74167 0
M  V30 15362 C 1488.6 -5.50199 -3.77938 0
M  V30 15363 H 1487.87 -0.304118 -0.675717 0
M  V30 15364 H 1490.52 -1.36961 -1.33843 0
M  V30 15365 H 1488.82 -0.693379 -3.85616 0
M  V30 15366 H 1490.52 -1.08469 -3.86051 0
M  V30 15367 H 1487.11 -2.47253 -3.50091 0
M  V30 15368 H 1491.29 -3.45103 -3.56676 0
M  V30 15369 H 1486.55 -4.85656 -3.71414 0
M  V30 15370 H 1490.72 -5.84077 -3.79245 0
M  V30 15371 H 1488.35 -6.54794 -3.86198 0
M  V30 15372 N 1489.92 1.30607 -0.882012 0
M  V30 15373 C 1490.89 2.26489 -0.351498 0
M  V30 15374 C 1491.89 1.52686 0.504348 0
M  V30 15375 O 1493.08 1.71385 0.311928 0
M  V30 15376 C 1490.21 3.37222 0.499435 0
M  V30 15377 H 1491.4 2.74929 -1.19809 0
M  V30 15378 H 1488.96 1.41746 -0.658616 0
M  V30 15379 H 1489.69 2.94093 1.36673 0
M  V30 15380 H 1489.48 3.91936 -0.11356 0
M  V30 15381 H 1490.97 4.08596 0.862497 0
M  V30 15382 N 1491.4 0.642663 1.43901 0
M  V30 15383 C 1492.65 0.149167 2.01148 0
M  V30 15384 C 1492.96 -1.2405 1.51231 0
M  V30 15385 O 1494.17 -1.82864 2.00681 0
M  V30 15386 C 1492.63 0.215891 3.59252 0
M  V30 15387 C 1492.23 1.60759 4.18163 0
M  V30 15388 C 1493.98 -0.220546 4.23927 0
M  V30 15389 C 1491.89 1.62881 5.68528 0
M  V30 15390 H 1490.82 0.0520015 0.752205 0
M  V30 15391 H 1493.47 0.803152 1.6499 0
M  V30 15392 H 1491.85 -0.505409 3.92762 0
M  V30 15393 H 1493.02 2.3534 3.96171 0
M  V30 15394 H 1491.34 1.9891 3.65819 0
M  V30 15395 H 1493.93 -0.224389 5.34229 0
M  V30 15396 H 1494.28 -1.25003 3.97089 0
M  V30 15397 H 1494.81 0.448646 3.95262 0
M  V30 15398 H 1491.55 2.63704 6.00117 0
M  V30 15399 H 1491.07 0.926104 5.92607 0
M  V30 15400 H 1492.75 1.36785 6.32375 0
M  V30 15401 N 1492.88 -1.52852 0.383918 0
M  V30 15402 C 1494.13 -2.01809 -0.200285 0
M  V30 15403 C 1494.46 -1.27009 -1.46909 0
M  V30 15404 O 1493.74 -0.369002 -1.90968 0
M  V30 15405 C 1494.02 -3.56971 -0.473672 0
M  V30 15406 C 1493.87 -4.42446 0.810048 0
M  V30 15407 C 1495.19 -4.21481 -1.26658 0
M  V30 15408 H 1492.31 -0.733541 -0.0713192 0
M  V30 15409 H 1494.95 -1.8296 0.512425 0
M  V30 15410 H 1493.1 -3.73163 -1.08081 0
M  V30 15411 H 1494.77 -4.38016 1.44706 0
M  V30 15412 H 1493.02 -4.09674 1.42652 0
M  V30 15413 H 1493.69 -5.49013 0.573478 0
M  V30 15414 H 1496.16 -4.09233 -0.752806 0
M  V30 15415 H 1495.04 -5.30037 -1.42661 0
M  V30 15416 H 1495.3 -3.78756 -2.28028 0
M  V30 15417 N 1494.36 -0.113586 -1.5719 0
M  V30 15418 C 1495.78 0.243023 -1.57739 0
M  V30 15419 C 1495.98 1.67105 -1.12597 0
M  V30 15420 O 1495.03 2.39126 -0.810874 0
M  V30 15421 C 1496.34 0.014629 -3.00696 0
M  V30 15422 C 1497.89 0.0809485 -3.12895 0
M  V30 15423 C 1498.37 -0.119685 -4.57844 0
M  V30 15424 N 1499.86 -0.0654711 -4.63154 0
M  V30 15425 C 1500.59 -0.195692 -5.73066 0
M  V30 15426 N 1500.09 -0.381782 -6.91747 0
M  V30 15427 N 1501.88 -0.13565 -5.61936 0
M  V30 15428 H 1494.03 -1.04639 -1.84836 0
M  V30 15429 H 1496.3 -0.411609 -0.85398 0
M  V30 15430 H 1496 -0.972399 -3.3799 0
M  V30 15431 H 1495.88 0.748882 -3.69691 0
M  V30 15432 H 1498.26 1.0585 -2.75463 0
M  V30 15433 H 1498.34 -0.685097 -2.46455 0
M  V30 15434 H 1497.99 -1.09418 -4.95974 0
M  V30 15435 H 1497.92 0.666281 -5.22368 0
M  V30 15436 H 1500.41 0.0750649 -3.77825 0
M  V30 15437 H 1500.72 -0.472157 -7.71356 0
M  V30 15438 H 1499.07 -0.417686 -6.93744 0
M  V30 15439 H 1502.26 0.0087301 -4.68099 0
M  V30 15440 H 1502.43 -0.240579 -6.47553 0
M  V30 15441 N 1495.84 1.56784 0.160173 0
M  V30 15442 C 1497.11 1.73513 0.902908 0
M  V30 15443 C 1497.49 0.678036 1.99915 0
M  V30 15444 O 1496.84 -0.305302 2.26451 0
M  V30 15445 C 1497.05 3.17111 1.45744 0
M  V30 15446 C 1498.4 3.78404 1.92602 0
M  V30 15447 O 1499.42 3.20459 1.55515 0
M  V30 15448 O 1498.28 4.80172 2.60954 0
M  V30 15449 H 1495.38 0.708981 0.425764 0
M  V30 15450 H 1497.92 1.69061 0.147129 0
M  V30 15451 H 1496.7 3.85539 0.668985 0
M  V30 15452 H 1496.32 3.25936 2.2771 0
M  V30 15453 N 1497.32 -0.429099 1.51646 0
M  V30 15454 C 1498.26 -1.52143 1.73554 0
M  V30 15455 C 1499.23 -1.55741 0.577416 0
M  V30 15456 O 1500.42 -1.72623 0.812768 0
M  V30 15457 C 1497.56 -2.89785 1.874 0
M  V30 15458 C 1496.67 -2.95652 3.14982 0
M  V30 15459 C 1495.81 -4.24468 3.19375 0
M  V30 15460 C 1494.84 -4.24234 4.41239 0
M  V30 15461 N 1493.98 -5.44587 4.43135 0
M  V30 15462 H 1498.82 -1.32764 2.66791 0
M  V30 15463 H 1496.36 -0.6448 1.32215 0
M  V30 15464 H 1498.32 -3.6966 1.9341 0
M  V30 15465 H 1496.95 -3.07703 0.975638 0
M  V30 15466 H 1496 -2.0839 3.18242 0
M  V30 15467 H 1497.31 -2.91342 4.04872 0
M  V30 15468 H 1496.46 -5.12722 3.24347 0
M  V30 15469 H 1495.2 -4.31446 2.27389 0
M  V30 15470 H 1494.21 -3.34371 4.36435 0
M  V30 15471 H 1495.43 -4.18913 5.34499 0
M  V30 15472 H 1493.38 -5.52271 3.54023 0
M  V30 15473 H 1493.3 -5.42191 5.26845 0
M  V30 15474 H 1494.56 -6.34851 4.5231 0
M  V30 15475 N 1498.79 -1.41931 -0.685074 0
M  V30 15476 C 1499.7 -1.46985 -1.82846 0
M  V30 15477 C 1500.72 -0.359487 -1.70246 0
M  V30 15478 O 1501.9 -0.608824 -1.91977 0
M  V30 15479 C 1498.96 -1.36001 -3.18912 0
M  V30 15480 C 1498.02 -2.57442 -3.43543 0
M  V30 15481 C 1497.25 -2.46972 -4.73118 0
M  V30 15482 O 1497.48 -1.49999 -5.50324 0
M  V30 15483 O 1496.41 -3.36922 -4.98766 0
M  V30 15484 H 1500.24 -2.4347 -1.81538 0
M  V30 15485 H 1497.82 -1.23583 -0.839497 0
M  V30 15486 H 1499.7 -1.32198 -4.00127 0
M  V30 15487 H 1498.38 -0.426366 -3.2088 0
M  V30 15488 H 1497.29 -2.66821 -2.62217 0
M  V30 15489 H 1498.62 -3.49671 -3.46398 0
M  V30 15490 N 1500.27 0.920374 -1.27933 0
M  V30 15491 C 1501.68 1.48385 -1.13309 0
M  V30 15492 C 1502.03 1.94202 0.279307 0
M  V30 15493 O 1501.16 1.81855 1.17294 0
M  V30 15494 C 1501.75 2.69681 -2.05079 0
M  V30 15495 C 1500.31 3.22229 -1.94539 0
M  V30 15496 C 1499.46 1.94948 -1.97207 0
M  V30 15497 H 1502.41 0.733744 -1.40719 0
M  V30 15498 H 1502.43 3.44717 -1.6109 0
M  V30 15499 H 1501.94 2.36304 -3.07867 0
M  V30 15500 H 1500.04 3.60348 -0.94764 0
M  V30 15501 H 1500.16 3.87927 -2.81157 0
M  V30 15502 H 1498.52 2.1176 -1.41527 0
M  V30 15503 H 1499.3 1.63875 -3.01662 0
M  V30 15504 N 1501.75 1.10074 1.1279 0
M  V30 15505 C 1502.71 0.74967 2.16593 0
M  V30 15506 C 1503.71 -0.224046 1.59232 0
M  V30 15507 O 1504.9 -0.00137104 1.742 0
M  V30 15508 C 1502.03 0.109795 3.40723 0
M  V30 15509 H 1503.23 1.66906 2.49164 0
M  V30 15510 H 1500.78 0.900781 1.27733 0
M  V30 15511 H 1501.52 -0.820501 3.13749 0
M  V30 15512 H 1501.3 0.810517 3.83631 0
M  V30 15513 H 1502.79 -0.120198 4.17427 0
M  V30 15514 N 1503.23 -1.30138 0.888926 0
M  V30 15515 C 1504.14 -2.31778 0.3628 0
M  V30 15516 C 1505.15 -1.65507 -0.53698 0
M  V30 15517 O 1506.33 -1.96775 -0.429152 0
M  V30 15518 C 1503.39 -3.44259 -0.410673 0
M  V30 15519 C 1502.46 -4.26147 0.519334 0
M  V30 15520 C 1501.69 -5.33257 -0.21732 0
M  V30 15521 O 1501.91 -5.5185 -1.44284 0
M  V30 15522 O 1500.85 -6.00329 0.43461 0
M  V30 15523 H 1504.67 -2.78739 1.20575 0
M  V30 15524 H 1502.26 -1.34379 0.65289 0
M  V30 15525 H 1504.14 -4.1277 -0.848467 0
M  V30 15526 H 1502.81 -2.99426 -1.22986 0
M  V30 15527 H 1501.72 -3.60319 1.00602 0
M  V30 15528 H 1503.05 -4.74595 1.30464 0
M  V30 15529 N 1504.71 -0.650285 -1.43559 0
M  V30 15530 C 1506.12 -0.24263 -1.85117 0
M  V30 15531 C 1506.47 1.21017 -1.54432 0
M  V30 15532 O 1505.59 1.92332 -0.991839 0
M  V30 15533 C 1506.19 -0.433575 -3.36014 0
M  V30 15534 C 1504.75 -0.0802635 -3.76314 0
M  V30 15535 C 1503.89 -0.737844 -2.67303 0
M  V30 15536 H 1506.84 -0.854158 -1.33753 0
M  V30 15537 H 1506.87 0.321801 -3.79137 0
M  V30 15538 H 1506.38 -1.49102 -3.58316 0
M  V30 15539 H 1504.48 0.974703 -3.59625 0
M  V30 15540 H 1504.59 -0.503683 -4.76445 0
M  V30 15541 H 1502.96 -0.171349 -2.54123 0
M  V30 15542 H 1503.74 -1.79826 -2.92434 0
M  V30 15543 N 1506.18 1.52647 -0.392018 0
M  V30 15544 C 1507.59 1.86522 0.0814091 0
M  V30 15545 C 1507.95 1.31158 1.45918 0
M  V30 15546 O 1507.07 0.644007 2.06595 0
M  V30 15547 C 1507.67 3.38448 0.1545 0
M  V30 15548 C 1506.22 3.72025 0.572227 0
M  V30 15549 C 1505.37 2.7604 -0.264093 0
M  V30 15550 H 1508.32 1.46517 -0.609785 0
M  V30 15551 H 1508.34 3.67846 0.973109 0
M  V30 15552 H 1507.86 3.78713 -0.848396 0
M  V30 15553 H 1505.96 3.37329 1.58239 0
M  V30 15554 H 1506.07 4.77973 0.328491 0
M  V30 15555 H 1504.43 2.53254 0.271042 0
M  V30 15556 H 1505.22 3.19143 -1.26502 0
M  V30 15557 N 1507.66 0.121921 1.57128 0
M  V30 15558 C 1508.63 -0.812905 2.143 0
M  V30 15559 C 1509.63 -1.19261 1.07858 0
M  V30 15560 O 1510.82 -1.11764 1.33621 0
M  V30 15561 C 1507.95 -2.09969 2.68562 0
M  V30 15562 H 1509.14 -0.315992 2.98231 0
M  V30 15563 H 1506.69 -0.12734 1.5578 0
M  V30 15564 H 1507.43 -2.64085 1.88228 0
M  V30 15565 H 1507.21 -1.83688 3.46412 0
M  V30 15566 H 1508.7 -2.76788 3.12695 0
M  V30 15567 N 1509.14 -1.56867 -0.151857 0
M  V30 15568 C 1510.39 -1.82721 -0.863575 0
M  V30 15569 C 1510.71 -0.702042 -1.81924 0
M  V30 15570 O 1509.98 0.27668 -1.93936 0
M  V30 15571 H 1508.56 -0.674088 -0.321893 0
M  V30 15572 H 1511.22 -1.94345 -0.14702 0
M  V30 15573 H 1510.32 -2.77476 -1.42876 0
M  V30 15574 N 1510.62 0.421051 -1.51871 0
M  V30 15575 C 1511.58 1.49478 -1.73749 0
M  V30 15576 C 1512.58 1.48887 -0.607395 0
M  V30 15577 O 1513.77 1.50622 -0.875143 0
M  V30 15578 C 1510.9 2.88947 -1.80893 0
M  V30 15579 H 1512.1 1.31377 -2.69593 0
M  V30 15580 H 1509.65 0.650786 -1.42107 0
M  V30 15581 H 1510.38 3.12434 -0.86922 0
M  V30 15582 H 1510.17 2.90781 -2.63038 0
M  V30 15583 H 1511.66 3.66809 -1.99602 0
M  V30 15584 N 1512.1 1.42293 0.677538 0
M  V30 15585 C 1513.34 1.42616 1.4376 0
M  V30 15586 C 1513.67 0.0416268 1.94455 0
M  V30 15587 O 1512.93 -0.949544 1.7112 0
M  V30 15588 C 1513.23 2.3951 2.65273 0
M  V30 15589 C 1512.89 3.85952 2.33135 0
M  V30 15590 C 1511.55 4.25842 2.24081 0
M  V30 15591 C 1513.91 4.78337 2.06987 0
M  V30 15592 C 1511.23 5.561 1.87001 0
M  V30 15593 C 1513.59 6.08934 1.71411 0
M  V30 15594 C 1512.25 6.47826 1.60865 0
M  V30 15595 H 1511.52 0.521869 0.526055 0
M  V30 15596 H 1514.17 1.75214 0.772797 0
M  V30 15597 H 1512.47 2.00229 3.36773 0
M  V30 15598 H 1514.17 2.37025 3.2345 0
M  V30 15599 H 1510.76 3.54369 2.41083 0
M  V30 15600 H 1514.94 4.48308 2.12916 0
M  V30 15601 H 1510.2 5.85097 1.77403 0
M  V30 15602 H 1514.37 6.80009 1.50203 0
M  V30 15603 H 1512 7.48669 1.31902 0
M  V30 15604 N 1513.57 -0.913576 1.28419 0
M  V30 15605 C 1514.99 -1.47782 1.14094 0
M  V30 15606 C 1515.34 -1.94347 -0.269004 0
M  V30 15607 O 1514.46 -1.82474 -1.16328 0
M  V30 15608 C 1515.06 -2.6859 2.06507 0
M  V30 15609 C 1513.62 -3.21193 1.96245 0
M  V30 15610 C 1512.76 -1.939 1.98238 0
M  V30 15611 H 1515.71 -0.726271 1.41106 0
M  V30 15612 H 1515.73 -3.43858 1.62916 0
M  V30 15613 H 1515.25 -2.34668 3.09116 0
M  V30 15614 H 1513.35 -3.5984 0.966737 0
M  V30 15615 H 1513.46 -3.8643 2.83211 0
M  V30 15616 H 1511.82 -2.11006 1.42648 0
M  V30 15617 H 1512.61 -1.62273 3.02527 0
M  V30 15618 N 1515.05 -1.1067 -1.12204 0
M  V30 15619 C 1516.3 -0.84895 -1.83405 0
M  V30 15620 C 1516.62 0.62724 -1.84637 0
M  V30 15621 O 1515.89 1.45546 -1.31123 0
M  V30 15622 H 1514.47 -0.311074 -0.679148 0
M  V30 15623 H 1517.13 -1.39747 -1.35856 0
M  V30 15624 H 1516.23 -1.21398 -2.87522 0
M  V30 15625 N 1516.53 1.29665 -0.895815 0
M  V30 15626 C 1517.78 1.95716 -0.519752 0
M  V30 15627 C 1518.11 1.7065 0.933212 0
M  V30 15628 O 1517.36 1.01014 1.67615 0
M  V30 15629 C 1517.66 3.49355 -0.754025 0
M  V30 15630 C 1517.33 3.94491 -2.18375 0
M  V30 15631 C 1515.99 4.06526 -2.57468 0
M  V30 15632 C 1518.34 4.17874 -3.11498 0
M  V30 15633 C 1515.67 4.39311 -3.88874 0
M  V30 15634 C 1518.02 4.52132 -4.42447 0
M  V30 15635 C 1516.68 4.62376 -4.81419 0
M  V30 15636 H 1515.95 0.716176 -0.190191 0
M  V30 15637 H 1518.6 1.54333 -1.13373 0
M  V30 15638 H 1516.91 3.91758 -0.0570932 0
M  V30 15639 H 1518.6 3.98551 -0.442493 0
M  V30 15640 H 1515.19 3.85638 -1.87033 0
M  V30 15641 H 1519.38 4.08046 -2.8251 0
M  V30 15642 H 1514.63 4.45444 -4.18795 0
M  V30 15643 H 1518.81 4.69175 -5.14634 0
M  V30 15644 H 1516.43 4.87535 -5.83278 0
M  V30 15645 N 1518.01 0.657889 1.43212 0
M  V30 15646 C 1519.42 0.252443 1.84985 0
M  V30 15647 C 1519.77 -1.20196 1.55072 0
M  V30 15648 O 1518.9 -1.91803 1.00202 0
M  V30 15649 C 1519.49 0.451388 3.3578 0
M  V30 15650 C 1518.05 0.100219 3.76267 0
M  V30 15651 C 1517.2 0.752009 2.66908 0
M  V30 15652 H 1520.15 0.861239 1.33298 0
M  V30 15653 H 1520.17 -0.30169 3.79302 0
M  V30 15654 H 1519.68 1.51001 3.5752 0
M  V30 15655 H 1517.78 -0.955618 3.60137 0
M  V30 15656 H 1517.89 0.528942 4.76171 0
M  V30 15657 H 1516.26 0.184823 2.54029 0
M  V30 15658 H 1517.04 1.81375 2.91476 0
M  V30 15659 N 1519.49 -1.52437 0.400108 0
M  V30 15660 C 1520.71 -2.0661 -0.180861 0
M  V30 15661 C 1521.14 -1.269 -1.38845 0
M  V30 15662 O 1520.49 -0.296862 -1.78853 0
M  V30 15663 C 1520.54 -3.56851 -0.518595 0
M  V30 15664 O 1519.65 -3.79634 -1.61095 0
M  V30 15665 H 1518.99 -0.663752 -0.0181348 0
M  V30 15666 H 1521.52 -1.96479 0.570702 0
M  V30 15667 H 1521.53 -4.00478 -0.779817 0
M  V30 15668 H 1520.2 -4.14302 0.364216 0
M  V30 15669 H 1518.78 -3.47892 -1.3426 0
M  V30 15670 N 1520.96 -0.130252 -1.57061 0
M  V30 15671 C 1522.38 0.393318 -1.8251 0
M  V30 15672 C 1522.73 1.65862 -1.04806 0
M  V30 15673 O 1521.85 2.14473 -0.288118 0
M  V30 15674 C 1522.45 0.720366 -3.31053 0
M  V30 15675 C 1521.01 1.18852 -3.57143 0
M  V30 15676 C 1520.15 0.202964 -2.76556 0
M  V30 15677 H 1523.1 -0.355217 -1.54674 0
M  V30 15678 H 1523.12 1.57671 -3.46295 0
M  V30 15679 H 1522.64 -0.200719 -3.87581 0
M  V30 15680 H 1520.74 2.12612 -3.05985 0
M  V30 15681 H 1520.85 1.12607 -4.65678 0
M  V30 15682 H 1519.21 0.692264 -2.45112 0
M  V30 15683 H 1520 -0.711417 -3.35848 0
M  V30 15684 N 1522.44 1.56945 0.143535 0
M  V30 15685 C 1523.85 1.72949 0.703249 0
M  V30 15686 C 1524.21 0.745193 1.81497 0
M  V30 15687 O 1523.33 -0.0874144 2.16223 0
M  V30 15688 C 1523.93 3.1359 1.28244 0
M  V30 15689 C 1522.48 3.31184 1.78869 0
M  V30 15690 C 1521.63 2.6887 0.678531 0
M  V30 15691 H 1524.58 1.58487 -0.0821664 0
M  V30 15692 H 1524.6 3.13782 2.15224 0
M  V30 15693 H 1524.12 3.85206 0.473087 0
M  V30 15694 H 1522.22 2.64571 2.6236 0
M  V30 15695 H 1522.33 4.39163 1.91502 0
M  V30 15696 H 1520.69 2.29432 1.10603 0
M  V30 15697 H 1521.48 3.43092 -0.119437 0
M  V30 15698 N 1523.92 -0.412991 1.52093 0
M  V30 15699 C 1524.88 -1.48555 1.7454 0
M  V30 15700 C 1525.88 -1.48563 0.615283 0
M  V30 15701 O 1527.07 -1.50155 0.883119 0
M  V30 15702 C 1524.21 -2.87984 1.82423 0
M  V30 15703 H 1525.4 -1.29945 2.70285 0
M  V30 15704 H 1522.95 -0.643241 1.4245 0
M  V30 15705 H 1523.69 -3.11969 0.885777 0
M  V30 15706 H 1523.47 -2.89381 2.64577 0
M  V30 15707 H 1524.96 -3.65745 2.01545 0
M  V30 15708 N 1525.4 -1.4265 -0.669982 0
M  V30 15709 C 1526.81 -1.38614 -1.25072 0
M  V30 15710 C 1527.16 -0.0818051 -1.96029 0
M  V30 15711 O 1526.29 0.81931 -2.0029 0
M  V30 15712 C 1526.88 -2.51085 -2.27469 0
M  V30 15713 C 1525.44 -2.50366 -2.81059 0
M  V30 15714 C 1524.59 -2.29632 -1.5545 0
M  V30 15715 H 1527.54 -1.51794 -0.463058 0
M  V30 15716 H 1527.56 -2.21612 -3.09303 0
M  V30 15717 H 1527.07 -3.46002 -1.75796 0
M  V30 15718 H 1525.17 -1.5928 -3.36839 0
M  V30 15719 H 1525.29 -3.47569 -3.29746 0
M  V30 15720 H 1523.65 -1.77982 -1.82193 0
M  V30 15721 H 1524.43 -3.26611 -1.05736 0
M  V30 15722 N 1526.88 0.906753 -1.28902 0
M  V30 15723 C 1528.29 1.47175 -1.14876 0
M  V30 15724 C 1528.64 1.94487 0.258693 0
M  V30 15725 O 1527.76 1.83088 1.15359 0
M  V30 15726 C 1528.36 2.67491 -2.07928 0
M  V30 15727 C 1526.92 3.20148 -1.97946 0
M  V30 15728 C 1526.07 1.92846 -1.99263 0
M  V30 15729 H 1529.02 0.718777 -1.4149 0
M  V30 15730 H 1529.04 3.42989 -1.64738 0
M  V30 15731 H 1528.55 2.33025 -3.10356 0
M  V30 15732 H 1526.65 3.59322 -0.985806 0
M  V30 15733 H 1526.76 3.84923 -2.85256 0
M  V30 15734 H 1525.13 2.10247 -1.43765 0
M  V30 15735 H 1525.91 1.60666 -3.03383 0
M  V30 15736 N 1528.36 1.11264 1.11616 0
M  V30 15737 C 1529.32 0.7726 2.15786 0
M  V30 15738 C 1530.32 -0.207145 1.5946 0
M  V30 15739 O 1531.51 0.0171053 1.74192 0
M  V30 15740 C 1528.64 0.145927 3.40588 0
M  V30 15741 H 1529.83 1.69539 2.47379 0
M  V30 15742 H 1527.39 0.914278 1.2677 0
M  V30 15743 H 1528.12 -0.787178 3.14601 0
M  V30 15744 H 1527.91 0.851161 3.8275 0
M  V30 15745 H 1529.4 -0.0759176 4.17531 0
M  V30 15746 N 1529.83 -1.29188 0.902679 0
M  V30 15747 C 1530.8 -2.25901 0.387485 0
M  V30 15748 C 1531.8 -1.53469 -0.479993 0
M  V30 15749 O 1532.99 -1.71859 -0.284623 0
M  V30 15750 C 1530.12 -3.37974 -0.445723 0
M  V30 15751 H 1531.31 -2.72988 1.24167 0
M  V30 15752 H 1528.86 -1.4068 0.681083 0
M  V30 15753 H 1529.6 -2.9623 -1.31977 0
M  V30 15754 H 1529.38 -3.91705 0.175899 0
M  V30 15755 H 1530.87 -4.09917 -0.797384 0
M  V30 15756 N 1531.31 -0.665475 -1.42861 0
M  V30 15757 C 1532.27 0.00932351 -2.29198 0
M  V30 15758 C 1533.27 0.738356 -1.42846 0
M  V30 15759 O 1534.46 0.57776 -1.6434 0
M  V30 15760 C 1531.6 1.02392 -3.25159 0
M  V30 15761 H 1532.79 -0.750481 -2.90358 0
M  V30 15762 H 1530.34 -0.427334 -1.50345 0
M  V30 15763 H 1531.08 1.81254 -2.68919 0
M  V30 15764 H 1530.86 0.504671 -3.88839 0
M  V30 15765 H 1532.35 1.49479 -3.89931 0
M  V30 15766 N 1532.79 1.52222 -0.408187 0
M  V30 15767 C 1533.75 2.25578 0.405851 0
M  V30 15768 C 1534.75 1.27912 0.974434 0
M  V30 15769 O 1535.94 1.51861 0.853461 0
M  V30 15770 C 1533.07 3.02532 1.57122 0
M  V30 15771 H 1534.27 2.98965 -0.23664 0
M  V30 15772 H 1531.82 1.55472 -0.160687 0
M  V30 15773 H 1532.56 2.33492 2.2506 0
M  V30 15774 H 1532.34 3.74237 1.17001 0
M  V30 15775 H 1533.83 3.58177 2.14707 0
M  V30 15776 N 1534.27 0.138579 1.5699 0
M  V30 15777 C 1535.5 -0.521806 2.00212 0
M  V30 15778 C 1535.91 -1.58967 1.01857 0
M  V30 15779 O 1535.27 -1.82494 0.0143099 0
M  V30 15780 C 1535.32 -1.13014 3.4338 0
M  V30 15781 O 1535.04 -0.104938 4.37974 0
M  V30 15782 C 1536.54 -1.87195 4.01837 0
M  V30 15783 H 1533.76 -0.136564 0.656956 0
M  V30 15784 H 1536.3 0.230685 2.03195 0
M  V30 15785 H 1534.46 -1.8333 3.41275 0
M  V30 15786 H 1534.87 -0.54948 5.21614 0
M  V30 15787 H 1536.35 -2.25061 5.04035 0
M  V30 15788 H 1536.82 -2.75467 3.42074 0
M  V30 15789 H 1537.43 -1.21597 4.07547 0
M  V30 15790 N 1535.75 -1.57019 -0.13521 0
M  V30 15791 C 1536.71 -1.98229 -1.15056 0
M  V30 15792 C 1537.71 -0.870295 -1.35213 0
M  V30 15793 O 1538.9 -1.13668 -1.32005 0
M  V30 15794 C 1536.03 -2.30844 -2.50846 0
M  V30 15795 H 1537.22 -2.89123 -0.796744 0
M  V30 15796 H 1534.78 -1.51636 -0.378962 0
M  V30 15797 H 1535.51 -1.42779 -2.91178 0
M  V30 15798 H 1535.3 -3.11931 -2.37574 0
M  V30 15799 H 1536.79 -2.63524 -3.23952 0
M  V30 15800 N 1537.22 0.404919 -1.52309 0
M  V30 15801 C 1538.47 1.15319 -1.66822 0
M  V30 15802 C 1538.8 1.90056 -0.399041 0
M  V30 15803 O 1538.08 1.84927 0.602679 0
M  V30 15804 C 1538.36 2.14426 -2.89298 0
M  V30 15805 C 1538.21 1.43558 -4.26276 0
M  V30 15806 C 1539.53 3.15046 -3.07301 0
M  V30 15807 H 1536.65 0.417869 -0.607087 0
M  V30 15808 H 1539.29 0.438414 -1.84873 0
M  V30 15809 H 1537.44 2.75382 -2.74039 0
M  V30 15810 H 1539.12 0.856899 -4.53271 0
M  V30 15811 H 1537.36 0.737515 -4.27485 0
M  V30 15812 H 1538.03 2.15895 -5.08029 0
M  V30 15813 H 1540.51 2.6417 -3.21486 0
M  V30 15814 H 1539.38 3.81652 -3.94503 0
M  V30 15815 H 1539.64 3.83012 -2.20803 0
M  V30 15816 N 1538.7 1.43003 0.662408 0
M  V30 15817 C 1539.95 1.43848 1.41958 0
M  V30 15818 C 1540.27 0.06046 1.94906 0
M  V30 15819 O 1539.54 -0.90287 1.73854 0
M  V30 15820 H 1538.12 0.529587 0.526827 0
M  V30 15821 H 1540.78 1.7853 0.781867 0
M  V30 15822 H 1539.88 2.14562 2.26649 0
M  V30 15823 N 1540.18 -0.899904 1.29381 0
M  V30 15824 C 1541.59 -1.46563 1.15655 0
M  V30 15825 C 1541.94 -1.94622 -0.248375 0
M  V30 15826 O 1541.07 -1.83698 -1.14386 0
M  V30 15827 C 1541.66 -2.66384 2.09344 0
M  V30 15828 C 1540.22 -3.19093 1.99641 0
M  V30 15829 C 1539.37 -1.91786 2.00283 0
M  V30 15830 H 1542.32 -0.711264 1.41869 0
M  V30 15831 H 1542.34 -3.42111 1.66554 0
M  V30 15832 H 1541.85 -2.31376 3.11587 0
M  V30 15833 H 1539.95 -3.58795 1.00485 0
M  V30 15834 H 1540.07 -3.83405 2.87293 0
M  V30 15835 H 1538.43 -2.09482 1.44878 0
M  V30 15836 H 1539.21 -1.59055 3.04231 0
M  V30 15837 N 1541.66 -1.11854 -1.11024 0
M  V30 15838 C 1543.07 -0.885443 -1.64368 0
M  V30 15839 C 1543.42 0.581455 -1.87386 0
M  V30 15840 O 1542.55 1.44452 -1.61129 0
M  V30 15841 C 1543.14 -1.60082 -2.98595 0
M  V30 15842 C 1541.7 -1.41403 -3.4883 0
M  V30 15843 C 1540.85 -1.64069 -2.23555 0
M  V30 15844 H 1543.8 -1.27418 -0.94606 0
M  V30 15845 H 1543.82 -1.04832 -3.65774 0
M  V30 15846 H 1543.33 -2.66842 -2.8181 0
M  V30 15847 H 1541.43 -0.368727 -3.70771 0
M  V30 15848 H 1541.54 -2.16603 -4.27341 0
M  V30 15849 H 1539.91 -1.06437 -2.31394 0
M  V30 15850 H 1540.69 -2.72112 -2.09308 0
M  V30 15851 N 1543.14 1.28707 -0.909517 0
M  V30 15852 C 1544.07 2.29845 -0.411552 0
M  V30 15853 C 1545.05 1.62001 0.518615 0
M  V30 15854 O 1546.23 1.89442 0.427252 0
M  V30 15855 C 1543.36 3.45501 0.353013 0
M  V30 15856 C 1542.32 4.25213 -0.487625 0
M  V30 15857 C 1541.64 5.33164 0.405026 0
M  V30 15858 C 1542.94 4.9237 -1.74268 0
M  V30 15859 H 1544.64 2.71746 -1.25676 0
M  V30 15860 H 1542.18 1.30639 -0.605759 0
M  V30 15861 H 1544.14 4.15338 0.712191 0
M  V30 15862 H 1542.86 3.02469 1.23209 0
M  V30 15863 H 1541.52 3.57098 -0.829265 0
M  V30 15864 H 1541.17 4.86375 1.28252 0
M  V30 15865 H 1540.87 5.87399 -0.153811 0
M  V30 15866 H 1542.39 6.0585 0.760179 0
M  V30 15867 H 1543.8 5.5459 -1.45266 0
M  V30 15868 H 1542.2 5.56581 -2.2436 0
M  V30 15869 H 1543.27 4.171 -2.47297 0
M  V30 15870 N 1544.61 0.673042 1.42506 0
M  V30 15871 C 1545.85 0.198436 2.03434 0
M  V30 15872 C 1546.22 -1.17227 1.52059 0
M  V30 15873 O 1547.42 -1.74143 2.04762 0
M  V30 15874 C 1545.69 0.22942 3.56663 0
M  V30 15875 S 1547.25 -0.174441 4.38453 0
M  V30 15876 H 1544.07 0.0817512 0.706284 0
M  V30 15877 H 1546.67 0.885803 1.74281 0
M  V30 15878 H 1545.37 1.22941 3.91553 0
M  V30 15879 H 1544.9 -0.477839 3.90487 0
M  V30 15880 H 1546.92 -1.40826 4.75797 0
M  V30 15881 N 1546.09 -1.52004 0.416254 0
M  V30 15882 C 1547.51 -1.59457 0.0674775 0
M  V30 15883 C 1547.71 -1.42865 -1.42098 0
M  V30 15884 O 1546.76 -1.2592 -2.18862 0
M  V30 15885 C 1548.08 -2.95272 0.56876 0
M  V30 15886 C 1549.63 -3.08525 0.527356 0
M  V30 15887 C 1550.1 -4.46832 1.00526 0
M  V30 15888 N 1551.59 -4.53092 0.962377 0
M  V30 15889 C 1552.33 -5.58393 1.30327 0
M  V30 15890 N 1551.82 -6.71212 1.71597 0
M  V30 15891 N 1553.62 -5.48639 1.22278 0
M  V30 15892 H 1545.77 -1.61036 1.38496 0
M  V30 15893 H 1548.03 -0.75795 0.569399 0
M  V30 15894 H 1547.74 -3.12717 1.60937 0
M  V30 15895 H 1547.61 -3.77196 -0.0177595 0
M  V30 15896 H 1550 -2.9076 -0.504225 0
M  V30 15897 H 1550.08 -2.28491 1.15002 0
M  V30 15898 H 1549.72 -4.6534 2.03521 0
M  V30 15899 H 1549.65 -5.25373 0.359345 0
M  V30 15900 H 1552.14 -3.72109 0.65904 0
M  V30 15901 H 1552.46 -7.47558 1.95901 0
M  V30 15902 H 1550.8 -6.72475 1.75507 0
M  V30 15903 H 1553.99 -4.59383 0.899175 0
M  V30 15904 H 1554.16 -6.30596 1.49175 0
M  V30 15905 N 1547.57 -0.146903 -1.56914 0
M  V30 15906 C 1548.5 0.788924 -2.19769 0
M  V30 15907 C 1549.48 1.25712 -1.14589 0
M  V30 15908 O 1550.67 1.3147 -1.42931 0
M  V30 15909 C 1547.8 2.02824 -2.81921 0
M  V30 15910 C 1546.75 1.69683 -3.92927 0
M  V30 15911 C 1546.08 3.00877 -4.42015 0
M  V30 15912 C 1547.38 0.943559 -5.13706 0
M  V30 15913 H 1549.07 0.265076 -2.98224 0
M  V30 15914 H 1546.62 0.126057 -1.43447 0
M  V30 15915 H 1548.57 2.68773 -3.2456 0
M  V30 15916 H 1547.29 2.57581 -2.00797 0
M  V30 15917 H 1545.95 1.06112 -3.50907 0
M  V30 15918 H 1545.6 3.53625 -3.57713 0
M  V30 15919 H 1545.3 2.79466 -5.16888 0
M  V30 15920 H 1546.82 3.67897 -4.87323 0
M  V30 15921 H 1548.24 1.50513 -5.5319 0
M  V30 15922 H 1546.64 0.829387 -5.94341 0
M  V30 15923 H 1547.71 -0.0647228 -4.84857 0
M  V30 15924 N 1549.05 1.57088 0.126881 0
M  V30 15925 C 1550.01 1.98836 1.14003 0
M  V30 15926 C 1551.01 0.877454 1.34749 0
M  V30 15927 O 1552.2 1.14366 1.314 0
M  V30 15928 C 1549.33 2.32171 2.49618 0
M  V30 15929 H 1550.53 2.89541 0.7814 0
M  V30 15930 H 1548.08 1.51835 0.370915 0
M  V30 15931 H 1548.81 1.44321 2.90417 0
M  V30 15932 H 1548.6 3.13187 2.35916 0
M  V30 15933 H 1550.09 2.65238 3.2255 0
M  V30 15934 N 1550.53 -0.396836 1.52522 0
M  V30 15935 C 1551.77 -1.14263 1.67183 0
M  V30 15936 C 1552.1 -1.90176 0.407845 0
M  V30 15937 O 1551.36 -1.85965 -0.609553 0
M  V30 15938 C 1551.66 -2.15308 2.85267 0
M  V30 15939 C 1551.32 -1.56111 4.23013 0
M  V30 15940 C 1549.98 -1.39692 4.60478 0
M  V30 15941 C 1552.34 -1.12998 5.08803 0
M  V30 15942 C 1549.66 -0.786963 5.81398 0
M  V30 15943 C 1552.02 -0.534159 6.30341 0
M  V30 15944 C 1550.68 -0.357204 6.66544 0
M  V30 15945 H 1549.95 -0.418118 0.611766 0
M  V30 15946 H 1552.6 -0.428255 1.8665 0
M  V30 15947 H 1550.9 -2.92935 2.60185 0
M  V30 15948 H 1552.6 -2.72908 2.93806 0
M  V30 15949 H 1549.19 -1.69876 3.93497 0
M  V30 15950 H 1553.37 -1.24488 4.80434 0
M  V30 15951 H 1548.63 -0.63799 6.08062 0
M  V30 15952 H 1552.8 -0.191759 6.96136 0
M  V30 15953 H 1550.43 0.117528 7.60109 0
M  V30 15954 N 1552.01 -1.43353 -0.654814 0
M  V30 15955 C 1552.92 -1.50831 -1.79687 0
M  V30 15956 C 1553.93 -0.395518 -1.69445 0
M  V30 15957 O 1555.11 -0.649408 -1.90643 0
M  V30 15958 C 1552.17 -1.42735 -3.15955 0
M  V30 15959 C 1551.23 -2.64671 -3.38005 0
M  V30 15960 C 1550.47 -2.56952 -4.67773 0
M  V30 15961 O 1550.69 -1.61638 -5.47019 0
M  V30 15962 O 1549.62 -3.47425 -4.91507 0
M  V30 15963 H 1553.45 -2.47266 -1.76333 0
M  V30 15964 H 1551.03 -1.25336 -0.813095 0
M  V30 15965 H 1552.92 -1.40656 -3.97233 0
M  V30 15966 H 1551.59 -0.494334 -3.19903 0
M  V30 15967 H 1550.5 -2.72323 -2.56498 0
M  V30 15968 H 1551.83 -3.5694 -3.38903 0
M  V30 15969 N 1553.48 0.89303 -1.29857 0
M  V30 15970 C 1554.76 1.62492 -1.08884 0
M  V30 15971 C 1555.14 2.07926 0.364695 0
M  V30 15972 O 1554.49 1.84009 1.35473 0
M  V30 15973 C 1554.7 2.80063 -2.08245 0
M  V30 15974 C 1556.05 3.50589 -2.39526 0
M  V30 15975 O 1557.07 2.90241 -2.06492 0
M  V30 15976 O 1555.93 4.59399 -2.95998 0
M  V30 15977 H 1553.02 0.713805 -0.417626 0
M  V30 15978 H 1555.57 0.940513 -1.41253 0
M  V30 15979 H 1554.34 2.43735 -3.06119 0
M  V30 15980 H 1553.96 3.56205 -1.76645 0
M  V30 15981 N 1554.96 1.12442 1.10429 0
M  V30 15982 C 1555.87 0.805377 2.20343 0
M  V30 15983 C 1556.89 -0.205836 1.72778 0
M  V30 15984 O 1558.06 -0.0394195 2.01361 0
M  V30 15985 C 1555.13 0.264711 3.45688 0
M  V30 15986 C 1554.19 1.33586 4.07987 0
M  V30 15987 C 1553.42 0.8209 5.27349 0
M  V30 15988 O 1553.65 -0.345303 5.69354 0
M  V30 15989 O 1552.58 1.59052 5.80505 0
M  V30 15990 H 1556.41 1.7234 2.50065 0
M  V30 15991 H 1553.99 0.901084 1.19167 0
M  V30 15992 H 1555.87 -0.0319164 4.21388 0
M  V30 15993 H 1554.55 -0.625869 3.17592 0
M  V30 15994 H 1553.45 1.68566 3.33971 0
M  V30 15995 H 1554.79 2.20021 4.40286 0
M  V30 15996 N 1556.44 -1.28223 0.91633 0
M  V30 15997 C 1557.66 -1.99523 0.566147 0
M  V30 15998 C 1558.09 -1.68 -0.846034 0
M  V30 15999 O 1557.45 -0.913838 -1.56584 0
M  V30 16000 C 1557.5 -3.51949 0.785114 0
M  V30 16001 O 1556.6 -4.1211 -0.154686 0
M  V30 16002 H 1555.94 -0.626764 0.219232 0
M  V30 16003 H 1558.47 -1.63313 1.23247 0
M  V30 16004 H 1558.48 -4.02016 0.696224 0
M  V30 16005 H 1557.16 -3.74227 1.81457 0
M  V30 16006 H 1555.73 -3.72896 -0.0168463 0
M  V30 16007 N 1557.92 -0.68059 -1.42147 0
M  V30 16008 C 1559.33 -0.281841 -1.8456 0
M  V30 16009 C 1559.68 1.17714 -1.56965 0
M  V30 16010 O 1558.8 1.90185 -1.03241 0
M  V30 16011 C 1559.4 -0.504751 -3.35019 0
M  V30 16012 C 1557.96 -0.160067 -3.76059 0
M  V30 16013 C 1557.11 -0.794377 -2.65678 0
M  V30 16014 H 1560.06 -0.882337 -1.31911 0
M  V30 16015 H 1560.08 0.241308 -3.79734 0
M  V30 16016 H 1559.59 -1.56669 -3.55072 0
M  V30 16017 H 1557.69 0.898202 -3.61612 0
M  V30 16018 H 1557.8 -0.60463 -4.75269 0
M  V30 16019 H 1556.17 -0.225213 -2.53702 0
M  V30 16020 H 1556.95 -1.85989 -2.88553 0
M  V30 16021 N 1559.4 1.51781 -0.424309 0
M  V30 16022 C 1560.81 1.86653 0.0418266 0
M  V30 16023 C 1561.16 1.34224 1.43103 0
M  V30 16024 O 1560.28 0.687684 2.05183 0
M  V30 16025 C 1560.88 3.38699 0.0826759 0
M  V30 16026 C 1559.44 3.73155 0.493186 0
M  V30 16027 C 1558.58 2.75417 -0.322586 0
M  V30 16028 H 1561.53 1.45191 -0.640726 0
M  V30 16029 H 1561.56 3.69828 0.894864 0
M  V30 16030 H 1561.07 3.76829 -0.928536 0
M  V30 16031 H 1559.17 3.4061 1.51048 0
M  V30 16032 H 1559.28 4.78562 0.227032 0
M  V30 16033 H 1557.65 2.53772 0.217262 0
M  V30 16034 H 1558.43 3.16388 -1.33243 0
M  V30 16035 N 1560.87 0.155222 1.56834 0
M  V30 16036 C 1561.84 -0.767266 2.15976 0
M  V30 16037 C 1562.84 -1.16946 1.10364 0
M  V30 16038 O 1564.03 -1.08905 1.35961 0
M  V30 16039 C 1561.16 -2.04226 2.72956 0
M  V30 16040 H 1562.35 -0.252662 2.98834 0
M  V30 16041 H 1559.9 -0.0942677 1.56015 0
M  V30 16042 H 1560.64 -2.60033 1.93787 0
M  V30 16043 H 1560.42 -1.76299 3.5023 0
M  V30 16044 H 1561.91 -2.70093 3.18495 0
M  V30 16045 N 1562.35 -1.57153 -0.118549 0
M  V30 16046 C 1563.76 -1.74046 -0.675645 0
M  V30 16047 C 1564.11 -0.773974 -1.80289 0
M  V30 16048 O 1563.24 0.0530041 -2.16335 0
M  V30 16049 C 1563.83 -3.15591 -1.23239 0
M  V30 16050 C 1562.39 -3.33988 -1.73577 0
M  V30 16051 C 1561.54 -2.69916 -0.63567 0
M  V30 16052 H 1564.49 -1.58336 0.10737 0
M  V30 16053 H 1564.51 -3.17166 -2.10205 0
M  V30 16054 H 1564.02 -3.8591 -0.411744 0
M  V30 16055 H 1562.12 -2.68712 -2.58118 0
M  V30 16056 H 1562.24 -4.42154 -1.84491 0
M  V30 16057 H 1560.6 -2.31163 -1.06939 0
M  V30 16058 H 1561.38 -3.42859 0.174005 0
M  V30 16059 N 1563.83 0.388742 -1.5273 0
M  V30 16060 C 1564.79 1.45759 -1.76881 0
M  V30 16061 C 1565.79 1.47565 -0.63884 0
M  V30 16062 O 1566.98 1.48731 -0.906895 0
M  V30 16063 C 1564.11 2.85045 -1.86981 0
M  V30 16064 H 1565.31 1.25629 -2.72319 0
M  V30 16065 H 1562.86 0.620497 -1.43456 0
M  V30 16066 H 1563.6 3.1052 -0.935296 0
M  V30 16067 H 1563.38 2.85136 -2.69147 0
M  V30 16068 H 1564.87 3.62492 -2.07338 0
M  V30 16069 N 1565.31 1.43698 0.647203 0
M  V30 16070 C 1566.72 1.27231 0.963563 0
M  V30 16071 C 1566.92 0.196385 2.00541 0
M  V30 16072 O 1565.98 -0.423162 2.48929 0
M  V30 16073 C 1567.29 2.63863 1.44211 0
M  V30 16074 C 1568.84 2.71444 1.55844 0
M  V30 16075 C 1569.32 4.08508 2.07087 0
M  V30 16076 N 1570.81 4.10603 2.14381 0
M  V30 16077 C 1571.54 5.13496 2.55166 0
M  V30 16078 N 1571.04 6.26759 2.95203 0
M  V30 16079 N 1572.83 5.0085 2.55158 0
M  V30 16080 H 1564.98 2.12358 -0.0420956 0
M  V30 16081 H 1567.24 0.946989 0.0437628 0
M  V30 16082 H 1566.95 3.43589 0.75096 0
M  V30 16083 H 1566.82 2.89666 2.41605 0
M  V30 16084 H 1569.21 1.92046 2.24058 0
M  V30 16085 H 1569.29 2.49399 0.56866 0
M  V30 16086 H 1568.94 4.88375 1.39472 0
M  V30 16087 H 1568.87 4.2792 3.06907 0
M  V30 16088 H 1571.36 3.2885 1.86188 0
M  V30 16089 H 1571.67 7.01096 3.25091 0
M  V30 16090 H 1570.02 6.30222 2.92993 0
M  V30 16091 H 1573.21 4.11428 2.2326 0
M  V30 16092 H 1573.38 5.81165 2.86621 0
M  V30 16093 N 1566.79 -0.886131 1.30328 0
M  V30 16094 C 1568.03 -1.64032 1.20271 0
M  V30 16095 C 1568.39 -1.90891 -0.240498 0
M  V30 16096 O 1567.68 -1.51793 -1.16916 0
M  V30 16097 C 1567.87 -2.98624 1.96364 0
M  V30 16098 C 1567.7 -2.84904 3.47936 0
M  V30 16099 C 1566.47 -2.84948 4.17292 0
M  V30 16100 C 1568.67 -2.60937 4.43189 0
M  V30 16101 N 1566.65 -2.62108 5.55133 0
M  V30 16102 C 1568.02 -2.47208 5.68584 0
M  V30 16103 C 1570.08 -2.46153 4.32797 0
M  V30 16104 C 1568.78 -2.20198 6.84767 0
M  V30 16105 C 1570.81 -2.20528 5.48745 0
M  V30 16106 C 1570.17 -2.07574 6.73121 0
M  V30 16107 H 1566.27 -0.605263 0.495158 0
M  V30 16108 H 1568.85 -1.0443 1.64324 0
M  V30 16109 H 1567.02 -3.5626 1.54703 0
M  V30 16110 H 1568.76 -3.63228 1.78458 0
M  V30 16111 H 1565.51 -2.96736 3.69114 0
M  V30 16112 H 1565.94 -2.53703 6.27665 0
M  V30 16113 H 1570.58 -2.54904 3.37319 0
M  V30 16114 H 1568.3 -2.10185 7.80287 0
M  V30 16115 H 1571.88 -2.09912 5.42612 0
M  V30 16116 H 1570.76 -1.88023 7.61326 0
M  V30 16117 N 1568.26 -1.13026 -1.09832 0
M  V30 16118 C 1569.68 -0.902826 -1.6342 0
M  V30 16119 C 1570.03 0.561547 -1.87992 0
M  V30 16120 O 1569.15 1.42735 -1.62652 0
M  V30 16121 C 1569.75 -1.6324 -2.96881 0
M  V30 16122 C 1568.31 -1.45095 -3.4731 0
M  V30 16123 C 1567.45 -1.66431 -2.21802 0
M  V30 16124 H 1570.4 -1.28414 -0.932492 0
M  V30 16125 H 1570.42 -1.08706 -3.64641 0
M  V30 16126 H 1569.94 -2.69816 -2.78964 0
M  V30 16127 H 1568.04 -0.408031 -3.70359 0
M  V30 16128 H 1568.15 -2.21123 -4.25019 0
M  V30 16129 H 1566.51 -1.08885 -2.30252 0
M  V30 16130 H 1567.3 -2.74317 -2.0641 0
M  V30 16131 N 1569.74 1.27735 -0.923117 0
M  V30 16132 C 1571.16 1.46952 -0.622666 0
M  V30 16133 C 1571.36 1.8364 0.829384 0
M  V30 16134 O 1570.41 1.94705 1.60767 0
M  V30 16135 C 1571.73 2.56545 -1.56861 0
M  V30 16136 C 1573.28 2.70408 -1.57634 0
M  V30 16137 C 1573.75 3.83154 -2.50913 0
M  V30 16138 N 1575.24 3.90521 -2.49093 0
M  V30 16139 C 1575.98 4.77167 -3.17962 0
M  V30 16140 N 1575.47 5.68334 -3.96193 0
M  V30 16141 N 1577.27 4.70857 -3.07002 0
M  V30 16142 H 1569.42 1.02205 -1.86193 0
M  V30 16143 H 1571.68 0.509982 -0.799138 0
M  V30 16144 H 1571.39 2.3637 -2.60427 0
M  V30 16145 H 1571.26 3.53839 -1.30681 0
M  V30 16146 H 1573.65 2.89967 -0.548005 0
M  V30 16147 H 1573.73 1.73615 -1.8786 0
M  V30 16148 H 1573.37 3.64349 -3.53853 0
M  V30 16149 H 1573.3 4.79365 -2.17984 0
M  V30 16150 H 1575.79 3.25329 -1.92274 0
M  V30 16151 H 1576.11 6.31298 -4.45738 0
M  V30 16152 H 1574.45 5.68144 -4.00297 0
M  V30 16153 H 1577.64 3.98629 -2.45382 0
M  V30 16154 H 1577.81 5.38166 -3.60945 0
M  V30 16155 N 1571.22 0.688118 1.41784 0
M  V30 16156 C 1572.45 0.223231 2.06195 0
M  V30 16157 C 1572.87 -1.11601 1.51416 0
M  V30 16158 O 1572.23 -1.69701 0.638059 0
M  V30 16159 C 1572.28 0.183257 3.60134 0
M  V30 16160 O 1571.38 -0.844186 4.03667 0
M  V30 16161 H 1570.72 0.110925 0.654669 0
M  V30 16162 H 1573.25 0.940882 1.81683 0
M  V30 16163 H 1573.26 0.0115951 4.07998 0
M  V30 16164 H 1571.94 1.16072 3.99375 0
M  V30 16165 H 1570.51 -0.642484 3.67323 0
M  V30 16166 N 1572.7 -1.51554 0.432352 0
M  V30 16167 C 1573.98 -1.94621 -0.195472 0
M  V30 16168 C 1574.36 -1.37072 -1.60544 0
M  V30 16169 O 1573.7 -0.555781 -2.21638 0
M  V30 16170 C 1573.91 -3.48544 -0.178267 0
M  V30 16171 C 1575.26 -4.22839 -0.386283 0
M  V30 16172 O 1576.29 -3.55275 -0.256604 0
M  V30 16173 O 1575.14 -5.42693 -0.643927 0
M  V30 16174 H 1572.24 -0.816291 -0.132656 0
M  V30 16175 H 1574.78 -1.62473 0.489972 0
M  V30 16176 H 1573.56 -3.82874 0.807658 0
M  V30 16177 H 1573.18 -3.87121 -0.906832 0
M  V30 16178 N 1574.18 -0.163538 -1.56749 0
M  V30 16179 C 1575.59 0.354516 -1.83303 0
M  V30 16180 C 1575.94 1.63601 -1.08301 0
M  V30 16181 O 1575.06 2.13814 -0.333546 0
M  V30 16182 C 1575.66 0.649983 -3.32507 0
M  V30 16183 C 1574.22 1.1125 -3.59584 0
M  V30 16184 C 1573.36 0.144257 -2.76925 0
M  V30 16185 H 1576.32 -0.387945 -1.53885 0
M  V30 16186 H 1576.34 1.5029 -3.49562 0
M  V30 16187 H 1575.85 -0.282886 -3.87068 0
M  V30 16188 H 1573.95 2.06074 -3.10426 0
M  V30 16189 H 1574.06 1.02704 -4.67962 0
M  V30 16190 H 1572.43 0.640116 -2.46525 0
M  V30 16191 H 1573.21 -0.782495 -3.34263 0
M  V30 16192 N 1575.65 1.57214 0.110213 0
M  V30 16193 C 1576.56 2.04287 1.15342 0
M  V30 16194 C 1577.58 0.964895 1.44796 0
M  V30 16195 O 1578.76 1.27702 1.55737 0
M  V30 16196 C 1575.82 2.44518 2.45788 0
M  V30 16197 C 1574.88 3.66439 2.23653 0
M  V30 16198 C 1574.12 4.04742 3.47879 0
M  V30 16199 O 1574.34 3.43291 4.5553 0
M  V30 16200 O 1573.27 4.97791 3.38361 0
M  V30 16201 H 1577.1 2.93415 0.783656 0
M  V30 16202 H 1574.68 1.45897 0.321644 0
M  V30 16203 H 1576.57 2.71089 3.22628 0
M  V30 16204 H 1575.24 1.58533 2.82221 0
M  V30 16205 H 1574.15 3.45006 1.44643 0
M  V30 16206 H 1575.48 4.53156 1.9212 0
M  V30 16207 N 1577.13 -0.380637 1.52934 0
M  V30 16208 C 1578.36 -1.15033 1.72575 0
M  V30 16209 C 1578.78 -1.82715 0.446869 0
M  V30 16210 O 1578.14 -1.71154 -0.598004 0
M  V30 16211 C 1578.19 -2.16773 2.8817 0
M  V30 16212 O 1577.29 -3.23539 2.55727 0
M  V30 16213 H 1576.63 -0.334489 0.573597 0
M  V30 16214 H 1579.16 -0.442369 1.9976 0
M  V30 16215 H 1579.17 -2.60629 3.13905 0
M  V30 16216 H 1577.85 -1.669 3.80943 0
M  V30 16217 H 1576.43 -2.84761 2.4076 0
M  V30 16218 N 1578.61 -1.44039 -0.639573 0
M  V30 16219 C 1579.54 -1.46233 -1.76489 0
M  V30 16220 C 1580.56 -0.356739 -1.58843 0
M  V30 16221 O 1581.74 -0.621988 -1.67313 0
M  V30 16222 C 1578.84 -1.27252 -3.14102 0
M  V30 16223 C 1578.02 -2.50902 -3.58283 0
M  V30 16224 C 1577.08 -2.26944 -4.74745 0
M  V30 16225 O 1576.1 -3.00381 -4.83487 0
M  V30 16226 N 1577.3 -1.29468 -5.65878 0
M  V30 16227 H 1580.07 -2.43243 -1.7508 0
M  V30 16228 H 1577.63 -1.3937 -0.823867 0
M  V30 16229 H 1579.62 -1.09085 -3.89721 0
M  V30 16230 H 1578.19 -0.386383 -3.10203 0
M  V30 16231 H 1577.41 -2.84403 -2.72963 0
M  V30 16232 H 1578.7 -3.33163 -3.84552 0
M  V30 16233 H 1578.1 -0.687994 -5.61501 0
M  V30 16234 H 1576.66 -1.17281 -6.41162 0
M  V30 16235 N 1580.09 0.879207 -1.30796 0
M  V30 16236 C 1581.5 1.44705 -1.17972 0
M  V30 16237 C 1581.85 1.94992 0.217381 0
M  V30 16238 O 1580.98 1.85494 1.11449 0
M  V30 16239 C 1581.57 2.6302 -2.13555 0
M  V30 16240 C 1580.13 3.15877 -2.04692 0
M  V30 16241 C 1579.28 1.88576 -2.03309 0
M  V30 16242 H 1582.23 0.688604 -1.42982 0
M  V30 16243 H 1582.25 3.39418 -1.71976 0
M  V30 16244 H 1581.76 2.2639 -3.15229 0
M  V30 16245 H 1579.86 3.57151 -1.0618 0
M  V30 16246 H 1579.97 3.78786 -2.93357 0
M  V30 16247 H 1578.34 2.0715 -1.48192 0
M  V30 16248 H 1579.12 1.54195 -3.06723 0
M  V30 16249 N 1581.57 1.13606 1.09231 0
M  V30 16250 C 1582.5 0.837908 2.17948 0
M  V30 16251 C 1583.48 -0.203575 1.68877 0
M  V30 16252 O 1584.66 -0.0620702 1.94101 0
M  V30 16253 C 1581.79 0.305342 3.45955 0
M  V30 16254 C 1580.75 1.2813 4.08371 0
M  V30 16255 C 1580.07 0.608412 5.31227 0
M  V30 16256 C 1581.37 2.64055 4.50636 0
M  V30 16257 H 1583.07 1.747 2.43147 0
M  V30 16258 H 1580.61 0.84141 1.1686 0
M  V30 16259 H 1582.57 0.0844116 4.21315 0
M  V30 16260 H 1581.29 -0.639144 3.20285 0
M  V30 16261 H 1579.95 1.48826 3.35032 0
M  V30 16262 H 1579.6 -0.341613 5.01839 0
M  V30 16263 H 1579.3 1.25956 5.73942 0
M  V30 16264 H 1580.82 0.396809 6.09309 0
M  V30 16265 H 1582.24 2.47316 5.17212 0
M  V30 16266 H 1580.63 3.25364 5.0424 0
M  V30 16267 H 1581.7 3.21566 3.62937 0
M  V30 16268 N 1583.05 -1.27244 0.929878 0
M  V30 16269 C 1583.98 -2.29161 0.448066 0
M  V30 16270 C 1584.96 -1.62806 -0.492776 0
M  V30 16271 O 1586.14 -1.90098 -0.39706 0
M  V30 16272 C 1583.27 -3.46019 -0.298002 0
M  V30 16273 C 1582.23 -4.24384 0.555211 0
M  V30 16274 C 1581.55 -5.33741 -0.320153 0
M  V30 16275 C 1582.85 -4.89535 1.8208 0
M  V30 16276 H 1584.55 -2.69712 1.29983 0
M  V30 16277 H 1582.09 -1.29659 0.626466 0
M  V30 16278 H 1584.04 -4.16419 -0.646024 0
M  V30 16279 H 1582.77 -3.0439 -1.18381 0
M  V30 16280 H 1581.43 -3.55733 0.885971 0
M  V30 16281 H 1581.08 -4.88354 -1.20498 0
M  V30 16282 H 1580.78 -5.8708 0.247241 0
M  V30 16283 H 1582.3 -6.06982 -0.663697 0
M  V30 16284 H 1583.71 -5.52209 1.54071 0
M  V30 16285 H 1582.11 -5.52941 2.33186 0
M  V30 16286 H 1583.18 -4.13113 2.53901 0
M  V30 16287 N 1584.52 -0.695628 -1.41417 0
M  V30 16288 C 1585.77 -0.226171 -2.0083 0
M  V30 16289 C 1586.09 1.17833 -1.55371 0
M  V30 16290 O 1585.36 1.79512 -0.784362 0
M  V30 16291 H 1583.94 -0.0806271 -0.742636 0
M  V30 16292 H 1586.6 -0.8968 -1.73042 0
M  V30 16293 H 1585.7 -0.243643 -3.11148 0
M  V30 16294 N 1586 1.51322 -0.440383 0
M  V30 16295 C 1587.41 1.86687 0.0220272 0
M  V30 16296 C 1587.76 1.35734 1.41671 0
M  V30 16297 O 1586.89 0.709408 2.04442 0
M  V30 16298 C 1587.48 3.38768 0.0467477 0
M  V30 16299 C 1586.04 3.73657 0.45358 0
M  V30 16300 C 1585.19 2.7506 -0.351779 0
M  V30 16301 H 1588.14 1.44503 -0.65609 0
M  V30 16302 H 1588.16 3.70756 0.855589 0
M  V30 16303 H 1587.67 3.75823 -0.968451 0
M  V30 16304 H 1585.77 3.42193 1.47427 0
M  V30 16305 H 1585.89 4.78776 0.176262 0
M  V30 16306 H 1584.25 2.53988 0.190334 0
M  V30 16307 H 1585.03 3.14957 -1.36591 0
M  V30 16308 N 1587.48 0.171848 1.5666 0
M  V30 16309 C 1588.73 -0.472034 1.9651 0
M  V30 16310 C 1589.05 -1.63743 1.05893 0
M  V30 16311 O 1588.32 -1.95498 0.125396 0
M  V30 16312 H 1586.9 -0.177377 0.725635 0
M  V30 16313 H 1589.56 0.253155 1.93249 0
M  V30 16314 H 1588.66 -0.831693 3.00814 0
M  V30 16315 N 1588.96 -1.5727 -0.101874 0
M  V30 16316 C 1589.92 -2.00625 -1.10826 0
M  V30 16317 C 1590.92 -0.89878 -1.33336 0
M  V30 16318 O 1592.11 -1.16442 -1.29564 0
M  V30 16319 C 1589.24 -2.36113 -2.45893 0
M  V30 16320 H 1590.44 -2.90748 -0.735238 0
M  V30 16321 H 1587.99 -1.52406 -0.346713 0
M  V30 16322 H 1588.72 -1.48923 -2.88084 0
M  V30 16323 H 1588.51 -3.169 -2.30904 0
M  V30 16324 H 1590 -2.70336 -3.1829 0
M  V30 16325 N 1590.44 0.372521 -1.53134 0
M  V30 16326 C 1591.68 1.11368 -1.68646 0
M  V30 16327 C 1592 1.90034 -0.437275 0
M  V30 16328 O 1591.27 1.88062 0.548593 0
M  V30 16329 H 1589.85 0.414129 -0.621696 0
M  V30 16330 H 1592.52 0.42082 -1.90303 0
M  V30 16331 H 1591.61 1.80738 -2.54441 0
M  V30 16332 N 1591.91 1.44376 0.631925 0
M  V30 16333 C 1593.16 1.46827 1.38875 0
M  V30 16334 C 1593.48 0.101789 1.94734 0
M  V30 16335 O 1592.75 -0.86579 1.7573 0
M  V30 16336 H 1591.33 0.540642 0.515475 0
M  V30 16337 H 1593.99 1.80148 0.743822 0
M  V30 16338 H 1593.09 2.19321 2.22047 0
M  V30 16339 N 1593.39 -0.872258 1.31261 0
M  V30 16340 C 1594.35 -1.96081 1.1868 0
M  V30 16341 C 1595.35 -1.60392 0.11452 0
M  V30 16342 O 1596.54 -1.70363 0.363613 0
M  V30 16343 C 1593.68 -3.30862 0.821183 0
M  V30 16344 H 1594.87 -2.08667 2.15402 0
M  V30 16345 H 1592.42 -1.06026 1.14839 0
M  V30 16346 H 1593.16 -3.23976 -0.14498 0
M  V30 16347 H 1592.94 -3.58137 1.59625 0
M  V30 16348 H 1594.43 -4.10682 0.756991 0
M  V30 16349 N 1594.87 -1.14184 -1.08627 0
M  V30 16350 C 1596.12 -0.906869 -1.80611 0
M  V30 16351 C 1596.44 0.568182 -1.86539 0
M  V30 16352 O 1595.71 1.41301 -1.35687 0
M  V30 16353 H 1594.29 -0.332523 -0.668908 0
M  V30 16354 H 1596.95 -1.43998 -1.31341 0
M  V30 16355 H 1596.05 -1.30484 -2.83514 0
M  V30 16356 N 1596.35 1.26749 -0.936613 0
M  V30 16357 C 1597.6 1.9358 -0.580605 0
M  V30 16358 C 1597.92 1.7389 0.882446 0
M  V30 16359 O 1597.19 1.09185 1.62652 0
M  V30 16360 H 1595.77 0.716363 -0.211739 0
M  V30 16361 H 1598.43 1.54281 -1.19095 0
M  V30 16362 H 1597.53 3.01819 -0.79448 0
M  V30 16363 N 1597.83 0.703118 1.41046 0
M  V30 16364 C 1599.05 0.246552 2.05426 0
M  V30 16365 C 1599.47 -1.10704 1.52938 0
M  V30 16366 O 1598.83 -1.69329 0.680733 0
M  V30 16367 C 1598.88 0.203953 3.60924 0
M  V30 16368 O 1598.6 1.50408 4.11472 0
M  V30 16369 C 1600.1 -0.272686 4.42461 0
M  V30 16370 H 1597.32 0.113157 0.66139 0
M  V30 16371 H 1599.86 0.957823 1.80682 0
M  V30 16372 H 1598.02 -0.458194 3.84681 0
M  V30 16373 H 1598.43 1.39622 5.05575 0
M  V30 16374 H 1599.91 -0.251357 5.51427 0
M  V30 16375 H 1600.38 -1.31282 4.1912 0
M  V30 16376 H 1600.99 0.358733 4.23784 0
M  V30 16377 N 1599.3 -1.51086 0.448402 0
M  V30 16378 C 1600.55 -2.01778 -0.114116 0
M  V30 16379 C 1600.87 -1.3339 -1.4224 0
M  V30 16380 O 1600.14 -0.471938 -1.9013 0
M  V30 16381 H 1598.72 -0.745634 -0.0451624 0
M  V30 16382 H 1601.39 -1.85639 0.59364 0
M  V30 16383 H 1600.48 -3.10823 -0.28205 0
M  V30 16384 N 1600.78 -0.180154 -1.56567 0
M  V30 16385 C 1602.03 0.461606 -1.96758 0
M  V30 16386 C 1602.35 1.63179 -1.0676 0
M  V30 16387 O 1601.62 1.95429 -0.135762 0
M  V30 16388 H 1600.2 0.173526 -0.726566 0
M  V30 16389 H 1602.86 -0.2634 -1.93112 0
M  V30 16390 H 1601.96 0.815729 -3.01251 0
M  V30 16391 N 1602.26 1.57322 0.0935319 0
M  V30 16392 C 1603.22 2.0121 1.0976 0
M  V30 16393 C 1604.22 0.905839 1.32858 0
M  V30 16394 O 1605.41 1.17128 1.28945 0
M  V30 16395 C 1602.55 2.37414 2.44638 0
M  V30 16396 H 1603.74 2.91134 0.719809 0
M  V30 16397 H 1601.29 1.52588 0.338625 0
M  V30 16398 H 1602.03 1.50449 2.8729 0
M  V30 16399 H 1601.81 3.1812 2.2922 0
M  V30 16400 H 1603.3 2.7202 3.16851 0
M  V30 16401 N 1603.74 -0.364395 1.53329 0
M  V30 16402 C 1604.99 -1.10473 1.69234 0
M  V30 16403 C 1605.31 -1.89799 0.447347 0
M  V30 16404 O 1604.58 -1.8835 -0.538612 0
M  V30 16405 H 1603.16 -0.410826 0.623884 0
M  V30 16406 H 1605.82 -0.410721 1.90523 0
M  V30 16407 H 1604.92 -1.79387 2.55396 0
M  V30 16408 N 1605.22 -1.44709 -0.62426 0
M  V30 16409 C 1606.46 -1.47561 -1.38094 0
M  V30 16410 C 1606.79 -0.112115 -1.94677 0
M  V30 16411 O 1606.06 0.856458 -1.76186 0
M  V30 16412 H 1604.64 -0.543368 -0.512601 0
M  V30 16413 H 1607.3 -1.8054 -0.734258 0
M  V30 16414 H 1606.39 -2.20496 -2.2088 0
M  V30 16415 N 1606.69 0.865285 -1.31722 0
M  V30 16416 C 1607.94 1.61549 -1.21435 0
M  V30 16417 C 1608.26 1.9368 0.226501 0
M  V30 16418 O 1607.53 1.58705 1.14846 0
M  V30 16419 H 1606.11 0.598905 -0.446454 0
M  V30 16420 H 1608.78 1.03563 -1.65108 0
M  V30 16421 H 1607.87 2.55708 -1.78941 0
M  V30 16422 N 1608.17 1.14759 1.0802 0
M  V30 16423 C 1609.14 0.840859 2.13219 0
M  V30 16424 C 1610.14 -0.156309 1.60038 0
M  V30 16425 O 1611.33 0.0725143 1.74049 0
M  V30 16426 C 1608.46 0.254208 3.39951 0
M  V30 16427 H 1609.65 1.77323 2.4186 0
M  V30 16428 H 1607.2 0.954146 1.23797 0
M  V30 16429 H 1607.94 -0.686692 3.16946 0
M  V30 16430 H 1607.72 0.972499 3.79848 0
M  V30 16431 H 1609.21 0.0569551 4.17561 0
M  V30 16432 N 1609.65 -1.26251 0.943322 0
M  V30 16433 C 1611.06 -1.75591 0.634391 0
M  V30 16434 C 1611.41 -1.76812 -0.850406 0
M  V30 16435 O 1610.54 -1.38162 -1.66554 0
M  V30 16436 C 1611.13 -3.18871 1.14484 0
M  V30 16437 C 1609.69 -3.65817 0.886285 0
M  V30 16438 C 1608.84 -2.4523 1.2945 0
M  V30 16439 H 1611.79 -1.12297 1.12139 0
M  V30 16440 H 1611.81 -3.77205 0.499654 0
M  V30 16441 H 1611.32 -3.17951 2.22551 0
M  V30 16442 H 1609.42 -3.72165 -0.179913 0
M  V30 16443 H 1609.54 -4.54523 1.5148 0
M  V30 16444 H 1607.9 -2.44519 0.712919 0
M  V30 16445 H 1608.68 -2.47009 2.38415 0
M  V30 16446 N 1611.13 -0.710588 -1.40671 0
M  V30 16447 C 1612.09 -0.0635988 -2.29112 0
M  V30 16448 C 1613.09 0.692537 -1.45123 0
M  V30 16449 O 1614.28 0.525184 -1.66095 0
M  V30 16450 C 1611.41 0.919955 -3.28252 0
M  V30 16451 H 1612.61 -0.842477 -2.87823 0
M  V30 16452 H 1610.16 -0.474948 -1.48909 0
M  V30 16453 H 1610.9 1.72607 -2.7455 0
M  V30 16454 H 1610.68 0.38071 -3.90247 0
M  V30 16455 H 1612.17 1.36997 -3.94489 0
M  V30 16456 N 1612.61 1.50847 -0.456408 0
M  V30 16457 C 1613.57 2.26755 0.33388 0
M  V30 16458 C 1614.57 1.30947 0.933247 0
M  V30 16459 O 1615.76 1.54499 0.804716 0
M  V30 16460 C 1612.89 3.07378 1.47417 0
M  V30 16461 H 1614.09 2.98061 -0.331634 0
M  V30 16462 H 1611.64 1.54882 -0.210067 0
M  V30 16463 H 1612.37 2.40534 2.17518 0
M  V30 16464 H 1612.16 3.7777 1.05036 0
M  V30 16465 H 1613.65 3.64826 2.03204 0
M  V30 16466 N 1614.09 0.188454 1.56469 0
M  V30 16467 C 1615.5 -0.325309 1.83844 0
M  V30 16468 C 1615.85 -1.61858 1.1089 0
M  V30 16469 O 1614.97 -2.13256 0.36752 0
M  V30 16470 C 1615.57 -0.597002 3.33499 0
M  V30 16471 C 1614.13 -1.05515 3.61308 0
M  V30 16472 C 1613.27 -0.100182 2.77119 0
M  V30 16473 H 1616.22 0.412378 1.53249 0
M  V30 16474 H 1616.25 -1.44709 3.51908 0
M  V30 16475 H 1615.76 0.344429 3.86569 0
M  V30 16476 H 1613.86 -2.01109 3.13665 0
M  V30 16477 H 1613.97 -0.952461 4.69537 0
M  V30 16478 H 1612.34 -0.600815 2.47512 0
M  V30 16479 H 1613.12 0.835574 3.32976 0
M  V30 16480 N 1615.56 -1.5737 -0.0851874 0
M  V30 16481 C 1616.97 -1.7544 -0.638575 0
M  V30 16482 C 1617.33 -0.812041 -1.78607 0
M  V30 16483 O 1616.45 0.00710428 -2.16399 0
M  V30 16484 C 1617.05 -3.18134 -1.16517 0
M  V30 16485 C 1615.6 -3.37594 -1.66454 0
M  V30 16486 C 1614.75 -2.71203 -0.578274 0
M  V30 16487 H 1617.7 -1.58073 0.140931 0
M  V30 16488 H 1617.72 -3.21553 -2.0343 0
M  V30 16489 H 1617.24 -3.86696 -0.329794 0
M  V30 16490 H 1615.34 -2.74126 -2.5236 0
M  V30 16491 H 1615.45 -4.45968 -1.75071 0
M  V30 16492 H 1613.81 -2.33379 -1.02011 0
M  V30 16493 H 1614.6 -3.42413 0.246691 0
M  V30 16494 N 1617.04 0.356258 -1.53521 0
M  V30 16495 C 1618.45 0.932569 -1.61741 0
M  V30 16496 C 1618.8 1.89965 -0.490677 0
M  V30 16497 O 1617.93 2.1301 0.381514 0
M  V30 16498 C 1618.52 1.69818 -2.93168 0
M  V30 16499 C 1617.08 2.22369 -3.03692 0
M  V30 16500 C 1616.23 1.03891 -2.57103 0
M  V30 16501 H 1619.18 0.134769 -1.58127 0
M  V30 16502 H 1619.2 2.56011 -2.81494 0
M  V30 16503 H 1618.71 0.994065 -3.75153 0
M  V30 16504 H 1616.81 2.95994 -2.26314 0
M  V30 16505 H 1616.93 2.49611 -4.08939 0
M  V30 16506 H 1615.29 1.40862 -2.12202 0
M  V30 16507 H 1616.07 0.349637 -3.41515 0
M  V30 16508 N 1618.52 1.45038 0.616577 0
M  V30 16509 C 1619.76 1.50118 1.38723 0
M  V30 16510 C 1620.12 0.135879 1.91519 0
M  V30 16511 O 1621.32 0.0613609 2.6873 0
M  V30 16512 C 1619.6 2.5434 2.51089 0
M  V30 16513 S 1621.15 2.78577 3.39028 0
M  V30 16514 H 1617.97 0.530782 0.473066 0
M  V30 16515 H 1620.57 1.82059 0.712362 0
M  V30 16516 H 1619.28 3.52222 2.10638 0
M  V30 16517 H 1618.81 2.24019 3.23387 0
M  V30 16518 H 1620.82 2.11275 4.48974 0
M  V30 16519 N 1620 -0.858287 1.32179 0
M  V30 16520 C 1621.41 -1.14591 1.1109 0
M  V30 16521 C 1621.61 -2.01194 -0.110998 0
M  V30 16522 O 1620.67 -2.39593 -0.79695 0
M  V30 16523 C 1621.98 -1.82675 2.38852 0
M  V30 16524 C 1623.53 -1.95326 2.44574 0
M  V30 16525 C 1624.01 -2.66826 3.72247 0
M  V30 16526 N 1625.5 -2.74353 3.73208 0
M  V30 16527 C 1626.23 -3.30317 4.68698 0
M  V30 16528 N 1625.73 -3.87121 5.74552 0
M  V30 16529 N 1627.52 -3.28386 4.562 0
M  V30 16530 H 1619.67 -0.281471 2.10527 0
M  V30 16531 H 1621.93 -0.187326 0.929308 0
M  V30 16532 H 1621.64 -1.26495 3.28165 0
M  V30 16533 H 1621.51 -2.82862 2.49537 0
M  V30 16534 H 1623.9 -2.50668 1.55723 0
M  V30 16535 H 1623.98 -0.94147 2.37844 0
M  V30 16536 H 1623.63 -2.12149 4.61471 0
M  V30 16537 H 1623.56 -3.68437 3.76247 0
M  V30 16538 H 1626.05 -2.34051 2.96696 0
M  V30 16539 H 1626.36 -4.2797 6.43476 0
M  V30 16540 H 1624.71 -3.85463 5.78311 0
M  V30 16541 H 1627.9 -2.83254 3.72672 0
M  V30 16542 H 1628.07 -3.71701 5.30794 0
M  V30 16543 N 1621.48 -1.1533 -1.07409 0
M  V30 16544 C 1622.44 -0.852155 -2.1277 0
M  V30 16545 C 1623.44 0.14782 -1.60119 0
M  V30 16546 O 1624.63 -0.0817436 -1.74008 0
M  V30 16547 C 1621.76 -0.272233 -3.39811 0
M  V30 16548 H 1622.95 -1.78604 -2.40917 0
M  V30 16549 H 1620.51 -0.960698 -1.23289 0
M  V30 16550 H 1621.24 0.669873 -3.17306 0
M  V30 16551 H 1621.03 -0.992629 -3.79327 0
M  V30 16552 H 1622.52 -0.0790986 -4.17525 0
M  V30 16553 N 1622.95 1.25748 -0.950004 0
M  V30 16554 C 1623.92 2.24307 -0.47106 0
M  V30 16555 C 1624.92 1.55145 0.422704 0
M  V30 16556 O 1626.11 1.72797 0.220642 0
M  V30 16557 C 1623.24 3.39395 0.319979 0
M  V30 16558 H 1624.43 2.68192 -1.34214 0
M  V30 16559 H 1621.98 1.38056 -0.732827 0
M  V30 16560 H 1622.72 3.00925 1.20892 0
M  V30 16561 H 1622.5 3.90783 -0.321157 0
M  V30 16562 H 1623.99 4.12594 0.644697 0
M  V30 16563 N 1624.43 0.718038 1.40292 0
M  V30 16564 C 1625.84 0.330675 1.83748 0
M  V30 16565 C 1626.19 -1.13511 1.6003 0
M  V30 16566 O 1625.32 -1.87381 1.08247 0
M  V30 16567 C 1625.91 0.593398 3.33563 0
M  V30 16568 C 1624.47 0.259717 3.75503 0
M  V30 16569 C 1623.62 0.864537 2.63479 0
M  V30 16570 H 1626.57 0.917 1.29525 0
M  V30 16571 H 1626.59 -0.140544 3.8024 0
M  V30 16572 H 1626.1 1.66028 3.50794 0
M  V30 16573 H 1624.2 -0.802011 3.63866 0
M  V30 16574 H 1624.32 0.730427 4.73499 0
M  V30 16575 H 1622.68 0.292399 2.53016 0
M  V30 16576 H 1623.46 1.93574 2.83521 0
M  V30 16577 N 1625.91 -1.50602 0.464402 0
M  V30 16578 C 1627.32 -1.86698 0.00767586 0
M  V30 16579 C 1627.67 -1.37971 -1.39494 0
M  V30 16580 O 1626.8 -0.741843 -2.03287 0
M  V30 16581 C 1627.39 -3.38799 0.00715323 0
M  V30 16582 C 1625.95 -3.74331 -0.394077 0
M  V30 16583 C 1625.1 -2.74465 0.395495 0
M  V30 16584 H 1628.05 -1.43441 0.678996 0
M  V30 16585 H 1628.07 -3.7207 -0.796497 0
M  V30 16586 H 1627.58 -3.74234 1.02812 0
M  V30 16587 H 1625.68 -3.44495 -1.41964 0
M  V30 16588 H 1625.8 -4.78995 -0.10007 0
M  V30 16589 H 1624.16 -2.54258 -0.149903 0
M  V30 16590 H 1624.94 -3.12744 1.41585 0
M  V30 16591 N 1627.39 -0.19675 -1.56367 0
M  V30 16592 C 1628.8 0.315555 -1.84014 0
M  V30 16593 C 1629.15 1.61267 -1.11747 0
M  V30 16594 O 1628.28 2.13058 -0.378824 0
M  V30 16595 C 1628.87 0.579307 -3.33811 0
M  V30 16596 C 1627.43 1.03598 -3.61862 0
M  V30 16597 C 1626.58 0.0854845 -2.77168 0
M  V30 16598 H 1629.53 -0.4205 -1.53028 0
M  V30 16599 H 1629.55 1.42841 -3.52671 0
M  V30 16600 H 1629.06 -0.364925 -3.86381 0
M  V30 16601 H 1627.16 1.99443 -3.14727 0
M  V30 16602 H 1627.27 0.927547 -4.70035 0
M  V30 16603 H 1625.64 0.58768 -2.47827 0
M  V30 16604 H 1626.42 -0.853221 -3.32528 0
M  V30 16605 N 1628.87 1.57413 0.0768405 0
M  V30 16606 C 1630.11 1.88835 0.78235 0
M  V30 16607 C 1630.47 0.789942 1.74997 0
M  V30 16608 O 1631.67 0.987092 2.5002 0
M  V30 16609 C 1629.94 3.25491 1.47616 0
M  V30 16610 S 1631.5 3.78649 2.21743 0
M  V30 16611 H 1628.32 0.661649 0.260272 0
M  V30 16612 H 1630.92 1.95462 0.0386596 0
M  V30 16613 H 1629.63 4.03338 0.758047 0
M  V30 16614 H 1629.16 3.22049 2.25938 0
M  V30 16615 H 1631.17 3.53531 3.48182 0
M  V30 16616 N 1630.34 -0.348112 1.53707 0
M  V30 16617 C 1631.76 -0.923978 1.62233 0
M  V30 16618 C 1632.11 -1.89702 0.500744 0
M  V30 16619 O 1631.23 -2.1321 -0.370212 0
M  V30 16620 C 1631.83 -1.68261 2.94064 0
M  V30 16621 C 1630.39 -2.20755 3.04867 0
M  V30 16622 C 1629.53 -1.02526 2.5765 0
M  V30 16623 H 1632.48 -0.126381 1.58196 0
M  V30 16624 H 1632.5 -2.54514 2.82848 0
M  V30 16625 H 1632.02 -0.974155 3.75675 0
M  V30 16626 H 1630.12 -2.9479 2.27881 0
M  V30 16627 H 1630.23 -2.47439 4.10257 0
M  V30 16628 H 1628.59 -1.39735 2.12947 0
M  V30 16629 H 1629.38 -0.331521 3.41696 0
M  V30 16630 N 1631.82 -1.45363 -0.608876 0
M  V30 16631 C 1633.05 -1.52614 -1.39257 0
M  V30 16632 C 1633.46 -0.157106 -1.88547 0
M  V30 16633 O 1632.8 0.851329 -1.62782 0
M  V30 16634 C 1632.87 -2.44821 -2.63255 0
M  V30 16635 C 1632.53 -3.91582 -2.35612 0
M  V30 16636 C 1633.53 -4.81517 -1.96054 0
M  V30 16637 C 1631.21 -4.36488 -2.48564 0
M  V30 16638 C 1633.21 -6.14365 -1.69808 0
M  V30 16639 C 1630.89 -5.69377 -2.21931 0
M  V30 16640 C 1631.89 -6.58135 -1.82614 0
M  V30 16641 O 1631.58 -7.88561 -1.56292 0
M  V30 16642 H 1631.31 -0.51935 -0.432726 0
M  V30 16643 H 1633.86 -1.91227 -0.749768 0
M  V30 16644 H 1632.09 -2.01177 -3.30249 0
M  V30 16645 H 1633.78 -2.4277 -3.25296 0
M  V30 16646 H 1634.55 -4.48088 -1.85585 0
M  V30 16647 H 1630.43 -3.67646 -2.78133 0
M  V30 16648 H 1633.97 -6.83602 -1.39045 0
M  V30 16649 H 1629.87 -6.02361 -2.32016 0
M  V30 16650 H 1630.64 -8.00576 -1.70355 0
M  V30 16651 N 1633.3 0.851265 -1.32632 0
M  V30 16652 C 1634.23 1.97562 -1.24465 0
M  V30 16653 C 1635.21 1.69619 -0.127777 0
M  V30 16654 O 1636.4 1.9162 -0.315509 0
M  V30 16655 C 1633.53 3.33467 -0.970423 0
M  V30 16656 C 1632.48 3.75772 -2.0489 0
M  V30 16657 C 1631.81 5.09345 -1.62702 0
M  V30 16658 C 1633.11 3.90876 -3.4643 0
M  V30 16659 H 1634.8 2.04653 -2.18535 0
M  V30 16660 H 1632.35 0.983252 -1.05205 0
M  V30 16661 H 1634.3 4.11681 -0.899825 0
M  V30 16662 H 1633.02 3.26599 0.00591373 0
M  V30 16663 H 1631.68 2.99812 -2.1097 0
M  V30 16664 H 1631.33 4.98937 -0.638039 0
M  V30 16665 H 1631.03 5.38621 -2.34864 0
M  V30 16666 H 1632.55 5.90048 -1.57085 0
M  V30 16667 H 1633.97 4.59434 -3.42919 0
M  V30 16668 H 1632.37 4.31574 -4.1697 0
M  V30 16669 H 1633.44 2.93689 -3.85843 0
M  V30 16670 N 1634.78 1.15898 1.06796 0
M  V30 16671 C 1636.06 0.847701 1.76276 0
M  V30 16672 C 1636.44 -0.655537 2.00664 0
M  V30 16673 O 1635.78 -1.60171 1.62964 0
M  V30 16674 C 1635.99 1.66475 3.06736 0
M  V30 16675 C 1637.34 1.87452 3.80982 0
M  V30 16676 O 1638.37 1.63298 3.16563 0
M  V30 16677 O 1637.22 2.27942 4.96694 0
M  V30 16678 H 1634.32 0.312308 0.765763 0
M  V30 16679 H 1636.86 1.26507 1.13111 0
M  V30 16680 H 1635.64 2.68508 2.84638 0
M  V30 16681 H 1635.26 1.24409 3.77635 0
M  V30 16682 N 1636.26 -1.25243 0.956659 0
M  V30 16683 C 1637.19 -2.28159 0.496574 0
M  V30 16684 C 1638.17 -1.63814 -0.458132 0
M  V30 16685 O 1639.35 -1.90897 -0.356648 0
M  V30 16686 C 1636.48 -3.46573 -0.22454 0
M  V30 16687 C 1635.44 -4.2311 0.645104 0
M  V30 16688 C 1634.76 -5.343 -0.206867 0
M  V30 16689 C 1636.06 -4.85562 1.92422 0
M  V30 16690 H 1637.76 -2.66895 1.35675 0
M  V30 16691 H 1635.3 -1.28301 0.653827 0
M  V30 16692 H 1637.26 -4.17695 -0.55755 0
M  V30 16693 H 1635.98 -3.06833 -1.11898 0
M  V30 16694 H 1634.64 -3.53774 0.961228 0
M  V30 16695 H 1634.29 -4.908 -1.10112 0
M  V30 16696 H 1633.99 -5.86423 0.371714 0
M  V30 16697 H 1635.51 -6.08253 -0.534798 0
M  V30 16698 H 1636.92 -5.48817 1.65749 0
M  V30 16699 H 1635.32 -5.47871 2.44862 0
M  V30 16700 H 1636.39 -4.07634 2.62607 0
M  V30 16701 N 1637.73 -0.725468 -1.3991 0
M  V30 16702 C 1638.64 -0.0805887 -2.34462 0
M  V30 16703 C 1639.66 0.732689 -1.57822 0
M  V30 16704 O 1640.84 0.663362 -1.90162 0
M  V30 16705 C 1637.9 0.822908 -3.36792 0
M  V30 16706 C 1636.96 -0.00153812 -4.293 0
M  V30 16707 C 1636.2 0.85893 -5.26743 0
M  V30 16708 O 1636.42 2.09793 -5.30418 0
M  V30 16709 O 1635.35 0.292659 -6.01188 0
M  V30 16710 H 1639.18 -0.860746 -2.91247 0
M  V30 16711 H 1636.76 -0.48604 -1.41273 0
M  V30 16712 H 1638.65 1.34014 -3.99522 0
M  V30 16713 H 1637.32 1.58204 -2.82406 0
M  V30 16714 H 1636.23 -0.564072 -3.69823 0
M  V30 16715 H 1637.56 -0.722675 -4.86866 0
M  V30 16716 N 1639.21 1.50354 -0.472382 0
M  V30 16717 C 1640.62 1.86692 -0.0175768 0
M  V30 16718 C 1640.97 1.38708 1.3876 0
M  V30 16719 O 1640.1 0.752614 2.02891 0
M  V30 16720 C 1640.69 3.38791 -0.0251205 0
M  V30 16721 C 1639.25 3.74535 0.37422 0
M  V30 16722 C 1638.4 2.74252 -0.410045 0
M  V30 16723 H 1641.35 1.43079 -0.686593 0
M  V30 16724 H 1641.37 3.72487 0.776754 0
M  V30 16725 H 1640.88 3.73684 -1.04795 0
M  V30 16726 H 1638.99 3.45243 1.40135 0
M  V30 16727 H 1639.1 4.79042 0.0746666 0
M  V30 16728 H 1637.46 2.54334 0.136417 0
M  V30 16729 H 1638.25 3.11989 -1.43241 0
M  V30 16730 N 1640.69 0.205039 1.56261 0
M  V30 16731 C 1641.92 -0.439502 2.0269 0
M  V30 16732 C 1642.34 -1.53715 1.08413 0
M  V30 16733 O 1641.7 -1.81167 0.0693616 0
M  V30 16734 C 1641.75 -0.963672 3.47485 0
M  V30 16735 O 1640.85 -2.07602 3.56336 0
M  V30 16736 H 1640.19 -0.101543 0.65619 0
M  V30 16737 H 1642.72 0.318835 2.021 0
M  V30 16738 H 1642.73 -1.27773 3.87476 0
M  V30 16739 H 1641.41 -0.160203 4.15591 0
M  V30 16740 H 1639.98 -1.76985 3.28224 0
M  V30 16741 N 1642.17 -1.57451 -0.0684915 0
M  V30 16742 C 1643.58 -1.76107 -0.619932 0
M  V30 16743 C 1643.93 -0.830939 -1.77735 0
M  V30 16744 O 1643.06 -0.0158481 -2.16394 0
M  V30 16745 C 1643.65 -3.19352 -1.13136 0
M  V30 16746 C 1642.21 -3.39341 -1.62864 0
M  V30 16747 C 1641.36 -2.71801 -0.549477 0
M  V30 16748 H 1644.31 -1.57915 0.157689 0
M  V30 16749 H 1644.33 -3.23693 -2.00008 0
M  V30 16750 H 1643.84 -3.87024 -0.288762 0
M  V30 16751 H 1641.94 -2.76787 -2.49438 0
M  V30 16752 H 1642.06 -4.47799 -1.70331 0
M  V30 16753 H 1640.42 -2.34448 -0.995302 0
M  V30 16754 H 1641.2 -3.42132 0.282995 0
M  V30 16755 N 1643.65 0.339955 -1.5389 0
M  V30 16756 C 1644.87 1.10417 -1.75564 0
M  V30 16757 C 1645.3 1.81466 -0.495156 0
M  V30 16758 O 1644.66 1.72679 0.552415 0
M  V30 16759 C 1644.7 2.09056 -2.93816 0
M  V30 16760 O 1643.81 3.16645 -2.64215 0
M  V30 16761 H 1643.15 0.319164 -0.582263 0
M  V30 16762 H 1645.68 0.389251 -2.00863 0
M  V30 16763 H 1645.69 2.52215 -3.20705 0
M  V30 16764 H 1644.36 1.56741 -3.85234 0
M  V30 16765 H 1642.94 2.78278 -2.48225 0
M  V30 16766 N 1645.13 1.45684 0.601159 0
M  V30 16767 C 1646.4 1.4051 1.36074 0
M  V30 16768 C 1646.78 0.0790095 2.10952 0
M  V30 16769 O 1646.13 -0.939162 2.08307 0
M  V30 16770 C 1646.34 2.62297 2.3022 0
M  V30 16771 C 1647.69 3.0766 2.92627 0
M  V30 16772 O 1648.71 2.62716 2.40539 0
M  V30 16773 O 1647.57 3.85675 3.87191 0
M  V30 16774 H 1644.67 0.557902 0.61047 0
M  V30 16775 H 1647.21 1.57822 0.623712 0
M  V30 16776 H 1645.98 3.50389 1.74194 0
M  V30 16777 H 1645.61 2.47351 3.11293 0
M  V30 16778 N 1646.6 -0.84422 1.33082 0
M  V30 16779 C 1647.83 -1.63654 1.27405 0
M  V30 16780 C 1648.25 -1.87476 -0.153146 0
M  V30 16781 O 1647.61 -1.43502 -1.10801 0
M  V30 16782 C 1647.66 -2.96698 2.04945 0
M  V30 16783 O 1646.76 -3.87751 1.40439 0
M  V30 16784 H 1646.1 -0.498545 0.438576 0
M  V30 16785 H 1648.63 -1.0507 1.7556 0
M  V30 16786 H 1648.64 -3.46438 2.1551 0
M  V30 16787 H 1647.32 -2.78682 3.08722 0
M  V30 16788 H 1645.9 -3.46231 1.38487 0
M  V30 16789 N 1648.08 -1.16463 -1.0618 0
M  V30 16790 C 1648.99 -0.886601 -2.17202 0
M  V30 16791 C 1650.01 0.141568 -1.73423 0
M  V30 16792 O 1651.18 -0.0353417 -2.01369 0
M  V30 16793 C 1648.25 -0.392829 -3.44467 0
M  V30 16794 C 1647.31 -1.48636 -4.02748 0
M  V30 16795 C 1646.54 -1.01606 -5.23939 0
M  V30 16796 O 1646.77 0.133753 -5.70243 0
M  V30 16797 O 1645.7 -1.80487 -5.74202 0
M  V30 16798 H 1649.53 -1.81502 -2.43497 0
M  V30 16799 H 1647.11 -0.944691 -1.15741 0
M  V30 16800 H 1648.99 -0.124501 -4.21216 0
M  V30 16801 H 1647.67 0.507566 -3.19696 0
M  V30 16802 H 1646.57 -1.80845 -3.27484 0
M  V30 16803 H 1647.91 -2.3621 -4.31817 0
M  V30 16804 N 1649.56 1.24734 -0.963288 0
M  V30 16805 C 1650.84 1.88004 -0.539809 0
M  V30 16806 C 1651.22 1.86814 0.983035 0
M  V30 16807 O 1650.56 1.33769 1.85251 0
M  V30 16808 C 1650.77 3.30326 -1.1263 0
M  V30 16809 C 1652.12 4.07039 -1.20848 0
M  V30 16810 O 1653.15 3.3948 -1.07849 0
M  V30 16811 O 1652.01 5.27906 -1.41342 0
M  V30 16812 H 1649.1 0.807318 -0.17935 0
M  V30 16813 H 1651.65 1.3274 -1.05727 0
M  V30 16814 H 1650.42 3.25668 -2.16925 0
M  V30 16815 H 1650.04 3.93159 -0.592614 0
M  V30 16816 N 1651.04 0.732878 1.39523 0
M  V30 16817 C 1652.26 0.288717 2.05381 0
M  V30 16818 C 1652.69 -1.06727 1.5489 0
M  V30 16819 O 1652.05 -1.67585 0.691726 0
M  V30 16820 C 1652.09 0.297738 3.59369 0
M  V30 16821 O 1651.2 -0.715335 4.06149 0
M  V30 16822 H 1650.54 0.131696 0.650809 0
M  V30 16823 H 1653.07 0.998206 1.78597 0
M  V30 16824 H 1653.08 0.141391 4.07755 0
M  V30 16825 H 1651.75 1.28719 3.9548 0
M  V30 16826 H 1650.33 -0.525298 3.69182 0
M  V30 16827 N 1652.52 -1.50101 0.480349 0
M  V30 16828 C 1653.43 -2.32488 -0.31408 0
M  V30 16829 C 1654.44 -1.43285 -0.987186 0
M  V30 16830 O 1655.62 -1.7633 -0.973123 0
M  V30 16831 C 1652.68 -3.18203 -1.37651 0
M  V30 16832 C 1651.74 -4.23236 -0.71903 0
M  V30 16833 C 1650.98 -5.04854 -1.73084 0
M  V30 16834 O 1651.2 -4.87681 -2.95843 0
M  V30 16835 O 1650.13 -5.87748 -1.29755 0
M  V30 16836 H 1653.96 -3.01562 0.3597 0
M  V30 16837 H 1651.54 -1.47427 0.242029 0
M  V30 16838 H 1653.43 -3.71362 -1.9917 0
M  V30 16839 H 1652.1 -2.51846 -2.0336 0
M  V30 16840 H 1651.01 -3.74044 -0.0646492 0
M  V30 16841 H 1652.34 -4.92089 -0.104743 0
M  V30 16842 N 1653.99 -0.213323 -1.5615 0
M  V30 16843 C 1655.22 0.428746 -2.0292 0
M  V30 16844 C 1655.64 1.53137 -1.09227 0
M  V30 16845 O 1655 1.81128 -0.0789684 0
M  V30 16846 C 1655.05 0.945231 -3.47991 0
M  V30 16847 O 1654.15 2.05709 -3.57432 0
M  V30 16848 H 1653.49 0.0980619 -0.656719 0
M  V30 16849 H 1656.02 -0.329548 -2.01929 0
M  V30 16850 H 1656.03 1.25717 -3.88149 0
M  V30 16851 H 1654.71 0.138161 -4.1567 0
M  V30 16852 H 1653.29 1.75242 -3.29158 0
M  V30 16853 N 1655.47 1.57485 0.0601405 0
M  V30 16854 C 1656.4 2.07525 1.07031 0
M  V30 16855 C 1657.38 0.971136 1.39653 0
M  V30 16856 O 1658.57 1.24456 1.49078 0
M  V30 16857 C 1655.7 2.52888 2.38044 0
M  V30 16858 C 1654.65 3.67282 2.19745 0
M  V30 16859 C 1653.98 3.98741 3.56244 0
M  V30 16860 C 1655.28 4.96896 1.60908 0
M  V30 16861 H 1656.97 2.92173 0.653875 0
M  V30 16862 H 1654.52 1.40555 0.313083 0
M  V30 16863 H 1656.47 2.8651 3.09014 0
M  V30 16864 H 1655.2 1.65284 2.81689 0
M  V30 16865 H 1653.85 3.33961 1.51213 0
M  V30 16866 H 1653.5 3.08249 3.97481 0
M  V30 16867 H 1653.2 4.75775 3.44836 0
M  V30 16868 H 1654.73 4.34869 4.28627 0
M  V30 16869 H 1656.14 5.28674 2.21758 0
M  V30 16870 H 1654.54 5.78332 1.60164 0
M  V30 16871 H 1655.61 4.81518 0.571671 0
M  V30 16872 N 1656.95 -0.331789 1.54068 0
M  V30 16873 C 1658.2 -1.06858 1.71539 0
M  V30 16874 C 1658.52 -1.88808 0.487506 0
M  V30 16875 O 1657.79 -1.8945 -0.498539 0
M  V30 16876 H 1656.37 -0.3975 0.632457 0
M  V30 16877 H 1659.03 -0.370216 1.91352 0
M  V30 16878 H 1658.13 -1.73929 2.59143 0
M  V30 16879 N 1658.43 -1.46001 -0.593424 0
M  V30 16880 C 1659.68 -1.50457 -1.34933 0
M  V30 16881 C 1660 -0.153383 -1.94396 0
M  V30 16882 O 1659.27 0.818894 -1.77963 0
M  V30 16883 H 1657.85 -0.554119 -0.50096 0
M  V30 16884 H 1660.51 -1.82057 -0.695798 0
M  V30 16885 H 1659.61 -2.25131 -2.16154 0
M  V30 16886 N 1659.91 0.83715 -1.33527 0
M  V30 16887 C 1660.87 1.92865 -1.23837 0
M  V30 16888 C 1661.87 1.60032 -0.157005 0
M  V30 16889 O 1663.06 1.69339 -0.408654 0
M  V30 16890 C 1660.19 3.28568 -0.908617 0
M  V30 16891 H 1661.38 2.02883 -2.20859 0
M  V30 16892 H 1658.94 1.02944 -1.1761 0
M  V30 16893 H 1659.67 3.24246 0.0590328 0
M  V30 16894 H 1659.46 3.53779 -1.69064 0
M  V30 16895 H 1660.95 4.0853 -0.86561 0
M  V30 16896 N 1661.38 1.17024 1.05561 0
M  V30 16897 C 1662.61 0.981293 1.82717 0
M  V30 16898 C 1663.03 -0.465636 1.82246 0
M  V30 16899 O 1662.39 -1.33315 1.22869 0
M  V30 16900 C 1662.44 1.52239 3.26888 0
M  V30 16901 O 1661.54 0.73366 4.05822 0
M  V30 16902 H 1660.89 0.348677 0.565084 0
M  V30 16903 H 1663.42 1.55435 1.33046 0
M  V30 16904 H 1663.43 1.54306 3.77695 0
M  V30 16905 H 1662.1 2.57567 3.26545 0
M  V30 16906 H 1660.68 0.784101 3.64563 0
M  V30 16907 N 1662.86 -1.24221 0.969889 0
M  V30 16908 C 1663.79 -2.27619 0.520745 0
M  V30 16909 C 1664.77 -1.64291 -0.440731 0
M  V30 16910 O 1665.96 -1.91265 -0.336381 0
M  V30 16911 C 1663.09 -3.46792 -0.187768 0
M  V30 16912 C 1662.04 -4.22402 0.689945 0
M  V30 16913 C 1661.37 -5.34489 -0.150186 0
M  V30 16914 C 1662.67 -4.83494 1.97562 0
M  V30 16915 H 1664.36 -2.65441 1.38498 0
M  V30 16916 H 1661.91 -1.276 0.667398 0
M  V30 16917 H 1663.86 -4.18263 -0.513216 0
M  V30 16918 H 1662.59 -3.08002 -1.08637 0
M  V30 16919 H 1661.24 -3.52734 0.998696 0
M  V30 16920 H 1660.89 -4.9194 -1.049 0
M  V30 16921 H 1660.59 -5.85996 0.433891 0
M  V30 16922 H 1662.12 -6.08786 -0.470255 0
M  V30 16923 H 1663.53 -5.47028 1.71561 0
M  V30 16924 H 1661.93 -5.45243 2.5066 0
M  V30 16925 H 1663 -4.04826 2.66915 0
M  V30 16926 N 1664.34 -0.740267 -1.39132 0
M  V30 16927 C 1665.59 -0.289949 -2.00009 0
M  V30 16928 C 1665.91 1.12831 -1.59042 0
M  V30 16929 O 1665.18 1.76926 -0.841076 0
M  V30 16930 H 1663.76 -0.104213 -0.739695 0
M  V30 16931 H 1666.42 -0.951398 -1.70101 0
M  V30 16932 H 1665.52 -0.342509 -3.10215 0
M  V30 16933 N 1665.82 1.49844 -0.488302 0
M  V30 16934 C 1667.07 2.02009 0.0605782 0
M  V30 16935 C 1667.39 1.37114 1.38653 0
M  V30 16936 O 1666.66 0.522182 1.88812 0
M  V30 16937 H 1665.24 0.746569 0.0253773 0
M  V30 16938 H 1667.9 1.84 -0.64265 0
M  V30 16939 H 1667 3.11461 0.199542 0
M  V30 16940 N 1667.3 0.221601 1.56034 0
M  V30 16941 C 1668.23 -0.683171 2.23282 0
M  V30 16942 C 1669.21 -1.20101 1.20456 0
M  V30 16943 O 1670.39 -1.245 1.49041 0
M  V30 16944 C 1667.52 -1.89143 2.91277 0
M  V30 16945 C 1666.48 -1.50742 4.00576 0
M  V30 16946 C 1665.8 -2.79446 4.55867 0
M  V30 16947 C 1667.1 -0.697388 5.17623 0
M  V30 16948 H 1668.8 -0.122488 2.99149 0
M  V30 16949 H 1666.34 -0.0574732 1.43885 0
M  V30 16950 H 1668.3 -2.52982 3.37013 0
M  V30 16951 H 1667.02 -2.47708 2.12858 0
M  V30 16952 H 1665.68 -0.892492 3.5557 0
M  V30 16953 H 1665.33 -3.36155 3.74177 0
M  V30 16954 H 1665.03 -2.54486 5.29633 0
M  V30 16955 H 1666.55 -3.44228 5.04321 0
M  V30 16956 H 1667.96 -1.23948 5.59741 0
M  V30 16957 H 1666.36 -0.544875 5.97621 0
M  V30 16958 H 1667.43 0.295981 4.83996 0
M  V30 16959 N 1668.77 -1.57515 -0.0517878 0
M  V30 16960 C 1669.68 -2.08427 -1.07681 0
M  V30 16961 C 1670.7 -1.01797 -1.41115 0
M  V30 16962 O 1671.88 -1.33394 -1.50891 0
M  V30 16963 C 1668.94 -2.53472 -2.36544 0
M  V30 16964 C 1668 -3.74488 -2.09899 0
M  V30 16965 C 1667.24 -4.17374 -3.32618 0
M  V30 16966 O 1667.46 -3.59962 -4.42475 0
M  V30 16967 O 1666.39 -5.10006 -3.19653 0
M  V30 16968 H 1670.22 -2.96122 -0.674217 0
M  V30 16969 H 1667.8 -1.4699 -0.267274 0
M  V30 16970 H 1669.69 -2.82876 -3.12345 0
M  V30 16971 H 1668.36 -1.68899 -2.76143 0
M  V30 16972 H 1667.27 -3.50137 -1.31739 0
M  V30 16973 H 1668.6 -4.59975 -1.75169 0
M  V30 16974 N 1670.25 0.323614 -1.54242 0
M  V30 16975 C 1671.66 0.898051 -1.63682 0
M  V30 16976 C 1672.02 1.88882 -0.530861 0
M  V30 16977 O 1671.14 2.13772 0.336245 0
M  V30 16978 C 1671.74 1.63561 -2.96704 0
M  V30 16979 C 1670.29 2.15877 -3.08341 0
M  V30 16980 C 1669.44 0.984145 -2.59249 0
M  V30 16981 H 1672.39 0.101198 -1.58377 0
M  V30 16982 H 1672.41 2.49982 -2.86861 0
M  V30 16983 H 1671.93 0.914265 -3.77177 0
M  V30 16984 H 1670.03 2.91127 -2.32542 0
M  V30 16985 H 1670.14 2.40881 -4.14141 0
M  V30 16986 H 1668.5 1.3633 -2.15143 0
M  V30 16987 H 1669.29 0.277118 -3.4218 0
M  V30 16988 N 1671.73 1.46313 0.585673 0
M  V30 16989 C 1672.98 1.52682 1.34387 0
M  V30 16990 C 1673.33 0.174924 1.91603 0
M  V30 16991 O 1672.63 -0.816026 1.73354 0
M  V30 16992 C 1672.82 2.55895 2.49504 0
M  V30 16993 C 1672.65 4.00988 2.03564 0
M  V30 16994 C 1671.42 4.68736 1.88718 0
M  V30 16995 C 1673.62 4.88874 1.59707 0
M  V30 16996 N 1671.6 5.9846 1.36818 0
M  V30 16997 C 1672.97 6.08399 1.19377 0
M  V30 16998 C 1675.02 4.75551 1.47498 0
M  V30 16999 C 1673.73 7.16073 0.680543 0
M  V30 17000 C 1675.75 5.83294 0.975784 0
M  V30 17001 C 1675.12 7.01989 0.582251 0
M  V30 17002 H 1671.21 0.613553 0.484847 0
M  V30 17003 H 1673.8 1.82912 0.667171 0
M  V30 17004 H 1671.97 2.2758 3.14741 0
M  V30 17005 H 1673.7 2.52277 3.16446 0
M  V30 17006 H 1670.46 4.24212 2.10574 0
M  V30 17007 H 1670.88 6.67497 1.13037 0
M  V30 17008 H 1675.52 3.84178 1.76543 0
M  V30 17009 H 1673.24 8.07217 0.377678 0
M  V30 17010 H 1676.83 5.75025 0.885268 0
M  V30 17011 H 1675.71 7.8394 0.201937 0
M  V30 17012 N 1673.21 -0.830057 1.33969 0
M  V30 17013 C 1674.46 -1.58783 1.2712 0
M  V30 17014 C 1674.81 -1.91739 -0.159319 0
M  V30 17015 O 1674.1 -1.56615 -1.10373 0
M  V30 17016 C 1674.3 -2.90026 2.08853 0
M  V30 17017 C 1674.13 -2.69891 3.59707 0
M  V30 17018 C 1672.9 -2.66993 4.29002 0
M  V30 17019 C 1675.09 -2.41905 4.53857 0
M  V30 17020 N 1673.08 -2.38327 5.6575 0
M  V30 17021 C 1674.45 -2.2287 5.78558 0
M  V30 17022 C 1676.5 -2.27575 4.42848 0
M  V30 17023 C 1675.21 -1.90957 6.9349 0
M  V30 17024 C 1677.23 -1.97055 5.57605 0
M  V30 17025 C 1676.59 -1.78838 6.81319 0
M  V30 17026 H 1672.69 -0.583717 0.520383 0
M  V30 17027 H 1675.28 -0.973666 1.68606 0
M  V30 17028 H 1673.45 -3.49378 1.69674 0
M  V30 17029 H 1675.18 -3.55332 1.93703 0
M  V30 17030 H 1671.93 -2.80813 3.81367 0
M  V30 17031 H 1672.36 -2.26854 6.37861 0
M  V30 17032 H 1677 -2.40367 3.47827 0
M  V30 17033 H 1674.72 -1.76901 7.885 0
M  V30 17034 H 1678.3 -1.86709 5.51027 0
M  V30 17035 H 1677.18 -1.55564 7.68615 0
M  V30 17036 N 1674.69 -1.17582 -1.04939 0
M  V30 17037 C 1675.93 -0.965778 -1.77986 0
M  V30 17038 C 1676.26 0.505366 -1.8782 0
M  V30 17039 O 1675.52 1.39132 -1.37625 0
M  V30 17040 C 1675.82 -1.55507 -3.21796 0
M  V30 17041 C 1675.48 -3.05086 -3.32014 0
M  V30 17042 C 1674.14 -3.45914 -3.3451 0
M  V30 17043 C 1676.5 -4.01096 -3.32824 0
M  V30 17044 C 1673.82 -4.81344 -3.35447 0
M  V30 17045 C 1676.18 -5.3643 -3.353 0
M  V30 17046 C 1674.84 -5.76718 -3.36084 0
M  V30 17047 H 1674.11 -0.353403 -0.651297 0
M  V30 17048 H 1676.76 -1.46512 -1.23315 0
M  V30 17049 H 1675.06 -0.977509 -3.7941 0
M  V30 17050 H 1676.76 -1.36807 -3.76941 0
M  V30 17051 H 1673.35 -2.72541 -3.30786 0
M  V30 17052 H 1677.53 -3.7061 -3.30094 0
M  V30 17053 H 1672.79 -5.11868 -3.34366 0
M  V30 17054 H 1676.96 -6.106 -3.34874 0
M  V30 17055 H 1674.59 -6.81637 -3.36563 0
M  V30 17056 N 1676.17 1.23705 -0.976463 0
M  V30 17057 C 1677.13 2.23257 -0.518533 0
M  V30 17058 C 1678.13 1.56006 0.3897 0
M  V30 17059 O 1679.32 1.73226 0.18394 0
M  V30 17060 C 1676.45 3.39997 0.247916 0
M  V30 17061 H 1677.64 2.65284 -1.39872 0
M  V30 17062 H 1675.2 1.3647 -0.761946 0
M  V30 17063 H 1675.93 3.03421 1.14482 0
M  V30 17064 H 1675.72 3.90013 -0.403975 0
M  V30 17065 H 1677.21 4.13868 0.557034 0
M  V30 17066 N 1677.64 0.747635 1.38738 0
M  V30 17067 C 1678.92 0.226908 1.94279 0
M  V30 17068 C 1679.3 -1.27373 1.68343 0
M  V30 17069 O 1678.65 -2.04538 1.01865 0
M  V30 17070 C 1678.86 0.574164 3.44245 0
M  V30 17071 C 1680.21 0.530498 4.21273 0
M  V30 17072 O 1681.23 0.512102 3.525 0
M  V30 17073 O 1680.09 0.536171 5.43863 0
M  V30 17074 H 1677.18 0.0456834 0.825737 0
M  V30 17075 H 1679.73 0.827353 1.48165 0
M  V30 17076 H 1678.5 1.6108 3.56607 0
M  V30 17077 H 1678.12 -0.0545964 3.97563 0
M  V30 17078 N 1679.12 -1.49583 0.496242 0
M  V30 17079 C 1680.37 -2.02438 -0.049963 0
M  V30 17080 C 1680.7 -1.37632 -1.37433 0
M  V30 17081 O 1679.95 -0.499552 -1.89217 0
M  V30 17082 C 1680.25 -3.56482 -0.255949 0
M  V30 17083 C 1679.92 -4.39901 0.989824 0
M  V30 17084 C 1678.58 -4.62417 1.33132 0
M  V30 17085 C 1680.93 -4.88461 1.81811 0
M  V30 17086 C 1678.26 -5.30737 2.50071 0
M  V30 17087 C 1680.61 -5.58067 2.97899 0
M  V30 17088 C 1679.27 -5.7883 3.32434 0
M  V30 17089 H 1678.54 -0.740774 -0.0182828 0
M  V30 17090 H 1681.19 -1.79934 0.655434 0
M  V30 17091 H 1679.5 -3.77639 -1.04383 0
M  V30 17092 H 1681.19 -3.94967 -0.692943 0
M  V30 17093 H 1677.78 -4.22614 0.713811 0
M  V30 17094 H 1681.97 -4.70898 1.56743 0
M  V30 17095 H 1677.22 -5.45015 2.77072 0
M  V30 17096 H 1681.4 -5.9467 3.6241 0
M  V30 17097 H 1679.02 -6.31544 4.23151 0
M  V30 17098 N 1680.6 -0.229873 -1.55915 0
M  V30 17099 C 1682.01 0.276452 -1.84642 0
M  V30 17100 C 1682.36 1.58861 -1.15142 0
M  V30 17101 O 1681.49 2.12207 -0.423932 0
M  V30 17102 C 1682.08 0.508371 -3.34964 0
M  V30 17103 C 1680.64 0.958989 -3.63979 0
M  V30 17104 C 1679.79 0.0266738 -2.77287 0
M  V30 17105 H 1682.74 -0.452864 -1.52101 0
M  V30 17106 H 1682.76 1.35328 -3.55621 0
M  V30 17107 H 1682.27 -0.4468 -3.8552 0
M  V30 17108 H 1680.37 1.92722 -3.18887 0
M  V30 17109 H 1680.49 0.827637 -4.71897 0
M  V30 17110 H 1678.85 0.53498 -2.49018 0
M  V30 17111 H 1679.63 -0.923563 -3.30644 0
M  V30 17112 N 1682.08 1.5754 0.0434337 0
M  V30 17113 C 1683.31 1.92577 0.748182 0
M  V30 17114 C 1683.72 0.826758 1.7018 0
M  V30 17115 O 1683.06 -0.206713 1.82533 0
M  V30 17116 C 1683.12 3.23309 1.57199 0
M  V30 17117 C 1682.78 4.50213 0.784705 0
M  V30 17118 C 1683.78 5.1982 0.091305 0
M  V30 17119 C 1681.47 4.96767 0.74349 0
M  V30 17120 C 1683.46 6.34251 -0.632768 0
M  V30 17121 C 1681.15 6.11098 0.0156621 0
M  V30 17122 C 1682.15 6.79694 -0.67124 0
M  V30 17123 O 1681.83 7.91839 -1.38728 0
M  V30 17124 H 1681.57 0.64049 0.216213 0
M  V30 17125 H 1684.12 2.05398 0.00937223 0
M  V30 17126 H 1682.35 3.06775 2.35428 0
M  V30 17127 H 1684.04 3.43779 2.15802 0
M  V30 17128 H 1684.8 4.84865 0.11427 0
M  V30 17129 H 1680.68 4.43229 1.26763 0
M  V30 17130 H 1684.23 6.87728 -1.16947 0
M  V30 17131 H 1680.12 6.45499 -0.00927628 0
M  V30 17132 H 1680.89 8.08119 -1.29947 0
M  V30 17133 N 1683.56 -0.31543 1.54411 0
M  V30 17134 C 1684.97 -0.889358 1.64156 0
M  V30 17135 C 1685.32 -1.88598 0.54087 0
M  V30 17136 O 1684.44 -2.13947 -0.324904 0
M  V30 17137 C 1685.04 -1.61985 2.97567 0
M  V30 17138 C 1683.6 -2.14239 3.09481 0
M  V30 17139 C 1682.74 -0.970382 2.59767 0
M  V30 17140 H 1685.69 -0.092797 1.58428 0
M  V30 17141 H 1685.72 -2.48457 2.88183 0
M  V30 17142 H 1685.23 -0.89425 3.77657 0
M  V30 17143 H 1683.33 -2.8989 2.34082 0
M  V30 17144 H 1683.44 -2.38681 4.15413 0
M  V30 17145 H 1681.81 -1.35187 2.15863 0
M  V30 17146 H 1682.59 -0.258968 3.42322 0
M  V30 17147 N 1685.03 -1.46622 -0.577906 0
M  V30 17148 C 1686.26 -1.55534 -1.35988 0
M  V30 17149 C 1686.67 -0.197065 -1.88171 0
M  V30 17150 O 1686.02 0.816609 -1.64551 0
M  V30 17151 C 1686.08 -2.5035 -2.58002 0
M  V30 17152 C 1685.74 -3.96491 -2.27253 0
M  V30 17153 C 1686.74 -4.85567 -1.85797 0
M  V30 17154 C 1684.42 -4.41662 -2.39249 0
M  V30 17155 C 1686.42 -6.17828 -1.56738 0
M  V30 17156 C 1684.1 -5.73956 -2.09803 0
M  V30 17157 C 1685.1 -6.6186 -1.68613 0
M  V30 17158 O 1684.79 -7.91698 -1.3953 0
M  V30 17159 H 1684.52 -0.528412 -0.421612 0
M  V30 17160 H 1687.08 -1.92774 -0.709038 0
M  V30 17161 H 1685.31 -2.08137 -3.25908 0
M  V30 17162 H 1687 -2.49616 -3.20073 0
M  V30 17163 H 1687.76 -4.51924 -1.76039 0
M  V30 17164 H 1683.64 -3.73462 -2.70272 0
M  V30 17165 H 1687.18 -6.86398 -1.24514 0
M  V30 17166 H 1683.08 -6.07147 -2.19187 0
M  V30 17167 H 1683.85 -8.04009 -1.53335 0
M  V30 17168 N 1686.51 0.822941 -1.34408 0
M  V30 17169 C 1687.48 1.91541 -1.25876 0
M  V30 17170 C 1688.48 1.59856 -0.17397 0
M  V30 17171 O 1689.67 1.68896 -0.426592 0
M  V30 17172 C 1686.8 3.27586 -0.943415 0
M  V30 17173 H 1687.99 2.00529 -2.22998 0
M  V30 17174 H 1685.54 1.01691 -1.18695 0
M  V30 17175 H 1686.28 3.24291 0.0246389 0
M  V30 17176 H 1686.06 3.51966 -1.72807 0
M  V30 17177 H 1687.55 4.07589 -0.908891 0
M  V30 17178 N 1687.99 1.18137 1.04314 0
M  V30 17179 C 1688.9 0.921044 2.15764 0
M  V30 17180 C 1689.92 -0.11396 1.73626 0
M  V30 17181 O 1691.09 0.0673733 2.01287 0
M  V30 17182 C 1688.16 0.447581 3.43799 0
M  V30 17183 C 1687.22 1.55025 4.00332 0
M  V30 17184 C 1686.45 1.09928 5.22256 0
M  V30 17185 O 1686.67 -0.0430152 5.70384 0
M  V30 17186 O 1685.61 1.896 5.71258 0
M  V30 17187 H 1689.43 1.85353 2.40579 0
M  V30 17188 H 1687.02 0.962985 1.14223 0
M  V30 17189 H 1688.9 0.191497 4.20965 0
M  V30 17190 H 1687.58 -0.456641 3.20463 0
M  V30 17191 H 1686.48 1.86032 3.24566 0
M  V30 17192 H 1687.82 2.4305 4.28004 0
M  V30 17193 N 1689.47 -1.23186 0.98301 0
M  V30 17194 C 1690.88 -1.43814 0.69207 0
M  V30 17195 C 1691.08 -1.87387 -0.740823 0
M  V30 17196 O 1690.14 -2.02154 -1.51295 0
M  V30 17197 C 1691.45 -2.48769 1.68922 0
M  V30 17198 C 1693 -2.62579 1.70356 0
M  V30 17199 C 1693.48 -3.70746 2.68908 0
M  V30 17200 N 1694.97 -3.78192 2.67442 0
M  V30 17201 C 1695.7 -4.61453 3.40366 0
M  V30 17202 N 1695.2 -5.48784 4.22857 0
M  V30 17203 N 1696.99 -4.55673 3.29118 0
M  V30 17204 H 1689.14 -0.932046 1.90858 0
M  V30 17205 H 1691.41 -0.471274 0.82256 0
M  V30 17206 H 1691.11 -2.23675 2.71408 0
M  V30 17207 H 1690.99 -3.47201 1.47415 0
M  V30 17208 H 1693.37 -2.87022 0.685728 0
M  V30 17209 H 1693.45 -1.64454 1.9593 0
M  V30 17210 H 1693.1 -3.47051 3.70834 0
M  V30 17211 H 1693.03 -4.68418 2.40607 0
M  V30 17212 H 1695.52 -3.15785 2.07577 0
M  V30 17213 H 1695.83 -6.09312 4.75351 0
M  V30 17214 H 1694.18 -5.48398 4.26948 0
M  V30 17215 H 1697.37 -3.86468 2.64122 0
M  V30 17216 H 1697.54 -5.20332 3.8621 0
M  V30 17217 N 1690.95 -0.754982 -1.38339 0
M  V30 17218 C 1691.88 -0.143678 -2.33058 0
M  V30 17219 C 1692.86 0.702022 -1.54938 0
M  V30 17220 O 1694.04 0.642922 -1.83249 0
M  V30 17221 C 1691.17 0.749194 -3.39123 0
M  V30 17222 C 1690.13 0.00611459 -4.28 0
M  V30 17223 C 1689.45 1.01733 -5.24933 0
M  V30 17224 C 1690.75 -1.1631 -5.09185 0
M  V30 17225 H 1692.45 -0.934907 -2.84429 0
M  V30 17226 H 1689.99 -0.451023 -1.36754 0
M  V30 17227 H 1691.95 1.18653 -4.04351 0
M  V30 17228 H 1690.67 1.57276 -2.86237 0
M  V30 17229 H 1689.33 -0.411816 -3.6428 0
M  V30 17230 H 1688.98 1.83499 -4.68334 0
M  V30 17231 H 1688.68 0.524783 -5.85252 0
M  V30 17232 H 1690.2 1.45395 -5.93037 0
M  V30 17233 H 1691.61 -0.803244 -5.67645 0
M  V30 17234 H 1690.01 -1.5866 -5.78746 0
M  V30 17235 H 1691.08 -1.97533 -4.42842 0
M  V30 17236 N 1692.42 1.49318 -0.504168 0
M  V30 17237 C 1693.67 2.02062 0.039149 0
M  V30 17238 C 1693.99 1.38577 1.37191 0
M  V30 17239 O 1693.26 0.542179 1.88248 0
M  V30 17240 H 1691.84 0.746796 0.0174575 0
M  V30 17241 H 1694.51 1.83308 -0.66213 0
M  V30 17242 H 1693.6 3.11656 0.166496 0
M  V30 17243 N 1693.9 0.238138 1.5579 0
M  V30 17244 C 1695.31 -0.266656 1.84786 0
M  V30 17245 C 1695.66 -1.58248 1.15983 0
M  V30 17246 O 1694.79 -2.11979 0.43518 0
M  V30 17247 C 1695.38 -0.4906 3.35229 0
M  V30 17248 C 1693.94 -0.939672 3.64482 0
M  V30 17249 C 1693.09 -0.0119682 2.77297 0
M  V30 17250 H 1696.04 0.460924 1.51859 0
M  V30 17251 H 1696.06 -1.3344 3.56334 0
M  V30 17252 H 1695.57 0.467239 3.85277 0
M  V30 17253 H 1693.68 -1.91029 3.19904 0
M  V30 17254 H 1693.79 -0.8026 4.72329 0
M  V30 17255 H 1692.15 -0.521767 2.49298 0
M  V30 17256 H 1692.94 0.941085 3.30149 0
M  V30 17257 N 1695.38 -1.57561 -0.0350783 0
M  V30 17258 C 1696.79 -1.77383 -0.582437 0
M  V30 17259 C 1697.14 -0.868453 -1.75933 0
M  V30 17260 O 1696.27 -0.061745 -2.16312 0
M  V30 17261 C 1696.86 -3.2168 -1.06337 0
M  V30 17262 C 1695.42 -3.42719 -1.55629 0
M  V30 17263 C 1694.57 -2.72906 -0.4917 0
M  V30 17264 H 1697.52 -1.57545 0.19115 0
M  V30 17265 H 1697.54 -3.27863 -1.93097 0
M  V30 17266 H 1697.05 -3.8755 -0.206603 0
M  V30 17267 H 1695.15 -2.82016 -2.43511 0
M  V30 17268 H 1695.27 -4.51312 -1.60794 0
M  V30 17269 H 1693.63 -2.36506 -0.945349 0
M  V30 17270 H 1694.41 -3.41454 0.355502 0
M  V30 17271 N 1696.86 0.307236 -1.54576 0
M  V30 17272 C 1698.27 0.88064 -1.64626 0
M  V30 17273 C 1698.62 1.88308 -0.550865 0
M  V30 17274 O 1697.75 2.14116 0.313553 0
M  V30 17275 C 1698.34 1.60405 -2.98422 0
M  V30 17276 C 1696.9 2.12595 -3.10613 0
M  V30 17277 C 1696.05 0.956593 -2.60278 0
M  V30 17278 H 1699 0.0843939 -1.58475 0
M  V30 17279 H 1699.02 2.46925 -2.89496 0
M  V30 17280 H 1698.53 0.874209 -3.78126 0
M  V30 17281 H 1696.63 2.88644 -2.35617 0
M  V30 17282 H 1696.74 2.36475 -4.16673 0
M  V30 17283 H 1695.11 1.3404 -2.16576 0
M  V30 17284 H 1695.89 0.24081 -3.42454 0
M  V30 17285 N 1698.34 1.46926 0.570122 0
M  V30 17286 C 1699.58 1.52585 1.32523 0
M  V30 17287 C 1699.91 0.184291 1.94127 0
M  V30 17288 O 1699.18 -0.790478 1.79244 0
M  V30 17289 H 1697.76 0.562019 0.492081 0
M  V30 17290 H 1700.42 1.83141 0.666746 0
M  V30 17291 H 1699.51 2.28541 2.12545 0
M  V30 17292 N 1699.82 -0.815801 1.34842 0
M  V30 17293 C 1701.23 -1.10999 1.1468 0
M  V30 17294 C 1701.43 -2.01445 -0.0469339 0
M  V30 17295 O 1700.49 -2.42007 -0.720322 0
M  V30 17296 C 1701.8 -1.74984 2.44543 0
M  V30 17297 C 1703.35 -1.87447 2.50665 0
M  V30 17298 C 1703.82 -2.54848 3.80548 0
M  V30 17299 N 1705.31 -2.62341 3.81748 0
M  V30 17300 C 1706.05 -3.15239 4.7897 0
M  V30 17301 N 1705.55 -3.68646 5.86577 0
M  V30 17302 N 1707.34 -3.13706 4.66417 0
M  V30 17303 H 1699.49 -0.214351 2.11316 0
M  V30 17304 H 1701.75 -0.157666 0.934797 0
M  V30 17305 H 1701.46 -1.1599 3.32023 0
M  V30 17306 H 1701.33 -2.7478 2.5841 0
M  V30 17307 H 1703.72 -2.45587 1.63619 0
M  V30 17308 H 1703.8 -0.865325 2.40719 0
M  V30 17309 H 1703.44 -1.9736 4.67987 0
M  V30 17310 H 1703.37 -3.5628 3.87778 0
M  V30 17311 H 1705.87 -2.24493 3.03992 0
M  V30 17312 H 1706.18 -4.07281 6.56766 0
M  V30 17313 H 1704.52 -3.6687 5.90281 0
M  V30 17314 H 1707.71 -2.71255 3.81495 0
M  V30 17315 H 1707.89 -3.54626 5.4235 0
M  V30 17316 N 1701.29 -1.18689 -1.03686 0
M  V30 17317 C 1702.52 -1.00814 -1.80333 0
M  V30 17318 C 1702.93 0.446495 -1.83856 0
M  V30 17319 O 1702.27 1.32192 -1.27558 0
M  V30 17320 C 1702.34 -1.49133 -3.27108 0
M  V30 17321 C 1702 -2.97112 -3.47237 0
M  V30 17322 C 1703 -3.94938 -3.38113 0
M  V30 17323 C 1700.68 -3.35628 -3.7371 0
M  V30 17324 C 1702.68 -5.29274 -3.55172 0
M  V30 17325 C 1700.36 -4.70126 -3.90416 0
M  V30 17326 C 1701.36 -5.66758 -3.81148 0
M  V30 17327 O 1701.05 -6.98821 -3.97371 0
M  V30 17328 H 1700.78 -0.356077 -0.574617 0
M  V30 17329 H 1703.34 -1.57754 -1.31541 0
M  V30 17330 H 1701.57 -0.865624 -3.76887 0
M  V30 17331 H 1703.25 -1.27591 -3.85325 0
M  V30 17332 H 1704.02 -3.66527 -3.17621 0
M  V30 17333 H 1699.9 -2.6097 -3.8002 0
M  V30 17334 H 1703.44 -6.04684 -3.47854 0
M  V30 17335 H 1699.34 -4.98236 -4.10404 0
M  V30 17336 H 1700.11 -7.05779 -4.14509 0
M  V30 17337 N 1702.77 1.22662 -0.989529 0
M  V30 17338 C 1704.02 1.91904 -0.674128 0
M  V30 17339 C 1704.37 1.75664 0.78485 0
M  V30 17340 O 1703.67 1.11266 1.55982 0
M  V30 17341 C 1703.86 3.428 -1.01109 0
M  V30 17342 C 1703.69 3.73719 -2.50128 0
M  V30 17343 C 1702.46 3.93916 -3.16477 0
M  V30 17344 C 1704.66 3.78467 -3.48234 0
M  V30 17345 N 1702.64 4.12119 -4.55007 0
M  V30 17346 C 1704.01 4.01771 -4.72208 0
M  V30 17347 C 1706.06 3.61301 -3.42587 0
M  V30 17348 C 1704.77 4.09689 -5.91225 0
M  V30 17349 C 1706.79 3.70477 -4.60978 0
M  V30 17350 C 1706.16 3.94226 -5.83751 0
M  V30 17351 H 1702.25 0.723035 -0.297899 0
M  V30 17352 H 1704.84 1.47676 -1.26885 0
M  V30 17353 H 1703.01 3.85843 -0.444975 0
M  V30 17354 H 1704.74 3.99413 -0.652024 0
M  V30 17355 H 1701.5 3.91195 -2.66953 0
M  V30 17356 H 1701.92 4.25155 -5.26852 0
M  V30 17357 H 1706.56 3.41928 -2.48687 0
M  V30 17358 H 1704.28 4.27866 -6.85533 0
M  V30 17359 H 1707.87 3.58537 -4.58195 0
M  V30 17360 H 1706.75 4.01151 -6.7383 0
M  V30 17361 N 1704.25 0.762308 1.37937 0
M  V30 17362 C 1705.47 0.332217 2.04722 0
M  V30 17363 C 1705.9 -1.03417 1.57119 0
M  V30 17364 O 1705.26 -1.6608 0.727117 0
M  V30 17365 C 1705.31 0.373899 3.58656 0
M  V30 17366 O 1704.41 -0.629024 4.07575 0
M  V30 17367 H 1703.75 0.145471 0.647869 0
M  V30 17368 H 1706.28 1.03586 1.7644 0
M  V30 17369 H 1706.29 0.22785 4.07363 0
M  V30 17370 H 1704.97 1.37079 3.92661 0
M  V30 17371 H 1703.54 -0.446871 3.70213 0
M  V30 17372 N 1705.73 -1.49049 0.51208 0
M  V30 17373 C 1706.97 -2.0278 -0.0285311 0
M  V30 17374 C 1707.31 -1.39003 -1.35617 0
M  V30 17375 O 1706.58 -0.52952 -1.87153 0
M  V30 17376 C 1706.86 -3.59701 -0.169433 0
M  V30 17377 C 1706.72 -4.33989 1.18211 0
M  V30 17378 C 1708.04 -4.30698 -0.904812 0
M  V30 17379 H 1705.16 -0.736946 -0.00889467 0
M  V30 17380 H 1707.8 -1.77959 0.66564 0
M  V30 17381 H 1705.95 -3.8098 -0.760667 0
M  V30 17382 H 1707.62 -4.24176 1.81307 0
M  V30 17383 H 1705.86 -3.9611 1.76859 0
M  V30 17384 H 1706.53 -5.42177 1.03671 0
M  V30 17385 H 1709.01 -4.14141 -0.40327 0
M  V30 17386 H 1707.89 -5.40221 -0.972264 0
M  V30 17387 H 1708.15 -3.96718 -1.95108 0
M  V30 17388 N 1707.21 -0.246397 -1.55662 0
M  V30 17389 C 1708.48 0.42879 -1.90842 0
M  V30 17390 C 1708.86 1.75905 -1.16707 0
M  V30 17391 O 1708.21 2.26723 -0.284391 0
M  V30 17392 C 1708.42 0.597368 -3.4385 0
M  V30 17393 C 1709.77 0.893477 -4.15093 0
M  V30 17394 O 1710.79 0.683251 -3.49586 0
M  V30 17395 O 1709.65 1.2938 -5.30964 0
M  V30 17396 H 1706.75 0.230145 -0.794331 0
M  V30 17397 H 1709.29 -0.290426 -1.67196 0
M  V30 17398 H 1708.06 -0.339952 -3.8982 0
M  V30 17399 H 1707.69 1.36714 -3.73356 0
M  V30 17400 N 1708.68 1.57577 0.026722 0
M  V30 17401 C 1709.63 2.06711 1.02661 0
M  V30 17402 C 1710.6 0.956754 1.35777 0
M  V30 17403 O 1711.79 1.22747 1.46074 0
M  V30 17404 C 1708.93 2.55321 2.32175 0
M  V30 17405 C 1708.04 3.80155 2.05197 0
M  V30 17406 C 1707.17 4.17368 3.28599 0
M  V30 17407 C 1706.21 5.35114 2.97186 0
M  V30 17408 N 1705.35 5.67747 4.13046 0
M  V30 17409 H 1710.19 2.91884 0.600666 0
M  V30 17410 H 1707.73 1.44313 0.284968 0
M  V30 17411 H 1709.68 2.81572 3.07853 0
M  V30 17412 H 1708.31 1.73061 2.72488 0
M  V30 17413 H 1707.37 3.60975 1.20006 0
M  V30 17414 H 1708.68 4.65949 1.78026 0
M  V30 17415 H 1707.83 4.4476 4.12642 0
M  V30 17416 H 1706.57 3.30231 3.58886 0
M  V30 17417 H 1705.58 5.07473 2.11545 0
M  V30 17418 H 1706.8 6.23906 2.68175 0
M  V30 17419 H 1704.75 4.83569 4.4328 0
M  V30 17420 H 1704.66 6.48056 3.89307 0
M  V30 17421 H 1705.93 5.99717 4.97956 0
M  V30 17422 N 1710.16 -0.299034 1.54737 0
M  V30 17423 C 1711.09 -1.37358 1.88826 0
M  V30 17424 C 1712.07 -1.52802 0.747367 0
M  V30 17425 O 1713.26 -1.66277 1.00327 0
M  V30 17426 C 1710.39 -2.73746 2.13729 0
M  V30 17427 C 1709.34 -2.73065 3.29575 0
M  V30 17428 C 1708.67 -4.12761 3.39901 0
M  V30 17429 C 1709.97 -2.34631 4.66632 0
M  V30 17430 H 1711.66 -1.09077 2.78824 0
M  V30 17431 H 1709.21 -0.523276 1.34156 0
M  V30 17432 H 1711.16 -3.49006 2.36162 0
M  V30 17433 H 1709.88 -3.03556 1.20504 0
M  V30 17434 H 1708.54 -2.00261 3.07068 0
M  V30 17435 H 1708.19 -4.39751 2.44189 0
M  V30 17436 H 1707.89 -4.13205 4.17774 0
M  V30 17437 H 1709.42 -4.89797 3.64597 0
M  V30 17438 H 1710.83 -2.99608 4.88782 0
M  V30 17439 H 1709.23 -2.46285 5.47233 0
M  V30 17440 H 1710.3 -1.29759 4.67216 0
M  V30 17441 N 1711.64 -1.47227 -0.562322 0
M  V30 17442 C 1712.89 -1.53286 -1.31712 0
M  V30 17443 C 1713.21 -0.194583 -1.94027 0
M  V30 17444 O 1712.48 0.780961 -1.7966 0
M  V30 17445 H 1711.06 -0.564621 -0.489094 0
M  V30 17446 H 1713.72 -1.83492 -0.657024 0
M  V30 17447 H 1712.82 -2.29665 -2.1133 0
M  V30 17448 N 1713.12 0.808639 -1.35273 0
M  V30 17449 C 1714.37 1.56253 -1.28177 0
M  V30 17450 C 1714.69 1.94466 0.144151 0
M  V30 17451 O 1713.96 1.63433 1.08011 0
M  V30 17452 H 1712.54 0.579431 -0.471454 0
M  V30 17453 H 1715.2 0.964675 -1.69352 0
M  V30 17454 H 1714.29 2.47888 -1.89625 0
M  V30 17455 N 1714.6 1.19237 1.03055 0
M  V30 17456 C 1715.84 1.00547 1.7681 0
M  V30 17457 C 1716.2 -0.459087 1.86843 0
M  V30 17458 O 1715.49 -1.33645 1.37293 0
M  V30 17459 C 1715.68 1.60607 3.19281 0
M  V30 17460 C 1715.51 3.1275 3.23137 0
M  V30 17461 C 1714.28 3.81638 3.31181 0
M  V30 17462 C 1716.48 4.10131 3.10318 0
M  V30 17463 N 1714.46 5.21193 3.24393 0
M  V30 17464 C 1715.83 5.36274 3.11144 0
M  V30 17465 C 1717.89 4.01514 2.94433 0
M  V30 17466 C 1716.59 6.54796 2.97716 0
M  V30 17467 C 1718.62 5.19644 2.82354 0
M  V30 17468 C 1717.98 6.44684 2.83834 0
M  V30 17469 H 1714.08 0.422035 0.658339 0
M  V30 17470 H 1716.66 1.51181 1.22688 0
M  V30 17471 H 1714.83 1.12576 3.71727 0
M  V30 17472 H 1716.57 1.35369 3.81389 0
M  V30 17473 H 1713.32 3.32421 3.37332 0
M  V30 17474 H 1713.75 5.94211 3.24411 0
M  V30 17475 H 1718.39 3.05664 2.92112 0
M  V30 17476 H 1716.11 7.50834 2.98788 0
M  V30 17477 H 1719.69 5.14777 2.71102 0
M  V30 17478 H 1718.57 7.34555 2.74588 0
M  V30 17479 N 1716.07 -1.22136 0.99602 0
M  V30 17480 C 1717.49 -1.43072 0.707285 0
M  V30 17481 C 1717.69 -1.88163 -0.720906 0
M  V30 17482 O 1716.75 -2.03747 -1.49142 0
M  V30 17483 C 1718.06 -2.46963 1.71551 0
M  V30 17484 C 1719.61 -2.60758 1.73131 0
M  V30 17485 C 1720.08 -3.67873 2.72825 0
M  V30 17486 N 1721.57 -3.75334 2.71438 0
M  V30 17487 C 1722.31 -4.57817 3.45241 0
M  V30 17488 N 1721.8 -5.44268 4.28654 0
M  V30 17489 N 1723.6 -4.52157 3.33932 0
M  V30 17490 H 1715.75 -0.911751 1.91836 0
M  V30 17491 H 1718.01 -0.462523 0.827512 0
M  V30 17492 H 1717.72 -2.20784 2.73765 0
M  V30 17493 H 1717.59 -3.45618 1.51089 0
M  V30 17494 H 1719.98 -2.86279 0.716132 0
M  V30 17495 H 1720.06 -1.62367 1.97663 0
M  V30 17496 H 1719.7 -3.43098 3.74494 0
M  V30 17497 H 1719.63 -4.6584 2.45562 0
M  V30 17498 H 1722.12 -3.13566 2.10915 0
M  V30 17499 H 1722.44 -6.04236 4.81786 0
M  V30 17500 H 1720.78 -5.43839 4.3274 0
M  V30 17501 H 1723.97 -3.83645 2.68206 0
M  V30 17502 H 1724.15 -5.16207 3.91707 0
M  V30 17503 N 1717.55 -0.769612 -1.37531 0
M  V30 17504 C 1718.52 -0.160716 -2.28636 0
M  V30 17505 C 1719.52 0.630362 -1.47929 0
M  V30 17506 O 1720.71 0.454265 -1.68173 0
M  V30 17507 C 1717.84 0.779904 -3.31859 0
M  V30 17508 H 1719.03 -0.963794 -2.83991 0
M  V30 17509 H 1716.58 -0.537678 -1.46761 0
M  V30 17510 H 1717.32 1.60807 -2.81623 0
M  V30 17511 H 1717.1 0.21485 -3.91511 0
M  V30 17512 H 1718.59 1.20143 -3.99944 0
M  V30 17513 N 1719.03 1.48775 -0.519977 0
M  V30 17514 C 1720.28 2.02092 0.0177154 0
M  V30 17515 C 1720.6 1.40024 1.35714 0
M  V30 17516 O 1719.87 0.562115 1.87662 0
M  V30 17517 H 1718.45 0.746939 0.00953578 0
M  V30 17518 H 1721.11 1.82595 -0.681535 0
M  V30 17519 H 1720.21 3.11815 0.133431 0
M  V30 17520 N 1720.51 0.254649 1.55529 0
M  V30 17521 C 1721.73 -0.374795 2.03985 0
M  V30 17522 C 1722.16 -1.50188 1.13249 0
M  V30 17523 O 1721.52 -1.80855 0.126963 0
M  V30 17524 C 1721.56 -0.852635 3.50375 0
M  V30 17525 O 1720.67 -1.9616 3.6276 0
M  V30 17526 H 1720.01 -0.0806157 0.659088 0
M  V30 17527 H 1722.54 0.38297 2.00984 0
M  V30 17528 H 1722.55 -1.15381 3.91345 0
M  V30 17529 H 1721.22 -0.0279044 4.15891 0
M  V30 17530 H 1719.8 -1.66453 3.33688 0
M  V30 17531 N 1721.99 -1.57589 -0.0183649 0
M  V30 17532 C 1723.23 -1.90883 -0.702521 0
M  V30 17533 C 1723.59 -0.854403 -1.72388 0
M  V30 17534 O 1722.88 0.135648 -1.91119 0
M  V30 17535 C 1723.07 -3.28677 -1.4038 0
M  V30 17536 C 1722.9 -4.47424 -0.451873 0
M  V30 17537 C 1721.67 -5.05253 -0.0689871 0
M  V30 17538 C 1723.87 -5.13568 0.274233 0
M  V30 17539 N 1721.85 -6.07515 0.883071 0
M  V30 17540 C 1723.22 -6.10493 1.08159 0
M  V30 17541 C 1725.28 -4.96738 0.340034 0
M  V30 17542 C 1723.98 -6.924 1.94872 0
M  V30 17543 C 1726.01 -5.79215 1.19432 0
M  V30 17544 C 1725.37 -6.75718 1.98958 0
M  V30 17545 H 1721.47 -0.747153 -0.230838 0
M  V30 17546 H 1724.05 -1.94664 0.037666 0
M  V30 17547 H 1722.22 -3.25804 -2.11438 0
M  V30 17548 H 1723.96 -3.49453 -2.04119 0
M  V30 17549 H 1720.71 -4.71612 -0.433462 0
M  V30 17550 H 1721.14 -6.63323 1.35393 0
M  V30 17551 H 1725.78 -4.21997 -0.260504 0
M  V30 17552 H 1723.5 -7.66478 2.56001 0
M  V30 17553 H 1727.08 -5.68237 1.24891 0
M  V30 17554 H 1725.96 -7.38429 2.63993 0
M  V30 17555 N 1723.46 0.290824 -1.54893 0
M  V30 17556 C 1724.74 1.04495 -1.65348 0
M  V30 17557 C 1725.12 2.04888 -0.508348 0
M  V30 17558 O 1724.47 2.23102 0.493749 0
M  V30 17559 C 1724.68 1.71772 -3.03801 0
M  V30 17560 C 1726.03 2.23595 -3.60958 0
M  V30 17561 O 1727.05 1.81788 -3.06319 0
M  V30 17562 O 1725.91 3.00225 -4.56648 0
M  V30 17563 H 1723 0.483605 -0.670862 0
M  V30 17564 H 1725.55 0.288101 -1.67237 0
M  V30 17565 H 1724.32 0.989296 -3.78588 0
M  V30 17566 H 1723.95 2.54188 -3.05735 0
M  V30 17567 N 1724.94 1.47523 0.554506 0
M  V30 17568 C 1726.17 1.57678 1.33496 0
M  V30 17569 C 1726.58 0.226976 1.87834 0
M  V30 17570 O 1725.92 -0.790327 1.6583 0
M  V30 17571 C 1725.99 2.54423 2.53987 0
M  V30 17572 C 1725.65 4.00056 2.20916 0
M  V30 17573 C 1726.65 4.88462 1.78048 0
M  V30 17574 C 1724.33 4.45412 2.32192 0
M  V30 17575 C 1726.33 6.20244 1.46889 0
M  V30 17576 C 1724.01 5.77221 2.00646 0
M  V30 17577 C 1725.01 6.64459 1.58062 0
M  V30 17578 O 1724.7 7.93818 1.26917 0
M  V30 17579 H 1724.43 0.535053 0.413152 0
M  V30 17580 H 1726.98 1.93878 0.678279 0
M  V30 17581 H 1725.21 2.13296 3.22555 0
M  V30 17582 H 1726.9 2.54676 3.16061 0
M  V30 17583 H 1727.67 4.54667 1.68827 0
M  V30 17584 H 1723.55 3.77715 2.64296 0
M  V30 17585 H 1727.09 6.88292 1.13578 0
M  V30 17586 H 1722.99 6.10557 2.095 0
M  V30 17587 H 1723.76 8.06347 1.40525 0
M  V30 17588 N 1726.42 -0.801453 1.357 0
M  V30 17589 C 1727.35 -1.92807 1.31711 0
M  V30 17590 C 1728.33 -1.69028 0.190642 0
M  V30 17591 O 1729.52 -1.90317 0.38641 0
M  V30 17592 C 1726.65 -3.29635 1.09352 0
M  V30 17593 C 1725.6 -3.67908 2.18695 0
M  V30 17594 C 1724.93 -5.02955 1.81494 0
M  V30 17595 C 1726.23 -3.77749 3.60698 0
M  V30 17596 H 1727.92 -1.96401 2.2598 0
M  V30 17597 H 1725.47 -0.943528 1.08782 0
M  V30 17598 H 1727.42 -4.08058 1.052 0
M  V30 17599 H 1726.14 -3.26396 0.115306 0
M  V30 17600 H 1724.8 -2.91775 2.21952 0
M  V30 17601 H 1724.45 -4.96225 0.822776 0
M  V30 17602 H 1724.15 -5.29533 2.54692 0
M  V30 17603 H 1725.67 -5.83811 1.78876 0
M  V30 17604 H 1727.09 -4.4639 3.59734 0
M  V30 17605 H 1725.49 -4.15801 4.327 0
M  V30 17606 H 1726.56 -2.79167 3.96477 0
M  V30 17607 N 1727.9 -1.19782 -1.02421 0
M  V30 17608 C 1729.31 -1.00493 -1.57347 0
M  V30 17609 C 1729.66 0.440854 -1.91183 0
M  V30 17610 O 1728.79 1.32102 -1.714 0
M  V30 17611 C 1729.38 -1.8179 -2.85898 0
M  V30 17612 C 1727.94 -1.66889 -3.3738 0
M  V30 17613 C 1727.09 -1.80199 -2.10769 0
M  V30 17614 H 1730.04 -1.34085 -0.848938 0
M  V30 17615 H 1730.06 -1.31676 -3.5699 0
M  V30 17616 H 1729.57 -2.87011 -2.6124 0
M  V30 17617 H 1727.67 -0.64274 -3.67014 0
M  V30 17618 H 1727.78 -2.47705 -4.10096 0
M  V30 17619 H 1726.15 -1.23308 -2.22862 0
M  V30 17620 H 1726.93 -2.86889 -1.88546 0
M  V30 17621 N 1729.38 1.21606 -1.00248 0
M  V30 17622 C 1730.79 1.72365 -0.717446 0
M  V30 17623 C 1731.14 1.80668 0.765078 0
M  V30 17624 O 1730.26 1.45951 1.59772 0
M  V30 17625 C 1730.86 3.13046 -1.29567 0
M  V30 17626 C 1729.42 3.61172 -1.05981 0
M  V30 17627 C 1728.57 2.38775 -1.41003 0
M  V30 17628 H 1731.52 1.06818 -1.17369 0
M  V30 17629 H 1731.54 3.74392 -0.679054 0
M  V30 17630 H 1731.05 3.0697 -2.37467 0
M  V30 17631 H 1729.15 3.726 0.00214307 0
M  V30 17632 H 1729.26 4.46778 -1.72993 0
M  V30 17633 H 1727.63 2.40839 -0.82877 0
M  V30 17634 H 1728.41 2.35352 -2.49928 0
M  V30 17635 N 1730.86 0.776895 1.37121 0
M  V30 17636 C 1732.27 0.457116 1.52914 0
M  V30 17637 C 1732.47 -1.0265 1.73394 0
M  V30 17638 O 1731.53 -1.81224 1.75824 0
M  V30 17639 C 1732.84 1.27667 2.72253 0
M  V30 17640 C 1734.39 1.26909 2.86117 0
M  V30 17641 C 1734.86 2.0721 4.08446 0
M  V30 17642 N 1736.35 2.04591 4.15568 0
M  V30 17643 C 1737.09 2.63502 5.09268 0
M  V30 17644 N 1736.59 3.31222 6.08493 0
M  V30 17645 N 1738.38 2.53304 5.0179 0
M  V30 17646 H 1730.53 1.73811 1.2208 0
M  V30 17647 H 1732.79 0.738142 0.594853 0
M  V30 17648 H 1732.5 2.32825 2.63601 0
M  V30 17649 H 1732.37 0.909363 3.66074 0
M  V30 17650 H 1734.76 0.225476 2.94237 0
M  V30 17651 H 1734.84 1.67607 1.9324 0
M  V30 17652 H 1734.48 3.11595 4.01087 0
M  V30 17653 H 1734.41 1.63891 5.00447 0
M  V30 17654 H 1736.91 1.55293 3.44518 0
M  V30 17655 H 1737.22 3.73535 6.76529 0
M  V30 17656 H 1735.56 3.35322 6.08756 0
M  V30 17657 H 1738.75 2.00009 4.23218 0
M  V30 17658 H 1738.93 2.99509 5.74629 0
M  V30 17659 N 1732.33 -1.48497 0.527859 0
M  V30 17660 C 1733.56 -2.07399 -0.00510725 0
M  V30 17661 C 1733.98 -1.38211 -1.2759 0
M  V30 17662 O 1733.34 -0.447373 -1.75694 0
M  V30 17663 C 1733.39 -3.59963 -0.214295 0
M  V30 17664 O 1732.49 -3.91921 -1.28342 0
M  V30 17665 H 1731.83 -0.662901 0.0381838 0
M  V30 17666 H 1734.36 -1.90936 0.735166 0
M  V30 17667 H 1734.37 -4.05646 -0.437604 0
M  V30 17668 H 1733.05 -4.09725 0.714028 0
M  V30 17669 H 1731.63 -3.58019 -1.04293 0
M  V30 17670 N 1733.81 -0.262893 -1.55392 0
M  V30 17671 C 1735.06 0.35666 -1.98928 0
M  V30 17672 C 1735.38 1.5729 -1.1526 0
M  V30 17673 O 1734.65 1.94435 -0.239164 0
M  V30 17674 H 1733.23 0.134768 -0.734742 0
M  V30 17675 H 1735.89 -0.365394 -1.91444 0
M  V30 17676 H 1734.99 0.654895 -3.05152 0
M  V30 17677 N 1735.29 1.57597 0.0100073 0
M  V30 17678 C 1736.7 1.78287 0.554143 0
M  V30 17679 C 1737.05 0.896332 1.74529 0
M  V30 17680 O 1736.18 0.0961505 2.16186 0
M  V30 17681 C 1736.77 3.23331 1.01206 0
M  V30 17682 C 1735.33 3.45152 1.50157 0
M  V30 17683 C 1734.48 2.73654 0.448221 0
M  V30 17684 H 1737.43 1.57221 -0.216189 0
M  V30 17685 H 1737.45 3.30893 1.87856 0
M  V30 17686 H 1736.96 3.87829 0.144921 0
M  V30 17687 H 1735.06 2.85854 2.38994 0
M  V30 17688 H 1735.18 4.53813 1.53594 0
M  V30 17689 H 1733.54 2.3798 0.907603 0
M  V30 17690 H 1734.32 3.40846 -0.40978 0
M  V30 17691 N 1736.77 -0.282606 1.55045 0
M  V30 17692 C 1737.73 -1.33228 1.86502 0
M  V30 17693 C 1738.73 -1.42814 0.738977 0
M  V30 17694 O 1739.92 -1.42131 1.0072 0
M  V30 17695 C 1737.05 -2.71488 2.06173 0
M  V30 17696 H 1738.25 -1.06571 2.80326 0
M  V30 17697 H 1735.8 -0.520199 1.47389 0
M  V30 17698 H 1736.53 -3.03339 1.14699 0
M  V30 17699 H 1736.32 -2.65917 2.8815 0
M  V30 17700 H 1737.81 -3.47348 2.31817 0
M  V30 17701 N 1738.25 -1.47815 -0.546675 0
M  V30 17702 C 1739.21 -1.6063 -1.63495 0
M  V30 17703 C 1740.21 -0.480661 -1.53448 0
M  V30 17704 O 1741.4 -0.746017 -1.57417 0
M  V30 17705 C 1738.53 -1.56076 -3.03073 0
M  V30 17706 H 1739.72 -2.57652 -1.53478 0
M  V30 17707 H 1737.28 -1.36162 -0.767433 0
M  V30 17708 H 1738.01 -0.604694 -3.18613 0
M  V30 17709 H 1737.8 -2.3778 -3.11774 0
M  V30 17710 H 1739.29 -1.68204 -3.82227 0
M  V30 17711 N 1739.72 0.794246 -1.36123 0
M  V30 17712 C 1740.97 1.55357 -1.31285 0
M  V30 17713 C 1741.32 1.92094 0.108426 0
M  V30 17714 O 1740.62 1.59486 1.06182 0
M  V30 17715 C 1740.81 2.84387 -2.16469 0
M  V30 17716 C 1740.64 2.60259 -3.66736 0
M  V30 17717 C 1739.41 2.55525 -4.3593 0
M  V30 17718 C 1741.61 2.29787 -4.60111 0
M  V30 17719 N 1739.59 2.23243 -5.7187 0
M  V30 17720 C 1740.96 2.07452 -5.84263 0
M  V30 17721 C 1743.02 2.15753 -4.48726 0
M  V30 17722 C 1741.72 1.72503 -6.98309 0
M  V30 17723 C 1743.75 1.82202 -5.62633 0
M  V30 17724 C 1743.11 1.60711 -6.85822 0
M  V30 17725 H 1739.21 0.569714 -0.535677 0
M  V30 17726 H 1741.79 0.928621 -1.71128 0
M  V30 17727 H 1739.96 3.44757 -1.78878 0
M  V30 17728 H 1741.69 3.50072 -2.03056 0
M  V30 17729 H 1738.45 2.70603 -3.88678 0
M  V30 17730 H 1738.87 2.09862 -6.43651 0
M  V30 17731 H 1743.51 2.31061 -3.54077 0
M  V30 17732 H 1741.23 1.55933 -7.92913 0
M  V30 17733 H 1744.82 1.72034 -5.55784 0
M  V30 17734 H 1743.7 1.35131 -7.7247 0
M  V30 17735 N 1741.2 1.20323 1.01785 0
M  V30 17736 C 1742.15 0.918588 2.08677 0
M  V30 17737 C 1743.14 -0.121089 1.60444 0
M  V30 17738 O 1744.33 0.086115 1.7679 0
M  V30 17739 C 1741.46 0.471136 3.40052 0
M  V30 17740 C 1740.54 1.54417 3.94989 0
M  V30 17741 N 1740.93 2.76628 4.23451 0
M  V30 17742 C 1739.23 1.41004 4.23124 0
M  V30 17743 C 1739.93 3.45834 4.67733 0
M  V30 17744 N 1738.91 2.73245 4.69934 0
M  V30 17745 H 1742.71 1.84727 2.28589 0
M  V30 17746 H 1740.22 1.09705 1.19744 0
M  V30 17747 H 1742.22 0.248624 4.16158 0
M  V30 17748 H 1740.88 -0.450936 3.21553 0
M  V30 17749 H 1741.89 3.13291 4.12395 0
M  V30 17750 H 1738.57 0.552281 4.13831 0
M  V30 17751 H 1739.96 4.50404 4.98584 0
M  V30 17752 N 1742.68 -1.21073 1.00892 0
M  V30 17753 C 1743.92 -1.91957 0.702281 0
M  V30 17754 C 1744.28 -1.76598 -0.753465 0
M  V30 17755 O 1745.48 -2.41891 -1.17226 0
M  V30 17756 C 1743.76 -3.39511 1.11655 0
M  V30 17757 S 1745.31 -4.28816 0.930715 0
M  V30 17758 H 1742.13 -0.663211 0.256265 0
M  V30 17759 H 1744.73 -1.46496 1.29457 0
M  V30 17760 H 1743.44 -3.48208 2.17208 0
M  V30 17761 H 1742.97 -3.89992 0.516721 0
M  V30 17762 H 1744.98 -4.95909 -0.170024 0
M  V30 17763 N 1744.16 -0.784156 -1.36707 0
M  V30 17764 C 1745.57 -0.465219 -1.52669 0
M  V30 17765 C 1745.77 1.01729 -1.73935 0
M  V30 17766 O 1744.83 1.80289 -1.76783 0
M  V30 17767 C 1746.14 -1.29109 -2.71572 0
M  V30 17768 C 1747.69 -1.28424 -2.8544 0
M  V30 17769 C 1748.17 -2.09373 -4.07341 0
M  V30 17770 N 1749.66 -2.06792 -4.14477 0
M  V30 17771 C 1750.39 -2.66199 -5.07864 0
M  V30 17772 N 1749.89 -3.34445 -6.06728 0
M  V30 17773 N 1751.68 -2.55962 -5.0044 0
M  V30 17774 H 1743.83 -1.74456 -1.21156 0
M  V30 17775 H 1746.1 -0.741286 -0.59093 0
M  V30 17776 H 1745.8 -2.34219 -2.62363 0
M  V30 17777 H 1745.68 -0.928764 -3.65587 0
M  V30 17778 H 1748.06 -0.241077 -2.94114 0
M  V30 17779 H 1748.14 -1.68629 -1.92348 0
M  V30 17780 H 1747.79 -3.13718 -3.99429 0
M  V30 17781 H 1747.72 -1.66542 -4.99571 0
M  V30 17782 H 1750.21 -1.57118 -3.43689 0
M  V30 17783 H 1750.52 -3.77118 -6.74538 0
M  V30 17784 H 1748.87 -3.38546 -6.06969 0
M  V30 17785 H 1752.06 -2.02251 -4.22152 0
M  V30 17786 H 1752.23 -3.02553 -5.73032 0
M  V30 17787 N 1745.64 1.48215 -0.535727 0
M  V30 17788 C 1746.59 2.26692 0.243856 0
M  V30 17789 C 1747.57 1.33054 0.904734 0
M  V30 17790 O 1748.76 1.57554 0.80659 0
M  V30 17791 C 1745.89 3.18278 1.28662 0
M  V30 17792 C 1744.98 4.19391 0.630241 0
M  V30 17793 N 1745.37 5.04983 -0.287346 0
M  V30 17794 C 1743.67 4.37096 0.886761 0
M  V30 17795 C 1744.37 5.77868 -0.666561 0
M  V30 17796 N 1743.34 5.43594 -0.0263142 0
M  V30 17797 H 1747.15 2.90247 -0.46197 0
M  V30 17798 H 1744.66 1.58491 -0.354153 0
M  V30 17799 H 1746.66 3.73164 1.85888 0
M  V30 17800 H 1745.32 2.5628 1.99376 0
M  V30 17801 H 1746.33 5.13674 -0.660285 0
M  V30 17802 H 1743 3.86283 1.58404 0
M  V30 17803 H 1744.39 6.56738 -1.4193 0
M  V30 17804 N 1747.11 0.27113 1.5525 0
M  V30 17805 C 1748.35 -0.34803 2.01415 0
M  V30 17806 C 1748.72 -1.53347 1.15536 0
M  V30 17807 O 1749.92 -2.222 1.51264 0
M  V30 17808 C 1748.19 -0.72441 3.49982 0
M  V30 17809 S 1749.75 -1.33067 4.18137 0
M  V30 17810 H 1746.57 -0.108431 0.702683 0
M  V30 17811 H 1749.17 0.392033 1.91529 0
M  V30 17812 H 1747.87 0.14729 4.10136 0
M  V30 17813 H 1747.4 -1.49604 3.63844 0
M  V30 17814 H 1749.42 -2.61934 4.21432 0
M  V30 17815 N 1748.59 -1.576 -0.00164943 0
M  V30 17816 C 1749.56 -2.07267 -0.978423 0
M  V30 17817 C 1750.56 -0.981758 -1.27351 0
M  V30 17818 O 1751.75 -1.24446 -1.21896 0
M  V30 17819 C 1748.88 -2.51273 -2.30379 0
M  V30 17820 H 1750.07 -2.94835 -0.548845 0
M  V30 17821 H 1747.62 -1.54302 -0.249086 0
M  V30 17822 H 1748.36 -1.66943 -2.7803 0
M  V30 17823 H 1748.14 -3.30943 -2.10283 0
M  V30 17824 H 1749.63 -2.90031 -3.00453 0
M  V30 17825 N 1750.07 0.274379 -1.55193 0
M  V30 17826 C 1751.3 1.02871 -1.8009 0
M  V30 17827 C 1751.72 1.79202 -0.571676 0
M  V30 17828 O 1751.08 1.74867 0.478679 0
M  V30 17829 C 1751.13 1.96406 -3.02418 0
M  V30 17830 O 1750.23 3.05154 -2.77408 0
M  V30 17831 H 1749.57 0.294181 -0.595276 0
M  V30 17832 H 1752.1 0.303708 -2.02333 0
M  V30 17833 H 1752.11 2.38385 -3.31114 0
M  V30 17834 H 1750.79 1.40261 -3.91535 0
M  V30 17835 H 1749.36 2.675 -2.59805 0
M  V30 17836 N 1751.55 1.48103 0.538828 0
M  V30 17837 C 1752.48 1.64856 1.65363 0
M  V30 17838 C 1753.46 0.497579 1.6266 0
M  V30 17839 O 1754.64 0.729088 1.79994 0
M  V30 17840 C 1751.77 1.67984 3.03971 0
M  V30 17841 C 1750.73 2.82494 3.21529 0
M  V30 17842 C 1750.05 2.70706 4.6111 0
M  V30 17843 C 1751.35 4.23892 3.05145 0
M  V30 17844 H 1753.05 2.58183 1.51598 0
M  V30 17845 H 1750.59 1.24249 0.727886 0
M  V30 17846 H 1752.55 1.78294 3.81824 0
M  V30 17847 H 1751.27 0.712299 3.18738 0
M  V30 17848 H 1749.93 2.71725 2.46091 0
M  V30 17849 H 1749.58 1.7194 4.727 0
M  V30 17850 H 1749.28 3.47539 4.73804 0
M  V30 17851 H 1750.8 2.82971 5.41073 0
M  V30 17852 H 1752.22 4.3554 3.72797 0
M  V30 17853 H 1750.61 5.01654 3.29338 0
M  V30 17854 H 1751.68 4.40973 2.01671 0
M  V30 17855 N 1753.03 -0.787016 1.36542 0
M  V30 17856 C 1753.94 -1.93103 1.33223 0
M  V30 17857 C 1754.95 -1.72419 0.234047 0
M  V30 17858 O 1756.13 -1.95915 0.466828 0
M  V30 17859 C 1753.19 -3.28002 1.12319 0
M  V30 17860 C 1752.25 -3.61447 2.31635 0
M  V30 17861 C 1751.49 -4.89909 2.11719 0
M  V30 17862 O 1751.71 -5.59818 1.0936 0
M  V30 17863 O 1750.64 -5.22065 2.99552 0
M  V30 17864 H 1754.47 -1.98853 2.29545 0
M  V30 17865 H 1752.06 -0.92761 1.17114 0
M  V30 17866 H 1753.94 -4.08722 1.02589 0
M  V30 17867 H 1752.61 -3.23138 0.19061 0
M  V30 17868 H 1751.52 -2.81024 2.46934 0
M  V30 17869 H 1752.85 -3.71037 3.23407 0
M  V30 17870 N 1754.5 -1.20861 -1.01145 0
M  V30 17871 C 1755.43 -0.986058 -2.11658 0
M  V30 17872 C 1756.42 0.0867558 -1.69879 0
M  V30 17873 O 1757.6 -0.0717892 -1.94067 0
M  V30 17874 C 1754.73 -0.542938 -3.4303 0
M  V30 17875 C 1753.68 -1.55958 -3.98574 0
M  V30 17876 C 1753.01 -0.972917 -5.25774 0
M  V30 17877 C 1754.31 -2.94471 -4.31375 0
M  V30 17878 H 1756 -1.91035 -2.30534 0
M  V30 17879 H 1753.55 -0.919914 -1.10786 0
M  V30 17880 H 1755.5 -0.374446 -4.19733 0
M  V30 17881 H 1754.23 0.416988 -3.23927 0
M  V30 17882 H 1752.89 -1.71552 -3.23984 0
M  V30 17883 H 1752.53 -0.00490446 -5.03 0
M  V30 17884 H 1752.23 -1.65194 -5.63901 0
M  V30 17885 H 1753.76 -0.815607 -6.05128 0
M  V30 17886 H 1755.17 -2.82358 -4.98946 0
M  V30 17887 H 1753.57 -3.59327 -4.80629 0
M  V30 17888 H 1754.64 -3.45804 -3.39923 0
M  V30 17889 N 1755.98 1.20536 -1.01532 0
M  V30 17890 C 1756.91 2.2553 -0.604866 0
M  V30 17891 C 1757.89 1.65814 0.379452 0
M  V30 17892 O 1759.08 1.92381 0.265162 0
M  V30 17893 C 1756.21 3.4725 0.0589292 0
M  V30 17894 C 1755.16 4.19551 -0.846241 0
M  V30 17895 C 1754.49 5.34678 -0.0482901 0
M  V30 17896 C 1755.79 4.75829 -2.1537 0
M  V30 17897 H 1757.48 2.60117 -1.48254 0
M  V30 17898 H 1755.03 1.25035 -0.714297 0
M  V30 17899 H 1756.98 4.1988 0.357627 0
M  V30 17900 H 1755.71 3.11822 0.97131 0
M  V30 17901 H 1754.36 3.48785 -1.12892 0
M  V30 17902 H 1754.01 4.95494 0.8657 0
M  V30 17903 H 1753.71 5.83982 -0.651081 0
M  V30 17904 H 1755.24 6.10112 0.243983 0
M  V30 17905 H 1756.65 5.40284 -1.91745 0
M  V30 17906 H 1755.05 5.35564 -2.70723 0
M  V30 17907 H 1756.12 3.94641 -2.81756 0
M  V30 17908 N 1757.46 0.791395 1.36289 0
M  V30 17909 C 1758.87 0.427611 1.81737 0
M  V30 17910 C 1759.22 -1.04868 1.65822 0
M  V30 17911 O 1758.35 -1.81379 1.18028 0
M  V30 17912 C 1758.94 0.769378 3.29949 0
M  V30 17913 C 1757.5 0.458397 3.73598 0
M  V30 17914 C 1756.65 1.00299 2.58526 0
M  V30 17915 H 1759.6 0.98437 1.24482 0
M  V30 17916 H 1759.62 0.061211 3.80451 0
M  V30 17917 H 1759.13 1.8439 3.415 0
M  V30 17918 H 1757.23 -0.608006 3.67606 0
M  V30 17919 H 1757.35 0.980392 4.68962 0
M  V30 17920 H 1755.71 0.426106 2.5111 0
M  V30 17921 H 1756.49 2.08331 2.72861 0
M  V30 17922 N 1758.94 -1.47929 0.54358 0
M  V30 17923 C 1760.35 -1.86395 0.10663 0
M  V30 17924 C 1760.7 -1.45171 -1.31984 0
M  V30 17925 O 1759.83 -0.848558 -1.99069 0
M  V30 17926 C 1760.42 -3.38285 0.186733 0
M  V30 17927 C 1758.98 -3.75894 -0.195098 0
M  V30 17928 C 1758.13 -2.71983 0.540427 0
M  V30 17929 H 1761.08 -1.3964 0.754076 0
M  V30 17930 H 1761.1 -3.75769 -0.598151 0
M  V30 17931 H 1760.61 -3.68258 1.22505 0
M  V30 17932 H 1758.71 -3.51536 -1.23504 0
M  V30 17933 H 1758.83 -4.78853 0.153975 0
M  V30 17934 H 1757.19 -2.54696 -0.0149151 0
M  V30 17935 H 1757.97 -3.04799 1.57963 0
M  V30 17936 N 1760.42 -0.27936 -1.55104 0
M  V30 17937 C 1761.83 0.217569 -1.85428 0
M  V30 17938 C 1762.18 1.55117 -1.20138 0
M  V30 17939 O 1761.3 2.10751 -0.491229 0
M  V30 17940 C 1761.9 0.401547 -3.36412 0
M  V30 17941 C 1760.46 0.842706 -3.66845 0
M  V30 17942 C 1759.61 -0.0615565 -2.77232 0
M  V30 17943 H 1762.56 -0.501025 -1.50584 0
M  V30 17944 H 1762.58 1.23946 -3.59747 0
M  V30 17945 H 1762.09 -0.569224 -3.83903 0
M  V30 17946 H 1760.19 1.8248 -3.24857 0
M  V30 17947 H 1760.3 0.677088 -4.74291 0
M  V30 17948 H 1758.67 0.455486 -2.50594 0
M  V30 17949 H 1759.45 -1.02829 -3.27538 0
M  V30 17950 N 1761.9 1.57599 -0.0067085 0
M  V30 17951 C 1763.31 1.55727 0.349452 0
M  V30 17952 C 1763.51 1.01004 1.74357 0
M  V30 17953 O 1762.57 0.646817 2.44075 0
M  V30 17954 C 1763.88 2.99905 0.218546 0
M  V30 17955 C 1765.43 3.11626 0.292987 0
M  V30 17956 C 1765.9 4.57601 0.191129 0
M  V30 17957 N 1767.39 4.62531 0.248819 0
M  V30 17958 C 1768.13 5.73074 0.193448 0
M  V30 17959 N 1767.63 6.92744 0.0882834 0
M  V30 17960 N 1769.42 5.61562 0.245803 0
M  V30 17961 H 1761.57 1.91508 -0.918617 0
M  V30 17962 H 1763.83 0.879931 -0.352739 0
M  V30 17963 H 1763.54 3.43807 -0.740914 0
M  V30 17964 H 1763.41 3.63761 0.997905 0
M  V30 17965 H 1765.8 2.67649 1.2429 0
M  V30 17966 H 1765.88 2.50534 -0.516358 0
M  V30 17967 H 1765.52 5.02253 -0.755263 0
M  V30 17968 H 1765.45 5.16646 1.01905 0
M  V30 17969 H 1767.95 3.76446 0.331157 0
M  V30 17970 H 1768.26 7.72782 0.052112 0
M  V30 17971 H 1766.6 6.94979 0.0538156 0
M  V30 17972 H 1769.79 4.66962 0.326204 0
M  V30 17973 H 1769.97 6.47694 0.199185 0
M  V30 17974 N 1763.37 -0.266145 1.55336 0
M  V30 17975 C 1764.32 -1.33159 1.85075 0
M  V30 17976 C 1765.31 -1.44381 0.710142 0
M  V30 17977 O 1766.5 -1.47946 0.971644 0
M  V30 17978 C 1763.63 -2.69063 2.13214 0
M  V30 17979 C 1762.71 -2.61924 3.33552 0
M  V30 17980 N 1763.11 -2.24407 4.53294 0
M  V30 17981 C 1761.4 -2.92973 3.36278 0
M  V30 17982 C 1762.1 -2.27428 5.35398 0
M  V30 17983 N 1761.08 -2.66173 4.73976 0
M  V30 17984 H 1764.88 -1.03172 2.75196 0
M  V30 17985 H 1762.4 -0.474782 1.55305 0
M  V30 17986 H 1764.39 -3.45929 2.32677 0
M  V30 17987 H 1763.05 -2.99933 1.2438 0
M  V30 17988 H 1764.06 -1.9627 4.79269 0
M  V30 17989 H 1760.74 -3.2851 2.57658 0
M  V30 17990 H 1762.13 -2.00925 6.41154 0
M  V30 17991 N 1764.85 -1.48386 -0.530967 0
M  V30 17992 C 1765.78 -1.6573 -1.64486 0
M  V30 17993 C 1766.76 -0.506198 -1.62393 0
M  V30 17994 O 1767.95 -0.738623 -1.79605 0
M  V30 17995 C 1765.08 -1.69594 -3.03076 0
M  V30 17996 C 1764.03 -2.84195 -3.20027 0
M  V30 17997 C 1763.36 -2.73148 -4.59668 0
M  V30 17998 C 1764.66 -4.25504 -3.02892 0
M  V30 17999 H 1766.35 -2.58983 -1.50227 0
M  V30 18000 H 1763.9 -1.24633 -0.721286 0
M  V30 18001 H 1765.85 -1.80316 -3.80873 0
M  V30 18002 H 1764.57 -0.729193 -3.18356 0
M  V30 18003 H 1763.23 -2.73027 -2.44647 0
M  V30 18004 H 1762.88 -1.74444 -4.71782 0
M  V30 18005 H 1762.58 -3.50047 -4.71954 0
M  V30 18006 H 1764.11 -2.85836 -5.39565 0
M  V30 18007 H 1765.52 -4.37511 -3.70482 0
M  V30 18008 H 1763.92 -5.03393 -3.26673 0
M  V30 18009 H 1764.99 -4.42036 -1.99329 0
M  V30 18010 N 1766.33 0.779763 -1.36958 0
M  V30 18011 C 1767.55 1.57389 -1.35068 0
M  V30 18012 C 1767.98 1.87993 0.0635244 0
M  V30 18013 O 1767.34 1.48625 1.03828 0
M  V30 18014 C 1767.39 2.86582 -2.18868 0
M  V30 18015 O 1766.49 3.80609 -1.58779 0
M  V30 18016 H 1765.83 0.477052 -0.461863 0
M  V30 18017 H 1768.36 0.965741 -1.80373 0
M  V30 18018 H 1768.37 3.35761 -2.31794 0
M  V30 18019 H 1767.05 2.63635 -3.21666 0
M  V30 18020 H 1765.62 3.39229 -1.54848 0
M  V30 18021 N 1767.81 1.21396 1.00503 0
M  V30 18022 C 1769.05 1.0426 1.7581 0
M  V30 18023 C 1769.41 -0.416605 1.87426 0
M  V30 18024 O 1770.61 -0.708477 2.59295 0
M  V30 18025 C 1768.88 1.72061 3.13257 0
M  V30 18026 S 1770.44 1.70181 4.04455 0
M  V30 18027 H 1767.26 0.373616 0.604923 0
M  V30 18028 H 1769.86 1.54141 1.20253 0
M  V30 18029 H 1768.57 2.77418 3.02436 0
M  V30 18030 H 1768.1 1.2236 3.73887 0
M  V30 18031 H 1770.11 0.742877 4.90608 0
M  V30 18032 N 1769.29 -1.19996 1.0217 0
M  V30 18033 C 1770.51 -1.94007 0.733207 0
M  V30 18034 C 1770.94 -1.74565 -0.70061 0
M  V30 18035 O 1770.29 -1.04326 -1.48276 0
M  V30 18036 C 1770.34 -3.44029 1.08057 0
M  V30 18037 O 1769.45 -4.11938 0.195135 0
M  V30 18038 H 1768.79 -0.605929 0.271562 0
M  V30 18039 H 1771.32 -1.5228 1.36645 0
M  V30 18040 H 1771.33 -3.94669 1.03443 0
M  V30 18041 H 1770 -3.57502 2.1252 0
M  V30 18042 H 1768.58 -3.71697 0.299246 0
M  V30 18043 N 1770.76 -0.798611 -1.35867 0
M  V30 18044 C 1771.71 -0.176275 -2.27318 0
M  V30 18045 C 1772.7 0.64521 -1.47397 0
M  V30 18046 O 1773.89 0.503776 -1.69679 0
M  V30 18047 C 1771.02 0.680716 -3.36483 0
M  V30 18048 C 1770.1 -0.150062 -4.23834 0
M  V30 18049 N 1770.5 -1.20913 -4.91135 0
M  V30 18050 C 1768.79 0.0696135 -4.45946 0
M  V30 18051 C 1769.49 -1.71566 -5.55824 0
M  V30 18052 N 1768.47 -1.02339 -5.3388 0
M  V30 18053 H 1772.27 -0.986741 -2.7684 0
M  V30 18054 H 1769.79 -0.638977 -1.49301 0
M  V30 18055 H 1771.78 1.14254 -4.00938 0
M  V30 18056 H 1770.44 1.48962 -2.88514 0
M  V30 18057 H 1771.45 -1.59169 -4.92834 0
M  V30 18058 H 1768.13 0.848295 -4.08791 0
M  V30 18059 H 1769.52 -2.60035 -6.19541 0
M  V30 18060 N 1772.24 1.47639 -0.551417 0
M  V30 18061 C 1773.52 1.95559 0.0401983 0
M  V30 18062 C 1773.9 1.49396 1.49144 0
M  V30 18063 O 1773.25 0.730148 2.1652 0
M  V30 18064 C 1773.46 3.48859 -0.0992677 0
M  V30 18065 C 1774.8 4.24572 0.0490517 0
M  V30 18066 O 1775.83 3.5619 -0.026527 0
M  V30 18067 O 1774.69 5.46094 0.210638 0
M  V30 18068 H 1771.78 0.824251 0.0673694 0
M  V30 18069 H 1774.33 1.58065 -0.617532 0
M  V30 18070 H 1773.1 3.75245 -1.10936 0
M  V30 18071 H 1772.72 3.93102 0.596339 0
M  V30 18072 N 1773.72 0.287581 1.54954 0
M  V30 18073 C 1774.97 -0.324967 1.9947 0
M  V30 18074 C 1775.29 -1.55437 1.17747 0
M  V30 18075 O 1774.56 -1.9403 0.270067 0
M  V30 18076 H 1773.14 -0.123062 0.736794 0
M  V30 18077 H 1775.8 0.395805 1.90839 0
M  V30 18078 H 1774.9 -0.606265 3.06155 0
M  V30 18079 N 1775.2 -1.57593 0.0150662 0
M  V30 18080 C 1776.13 -2.12395 -0.970081 0
M  V30 18081 C 1777.11 -1.03666 -1.34861 0
M  V30 18082 O 1778.29 -1.31427 -1.4297 0
M  V30 18083 C 1775.42 -2.63958 -2.25707 0
M  V30 18084 C 1774.38 -3.77348 -2.01971 0
M  V30 18085 C 1773.7 -4.15284 -3.36814 0
M  V30 18086 C 1775 -5.04008 -1.37017 0
M  V30 18087 H 1776.7 -2.9496 -0.513731 0
M  V30 18088 H 1774.24 -1.41889 -0.245666 0
M  V30 18089 H 1776.2 -3.00927 -2.94993 0
M  V30 18090 H 1774.92 -1.78535 -2.73483 0
M  V30 18091 H 1773.58 -3.40795 -1.35107 0
M  V30 18092 H 1773.23 -3.26863 -3.82321 0
M  V30 18093 H 1772.93 -4.91686 -3.21744 0
M  V30 18094 H 1774.45 -4.54824 -4.07391 0
M  V30 18095 H 1775.87 -5.38652 -1.96282 0
M  V30 18096 H 1774.26 -5.85315 -1.32388 0
M  V30 18097 H 1775.33 -4.83698 -0.341281 0
M  V30 18098 N 1776.68 0.257904 -1.55475 0
M  V30 18099 C 1777.95 1.00965 -1.67528 0
M  V30 18100 C 1778.33 2.03763 -0.551694 0
M  V30 18101 O 1777.68 2.24099 0.446314 0
M  V30 18102 C 1777.89 1.65289 -3.07377 0
M  V30 18103 C 1779.24 2.15888 -3.65619 0
M  V30 18104 O 1780.26 1.7525 -3.10106 0
M  V30 18105 O 1779.12 2.90471 -4.62913 0
M  V30 18106 H 1776.22 0.469266 -0.680969 0
M  V30 18107 H 1778.76 0.252562 -1.6781 0
M  V30 18108 H 1777.53 0.908769 -3.80601 0
M  V30 18109 H 1777.16 2.47646 -3.11058 0
M  V30 18110 N 1778.15 1.48666 0.52309 0
M  V30 18111 C 1779.4 1.56724 1.27601 0
M  V30 18112 C 1779.72 0.245958 1.93443 0
M  V30 18113 O 1778.99 -0.733053 1.81668 0
M  V30 18114 H 1777.57 0.57739 0.473952 0
M  V30 18115 H 1780.24 1.85169 0.608144 0
M  V30 18116 H 1779.33 2.35188 2.05166 0
M  V30 18117 N 1779.63 -0.772489 1.37369 0
M  V30 18118 C 1780.88 -1.528 1.32275 0
M  V30 18119 C 1781.2 -1.9478 -0.092541 0
M  V30 18120 O 1780.47 -1.6624 -1.0364 0
M  V30 18121 H 1779.05 -0.566727 0.486651 0
M  V30 18122 H 1781.71 -0.919435 1.7185 0
M  V30 18123 H 1780.81 -2.42774 1.96131 0
M  V30 18124 N 1781.11 -1.21927 -0.998575 0
M  V30 18125 C 1782.36 -1.05199 -1.74082 0
M  V30 18126 C 1782.71 0.409387 -1.87994 0
M  V30 18127 O 1782 1.29958 -1.40788 0
M  V30 18128 C 1782.2 -1.69015 -3.1491 0
M  V30 18129 C 1782.03 -3.21208 -3.14731 0
M  V30 18130 C 1780.8 -3.90284 -3.20946 0
M  V30 18131 C 1783 -4.18214 -2.99335 0
M  V30 18132 N 1780.98 -5.29611 -3.10461 0
M  V30 18133 C 1782.35 -5.44334 -2.96816 0
M  V30 18134 C 1784.4 -4.09179 -2.83684 0
M  V30 18135 C 1783.11 -6.62459 -2.80251 0
M  V30 18136 C 1785.13 -5.26948 -2.68477 0
M  V30 18137 C 1784.49 -6.51983 -2.66641 0
M  V30 18138 H 1780.59 -0.439342 -0.646918 0
M  V30 18139 H 1783.18 -1.54381 -1.18636 0
M  V30 18140 H 1781.35 -1.22392 -3.68612 0
M  V30 18141 H 1783.08 -1.45433 -3.77666 0
M  V30 18142 H 1779.84 -3.41248 -3.284 0
M  V30 18143 H 1780.26 -6.02603 -3.08543 0
M  V30 18144 H 1784.9 -3.13301 -2.83905 0
M  V30 18145 H 1782.62 -7.58492 -2.78776 0
M  V30 18146 H 1786.21 -5.21784 -2.57358 0
M  V30 18147 H 1785.09 -7.41577 -2.55016 0
M  V30 18148 N 1782.59 1.19452 -1.02805 0
M  V30 18149 C 1783.83 1.89662 -0.734839 0
M  V30 18150 C 1784.19 1.78072 0.728567 0
M  V30 18151 O 1783.48 1.16172 1.52363 0
M  V30 18152 C 1783.68 3.3941 -1.11964 0
M  V30 18153 C 1783.51 3.65573 -2.61891 0
M  V30 18154 C 1782.28 3.83649 -3.28849 0
M  V30 18155 C 1784.47 3.67197 -3.60098 0
M  V30 18156 N 1782.46 3.97434 -4.67888 0
M  V30 18157 C 1783.83 3.86544 -4.84751 0
M  V30 18158 C 1785.88 3.50219 -3.53908 0
M  V30 18159 C 1784.58 3.90672 -6.0396 0
M  V30 18160 C 1786.61 3.55624 -4.72531 0
M  V30 18161 C 1785.97 3.75455 -5.95997 0
M  V30 18162 H 1782.07 0.713192 -0.320751 0
M  V30 18163 H 1784.66 1.43565 -1.31519 0
M  V30 18164 H 1782.83 3.84232 -0.567503 0
M  V30 18165 H 1784.56 3.97136 -0.778765 0
M  V30 18166 H 1781.31 3.82504 -2.79263 0
M  V30 18167 H 1781.74 4.08178 -5.40111 0
M  V30 18168 H 1786.38 3.33843 -2.59439 0
M  V30 18169 H 1784.1 4.0584 -6.98799 0
M  V30 18170 H 1787.68 3.43778 -4.69369 0
M  V30 18171 H 1786.56 3.79511 -6.86252 0
M  V30 18172 N 1784.07 0.805805 1.35442 0
M  V30 18173 C 1785.03 0.221278 2.28129 0
M  V30 18174 C 1786.03 -0.590919 1.49549 0
M  V30 18175 O 1787.22 -0.409518 1.69318 0
M  V30 18176 C 1784.35 -0.691643 3.3381 0
M  V30 18177 H 1785.54 1.03875 2.81336 0
M  V30 18178 H 1783.1 0.5764 1.45284 0
M  V30 18179 H 1783.83 -1.53283 2.85788 0
M  V30 18180 H 1783.62 -0.110972 3.91943 0
M  V30 18181 H 1785.11 -1.09497 4.02989 0
M  V30 18182 N 1785.54 -1.47344 0.559239 0
M  V30 18183 C 1786.96 -1.86272 0.126394 0
M  V30 18184 C 1787.31 -1.46563 -1.30437 0
M  V30 18185 O 1786.43 -0.869624 -1.98158 0
M  V30 18186 C 1787.03 -3.38068 0.222602 0
M  V30 18187 C 1785.59 -3.7608 -0.155219 0
M  V30 18188 C 1784.73 -2.71394 0.569244 0
M  V30 18189 H 1787.68 -1.38833 0.768845 0
M  V30 18190 H 1787.7 -3.76382 -0.558262 0
M  V30 18191 H 1787.22 -3.66938 1.26404 0
M  V30 18192 H 1785.32 -3.52826 -1.19768 0
M  V30 18193 H 1785.43 -4.78662 0.204756 0
M  V30 18194 H 1783.79 -2.54697 0.0120996 0
M  V30 18195 H 1784.58 -3.03107 1.61187 0
M  V30 18196 N 1787.02 -0.295795 -1.54799 0
M  V30 18197 C 1788.43 0.19789 -1.85648 0
M  V30 18198 C 1788.78 1.53834 -1.21776 0
M  V30 18199 O 1787.91 2.10218 -0.513554 0
M  V30 18200 C 1788.5 0.365844 -3.36819 0
M  V30 18201 C 1787.06 0.80375 -3.67718 0
M  V30 18202 C 1786.21 -0.0909572 -2.77151 0
M  V30 18203 H 1789.16 -0.516968 -1.50044 0
M  V30 18204 H 1789.18 1.20123 -3.61041 0
M  V30 18205 H 1788.69 -0.60991 -3.83278 0
M  V30 18206 H 1786.8 1.79024 -3.26774 0
M  V30 18207 H 1786.91 0.626745 -4.74983 0
M  V30 18208 H 1785.27 0.428882 -2.51063 0
M  V30 18209 H 1786.06 -1.06297 -3.26429 0
M  V30 18210 N 1788.5 1.57583 -0.0234236 0
M  V30 18211 C 1789.91 1.79422 0.516201 0
M  V30 18212 C 1790.26 0.933151 1.72588 0
M  V30 18213 O 1789.39 0.141985 2.15934 0
M  V30 18214 C 1789.98 3.25405 0.943248 0
M  V30 18215 C 1788.54 3.48259 1.42802 0
M  V30 18216 C 1787.69 2.74543 0.390074 0
M  V30 18217 H 1790.64 1.56727 -0.24949 0
M  V30 18218 H 1790.66 3.34803 1.80795 0
M  V30 18219 H 1790.17 3.88049 0.0626242 0
M  V30 18220 H 1788.27 2.9086 2.32877 0
M  V30 18221 H 1788.39 4.56968 1.43933 0
M  V30 18222 H 1786.75 2.39852 0.856919 0
M  V30 18223 H 1787.53 3.399 -0.481986 0
M  V30 18224 N 1789.98 -0.249655 1.5561 0
M  V30 18225 C 1791.39 -0.818934 1.67781 0
M  V30 18226 C 1791.74 -1.86134 0.620374 0
M  V30 18227 O 1790.87 -2.15133 -0.233869 0
M  V30 18228 C 1791.46 -1.49219 3.0417 0
M  V30 18229 C 1790.02 -2.0092 3.18289 0
M  V30 18230 C 1789.17 -0.859333 2.63649 0
M  V30 18231 H 1792.12 -0.0255186 1.58679 0
M  V30 18232 H 1792.14 -2.36011 2.98461 0
M  V30 18233 H 1791.65 -0.733268 3.8111 0
M  V30 18234 H 1789.75 -2.79701 2.46167 0
M  V30 18235 H 1789.87 -2.20848 4.25163 0
M  V30 18236 H 1788.23 -1.2591 2.21402 0
M  V30 18237 H 1789.01 -0.113545 3.43112 0
M  V30 18238 N 1791.46 -1.48941 -0.515198 0
M  V30 18239 C 1792.87 -1.51076 -1.09695 0
M  V30 18240 C 1793.22 -0.288875 -1.94062 0
M  V30 18241 O 1792.34 0.602665 -2.07839 0
M  V30 18242 C 1792.94 -2.73755 -1.99609 0
M  V30 18243 C 1791.5 -2.78714 -2.52974 0
M  V30 18244 C 1790.65 -2.44798 -1.30266 0
M  V30 18245 H 1793.6 -1.55843 -0.299757 0
M  V30 18246 H 1793.62 -2.53112 -2.84103 0
M  V30 18247 H 1793.13 -3.62668 -1.38178 0
M  V30 18248 H 1791.23 -1.94045 -3.18084 0
M  V30 18249 H 1791.34 -3.80525 -2.91097 0
M  V30 18250 H 1789.71 -1.9627 -1.62327 0
M  V30 18251 H 1790.49 -3.35969 -0.705648 0
M  V30 18252 N 1792.94 0.765193 -1.37777 0
M  V30 18253 C 1794.18 1.52537 -1.34551 0
M  V30 18254 C 1794.54 1.92281 0.067656 0
M  V30 18255 O 1793.83 1.61703 1.02775 0
M  V30 18256 C 1794.02 2.79732 -2.22452 0
M  V30 18257 C 1793.85 2.52421 -3.72174 0
M  V30 18258 C 1792.62 2.46221 -4.41252 0
M  V30 18259 C 1794.82 2.19976 -4.64882 0
M  V30 18260 N 1792.8 2.11063 -5.76477 0
M  V30 18261 C 1794.17 1.95012 -5.88532 0
M  V30 18262 C 1796.23 2.06187 -4.53201 0
M  V30 18263 C 1794.93 1.57652 -7.01811 0
M  V30 18264 C 1796.96 1.70227 -5.66372 0
M  V30 18265 C 1796.32 1.46128 -6.89076 0
M  V30 18266 H 1792.42 0.558224 -0.547641 0
M  V30 18267 H 1795 0.892113 -1.73059 0
M  V30 18268 H 1793.17 3.40885 -1.8615 0
M  V30 18269 H 1794.91 3.45686 -2.10436 0
M  V30 18270 H 1791.66 2.62298 -3.94331 0
M  V30 18271 H 1792.08 1.96162 -6.47958 0
M  V30 18272 H 1796.73 2.23498 -3.58899 0
M  V30 18273 H 1794.44 1.39079 -7.96042 0
M  V30 18274 H 1798.03 1.60206 -5.59308 0
M  V30 18275 H 1796.91 1.18715 -7.75162 0
M  V30 18276 N 1794.41 1.22455 0.992094 0
M  V30 18277 C 1795.38 0.996703 2.06394 0
M  V30 18278 C 1796.38 -0.0371659 1.60757 0
M  V30 18279 O 1797.57 0.20142 1.73032 0
M  V30 18280 C 1794.7 0.505675 3.37129 0
M  V30 18281 H 1795.89 1.94776 2.28041 0
M  V30 18282 H 1793.44 1.04335 1.16378 0
M  V30 18283 H 1794.18 -0.449697 3.21167 0
M  V30 18284 H 1793.96 1.25158 3.71588 0
M  V30 18285 H 1795.45 0.366535 4.15988 0
M  V30 18286 N 1795.89 -1.18905 1.03437 0
M  V30 18287 C 1796.85 -2.20529 0.624461 0
M  V30 18288 C 1797.85 -1.57688 -0.314824 0
M  V30 18289 O 1799.04 -1.73906 -0.101082 0
M  V30 18290 C 1796.18 -3.40793 -0.0854166 0
M  V30 18291 H 1797.37 -2.58309 1.5237 0
M  V30 18292 H 1794.92 -1.32679 0.826189 0
M  V30 18293 H 1795.66 -3.08538 -0.998747 0
M  V30 18294 H 1795.44 -3.87642 0.589596 0
M  V30 18295 H 1796.93 -4.16055 -0.358938 0
M  V30 18296 N 1797.37 -0.812977 -1.35013 0
M  V30 18297 C 1798.62 -0.395562 -1.98191 0
M  V30 18298 C 1798.94 1.04242 -1.64799 0
M  V30 18299 O 1798.21 1.72219 -0.933678 0
M  V30 18300 H 1796.79 -0.143276 -0.733131 0
M  V30 18301 H 1799.45 -1.04023 -1.64819 0
M  V30 18302 H 1798.55 -0.506466 -3.07963 0
M  V30 18303 N 1798.85 1.47045 -0.567045 0
M  V30 18304 C 1800.26 1.86202 -0.13627 0
M  V30 18305 C 1800.61 1.47252 1.29658 0
M  V30 18306 O 1799.73 0.880121 1.97694 0
M  V30 18307 C 1800.33 3.37945 -0.240528 0
M  V30 18308 C 1798.89 3.76157 0.135272 0
M  V30 18309 C 1798.04 2.71089 -0.583628 0
M  V30 18310 H 1800.99 1.38423 -0.776196 0
M  V30 18311 H 1801.01 3.76673 0.538293 0
M  V30 18312 H 1800.52 3.66263 -1.28348 0
M  V30 18313 H 1798.62 3.53456 1.17896 0
M  V30 18314 H 1798.73 4.78547 -0.230137 0
M  V30 18315 H 1797.1 2.54687 -0.0256067 0
M  V30 18316 H 1797.88 3.02247 -1.62792 0
M  V30 18317 N 1800.33 0.304 1.5464 0
M  V30 18318 C 1801.26 -0.563854 2.2659 0
M  V30 18319 C 1802.24 -1.13547 1.26653 0
M  V30 18320 O 1803.42 -1.16425 1.55431 0
M  V30 18321 C 1800.55 -1.73437 3.00894 0
M  V30 18322 C 1799.51 -1.29297 4.08003 0
M  V30 18323 C 1798.83 -2.54888 4.70038 0
M  V30 18324 C 1800.13 -0.422027 5.20592 0
M  V30 18325 H 1801.83 0.0362569 2.99378 0
M  V30 18326 H 1799.37 0.0188781 1.43988 0
M  V30 18327 H 1801.32 -2.34762 3.4995 0
M  V30 18328 H 1800.05 -2.36076 2.25689 0
M  V30 18329 H 1798.71 -0.702757 3.59801 0
M  V30 18330 H 1798.36 -3.15848 3.9147 0
M  V30 18331 H 1798.06 -2.26054 5.42378 0
M  V30 18332 H 1799.58 -3.17011 5.21859 0
M  V30 18333 H 1800.99 -0.941036 5.65524 0
M  V30 18334 H 1799.39 -0.227323 5.99669 0
M  V30 18335 H 1800.46 0.55212 4.81746 0
M  V30 18336 N 1801.8 -1.57568 0.0317802 0
M  V30 18337 C 1803.21 -1.79693 -0.506679 0
M  V30 18338 C 1803.57 -0.94229 -1.72091 0
M  V30 18339 O 1802.69 -0.153435 -2.15855 0
M  V30 18340 C 1803.29 -3.259 -0.925978 0
M  V30 18341 C 1801.84 -3.49012 -1.40953 0
M  V30 18342 C 1800.99 -2.74746 -0.375509 0
M  V30 18343 H 1803.94 -1.56592 0.257798 0
M  V30 18344 H 1803.96 -3.35757 -1.79017 0
M  V30 18345 H 1803.48 -3.88077 -0.0420441 0
M  V30 18346 H 1801.58 -2.9209 -2.31331 0
M  V30 18347 H 1801.69 -4.57725 -1.41508 0
M  V30 18348 H 1800.05 -2.40303 -0.844187 0
M  V30 18349 H 1800.84 -3.39639 0.500005 0
M  V30 18350 N 1803.28 0.241399 -1.5574 0
M  V30 18351 C 1804.7 0.590176 -1.48287 0
M  V30 18352 C 1804.9 1.8808 -0.723052 0
M  V30 18353 O 1803.95 2.51213 -0.25464 0
M  V30 18354 C 1805.27 0.687804 -2.92728 0
M  V30 18355 C 1806.82 0.779763 -3.03131 0
M  V30 18356 C 1807.29 0.908905 -4.48891 0
M  V30 18357 N 1808.78 0.973636 -4.52852 0
M  V30 18358 C 1809.52 1.09292 -5.62888 0
M  V30 18359 N 1809.01 1.1774 -6.82722 0
M  V30 18360 N 1810.81 1.12651 -5.50696 0
M  V30 18361 H 1802.96 -0.605781 -2.03578 0
M  V30 18362 H 1805.22 -0.209862 -0.924479 0
M  V30 18363 H 1804.93 -0.190608 -3.51183 0
M  V30 18364 H 1804.8 1.55794 -3.43523 0
M  V30 18365 H 1807.19 1.64863 -2.44754 0
M  V30 18366 H 1807.27 -0.115641 -2.55538 0
M  V30 18367 H 1806.91 0.0445788 -5.0788 0
M  V30 18368 H 1806.84 1.81943 -4.9417 0
M  V30 18369 H 1809.33 0.919469 -3.66544 0
M  V30 18370 H 1809.65 1.26764 -7.62332 0
M  V30 18371 H 1807.99 1.14688 -6.85472 0
M  V30 18372 H 1811.18 1.05703 -4.56009 0
M  V30 18373 H 1811.35 1.21602 -6.36488 0
M  V30 18374 N 1804.76 1.49212 0.507292 0
M  V30 18375 C 1806.18 1.35835 0.837908 0
M  V30 18376 C 1806.38 0.386634 1.97756 0
M  V30 18377 O 1805.43 -0.183971 2.51829 0
M  V30 18378 C 1806.75 2.76407 1.18404 0
M  V30 18379 C 1808.29 2.85062 1.29262 0
M  V30 18380 C 1808.77 4.26387 1.67208 0
M  V30 18381 N 1810.26 4.29168 1.74268 0
M  V30 18382 C 1810.99 5.35479 2.05061 0
M  V30 18383 N 1810.49 6.52042 2.34121 0
M  V30 18384 N 1812.28 5.2289 2.06259 0
M  V30 18385 H 1804.43 2.1099 -0.244311 0
M  V30 18386 H 1806.7 0.946849 -0.0466977 0
M  V30 18387 H 1806.4 3.49183 0.420053 0
M  V30 18388 H 1806.28 3.11376 2.12896 0
M  V30 18389 H 1808.66 2.12528 2.04734 0
M  V30 18390 H 1808.75 2.53684 0.328359 0
M  V30 18391 H 1808.39 4.99445 0.922884 0
M  V30 18392 H 1808.32 4.55225 2.64723 0
M  V30 18393 H 1810.81 3.45099 1.53996 0
M  V30 18394 H 1811.12 7.2889 2.56787 0
M  V30 18395 H 1809.47 6.55279 2.31591 0
M  V30 18396 H 1812.66 4.30834 1.83028 0
M  V30 18397 H 1812.83 6.05838 2.29923 0
M  V30 18398 N 1806.24 -0.757876 1.38181 0
M  V30 18399 C 1807.65 -1.06035 1.19284 0
M  V30 18400 C 1807.85 -2.01463 0.0385482 0
M  V30 18401 O 1806.91 -2.44845 -0.61703 0
M  V30 18402 C 1808.22 -1.64455 2.51744 0
M  V30 18403 C 1809.77 -1.76646 2.58389 0
M  V30 18404 C 1810.25 -2.38478 3.91014 0
M  V30 18405 N 1811.74 -2.45914 3.92531 0
M  V30 18406 C 1812.47 -2.94641 4.91909 0
M  V30 18407 N 1811.97 -3.43435 6.01684 0
M  V30 18408 N 1813.76 -2.93642 4.79303 0
M  V30 18409 H 1805.91 -0.124532 2.12035 0
M  V30 18410 H 1808.18 -0.117876 0.940643 0
M  V30 18411 H 1807.88 -1.01804 3.36644 0
M  V30 18412 H 1807.76 -2.63573 2.69832 0
M  V30 18413 H 1810.14 -2.38426 1.73888 0
M  V30 18414 H 1810.22 -0.762449 2.44173 0
M  V30 18415 H 1809.87 -1.77334 4.75936 0
M  V30 18416 H 1809.8 -3.39513 4.0254 0
M  V30 18417 H 1812.29 -2.11398 3.1324 0
M  V30 18418 H 1812.6 -3.79059 6.73449 0
M  V30 18419 H 1810.95 -3.41504 6.0531 0
M  V30 18420 H 1814.14 -2.5483 3.92657 0
M  V30 18421 H 1814.31 -3.31304 5.56903 0
M  V30 18422 N 1807.72 -1.22979 -0.985586 0
M  V30 18423 C 1808.68 -1.00763 -2.05862 0
M  V30 18424 C 1809.68 0.02864 -1.60774 0
M  V30 18425 O 1810.87 -0.210593 -1.72922 0
M  V30 18426 C 1808 -0.523547 -3.36856 0
M  V30 18427 H 1809.19 -1.95982 -2.27004 0
M  V30 18428 H 1806.75 -1.0495 -1.15824 0
M  V30 18429 H 1807.48 0.432658 -3.21401 0
M  V30 18430 H 1807.27 -1.27127 -3.70919 0
M  V30 18431 H 1808.76 -0.388591 -4.15788 0
M  V30 18432 N 1809.19 1.18355 -1.04066 0
M  V30 18433 C 1810.61 1.40349 -0.759898 0
M  V30 18434 C 1810.81 1.90709 0.650574 0
M  V30 18435 O 1809.87 2.09142 1.41477 0
M  V30 18436 C 1811.18 2.40426 -1.80599 0
M  V30 18437 C 1812.73 2.54153 -1.8269 0
M  V30 18438 C 1813.2 3.57494 -2.8629 0
M  V30 18439 N 1814.69 3.65001 -2.85181 0
M  V30 18440 C 1815.43 4.44688 -3.61995 0
M  V30 18441 N 1814.92 5.27984 -4.48559 0
M  V30 18442 N 1816.72 4.39451 -3.50484 0
M  V30 18443 H 1808.87 0.839924 -1.95087 0
M  V30 18444 H 1811.13 0.431492 -0.844108 0
M  V30 18445 H 1810.84 2.10471 -2.81771 0
M  V30 18446 H 1810.71 3.39773 -1.63812 0
M  V30 18447 H 1813.1 2.83424 -0.821889 0
M  V30 18448 H 1813.18 1.54919 -2.03553 0
M  V30 18449 H 1812.82 3.28963 -3.8697 0
M  V30 18450 H 1812.75 4.56405 -2.62682 0
M  V30 18451 H 1815.24 3.05522 -2.22407 0
M  V30 18452 H 1815.56 5.85939 -5.0388 0
M  V30 18453 H 1813.9 5.27404 -4.52626 0
M  V30 18454 H 1817.09 3.73426 -2.8226 0
M  V30 18455 H 1817.27 5.01313 -4.10596 0
M  V30 18456 N 1810.67 0.820125 1.3458 0
M  V30 18457 C 1811.91 0.41269 2.0019 0
M  V30 18458 C 1812.28 -1.0047 1.63614 0
M  V30 18459 O 1813.48 -1.51487 2.22047 0
M  V30 18460 C 1811.75 0.605717 3.5223 0
M  V30 18461 S 1813.31 0.290715 4.37836 0
M  V30 18462 H 1810.13 0.156064 0.693661 0
M  V30 18463 H 1812.73 1.06533 1.63924 0
M  V30 18464 H 1811.43 1.63702 3.76337 0
M  V30 18465 H 1810.96 -0.0617582 3.93352 0
M  V30 18466 H 1812.98 -0.896639 4.88032 0
M  V30 18467 N 1812.15 -1.46743 0.574835 0
M  V30 18468 C 1813.4 -2.02019 0.057302 0
M  V30 18469 C 1813.72 -1.44965 -1.30423 0
M  V30 18470 O 1812.99 -0.631377 -1.85447 0
M  V30 18471 H 1811.57 -0.746778 0.018193 0
M  V30 18472 H 1814.23 -1.7994 0.748834 0
M  V30 18473 H 1813.33 -3.12095 -0.0176114 0
M  V30 18474 N 1813.63 -0.312197 -1.54477 0
M  V30 18475 C 1814.87 0.294506 -2.02267 0
M  V30 18476 C 1815.23 1.5023 -1.19562 0
M  V30 18477 O 1816.43 2.18111 -1.57102 0
M  V30 18478 C 1814.7 0.631364 -3.51779 0
M  V30 18479 S 1816.26 1.21934 -4.21518 0
M  V30 18480 H 1813.08 0.0897629 -0.705311 0
M  V30 18481 H 1815.68 -0.442675 -1.90422 0
M  V30 18482 H 1814.39 -0.255978 -4.09601 0
M  V30 18483 H 1813.92 1.39904 -3.67682 0
M  V30 18484 H 1815.93 2.50669 -4.28229 0
M  V30 18485 N 1815.11 1.57549 -0.040136 0
M  V30 18486 C 1816.52 1.79959 0.497142 0
M  V30 18487 C 1816.87 0.951403 1.71589 0
M  V30 18488 O 1815.99 0.16488 2.15771 0
M  V30 18489 C 1816.59 3.26387 0.908682 0
M  V30 18490 C 1815.15 3.49754 1.39101 0
M  V30 18491 C 1814.29 2.74941 0.360933 0
M  V30 18492 H 1817.25 1.56453 -0.266099 0
M  V30 18493 H 1817.27 3.36702 1.77234 0
M  V30 18494 H 1816.78 3.88094 0.0214628 0
M  V30 18495 H 1814.88 2.93313 2.29778 0
M  V30 18496 H 1814.99 4.58469 1.39078 0
M  V30 18497 H 1813.36 2.40747 0.831432 0
M  V30 18498 H 1814.14 3.39369 -0.51801 0
M  V30 18499 N 1816.58 -0.233136 1.55866 0
M  V30 18500 C 1818 -0.582304 1.48598 0
M  V30 18501 C 1818.2 -1.87694 0.733016 0
M  V30 18502 O 1817.26 -2.51074 0.267959 0
M  V30 18503 C 1818.57 -0.67227 2.93089 0
M  V30 18504 C 1820.12 -0.763676 3.03541 0
M  V30 18505 C 1820.59 -0.885087 4.49366 0
M  V30 18506 N 1822.08 -0.949606 4.53362 0
M  V30 18507 C 1822.82 -1.06306 5.6346 0
M  V30 18508 N 1822.31 -1.14118 6.83337 0
M  V30 18509 N 1824.11 -1.09729 5.51286 0
M  V30 18510 H 1816.26 0.616568 2.03254 0
M  V30 18511 H 1818.52 0.214762 0.923353 0
M  V30 18512 H 1818.23 0.20923 3.51077 0
M  V30 18513 H 1818.1 -1.5397 3.44344 0
M  V30 18514 H 1820.49 -1.63562 2.45625 0
M  V30 18515 H 1820.57 0.129191 2.55474 0
M  V30 18516 H 1820.21 -0.017644 5.07897 0
M  V30 18517 H 1820.14 -1.7932 4.95128 0
M  V30 18518 H 1822.63 -0.900018 3.67026 0
M  V30 18519 H 1822.95 -1.2272 7.62994 0
M  V30 18520 H 1821.29 -1.11051 6.8607 0
M  V30 18521 H 1824.48 -1.03283 4.56563 0
M  V30 18522 H 1824.66 -1.18225 6.37124 0
M  V30 18523 N 1818.06 -1.49479 -0.499372 0
M  V30 18524 C 1819.29 -1.63025 -1.28209 0
M  V30 18525 C 1819.71 -0.302238 -1.85656 0
M  V30 18526 O 1819.07 0.730355 -1.65938 0
M  V30 18527 C 1819.12 -2.70287 -2.38699 0
M  V30 18528 O 1818.22 -2.29573 -3.42593 0
M  V30 18529 H 1817.56 -0.545605 -0.378432 0
M  V30 18530 H 1820.09 -1.95677 -0.597628 0
M  V30 18531 H 1820.1 -2.92505 -2.84438 0
M  V30 18532 H 1818.78 -3.66684 -1.96253 0
M  V30 18533 H 1817.36 -2.17692 -3.02761 0
M  V30 18534 N 1819.54 0.750537 -1.38581 0
M  V30 18535 C 1820.49 1.85507 -1.32557 0
M  V30 18536 C 1821.48 1.59533 -0.209275 0
M  V30 18537 O 1822.67 1.71302 -0.445507 0
M  V30 18538 C 1819.8 3.23253 -1.15597 0
M  V30 18539 C 1818.88 3.55107 -2.31862 0
M  V30 18540 N 1819.27 3.57999 -3.5731 0
M  V30 18541 C 1817.57 3.85389 -2.2448 0
M  V30 18542 C 1818.27 3.87207 -4.34103 0
M  V30 18543 N 1817.25 4.04193 -3.63496 0
M  V30 18544 H 1821.05 1.86025 -2.27535 0
M  V30 18545 H 1818.56 0.948038 -1.31856 0
M  V30 18546 H 1820.56 4.023 -1.09365 0
M  V30 18547 H 1819.22 3.23984 -0.215556 0
M  V30 18548 H 1820.23 3.39686 -3.9094 0
M  V30 18549 H 1816.91 3.93817 -1.38615 0
M  V30 18550 H 1818.3 3.96042 -5.42771 0
M  V30 18551 N 1821.02 1.235 0.979051 0
M  V30 18552 C 1822.43 1.06263 1.53509 0
M  V30 18553 C 1822.78 -0.369594 1.92687 0
M  V30 18554 O 1821.91 -1.25649 1.76185 0
M  V30 18555 C 1822.5 1.92276 2.78954 0
M  V30 18556 C 1821.06 1.79296 3.30953 0
M  V30 18557 C 1820.21 1.87898 2.03935 0
M  V30 18558 H 1823.16 1.37143 0.798588 0
M  V30 18559 H 1823.18 1.44835 3.51857 0
M  V30 18560 H 1822.69 2.96509 2.50408 0
M  V30 18561 H 1820.79 0.778512 3.64376 0
M  V30 18562 H 1820.91 2.62755 4.0062 0
M  V30 18563 H 1819.27 1.31494 2.18131 0
M  V30 18564 H 1820.05 2.93689 1.77769 0
M  V30 18565 N 1822.5 -1.17802 1.04693 0
M  V30 18566 C 1823.45 -2.19584 0.613744 0
M  V30 18567 C 1824.43 -1.57111 -0.34713 0
M  V30 18568 O 1825.62 -1.76228 -0.16517 0
M  V30 18569 C 1822.75 -3.43297 -0.0152847 0
M  V30 18570 C 1821.84 -4.12879 0.969114 0
M  V30 18571 N 1822.23 -4.58364 2.13859 0
M  V30 18572 C 1820.53 -4.3883 0.796487 0
M  V30 18573 C 1821.23 -5.12003 2.76094 0
M  V30 18574 N 1820.2 -5.039 2.03926 0
M  V30 18575 H 1824.01 -2.5245 1.50486 0
M  V30 18576 H 1821.52 -1.34076 0.916373 0
M  V30 18577 H 1823.52 -4.15484 -0.343354 0
M  V30 18578 H 1822.18 -3.11924 -0.901858 0
M  V30 18579 H 1823.19 -4.52613 2.51718 0
M  V30 18580 H 1819.87 -4.17481 -0.0394627 0
M  V30 18581 H 1821.26 -5.57355 3.7524 0
M  V30 18582 N 1823.98 -0.827251 -1.34143 0
M  V30 18583 C 1825.39 -0.513554 -1.51112 0
M  V30 18584 C 1825.59 0.961434 -1.77084 0
M  V30 18585 O 1824.65 1.74573 -1.82429 0
M  V30 18586 C 1825.96 -1.37683 -2.67327 0
M  V30 18587 C 1827.51 -1.3744 -2.8121 0
M  V30 18588 C 1827.98 -2.22226 -4.00474 0
M  V30 18589 N 1829.47 -2.19873 -4.07689 0
M  V30 18590 C 1830.21 -2.82222 -4.99138 0
M  V30 18591 N 1829.71 -3.53578 -5.95781 0
M  V30 18592 N 1831.5 -2.71753 -4.92043 0
M  V30 18593 H 1823.65 -1.78222 -1.15545 0
M  V30 18594 H 1825.91 -0.759711 -0.567047 0
M  V30 18595 H 1825.62 -2.42448 -2.54778 0
M  V30 18596 H 1825.49 -1.0446 -3.62447 0
M  V30 18597 H 1827.88 -0.334525 -2.93198 0
M  V30 18598 H 1827.96 -1.74663 -1.86886 0
M  V30 18599 H 1827.6 -3.26266 -3.89246 0
M  V30 18600 H 1827.53 -1.82352 -4.9402 0
M  V30 18601 H 1830.03 -1.67972 -3.38517 0
M  V30 18602 H 1830.34 -3.98387 -6.62199 0
M  V30 18603 H 1828.68 -3.57685 -5.95892 0
M  V30 18604 H 1831.87 -2.15579 -4.15504 0
M  V30 18605 H 1832.05 -3.2063 -5.63117 0
M  V30 18606 N 1825.45 1.46436 -0.582609 0
M  V30 18607 C 1826.86 1.86047 -0.156012 0
M  V30 18608 C 1827.22 1.48619 1.28089 0
M  V30 18609 O 1826.34 0.90104 1.96749 0
M  V30 18610 C 1826.94 3.37671 -0.276358 0
M  V30 18611 C 1825.49 3.76279 0.0953682 0
M  V30 18612 C 1824.64 2.70454 -0.612348 0
M  V30 18613 H 1827.59 1.37592 -0.790834 0
M  V30 18614 H 1827.61 3.77223 0.498312 0
M  V30 18615 H 1827.13 3.64881 -1.32225 0
M  V30 18616 H 1825.23 3.54687 1.1414 0
M  V30 18617 H 1825.34 4.78276 -0.280881 0
M  V30 18618 H 1823.7 2.54646 -0.0526182 0
M  V30 18619 H 1824.49 3.00504 -1.65989 0
M  V30 18620 N 1826.93 0.320385 1.54309 0
M  V30 18621 C 1828.35 -0.0323699 1.59567 0
M  V30 18622 C 1828.55 -1.50754 1.33699 0
M  V30 18623 O 1827.6 -2.26308 1.11987 0
M  V30 18624 C 1828.92 0.383001 2.98251 0
M  V30 18625 C 1830.46 0.33339 3.11219 0
M  V30 18626 C 1830.94 0.723874 4.52243 0
M  V30 18627 N 1832.43 0.677156 4.58224 0
M  V30 18628 C 1833.17 0.951531 5.6545 0
M  V30 18629 N 1832.66 1.29288 6.8063 0
M  V30 18630 N 1834.45 0.877303 5.55211 0
M  V30 18631 H 1826.61 1.28155 1.69381 0
M  V30 18632 H 1828.87 0.520887 0.792074 0
M  V30 18633 H 1828.57 1.41067 3.22169 0
M  V30 18634 H 1828.45 -0.253601 3.76347 0
M  V30 18635 H 1830.84 -0.685063 2.87038 0
M  V30 18636 H 1830.92 1.00488 2.35236 0
M  V30 18637 H 1830.56 1.74023 4.77157 0
M  V30 18638 H 1830.49 0.0301039 5.26591 0
M  V30 18639 H 1832.98 0.425055 3.75502 0
M  V30 18640 H 1833.29 1.4877 7.58345 0
M  V30 18641 H 1831.64 1.33111 6.82134 0
M  V30 18642 H 1834.83 0.610144 4.64107 0
M  V30 18643 H 1835 1.09449 6.3869 0
M  V30 18644 N 1828.41 -1.57525 0.0484906 0
M  V30 18645 C 1829.37 -2.10275 -0.911987 0
M  V30 18646 C 1830.37 -1.02178 -1.24163 0
M  V30 18647 O 1831.56 -1.28262 -1.17875 0
M  V30 18648 C 1828.69 -2.58475 -2.22269 0
M  V30 18649 H 1829.89 -2.96432 -0.454768 0
M  V30 18650 H 1827.44 -1.55017 -0.19987 0
M  V30 18651 H 1828.18 -1.75704 -2.72578 0
M  V30 18652 H 1827.96 -3.37466 -1.99648 0
M  V30 18653 H 1829.45 -2.99443 -2.91074 0
M  V30 18654 N 1829.89 0.224867 -1.55988 0
M  V30 18655 C 1831.11 0.970897 -1.83271 0
M  V30 18656 C 1831.54 1.77293 -0.628399 0
M  V30 18657 O 1830.9 1.76301 0.422804 0
M  V30 18658 C 1830.94 1.86686 -3.08514 0
M  V30 18659 O 1830.05 2.96174 -2.86975 0
M  V30 18660 H 1829.39 0.275093 -0.604334 0
M  V30 18661 H 1831.92 0.239183 -2.03197 0
M  V30 18662 H 1831.93 2.27731 -3.3853 0
M  V30 18663 H 1830.6 1.27733 -3.95799 0
M  V30 18664 H 1829.18 2.59099 -2.68183 0
M  V30 18665 N 1831.37 1.49742 0.491438 0
M  V30 18666 C 1832.32 1.63507 1.58901 0
M  V30 18667 C 1833.3 0.490352 1.53246 0
M  V30 18668 O 1834.49 0.74378 1.60614 0
M  V30 18669 C 1831.62 1.71377 2.97464 0
M  V30 18670 C 1830.71 2.91458 3.08079 0
M  V30 18671 N 1831.1 4.15412 2.88559 0
M  V30 18672 C 1829.4 2.89594 3.39192 0
M  V30 18673 C 1830.1 4.96183 3.03608 0
M  V30 18674 N 1829.07 4.29735 3.3291 0
M  V30 18675 H 1832.87 2.57055 1.42478 0
M  V30 18676 H 1830.39 1.46646 0.697765 0
M  V30 18677 H 1832.39 1.79338 3.76355 0
M  V30 18678 H 1831.05 0.789729 3.1495 0
M  V30 18679 H 1832.06 4.45239 2.64543 0
M  V30 18680 H 1828.73 2.06607 3.62794 0
M  V30 18681 H 1830.12 6.04684 2.92927 0
M  V30 18682 N 1832.84 -0.743177 1.38977 0
M  V30 18683 C 1834.26 -1.04764 1.20402 0
M  V30 18684 C 1834.46 -2.01411 0.0599139 0
M  V30 18685 O 1833.52 -2.45485 -0.591026 0
M  V30 18686 C 1834.83 -1.61775 2.53474 0
M  V30 18687 C 1836.38 -1.73896 2.60248 0
M  V30 18688 C 1836.85 -2.34318 3.93522 0
M  V30 18689 N 1838.34 -2.41737 3.95117 0
M  V30 18690 C 1839.08 -2.89407 4.95006 0
M  V30 18691 N 1838.57 -3.37034 6.05293 0
M  V30 18692 N 1840.37 -2.88542 4.8239 0
M  V30 18693 H 1832.52 -0.102036 2.12155 0
M  V30 18694 H 1834.78 -0.107893 0.94184 0
M  V30 18695 H 1834.49 -0.982274 3.37704 0
M  V30 18696 H 1834.36 -2.60696 2.72612 0
M  V30 18697 H 1836.75 -2.36568 1.76407 0
M  V30 18698 H 1836.83 -0.736509 2.44968 0
M  V30 18699 H 1836.47 -1.72276 4.7779 0
M  V30 18700 H 1836.4 -3.35224 4.06119 0
M  V30 18701 H 1838.89 -2.08064 3.15464 0
M  V30 18702 H 1839.21 -3.71895 6.77432 0
M  V30 18703 H 1837.55 -3.35064 6.08898 0
M  V30 18704 H 1840.74 -2.50651 3.95337 0
M  V30 18705 H 1840.92 -3.25379 5.60386 0
M  V30 18706 N 1834.32 -1.24018 -0.972487 0
M  V30 18707 C 1835.55 -1.10392 -1.74989 0
M  V30 18708 C 1835.97 0.34396 -1.8564 0
M  V30 18709 O 1835.32 1.23757 -1.34128 0
M  V30 18710 C 1835.37 -1.73247 -3.17282 0
M  V30 18711 O 1835.09 -3.12374 -3.07171 0
M  V30 18712 C 1836.6 -1.65168 -4.11381 0
M  V30 18713 H 1833.82 -0.38593 -0.548907 0
M  V30 18714 H 1836.36 -1.64028 -1.22127 0
M  V30 18715 H 1834.51 -1.23625 -3.67145 0
M  V30 18716 H 1834.93 -3.42997 -3.96804 0
M  V30 18717 H 1836.4 -2.13837 -5.08898 0
M  V30 18718 H 1836.88 -0.61198 -4.34915 0
M  V30 18719 H 1837.49 -2.14194 -3.67425 0
M  V30 18720 N 1835.8 1.17245 -1.05316 0
M  V30 18721 C 1837.21 1.69167 -0.789906 0
M  V30 18722 C 1837.56 1.83751 0.687762 0
M  V30 18723 O 1836.69 1.52596 1.53438 0
M  V30 18724 C 1837.28 3.07269 -1.42728 0
M  V30 18725 C 1835.84 3.56352 -1.21204 0
M  V30 18726 C 1834.99 2.3258 -1.51003 0
M  V30 18727 H 1837.94 1.01744 -1.21794 0
M  V30 18728 H 1837.96 3.71175 -0.837236 0
M  V30 18729 H 1837.47 2.96622 -2.50273 0
M  V30 18730 H 1835.57 3.72274 -0.155891 0
M  V30 18731 H 1835.69 4.39038 -1.91787 0
M  V30 18732 H 1834.05 2.37107 -0.930172 0
M  V30 18733 H 1834.83 2.2454 -2.59685 0
M  V30 18734 N 1837.28 0.834353 1.33702 0
M  V30 18735 C 1838.24 0.269618 2.27609 0
M  V30 18736 C 1839.24 -0.559065 1.50768 0
M  V30 18737 O 1840.43 -0.373511 1.70149 0
M  V30 18738 C 1837.56 -0.620682 3.35202 0
M  V30 18739 H 1838.76 1.09819 2.79069 0
M  V30 18740 H 1836.31 0.607087 1.44028 0
M  V30 18741 H 1837.04 -1.47187 2.88975 0
M  V30 18742 H 1836.83 -0.0278102 3.9209 0
M  V30 18743 H 1838.32 -1.00924 4.05221 0
M  V30 18744 N 1838.76 -1.46125 0.590367 0
M  V30 18745 C 1839.72 -2.2884 -0.128368 0
M  V30 18746 C 1840.72 -1.38818 -0.81156 0
M  V30 18747 O 1841.91 -1.61117 -0.662347 0
M  V30 18748 C 1839.04 -3.19402 -1.19144 0
M  V30 18749 H 1840.23 -2.93864 0.598641 0
M  V30 18750 H 1837.79 -1.52362 0.34866 0
M  V30 18751 H 1838.52 -2.59141 -1.94978 0
M  V30 18752 H 1838.31 -3.85692 -0.705973 0
M  V30 18753 H 1839.8 -3.8164 -1.69532 0
M  V30 18754 N 1840.23 -0.328564 -1.54137 0
M  V30 18755 C 1841.2 0.52248 -2.23165 0
M  V30 18756 C 1842.2 1.03956 -1.22677 0
M  V30 18757 O 1843.39 0.931193 -1.47222 0
M  V30 18758 C 1840.52 1.72624 -2.93962 0
M  V30 18759 H 1841.71 -0.081023 -2.99791 0
M  V30 18760 H 1839.27 -0.0797096 -1.56097 0
M  V30 18761 H 1840 2.36885 -2.21486 0
M  V30 18762 H 1839.79 1.36283 -3.67654 0
M  V30 18763 H 1841.28 2.33023 -3.4654 0
M  V30 18764 N 1841.71 1.57497 -0.0568439 0
M  V30 18765 C 1842.68 2.10755 0.900823 0
M  V30 18766 C 1843.68 1.02835 1.23619 0
M  V30 18767 O 1844.87 1.28885 1.17194 0
M  V30 18768 C 1842 2.5965 2.20895 0
M  V30 18769 H 1843.19 2.96669 0.439041 0
M  V30 18770 H 1840.74 1.55121 0.191646 0
M  V30 18771 H 1841.48 1.77147 2.71642 0
M  V30 18772 H 1841.26 3.3852 1.97855 0
M  V30 18773 H 1842.75 3.00982 2.89482 0
M  V30 18774 N 1843.19 -0.216591 1.56105 0
M  V30 18775 C 1844.6 -0.783161 1.6948 0
M  V30 18776 C 1844.95 -1.84776 0.659716 0
M  V30 18777 O 1844.08 -2.1558 -0.188184 0
M  V30 18778 C 1844.67 -1.42733 3.07267 0
M  V30 18779 C 1843.23 -1.94123 3.2248 0
M  V30 18780 C 1842.38 -0.803216 2.65412 0
M  V30 18781 H 1845.33 0.00814542 1.58698 0
M  V30 18782 H 1845.35 -2.29627 3.034 0
M  V30 18783 H 1844.86 -0.652264 3.8258 0
M  V30 18784 H 1842.96 -2.74416 2.52045 0
M  V30 18785 H 1843.08 -2.1178 4.29751 0
M  V30 18786 H 1841.44 -1.21185 2.24023 0
M  V30 18787 H 1842.22 -0.0407398 3.43276 0
M  V30 18788 N 1844.67 -1.5 -0.48349 0
M  V30 18789 C 1845.62 -1.64347 -1.58032 0
M  V30 18790 C 1846.6 -0.498472 -1.52984 0
M  V30 18791 O 1847.79 -0.752287 -1.60217 0
M  V30 18792 C 1844.92 -1.72952 -2.96551 0
M  V30 18793 C 1844.01 -2.93088 -3.06529 0
M  V30 18794 N 1844.4 -4.16937 -2.86352 0
M  V30 18795 C 1842.7 -2.91389 -3.37652 0
M  V30 18796 C 1843.4 -4.97786 -3.00972 0
M  V30 18797 N 1842.38 -4.31494 -3.30626 0
M  V30 18798 H 1846.18 -2.57807 -1.41112 0
M  V30 18799 H 1843.69 -1.47014 -0.689978 0
M  V30 18800 H 1845.69 -1.81332 -3.75399 0
M  V30 18801 H 1844.35 -0.80642 -3.14527 0
M  V30 18802 H 1845.36 -4.46635 -2.62178 0
M  V30 18803 H 1842.04 -2.08528 -3.61694 0
M  V30 18804 H 1843.43 -6.06229 -2.89716 0
M  V30 18805 N 1846.15 0.735796 -1.39369 0
M  V30 18806 C 1847.1 1.8409 -1.34517 0
M  V30 18807 C 1848.08 1.59302 -0.226184 0
M  V30 18808 O 1849.27 1.70819 -0.46365 0
M  V30 18809 C 1846.4 3.22008 -1.19019 0
M  V30 18810 C 1845.49 3.52628 -2.35615 0
M  V30 18811 N 1845.88 3.54189 -3.61087 0
M  V30 18812 C 1844.18 3.82986 -2.28555 0
M  V30 18813 C 1844.88 3.82581 -4.38185 0
M  V30 18814 N 1843.85 4.00315 -3.67762 0
M  V30 18815 H 1847.66 1.83601 -2.29495 0
M  V30 18816 H 1845.17 0.934 -1.32854 0
M  V30 18817 H 1847.17 4.01117 -1.13626 0
M  V30 18818 H 1845.83 3.23737 -0.249907 0
M  V30 18819 H 1846.84 3.3552 -3.94521 0
M  V30 18820 H 1843.51 3.92325 -1.42784 0
M  V30 18821 H 1844.9 3.90263 -5.46941 0
M  V30 18822 N 1847.63 1.24532 0.965897 0
M  V30 18823 C 1848.58 1.00627 2.04593 0
M  V30 18824 C 1849.56 -0.0529299 1.60813 0
M  V30 18825 O 1850.75 0.16102 1.76266 0
M  V30 18826 C 1847.88 0.614939 3.37748 0
M  V30 18827 C 1846.97 1.71031 3.88084 0
M  V30 18828 N 1847.36 2.94339 4.11337 0
M  V30 18829 C 1845.66 1.58823 4.16763 0
M  V30 18830 C 1846.36 3.65361 4.52644 0
M  V30 18831 N 1845.33 2.92931 4.57922 0
M  V30 18832 H 1849.13 1.94256 2.20549 0
M  V30 18833 H 1846.65 1.14685 1.14983 0
M  V30 18834 H 1848.65 0.424907 4.14729 0
M  V30 18835 H 1847.31 -0.314149 3.23177 0
M  V30 18836 H 1848.32 3.305 3.98736 0
M  V30 18837 H 1844.99 0.727304 4.11116 0
M  V30 18838 H 1846.38 4.71145 4.79032 0
M  V30 18839 N 1849.1 -1.16685 1.05936 0
M  V30 18840 C 1850.52 -1.39122 0.78213 0
M  V30 18841 C 1850.72 -1.9172 -0.620152 0
M  V30 18842 O 1849.78 -2.11366 -1.38132 0
M  V30 18843 C 1851.09 -2.37522 1.84401 0
M  V30 18844 C 1852.64 -2.51214 1.8671 0
M  V30 18845 C 1853.11 -3.52894 2.91942 0
M  V30 18846 N 1854.6 -3.60418 2.90952 0
M  V30 18847 C 1855.34 -4.38873 3.69023 0
M  V30 18848 N 1854.83 -5.20781 4.56902 0
M  V30 18849 N 1856.63 -4.3382 3.57431 0
M  V30 18850 H 1848.78 -0.808781 1.96399 0
M  V30 18851 H 1851.04 -0.418008 0.850866 0
M  V30 18852 H 1850.75 -2.05962 2.85084 0
M  V30 18853 H 1850.62 -3.37123 1.69197 0
M  V30 18854 H 1853.01 -2.8208 0.866875 0
M  V30 18855 H 1853.09 -1.51661 2.05992 0
M  V30 18856 H 1852.73 -3.22765 3.92155 0
M  V30 18857 H 1852.66 -4.52168 2.6991 0
M  V30 18858 H 1855.15 -3.01945 2.27239 0
M  V30 18859 H 1855.47 -5.77848 5.13138 0
M  V30 18860 H 1853.81 -5.20136 4.60959 0
M  V30 18861 H 1857 -3.68888 2.88165 0
M  V30 18862 H 1857.18 -4.94717 4.1852 0
M  V30 18863 N 1850.58 -0.841432 -1.33258 0
M  V30 18864 C 1851.53 -0.248505 -2.26642 0
M  V30 18865 C 1852.52 0.59799 -1.49375 0
M  V30 18866 O 1853.71 0.449539 -1.71196 0
M  V30 18867 C 1850.84 0.573322 -3.38479 0
M  V30 18868 C 1849.92 -0.284825 -4.23142 0
M  V30 18869 N 1850.31 -1.36477 -4.8704 0
M  V30 18870 C 1848.61 -0.072296 -4.45941 0
M  V30 18871 C 1849.31 -1.89162 -5.50084 0
M  V30 18872 N 1848.29 -1.19272 -5.30354 0
M  V30 18873 H 1852.09 -1.07432 -2.73561 0
M  V30 18874 H 1849.6 -0.686153 -1.47193 0
M  V30 18875 H 1851.6 1.01441 -4.0437 0
M  V30 18876 H 1850.26 1.39708 -2.93107 0
M  V30 18877 H 1851.27 -1.74767 -4.87521 0
M  V30 18878 H 1847.95 0.717812 -4.11283 0
M  V30 18879 H 1849.34 -2.79613 -6.10955 0
M  V30 18880 N 1852.06 1.4581 -0.598108 0
M  V30 18881 C 1853.48 1.57452 -0.260993 0
M  V30 18882 C 1853.68 1.59093 1.2366 0
M  V30 18883 O 1852.73 1.51614 2.01915 0
M  V30 18884 C 1854.04 2.86158 -0.923801 0
M  V30 18885 C 1855.59 2.99817 -0.89883 0
M  V30 18886 C 1856.07 4.3128 -1.54147 0
M  V30 18887 N 1857.56 4.38016 -1.50652 0
M  V30 18888 C 1858.29 5.38387 -1.973 0
M  V30 18889 N 1857.79 6.45347 -2.51991 0
M  V30 18890 N 1859.58 5.29684 -1.88124 0
M  V30 18891 H 1851.73 1.42988 -1.57061 0
M  V30 18892 H 1854 0.683038 -0.657391 0
M  V30 18893 H 1853.7 2.90812 -1.97791 0
M  V30 18894 H 1853.58 3.74609 -0.441318 0
M  V30 18895 H 1855.96 2.94735 0.146702 0
M  V30 18896 H 1856.04 2.12801 -1.41949 0
M  V30 18897 H 1855.69 4.3712 -2.58628 0
M  V30 18898 H 1855.62 5.17097 -0.995911 0
M  V30 18899 H 1858.11 3.61326 -1.1069 0
M  V30 18900 H 1858.42 7.18168 -2.85403 0
M  V30 18901 H 1856.77 6.46124 -2.56025 0
M  V30 18902 H 1859.96 4.45029 -1.45144 0
M  V30 18903 H 1860.13 6.0776 -2.24793 0
M  V30 18904 N 1853.54 0.336733 1.53961 0
M  V30 18905 C 1854.95 -0.0154439 1.59593 0
M  V30 18906 C 1855.15 -1.49328 1.35291 0
M  V30 18907 O 1854.21 -2.25107 1.14381 0
M  V30 18908 C 1855.52 0.414613 2.97828 0
M  V30 18909 C 1857.07 0.36638 3.10848 0
M  V30 18910 C 1857.55 0.7718 4.5145 0
M  V30 18911 N 1859.04 0.725719 4.5748 0
M  V30 18912 C 1859.77 1.01145 5.64409 0
M  V30 18913 N 1859.27 1.36499 6.7922 0
M  V30 18914 N 1861.06 0.936141 5.5425 0
M  V30 18915 H 1853.21 1.29944 1.68012 0
M  V30 18916 H 1855.47 0.529259 0.786504 0
M  V30 18917 H 1855.18 1.44476 3.20655 0
M  V30 18918 H 1855.05 -0.21367 3.76594 0
M  V30 18919 H 1857.44 -0.65458 2.87749 0
M  V30 18920 H 1857.52 1.02978 2.34157 0
M  V30 18921 H 1857.17 1.79074 4.75284 0
M  V30 18922 H 1857.1 0.0859543 5.2653 0
M  V30 18923 H 1859.59 0.464858 3.7503 0
M  V30 18924 H 1859.9 1.56805 7.56725 0
M  V30 18925 H 1858.25 1.40338 6.80684 0
M  V30 18926 H 1861.44 0.659334 4.63433 0
M  V30 18927 H 1861.61 1.16217 6.37493 0
M  V30 18928 N 1855.02 -1.57465 0.0651956 0
M  V30 18929 C 1855.98 -2.1123 -0.889634 0
M  V30 18930 C 1856.98 -1.03489 -1.23072 0
M  V30 18931 O 1858.17 -1.29505 -1.16508 0
M  V30 18932 C 1855.3 -2.60818 -2.19515 0
M  V30 18933 H 1856.49 -2.96898 -0.423301 0
M  V30 18934 H 1854.05 -1.5522 -0.183417 0
M  V30 18935 H 1854.78 -1.78585 -2.70699 0
M  V30 18936 H 1854.57 -3.39564 -1.96057 0
M  V30 18937 H 1856.06 -3.02513 -2.87881 0
M  V30 18938 N 1856.49 0.20831 -1.56217 0
M  V30 18939 C 1857.46 1.24178 -1.92646 0
M  V30 18940 C 1858.46 1.39125 -0.806274 0
M  V30 18941 O 1859.65 1.37163 -1.07386 0
M  V30 18942 C 1856.78 2.61342 -2.18891 0
M  V30 18943 H 1857.97 0.930748 -2.85091 0
M  V30 18944 H 1855.52 0.449285 -1.49703 0
M  V30 18945 H 1856.26 2.97521 -1.29041 0
M  V30 18946 H 1856.04 2.51866 -3.00509 0
M  V30 18947 H 1857.53 3.35892 -2.48125 0
M  V30 18948 N 1857.97 1.50255 0.475528 0
M  V30 18949 C 1859.22 1.60704 1.22551 0
M  V30 18950 C 1859.54 0.307375 1.92562 0
M  V30 18951 O 1858.81 -0.674885 1.83908 0
M  V30 18952 H 1857.39 0.592176 0.455343 0
M  V30 18953 H 1860.05 1.8701 0.548926 0
M  V30 18954 H 1859.15 2.41596 1.9758 0
M  V30 18955 N 1859.45 -0.728395 1.39758 0
M  V30 18956 C 1860.7 -1.48514 1.37069 0
M  V30 18957 C 1861.02 -1.94976 -0.0305263 0
M  V30 18958 O 1860.29 -1.69453 -0.982987 0
M  V30 18959 H 1858.87 -0.550958 0.504434 0
M  V30 18960 H 1861.53 -0.864297 1.74688 0
M  V30 18961 H 1860.63 -2.36411 2.03755 0
M  V30 18962 N 1860.93 -1.25042 -0.959279 0
M  V30 18963 C 1862.17 -1.10684 -1.70647 0
M  V30 18964 C 1862.53 0.349371 -1.89201 0
M  V30 18965 O 1861.82 1.25413 -1.44852 0
M  V30 18966 C 1862.02 -1.78948 -3.09374 0
M  V30 18967 C 1861.84 -3.31058 -3.04353 0
M  V30 18968 C 1860.61 -4.00297 -3.08367 0
M  V30 18969 C 1862.81 -4.27526 -2.85878 0
M  V30 18970 N 1860.79 -5.3922 -2.93454 0
M  V30 18971 C 1862.17 -5.53502 -2.79349 0
M  V30 18972 C 1864.22 -4.17998 -2.70523 0
M  V30 18973 C 1862.92 -6.7104 -2.59033 0
M  V30 18974 C 1864.95 -5.35222 -2.51577 0
M  V30 18975 C 1864.31 -6.60136 -2.45764 0
M  V30 18976 H 1860.41 -0.4597 -0.632613 0
M  V30 18977 H 1862.99 -1.58077 -1.13665 0
M  V30 18978 H 1861.17 -1.34057 -3.64532 0
M  V30 18979 H 1862.9 -1.57374 -3.72848 0
M  V30 18980 H 1859.65 -3.51523 -3.17378 0
M  V30 18981 H 1860.08 -6.12114 -2.89215 0
M  V30 18982 H 1864.72 -3.22175 -2.73794 0
M  V30 18983 H 1862.44 -7.66977 -2.54504 0
M  V30 18984 H 1866.02 -5.29707 -2.40627 0
M  V30 18985 H 1864.9 -7.49315 -2.31294 0
M  V30 18986 N 1862.41 1.16121 -1.06553 0
M  V30 18987 C 1863.68 1.82752 -0.697202 0
M  V30 18988 C 1864.06 1.94474 0.821172 0
M  V30 18989 O 1863.41 1.48988 1.73248 0
M  V30 18990 C 1863.62 3.19592 -1.4022 0
M  V30 18991 C 1864.97 3.95333 -1.5491 0
M  V30 18992 O 1865.99 3.29119 -1.36232 0
M  V30 18993 O 1864.85 5.14028 -1.85574 0
M  V30 18994 H 1861.95 0.789214 -0.247125 0
M  V30 18995 H 1864.49 1.23302 -1.16597 0
M  V30 18996 H 1863.26 3.06111 -2.43745 0
M  V30 18997 H 1862.89 3.86722 -0.923686 0
M  V30 18998 N 1863.88 0.848487 1.3281 0
M  V30 18999 C 1864.81 0.303885 2.31514 0
M  V30 19000 C 1865.8 -0.593621 1.59406 0
M  V30 19001 O 1866.98 -0.515158 1.87243 0
M  V30 19002 C 1864.11 -0.5138 3.43478 0
M  V30 19003 C 1863.06 0.28874 4.27025 0
M  V30 19004 C 1862.39 -0.653297 5.30694 0
M  V30 19005 C 1863.69 1.51111 4.99963 0
M  V30 19006 H 1865.38 1.12862 2.77313 0
M  V30 19007 H 1862.93 0.544158 1.33323 0
M  V30 19008 H 1864.88 -0.905164 4.11564 0
M  V30 19009 H 1863.61 -1.37184 2.96392 0
M  V30 19010 H 1862.27 0.661782 3.60577 0
M  V30 19011 H 1861.91 -1.50801 4.79863 0
M  V30 19012 H 1861.61 -0.120368 5.87477 0
M  V30 19013 H 1863.14 -1.04197 6.01644 0
M  V30 19014 H 1864.55 1.19237 5.60763 0
M  V30 19015 H 1862.95 1.98152 5.66441 0
M  V30 19016 H 1864.02 2.2757 4.28182 0
M  V30 19017 N 1865.36 -1.4549 0.605832 0
M  V30 19018 C 1866.77 -1.85775 0.18559 0
M  V30 19019 C 1867.12 -1.50638 -1.25708 0
M  V30 19020 O 1866.25 -0.932227 -1.95291 0
M  V30 19021 C 1866.84 -3.37189 0.330043 0
M  V30 19022 C 1865.4 -3.76383 -0.0354934 0
M  V30 19023 C 1864.55 -2.69446 0.655297 0
M  V30 19024 H 1867.5 -1.36316 0.812624 0
M  V30 19025 H 1867.52 -3.77968 -0.438236 0
M  V30 19026 H 1867.03 -3.62731 1.38014 0
M  V30 19027 H 1865.14 -3.56458 -1.08483 0
M  V30 19028 H 1865.25 -4.77769 0.356935 0
M  V30 19029 H 1863.61 -2.5453 0.0931235 0
M  V30 19030 H 1864.4 -2.97825 1.70749 0
M  V30 19031 N 1866.84 -0.344893 -1.5378 0
M  V30 19032 C 1868.25 0.138727 -1.86184 0
M  V30 19033 C 1868.6 1.49882 -1.26609 0
M  V30 19034 O 1867.73 2.08478 -0.580174 0
M  V30 19035 C 1868.32 0.258502 -3.37812 0
M  V30 19036 C 1866.88 0.686356 -3.70089 0
M  V30 19037 C 1866.03 -0.179085 -2.76721 0
M  V30 19038 H 1868.98 -0.564442 -1.48323 0
M  V30 19039 H 1869 1.08576 -3.6468 0
M  V30 19040 H 1868.51 -0.731538 -3.81143 0
M  V30 19041 H 1866.61 1.68537 -3.32304 0
M  V30 19042 H 1866.73 0.475315 -4.76736 0
M  V30 19043 H 1865.09 0.348791 -2.523 0
M  V30 19044 H 1865.87 -1.16628 -3.22882 0
M  V30 19045 N 1868.32 1.57428 -0.0735454 0
M  V30 19046 C 1869.73 1.80973 0.458858 0
M  V30 19047 C 1870.08 0.987586 1.69532 0
M  V30 19048 O 1869.21 0.210611 2.15373 0
M  V30 19049 C 1869.8 3.28241 0.839246 0
M  V30 19050 C 1868.36 3.52626 1.3165 0
M  V30 19051 C 1867.51 2.75645 0.302533 0
M  V30 19052 H 1870.46 1.55854 -0.299225 0
M  V30 19053 H 1870.48 3.40386 1.70052 0
M  V30 19054 H 1869.99 3.88052 -0.0608625 0
M  V30 19055 H 1868.09 2.98121 2.23505 0
M  V30 19056 H 1868.2 4.61316 1.29322 0
M  V30 19057 H 1866.57 2.42457 0.780179 0
M  V30 19058 H 1867.35 3.38194 -0.589878 0
M  V30 19059 N 1869.8 -0.200022 1.56326 0
M  V30 19060 C 1870.76 -1.23155 1.93302 0
M  V30 19061 C 1871.76 -1.38696 0.81364 0
M  V30 19062 O 1872.95 -1.36592 1.08112 0
M  V30 19063 C 1870.08 -2.60177 2.20274 0
M  V30 19064 H 1871.27 -0.915616 2.85581 0
M  V30 19065 H 1868.83 -0.44134 1.4994 0
M  V30 19066 H 1869.56 -2.96833 1.30617 0
M  V30 19067 H 1869.35 -2.50269 3.01841 0
M  V30 19068 H 1870.84 -3.34572 2.49903 0
M  V30 19069 N 1871.27 -1.50505 -0.467553 0
M  V30 19070 C 1872.69 -1.54489 -1.04833 0
M  V30 19071 C 1873.04 -0.350468 -1.93044 0
M  V30 19072 O 1872.16 0.536238 -2.09651 0
M  V30 19073 C 1872.76 -2.79967 -1.90799 0
M  V30 19074 C 1871.32 -2.86621 -2.43979 0
M  V30 19075 C 1870.46 -2.48819 -1.22412 0
M  V30 19076 H 1873.41 -1.56718 -0.250025 0
M  V30 19077 H 1873.43 -2.62022 -2.75907 0
M  V30 19078 H 1872.95 -3.66881 -1.2657 0
M  V30 19079 H 1871.05 -2.04066 -3.11749 0
M  V30 19080 H 1871.16 -3.89594 -2.78843 0
M  V30 19081 H 1869.52 -2.01335 -1.56001 0
M  V30 19082 H 1870.31 -3.38044 -0.598405 0
M  V30 19083 N 1872.75 0.720973 -1.40142 0
M  V30 19084 C 1873.98 1.51012 -1.41431 0
M  V30 19085 C 1874.4 1.88796 -0.0125516 0
M  V30 19086 O 1873.75 1.55073 0.962217 0
M  V30 19087 C 1873.8 2.78886 -2.3001 0
M  V30 19088 O 1873.52 2.42703 -3.64729 0
M  V30 19089 C 1875.03 3.7282 -2.39834 0
M  V30 19090 H 1872.25 0.466214 -0.482582 0
M  V30 19091 H 1874.79 0.889777 -1.84128 0
M  V30 19092 H 1872.94 3.37219 -1.90689 0
M  V30 19093 H 1873.36 3.24945 -4.11717 0
M  V30 19094 H 1874.83 4.594 -3.06032 0
M  V30 19095 H 1875.31 4.15552 -1.42173 0
M  V30 19096 H 1875.92 3.20402 -2.79684 0
M  V30 19097 N 1874.23 1.25549 0.952634 0
M  V30 19098 C 1875.46 1.13262 1.73743 0
M  V30 19099 C 1875.88 -0.309507 1.85536 0
M  V30 19100 O 1875.24 -1.22422 1.33726 0
M  V30 19101 C 1875.29 1.79395 3.12809 0
M  V30 19102 O 1874.39 1.07496 3.98144 0
M  V30 19103 H 1873.73 0.395314 0.5335 0
M  V30 19104 H 1876.26 1.66151 1.19394 0
M  V30 19105 H 1876.27 1.85761 3.63259 0
M  V30 19106 H 1874.95 2.84316 3.03542 0
M  V30 19107 H 1873.52 1.09025 3.56606 0
M  V30 19108 N 1875.71 -1.15554 1.07168 0
M  V30 19109 C 1877.12 -1.38284 0.796841 0
M  V30 19110 C 1877.32 -1.92366 -0.599782 0
M  V30 19111 O 1876.38 -2.1282 -1.35883 0
M  V30 19112 C 1877.69 -2.35553 1.8691 0
M  V30 19113 C 1879.24 -2.4922 1.89364 0
M  V30 19114 C 1879.72 -3.49778 2.95668 0
M  V30 19115 N 1881.21 -3.57312 2.94759 0
M  V30 19116 C 1881.94 -4.34934 3.73657 0
M  V30 19117 N 1881.44 -5.15905 4.624 0
M  V30 19118 N 1883.23 -4.30004 3.62012 0
M  V30 19119 H 1875.38 -0.787905 1.97246 0
M  V30 19120 H 1877.65 -0.40896 0.855252 0
M  V30 19121 H 1877.35 -2.02927 2.87252 0
M  V30 19122 H 1877.23 -3.3531 1.72763 0
M  V30 19123 H 1879.61 -2.81145 0.896745 0
M  V30 19124 H 1879.69 -1.49468 2.07589 0
M  V30 19125 H 1879.34 -3.18588 3.95556 0
M  V30 19126 H 1879.27 -4.4928 2.74691 0
M  V30 19127 H 1881.76 -2.99518 2.30429 0
M  V30 19128 H 1882.07 -5.72373 5.19238 0
M  V30 19129 H 1880.42 -5.15218 4.6645 0
M  V30 19130 H 1883.61 -3.65811 2.92061 0
M  V30 19131 H 1883.78 -4.90251 4.23743 0
M  V30 19132 N 1877.19 -0.855519 -1.32358 0
M  V30 19133 C 1878.41 -0.472456 -2.01947 0
M  V30 19134 C 1878.84 0.923482 -1.6387 0
M  V30 19135 O 1878.2 1.60677 -0.839799 0
M  V30 19136 C 1878.24 -0.620081 -3.55229 0
M  V30 19137 O 1877.35 0.34676 -4.1094 0
M  V30 19138 H 1876.69 -0.189756 -0.636309 0
M  V30 19139 H 1879.22 -1.15495 -1.68885 0
M  V30 19140 H 1879.23 -0.507933 -4.04826 0
M  V30 19141 H 1877.9 -1.63802 -3.82285 0
M  V30 19142 H 1876.48 0.190778 -3.72412 0
M  V30 19143 N 1878.67 1.45167 -0.61354 0
M  V30 19144 C 1879.6 2.3333 0.089004 0
M  V30 19145 C 1880.58 1.47181 0.85275 0
M  V30 19146 O 1881.76 1.7594 0.822122 0
M  V30 19147 C 1878.89 3.29982 1.08301 0
M  V30 19148 C 1877.85 4.25813 0.432084 0
M  V30 19149 C 1877.17 5.122 1.53476 0
M  V30 19150 C 1878.47 5.18233 -0.65052 0
M  V30 19151 H 1880.17 2.92322 -0.647165 0
M  V30 19152 H 1877.71 1.40565 -0.312667 0
M  V30 19153 H 1879.66 3.90533 1.5831 0
M  V30 19154 H 1878.39 2.69162 1.84985 0
M  V30 19155 H 1877.05 3.6657 -0.0471927 0
M  V30 19156 H 1876.7 4.47744 2.29203 0
M  V30 19157 H 1876.4 5.77122 1.10469 0
M  V30 19158 H 1877.92 5.7562 2.037 0
M  V30 19159 H 1879.33 5.72821 -0.234262 0
M  V30 19160 H 1877.73 5.91664 -1.00268 0
M  V30 19161 H 1878.8 4.60304 -1.52475 0
M  V30 19162 N 1880.14 0.353044 1.53595 0
M  V30 19163 C 1881.05 -0.507548 2.29044 0
M  V30 19164 C 1882.07 -1.10364 1.34521 0
M  V30 19165 O 1883.25 -1.11728 1.67567 0
M  V30 19166 C 1880.31 -1.63799 3.05566 0
M  V30 19167 C 1879.37 -1.07071 4.15733 0
M  V30 19168 C 1878.6 -2.14728 4.88597 0
M  V30 19169 O 1878.83 -3.35619 4.61211 0
M  V30 19170 O 1877.76 -1.78489 5.74826 0
M  V30 19171 H 1881.59 0.10606 3.03515 0
M  V30 19172 H 1879.17 0.117799 1.48935 0
M  V30 19173 H 1881.05 -2.2955 3.5339 0
M  V30 19174 H 1879.73 -2.23723 2.33944 0
M  V30 19175 H 1878.64 -0.37746 3.72191 0
M  V30 19176 H 1879.97 -0.516205 4.89486 0
M  V30 19177 N 1881.62 -1.57387 0.0818932 0
M  V30 19178 C 1882.9 -1.85297 -0.626447 0
M  V30 19179 C 1883.28 -0.976281 -1.87168 0
M  V30 19180 O 1882.63 -0.0451999 -2.28455 0
M  V30 19181 C 1882.84 -3.35695 -0.954461 0
M  V30 19182 C 1884.18 -4.03442 -1.32361 0
M  V30 19183 O 1885.21 -3.40499 -1.04588 0
M  V30 19184 O 1884.07 -5.1448 -1.84317 0
M  V30 19185 H 1881.16 -0.765835 -0.31213 0
M  V30 19186 H 1883.71 -1.69319 0.11359 0
M  V30 19187 H 1882.48 -3.91237 -0.0704846 0
M  V30 19188 H 1882.1 -3.56971 -1.75092 0
M  V30 19189 N 1883.1 0.191729 -1.56429 0
M  V30 19190 C 1884.03 1.24024 -1.97839 0
M  V30 19191 C 1885.01 1.47291 -0.850853 0
M  V30 19192 O 1886.2 1.58971 -1.11543 0
M  V30 19193 C 1883.33 2.58373 -2.32079 0
M  V30 19194 C 1882.28 2.49712 -3.47603 0
M  V30 19195 C 1881.61 3.88365 -3.67528 0
M  V30 19196 C 1882.91 2.01929 -4.81687 0
M  V30 19197 H 1884.6 0.8961 -2.85675 0
M  V30 19198 H 1882.15 0.429616 -1.37442 0
M  V30 19199 H 1884.1 3.31908 -2.59643 0
M  V30 19200 H 1882.82 2.94534 -1.41129 0
M  V30 19201 H 1881.48 1.78632 -3.20135 0
M  V30 19202 H 1881.13 4.21884 -2.73903 0
M  V30 19203 H 1880.83 3.83444 -4.45246 0
M  V30 19204 H 1882.35 4.63518 -3.97472 0
M  V30 19205 H 1883.77 2.65225 -5.0826 0
M  V30 19206 H 1882.16 2.08002 -5.62899 0
M  V30 19207 H 1883.23 0.972649 -4.75045 0
M  V30 19208 N 1884.58 1.50751 0.459565 0
M  V30 19209 C 1885.8 1.66367 1.23842 0
M  V30 19210 C 1886.23 0.351355 1.84789 0
M  V30 19211 O 1885.59 -0.686103 1.67816 0
M  V30 19212 C 1885.63 2.76521 2.31449 0
M  V30 19213 O 1884.74 2.38576 3.36386 0
M  V30 19214 H 1884.08 0.555447 0.363833 0
M  V30 19215 H 1886.61 1.97193 0.545538 0
M  V30 19216 H 1886.62 2.99943 2.76583 0
M  V30 19217 H 1885.29 3.71759 1.86462 0
M  V30 19218 H 1883.87 2.25643 2.96883 0
M  V30 19219 N 1886.06 -0.713531 1.40522 0
M  V30 19220 C 1887.28 -1.50766 1.42423 0
M  V30 19221 C 1887.71 -1.88082 0.0262417 0
M  V30 19222 O 1887.06 -1.5341 -0.966185 0
M  V30 19223 C 1887.11 -2.75813 2.32291 0
M  V30 19224 O 1886.22 -3.726 1.76758 0
M  V30 19225 H 1885.56 -0.454473 0.484098 0
M  V30 19226 H 1888.09 -0.878583 1.84776 0
M  V30 19227 H 1888.1 -3.2432 2.47549 0
M  V30 19228 H 1886.77 -2.47988 3.33878 0
M  V30 19229 H 1885.35 -3.31455 1.70857 0
M  V30 19230 N 1887.53 -1.26053 -0.945962 0
M  V30 19231 C 1888.77 -1.1253 -1.70635 0
M  V30 19232 C 1889.14 0.326708 -1.892 0
M  V30 19233 O 1890.34 0.583957 -2.6238 0
M  V30 19234 C 1888.61 -1.86811 -3.04691 0
M  V30 19235 S 1890.17 -1.89284 -3.95875 0
M  V30 19236 H 1886.99 -0.402052 -0.586409 0
M  V30 19237 H 1889.59 -1.59703 -1.12762 0
M  V30 19238 H 1888.29 -2.91531 -2.88856 0
M  V30 19239 H 1887.82 -1.40059 -3.67623 0
M  V30 19240 H 1889.84 -0.976107 -4.86504 0
M  V30 19241 N 1889.01 1.14984 -1.07779 0
M  V30 19242 C 1890.42 1.67453 -0.825611 0
M  V30 19243 C 1890.77 1.85168 0.648631 0
M  V30 19244 O 1889.9 1.55817 1.50167 0
M  V30 19245 C 1890.49 3.04172 -1.49214 0
M  V30 19246 C 1889.05 3.53701 -1.28736 0
M  V30 19247 C 1888.2 2.29324 -1.55903 0
M  V30 19248 H 1891.15 0.99138 -1.23925 0
M  V30 19249 H 1891.17 3.69315 -0.915779 0
M  V30 19250 H 1890.68 2.91247 -2.56509 0
M  V30 19251 H 1888.78 3.71859 -0.234821 0
M  V30 19252 H 1888.9 4.34871 -2.01056 0
M  V30 19253 H 1887.26 2.35081 -0.980257 0
M  V30 19254 H 1888.04 2.18982 -2.6439 0
M  V30 19255 N 1890.49 0.862526 1.31902 0
M  V30 19256 C 1891.91 0.553438 1.49697 0
M  V30 19257 C 1892.11 -0.914146 1.79571 0
M  V30 19258 O 1891.16 -1.69675 1.86994 0
M  V30 19259 C 1892.47 1.44722 2.63583 0
M  V30 19260 C 1894.02 1.44848 2.77467 0
M  V30 19261 C 1894.5 2.32766 3.94441 0
M  V30 19262 N 1895.99 2.30605 4.01716 0
M  V30 19263 C 1896.72 2.95356 4.9148 0
M  V30 19264 N 1896.22 3.6925 5.86197 0
M  V30 19265 N 1898.01 2.84703 4.84665 0
M  V30 19266 H 1890.16 1.81223 1.10779 0
M  V30 19267 H 1892.43 0.774478 0.546706 0
M  V30 19268 H 1892.13 2.49117 2.48261 0
M  V30 19269 H 1892.01 1.14033 3.5955 0
M  V30 19270 H 1894.39 0.412143 2.92208 0
M  V30 19271 H 1894.47 1.79557 1.8219 0
M  V30 19272 H 1894.12 3.36472 3.80459 0
M  V30 19273 H 1894.05 1.95386 4.89011 0
M  V30 19274 H 1896.54 1.76889 3.33944 0
M  V30 19275 H 1896.85 4.15804 6.51404 0
M  V30 19276 H 1895.2 3.73358 5.86199 0
M  V30 19277 H 1898.39 2.2652 4.09642 0
M  V30 19278 H 1898.56 3.35447 5.54418 0
M  V30 19279 N 1891.97 -1.4484 0.62123 0
M  V30 19280 C 1892.93 -2.29061 -0.0797989 0
M  V30 19281 C 1893.93 -1.40508 -0.781932 0
M  V30 19282 O 1895.12 -1.62485 -0.628023 0
M  V30 19283 C 1892.25 -3.21857 -1.12342 0
M  V30 19284 H 1893.45 -2.92528 0.66084 0
M  V30 19285 H 1891 -1.51588 0.3809 0
M  V30 19286 H 1891.73 -2.63218 -1.89437 0
M  V30 19287 H 1891.52 -3.87103 -0.624003 0
M  V30 19288 H 1893.01 -3.8515 -1.61398 0
M  V30 19289 N 1893.45 -0.361184 -1.53405 0
M  V30 19290 C 1894.41 0.475026 -2.24223 0
M  V30 19291 C 1895.41 1.01331 -1.24855 0
M  V30 19292 O 1896.6 0.899756 -1.49164 0
M  V30 19293 C 1893.73 1.6635 -2.97557 0
M  V30 19294 H 1894.92 -0.144595 -2.99551 0
M  V30 19295 H 1892.48 -0.112802 -1.55892 0
M  V30 19296 H 1893.21 2.32133 -2.26461 0
M  V30 19297 H 1893 1.28454 -3.70462 0
M  V30 19298 H 1894.49 2.2562 -3.51405 0
M  V30 19299 N 1894.92 1.57341 -0.0902386 0
M  V30 19300 C 1896.34 1.8145 0.439638 0
M  V30 19301 C 1896.69 1.00551 1.68475 0
M  V30 19302 O 1895.81 0.233442 2.15137 0
M  V30 19303 C 1896.41 3.29113 0.804384 0
M  V30 19304 C 1894.97 3.54003 1.27903 0
M  V30 19305 C 1894.11 2.7595 0.27328 0
M  V30 19306 H 1897.06 1.55527 -0.315738 0
M  V30 19307 H 1897.08 3.4217 1.66432 0
M  V30 19308 H 1896.6 3.87966 -0.102017 0
M  V30 19309 H 1894.7 3.00475 2.20331 0
M  V30 19310 H 1894.81 4.62662 1.24422 0
M  V30 19311 H 1893.17 2.43271 0.754419 0
M  V30 19312 H 1893.96 3.3755 -0.625715 0
M  V30 19313 N 1896.4 -0.183431 1.56529 0
M  V30 19314 C 1897.37 -1.21097 1.94597 0
M  V30 19315 C 1898.37 -1.37825 0.828305 0
M  V30 19316 O 1899.56 -1.35438 1.09555 0
M  V30 19317 C 1896.69 -2.57826 2.23021 0
M  V30 19318 H 1897.88 -0.885275 2.86536 0
M  V30 19319 H 1895.43 -0.425412 1.50399 0
M  V30 19320 H 1896.17 -2.95431 1.33758 0
M  V30 19321 H 1895.95 -2.47054 3.04478 0
M  V30 19322 H 1897.44 -3.31902 2.53437 0
M  V30 19323 N 1897.88 -1.50992 -0.451564 0
M  V30 19324 C 1899.3 -1.38852 -0.786916 0
M  V30 19325 C 1899.5 -0.459764 -1.96185 0
M  V30 19326 O 1898.55 0.0903799 -2.52338 0
M  V30 19327 C 1899.87 -2.80611 -1.08064 0
M  V30 19328 C 1901.41 -2.89663 -1.18593 0
M  V30 19329 C 1901.89 -4.32299 -1.51267 0
M  V30 19330 N 1903.38 -4.3534 -1.5822 0
M  V30 19331 C 1904.11 -5.42721 -1.85046 0
M  V30 19332 N 1903.61 -6.60282 -2.09759 0
M  V30 19333 N 1905.4 -5.30185 -1.8671 0
M  V30 19334 H 1897.55 -2.09938 0.32245 0
M  V30 19335 H 1899.82 -0.944464 0.0818072 0
M  V30 19336 H 1899.52 -3.50501 -0.290167 0
M  V30 19337 H 1899.4 -3.19063 -2.01193 0
M  V30 19338 H 1901.78 -2.1998 -1.96705 0
M  V30 19339 H 1901.87 -2.54728 -0.23398 0
M  V30 19340 H 1901.51 -5.02526 -0.736882 0
M  V30 19341 H 1901.44 -4.64736 -2.47645 0
M  V30 19342 H 1903.93 -3.50577 -1.41082 0
M  V30 19343 H 1904.24 -7.37918 -2.29557 0
M  V30 19344 H 1902.59 -6.63423 -2.07111 0
M  V30 19345 H 1905.78 -4.3733 -1.66912 0
M  V30 19346 H 1905.95 -6.13954 -2.07279 0
M  V30 19347 N 1899.36 0.706069 -1.40899 0
M  V30 19348 C 1900.77 1.01535 -1.23137 0
M  V30 19349 C 1900.97 2.01181 -0.113293 0
M  V30 19350 O 1900.03 2.46966 0.525732 0
M  V30 19351 C 1901.34 1.54998 -2.57674 0
M  V30 19352 C 1902.89 1.66935 -2.64767 0
M  V30 19353 C 1903.37 2.23802 -3.99596 0
M  V30 19354 N 1904.86 2.31176 -4.01388 0
M  V30 19355 C 1905.59 2.76181 -5.02506 0
M  V30 19356 N 1905.09 3.20868 -6.14016 0
M  V30 19357 N 1906.88 2.7565 -4.89871 0
M  V30 19358 H 1899.03 0.045751 -2.12351 0
M  V30 19359 H 1901.3 0.0828835 -0.94437 0
M  V30 19360 H 1901 0.892393 -3.4019 0
M  V30 19361 H 1900.88 2.53377 -2.79428 0
M  V30 19362 H 1903.26 2.31808 -1.82617 0
M  V30 19363 H 1903.34 0.671301 -2.46834 0
M  V30 19364 H 1902.99 1.59547 -4.8219 0
M  V30 19365 H 1902.92 3.24339 -4.14864 0
M  V30 19366 H 1905.41 1.99627 -3.2087 0
M  V30 19367 H 1905.72 3.53803 -6.87054 0
M  V30 19368 H 1904.07 3.18803 -6.17568 0
M  V30 19369 H 1907.26 2.40081 -4.01844 0
M  V30 19370 H 1907.43 3.10407 -5.68816 0
M  V30 19371 N 1900.84 1.26553 0.939264 0
M  V30 19372 C 1901.77 1.10778 2.05549 0
M  V30 19373 C 1902.75 0.0124359 1.70095 0
M  V30 19374 O 1903.93 0.184814 1.93319 0
M  V30 19375 C 1901.06 0.742011 3.39281 0
M  V30 19376 C 1900.02 1.78931 3.88803 0
M  V30 19377 C 1899.34 1.2778 5.19207 0
M  V30 19378 C 1900.64 3.1912 4.13473 0
M  V30 19379 H 1902.34 2.04151 2.19004 0
M  V30 19380 H 1899.88 0.98294 1.05234 0
M  V30 19381 H 1901.84 0.618526 4.16836 0
M  V30 19382 H 1900.56 -0.22742 3.25807 0
M  V30 19383 H 1899.22 1.9015 3.13431 0
M  V30 19384 H 1898.87 0.298159 5.02116 0
M  V30 19385 H 1898.57 1.9779 5.53311 0
M  V30 19386 H 1900.09 1.16703 5.99344 0
M  V30 19387 H 1901.5 3.10967 4.81635 0
M  V30 19388 H 1899.9 3.86738 4.58862 0
M  V30 19389 H 1900.97 3.65034 3.19183 0
M  V30 19390 N 1902.31 -1.14411 1.08387 0
M  V30 19391 C 1903.54 -1.89307 0.834895 0
M  V30 19392 C 1903.96 -1.78574 -0.612923 0
M  V30 19393 O 1903.31 -1.14494 -1.42118 0
M  V30 19394 C 1903.37 -3.39289 1.24761 0
M  V30 19395 O 1903.09 -3.49725 2.63863 0
M  V30 19396 C 1904.59 -4.31181 1.02947 0
M  V30 19397 H 1901.81 -0.599644 0.301112 0
M  V30 19398 H 1904.35 -1.44897 1.44309 0
M  V30 19399 H 1902.51 -3.81322 0.683524 0
M  V30 19400 H 1902.92 -4.42884 2.80988 0
M  V30 19401 H 1904.39 -5.34789 1.36763 0
M  V30 19402 H 1904.87 -4.39187 -0.0335224 0
M  V30 19403 H 1905.48 -3.94903 1.57898 0
M  V30 19404 N 1903.79 -0.869509 -1.31443 0
M  V30 19405 C 1905.04 -0.479265 -1.96335 0
M  V30 19406 C 1905.36 0.971583 -1.69072 0
M  V30 19407 O 1904.63 1.68104 -1.00588 0
M  V30 19408 H 1903.21 -0.174241 -0.726394 0
M  V30 19409 H 1905.87 -1.1092 -1.60259 0
M  V30 19410 H 1904.97 -0.636628 -3.05538 0
M  V30 19411 N 1905.27 1.44508 -0.628902 0
M  V30 19412 C 1906.68 1.85457 -0.215122 0
M  V30 19413 C 1907.03 1.52619 1.23296 0
M  V30 19414 O 1906.16 0.963178 1.93783 0
M  V30 19415 C 1906.75 3.36621 -0.383645 0
M  V30 19416 C 1905.31 3.76392 -0.0243904 0
M  V30 19417 C 1904.46 2.68369 -0.698081 0
M  V30 19418 H 1907.41 1.35006 -0.834208 0
M  V30 19419 H 1907.43 3.78617 0.378049 0
M  V30 19420 H 1906.94 3.6049 -1.43767 0
M  V30 19421 H 1905.04 3.58139 1.02798 0
M  V30 19422 H 1905.16 4.7714 -0.432898 0
M  V30 19423 H 1903.52 2.54349 -0.133605 0
M  V30 19424 H 1904.3 2.95071 -1.75465 0
M  V30 19425 N 1906.75 0.369315 1.53212 0
M  V30 19426 C 1907.97 -0.222451 2.06204 0
M  V30 19427 C 1908.4 -1.41373 1.24077 0
M  V30 19428 O 1907.76 -1.79415 0.260767 0
M  V30 19429 C 1907.81 -0.590386 3.55734 0
M  V30 19430 O 1906.91 -1.68711 3.76311 0
M  V30 19431 H 1906.25 -0.0315041 0.663252 0
M  V30 19432 H 1908.78 0.531 1.97589 0
M  V30 19433 H 1908.79 -0.860345 3.98826 0
M  V30 19434 H 1907.47 0.28067 4.14952 0
M  V30 19435 H 1906.04 -1.41242 3.45116 0
M  V30 19436 N 1908.23 -1.57291 0.0985816 0
M  V30 19437 C 1909.64 -1.575 -0.258064 0
M  V30 19438 C 1909.84 -1.10997 -1.68172 0
M  V30 19439 O 1908.9 -0.78802 -2.39889 0
M  V30 19440 C 1910.21 -3.00669 -0.0433215 0
M  V30 19441 C 1911.76 -3.12804 -0.110802 0
M  V30 19442 C 1912.24 -4.57937 0.0759907 0
M  V30 19443 N 1913.73 -4.63195 0.021273 0
M  V30 19444 C 1914.46 -5.73227 0.141 0
M  V30 19445 N 1913.96 -6.9208 0.315756 0
M  V30 19446 N 1915.75 -5.6204 0.0820222 0
M  V30 19447 H 1907.9 -1.85826 1.02871 0
M  V30 19448 H 1910.16 -0.857869 0.403441 0
M  V30 19449 H 1909.87 -3.38903 0.940103 0
M  V30 19450 H 1909.74 -3.6896 -0.784124 0
M  V30 19451 H 1912.13 -2.7444 -1.08473 0
M  V30 19452 H 1912.21 -2.47098 0.661548 0
M  V30 19453 H 1911.86 -4.96995 1.04681 0
M  V30 19454 H 1911.79 -5.21708 -0.716096 0
M  V30 19455 H 1914.28 -3.77737 -0.111114 0
M  V30 19456 H 1914.59 -7.71772 0.398531 0
M  V30 19457 H 1912.94 -6.94111 0.351469 0
M  V30 19458 H 1916.13 -4.6807 -0.0533968 0
M  V30 19459 H 1916.3 -6.47753 0.178778 0
M  V30 19460 N 1909.71 0.175127 -1.56624 0
M  V30 19461 C 1910.66 1.22142 -1.92523 0
M  V30 19462 C 1911.64 1.39995 -0.793112 0
M  V30 19463 O 1912.83 1.4203 -1.05625 0
M  V30 19464 C 1909.96 2.56174 -2.28538 0
M  V30 19465 C 1909.05 2.42031 -3.48255 0
M  V30 19466 N 1909.44 1.97597 -4.65606 0
M  V30 19467 C 1907.74 2.72869 -3.52787 0
M  V30 19468 C 1908.44 1.95826 -5.47747 0
M  V30 19469 N 1907.41 2.38086 -4.88688 0
M  V30 19470 H 1911.21 0.869519 -2.80743 0
M  V30 19471 H 1908.73 0.383427 -1.57809 0
M  V30 19472 H 1910.73 3.31775 -2.5245 0
M  V30 19473 H 1909.39 2.92171 -1.41656 0
M  V30 19474 H 1910.4 1.67994 -4.89896 0
M  V30 19475 H 1907.07 3.12929 -2.76373 0
M  V30 19476 H 1908.46 1.63202 -6.51778 0
M  V30 19477 N 1911.18 1.5123 0.44355 0
M  V30 19478 C 1912.15 1.71511 1.52041 0
M  V30 19479 C 1913.15 0.585226 1.49772 0
M  V30 19480 O 1914.34 0.852687 1.51904 0
M  V30 19481 C 1911.47 1.76583 2.91601 0
M  V30 19482 H 1912.66 2.67613 1.35364 0
M  V30 19483 H 1910.21 1.41125 0.671811 0
M  V30 19484 H 1910.95 0.822743 3.1369 0
M  V30 19485 H 1910.73 2.58693 2.94653 0
M  V30 19486 H 1912.22 1.94135 3.69732 0
M  V30 19487 N 1912.66 -0.698586 1.41271 0
M  V30 19488 C 1914.08 -1.0088 1.23674 0
M  V30 19489 C 1914.28 -2.01118 0.123961 0
M  V30 19490 O 1913.33 -2.47242 -0.512628 0
M  V30 19491 C 1914.65 -1.53629 2.58493 0
M  V30 19492 C 1916.19 -1.65528 2.65649 0
M  V30 19493 C 1916.67 -2.21679 4.00777 0
M  V30 19494 N 1918.16 -2.29044 4.02608 0
M  V30 19495 C 1918.9 -2.73512 5.03963 0
M  V30 19496 N 1918.39 -3.17607 6.15709 0
M  V30 19497 N 1920.18 -2.73049 4.91326 0
M  V30 19498 H 1912.34 -0.0344888 2.12372 0
M  V30 19499 H 1914.6 -0.0778742 0.944796 0
M  V30 19500 H 1914.3 -0.874339 3.40658 0
M  V30 19501 H 1914.18 -2.51891 2.80768 0
M  V30 19502 H 1916.57 -2.30836 1.83844 0
M  V30 19503 H 1916.65 -0.658201 2.47187 0
M  V30 19504 H 1916.29 -1.56988 4.83029 0
M  V30 19505 H 1916.22 -3.22134 4.16578 0
M  V30 19506 H 1918.71 -1.97922 3.21924 0
M  V30 19507 H 1919.02 -3.50155 6.88921 0
M  V30 19508 H 1917.37 -3.15523 6.1925 0
M  V30 19509 H 1920.56 -2.37947 4.03112 0
M  V30 19510 H 1920.73 -3.07386 5.70454 0
M  V30 19511 N 1914.14 -1.27049 -0.93254 0
M  V30 19512 C 1915.56 -1.04349 -1.20762 0
M  V30 19513 C 1915.76 0.225981 -2.00229 0
M  V30 19514 O 1914.81 0.932788 -2.34639 0
M  V30 19515 C 1916.12 -2.28004 -1.96048 0
M  V30 19516 C 1917.67 -2.32993 -2.09006 0
M  V30 19517 C 1918.15 -3.56364 -2.87696 0
M  V30 19518 N 1919.64 -3.56892 -2.95266 0
M  V30 19519 C 1920.37 -4.49022 -3.56604 0
M  V30 19520 N 1919.87 -5.51451 -4.19374 0
M  V30 19521 N 1921.66 -4.36656 -3.53961 0
M  V30 19522 H 1913.81 -2.0857 -0.401516 0
M  V30 19523 H 1916.08 -0.917061 -0.240213 0
M  V30 19524 H 1915.78 -3.20386 -1.45072 0
M  V30 19525 H 1915.66 -2.32937 -2.96682 0
M  V30 19526 H 1918.04 -1.41119 -2.5917 0
M  V30 19527 H 1918.12 -2.32065 -1.07607 0
M  V30 19528 H 1917.77 -4.48571 -2.38216 0
M  V30 19529 H 1917.7 -3.54541 -3.89369 0
M  V30 19530 H 1920.19 -2.82812 -2.5065 0
M  V30 19531 H 1920.5 -6.17924 -4.64101 0
M  V30 19532 H 1918.85 -5.55298 -4.17934 0
M  V30 19533 H 1922.04 -3.55848 -3.04122 0
M  V30 19534 H 1922.21 -5.08647 -4.01475 0
M  V30 19535 N 1915.62 1.13835 -1.08993 0
M  V30 19536 C 1916.86 1.86663 -0.832848 0
M  V30 19537 C 1917.22 1.81369 0.630021 0
M  V30 19538 O 1918.42 2.49392 1.00285 0
M  V30 19539 C 1916.69 3.31013 -1.34778 0
M  V30 19540 S 1918.25 4.21386 -1.22391 0
M  V30 19541 H 1915.07 0.643982 -0.301344 0
M  V30 19542 H 1917.67 1.3723 -1.39241 0
M  V30 19543 H 1916.38 3.32418 -2.4068 0
M  V30 19544 H 1915.91 3.85506 -0.78415 0
M  V30 19545 H 1917.92 4.95902 -0.172001 0
M  V30 19546 N 1917.1 0.876467 1.3098 0
M  V30 19547 C 1918.51 0.542323 1.7865 0
M  V30 19548 C 1918.86 -0.941103 1.72156 0
M  V30 19549 O 1917.98 -1.73506 1.29324 0
M  V30 19550 C 1918.58 0.977656 3.24388 0
M  V30 19551 C 1917.14 0.695064 3.69927 0
M  V30 19552 C 1916.28 1.16537 2.51624 0
M  V30 19553 H 1919.23 1.06154 1.1797 0
M  V30 19554 H 1919.26 0.30304 3.79291 0
M  V30 19555 H 1918.77 2.05735 3.29082 0
M  V30 19556 H 1916.87 -0.372992 3.70728 0
M  V30 19557 H 1916.98 1.27665 4.61778 0
M  V30 19558 H 1915.35 0.584941 2.47892 0
M  V30 19559 H 1916.13 2.25262 2.5906 0
M  V30 19560 N 1918.57 -1.44173 0.636557 0
M  V30 19561 C 1919.52 -2.27834 -0.087113 0
M  V30 19562 C 1920.51 -1.3897 -0.810926 0
M  V30 19563 O 1921.7 -1.62736 -0.696139 0
M  V30 19564 C 1918.83 -3.26385 -1.06431 0
M  V30 19565 C 1917.91 -4.22736 -0.339835 0
M  V30 19566 N 1918.31 -5.01804 0.634535 0
M  V30 19567 C 1916.6 -4.42166 -0.583549 0
M  V30 19568 C 1917.3 -5.71904 1.06306 0
M  V30 19569 N 1916.28 -5.42121 0.400722 0
M  V30 19570 H 1920.08 -2.86375 0.660817 0
M  V30 19571 H 1917.6 -1.55675 0.462493 0
M  V30 19572 H 1919.59 -3.85083 -1.5974 0
M  V30 19573 H 1918.25 -2.69405 -1.81248 0
M  V30 19574 H 1919.26 -5.07905 1.01258 0
M  V30 19575 H 1915.94 -3.96277 -1.31417 0
M  V30 19576 H 1917.33 -6.45401 1.86835 0
M  V30 19577 N 1920.05 -0.377435 -1.53014 0
M  V30 19578 C 1921.01 0.451217 -2.24715 0
M  V30 19579 C 1922.01 1.00001 -1.25923 0
M  V30 19580 O 1923.2 0.883884 -1.5011 0
M  V30 19581 C 1920.34 1.63185 -2.99305 0
M  V30 19582 H 1921.53 -0.176358 -2.99381 0
M  V30 19583 H 1919.08 -0.12933 -1.55764 0
M  V30 19584 H 1919.82 2.29718 -2.2891 0
M  V30 19585 H 1919.6 1.24517 -3.71804 0
M  V30 19586 H 1921.09 2.2188 -3.53778 0
M  V30 19587 N 1921.53 1.57237 -0.106922 0
M  V30 19588 C 1922.49 2.13515 0.833317 0
M  V30 19589 C 1923.49 1.06715 1.20285 0
M  V30 19590 O 1924.68 1.32548 1.13034 0
M  V30 19591 C 1921.82 2.66546 2.12523 0
M  V30 19592 H 1923.01 2.97916 0.344435 0
M  V30 19593 H 1920.56 1.55652 0.142199 0
M  V30 19594 H 1921.3 1.85699 2.65869 0
M  V30 19595 H 1921.08 3.44643 1.86985 0
M  V30 19596 H 1922.57 3.10039 2.7976 0
M  V30 19597 N 1923.01 -0.166818 1.56715 0
M  V30 19598 C 1923.96 -1.2112 1.93168 0
M  V30 19599 C 1924.94 -1.39572 0.800525 0
M  V30 19600 O 1926.13 -1.41467 1.06377 0
M  V30 19601 C 1923.26 -2.54958 2.29894 0
M  V30 19602 C 1922.35 -2.40181 3.49534 0
M  V30 19603 N 1922.74 -1.95125 4.66647 0
M  V30 19604 C 1921.04 -2.70994 3.54229 0
M  V30 19605 C 1921.74 -1.92918 5.48778 0
M  V30 19606 N 1920.72 -2.35491 4.89944 0
M  V30 19607 H 1924.52 -0.854619 2.812 0
M  V30 19608 H 1922.03 -0.375053 1.5801 0
M  V30 19609 H 1924.03 -3.30431 2.54206 0
M  V30 19610 H 1922.69 -2.91415 1.43203 0
M  V30 19611 H 1923.7 -1.65393 4.9078 0
M  V30 19612 H 1920.38 -3.11458 2.78029 0
M  V30 19613 H 1921.77 -1.59744 6.52634 0
M  V30 19614 N 1924.49 -1.51463 -0.435524 0
M  V30 19615 C 1925.73 -1.65426 -1.18347 0
M  V30 19616 C 1926.09 -0.366774 -1.88872 0
M  V30 19617 O 1925.38 0.637507 -1.80683 0
M  V30 19618 C 1925.57 -2.79695 -2.22498 0
M  V30 19619 C 1925.4 -4.19431 -1.62196 0
M  V30 19620 C 1924.17 -4.85342 -1.40609 0
M  V30 19621 C 1926.37 -5.0246 -1.0972 0
M  V30 19622 N 1924.35 -6.09187 -0.759235 0
M  V30 19623 C 1925.72 -6.17321 -0.575716 0
M  V30 19624 C 1927.78 -4.87976 -0.989133 0
M  V30 19625 C 1926.48 -7.19287 0.0432192 0
M  V30 19626 C 1928.51 -5.90151 -0.384089 0
M  V30 19627 C 1927.87 -7.04286 0.126845 0
M  V30 19628 H 1923.97 -0.659213 -0.420669 0
M  V30 19629 H 1926.55 -1.88696 -0.479793 0
M  V30 19630 H 1924.72 -2.58086 -2.90252 0
M  V30 19631 H 1926.46 -2.82829 -2.89464 0
M  V30 19632 H 1923.21 -4.43242 -1.66833 0
M  V30 19633 H 1923.64 -6.75481 -0.453193 0
M  V30 19634 H 1928.28 -3.99988 -1.37002 0
M  V30 19635 H 1926 -8.06922 0.436231 0
M  V30 19636 H 1929.58 -5.81014 -0.30235 0
M  V30 19637 H 1928.46 -7.81995 0.587666 0
M  V30 19638 N 1925.96 0.691085 -1.4164 0
M  V30 19639 C 1927.21 1.44828 -1.40959 0
M  V30 19640 C 1927.53 1.94988 -0.0211789 0
M  V30 19641 O 1926.8 1.71999 0.937714 0
M  V30 19642 H 1925.38 0.53739 -0.518865 0
M  V30 19643 H 1928.05 0.817677 -1.76918 0
M  V30 19644 H 1927.14 2.30926 -2.09952 0
M  V30 19645 N 1927.44 1.27542 0.925789 0
M  V30 19646 C 1928.85 1.12679 1.48864 0
M  V30 19647 C 1929.2 -0.287536 1.94082 0
M  V30 19648 O 1928.33 -1.18064 1.81356 0
M  V30 19649 C 1928.92 2.03934 2.70548 0
M  V30 19650 C 1927.48 1.93171 3.23051 0
M  V30 19651 C 1926.63 1.96378 1.95783 0
M  V30 19652 H 1929.58 1.40407 0.739703 0
M  V30 19653 H 1929.6 1.59628 3.45397 0
M  V30 19654 H 1929.11 3.06863 2.37607 0
M  V30 19655 H 1927.22 0.932356 3.60746 0
M  V30 19656 H 1927.33 2.7951 3.89115 0
M  V30 19657 H 1925.69 1.40628 2.12358 0
M  V30 19658 H 1926.48 3.00964 1.65153 0
M  V30 19659 N 1928.92 -1.13255 1.09595 0
M  V30 19660 C 1930.33 -1.66118 0.852147 0
M  V30 19661 C 1930.68 -1.86177 -0.61909 0
M  V30 19662 O 1929.81 -1.58186 -1.47669 0
M  V30 19663 C 1930.4 -3.0176 1.54034 0
M  V30 19664 C 1928.96 -3.51608 1.34347 0
M  V30 19665 C 1928.11 -2.26815 1.59531 0
M  V30 19666 H 1931.06 -0.971539 1.25486 0
M  V30 19667 H 1931.08 -3.67812 0.974418 0
M  V30 19668 H 1930.59 -2.87129 2.6111 0
M  V30 19669 H 1928.69 -3.71439 0.293951 0
M  V30 19670 H 1928.81 -4.31618 2.07949 0
M  V30 19671 H 1927.17 -2.33492 1.01753 0
M  V30 19672 H 1927.95 -2.14748 2.6784 0
M  V30 19673 N 1930.4 -0.883401 -1.30514 0
M  V30 19674 C 1931.33 -0.36516 -2.30627 0
M  V30 19675 C 1932.31 0.551149 -1.60923 0
M  V30 19676 O 1933.49 0.465333 -1.88543 0
M  V30 19677 C 1930.62 0.422552 -3.4472 0
M  V30 19678 C 1929.58 -0.401856 -4.26109 0
M  V30 19679 C 1928.9 0.512363 -5.3224 0
M  V30 19680 C 1930.2 -1.64313 -4.95781 0
M  V30 19681 H 1931.9 -1.20175 -2.74223 0
M  V30 19682 H 1929.44 -0.579315 -1.31833 0
M  V30 19683 H 1931.4 0.795726 -4.13819 0
M  V30 19684 H 1930.12 1.29278 -2.99925 0
M  V30 19685 H 1928.78 -0.75715 -3.58696 0
M  V30 19686 H 1928.43 1.38025 -4.83692 0
M  V30 19687 H 1928.13 -0.0354331 -5.87589 0
M  V30 19688 H 1929.65 0.882088 -6.04195 0
M  V30 19689 H 1931.07 -1.34063 -5.57405 0
M  V30 19690 H 1929.46 -2.13101 -5.60989 0
M  V30 19691 H 1930.53 -2.38843 -4.21998 0
M  V30 19692 N 1931.88 1.43833 -0.644194 0
M  V30 19693 C 1933.29 1.85218 -0.23478 0
M  V30 19694 C 1933.64 1.53918 1.2167 0
M  V30 19695 O 1932.76 0.983677 1.92751 0
M  V30 19696 C 1933.36 3.36195 -0.419327 0
M  V30 19697 C 1931.92 3.76345 -0.0643105 0
M  V30 19698 C 1931.06 2.67614 -0.726506 0
M  V30 19699 H 1934.02 1.34114 -0.84848 0
M  V30 19700 H 1934.04 3.78997 0.33787 0
M  V30 19701 H 1933.55 3.58944 -1.47582 0
M  V30 19702 H 1931.65 3.59209 0.989939 0
M  V30 19703 H 1931.76 4.76654 -0.483481 0
M  V30 19704 H 1930.13 2.54193 -0.160575 0
M  V30 19705 H 1930.91 2.93193 -1.78585 0
M  V30 19706 N 1933.35 0.385544 1.52811 0
M  V30 19707 C 1934.58 -0.198025 2.0595 0
M  V30 19708 C 1935 -1.40822 1.25756 0
M  V30 19709 O 1934.35 -1.79963 0.303251 0
M  V30 19710 C 1934.41 -0.571856 3.56948 0
M  V30 19711 O 1934.13 0.59026 4.34105 0
M  V30 19712 C 1935.63 -1.21169 4.26419 0
M  V30 19713 H 1932.85 -0.0307594 0.670295 0
M  V30 19714 H 1935.39 0.549688 1.96974 0
M  V30 19715 H 1933.55 -1.26947 3.6601 0
M  V30 19716 H 1933.96 0.28384 5.23731 0
M  V30 19717 H 1935.43 -1.42366 5.33325 0
M  V30 19718 H 1935.91 -2.17794 3.81395 0
M  V30 19719 H 1936.52 -0.554949 4.21664 0
M  V30 19720 N 1934.83 -1.57178 0.115259 0
M  V30 19721 C 1935.8 -2.13953 -0.821982 0
M  V30 19722 C 1936.8 -1.07352 -1.19717 0
M  V30 19723 O 1937.99 -1.33146 -1.12329 0
M  V30 19724 C 1935.12 -2.6767 -2.11106 0
M  V30 19725 H 1936.31 -2.98094 -0.328631 0
M  V30 19726 H 1933.86 -1.55725 -0.133942 0
M  V30 19727 H 1934.6 -1.87106 -2.6488 0
M  V30 19728 H 1934.38 -3.4563 -1.85155 0
M  V30 19729 H 1935.87 -3.11519 -2.78111 0
M  V30 19730 N 1936.31 0.158505 -1.56801 0
M  V30 19731 C 1937.54 0.892291 -1.87224 0
M  V30 19732 C 1937.96 1.74468 -0.703029 0
M  V30 19733 O 1937.32 1.77936 0.347649 0
M  V30 19734 C 1937.37 1.73433 -3.16154 0
M  V30 19735 O 1936.47 2.83736 -2.99279 0
M  V30 19736 H 1935.81 0.249214 -0.615458 0
M  V30 19737 H 1938.34 0.152785 -2.04029 0
M  V30 19738 H 1938.35 2.13168 -3.47884 0
M  V30 19739 H 1937.03 1.10831 -4.00861 0
M  V30 19740 H 1935.6 2.47491 -2.78931 0
M  V30 19741 N 1937.79 1.51692 0.427485 0
M  V30 19742 C 1938.74 1.70099 1.51823 0
M  V30 19743 C 1939.72 0.554908 1.51028 0
M  V30 19744 O 1940.92 0.811233 1.57315 0
M  V30 19745 C 1938.04 1.8384 2.89927 0
M  V30 19746 C 1937.13 3.04263 2.9544 0
M  V30 19747 N 1937.52 4.27277 2.7068 0
M  V30 19748 C 1935.82 3.0372 3.26604 0
M  V30 19749 C 1936.52 5.08613 2.8229 0
M  V30 19750 N 1935.5 4.43468 3.14384 0
M  V30 19751 H 1939.3 2.62867 1.31447 0
M  V30 19752 H 1936.81 1.49473 0.63494 0
M  V30 19753 H 1938.81 1.95139 3.6841 0
M  V30 19754 H 1937.47 0.922599 3.11317 0
M  V30 19755 H 1938.48 4.56058 2.45421 0
M  V30 19756 H 1935.16 2.21808 3.53705 0
M  V30 19757 H 1936.55 6.16564 2.67017 0
M  V30 19758 N 1939.27 -0.683564 1.42004 0
M  V30 19759 C 1940.68 -0.99563 1.24737 0
M  V30 19760 C 1940.88 -2.00976 0.145285 0
M  V30 19761 O 1939.94 -2.47771 -0.486376 0
M  V30 19762 C 1941.25 -1.50879 2.60108 0
M  V30 19763 C 1942.8 -1.62701 2.6739 0
M  V30 19764 C 1943.28 -2.17416 4.03106 0
M  V30 19765 N 1944.77 -2.24761 4.05015 0
M  V30 19766 C 1945.5 -2.68151 5.06836 0
M  V30 19767 N 1945 -3.11059 6.19043 0
M  V30 19768 N 1946.79 -2.67822 4.94194 0
M  V30 19769 H 1938.94 -0.011962 2.12397 0
M  V30 19770 H 1941.2 -0.0678489 0.945569 0
M  V30 19771 H 1940.91 -0.838159 3.41567 0
M  V30 19772 H 1940.78 -2.48899 2.83424 0
M  V30 19773 H 1943.17 -2.28873 1.86282 0
M  V30 19774 H 1943.25 -0.631947 2.47871 0
M  V30 19775 H 1942.9 -1.51856 4.84667 0
M  V30 19776 H 1942.83 -3.17698 4.19971 0
M  V30 19777 H 1945.32 -1.94497 3.24005 0
M  V30 19778 H 1945.63 -3.42828 6.92596 0
M  V30 19779 H 1943.98 -3.08937 6.22561 0
M  V30 19780 H 1947.17 -2.33658 4.05613 0
M  V30 19781 H 1947.34 -3.01318 5.73682 0
M  V30 19782 N 1940.75 -1.28031 -0.919012 0
M  V30 19783 C 1942.16 -1.05624 -1.19649 0
M  V30 19784 C 1942.36 0.204731 -2.00457 0
M  V30 19785 O 1941.42 0.907849 -2.35615 0
M  V30 19786 C 1942.73 -2.3007 -1.93619 0
M  V30 19787 C 1944.28 -2.35196 -2.06523 0
M  V30 19788 C 1944.75 -3.59395 -2.839 0
M  V30 19789 N 1946.24 -3.60004 -2.91464 0
M  V30 19790 C 1946.98 -4.52779 -3.51822 0
M  V30 19791 N 1946.48 -5.55868 -4.13501 0
M  V30 19792 N 1948.27 -4.40385 -3.4931 0
M  V30 19793 H 1940.42 -2.08985 -0.379372 0
M  V30 19794 H 1942.68 -0.919558 -0.230473 0
M  V30 19795 H 1942.39 -3.21907 -1.41665 0
M  V30 19796 H 1942.26 -2.36071 -2.94195 0
M  V30 19797 H 1944.65 -1.4386 -2.57659 0
M  V30 19798 H 1944.73 -2.33194 -1.0514 0
M  V30 19799 H 1944.37 -4.51072 -2.33445 0
M  V30 19800 H 1944.3 -3.58651 -3.85587 0
M  V30 19801 H 1946.8 -2.85455 -2.47637 0
M  V30 19802 H 1947.11 -6.22812 -4.57521 0
M  V30 19803 H 1945.45 -5.597 -4.12021 0
M  V30 19804 H 1948.64 -3.59053 -3.0033 0
M  V30 19805 H 1948.82 -5.12877 -3.96057 0
M  V30 19806 N 1942.22 1.12672 -1.10194 0
M  V30 19807 C 1943.17 2.16406 -0.717811 0
M  V30 19808 C 1944.16 1.58588 0.271775 0
M  V30 19809 O 1945.35 1.76815 0.0809013 0
M  V30 19810 C 1942.48 3.42979 -0.148524 0
M  V30 19811 C 1941.56 4.07785 -1.165 0
M  V30 19812 N 1941.96 4.47639 -2.35485 0
M  V30 19813 C 1940.25 4.3453 -1.00495 0
M  V30 19814 C 1940.95 4.98247 -3.00208 0
M  V30 19815 N 1939.93 4.93596 -2.27736 0
M  V30 19816 H 1943.73 2.44983 -1.62359 0
M  V30 19817 H 1941.25 1.29551 -0.979299 0
M  V30 19818 H 1943.24 4.16649 0.144731 0
M  V30 19819 H 1941.9 3.15872 0.752008 0
M  V30 19820 H 1942.91 4.40088 -2.73026 0
M  V30 19821 H 1939.59 4.17194 -0.159768 0
M  V30 19822 H 1940.98 5.38817 -4.01405 0
M  V30 19823 N 1943.7 0.89031 1.30043 0
M  V30 19824 C 1945.12 0.585066 1.4849 0
M  V30 19825 C 1945.32 -0.87585 1.81469 0
M  V30 19826 O 1944.37 -1.6567 1.90551 0
M  V30 19827 C 1945.69 1.50281 2.60454 0
M  V30 19828 C 1947.23 1.50701 2.74332 0
M  V30 19829 C 1947.71 2.41081 3.89415 0
M  V30 19830 N 1949.2 2.39074 3.96734 0
M  V30 19831 C 1949.94 3.05715 4.85104 0
M  V30 19832 N 1949.43 3.81601 5.78232 0
M  V30 19833 N 1951.22 2.9492 4.78517 0
M  V30 19834 H 1943.38 1.83532 1.0691 0
M  V30 19835 H 1945.64 0.785901 0.530155 0
M  V30 19836 H 1945.34 2.54327 2.42921 0
M  V30 19837 H 1945.22 1.21634 3.5705 0
M  V30 19838 H 1947.61 0.474032 2.91268 0
M  V30 19839 H 1947.69 1.83381 1.7834 0
M  V30 19840 H 1947.33 3.44466 3.73236 0
M  V30 19841 H 1947.26 2.05714 4.84757 0
M  V30 19842 H 1949.75 1.83932 3.30117 0
M  V30 19843 H 1950.06 4.29528 6.42437 0
M  V30 19844 H 1948.41 3.85708 5.78147 0
M  V30 19845 H 1951.6 2.35158 4.04745 0
M  V30 19846 H 1951.77 3.47132 5.47178 0
M  V30 19847 N 1945.18 -1.43489 0.651812 0
M  V30 19848 C 1946.43 -2.01431 0.164307 0
M  V30 19849 C 1946.75 -1.51674 -1.22556 0
M  V30 19850 O 1946.02 -0.728791 -1.81839 0
M  V30 19851 H 1944.6 -0.744764 0.0577525 0
M  V30 19852 H 1947.26 -1.75718 0.843164 0
M  V30 19853 H 1946.36 -3.1175 0.147848 0
M  V30 19854 N 1946.66 -0.393643 -1.52605 0
M  V30 19855 C 1947.91 0.186784 -2.01235 0
M  V30 19856 C 1948.23 1.46956 -1.28175 0
M  V30 19857 O 1947.5 1.91708 -0.403088 0
M  V30 19858 H 1946.08 0.0720137 -0.743521 0
M  V30 19859 H 1948.74 -0.52633 -1.87659 0
M  V30 19860 H 1947.83 0.393921 -3.09604 0
M  V30 19861 N 1948.14 1.57115 -0.123593 0
M  V30 19862 C 1949.41 1.86893 0.577099 0
M  V30 19863 C 1949.79 1.02556 1.84514 0
M  V30 19864 O 1949.14 0.105755 2.28255 0
M  V30 19865 C 1949.35 3.38107 0.865122 0
M  V30 19866 C 1950.7 4.0681 1.21618 0
M  V30 19867 O 1951.72 3.43153 0.955237 0
M  V30 19868 O 1950.58 5.19186 1.70612 0
M  V30 19869 H 1947.68 0.773842 0.291716 0
M  V30 19870 H 1950.22 1.68959 -0.158443 0
M  V30 19871 H 1948.99 3.91286 -0.0332696 0
M  V30 19872 H 1948.62 3.61488 1.65566 0
M  V30 19873 N 1949.61 -0.150187 1.56883 0
M  V30 19874 C 1950.54 -1.18735 2.01058 0
M  V30 19875 C 1951.52 -1.44983 0.889606 0
M  V30 19876 O 1952.71 -1.55958 1.15719 0
M  V30 19877 C 1949.84 -2.52129 2.38848 0
M  V30 19878 C 1948.79 -2.40408 3.54101 0
M  V30 19879 C 1948.12 -3.78484 3.77695 0
M  V30 19880 C 1949.42 -1.89087 4.86871 0
M  V30 19881 H 1951.11 -0.820044 2.87951 0
M  V30 19882 H 1948.66 -0.393025 1.38533 0
M  V30 19883 H 1950.61 -3.24908 2.68352 0
M  V30 19884 H 1949.34 -2.90688 1.48889 0
M  V30 19885 H 1948 -1.70082 3.24758 0
M  V30 19886 H 1947.64 -4.14474 2.84992 0
M  V30 19887 H 1947.34 -3.71504 4.55256 0
M  V30 19888 H 1948.87 -4.52816 4.09621 0
M  V30 19889 H 1950.28 -2.51656 5.15114 0
M  V30 19890 H 1948.68 -1.93005 5.68216 0
M  V30 19891 H 1949.75 -0.846357 4.77457 0
M  V30 19892 N 1951.09 -1.51916 -0.419434 0
M  V30 19893 C 1952.34 -1.65142 -1.16502 0
M  V30 19894 C 1952.66 -0.378632 -1.91289 0
M  V30 19895 O 1951.93 0.606164 -1.86286 0
M  V30 19896 H 1950.51 -0.608667 -0.433051 0
M  V30 19897 H 1953.17 -1.88919 -0.47914 0
M  V30 19898 H 1952.27 -2.48762 -1.88477 0
M  V30 19899 N 1952.57 0.676023 -1.42365 0
M  V30 19900 C 1953.8 1.46436 -1.46164 0
M  V30 19901 C 1954.21 1.8866 -0.0726092 0
M  V30 19902 O 1953.57 1.58056 0.912395 0
M  V30 19903 C 1953.62 2.71428 -2.38766 0
M  V30 19904 O 1953.34 2.30976 -3.72266 0
M  V30 19905 C 1954.84 3.65001 -2.51573 0
M  V30 19906 H 1952.06 0.450625 -0.49717 0
M  V30 19907 H 1954.61 0.830748 -1.86866 0
M  V30 19908 H 1952.76 3.30981 -2.01321 0
M  V30 19909 H 1953.18 3.11682 -4.21846 0
M  V30 19910 H 1954.65 4.49432 -3.20492 0
M  V30 19911 H 1955.13 4.10818 -1.55322 0
M  V30 19912 H 1955.73 3.11342 -2.89735 0
M  V30 19913 N 1954.05 1.28517 0.912209 0
M  V30 19914 C 1955.46 1.06257 1.19087 0
M  V30 19915 C 1955.66 -0.194098 2.00563 0
M  V30 19916 O 1954.72 -0.895341 2.36093 0
M  V30 19917 C 1956.03 2.31094 1.92396 0
M  V30 19918 C 1957.58 2.36288 2.05273 0
M  V30 19919 C 1958.06 3.60896 2.8199 0
M  V30 19920 N 1959.55 3.61545 2.89551 0
M  V30 19921 C 1960.28 4.54639 3.49416 0
M  V30 19922 N 1959.78 5.58053 4.10547 0
M  V30 19923 N 1961.57 4.42231 3.46969 0
M  V30 19924 H 1953.72 2.09183 0.368283 0
M  V30 19925 H 1955.99 0.920767 0.225593 0
M  V30 19926 H 1955.69 3.22653 1.39956 0
M  V30 19927 H 1955.57 2.37627 2.92939 0
M  V30 19928 H 1957.95 1.45225 2.56893 0
M  V30 19929 H 1958.03 2.33748 1.03901 0
M  V30 19930 H 1957.68 4.52304 2.31049 0
M  V30 19931 H 1957.61 3.6069 3.8368 0
M  V30 19932 H 1960.1 2.86764 2.46119 0
M  V30 19933 H 1960.41 6.25229 4.54212 0
M  V30 19934 H 1958.76 5.61877 4.09047 0
M  V30 19935 H 1961.95 3.60641 2.98422 0
M  V30 19936 H 1962.12 5.1497 3.93332 0
M  V30 19937 N 1955.53 -1.12086 1.1079 0
M  V30 19938 C 1956.94 -1.35679 0.840432 0
M  V30 19939 C 1957.14 -1.94177 -0.538279 0
M  V30 19940 O 1956.2 -2.17035 -1.29043 0
M  V30 19941 C 1957.51 -2.29487 1.94309 0
M  V30 19942 C 1959.06 -2.43069 1.97197 0
M  V30 19943 C 1959.53 -3.40194 3.06646 0
M  V30 19944 N 1961.03 -3.47753 3.05977 0
M  V30 19945 C 1961.76 -4.22826 3.87305 0
M  V30 19946 N 1961.26 -5.00933 4.78579 0
M  V30 19947 N 1963.05 -4.1827 3.75509 0
M  V30 19948 H 1955.2 -0.724754 1.99652 0
M  V30 19949 H 1957.46 -0.381544 0.86783 0
M  V30 19950 H 1957.17 -1.93685 2.93563 0
M  V30 19951 H 1957.04 -3.29644 1.83343 0
M  V30 19952 H 1959.43 -2.7815 0.985735 0
M  V30 19953 H 1959.51 -1.42788 2.12239 0
M  V30 19954 H 1959.16 -3.05842 4.05491 0
M  V30 19955 H 1959.09 -4.40314 2.88845 0
M  V30 19956 H 1961.58 -2.92035 2.39841 0
M  V30 19957 H 1961.89 -5.55565 5.37185 0
M  V30 19958 H 1960.23 -5.00117 4.82605 0
M  V30 19959 H 1963.43 -3.56334 3.03551 0
M  V30 19960 H 1963.6 -4.76521 4.39126 0
M  V30 19961 N 1957 -0.897194 -1.29569 0
M  V30 19962 C 1958.25 -0.520803 -1.95274 0
M  V30 19963 C 1958.57 0.935501 -1.71095 0
M  V30 19964 O 1957.84 1.65932 -1.04131 0
M  V30 19965 H 1956.42 -0.18961 -0.722535 0
M  V30 19966 H 1959.09 -1.14294 -1.5787 0
M  V30 19967 H 1958.18 -0.701293 -3.04119 0
M  V30 19968 N 1958.48 1.43142 -0.659413 0
M  V30 19969 C 1959.71 2.06603 -0.181642 0
M  V30 19970 C 1960.13 1.49137 1.14629 0
M  V30 19971 O 1959.49 0.603739 1.70952 0
M  V30 19972 C 1959.54 3.6043 -0.110662 0
M  V30 19973 O 1958.64 4.01884 0.925344 0
M  V30 19974 H 1957.98 0.656771 -0.097712 0
M  V30 19975 H 1960.51 1.83541 -0.904086 0
M  V30 19976 H 1960.52 4.07939 0.0706089 0
M  V30 19977 H 1959.2 4.01632 -1.08002 0
M  V30 19978 H 1957.78 3.65954 0.716361 0
M  V30 19979 N 1959.96 0.40173 1.52394 0
M  V30 19980 C 1960.92 -0.41541 2.25404 0
M  V30 19981 C 1961.92 -0.979848 1.27498 0
M  V30 19982 O 1963.11 -0.859891 1.51498 0
M  V30 19983 C 1960.25 -1.58403 3.01863 0
M  V30 19984 H 1961.44 0.223965 2.99063 0
M  V30 19985 H 1958.99 0.154095 1.55539 0
M  V30 19986 H 1959.73 -2.26048 2.32536 0
M  V30 19987 H 1959.51 -1.18586 3.73737 0
M  V30 19988 H 1961 -2.16224 3.57263 0
M  V30 19989 N 1961.44 -1.57047 0.131923 0
M  V30 19990 C 1962.39 -2.12555 -0.824896 0
M  V30 19991 C 1963.37 -1.04953 -1.21957 0
M  V30 19992 O 1964.56 -1.31162 -1.18851 0
M  V30 19993 C 1961.69 -2.73877 -2.06993 0
M  V30 19994 C 1960.78 -3.88579 -1.69903 0
M  V30 19995 N 1961.17 -4.95086 -1.03556 0
M  V30 19996 C 1959.47 -3.99005 -1.99276 0
M  V30 19997 C 1960.17 -5.75324 -0.858894 0
M  V30 19998 N 1959.15 -5.25581 -1.388 0
M  V30 19999 H 1962.95 -2.92275 -0.308596 0
M  V30 20000 H 1960.46 -1.62249 -0.0701257 0
M  V30 20001 H 1962.46 -3.11996 -2.76522 0
M  V30 20002 H 1961.12 -1.95625 -2.59155 0
M  V30 20003 H 1962.13 -5.13174 -0.69804 0
M  V30 20004 H 1958.81 -3.3181 -2.53394 0
M  V30 20005 H 1960.2 -6.71054 -0.337114 0
M  V30 20006 N 1962.92 0.141865 -1.5696 0
M  V30 20007 C 1964.16 0.853609 -1.83629 0
M  V30 20008 C 1964.49 1.80937 -0.713591 0
M  V30 20009 O 1963.75 1.93433 0.296981 0
M  V30 20010 C 1964.05 1.65717 -3.16658 0
M  V30 20011 C 1963.71 0.847748 -4.42859 0
M  V30 20012 C 1962.37 0.624458 -4.77131 0
M  V30 20013 C 1964.73 0.282029 -5.20436 0
M  V30 20014 C 1962.05 -0.175174 -5.86438 0
M  V30 20015 C 1964.41 -0.50467 -6.30584 0
M  V30 20016 C 1963.07 -0.738489 -6.63402 0
M  V30 20017 H 1962.34 0.312358 -0.671948 0
M  V30 20018 H 1964.99 0.117006 -1.91142 0
M  V30 20019 H 1963.29 2.46403 -3.04619 0
M  V30 20020 H 1964.99 2.21144 -3.34509 0
M  V30 20021 H 1961.58 1.03185 -4.15994 0
M  V30 20022 H 1965.76 0.441806 -4.9433 0
M  V30 20023 H 1961.02 -0.365778 -6.10305 0
M  V30 20024 H 1965.19 -0.950134 -6.89888 0
M  V30 20025 H 1962.82 -1.35995 -7.47937 0
M  V30 20026 N 1964.39 1.52136 0.411372 0
M  V30 20027 C 1965.62 1.70223 1.18486 0
M  V30 20028 C 1966.04 0.409966 1.83578 0
M  V30 20029 O 1965.4 -0.632366 1.69914 0
M  V30 20030 C 1965.45 2.83744 2.22535 0
M  V30 20031 O 1964.55 2.49157 3.28625 0
M  V30 20032 H 1963.9 0.566741 0.345978 0
M  V30 20033 H 1966.43 1.98829 0.482526 0
M  V30 20034 H 1966.44 3.08591 2.669 0
M  V30 20035 H 1965.11 3.77503 1.74541 0
M  V30 20036 H 1963.69 2.34974 2.89554 0
M  V30 20037 N 1965.87 -0.668464 1.42721 0
M  V30 20038 C 1967.1 -1.46158 1.47148 0
M  V30 20039 C 1967.52 -1.87903 0.0860652 0
M  V30 20040 O 1966.88 -1.56406 -0.91689 0
M  V30 20041 C 1966.93 -2.68284 2.40949 0
M  V30 20042 O 1966.03 -3.66787 1.88522 0
M  V30 20043 H 1965.37 -0.438842 0.498311 0
M  V30 20044 H 1967.9 -0.819353 1.87477 0
M  V30 20045 H 1967.91 -3.1628 2.57742 0
M  V30 20046 H 1966.59 -2.3724 3.41599 0
M  V30 20047 H 1965.17 -3.25851 1.81315 0
M  V30 20048 N 1967.35 -1.28999 -0.905381 0
M  V30 20049 C 1968.28 -1.16189 -2.0254 0
M  V30 20050 C 1969.26 -0.0575293 -1.70003 0
M  V30 20051 O 1970.45 -0.236004 -1.92761 0
M  V30 20052 C 1967.58 -0.831704 -3.37194 0
M  V30 20053 C 1966.53 -1.89176 -3.83922 0
M  V30 20054 C 1965.86 -1.41501 -5.15637 0
M  V30 20055 C 1967.16 -3.29971 -4.04866 0
M  V30 20056 H 1968.85 -2.09886 -2.13514 0
M  V30 20057 H 1966.4 -1.0105 -1.02591 0
M  V30 20058 H 1968.35 -0.728825 -4.1505 0
M  V30 20059 H 1967.07 0.140958 -3.26296 0
M  V30 20060 H 1965.73 -1.98393 -3.08279 0
M  V30 20061 H 1965.38 -0.431182 -5.01149 0
M  V30 20062 H 1965.08 -2.12391 -5.47872 0
M  V30 20063 H 1966.61 -1.32552 -5.96039 0
M  V30 20064 H 1968.02 -3.23628 -4.73221 0
M  V30 20065 H 1966.42 -3.98768 -4.48447 0
M  V30 20066 H 1967.49 -3.73369 -3.09393 0
M  V30 20067 N 1968.83 1.11497 -1.11383 0
M  V30 20068 C 1969.74 2.21101 -0.784315 0
M  V30 20069 C 1970.76 1.72574 0.222313 0
M  V30 20070 O 1971.93 2.01315 0.058632 0
M  V30 20071 C 1969 3.45925 -0.231713 0
M  V30 20072 C 1968.06 4.09243 -1.29687 0
M  V30 20073 C 1967.29 5.28108 -0.770542 0
M  V30 20074 O 1967.51 5.68998 0.399616 0
M  V30 20075 O 1966.45 5.81996 -1.53505 0
M  V30 20076 H 1970.27 2.51699 -1.69946 0
M  V30 20077 H 1967.86 1.20022 -0.889672 0
M  V30 20078 H 1969.74 4.21338 0.0721248 0
M  V30 20079 H 1968.42 3.1698 0.656146 0
M  V30 20080 H 1967.32 3.35564 -1.65371 0
M  V30 20081 H 1968.66 4.42365 -2.1581 0
M  V30 20082 N 1970.31 0.904053 1.29092 0
M  V30 20083 C 1971.53 0.547082 2.00054 0
M  V30 20084 C 1971.96 -0.862026 1.67185 0
M  V30 20085 O 1971.32 -1.57449 0.898855 0
M  V30 20086 C 1971.36 0.751495 3.52682 0
M  V30 20087 O 1970.47 -0.194004 4.11943 0
M  V30 20088 H 1969.81 0.213241 0.628828 0
M  V30 20089 H 1972.34 1.21683 1.64482 0
M  V30 20090 H 1972.35 0.657831 4.02662 0
M  V30 20091 H 1971.02 1.77878 3.75942 0
M  V30 20092 H 1969.6 -0.0524281 3.72863 0
M  V30 20093 N 1971.79 -1.4279 0.666995 0
M  V30 20094 C 1972.7 -2.34594 -0.0164305 0
M  V30 20095 C 1973.71 -1.54657 -0.797322 0
M  V30 20096 O 1974.89 -1.87256 -0.741426 0
M  V30 20097 C 1971.95 -3.33102 -0.961469 0
M  V30 20098 C 1971.01 -4.28939 -0.17598 0
M  V30 20099 C 1970.25 -5.22741 -1.076 0
M  V30 20100 O 1970.47 -5.21289 -2.31546 0
M  V30 20101 O 1969.4 -5.99464 -0.541001 0
M  V30 20102 H 1973.23 -2.94557 0.739579 0
M  V30 20103 H 1970.81 -1.43162 0.427207 0
M  V30 20104 H 1972.7 -3.93639 -1.5042 0
M  V30 20105 H 1971.37 -2.75623 -1.69746 0
M  V30 20106 H 1970.28 -3.71839 0.410667 0
M  V30 20107 H 1971.61 -4.89438 0.520737 0
M  V30 20108 N 1973.26 -0.409806 -1.52179 0
M  V30 20109 C 1974.51 0.166003 -2.02119 0
M  V30 20110 C 1974.84 1.44732 -1.29484 0
M  V30 20111 O 1974.12 1.90314 -0.401362 0
M  V30 20112 C 1974.4 0.413015 -3.57724 0
M  V30 20113 C 1974.25 -0.885028 -4.41007 0
M  V30 20114 C 1975.57 1.19486 -4.2357 0
M  V30 20115 H 1972.69 0.0588585 -0.734646 0
M  V30 20116 H 1975.33 -0.543405 -1.82063 0
M  V30 20117 H 1973.48 1.01732 -3.74944 0
M  V30 20118 H 1975.16 -1.5212 -4.35497 0
M  V30 20119 H 1973.4 -1.49585 -4.07194 0
M  V30 20120 H 1974.07 -0.66658 -5.47961 0
M  V30 20121 H 1976.55 0.683238 -4.10452 0
M  V30 20122 H 1975.42 1.33644 -5.32382 0
M  V30 20123 H 1975.68 2.21566 -3.82571 0
M  V30 20124 O 1974.78 1.59038 -0.280944 0
M  V30 20125 H 1975.47 1.91549 0.287836 0
M  V30 END ATOM
M  V30 BEGIN BOND
M  V30 END BOND
M  V30 END CTAB
M  END
$$$$
