drugbank_target|P16118 6-phosphofructo-2-kinase/fructose-2,6-bisphosphatase 1 (DB02393; DB02515; DB02930; DB04137; DB04493)
 OpenBabel12092119473D

  0  0  0     0  0            999 V3000
M  V30 BEGIN CTAB
M  V30 COUNTS 7645 7730 0 0 0
M  V30 BEGIN ATOM
M  V30 1 H -0.908 1.98254 -0.117106 0
M  V30 2 N 0 1.576 0 0
M  V30 3 C 0.933 2.03868 1.02534 0
M  V30 4 C 1.911 0.928543 1.3348 0
M  V30 5 O 3.095 1.19667 1.45644 0
M  V30 6 C 0.222 2.43627 2.35294 0
M  V30 7 C -0.732 3.65373 2.2001 0
M  V30 8 S 0.101 5.13292 1.52614 0
M  V30 9 C 1.257 5.56322 2.86805 0
M  V30 10 H 1.49 2.90518 0.631377 0
M  V30 11 H -0.977 1.52953 0.210867 0
M  V30 12 H 0.981 2.67203 3.11629 0
M  V30 13 H -0.358 1.57376 2.7183 0
M  V30 14 H -1.165 3.90944 3.18086 0
M  V30 15 H -1.563 3.418 1.51819 0
M  V30 16 H 0.729 5.58782 3.83104 0
M  V30 17 H 1.672 6.56266 2.65933 0
M  V30 18 H 2.08 4.83886 2.90714 0
M  V30 19 N 1.4781 -0.272755 1.55222 0
M  V30 20 C 2.7031 -1.02683 1.80197 0
M  V30 21 C 3.1281 -1.79142 0.573551 0
M  V30 22 O 2.4861 -1.74917 -0.476849 0
M  V30 23 C 2.5341 -1.9609 3.02624 0
M  V30 24 O 1.6381 -3.04863 2.77727 0
M  V30 25 H 0.9791 -0.293557 0.595584 0
M  V30 26 H 3.5091 -0.30159 2.02365 0
M  V30 27 H 3.5191 -2.38039 3.31363 0
M  V30 28 H 2.1941 -1.39851 3.91682 0
M  V30 29 H 0.7711 -2.67228 2.60084 0
M  V30 30 N 2.9562 -1.48159 -0.537278 0
M  V30 31 C 4.3672 -1.49429 -1.11928 0
M  V30 32 C 4.7182 -0.26 -1.9447 0
M  V30 33 O 3.8432 0.633489 -2.0692 0
M  V30 34 C 4.4382 -2.70758 -2.03656 0
M  V30 35 C 2.9972 -2.74923 -2.57088 0
M  V30 36 C 2.1442 -2.42835 -1.3389 0
M  V30 37 H 5.0952 -1.55381 -0.322886 0
M  V30 38 H 5.1162 -2.48861 -2.87834 0
M  V30 39 H 4.6282 -3.60575 -1.43553 0
M  V30 40 H 2.7292 -1.89296 -3.20933 0
M  V30 41 H 2.8422 -3.76157 -2.9672 0
M  V30 42 H 1.2062 -1.93836 -1.65226 0
M  V30 43 H 1.9892 -3.34884 -0.755504 0
M  V30 44 N 4.4343 0.785586 -1.36625 0
M  V30 45 C 5.3443 1.92964 -1.33425 0
M  V30 46 C 6.3603 1.72394 -0.235851 0
M  V30 47 O 7.5363 1.95866 -0.468878 0
M  V30 48 C 4.6013 3.27884 -1.12662 0
M  V30 49 C 3.6623 3.61204 -2.32013 0
M  V30 50 C 2.8953 4.89687 -2.12231 0
M  V30 51 O 3.1183 5.59704 -1.09945 0
M  V30 52 O 2.0523 5.21752 -3.00098 0
M  V30 53 H 5.8783 1.98613 -2.29753 0
M  V30 54 H 3.4633 0.926384 -1.17211 0
M  V30 55 H 5.3453 4.08614 -1.03016 0
M  V30 56 H 4.0203 3.23118 -0.193991 0
M  V30 57 H 2.9273 2.80765 -2.47228 0
M  V30 58 H 4.2603 3.70698 -3.23796 0
M  V30 59 N 5.9124 1.20967 1.01018 0
M  V30 60 C 6.8454 0.907578 2.09376 0
M  V30 61 C 7.8234 -0.142868 1.61971 0
M  V30 62 O 9.0074 -0.0150391 1.88494 0
M  V30 63 C 6.1344 0.361791 3.36762 0
M  V30 64 C 5.1804 1.39423 4.03068 0
M  V30 65 S 6.0134 2.96159 4.4615 0
M  V30 66 C 7.1694 2.43173 5.7673 0
M  V30 67 H 7.4024 1.82519 2.34678 0
M  V30 68 H 4.9354 1.03884 1.14225 0
M  V30 69 H 6.8934 0.0534523 4.10465 0
M  V30 70 H 5.5544 -0.53443 3.0952 0
M  V30 71 H 4.7474 0.961853 4.94737 0
M  V30 72 H 4.3494 1.65038 3.35617 0
M  V30 73 H 6.6414 1.83335 6.52223 0
M  V30 74 H 7.5844 3.33264 6.24773 0
M  V30 75 H 7.9924 1.85069 5.33301 0
M  V30 76 N 7.3905 -1.2043 1.01659 0
M  V30 77 C 8.6385 -1.89423 0.704522 0
M  V30 78 C 8.9595 -1.79231 -0.768197 0
M  V30 79 O 8.2295 -1.1947 -1.55254 0
M  V30 80 H 6.8095 -0.701178 0.257602 0
M  V30 81 H 9.4715 -1.4626 1.28818 0
M  V30 82 H 8.5675 -2.96052 0.987916 0
M  V30 83 N 8.8686 -0.792821 -1.36206 0
M  V30 84 C 9.7786 -0.194808 -2.3379 0
M  V30 85 C 10.7946 0.654869 -1.61206 0
M  V30 86 O 11.9706 0.569856 -1.9317 0
M  V30 87 C 9.0356 0.657721 -3.40404 0
M  V30 88 C 8.0966 -0.210849 -4.28782 0
M  V30 89 C 7.3296 0.601086 -5.30304 0
M  V30 90 O 7.5526 1.83682 -5.40016 0
M  V30 91 O 6.4866 -0.000808277 -6.019 0
M  V30 92 H 10.3126 -1.00172 -2.86704 0
M  V30 93 H 7.8976 -0.554341 -1.38735 0
M  V30 94 H 9.7796 1.14375 -4.05581 0
M  V30 95 H 8.4546 1.44247 -2.89784 0
M  V30 96 H 7.3616 -0.743714 -3.66633 0
M  V30 97 H 8.6946 -0.959195 -4.82763 0
M  V30 98 N 10.3467 1.47872 -0.545128 0
M  V30 99 C 11.2767 2.32661 0.197793 0
M  V30 100 C 12.2577 1.43041 0.920504 0
M  V30 101 O 13.4427 1.71912 0.90333 0
M  V30 102 C 10.5727 3.24569 1.23582 0
M  V30 103 C 9.5267 4.23333 0.630323 0
M  V30 104 C 8.8527 5.0448 1.77211 0
M  V30 105 C 10.1527 5.20704 -0.407974 0
M  V30 106 H 11.8467 2.95024 -0.510045 0
M  V30 107 H 9.3927 1.4187 -0.246731 0
M  V30 108 H 11.3457 3.8272 1.76362 0
M  V30 109 H 10.0697 2.60236 1.97344 0
M  V30 110 H 8.7287 3.6639 0.123922 0
M  V30 111 H 8.3767 4.36561 2.49847 0
M  V30 112 H 8.0767 5.71339 1.37281 0
M  V30 113 H 9.6007 5.65487 2.3034 0
M  V30 114 H 11.0147 5.7329 0.033305 0
M  V30 115 H 9.4117 5.95699 -0.725486 0
M  V30 116 H 10.4817 4.66917 -1.30828 0
M  V30 117 N 11.8248 0.280983 1.55075 0
M  V30 118 C 13.0528 -0.337293 2.04132 0
M  V30 119 C 13.4678 -1.4903 1.15912 0
M  V30 120 O 12.8248 -1.81606 0.180459 0
M  V30 121 C 12.8758 -0.812706 3.52246 0
M  V30 122 O 12.5968 0.294387 4.3711 0
M  V30 123 C 14.0978 -1.4982 4.17216 0
M  V30 124 H 11.3178 -0.0761638 0.666663 0
M  V30 125 H 13.8618 0.414787 2.00249 0
M  V30 126 H 12.0168 -1.51486 3.56554 0
M  V30 127 H 12.4308 -0.0721325 5.2445 0
M  V30 128 H 13.9048 -1.7822 5.22438 0
M  V30 129 H 14.3818 -2.43168 3.65741 0
M  V30 130 H 14.9878 -0.839742 4.16927 0
M  V30 131 N 13.3029 -1.57598 0.00835791 0
M  V30 132 C 14.2349 -2.05811 -1.00868 0
M  V30 133 C 15.2479 -0.977579 -1.30182 0
M  V30 134 O 16.4369 -1.25421 -1.27011 0
M  V30 135 C 13.5369 -2.45016 -2.34137 0
M  V30 136 C 12.7099 -3.75903 -2.23643 0
M  V30 137 C 11.7689 -4.01884 -3.3967 0
M  V30 138 O 10.7949 -4.72433 -3.17483 0
M  V30 139 N 11.9969 -3.50432 -4.62793 0
M  V30 140 H 14.7619 -2.93684 -0.597458 0
M  V30 141 H 12.3229 -1.60909 -0.178852 0
M  V30 142 H 14.3149 -2.59506 -3.10546 0
M  V30 143 H 12.8849 -1.62618 -2.66972 0
M  V30 144 H 12.1049 -3.7141 -1.32091 0
M  V30 145 H 13.3929 -4.61695 -2.13812 0
M  V30 146 H 12.7909 -2.93317 -4.83716 0
M  V30 147 H 11.3479 -3.70236 -5.3644 0
M  V30 148 N 14.781 0.264519 -1.55364 0
M  V30 149 C 16.009 1.013 -1.80405 0
M  V30 150 C 16.424 1.79618 -0.581622 0
M  V30 151 O 15.781 1.76879 0.449468 0
M  V30 152 C 15.832 1.96487 -3.03439 0
M  V30 153 O 15.553 1.21341 -4.20961 0
M  V30 154 C 17.054 2.83079 -3.41147 0
M  V30 155 H 14.274 0.298875 -0.600762 0
M  V30 156 H 16.818 0.292736 -2.02394 0
M  V30 157 H 14.973 2.63965 -2.83551 0
M  V30 158 H 15.387 1.85573 -4.90574 0
M  V30 159 H 16.861 3.4565 -4.30384 0
M  V30 160 H 17.338 3.53286 -2.60932 0
M  V30 161 H 17.944 2.2108 -3.63323 0
M  V30 162 N 16.2591 1.48442 0.529413 0
M  V30 163 C 17.6751 1.34575 0.858004 0
M  V30 164 C 17.8751 0.3572 1.98309 0
M  V30 165 O 16.9311 -0.221379 2.51528 0
M  V30 166 C 18.2441 2.74617 1.22499 0
M  V30 167 C 19.7921 2.83109 1.33484 0
M  V30 168 C 20.2671 4.23854 1.73526 0
M  V30 169 N 21.7581 4.2653 1.80628 0
M  V30 170 C 22.4931 5.32372 2.12997 0
M  V30 171 N 21.9891 6.48491 2.43786 0
M  V30 172 N 23.7821 5.19766 2.14008 0
M  V30 173 H 15.9331 2.1133 -0.212925 0
M  V30 174 H 18.1961 0.947439 -0.0326199 0
M  V30 175 H 17.9021 3.4852 0.471905 0
M  V30 176 H 17.7761 3.08177 2.17501 0
M  V30 177 H 20.1631 2.09462 2.0787 0
M  V30 178 H 20.2441 2.53168 0.366027 0
M  V30 179 H 19.8881 4.98018 0.997013 0
M  V30 180 H 19.8181 4.5124 2.71459 0
M  V30 181 H 22.3091 3.42772 1.59108 0
M  V30 182 H 22.6221 7.24993 2.67592 0
M  V30 183 H 20.9671 6.51765 2.41304 0
M  V30 184 H 24.1581 4.28066 1.89412 0
M  V30 185 H 24.3311 6.02354 2.38902 0
M  V30 186 N 17.7372 -0.778329 1.37039 0
M  V30 187 C 18.6672 -1.90546 1.34962 0
M  V30 188 C 19.6482 -1.68681 0.219274 0
M  V30 189 O 20.8332 -1.89634 0.418624 0
M  V30 190 C 17.9632 -3.27734 1.14925 0
M  V30 191 C 16.9172 -3.64147 2.24902 0
M  V30 192 C 16.2432 -4.99806 1.89996 0
M  V30 193 C 17.5432 -3.71579 3.67051 0
M  V30 194 H 19.2372 -1.92541 2.29277 0
M  V30 195 H 16.7832 -0.924948 1.10366 0
M  V30 196 H 18.7362 -4.06215 1.12104 0
M  V30 197 H 17.4602 -3.26154 0.170631 0
M  V30 198 H 16.1192 -2.8797 2.26868 0
M  V30 199 H 15.7672 -4.94759 0.906796 0
M  V30 200 H 15.4672 -5.25139 2.63634 0
M  V30 201 H 16.9912 -5.80694 1.88749 0
M  V30 202 H 18.4052 -4.40227 3.67251 0
M  V30 203 H 16.8022 -4.08405 4.39688 0
M  V30 204 H 17.8722 -2.72404 4.01154 0
M  V30 205 N 19.2153 -1.21501 -1.00376 0
M  V30 206 C 20.1473 -0.933174 -2.09343 0
M  V30 207 C 21.1603 0.0840896 -1.62583 0
M  V30 208 O 22.3493 -0.148563 -1.77881 0
M  V30 209 C 19.4493 -0.379869 -3.36764 0
M  V30 210 C 18.6223 -1.45176 -4.12605 0
M  V30 211 C 17.6813 -0.907476 -5.18316 0
M  V30 212 O 16.7073 -1.5912 -5.46507 0
M  V30 213 N 17.9093 0.276649 -5.7984 0
M  V30 214 H 20.6743 -1.87124 -2.34104 0
M  V30 215 H 18.2353 -1.12043 -1.16867 0
M  V30 216 H 20.2273 -0.00131488 -4.047 0
M  V30 217 H 18.7973 0.463048 -3.09151 0
M  V30 218 H 18.0173 -2.00411 -3.39454 0
M  V30 219 H 19.3053 -2.17328 -4.6005 0
M  V30 220 H 18.7033 0.849147 -5.59291 0
M  V30 221 H 17.2603 0.596702 -6.49063 0
M  V30 222 N 20.6934 1.19889 -1.02296 0
M  V30 223 C 21.6404 2.22901 -0.598651 0
M  V30 224 C 22.6104 1.61588 0.384521 0
M  V30 225 O 23.7954 1.88697 0.282522 0
M  V30 226 C 20.9354 3.45063 0.0504476 0
M  V30 227 C 20.0484 4.20783 -0.978053 0
M  V30 228 C 19.1834 5.30356 -0.299338 0
M  V30 229 C 18.2224 5.97826 -1.31416 0
M  V30 230 N 17.3594 6.98975 -0.661667 0
M  V30 231 H 22.1994 2.58554 -1.48169 0
M  V30 232 H 19.7364 1.27039 -0.741584 0
M  V30 233 H 21.6944 4.14831 0.443971 0
M  V30 234 H 20.3244 3.10084 0.897097 0
M  V30 235 H 19.3764 3.50018 -1.48969 0
M  V30 236 H 20.6884 4.67109 -1.74958 0
M  V30 237 H 19.8424 6.06516 0.149347 0
M  V30 238 H 18.5814 4.85084 0.504445 0
M  V30 239 H 17.5864 5.20422 -1.77317 0
M  V30 240 H 18.8114 6.45183 -2.11933 0
M  V30 241 H 16.7574 6.55886 0.122132 0
M  V30 242 H 16.6744 7.43461 -1.37117 0
M  V30 243 H 17.9424 7.7914 -0.236785 0
M  V30 244 N 22.1715 0.800033 1.35784 0
M  V30 245 C 23.4205 0.37387 1.98205 0
M  V30 246 C 23.7335 -1.06302 1.64193 0
M  V30 247 O 24.9395 -1.59198 2.19928 0
M  V30 248 C 23.3955 0.617532 3.54562 0
M  V30 249 C 23.0035 2.06654 3.9749 0
M  V30 250 C 24.7475 0.256401 4.23725 0
M  V30 251 C 22.6545 2.2563 5.46667 0
M  V30 252 H 21.5845 0.136055 0.741623 0
M  V30 253 H 24.2355 0.983166 1.54939 0
M  V30 254 H 22.6175 -0.0616248 3.95952 0
M  V30 255 H 23.7915 2.78296 3.67271 0
M  V30 256 H 22.1065 2.38691 3.41197 0
M  V30 257 H 24.7035 0.376318 5.33374 0
M  V30 258 H 25.0465 -0.796692 4.08606 0
M  V30 259 H 25.5795 0.889214 3.87734 0
M  V30 260 H 22.3185 3.2936 5.66747 0
M  V30 261 H 21.8385 1.58504 5.78478 0
M  V30 262 H 23.5175 2.06861 6.1304 0
M  V30 263 N 23.6496 -1.47581 0.552962 0
M  V30 264 C 24.8956 -2.03369 0.0355807 0
M  V30 265 C 25.2506 -1.42016 -1.29805 0
M  V30 266 O 24.5436 -0.564917 -1.83083 0
M  V30 267 C 24.7376 -3.57199 -0.119728 0
M  V30 268 C 24.5666 -4.33468 1.1973 0
M  V30 269 C 23.3366 -4.7353 1.76345 0
M  V30 270 C 25.5346 -4.68866 2.11351 0
M  V30 271 N 23.5166 -5.34426 3.02097 0
M  V30 272 C 24.8876 -5.3002 3.21681 0
M  V30 273 C 26.9426 -4.50795 2.11397 0
M  V30 274 C 25.6456 -5.75011 4.32151 0
M  V30 275 C 27.6716 -4.96782 3.20876 0
M  V30 276 C 27.0336 -5.57981 4.29926 0
M  V30 277 H 23.1326 -0.780058 0.0550806 0
M  V30 278 H 25.7166 -1.80117 0.739315 0
M  V30 279 H 23.8876 -3.80227 -0.792579 0
M  V30 280 H 25.6196 -3.99627 -0.638792 0
M  V30 281 H 22.3746 -4.55352 1.30196 0
M  V30 282 H 22.7986 -5.69421 3.66182 0
M  V30 283 H 27.4406 -4.0284 1.28372 0
M  V30 284 H 25.1586 -6.21959 5.15938 0
M  V30 285 H 28.7446 -4.84573 3.21994 0
M  V30 286 H 27.6246 -5.92918 5.13243 0
M  V30 287 N 25.1277 -0.289203 -1.54924 0
M  V30 288 C 26.3767 0.324231 -1.99077 0
M  V30 289 C 26.6897 1.5591 -1.18117 0
M  V30 290 O 27.8957 2.24637 -1.52481 0
M  V30 291 C 26.3517 0.628209 -3.54375 0
M  V30 292 C 25.9597 -0.587647 -4.44129 0
M  V30 293 C 27.7037 1.20349 -4.07083 0
M  V30 294 C 25.6107 -0.257475 -5.90839 0
M  V30 295 H 24.5407 0.124924 -0.743579 0
M  V30 296 H 27.1917 -0.396063 -1.79175 0
M  V30 297 H 25.5737 1.40778 -3.70132 0
M  V30 298 H 26.7477 -1.36418 -4.40144 0
M  V30 299 H 25.0627 -1.08074 -4.0213 0
M  V30 300 H 27.6597 1.46456 -5.14252 0
M  V30 301 H 28.0027 2.14195 -3.56968 0
M  V30 302 H 28.5357 0.485889 -3.94821 0
M  V30 303 H 25.2747 -1.16419 -6.45079 0
M  V30 304 H 24.7947 0.482018 -5.9786 0
M  V30 305 H 26.4737 0.145238 -6.46837 0
M  V30 306 N 26.6058 1.57591 -0.0167156 0
M  V30 307 C 28.0168 1.79201 0.523834 0
M  V30 308 C 28.3678 0.925796 1.72984 0
M  V30 309 O 27.4928 0.132792 2.15992 0
M  V30 310 C 28.0878 3.25 0.957091 0
M  V30 311 C 26.6468 3.47648 1.44283 0
M  V30 312 C 25.7938 2.74374 0.401757 0
M  V30 313 H 28.7448 1.56831 -0.242816 0
M  V30 314 H 28.7658 3.34031 1.82219 0
M  V30 315 H 28.2778 3.88019 0.0791415 0
M  V30 316 H 26.3788 2.89866 2.34113 0
M  V30 317 H 26.4918 4.56352 1.45877 0
M  V30 318 H 24.8558 2.39485 0.867121 0
M  V30 319 H 25.6388 3.40102 -0.467513 0
M  V30 320 N 28.0839 -0.256276 1.55502 0
M  V30 321 C 29.0339 -1.31981 1.85916 0
M  V30 322 C 30.0179 -1.43927 0.719296 0
M  V30 323 O 31.2099 -1.47326 0.981019 0
M  V30 324 C 28.3389 -2.67703 2.14918 0
M  V30 325 C 27.4249 -2.59801 3.35208 0
M  V30 326 N 27.8159 -2.21524 4.54709 0
M  V30 327 C 26.1139 -2.90832 3.38131 0
M  V30 328 C 26.8149 -2.24024 5.36832 0
M  V30 329 N 25.7909 -2.63158 4.75656 0
M  V30 330 H 29.5929 -1.01423 2.75845 0
M  V30 331 H 27.1069 -0.464911 1.55603 0
M  V30 332 H 29.1039 -3.44445 2.34869 0
M  V30 333 H 27.7639 -2.99137 1.26282 0
M  V30 334 H 28.7749 -1.93223 4.80505 0
M  V30 335 H 25.4519 -3.26867 2.59739 0
M  V30 336 H 26.8419 -1.9685 6.42417 0
M  V30 337 N 29.562 -1.4872 -0.521534 0
M  V30 338 C 30.787 -1.61101 -1.30618 0
M  V30 339 C 31.212 -0.274611 -1.86085 0
M  V30 340 O 30.57 0.754937 -1.64834 0
M  V30 341 C 30.618 -2.66709 -2.4269 0
M  V30 342 O 29.722 -2.24456 -3.45967 0
M  V30 343 H 29.063 -0.539921 -0.386499 0
M  V30 344 H 31.593 -1.94767 -0.626645 0
M  V30 345 H 31.603 -2.88245 -2.88754 0
M  V30 346 H 30.278 -3.63727 -2.01682 0
M  V30 347 H 28.855 -2.13168 -3.05964 0
M  V30 348 N 31.0401 0.771051 -1.3745 0
M  V30 349 C 32.2651 1.56529 -1.36065 0
M  V30 350 C 32.6901 1.88029 0.0515859 0
M  V30 351 O 32.0481 1.49282 1.02882 0
M  V30 352 C 32.0961 2.85187 -2.20683 0
M  V30 353 O 31.2001 3.79593 -1.61193 0
M  V30 354 H 30.5411 0.47411 -0.464883 0
M  V30 355 H 33.0711 0.954269 -1.80983 0
M  V30 356 H 33.0811 3.34283 -2.33921 0
M  V30 357 H 31.7561 2.61588 -3.23334 0
M  V30 358 H 30.3331 3.38239 -1.56999 0
M  V30 359 N 32.5182 1.22032 0.997298 0
M  V30 360 C 33.7662 1.04016 1.73278 0
M  V30 361 C 34.0872 -0.426255 1.90284 0
M  V30 362 O 33.3572 -1.30694 1.45931 0
M  V30 363 H 31.9372 0.381897 0.642 0
M  V30 364 H 34.5992 1.5347 1.20137 0
M  V30 365 H 33.6952 1.51441 2.72896 0
M  V30 366 N 33.9963 -1.19345 1.0293 0
M  V30 367 C 35.2213 -1.93538 0.745511 0
M  V30 368 C 35.6463 -1.75007 -0.689511 0
M  V30 369 O 35.0043 -1.05265 -1.47611 0
M  V30 370 C 35.0523 -3.43336 1.10239 0
M  V30 371 O 34.1563 -4.11806 0.221289 0
M  V30 372 H 33.4973 -0.604193 0.275404 0
M  V30 373 H 36.0273 -1.5141 1.37609 0
M  V30 374 H 36.0373 -3.94004 1.05947 0
M  V30 375 H 34.7123 -3.56146 2.14786 0
M  V30 376 H 33.2893 -3.715 0.322842 0
M  V30 377 N 35.4744 -0.807222 -1.35358 0
M  V30 378 C 36.6994 -0.399309 -2.0352 0
M  V30 379 C 37.1244 0.981986 -1.60433 0
M  V30 380 O 36.4824 1.63601 -0.781299 0
M  V30 381 C 36.5304 -0.491552 -3.57234 0
M  V30 382 O 35.6344 0.494754 -4.09421 0
M  V30 383 H 34.9754 -0.166682 -0.642739 0
M  V30 384 H 37.5054 -1.09328 -1.72941 0
M  V30 385 H 37.5154 -0.361588 -4.06395 0
M  V30 386 H 36.1904 -1.49907 -3.87944 0
M  V30 387 H 34.7674 0.324977 -3.71481 0
M  V30 388 N 36.9525 1.47285 -0.560781 0
M  V30 389 C 38.3685 1.58065 -0.22081 0
M  V30 390 C 38.5685 1.55892 1.27671 0
M  V30 391 O 37.6245 1.46422 2.0571 0
M  V30 392 C 38.9375 2.88418 -0.850625 0
M  V30 393 C 40.4855 3.02009 -0.822184 0
M  V30 394 C 40.9605 4.35066 -1.43113 0
M  V30 395 N 42.4515 4.41711 -1.39448 0
M  V30 396 C 43.1865 5.43237 -1.83525 0
M  V30 397 N 42.6825 6.51555 -2.35474 0
M  V30 398 N 44.4755 5.34304 -1.74574 0
M  V30 399 H 36.6265 1.46941 -1.53369 0
M  V30 400 H 38.8895 0.699558 -0.639783 0
M  V30 401 H 38.5955 2.95755 -1.9032 0
M  V30 402 H 38.4695 3.75612 -0.345773 0
M  V30 403 H 40.8565 2.94266 0.221714 0
M  V30 404 H 40.9375 2.16347 -1.36483 0
M  V30 405 H 40.5815 4.43565 -2.47412 0
M  V30 406 H 40.5115 5.19465 -0.863899 0
M  V30 407 H 43.0025 3.64027 -1.01452 0
M  V30 408 H 43.3155 7.25203 -2.67021 0
M  V30 409 H 41.6605 6.52435 -2.39487 0
M  V30 410 H 44.8515 4.48581 -1.33763 0
M  V30 411 H 45.0245 6.13288 -2.09242 0
M  V30 412 N 38.4306 0.297415 1.54768 0
M  V30 413 C 39.3606 -0.573494 2.26348 0
M  V30 414 C 40.3416 -1.14085 1.26169 0
M  V30 415 O 41.5266 -1.17086 1.54934 0
M  V30 416 C 38.6566 -1.74716 3.00153 0
M  V30 417 C 37.6106 -1.31032 4.07449 0
M  V30 418 C 36.9366 -2.56887 4.68949 0
M  V30 419 C 38.2366 -0.444183 5.20408 0
M  V30 420 H 39.9306 0.0235131 2.99391 0
M  V30 421 H 37.4766 0.0127488 1.43994 0
M  V30 422 H 39.4296 -2.3625 3.48947 0
M  V30 423 H 38.1536 -2.37035 2.24682 0
M  V30 424 H 36.8126 -0.718066 3.59499 0
M  V30 425 H 36.4606 -3.17512 3.90122 0
M  V30 426 H 36.1606 -2.2836 5.41411 0
M  V30 427 H 37.6846 -3.19229 5.20505 0
M  V30 428 H 39.0986 -0.9651 5.65118 0
M  V30 429 H 37.4956 -0.252846 5.99567 0
M  V30 430 H 38.5656 0.531609 4.81977 0
M  V30 431 N 39.9087 -1.5758 0.0250728 0
M  V30 432 C 40.8407 -2.06869 -0.986796 0
M  V30 433 C 41.8537 -0.991332 -1.29137 0
M  V30 434 O 43.0427 -1.26761 -1.25674 0
M  V30 435 C 40.1427 -2.47486 -2.31525 0
M  V30 436 C 39.3157 -3.78253 -2.19643 0
M  V30 437 C 38.3747 -4.05464 -3.35388 0
M  V30 438 O 37.4007 -4.75774 -3.12454 0
M  V30 439 N 38.6027 -3.55321 -4.59051 0
M  V30 440 H 41.3677 -2.94302 -0.566276 0
M  V30 441 H 38.9287 -1.6109 -0.161776 0
M  V30 442 H 40.9207 -2.62785 -3.07776 0
M  V30 443 H 39.4907 -1.65441 -2.65232 0
M  V30 444 H 38.7107 -3.7279 -1.28144 0
M  V30 445 H 39.9987 -4.63936 -2.08903 0
M  V30 446 H 39.3967 -2.98431 -4.80578 0
M  V30 447 H 37.9537 -3.75905 -5.32483 0
M  V30 448 N 41.3868 0.248026 -1.55636 0
M  V30 449 C 42.8028 0.596483 -1.48035 0
M  V30 450 C 43.0028 1.88386 -0.715039 0
M  V30 451 O 42.0588 2.51319 -0.243944 0
M  V30 452 C 43.3718 0.700258 -2.92433 0
M  V30 453 C 44.9198 0.792659 -3.02797 0
M  V30 454 C 45.3948 0.928005 -4.485 0
M  V30 455 N 46.8858 0.992903 -4.52433 0
M  V30 456 C 47.6208 1.11687 -5.62418 0
M  V30 457 N 47.1168 1.20645 -6.82214 0
M  V30 458 N 48.9098 1.14994 -5.50212 0
M  V30 459 H 41.0608 -0.597109 -2.03834 0
M  V30 460 H 43.3238 -0.205925 -0.925364 0
M  V30 461 H 43.0298 -0.175658 -3.51261 0
M  V30 462 H 42.9038 1.57255 -3.42857 0
M  V30 463 H 45.2908 1.65903 -2.4405 0
M  V30 464 H 45.3718 -0.104762 -2.55585 0
M  V30 465 H 45.0158 0.0661971 -5.07857 0
M  V30 466 H 44.9458 1.84045 -4.93391 0
M  V30 467 H 47.4368 0.935064 -3.66149 0
M  V30 468 H 47.7498 1.30008 -7.61786 0
M  V30 469 H 46.0948 1.17605 -6.84977 0
M  V30 470 H 49.2858 1.07643 -4.55555 0
M  V30 471 H 49.4588 1.24311 -6.35965 0
M  V30 472 N 42.8649 1.48995 0.513639 0
M  V30 473 C 44.2809 1.35478 0.843682 0
M  V30 474 C 44.4809 0.378213 1.97919 0
M  V30 475 O 43.5369 -0.194689 2.51748 0
M  V30 476 C 44.8499 2.75901 1.1958 0
M  V30 477 C 46.3979 2.84509 1.30474 0
M  V30 478 C 46.8729 4.25671 1.69021 0
M  V30 479 N 48.3639 4.28422 1.76094 0
M  V30 480 C 49.0989 5.34601 2.07338 0
M  V30 481 N 48.5949 6.5104 2.36894 0
M  V30 482 N 50.3879 5.22007 2.08483 0
M  V30 483 H 42.5389 2.11092 -0.235328 0
M  V30 484 H 44.8019 0.947039 -0.0426669 0
M  V30 485 H 44.5079 3.49001 0.434913 0
M  V30 486 H 44.3819 3.10467 2.1422 0
M  V30 487 H 46.7689 2.11655 2.05637 0
M  V30 488 H 46.8499 2.53542 0.339155 0
M  V30 489 H 46.4939 4.99048 0.944135 0
M  V30 490 H 46.4239 4.54094 2.66658 0
M  V30 491 H 48.9149 3.44441 1.55464 0
M  V30 492 H 49.2279 7.2779 2.59887 0
M  V30 493 H 47.5729 6.54287 2.34378 0
M  V30 494 H 50.7639 4.30051 1.84861 0
M  V30 495 H 50.9369 6.04854 2.325 0
M  V30 496 N 44.343 -0.763751 1.37857 0
M  V30 497 C 45.759 -1.06542 1.18832 0
M  V30 498 C 45.959 -2.01478 0.0299722 0
M  V30 499 O 45.015 -2.4458 -0.627447 0
M  V30 500 C 46.328 -1.65525 2.51042 0
M  V30 501 C 47.876 -1.77745 2.57635 0
M  V30 502 C 48.351 -2.4014 3.89996 0
M  V30 503 N 49.842 -2.47582 3.91481 0
M  V30 504 C 50.577 -2.96732 4.9065 0
M  V30 505 N 50.073 -3.45993 6.00217 0
M  V30 506 N 51.866 -2.95679 4.78048 0
M  V30 507 H 44.017 -0.133556 2.1198 0
M  V30 508 H 46.28 -0.121879 0.940133 0
M  V30 509 H 45.986 -1.03236 3.36207 0
M  V30 510 H 45.86 -2.64719 2.68707 0
M  V30 511 H 48.247 -2.39164 1.72872 0
M  V30 512 H 48.328 -0.772836 2.43846 0
M  V30 513 H 47.972 -1.79358 4.75177 0
M  V30 514 H 47.902 -3.41223 4.01092 0
M  V30 515 H 50.393 -2.1273 3.12337 0
M  V30 516 H 50.706 -3.81922 6.7183 0
M  V30 517 H 49.051 -3.44077 6.03851 0
M  V30 518 H 52.242 -2.56499 3.91568 0
M  V30 519 H 52.415 -3.33672 5.55488 0
M  V30 520 N 45.8211 -1.22559 -0.990812 0
M  V30 521 C 47.0691 -1.04933 -1.72724 0
M  V30 522 C 47.3901 0.416158 -1.90508 0
M  V30 523 O 46.6601 1.29918 -1.46622 0
M  V30 524 H 45.2401 -0.385296 -0.639965 0
M  V30 525 H 47.9021 -1.54105 -1.19322 0
M  V30 526 H 46.9981 -1.52886 -2.72089 0
M  V30 527 N 47.2992 1.18797 -1.03562 0
M  V30 528 C 48.5242 1.9314 -0.755764 0
M  V30 529 C 48.9492 1.7537 0.68022 0
M  V30 530 O 48.3072 1.06046 1.47051 0
M  V30 531 C 48.3552 3.42747 -1.12058 0
M  V30 532 O 47.4592 4.11683 -0.243124 0
M  V30 533 H 46.8002 0.602724 -0.278604 0
M  V30 534 H 49.3302 1.50678 -1.3841 0
M  V30 535 H 49.3402 3.93437 -1.08035 0
M  V30 536 H 48.0152 3.55002 -2.16672 0
M  V30 537 H 46.5922 3.71323 -0.342539 0
M  V30 538 N 48.7773 0.814389 1.34928 0
M  V30 539 C 50.0023 0.410097 2.03305 0
M  V30 540 C 50.4273 -0.973464 1.60951 0
M  V30 541 O 49.7853 -1.63185 0.789964 0
M  V30 542 C 49.8333 0.51049 3.56968 0
M  V30 543 O 48.9373 -0.473035 4.09678 0
M  V30 544 H 48.2783 0.170088 0.641846 0
M  V30 545 H 50.8083 1.10244 1.72358 0
M  V30 546 H 50.8183 0.383135 4.06197 0
M  V30 547 H 49.4933 1.51963 3.87144 0
M  V30 548 H 48.0703 -0.305272 3.71648 0
M  V30 549 N 50.2554 -1.46986 0.568584 0
M  V30 550 C 51.5044 -2.01646 0.0465894 0
M  V30 551 C 51.8174 -1.44721 -1.31587 0
M  V30 552 O 53.0234 -1.91113 -1.92842 0
M  V30 553 C 51.4794 -3.59885 0.032752 0
M  V30 554 C 51.0874 -4.25804 1.39266 0
M  V30 555 C 52.8314 -4.22255 -0.436038 0
M  V30 556 C 50.7384 -5.76081 1.33732 0
M  V30 557 H 49.6684 -0.753876 0.013647 0
M  V30 558 H 52.3194 -1.68864 0.718131 0
M  V30 559 H 50.7014 -3.8968 -0.704669 0
M  V30 560 H 51.8754 -4.07637 2.1487 0
M  V30 561 H 50.1904 -3.7547 1.80032 0
M  V30 562 H 52.7874 -5.32394 -0.49602 0
M  V30 563 H 53.1304 -3.90212 -1.45053 0
M  V30 564 H 53.6634 -3.97033 0.246877 0
M  V30 565 H 50.4024 -6.12761 2.32817 0
M  V30 566 H 49.9224 -5.96553 0.623267 0
M  V30 567 H 51.6014 -6.38518 1.0442 0
M  V30 568 N 51.7335 -0.305618 -1.54608 0
M  V30 569 C 53.1445 0.186098 -1.8577 0
M  V30 570 C 53.4955 1.53058 -1.22751 0
M  V30 571 O 52.6205 2.09888 -0.526893 0
M  V30 572 C 53.2155 0.344449 -3.37044 0
M  V30 573 C 51.7745 0.780384 -3.68221 0
M  V30 574 C 50.9215 -0.108554 -2.77087 0
M  V30 575 H 53.8725 -0.526485 -1.49712 0
M  V30 576 H 53.8935 1.17828 -3.61796 0
M  V30 577 H 53.4055 -0.634235 -3.82883 0
M  V30 578 H 51.5065 1.76945 -3.27904 0
M  V30 579 H 51.6195 0.596572 -4.75371 0
M  V30 580 H 49.9835 0.412931 -2.5133 0
M  V30 581 H 50.7665 -1.08368 -3.25747 0
M  V30 582 N 53.2116 1.57565 -0.0334293 0
M  V30 583 C 54.1436 2.0739 0.975811 0
M  V30 584 C 55.1566 0.998166 1.2861 0
M  V30 585 O 56.3456 1.27426 1.25 0
M  V30 586 C 53.4456 2.4871 2.30209 0
M  V30 587 C 52.6186 3.79413 2.17634 0
M  V30 588 C 51.6776 4.07237 3.33233 0
M  V30 589 O 50.7036 4.77425 3.09927 0
M  V30 590 N 51.9056 3.5775 4.5716 0
M  V30 591 H 54.6706 2.94598 0.55066 0
M  V30 592 H 52.2316 1.61173 0.15323 0
M  V30 593 H 54.2236 2.64413 3.06378 0
M  V30 594 H 52.7936 1.66845 2.64351 0
M  V30 595 H 52.0136 3.73465 1.26165 0
M  V30 596 H 53.3016 4.65038 2.0644 0
M  V30 597 H 52.6996 3.00976 4.78989 0
M  V30 598 H 51.2566 3.78724 5.30482 0
M  V30 599 N 54.6897 -0.239769 1.55765 0
M  V30 600 C 55.9367 -0.966801 1.7793 0
M  V30 601 C 56.2647 -1.85046 0.599015 0
M  V30 602 O 55.5197 -1.91197 -0.417395 0
M  V30 603 C 55.8187 -1.852 3.05672 0
M  V30 604 C 55.4847 -1.1231 4.36689 0
M  V30 605 C 54.1467 -0.921689 4.72291 0
M  V30 606 C 56.4987 -0.607019 5.17653 0
M  V30 607 C 53.8267 -0.191996 5.86386 0
M  V30 608 C 56.1787 0.109241 6.32506 0
M  V30 609 C 54.8427 0.322073 6.66723 0
M  V30 610 H 54.1127 -0.353778 0.651093 0
M  V30 611 H 56.7597 -0.23634 1.90036 0
M  V30 612 H 55.0647 -2.64975 2.8861 0
M  V30 613 H 56.7617 -2.41635 3.20021 0
M  V30 614 H 53.3517 -1.29004 4.08725 0
M  V30 615 H 57.5357 -0.750153 4.90598 0
M  V30 616 H 52.7917 -0.0166949 6.11398 0
M  V30 617 H 56.9657 0.516737 6.9448 0
M  V30 618 H 54.5927 0.88944 7.54979 0
M  V30 619 N 56.1678 -1.49265 -0.50573 0
M  V30 620 C 57.3958 -1.62215 -1.28429 0
M  V30 621 C 57.8108 -0.291697 -1.86533 0
M  V30 622 O 57.1678 0.722233 -1.67601 0
M  V30 623 C 57.2188 -2.68735 -2.41793 0
M  V30 624 O 56.9398 -3.96619 -1.86078 0
M  V30 625 C 58.4408 -2.92346 -3.3324 0
M  V30 626 H 55.6608 -0.546239 -0.389697 0
M  V30 627 H 58.2048 -1.95265 -0.607609 0
M  V30 628 H 56.3598 -2.38476 -3.053 0
M  V30 629 H 56.7738 -4.55256 -2.60465 0
M  V30 630 H 58.2478 -3.70623 -4.09075 0
M  V30 631 H 58.7248 -2.02081 -3.89948 0
M  V30 632 H 59.3308 -3.24003 -2.75503 0
M  V30 633 N 57.6459 0.756429 -1.3826 0
M  V30 634 C 58.5939 1.89149 -1.35372 0
M  V30 635 C 59.5879 1.67691 -0.24004 0
M  V30 636 O 60.7939 1.75294 -0.408919 0
M  V30 637 H 57.1689 0.622271 -0.422236 0
M  V30 638 H 59.1399 1.88701 -2.31159 0
M  V30 639 C 57.8889 3.26599 -1.19284 0
M  V30 640 H 57.2119 3.43695 -2.0424 0
M  V30 641 H 58.6519 4.06274 -1.21316 0
M  V30 642 C 57.1109 3.3675 0.100454 0
M  V30 643 O 57.6409 3.86951 1.07851 0
M  V30 644 N 55.8469 2.90179 0.15633 0
M  V30 645 H 55.3939 2.49517 -0.640253 0
M  V30 646 H 55.3519 2.97352 1.02123 0
M  V30 647 N 59.124 1.23083 0.984299 0
M  V30 648 C 60.349 1.088 1.76571 0
M  V30 649 C 60.774 -0.356657 1.84688 0
M  V30 650 O 60.132 -1.25788 1.30565 0
M  V30 651 C 60.18 1.71371 3.17277 0
M  V30 652 O 59.284 0.973213 4.00752 0
M  V30 653 H 58.625 0.381599 0.543395 0
M  V30 654 H 61.155 1.63057 1.23587 0
M  V30 655 H 61.165 1.76449 3.67872 0
M  V30 656 H 59.84 2.76493 3.10684 0
M  V30 657 H 58.417 0.999078 3.59267 0
M  V30 658 N 60.6021 -1.18246 1.0419 0
M  V30 659 C 62.0131 -1.69914 0.773698 0
M  V30 660 C 62.3641 -1.83085 -0.705297 0
M  V30 661 O 61.4891 -1.51123 -1.5489 0
M  V30 662 C 62.0841 -3.08619 1.39784 0
M  V30 663 C 60.6431 -3.57494 1.17792 0
M  V30 664 C 59.7901 -2.34013 1.48773 0
M  V30 665 H 62.7411 -1.02904 1.20816 0
M  V30 666 H 62.7621 -3.71958 0.801714 0
M  V30 667 H 62.2741 -2.99001 2.47426 0
M  V30 668 H 60.3751 -3.72406 0.120295 0
M  V30 669 H 60.4881 -4.40852 1.87581 0
M  V30 670 H 58.8521 -2.37986 0.907463 0
M  V30 671 H 59.6351 -2.27013 2.57527 0
M  V30 672 N 62.0802 -0.821533 -1.34494 0
M  V30 673 C 63.3082 -0.421884 -2.02553 0
M  V30 674 C 63.7232 0.971745 -1.61872 0
M  V30 675 O 63.0802 1.62864 -0.823496 0
M  V30 676 C 63.1312 -0.51285 -3.57844 0
M  V30 677 O 62.8522 -1.85155 -3.97051 0
M  V30 678 C 64.3532 -0.107921 -4.43169 0
M  V30 679 H 61.5732 -0.169482 -0.649243 0
M  V30 680 H 64.1172 -1.1093 -1.71798 0
M  V30 681 H 62.2722 0.126474 -3.87193 0
M  V30 682 H 62.6862 -1.82482 -4.91732 0
M  V30 683 H 64.1602 -0.222657 -5.51551 0
M  V30 684 H 64.6372 0.948401 -4.28838 0
M  V30 685 H 65.2432 -0.720989 -4.19144 0
M  V30 686 N 63.5583 1.46682 -0.576371 0
M  V30 687 C 64.4913 2.27243 0.208731 0
M  V30 688 C 65.4693 1.35238 0.902746 0
M  V30 689 O 66.6533 1.64641 0.917904 0
M  V30 690 C 63.7803 3.12802 1.29896 0
M  V30 691 C 62.8263 4.20524 0.711457 0
M  V30 692 S 63.6593 5.33548 -0.456781 0
M  V30 693 C 64.8153 6.22673 0.634798 0
M  V30 694 H 65.0483 2.93484 -0.474838 0
M  V30 695 H 62.5813 1.50069 -0.363118 0
M  V30 696 H 64.5393 3.62661 1.92321 0
M  V30 697 H 63.2003 2.45887 1.95444 0
M  V30 698 H 62.3933 4.80191 1.53076 0
M  V30 699 H 61.9953 3.73645 0.162999 0
M  V30 700 H 64.2873 6.60181 1.52209 0
M  V30 701 H 65.2303 7.0806 0.0750311 0
M  V30 702 H 65.6383 5.56684 0.936092 0
M  V30 703 N 65.0364 0.313813 1.54444 0
M  V30 704 C 66.2824 -0.292108 2.00685 0
M  V30 705 C 66.6154 -1.52548 1.20177 0
M  V30 706 O 65.8904 -1.92452 0.281531 0
M  V30 707 C 66.1734 -0.635968 3.5444 0
M  V30 708 C 66.0264 0.607437 4.4568 0
M  V30 709 C 67.3454 -1.45747 4.15266 0
M  V30 710 H 64.4644 -0.104697 0.729526 0
M  V30 711 H 67.1064 0.428457 1.85106 0
M  V30 712 H 65.2564 -1.24986 3.67846 0
M  V30 713 H 66.9284 1.24581 4.44159 0
M  V30 714 H 65.1714 1.23822 4.15753 0
M  V30 715 H 65.8424 0.322515 5.51057 0
M  V30 716 H 68.3184 -0.938645 4.05375 0
M  V30 717 H 67.1944 -1.66683 5.2298 0
M  V30 718 H 67.4554 -2.45063 3.67963 0
M  V30 719 N 66.5145 -1.57545 0.0417849 0
M  V30 720 C 67.7635 -1.91494 -0.633492 0
M  V30 721 C 68.0765 -0.921084 -1.72556 0
M  V30 722 O 69.2825 -1.15228 -2.45835 0
M  V30 723 C 67.7385 -3.40072 -1.17808 0
M  V30 724 C 67.3465 -4.47843 -0.118633 0
M  V30 725 C 69.0905 -3.8307 -1.82915 0
M  V30 726 C 66.9975 -5.87529 -0.675578 0
M  V30 727 H 65.9275 -0.714653 -0.24039 0
M  V30 728 H 68.5785 -1.83175 0.109148 0
M  V30 729 H 66.9605 -3.43364 -1.97274 0
M  V30 730 H 68.1345 -4.56128 0.654494 0
M  V30 731 H 66.4495 -4.14128 0.434414 0
M  V30 732 H 69.0465 -4.84794 -2.25563 0
M  V30 733 H 69.3895 -3.1881 -2.67705 0
M  V30 734 H 69.9225 -3.82255 -1.10119 0
M  V30 735 H 66.6615 -6.55362 0.134475 0
M  V30 736 H 66.1815 -5.82824 -1.4169 0
M  V30 737 H 67.8605 -6.36491 -1.1614 0
M  V30 738 N 67.9926 0.231505 -1.5589 0
M  V30 739 C 68.9256 1.31369 -1.86595 0
M  V30 740 C 69.9036 1.45671 -0.722397 0
M  V30 741 O 71.0876 1.61642 -0.969743 0
M  V30 742 C 68.2146 2.68529 -2.06421 0
M  V30 743 C 67.2606 2.71295 -3.29092 0
M  V30 744 S 68.0936 2.26358 -4.85306 0
M  V30 745 C 69.2496 3.65414 -5.08157 0
M  V30 746 H 69.4826 1.05128 -2.78092 0
M  V30 747 H 67.0156 0.433259 -1.48197 0
M  V30 748 H 68.9736 3.47499 -2.18528 0
M  V30 749 H 67.6346 2.91999 -1.15738 0
M  V30 750 H 66.8276 3.72063 -3.39978 0
M  V30 751 H 66.4296 2.0038 -3.15791 0
M  V30 752 H 68.7216 4.6103 -4.96445 0
M  V30 753 H 69.6646 3.5945 -6.10083 0
M  V30 754 H 70.0726 3.5864 -4.35933 0
M  V30 755 N 69.4707 1.49531 0.497807 0
M  V30 756 C 70.7167 1.59415 1.25358 0
M  V30 757 C 71.0497 0.281422 1.9215 0
M  V30 758 O 70.3247 -0.715249 1.80871 0
M  V30 759 C 70.6077 2.75566 2.3181 0
M  V30 760 C 70.4607 4.16642 1.69498 0
M  V30 761 C 71.7797 2.87347 3.33346 0
M  V30 762 H 68.8987 0.580244 0.454408 0
M  V30 763 H 71.5407 1.81827 0.551262 0
M  V30 764 H 69.6907 2.56587 2.91711 0
M  V30 765 H 71.3627 4.47145 1.13399 0
M  V30 766 H 69.6057 4.22141 0.998978 0
M  V30 767 H 70.2767 4.93792 2.46725 0
M  V30 768 H 72.7527 3.04634 2.83438 0
M  V30 769 H 71.6287 3.70289 4.05188 0
M  V30 770 H 71.8897 1.96834 3.95865 0
M  V30 771 N 70.9488 -0.749086 1.3866 0
M  V30 772 C 72.1968 -1.50535 1.34847 0
M  V30 773 C 72.5178 -1.94909 -0.0595016 0
M  V30 774 O 71.7878 -1.67973 -1.00806 0
M  V30 775 H 70.3678 -0.558395 0.49619 0
M  V30 776 H 73.0298 -0.890165 1.73384 0
M  V30 777 H 72.1258 -2.39413 2.00219 0
M  V30 778 N 72.4269 -1.23603 -0.977757 0
M  V30 779 C 73.3569 -1.04401 -2.0886 0
M  V30 780 C 74.3379 0.0399052 -1.70053 0
M  V30 781 O 75.5229 -0.125246 -1.93796 0
M  V30 782 C 72.6529 -0.637269 -3.41403 0
M  V30 783 C 71.6069 -1.66883 -3.94124 0
M  V30 784 C 70.9329 -1.11745 -5.22893 0
M  V30 785 C 72.2329 -3.06247 -4.23096 0
M  V30 786 H 73.9269 -1.97316 -2.25182 0
M  V30 787 H 71.4729 -0.950096 -1.08209 0
M  V30 788 H 73.4259 -0.48998 -4.18542 0
M  V30 789 H 72.1499 0.327557 -3.24953 0
M  V30 790 H 70.8089 -1.80416 -3.19133 0
M  V30 791 H 70.4569 -0.143527 -5.02795 0
M  V30 792 H 70.1569 -1.80672 -5.59134 0
M  V30 793 H 71.6809 -0.982067 -6.02651 0
M  V30 794 H 73.0949 -2.96001 -4.90975 0
M  V30 795 H 71.4919 -3.72436 -4.70544 0
M  V30 796 H 72.5619 -3.55041 -3.30263 0
M  V30 797 N 73.905 1.17692 -1.04816 0
M  V30 798 C 75.316 1.69501 -0.782698 0
M  V30 799 C 75.667 1.83456 0.695577 0
M  V30 800 O 74.792 1.51942 1.54086 0
M  V30 801 C 75.387 3.07874 -1.41419 0
M  V30 802 C 73.946 3.56864 -1.19686 0
M  V30 803 C 73.093 2.3322 -1.50012 0
M  V30 804 H 76.044 1.02262 -1.2136 0
M  V30 805 H 76.065 3.71528 -0.821428 0
M  V30 806 H 75.577 2.97685 -2.49009 0
M  V30 807 H 73.678 3.72337 -0.140043 0
M  V30 808 H 73.791 4.39851 -1.89916 0
M  V30 809 H 72.155 2.37501 -0.920071 0
M  V30 810 H 72.938 2.25644 -2.58727 0
M  V30 811 N 75.3831 0.828654 1.34056 0
M  V30 812 C 76.3461 0.259927 2.27721 0
M  V30 813 C 77.3461 -0.565478 1.50529 0
M  V30 814 O 78.5361 -0.38075 1.69988 0
M  V30 815 C 75.6681 -0.634944 3.34935 0
M  V30 816 H 76.8611 1.0863 2.79534 0
M  V30 817 H 74.4141 0.600951 1.44285 0
M  V30 818 H 75.1491 -1.48416 2.88346 0
M  V30 819 H 74.9341 -0.0444999 3.92075 0
M  V30 820 H 76.4241 -1.02648 4.04788 0
M  V30 821 N 76.8612 -1.46375 0.584142 0
M  V30 822 C 78.2772 -1.57694 0.245929 0
M  V30 823 C 78.4772 -1.57903 -1.25175 0
M  V30 824 O 77.5332 -1.49676 -2.03355 0
M  V30 825 C 78.8462 -2.87028 0.896402 0
M  V30 826 C 80.3942 -3.00662 0.870127 0
M  V30 827 C 80.8692 -4.32734 1.50017 0
M  V30 828 N 82.3602 -4.39436 1.46458 0
M  V30 829 C 83.0952 -5.40248 1.92144 0
M  V30 830 N 82.5912 -6.47726 2.4581 0
M  V30 831 N 84.3842 -5.31459 1.83052 0
M  V30 832 H 76.5352 -1.44483 1.55687 0
M  V30 833 H 78.7982 -0.689291 0.650831 0
M  V30 834 H 78.5042 -2.9269 1.95002 0
M  V30 835 H 78.3782 -3.75014 0.405486 0
M  V30 836 H 80.7652 -2.94581 -0.174871 0
M  V30 837 H 80.8462 -2.14148 1.39908 0
M  V30 838 H 80.4902 -4.39573 2.54437 0
M  V30 839 H 80.4202 -5.18025 0.946432 0
M  V30 840 H 82.9112 -3.62367 1.07231 0
M  V30 841 H 83.2242 -7.20863 2.78525 0
M  V30 842 H 81.5692 -6.48542 2.49836 0
M  V30 843 H 84.7602 -4.46396 1.40883 0
M  V30 844 H 84.9332 -6.09881 2.18973 0
M  V30 845 N 78.3393 -0.321999 -1.54275 0
M  V30 846 C 79.5873 0.280489 -2.00144 0
M  V30 847 C 79.9083 1.52777 -1.21178 0
M  V30 848 O 79.1783 1.9338 -0.313187 0
M  V30 849 H 77.7583 0.106632 -0.73935 0
M  V30 850 H 80.4203 -0.438184 -1.8991 0
M  V30 851 H 79.5163 0.537972 -3.07428 0
M  V30 852 N 79.8174 1.5752 -0.0501392 0
M  V30 853 C 80.7644 2.1147 0.924603 0
M  V30 854 C 81.7344 1.02182 1.30951 0
M  V30 855 O 82.9194 1.29723 1.39916 0
M  V30 856 C 80.0594 2.66337 2.19451 0
M  V30 857 C 79.1724 3.89708 1.86418 0
M  V30 858 C 78.3074 4.32893 3.07859 0
M  V30 859 C 77.3464 5.48967 2.70742 0
M  V30 860 N 76.4834 5.87211 3.84874 0
M  V30 861 H 81.3234 2.94465 0.457639 0
M  V30 862 H 78.8604 1.45531 0.214266 0
M  V30 863 H 80.8184 2.96247 2.93758 0
M  V30 864 H 79.4484 1.86141 2.63726 0
M  V30 865 H 78.5004 3.66396 1.02264 0
M  V30 866 H 79.8124 4.74074 1.55096 0
M  V30 867 H 78.9664 4.6435 3.90466 0
M  V30 868 H 77.7054 3.47336 3.42358 0
M  V30 869 H 76.7104 5.17183 1.86551 0
M  V30 870 H 77.9354 6.3624 2.37436 0
M  V30 871 H 75.8814 5.04607 4.19175 0
M  V30 872 H 75.7984 6.66266 3.57247 0
M  V30 873 H 77.0664 6.23282 4.68123 0
M  V30 874 N 81.2955 -0.223234 1.56011 0
M  V30 875 C 82.5235 -0.964812 1.83027 0
M  V30 876 C 82.9385 -1.78013 0.62904 0
M  V30 877 O 82.2955 -1.78008 -0.402414 0
M  V30 878 C 82.3465 -1.88373 3.08542 0
M  V30 879 O 82.0675 -1.10137 4.2403 0
M  V30 880 C 83.5685 -2.73934 3.48533 0
M  V30 881 H 80.7885 -0.282842 0.608475 0
M  V30 882 H 83.3325 -0.238971 2.03099 0
M  V30 883 H 81.4875 -2.56354 2.9045 0
M  V30 884 H 81.9015 -1.72501 4.95322 0
M  V30 885 H 83.3755 -3.34117 4.39397 0
M  V30 886 H 83.8525 -3.46244 2.70207 0
M  V30 887 H 84.4585 -2.11369 3.69057 0
M  V30 888 N 82.7736 -1.49793 -0.48987 0
M  V30 889 C 84.0036 -1.6333 -1.26518 0
M  V30 890 C 84.4116 -0.308392 -1.8667 0
M  V30 891 O 83.7546 0.717512 -1.69108 0
M  V30 892 C 83.8166 -2.6522 -2.4269 0
M  V30 893 C 83.4806 -4.09279 -2.03321 0
M  V30 894 C 84.4776 -4.95738 -1.56652 0
M  V30 895 C 82.1626 -4.55082 -2.12616 0
M  V30 896 C 84.1566 -6.26041 -1.19795 0
M  V30 897 C 81.8436 -5.85396 -1.75371 0
M  V30 898 C 82.8416 -6.707 -1.29036 0
M  V30 899 O 82.5296 -7.98584 -0.92299 0
M  V30 900 H 82.2616 -0.552502 -0.389509 0
M  V30 901 H 84.8156 -1.96642 -0.593381 0
M  V30 902 H 83.0456 -2.27112 -3.12981 0
M  V30 903 H 84.7346 -2.68171 -3.04695 0
M  V30 904 H 85.5006 -4.61575 -1.48908 0
M  V30 905 H 81.3796 -3.88844 -2.47631 0
M  V30 906 H 84.9236 -6.92578 -0.835582 0
M  V30 907 H 80.8206 -6.19085 -1.82768 0
M  V30 908 H 81.5886 -8.11692 -1.05349 0
M  V30 909 N 84.2517 0.741722 -1.39055 0
M  V30 910 C 85.5007 1.49656 -1.35225 0
M  V30 911 C 85.8137 1.95533 0.0512708 0
M  V30 912 O 87.0197 2.7067 0.212138 0
M  V30 913 C 85.4757 2.70389 -2.37525 0
M  V30 914 C 85.0837 2.31489 -3.83558 0
M  V30 915 C 86.8277 3.48236 -2.42759 0
M  V30 916 C 84.7347 3.48903 -4.77515 0
M  V30 917 H 83.6647 0.56197 -0.502699 0
M  V30 918 H 86.3157 0.809727 -1.64668 0
M  V30 919 H 84.6977 3.41113 -2.01142 0
M  V30 920 H 85.8717 1.68354 -4.28945 0
M  V30 921 H 84.1867 1.66749 -3.81554 0
M  V30 922 H 86.7837 4.35558 -3.1015 0
M  V30 923 H 87.1267 3.90229 -1.45008 0
M  V30 924 H 87.6597 2.84535 -2.78002 0
M  V30 925 H 84.3987 3.11966 -5.76504 0
M  V30 926 H 83.9187 4.11041 -4.36813 0
M  V30 927 H 85.5977 4.15328 -4.96096 0
M  V30 928 N 85.7298 1.2412 0.971189 0
M  V30 929 C 86.9548 1.10667 1.75407 0
M  V30 930 C 87.3798 -0.337048 1.85056 0
M  V30 931 O 86.7378 -1.24396 1.31892 0
M  V30 932 C 86.7858 1.74726 3.15441 0
M  V30 933 O 85.8898 1.01566 3.99697 0
M  V30 934 H 85.2308 0.387341 0.539317 0
M  V30 935 H 87.7608 1.64358 1.2185 0
M  V30 936 H 87.7708 1.80341 3.6598 0
M  V30 937 H 86.4458 2.79773 3.07734 0
M  V30 938 H 85.0228 1.03713 3.58187 0
M  V30 939 N 87.2079 -1.17134 1.05439 0
M  V30 940 C 88.4359 -1.91372 0.786414 0
M  V30 941 C 88.8509 -1.76955 -0.658202 0
M  V30 942 O 88.2079 -1.10838 -1.44987 0
M  V30 943 C 88.2589 -3.42356 1.1608 0
M  V30 944 O 87.9799 -3.56332 2.54871 0
M  V30 945 C 89.4809 -4.33663 0.919322 0
M  V30 946 H 86.7009 -0.607118 0.285743 0
M  V30 947 H 89.2449 -1.48525 1.40572 0
M  V30 948 H 87.3999 -3.82939 0.586191 0
M  V30 949 H 87.8139 -4.49896 2.69618 0
M  V30 950 H 89.2879 -5.38099 1.231 0
M  V30 951 H 89.7649 -4.38959 -0.145359 0
M  V30 952 H 90.3709 -3.98796 1.47789 0
M  V30 953 N 88.686 -0.835752 -1.33615 0
M  V30 954 C 89.633 -0.26473 -2.29277 0
M  V30 955 C 90.603 0.617712 -1.54187 0
M  V30 956 O 91.788 0.556641 -1.825 0
M  V30 957 C 88.928 0.556777 -3.40579 0
M  V30 958 C 88.041 -0.349339 -4.30585 0
M  V30 959 C 87.176 0.482969 -5.29 0
M  V30 960 C 86.215 -0.421732 -6.10645 0
M  V30 961 N 85.352 0.372262 -7.01112 0
M  V30 962 H 90.192 -1.08582 -2.77514 0
M  V30 963 H 87.729 -0.546927 -1.36554 0
M  V30 964 H 89.687 1.04852 -4.03809 0
M  V30 965 H 88.317 1.34286 -2.93542 0
M  V30 966 H 87.369 -0.959372 -3.68104 0
M  V30 967 H 88.681 -1.04445 -4.87742 0
M  V30 968 H 87.835 1.03866 -5.97743 0
M  V30 969 H 86.574 1.21153 -4.72412 0
M  V30 970 H 85.579 -0.989464 -5.40823 0
M  V30 971 H 86.804 -1.14861 -6.69316 0
M  V30 972 H 84.75 1.08426 -6.46977 0
M  V30 973 H 84.667 -0.264198 -7.55538 0
M  V30 974 H 85.935 0.910293 -7.74167 0
M  V30 975 N 90.1641 1.46063 -0.591896 0
M  V30 976 C 91.0941 2.33172 0.123673 0
M  V30 977 C 92.0751 1.45897 0.87453 0
M  V30 978 O 93.2601 1.74698 0.848181 0
M  V30 979 C 90.3901 3.28336 1.13194 0
M  V30 980 C 89.3441 4.25124 0.495324 0
M  V30 981 C 88.6701 5.09863 1.61071 0
M  V30 982 C 89.9701 5.19143 -0.573425 0
M  V30 983 H 91.6641 2.93252 -0.603646 0
M  V30 984 H 89.2101 1.41014 -0.291741 0
M  V30 985 H 91.1631 3.88137 1.64097 0
M  V30 986 H 89.8871 2.66383 1.88965 0
M  V30 987 H 88.5461 3.66599 0.00729452 0
M  V30 988 H 88.1941 4.44288 2.35832 0
M  V30 989 H 87.8941 5.75417 1.19035 0
M  V30 990 H 89.4181 5.72529 2.12233 0
M  V30 991 H 90.8321 5.73106 -0.1491 0
M  V30 992 H 89.2291 5.93089 -0.914636 0
M  V30 993 H 90.2991 4.62519 -1.45617 0
M  V30 994 N 91.6422 0.330177 1.54103 0
M  V30 995 C 92.8702 -0.272179 2.05102 0
M  V30 996 C 93.2852 -1.45267 1.20595 0
M  V30 997 O 92.6422 -1.8094 0.238144 0
M  V30 998 C 92.6932 -0.70023 3.54653 0
M  V30 999 O 92.4142 0.433301 4.35952 0
M  V30 1000 C 93.9152 -1.3647 4.21771 0
M  V30 1001 H 91.1352 -0.0549159 0.668749 0
M  V30 1002 H 93.6792 0.478285 1.98828 0
M  V30 1003 H 91.8342 -1.40066 3.61193 0
M  V30 1004 H 92.2482 0.0947539 5.24414 0
M  V30 1005 H 93.7222 -1.61509 5.27843 0
M  V30 1006 H 94.1992 -2.31409 3.73292 0
M  V30 1007 H 94.8052 -0.706675 4.19388 0
M  V30 1008 N 93.1203 -1.57491 0.0584922 0
M  V30 1009 C 94.5363 -1.56792 -0.298091 0
M  V30 1010 C 94.7363 -1.06679 -1.70944 0
M  V30 1011 O 93.7923 -0.726672 -2.41818 0
M  V30 1012 C 95.1053 -3.00461 -0.119879 0
M  V30 1013 C 96.6533 -3.1242 -0.190428 0
M  V30 1014 C 97.1283 -4.57982 -0.0406567 0
M  V30 1015 N 98.6193 -4.63099 -0.0966958 0
M  V30 1016 C 99.3543 -5.734 -0.00502943 0
M  V30 1017 N 98.8503 -6.9266 0.139402 0
M  V30 1018 N 100.643 -5.62067 -0.0611391 0
M  V30 1019 H 92.7943 -1.88386 0.98105 0
M  V30 1020 H 95.0573 -0.867865 0.381463 0
M  V30 1021 H 94.7633 -3.41187 0.85349 0
M  V30 1022 H 94.6373 -3.66843 -0.877833 0
M  V30 1023 H 97.0243 -2.71589 -1.15427 0
M  V30 1024 H 97.1053 -2.48702 0.598405 0
M  V30 1025 H 96.7493 -4.995 0.919897 0
M  V30 1026 H 96.6793 -5.19715 -0.848727 0
M  V30 1027 H 99.1703 -3.77331 -0.207277 0
M  V30 1028 H 99.4833 -7.72536 0.201855 0
M  V30 1029 H 97.8283 -6.94781 0.174586 0
M  V30 1030 H 101.019 -4.67782 -0.172583 0
M  V30 1031 H 101.192 -6.47999 0.0137562 0
M  V30 1032 N 94.5984 0.214957 -1.56127 0
M  V30 1033 C 95.8284 0.953707 -1.8327 0
M  V30 1034 C 96.2364 1.78181 -0.636262 0
M  V30 1035 O 95.5794 1.79191 0.404516 0
M  V30 1036 C 95.6414 1.91516 -3.0424 0
M  V30 1037 C 95.3054 1.27094 -4.38972 0
M  V30 1038 C 96.3024 0.657575 -5.15725 0
M  V30 1039 C 93.9874 1.28073 -4.85698 0
M  V30 1040 C 95.9814 0.0625968 -6.37369 0
M  V30 1041 C 93.6684 0.681914 -6.07283 0
M  V30 1042 C 94.6664 0.0739046 -6.8296 0
M  V30 1043 O 94.3544 -0.515582 -8.02245 0
M  V30 1044 H 94.0864 0.284764 -0.613095 0
M  V30 1045 H 96.6404 0.233283 -2.04071 0
M  V30 1046 H 94.8704 2.67475 -2.79274 0
M  V30 1047 H 96.5594 2.52001 -3.18198 0
M  V30 1048 H 97.3254 0.642288 -4.80728 0
M  V30 1049 H 93.2044 1.74337 -4.26764 0
M  V30 1050 H 96.7484 -0.412593 -6.96379 0
M  V30 1051 H 92.6454 0.694636 -6.41752 0
M  V30 1052 H 93.4134 -0.410544 -8.1747 0
M  V30 1053 N 96.0765 1.50051 0.48192 0
M  V30 1054 C 97.0065 1.71046 1.58951 0
M  V30 1055 C 97.9875 0.559288 1.60642 0
M  V30 1056 O 99.1725 0.797243 1.77081 0
M  V30 1057 C 96.3025 1.79462 2.97339 0
M  V30 1058 C 95.2565 2.94558 3.10515 0
M  V30 1059 C 94.5825 2.88105 4.50444 0
M  V30 1060 C 95.8825 4.35227 2.88747 0
M  V30 1061 H 97.5765 2.6378 1.41635 0
M  V30 1062 H 95.1225 1.26936 0.679942 0
M  V30 1063 H 97.0755 1.92734 3.74742 0
M  V30 1064 H 95.7995 0.833412 3.15788 0
M  V30 1065 H 94.4585 2.80918 2.35543 0
M  V30 1066 H 94.1065 1.89853 4.65795 0
M  V30 1067 H 93.8065 3.65366 4.60197 0
M  V30 1068 H 95.3305 3.03412 5.29881 0
M  V30 1069 H 96.7445 4.49449 3.55905 0
M  V30 1070 H 95.1415 5.13856 3.09955 0
M  V30 1071 H 96.2115 4.48347 1.84696 0
M  V30 1072 N 97.5546 -0.734337 1.39446 0
M  V30 1073 C 98.5026 -1.86971 1.38364 0
M  V30 1074 C 99.4966 -1.67288 0.266687 0
M  V30 1075 O 100.703 -1.74621 0.436755 0
M  V30 1076 H 97.0776 -0.615474 0.432082 0
M  V30 1077 H 99.0486 -1.85 2.34132 0
M  V30 1078 C 97.7976 -3.2466 1.24465 0
M  V30 1079 H 97.1206 -3.40402 2.09682 0
M  V30 1080 H 98.5606 -4.04292 1.27764 0
M  V30 1081 C 97.0196 -3.36867 -0.0468674 0
M  V30 1082 O 97.5496 -3.88618 -1.01681 0
M  V30 1083 N 95.7556 -2.90391 -0.110145 0
M  V30 1084 H 95.3026 -2.48466 0.679868 0
M  V30 1085 H 95.2606 -2.98939 -0.973799 0
M  V30 1086 N 99.0327 -1.24633 -0.964593 0
M  V30 1087 C 100.279 -1.09957 -1.71117 0
M  V30 1088 C 100.634 0.357422 -1.89051 0
M  V30 1089 O 99.9267 1.26029 -1.44317 0
M  V30 1090 C 100.121 -1.7763 -3.10133 0
M  V30 1091 C 99.9497 -3.29759 -3.05759 0
M  V30 1092 C 98.7197 -3.98981 -3.10068 0
M  V30 1093 C 100.918 -4.26305 -2.87695 0
M  V30 1094 N 98.8997 -5.37966 -2.95747 0
M  V30 1095 C 100.271 -5.52308 -2.81702 0
M  V30 1096 C 102.326 -4.16842 -2.72299 0
M  V30 1097 C 101.029 -6.69931 -2.61887 0
M  V30 1098 C 103.055 -5.34147 -2.53853 0
M  V30 1099 C 102.417 -6.59084 -2.48572 0
M  V30 1100 H 98.5157 -0.457003 -0.634564 0
M  V30 1101 H 101.1 -1.57592 -1.14337 0
M  V30 1102 H 99.2707 -1.32504 -3.65099 0
M  V30 1103 H 101.003 -1.55786 -3.73514 0
M  V30 1104 H 97.7577 -3.50169 -3.18871 0
M  V30 1105 H 98.1817 -6.10877 -2.91818 0
M  V30 1106 H 102.824 -3.21007 -2.75163 0
M  V30 1107 H 100.542 -7.65886 -2.57767 0
M  V30 1108 H 104.128 -5.28678 -2.4288 0
M  V30 1109 H 103.008 -7.48324 -2.34481 0
M  V30 1110 N 100.511 1.16574 -1.06058 0
M  V30 1111 C 101.76 1.86385 -0.770944 0
M  V30 1112 C 102.073 1.82448 0.705129 0
M  V30 1113 O 103.279 2.47815 1.10905 0
M  V30 1114 C 101.735 3.34466 -1.32893 0
M  V30 1115 C 101.343 3.46883 -2.83507 0
M  V30 1116 C 103.087 4.09548 -1.11672 0
M  V30 1117 C 100.994 4.89036 -3.32562 0
M  V30 1118 H 99.9238 0.698181 -0.284709 0
M  V30 1119 H 102.575 1.31583 -1.27899 0
M  V30 1120 H 100.957 3.88859 -0.748662 0
M  V30 1121 H 102.131 3.02663 -3.47465 0
M  V30 1122 H 100.446 2.85232 -3.03368 0
M  V30 1123 H 103.043 5.14434 -1.45814 0
M  V30 1124 H 103.386 4.16264 -0.0549535 0
M  V30 1125 H 103.919 3.61387 -1.66265 0
M  V30 1126 H 100.658 4.87499 -4.38207 0
M  V30 1127 H 100.178 5.3389 -2.73351 0
M  V30 1128 H 101.857 5.57843 -3.2775 0
M  V30 1129 N 101.989 0.842826 1.3317 0
M  V30 1130 C 103.237 0.439577 1.97262 0
M  V30 1131 C 103.558 -1.00548 1.67078 0
M  V30 1132 O 102.828 -1.70098 0.971779 0
M  V30 1133 H 101.408 0.159558 0.72976 0
M  V30 1134 H 104.07 1.07665 1.62463 0
M  V30 1135 H 103.166 0.574886 3.0676 0
M  V30 1136 N 103.467 -1.45747 0.599634 0
M  V30 1137 C 104.695 -2.06668 0.0978551 0
M  V30 1138 C 105.11 -1.44562 -1.21439 0
M  V30 1139 O 104.467 -0.556923 -1.73795 0
M  V30 1140 C 104.518 -3.61456 -0.0567044 0
M  V30 1141 O 104.239 -4.21242 1.20361 0
M  V30 1142 C 105.74 -4.39345 -0.590869 0
M  V30 1143 H 102.96 -0.667825 0.0651943 0
M  V30 1144 H 105.504 -1.87115 0.82511 0
M  V30 1145 H 103.659 -3.80378 -0.734251 0
M  V30 1146 H 104.073 -5.14323 1.02821 0
M  V30 1147 H 105.547 -5.48182 -0.648131 0
M  V30 1148 H 106.024 -4.08568 -1.61147 0
M  V30 1149 H 106.63 -4.25268 0.0523679 0
M  V30 1150 N 104.945 -0.338344 -1.53925 0
M  V30 1151 C 106.356 0.146651 -1.86123 0
M  V30 1152 C 106.707 1.5042 -1.2597 0
M  V30 1153 O 105.832 2.08723 -0.571294 0
M  V30 1154 C 106.427 0.272879 -3.37699 0
M  V30 1155 C 104.986 0.702103 -3.69794 0
M  V30 1156 C 104.133 -0.167304 -2.76795 0
M  V30 1157 H 107.084 -0.558123 -1.48562 0
M  V30 1158 H 107.105 1.10128 -3.64214 0
M  V30 1159 H 106.617 -0.715307 -3.81451 0
M  V30 1160 H 104.718 1.6995 -3.31584 0
M  V30 1161 H 104.831 0.495604 -4.7653 0
M  V30 1162 H 103.195 0.359527 -2.5215 0
M  V30 1163 H 103.978 -1.15253 -3.23375 0
M  V30 1164 N 106.423 1.57458 -0.0668435 0
M  V30 1165 C 107.651 1.97624 0.612565 0
M  V30 1166 C 108.066 0.94502 1.63447 0
M  V30 1167 O 107.423 -0.0689276 1.8237 0
M  V30 1168 C 107.474 3.37869 1.28555 0
M  V30 1169 O 107.195 4.3704 0.304557 0
M  V30 1170 C 108.696 3.92882 2.05325 0
M  V30 1171 H 105.916 0.650045 0.166381 0
M  V30 1172 H 108.46 2.04035 -0.137782 0
M  V30 1173 H 106.615 3.3256 1.98702 0
M  V30 1174 H 107.029 5.18565 0.786779 0
M  V30 1175 H 108.503 4.93247 2.47812 0
M  V30 1176 H 108.98 3.29156 2.9078 0
M  V30 1177 H 109.586 4.01577 1.40056 0
M  V30 1178 N 107.901 -0.206675 1.56239 0
M  V30 1179 C 108.848 -1.25617 1.93621 0
M  V30 1180 C 109.818 -1.45824 0.795274 0
M  V30 1181 O 111.003 -1.59148 1.05245 0
M  V30 1182 C 108.143 -2.59839 2.27107 0
M  V30 1183 C 107.256 -2.47308 3.54207 0
M  V30 1184 C 106.391 -3.74155 3.7707 0
M  V30 1185 C 105.43 -3.56407 4.97635 0
M  V30 1186 N 104.567 -4.75238 5.1681 0
M  V30 1187 H 109.407 -0.930383 2.83104 0
M  V30 1188 H 106.944 -0.448065 1.4011 0
M  V30 1189 H 108.902 -3.38021 2.44535 0
M  V30 1190 H 107.532 -2.90485 1.40778 0
M  V30 1191 H 106.584 -1.60483 3.4489 0
M  V30 1192 H 107.896 -2.30122 4.42544 0
M  V30 1193 H 107.05 -4.60778 3.94675 0
M  V30 1194 H 105.789 -3.94282 2.87042 0
M  V30 1195 H 104.794 -2.68168 4.79964 0
M  V30 1196 H 106.019 -3.37736 5.89161 0
M  V30 1197 H 103.965 -4.95651 4.29728 0
M  V30 1198 H 103.882 -4.60835 5.99306 0
M  V30 1199 H 105.15 -5.63246 5.38864 0
M  V30 1200 N 109.379 -1.50304 -0.473955 0
M  V30 1201 C 110.625 -1.61389 -1.22806 0
M  V30 1202 C 110.958 -0.311955 -1.91678 0
M  V30 1203 O 110.233 0.686384 -1.81986 0
M  V30 1204 C 110.516 -2.79219 -2.27396 0
M  V30 1205 C 110.369 -4.19286 -1.62848 0
M  V30 1206 C 111.688 -2.92614 -3.28732 0
M  V30 1207 H 108.807 -0.587399 -0.445119 0
M  V30 1208 H 111.449 -1.82681 -0.522265 0
M  V30 1209 H 109.599 -2.61195 -2.87592 0
M  V30 1210 H 111.271 -4.48892 -1.06271 0
M  V30 1211 H 109.514 -4.23677 -0.931693 0
M  V30 1212 H 110.185 -4.97655 -2.38838 0
M  V30 1213 H 112.661 -3.09105 -2.78556 0
M  V30 1214 H 111.537 -3.76688 -3.99246 0
M  V30 1215 H 111.798 -2.03107 -3.92683 0
M  V30 1216 N 110.857 0.726932 -1.39834 0
M  V30 1217 C 112.104 1.48664 -1.37496 0
M  V30 1218 C 112.432 1.94482 0.0264678 0
M  V30 1219 O 111.687 1.67692 1.00886 0
M  V30 1220 C 111.986 2.73495 -2.30077 0
M  V30 1221 C 111.652 2.46502 -3.77555 0
M  V30 1222 C 110.314 2.3885 -4.17737 0
M  V30 1223 C 112.666 2.23604 -4.70798 0
M  V30 1224 C 109.994 2.06352 -5.49214 0
M  V30 1225 C 112.346 1.92622 -6.02561 0
M  V30 1226 C 111.01 1.83444 -6.41798 0
M  V30 1227 H 110.28 0.544001 -0.503135 0
M  V30 1228 H 112.927 0.833657 -1.72402 0
M  V30 1229 H 111.232 3.43575 -1.88317 0
M  V30 1230 H 112.929 3.31549 -2.25558 0
M  V30 1231 H 109.519 2.5334 -3.45712 0
M  V30 1232 H 113.703 2.28479 -4.40581 0
M  V30 1233 H 108.959 1.97776 -5.78528 0
M  V30 1234 H 113.133 1.73914 -6.74334 0
M  V30 1235 H 110.76 1.58029 -7.43593 0
M  V30 1236 N 112.336 1.25143 0.95797 0
M  V30 1237 C 113.284 1.05019 2.07542 0
M  V30 1238 C 114.278 -0.0178751 1.69391 0
M  V30 1239 O 115.484 0.137472 1.79474 0
M  V30 1240 H 111.859 0.32265 0.679265 0
M  V30 1241 H 113.83 1.99759 2.21673 0
M  V30 1242 C 112.579 0.682074 3.40944 0
M  V30 1243 H 111.902 1.49573 3.70767 0
M  V30 1244 H 113.342 0.580945 4.20001 0
M  V30 1245 C 111.801 -0.611608 3.31302 0
M  V30 1246 O 112.331 -1.65465 3.66038 0
M  V30 1247 N 110.537 -0.595982 2.84423 0
M  V30 1248 H 110.084 0.253192 2.56353 0
M  V30 1249 H 110.042 -1.46173 2.78354 0
M  V30 1250 N 113.814 -1.1601 1.06675 0
M  V30 1251 C 114.744 -2.22688 0.702307 0
M  V30 1252 C 115.725 -1.67306 -0.307032 0
M  V30 1253 O 116.91 -1.93352 -0.181305 0
M  V30 1254 C 114.04 -3.47178 0.092038 0
M  V30 1255 C 112.994 -4.15477 1.02777 0
M  V30 1256 C 112.32 -5.33963 0.28061 0
M  V30 1257 C 113.62 -4.66019 2.35846 0
M  V30 1258 H 115.314 -2.53429 1.59419 0
M  V30 1259 H 112.86 -1.21813 0.767961 0
M  V30 1260 H 114.813 -4.21037 -0.174814 0
M  V30 1261 H 113.537 -3.15749 -0.834877 0
M  V30 1262 H 112.196 -3.43549 1.27944 0
M  V30 1263 H 111.844 -4.98788 -0.649545 0
M  V30 1264 H 111.544 -5.806 0.904258 0
M  V30 1265 H 113.068 -6.10596 0.021396 0
M  V30 1266 H 114.482 -5.3144 2.15045 0
M  V30 1267 H 112.879 -5.23293 2.93743 0
M  V30 1268 H 113.949 -3.82023 2.98641 0
M  V30 1269 N 115.292 -0.849877 -1.32721 0
M  V30 1270 C 116.54 -0.450032 -1.97026 0
M  V30 1271 C 116.861 0.996604 -1.67609 0
M  V30 1272 O 116.131 1.6958 -0.980786 0
M  V30 1273 H 114.711 -0.163426 -0.728904 0
M  V30 1274 H 117.373 -1.08526 -1.6189 0
M  V30 1275 H 116.469 -0.591146 -3.0645 0
M  V30 1276 N 116.77 1.45427 -0.607355 0
M  V30 1277 C 117.702 2.2871 0.149752 0
M  V30 1278 C 118.715 1.39937 0.831958 0
M  V30 1279 O 119.904 1.64313 0.697385 0
M  V30 1280 C 117.004 3.15673 1.23304 0
M  V30 1281 C 116.177 4.32722 0.637996 0
M  V30 1282 C 115.236 5.00895 1.61215 0
M  V30 1283 O 114.262 5.57697 1.13854 0
M  V30 1284 N 115.464 5.00159 2.94655 0
M  V30 1285 H 118.229 2.94328 -0.564882 0
M  V30 1286 H 115.79 1.55612 -0.446823 0
M  V30 1287 H 117.782 3.58144 1.88454 0
M  V30 1288 H 116.352 2.51965 1.8502 0
M  V30 1289 H 115.572 3.93734 -0.191572 0
M  V30 1290 H 116.86 5.08321 0.220665 0
M  V30 1291 H 116.258 4.553 3.35735 0
M  V30 1292 H 114.815 5.46495 3.55228 0
M  V30 1293 N 118.248 0.346503 1.53744 0
M  V30 1294 C 119.478 -0.250047 2.05081 0
M  V30 1295 C 119.886 -1.44529 1.22098 0
M  V30 1296 O 119.229 -1.81992 0.249917 0
M  V30 1297 C 119.291 -0.725934 3.52094 0
M  V30 1298 C 118.955 0.350053 4.55657 0
M  V30 1299 C 119.952 1.19372 5.0601 0
M  V30 1300 C 117.637 0.504827 4.99757 0
M  V30 1301 C 119.631 2.17768 5.99046 0
M  V30 1302 C 117.318 1.49218 5.92602 0
M  V30 1303 C 118.316 2.32706 6.42135 0
M  V30 1304 O 118.004 3.2976 7.33153 0
M  V30 1305 H 117.736 -0.0515469 0.674032 0
M  V30 1306 H 120.29 0.497559 1.99282 0
M  V30 1307 H 118.52 -1.52483 3.55367 0
M  V30 1308 H 120.209 -1.24336 3.86388 0
M  V30 1309 H 120.975 1.08525 4.72702 0
M  V30 1310 H 116.854 -0.135178 4.60802 0
M  V30 1311 H 120.398 2.82971 6.37631 0
M  V30 1312 H 116.295 1.6012 6.25325 0
M  V30 1313 H 117.063 3.25265 7.51096 0
M  V30 1314 N 119.726 -1.57421 0.075193 0
M  V30 1315 C 121.142 -1.57099 -0.281444 0
M  V30 1316 C 121.342 -1.08486 -1.69803 0
M  V30 1317 O 120.398 -0.752279 -2.41033 0
M  V30 1318 C 121.711 -3.00571 -0.0880041 0
M  V30 1319 C 123.259 -3.12605 -0.157281 0
M  V30 1320 C 123.734 -4.57999 0.0079207 0
M  V30 1321 N 125.225 -4.63176 -0.0475725 0
M  V30 1322 C 125.96 -5.73373 0.0557876 0
M  V30 1323 N 125.456 -6.92473 0.21286 0
M  V30 1324 N 127.249 -5.621 -0.00152098 0
M  V30 1325 H 119.4 -1.87335 1.00098 0
M  V30 1326 H 121.663 -0.86377 0.390646 0
M  V30 1327 H 121.369 -3.40262 0.889629 0
M  V30 1328 H 121.243 -3.67754 -0.838875 0
M  V30 1329 H 123.63 -2.72798 -1.1254 0
M  V30 1330 H 123.711 -2.48053 0.62475 0
M  V30 1331 H 123.355 -4.98496 0.972824 0
M  V30 1332 H 123.285 -5.20586 -0.793556 0
M  V30 1333 H 125.776 -3.7753 -0.167244 0
M  V30 1334 H 126.089 -7.72279 0.283781 0
M  V30 1335 H 124.434 -6.94556 0.248267 0
M  V30 1336 H 127.625 -4.67938 -0.122958 0
M  V30 1337 H 127.798 -6.47948 0.0824844 0
M  V30 1338 N 121.204 0.198386 -1.56346 0
M  V30 1339 C 122.62 0.549085 -1.49857 0
M  V30 1340 C 122.82 1.86016 -0.774611 0
M  V30 1341 O 121.876 2.50416 -0.323776 0
M  V30 1342 C 123.189 0.606868 -2.94512 0
M  V30 1343 C 124.737 0.695925 -3.05165 0
M  V30 1344 C 125.212 0.784848 -4.51225 0
M  V30 1345 N 126.703 0.848463 -4.55363 0
M  V30 1346 C 127.438 0.937378 -5.65686 0
M  V30 1347 N 126.934 0.9888 -6.85707 0
M  V30 1348 N 128.727 0.974312 -5.53592 0
M  V30 1349 H 120.878 -0.661655 -2.01831 0
M  V30 1350 H 123.141 -0.235261 -0.918344 0
M  V30 1351 H 122.847 -0.28732 -3.50524 0
M  V30 1352 H 122.721 1.46268 -3.47686 0
M  V30 1353 H 125.108 1.58055 -2.49204 0
M  V30 1354 H 125.189 -0.186022 -2.55123 0
M  V30 1355 H 124.833 -0.0954072 -5.0781 0
M  V30 1356 H 124.763 1.68255 -4.98997 0
M  V30 1357 H 127.254 0.818103 -3.68938 0
M  V30 1358 H 127.567 1.05707 -7.65536 0
M  V30 1359 H 125.912 0.957534 -6.88372 0
M  V30 1360 H 129.103 0.930954 -4.58749 0
M  V30 1361 H 129.276 1.04015 -6.39597 0
M  V30 1362 N 122.682 1.50554 0.465978 0
M  V30 1363 C 123.592 1.72585 1.58907 0
M  V30 1364 C 124.608 0.60911 1.6299 0
M  V30 1365 O 125.784 0.88804 1.80765 0
M  V30 1366 C 122.849 1.81995 2.95091 0
M  V30 1367 C 121.91 3.05751 3.01355 0
M  V30 1368 C 121.143 3.14702 4.31043 0
M  V30 1369 O 121.366 2.30313 5.21835 0
M  V30 1370 O 120.3 4.07468 4.43005 0
M  V30 1371 H 124.126 2.67799 1.43239 0
M  V30 1372 H 121.711 1.34711 0.646013 0
M  V30 1373 H 123.593 1.90335 3.75966 0
M  V30 1374 H 122.268 0.899659 3.10947 0
M  V30 1375 H 121.175 3.02908 2.19539 0
M  V30 1376 H 122.508 3.97375 2.90437 0
M  V30 1377 N 124.16 -0.719506 1.40217 0
M  V30 1378 C 125.123 -1.8153 1.39927 0
M  V30 1379 C 126.123 -1.58095 0.293723 0
M  V30 1380 O 127.313 -1.65209 0.552429 0
M  V30 1381 C 124.445 -3.19561 1.18716 0
M  V30 1382 H 125.638 -1.83186 2.37451 0
M  V30 1383 H 123.191 -0.924746 1.26008 0
M  V30 1384 H 123.926 -3.23557 0.219366 0
M  V30 1385 H 123.711 -3.3797 1.98793 0
M  V30 1386 H 125.201 -3.99598 1.21291 0
M  V30 1387 N 125.638 -1.25649 -0.95132 0
M  V30 1388 C 126.884 -1.10757 -1.69884 0
M  V30 1389 C 127.217 0.350061 -1.91019 0
M  V30 1390 O 126.492 1.25783 -1.48354 0
M  V30 1391 C 126.775 -1.86606 -3.07978 0
M  V30 1392 C 126.628 -3.40217 -2.94232 0
M  V30 1393 C 127.947 -1.65182 -4.07925 0
M  V30 1394 H 125.066 -0.40374 -0.616574 0
M  V30 1395 H 127.708 -1.54521 -1.10558 0
M  V30 1396 H 125.858 -1.49409 -3.58621 0
M  V30 1397 H 127.53 -3.87108 -2.50889 0
M  V30 1398 H 125.773 -3.67759 -2.30078 0
M  V30 1399 H 126.444 -3.88505 -3.92133 0
M  V30 1400 H 128.92 -1.9757 -3.66204 0
M  V30 1401 H 127.796 -2.20683 -5.02583 0
M  V30 1402 H 128.057 -0.593933 -4.38092 0
M  V30 1403 N 127.117 1.15442 -1.07289 0
M  V30 1404 C 128.342 1.90638 -0.816828 0
M  V30 1405 C 128.767 1.77445 0.624083 0
M  V30 1406 O 128.125 1.10671 1.43602 0
M  V30 1407 C 128.173 3.39008 -1.22906 0
M  V30 1408 O 127.277 4.10701 -0.373975 0
M  V30 1409 H 126.618 0.593555 -0.297638 0
M  V30 1410 H 129.148 1.46198 -1.43134 0
M  V30 1411 H 129.158 3.89801 -1.20497 0
M  V30 1412 H 127.833 3.47929 -2.27856 0
M  V30 1413 H 126.41 3.70046 -0.460499 0
M  V30 1414 N 128.595 0.856903 1.32268 0
M  V30 1415 C 129.825 0.47475 2.01071 0
M  V30 1416 C 130.233 -0.933746 1.64553 0
M  V30 1417 O 129.576 -1.62114 0.863989 0
M  V30 1418 C 129.638 0.536746 3.55471 0
M  V30 1419 C 129.302 1.90453 4.15423 0
M  V30 1420 C 130.299 2.87029 4.33486 0
M  V30 1421 C 127.984 2.20229 4.51447 0
M  V30 1422 C 129.978 4.11532 4.86744 0
M  V30 1423 C 127.665 3.44984 5.0441 0
M  V30 1424 C 128.663 4.40452 5.22007 0
M  V30 1425 O 128.351 5.62998 5.73837 0
M  V30 1426 H 128.083 0.184778 0.650256 0
M  V30 1427 H 130.637 1.15615 1.69771 0
M  V30 1428 H 128.867 -0.20152 3.86175 0
M  V30 1429 H 130.556 0.169875 4.05544 0
M  V30 1430 H 131.322 2.6533 4.05986 0
M  V30 1431 H 127.201 1.46705 4.37034 0
M  V30 1432 H 130.745 4.86056 5.00395 0
M  V30 1433 H 126.642 3.66532 5.31342 0
M  V30 1434 H 127.41 5.64987 5.92226 0
M  V30 1435 N 130.073 -1.45103 0.615059 0
M  V30 1436 C 131.02 -2.30586 -0.0993978 0
M  V30 1437 C 131.99 -1.42544 -0.852669 0
M  V30 1438 O 133.175 -1.71465 -0.836917 0
M  V30 1439 C 130.315 -3.27572 -1.08583 0
M  V30 1440 C 129.428 -4.30717 -0.332656 0
M  V30 1441 C 128.563 -5.14807 -1.30947 0
M  V30 1442 C 127.602 -6.09673 -0.544538 0
M  V30 1443 N 126.739 -6.86517 -1.47101 0
M  V30 1444 H 131.579 -2.91144 0.635542 0
M  V30 1445 H 129.116 -1.4346 0.325206 0
M  V30 1446 H 131.074 -3.82276 -1.67095 0
M  V30 1447 H 129.704 -2.68751 -1.78809 0
M  V30 1448 H 128.756 -3.78615 0.368107 0
M  V30 1449 H 130.068 -4.98102 0.263842 0
M  V30 1450 H 129.222 -5.73948 -1.96643 0
M  V30 1451 H 127.961 -4.47458 -1.9399 0
M  V30 1452 H 126.966 -5.49656 0.126003 0
M  V30 1453 H 128.191 -6.79052 0.080947 0
M  V30 1454 H 126.137 -6.21851 -2.08895 0
M  V30 1455 H 126.054 -7.50281 -0.928137 0
M  V30 1456 H 127.322 -7.50194 -2.11731 0
M  V30 1457 N 131.551 -0.354651 -1.53558 0
M  V30 1458 C 132.499 0.512195 -2.26891 0
M  V30 1459 C 133.493 1.09263 -1.29452 0
M  V30 1460 O 134.699 1.03709 -1.47121 0
M  V30 1461 H 131.074 0.183878 -0.729173 0
M  V30 1462 H 133.045 -0.128202 -2.98124 0
M  V30 1463 C 131.794 1.64563 -3.06291 0
M  V30 1464 H 131.117 1.20829 -3.81104 0
M  V30 1465 H 132.557 2.22711 -3.60799 0
M  V30 1466 C 131.016 2.58158 -2.16462 0
M  V30 1467 O 131.546 3.60695 -1.76811 0
M  V30 1468 N 129.752 2.27096 -1.81317 0
M  V30 1469 H 129.299 1.43751 -2.1376 0
M  V30 1470 H 129.257 2.89975 -1.21498 0
M  V30 1471 N 133.029 1.57378 -0.0835403 0
M  V30 1472 C 134.259 1.97975 0.590713 0
M  V30 1473 C 134.667 0.961083 1.62972 0
M  V30 1474 O 134.01 -0.0590879 1.83605 0
M  V30 1475 C 134.072 3.34915 1.3066 0
M  V30 1476 C 133.736 4.55069 0.419698 0
M  V30 1477 C 134.733 5.18868 -0.32749 0
M  V30 1478 C 132.418 5.0114 0.341137 0
M  V30 1479 C 134.412 6.27098 -1.14134 0
M  V30 1480 C 132.099 6.0924 -0.476374 0
M  V30 1481 C 133.097 6.72083 -1.21627 0
M  V30 1482 O 132.785 7.781 -2.02028 0
M  V30 1483 H 132.517 0.655818 0.163947 0
M  V30 1484 H 135.071 2.04807 -0.156021 0
M  V30 1485 H 133.301 3.24733 2.09966 0
M  V30 1486 H 134.99 3.60037 1.87424 0
M  V30 1487 H 135.756 4.84211 -0.276459 0
M  V30 1488 H 131.635 4.51996 0.90668 0
M  V30 1489 H 135.179 6.7608 -1.71935 0
M  V30 1490 H 131.076 6.43329 -0.528927 0
M  V30 1491 H 131.844 7.95034 -1.94586 0
M  V30 1492 N 134.507 -0.190092 1.56449 0
M  V30 1493 C 135.417 -1.25591 1.98152 0
M  V30 1494 C 136.433 -1.49519 0.889944 0
M  V30 1495 O 137.609 -1.62036 1.19609 0
M  V30 1496 C 134.674 -2.57916 2.3169 0
M  V30 1497 C 133.735 -2.42015 3.5458 0
M  V30 1498 C 132.968 -3.6803 3.8651 0
M  V30 1499 O 133.191 -4.72413 3.1966 0
M  V30 1500 O 132.125 -3.6326 4.79923 0
M  V30 1501 H 135.951 -0.931988 2.89046 0
M  V30 1502 H 133.536 -0.395488 1.4407 0
M  V30 1503 H 135.418 -3.36008 2.54316 0
M  V30 1504 H 134.093 -2.89925 1.43963 0
M  V30 1505 H 133 -1.62017 3.37196 0
M  V30 1506 H 134.333 -2.14937 4.4279 0
M  V30 1507 N 135.985 -1.50799 -0.457987 0
M  V30 1508 C 137.232 -1.62442 -1.20908 0
M  V30 1509 C 137.56 -0.330865 -1.91665 0
M  V30 1510 O 136.815 0.68401 -1.83357 0
M  V30 1511 C 137.114 -2.76358 -2.2663 0
M  V30 1512 C 136.78 -4.16378 -1.73033 0
M  V30 1513 C 135.442 -4.54473 -1.58138 0
M  V30 1514 C 137.794 -5.03836 -1.33413 0
M  V30 1515 C 135.122 -5.77754 -1.02065 0
M  V30 1516 C 137.474 -6.27676 -0.78778 0
M  V30 1517 C 136.138 -6.64562 -0.625561 0
M  V30 1518 H 135.408 -0.594417 -0.442435 0
M  V30 1519 H 138.055 -1.84772 -0.503136 0
M  V30 1520 H 136.36 -2.48167 -3.03184 0
M  V30 1521 H 138.057 -2.82568 -2.84528 0
M  V30 1522 H 134.647 -3.86331 -1.85598 0
M  V30 1523 H 138.831 -4.75026 -1.4375 0
M  V30 1524 H 134.087 -6.04997 -0.882547 0
M  V30 1525 H 138.261 -6.94797 -0.472177 0
M  V30 1526 H 135.888 -7.59965 -0.188926 0
M  V30 1527 N 137.463 0.71206 -1.40597 0
M  V30 1528 C 138.71 1.47197 -1.39065 0
M  V30 1529 C 139.038 1.94499 0.00583891 0
M  V30 1530 O 138.293 1.68752 0.99102 0
M  V30 1531 C 138.592 2.71039 -2.32965 0
M  V30 1532 C 138.258 2.42484 -3.80148 0
M  V30 1533 C 136.92 2.34406 -4.20247 0
M  V30 1534 C 139.272 2.18598 -4.73143 0
M  V30 1535 C 136.6 2.00516 -5.51371 0
M  V30 1536 C 138.952 1.8622 -6.0457 0
M  V30 1537 C 137.616 1.76626 -6.43708 0
M  V30 1538 H 136.886 0.538634 -0.508876 0
M  V30 1539 H 139.533 0.815325 -1.73276 0
M  V30 1540 H 137.838 3.41558 -1.91951 0
M  V30 1541 H 139.535 3.29138 -2.29061 0
M  V30 1542 H 136.125 2.49659 -3.4838 0
M  V30 1543 H 140.309 2.23793 -4.42979 0
M  V30 1544 H 135.565 1.91628 -5.80593 0
M  V30 1545 H 139.739 1.66752 -6.76141 0
M  V30 1546 H 137.366 1.50133 -7.45228 0
M  V30 1547 N 138.941 1.26152 0.944643 0
M  V30 1548 C 139.871 1.09902 2.06019 0
M  V30 1549 C 140.852 0.00519538 1.70099 0
M  V30 1550 O 142.037 0.176583 1.93396 0
M  V30 1551 C 139.167 0.727562 3.39594 0
M  V30 1552 C 138.121 1.77274 3.89561 0
M  V30 1553 C 137.447 1.25569 5.19747 0
M  V30 1554 C 138.747 3.17357 4.14827 0
M  V30 1555 H 140.441 2.03217 2.19871 0
M  V30 1556 H 137.987 0.978452 1.05652 0
M  V30 1557 H 139.94 0.600777 4.17095 0
M  V30 1558 H 138.664 -0.241287 3.25707 0
M  V30 1559 H 137.323 1.88814 3.14237 0
M  V30 1560 H 136.971 0.276783 5.02238 0
M  V30 1561 H 136.671 1.95433 5.54148 0
M  V30 1562 H 138.195 1.1415 5.99835 0
M  V30 1563 H 139.609 3.08914 4.82954 0
M  V30 1564 H 138.006 3.84781 4.60504 0
M  V30 1565 H 139.076 3.63673 3.20734 0
M  V30 1566 N 140.419 -1.14872 1.07899 0
M  V30 1567 C 141.83 -1.67367 0.827363 0
M  V30 1568 C 142.181 -1.85236 -0.646693 0
M  V30 1569 O 141.306 -1.55974 -1.50004 0
M  V30 1570 C 141.901 -3.04016 1.49532 0
M  V30 1571 C 140.46 -3.53566 1.29106 0
M  V30 1572 C 139.607 -2.29161 1.56143 0
M  V30 1573 H 142.558 -0.990083 1.24028 0
M  V30 1574 H 142.579 -3.69219 0.919643 0
M  V30 1575 H 142.091 -2.90978 2.56814 0
M  V30 1576 H 140.192 -3.71835 0.238713 0
M  V30 1577 H 140.305 -4.34661 2.01511 0
M  V30 1578 H 138.669 -2.34978 0.982717 0
M  V30 1579 H 139.452 -2.18705 2.64619 0
M  V30 1580 N 141.898 -0.863906 -1.31812 0
M  V30 1581 C 143.175 -0.39275 -1.91616 0
M  V30 1582 C 143.555 1.12461 -1.7865 0
M  V30 1583 O 142.903 1.95045 -1.19037 0
M  V30 1584 C 143.113 -0.867385 -3.38049 0
M  V30 1585 C 144.461 -0.889966 -4.15168 0
M  V30 1586 O 145.485 -0.812635 -3.46806 0
M  V30 1587 O 144.344 -1.00079 -5.37258 0
M  V30 1588 H 141.438 -0.116358 -0.818773 0
M  V30 1589 H 143.984 -0.951418 -1.40521 0
M  V30 1590 H 142.756 -1.91081 -3.41473 0
M  V30 1591 H 142.379 -0.286687 -3.96565 0
M  V30 1592 N 143.376 1.44774 -0.622745 0
M  V30 1593 C 144.324 2.32387 0.0994683 0
M  V30 1594 C 145.318 1.46859 0.844326 0
M  V30 1595 O 146.524 1.63254 0.758174 0
M  V30 1596 H 142.899 0.750273 0.0509291 0
M  V30 1597 H 144.87 2.91062 -0.65767 0
M  V30 1598 C 143.619 3.30723 1.07319 0
M  V30 1599 H 142.942 3.96541 0.509462 0
M  V30 1600 H 144.382 3.94725 1.54817 0
M  V30 1601 C 142.841 2.59021 2.15429 0
M  V30 1602 O 143.371 2.38286 3.23393 0
M  V30 1603 N 141.577 2.189 1.91131 0
M  V30 1604 H 141.124 2.35964 1.03337 0
M  V30 1605 H 141.082 1.71251 2.63668 0
M  V30 1606 N 144.854 0.36279 1.53368 0
M  V30 1607 C 145.787 -0.528507 2.21996 0
M  V30 1608 C 146.765 -1.0852 1.21087 0
M  V30 1609 O 147.949 -1.14186 1.4998 0
M  V30 1610 C 145.076 -1.72893 2.91249 0
M  V30 1611 C 144.122 -1.29994 4.06207 0
M  V30 1612 S 144.955 -0.303575 5.34639 0
M  V30 1613 C 146.111 -1.51039 6.07403 0
M  V30 1614 H 146.344 0.0543423 2.9725 0
M  V30 1615 H 143.877 0.146889 1.537 0
M  V30 1616 H 145.835 -2.41751 3.31763 0
M  V30 1617 H 144.496 -2.28303 2.15724 0
M  V30 1618 H 143.689 -2.19549 4.53667 0
M  V30 1619 H 143.291 -0.690608 3.67569 0
M  V30 1620 H 145.583 -2.44186 6.31965 0
M  V30 1621 H 146.526 -1.07721 6.99858 0
M  V30 1622 H 146.934 -1.71518 5.37812 0
M  V30 1623 N 146.332 -1.57332 0.0918853 0
M  V30 1624 C 147.242 -2.17368 -0.882505 0
M  V30 1625 C 148.258 -1.14226 -1.31257 0
M  V30 1626 O 149.434 -1.46582 -1.38115 0
M  V30 1627 C 146.499 -2.73962 -2.12476 0
M  V30 1628 C 145.56 -3.92048 -1.7492 0
M  V30 1629 C 144.793 -4.45933 -2.93223 0
M  V30 1630 O 145.016 -3.98764 -4.07852 0
M  V30 1631 O 143.95 -5.36999 -2.71875 0
M  V30 1632 H 147.776 -3.01031 -0.40172 0
M  V30 1633 H 145.361 -1.48813 -0.132291 0
M  V30 1634 H 147.243 -3.10147 -2.85283 0
M  V30 1635 H 145.918 -1.93347 -2.59613 0
M  V30 1636 H 144.825 -3.6068 -0.993025 0
M  V30 1637 H 146.158 -4.74017 -1.32548 0
M  V30 1638 N 147.81 0.181792 -1.56548 0
M  V30 1639 C 148.773 1.20894 -1.94724 0
M  V30 1640 C 149.773 1.37738 -0.829747 0
M  V30 1641 O 150.963 1.35323 -1.09697 0
M  V30 1642 C 148.095 2.57593 -2.23291 0
M  V30 1643 H 149.288 0.882275 -2.86629 0
M  V30 1644 H 146.841 0.423838 -1.50444 0
M  V30 1645 H 147.576 2.95291 -1.34067 0
M  V30 1646 H 147.361 2.46735 -3.04736 0
M  V30 1647 H 148.851 3.31637 -2.53785 0
M  V30 1648 N 149.288 1.51039 0.449983 0
M  V30 1649 C 150.218 1.74379 1.55288 0
M  V30 1650 C 151.199 0.593236 1.5942 0
M  V30 1651 O 152.384 0.834625 1.7535 0
M  V30 1652 C 149.514 1.85728 2.93466 0
M  V30 1653 C 148.468 3.01078 3.04197 0
M  V30 1654 C 147.794 2.97595 4.44231 0
M  V30 1655 C 149.094 4.41254 2.7945 0
M  V30 1656 H 150.788 2.66725 1.36008 0
M  V30 1657 H 148.334 1.2835 0.652864 0
M  V30 1658 H 150.287 2.0064 3.70569 0
M  V30 1659 H 149.011 0.900207 3.13949 0
M  V30 1660 H 147.67 2.85851 2.29531 0
M  V30 1661 H 147.318 1.99691 4.61663 0
M  V30 1662 H 147.018 3.75046 4.52343 0
M  V30 1663 H 148.542 3.14583 5.23326 0
M  V30 1664 H 149.956 4.56897 3.46292 0
M  V30 1665 H 148.353 5.20315 2.98985 0
M  V30 1666 H 149.423 4.52164 1.75144 0
M  V30 1667 N 150.766 -0.704594 1.40972 0
M  V30 1668 C 151.698 -1.82974 1.38033 0
M  V30 1669 C 152.711 -1.60305 0.283931 0
M  V30 1670 O 153.9 -1.69975 0.545042 0
M  V30 1671 C 151 -3.19578 1.12795 0
M  V30 1672 C 150.173 -3.69352 2.34302 0
M  V30 1673 C 149.232 -4.84601 2.05058 0
M  V30 1674 O 148.258 -4.96682 2.7802 0
M  V30 1675 N 149.46 -5.71194 1.03528 0
M  V30 1676 H 152.225 -1.85991 2.35005 0
M  V30 1677 H 149.786 -0.886567 1.35468 0
M  V30 1678 H 151.778 -3.9429 0.911987 0
M  V30 1679 H 150.348 -3.11642 0.24452 0
M  V30 1680 H 149.568 -2.85649 2.71659 0
M  V30 1681 H 150.856 -3.99345 3.1528 0
M  V30 1682 H 150.254 -5.64054 0.431217 0
M  V30 1683 H 148.811 -6.45843 0.879205 0
M  V30 1684 N 152.244 -1.26651 -0.937939 0
M  V30 1685 C 153.493 -1.11775 -1.67897 0
M  V30 1686 C 153.806 0.33794 -1.92659 0
M  V30 1687 O 155.012 0.607434 -2.64618 0
M  V30 1688 C 153.468 -1.9523 -3.02346 0
M  V30 1689 C 153.076 -3.45393 -2.8532 0
M  V30 1690 C 154.82 -1.88972 -3.80118 0
M  V30 1691 C 152.727 -4.21083 -4.15263 0
M  V30 1692 H 151.657 -0.414696 -0.629717 0
M  V30 1693 H 154.308 -1.50988 -1.04283 0
M  V30 1694 H 152.69 -1.48853 -3.66959 0
M  V30 1695 H 153.864 -3.99561 -2.29537 0
M  V30 1696 H 152.179 -3.52921 -2.20988 0
M  V30 1697 H 154.776 -2.42805 -4.76392 0
M  V30 1698 H 155.119 -0.86113 -4.07296 0
M  V30 1699 H 155.652 -2.33189 -3.22285 0
M  V30 1700 H 152.391 -5.24425 -3.93267 0
M  V30 1701 H 151.911 -3.71695 -4.70747 0
M  V30 1702 H 153.59 -4.29706 -4.83696 0
M  V30 1703 N 153.722 1.14298 -1.08507 0
M  V30 1704 C 155.138 1.37347 -0.812901 0
M  V30 1705 C 155.338 1.93052 0.577325 0
M  V30 1706 O 154.394 2.14389 1.33393 0
M  V30 1707 C 155.707 2.33359 -1.89642 0
M  V30 1708 C 157.255 2.46996 -1.92255 0
M  V30 1709 C 157.73 3.46309 -2.99724 0
M  V30 1710 N 159.221 3.53853 -2.98902 0
M  V30 1711 C 159.956 4.3055 -3.787 0
M  V30 1712 N 159.452 5.10482 -4.6838 0
M  V30 1713 N 161.245 4.25757 -3.66998 0
M  V30 1714 H 153.396 0.764867 -1.9815 0
M  V30 1715 H 155.659 0.398966 -0.859959 0
M  V30 1716 H 155.365 1.99565 -2.89597 0
M  V30 1717 H 155.239 3.33274 -1.76659 0
M  V30 1718 H 157.626 2.80081 -0.929445 0
M  V30 1719 H 157.707 1.47039 -2.09316 0
M  V30 1720 H 157.351 3.13957 -3.99241 0
M  V30 1721 H 157.281 4.46049 -2.79907 0
M  V30 1722 H 159.772 2.96812 -2.33904 0
M  V30 1723 H 160.085 5.66284 -5.25873 0
M  V30 1724 H 158.43 5.09747 -4.72422 0
M  V30 1725 H 161.621 3.62383 -2.96304 0
M  V30 1726 H 161.794 4.85279 -4.29427 0
M  V30 1727 N 155.201 0.870884 1.31352 0
M  V30 1728 C 156.148 0.325425 2.28494 0
M  V30 1729 C 157.118 -0.576615 1.5577 0
M  V30 1730 O 158.303 -0.508059 1.83911 0
M  V30 1731 C 155.443 -0.466283 3.41935 0
M  V30 1732 C 154.556 0.463378 4.29508 0
M  V30 1733 C 153.691 -0.342544 5.30094 0
M  V30 1734 C 152.73 0.583486 6.09313 0
M  V30 1735 N 151.867 -0.186244 7.01853 0
M  V30 1736 H 156.707 1.15901 2.74538 0
M  V30 1737 H 154.244 0.58294 1.35056 0
M  V30 1738 H 156.202 -0.941085 4.06447 0
M  V30 1739 H 154.832 -1.26456 2.97 0
M  V30 1740 H 153.884 1.05663 3.65431 0
M  V30 1741 H 155.196 1.1734 4.84802 0
M  V30 1742 H 154.35 -0.879816 6.00287 0
M  V30 1743 H 153.089 -1.08585 4.75458 0
M  V30 1744 H 152.094 1.13251 5.3801 0
M  V30 1745 H 153.319 1.32566 6.66035 0
M  V30 1746 H 151.265 -0.912348 6.49625 0
M  V30 1747 H 151.182 0.464422 7.54572 0
M  V30 1748 H 152.45 -0.704716 7.76308 0
M  V30 1749 N 156.679 -1.44442 0.630414 0
M  V30 1750 C 157.611 -2.2892 -0.113347 0
M  V30 1751 C 158.624 -1.41243 -0.80959 0
M  V30 1752 O 159.813 -1.65402 -0.671156 0
M  V30 1753 C 156.913 -3.17594 -1.18266 0
M  V30 1754 C 156.086 -4.33682 -0.569073 0
M  V30 1755 C 155.145 -5.03397 -1.53226 0
M  V30 1756 O 154.171 -5.59438 -1.04967 0
M  V30 1757 N 155.373 -5.04783 -2.86661 0
M  V30 1758 H 158.138 -2.93392 0.611636 0
M  V30 1759 H 155.699 -1.54881 0.471523 0
M  V30 1760 H 157.691 -3.61097 -1.82732 0
M  V30 1761 H 156.261 -2.54876 -1.80988 0
M  V30 1762 H 155.481 -3.9338 0.254187 0
M  V30 1763 H 156.769 -5.08608 -0.139767 0
M  V30 1764 H 156.167 -4.60584 -3.28449 0
M  V30 1765 H 154.724 -5.52077 -3.46489 0
M  V30 1766 N 158.157 -0.370918 -1.53173 0
M  V30 1767 C 159.397 0.217106 -2.03244 0
M  V30 1768 C 159.761 1.45558 -1.25207 0
M  V30 1769 O 160.962 2.11957 -1.65311 0
M  V30 1770 C 159.233 0.496664 -3.53932 0
M  V30 1771 S 160.792 1.0576 -4.25864 0
M  V30 1772 H 157.61 0.0627827 -0.708223 0
M  V30 1773 H 160.212 -0.515019 -1.88594 0
M  V30 1774 H 158.916 -0.412096 -4.08326 0
M  V30 1775 H 158.447 1.25772 -3.72753 0
M  V30 1776 H 160.462 2.34145 -4.37482 0
M  V30 1777 N 159.635 1.57281 -0.100228 0
M  V30 1778 C 160.598 2.13158 0.842398 0
M  V30 1779 C 161.598 1.06202 1.20738 0
M  V30 1780 O 162.788 1.32066 1.13597 0
M  V30 1781 C 159.92 2.65639 2.13655 0
M  V30 1782 H 161.113 2.97766 0.357114 0
M  V30 1783 H 158.666 1.5559 0.148823 0
M  V30 1784 H 159.401 1.84566 2.66657 0
M  V30 1785 H 159.186 3.43844 1.88451 0
M  V30 1786 H 160.676 3.08846 2.81077 0
M  V30 1787 N 161.113 -0.173488 1.56642 0
M  V30 1788 C 162.043 -1.2171 1.99271 0
M  V30 1789 C 163.024 -1.46289 0.867959 0
M  V30 1790 O 164.209 -1.5766 1.13388 0
M  V30 1791 C 161.339 -2.55651 2.35074 0
M  V30 1792 C 160.293 -2.45645 3.50489 0
M  V30 1793 C 159.619 -3.84056 3.72028 0
M  V30 1794 C 160.919 -1.96302 4.84007 0
M  V30 1795 H 162.613 -0.86275 2.867 0
M  V30 1796 H 160.159 -0.413571 1.37933 0
M  V30 1797 H 162.112 -3.2886 2.63494 0
M  V30 1798 H 160.836 -2.92869 1.44552 0
M  V30 1799 H 159.495 -1.7489 3.22194 0
M  V30 1800 H 159.143 -4.18664 2.788 0
M  V30 1801 H 158.843 -3.7823 4.49684 0
M  V30 1802 H 160.367 -4.58854 4.02846 0
M  V30 1803 H 161.781 -2.59284 5.11317 0
M  V30 1804 H 160.178 -2.01429 5.65284 0
M  V30 1805 H 161.248 -0.917226 4.76146 0
M  V30 1806 N 162.591 -1.51276 -0.441967 0
M  V30 1807 C 163.554 -1.7167 -1.51862 0
M  V30 1808 C 164.554 -0.586793 -1.49711 0
M  V30 1809 O 165.744 -0.854276 -1.51815 0
M  V30 1810 C 162.876 -1.76889 -2.91416 0
M  V30 1811 H 164.069 -2.67754 -1.35084 0
M  V30 1812 H 161.622 -1.41196 -0.670333 0
M  V30 1813 H 162.357 -0.826026 -3.13604 0
M  V30 1814 H 162.142 -2.59001 -2.94382 0
M  V30 1815 H 163.632 -1.94522 -3.69528 0
M  V30 1816 N 164.069 0.697108 -1.41344 0
M  V30 1817 C 165.032 1.79281 -1.42797 0
M  V30 1818 C 166.032 1.57607 -0.318837 0
M  V30 1819 O 167.222 1.64309 -0.578642 0
M  V30 1820 C 164.354 3.17632 -1.23785 0
M  V30 1821 H 165.547 1.79385 -2.40335 0
M  V30 1822 H 163.1 0.904582 -1.27464 0
M  V30 1823 H 163.835 3.23167 -0.270814 0
M  V30 1824 H 163.62 3.34765 -2.04144 0
M  V30 1825 H 165.11 3.97617 -1.27633 0
M  V30 1826 N 165.547 1.27147 0.931209 0
M  V30 1827 C 166.477 1.12081 2.04842 0
M  V30 1828 C 167.458 0.0232364 1.70084 0
M  V30 1829 O 168.643 0.197085 1.93197 0
M  V30 1830 C 165.773 0.76354 3.38803 0
M  V30 1831 C 164.727 1.81396 3.87659 0
M  V30 1832 C 164.053 1.31075 5.18385 0
M  V30 1833 C 165.353 3.21739 4.11438 0
M  V30 1834 H 167.047 2.05537 2.17703 0
M  V30 1835 H 164.593 0.989603 1.04608 0
M  V30 1836 H 166.546 0.644982 4.16435 0
M  V30 1837 H 165.27 -0.206727 3.25945 0
M  V30 1838 H 163.929 1.92136 3.12217 0
M  V30 1839 H 163.577 0.330037 5.01916 0
M  V30 1840 H 163.277 2.013 5.52044 0
M  V30 1841 H 164.801 1.20506 5.98591 0
M  V30 1842 H 166.215 3.14019 4.79651 0
M  V30 1843 H 164.612 3.89644 4.56397 0
M  V30 1844 H 165.682 3.67054 3.16859 0
M  V30 1845 N 167.025 -1.13721 1.09112 0
M  V30 1846 C 167.972 -2.19031 0.727591 0
M  V30 1847 C 168.942 -1.63555 -0.289656 0
M  V30 1848 O 170.127 -1.90023 -0.172026 0
M  V30 1849 C 167.267 -3.4477 0.15082 0
M  V30 1850 C 166.38 -4.14365 1.22172 0
M  V30 1851 C 165.515 -5.27709 0.608042 0
M  V30 1852 C 164.554 -5.89147 1.66047 0
M  V30 1853 N 163.691 -6.93929 1.06806 0
M  V30 1854 H 168.531 -2.49475 1.62991 0
M  V30 1855 H 166.068 -1.22499 0.81439 0
M  V30 1856 H 168.026 -4.16714 -0.201358 0
M  V30 1857 H 166.656 -3.14787 -0.714783 0
M  V30 1858 H 165.708 -3.40737 1.69122 0
M  V30 1859 H 167.02 -4.56114 2.01895 0
M  V30 1860 H 166.174 -6.06355 0.204523 0
M  V30 1861 H 164.913 -4.872 -0.220769 0
M  V30 1862 H 163.918 -5.09198 2.07357 0
M  V30 1863 H 165.143 -6.31729 2.49189 0
M  V30 1864 H 163.089 -6.55483 0.260476 0
M  V30 1865 H 163.006 -7.34202 1.8023 0
M  V30 1866 H 164.274 -7.76434 0.690644 0
M  V30 1867 N 168.503 -0.877838 -1.30888 0
M  V30 1868 C 169.78 -0.413052 -1.91189 0
M  V30 1869 C 170.16 1.1056 -1.79832 0
M  V30 1870 O 169.508 1.93771 -1.21099 0
M  V30 1871 C 169.718 -0.903191 -3.3711 0
M  V30 1872 C 171.066 -0.93395 -4.14201 0
M  V30 1873 O 172.09 -0.849373 -3.45925 0
M  V30 1874 O 170.949 -1.05772 -5.36167 0
M  V30 1875 H 168.043 -0.125035 -0.817493 0
M  V30 1876 H 170.589 -0.966269 -1.39504 0
M  V30 1877 H 169.361 -1.94692 -3.39427 0
M  V30 1878 H 168.984 -0.328732 -3.96239 0
M  V30 1879 N 169.982 1.44106 -0.638065 0
M  V30 1880 C 171.228 2.02277 -0.145546 0
M  V30 1881 C 171.561 1.50125 1.23191 0
M  V30 1882 O 170.836 0.688133 1.8192 0
M  V30 1883 C 171.119 3.59829 -0.139791 0
M  V30 1884 C 170.972 4.22247 -1.55008 0
M  V30 1885 C 172.291 4.36873 0.531966 0
M  V30 1886 H 169.41 0.734992 -0.0543632 0
M  V30 1887 H 172.052 1.71592 -0.815863 0
M  V30 1888 H 170.202 3.86102 0.431007 0
M  V30 1889 H 171.874 4.07057 -2.1703 0
M  V30 1890 H 170.117 3.79476 -2.10191 0
M  V30 1891 H 170.788 5.31284 -1.49804 0
M  V30 1892 H 173.264 4.16074 0.0464781 0
M  V30 1893 H 172.14 5.4657 0.505206 0
M  V30 1894 H 172.401 4.11995 1.60352 0
M  V30 1895 N 171.46 0.379036 1.52974 0
M  V30 1896 C 172.41 -0.477772 2.22938 0
M  V30 1897 C 173.394 -1.03792 1.22948 0
M  V30 1898 O 174.586 -0.965725 1.48333 0
M  V30 1899 C 171.715 -1.60994 3.03209 0
M  V30 1900 C 170.801 -1.06203 4.10587 0
M  V30 1901 N 171.192 -0.238214 5.05239 0
M  V30 1902 C 169.49 -1.33554 4.25534 0
M  V30 1903 C 170.191 0.0633235 5.81666 0
M  V30 1904 N 169.167 -0.537901 5.40932 0
M  V30 1905 H 172.969 0.158295 2.93473 0
M  V30 1906 H 170.483 0.187778 1.61311 0
M  V30 1907 H 172.48 -2.23607 3.5186 0
M  V30 1908 H 171.14 -2.24893 2.34207 0
M  V30 1909 H 172.151 0.123695 5.17752 0
M  V30 1910 H 168.828 -1.97632 3.6776 0
M  V30 1911 H 170.218 0.730161 6.67921 0
M  V30 1912 N 172.938 -1.57226 0.108567 0
M  V30 1913 C 173.886 -2.16002 -0.862885 0
M  V30 1914 C 174.88 -1.10644 -1.28274 0
M  V30 1915 O 176.086 -1.28966 -1.2557 0
M  V30 1916 H 172.461 -0.691148 -0.296342 0
M  V30 1917 H 174.432 -2.96427 -0.342575 0
M  V30 1918 C 173.181 -2.76576 -2.10716 0
M  V30 1919 H 172.504 -3.5734 -1.793 0
M  V30 1920 H 173.944 -3.21253 -2.76717 0
M  V30 1921 C 172.403 -1.73137 -2.89007 0
M  V30 1922 O 172.933 -1.17842 -3.84026 0
M  V30 1923 N 171.139 -1.43317 -2.52801 0
M  V30 1924 H 170.686 -1.88473 -1.75601 0
M  V30 1925 H 170.644 -0.743485 -3.05483 0
M  V30 1926 N 174.416 0.165178 -1.56732 0
M  V30 1927 C 175.646 0.894919 -1.86212 0
M  V30 1928 C 176.054 1.76066 -0.692627 0
M  V30 1929 O 175.397 1.80387 0.347303 0
M  V30 1930 C 175.459 1.8174 -3.10179 0
M  V30 1931 C 175.123 1.13064 -4.42793 0
M  V30 1932 C 176.12 0.493169 -5.17556 0
M  V30 1933 C 173.805 1.12556 -4.89527 0
M  V30 1934 C 175.799 -0.140209 -6.37246 0
M  V30 1935 C 173.486 0.488366 -6.09145 0
M  V30 1936 C 174.484 -0.143411 -6.82849 0
M  V30 1937 O 174.172 -0.77055 -8.00199 0
M  V30 1938 H 173.904 0.265114 -0.621844 0
M  V30 1939 H 176.458 0.168242 -2.0471 0
M  V30 1940 H 174.688 2.58455 -2.87642 0
M  V30 1941 H 176.377 2.4175 -3.26055 0
M  V30 1942 H 177.143 0.489023 -4.82528 0
M  V30 1943 H 173.022 1.60672 -4.32094 0
M  V30 1944 H 176.566 -0.633932 -6.94714 0
M  V30 1945 H 172.463 0.490116 -6.43637 0
M  V30 1946 H 173.231 -0.670408 -8.1575 0
M  V30 1947 N 175.894 1.51508 0.433938 0
M  V30 1948 C 176.824 1.76016 1.53429 0
M  V30 1949 C 177.805 0.610112 1.58782 0
M  V30 1950 O 178.99 0.853177 1.74455 0
M  V30 1951 C 176.12 1.88831 2.9148 0
M  V30 1952 C 175.074 3.04288 3.00987 0
M  V30 1953 C 174.4 3.0229 4.4105 0
M  V30 1954 C 175.7 4.44193 2.74754 0
M  V30 1955 H 177.394 2.68152 1.33171 0
M  V30 1956 H 174.94 1.29035 0.639214 0
M  V30 1957 H 176.893 2.04559 3.6842 0
M  V30 1958 H 175.617 0.933455 3.12976 0
M  V30 1959 H 174.276 2.8827 2.26486 0
M  V30 1960 H 173.924 2.04576 4.59519 0
M  V30 1961 H 173.624 3.79822 4.4834 0
M  V30 1962 H 175.148 3.20116 5.1996 0
M  V30 1963 H 176.562 4.60544 3.41426 0
M  V30 1964 H 174.959 5.23457 2.9345 0
M  V30 1965 H 176.029 4.53996 1.70339 0
M  V30 1966 N 177.372 -0.689602 1.41712 0
M  V30 1967 C 178.597 -1.48329 1.44959 0
M  V30 1968 C 179.022 -1.8801 0.0581283 0
M  V30 1969 O 178.38 -1.55026 -0.940035 0
M  V30 1970 C 178.428 -2.71835 2.36935 0
M  V30 1971 O 177.532 -3.69549 1.8305 0
M  V30 1972 H 176.873 -0.446199 0.491734 0
M  V30 1973 H 179.403 -0.847127 1.86239 0
M  V30 1974 H 179.413 -3.20076 2.53013 0
M  V30 1975 H 178.088 -2.42291 3.38035 0
M  V30 1976 H 176.665 -3.2851 1.76452 0
M  V30 1977 N 178.85 -1.27639 -0.924453 0
M  V30 1978 C 179.8 -1.07295 -2.01176 0
M  V30 1979 C 180.784 5.77352e-05 -1.609 0
M  V30 1980 O 181.976 -0.218855 -1.75642 0
M  V30 1981 C 179.105 -0.725592 -3.35544 0
M  V30 1982 C 178.191 -1.83691 -3.82254 0
M  V30 1983 N 178.582 -3.07697 -4.01443 0
M  V30 1984 C 176.88 -1.72433 -4.11319 0
M  V30 1985 C 177.581 -3.80037 -4.40394 0
M  V30 1986 N 176.557 -3.0782 -4.48049 0
M  V30 1987 H 180.359 -2.01399 -2.14046 0
M  V30 1988 H 177.873 -1.18401 -1.11153 0
M  V30 1989 H 179.87 -0.560959 -4.13109 0
M  V30 1990 H 178.53 0.207782 -3.24034 0
M  V30 1991 H 179.541 -3.43424 -3.8766 0
M  V30 1992 H 176.218 -0.862005 -4.08504 0
M  V30 1993 H 177.608 -4.86632 -4.63291 0
M  V30 1994 N 180.328 1.1314 -1.09713 0
M  V30 1995 C 181.238 2.22242 -0.751367 0
M  V30 1996 C 182.254 1.72224 0.247938 0
M  V30 1997 O 183.43 2.01205 0.0885463 0
M  V30 1998 C 180.495 3.46231 -0.180274 0
M  V30 1999 C 179.556 4.11125 -1.2359 0
M  V30 2000 C 178.789 5.29195 -0.691966 0
M  V30 2001 O 179.012 5.68342 0.48414 0
M  V30 2002 O 177.946 5.84214 -1.44838 0
M  V30 2003 H 181.772 2.54197 -1.66186 0
M  V30 2004 H 179.357 1.21331 -0.871735 0
M  V30 2005 H 181.239 4.21185 0.134739 0
M  V30 2006 H 179.914 3.1597 0.703185 0
M  V30 2007 H 178.821 3.37985 -1.60366 0
M  V30 2008 H 180.154 4.45524 -2.09211 0
M  V30 2009 N 181.806 0.884767 1.30421 0
M  V30 2010 C 182.716 0.355398 2.31892 0
M  V30 2011 C 183.732 -0.542261 1.65335 0
M  V30 2012 O 184.908 -0.435432 1.96637 0
M  V30 2013 C 181.973 -0.421661 3.44126 0
M  V30 2014 C 181.034 0.505727 4.26311 0
M  V30 2015 C 180.267 -0.234343 5.33185 0
M  V30 2016 O 180.49 -1.46045 5.51386 0
M  V30 2017 O 179.424 0.415443 6.00465 0
M  V30 2018 H 183.25 1.19685 2.79122 0
M  V30 2019 H 180.835 0.648596 1.34587 0
M  V30 2020 H 182.717 -0.861641 4.12497 0
M  V30 2021 H 181.392 -1.23942 2.99032 0
M  V30 2022 H 180.299 0.994513 3.60639 0
M  V30 2023 H 181.632 1.28948 4.75009 0
M  V30 2024 N 183.284 -1.43765 0.645699 0
M  V30 2025 C 184.532 -2.01499 0.155731 0
M  V30 2026 C 184.853 -1.51151 -1.232 0
M  V30 2027 O 184.123 -0.721044 -1.82148 0
M  V30 2028 H 182.703 -0.745003 0.0545817 0
M  V30 2029 H 185.365 -1.76075 0.835677 0
M  V30 2030 H 184.461 -3.1181 0.134577 0
M  V30 2031 N 184.763 -0.387143 -1.52771 0
M  V30 2032 C 185.713 0.465942 -2.23188 0
M  V30 2033 C 186.697 1.03138 -1.23496 0
M  V30 2034 O 187.889 0.957845 -1.48843 0
M  V30 2035 C 185.018 1.59384 -3.04059 0
M  V30 2036 C 184.104 1.04024 -4.11144 0
M  V30 2037 N 184.495 0.211416 -5.05358 0
M  V30 2038 C 182.793 1.31295 -4.26237 0
M  V30 2039 C 183.494 -0.0941698 -5.81624 0
M  V30 2040 N 182.47 0.509207 -5.4121 0
M  V30 2041 H 186.272 -0.173856 -2.93385 0
M  V30 2042 H 183.786 -0.19633 -1.61209 0
M  V30 2043 H 185.783 2.21738 -3.53041 0
M  V30 2044 H 184.443 2.23648 -2.35397 0
M  V30 2045 H 185.454 -0.151151 -5.17679 0
M  V30 2046 H 182.131 1.95679 -3.68803 0
M  V30 2047 H 183.521 -0.765572 -6.67524 0
M  V30 2048 N 186.241 1.57166 -0.116904 0
M  V30 2049 C 187.487 1.95412 0.542405 0
M  V30 2050 C 187.82 1.00019 1.66463 0
M  V30 2051 O 187.095 0.0370346 1.94465 0
M  V30 2052 C 187.378 3.43615 1.07708 0
M  V30 2053 C 187.231 4.49781 -0.0415868 0
M  V30 2054 C 188.55 3.93616 1.96861 0
M  V30 2055 H 185.669 0.710543 0.195696 0
M  V30 2056 H 188.311 1.89027 -0.192038 0
M  V30 2057 H 186.461 3.49187 1.70296 0
M  V30 2058 H 188.133 4.56308 -0.676793 0
M  V30 2059 H 186.376 4.28033 -0.705019 0
M  V30 2060 H 187.047 5.50733 0.373717 0
M  V30 2061 H 189.523 3.90335 1.44146 0
M  V30 2062 H 188.399 4.97838 2.3119 0
M  V30 2063 H 188.66 3.34188 2.89432 0
M  V30 2064 N 187.719 -0.156864 1.56817 0
M  V30 2065 C 188.682 -1.17781 1.96622 0
M  V30 2066 C 189.682 -1.36401 0.851555 0
M  V30 2067 O 190.872 -1.33561 1.11836 0
M  V30 2068 C 188.004 -2.54008 2.27361 0
M  V30 2069 H 189.197 -0.836564 2.87996 0
M  V30 2070 H 186.75 -0.39985 1.51099 0
M  V30 2071 H 187.485 -2.9312 1.38748 0
M  V30 2072 H 187.27 -2.41856 3.08623 0
M  V30 2073 H 188.76 -3.27558 2.59029 0
M  V30 2074 N 189.197 -1.51736 -0.425897 0
M  V30 2075 C 190.443 -1.65214 -1.1761 0
M  V30 2076 C 190.776 -0.372778 -1.90589 0
M  V30 2077 O 190.051 0.628139 -1.84078 0
M  V30 2078 C 190.334 -2.86312 -2.18398 0
M  V30 2079 C 190.187 -4.24254 -1.49426 0
M  V30 2080 C 191.506 -3.02925 -3.19256 0
M  V30 2081 H 188.625 -0.601263 -0.426206 0
M  V30 2082 H 191.267 -1.8425 -0.463882 0
M  V30 2083 H 189.417 -2.70213 -2.79137 0
M  V30 2084 H 191.089 -4.52046 -0.919362 0
M  V30 2085 H 189.332 -4.26426 -0.796432 0
M  V30 2086 H 190.003 -5.05001 -2.22885 0
M  V30 2087 H 192.479 -3.1781 -2.68581 0
M  V30 2088 H 191.355 -3.89199 -3.8706 0
M  V30 2089 H 191.616 -2.15497 -3.86023 0
M  V30 2090 N 190.675 0.682077 -1.42076 0
M  V30 2091 C 191.922 1.44215 -1.42156 0
M  V30 2092 C 192.25 1.94468 -0.0354186 0
M  V30 2093 O 191.505 1.70816 0.955002 0
M  V30 2094 C 191.804 2.66036 -2.38662 0
M  V30 2095 C 191.47 2.34366 -3.85206 0
M  V30 2096 C 190.132 2.25439 -4.25124 0
M  V30 2097 C 192.484 2.08513 -4.77673 0
M  V30 2098 C 189.812 1.88775 -5.55501 0
M  V30 2099 C 192.164 1.73354 -6.08384 0
M  V30 2100 C 190.828 1.62933 -6.47309 0
M  V30 2101 H 190.098 0.527718 -0.520187 0
M  V30 2102 H 192.745 0.778387 -1.74967 0
M  V30 2103 H 191.05 3.3741 -1.99152 0
M  V30 2104 H 192.747 3.24205 -2.35991 0
M  V30 2105 H 189.337 2.42213 -3.53597 0
M  V30 2106 H 193.521 2.14346 -4.47626 0
M  V30 2107 H 188.777 1.7927 -5.84527 0
M  V30 2108 H 192.951 1.52373 -6.79526 0
M  V30 2109 H 190.578 1.34292 -7.48244 0
M  V30 2110 N 192.153 1.28127 0.917671 0
M  V30 2111 C 193.43 1.05761 1.64542 0
M  V30 2112 C 193.81 -0.404344 2.07191 0
M  V30 2113 O 193.158 -1.38963 1.81388 0
M  V30 2114 C 193.368 2.02857 2.83989 0
M  V30 2115 C 194.716 2.32786 3.551 0
M  V30 2116 O 195.74 2.0091 2.94132 0
M  V30 2117 O 194.599 2.87169 4.64969 0
M  V30 2118 H 191.693 0.403916 0.721652 0
M  V30 2119 H 194.239 1.39431 0.967322 0
M  V30 2120 H 193.011 3.01407 2.49538 0
M  V30 2121 H 192.634 1.69809 3.59514 0
M  V30 2122 N 193.631 -1.12557 1.10312 0
M  V30 2123 C 194.594 -2.16434 0.75424 0
M  V30 2124 C 195.594 -1.59278 -0.220685 0
M  V30 2125 O 196.784 -1.742 0.00230591 0
M  V30 2126 C 193.916 -3.40699 0.116987 0
M  V30 2127 H 195.109 -2.48811 1.67431 0
M  V30 2128 H 192.662 -1.27542 0.903475 0
M  V30 2129 H 193.397 -3.13921 -0.813877 0
M  V30 2130 H 193.182 -3.83459 0.818613 0
M  V30 2131 H 194.672 -4.17451 -0.111387 0
M  V30 2132 N 195.109 -0.891671 -1.2995 0
M  V30 2133 C 196.337 -0.52866 -2.00032 0
M  V30 2134 C 196.752 0.884574 -1.66795 0
M  V30 2135 O 196.109 1.5827 -0.908669 0
M  V30 2136 C 196.16 -0.701814 -3.54622 0
M  V30 2137 O 195.881 -2.05942 -3.86678 0
M  V30 2138 C 197.382 -0.342683 -4.41973 0
M  V30 2139 H 194.602 -0.203659 -0.639347 0
M  V30 2140 H 197.146 -1.19881 -1.65677 0
M  V30 2141 H 195.301 -0.0789468 -3.8732 0
M  V30 2142 H 195.715 -2.08291 -4.81368 0
M  V30 2143 H 197.189 -0.514709 -5.49595 0
M  V30 2144 H 197.666 0.71975 -4.33262 0
M  V30 2145 H 198.272 -0.942154 -4.14733 0
M  V30 2146 N 196.587 1.43421 -0.653314 0
M  V30 2147 C 197.535 2.32546 0.0501531 0
M  V30 2148 C 198.529 1.48617 0.812985 0
M  V30 2149 O 199.735 1.64825 0.723375 0
M  V30 2150 H 196.11 0.751185 0.0350032 0
M  V30 2151 H 198.081 2.89602 -0.719261 0
M  V30 2152 C 196.83 3.32925 1.00279 0
M  V30 2153 H 196.153 3.97532 0.425236 0
M  V30 2154 H 197.593 3.9792 1.46409 0
M  V30 2155 C 196.052 2.63532 2.09886 0
M  V30 2156 O 196.582 2.45092 3.18265 0
M  V30 2157 N 194.788 2.22905 1.86445 0
M  V30 2158 H 194.335 2.38103 0.98309 0
M  V30 2159 H 194.293 1.76805 2.59976 0
M  V30 2160 N 198.065 0.39524 1.52563 0
M  V30 2161 C 199.293 -0.184943 2.06072 0
M  V30 2162 C 199.708 -1.40021 1.26647 0
M  V30 2163 O 199.065 -1.79767 0.314672 0
M  V30 2164 C 199.116 -0.549179 3.57304 0
M  V30 2165 O 198.837 0.617813 4.33722 0
M  V30 2166 C 200.338 -1.18459 4.2718 0
M  V30 2167 H 197.558 -0.0265025 0.670476 0
M  V30 2168 H 200.102 0.562184 1.96621 0
M  V30 2169 H 198.257 -1.2462 3.66809 0
M  V30 2170 H 198.671 0.317091 5.23541 0
M  V30 2171 H 200.145 -1.38976 5.34219 0
M  V30 2172 H 200.622 -2.15368 3.82771 0
M  V30 2173 H 201.228 -0.528163 4.22008 0
M  V30 2174 N 199.544 -1.57102 0.125237 0
M  V30 2175 C 200.772 -1.99761 -0.538797 0
M  V30 2176 C 201.187 -1.00503 -1.59827 0
M  V30 2177 O 200.544 0.00119474 -1.825 0
M  V30 2178 C 200.595 -3.42408 -1.15927 0
M  V30 2179 O 200.316 -4.37869 -0.142143 0
M  V30 2180 C 201.817 -4.00232 -1.90602 0
M  V30 2181 H 199.037 -0.655772 -0.14214 0
M  V30 2182 H 201.581 -2.03383 0.213413 0
M  V30 2183 H 199.736 -3.39706 -1.86223 0
M  V30 2184 H 200.15 -5.21128 -0.593775 0
M  V30 2185 H 201.624 -5.02105 -2.29335 0
M  V30 2186 H 202.101 -3.39721 -2.78363 0
M  V30 2187 H 202.707 -4.06499 -1.25055 0
M  V30 2188 N 201.022 0.148545 -1.56898 0
M  V30 2189 C 202.438 0.501131 -1.51528 0
M  V30 2190 C 202.638 1.83458 -0.833399 0
M  V30 2191 O 201.694 2.49259 -0.40328 0
M  V30 2192 C 203.007 0.512864 -2.96294 0
M  V30 2193 C 204.555 0.598487 -3.07225 0
M  V30 2194 C 205.03 0.640897 -4.53494 0
M  V30 2195 N 206.521 0.703163 -4.57832 0
M  V30 2196 C 207.256 0.756935 -5.68382 0
M  V30 2197 N 206.752 0.770147 -6.88506 0
M  V30 2198 N 208.545 0.797698 -5.56411 0
M  V30 2199 H 200.696 -0.725532 -1.99624 0
M  V30 2200 H 202.959 -0.264358 -0.910395 0
M  V30 2201 H 202.665 -0.398691 -3.49433 0
M  V30 2202 H 202.539 1.35133 -3.52163 0
M  V30 2203 H 204.926 1.50046 -2.54106 0
M  V30 2204 H 205.007 -0.267093 -2.54402 0
M  V30 2205 H 204.651 -0.256915 -5.0725 0
M  V30 2206 H 204.581 1.52295 -5.04097 0
M  V30 2207 H 207.072 0.700314 -3.71354 0
M  V30 2208 H 207.385 0.812983 -7.68512 0
M  V30 2209 H 205.73 0.738049 -6.9107 0
M  V30 2210 H 208.921 0.784535 -4.61479 0
M  V30 2211 H 209.094 0.83614 -6.42583 0
M  V30 2212 N 202.5 1.5196 0.417844 0
M  V30 2213 C 203.41 1.77554 1.53336 0
M  V30 2214 C 204.426 0.660655 1.6097 0
M  V30 2215 O 205.602 0.945099 1.77848 0
M  V30 2216 C 202.667 1.91291 2.89152 0
M  V30 2217 C 201.728 3.15183 2.91475 0
M  V30 2218 C 200.961 3.28256 4.20813 0
M  V30 2219 O 201.184 2.46798 5.14244 0
M  V30 2220 O 200.118 4.21356 4.29817 0
M  V30 2221 H 203.944 2.7222 1.34647 0
M  V30 2222 H 201.529 1.36698 0.602828 0
M  V30 2223 H 203.411 2.02199 3.69721 0
M  V30 2224 H 202.086 0.998129 3.07927 0
M  V30 2225 H 200.993 3.09739 2.09791 0
M  V30 2226 H 202.326 4.06414 2.77648 0
M  V30 2227 N 203.978 -0.674533 1.42435 0
M  V30 2228 C 205.394 -0.98769 1.25367 0
M  V30 2229 C 205.594 -2.00879 0.158044 0
M  V30 2230 O 204.65 -2.48075 -0.470633 0
M  V30 2231 C 205.963 -1.49224 2.6106 0
M  V30 2232 C 207.511 -1.61 2.68417 0
M  V30 2233 C 207.986 -2.14852 4.04478 0
M  V30 2234 N 209.477 -2.22185 4.06434 0
M  V30 2235 C 210.212 -2.64928 5.08528 0
M  V30 2236 N 209.708 -3.07121 6.21006 0
M  V30 2237 N 211.501 -2.64679 4.95885 0
M  V30 2238 H 203.652 0.00152503 2.124 0
M  V30 2239 H 205.915 -0.0618434 0.945981 0
M  V30 2240 H 205.621 -0.816453 3.42092 0
M  V30 2241 H 205.495 -2.47094 2.84999 0
M  V30 2242 H 207.882 -2.27686 1.87732 0
M  V30 2243 H 207.963 -0.616195 2.48267 0
M  V30 2244 H 207.607 -1.48775 4.85622 0
M  V30 2245 H 207.537 -3.15024 4.2198 0
M  V30 2246 H 210.028 -1.92435 3.25234 0
M  V30 2247 H 210.341 -3.38423 6.94759 0
M  V30 2248 H 208.686 -3.04978 6.24511 0
M  V30 2249 H 211.877 -2.31078 4.07088 0
M  V30 2250 H 212.05 -2.9767 5.75584 0
M  V30 2251 N 205.456 -1.28612 -0.910864 0
M  V30 2252 C 206.872 -1.06381 -1.18976 0
M  V30 2253 C 207.072 0.191998 -2.00583 0
M  V30 2254 O 206.128 0.892869 -2.36187 0
M  V30 2255 C 207.441 -2.31295 -1.92154 0
M  V30 2256 C 208.989 -2.36503 -2.05025 0
M  V30 2257 C 209.464 -3.61191 -2.81612 0
M  V30 2258 N 210.955 -3.61847 -2.89172 0
M  V30 2259 C 211.69 -4.55004 -3.4894 0
M  V30 2260 N 211.186 -5.58482 -4.09963 0
M  V30 2261 N 212.979 -4.42594 -3.46506 0
M  V30 2262 H 205.13 -2.09221 -0.366094 0
M  V30 2263 H 207.393 -0.921003 -0.224629 0
M  V30 2264 H 207.099 -3.228 -1.39618 0
M  V30 2265 H 206.973 -2.37934 -2.9269 0
M  V30 2266 H 209.36 -1.45494 -2.5674 0
M  V30 2267 H 209.441 -2.33857 -1.03657 0
M  V30 2268 H 209.085 -4.52545 -2.30576 0
M  V30 2269 H 209.015 -3.61092 -3.83302 0
M  V30 2270 H 211.506 -2.87022 -2.45819 0
M  V30 2271 H 211.819 -6.25704 -4.53557 0
M  V30 2272 H 210.164 -5.62305 -4.08459 0
M  V30 2273 H 213.355 -3.60953 -2.98045 0
M  V30 2274 H 213.528 -5.15381 -3.92793 0
M  V30 2275 N 206.934 1.1197 -1.10907 0
M  V30 2276 C 208.159 1.87942 -0.877064 0
M  V30 2277 C 208.584 1.79341 0.567314 0
M  V30 2278 O 207.942 1.15184 1.40009 0
M  V30 2279 C 207.99 3.34926 -1.33629 0
M  V30 2280 O 207.094 4.09303 -0.504447 0
M  V30 2281 H 206.435 0.583785 -0.316371 0
M  V30 2282 H 208.965 1.4157 -1.47712 0
M  V30 2283 H 208.975 3.8577 -1.32837 0
M  V30 2284 H 207.65 3.40504 -2.3881 0
M  V30 2285 H 206.227 3.68393 -0.577993 0
M  V30 2286 N 208.412 0.89855 1.29475 0
M  V30 2287 C 209.342 0.39201 2.30186 0
M  V30 2288 C 210.323 -0.532359 1.61555 0
M  V30 2289 O 211.508 -0.443331 1.89072 0
M  V30 2290 C 208.638 -0.382353 3.45189 0
M  V30 2291 C 207.592 0.451483 4.25612 0
M  V30 2292 C 206.918 -0.450307 5.328 0
M  V30 2293 C 208.218 1.70079 4.93832 0
M  V30 2294 H 209.912 1.23362 2.72804 0
M  V30 2295 H 207.458 0.594638 1.31149 0
M  V30 2296 H 209.411 -0.747451 4.14718 0
M  V30 2297 H 208.135 -1.25774 3.01411 0
M  V30 2298 H 206.794 0.798897 3.57789 0
M  V30 2299 H 206.442 -1.32379 4.85268 0
M  V30 2300 H 206.142 0.103902 5.87508 0
M  V30 2301 H 207.666 -0.811623 6.05182 0
M  V30 2302 H 209.08 1.40549 5.55805 0
M  V30 2303 H 207.477 2.19623 5.58467 0
M  V30 2304 H 208.547 2.43744 4.19186 0
M  V30 2305 N 209.89 -1.43072 0.660911 0
M  V30 2306 C 211.139 -2.00942 0.174735 0
M  V30 2307 C 211.452 -1.52797 -1.22117 0
M  V30 2308 O 212.658 -2.02991 -1.80297 0
M  V30 2309 C 211.114 -3.58948 0.261559 0
M  V30 2310 C 210.722 -4.16085 1.66064 0
M  V30 2311 C 212.466 -4.24173 -0.166617 0
M  V30 2312 C 210.373 -5.6641 1.70098 0
M  V30 2313 H 209.303 -0.751483 0.0615631 0
M  V30 2314 H 211.954 -1.63955 0.824069 0
M  V30 2315 H 210.336 -3.93372 -0.455421 0
M  V30 2316 H 211.51 -3.93147 2.40359 0
M  V30 2317 H 209.825 -3.6326 2.03546 0
M  V30 2318 H 212.422 -5.34471 -0.156433 0
M  V30 2319 H 212.765 -3.98647 -1.19943 0
M  V30 2320 H 213.298 -3.94659 0.498875 0
M  V30 2321 H 210.037 -5.96715 2.71315 0
M  V30 2322 H 209.557 -5.91382 1.00139 0
M  V30 2323 H 211.236 -6.30585 1.44816 0
M  V30 2324 N 211.368 -0.403325 -1.52352 0
M  V30 2325 C 212.298 0.416205 -2.29761 0
M  V30 2326 C 213.279 1.05123 -1.33728 0
M  V30 2327 O 214.464 1.06134 -1.62632 0
M  V30 2328 C 211.594 1.53624 -3.11475 0
M  V30 2329 C 210.548 1.02653 -4.15507 0
M  V30 2330 C 209.874 2.23971 -4.85532 0
M  V30 2331 C 211.174 0.08463 -5.22231 0
M  V30 2332 H 212.868 -0.229701 -2.98518 0
M  V30 2333 H 210.414 -0.111913 -1.43564 0
M  V30 2334 H 212.367 2.1165 -3.64393 0
M  V30 2335 H 211.091 2.20994 -2.40477 0
M  V30 2336 H 209.75 0.46871 -3.63591 0
M  V30 2337 H 209.398 2.89883 -4.11068 0
M  V30 2338 H 209.098 1.90521 -5.55856 0
M  V30 2339 H 210.622 2.82614 -5.41259 0
M  V30 2340 H 212.036 0.573509 -5.70424 0
M  V30 2341 H 210.433 -0.160783 -5.99885 0
M  V30 2342 H 211.503 -0.86237 -4.7717 0
M  V30 2343 N 212.846 1.57033 -0.133567 0
M  V30 2344 C 213.778 2.13176 0.841944 0
M  V30 2345 C 214.791 1.07794 1.22001 0
M  V30 2346 O 215.98 1.35117 1.16643 0
M  V30 2347 C 213.08 2.62847 2.13926 0
M  V30 2348 C 212.253 3.92486 1.93064 0
M  V30 2349 C 211.312 4.27605 3.0666 0
M  V30 2350 O 210.338 4.96168 2.78937 0
M  V30 2351 N 211.54 3.861 4.33483 0
M  V30 2352 H 214.305 2.97503 0.362192 0
M  V30 2353 H 211.866 1.61821 0.05042 0
M  V30 2354 H 213.858 2.83363 2.88942 0
M  V30 2355 H 212.428 1.83319 2.53205 0
M  V30 2356 H 211.648 3.80732 1.02159 0
M  V30 2357 H 212.936 4.77225 1.76447 0
M  V30 2358 H 212.334 3.30828 4.58878 0
M  V30 2359 H 210.891 4.11694 5.05323 0
M  V30 2360 N 214.325 -0.140222 1.56975 0
M  V30 2361 C 215.572 -0.851687 1.83719 0
M  V30 2362 C 215.9 -1.80862 0.715485 0
M  V30 2363 O 215.155 -1.93464 -0.294956 0
M  V30 2364 C 215.454 -1.65386 3.16832 0
M  V30 2365 C 215.12 -0.843112 4.42947 0
M  V30 2366 C 213.782 -0.619464 4.77196 0
M  V30 2367 C 216.134 -0.276582 5.20466 0
M  V30 2368 C 213.462 0.181312 5.8642 0
M  V30 2369 C 215.814 0.51127 6.30531 0
M  V30 2370 C 214.478 0.745432 6.63325 0
M  V30 2371 H 213.748 -0.311654 0.672274 0
M  V30 2372 H 216.395 -0.115006 1.91154 0
M  V30 2373 H 214.7 -2.46084 3.04877 0
M  V30 2374 H 216.397 -2.20793 3.34741 0
M  V30 2375 H 212.987 -1.0275 4.16101 0
M  V30 2376 H 217.171 -0.436632 4.94376 0
M  V30 2377 H 212.427 0.372165 6.10266 0
M  V30 2378 H 216.601 0.957354 6.89788 0
M  V30 2379 H 214.228 1.36778 7.47794 0
M  V30 2380 N 215.803 -1.52179 -0.40978 0
M  V30 2381 C 216.766 -1.74853 -1.48186 0
M  V30 2382 C 217.766 -0.618417 -1.48433 0
M  V30 2383 O 218.956 -0.886286 -1.49969 0
M  V30 2384 C 216.088 -1.8303 -2.87598 0
M  V30 2385 H 217.281 -2.70559 -1.29374 0
M  V30 2386 H 214.834 -1.42586 -0.640233 0
M  V30 2387 H 215.569 -0.89236 -3.11781 0
M  V30 2388 H 215.354 -2.65187 -2.88822 0
M  V30 2389 H 216.844 -2.02316 -3.65319 0
M  V30 2390 N 217.281 0.66697 -1.42791 0
M  V30 2391 C 218.228 1.7803 -1.4688 0
M  V30 2392 C 219.198 1.6299 -0.319919 0
M  V30 2393 O 220.383 1.83432 -0.525118 0
M  V30 2394 C 217.523 3.1611 -1.38451 0
M  V30 2395 C 216.636 3.42381 -2.63437 0
M  V30 2396 C 215.771 4.70232 -2.47094 0
M  V30 2397 C 214.81 4.89564 -3.67415 0
M  V30 2398 N 213.947 6.08661 -3.49966 0
M  V30 2399 H 218.787 1.7387 -2.42019 0
M  V30 2400 H 216.324 0.84868 -1.20149 0
M  V30 2401 H 218.282 3.95914 -1.31561 0
M  V30 2402 H 216.912 3.19374 -0.469033 0
M  V30 2403 H 215.964 2.56774 -2.80662 0
M  V30 2404 H 217.276 3.52557 -3.52853 0
M  V30 2405 H 216.43 5.5814 -2.37834 0
M  V30 2406 H 215.169 4.62353 -1.5518 0
M  V30 2407 H 214.174 4.00096 -3.77099 0
M  V30 2408 H 215.399 4.99282 -4.6032 0
M  V30 2409 H 213.345 6.0194 -2.60776 0
M  V30 2410 H 213.262 6.19733 -4.32975 0
M  V30 2411 H 214.53 6.99226 -3.44532 0
M  V30 2412 N 218.759 1.29093 0.90403 0
M  V30 2413 C 219.669 1.15727 2.0407 0
M  V30 2414 C 220.685 0.0815308 1.73809 0
M  V30 2415 O 221.861 0.292749 1.99261 0
M  V30 2416 C 218.926 0.830424 3.36608 0
M  V30 2417 C 217.987 1.98955 3.80415 0
M  V30 2418 C 217.22 1.6782 5.06628 0
M  V30 2419 O 217.443 0.597105 5.67266 0
M  V30 2420 O 216.377 2.52486 5.46383 0
M  V30 2421 H 220.203 2.11171 2.18267 0
M  V30 2422 H 217.788 1.08504 1.027 0
M  V30 2423 H 219.67 0.662521 4.16159 0
M  V30 2424 H 218.345 -0.0942678 3.23563 0
M  V30 2425 H 217.252 2.21267 3.01648 0
M  V30 2426 H 218.585 2.89529 3.98037 0
M  V30 2427 N 220.237 -1.11381 1.11499 0
M  V30 2428 C 221.187 -2.15555 0.74298 0
M  V30 2429 C 222.171 -1.58894 -0.253276 0
M  V30 2430 O 223.363 -1.76897 -0.0602918 0
M  V30 2431 C 220.492 -3.42782 0.188481 0
M  V30 2432 C 219.578 -4.064 1.21244 0
M  V30 2433 N 219.969 -4.44864 2.40685 0
M  V30 2434 C 218.267 -4.3333 1.05552 0
M  V30 2435 C 218.968 -4.94715 3.05994 0
M  V30 2436 N 217.944 -4.90909 2.33472 0
M  V30 2437 H 221.746 -2.43074 1.65203 0
M  V30 2438 H 219.26 -1.28401 0.994329 0
M  V30 2439 H 221.257 -4.16789 -0.0961693 0
M  V30 2440 H 219.917 -3.16727 -0.715149 0
M  V30 2441 H 220.928 -4.36876 2.78136 0
M  V30 2442 H 217.605 -4.1698 0.208372 0
M  V30 2443 H 218.995 -5.34103 4.07656 0
M  V30 2444 N 221.715 -0.905404 -1.28997 0
M  V30 2445 C 222.963 -0.533192 -1.9494 0
M  V30 2446 C 223.284 0.924618 -1.71685 0
M  V30 2447 O 222.554 1.65268 -1.05183 0
M  V30 2448 H 221.134 -0.194194 -0.721317 0
M  V30 2449 H 223.796 -1.15294 -1.57141 0
M  V30 2450 H 222.892 -0.72059 -3.03667 0
M  V30 2451 N 223.193 1.4272 -0.668489 0
M  V30 2452 C 224.423 2.05668 -0.196063 0
M  V30 2453 C 224.831 1.5028 1.14946 0
M  V30 2454 O 224.174 0.6348 1.72383 0
M  V30 2455 C 224.236 3.59469 -0.0468879 0
M  V30 2456 C 223.9 4.37518 -1.32012 0
M  V30 2457 C 224.897 4.68584 -2.25222 0
M  V30 2458 C 222.582 4.77266 -1.56596 0
M  V30 2459 C 224.576 5.38326 -3.41297 0
M  V30 2460 C 222.263 5.4675 -2.72962 0
M  V30 2461 C 223.261 5.77204 -3.65137 0
M  V30 2462 O 222.949 6.45264 -4.79468 0
M  V30 2463 H 222.681 0.669382 -0.0943599 0
M  V30 2464 H 225.235 1.83954 -0.913788 0
M  V30 2465 H 223.465 3.79817 0.726357 0
M  V30 2466 H 225.154 4.04071 0.384852 0
M  V30 2467 H 225.92 4.38382 -2.07477 0
M  V30 2468 H 221.799 4.52959 -0.857249 0
M  V30 2469 H 225.343 5.62014 -4.13263 0
M  V30 2470 H 221.24 5.76369 -2.90635 0
M  V30 2471 H 222.008 6.63753 -4.78931 0
M  V30 2472 N 224.671 0.411399 1.52136 0
M  V30 2473 C 225.618 -0.412975 2.27075 0
M  V30 2474 C 226.588 -1.03912 1.29582 0
M  V30 2475 O 227.773 -1.06296 1.58448 0
M  V30 2476 C 224.913 -1.52247 3.09701 0
M  V30 2477 C 224.026 -0.917021 4.22155 0
M  V30 2478 C 223.161 -1.9994 4.92135 0
M  V30 2479 C 222.2 -1.37101 5.96548 0
M  V30 2480 N 221.337 -2.39364 6.60038 0
M  V30 2481 H 226.177 0.232499 2.97092 0
M  V30 2482 H 223.714 0.126496 1.46555 0
M  V30 2483 H 225.672 -2.17674 3.55913 0
M  V30 2484 H 224.302 -2.13794 2.41851 0
M  V30 2485 H 223.354 -0.151742 3.80097 0
M  V30 2486 H 224.666 -0.418006 4.97045 0
M  V30 2487 H 223.82 -2.73088 5.41763 0
M  V30 2488 H 222.559 -2.53208 4.16818 0
M  V30 2489 H 221.564 -0.624873 5.46237 0
M  V30 2490 H 222.789 -0.845998 6.7381 0
M  V30 2491 H 220.735 -2.91759 5.87548 0
M  V30 2492 H 220.652 -1.9428 7.3061 0
M  V30 2493 H 221.92 -3.12074 7.14304 0
M  V30 2494 N 226.149 -1.5696 0.141893 0
M  V30 2495 C 227.395 -1.9625 -0.511248 0
M  V30 2496 C 227.728 -1.02654 -1.64851 0
M  V30 2497 O 227.003 -0.0679676 -1.94381 0
M  V30 2498 C 227.286 -3.45285 -1.02227 0
M  V30 2499 C 227.139 -4.49658 0.113138 0
M  V30 2500 C 228.458 -3.96698 -1.90574 0
M  V30 2501 H 225.577 -0.713567 -0.184367 0
M  V30 2502 H 228.219 -1.88698 0.222087 0
M  V30 2503 H 226.369 -3.51852 -1.64719 0
M  V30 2504 H 228.041 -4.55174 0.749302 0
M  V30 2505 H 226.284 -4.26857 0.773026 0
M  V30 2506 H 226.955 -5.51258 -0.286053 0
M  V30 2507 H 229.431 -3.92578 -1.37918 0
M  V30 2508 H 228.307 -5.01453 -2.2324 0
M  V30 2509 H 228.568 -3.3875 -2.84079 0
M  V30 2510 N 227.627 0.131896 -1.57047 0
M  V30 2511 C 228.874 0.841932 -1.84168 0
M  V30 2512 C 229.202 1.8048 -0.725066 0
M  V30 2513 O 228.457 1.93618 0.284692 0
M  V30 2514 C 228.756 1.63703 -3.17704 0
M  V30 2515 C 228.422 0.81961 -4.43388 0
M  V30 2516 C 227.084 0.594148 -4.77518 0
M  V30 2517 C 229.436 0.248977 -5.20605 0
M  V30 2518 C 226.764 -0.212409 -5.86315 0
M  V30 2519 C 229.116 -0.544701 -6.30251 0
M  V30 2520 C 227.78 -0.780599 -6.6292 0
M  V30 2521 H 227.05 0.308085 -0.673917 0
M  V30 2522 H 229.697 0.104867 -1.91213 0
M  V30 2523 H 228.002 2.44464 -3.06177 0
M  V30 2524 H 229.699 2.19015 -3.35907 0
M  V30 2525 H 226.289 1.00542 -4.16641 0
M  V30 2526 H 230.473 0.410408 -4.946 0
M  V30 2527 H 225.729 -0.404524 -6.1006 0
M  V30 2528 H 229.903 -0.993922 -6.89271 0
M  V30 2529 H 227.53 -1.40742 -7.47058 0
M  V30 2530 N 229.106 1.52395 0.401703 0
M  V30 2531 C 230.353 1.66817 1.14796 0
M  V30 2532 C 230.681 0.401772 1.90305 0
M  V30 2533 O 229.936 -0.615487 1.85769 0
M  V30 2534 C 230.235 2.84578 2.16217 0
M  V30 2535 C 229.901 4.22513 1.5746 0
M  V30 2536 C 228.563 4.60029 1.41161 0
M  V30 2537 C 230.915 5.0844 1.14622 0
M  V30 2538 C 228.243 5.81144 0.80552 0
M  V30 2539 C 230.595 6.30167 0.55428 0
M  V30 2540 C 229.259 6.66426 0.378482 0
M  V30 2541 H 228.529 0.610428 0.420069 0
M  V30 2542 H 231.176 1.86512 0.434212 0
M  V30 2543 H 229.481 2.59248 2.93764 0
M  V30 2544 H 231.178 2.92933 2.73845 0
M  V30 2545 H 227.768 3.92953 1.71132 0
M  V30 2546 H 231.952 4.80034 1.26021 0
M  V30 2547 H 227.208 6.07855 0.657399 0
M  V30 2548 H 231.382 6.96071 0.213983 0
M  V30 2549 H 229.009 7.60143 -0.0932606 0
M  V30 2550 N 230.584 -0.659388 1.43143 0
M  V30 2551 C 231.833 -1.41518 1.43721 0
M  V30 2552 C 232.146 -1.95499 0.0628176 0
M  V30 2553 O 233.352 -2.71446 -0.0539683 0
M  V30 2554 C 231.808 -2.5608 2.52885 0
M  V30 2555 C 231.416 -2.08733 3.96402 0
M  V30 2556 C 233.16 -3.3349 2.62649 0
M  V30 2557 C 231.067 -3.20469 4.97045 0
M  V30 2558 H 229.997 -0.531705 0.534608 0
M  V30 2559 H 232.648 -0.712343 1.69109 0
M  V30 2560 H 231.03 -3.28805 2.20688 0
M  V30 2561 H 232.204 -1.43059 4.3803 0
M  V30 2562 H 230.519 -1.44219 3.90627 0
M  V30 2563 H 233.116 -4.16734 3.35017 0
M  V30 2564 H 233.459 -3.8111 1.67513 0
M  V30 2565 H 233.992 -2.67842 2.94118 0
M  V30 2566 H 230.731 -2.77824 5.93712 0
M  V30 2567 H 230.251 -3.84874 4.60034 0
M  V30 2568 H 231.93 -3.85698 5.19467 0
M  V30 2569 N 232.062 -1.29571 -0.897171 0
M  V30 2570 C 232.972 -1.16808 -2.03453 0
M  V30 2571 C 233.988 -0.0907471 -1.73763 0
M  V30 2572 O 235.164 -0.303312 -1.99103 0
M  V30 2573 C 232.229 -0.848264 -3.36163 0
M  V30 2574 C 231.29 -2.0097 -3.79354 0
M  V30 2575 C 230.523 -1.70505 -5.05731 0
M  V30 2576 O 230.746 -0.62718 -5.66941 0
M  V30 2577 O 229.68 -2.5538 -5.45036 0
M  V30 2578 H 233.506 -2.12325 -2.17144 0
M  V30 2579 H 231.091 -1.09047 -1.02123 0
M  V30 2580 H 232.973 -0.684581 -4.15802 0
M  V30 2581 H 231.648 0.0771071 -3.23608 0
M  V30 2582 H 230.555 -2.22863 -3.00471 0
M  V30 2583 H 231.888 -2.91636 -3.96496 0
M  V30 2584 N 233.54 1.10788 -1.12088 0
M  V30 2585 C 234.765 1.87002 -0.896949 0
M  V30 2586 C 235.19 1.79933 0.548261 0
M  V30 2587 O 234.548 1.16662 1.38779 0
M  V30 2588 C 234.596 3.3349 -1.37174 0
M  V30 2589 O 233.7 4.08745 -0.547831 0
M  V30 2590 H 233.041 0.580397 -0.322545 0
M  V30 2591 H 235.571 1.39996 -1.49206 0
M  V30 2592 H 235.581 3.84339 -1.36922 0
M  V30 2593 H 234.256 3.37951 -2.42408 0
M  V30 2594 H 232.833 3.6776 -0.617034 0
M  V30 2595 N 235.018 0.912232 1.28515 0
M  V30 2596 C 236.267 0.540504 1.94323 0
M  V30 2597 C 236.58 -0.920044 1.72611 0
M  V30 2598 O 237.786 -1.39986 2.32629 0
M  V30 2599 C 236.242 0.915803 3.48053 0
M  V30 2600 C 235.85 2.39598 3.78546 0
M  V30 2601 C 237.594 0.614588 4.20027 0
M  V30 2602 C 235.501 2.71148 5.25578 0
M  V30 2603 H 234.431 0.198418 0.727424 0
M  V30 2604 H 237.082 1.11094 1.46049 0
M  V30 2605 H 235.464 0.274168 3.9505 0
M  V30 2606 H 236.638 3.08422 3.42364 0
M  V30 2607 H 234.953 2.66749 3.1974 0
M  V30 2608 H 237.55 0.827002 5.28266 0
M  V30 2609 H 237.893 -0.447531 4.13887 0
M  V30 2610 H 238.426 1.21462 3.78803 0
M  V30 2611 H 235.165 3.76207 5.36794 0
M  V30 2612 H 234.685 2.0696 5.62963 0
M  V30 2613 H 236.364 2.58072 5.93302 0
M  V30 2614 N 236.496 -1.42363 0.676048 0
M  V30 2615 C 237.736 -2.03392 0.20273 0
M  V30 2616 C 238.1 -1.52306 -1.16906 0
M  V30 2617 O 239.301 -2.05129 -1.73711 0
M  V30 2618 C 237.572 -3.56614 0.236947 0
M  V30 2619 S 239.131 -4.38489 -0.165186 0
M  V30 2620 H 235.949 -0.70611 0.0832418 0
M  V30 2621 H 238.551 -1.74093 0.88948 0
M  V30 2622 H 237.255 -3.91293 1.23767 0
M  V30 2623 H 236.786 -3.90587 -0.469596 0
M  V30 2624 H 238.801 -4.76093 -1.39822 0
M  V30 2625 N 237.974 -0.419461 -1.51915 0
M  V30 2626 C 238.922 0.415502 -2.28859 0
M  V30 2627 C 239.916 1.03674 -1.3397 0
M  V30 2628 O 241.122 0.973757 -1.51387 0
M  V30 2629 H 237.497 0.152786 -0.736315 0
M  V30 2630 H 239.468 -0.254531 -2.97312 0
M  V30 2631 C 238.217 1.51425 -3.12995 0
M  V30 2632 H 237.54 1.04556 -3.85886 0
M  V30 2633 H 238.98 2.07208 -3.6992 0
M  V30 2634 C 237.439 2.48745 -2.27217 0
M  V30 2635 O 237.969 3.52871 -1.9195 0
M  V30 2636 N 236.175 2.19202 -1.90785 0
M  V30 2637 H 235.722 1.34556 -2.19664 0
M  V30 2638 H 235.68 2.84561 -1.33687 0
M  V30 2639 N 239.452 1.56882 -0.150215 0
M  V30 2640 C 240.729 1.87844 0.545327 0
M  V30 2641 C 241.109 1.0567 1.82749 0
M  V30 2642 O 240.457 0.144442 2.28043 0
M  V30 2643 C 240.667 3.39526 0.80767 0
M  V30 2644 C 242.015 4.08814 1.14703 0
M  V30 2645 O 243.039 3.44723 0.896917 0
M  V30 2646 O 241.898 5.22004 1.61784 0
M  V30 2647 H 238.992 0.778677 0.278553 0
M  V30 2648 H 241.538 1.68666 -0.187068 0
M  V30 2649 H 240.31 3.91173 -0.0996096 0
M  V30 2650 H 239.933 3.64243 1.59413 0
M  V30 2651 N 240.93 -0.123565 1.57115 0
M  V30 2652 C 242.341 -0.681198 1.73829 0
M  V30 2653 C 242.692 -1.80535 0.768214 0
M  V30 2654 O 241.817 -2.16317 -0.0599103 0
M  V30 2655 C 242.412 -1.24246 3.15196 0
M  V30 2656 C 240.971 -1.74643 3.33432 0
M  V30 2657 C 240.118 -0.644284 2.69711 0
M  V30 2658 H 243.069 0.102315 1.5837 0
M  V30 2659 H 243.09 -2.11216 3.16493 0
M  V30 2660 H 242.602 -0.424062 3.85776 0
M  V30 2661 H 240.703 -2.58974 2.67886 0
M  V30 2662 H 240.816 -1.85902 4.41562 0
M  V30 2663 H 239.18 -1.07676 2.3082 0
M  V30 2664 H 239.963 0.163058 3.42913 0
M  V30 2665 N 242.408 -1.52605 -0.393616 0
M  V30 2666 C 243.656 -1.67093 -1.13685 0
M  V30 2667 C 243.977 -0.411011 -1.90619 0
M  V30 2668 O 243.247 0.574491 -1.87287 0
M  V30 2669 H 241.827 -0.615923 -0.422668 0
M  V30 2670 H 244.489 -1.89704 -0.447039 0
M  V30 2671 H 243.585 -2.51922 -1.84232 0
M  V30 2672 N 243.887 0.651787 -1.4349 0
M  V30 2673 C 245.136 1.40754 -1.44469 0
M  V30 2674 C 245.449 1.95463 -0.0731845 0
M  V30 2675 O 246.655 2.71471 0.0395721 0
M  V30 2676 C 245.111 2.54735 -2.5424 0
M  V30 2677 C 244.719 2.06628 -3.97504 0
M  V30 2678 C 246.463 3.32092 -2.64414 0
M  V30 2679 C 244.37 3.17829 -4.98737 0
M  V30 2680 H 243.3 0.528862 -0.53742 0
M  V30 2681 H 245.951 0.703365 -1.69485 0
M  V30 2682 H 244.333 3.2763 -2.22428 0
M  V30 2683 H 245.507 1.40734 -4.38783 0
M  V30 2684 H 243.822 1.42146 -3.91387 0
M  V30 2685 H 246.419 4.14952 -3.37223 0
M  V30 2686 H 246.762 3.80217 -1.69532 0
M  V30 2687 H 247.295 2.66279 -2.95534 0
M  V30 2688 H 244.034 2.74671 -5.95177 0
M  V30 2689 H 243.554 3.82429 -4.62069 0
M  V30 2690 H 245.233 3.82937 -5.21505 0
M  V30 2691 N 245.365 1.30045 0.890287 0
M  V30 2692 C 246.614 1.17929 1.63633 0
M  V30 2693 C 246.927 -0.266204 1.9378 0
M  V30 2694 O 248.133 -0.508804 2.6669 0
M  V30 2695 C 246.589 2.06317 2.94892 0
M  V30 2696 C 246.197 3.55745 2.72305 0
M  V30 2697 C 247.941 2.0295 3.72843 0
M  V30 2698 C 245.848 4.36205 3.99348 0
M  V30 2699 H 244.778 0.437782 0.613892 0
M  V30 2700 H 247.429 1.54754 0.986075 0
M  V30 2701 H 245.811 1.6237 3.61182 0
M  V30 2702 H 246.985 4.07805 2.1455 0
M  V30 2703 H 245.3 3.6088 2.07737 0
M  V30 2704 H 247.897 2.60319 4.67053 0
M  V30 2705 H 248.24 1.0117 4.0382 0
M  V30 2706 H 248.773 2.4499 3.13408 0
M  V30 2707 H 245.512 5.38659 3.73533 0
M  V30 2708 H 245.032 3.8891 4.56628 0
M  V30 2709 H 246.711 4.47362 4.67415 0
M  V30 2710 N 246.843 -1.10192 1.12674 0
M  V30 2711 C 247.806 -2.14786 0.799979 0
M  V30 2712 C 248.806 -1.59711 -0.18685 0
M  V30 2713 O 249.996 -1.74156 0.0392558 0
M  V30 2714 C 247.128 -3.40374 0.189228 0
M  V30 2715 H 248.321 -2.45203 1.72671 0
M  V30 2716 H 245.874 -1.25597 0.930326 0
M  V30 2717 H 246.609 -3.15577 -0.747107 0
M  V30 2718 H 246.394 -3.81637 0.899766 0
M  V30 2719 H 247.884 -4.17594 -0.0228143 0
M  V30 2720 N 248.321 -0.919034 -1.28029 0
M  V30 2721 C 249.231 -0.416756 -2.30869 0
M  V30 2722 C 250.247 0.498235 -1.66714 0
M  V30 2723 O 251.423 0.383144 -1.97722 0
M  V30 2724 C 248.488 0.330274 -3.45123 0
M  V30 2725 C 247.549 -0.618578 -4.2482 0
M  V30 2726 C 246.782 0.0928959 -5.33619 0
M  V30 2727 O 247.005 1.31375 -5.55065 0
M  V30 2728 O 245.939 -0.574499 -5.99152 0
M  V30 2729 H 249.765 -1.27043 -2.75851 0
M  V30 2730 H 247.35 -0.684052 -1.3282 0
M  V30 2731 H 249.232 0.751972 -4.14636 0
M  V30 2732 H 247.907 1.1597 -3.02213 0
M  V30 2733 H 246.814 -1.08978 -3.57875 0
M  V30 2734 H 248.147 -1.41497 -4.71423 0
M  V30 2735 N 249.799 1.42003 -0.683588 0
M  V30 2736 C 250.747 2.326 0.000815408 0
M  V30 2737 C 251.741 1.50308 0.781278 0
M  V30 2738 O 252.947 1.66322 0.688251 0
M  V30 2739 H 249.322 0.751758 0.0190616 0
M  V30 2740 H 251.293 2.88011 -0.780528 0
M  V30 2741 C 250.042 3.34978 0.93195 0
M  V30 2742 H 249.365 3.98345 0.340817 0
M  V30 2743 H 250.805 4.00936 1.37936 0
M  V30 2744 C 249.264 2.67925 2.04249 0
M  V30 2745 O 249.794 2.51788 3.12995 0
M  V30 2746 N 248 2.2681 1.81675 0
M  V30 2747 H 247.547 2.40135 0.932363 0
M  V30 2748 H 247.505 1.8228 2.56167 0
M  V30 2749 N 251.277 0.427512 1.51691 0
M  V30 2750 C 252.526 -0.143679 2.01188 0
M  V30 2751 C 252.839 -1.44642 1.31674 0
M  V30 2752 O 254.045 -2.09997 1.72086 0
M  V30 2753 C 252.501 -0.306602 3.58592 0
M  V30 2754 C 252.109 0.985125 4.37035 0
M  V30 2755 C 253.853 -0.832091 4.16265 0
M  V30 2756 C 251.76 0.788382 5.86122 0
M  V30 2757 H 250.69 -0.0574701 0.751807 0
M  V30 2758 H 253.341 0.555772 1.74881 0
M  V30 2759 H 251.723 -1.06882 3.81303 0
M  V30 2760 H 252.897 1.75492 4.26074 0
M  V30 2761 H 251.212 1.4384 3.90767 0
M  V30 2762 H 253.809 -0.995617 5.25349 0
M  V30 2763 H 254.152 -1.81186 3.74803 0
M  V30 2764 H 254.685 -0.128444 3.97593 0
M  V30 2765 H 251.424 1.74025 6.31978 0
M  V30 2766 H 250.944 0.0582143 5.99772 0
M  V30 2767 H 252.623 0.437722 6.45518 0
M  V30 2768 N 252.755 -1.56801 0.158532 0
M  V30 2769 C 254.171 -1.5837 -0.197774 0
M  V30 2770 C 254.371 -1.17334 -1.63814 0
M  V30 2771 O 253.427 -0.878988 -2.36707 0
M  V30 2772 C 254.74 -3.00615 0.0714459 0
M  V30 2773 C 256.288 -3.12999 0.00864533 0
M  V30 2774 C 256.763 -4.57313 0.250685 0
M  V30 2775 N 258.254 -4.62777 0.198014 0
M  V30 2776 C 258.989 -5.72271 0.359642 0
M  V30 2777 N 258.485 -6.90371 0.579625 0
M  V30 2778 N 260.278 -5.61318 0.296438 0
M  V30 2779 H 252.429 -1.81765 1.09887 0
M  V30 2780 H 254.692 -0.841849 0.435884 0
M  V30 2781 H 254.398 -3.35068 1.06874 0
M  V30 2782 H 254.272 -3.71683 -0.642757 0
M  V30 2783 H 256.659 -2.7838 -0.979217 0
M  V30 2784 H 256.74 -2.44393 0.755359 0
M  V30 2785 H 256.384 -4.92639 1.2357 0
M  V30 2786 H 256.314 -5.24061 -0.516489 0
M  V30 2787 H 258.805 -3.77885 0.0331115 0
M  V30 2788 H 259.118 -7.69689 0.69275 0
M  V30 2789 H 257.463 -6.92264 0.616087 0
M  V30 2790 H 260.654 -4.67932 0.125258 0
M  V30 2791 H 260.827 -6.46599 0.425831 0
M  V30 2792 N 254.233 0.115231 -1.57178 0
M  V30 2793 C 255.165 1.16694 -1.97269 0
M  V30 2794 C 256.178 1.37445 -0.872502 0
M  V30 2795 O 257.367 1.36454 -1.15077 0
M  V30 2796 C 254.467 2.52627 -2.25905 0
M  V30 2797 C 253.64 2.52427 -3.57211 0
M  V30 2798 C 252.699 3.70134 -3.74016 0
M  V30 2799 O 251.725 3.53546 -4.46087 0
M  V30 2800 N 252.927 4.88844 -3.13068 0
M  V30 2801 H 255.692 0.82588 -2.88096 0
M  V30 2802 H 253.253 0.304461 -1.59011 0
M  V30 2803 H 255.245 3.29937 -2.34359 0
M  V30 2804 H 253.815 2.789 -1.41186 0
M  V30 2805 H 253.035 1.60805 -3.5991 0
M  V30 2806 H 254.323 2.49353 -4.43509 0
M  V30 2807 H 253.721 5.05225 -2.54489 0
M  V30 2808 H 252.278 5.63817 -3.27037 0
M  V30 2809 N 255.711 1.52812 0.385517 0
M  V30 2810 C 256.957 1.68275 1.13188 0
M  V30 2811 C 257.29 0.423179 1.89533 0
M  V30 2812 O 256.565 -0.579113 1.85679 0
M  V30 2813 C 256.848 2.92001 2.1073 0
M  V30 2814 C 256.701 4.28067 1.38125 0
M  V30 2815 C 258.02 3.11283 3.11113 0
M  V30 2816 H 255.139 0.612352 0.410115 0
M  V30 2817 H 257.781 1.85415 0.414869 0
M  V30 2818 H 255.931 2.77519 2.71874 0
M  V30 2819 H 257.603 4.54324 0.799187 0
M  V30 2820 H 255.846 4.28388 0.683092 0
M  V30 2821 H 256.517 5.10733 2.09417 0
M  V30 2822 H 258.993 3.2482 2.6006 0
M  V30 2823 H 257.869 3.99325 3.76605 0
M  V30 2824 H 258.13 2.25656 3.80173 0
M  V30 2825 N 257.189 -0.644168 1.43834 0
M  V30 2826 C 258.136 -1.75671 1.49694 0
M  V30 2827 C 259.106 -1.6246 0.345809 0
M  V30 2828 O 260.291 -1.82573 0.554234 0
M  V30 2829 C 257.431 -3.13867 1.43463 0
M  V30 2830 C 256.544 -3.38147 2.6885 0
M  V30 2831 C 255.679 -4.66241 2.54544 0
M  V30 2832 C 254.718 -4.83657 3.75157 0
M  V30 2833 N 253.855 -6.03016 3.59605 0
M  V30 2834 H 258.695 -1.69998 2.44754 0
M  V30 2835 H 256.232 -0.829458 1.21484 0
M  V30 2836 H 258.19 -3.9377 1.37843 0
M  V30 2837 H 256.82 -3.18588 0.519783 0
M  V30 2838 H 255.872 -2.52276 2.84712 0
M  V30 2839 H 257.184 -3.46899 3.58417 0
M  V30 2840 H 256.338 -5.54285 2.46683 0
M  V30 2841 H 255.077 -4.59826 1.62516 0
M  V30 2842 H 254.082 -3.94046 3.83416 0
M  V30 2843 H 255.307 -4.91896 4.68204 0
M  V30 2844 H 253.253 -5.97715 2.7032 0
M  V30 2845 H 253.17 -6.12766 4.42779 0
M  V30 2846 H 254.438 -6.93657 3.55613 0
M  V30 2847 N 258.668 -1.30515 -0.883378 0
M  V30 2848 C 259.598 -1.19607 -2.00541 0
M  V30 2849 C 260.579 -0.086346 -1.69881 0
M  V30 2850 O 261.764 -0.268654 -1.92333 0
M  V30 2851 C 258.894 -0.888758 -3.35736 0
M  V30 2852 C 257.848 -1.95659 -3.8066 0
M  V30 2853 C 257.174 -1.50224 -5.13164 0
M  V30 2854 C 258.474 -3.36788 -3.99213 0
M  V30 2855 H 260.168 -2.13476 -2.09925 0
M  V30 2856 H 257.714 -1.02775 -1.00863 0
M  V30 2857 H 259.667 -0.799094 -4.13754 0
M  V30 2858 H 258.391 0.0856125 -3.26488 0
M  V30 2859 H 257.05 -2.03591 -3.04871 0
M  V30 2860 H 256.698 -0.516092 -5.00345 0
M  V30 2861 H 256.398 -2.2165 -5.44192 0
M  V30 2862 H 257.922 -1.42639 -5.93706 0
M  V30 2863 H 259.336 -3.31605 -4.67665 0
M  V30 2864 H 257.733 -4.06314 -4.41621 0
M  V30 2865 H 258.803 -3.78561 -3.03017 0
M  V30 2866 N 260.146 1.09593 -1.13257 0
M  V30 2867 C 261.394 1.81375 -0.891492 0
M  V30 2868 C 261.715 1.86049 0.584009 0
M  V30 2869 O 260.985 1.34481 1.42449 0
M  V30 2870 H 259.565 0.671708 -0.326828 0
M  V30 2871 H 262.227 1.3256 -1.42877 0
M  V30 2872 H 261.323 2.84612 -1.28071 0
M  V30 2873 N 261.624 0.925811 1.2754 0
M  V30 2874 C 262.849 0.580924 1.99098 0
M  V30 2875 C 263.274 -0.833555 1.68622 0
M  V30 2876 O 262.632 -1.55903 0.925422 0
M  V30 2877 C 262.68 0.811186 3.51358 0
M  V30 2878 O 261.784 -0.124129 4.12213 0
M  V30 2879 H 261.125 0.223873 0.625122 0
M  V30 2880 H 263.655 1.24455 1.62395 0
M  V30 2881 H 263.665 0.72601 4.01489 0
M  V30 2882 H 262.34 1.84227 3.72872 0
M  V30 2883 H 260.917 0.0108006 3.72898 0
M  V30 2884 N 263.102 -1.41638 0.69111 0
M  V30 2885 C 264.513 -1.84346 0.295517 0
M  V30 2886 C 264.864 -1.57833 -1.16547 0
M  V30 2887 O 263.989 -1.04648 -1.89414 0
M  V30 2888 C 264.584 -3.34636 0.529575 0
M  V30 2889 C 263.143 -3.7593 0.187944 0
M  V30 2890 C 262.29 -2.65082 0.814052 0
M  V30 2891 H 265.241 -1.31253 0.892092 0
M  V30 2892 H 265.262 -3.79903 -0.213148 0
M  V30 2893 H 264.774 -3.53901 1.59297 0
M  V30 2894 H 262.875 -3.62268 -0.871367 0
M  V30 2895 H 262.988 -4.74808 0.63985 0
M  V30 2896 H 261.352 -2.53528 0.244017 0
M  V30 2897 H 262.135 -2.87167 1.88123 0
M  V30 2898 N 264.58 -0.43555 -1.51462 0
M  V30 2899 C 265.857 0.191364 -1.94662 0
M  V30 2900 C 266.237 1.60254 -1.37411 0
M  V30 2901 O 265.585 2.2152 -0.560458 0
M  V30 2902 C 265.795 0.17091 -3.48581 0
M  V30 2903 C 267.143 0.377357 -4.2292 0
M  V30 2904 O 268.167 0.249104 -3.55328 0
M  V30 2905 O 267.026 0.63247 -5.42828 0
M  V30 2906 H 264.12 0.130932 -0.816569 0
M  V30 2907 H 266.666 -0.4934 -1.62369 0
M  V30 2908 H 265.438 -0.815738 -3.82703 0
M  V30 2909 H 265.061 0.898659 -3.87311 0
M  V30 2910 N 266.058 1.56714 -0.166846 0
M  V30 2911 C 267.288 2.00828 0.48494 0
M  V30 2912 C 267.696 1.04612 1.57648 0
M  V30 2913 O 267.039 0.0383201 1.8366 0
M  V30 2914 C 267.101 3.4137 1.12723 0
M  V30 2915 C 266.765 4.56654 0.177886 0
M  V30 2916 C 267.762 5.16402 -0.60207 0
M  V30 2917 C 265.447 5.02244 0.0750139 0
M  V30 2918 C 267.441 6.20167 -1.47215 0
M  V30 2919 C 265.128 6.05859 -0.798649 0
M  V30 2920 C 266.126 6.64691 -1.57082 0
M  V30 2921 O 265.814 7.66297 -2.42989 0
M  V30 2922 H 265.546 0.663587 0.128953 0
M  V30 2923 H 268.1 2.03692 -0.264365 0
M  V30 2924 H 266.33 3.35406 1.92457 0
M  V30 2925 H 268.019 3.69466 1.68076 0
M  V30 2926 H 268.785 4.82065 -0.53274 0
M  V30 2927 H 264.664 4.56167 0.665812 0
M  V30 2928 H 268.208 6.66016 -2.07531 0
M  V30 2929 H 264.105 6.39621 -0.869199 0
M  V30 2930 H 264.873 7.83601 -2.36455 0
M  V30 2931 N 267.536 -0.106894 1.57237 0
M  V30 2932 C 268.785 -0.811163 1.8467 0
M  V30 2933 C 269.098 -1.80469 0.754342 0
M  V30 2934 O 270.304 -2.55601 0.915439 0
M  V30 2935 C 268.76 -1.49337 3.27454 0
M  V30 2936 C 268.368 -0.540217 4.44731 0
M  V30 2937 C 270.112 -2.18206 3.64124 0
M  V30 2938 C 268.019 -1.22634 5.78545 0
M  V30 2939 H 266.949 -0.306679 0.688813 0
M  V30 2940 H 269.6 -0.0639887 1.83388 0
M  V30 2941 H 267.982 -2.2876 3.23241 0
M  V30 2942 H 269.156 0.221659 4.60267 0
M  V30 2943 H 267.471 0.042146 4.16379 0
M  V30 2944 H 270.068 -2.70253 4.61376 0
M  V30 2945 H 270.411 -2.96562 2.92158 0
M  V30 2946 H 270.944 -1.45658 3.70174 0
M  V30 2947 H 267.683 -0.483832 6.53712 0
M  V30 2948 H 267.203 -1.95993 5.66874 0
M  V30 2949 H 268.882 -1.75615 6.2271 0
M  V30 2950 N 269.014 -1.53014 -0.377408 0
M  V30 2951 C 270.291 -1.59215 -1.13622 0
M  V30 2952 C 270.671 -0.392407 -2.07421 0
M  V30 2953 O 270.019 0.618342 -2.19975 0
M  V30 2954 C 270.229 -2.93669 -1.88573 0
M  V30 2955 C 271.577 -3.47822 -2.43526 0
M  V30 2956 O 272.601 -2.9562 -1.98715 0
M  V30 2957 O 271.46 -4.39055 -3.25412 0
M  V30 2958 H 268.554 -0.642625 -0.52054 0
M  V30 2959 H 271.1 -1.65353 -0.381625 0
M  V30 2960 H 269.872 -3.7243 -1.20048 0
M  V30 2961 H 269.495 -2.90968 -2.70968 0
M  V30 2962 N 270.492 0.636531 -1.44174 0
M  V30 2963 C 271.732 1.40781 -1.48189 0
M  V30 2964 C 272.096 1.91688 -0.10944 0
M  V30 2965 O 273.297 2.68789 -0.0242741 0
M  V30 2966 C 271.568 2.54575 -2.50851 0
M  V30 2967 S 273.127 3.4284 -2.73873 0
M  V30 2968 H 269.945 0.480345 -0.524204 0
M  V30 2969 H 272.547 0.737416 -1.81059 0
M  V30 2970 H 271.251 2.15478 -3.49281 0
M  V30 2971 H 270.782 3.26447 -2.19536 0
M  V30 2972 H 272.797 4.51846 -2.05059 0
M  V30 2973 N 271.97 1.30982 0.876444 0
M  V30 2974 C 273.247 1.10942 1.61094 0
M  V30 2975 C 273.627 -0.338223 2.08373 0
M  V30 2976 O 272.975 -1.33122 1.85717 0
M  V30 2977 C 273.185 2.11789 2.77392 0
M  V30 2978 C 274.533 2.43965 3.47514 0
M  V30 2979 O 275.557 2.10166 2.87591 0
M  V30 2980 O 274.416 3.01817 4.55597 0
M  V30 2981 H 271.51 0.42667 0.708436 0
M  V30 2982 H 274.056 1.42438 0.922474 0
M  V30 2983 H 272.828 3.09194 2.39823 0
M  V30 2984 H 272.451 1.81161 3.5393 0
M  V30 2985 N 273.449 -1.08991 1.13837 0
M  V30 2986 C 274.865 -1.33312 0.877506 0
M  V30 2987 C 275.065 -1.95587 -0.48456 0
M  V30 2988 O 274.121 -2.20509 -1.23013 0
M  V30 2989 C 275.434 -2.24045 2.0056 0
M  V30 2990 C 276.982 -2.37542 2.03821 0
M  V30 2991 C 277.457 -3.31614 3.15905 0
M  V30 2992 N 278.948 -3.39189 3.15445 0
M  V30 2993 C 279.683 -4.11992 3.98811 0
M  V30 2994 N 279.179 -4.87553 4.92203 0
M  V30 2995 N 280.972 -4.07762 3.86894 0
M  V30 2996 H 273.123 -0.669456 2.01574 0
M  V30 2997 H 275.386 -0.357482 0.878015 0
M  V30 2998 H 275.092 -1.85521 2.98789 0
M  V30 2999 H 274.966 -3.24466 1.92359 0
M  V30 3000 H 277.353 -2.75327 1.06202 0
M  V30 3001 H 277.434 -1.36884 2.16093 0
M  V30 3002 H 277.078 -2.94551 4.13766 0
M  V30 3003 H 277.008 -4.32186 3.0087 0
M  V30 3004 H 279.499 -2.85314 2.47799 0
M  V30 3005 H 279.812 -5.40549 5.52292 0
M  V30 3006 H 278.157 -4.86627 4.96205 0
M  V30 3007 H 281.348 -3.47833 3.13257 0
M  V30 3008 H 281.521 -4.64238 4.52092 0
M  V30 3009 N 274.927 -0.932562 -1.27047 0
M  V30 3010 C 275.837 -0.441219 -2.30414 0
M  V30 3011 C 276.853 0.480525 -1.67233 0
M  V30 3012 O 278.029 0.362151 -1.98117 0
M  V30 3013 C 275.094 0.293651 -3.45454 0
M  V30 3014 C 274.155 -0.663601 -4.2414 0
M  V30 3015 C 273.388 0.0362932 -5.33688 0
M  V30 3016 O 273.611 1.2548 -5.56427 0
M  V30 3017 O 272.545 -0.638015 -5.98509 0
M  V30 3018 H 276.371 -1.29962 -2.74488 0
M  V30 3019 H 273.956 -0.6981 -1.32087 0
M  V30 3020 H 275.838 0.707951 -4.15411 0
M  V30 3021 H 274.513 1.12758 -3.03426 0
M  V30 3022 H 273.42 -1.12768 -3.56699 0
M  V30 3023 H 274.753 -1.46489 -4.69896 0
M  V30 3024 N 276.405 1.4127 -0.698611 0
M  V30 3025 C 277.352 2.30773 -0.0352094 0
M  V30 3026 C 278.322 1.47273 0.768111 0
M  V30 3027 O 279.507 1.76053 0.735524 0
M  V30 3028 C 276.647 3.33346 0.893 0
M  V30 3029 C 275.76 4.31924 0.0809695 0
M  V30 3030 C 274.895 5.21566 1.0071 0
M  V30 3031 C 273.934 6.11811 0.188155 0
M  V30 3032 N 273.071 6.93926 1.06825 0
M  V30 3033 H 277.911 2.86943 -0.804207 0
M  V30 3034 H 275.448 1.4132 -0.408294 0
M  V30 3035 H 277.406 3.91368 1.44523 0
M  V30 3036 H 276.036 2.78719 1.62836 0
M  V30 3037 H 275.088 3.75825 -0.588224 0
M  V30 3038 H 276.4 4.95716 -0.553801 0
M  V30 3039 H 275.554 5.84437 1.62845 0
M  V30 3040 H 274.293 4.58008 1.67572 0
M  V30 3041 H 273.298 5.47986 -0.446254 0
M  V30 3042 H 274.523 6.77425 -0.476716 0
M  V30 3043 H 272.469 6.32973 1.72283 0
M  V30 3044 H 272.386 7.54416 0.489123 0
M  V30 3045 H 273.654 7.61262 1.67632 0
M  V30 3046 N 277.883 0.443576 1.51229 0
M  V30 3047 C 279.129 -0.120975 2.02439 0
M  V30 3048 C 279.462 -1.41815 1.32674 0
M  V30 3049 O 278.737 -1.89373 0.443622 0
M  V30 3050 C 279.02 -0.333291 3.58554 0
M  V30 3051 C 278.873 0.982968 4.38928 0
M  V30 3052 C 280.192 -1.10028 4.26124 0
M  V30 3053 H 277.311 -0.0424923 0.735774 0
M  V30 3054 H 279.953 0.583794 1.80809 0
M  V30 3055 H 278.103 -0.933614 3.77115 0
M  V30 3056 H 279.775 1.61775 4.32003 0
M  V30 3057 H 278.018 1.58611 4.03763 0
M  V30 3058 H 278.689 0.788379 5.46341 0
M  V30 3059 H 281.165 -0.591711 4.11871 0
M  V30 3060 H 280.041 -1.21761 5.35225 0
M  V30 3061 H 280.302 -2.12996 3.87408 0
M  V30 3062 N 279.361 -1.56624 0.175154 0
M  V30 3063 C 280.291 -2.21155 -0.749195 0
M  V30 3064 C 281.272 -1.16836 -1.23626 0
M  V30 3065 O 282.457 -1.45277 -1.28873 0
M  V30 3066 C 279.587 -2.8553 -1.97711 0
M  V30 3067 C 278.541 -3.95921 -1.62575 0
M  V30 3068 C 277.867 -4.47365 -2.92864 0
M  V30 3069 C 279.167 -5.15323 -0.850838 0
M  V30 3070 H 280.861 -2.98653 -0.211295 0
M  V30 3071 H 278.407 -1.43651 -0.100188 0
M  V30 3072 H 280.36 -3.2935 -2.62881 0
M  V30 3073 H 279.084 -2.05406 -2.53921 0
M  V30 3074 H 277.743 -3.52762 -0.997719 0
M  V30 3075 H 277.391 -3.64027 -3.47122 0
M  V30 3076 H 277.091 -5.21839 -2.70106 0
M  V30 3077 H 278.615 -4.93873 -3.59056 0
M  V30 3078 H 280.029 -5.55812 -1.40521 0
M  V30 3079 H 278.426 -5.95739 -0.722154 0
M  V30 3080 H 279.496 -4.84661 0.152082 0
M  V30 3081 N 280.839 0.0985539 -1.57292 0
M  V30 3082 C 281.749 1.13824 -2.05137 0
M  V30 3083 C 282.765 1.44076 -0.975604 0
M  V30 3084 O 283.941 1.54786 -1.28853 0
M  V30 3085 C 281.006 2.43969 -2.46333 0
M  V30 3086 C 280.067 2.2093 -3.68087 0
M  V30 3087 C 279.3 3.44869 -4.0731 0
M  V30 3088 O 279.523 4.52972 -3.46659 0
M  V30 3089 O 278.457 3.34661 -5.00285 0
M  V30 3090 H 282.283 0.761881 -2.93988 0
M  V30 3091 H 279.868 0.310818 -1.46131 0
M  V30 3092 H 281.75 3.20609 -2.73473 0
M  V30 3093 H 280.425 2.81038 -1.60621 0
M  V30 3094 H 279.332 1.42081 -3.46069 0
M  V30 3095 H 280.665 1.88755 -4.54568 0
M  V30 3096 N 282.317 1.53212 0.369288 0
M  V30 3097 C 283.594 1.59815 1.12776 0
M  V30 3098 C 283.974 0.403402 2.0721 0
M  V30 3099 O 283.322 -0.606667 2.20299 0
M  V30 3100 C 283.532 2.94664 1.87013 0
M  V30 3101 C 284.88 3.49109 2.41677 0
M  V30 3102 O 285.904 2.96669 1.97144 0
M  V30 3103 O 284.763 4.40775 3.23079 0
M  V30 3104 H 281.857 0.645376 0.517125 0
M  V30 3105 H 284.403 1.65553 0.37285 0
M  V30 3106 H 283.175 3.73061 1.18071 0
M  V30 3107 H 282.798 2.92401 2.69421 0
M  V30 3108 N 283.795 -0.628877 1.44509 0
M  V30 3109 C 285.042 -1.38839 1.47411 0
M  V30 3110 C 285.37 -1.94202 0.10757 0
M  V30 3111 O 284.625 -1.74243 -0.890947 0
M  V30 3112 C 284.924 -2.56995 2.48371 0
M  V30 3113 C 284.59 -2.19908 3.93639 0
M  V30 3114 C 283.252 -2.09506 4.33198 0
M  V30 3115 C 285.604 -1.9064 4.85083 0
M  V30 3116 C 282.932 -1.68028 5.62124 0
M  V30 3117 C 285.284 -1.50655 6.14399 0
M  V30 3118 C 283.948 -1.38796 6.5291 0
M  V30 3119 H 283.218 -0.508048 0.539414 0
M  V30 3120 H 285.865 -0.712913 1.77735 0
M  V30 3121 H 284.17 -3.29786 2.11538 0
M  V30 3122 H 285.867 -3.15223 2.47861 0
M  V30 3123 H 282.457 -2.28922 3.62343 0
M  V30 3124 H 286.641 -1.97585 4.55273 0
M  V30 3125 H 281.897 -1.57452 5.90778 0
M  V30 3126 H 286.071 -1.27048 6.84713 0
M  V30 3127 H 283.698 -1.06429 7.52713 0
M  V30 3128 N 285.273 -1.31445 -0.869486 0
M  V30 3129 C 286.203 -1.21727 -1.99261 0
M  V30 3130 C 287.184 -0.104359 -1.6978 0
M  V30 3131 O 288.369 -0.289038 -1.92037 0
M  V30 3132 C 285.499 -0.924317 -3.34774 0
M  V30 3133 C 284.453 -1.99685 -3.78563 0
M  V30 3134 C 283.779 -1.55658 -5.11541 0
M  V30 3135 C 285.079 -3.41003 -3.95619 0
M  V30 3136 H 286.773 -2.1569 -2.07649 0
M  V30 3137 H 284.319 -1.03839 -0.997675 0
M  V30 3138 H 286.272 -0.842934 -4.12883 0
M  V30 3139 H 284.996 0.0509793 -3.2656 0
M  V30 3140 H 283.655 -2.06813 -3.02694 0
M  V30 3141 H 283.303 -0.569132 -4.9977 0
M  V30 3142 H 283.003 -2.27409 -5.41811 0
M  V30 3143 H 284.527 -1.48928 -5.92159 0
M  V30 3144 H 285.941 -3.36547 -4.64122 0
M  V30 3145 H 284.338 -4.10975 -4.37286 0
M  V30 3146 H 285.408 -3.81754 -2.98985 0
M  V30 3147 N 286.751 1.08385 -1.14413 0
M  V30 3148 C 287.698 2.15311 -0.831265 0
M  V30 3149 C 288.668 1.64751 0.211292 0
M  V30 3150 O 289.853 1.90627 0.0811674 0
M  V30 3151 C 286.993 3.43658 -0.315143 0
M  V30 3152 C 286.106 4.08064 -1.41802 0
M  V30 3153 C 285.241 5.24207 -0.859126 0
M  V30 3154 C 284.28 5.80554 -1.93967 0
M  V30 3155 N 283.417 6.88042 -1.39793 0
M  V30 3156 H 288.257 2.41415 -1.74708 0
M  V30 3157 H 285.794 1.18474 -0.871909 0
M  V30 3158 H 287.752 4.172 0.00230884 0
M  V30 3159 H 286.382 3.17839 0.56378 0
M  V30 3160 H 285.434 3.3228 -1.85187 0
M  V30 3161 H 286.746 4.45962 -2.23427 0
M  V30 3162 H 285.9 6.04689 -0.49359 0
M  V30 3163 H 284.639 4.87699 -0.011932 0
M  V30 3164 H 283.644 4.98725 -2.31415 0
M  V30 3165 H 284.869 6.19121 -2.79046 0
M  V30 3166 H 282.815 6.53493 -0.572919 0
M  V30 3167 H 282.732 7.24767 -2.15054 0
M  V30 3168 H 284 7.72255 -1.0603 0
M  V30 3169 N 288.23 0.939286 1.26551 0
M  V30 3170 C 289.646 0.641304 1.46149 0
M  V30 3171 C 289.846 -0.805964 1.84679 0
M  V30 3172 O 288.902 -1.58278 1.96734 0
M  V30 3173 C 290.215 1.6011 2.54529 0
M  V30 3174 C 291.763 1.6106 2.68382 0
M  V30 3175 C 292.238 2.55765 3.79932 0
M  V30 3176 N 293.729 2.5404 3.87322 0
M  V30 3177 C 294.464 3.24004 4.73085 0
M  V30 3178 N 293.96 4.03388 5.63249 0
M  V30 3179 N 295.753 3.12965 4.66914 0
M  V30 3180 H 287.904 1.87478 0.998285 0
M  V30 3181 H 290.167 0.805559 0.499779 0
M  V30 3182 H 289.873 2.63412 2.33039 0
M  V30 3183 H 289.747 1.35171 3.52149 0
M  V30 3184 H 292.134 0.584835 2.89247 0
M  V30 3185 H 292.215 1.90053 1.71212 0
M  V30 3186 H 291.859 3.58458 3.5982 0
M  V30 3187 H 291.789 2.24063 4.76554 0
M  V30 3188 H 294.28 1.96396 3.22858 0
M  V30 3189 H 294.593 4.5373 6.25579 0
M  V30 3190 H 292.938 4.07489 5.63008 0
M  V30 3191 H 296.129 2.50432 3.95476 0
M  V30 3192 H 296.302 3.67759 5.33533 0
M  V30 3193 N 289.708 -1.40897 0.706093 0
M  V30 3194 C 290.957 -2.00284 0.238574 0
M  V30 3195 C 291.27 -1.56604 -1.17194 0
M  V30 3196 O 292.476 -2.08624 -1.73748 0
M  V30 3197 C 290.932 -3.57934 0.375623 0
M  V30 3198 C 290.54 -4.10591 1.79217 0
M  V30 3199 C 292.284 -4.24488 -0.0315857 0
M  V30 3200 C 290.191 -5.60712 1.88032 0
M  V30 3201 H 289.121 -0.749144 0.0854398 0
M  V30 3202 H 291.772 -1.61251 0.875813 0
M  V30 3203 H 290.154 -3.94622 -0.330042 0
M  V30 3204 H 291.328 -3.85301 2.52745 0
M  V30 3205 H 289.643 -3.56601 2.15 0
M  V30 3206 H 292.24 -5.34698 0.0136842 0
M  V30 3207 H 292.583 -4.02261 -1.072 0
M  V30 3208 H 293.116 -3.92873 0.624181 0
M  V30 3209 H 289.855 -5.87781 2.90161 0
M  V30 3210 H 289.375 -5.87896 1.18903 0
M  V30 3211 H 291.054 -6.25658 1.64805 0
M  V30 3212 N 291.186 -0.45159 -1.50991 0
M  V30 3213 C 292.096 0.358431 -2.31846 0
M  V30 3214 C 293.112 1.01438 -1.41373 0
M  V30 3215 O 294.288 1.00663 -1.74439 0
M  V30 3216 C 291.353 1.43704 -3.15515 0
M  V30 3217 C 290.414 0.799742 -4.21785 0
M  V30 3218 C 289.647 1.82696 -5.01456 0
M  V30 3219 O 289.87 3.05105 -4.81941 0
M  V30 3220 O 288.804 1.40958 -5.85162 0
M  V30 3221 H 292.63 -0.302032 -3.02194 0
M  V30 3222 H 290.215 -0.213825 -1.47862 0
M  V30 3223 H 292.097 2.06227 -3.67489 0
M  V30 3224 H 290.772 2.08133 -2.47916 0
M  V30 3225 H 289.679 0.136084 -3.73852 0
M  V30 3226 H 291.012 0.198718 -4.91799 0
M  V30 3227 N 292.664 1.56529 -0.183458 0
M  V30 3228 C 293.904 1.99141 0.460667 0
M  V30 3229 C 294.268 1.06736 1.59597 0
M  V30 3230 O 295.469 1.38538 2.30349 0
M  V30 3231 C 293.74 3.45358 0.919939 0
M  V30 3232 S 295.299 4.09999 1.56354 0
M  V30 3233 H 292.117 0.695479 0.147748 0
M  V30 3234 H 294.719 1.93429 -0.283782 0
M  V30 3235 H 293.423 4.10315 0.0834208 0
M  V30 3236 H 292.954 3.54862 1.69814 0
M  V30 3237 H 294.969 4.06046 2.85203 0
M  V30 3238 N 294.142 -0.090211 1.57342 0
M  V30 3239 C 295.372 -0.805055 1.90269 0
M  V30 3240 C 295.78 -1.72561 0.775842 0
M  V30 3241 O 295.123 -1.81839 -0.260843 0
M  V30 3242 C 295.185 -1.66734 3.18497 0
M  V30 3243 C 294.849 -0.918092 4.47683 0
M  V30 3244 C 295.846 -0.245674 5.19319 0
M  V30 3245 C 293.531 -0.890724 4.94339 0
M  V30 3246 C 295.525 0.444088 6.35851 0
M  V30 3247 C 293.212 -0.197179 6.10782 0
M  V30 3248 C 294.21 0.469044 6.81388 0
M  V30 3249 O 293.898 1.15146 7.95611 0
M  V30 3250 H 293.63 -0.235143 0.633785 0
M  V30 3251 H 296.184 -0.0703805 2.05279 0
M  V30 3252 H 294.414 -2.44437 2.99646 0
M  V30 3253 H 296.103 -2.25919 3.37217 0
M  V30 3254 H 296.869 -0.258246 4.84312 0
M  V30 3255 H 292.748 -1.39873 4.39268 0
M  V30 3256 H 296.292 0.964667 6.90898 0
M  V30 3257 H 292.189 -0.18247 6.45242 0
M  V30 3258 H 292.957 1.05885 8.11622 0
M  V30 3259 N 295.62 -1.53406 -0.361157 0
M  V30 3260 C 296.53 -1.83122 -1.4664 0
M  V30 3261 C 297.546 -0.719943 -1.58407 0
M  V30 3262 O 298.722 -1.01046 -1.74218 0
M  V30 3263 C 295.787 -2.01891 -2.81853 0
M  V30 3264 C 294.848 -3.25784 -2.79577 0
M  V30 3265 C 294.081 -3.43648 -4.0834 0
M  V30 3266 O 294.304 -2.65714 -5.0473 0
M  V30 3267 O 293.238 -4.37018 -4.13883 0
M  V30 3268 H 297.064 -2.7703 -1.24451 0
M  V30 3269 H 294.649 -1.38841 -0.551678 0
M  V30 3270 H 296.531 -2.15782 -3.61962 0
M  V30 3271 H 295.206 -1.11173 -3.0401 0
M  V30 3272 H 294.113 -3.17312 -1.98151 0
M  V30 3273 H 295.446 -4.16439 -2.62373 0
M  V30 3274 N 297.098 0.621204 -1.44841 0
M  V30 3275 C 298.344 1.3826 -1.48365 0
M  V30 3276 C 298.677 1.93831 -0.119624 0
M  V30 3277 O 297.952 1.74251 0.864111 0
M  V30 3278 C 298.235 2.54058 -2.55199 0
M  V30 3279 C 298.088 2.03772 -4.00995 0
M  V30 3280 C 299.407 3.56225 -2.58442 0
M  V30 3281 H 296.526 0.501374 -0.540179 0
M  V30 3282 H 299.168 0.7015 -1.76576 0
M  V30 3283 H 297.318 3.12162 -2.31274 0
M  V30 3284 H 298.99 1.50423 -4.36086 0
M  V30 3285 H 297.233 1.34876 -4.12299 0
M  V30 3286 H 297.904 2.87185 -4.71411 0
M  V30 3287 H 300.38 3.07939 -2.79844 0
M  V30 3288 H 299.256 4.34756 -3.3508 0
M  V30 3289 H 299.517 4.10949 -1.63013 0
M  V30 3290 N 298.576 1.31904 0.862503 0
M  V30 3291 C 299.524 1.20125 1.9918 0
M  V30 3292 C 300.518 0.107824 1.69056 0
M  V30 3293 O 301.724 0.270223 1.7796 0
M  V30 3294 H 298.099 0.372148 0.65346 0
M  V30 3295 H 300.07 2.15652 2.06244 0
M  V30 3296 C 298.819 0.933099 3.34946 0
M  V30 3297 H 298.142 1.76664 3.5865 0
M  V30 3298 H 299.582 0.890892 4.14535 0
M  V30 3299 C 298.041 -0.364172 3.34926 0
M  V30 3300 O 298.571 -1.37858 3.77304 0
M  V30 3301 N 296.777 -0.383362 2.8806 0
M  V30 3302 H 296.324 0.442651 2.53768 0
M  V30 3303 H 296.282 -1.25123 2.8843 0
M  V30 3304 N 300.054 -1.07777 1.14986 0
M  V30 3305 C 301.284 -1.83752 0.944402 0
M  V30 3306 C 301.692 -1.8218 -0.51058 0
M  V30 3307 O 301.035 -1.22852 -1.36576 0
M  V30 3308 C 301.097 -3.32128 1.37592 0
M  V30 3309 C 300.761 -3.57425 2.84775 0
M  V30 3310 C 301.758 -3.5173 3.8286 0
M  V30 3311 C 299.443 -3.8523 3.2234 0
M  V30 3312 C 301.437 -3.73482 5.16517 0
M  V30 3313 C 299.124 -4.06634 4.56171 0
M  V30 3314 C 300.122 -4.00754 5.53069 0
M  V30 3315 O 299.81 -4.2159 6.84483 0
M  V30 3316 H 299.542 -0.58673 0.335744 0
M  V30 3317 H 302.096 -1.36982 1.53052 0
M  V30 3318 H 300.326 -3.79686 0.733165 0
M  V30 3319 H 302.015 -3.89555 1.14024 0
M  V30 3320 H 302.781 -3.30256 3.55184 0
M  V30 3321 H 298.66 -3.88923 2.47508 0
M  V30 3322 H 302.204 -3.68808 5.92137 0
M  V30 3323 H 298.101 -4.27593 4.83564 0
M  V30 3324 H 298.869 -4.38961 6.90837 0
M  V30 3325 N 301.532 -0.945985 -1.26051 0
M  V30 3326 C 302.464 -0.416662 -2.25381 0
M  V30 3327 C 303.477 0.462712 -1.56086 0
M  V30 3328 O 304.666 0.272383 -1.7641 0
M  V30 3329 C 301.766 0.419812 -3.3629 0
M  V30 3330 C 300.939 -0.444531 -4.35135 0
M  V30 3331 C 299.998 0.332305 -5.2515 0
M  V30 3332 O 299.024 -0.266324 -5.68577 0
M  V30 3333 N 300.226 1.62763 -5.57215 0
M  V30 3334 H 302.991 -1.27059 -2.71433 0
M  V30 3335 H 300.552 -0.815392 -1.39868 0
M  V30 3336 H 302.544 0.947013 -3.93464 0
M  V30 3337 H 301.114 1.17456 -2.89694 0
M  V30 3338 H 300.334 -1.15291 -3.76964 0
M  V30 3339 H 301.622 -1.03478 -4.98166 0
M  V30 3340 H 301.02 2.13603 -5.23823 0
M  V30 3341 H 299.577 2.10097 -6.17011 0
M  V30 3342 N 303.011 1.40521 -0.713556 0
M  V30 3343 C 304.422 1.83853 -0.324807 0
M  V30 3344 C 304.773 1.59667 1.14021 0
M  V30 3345 O 303.898 1.07649 1.87725 0
M  V30 3346 C 304.493 3.33751 -0.582746 0
M  V30 3347 C 303.052 3.75584 -0.247727 0
M  V30 3348 C 302.199 2.63753 -0.856121 0
M  V30 3349 H 305.15 1.29817 -0.91286 0
M  V30 3350 H 305.171 3.80194 0.152682 0
M  V30 3351 H 304.683 3.51322 -1.64908 0
M  V30 3352 H 302.784 3.63608 0.813624 0
M  V30 3353 H 302.897 4.7373 -0.715307 0
M  V30 3354 H 301.261 2.53108 -0.28432 0
M  V30 3355 H 302.044 2.84137 -1.92668 0
M  V30 3356 N 304.489 0.459591 1.5075 0
M  V30 3357 C 305.419 -0.330644 2.31147 0
M  V30 3358 C 306.4 -1.00087 1.37538 0
M  V30 3359 O 307.585 -1.00025 1.66459 0
M  V30 3360 C 304.715 -1.41958 3.16962 0
M  V30 3361 C 303.669 -0.871608 4.19031 0
M  V30 3362 C 302.995 -2.05797 4.9351 0
M  V30 3363 C 304.295 0.109251 5.22186 0
M  V30 3364 H 305.989 0.340336 2.97459 0
M  V30 3365 H 303.535 0.165119 1.4305 0
M  V30 3366 H 305.488 -1.9798 3.71997 0
M  V30 3367 H 304.212 -2.11917 2.48513 0
M  V30 3368 H 302.871 -0.333442 3.6508 0
M  V30 3369 H 302.519 -2.74427 4.21544 0
M  V30 3370 H 302.219 -1.6976 5.62544 0
M  V30 3371 H 303.743 -2.62331 5.51375 0
M  V30 3372 H 305.157 -0.361405 5.7216 0
M  V30 3373 H 303.554 0.383316 5.98875 0
M  V30 3374 H 304.624 1.03887 4.73641 0
M  V30 3375 N 305.967 -1.56429 0.191757 0
M  V30 3376 C 307.244 -1.89224 -0.495332 0
M  V30 3377 C 307.624 -1.10478 -1.79883 0
M  V30 3378 O 306.972 -0.204852 -2.2758 0
M  V30 3379 C 307.182 -3.41548 -0.717367 0
M  V30 3380 C 308.53 -4.11711 -1.03823 0
M  V30 3381 O 309.554 -3.4698 -0.805204 0
M  V30 3382 O 308.413 -5.2611 -1.47887 0
M  V30 3383 H 305.507 -0.785788 -0.25781 0
M  V30 3384 H 308.053 -1.68111 0.231721 0
M  V30 3385 H 306.825 -3.90772 0.203287 0
M  V30 3386 H 306.448 -3.68342 -1.497 0
M  V30 3387 N 307.445 0.0818655 -1.57387 0
M  V30 3388 C 308.355 1.11642 -2.06333 0
M  V30 3389 C 309.371 1.43033 -0.99083 0
M  V30 3390 O 310.547 1.53411 -1.30488 0
M  V30 3391 C 307.612 2.41342 -2.48907 0
M  V30 3392 C 306.673 2.17014 -3.7041 0
M  V30 3393 C 305.906 3.4053 -4.10944 0
M  V30 3394 O 306.129 4.4927 -3.51444 0
M  V30 3395 O 305.063 3.29336 -5.03807 0
M  V30 3396 H 308.889 0.730657 -2.9478 0
M  V30 3397 H 306.474 0.295301 -1.46452 0
M  V30 3398 H 308.356 3.17691 -2.76858 0
M  V30 3399 H 307.031 2.79319 -1.63593 0
M  V30 3400 H 305.938 1.38403 -3.47556 0
M  V30 3401 H 307.271 1.83923 -4.56545 0
M  V30 3402 N 308.923 1.53595 0.353017 0
M  V30 3403 C 309.833 1.83897 1.45667 0
M  V30 3404 C 310.849 0.728334 1.58023 0
M  V30 3405 O 312.025 1.01968 1.73679 0
M  V30 3406 C 309.09 2.03383 2.80778 0
M  V30 3407 C 308.151 3.27262 2.77845 0
M  V30 3408 C 307.384 3.45809 4.06512 0
M  V30 3409 O 307.607 2.68387 5.03314 0
M  V30 3410 O 306.541 4.39207 4.11559 0
M  V30 3411 H 310.367 2.77686 1.2298 0
M  V30 3412 H 307.952 1.39132 0.544308 0
M  V30 3413 H 309.834 2.17698 3.60812 0
M  V30 3414 H 308.509 1.12783 3.03417 0
M  V30 3415 H 307.416 3.18359 1.96465 0
M  V30 3416 H 308.749 4.17824 2.60161 0
M  V30 3417 N 310.401 -0.613514 1.45168 0
M  V30 3418 C 311.331 -1.7354 1.56225 0
M  V30 3419 C 312.312 -1.64981 0.41414 0
M  V30 3420 O 313.497 -1.83472 0.636526 0
M  V30 3421 C 310.627 -3.12128 1.52295 0
M  V30 3422 C 309.581 -3.35491 2.65762 0
M  V30 3423 C 308.907 -4.74291 2.46885 0
M  V30 3424 C 310.207 -3.26325 4.0781 0
M  V30 3425 H 311.901 -1.64543 2.50132 0
M  V30 3426 H 309.447 -0.790185 1.20383 0
M  V30 3427 H 311.4 -3.90404 1.58628 0
M  V30 3428 H 310.124 -3.2195 0.549139 0
M  V30 3429 H 308.783 -2.59603 2.58847 0
M  V30 3430 H 308.431 -4.80839 1.47657 0
M  V30 3431 H 308.131 -4.9088 3.22972 0
M  V30 3432 H 309.655 -5.54775 2.55063 0
M  V30 3433 H 311.069 -3.94483 4.16 0
M  V30 3434 H 309.466 -3.54445 4.8424 0
M  V30 3435 H 310.536 -2.23855 4.30136 0
M  V30 3436 N 311.879 -1.3236 -0.855495 0
M  V30 3437 C 313.156 -1.13491 -1.59309 0
M  V30 3438 C 313.536 0.30503 -2.08885 0
M  V30 3439 O 312.884 1.30151 -1.87811 0
M  V30 3440 C 313.094 -2.16176 -2.73987 0
M  V30 3441 C 314.442 -2.49463 -3.43589 0
M  V30 3442 O 315.466 -2.14715 -2.84211 0
M  V30 3443 O 314.325 -3.09027 -4.50738 0
M  V30 3444 H 311.419 -0.437887 -0.701559 0
M  V30 3445 H 313.965 -1.43887 -0.899696 0
M  V30 3446 H 312.737 -3.1297 -2.34873 0
M  V30 3447 H 312.36 -1.86769 -3.51003 0
M  V30 3448 N 313.357 1.07166 -1.15556 0
M  V30 3449 C 314.582 1.84053 -0.955988 0
M  V30 3450 C 315.007 1.81586 0.490739 0
M  V30 3451 O 314.365 1.21018 1.34997 0
M  V30 3452 C 314.413 3.28957 -1.47714 0
M  V30 3453 O 313.517 4.06795 -0.677593 0
M  V30 3454 H 312.858 0.569842 -0.340847 0
M  V30 3455 H 315.388 1.35178 -1.53584 0
M  V30 3456 H 315.398 3.79788 -1.4908 0
M  V30 3457 H 314.073 3.30068 -2.53037 0
M  V30 3458 H 312.65 3.6561 -0.733721 0
M  V30 3459 N 314.835 0.952656 1.25548 0
M  V30 3460 C 315.785 0.442033 2.23674 0
M  V30 3461 C 316.769 -0.467632 1.53955 0
M  V30 3462 O 317.961 -0.301006 1.74422 0
M  V30 3463 C 315.09 -0.280816 3.4215 0
M  V30 3464 C 314.176 0.646803 4.19139 0
M  V30 3465 N 314.567 1.77759 4.73535 0
M  V30 3466 C 312.865 0.454617 4.43677 0
M  V30 3467 C 313.566 2.35658 5.31827 0
M  V30 3468 N 312.542 1.64333 5.18166 0
M  V30 3469 H 316.344 1.30505 2.63336 0
M  V30 3470 H 313.858 0.809904 1.40763 0
M  V30 3471 H 315.855 -0.663747 4.11582 0
M  V30 3472 H 314.515 -1.14046 3.04012 0
M  V30 3473 H 315.526 2.15949 4.7073 0
M  V30 3474 H 312.203 -0.362312 4.15925 0
M  V30 3475 H 313.593 3.30998 5.84713 0
M  V30 3476 N 316.313 -1.40141 0.720998 0
M  V30 3477 C 317.243 -2.33339 0.0867621 0
M  V30 3478 C 318.224 -1.53178 -0.739622 0
M  V30 3479 O 319.409 -1.81625 -0.687449 0
M  V30 3480 C 316.539 -3.37194 -0.831728 0
M  V30 3481 C 315.493 -4.27857 -0.110558 0
M  V30 3482 C 314.819 -5.22294 -1.14513 0
M  V30 3483 C 316.119 -5.11872 1.0385 0
M  V30 3484 H 317.813 -2.86626 0.865219 0
M  V30 3485 H 315.359 -1.37814 0.417516 0
M  V30 3486 H 317.312 -4.01335 -1.28485 0
M  V30 3487 H 316.036 -2.82314 -1.64214 0
M  V30 3488 H 314.695 -3.65176 0.322797 0
M  V30 3489 H 314.343 -4.63717 -1.94874 0
M  V30 3490 H 314.043 -5.83797 -0.667446 0
M  V30 3491 H 315.567 -5.89312 -1.59824 0
M  V30 3492 H 316.981 -5.69436 0.664482 0
M  V30 3493 H 315.378 -5.82445 1.4449 0
M  V30 3494 H 316.448 -4.4753 1.86668 0
M  V30 3495 N 317.792 -0.46758 -1.50504 0
M  V30 3496 C 319.017 0.0886943 -2.0721 0
M  V30 3497 C 319.442 1.33057 -1.32956 0
M  V30 3498 O 318.8 1.77354 -0.376197 0
M  V30 3499 C 318.848 0.359202 -3.58806 0
M  V30 3500 O 317.952 1.44034 -3.8643 0
M  V30 3501 H 317.293 -0.0114349 -0.663902 0
M  V30 3502 H 319.823 -0.657613 -1.93744 0
M  V30 3503 H 319.833 0.600742 -4.03553 0
M  V30 3504 H 318.508 -0.548311 -4.1227 0
M  V30 3505 H 317.085 1.18638 -3.53524 0
M  V30 3506 N 319.27 1.56325 -0.20005 0
M  V30 3507 C 320.5 2.01811 0.442232 0
M  V30 3508 C 320.908 1.07932 1.55394 0
M  V30 3509 O 320.251 0.0772685 1.83537 0
M  V30 3510 C 320.313 3.43685 1.05457 0
M  V30 3511 C 319.977 4.56928 0.0809833 0
M  V30 3512 C 320.974 5.15009 -0.711471 0
M  V30 3513 C 318.659 5.0229 -0.0315364 0
M  V30 3514 C 320.653 6.16904 -1.60336 0
M  V30 3515 C 318.34 6.04028 -0.926981 0
M  V30 3516 C 319.338 6.6121 -1.71146 0
M  V30 3517 O 319.026 7.60971 -2.59189 0
M  V30 3518 H 318.758 0.666173 0.114848 0
M  V30 3519 H 321.312 2.03085 -0.307511 0
M  V30 3520 H 319.542 3.39413 1.85299 0
M  V30 3521 H 321.231 3.72948 1.60201 0
M  V30 3522 H 321.997 4.80827 -0.634873 0
M  V30 3523 H 317.876 4.57476 0.568902 0
M  V30 3524 H 321.42 6.61464 -2.21611 0
M  V30 3525 H 317.317 6.37634 -1.00468 0
M  V30 3526 H 318.085 7.7841 -2.53023 0
M  V30 3527 N 320.748 -0.0735177 1.57428 0
M  V30 3528 C 321.997 -0.771809 1.86349 0
M  V30 3529 C 322.31 -1.78828 0.792452 0
M  V30 3530 O 323.516 -2.53602 0.96945 0
M  V30 3531 C 321.972 -1.42358 3.30548 0
M  V30 3532 C 321.58 -0.445761 4.45777 0
M  V30 3533 C 323.324 -2.10434 3.6867 0
M  V30 3534 C 321.231 -1.10335 5.81016 0
M  V30 3535 H 320.161 -0.291999 0.695164 0
M  V30 3536 H 322.812 -0.0250749 1.83483 0
M  V30 3537 H 321.194 -2.21852 3.28021 0
M  V30 3538 H 322.368 0.319239 4.59693 0
M  V30 3539 H 320.683 0.130457 4.16196 0
M  V30 3540 H 323.28 -2.60405 4.67004 0
M  V30 3541 H 323.623 -2.90298 2.98383 0
M  V30 3542 H 324.156 -1.37773 3.7318 0
M  V30 3543 H 320.895 -0.345061 6.54591 0
M  V30 3544 H 320.415 -1.83925 5.70904 0
M  V30 3545 H 322.094 -1.62367 6.26295 0
M  V30 3546 N 322.226 -1.5378 -0.344866 0
M  V30 3547 C 323.173 -1.81676 -1.42346 0
M  V30 3548 C 324.143 -0.662376 -1.52321 0
M  V30 3549 O 325.328 -0.906675 -1.67881 0
M  V30 3550 C 322.468 -2.03087 -2.79015 0
M  V30 3551 C 321.581 -3.30799 -2.77842 0
M  V30 3552 C 320.716 -3.42285 -4.0622 0
M  V30 3553 C 319.755 -4.6395 -3.9927 0
M  V30 3554 N 318.892 -4.72477 -5.19336 0
M  V30 3555 H 323.732 -2.73703 -1.17858 0
M  V30 3556 H 321.269 -1.35568 -0.570949 0
M  V30 3557 H 323.227 -2.1349 -3.58438 0
M  V30 3558 H 321.857 -1.14375 -3.01858 0
M  V30 3559 H 320.909 -3.29244 -1.90533 0
M  V30 3560 H 322.221 -4.20314 -2.68584 0
M  V30 3561 H 321.375 -3.52113 -4.94066 0
M  V30 3562 H 320.114 -2.50823 -4.18258 0
M  V30 3563 H 319.119 -4.54201 -3.09809 0
M  V30 3564 H 320.344 -5.56775 -3.88817 0
M  V30 3565 H 318.29 -3.83924 -5.3192 0
M  V30 3566 H 318.207 -5.55927 -5.12329 0
M  V30 3567 H 319.475 -4.86613 -6.08957 0
M  V30 3568 N 323.704 0.605807 -1.45491 0
M  V30 3569 C 324.953 1.36086 -1.48874 0
M  V30 3570 C 325.266 1.95131 -0.135333 0
M  V30 3571 O 326.472 2.7146 -0.0468144 0
M  V30 3572 C 324.928 2.46518 -2.62215 0
M  V30 3573 C 324.536 1.93877 -4.03876 0
M  V30 3574 C 326.28 3.23512 -2.74846 0
M  V30 3575 C 324.187 3.01801 -5.08596 0
M  V30 3576 H 323.117 0.511497 -0.553974 0
M  V30 3577 H 325.768 0.649089 -1.71636 0
M  V30 3578 H 324.15 3.20388 -2.32739 0
M  V30 3579 H 325.324 1.26704 -4.43038 0
M  V30 3580 H 323.639 1.29622 -3.95711 0
M  V30 3581 H 326.236 4.04013 -3.50253 0
M  V30 3582 H 326.579 3.74631 -1.81542 0
M  V30 3583 H 327.112 2.56742 -3.03856 0
M  V30 3584 H 323.851 2.55597 -6.03614 0
M  V30 3585 H 323.371 3.67535 -4.74002 0
M  V30 3586 H 325.05 3.66152 -5.33424 0
M  V30 3587 N 325.182 1.32811 0.848464 0
M  V30 3588 C 326.429 1.23724 1.60308 0
M  V30 3589 C 326.757 -0.1994 1.93475 0
M  V30 3590 O 326.012 -1.15406 1.5805 0
M  V30 3591 C 326.311 2.04831 2.92881 0
M  V30 3592 C 325.977 3.54125 2.79117 0
M  V30 3593 C 324.639 3.94829 2.7507 0
M  V30 3594 C 326.991 4.49036 2.64606 0
M  V30 3595 C 324.319 5.28675 2.544 0
M  V30 3596 C 326.671 5.83033 2.4547 0
M  V30 3597 C 325.335 6.22931 2.39819 0
M  V30 3598 H 324.605 0.452737 0.586609 0
M  V30 3599 H 327.252 1.64301 0.983743 0
M  V30 3600 H 325.557 1.57001 3.58968 0
M  V30 3601 H 327.254 1.95164 3.50303 0
M  V30 3602 H 323.844 3.21801 2.83094 0
M  V30 3603 H 328.028 4.18505 2.66772 0
M  V30 3604 H 323.284 5.58637 2.48465 0
M  V30 3605 H 327.458 6.56186 2.33222 0
M  V30 3606 H 325.085 7.26584 2.23562 0
M  V30 3607 N 326.66 -1.06551 1.16123 0
M  V30 3608 C 327.937 -1.76097 0.85142 0
M  V30 3609 C 328.317 -2.00802 -0.6513 0
M  V30 3610 O 327.665 -1.63302 -1.59827 0
M  V30 3611 C 327.875 -3.06384 1.67122 0
M  V30 3612 C 329.223 -3.80585 1.88255 0
M  V30 3613 O 330.247 -3.16218 1.63966 0
M  V30 3614 O 329.106 -4.96212 2.2899 0
M  V30 3615 H 326.2 -0.765102 0.313923 0
M  V30 3616 H 328.746 -1.12844 1.26745 0
M  V30 3617 H 327.518 -2.84071 2.69108 0
M  V30 3618 H 327.141 -3.77371 1.25206 0
M  V30 3619 N 328.138 -0.959301 -1.25041 0
M  V30 3620 C 329.384 -0.617525 -1.9317 0
M  V30 3621 C 329.717 0.843981 -1.74902 0
M  V30 3622 O 328.992 1.60615 -1.09696 0
M  V30 3623 C 329.275 -0.982736 -3.46431 0
M  V30 3624 C 329.128 -2.50032 -3.73904 0
M  V30 3625 C 330.447 -0.511176 -4.37121 0
M  V30 3626 H 327.566 -0.22582 -0.701552 0
M  V30 3627 H 330.208 -1.19679 -1.4757 0
M  V30 3628 H 328.358 -0.489806 -3.854 0
M  V30 3629 H 330.03 -3.06737 -3.44544 0
M  V30 3630 H 328.273 -2.93598 -3.19348 0
M  V30 3631 H 328.944 -2.70635 -4.81103 0
M  V30 3632 H 331.42 -0.934075 -4.0548 0
M  V30 3633 H 330.296 -0.795361 -5.43107 0
M  V30 3634 H 330.557 0.588834 -4.38161 0
M  V30 3635 N 329.616 1.39756 -0.72842 0
M  V30 3636 C 330.864 2.00248 -0.272946 0
M  V30 3637 C 331.185 1.58077 1.14178 0
M  V30 3638 O 330.455 0.826014 1.77634 0
M  V30 3639 H 329.035 0.740554 -0.0979247 0
M  V30 3640 H 331.697 1.70903 -0.936912 0
M  V30 3641 H 330.793 3.10495 -0.316142 0
M  V30 3642 N 331.094 0.475555 1.50254 0
M  V30 3643 C 332.322 -0.0754493 2.06762 0
M  V30 3644 C 332.737 -1.33111 1.33891 0
M  V30 3645 O 332.094 -1.77846 0.40952 0
M  V30 3646 C 332.145 -0.359008 3.59713 0
M  V30 3647 O 331.866 0.846851 4.29837 0
M  V30 3648 C 333.367 -0.956484 4.32858 0
M  V30 3649 H 330.587 0.00907525 0.670939 0
M  V30 3650 H 333.131 0.665618 1.93364 0
M  V30 3651 H 331.286 -1.05001 3.72899 0
M  V30 3652 H 331.7 0.594162 5.21124 0
M  V30 3653 H 333.174 -1.10463 5.40834 0
M  V30 3654 H 333.651 -1.94775 3.93649 0
M  V30 3655 H 334.257 -0.303723 4.24214 0
M  V30 3656 N 332.573 -1.56217 0.208337 0
M  V30 3657 C 333.989 -1.58919 -0.14729 0
M  V30 3658 C 334.189 -1.22486 -1.59998 0
M  V30 3659 O 333.245 -0.953849 -2.3379 0
M  V30 3660 C 334.558 -3.00236 0.167048 0
M  V30 3661 C 336.106 -3.12813 0.108219 0
M  V30 3662 C 336.581 -4.56284 0.396049 0
M  V30 3663 N 338.072 -4.61912 0.345142 0
M  V30 3664 C 338.807 -5.70837 0.541523 0
M  V30 3665 N 338.303 -6.88178 0.798968 0
M  V30 3666 N 340.096 -5.60091 0.474867 0
M  V30 3667 H 332.247 -1.78177 1.15614 0
M  V30 3668 H 334.51 -0.827555 0.462446 0
M  V30 3669 H 334.216 -3.31499 1.1748 0
M  V30 3670 H 334.09 -3.7354 -0.524184 0
M  V30 3671 H 336.477 -2.81354 -0.890157 0
M  V30 3672 H 336.558 -2.41866 0.832729 0
M  V30 3673 H 336.202 -4.88458 1.3918 0
M  V30 3674 H 336.132 -5.25439 -0.349502 0
M  V30 3675 H 338.623 -3.77589 0.153316 0
M  V30 3676 H 338.936 -7.67095 0.93727 0
M  V30 3677 H 337.281 -6.89953 0.836013 0
M  V30 3678 H 340.472 -4.67297 0.274064 0
M  V30 3679 H 340.645 -6.44917 0.631326 0
M  V30 3680 N 334.051 0.0651679 -1.57465 0
M  V30 3681 C 335.281 0.774683 -1.91526 0
M  V30 3682 C 335.689 1.71305 -0.803196 0
M  V30 3683 O 335.032 1.82231 0.231881 0
M  V30 3684 C 335.094 1.61645 -3.21109 0
M  V30 3685 C 334.758 0.846753 -4.49087 0
M  V30 3686 C 335.755 0.163024 -5.19644 0
M  V30 3687 C 333.44 0.811966 -4.95694 0
M  V30 3688 C 335.434 -0.54519 -6.35064 0
M  V30 3689 C 333.121 0.0999836 -6.11018 0
M  V30 3690 C 334.119 -0.577388 -6.80555 0
M  V30 3691 O 333.807 -1.27789 -7.93678 0
M  V30 3692 H 333.539 0.225031 -0.637446 0
M  V30 3693 H 336.093 0.0377134 -2.05365 0
M  V30 3694 H 334.323 2.39638 -3.03497 0
M  V30 3695 H 336.012 2.20525 -3.40769 0
M  V30 3696 H 336.778 0.181163 -4.84662 0
M  V30 3697 H 332.657 1.32867 -4.41438 0
M  V30 3698 H 336.201 -1.07446 -6.89276 0
M  V30 3699 H 332.098 0.0797945 -6.45451 0
M  V30 3700 H 332.866 -1.18784 -8.09835 0
M  V30 3701 N 335.529 1.53961 0.336706 0
M  V30 3702 C 336.462 1.77255 1.43722 0
M  V30 3703 C 337.44 0.62193 1.50236 0
M  V30 3704 O 338.624 0.857874 1.67847 0
M  V30 3705 C 335.751 1.87733 2.81912 0
M  V30 3706 C 334.797 3.09933 2.92991 0
M  V30 3707 S 335.63 4.68836 2.58753 0
M  V30 3708 C 336.786 4.82202 3.99039 0
M  V30 3709 H 337.019 2.70322 1.23748 0
M  V30 3710 H 334.552 1.44917 0.532777 0
M  V30 3711 H 336.51 1.94455 3.61521 0
M  V30 3712 H 335.171 0.956666 2.99177 0
M  V30 3713 H 334.364 3.1396 3.94265 0
M  V30 3714 H 333.966 3.01472 2.21338 0
M  V30 3715 H 336.258 4.64032 4.9364 0
M  V30 3716 H 337.201 5.84298 4.00002 0
M  V30 3717 H 337.609 4.10604 3.87382 0
M  V30 3718 N 337.007 -0.598083 1.45811 0
M  V30 3719 C 338.253 -1.35882 1.50545 0
M  V30 3720 C 338.586 -1.93616 0.150445 0
M  V30 3721 O 337.861 -1.75604 -0.83628 0
M  V30 3722 C 338.144 -2.49966 2.59208 0
M  V30 3723 C 337.997 -1.97367 4.04186 0
M  V30 3724 C 339.316 -3.52068 2.64076 0
M  V30 3725 H 336.435 -0.492717 0.548087 0
M  V30 3726 H 339.077 -0.673319 1.77669 0
M  V30 3727 H 337.227 -3.08443 2.3621 0
M  V30 3728 H 338.899 -1.43466 4.38423 0
M  V30 3729 H 337.142 -1.283 4.14393 0
M  V30 3730 H 337.813 -2.79649 4.75921 0
M  V30 3731 H 340.289 -3.03448 2.84708 0
M  V30 3732 H 339.165 -4.2937 3.41954 0
M  V30 3733 H 339.426 -4.08304 1.69531 0
M  V30 3734 N 338.485 -1.33259 -0.841409 0
M  V30 3735 C 339.433 -1.23279 -1.97244 0
M  V30 3736 C 340.427 -0.134706 -1.68864 0
M  V30 3737 O 341.633 -0.298501 -1.77508 0
M  V30 3738 H 338.008 -0.382497 -0.647457 0
M  V30 3739 H 339.979 -2.18906 -2.02787 0
M  V30 3740 C 338.728 -0.986268 -3.33419 0
M  V30 3741 H 338.051 -1.82347 -3.55794 0
M  V30 3742 H 339.491 -0.956728 -4.13065 0
M  V30 3743 C 337.95 0.310842 -3.35463 0
M  V30 3744 O 338.48 1.31838 -3.79449 0
M  V30 3745 N 336.686 0.337485 -2.88634 0
M  V30 3746 H 336.233 -0.482967 -2.53032 0
M  V30 3747 H 336.191 1.20518 -2.90384 0
M  V30 3748 N 339.963 1.05934 -1.16686 0
M  V30 3749 C 341.379 1.30938 -0.912542 0
M  V30 3750 C 341.579 1.96803 0.432533 0
M  V30 3751 O 340.635 2.23693 1.17123 0
M  V30 3752 C 341.948 2.18649 -2.06429 0
M  V30 3753 C 343.496 2.32055 -2.10047 0
M  V30 3754 C 343.971 3.23122 -3.24586 0
M  V30 3755 N 345.462 3.30706 -3.24327 0
M  V30 3756 C 346.197 4.01273 -4.09594 0
M  V30 3757 N 345.693 4.74332 -5.04956 0
M  V30 3758 N 347.486 3.97361 -3.97569 0
M  V30 3759 H 339.637 0.615777 -2.03278 0
M  V30 3760 H 341.9 0.334077 -0.887185 0
M  V30 3761 H 341.606 1.77534 -3.03603 0
M  V30 3762 H 341.48 3.19252 -2.00894 0
M  V30 3763 H 343.867 2.72415 -1.13464 0
M  V30 3764 H 343.948 1.31107 -2.19647 0
M  V30 3765 H 343.592 2.83477 -4.2143 0
M  V30 3766 H 343.522 4.24057 -3.12223 0
M  V30 3767 H 346.013 2.78644 -2.55276 0
M  V30 3768 H 346.326 5.25716 -5.6643 0
M  V30 3769 H 344.671 4.733 -5.08933 0
M  V30 3770 H 347.862 3.39405 -3.22369 0
M  V30 3771 H 348.035 4.52089 -4.64241 0
M  V30 3772 N 341.441 0.965919 1.2453 0
M  V30 3773 C 342.687 0.62776 1.92839 0
M  V30 3774 C 343.02 -0.834694 1.75347 0
M  V30 3775 O 342.295 -1.60031 1.10546 0
M  V30 3776 C 342.578 1.00109 3.45905 0
M  V30 3777 C 342.431 2.52011 3.72573 0
M  V30 3778 C 343.75 0.53435 4.36844 0
M  V30 3779 H 340.869 0.229537 0.700344 0
M  V30 3780 H 343.511 1.2046 1.46933 0
M  V30 3781 H 341.661 0.510238 3.85135 0
M  V30 3782 H 343.333 3.08559 3.42912 0
M  V30 3783 H 341.576 2.95287 3.17786 0
M  V30 3784 H 342.247 2.73183 4.79661 0
M  V30 3785 H 344.723 0.955565 4.04979 0
M  V30 3786 H 343.599 0.824152 5.42678 0
M  V30 3787 H 343.86 -0.565589 4.38467 0
M  V30 3788 N 342.919 -1.39368 0.735821 0
M  V30 3789 C 343.851 -2.2913 0.0567723 0
M  V30 3790 C 344.864 -1.46859 -0.702589 0
M  V30 3791 O 346.053 -1.69925 -0.546616 0
M  V30 3792 C 343.153 -3.25492 -0.943823 0
M  V30 3793 C 342.326 -4.36709 -0.24581 0
M  V30 3794 C 341.385 -5.13376 -1.15463 0
M  V30 3795 O 340.411 -5.65683 -0.631803 0
M  V30 3796 N 341.613 -5.24656 -2.48427 0
M  V30 3797 H 344.378 -2.88047 0.827582 0
M  V30 3798 H 341.939 -1.50957 0.585112 0
M  V30 3799 H 343.931 -3.73657 -1.55443 0
M  V30 3800 H 342.501 -2.676 -1.61583 0
M  V30 3801 H 341.721 -3.9041 0.545286 0
M  V30 3802 H 343.009 -5.08244 0.237891 0
M  V30 3803 H 342.407 -4.83679 -2.93379 0
M  V30 3804 H 340.964 -5.76258 -3.04582 0
M  V30 3805 N 344.397 -0.483516 -1.5 0
M  V30 3806 C 345.674 0.129337 -1.95172 0
M  V30 3807 C 346.054 1.55802 -1.4244 0
M  V30 3808 O 345.402 2.19625 -0.630649 0
M  V30 3809 C 345.612 0.0599251 -3.48949 0
M  V30 3810 C 346.96 0.242617 -4.23906 0
M  V30 3811 O 347.984 0.135933 -3.55941 0
M  V30 3812 O 346.843 0.459454 -5.44565 0
M  V30 3813 H 343.937 0.104887 -0.820322 0
M  V30 3814 H 346.483 -0.544807 -1.60717 0
M  V30 3815 H 345.255 -0.937079 -3.79914 0
M  V30 3816 H 344.878 0.774984 -3.89974 0
M  V30 3817 N 345.875 1.56104 -0.216619 0
M  V30 3818 C 346.825 2.16703 0.708798 0
M  V30 3819 C 347.809 1.11392 1.16106 0
M  V30 3820 O 349.001 1.37395 1.11587 0
M  V30 3821 C 346.13 2.84666 1.91886 0
M  V30 3822 C 345.216 3.97195 1.48651 0
M  V30 3823 N 345.607 4.99959 0.766434 0
M  V30 3824 C 343.905 4.09193 1.77418 0
M  V30 3825 C 344.606 5.79126 0.546659 0
M  V30 3826 N 343.582 5.32315 1.10188 0
M  V30 3827 H 347.384 2.93516 0.150162 0
M  V30 3828 H 344.898 1.6239 -0.0176768 0
M  V30 3829 H 346.895 3.26486 2.59253 0
M  V30 3830 H 345.555 2.09347 2.48202 0
M  V30 3831 H 346.566 5.16197 0.419634 0
M  V30 3832 H 343.243 3.45021 2.35088 0
M  V30 3833 H 344.633 6.71895 -0.026103 0
M  V30 3834 N 347.353 -0.0568162 1.57498 0
M  V30 3835 C 348.602 -0.752001 1.87157 0
M  V30 3836 C 348.915 -1.77978 0.811375 0
M  V30 3837 O 350.121 -2.52559 0.996293 0
M  V30 3838 C 348.577 -1.38844 3.3204 0
M  V30 3839 C 348.185 -0.398456 4.46225 0
M  V30 3840 C 349.929 -2.06512 3.70882 0
M  V30 3841 C 347.836 -1.04166 5.82154 0
M  V30 3842 H 346.766 -0.28461 0.698222 0
M  V30 3843 H 349.417 -0.00561272 1.83499 0
M  V30 3844 H 347.799 -2.1836 3.30356 0
M  V30 3845 H 348.973 0.367977 4.59328 0
M  V30 3846 H 347.288 0.174592 4.16034 0
M  V30 3847 H 349.885 -2.55437 4.6974 0
M  V30 3848 H 350.228 -2.87117 3.01445 0
M  V30 3849 H 350.761 -1.33808 3.7462 0
M  V30 3850 H 347.5 -0.275614 6.5492 0
M  V30 3851 H 347.02 -1.7786 5.72823 0
M  V30 3852 H 348.699 -1.55715 6.27982 0
M  V30 3853 N 348.832 -1.54138 -0.328536 0
M  V30 3854 C 349.764 -1.79509 -1.4251 0
M  V30 3855 C 350.777 -0.67688 -1.48061 0
M  V30 3856 O 351.966 -0.953898 -1.50874 0
M  V30 3857 C 349.066 -1.89337 -2.81078 0
M  V30 3858 C 348.239 -3.19443 -2.98789 0
M  V30 3859 C 347.298 -3.20036 -4.17688 0
M  V30 3860 O 346.324 -3.93697 -4.11086 0
M  V30 3861 N 347.526 -2.43467 -5.26976 0
M  V30 3862 H 350.291 -2.74139 -1.21111 0
M  V30 3863 H 347.852 -1.53373 -0.518499 0
M  V30 3864 H 349.844 -1.87167 -3.58818 0
M  V30 3865 H 348.414 -1.01826 -2.95551 0
M  V30 3866 H 347.634 -3.34614 -2.08391 0
M  V30 3867 H 348.922 -4.05354 -3.07515 0
M  V30 3868 H 348.32 -1.83201 -5.35214 0
M  V30 3869 H 346.877 -2.4708 -6.03154 0
M  V30 3870 N 350.31 0.590341 -1.46126 0
M  V30 3871 C 351.535 1.37991 -1.54833 0
M  V30 3872 C 351.96 1.87163 -0.187506 0
M  V30 3873 O 351.318 1.61133 0.831008 0
M  V30 3874 C 351.366 2.54867 -2.55098 0
M  V30 3875 O 350.47 3.56061 -2.08073 0
M  V30 3876 H 349.811 0.411265 -0.521303 0
M  V30 3877 H 352.341 0.716819 -1.91632 0
M  V30 3878 H 352.351 3.01886 -2.74461 0
M  V30 3879 H 351.026 2.18429 -3.53923 0
M  V30 3880 H 349.603 3.15574 -1.98664 0
M  V30 3881 N 351.788 1.33704 0.83433 0
M  V30 3882 C 353.204 1.13137 1.12571 0
M  V30 3883 C 353.404 -0.0747261 2.01361 0
M  V30 3884 O 352.46 -0.753647 2.4099 0
M  V30 3885 C 353.773 2.42105 1.78342 0
M  V30 3886 C 355.321 2.48054 1.90888 0
M  V30 3887 C 355.796 3.76995 2.60075 0
M  V30 3888 N 357.287 3.78092 2.67584 0
M  V30 3889 C 358.022 4.74574 3.21818 0
M  V30 3890 N 357.518 5.81434 3.76705 0
M  V30 3891 N 359.311 4.62044 3.20112 0
M  V30 3892 H 351.462 2.11 0.243489 0
M  V30 3893 H 353.725 0.932532 0.17055 0
M  V30 3894 H 353.431 3.30391 1.20561 0
M  V30 3895 H 353.305 2.54594 2.7832 0
M  V30 3896 H 355.692 1.60215 2.47821 0
M  V30 3897 H 355.773 2.39502 0.898459 0
M  V30 3898 H 355.417 4.65219 2.03799 0
M  V30 3899 H 355.347 3.82825 3.61597 0
M  V30 3900 H 357.838 3.00865 2.28667 0
M  V30 3901 H 358.151 6.51084 4.16305 0
M  V30 3902 H 356.496 5.85163 3.7498 0
M  V30 3903 H 359.687 3.77716 2.76493 0
M  V30 3904 H 359.86 5.37406 3.62076 0
M  V30 3905 N 353.266 -1.05314 1.17247 0
M  V30 3906 C 354.494 -1.81971 0.984593 0
M  V30 3907 C 354.909 -1.82929 -0.467166 0
M  V30 3908 O 354.266 -1.25564 -1.32438 0
M  V30 3909 C 354.317 -3.28143 1.51672 0
M  V30 3910 O 354.038 -3.27347 2.91163 0
M  V30 3911 C 355.539 -4.21493 1.37326 0
M  V30 3912 H 352.759 -0.573455 0.348411 0
M  V30 3913 H 355.303 -1.32808 1.55506 0
M  V30 3914 H 353.458 -3.74582 0.988302 0
M  V30 3915 H 353.872 -4.18824 3.15732 0
M  V30 3916 H 355.346 -5.22043 1.79375 0
M  V30 3917 H 355.823 -4.38031 0.320169 0
M  V30 3918 H 356.429 -3.80909 1.89178 0
M  V30 3919 N 354.744 -0.972509 -1.24016 0
M  V30 3920 C 355.99 -0.637978 -1.92504 0
M  V30 3921 C 356.323 0.825383 -1.75787 0
M  V30 3922 O 355.598 1.59442 -1.11393 0
M  V30 3923 C 355.881 -1.01942 -3.45369 0
M  V30 3924 C 355.734 -2.53983 -3.71231 0
M  V30 3925 C 357.053 -0.55751 -4.36555 0
M  V30 3926 H 354.172 -0.233248 -0.699117 0
M  V30 3927 H 356.814 -1.21238 -1.46292 0
M  V30 3928 H 354.964 -0.530656 -3.84859 0
M  V30 3929 H 356.636 -3.10374 -3.41271 0
M  V30 3930 H 354.879 -2.96968 -3.16216 0
M  V30 3931 H 355.55 -2.75723 -4.78206 0
M  V30 3932 H 358.026 -0.977029 -4.04467 0
M  V30 3933 H 356.902 -0.85292 -5.42233 0
M  V30 3934 H 357.163 0.542328 -4.38761 0
M  V30 3935 N 356.222 1.38976 -0.743202 0
M  V30 3936 C 357.452 2.04339 -0.304807 0
M  V30 3937 C 357.86 1.56162 1.06819 0
M  V30 3938 O 357.203 0.725284 1.68776 0
M  V30 3939 C 357.265 3.58716 -0.237369 0
M  V30 3940 C 356.929 4.29905 -1.55018 0
M  V30 3941 C 357.926 4.55987 -2.49744 0
M  V30 3942 C 355.611 4.68294 -1.81675 0
M  V30 3943 C 357.605 5.19478 -3.69353 0
M  V30 3944 C 355.292 5.31512 -3.0156 0
M  V30 3945 C 356.29 5.57037 -3.9522 0
M  V30 3946 O 355.978 6.18941 -5.12998 0
M  V30 3947 H 355.71 0.663439 -0.12971 0
M  V30 3948 H 358.264 1.78852 -1.01001 0
M  V30 3949 H 356.494 3.83133 0.524003 0
M  V30 3950 H 358.183 4.05543 0.170121 0
M  V30 3951 H 358.949 4.26767 -2.30423 0
M  V30 3952 H 354.828 4.47779 -1.09615 0
M  V30 3953 H 358.372 5.39318 -4.42473 0
M  V30 3954 H 354.269 5.60153 -3.20778 0
M  V30 3955 H 355.037 6.37433 -5.13441 0
M  V30 3956 N 357.7 0.491464 1.49741 0
M  V30 3957 C 358.93 -0.0534375 2.06531 0
M  V30 3958 C 359.338 -1.32233 1.35318 0
M  V30 3959 O 358.681 -1.78781 0.422243 0
M  V30 3960 C 358.743 -0.387034 3.57411 0
M  V30 3961 C 358.407 0.782764 4.50246 0
M  V30 3962 C 359.404 1.67059 4.92329 0
M  V30 3963 C 357.089 0.978866 4.9267 0
M  V30 3964 C 359.083 2.73874 5.75562 0
M  V30 3965 C 356.77 2.05022 5.75682 0
M  V30 3966 C 357.768 2.92851 6.17031 0
M  V30 3967 O 357.456 3.98138 6.98385 0
M  V30 3968 H 357.188 0.0129324 0.675876 0
M  V30 3969 H 359.742 0.685238 1.93633 0
M  V30 3970 H 357.972 -1.17918 3.68283 0
M  V30 3971 H 359.661 -0.869419 3.96479 0
M  V30 3972 H 360.427 1.53086 4.60206 0
M  V30 3973 H 356.306 0.304646 4.59992 0
M  V30 3974 H 359.85 3.42458 6.07757 0
M  V30 3975 H 355.747 2.18993 6.07217 0
M  V30 3976 H 356.515 3.95374 7.16674 0
M  V30 3977 N 359.178 -1.55987 0.224894 0
M  V30 3978 C 360.108 -2.23426 -0.678457 0
M  V30 3979 C 361.089 -1.20709 -1.19847 0
M  V30 3980 O 362.274 -1.49304 -1.24186 0
M  V30 3981 C 359.404 -2.91676 -1.88527 0
M  V30 3982 C 358.358 -4.00893 -1.49896 0
M  V30 3983 C 357.684 -4.56455 -2.78483 0
M  V30 3984 C 358.984 -5.17769 -0.686461 0
M  V30 3985 H 360.678 -2.99175 -0.116173 0
M  V30 3986 H 358.224 -1.43897 -0.054436 0
M  V30 3987 H 360.177 -3.37547 -2.5227 0
M  V30 3988 H 358.901 -2.1338 -2.47258 0
M  V30 3989 H 357.56 -3.55758 -0.884985 0
M  V30 3990 H 357.208 -3.74886 -3.35365 0
M  V30 3991 H 356.908 -5.30169 -2.53368 0
M  V30 3992 H 358.432 -5.05047 -3.43162 0
M  V30 3993 H 359.846 -5.60001 -1.22767 0
M  V30 3994 H 358.243 -5.97735 -0.532259 0
M  V30 3995 H 359.313 -4.83932 0.306196 0
M  V30 3996 N 360.656 0.0484629 -1.57525 0
M  V30 3997 C 361.589 1.08755 -2.00618 0
M  V30 3998 C 362.567 1.36272 -0.887058 0
M  V30 3999 O 363.751 1.49255 -1.15131 0
M  V30 4000 C 360.878 2.42675 -2.36277 0
M  V30 4001 C 359.924 2.31142 -3.58435 0
M  V30 4002 S 360.757 1.68326 -5.08357 0
M  V30 4003 C 361.913 3.03776 -5.47239 0
M  V30 4004 H 362.146 0.720415 -2.88439 0
M  V30 4005 H 359.679 0.257801 -1.52233 0
M  V30 4006 H 361.637 3.19699 -2.57494 0
M  V30 4007 H 360.298 2.76541 -1.48942 0
M  V30 4008 H 359.491 3.29957 -3.80978 0
M  V30 4009 H 359.093 1.62258 -3.36969 0
M  V30 4010 H 361.385 4.00106 -5.46737 0
M  V30 4011 H 362.328 2.85988 -6.47778 0
M  V30 4012 H 362.736 3.05456 -4.74718 0
M  V30 4013 N 362.134 1.5431 0.320358 0
M  V30 4014 C 363.082 1.84647 1.4145 0
M  V30 4015 C 364.076 0.718624 1.53402 0
M  V30 4016 O 365.282 0.902335 1.5575 0
M  V30 4017 H 361.657 0.585349 0.472091 0
M  V30 4018 H 363.628 2.7614 1.13089 0
M  V30 4019 C 362.377 2.09341 2.77617 0
M  V30 4020 H 361.7 2.9559 2.69196 0
M  V30 4021 H 363.14 2.3452 3.53237 0
M  V30 4022 C 361.599 0.885939 3.25043 0
M  V30 4023 O 362.129 0.0967891 4.01583 0
M  V30 4024 N 360.335 0.696682 2.82125 0
M  V30 4025 H 359.882 1.34006 2.2 0
M  V30 4026 H 359.84 -0.109712 3.14209 0
M  V30 4027 N 363.613 -0.582584 1.46437 0
M  V30 4028 C 364.862 -1.337 1.5102 0
M  V30 4029 C 365.175 -1.94891 0.166359 0
M  V30 4030 O 366.381 -2.71351 0.0899954 0
M  V30 4031 C 364.837 -2.42315 2.66104 0
M  V30 4032 C 364.445 -1.87427 4.06909 0
M  V30 4033 C 366.189 -3.19099 2.79958 0
M  V30 4034 C 364.096 -2.93672 5.13333 0
M  V30 4035 H 363.026 -0.502619 0.562041 0
M  V30 4036 H 365.677 -0.621701 1.72647 0
M  V30 4037 H 364.059 -3.16645 2.37807 0
M  V30 4038 H 365.233 -1.19639 4.44998 0
M  V30 4039 H 363.548 -1.2331 3.97723 0
M  V30 4040 H 366.145 -3.9839 3.56636 0
M  V30 4041 H 366.488 -3.71695 1.87479 0
M  V30 4042 H 367.021 -2.51875 3.07902 0
M  V30 4043 H 363.76 -2.45962 6.07604 0
M  V30 4044 H 363.28 -3.59948 4.79789 0
M  V30 4045 H 364.959 -3.5762 5.39182 0
M  V30 4046 N 365.091 -1.34144 -0.827227 0
M  V30 4047 C 366.041 -1.21923 -1.92663 0
M  V30 4048 C 367.025 -0.119294 -1.60457 0
M  V30 4049 O 368.217 -0.348539 -1.73534 0
M  V30 4050 C 365.346 -0.972492 -3.29238 0
M  V30 4051 C 364.432 -2.1154 -3.67576 0
M  V30 4052 N 364.823 -3.36627 -3.77512 0
M  V30 4053 C 363.121 -2.02468 -3.97395 0
M  V30 4054 C 363.822 -4.11658 -4.1099 0
M  V30 4055 N 362.798 -3.40207 -4.23981 0
M  V30 4056 H 366.6 -2.16721 -1.98517 0
M  V30 4057 H 364.114 -1.2632 -1.02064 0
M  V30 4058 H 366.111 -0.865847 -4.0781 0
M  V30 4059 H 364.771 -0.0331509 -3.24683 0
M  V30 4060 H 365.782 -3.71234 -3.61118 0
M  V30 4061 H 362.459 -1.16265 -4.00985 0
M  V30 4062 H 363.849 -5.19657 -4.25918 0
M  V30 4063 N 366.569 1.04691 -1.17803 0
M  V30 4064 C 367.815 1.78045 -0.970969 0
M  V30 4065 C 368.148 1.87686 0.498751 0
M  V30 4066 O 367.423 1.38035 1.37027 0
M  V30 4067 C 367.706 3.2166 -1.61884 0
M  V30 4068 C 367.559 3.20001 -3.161 0
M  V30 4069 C 368.878 4.1962 -1.3269 0
M  V30 4070 H 365.997 0.64633 -0.354155 0
M  V30 4071 H 368.639 1.22333 -1.45378 0
M  V30 4072 H 366.789 3.69232 -1.20831 0
M  V30 4073 H 368.461 2.80467 -3.66246 0
M  V30 4074 H 366.704 2.58203 -3.48588 0
M  V30 4075 H 367.375 4.21386 -3.56564 0
M  V30 4076 H 369.851 3.80567 -1.68249 0
M  V30 4077 H 368.727 5.18339 -1.80599 0
M  V30 4078 H 368.988 4.414 -0.248622 0
M  V30 4079 N 368.047 0.979072 1.23499 0
M  V30 4080 C 369.275 0.665202 1.95915 0
M  V30 4081 C 369.69 -0.767571 1.72493 0
M  V30 4082 O 369.047 -1.51635 1.01554 0
M  V30 4083 C 369.098 0.944438 3.48945 0
M  V30 4084 O 368.819 2.3209 3.71572 0
M  V30 4085 C 370.32 0.646336 4.38563 0
M  V30 4086 H 367.54 0.247218 0.623798 0
M  V30 4087 H 370.084 1.31009 1.57025 0
M  V30 4088 H 368.239 0.345575 3.85856 0
M  V30 4089 H 368.653 2.40957 4.65876 0
M  V30 4090 H 370.127 0.892091 5.44744 0
M  V30 4091 H 370.604 -0.419575 4.37191 0
M  V30 4092 H 371.21 1.22562 4.07258 0
M  V30 4093 N 369.525 -1.3858 0.750561 0
M  V30 4094 C 370.936 -1.82927 0.373438 0
M  V30 4095 C 371.287 -1.62634 -1.09748 0
M  V30 4096 O 370.412 -1.12588 -1.84805 0
M  V30 4097 C 371.007 -3.32088 0.671029 0
M  V30 4098 C 369.566 -3.74795 0.34722 0
M  V30 4099 C 368.713 -2.61391 0.92575 0
M  V30 4100 H 371.664 -1.27351 0.946958 0
M  V30 4101 H 371.685 -3.80465 -0.0518269 0
M  V30 4102 H 371.197 -3.46826 1.74164 0
M  V30 4103 H 369.298 -3.65638 -0.716933 0
M  V30 4104 H 369.411 -4.71667 0.840656 0
M  V30 4105 H 367.775 -2.52265 0.351327 0
M  V30 4106 H 368.558 -2.78929 2.00133 0
M  V30 4107 N 371.003 -0.499398 -1.49478 0
M  V30 4108 C 372.419 -0.155261 -1.58843 0
M  V30 4109 C 372.619 1.34008 -1.50479 0
M  V30 4110 O 371.675 2.11589 -1.37791 0
M  V30 4111 C 372.988 -0.730636 -2.91689 0
M  V30 4112 C 374.536 -0.696599 -3.0515 0
M  V30 4113 C 375.011 -1.25001 -4.40612 0
M  V30 4114 N 376.502 -1.21064 -4.47099 0
M  V30 4115 C 377.237 -1.60905 -5.50361 0
M  V30 4116 N 376.733 -2.08331 -6.60735 0
M  V30 4117 N 378.526 -1.52331 -5.41065 0
M  V30 4118 H 370.677 -1.47162 -1.53158 0
M  V30 4119 H 372.94 -0.610309 -0.725415 0
M  V30 4120 H 372.646 -1.77928 -3.03372 0
M  V30 4121 H 372.52 -0.190161 -3.7672 0
M  V30 4122 H 374.907 0.343204 -2.93097 0
M  V30 4123 H 374.988 -1.2742 -2.21806 0
M  V30 4124 H 374.632 -2.28859 -4.53416 0
M  V30 4125 H 374.562 -0.64836 -5.22593 0
M  V30 4126 H 377.053 -0.863128 -3.67911 0
M  V30 4127 H 377.366 -2.36805 -7.35624 0
M  V30 4128 H 375.711 -2.12304 -6.6178 0
M  V30 4129 H 378.902 -1.151 -4.53729 0
M  V30 4130 H 379.075 -1.83704 -6.21415 0
M  V30 4131 N 372.481 1.55866 -0.233164 0
M  V30 4132 C 373.706 2.03449 0.402906 0
M  V30 4133 C 374.131 1.11166 1.51736 0
M  V30 4134 O 373.489 0.101996 1.81013 0
M  V30 4135 C 373.537 3.49165 0.9009 0
M  V30 4136 O 372.641 3.60019 2.01147 0
M  V30 4137 H 371.982 0.657913 0.0897025 0
M  V30 4138 H 374.512 2.01493 -0.355201 0
M  V30 4139 H 374.522 3.89716 1.2077 0
M  V30 4140 H 373.197 4.15813 0.0852889 0
M  V30 4141 H 371.774 3.3136 1.71042 0
M  V30 4142 N 373.959 -0.0401083 1.57549 0
M  V30 4143 C 375.208 -0.732108 1.87944 0
M  V30 4144 C 375.521 -1.77107 0.830206 0
M  V30 4145 O 376.727 -2.51488 1.02302 0
M  V30 4146 C 375.183 -1.35315 3.33494 0
M  V30 4147 C 374.791 -0.351105 4.46622 0
M  V30 4148 C 376.535 -2.02566 3.73051 0
M  V30 4149 C 374.442 -0.979859 5.83226 0
M  V30 4150 H 373.372 -0.277188 0.701201 0
M  V30 4151 H 376.023 0.0138501 1.83495 0
M  V30 4152 H 374.405 -2.14844 3.32653 0
M  V30 4153 H 375.579 0.416674 4.58912 0
M  V30 4154 H 373.894 0.218708 4.15825 0
M  V30 4155 H 376.491 -2.50441 4.72423 0
M  V30 4156 H 376.834 -2.83904 3.04474 0
M  V30 4157 H 377.367 -1.29827 3.76018 0
M  V30 4158 H 374.106 -0.206135 6.55176 0
M  V30 4159 H 373.626 -1.71774 5.74677 0
M  V30 4160 H 375.305 -1.49046 6.29599 0
M  V30 4161 N 375.437 -1.54477 -0.31217 0
M  V30 4162 C 376.667 -1.76948 -1.06645 0
M  V30 4163 C 377.075 -0.523593 -1.81811 0
M  V30 4164 O 376.418 0.51578 -1.76311 0
M  V30 4165 C 376.48 -2.91668 -2.10166 0
M  V30 4166 C 376.144 -4.30165 -1.54296 0
M  V30 4167 C 377.141 -5.10603 -0.978793 0
M  V30 4168 C 374.826 -4.76738 -1.58196 0
M  V30 4169 C 376.82 -6.3573 -0.461048 0
M  V30 4170 C 374.507 -6.01831 -1.06034 0
M  V30 4171 C 375.505 -6.81161 -0.500844 0
M  V30 4172 O 375.193 -8.03899 0.0128958 0
M  V30 4173 H 374.925 -0.594088 -0.322546 0
M  V30 4174 H 377.479 -2.02213 -0.360441 0
M  V30 4175 H 375.709 -2.62001 -2.84416 0
M  V30 4176 H 377.398 -3.01817 -2.71406 0
M  V30 4177 H 378.164 -4.75771 -0.941651 0
M  V30 4178 H 374.043 -4.15027 -2.00683 0
M  V30 4179 H 377.587 -6.97596 -0.0236894 0
M  V30 4180 H 373.484 -6.36152 -1.09459 0
M  V30 4181 H 374.252 -8.18437 -0.101457 0
M  V30 4182 N 376.915 0.57481 -1.46744 0
M  V30 4183 C 377.845 1.69337 -1.60771 0
M  V30 4184 C 378.826 1.63825 -0.457736 0
M  V30 4185 O 380.011 1.8172 -0.684947 0
M  V30 4186 C 377.141 3.0798 -1.60517 0
M  V30 4187 C 376.095 3.28327 -2.74564 0
M  V30 4188 C 375.421 4.67578 -2.59373 0
M  V30 4189 C 376.721 3.15398 -4.16319 0
M  V30 4190 H 378.415 1.57853 -2.54407 0
M  V30 4191 H 375.961 0.75799 -1.22436 0
M  V30 4192 H 377.914 3.86061 -1.68923 0
M  V30 4193 H 376.638 3.20381 -0.634305 0
M  V30 4194 H 375.297 2.52649 -2.65639 0
M  V30 4195 H 374.945 4.76755 -1.60353 0
M  V30 4196 H 374.645 4.82144 -3.35873 0
M  V30 4197 H 376.169 5.47817 -2.69682 0
M  V30 4198 H 377.583 3.83315 -4.26313 0
M  V30 4199 H 375.98 3.41482 -4.93468 0
M  V30 4200 H 377.05 2.12372 -4.3592 0
M  V30 4201 N 378.394 1.34581 0.820102 0
M  V30 4202 C 379.634 1.28448 1.58998 0
M  V30 4203 C 379.998 -0.142883 1.91468 0
M  V30 4204 O 381.199 -0.328422 2.66786 0
M  V30 4205 C 379.47 2.153 2.85273 0
M  V30 4206 S 381.029 2.26548 3.75794 0
M  V30 4207 H 377.847 0.456685 0.54494 0
M  V30 4208 H 380.449 1.69825 0.968487 0
M  V30 4209 H 379.153 3.18008 2.59421 0
M  V30 4210 H 378.684 1.7483 3.52417 0
M  V30 4211 H 380.699 1.44034 4.74835 0
M  V30 4212 N 379.872 -1.04064 1.18357 0
M  V30 4213 C 381.288 -1.2947 0.933258 0
M  V30 4214 C 381.488 -1.97466 -0.401169 0
M  V30 4215 O 380.544 -2.25528 -1.13549 0
M  V30 4216 C 381.857 -2.15337 2.09882 0
M  V30 4217 C 383.405 -2.28683 2.13712 0
M  V30 4218 C 383.88 -3.17917 3.29686 0
M  V30 4219 N 385.371 -3.25504 3.29547 0
M  V30 4220 C 386.106 -3.94706 4.15926 0
M  V30 4221 N 385.602 -4.66239 5.12439 0
M  V30 4222 N 387.395 -3.90986 4.0384 0
M  V30 4223 H 379.546 -0.583359 2.04232 0
M  V30 4224 H 381.809 -0.319921 0.892387 0
M  V30 4225 H 381.515 -1.72682 3.06389 0
M  V30 4226 H 381.389 -3.16015 2.05947 0
M  V30 4227 H 383.776 -2.70575 1.17784 0
M  V30 4228 H 383.857 -1.27596 2.21705 0
M  V30 4229 H 383.501 -2.76736 4.25887 0
M  V30 4230 H 383.431 -4.19036 3.1893 0
M  V30 4231 H 385.922 -2.74547 2.59677 0
M  V30 4232 H 386.235 -5.16638 5.74722 0
M  V30 4233 H 384.58 -4.65143 5.16398 0
M  V30 4234 H 387.771 -3.34234 3.27727 0
M  V30 4235 H 387.944 -4.44646 4.71375 0
M  V30 4236 N 381.35 -0.985608 -1.22978 0
M  V30 4237 C 382.3 -0.50118 -2.22423 0
M  V30 4238 C 383.284 0.426649 -1.5514 0
M  V30 4239 O 384.476 0.254656 -1.75159 0
M  V30 4240 C 381.605 0.190003 -3.42774 0
M  V30 4241 C 380.691 -0.757703 -4.17276 0
M  V30 4242 N 381.082 -1.90251 -4.68656 0
M  V30 4243 C 379.38 -0.57209 -4.42316 0
M  V30 4244 C 380.081 -2.49676 -5.25392 0
M  V30 4245 N 379.057 -1.78013 -5.13627 0
M  V30 4246 H 382.859 -1.37441 -2.59783 0
M  V30 4247 H 380.373 -0.846941 -1.38567 0
M  V30 4248 H 382.37 0.55439 -4.13197 0
M  V30 4249 H 381.03 1.05946 -3.06929 0
M  V30 4250 H 382.041 -2.28354 -4.64839 0
M  V30 4251 H 378.718 0.251909 -4.16739 0
M  V30 4252 H 380.108 -3.46384 -5.75732 0
M  V30 4253 N 382.828 1.3818 -0.7579 0
M  V30 4254 C 384.076 1.99624 -0.315361 0
M  V30 4255 C 384.397 1.60464 1.10799 0
M  V30 4256 O 383.667 0.863507 1.75842 0
M  V30 4257 H 382.247 0.73831 -0.113611 0
M  V30 4258 H 384.909 1.68878 -0.972952 0
M  V30 4259 H 384.005 3.09754 -0.381931 0
M  V30 4260 N 384.306 0.507319 1.49211 0
M  V30 4261 C 385.216 -0.272136 2.33016 0
M  V30 4262 C 386.232 -0.961206 1.45041 0
M  V30 4263 O 387.408 -0.941191 1.78055 0
M  V30 4264 C 384.473 -1.31895 3.20631 0
M  V30 4265 C 383.534 -0.642648 4.24463 0
M  V30 4266 C 382.767 -1.63959 5.07891 0
M  V30 4267 O 382.99 -2.87007 4.92933 0
M  V30 4268 O 381.924 -1.19143 5.8999 0
M  V30 4269 H 385.75 0.413982 3.00865 0
M  V30 4270 H 383.335 0.268556 1.46966 0
M  V30 4271 H 385.217 -1.92446 3.7489 0
M  V30 4272 H 383.892 -1.98788 2.5547 0
M  V30 4273 H 382.799 0.00276252 3.741 0
M  V30 4274 H 384.132 -0.0160534 4.92197 0
M  V30 4275 N 385.784 -1.5574 0.241426 0
M  V30 4276 C 387.009 -2.0366 -0.392111 0
M  V30 4277 C 387.434 -1.11969 -1.51144 0
M  V30 4278 O 386.792 -0.111594 -1.80956 0
M  V30 4279 C 386.84 -3.49638 -0.882371 0
M  V30 4280 O 385.944 -3.6108 -1.99235 0
M  V30 4281 H 385.285 -0.658379 -0.0862122 0
M  V30 4282 H 387.815 -2.01302 0.365881 0
M  V30 4283 H 387.825 -3.90351 -1.18702 0
M  V30 4284 H 386.5 -4.15852 -0.0632361 0
M  V30 4285 H 385.077 -3.32262 -1.69282 0
M  V30 4286 N 387.262 0.0317525 -1.57568 0
M  V30 4287 C 388.172 1.05021 -2.0978 0
M  V30 4288 C 389.188 1.39809 -1.03583 0
M  V30 4289 O 390.364 1.49182 -1.35302 0
M  V30 4290 C 387.429 2.33301 -2.56459 0
M  V30 4291 C 386.49 2.0512 -3.77127 0
M  V30 4292 C 385.723 3.27283 -4.2157 0
M  V30 4293 O 385.946 4.37861 -3.65559 0
M  V30 4294 O 384.88 3.13141 -5.14029 0
M  V30 4295 H 388.706 0.636505 -2.96955 0
M  V30 4296 H 386.291 0.248559 -1.47318 0
M  V30 4297 H 388.173 3.08722 -2.86825 0
M  V30 4298 H 386.848 2.73973 -1.72397 0
M  V30 4299 H 385.755 1.27276 -3.51784 0
M  V30 4300 H 387.088 1.69305 -4.62165 0
M  V30 4301 N 388.74 1.54641 0.303973 0
M  V30 4302 C 389.67 1.88386 1.3796 0
M  V30 4303 C 390.651 0.742485 1.5304 0
M  V30 4304 O 391.836 0.997959 1.66597 0
M  V30 4305 C 388.966 2.12854 2.74427 0
M  V30 4306 C 387.92 3.28702 2.74115 0
M  V30 4307 C 387.246 3.38582 4.13844 0
M  V30 4308 C 388.546 4.65881 2.3612 0
M  V30 4309 H 390.24 2.78474 1.09966 0
M  V30 4310 H 387.786 1.33988 0.527556 0
M  V30 4311 H 389.739 2.35047 3.49758 0
M  V30 4312 H 388.463 1.19535 3.03939 0
M  V30 4313 H 387.122 3.06428 2.0124 0
M  V30 4314 H 386.77 2.42784 4.40528 0
M  V30 4315 H 386.47 4.16453 4.14537 0
M  V30 4316 H 387.994 3.63031 4.90959 0
M  V30 4317 H 389.408 4.87823 3.01167 0
M  V30 4318 H 387.805 5.46444 2.48031 0
M  V30 4319 H 388.875 4.66799 1.3125 0
M  V30 4320 N 390.218 -0.567019 1.47046 0
M  V30 4321 C 391.166 -1.69593 1.59188 0
M  V30 4322 C 392.16 -1.63046 0.459609 0
M  V30 4323 O 393.366 -1.6835 0.637058 0
M  V30 4324 H 389.741 -0.560993 0.500791 0
M  V30 4325 H 391.712 -1.56488 2.54075 0
M  V30 4326 C 390.461 -3.07964 1.61411 0
M  V30 4327 H 389.784 -3.13679 2.47881 0
M  V30 4328 H 391.224 -3.86671 1.73958 0
M  V30 4329 C 389.683 -3.35123 0.34559 0
M  V30 4330 O 390.213 -3.97812 -0.557521 0
M  V30 4331 N 388.419 -2.89699 0.22864 0
M  V30 4332 H 387.966 -2.38863 0.964479 0
M  V30 4333 H 387.924 -3.08242 -0.619192 0
M  V30 4334 N 391.696 -1.35014 -0.812953 0
M  V30 4335 C 392.945 -1.27269 -1.56479 0
M  V30 4336 C 393.258 0.152771 -1.95002 0
M  V30 4337 O 394.464 0.352451 -2.69203 0
M  V30 4338 C 392.92 -2.23159 -2.82362 0
M  V30 4339 C 392.528 -3.71016 -2.511 0
M  V30 4340 C 394.272 -2.24342 -3.60376 0
M  V30 4341 C 392.179 -4.58746 -3.73237 0
M  V30 4342 H 391.109 -0.472829 -0.587324 0
M  V30 4343 H 393.76 -1.6024 -0.894171 0
M  V30 4344 H 392.142 -1.83151 -3.51101 0
M  V30 4345 H 393.316 -4.1962 -1.90409 0
M  V30 4346 H 391.631 -3.72378 -1.86343 0
M  V30 4347 H 394.228 -2.87107 -4.51081 0
M  V30 4348 H 394.571 -1.24542 -3.97234 0
M  V30 4349 H 395.104 -2.62846 -2.98591 0
M  V30 4350 H 391.843 -5.59521 -3.41492 0
M  V30 4351 H 391.363 -4.14871 -4.33176 0
M  V30 4352 H 393.042 -4.73852 -4.40537 0
M  V30 4353 N 393.175 1.03435 -1.18907 0
M  V30 4354 C 394.591 1.28973 -0.940111 0
M  V30 4355 C 394.791 1.97676 0.390691 0
M  V30 4356 O 393.847 2.26127 1.12352 0
M  V30 4357 C 395.16 2.14221 -2.11021 0
M  V30 4358 C 396.708 2.27547 -2.14922 0
M  V30 4359 C 397.183 3.16164 -3.31367 0
M  V30 4360 N 398.674 3.23752 -3.31269 0
M  V30 4361 C 399.409 3.92495 -4.18014 0
M  V30 4362 N 398.905 4.63515 -5.14904 0
M  V30 4363 N 400.698 3.88838 -4.05908 0
M  V30 4364 H 392.849 0.57252 -2.04538 0
M  V30 4365 H 395.112 0.315184 -0.894071 0
M  V30 4366 H 394.818 1.71054 -3.073 0
M  V30 4367 H 394.692 3.14919 -2.0762 0
M  V30 4368 H 397.079 2.69947 -1.19217 0
M  V30 4369 H 397.16 1.26418 -2.22378 0
M  V30 4370 H 396.804 2.74474 -4.27348 0
M  V30 4371 H 396.734 4.17339 -3.21148 0
M  V30 4372 H 399.225 2.73167 -2.61129 0
M  V30 4373 H 399.538 5.13583 -5.77453 0
M  V30 4374 H 397.883 4.62398 -5.18857 0
M  V30 4375 H 401.074 3.32491 -3.29495 0
M  V30 4376 H 401.247 4.4214 -4.73726 0
M  V30 4377 N 394.653 0.992116 1.22453 0
M  V30 4378 C 395.901 0.666215 1.90804 0
M  V30 4379 C 396.222 -0.804152 1.77647 0
M  V30 4380 O 395.492 -1.57629 1.16318 0
M  V30 4381 H 394.072 0.243423 0.706225 0
M  V30 4382 H 396.734 1.25845 1.48825 0
M  V30 4383 H 395.83 0.928069 2.97982 0
M  V30 4384 N 396.131 -1.37776 0.765217 0
M  V30 4385 C 397.547 -1.53297 0.444108 0
M  V30 4386 C 397.747 -1.72515 -1.04119 0
M  V30 4387 O 396.803 -1.74278 -1.82711 0
M  V30 4388 C 398.116 -2.73328 1.25349 0
M  V30 4389 C 399.664 -2.87185 1.24473 0
M  V30 4390 C 400.139 -4.10191 2.03733 0
M  V30 4391 N 401.63 -4.17291 2.01053 0
M  V30 4392 C 402.365 -5.11488 2.59166 0
M  V30 4393 N 401.861 -6.11285 3.26041 0
M  V30 4394 N 403.654 -5.03924 2.49032 0
M  V30 4395 H 395.805 -1.23552 1.72768 0
M  V30 4396 H 398.068 -0.601103 0.733062 0
M  V30 4397 H 397.774 -2.6557 2.30577 0
M  V30 4398 H 397.648 -3.66834 0.87823 0
M  V30 4399 H 400.035 -2.94418 0.20047 0
M  V30 4400 H 400.116 -1.94657 1.65959 0
M  V30 4401 H 399.76 -4.0372 3.08176 0
M  V30 4402 H 399.69 -5.01821 1.59633 0
M  V30 4403 H 402.181 -3.45825 1.5236 0
M  V30 4404 H 402.494 -6.79678 3.67774 0
M  V30 4405 H 400.839 -6.11583 3.30138 0
M  V30 4406 H 404.03 -4.24902 1.96407 0
M  V30 4407 H 404.203 -5.77152 2.94617 0
M  V30 4408 N 397.609 -0.515225 -1.4894 0
M  V30 4409 C 398.858 0.0261361 -2.01683 0
M  V30 4410 C 399.171 1.36719 -1.39883 0
M  V30 4411 O 400.377 1.99606 -1.84037 0
M  V30 4412 C 398.833 0.0970111 -3.59769 0
M  V30 4413 C 398.441 -1.23825 -4.30548 0
M  V30 4414 C 400.185 0.587981 -4.20408 0
M  V30 4415 C 398.092 -1.12877 -5.80528 0
M  V30 4416 H 397.022 0.0135398 -0.753878 0
M  V30 4417 H 399.673 -0.656787 -1.71343 0
M  V30 4418 H 398.055 0.844694 -3.86886 0
M  V30 4419 H 399.229 -2.00034 -4.15118 0
M  V30 4420 H 397.544 -1.66379 -3.81716 0
M  V30 4421 H 400.141 0.68763 -5.3026 0
M  V30 4422 H 400.484 1.59026 -3.84729 0
M  V30 4423 H 401.017 -0.103582 -3.97665 0
M  V30 4424 H 397.756 -2.10575 -6.20756 0
M  V30 4425 H 397.276 -0.407799 -5.98412 0
M  V30 4426 H 398.955 -0.813332 -6.41868 0
M  V30 4427 N 399.087 1.5561 -0.249682 0
M  V30 4428 C 400.335 1.98618 0.373548 0
M  V30 4429 C 400.656 1.13919 1.58264 0
M  V30 4430 O 399.926 0.222637 1.94631 0
M  V30 4431 H 398.506 0.733571 0.141006 0
M  V30 4432 H 401.168 1.91748 -0.349117 0
M  V30 4433 H 400.264 3.04584 0.680796 0
M  V30 4434 N 400.565 -0.0233959 1.57583 0
M  V30 4435 C 401.813 -0.711654 1.89156 0
M  V30 4436 C 402.134 -1.75591 0.848096 0
M  V30 4437 O 401.404 -1.95547 -0.117566 0
M  V30 4438 H 399.984 -0.265835 0.698098 0
M  V30 4439 H 402.646 0.0119948 1.94896 0
M  V30 4440 H 401.742 -1.19766 2.88206 0
M  V30 4441 N 402.043 -1.548 -0.295768 0
M  V30 4442 C 403.32 -1.65014 -1.05023 0
M  V30 4443 C 403.7 -0.501805 -2.05049 0
M  V30 4444 O 403.048 0.500869 -2.22943 0
M  V30 4445 C 403.258 -3.03252 -1.72741 0
M  V30 4446 C 404.606 -3.60242 -2.24746 0
M  V30 4447 O 405.63 -3.05737 -1.82765 0
M  V30 4448 O 404.489 -4.55687 -3.01681 0
M  V30 4449 H 401.583 -0.669314 -0.485744 0
M  V30 4450 H 404.129 -1.67144 -0.293438 0
M  V30 4451 H 402.901 -3.7827 -1.00138 0
M  V30 4452 H 402.524 -3.04922 -2.55163 0
M  V30 4453 N 403.521 0.559213 -1.47345 0
M  V30 4454 C 404.746 1.34676 -1.57725 0
M  V30 4455 C 405.171 1.86723 -0.227164 0
M  V30 4456 O 404.529 1.6286 0.796642 0
M  V30 4457 C 404.577 2.49399 -2.60447 0
M  V30 4458 O 403.681 3.51567 -2.15578 0
M  V30 4459 H 403.022 0.400115 -0.52991 0
M  V30 4460 H 405.552 0.676009 -1.93109 0
M  V30 4461 H 405.562 2.95996 -2.80803 0
M  V30 4462 H 404.237 2.10873 -3.58477 0
M  V30 4463 H 402.814 3.11289 -2.05313 0
M  V30 4464 N 404.999 1.35443 0.805782 0
M  V30 4465 C 406.247 1.28507 1.55982 0
M  V30 4466 C 406.568 -0.140046 1.94496 0
M  V30 4467 O 405.838 -1.07666 1.63661 0
M  V30 4468 H 404.418 0.472676 0.578434 0
M  V30 4469 H 407.08 1.69555 0.961098 0
M  V30 4470 H 406.176 1.90148 2.47488 0
M  V30 4471 N 406.477 -1.02803 1.19454 0
M  V30 4472 C 407.407 -2.12999 0.956758 0
M  V30 4473 C 408.388 -1.69743 -0.110188 0
M  V30 4474 O 409.573 -1.94148 0.0450038 0
M  V30 4475 C 406.703 -3.43746 0.495553 0
M  V30 4476 C 405.657 -4.00688 1.50443 0
M  V30 4477 C 404.983 -5.27067 0.900275 0
M  V30 4478 C 406.283 -4.35397 2.8849 0
M  V30 4479 H 407.977 -2.33148 1.87836 0
M  V30 4480 H 405.523 -1.12045 0.904539 0
M  V30 4481 H 407.476 -4.2021 0.316493 0
M  V30 4482 H 406.2 -3.23321 -0.461646 0
M  V30 4483 H 404.859 -3.2632 1.67065 0
M  V30 4484 H 404.507 -5.02959 -0.064503 0
M  V30 4485 H 404.207 -5.66127 1.57397 0
M  V30 4486 H 405.731 -6.06196 0.73203 0
M  V30 4487 H 407.145 -5.02795 2.75446 0
M  V30 4488 H 405.542 -4.85541 3.52661 0
M  V30 4489 H 406.612 -3.44662 3.41081 0
M  V30 4490 N 407.956 -0.998596 -1.21925 0
M  V30 4491 C 409.181 -0.696015 -1.95372 0
M  V30 4492 C 409.606 0.733826 -1.73195 0
M  V30 4493 O 408.964 1.50242 -1.01474 0
M  V30 4494 C 409.012 -1.01466 -3.4603 0
M  V30 4495 O 408.116 -0.116415 -4.12236 0
M  V30 4496 H 407.457 -0.259938 -0.611006 0
M  V30 4497 H 409.987 -1.33711 -1.54863 0
M  V30 4498 H 409.997 -0.958855 -3.96573 0
M  V30 4499 H 408.672 -2.05653 -3.61497 0
M  V30 4500 H 407.249 -0.228193 -3.72201 0
M  V30 4501 N 409.434 1.37368 -0.772513 0
M  V30 4502 C 410.68 1.99969 -0.337681 0
M  V30 4503 C 411.013 1.61184 1.08321 0
M  V30 4504 O 410.288 0.858395 1.74533 0
M  V30 4505 C 410.571 3.56858 -0.482121 0
M  V30 4506 C 410.424 4.0555 -1.94549 0
M  V30 4507 C 411.743 4.39955 0.113143 0
M  V30 4508 H 408.862 0.726464 -0.124171 0
M  V30 4509 H 411.504 1.63034 -0.975699 0
M  V30 4510 H 409.654 3.88452 0.0610361 0
M  V30 4511 H 411.326 3.84518 -2.54841 0
M  V30 4512 H 409.569 3.57715 -2.45403 0
M  V30 4513 H 410.24 5.14587 -1.9976 0
M  V30 4514 H 412.716 4.14623 -0.35031 0
M  V30 4515 H 411.592 5.48897 -0.0180514 0
M  V30 4516 H 411.853 4.25403 1.20354 0
M  V30 4517 N 410.912 0.523116 1.48665 0
M  V30 4518 C 412.328 0.180511 1.58576 0
M  V30 4519 C 412.528 -1.31597 1.52592 0
M  V30 4520 O 411.584 -2.0937 1.4114 0
M  V30 4521 C 412.897 0.776949 2.90489 0
M  V30 4522 C 414.445 0.745058 3.04003 0
M  V30 4523 C 414.92 1.31995 4.38567 0
M  V30 4524 N 416.411 1.28162 4.45117 0
M  V30 4525 C 417.146 1.6964 5.47731 0
M  V30 4526 N 416.642 2.18816 6.57337 0
M  V30 4527 N 418.435 1.6092 5.38573 0
M  V30 4528 H 410.586 1.4958 1.50797 0
M  V30 4529 H 412.849 0.621772 0.715614 0
M  V30 4530 H 412.555 1.82732 3.00503 0
M  V30 4531 H 412.429 0.25007 3.7637 0
M  V30 4532 H 414.816 -0.296532 2.93606 0
M  V30 4533 H 414.897 1.30933 2.1975 0
M  V30 4534 H 414.541 2.36043 4.49718 0
M  V30 4535 H 414.471 0.731418 5.21496 0
M  V30 4536 H 416.962 0.92155 3.66491 0
M  V30 4537 H 417.275 2.48478 7.31764 0
M  V30 4538 H 415.62 2.22805 6.58318 0
M  V30 4539 H 418.811 1.22304 4.5184 0
M  V30 4540 H 418.984 1.93567 6.18414 0
M  V30 4541 N 412.39 -1.55475 0.257931 0
M  V30 4542 C 413.638 -1.98813 -0.363009 0
M  V30 4543 C 413.959 -1.14757 -1.57657 0
M  V30 4544 O 413.229 -0.232956 -1.9451 0
M  V30 4545 H 411.809 -0.734308 -0.137113 0
M  V30 4546 H 414.471 -1.9156 0.359281 0
M  V30 4547 H 413.567 -3.04941 -0.664634 0
M  V30 4548 N 413.868 0.0150385 -1.57593 0
M  V30 4549 C 414.815 1.01126 -2.07466 0
M  V30 4550 C 415.785 1.35064 -0.966794 0
M  V30 4551 O 416.97 1.4516 -1.23827 0
M  V30 4552 C 414.11 2.30276 -2.57035 0
M  V30 4553 C 413.223 2.02373 -3.81666 0
M  V30 4554 C 412.358 3.25496 -4.19793 0
M  V30 4555 C 411.397 2.93211 -5.37303 0
M  V30 4556 N 410.534 4.08826 -5.70794 0
M  V30 4557 H 415.374 0.57901 -2.92321 0
M  V30 4558 H 412.911 0.27426 -1.44521 0
M  V30 4559 H 414.869 3.05757 -2.83846 0
M  V30 4560 H 413.499 2.71197 -1.75077 0
M  V30 4561 H 412.551 1.17327 -3.61854 0
M  V30 4562 H 413.863 1.74567 -4.67256 0
M  V30 4563 H 413.017 4.09333 -4.47807 0
M  V30 4564 H 411.756 3.56428 -3.32882 0
M  V30 4565 H 410.761 2.07777 -5.09027 0
M  V30 4566 H 411.986 2.63542 -6.25877 0
M  V30 4567 H 409.932 4.39682 -4.86842 0
M  V30 4568 H 409.849 3.84491 -6.50924 0
M  V30 4569 H 411.117 4.93496 -6.03392 0
M  V30 4570 N 415.346 1.54954 0.287554 0
M  V30 4571 C 416.278 1.83224 1.37701 0
M  V30 4572 C 417.291 0.715898 1.46215 0
M  V30 4573 O 418.48 0.993565 1.48292 0
M  V30 4574 C 415.58 1.96723 2.75959 0
M  V30 4575 C 414.753 3.27253 2.90215 0
M  V30 4576 C 413.812 3.30998 4.09056 0
M  V30 4577 O 412.838 4.04457 4.00503 0
M  V30 4578 N 414.04 2.57353 5.20336 0
M  V30 4579 H 416.805 2.77254 1.138 0
M  V30 4580 H 414.366 1.54694 0.477652 0
M  V30 4581 H 416.358 1.96615 3.5373 0
M  V30 4582 H 414.928 1.09626 2.92747 0
M  V30 4583 H 414.148 3.40022 1.99447 0
M  V30 4584 H 415.436 4.13365 2.96659 0
M  V30 4585 H 414.834 1.97327 5.30169 0
M  V30 4586 H 413.391 2.62984 5.96391 0
M  V30 4587 N 416.824 -0.551391 1.4764 0
M  V30 4588 C 418.054 -1.33163 1.57959 0
M  V30 4589 C 418.462 -1.87785 0.23094 0
M  V30 4590 O 417.805 -1.65996 -0.786825 0
M  V30 4591 C 417.867 -2.53449 2.54958 0
M  V30 4592 C 417.531 -2.20071 4.00522 0
M  V30 4593 C 418.528 -1.77017 4.88836 0
M  V30 4594 C 416.213 -2.31252 4.45901 0
M  V30 4595 C 418.207 -1.4558 6.20552 0
M  V30 4596 C 415.894 -1.99427 5.77644 0
M  V30 4597 C 416.892 -1.56659 6.64791 0
M  V30 4598 O 416.58 -1.25242 7.94084 0
M  V30 4599 H 416.312 -0.412022 0.535923 0
M  V30 4600 H 418.866 -0.674186 1.9402 0
M  V30 4601 H 417.096 -3.22104 2.13976 0
M  V30 4602 H 418.785 -3.15523 2.55343 0
M  V30 4603 H 419.551 -1.67867 4.55023 0
M  V30 4604 H 415.43 -2.63498 3.78272 0
M  V30 4605 H 418.974 -1.12125 6.8853 0
M  V30 4606 H 414.871 -2.08211 6.10998 0
M  V30 4607 H 415.639 -1.38822 8.06642 0
M  V30 4608 N 418.302 -1.35869 -0.798587 0
M  V30 4609 C 419.265 -1.29307 -1.89242 0
M  V30 4610 C 420.265 -0.202747 -1.59517 0
M  V30 4611 O 421.455 -0.456957 -1.681 0
M  V30 4612 C 418.587 -1.00229 -3.25833 0
M  V30 4613 H 419.78 -2.26576 -1.96478 0
M  V30 4614 H 417.333 -1.20509 -0.995358 0
M  V30 4615 H 418.068 -0.033801 -3.24282 0
M  V30 4616 H 417.853 -1.79121 -3.48795 0
M  V30 4617 H 419.343 -0.98219 -4.05885 0
M  V30 4618 N 419.78 1.02168 -1.19998 0
M  V30 4619 C 421.01 1.79036 -1.031 0
M  V30 4620 C 421.418 1.84409 0.423078 0
M  V30 4621 O 420.761 1.29228 1.30559 0
M  V30 4622 C 420.823 3.25185 -1.53281 0
M  V30 4623 C 420.487 3.43431 -3.01503 0
M  V30 4624 C 421.484 3.33063 -3.99206 0
M  V30 4625 C 419.169 3.69412 -3.40353 0
M  V30 4626 C 421.163 3.48413 -5.33748 0
M  V30 4627 C 418.85 3.84406 -4.75053 0
M  V30 4628 C 419.848 3.7391 -5.71559 0
M  V30 4629 O 419.536 3.88452 -7.03818 0
M  V30 4630 H 419.268 0.570043 -0.363355 0
M  V30 4631 H 421.822 1.29524 -1.59414 0
M  V30 4632 H 420.052 3.75756 -0.913483 0
M  V30 4633 H 421.741 3.83671 -1.32481 0
M  V30 4634 H 422.507 3.12934 -3.70537 0
M  V30 4635 H 418.386 3.76671 -2.65782 0
M  V30 4636 H 421.93 3.40137 -6.09059 0
M  V30 4637 H 417.827 4.04035 -5.03415 0
M  V30 4638 H 418.595 4.055 -7.10993 0
M  V30 4639 N 421.258 1.00505 1.21394 0
M  V30 4640 C 422.221 0.570459 2.21987 0
M  V30 4641 C 423.221 -0.353211 1.56873 0
M  V30 4642 O 424.411 -0.14349 1.73608 0
M  V30 4643 C 421.543 -0.168555 3.40483 0
M  V30 4644 H 422.736 1.46021 2.6195 0
M  V30 4645 H 420.289 0.793565 1.34656 0
M  V30 4646 H 421.024 -1.07374 3.06009 0
M  V30 4647 H 420.809 0.494823 3.88965 0
M  V30 4648 H 422.299 -0.460362 4.15055 0
M  V30 4649 N 422.737 -1.36956 0.779787 0
M  V30 4650 C 423.667 -2.32761 0.185651 0
M  V30 4651 C 424.648 -1.56177 -0.673989 0
M  V30 4652 O 425.833 -1.84378 -0.609797 0
M  V30 4653 C 422.963 -3.40418 -0.687964 0
M  V30 4654 C 421.917 -4.27941 0.0710102 0
M  V30 4655 C 421.243 -5.26681 -0.922573 0
M  V30 4656 C 422.543 -5.07006 1.25467 0
M  V30 4657 H 424.237 -2.82698 0.986008 0
M  V30 4658 H 421.783 -1.3592 0.475592 0
M  V30 4659 H 423.736 -4.06423 -1.11348 0
M  V30 4660 H 422.46 -2.89025 -1.52093 0
M  V30 4661 H 421.119 -3.63478 0.47739 0
M  V30 4662 H 420.767 -4.71565 -1.7503 0
M  V30 4663 H 420.467 -5.86103 -0.419237 0
M  V30 4664 H 421.991 -5.9556 -1.34686 0
M  V30 4665 H 423.405 -5.66105 0.905401 0
M  V30 4666 H 421.802 -5.75793 1.69063 0
M  V30 4667 H 422.872 -4.3921 2.05481 0
M  V30 4668 N 424.215 -0.530993 -1.48385 0
M  V30 4669 C 425.178 0.220497 -2.28137 0
M  V30 4670 C 426.178 0.866851 -1.35434 0
M  V30 4671 O 427.368 0.726746 -1.58316 0
M  V30 4672 C 424.5 1.31921 -3.1434 0
M  V30 4673 H 425.693 -0.479714 -2.96038 0
M  V30 4674 H 423.246 -0.286968 -1.53643 0
M  V30 4675 H 423.981 2.05264 -2.51072 0
M  V30 4676 H 423.766 0.86085 -3.82533 0
M  V30 4677 H 425.256 1.84776 -3.74497 0
M  V30 4678 N 425.693 1.55336 -0.266172 0
M  V30 4679 C 426.641 2.23587 0.641228 0
M  V30 4680 C 427.635 1.22986 1.16494 0
M  V30 4681 O 428.841 1.40943 1.1196 0
M  V30 4682 H 425.216 0.717452 0.225315 0
M  V30 4683 H 427.187 2.9837 0.0426561 0
M  V30 4684 C 425.936 2.96369 1.81826 0
M  V30 4685 H 425.259 3.73563 1.42445 0
M  V30 4686 H 426.699 3.47459 2.42998 0
M  V30 4687 C 425.158 2.0133 2.70125 0
M  V30 4688 O 425.688 1.55875 3.70224 0
M  V30 4689 N 423.894 1.6802 2.37102 0
M  V30 4690 H 423.441 2.05181 1.55751 0
M  V30 4691 H 423.399 1.047 2.96454 0
M  V30 4692 N 427.171 -0.0066808 1.57599 0
M  V30 4693 C 428.418 -0.69292 1.90276 0
M  V30 4694 C 428.746 -1.74148 0.866192 0
M  V30 4695 O 428.001 -1.95268 -0.129933 0
M  V30 4696 C 428.3 -1.37939 3.29708 0
M  V30 4697 C 427.966 -0.464679 4.48499 0
M  V30 4698 C 426.628 -0.212809 4.80729 0
M  V30 4699 C 428.98 0.16551 5.20937 0
M  V30 4700 C 426.308 0.677653 5.82773 0
M  V30 4701 C 428.66 1.04381 6.23929 0
M  V30 4702 C 427.324 1.30492 6.54621 0
M  V30 4703 H 426.594 -0.253558 0.696268 0
M  V30 4704 H 429.241 0.0474123 1.91441 0
M  V30 4705 H 427.546 -2.1936 3.24636 0
M  V30 4706 H 429.243 -1.9163 3.52249 0
M  V30 4707 H 425.833 -0.671153 4.23313 0
M  V30 4708 H 430.017 -0.0160756 4.96297 0
M  V30 4709 H 425.273 0.88803 6.04917 0
M  V30 4710 H 429.447 1.53851 6.79193 0
M  V30 4711 H 427.074 1.99662 7.33512 0
M  V30 4712 N 428.649 -1.55105 -0.279332 0
M  V30 4713 C 429.898 -1.74618 -1.00952 0
M  V30 4714 C 430.211 -0.551096 -1.87676 0
M  V30 4715 O 431.417 -0.628507 -2.64125 0
M  V30 4716 C 429.873 -3.09025 -1.84476 0
M  V30 4717 C 429.481 -4.36081 -1.0265 0
M  V30 4718 C 431.225 -3.37891 -2.56963 0
M  V30 4719 C 429.132 -5.6153 -1.85576 0
M  V30 4720 H 428.062 -0.650868 -0.38064 0
M  V30 4721 H 430.713 -1.81569 -0.265475 0
M  V30 4722 H 429.095 -2.96095 -2.62952 0
M  V30 4723 H 430.269 -4.59909 -0.286354 0
M  V30 4724 H 428.584 -4.14312 -0.416464 0
M  V30 4725 H 431.181 -4.28822 -3.19399 0
M  V30 4726 H 431.524 -2.57737 -3.26921 0
M  V30 4727 H 432.057 -3.5189 -1.85522 0
M  V30 4728 H 428.796 -6.44413 -1.2005 0
M  V30 4729 H 428.316 -5.41854 -2.57204 0
M  V30 4730 H 429.995 -5.99594 -2.43096 0
M  V30 4731 N 430.127 0.543554 -1.4793 0
M  V30 4732 C 431.059 1.665 -1.57513 0
M  V30 4733 C 432.072 1.56156 -0.460333 0
M  V30 4734 O 433.261 1.62865 -0.730573 0
M  V30 4735 C 430.361 3.05063 -1.47614 0
M  V30 4736 C 429.534 3.41024 -2.739 0
M  V30 4737 C 428.593 4.58809 -2.57645 0
M  V30 4738 O 427.619 4.62707 -3.31498 0
M  V30 4739 N 428.821 5.56149 -1.66368 0
M  V30 4740 H 431.586 1.5872 -2.5422 0
M  V30 4741 H 429.147 0.730517 -1.44482 0
M  V30 4742 H 431.139 3.81712 -1.34455 0
M  V30 4743 H 429.709 3.06994 -0.589359 0
M  V30 4744 H 428.929 2.53687 -3.01723 0
M  V30 4745 H 430.217 3.61831 -3.57709 0
M  V30 4746 H 429.615 5.55767 -1.05543 0
M  V30 4747 H 428.172 6.32071 -1.59154 0
M  V30 4748 N 431.605 1.3629 0.791371 0
M  V30 4749 C 432.83 1.33726 1.58531 0
M  V30 4750 C 433.255 -0.0794933 1.87932 0
M  V30 4751 O 432.613 -1.05087 1.47738 0
M  V30 4752 C 432.661 2.16425 2.88431 0
M  V30 4753 O 431.765 1.5554 3.81944 0
M  V30 4754 H 431.106 0.457793 0.480959 0
M  V30 4755 H 433.636 1.79547 0.981031 0
M  V30 4756 H 433.646 2.28933 3.37718 0
M  V30 4757 H 432.321 3.19415 2.66359 0
M  V30 4758 H 430.898 1.51961 3.40532 0
M  V30 4759 N 433.083 -1.0153 1.20538 0
M  V30 4760 C 434.015 -2.10224 0.913155 0
M  V30 4761 C 435.028 -1.62495 -0.0995998 0
M  V30 4762 O 436.217 -1.78014 0.131582 0
M  V30 4763 C 433.317 -3.37111 0.347717 0
M  V30 4764 C 432.49 -4.13971 1.41233 0
M  V30 4765 C 431.549 -5.19158 0.857976 0
M  V30 4766 O 430.575 -5.48 1.53897 0
M  V30 4767 N 431.777 -5.7955 -0.331966 0
M  V30 4768 H 434.542 -2.35879 1.84881 0
M  V30 4769 H 432.103 -1.17931 1.10923 0
M  V30 4770 H 434.095 -4.04683 -0.0373026 0
M  V30 4771 H 432.665 -3.08696 -0.492527 0
M  V30 4772 H 431.885 -3.41351 1.97163 0
M  V30 4773 H 433.173 -4.62103 2.12928 0
M  V30 4774 H 432.571 -5.58455 -0.902478 0
M  V30 4775 H 431.128 -6.48464 -0.65861 0
M  V30 4776 N 434.561 -1.01147 -1.20859 0
M  V30 4777 C 435.809 -0.696486 -1.89719 0
M  V30 4778 C 436.13 0.775788 -1.78904 0
M  V30 4779 O 435.4 1.55759 -1.18811 0
M  V30 4780 H 433.98 -0.254628 -0.702263 0
M  V30 4781 H 436.642 -1.28197 -1.46804 0
M  V30 4782 H 435.738 -0.975357 -2.96468 0
M  V30 4783 N 436.039 1.36541 -0.78704 0
M  V30 4784 C 437.288 1.98552 -0.35494 0
M  V30 4785 C 437.601 1.63171 1.07864 0
M  V30 4786 O 438.807 2.18399 1.61289 0
M  V30 4787 C 437.263 3.55136 -0.583671 0
M  V30 4788 C 436.871 3.99444 -2.02851 0
M  V30 4789 C 438.615 4.2395 -0.215957 0
M  V30 4790 C 436.522 5.48796 -2.20403 0
M  V30 4791 H 435.452 0.742888 -0.128972 0
M  V30 4792 H 438.103 1.5587 -0.968337 0
M  V30 4793 H 436.485 3.95875 0.0994046 0
M  V30 4794 H 437.659 3.6991 -2.74779 0
M  V30 4795 H 435.974 3.43459 -2.35425 0
M  V30 4796 H 438.571 5.33709 -0.325405 0
M  V30 4797 H 438.914 4.07827 0.835646 0
M  V30 4798 H 439.447 3.88565 -0.852175 0
M  V30 4799 H 436.186 5.69864 -3.23937 0
M  V30 4800 H 435.706 5.79964 -1.52977 0
M  V30 4801 H 437.385 6.14986 -2.01002 0
M  V30 4802 N 437.518 0.538854 1.48102 0
M  V30 4803 C 438.743 0.0102694 2.07397 0
M  V30 4804 C 439.168 -1.26562 1.39153 0
M  V30 4805 O 438.526 -1.75357 0.460387 0
M  V30 4806 C 438.574 -0.187602 3.60112 0
M  V30 4807 O 437.678 -1.25432 3.92862 0
M  V30 4808 H 437.019 0.0430975 0.6626 0
M  V30 4809 H 439.549 0.749301 1.90385 0
M  V30 4810 H 439.559 -0.407517 4.0596 0
M  V30 4811 H 438.234 0.744386 4.09184 0
M  V30 4812 H 436.811 -1.01636 3.58782 0
M  V30 4813 N 438.996 -1.55193 0.274407 0
M  V30 4814 C 440.221 -2.04446 -0.348824 0
M  V30 4815 C 440.646 -1.15149 -1.48735 0
M  V30 4816 O 440.004 -0.149952 -1.80679 0
M  V30 4817 C 440.052 -3.51431 -0.808009 0
M  V30 4818 O 439.156 -3.65225 -1.91531 0
M  V30 4819 H 438.497 -0.66006 -0.0722276 0
M  V30 4820 H 441.027 -2.00481 0.408498 0
M  V30 4821 H 441.037 -3.92781 -1.10395 0
M  V30 4822 H 439.712 -4.15892 0.0249865 0
M  V30 4823 H 438.289 -3.35778 -1.62196 0
M  V30 4824 N 440.474 -0.00167713 -1.576 0
M  V30 4825 C 441.404 0.988091 -2.11563 0
M  V30 4826 C 442.385 1.35736 -1.02517 0
M  V30 4827 O 443.57 1.44082 -1.30208 0
M  V30 4828 C 440.7 2.27941 -2.62031 0
M  V30 4829 C 439.654 2.0517 -3.75619 0
M  V30 4830 C 438.98 3.4033 -4.12407 0
M  V30 4831 C 440.28 1.41294 -5.02825 0
M  V30 4832 H 441.974 0.538771 -2.94513 0
M  V30 4833 H 439.52 0.257712 -1.41675 0
M  V30 4834 H 441.473 2.97539 -2.9841 0
M  V30 4835 H 440.197 2.74989 -1.76205 0
M  V30 4836 H 438.856 1.37998 -3.39635 0
M  V30 4837 H 438.504 3.85085 -3.23603 0
M  V30 4838 H 438.204 3.25909 -4.88935 0
M  V30 4839 H 439.728 4.1124 -4.51347 0
M  V30 4840 H 441.142 2.00851 -5.36965 0
M  V30 4841 H 439.539 1.37356 -5.84169 0
M  V30 4842 H 440.609 0.382362 -4.8339 0
M  V30 4843 N 441.952 1.55251 0.271103 0
M  V30 4844 C 442.899 1.88261 1.33516 0
M  V30 4845 C 443.869 0.734296 1.48988 0
M  V30 4846 O 445.054 0.985741 1.63364 0
M  V30 4847 C 442.194 2.16168 2.69008 0
M  V30 4848 C 441.307 3.43678 2.61743 0
M  V30 4849 C 440.442 3.61276 3.89427 0
M  V30 4850 C 439.481 4.82472 3.7668 0
M  V30 4851 N 438.618 4.96717 4.96202 0
M  V30 4852 H 443.458 2.79015 1.04665 0
M  V30 4853 H 440.995 1.38137 0.505618 0
M  V30 4854 H 442.953 2.30349 3.47844 0
M  V30 4855 H 441.583 1.28646 2.96057 0
M  V30 4856 H 440.635 3.37959 1.74607 0
M  V30 4857 H 441.947 4.3265 2.48224 0
M  V30 4858 H 441.101 3.75284 4.76704 0
M  V30 4859 H 439.84 2.70492 4.05814 0
M  V30 4860 H 438.845 4.68465 2.87786 0
M  V30 4861 H 440.07 5.74692 3.61809 0
M  V30 4862 H 438.016 4.08865 5.12997 0
M  V30 4863 H 437.933 5.79738 4.85222 0
M  V30 4864 H 439.201 5.15113 5.85046 0
M  V30 4865 N 443.43 -0.535701 1.48216 0
M  V30 4866 C 444.676 -1.29375 1.56173 0
M  V30 4867 C 445.009 -1.92804 0.232429 0
M  V30 4868 O 444.284 -1.78992 -0.761048 0
M  V30 4869 C 444.567 -2.38747 2.69577 0
M  V30 4870 C 444.42 -1.80046 4.12193 0
M  V30 4871 C 445.739 -3.40551 2.78771 0
M  V30 4872 H 442.858 -0.469027 0.568491 0
M  V30 4873 H 445.5 -0.597358 1.80365 0
M  V30 4874 H 443.65 -2.98147 2.4908 0
M  V30 4875 H 445.322 -1.24742 4.44114 0
M  V30 4876 H 443.565 -1.10609 4.19462 0
M  V30 4877 H 444.236 -2.59212 4.87353 0
M  V30 4878 H 446.712 -2.91099 2.97322 0
M  V30 4879 H 445.588 -4.1448 3.59857 0
M  V30 4880 H 445.849 -4.00746 1.86696 0
M  V30 4881 N 444.908 -1.36708 -0.784132 0
M  V30 4882 C 446.154 -1.32433 -1.54379 0
M  V30 4883 C 446.509 0.0941816 -1.92169 0
M  V30 4884 O 445.802 1.04997 -1.60269 0
M  V30 4885 C 445.996 -2.18571 -2.82774 0
M  V30 4886 C 445.825 -3.68656 -2.57533 0
M  V30 4887 C 444.595 -4.37813 -2.52286 0
M  V30 4888 C 446.793 -4.61802 -2.2637 0
M  V30 4889 N 444.775 -5.7351 -2.18997 0
M  V30 4890 C 446.146 -5.85785 -2.03115 0
M  V30 4891 C 448.201 -4.50313 -2.12421 0
M  V30 4892 C 446.904 -6.99569 -1.67321 0
M  V30 4893 C 448.93 -5.63969 -1.78026 0
M  V30 4894 C 448.292 -6.86994 -1.55622 0
M  V30 4895 H 444.391 -0.539886 -0.565727 0
M  V30 4896 H 446.975 -1.71812 -0.915908 0
M  V30 4897 H 445.146 -1.81429 -3.43421 0
M  V30 4898 H 446.878 -2.05646 -3.48557 0
M  V30 4899 H 443.633 -3.90674 -2.67714 0
M  V30 4900 H 444.057 -6.45189 -2.05084 0
M  V30 4901 H 448.699 -3.55781 -2.28429 0
M  V30 4902 H 446.417 -7.94047 -1.5005 0
M  V30 4903 H 450.003 -5.57044 -1.67909 0
M  V30 4904 H 448.883 -7.7345 -1.294 0
M  V30 4905 N 446.386 1.0089 -1.21074 0
M  V30 4906 C 447.614 1.78191 -1.05145 0
M  V30 4907 C 448.029 1.84537 0.398952 0
M  V30 4908 O 447.386 1.30393 1.27687 0
M  V30 4909 C 447.437 3.22288 -1.63746 0
M  V30 4910 O 447.158 3.16315 -3.03111 0
M  V30 4911 C 448.659 4.16106 -1.52875 0
M  V30 4912 H 445.879 0.560129 -0.369454 0
M  V30 4913 H 448.423 1.26945 -1.60328 0
M  V30 4914 H 446.578 3.70655 -1.12664 0
M  V30 4915 H 446.992 4.06817 -3.31059 0
M  V30 4916 H 448.466 5.15026 -1.98626 0
M  V30 4917 H 448.943 4.36541 -0.482521 0
M  V30 4918 H 449.549 3.73625 -2.03185 0
M  V30 4919 N 447.864 1.01787 1.20321 0
M  V30 4920 C 449.089 0.727009 1.9424 0
M  V30 4921 C 449.514 -0.706179 1.74341 0
M  V30 4922 O 448.872 -1.48609 1.03852 0
M  V30 4923 C 448.92 1.06958 3.44372 0
M  V30 4924 O 448.024 0.181983 4.11998 0
M  V30 4925 H 447.365 0.269626 0.606793 0
M  V30 4926 H 449.895 1.36158 1.52716 0
M  V30 4927 H 449.905 1.02182 3.94997 0
M  V30 4928 H 448.58 2.11378 3.58179 0
M  V30 4929 H 447.157 0.287378 3.71791 0
M  V30 4930 N 449.342 -1.36122 0.79427 0
M  V30 4931 C 450.292 -2.27373 0.169017 0
M  V30 4932 C 451.276 -1.4719 -0.649913 0
M  V30 4933 O 452.468 -1.69518 -0.50919 0
M  V30 4934 C 449.597 -3.36264 -0.691455 0
M  V30 4935 C 448.683 -4.2388 0.13653 0
M  V30 4936 N 449.074 -4.91519 1.19345 0
M  V30 4937 C 447.372 -4.45921 -0.0838499 0
M  V30 4938 C 448.073 -5.56369 1.6979 0
M  V30 4939 N 447.049 -5.34204 1.00634 0
M  V30 4940 H 450.851 -2.77154 0.977897 0
M  V30 4941 H 448.365 -1.49504 0.634208 0
M  V30 4942 H 450.362 -4.00572 -1.15534 0
M  V30 4943 H 449.022 -2.88037 -1.49883 0
M  V30 4944 H 450.033 -4.9334 1.57594 0
M  V30 4945 H 446.71 -4.08518 -0.861341 0
M  V30 4946 H 448.1 -6.20368 2.58055 0
M  V30 4947 N 450.82 -0.546701 -1.47814 0
M  V30 4948 C 451.753 0.254472 -2.26777 0
M  V30 4949 C 452.731 0.929809 -1.33392 0
M  V30 4950 O 453.915 0.950889 -1.62759 0
M  V30 4951 C 451.042 1.36171 -3.10121 0
M  V30 4952 C 450.088 0.796038 -4.19005 0
M  V30 4953 S 450.921 -0.349191 -5.3436 0
M  V30 4954 C 452.077 0.760122 -6.21267 0
M  V30 4955 H 452.31 -0.415612 -2.94381 0
M  V30 4956 H 449.843 -0.332809 -1.5077 0
M  V30 4957 H 451.801 1.99588 -3.58713 0
M  V30 4958 H 450.462 2.00359 -2.41899 0
M  V30 4959 H 449.655 1.62719 -4.7701 0
M  V30 4960 H 449.257 0.238246 -3.7324 0
M  V30 4961 H 451.549 1.65479 -6.5698 0
M  V30 4962 H 452.492 0.217673 -7.07765 0
M  V30 4963 H 452.9 1.04806 -5.54685 0
M  V30 4964 N 452.299 1.55045 -0.282633 0
M  V30 4965 C 453.246 2.22822 0.601566 0
M  V30 4966 C 454.216 1.20431 1.14392 0
M  V30 4967 O 455.401 1.48996 1.19184 0
M  V30 4968 C 452.541 2.95873 1.77632 0
M  V30 4969 C 451.654 4.12999 1.26711 0
M  V30 4970 C 450.789 4.73676 2.40426 0
M  V30 4971 C 449.828 5.82981 1.86545 0
M  V30 4972 N 448.965 6.3769 2.93762 0
M  V30 4973 H 453.805 2.97995 0.0169528 0
M  V30 4974 H 451.342 1.471 -0.00339964 0
M  V30 4975 H 453.3 3.36447 2.46697 0
M  V30 4976 H 451.93 2.2311 2.33285 0
M  V30 4977 H 450.982 3.77494 0.469314 0
M  V30 4978 H 452.294 4.91803 0.832518 0
M  V30 4979 H 451.448 5.17008 3.17471 0
M  V30 4980 H 450.187 3.94164 2.87203 0
M  V30 4981 H 449.192 5.39092 1.07983 0
M  V30 4982 H 450.417 6.64366 1.40694 0
M  V30 4983 H 448.363 5.61069 3.39908 0
M  V30 4984 H 448.28 7.11788 2.54744 0
M  V30 4985 H 449.548 6.8568 3.7076 0
M  V30 4986 N 453.777 0.010035 1.57597 0
M  V30 4987 C 455.193 -0.346164 1.55801 0
M  V30 4988 C 455.393 -1.74144 1.01371 0
M  V30 4989 O 454.449 -2.43938 0.651968 0
M  V30 4990 C 455.762 -0.212216 2.9995 0
M  V30 4991 C 457.31 -0.286409 3.11687 0
M  V30 4992 C 457.785 -0.18147 4.5764 0
M  V30 4993 N 459.276 -0.239056 4.62583 0
M  V30 4994 C 460.011 -0.181351 5.73113 0
M  V30 4995 N 459.507 -0.073661 6.92761 0
M  V30 4996 N 461.3 -0.233949 5.61613 0
M  V30 4997 H 453.451 0.922657 1.91313 0
M  V30 4998 H 455.714 0.354595 0.879185 0
M  V30 4999 H 455.42 0.748169 3.4365 0
M  V30 5000 H 455.294 -0.990224 3.6397 0
M  V30 5001 H 457.681 -1.23724 2.67911 0
M  V30 5002 H 457.762 0.521645 2.50425 0
M  V30 5003 H 457.406 0.765863 5.02093 0
M  V30 5004 H 457.336 -1.00814 5.1686 0
M  V30 5005 H 459.827 -0.32321 3.76515 0
M  V30 5006 H 460.14 -0.0358003 7.72792 0
M  V30 5007 H 458.485 -0.0391461 6.94989 0
M  V30 5008 H 461.676 -0.316347 4.6703 0
M  V30 5009 H 461.849 -0.185514 6.47734 0
M  V30 5010 N 455.255 -1.55392 -0.262866 0
M  V30 5011 C 456.483 -1.80513 -1.01108 0
M  V30 5012 C 456.898 -0.583533 -1.79556 0
M  V30 5013 O 456.255 0.447585 -1.76926 0
M  V30 5014 C 456.306 -3.03648 -1.96164 0
M  V30 5015 O 456.027 -4.2109 -1.20893 0
M  V30 5016 C 457.528 -3.41448 -2.82715 0
M  V30 5017 H 454.748 -0.601079 -0.298236 0
M  V30 5018 H 457.292 -2.02425 -0.290582 0
M  V30 5019 H 455.447 -2.83832 -2.63663 0
M  V30 5020 H 455.861 -4.90771 -1.85051 0
M  V30 5021 H 457.335 -4.30751 -3.45192 0
M  V30 5022 H 457.812 -2.61308 -3.53008 0
M  V30 5023 H 458.418 -3.63559 -2.20693 0
M  V30 5024 N 456.733 0.527833 -1.48498 0
M  V30 5025 C 457.982 1.28003 -1.55878 0
M  V30 5026 C 458.295 1.9414 -0.238577 0
M  V30 5027 O 459.501 2.7083 -0.190643 0
M  V30 5028 C 457.957 2.32272 -2.74914 0
M  V30 5029 C 457.565 1.72196 -4.13585 0
M  V30 5030 C 459.309 3.08488 -2.91608 0
M  V30 5031 C 457.216 2.74417 -5.23879 0
M  V30 5032 H 456.146 0.481413 -0.580308 0
M  V30 5033 H 458.797 0.557195 -1.74836 0
M  V30 5034 H 457.179 3.07601 -2.49395 0
M  V30 5035 H 458.353 1.03041 -4.49132 0
M  V30 5036 H 456.668 1.08464 -4.02025 0
M  V30 5037 H 459.265 3.84879 -3.71177 0
M  V30 5038 H 459.608 3.64481 -2.01145 0
M  V30 5039 H 460.141 2.40274 -3.17038 0
M  V30 5040 H 456.88 2.23242 -6.16314 0
M  V30 5041 H 456.4 3.41893 -4.92818 0
M  V30 5042 H 458.079 3.37362 -5.52083 0
M  V30 5043 N 458.211 1.37122 0.776871 0
M  V30 5044 C 459.143 1.28342 1.89897 0
M  V30 5045 C 460.156 0.200277 1.61563 0
M  V30 5046 O 461.345 0.456012 1.72577 0
M  V30 5047 C 458.445 0.960427 3.25006 0
M  V30 5048 C 457.618 2.148 3.81025 0
M  V30 5049 C 456.677 1.79608 4.94598 0
M  V30 5050 O 455.703 2.51845 5.10454 0
M  V30 5051 N 456.905 0.737171 5.758 0
M  V30 5052 H 459.67 2.25027 1.97947 0
M  V30 5053 H 457.231 1.3068 0.955739 0
M  V30 5054 H 459.223 0.705942 3.98495 0
M  V30 5055 H 457.793 0.0823066 3.12492 0
M  V30 5056 H 457.013 2.56454 2.99374 0
M  V30 5057 H 458.301 2.9411 4.15183 0
M  V30 5058 H 457.699 0.137637 5.65533 0
M  V30 5059 H 456.256 0.542534 6.49538 0
M  V30 5060 N 459.689 -1.00246 1.21608 0
M  V30 5061 C 460.917 -1.77631 1.06089 0
M  V30 5062 C 461.332 -1.84746 -0.38916 0
M  V30 5063 O 460.689 -1.31068 -1.26994 0
M  V30 5064 C 460.74 -3.21415 1.65453 0
M  V30 5065 O 460.461 -3.14703 3.04785 0
M  V30 5066 C 461.962 -4.15289 1.55079 0
M  V30 5067 H 459.182 -0.558162 0.37242 0
M  V30 5068 H 461.726 -1.26093 1.60999 0
M  V30 5069 H 459.881 -3.70053 1.14629 0
M  V30 5070 H 460.295 -4.05056 3.33212 0
M  V30 5071 H 461.769 -5.13965 2.01355 0
M  V30 5072 H 462.246 -4.36279 0.505665 0
M  V30 5073 H 462.852 -3.72543 2.05163 0
M  V30 5074 N 461.167 -1.02423 -1.1978 0
M  V30 5075 C 462.13 -0.605703 -2.21052 0
M  V30 5076 C 463.13 0.328209 -1.57415 0
M  V30 5077 O 464.32 0.115853 -1.73814 0
M  V30 5078 C 461.452 0.114366 -3.40708 0
M  V30 5079 H 462.645 -1.5017 -2.59594 0
M  V30 5080 H 460.198 -0.814888 -1.33376 0
M  V30 5081 H 460.933 1.02492 -3.07678 0
M  V30 5082 H 460.718 -0.556641 -3.88129 0
M  V30 5083 H 462.208 0.394272 -4.15735 0
M  V30 5084 N 462.645 1.35699 -0.801477 0
M  V30 5085 C 463.555 2.33661 -0.209691 0
M  V30 5086 C 464.571 1.6162 0.644591 0
M  V30 5087 O 465.747 1.93529 0.557545 0
M  V30 5088 C 462.812 3.40816 0.636033 0
M  V30 5089 C 461.873 4.28639 -0.238147 0
M  V30 5090 C 461.106 5.30676 0.567307 0
M  V30 5091 O 461.329 5.41174 1.8024 0
M  V30 5092 O 460.263 6.01887 -0.0391336 0
M  V30 5093 H 464.089 2.8606 -1.01996 0
M  V30 5094 H 461.674 1.38379 -0.563164 0
M  V30 5095 H 463.556 4.06301 1.11791 0
M  V30 5096 H 462.231 2.90696 1.42399 0
M  V30 5097 H 461.138 3.66152 -0.767044 0
M  V30 5098 H 462.471 4.82143 -0.989915 0
M  V30 5099 N 464.123 0.554532 1.47522 0
M  V30 5100 C 465.086 -0.184174 2.28459 0
M  V30 5101 C 466.086 -0.845195 1.36796 0
M  V30 5102 O 467.276 -0.701467 1.59452 0
M  V30 5103 C 464.408 -1.26903 3.16399 0
M  V30 5104 H 465.601 0.526751 2.95238 0
M  V30 5105 H 463.154 0.311375 1.53167 0
M  V30 5106 H 463.889 -2.01244 2.54306 0
M  V30 5107 H 463.674 -0.799883 3.83854 0
M  V30 5108 H 465.164 -1.78794 3.77389 0
M  V30 5109 N 465.601 -1.54893 0.290851 0
M  V30 5110 C 466.531 -2.26103 -0.583084 0
M  V30 5111 C 467.512 -1.25684 -1.14619 0
M  V30 5112 O 468.697 -1.54436 -1.17741 0
M  V30 5113 C 465.827 -2.99409 -1.75987 0
M  V30 5114 C 464.781 -4.0689 -1.32758 0
M  V30 5115 C 464.107 -4.67856 -2.58872 0
M  V30 5116 C 465.407 -5.20215 -0.46624 0
M  V30 5117 H 467.101 -2.99398 0.0108214 0
M  V30 5118 H 464.647 -1.43998 0.00664468 0
M  V30 5119 H 466.6 -3.47943 -2.37727 0
M  V30 5120 H 465.324 -2.23675 -2.37985 0
M  V30 5121 H 463.983 -3.59191 -0.733299 0
M  V30 5122 H 463.631 -3.88772 -3.19163 0
M  V30 5123 H 463.331 -5.40438 -2.30653 0
M  V30 5124 H 464.855 -5.19147 -3.21433 0
M  V30 5125 H 466.269 -5.64704 -0.989047 0
M  V30 5126 H 464.666 -5.99455 -0.27826 0
M  V30 5127 H 465.736 -4.82198 0.511173 0
M  V30 5128 N 467.08 -0.0183926 -1.57589 0
M  V30 5129 C 468.328 0.661253 -1.90976 0
M  V30 5130 C 468.649 1.73281 -0.894353 0
M  V30 5131 O 467.919 1.9579 0.0656788 0
M  V30 5132 H 466.499 0.247233 -0.704901 0
M  V30 5133 H 469.161 -0.0636639 -1.94796 0
M  V30 5134 H 468.257 1.12083 -2.9128 0
M  V30 5135 N 468.558 1.5553 0.254621 0
M  V30 5136 C 469.804 1.77262 0.985193 0
M  V30 5137 C 470.137 0.582286 1.85265 0
M  V30 5138 O 469.412 -0.419666 1.89919 0
M  V30 5139 C 469.695 3.0881 1.85225 0
M  V30 5140 C 469.548 4.38233 1.0135 0
M  V30 5141 C 470.867 3.3653 2.83612 0
M  V30 5142 H 467.986 0.644906 0.356742 0
M  V30 5143 H 470.628 1.88264 0.256236 0
M  V30 5144 H 468.778 2.99562 2.47376 0
M  V30 5145 H 470.45 4.59463 0.411269 0
M  V30 5146 H 468.693 4.32636 0.317574 0
M  V30 5147 H 469.364 5.26644 1.65379 0
M  V30 5148 H 471.84 3.45691 2.31596 0
M  V30 5149 H 470.716 4.29805 3.41407 0
M  V30 5150 H 470.977 2.57064 3.59681 0
M  V30 5151 N 470.036 -0.519951 1.48776 0
M  V30 5152 C 471.447 -1.10177 1.50725 0
M  V30 5153 C 471.798 -1.94153 0.282678 0
M  V30 5154 O 470.923 -2.07645 -0.609298 0
M  V30 5155 C 471.518 -2.00482 2.73116 0
M  V30 5156 C 470.077 -2.53862 2.77905 0
M  V30 5157 C 469.224 -1.31047 2.44381 0
M  V30 5158 H 472.175 -0.30473 1.55747 0
M  V30 5159 H 472.196 -2.8491 2.52203 0
M  V30 5160 H 471.708 -1.39335 3.62225 0
M  V30 5161 H 469.809 -3.18702 1.93029 0
M  V30 5162 H 469.922 -2.9231 3.79594 0
M  V30 5163 H 468.286 -1.62953 1.95751 0
M  V30 5164 H 469.069 -0.71637 3.35743 0
M  V30 5165 N 471.514 -1.37532 -0.769588 0
M  V30 5166 C 472.744 -1.35861 -1.55645 0
M  V30 5167 C 473.152 0.0574398 -1.89113 0
M  V30 5168 O 472.495 1.03021 -1.52093 0
M  V30 5169 C 472.557 -2.13431 -2.89288 0
M  V30 5170 C 472.221 -3.62378 -2.78444 0
M  V30 5171 C 473.218 -4.56215 -2.49326 0
M  V30 5172 C 470.903 -4.05529 -2.96398 0
M  V30 5173 C 472.897 -5.91181 -2.38294 0
M  V30 5174 C 470.584 -5.40579 -2.84987 0
M  V30 5175 C 471.582 -6.33218 -2.55975 0
M  V30 5176 O 471.27 -7.65787 -2.44594 0
M  V30 5177 H 471.002 -0.467001 -0.48876 0
M  V30 5178 H 473.556 -1.81505 -0.961515 0
M  V30 5179 H 471.786 -1.62481 -3.50909 0
M  V30 5180 H 473.475 -2.04368 -3.50697 0
M  V30 5181 H 474.241 -4.24187 -2.35139 0
M  V30 5182 H 470.12 -3.33781 -3.1798 0
M  V30 5183 H 473.664 -6.63457 -2.15571 0
M  V30 5184 H 469.561 -5.72209 -2.98743 0
M  V30 5185 H 470.329 -7.76132 -2.59927 0
M  V30 5186 N 472.992 0.995999 -1.22138 0
M  V30 5187 C 473.902 2.11985 -1.00496 0
M  V30 5188 C 474.918 1.7394 0.0457701 0
M  V30 5189 O 476.094 2.00868 -0.146273 0
M  V30 5190 C 473.159 3.41779 -0.582086 0
M  V30 5191 C 472.22 3.93943 -1.70608 0
M  V30 5192 C 471.453 5.17542 -1.30328 0
M  V30 5193 O 471.676 5.70114 -0.180743 0
M  V30 5194 O 470.61 5.63382 -2.11861 0
M  V30 5195 H 474.436 2.33123 -1.94647 0
M  V30 5196 H 472.021 1.10358 -1.00705 0
M  V30 5197 H 473.903 4.1989 -0.356467 0
M  V30 5198 H 472.578 3.22007 0.330592 0
M  V30 5199 H 471.485 3.17019 -1.98619 0
M  V30 5200 H 472.818 4.18141 -2.59651 0
M  V30 5201 N 474.47 1.03057 1.19235 0
M  V30 5202 C 475.402 0.570932 2.21975 0
M  V30 5203 C 476.415 -0.354088 1.58903 0
M  V30 5204 O 477.604 -0.150211 1.77867 0
M  V30 5205 C 474.704 -0.187152 3.38383 0
M  V30 5206 C 473.877 0.743231 4.31039 0
M  V30 5207 C 472.936 0.0302493 5.26191 0
M  V30 5208 O 471.962 0.657371 5.65391 0
M  V30 5209 N 473.164 -1.23991 5.67104 0
M  V30 5210 H 475.929 1.45456 2.62036 0
M  V30 5211 H 473.49 0.909807 1.33918 0
M  V30 5212 H 475.482 -0.673715 3.99053 0
M  V30 5213 H 474.052 -0.972205 2.97098 0
M  V30 5214 H 473.272 1.40985 3.68126 0
M  V30 5215 H 474.56 1.3755 4.89854 0
M  V30 5216 H 473.958 -1.77011 5.37293 0
M  V30 5217 H 472.515 -1.67093 6.30018 0
M  V30 5218 N 475.948 -1.35272 0.808662 0
M  V30 5219 C 477.194 -1.99434 0.399717 0
M  V30 5220 C 477.549 -1.62992 -1.02232 0
M  V30 5221 O 476.842 -0.884091 -1.69983 0
M  V30 5222 C 477.036 -3.53556 0.522798 0
M  V30 5223 C 476.865 -4.04969 1.95525 0
M  V30 5224 C 475.635 -4.34228 2.58407 0
M  V30 5225 C 477.833 -4.23362 2.92009 0
M  V30 5226 N 475.815 -4.71585 3.93041 0
M  V30 5227 C 477.186 -4.63739 4.11517 0
M  V30 5228 C 479.241 -4.05576 2.88813 0
M  V30 5229 C 477.944 -4.88189 5.28265 0
M  V30 5230 C 479.97 -4.31184 4.04765 0
M  V30 5231 C 479.332 -4.71834 5.23022 0
M  V30 5232 H 475.431 -0.757534 0.19408 0
M  V30 5233 H 478.015 -1.63939 1.05034 0
M  V30 5234 H 476.186 -3.88277 -0.0978471 0
M  V30 5235 H 477.918 -4.04604 0.0882378 0
M  V30 5236 H 474.673 -4.24621 2.09747 0
M  V30 5237 H 475.097 -4.9452 4.62363 0
M  V30 5238 H 479.739 -3.73288 1.98535 0
M  V30 5239 H 477.457 -5.1935 6.19113 0
M  V30 5240 H 481.043 -4.18972 4.03675 0
M  V30 5241 H 479.923 -4.91263 6.11253 0
M  V30 5242 N 477.426 -0.562348 -1.47226 0
M  V30 5243 C 478.373 0.182461 -2.30078 0
M  V30 5244 C 479.343 0.903503 -1.39377 0
M  V30 5245 O 480.528 0.898188 -1.68337 0
M  V30 5246 C 477.668 1.20322 -3.23445 0
M  V30 5247 C 476.781 0.487717 -4.29238 0
M  V30 5248 C 475.916 1.49422 -5.09752 0
M  V30 5249 C 474.955 0.763976 -6.07314 0
M  V30 5250 N 474.092 1.71755 -6.80768 0
M  V30 5251 H 478.932 -0.530169 -2.93246 0
M  V30 5252 H 476.469 -0.273276 -1.44539 0
M  V30 5253 H 478.427 1.80768 -3.76004 0
M  V30 5254 H 477.057 1.88382 -2.6213 0
M  V30 5255 H 476.109 -0.231374 -3.79696 0
M  V30 5256 H 477.421 -0.0841003 -4.98729 0
M  V30 5257 H 476.575 2.17206 -5.66486 0
M  V30 5258 H 475.314 2.09995 -4.40174 0
M  V30 5259 H 474.319 0.0722344 -5.49753 0
M  V30 5260 H 475.544 0.16391 -6.78902 0
M  V30 5261 H 473.49 2.31177 -6.13916 0
M  V30 5262 H 473.407 1.19802 -7.46447 0
M  V30 5263 H 474.675 2.38638 -7.42073 0
M  V30 5264 N 478.904 1.54736 -0.299062 0
M  V30 5265 C 479.867 2.22127 0.565012 0
M  V30 5266 C 480.867 1.20669 1.06281 0
M  V30 5267 O 482.057 1.45417 0.959145 0
M  V30 5268 C 479.189 2.90611 1.78208 0
M  V30 5269 H 480.382 2.99891 -0.0237448 0
M  V30 5270 H 477.935 1.5622 -0.0498788 0
M  V30 5271 H 478.67 2.16921 2.41072 0
M  V30 5272 H 478.455 3.64984 1.43281 0
M  V30 5273 H 479.945 3.42026 2.396 0
M  V30 5274 N 480.382 0.0267497 1.57577 0
M  V30 5275 C 481.312 -0.954308 2.13108 0
M  V30 5276 C 482.293 -1.34088 1.04663 0
M  V30 5277 O 483.478 -1.41992 1.32484 0
M  V30 5278 C 480.608 -2.23744 2.65624 0
M  V30 5279 C 479.562 -1.99168 3.78835 0
M  V30 5280 C 478.888 -3.33726 4.17769 0
M  V30 5281 C 480.188 -1.33277 5.0501 0
M  V30 5282 H 481.882 -0.491848 2.95332 0
M  V30 5283 H 479.428 -0.23514 1.42067 0
M  V30 5284 H 481.381 -2.92754 3.03106 0
M  V30 5285 H 480.105 -2.72151 1.80558 0
M  V30 5286 H 478.764 -1.32577 3.41788 0
M  V30 5287 H 478.412 -3.79888 3.29688 0
M  V30 5288 H 478.112 -3.18089 4.94058 0
M  V30 5289 H 479.636 -4.04008 4.57832 0
M  V30 5290 H 481.05 -1.92283 5.40093 0
M  V30 5291 H 479.447 -1.28045 5.8628 0
M  V30 5292 H 480.517 -0.305411 4.83937 0
M  V30 5293 N 481.861 -1.55662 -0.24637 0
M  V30 5294 C 482.809 -1.91186 -1.3248 0
M  V30 5295 C 483.803 -0.790996 -1.49799 0
M  V30 5296 O 485.009 -0.975617 -1.51267 0
M  V30 5297 H 481.384 -0.607207 -0.443626 0
M  V30 5298 H 483.355 -2.81221 -0.997853 0
M  V30 5299 C 482.104 -2.22349 -2.67313 0
M  V30 5300 H 481.427 -3.08097 -2.54786 0
M  V30 5301 H 482.867 -2.51107 -3.41645 0
M  V30 5302 C 481.326 -1.04001 -3.20446 0
M  V30 5303 O 481.856 -0.28828 -4.00664 0
M  V30 5304 N 480.062 -0.830494 -2.7848 0
M  V30 5305 H 479.609 -1.4435 -2.13356 0
M  V30 5306 H 479.567 -0.0403258 -3.14374 0
M  V30 5307 N 483.339 0.512053 -1.4905 0
M  V30 5308 C 484.249 1.64139 -1.67617 0
M  V30 5309 C 485.265 1.64786 -0.558701 0
M  V30 5310 O 486.441 1.8341 -0.832034 0
M  V30 5311 C 483.506 3.00548 -1.72835 0
M  V30 5312 C 482.567 3.10615 -2.96339 0
M  V30 5313 C 481.8 4.40517 -3.01298 0
M  V30 5314 O 482.023 5.28671 -2.14157 0
M  V30 5315 O 480.957 4.55325 -3.93653 0
M  V30 5316 H 484.783 1.51407 -2.63267 0
M  V30 5317 H 482.368 0.687131 -1.32661 0
M  V30 5318 H 484.25 3.81641 -1.78683 0
M  V30 5319 H 482.925 3.13566 -0.803616 0
M  V30 5320 H 481.832 2.2875 -2.96014 0
M  V30 5321 H 483.165 3.0252 -3.88256 0
M  V30 5322 N 484.817 1.37938 0.762283 0
M  V30 5323 C 486.066 1.32989 1.51647 0
M  V30 5324 C 486.379 -0.0802922 1.95435 0
M  V30 5325 O 487.585 -0.252295 2.70325 0
M  V30 5326 C 486.041 2.33485 2.73885 0
M  V30 5327 C 485.649 3.80079 2.37157 0
M  V30 5328 C 487.393 2.37563 3.51801 0
M  V30 5329 C 485.3 4.72283 3.55954 0
M  V30 5330 H 484.23 0.494301 0.56937 0
M  V30 5331 H 486.881 1.63448 0.834083 0
M  V30 5332 H 485.263 1.96056 3.44061 0
M  V30 5333 H 486.437 4.26398 1.74704 0
M  V30 5334 H 484.752 3.79037 1.72395 0
M  V30 5335 H 487.349 3.0365 4.40114 0
M  V30 5336 H 487.692 1.39199 3.92338 0
M  V30 5337 H 488.225 2.73747 2.8863 0
M  V30 5338 H 484.964 5.7181 3.2049 0
M  V30 5339 H 484.484 4.30663 4.1748 0
M  V30 5340 H 486.163 4.89876 4.22647 0
M  V30 5341 N 486.295 -0.989507 1.22664 0
M  V30 5342 C 487.572 -1.70326 0.961688 0
M  V30 5343 C 487.952 -2.04537 -0.522279 0
M  V30 5344 O 487.3 -1.73136 -1.49118 0
M  V30 5345 C 487.51 -2.95135 1.86269 0
M  V30 5346 C 488.858 -3.67842 2.12078 0
M  V30 5347 O 489.882 -3.0515 1.83745 0
M  V30 5348 O 488.741 -4.80644 2.60083 0
M  V30 5349 H 485.835 -0.743589 0.361946 0
M  V30 5350 H 488.381 -1.04555 1.33665 0
M  V30 5351 H 487.153 -2.66382 2.8663 0
M  V30 5352 H 486.776 -3.68645 1.48952 0
M  V30 5353 N 487.773 -1.03688 -1.18687 0
M  V30 5354 C 488.736 -0.629115 -2.20397 0
M  V30 5355 C 489.736 0.311495 -1.57754 0
M  V30 5356 O 490.926 0.0974107 -1.73927 0
M  V30 5357 C 488.058 0.0782231 -3.4081 0
M  V30 5358 H 489.251 -1.52915 -2.57987 0
M  V30 5359 H 486.804 -0.828988 -1.32505 0
M  V30 5360 H 487.539 0.992233 -3.08748 0
M  V30 5361 H 487.324 -0.597776 -3.87517 0
M  V30 5362 H 488.814 0.350156 -4.16129 0
M  V30 5363 N 489.251 1.34841 -0.815825 0
M  V30 5364 C 490.499 1.98107 -0.399744 0
M  V30 5365 C 490.82 1.65019 1.03894 0
M  V30 5366 O 490.09 0.937311 1.72021 0
M  V30 5367 H 488.67 0.732827 -0.144823 0
M  V30 5368 H 491.332 1.64599 -1.0437 0
M  V30 5369 H 490.428 3.07856 -0.512965 0
M  V30 5370 N 490.729 0.570148 1.46925 0
M  V30 5371 C 491.975 0.0510284 2.02736 0
M  V30 5372 C 492.308 -1.3006 1.44215 0
M  V30 5373 O 491.583 -1.84932 0.602521 0
M  V30 5374 C 491.866 -0.028215 3.60089 0
M  V30 5375 C 491.719 1.35142 4.29018 0
M  V30 5376 C 493.038 -0.735181 4.33916 0
M  V30 5377 H 490.157 0.0200178 0.736728 0
M  V30 5378 H 492.799 0.73493 1.75211 0
M  V30 5379 H 490.949 -0.610648 3.83671 0
M  V30 5380 H 492.621 1.97806 4.16738 0
M  V30 5381 H 490.864 1.9226 3.88868 0
M  V30 5382 H 491.535 1.24857 5.37694 0
M  V30 5383 H 494.011 -0.240519 4.15404 0
M  V30 5384 H 492.887 -0.759622 5.43618 0
M  V30 5385 H 493.148 -1.79397 4.04066 0
M  V30 5386 N 492.207 -1.54576 0.307264 0
M  V30 5387 C 493.447 -2.02172 -0.300962 0
M  V30 5388 C 493.811 -1.19081 -1.50611 0
M  V30 5389 O 495.012 -1.56405 -2.18612 0
M  V30 5390 C 493.283 -3.51576 -0.642591 0
M  V30 5391 S 494.842 -4.21127 -1.23279 0
M  V30 5392 H 491.66 -0.705021 -0.0920141 0
M  V30 5393 H 494.262 -1.90563 0.436594 0
M  V30 5394 H 492.966 -4.09681 0.242901 0
M  V30 5395 H 492.497 -3.67234 -1.41077 0
M  V30 5396 H 494.512 -4.27426 -2.52034 0
M  V30 5397 N 493.685 -0.035106 -1.57561 0
M  V30 5398 C 494.595 0.960295 -2.14046 0
M  V30 5399 C 495.611 1.3529 -1.0942 0
M  V30 5400 O 496.787 1.43309 -1.41508 0
M  V30 5401 C 493.852 2.22214 -2.66124 0
M  V30 5402 C 492.913 1.8894 -3.85487 0
M  V30 5403 C 492.146 3.09109 -4.35072 0
M  V30 5404 O 492.369 4.21963 -3.83802 0
M  V30 5405 O 491.303 2.91058 -5.26848 0
M  V30 5406 H 495.129 0.509983 -2.99387 0
M  V30 5407 H 492.714 0.185853 -1.48239 0
M  V30 5408 H 494.596 2.96279 -2.99661 0
M  V30 5409 H 493.271 2.66414 -1.83862 0
M  V30 5410 H 492.178 1.12241 -3.56865 0
M  V30 5411 H 493.511 1.49551 -4.6893 0
M  V30 5412 N 495.163 1.55791 0.238111 0
M  V30 5413 C 496.073 1.94196 1.31625 0
M  V30 5414 C 497.089 0.843545 1.52185 0
M  V30 5415 O 498.265 1.1457 1.65637 0
M  V30 5416 C 495.33 2.2365 2.64918 0
M  V30 5417 C 494.391 3.46971 2.52804 0
M  V30 5418 C 493.624 3.7501 3.79741 0
M  V30 5419 O 493.847 3.04982 4.82019 0
M  V30 5420 O 492.781 4.68525 3.77846 0
M  V30 5421 H 496.607 2.86044 1.02043 0
M  V30 5422 H 494.192 1.42786 0.439603 0
M  V30 5423 H 496.074 2.43863 3.4367 0
M  V30 5424 H 494.749 1.34979 2.94215 0
M  V30 5425 H 493.656 3.32055 1.72309 0
M  V30 5426 H 494.989 4.35971 2.28451 0
M  V30 5427 N 496.642 -0.504142 1.49319 0
M  V30 5428 C 497.575 -1.62361 1.60356 0
M  V30 5429 C 498.553 -1.56169 0.45277 0
M  V30 5430 O 499.737 -1.76271 0.667892 0
M  V30 5431 C 496.864 -3.00864 1.55559 0
M  V30 5432 C 495.91 -3.25328 2.75797 0
M  V30 5433 S 496.743 -3.08791 4.37503 0
M  V30 5434 C 497.899 -4.49695 4.35345 0
M  V30 5435 H 498.132 -1.52753 2.55056 0
M  V30 5436 H 495.665 -0.689065 1.38171 0
M  V30 5437 H 497.623 -3.8073 1.53477 0
M  V30 5438 H 496.284 -3.0789 0.621515 0
M  V30 5439 H 495.477 -4.2643 2.68651 0
M  V30 5440 H 495.079 -2.53179 2.75275 0
M  V30 5441 H 497.371 -5.41721 4.06871 0
M  V30 5442 H 498.314 -4.61891 5.36714 0
M  V30 5443 H 498.722 -4.30227 3.65465 0
M  V30 5444 N 498.12 -1.38341 -0.754957 0
M  V30 5445 C 499.348 -1.37704 -1.54419 0
M  V30 5446 C 499.763 0.0335243 -1.8877 0
M  V30 5447 O 499.12 0.999773 -1.52679 0
M  V30 5448 C 499.171 -2.23136 -2.84416 0
M  V30 5449 O 498.892 -3.58697 -2.51531 0
M  V30 5450 C 500.393 -2.30664 -3.78562 0
M  V30 5451 H 497.613 -0.471061 -0.477852 0
M  V30 5452 H 500.157 -1.81902 -0.934446 0
M  V30 5453 H 498.312 -1.82403 -3.41772 0
M  V30 5454 H 498.726 -4.03665 -3.34896 0
M  V30 5455 H 500.2 -2.9473 -4.66732 0
M  V30 5456 H 500.677 -1.3199 -4.18898 0
M  V30 5457 H 501.283 -2.71781 -3.27131 0
M  V30 5458 N 499.598 0.982988 -1.23187 0
M  V30 5459 C 500.828 1.75666 -1.08743 0
M  V30 5460 C 501.236 1.85662 0.364195 0
M  V30 5461 O 500.579 1.33317 1.26382 0
M  V30 5462 C 500.641 3.20144 -1.63549 0
M  V30 5463 C 500.305 3.33665 -3.12277 0
M  V30 5464 C 501.302 3.20194 -4.096 0
M  V30 5465 C 498.987 3.58397 -3.51933 0
M  V30 5466 C 500.981 3.31256 -5.44563 0
M  V30 5467 C 498.668 3.69098 -4.87042 0
M  V30 5468 C 499.666 3.55537 -5.83166 0
M  V30 5469 O 499.354 3.65864 -7.1582 0
M  V30 5470 H 499.086 0.558194 -0.381307 0
M  V30 5471 H 501.64 1.24387 -1.63454 0
M  V30 5472 H 499.87 3.72659 -1.03256 0
M  V30 5473 H 501.559 3.79262 -1.4462 0
M  V30 5474 H 502.325 3.00987 -3.80305 0
M  V30 5475 H 498.204 3.68025 -2.77631 0
M  V30 5476 H 501.748 3.20588 -6.19572 0
M  V30 5477 H 497.645 3.87814 -5.16014 0
M  V30 5478 H 498.413 3.82675 -7.23534 0
M  V30 5479 N 501.076 1.04316 1.18135 0
M  V30 5480 C 501.986 0.646876 2.25505 0
M  V30 5481 C 503.002 -0.328008 1.7088 0
M  V30 5482 O 504.178 -0.182309 2.00573 0
M  V30 5483 C 501.243 0.0185664 3.46695 0
M  V30 5484 C 500.304 1.04277 4.16443 0
M  V30 5485 C 499.537 0.444352 5.31847 0
M  V30 5486 O 499.76 -0.748735 5.65465 0
M  V30 5487 O 498.694 1.17428 5.90334 0
M  V30 5488 H 502.52 1.54147 2.61672 0
M  V30 5489 H 500.105 0.814188 1.25265 0
M  V30 5490 H 501.987 -0.331068 4.20097 0
M  V30 5491 H 500.662 -0.849814 3.12346 0
M  V30 5492 H 499.569 1.44425 3.45098 0
M  V30 5493 H 500.902 1.882 4.54798 0
M  V30 5494 N 502.554 -1.34406 0.822964 0
M  V30 5495 C 503.464 -2.33298 0.246838 0
M  V30 5496 C 504.48 -1.62625 -0.618797 0
M  V30 5497 O 505.656 -1.94391 -0.526685 0
M  V30 5498 C 502.721 -3.41785 -0.581731 0
M  V30 5499 C 501.782 -4.28206 0.306309 0
M  V30 5500 C 501.015 -5.31512 -0.48281 0
M  V30 5501 O 501.238 -5.43973 -1.71607 0
M  V30 5502 O 500.172 -6.01749 0.134884 0
M  V30 5503 H 503.998 -2.84401 1.06534 0
M  V30 5504 H 501.583 -1.37466 0.585108 0
M  V30 5505 H 503.465 -4.08028 -1.05313 0
M  V30 5506 H 502.14 -2.92925 -1.37756 0
M  V30 5507 H 501.047 -3.64885 0.825199 0
M  V30 5508 H 502.38 -4.80507 1.06649 0
M  V30 5509 N 504.032 -0.577932 -1.46621 0
M  V30 5510 C 505.281 -0.0594281 -2.01612 0
M  V30 5511 C 505.594 1.30663 -1.45556 0
M  V30 5512 O 506.8 1.91621 -1.92337 0
M  V30 5513 C 505.256 -0.0556666 -3.59857 0
M  V30 5514 C 504.864 -1.41975 -4.24908 0
M  V30 5515 C 506.608 0.409143 -4.22524 0
M  V30 5516 C 504.515 -1.37397 -5.75218 0
M  V30 5517 H 503.445 -0.0184469 -0.753774 0
M  V30 5518 H 506.096 -0.728869 -1.68404 0
M  V30 5519 H 504.478 0.679843 -3.90121 0
M  V30 5520 H 505.652 -2.17461 -4.0626 0
M  V30 5521 H 503.967 -1.82419 -3.74316 0
M  V30 5522 H 506.564 0.46211 -5.32699 0
M  V30 5523 H 506.907 1.42565 -3.91128 0
M  V30 5524 H 507.44 -0.272152 -3.96868 0
M  V30 5525 H 504.179 -2.36714 -6.11267 0
M  V30 5526 H 503.699 -0.661239 -5.96144 0
M  V30 5527 H 505.378 -1.08484 -6.3784 0
M  V30 5528 N 505.51 1.54411 -0.315457 0
M  V30 5529 C 506.442 2.21527 0.588067 0
M  V30 5530 C 507.455 1.21263 1.08624 0
M  V30 5531 O 508.644 1.47777 1.00121 0
M  V30 5532 C 505.744 2.85963 1.81875 0
M  V30 5533 C 504.917 4.12291 1.46063 0
M  V30 5534 C 503.976 4.60396 2.54799 0
M  V30 5535 O 503.002 5.25265 2.19283 0
M  V30 5536 N 504.204 4.33935 3.85591 0
M  V30 5537 H 506.969 2.99697 0.013414 0
M  V30 5538 H 504.53 1.61308 -0.138295 0
M  V30 5539 H 506.522 3.15071 2.53993 0
M  V30 5540 H 505.092 2.11548 2.30144 0
M  V30 5541 H 504.312 3.90036 0.571445 0
M  V30 5542 H 505.6 4.9452 1.19695 0
M  V30 5543 H 504.998 3.81996 4.17248 0
M  V30 5544 H 503.555 4.67718 4.53964 0
M  V30 5545 N 506.988 0.0434614 1.5754 0
M  V30 5546 C 507.898 -0.94893 2.14552 0
M  V30 5547 C 508.914 -1.34707 1.10136 0
M  V30 5548 O 510.09 -1.42557 1.42266 0
M  V30 5549 C 507.155 -2.208 2.67298 0
M  V30 5550 C 506.216 -1.86893 3.86484 0
M  V30 5551 C 505.449 -3.06797 4.36705 0
M  V30 5552 O 505.672 -4.19921 3.86034 0
M  V30 5553 O 504.606 -2.8826 5.28384 0
M  V30 5554 H 508.432 -0.494099 2.99654 0
M  V30 5555 H 506.017 -0.177989 1.48336 0
M  V30 5556 H 507.899 -2.94686 3.01228 0
M  V30 5557 H 506.574 -2.65436 1.85272 0
M  V30 5558 H 505.481 -1.10347 3.57455 0
M  V30 5559 H 506.814 -1.47062 4.69716 0
M  V30 5560 N 508.466 -1.55915 -0.229846 0
M  V30 5561 C 509.416 -1.8813 -1.28807 0
M  V30 5562 C 510.4 -0.743621 -1.42685 0
M  V30 5563 O 511.592 -1.00588 -1.4564 0
M  V30 5564 C 508.721 -2.19431 -2.64017 0
M  V30 5565 C 507.807 -3.39569 -2.54074 0
M  V30 5566 N 508.198 -4.58404 -2.13774 0
M  V30 5567 C 506.496 -3.43019 -2.85051 0
M  V30 5568 C 507.197 -5.40557 -2.1488 0
M  V30 5569 N 506.173 -4.80054 -2.55047 0
M  V30 5570 H 509.975 -2.77527 -0.967261 0
M  V30 5571 H 507.489 -1.5637 -0.438433 0
M  V30 5572 H 509.486 -2.40681 -3.40409 0
M  V30 5573 H 508.146 -1.31341 -2.9695 0
M  V30 5574 H 509.157 -4.83716 -1.8504 0
M  V30 5575 H 505.834 -2.65249 -3.22411 0
M  V30 5576 H 507.224 -6.45666 -1.85918 0
M  V30 5577 N 509.944 0.496216 -1.49584 0
M  V30 5578 C 511.174 1.27209 -1.62793 0
M  V30 5579 C 511.582 1.86799 -0.300476 0
M  V30 5580 O 510.925 1.68802 0.724674 0
M  V30 5581 C 510.987 2.43812 -2.64189 0
M  V30 5582 C 510.651 2.05055 -4.08414 0
M  V30 5583 C 511.648 1.58752 -4.9507 0
M  V30 5584 C 509.333 2.14543 -4.54177 0
M  V30 5585 C 511.327 1.22448 -6.25528 0
M  V30 5586 C 509.014 1.77851 -5.84647 0
M  V30 5587 C 510.012 1.31878 -6.70147 0
M  V30 5588 O 509.7 0.956834 -7.98185 0
M  V30 5589 H 509.432 0.391848 -0.550846 0
M  V30 5590 H 511.986 0.601712 -1.96389 0
M  V30 5591 H 510.216 3.13941 -2.25783 0
M  V30 5592 H 511.905 3.05829 -2.66877 0
M  V30 5593 H 512.671 1.50863 -4.60939 0
M  V30 5594 H 508.55 2.49277 -3.87791 0
M  V30 5595 H 512.094 0.864933 -6.92217 0
M  V30 5596 H 507.991 1.8539 -6.18305 0
M  V30 5597 H 508.759 1.08789 -8.11238 0
M  V30 5598 N 511.423 1.38739 0.74761 0
M  V30 5599 C 512.834 1.31507 1.32524 0
M  V30 5600 C 513.185 -0.0263963 1.96182 0
M  V30 5601 O 512.31 -0.92849 1.95469 0
M  V30 5602 C 512.905 2.38162 2.40966 0
M  V30 5603 C 511.464 2.34489 2.94434 0
M  V30 5604 C 510.611 2.20712 1.67873 0
M  V30 5605 H 513.562 1.4901 0.546043 0
M  V30 5606 H 513.583 2.04222 3.21051 0
M  V30 5607 H 513.095 3.35783 1.94605 0
M  V30 5608 H 511.196 1.40467 3.45108 0
M  V30 5609 H 511.309 3.28861 3.48407 0
M  V30 5610 H 509.673 1.67667 1.91729 0
M  V30 5611 H 510.456 3.20285 1.23582 0
M  V30 5612 N 512.901 -0.976442 1.23707 0
M  V30 5613 C 513.811 -2.10359 1.03856 0
M  V30 5614 C 514.827 -1.73991 -0.0180919 0
M  V30 5615 O 516.003 -2.0061 0.178211 0
M  V30 5616 C 513.068 -3.40809 0.636387 0
M  V30 5617 C 512.129 -3.91179 1.76854 0
M  V30 5618 C 511.362 -5.15404 1.38546 0
M  V30 5619 O 511.585 -5.69754 0.27142 0
M  V30 5620 O 510.519 -5.5994 2.20797 0
M  V30 5621 H 514.345 -2.29997 1.98331 0
M  V30 5622 H 511.93 -1.08742 1.02448 0
M  V30 5623 H 513.812 -4.19269 0.423223 0
M  V30 5624 H 512.487 -3.22493 -0.279322 0
M  V30 5625 H 511.394 -3.13819 2.03638 0
M  V30 5626 H 512.727 -4.13958 2.6627 0
M  V30 5627 N 514.379 -1.04941 -1.1758 0
M  V30 5628 C 515.289 -0.658826 -2.25159 0
M  V30 5629 C 516.305 0.318941 -1.71052 0
M  V30 5630 O 517.481 0.171669 -2.00667 0
M  V30 5631 C 514.546 -0.0369522 -3.4668 0
M  V30 5632 C 513.607 -1.06484 -4.15884 0
M  V30 5633 C 512.84 -0.472551 -5.31604 0
M  V30 5634 O 513.063 0.718736 -5.65854 0
M  V30 5635 O 511.997 -1.20557 -5.89703 0
M  V30 5636 H 515.823 -1.55533 -2.60851 0
M  V30 5637 H 513.408 -0.820819 -1.24832 0
M  V30 5638 H 515.29 0.308784 -4.20267 0
M  V30 5639 H 513.965 0.833238 -3.12792 0
M  V30 5640 H 512.872 -1.46253 -3.44327 0
M  V30 5641 H 514.205 -1.9061 -4.53794 0
M  V30 5642 N 515.857 1.33968 -0.830081 0
M  V30 5643 C 517.104 1.98063 -0.421566 0
M  V30 5644 C 517.432 1.65787 1.0171 0
M  V30 5645 O 516.687 0.925348 1.72441 0
M  V30 5646 C 516.986 3.52679 -0.57898 0
M  V30 5647 C 516.652 4.04884 -1.98443 0
M  V30 5648 C 515.314 4.18852 -2.36888 0
M  V30 5649 C 517.666 4.32879 -2.90285 0
M  V30 5650 C 514.994 4.58145 -3.66497 0
M  V30 5651 C 517.346 4.7362 -4.19364 0
M  V30 5652 C 516.01 4.85794 -4.57778 0
M  V30 5653 H 515.28 0.724765 -0.154262 0
M  V30 5654 H 517.927 1.59792 -1.05541 0
M  V30 5655 H 516.232 3.91556 0.138219 0
M  V30 5656 H 517.929 4.00261 -0.243317 0
M  V30 5657 H 514.519 3.9448 -1.67581 0
M  V30 5658 H 518.703 4.21619 -2.61823 0
M  V30 5659 H 513.959 4.65762 -3.96075 0
M  V30 5660 H 518.133 4.9424 -4.90612 0
M  V30 5661 H 515.76 5.15998 -5.58256 0
M  V30 5662 N 517.335 0.585699 1.46312 0
M  V30 5663 C 518.298 -0.135673 2.28798 0
M  V30 5664 C 519.298 -0.815988 1.38558 0
M  V30 5665 O 520.488 -0.667487 1.60904 0
M  V30 5666 C 517.62 -1.20163 3.1902 0
M  V30 5667 H 518.813 0.589257 2.94054 0
M  V30 5668 H 516.366 0.343794 1.52472 0
M  V30 5669 H 517.101 -1.95804 2.58517 0
M  V30 5670 H 516.886 -0.718282 3.85465 0
M  V30 5671 H 518.376 -1.70749 3.81096 0
M  V30 5672 N 518.813 -1.54241 0.323641 0
M  V30 5673 C 519.743 -2.27289 -0.534993 0
M  V30 5674 C 520.724 -1.28087 -1.11927 0
M  V30 5675 O 521.909 -1.56899 -1.14439 0
M  V30 5676 C 519.039 -3.03075 -1.69596 0
M  V30 5677 C 517.993 -4.09614 -1.24098 0
M  V30 5678 C 517.319 -4.73242 -2.4889 0
M  V30 5679 C 518.619 -5.21087 -0.355789 0
M  V30 5680 H 520.313 -2.99308 0.0743257 0
M  V30 5681 H 517.859 -1.43952 0.0371874 0
M  V30 5682 H 519.812 -3.52907 -2.30293 0
M  V30 5683 H 518.536 -2.28673 -2.33187 0
M  V30 5684 H 517.195 -3.60666 -0.656945 0
M  V30 5685 H 516.843 -3.95455 -3.10845 0
M  V30 5686 H 516.543 -5.45209 -2.19138 0
M  V30 5687 H 518.067 -5.25848 -3.10348 0
M  V30 5688 H 519.481 -5.66675 -0.869042 0
M  V30 5689 H 517.878 -5.9991 -0.151045 0
M  V30 5690 H 518.948 -4.81005 0.613339 0
M  V30 5691 N 520.291 -0.0518155 -1.57515 0
M  V30 5692 C 521.707 0.304735 -1.56664 0
M  V30 5693 C 521.907 1.71395 -1.05953 0
M  V30 5694 O 520.963 2.42123 -0.716414 0
M  V30 5695 C 522.276 0.132614 -3.00407 0
M  V30 5696 C 523.824 0.20367 -3.12337 0
M  V30 5697 C 524.299 0.0600706 -4.57961 0
M  V30 5698 N 525.79 0.116326 -4.63054 0
M  V30 5699 C 526.525 0.0293363 -5.73392 0
M  V30 5700 N 526.021 -0.110038 -6.92713 0
M  V30 5701 N 527.814 0.0849651 -5.62036 0
M  V30 5702 H 519.965 -0.973056 -1.888 0
M  V30 5703 H 522.228 -0.377781 -0.869474 0
M  V30 5704 H 521.934 -0.839019 -3.41546 0
M  V30 5705 H 521.808 0.893376 -3.66468 0
M  V30 5706 H 524.195 1.16578 -2.71097 0
M  V30 5707 H 524.276 -0.587857 -2.48954 0
M  V30 5708 H 523.92 -0.898715 -4.99886 0
M  V30 5709 H 523.85 0.87075 -5.19351 0
M  V30 5710 H 526.341 0.22327 -3.7724 0
M  V30 5711 H 526.654 -0.169104 -7.72615 0
M  V30 5712 H 524.999 -0.145132 -6.94848 0
M  V30 5713 H 528.19 0.192411 -4.67704 0
M  V30 5714 H 528.363 0.0137131 -6.47999 0
M  V30 5715 N 521.769 1.56035 0.221574 0
M  V30 5716 C 523.046 1.69837 0.970301 0
M  V30 5717 C 523.426 0.599065 2.02421 0
M  V30 5718 O 522.774 -0.393929 2.25079 0
M  V30 5719 C 522.984 3.11148 1.58076 0
M  V30 5720 C 524.332 3.70555 2.07302 0
M  V30 5721 O 525.356 3.14109 1.6797 0
M  V30 5722 O 524.215 4.69562 2.79596 0
M  V30 5723 H 521.309 0.691727 0.453257 0
M  V30 5724 H 523.855 1.68353 0.213358 0
M  V30 5725 H 522.627 3.82617 0.819759 0
M  V30 5726 H 522.25 3.16749 2.40324 0
M  V30 5727 N 523.247 -0.488276 1.49845 0
M  V30 5728 C 524.179 -1.60539 1.63584 0
M  V30 5729 C 525.192 -1.5434 0.517972 0
M  V30 5730 O 526.381 -1.60041 0.790516 0
M  V30 5731 C 523.481 -2.99374 1.58835 0
M  V30 5732 C 522.654 -3.30624 2.86368 0
M  V30 5733 C 521.713 -4.4893 2.74496 0
M  V30 5734 O 520.739 -4.50085 3.48443 0
M  V30 5735 N 521.941 -5.49591 1.86894 0
M  V30 5736 H 524.706 -1.49176 2.59936 0
M  V30 5737 H 522.267 -0.67639 1.47094 0
M  V30 5738 H 524.259 -3.76459 1.48529 0
M  V30 5739 H 522.829 -3.04595 0.702892 0
M  V30 5740 H 522.049 -2.42314 3.1093 0
M  V30 5741 H 523.337 -3.48305 3.70892 0
M  V30 5742 H 522.735 -5.51467 1.26097 0
M  V30 5743 H 521.292 -6.25728 1.82503 0
M  V30 5744 N 524.725 -1.39134 -0.740242 0
M  V30 5745 C 526.002 -1.26584 -1.49117 0
M  V30 5746 C 526.382 0.126902 -2.10718 0
M  V30 5747 O 525.73 1.13765 -1.98166 0
M  V30 5748 C 525.94 -2.38619 -2.54681 0
M  V30 5749 C 527.288 -2.77685 -3.21211 0
M  V30 5750 O 528.312 -2.38029 -2.64991 0
M  V30 5751 O 527.171 -3.46115 -4.22926 0
M  V30 5752 H 524.265 -0.495769 -0.661923 0
M  V30 5753 H 526.811 -1.50995 -0.774514 0
M  V30 5754 H 525.583 -3.3175 -2.07504 0
M  V30 5755 H 525.206 -2.15845 -3.33911 0
M  V30 5756 N 526.204 0.969867 -1.24223 0
M  V30 5757 C 527.151 2.06407 -1.0327 0
M  V30 5758 C 528.121 1.66014 0.0533 0
M  V30 5759 O 529.306 1.90533 -0.100896 0
M  V30 5760 C 526.446 3.3909 -0.641262 0
M  V30 5761 C 525.559 3.9269 -1.80051 0
M  V30 5762 C 524.694 5.13631 -1.35486 0
M  V30 5763 C 523.733 5.59423 -2.48419 0
M  V30 5764 N 522.87 6.71586 -2.04737 0
M  V30 5765 H 527.71 2.23663 -1.96923 0
M  V30 5766 H 525.247 1.09624 -0.980862 0
M  V30 5767 H 527.205 4.15323 -0.395351 0
M  V30 5768 H 525.835 3.21765 0.258269 0
M  V30 5769 H 524.887 3.13116 -2.16014 0
M  V30 5770 H 526.199 4.22636 -2.64916 0
M  V30 5771 H 525.353 5.97231 -1.0677 0
M  V30 5772 H 524.092 4.85364 -0.476722 0
M  V30 5773 H 523.097 4.74398 -2.77897 0
M  V30 5774 H 524.322 5.89705 -3.36786 0
M  V30 5775 H 522.268 6.45058 -1.19318 0
M  V30 5776 H 522.185 7.0097 -2.83156 0
M  V30 5777 H 523.453 7.58633 -1.79154 0
M  V30 5778 N 527.682 1.05563 1.17022 0
M  V30 5779 C 528.912 0.787307 1.91011 0
M  V30 5780 C 529.32 -0.661256 1.77268 0
M  V30 5781 O 528.663 -1.46379 1.10991 0
M  V30 5782 C 528.725 1.09313 3.42478 0
M  V30 5783 C 528.389 2.53863 3.80004 0
M  V30 5784 C 529.386 3.52081 3.82538 0
M  V30 5785 C 527.071 2.88969 4.10855 0
M  V30 5786 C 529.065 4.83449 4.15399 0
M  V30 5787 C 526.752 4.2054 4.43384 0
M  V30 5788 C 527.75 5.17589 4.45635 0
M  V30 5789 O 527.438 6.46799 4.77395 0
M  V30 5790 H 527.17 0.285463 0.61277 0
M  V30 5791 H 529.724 1.41051 1.49311 0
M  V30 5792 H 527.954 0.412833 3.8449 0
M  V30 5793 H 529.643 0.810224 3.97731 0
M  V30 5794 H 530.409 3.26299 3.58823 0
M  V30 5795 H 526.288 2.1409 4.08272 0
M  V30 5796 H 529.832 5.59194 4.1707 0
M  V30 5797 H 525.729 4.46083 4.66563 0
M  V30 5798 H 526.497 6.51677 4.95237 0
M  V30 5799 N 529.16 -1.33526 0.837174 0
M  V30 5800 C 530.576 -1.50727 0.524743 0
M  V30 5801 C 530.776 -1.77792 -0.948279 0
M  V30 5802 O 529.832 -1.83719 -1.73216 0
M  V30 5803 C 531.145 -2.66299 1.39661 0
M  V30 5804 C 532.693 -2.80183 1.39521 0
M  V30 5805 C 533.168 -3.98815 2.25189 0
M  V30 5806 N 534.659 -4.06047 2.2289 0
M  V30 5807 C 535.394 -4.97032 2.85915 0
M  V30 5808 N 534.89 -5.93143 3.57985 0
M  V30 5809 N 536.683 -4.90015 2.75394 0
M  V30 5810 H 528.834 -1.1422 1.79074 0
M  V30 5811 H 531.097 -0.561399 0.763894 0
M  V30 5812 H 530.803 -2.52974 2.4433 0
M  V30 5813 H 530.677 -3.61663 1.07145 0
M  V30 5814 H 533.064 -2.92942 0.356253 0
M  V30 5815 H 533.145 -1.85586 1.76044 0
M  V30 5816 H 532.789 -3.86817 3.29143 0
M  V30 5817 H 532.719 -4.92654 1.86009 0
M  V30 5818 H 535.21 -3.37262 1.70478 0
M  V30 5819 H 535.523 -6.59227 4.03286 0
M  V30 5820 H 533.868 -5.93223 3.62093 0
M  V30 5821 H 537.059 -4.13894 2.18654 0
M  V30 5822 H 537.232 -5.60724 3.24796 0
M  V30 5823 N 530.638 -0.59345 -1.46 0
M  V30 5824 C 531.868 -0.0889642 -2.06408 0
M  V30 5825 C 532.276 1.22597 -1.44106 0
M  V30 5826 O 531.619 1.75448 -0.544398 0
M  V30 5827 C 531.681 0.139902 -3.59228 0
M  V30 5828 C 531.345 -1.09107 -4.43784 0
M  V30 5829 C 532.342 -2.00577 -4.79651 0
M  V30 5830 C 530.027 -1.31593 -4.84756 0
M  V30 5831 C 532.021 -3.12873 -5.55328 0
M  V30 5832 C 529.708 -2.44192 -5.60191 0
M  V30 5833 C 530.706 -3.34661 -5.95392 0
M  V30 5834 O 530.394 -4.45302 -6.69299 0
M  V30 5835 H 530.126 -0.0594613 -0.67338 0
M  V30 5836 H 532.68 -0.817 -1.88452 0
M  V30 5837 H 530.91 0.922672 -3.75531 0
M  V30 5838 H 532.599 0.594228 -4.01527 0
M  V30 5839 H 533.365 -1.84425 -4.48567 0
M  V30 5840 H 529.244 -0.620801 -4.56801 0
M  V30 5841 H 532.788 -3.83511 -5.82722 0
M  V30 5842 H 528.685 -2.60303 -5.90688 0
M  V30 5843 H 529.453 -4.43805 -6.87735 0
M  V30 5844 N 532.116 1.54067 -0.331816 0
M  V30 5845 C 533.532 1.59587 0.0205388 0
M  V30 5846 C 533.732 1.34813 1.49759 0
M  V30 5847 O 532.788 1.13661 2.25471 0
M  V30 5848 C 534.101 2.97959 -0.405103 0
M  V30 5849 C 535.649 3.10964 -0.356454 0
M  V30 5850 C 536.124 4.51694 -0.757384 0
M  V30 5851 N 537.615 4.57709 -0.71111 0
M  V30 5852 C 538.35 5.64729 -0.993427 0
M  V30 5853 N 537.846 6.79652 -1.3433 0
M  V30 5854 N 539.639 5.54546 -0.918442 0
M  V30 5855 H 531.79 1.68426 -1.29407 0
M  V30 5856 H 534.053 0.78819 -0.526745 0
M  V30 5857 H 533.759 3.21115 -1.43451 0
M  V30 5858 H 533.633 3.76524 0.225692 0
M  V30 5859 H 536.02 2.87538 0.663763 0
M  V30 5860 H 536.101 2.34484 -1.02229 0
M  V30 5861 H 535.745 4.75853 -1.77555 0
M  V30 5862 H 535.675 5.26555 -0.0691444 0
M  V30 5863 H 538.166 3.75176 -0.452883 0
M  V30 5864 H 538.479 7.57221 -1.54388 0
M  V30 5865 H 536.824 6.81128 -1.38164 0
M  V30 5866 H 540.015 4.63641 -0.644536 0
M  V30 5867 H 540.188 6.37861 -1.14181 0
M  V30 5868 N 533.594 0.0601682 1.57485 0
M  V30 5869 C 534.824 -0.620037 1.97076 0
M  V30 5870 C 535.232 -1.64381 0.936784 0
M  V30 5871 O 534.575 -1.83497 -0.0863377 0
M  V30 5872 C 534.637 -1.35617 3.32939 0
M  V30 5873 C 534.301 -0.487208 4.54396 0
M  V30 5874 C 535.298 0.250428 5.19297 0
M  V30 5875 C 532.983 -0.415494 5.00579 0
M  V30 5876 C 534.977 1.04812 6.28723 0
M  V30 5877 C 532.664 0.385879 6.0988 0
M  V30 5878 C 533.662 1.11637 6.73815 0
M  V30 5879 O 533.35 1.90454 7.81014 0
M  V30 5880 H 533.082 -0.173664 0.653312 0
M  V30 5881 H 535.636 0.1256 2.05016 0
M  V30 5882 H 533.866 -2.14763 3.2158 0
M  V30 5883 H 535.555 -1.92749 3.57215 0
M  V30 5884 H 536.321 0.204546 4.84568 0
M  V30 5885 H 532.2 -0.973679 4.506 0
M  V30 5886 H 535.744 1.6188 6.78558 0
M  V30 5887 H 531.641 0.433366 6.44044 0
M  V30 5888 H 532.409 1.82762 7.97835 0
M  V30 5889 N 535.072 -1.5615 -0.213296 0
M  V30 5890 C 536.483 -1.69645 -0.779582 0
M  V30 5891 C 536.834 -0.663615 -1.84636 0
M  V30 5892 O 535.959 0.183633 -2.15619 0
M  V30 5893 C 536.554 -3.07567 -1.42084 0
M  V30 5894 C 535.113 -3.22889 -1.93442 0
M  V30 5895 C 534.26 -2.65581 -0.797612 0
M  V30 5896 H 537.211 -1.58696 0.0114951 0
M  V30 5897 H 537.232 -3.03884 -2.28986 0
M  V30 5898 H 536.744 -3.82716 -0.644187 0
M  V30 5899 H 534.845 -2.52623 -2.73884 0
M  V30 5900 H 534.958 -4.30197 -2.10872 0
M  V30 5901 H 533.322 -2.24278 -1.20712 0
M  V30 5902 H 534.105 -3.43284 -0.033494 0
M  V30 5903 N 536.55 0.480323 -1.50102 0
M  V30 5904 C 537.497 1.57946 -1.6829 0
M  V30 5905 C 538.467 1.57611 -0.524223 0
M  V30 5906 O 539.652 1.75282 -0.753709 0
M  V30 5907 C 536.792 2.95978 -1.77457 0
M  V30 5908 C 535.905 3.06173 -3.04766 0
M  V30 5909 C 535.04 4.35063 -3.04784 0
M  V30 5910 C 534.079 4.38966 -4.26586 0
M  V30 5911 N 533.216 5.59314 -4.24396 0
M  V30 5912 H 538.056 1.41743 -2.62131 0
M  V30 5913 H 535.593 0.689304 -1.2995 0
M  V30 5914 H 537.551 3.76011 -1.80752 0
M  V30 5915 H 536.181 3.10837 -0.870637 0
M  V30 5916 H 535.233 2.19071 -3.10986 0
M  V30 5917 H 536.545 3.04916 -3.9475 0
M  V30 5918 H 535.699 5.23436 -3.06757 0
M  V30 5919 H 534.438 4.38915 -2.12614 0
M  V30 5920 H 533.443 3.48992 -4.24835 0
M  V30 5921 H 534.668 4.36813 -5.19972 0
M  V30 5922 H 532.614 5.63969 -3.35074 0
M  V30 5923 H 532.531 5.5976 -5.08138 0
M  V30 5924 H 533.799 6.49837 -4.30502 0
M  V30 5925 N 538.028 1.39524 0.732853 0
M  V30 5926 C 539.276 1.36594 1.48951 0
M  V30 5927 C 539.597 -0.0367507 1.94965 0
M  V30 5928 O 538.867 -0.988391 1.69138 0
M  V30 5929 H 537.447 0.502673 0.552566 0
M  V30 5930 H 540.109 1.74411 0.869869 0
M  V30 5931 H 539.205 2.03 2.3706 0
M  V30 5932 N 539.506 -0.963266 1.24736 0
M  V30 5933 C 540.416 -2.09246 1.06082 0
M  V30 5934 C 541.432 -1.74 0.000363101 0
M  V30 5935 O 542.608 -2.0041 0.199479 0
M  V30 5936 C 539.673 -3.40115 0.672498 0
M  V30 5937 C 538.734 -3.89282 1.80993 0
M  V30 5938 C 537.967 -5.13905 1.44004 0
M  V30 5939 O 538.19 -5.69434 0.331835 0
M  V30 5940 O 537.124 -5.57566 2.26723 0
M  V30 5941 H 540.95 -2.27881 2.00759 0
M  V30 5942 H 538.535 -1.07649 1.03595 0
M  V30 5943 H 540.417 -4.18797 0.467668 0
M  V30 5944 H 539.092 -3.22771 -0.245102 0
M  V30 5945 H 537.999 -3.11642 2.06955 0
M  V30 5946 H 539.332 -4.1111 2.70646 0
M  V30 5947 N 540.985 -1.06182 -1.16461 0
M  V30 5948 C 542.21 -0.798599 -1.91408 0
M  V30 5949 C 542.635 0.640987 -1.76842 0
M  V30 5950 O 541.993 1.44652 -1.09296 0
M  V30 5951 C 542.041 -1.19665 -3.40165 0
M  V30 5952 O 541.145 -0.334768 -4.11039 0
M  V30 5953 H 540.486 -0.291961 -0.596368 0
M  V30 5954 H 543.016 -1.41732 -1.47557 0
M  V30 5955 H 543.026 -1.16772 -3.90933 0
M  V30 5956 H 541.701 -2.24526 -3.50087 0
M  V30 5957 H 540.278 -0.425168 -3.70468 0
M  V30 5958 N 542.463 1.3308 -0.844243 0
M  V30 5959 C 543.693 2.01515 -0.455541 0
M  V30 5960 C 544.101 1.63655 0.949406 0
M  V30 5961 O 543.444 0.84848 1.62931 0
M  V30 5962 C 543.506 3.55967 -0.502801 0
M  V30 5963 C 543.17 4.17222 -1.86481 0
M  V30 5964 C 544.167 4.36205 -2.8288 0
M  V30 5965 C 541.852 4.53528 -2.15911 0
M  V30 5966 C 543.846 4.90649 -4.06869 0
M  V30 5967 C 541.533 5.07679 -3.40155 0
M  V30 5968 C 542.531 5.26186 -4.35451 0
M  V30 5969 O 542.219 5.79183 -5.57496 0
M  V30 5970 H 541.951 0.65199 -0.178565 0
M  V30 5971 H 544.505 1.70867 -1.1399 0
M  V30 5972 H 542.735 3.85965 0.23836 0
M  V30 5973 H 544.424 4.05688 -0.131169 0
M  V30 5974 H 545.19 4.085 -2.61444 0
M  V30 5975 H 541.069 4.38414 -1.42528 0
M  V30 5976 H 544.613 5.0501 -4.81259 0
M  V30 5977 H 540.51 5.34815 -3.61446 0
M  V30 5978 H 541.278 5.97591 -5.5931 0
M  V30 5979 N 543.941 0.601185 1.45683 0
M  V30 5980 C 544.851 -0.123395 2.34275 0
M  V30 5981 C 545.867 -0.86702 1.5086 0
M  V30 5982 O 547.043 -0.826049 1.8368 0
M  V30 5983 C 544.108 -1.11237 3.2837 0
M  V30 5984 C 543.169 -0.371405 4.2769 0
M  V30 5985 C 542.402 -1.31327 5.1729 0
M  V30 5986 O 542.625 -2.55078 5.10188 0
M  V30 5987 O 541.559 -0.813811 5.96373 0
M  V30 5988 H 545.385 0.604483 2.97623 0
M  V30 5989 H 542.97 0.361477 1.44961 0
M  V30 5990 H 544.852 -1.68214 3.8637 0
M  V30 5991 H 543.527 -1.82139 2.67595 0
M  V30 5992 H 542.434 0.24067 3.73325 0
M  V30 5993 H 543.767 0.296998 4.91303 0
M  V30 5994 N 545.419 -1.53889 0.339982 0
M  V30 5995 C 546.696 -1.93084 -0.312719 0
M  V30 5996 C 547.076 -1.2712 -1.68534 0
M  V30 5997 O 546.424 -0.420835 -2.24591 0
M  V30 5998 C 546.634 -3.4683 -0.388558 0
M  V30 5999 C 547.982 -4.19732 -0.641088 0
M  V30 6000 O 549.006 -3.53075 -0.470818 0
M  V30 6001 O 547.865 -5.3781 -0.970685 0
M  V30 6002 H 544.959 -0.806784 -0.18174 0
M  V30 6003 H 547.505 -1.65137 0.390898 0
M  V30 6004 H 546.277 -3.87055 0.574821 0
M  V30 6005 H 545.9 -3.80933 -1.1391 0
M  V30 6006 N 546.897 -0.0685191 -1.57451 0
M  V30 6007 C 547.827 0.89747 -2.15564 0
M  V30 6008 C 548.808 1.31266 -1.08181 0
M  V30 6009 O 549.993 1.38429 -1.36202 0
M  V30 6010 C 547.123 2.16623 -2.71463 0
M  V30 6011 C 546.077 1.89054 -3.83982 0
M  V30 6012 C 545.403 3.22532 -4.26471 0
M  V30 6013 C 546.703 1.1984 -5.08366 0
M  V30 6014 H 548.397 0.413373 -2.96533 0
M  V30 6015 H 545.943 0.197391 -1.42641 0
M  V30 6016 H 547.896 2.84614 -3.10761 0
M  V30 6017 H 546.62 2.67269 -1.8771 0
M  V30 6018 H 545.279 1.23469 -3.45183 0
M  V30 6019 H 544.927 3.71013 -3.39644 0
M  V30 6020 H 544.627 3.04879 -5.02317 0
M  V30 6021 H 546.151 3.91727 -4.68383 0
M  V30 6022 H 547.565 1.77896 -5.45001 0
M  V30 6023 H 545.962 1.12456 -5.89469 0
M  V30 6024 H 547.032 0.176996 -4.84577 0
M  V30 6025 N 548.375 1.56261 0.205012 0
M  V30 6026 C 549.621 1.80306 0.9283 0
M  V30 6027 C 549.954 0.640932 1.83319 0
M  V30 6028 O 549.229 -0.359032 1.91158 0
M  V30 6029 C 549.512 3.14547 1.75306 0
M  V30 6030 C 549.365 4.41236 0.873562 0
M  V30 6031 C 550.684 3.45382 2.72762 0
M  V30 6032 H 547.803 0.655929 0.336044 0
M  V30 6033 H 550.445 1.88984 0.196211 0
M  V30 6034 H 548.595 3.0728 2.37721 0
M  V30 6035 H 550.267 4.60539 0.264887 0
M  V30 6036 H 548.51 4.33427 0.179773 0
M  V30 6037 H 549.181 5.31639 1.48541 0
M  V30 6038 H 551.657 3.52884 2.20481 0
M  V30 6039 H 550.533 4.40449 3.2756 0
M  V30 6040 H 550.794 2.68377 3.51321 0
M  V30 6041 N 549.853 -0.472356 1.50355 0
M  V30 6042 C 550.785 -1.58795 1.65278 0
M  V30 6043 C 551.798 -1.53782 0.534313 0
M  V30 6044 O 552.987 -1.59193 0.807446 0
M  V30 6045 C 550.087 -2.97672 1.62001 0
M  V30 6046 C 549.26 -3.27568 2.89859 0
M  V30 6047 C 548.319 -4.45993 2.79242 0
M  V30 6048 O 547.345 -4.46364 3.53197 0
M  V30 6049 N 548.547 -5.47578 1.92713 0
M  V30 6050 H 551.312 -1.46411 2.61503 0
M  V30 6051 H 548.873 -0.660751 1.47803 0
M  V30 6052 H 550.865 -3.74862 1.52513 0
M  V30 6053 H 549.435 -3.03832 0.735159 0
M  V30 6054 H 548.655 -2.39003 3.13483 0
M  V30 6055 H 549.943 -3.44352 3.74565 0
M  V30 6056 H 549.341 -5.50099 1.31939 0
M  V30 6057 H 547.898 -6.23757 1.8913 0
M  V30 6058 N 551.331 -1.39911 -0.725443 0
M  V30 6059 C 552.747 -1.21725 -1.03224 0
M  V30 6060 C 552.947 -0.0855224 -2.01318 0
M  V30 6061 O 552.003 0.55976 -2.46217 0
M  V30 6062 C 553.316 -2.55511 -1.58539 0
M  V30 6063 C 554.864 -2.62439 -1.70572 0
M  V30 6064 C 555.339 -3.9647 -2.29294 0
M  V30 6065 N 556.83 -3.98159 -2.36692 0
M  V30 6066 C 557.565 -4.98647 -2.83088 0
M  V30 6067 N 557.061 -6.0953 -3.2931 0
M  V30 6068 N 558.854 -4.8602 -2.82384 0
M  V30 6069 H 551.005 -2.12267 -0.075048 0
M  V30 6070 H 553.268 -0.943136 -0.0959066 0
M  V30 6071 H 552.974 -3.38926 -0.939249 0
M  V30 6072 H 552.848 -2.75905 -2.57208 0
M  V30 6073 H 555.235 -1.79401 -2.34306 0
M  V30 6074 H 555.316 -2.45885 -0.705297 0
M  V30 6075 H 554.96 -4.79942 -1.66186 0
M  V30 6076 H 554.89 -4.10349 -3.30032 0
M  V30 6077 H 557.381 -3.18085 -2.04035 0
M  V30 6078 H 557.694 -6.82106 -3.6325 0
M  V30 6079 H 556.039 -6.1311 -3.27294 0
M  V30 6080 H 559.23 -3.98493 -2.45603 0
M  V30 6081 H 559.403 -5.64478 -3.18226 0
M  V30 6082 N 552.809 0.956637 -1.25245 0
M  V30 6083 C 553.739 2.07058 -1.07931 0
M  V30 6084 C 554.72 1.70096 0.0110361 0
M  V30 6085 O 555.905 1.93555 -0.158121 0
M  V30 6086 C 553.035 3.40272 -0.695124 0
M  V30 6087 C 551.989 3.91235 -1.73549 0
M  V30 6088 C 551.315 5.20921 -1.20604 0
M  V30 6089 C 552.615 4.17837 -3.13385 0
M  V30 6090 H 554.309 2.218 -2.01109 0
M  V30 6091 H 551.855 1.06581 -0.968326 0
M  V30 6092 H 553.808 4.1765 -0.560949 0
M  V30 6093 H 552.532 3.25462 0.272355 0
M  V30 6094 H 551.191 3.16025 -1.85807 0
M  V30 6095 H 550.839 5.02479 -0.228846 0
M  V30 6096 H 550.539 5.55987 -1.90136 0
M  V30 6097 H 552.063 6.00897 -1.08421 0
M  V30 6098 H 553.477 4.8588 -3.04292 0
M  V30 6099 H 551.874 4.64154 -3.80369 0
M  V30 6100 H 552.944 3.2419 -3.60595 0
M  V30 6101 N 554.287 1.06798 1.15896 0
M  V30 6102 C 555.197 0.694564 2.24083 0
M  V30 6103 C 556.213 -0.291687 1.71538 0
M  V30 6104 O 557.389 -0.139723 2.00915 0
M  V30 6105 C 554.454 0.0921014 3.46578 0
M  V30 6106 C 553.515 1.13087 4.14137 0
M  V30 6107 C 552.748 0.557064 5.30785 0
M  V30 6108 O 552.971 -0.628623 5.66925 0
M  V30 6109 O 551.905 1.29924 5.8771 0
M  V30 6110 H 555.731 1.59663 2.58344 0
M  V30 6111 H 553.316 0.840575 1.2351 0
M  V30 6112 H 555.198 -0.241884 4.20705 0
M  V30 6113 H 553.873 -0.78337 3.14078 0
M  V30 6114 H 552.78 1.51712 3.41957 0
M  V30 6115 H 554.113 1.97805 4.50704 0
M  V30 6116 N 555.766 -1.3263 0.851289 0
M  V30 6117 C 557.177 -1.79653 0.5081 0
M  V30 6118 C 557.528 -1.70327 -0.973815 0
M  V30 6119 O 556.653 -1.25986 -1.75944 0
M  V30 6120 C 557.248 -3.26196 0.915515 0
M  V30 6121 C 555.807 -3.71187 0.624277 0
M  V30 6122 C 554.954 -2.53804 1.11709 0
M  V30 6123 H 557.905 -1.19976 1.03882 0
M  V30 6124 H 557.926 -3.79801 0.230535 0
M  V30 6125 H 557.438 -3.32952 1.99411 0
M  V30 6126 H 555.539 -3.69948 -0.443737 0
M  V30 6127 H 555.652 -4.64132 1.18821 0
M  V30 6128 H 554.016 -2.48964 0.537484 0
M  V30 6129 H 554.799 -2.63315 2.20272 0
M  V30 6130 N 557.244 -0.608902 -1.45362 0
M  V30 6131 C 558.49 -0.104762 -2.02529 0
M  V30 6132 C 558.823 1.26191 -1.47613 0
M  V30 6133 O 558.098 1.8327 -0.65134 0
M  V30 6134 C 558.381 -0.0672661 -3.60037 0
M  V30 6135 C 558.234 -1.4647 -4.25284 0
M  V30 6136 C 559.553 0.619877 -4.35713 0
M  V30 6137 H 556.672 -0.0395438 -0.735938 0
M  V30 6138 H 559.314 -0.781126 -1.73201 0
M  V30 6139 H 557.464 0.50871 -3.85155 0
M  V30 6140 H 559.136 -2.08785 -4.11347 0
M  V30 6141 H 557.379 -2.02502 -3.83634 0
M  V30 6142 H 558.05 -1.39069 -5.34195 0
M  V30 6143 H 560.526 0.130297 -4.15896 0
M  V30 6144 H 559.402 0.615224 -5.45441 0
M  V30 6145 H 559.663 1.68621 -4.0868 0
M  V30 6146 N 558.722 1.53707 -0.348139 0
M  V30 6147 C 559.971 2.0017 0.247992 0
M  V30 6148 C 560.284 1.23983 1.51286 0
M  V30 6149 O 561.49 1.60946 2.18652 0
M  V30 6150 C 559.946 3.56515 0.492459 0
M  V30 6151 C 559.554 4.41562 -0.756777 0
M  V30 6152 C 561.298 4.11381 1.0472 0
M  V30 6153 C 559.205 5.89426 -0.482856 0
M  V30 6154 H 558.135 0.747806 0.0964452 0
M  V30 6155 H 560.786 1.77532 -0.464179 0
M  V30 6156 H 559.168 3.75236 1.26545 0
M  V30 6157 H 560.342 4.34615 -1.53122 0
M  V30 6158 H 558.657 3.97711 -1.23348 0
M  V30 6159 H 561.254 5.19468 1.26717 0
M  V30 6160 H 561.597 3.64885 2.00411 0
M  V30 6161 H 562.13 3.96389 0.334801 0
M  V30 6162 H 558.869 6.40164 -1.40962 0
M  V30 6163 H 558.389 5.99264 0.253416 0
M  V30 6164 H 560.068 6.4692 -0.101816 0
M  V30 6165 N 560.2 0.0768682 1.57412 0
M  V30 6166 C 561.133 -0.924685 2.08626 0
M  V30 6167 C 562.111 -1.28792 0.992542 0
M  V30 6168 O 563.295 -1.39634 1.26628 0
M  V30 6169 C 560.422 -2.23131 2.54814 0
M  V30 6170 C 559.468 -2.01928 3.75669 0
M  V30 6171 S 560.301 -1.27397 5.20125 0
M  V30 6172 C 561.457 -2.59329 5.69648 0
M  V30 6173 H 561.69 -0.488928 2.93252 0
M  V30 6174 H 559.223 -0.136014 1.538 0
M  V30 6175 H 561.181 -2.98226 2.82084 0
M  V30 6176 H 559.842 -2.63831 1.70447 0
M  V30 6177 H 559.035 -2.98639 4.05993 0
M  V30 6178 H 558.637 -1.34967 3.48798 0
M  V30 6179 H 560.929 -3.55394 5.76803 0
M  V30 6180 H 561.872 -2.33608 6.68456 0
M  V30 6181 H 562.28 -2.66767 4.9749 0
M  V30 6182 N 561.678 -1.56367 -0.196722 0
M  V30 6183 C 562.588 -1.97617 -1.2643 0
M  V30 6184 C 563.604 -0.883598 -1.49895 0
M  V30 6185 O 564.78 -1.18921 -1.62541 0
M  V30 6186 C 561.845 -2.30595 -2.58895 0
M  V30 6187 C 560.906 -3.53551 -2.43516 0
M  V30 6188 C 560.139 -3.84946 -3.69665 0
M  V30 6189 O 560.362 -3.17655 -4.73763 0
M  V30 6190 O 559.296 -4.78379 -3.65291 0
M  V30 6191 H 563.122 -2.88648 -0.944233 0
M  V30 6192 H 560.707 -1.43901 -0.401592 0
M  V30 6193 H 562.589 -2.52889 -3.37083 0
M  V30 6194 H 561.264 -1.42732 -2.90533 0
M  V30 6195 H 560.171 -3.36507 -1.63445 0
M  V30 6196 H 561.504 -4.41875 -2.16812 0
M  V30 6197 N 563.156 0.464375 -1.50603 0
M  V30 6198 C 564.086 1.56944 -1.72889 0
M  V30 6199 C 565.067 1.59979 -0.577997 0
M  V30 6200 O 566.252 1.76138 -0.817855 0
M  V30 6201 C 563.382 2.95225 -1.8292 0
M  V30 6202 C 562.336 3.07056 -2.98162 0
M  V30 6203 C 561.662 4.47051 -2.93343 0
M  V30 6204 C 562.962 2.83648 -4.38567 0
M  V30 6205 H 564.656 1.38547 -2.65415 0
M  V30 6206 H 562.202 0.665082 -1.27721 0
M  V30 6207 H 564.155 3.72467 -1.97095 0
M  V30 6208 H 562.879 3.14793 -0.870209 0
M  V30 6209 H 561.538 2.32248 -2.83648 0
M  V30 6210 H 561.186 4.63547 -1.95276 0
M  V30 6211 H 560.886 4.55902 -3.70712 0
M  V30 6212 H 562.41 5.26304 -3.09575 0
M  V30 6213 H 563.824 3.50636 -4.53572 0
M  V30 6214 H 562.221 3.03937 -5.17438 0
M  V30 6215 H 563.291 1.79451 -4.50472 0
M  V30 6216 N 564.634 1.40294 0.718013 0
M  V30 6217 C 565.544 1.42678 1.86226 0
M  V30 6218 C 566.56 0.319655 1.71039 0
M  V30 6219 O 567.736 0.563852 1.93346 0
M  V30 6220 C 564.801 1.2852 3.21999 0
M  V30 6221 C 563.862 2.49354 3.49458 0
M  V30 6222 C 563.095 2.35863 4.78753 0
M  V30 6223 O 563.318 1.37114 5.53675 0
M  V30 6224 O 562.252 3.25189 5.06494 0
M  V30 6225 H 566.078 2.39167 1.87171 0
M  V30 6226 H 563.663 1.2159 0.868112 0
M  V30 6227 H 565.545 1.22824 4.03103 0
M  V30 6228 H 564.22 0.351359 3.21787 0
M  V30 6229 H 563.127 2.60628 2.68373 0
M  V30 6230 H 564.46 3.41491 3.54464 0
M  V30 6231 N 566.112 -0.949982 1.2575 0
M  V30 6232 C 567.528 -1.22191 1.02672 0
M  V30 6233 C 567.728 -1.99898 -0.253588 0
M  V30 6234 O 566.784 -2.33329 -0.965076 0
M  V30 6235 C 568.097 -1.99175 2.25277 0
M  V30 6236 C 569.645 -2.12201 2.30087 0
M  V30 6237 C 570.12 -2.92586 3.5236 0
M  V30 6238 N 571.611 -3.00163 3.52784 0
M  V30 6239 C 572.346 -3.62766 4.44059 0
M  V30 6240 N 571.842 -4.26943 5.45611 0
M  V30 6241 N 573.635 -3.59953 4.3173 0
M  V30 6242 H 565.786 -0.430258 2.07996 0
M  V30 6243 H 568.049 -0.252844 0.91366 0
M  V30 6244 H 567.755 -1.49479 3.18354 0
M  V30 6245 H 567.629 -2.99868 2.28821 0
M  V30 6246 H 570.016 -2.61093 1.3753 0
M  V30 6247 H 570.097 -1.10799 2.30559 0
M  V30 6248 H 569.741 -2.44383 4.45241 0
M  V30 6249 H 569.671 -3.94224 3.49134 0
M  V30 6250 H 572.162 -2.54529 2.79327 0
M  V30 6251 H 572.475 -4.72583 6.11461 0
M  V30 6252 H 570.82 -4.25557 5.49478 0
M  V30 6253 H 574.011 -3.09003 3.51617 0
M  V30 6254 H 574.184 -4.08455 5.03059 0
M  V30 6255 N 567.59 -1.07411 -1.15328 0
M  V30 6256 C 568.522 -0.652924 -2.19703 0
M  V30 6257 C 569.535 0.294869 -1.60107 0
M  V30 6258 O 570.724 0.0840932 -1.78302 0
M  V30 6259 C 567.824 0.061434 -3.38844 0
M  V30 6260 C 566.997 -0.902696 -4.27984 0
M  V30 6261 C 566.056 -0.225521 -5.25717 0
M  V30 6262 O 565.082 -0.86676 -5.62562 0
M  V30 6263 N 566.284 1.02858 -5.71315 0
M  V30 6264 H 569.049 -1.55081 -2.56457 0
M  V30 6265 H 566.61 -0.958883 -1.30449 0
M  V30 6266 H 568.602 0.525145 -4.01278 0
M  V30 6267 H 567.172 0.861269 -3.00501 0
M  V30 6268 H 566.392 -1.54551 -3.6264 0
M  V30 6269 H 567.68 -1.55636 -4.84412 0
M  V30 6270 H 567.078 1.56948 -5.43492 0
M  V30 6271 H 565.635 1.43596 -6.35786 0
M  V30 6272 N 569.068 1.32177 -0.85831 0
M  V30 6273 C 569.978 2.32561 -0.308606 0
M  V30 6274 C 570.994 1.64209 0.575462 0
M  V30 6275 O 572.17 1.95719 0.474961 0
M  V30 6276 C 569.235 3.43207 0.490909 0
M  V30 6277 C 568.296 4.27243 -0.419733 0
M  V30 6278 C 567.529 5.32605 0.341719 0
M  V30 6279 O 567.752 5.48332 1.57125 0
M  V30 6280 O 566.686 6.0118 -0.294379 0
M  V30 6281 H 570.512 2.81477 -1.14037 0
M  V30 6282 H 568.097 1.35866 -0.621349 0
M  V30 6283 H 569.979 4.10677 0.944574 0
M  V30 6284 H 568.654 2.96474 1.29941 0
M  V30 6285 H 567.561 3.62569 -0.921652 0
M  V30 6286 H 568.894 4.7751 -1.19352 0
M  V30 6287 N 570.547 0.616602 1.45037 0
M  V30 6288 C 571.495 -0.109318 2.32343 0
M  V30 6289 C 572.489 -0.850543 1.465 0
M  V30 6290 O 573.695 -0.765088 1.62931 0
M  V30 6291 H 570.07 -0.0541091 0.750051 0
M  V30 6292 H 572.041 0.645326 2.91338 0
M  V30 6293 C 570.79 -1.0872 3.30266 0
M  V30 6294 H 570.113 -0.526267 3.96321 0
M  V30 6295 H 571.553 -1.56489 3.94065 0
M  V30 6296 C 570.012 -2.16525 2.58105 0
M  V30 6297 O 570.542 -3.244 2.36913 0
M  V30 6298 N 568.748 -1.92057 2.18088 0
M  V30 6299 H 568.295 -1.04337 2.35524 0
M  V30 6300 H 568.253 -2.64391 1.70131 0
M  V30 6301 N 572.025 -1.5352 0.356285 0
M  V30 6302 C 573.271 -2.01414 -0.236653 0
M  V30 6303 C 573.604 -1.24339 -1.49176 0
M  V30 6304 O 572.879 -0.334496 -1.91602 0
M  V30 6305 C 573.162 -3.56059 -0.537982 0
M  V30 6306 C 573.015 -4.43835 0.730112 0
M  V30 6307 C 574.334 -4.19127 -1.34239 0
M  V30 6308 H 571.453 -0.732135 -0.0845386 0
M  V30 6309 H 574.095 -1.83854 0.479341 0
M  V30 6310 H 572.245 -3.71153 -1.14795 0
M  V30 6311 H 573.917 -4.40555 1.36782 0
M  V30 6312 H 572.16 -4.1218 1.3524 0
M  V30 6313 H 572.831 -5.49958 0.474358 0
M  V30 6314 H 575.307 -4.07809 -0.826498 0
M  V30 6315 H 574.183 -5.27378 -1.52198 0
M  V30 6316 H 574.444 -3.74581 -2.34822 0
M  V30 6317 N 573.503 -0.0852151 -1.57369 0
M  V30 6318 C 574.433 0.874556 -2.16503 0
M  V30 6319 C 575.414 1.30111 -1.09568 0
M  V30 6320 O 576.599 1.36977 -1.37662 0
M  V30 6321 C 573.729 2.13731 -2.73745 0
M  V30 6322 C 572.683 1.84971 -3.85966 0
M  V30 6323 C 572.009 3.17991 -4.29867 0
M  V30 6324 C 573.309 1.14442 -5.09608 0
M  V30 6325 H 575.003 0.381899 -2.96954 0
M  V30 6326 H 572.549 0.18225 -1.42842 0
M  V30 6327 H 574.502 2.81302 -3.13763 0
M  V30 6328 H 573.226 2.65263 -1.90534 0
M  V30 6329 H 571.885 1.19801 -3.46473 0
M  V30 6330 H 571.533 3.6739 -3.4356 0
M  V30 6331 H 571.233 2.99534 -5.05523 0
M  V30 6332 H 572.757 3.86737 -4.72511 0
M  V30 6333 H 574.171 1.72105 -5.46857 0
M  V30 6334 H 572.568 1.06197 -5.90629 0
M  V30 6335 H 573.638 0.12559 -4.84737 0
M  V30 6336 N 574.981 1.5647 0.188427 0
M  V30 6337 C 576.227 1.81281 0.909124 0
M  V30 6338 C 576.56 0.66034 1.82628 0
M  V30 6339 O 575.835 -0.338737 1.91528 0
M  V30 6340 C 576.118 3.16388 1.7196 0
M  V30 6341 C 575.971 4.42137 0.826714 0
M  V30 6342 C 577.29 3.48256 2.69083 0
M  V30 6343 H 574.409 0.659457 0.329068 0
M  V30 6344 H 577.051 1.89182 0.176156 0
M  V30 6345 H 575.201 3.09784 2.34448 0
M  V30 6346 H 576.873 4.60794 0.216025 0
M  V30 6347 H 575.116 4.33594 0.133792 0
M  V30 6348 H 575.787 5.33184 1.42893 0
M  V30 6349 H 578.263 3.55203 2.16726 0
M  V30 6350 H 577.139 4.43899 3.2287 0
M  V30 6351 H 577.4 2.72088 3.48455 0
M  V30 6352 N 576.459 -0.456382 1.50847 0
M  V30 6353 C 577.708 -1.2042 1.61808 0
M  V30 6354 C 578.021 -1.9278 0.330932 0
M  V30 6355 O 579.227 -2.69612 0.319643 0
M  V30 6356 C 577.683 -2.18891 2.85683 0
M  V30 6357 C 577.291 -1.52267 4.2133 0
M  V30 6358 C 579.035 -2.94224 3.05994 0
M  V30 6359 C 576.942 -2.4911 5.36375 0
M  V30 6360 H 575.872 -0.453177 0.602616 0
M  V30 6361 H 578.523 -0.473144 1.77295 0
M  V30 6362 H 576.905 -2.95351 2.63787 0
M  V30 6363 H 578.079 -0.814949 4.53536 0
M  V30 6364 H 576.394 -0.891594 4.06743 0
M  V30 6365 H 578.991 -3.66732 3.89117 0
M  V30 6366 H 579.334 -3.54469 2.18306 0
M  V30 6367 H 579.867 -2.24874 3.28141 0
M  V30 6368 H 576.606 -1.93582 6.26264 0
M  V30 6369 H 576.126 -3.17991 5.08569 0
M  V30 6370 H 577.805 -3.10637 5.67551 0
M  V30 6371 N 577.937 -1.40673 -0.710563 0
M  V30 6372 C 579.177 -1.40677 -1.48288 0
M  V30 6373 C 579.541 -0.0097193 -1.91998 0
M  V30 6374 O 580.742 0.115381 -2.68552 0
M  V30 6375 C 579.013 -2.37289 -2.67262 0
M  V30 6376 S 580.572 -2.55694 -3.56603 0
M  V30 6377 H 577.39 -0.498545 -0.506926 0
M  V30 6378 H 579.992 -1.76984 -0.830472 0
M  V30 6379 H 578.696 -3.37617 -2.3333 0
M  V30 6380 H 578.227 -2.02282 -3.3741 0
M  V30 6381 H 580.242 -1.81311 -4.61888 0
M  V30 6382 N 579.415 0.9433 -1.26252 0
M  V30 6383 C 580.365 2.02746 -1.04297 0
M  V30 6384 C 581.349 1.60882 0.0239435 0
M  V30 6385 O 582.541 1.75947 -0.192757 0
M  V30 6386 C 579.67 3.36585 -0.6757 0
M  V30 6387 C 578.756 3.84939 -1.77996 0
M  V30 6388 N 579.147 4.05966 -3.01704 0
M  V30 6389 C 577.445 4.13833 -1.66308 0
M  V30 6390 C 578.146 4.45987 -3.73458 0
M  V30 6391 N 577.122 4.52569 -3.01135 0
M  V30 6392 H 580.924 2.17012 -1.98199 0
M  V30 6393 H 578.438 1.12898 -1.16738 0
M  V30 6394 H 580.435 4.13896 -0.499571 0
M  V30 6395 H 579.095 3.2369 0.255863 0
M  V30 6396 H 580.106 3.92716 -3.37631 0
M  V30 6397 H 576.783 4.09739 -0.801267 0
M  V30 6398 H 578.173 4.70465 -4.79701 0
M  V30 6399 N 580.893 1.08022 1.14757 0
M  V30 6400 C 581.825 0.664566 2.19354 0
M  V30 6401 C 582.838 -0.286374 1.60261 0
M  V30 6402 O 584.027 -0.0746362 1.78344 0
M  V30 6403 C 581.127 -0.0434634 3.38872 0
M  V30 6404 C 580.3 0.925381 4.27499 0
M  V30 6405 C 579.359 0.253398 5.2559 0
M  V30 6406 O 578.385 0.896581 5.62094 0
M  V30 6407 N 579.587 -0.998263 5.71852 0
M  V30 6408 H 582.352 1.56438 2.55631 0
M  V30 6409 H 579.913 0.965788 1.29939 0
M  V30 6410 H 581.905 -0.503857 4.01551 0
M  V30 6411 H 580.475 -0.845321 3.00954 0
M  V30 6412 H 579.695 1.56472 3.61815 0
M  V30 6413 H 580.983 1.58203 4.8358 0
M  V30 6414 H 580.381 -1.54063 5.44317 0
M  V30 6415 H 578.938 -1.40222 6.36538 0
M  V30 6416 N 582.371 -1.3172 0.865308 0
M  V30 6417 C 583.334 -2.26918 0.322627 0
M  V30 6418 C 584.334 -1.52031 -0.523751 0
M  V30 6419 O 585.524 -1.70973 -0.333727 0
M  V30 6420 C 582.656 -3.36558 -0.542338 0
M  V30 6421 H 583.849 -2.76432 1.16298 0
M  V30 6422 H 581.402 -1.42573 0.640512 0
M  V30 6423 H 582.137 -2.92329 -1.40407 0
M  V30 6424 H 581.922 -3.92048 0.0636395 0
M  V30 6425 H 583.412 -4.07465 -0.91446 0
M  V30 6426 N 583.85 -0.624285 -1.44708 0
M  V30 6427 C 585.096 -0.126237 -2.02407 0
M  V30 6428 C 585.428 1.24618 -1.48943 0
M  V30 6429 O 584.704 1.82569 -0.670742 0
M  V30 6430 C 584.986 -0.105449 -3.59946 0
M  V30 6431 C 584.84 -1.50972 -4.23707 0
M  V30 6432 C 586.159 0.573629 -4.36346 0
M  V30 6433 H 583.278 -0.0473472 -0.735478 0
M  V30 6434 H 585.92 -0.799452 -1.72362 0
M  V30 6435 H 584.07 0.46783 -3.85673 0
M  V30 6436 H 585.742 -2.13136 -4.0911 0
M  V30 6437 H 583.985 -2.0656 -3.81465 0
M  V30 6438 H 584.656 -1.44727 -5.32689 0
M  V30 6439 H 587.132 0.0861787 -4.16011 0
M  V30 6440 H 586.008 0.557338 -5.46063 0
M  V30 6441 H 586.269 1.64276 -4.10446 0
M  V30 6442 N 585.328 1.53329 -0.364422 0
M  V30 6443 C 586.261 2.22052 0.526145 0
M  V30 6444 C 587.239 1.21203 1.08391 0
M  V30 6445 O 588.423 1.50101 1.14026 0
M  V30 6446 C 585.55 2.91432 1.72583 0
M  V30 6447 C 584.596 4.06345 1.29562 0
M  V30 6448 S 585.429 5.34671 0.297885 0
M  V30 6449 C 586.585 6.07563 1.50392 0
M  V30 6450 H 586.818 2.97244 -0.0575055 0
M  V30 6451 H 584.351 1.53684 -0.148525 0
M  V30 6452 H 586.309 3.3202 2.41398 0
M  V30 6453 H 584.97 2.15966 2.28073 0
M  V30 6454 H 584.163 4.53901 2.19067 0
M  V30 6455 H 583.765 3.67642 0.686696 0
M  V30 6456 H 586.057 6.32224 2.43513 0
M  V30 6457 H 587 6.99973 1.06977 0
M  V30 6458 H 587.408 5.37994 1.70945 0
M  V30 6459 N 586.806 0.0935595 1.57322 0
M  V30 6460 C 588.222 -0.263091 1.57417 0
M  V30 6461 C 588.422 -1.68526 1.1046 0
M  V30 6462 O 587.478 -2.40139 0.780357 0
M  V30 6463 C 588.791 -0.0529201 3.00653 0
M  V30 6464 C 590.339 -0.120788 3.12767 0
M  V30 6465 C 590.814 0.0613707 4.57959 0
M  V30 6466 N 592.305 0.00648534 4.632 0
M  V30 6467 C 593.04 0.122699 5.73269 0
M  V30 6468 N 592.536 0.29366 6.92177 0
M  V30 6469 N 594.329 0.0640787 5.62063 0
M  V30 6470 H 586.48 1.02277 1.86154 0
M  V30 6471 H 588.743 0.4007 0.859153 0
M  V30 6472 H 588.449 0.929279 3.39201 0
M  V30 6473 H 588.323 -0.795899 3.68708 0
M  V30 6474 H 590.71 -1.09349 2.74093 0
M  V30 6475 H 590.791 0.653656 2.47307 0
M  V30 6476 H 590.435 1.03093 4.97327 0
M  V30 6477 H 590.365 -0.732748 5.21477 0
M  V30 6478 H 592.856 -0.123173 3.77699 0
M  V30 6479 H 593.169 0.37389 7.71895 0
M  V30 6480 H 591.514 0.329307 6.94219 0
M  V30 6481 H 594.705 -0.0683396 4.6805 0
M  V30 6482 H 594.878 0.158097 6.47807 0
M  V30 6483 N 588.284 -1.56567 -0.180126 0
M  V30 6484 C 589.524 -1.83285 -0.904761 0
M  V30 6485 C 589.888 -0.673226 -1.7981 0
M  V30 6486 O 591.089 -0.820645 -2.55967 0
M  V30 6487 C 589.36 -3.15086 -1.68688 0
M  V30 6488 S 590.919 -3.63258 -2.46149 0
M  V30 6489 H 587.737 -0.643114 -0.303193 0
M  V30 6490 H 590.339 -1.94785 -0.167034 0
M  V30 6491 H 589.043 -3.97484 -1.02148 0
M  V30 6492 H 588.574 -3.06504 -2.46615 0
M  V30 6493 H 590.589 -3.29884 -3.70663 0
M  V30 6494 N 589.762 0.448376 -1.51087 0
M  V30 6495 C 590.692 1.55102 -1.74544 0
M  V30 6496 C 591.673 1.59357 -0.594932 0
M  V30 6497 O 592.858 1.75261 -0.836491 0
M  V30 6498 C 589.988 2.93268 -1.86041 0
M  V30 6499 C 588.942 3.03877 -3.01402 0
M  V30 6500 C 588.268 4.43914 -2.98068 0
M  V30 6501 C 589.568 2.7898 -4.41551 0
M  V30 6502 H 591.262 1.35724 -2.66869 0
M  V30 6503 H 588.808 0.651498 -1.28419 0
M  V30 6504 H 590.761 3.70356 -2.01034 0
M  V30 6505 H 589.485 3.13853 -0.903548 0
M  V30 6506 H 588.144 2.29227 -2.86096 0
M  V30 6507 H 587.792 4.6145 -2.00182 0
M  V30 6508 H 587.492 4.51944 -3.75527 0
M  V30 6509 H 589.016 5.22991 -3.1514 0
M  V30 6510 H 590.43 3.45805 -4.57265 0
M  V30 6511 H 588.827 2.98431 -5.20633 0
M  V30 6512 H 589.897 1.74663 -4.5235 0
M  V30 6513 N 591.24 1.41047 0.703093 0
M  V30 6514 C 592.17 1.45067 1.82969 0
M  V30 6515 C 593.151 0.31016 1.67248 0
M  V30 6516 O 594.336 0.520548 1.87093 0
M  V30 6517 C 591.466 1.32478 3.2104 0
M  V30 6518 C 590.42 2.44262 3.51454 0
M  V30 6519 C 589.746 2.16742 4.88801 0
M  V30 6520 C 591.046 3.86606 3.51189 0
M  V30 6521 H 592.74 2.39353 1.79863 0
M  V30 6522 H 590.286 1.15206 0.863919 0
M  V30 6523 H 592.239 1.33904 3.99559 0
M  V30 6524 H 590.963 0.346735 3.24754 0
M  V30 6525 H 589.622 2.42107 2.75282 0
M  V30 6526 H 589.27 1.17299 4.89132 0
M  V30 6527 H 588.97 2.91643 5.10116 0
M  V30 6528 H 590.494 2.19872 5.69639 0
M  V30 6529 H 591.908 3.90517 4.19725 0
M  V30 6530 H 590.305 4.61128 3.84033 0
M  V30 6531 H 591.375 4.15296 2.50315 0
M  V30 6532 N 592.718 -0.936591 1.26751 0
M  V30 6533 C 593.681 -2.01752 1.08761 0
M  V30 6534 C 594.681 -1.60763 0.0344435 0
M  V30 6535 O 595.871 -1.71963 0.278258 0
M  V30 6536 C 593.003 -3.34543 0.655271 0
M  V30 6537 H 594.196 -2.19143 2.04735 0
M  V30 6538 H 591.749 -1.11618 1.09413 0
M  V30 6539 H 592.484 -3.22851 -0.30626 0
M  V30 6540 H 592.269 -3.65647 1.41578 0
M  V30 6541 H 593.759 -4.13944 0.551378 0
M  V30 6542 N 594.196 -1.08629 -1.14182 0
M  V30 6543 C 595.426 -0.837673 -1.88856 0
M  V30 6544 C 595.834 0.614024 -1.78959 0
M  V30 6545 O 595.177 1.43384 -1.14833 0
M  V30 6546 C 595.239 -1.18355 -3.39459 0
M  V30 6547 C 594.903 -2.63848 -3.73139 0
M  V30 6548 C 595.9 -3.62099 -3.73069 0
M  V30 6549 C 593.585 -2.99761 -4.03049 0
M  V30 6550 C 595.579 -4.94292 -4.02435 0
M  V30 6551 C 593.266 -4.32147 -4.32078 0
M  V30 6552 C 594.264 -5.29223 -4.31755 0
M  V30 6553 O 593.952 -6.59229 -4.60079 0
M  V30 6554 H 593.684 -0.301609 -0.604986 0
M  V30 6555 H 596.238 -1.44961 -1.45518 0
M  V30 6556 H 594.468 -0.514628 -3.8326 0
M  V30 6557 H 596.157 -0.915391 -3.95443 0
M  V30 6558 H 596.923 -3.35698 -3.50046 0
M  V30 6559 H 592.802 -2.2484 -4.02453 0
M  V30 6560 H 596.346 -5.70055 -4.02098 0
M  V30 6561 H 592.243 -4.58296 -4.54571 0
M  V30 6562 H 593.011 -6.64578 -4.77785 0
M  V30 6563 N 595.674 1.31259 -0.872281 0
M  V30 6564 C 596.921 1.96622 -0.484365 0
M  V30 6565 C 597.249 1.68939 0.963841 0
M  V30 6566 O 596.504 0.97974 1.6941 0
M  V30 6567 C 596.803 3.50659 -0.690889 0
M  V30 6568 C 596.469 3.98366 -2.11224 0
M  V30 6569 C 595.131 4.11104 -2.50094 0
M  V30 6570 C 597.483 4.23425 -3.0391 0
M  V30 6571 C 594.811 4.46254 -3.80887 0
M  V30 6572 C 597.163 4.60039 -4.3422 0
M  V30 6573 C 595.827 4.70984 -4.73001 0
M  V30 6574 H 595.097 0.71949 -0.177242 0
M  V30 6575 H 597.744 1.56353 -1.10571 0
M  V30 6576 H 596.049 3.91798 0.0135782 0
M  V30 6577 H 597.746 3.99284 -0.370534 0
M  V30 6578 H 594.336 3.88949 -1.80047 0
M  V30 6579 H 598.52 4.13075 -2.75104 0
M  V30 6580 H 593.776 4.52926 -4.10692 0
M  V30 6581 H 597.95 4.78381 -5.06088 0
M  V30 6582 H 595.577 4.97977 -5.7439 0
M  V30 6583 N 597.152 0.631951 1.44375 0
M  V30 6584 C 598.082 -0.0593243 2.33425 0
M  V30 6585 C 599.063 -0.833964 1.48253 0
M  V30 6586 O 600.248 -0.799682 1.76971 0
M  V30 6587 C 597.378 -1.04096 3.31333 0
M  V30 6588 C 596.332 -0.377899 4.26328 0
M  V30 6589 C 595.658 -1.4695 5.14111 0
M  V30 6590 C 596.958 0.716371 5.17364 0
M  V30 6591 H 598.652 0.684287 2.91475 0
M  V30 6592 H 596.198 0.330518 1.40156 0
M  V30 6593 H 598.151 -1.53331 3.92514 0
M  V30 6594 H 596.875 -1.81547 2.71493 0
M  V30 6595 H 595.534 0.0938054 3.6648 0
M  V30 6596 H 595.182 -2.2349 4.50623 0
M  V30 6597 H 594.882 -1.03121 5.78481 0
M  V30 6598 H 596.406 -1.96363 5.78164 0
M  V30 6599 H 597.82 0.307089 5.72477 0
M  V30 6600 H 596.217 1.07784 5.90341 0
M  V30 6601 H 597.287 1.58316 4.58327 0
M  V30 6602 N 598.631 -1.53133 0.372548 0
M  V30 6603 C 599.908 -1.93704 -0.271693 0
M  V30 6604 C 600.288 -1.30667 -1.65799 0
M  V30 6605 O 599.636 -0.46838 -2.23648 0
M  V30 6606 C 599.846 -3.47576 -0.314903 0
M  V30 6607 C 601.194 -4.20998 -0.551912 0
M  V30 6608 O 602.218 -3.53994 -0.39582 0
M  V30 6609 O 601.077 -5.39748 -0.85639 0
M  V30 6610 H 598.171 -0.810457 -0.164586 0
M  V30 6611 H 600.717 -1.6427 0.425838 0
M  V30 6612 H 599.489 -3.85749 0.656792 0
M  V30 6613 H 599.112 -3.83264 -1.05804 0
M  V30 6614 N 600.109 -0.101901 -1.5727 0
M  V30 6615 C 601.056 0.854577 -2.14396 0
M  V30 6616 C 602.026 1.27521 -1.06432 0
M  V30 6617 O 603.211 1.35575 -1.34253 0
M  V30 6618 C 600.351 2.10576 -2.73408 0
M  V30 6619 C 599.464 1.73504 -3.95626 0
M  V30 6620 C 598.599 2.9346 -4.42781 0
M  V30 6621 C 597.638 2.52547 -5.57572 0
M  V30 6622 N 596.775 3.65359 -5.99547 0
M  V30 6623 H 601.615 0.360578 -2.9581 0
M  V30 6624 H 599.152 0.166303 -1.46157 0
M  V30 6625 H 601.11 2.83859 -3.05745 0
M  V30 6626 H 599.74 2.57463 -1.94711 0
M  V30 6627 H 598.792 0.901622 -3.6956 0
M  V30 6628 H 600.104 1.39426 -4.78917 0
M  V30 6629 H 599.258 3.74988 -4.76937 0
M  V30 6630 H 597.997 3.30753 -3.58404 0
M  V30 6631 H 597.002 1.69446 -5.23037 0
M  V30 6632 H 598.227 2.1639 -6.43702 0
M  V30 6633 H 596.173 4.02358 -5.18116 0
M  V30 6634 H 596.09 3.35148 -6.77652 0
M  V30 6635 H 597.358 4.47378 -6.38336 0
M  V30 6636 N 601.587 1.56661 0.17182 0
M  V30 6637 C 602.812 1.86459 0.908165 0
M  V30 6638 C 603.237 0.688181 1.75059 0
M  V30 6639 O 602.595 -0.362753 1.77634 0
M  V30 6640 C 602.643 3.14669 1.76112 0
M  V30 6641 O 601.747 2.96858 2.86268 0
M  V30 6642 H 601.088 0.613318 0.254434 0
M  V30 6643 H 603.618 2.03892 0.170113 0
M  V30 6644 H 603.628 3.46061 2.16115 0
M  V30 6645 H 602.303 3.99905 1.14233 0
M  V30 6646 H 600.88 2.76819 2.49852 0
M  V30 6647 N 603.065 -0.440357 1.51323 0
M  V30 6648 C 604.29 -1.21716 1.67928 0
M  V30 6649 C 604.715 -1.84328 0.374826 0
M  V30 6650 O 604.073 -1.68675 -0.664706 0
M  V30 6651 C 604.121 -2.27914 2.79442 0
M  V30 6652 O 603.225 -3.33325 2.42834 0
M  V30 6653 H 602.566 -0.35674 0.560029 0
M  V30 6654 H 605.096 -0.520417 1.97871 0
M  V30 6655 H 605.106 -2.72746 3.03436 0
M  V30 6656 H 603.781 -1.8172 3.741 0
M  V30 6657 H 602.358 -2.9399 2.294 0
M  V30 6658 N 604.543 -1.41418 -0.695603 0
M  V30 6659 C 605.82 -1.31264 -1.45014 0
M  V30 6660 C 606.2 0.0597994 -2.11015 0
M  V30 6661 O 605.548 1.07403 -2.01685 0
M  V30 6662 C 605.758 -2.466 -2.4696 0
M  V30 6663 C 607.106 -2.87763 -3.12214 0
M  V30 6664 O 608.13 -2.46339 -2.57285 0
M  V30 6665 O 606.989 -3.59395 -4.11701 0
M  V30 6666 H 604.083 -0.516576 -0.645816 0
M  V30 6667 H 606.629 -1.53382 -0.726084 0
M  V30 6668 H 605.401 -3.38183 -1.96845 0
M  V30 6669 H 605.024 -2.26358 -3.26876 0
M  V30 6670 N 606.021 0.929856 -1.27246 0
M  V30 6671 C 606.931 2.0636 -1.11592 0
M  V30 6672 C 607.947 1.73938 -0.046496 0
M  V30 6673 O 609.123 1.9981 -0.252544 0
M  V30 6674 C 606.188 3.38213 -0.762437 0
M  V30 6675 C 605.249 3.84346 -1.9125 0
M  V30 6676 C 604.482 5.09906 -1.57579 0
M  V30 6677 O 604.705 5.68354 -0.482694 0
M  V30 6678 O 603.639 5.51359 -2.41426 0
M  V30 6679 H 607.465 2.22478 -2.0673 0
M  V30 6680 H 605.05 1.04865 -1.06413 0
M  V30 6681 H 606.932 4.1741 -0.57854 0
M  V30 6682 H 605.607 3.23307 0.159439 0
M  V30 6683 H 604.514 3.06045 -2.15144 0
M  V30 6684 H 605.847 4.0379 -2.81451 0
M  V30 6685 N 607.499 1.09233 1.13605 0
M  V30 6686 C 608.429 0.751738 2.21068 0
M  V30 6687 C 609.41 -0.269688 1.67948 0
M  V30 6688 O 610.595 -0.13819 1.93708 0
M  V30 6689 C 607.725 0.16935 3.46887 0
M  V30 6690 C 606.679 1.12007 4.13084 0
M  V30 6691 C 606.005 0.399483 5.33206 0
M  V30 6692 C 607.305 2.46168 4.6065 0
M  V30 6693 H 608.999 1.65024 2.49815 0
M  V30 6694 H 606.545 0.794905 1.20072 0
M  V30 6695 H 608.498 -0.0809824 4.21322 0
M  V30 6696 H 607.222 -0.764335 3.1753 0
M  V30 6697 H 605.881 1.35564 3.40614 0
M  V30 6698 H 605.529 -0.538277 5.00112 0
M  V30 6699 H 605.229 1.03337 5.78442 0
M  V30 6700 H 606.753 0.157403 6.10397 0
M  V30 6701 H 608.167 2.26829 5.26518 0
M  V30 6702 H 606.564 3.05326 5.1662 0
M  V30 6703 H 607.634 3.07076 3.75276 0
M  V30 6704 N 608.977 -1.30795 0.87923 0
M  V30 6705 C 610.388 -1.78535 0.546093 0
M  V30 6706 C 610.739 -1.72354 -0.937467 0
M  V30 6707 O 609.864 -1.2969 -1.73233 0
M  V30 6708 C 610.459 -3.24181 0.9845 0
M  V30 6709 C 609.018 -3.69779 0.702871 0
M  V30 6710 C 608.165 -2.51377 1.17068 0
M  V30 6711 H 611.116 -1.17746 1.06403 0
M  V30 6712 H 611.137 -3.79227 0.311045 0
M  V30 6713 H 610.649 -3.28647 2.06429 0
M  V30 6714 H 608.75 -3.70806 -0.365166 0
M  V30 6715 H 608.863 -4.61507 1.28639 0
M  V30 6716 H 607.227 -2.47768 0.590172 0
M  V30 6717 H 608.01 -2.58584 2.25808 0
M  V30 6718 N 610.455 -0.639598 -1.44038 0
M  V30 6719 C 611.685 -0.154586 -2.06021 0
M  V30 6720 C 612.093 1.17951 -1.47933 0
M  V30 6721 O 611.436 1.73627 -0.59994 0
M  V30 6722 C 611.498 0.0255459 -3.59491 0
M  V30 6723 C 611.162 -1.2317 -4.40089 0
M  V30 6724 C 612.159 -2.15735 -4.73027 0
M  V30 6725 C 609.844 -1.46949 -4.80324 0
M  V30 6726 C 611.838 -3.30382 -5.45093 0
M  V30 6727 C 609.525 -2.61891 -5.52138 0
M  V30 6728 C 610.523 -3.53433 -5.84443 0
M  V30 6729 O 610.211 -4.6637 -6.54793 0
M  V30 6730 H 609.943 -0.0808543 -0.671147 0
M  V30 6731 H 612.497 -0.876541 -1.85758 0
M  V30 6732 H 610.727 0.802733 -3.78276 0
M  V30 6733 H 612.416 0.466184 -4.03214 0
M  V30 6734 H 613.182 -1.98602 -4.42473 0
M  V30 6735 H 609.061 -0.765815 -4.54595 0
M  V30 6736 H 612.605 -4.01856 -5.70226 0
M  V30 6737 H 608.502 -2.78964 -5.82108 0
M  V30 6738 H 609.27 -4.6546 -6.73267 0
M  V30 6739 N 611.933 1.52934 -0.380664 0
M  V30 6740 C 612.863 2.29118 0.450268 0
M  V30 6741 C 613.844 1.32153 1.07096 0
M  V30 6742 O 615.029 1.61038 1.08537 0
M  V30 6743 C 612.159 3.09161 1.58231 0
M  V30 6744 C 611.113 4.13938 1.0881 0
M  V30 6745 C 610.439 4.82153 2.31155 0
M  V30 6746 C 611.739 5.22048 0.162146 0
M  V30 6747 H 613.433 2.98826 -0.185361 0
M  V30 6748 H 610.979 1.43715 -0.0905886 0
M  V30 6749 H 612.932 3.61211 2.17036 0
M  V30 6750 H 611.656 2.3717 2.2454 0
M  V30 6751 H 610.315 3.62855 0.522633 0
M  V30 6752 H 609.963 4.06719 2.95953 0
M  V30 6753 H 609.663 5.52966 1.98752 0
M  V30 6754 H 611.187 5.37004 2.90618 0
M  V30 6755 H 612.601 5.6951 0.658126 0
M  V30 6756 H 610.998 6.00057 -0.0717122 0
M  V30 6757 H 612.068 4.78398 -0.791438 0
M  V30 6758 N 613.412 0.11024 1.57214 0
M  V30 6759 C 614.359 -0.843195 2.14846 0
M  V30 6760 C 615.329 -1.26954 1.07107 0
M  V30 6761 O 616.514 -1.34861 1.34971 0
M  V30 6762 C 613.654 -2.09123 2.74521 0
M  V30 6763 C 612.767 -1.71404 3.96541 0
M  V30 6764 C 611.902 -2.91107 4.44331 0
M  V30 6765 C 610.941 -2.49586 5.58903 0
M  V30 6766 N 610.078 -3.62175 6.01477 0
M  V30 6767 H 614.918 -0.344886 2.95998 0
M  V30 6768 H 612.455 -0.15855 1.46243 0
M  V30 6769 H 614.413 -2.82234 3.07246 0
M  V30 6770 H 613.043 -2.56427 1.96074 0
M  V30 6771 H 612.095 -0.88201 3.70033 0
M  V30 6772 H 613.407 -1.36884 4.7965 0
M  V30 6773 H 612.561 -3.72454 4.78919 0
M  V30 6774 H 611.3 -3.28848 3.60153 0
M  V30 6775 H 610.305 -1.6667 5.23929 0
M  V30 6776 H 611.53 -2.12973 6.4484 0
M  V30 6777 H 609.476 -3.99605 5.20242 0
M  V30 6778 H 609.393 -3.3155 6.79419 0
M  V30 6779 H 610.661 -4.43987 6.407 0
M  V30 6780 N 614.89 -1.56749 -0.16351 0
M  V30 6781 C 616.13 -1.84234 -0.885271 0
M  V30 6782 C 616.494 -0.692259 -1.79086 0
M  V30 6783 O 617.695 -0.847747 -2.55082 0
M  V30 6784 C 615.966 -3.16857 -1.65337 0
M  V30 6785 S 617.525 -3.65848 -2.42282 0
M  V30 6786 H 614.343 -0.646293 -0.296354 0
M  V30 6787 H 616.945 -1.94951 -0.146365 0
M  V30 6788 H 615.649 -3.98546 -0.979266 0
M  V30 6789 H 615.18 -3.09102 -2.4335 0
M  V30 6790 H 617.195 -3.33796 -3.67143 0
M  V30 6791 N 616.368 0.432326 -1.51554 0
M  V30 6792 C 617.779 1.01202 -1.56892 0
M  V30 6793 C 618.13 1.92175 -0.395394 0
M  V30 6794 O 617.255 2.10844 0.487198 0
M  V30 6795 C 617.85 1.84217 -2.8434 0
M  V30 6796 C 616.409 2.37228 -2.92233 0
M  V30 6797 C 615.556 1.16576 -2.51606 0
M  V30 6798 H 618.507 0.213407 -1.57259 0
M  V30 6799 H 618.528 2.69721 -2.68385 0
M  V30 6800 H 618.04 1.17979 -3.69733 0
M  V30 6801 H 616.141 3.06905 -2.11282 0
M  V30 6802 H 616.254 2.69682 -3.95991 0
M  V30 6803 H 614.618 1.51263 -2.04919 0
M  V30 6804 H 615.401 0.519404 -3.39348 0
M  V30 6805 N 617.846 1.41785 0.688094 0
M  V30 6806 C 618.776 1.47 1.8142 0
M  V30 6807 C 619.757 0.327881 1.6691 0
M  V30 6808 O 620.942 0.540362 1.86531 0
M  V30 6809 C 618.072 1.35876 3.19617 0
M  V30 6810 C 617.026 2.47976 3.48844 0
M  V30 6811 C 616.352 2.21915 4.86475 0
M  V30 6812 C 617.652 3.90309 3.47068 0
M  V30 6813 H 619.346 2.41247 1.77314 0
M  V30 6814 H 616.892 1.16116 0.851651 0
M  V30 6815 H 618.845 1.38134 3.98117 0
M  V30 6816 H 617.569 0.38116 3.24368 0
M  V30 6817 H 616.228 2.45013 2.72698 0
M  V30 6818 H 615.876 1.2248 4.8786 0
M  V30 6819 H 615.576 2.97037 5.06994 0
M  V30 6820 H 617.1 2.25901 5.67275 0
M  V30 6821 H 618.514 3.94947 4.1556 0
M  V30 6822 H 616.911 4.65175 3.7912 0
M  V30 6823 H 617.981 4.17927 2.45896 0
M  V30 6824 N 619.324 -0.923095 1.27737 0
M  V30 6825 C 620.274 -2.01061 1.0751 0
M  V30 6826 C 621.258 -1.609 0.00165451 0
M  V30 6827 O 622.45 -1.75618 0.220724 0
M  V30 6828 C 619.579 -3.35467 0.729162 0
M  V30 6829 C 618.665 -3.82059 1.84098 0
M  V30 6830 N 619.056 -4.01115 3.08124 0
M  V30 6831 C 617.354 -4.11135 1.7287 0
M  V30 6832 C 618.055 -4.39989 3.80506 0
M  V30 6833 N 617.031 -4.47721 3.08297 0
M  V30 6834 H 620.833 -2.13832 2.01626 0
M  V30 6835 H 618.347 -1.11027 1.18519 0
M  V30 6836 H 620.344 -4.13049 0.565355 0
M  V30 6837 H 619.004 -3.24056 -0.204334 0
M  V30 6838 H 620.015 -3.87294 3.43836 0
M  V30 6839 H 616.692 -4.08412 0.866352 0
M  V30 6840 H 618.082 -4.62773 4.87125 0
M  V30 6841 N 620.802 -1.09834 -1.13024 0
M  V30 6842 C 622.03 -0.858902 -1.8823 0
M  V30 6843 C 622.445 0.590164 -1.79339 0
M  V30 6844 O 621.802 1.4065 -1.16292 0
M  V30 6845 C 621.853 -1.29066 -3.37675 0
M  V30 6846 O 621.574 -2.6829 -3.46341 0
M  V30 6847 C 623.075 -1.08421 -4.29837 0
M  V30 6848 H 620.295 -0.308713 -0.595766 0
M  V30 6849 H 622.839 -1.4614 -1.4305 0
M  V30 6850 H 620.994 -0.731961 -3.80422 0
M  V30 6851 H 621.408 -2.86598 -4.39274 0
M  V30 6852 H 622.882 -1.43553 -5.33007 0
M  V30 6853 H 623.359 -0.0223315 -4.39194 0
M  V30 6854 H 623.965 -1.62907 -3.92863 0
M  V30 6855 N 622.28 1.30327 -0.886154 0
M  V30 6856 C 623.526 1.96388 -0.505941 0
M  V30 6857 C 623.859 1.69784 0.942712 0
M  V30 6858 O 623.134 1.00322 1.6663 0
M  V30 6859 C 623.417 3.51488 -0.782826 0
M  V30 6860 C 623.27 3.87603 -2.28219 0
M  V30 6861 C 624.589 4.39331 -0.260128 0
M  V30 6862 H 621.708 0.713327 -0.185292 0
M  V30 6863 H 624.35 1.54178 -1.11036 0
M  V30 6864 H 622.5 3.87572 -0.268399 0
M  V30 6865 H 624.172 3.61537 -2.86512 0
M  V30 6866 H 622.415 3.3563 -2.74837 0
M  V30 6867 H 623.086 4.95806 -2.42653 0
M  V30 6868 H 625.562 4.10162 -0.700444 0
M  V30 6869 H 624.438 5.46769 -0.483179 0
M  V30 6870 H 624.699 4.34072 0.838674 0
M  V30 6871 N 623.758 0.647228 1.43697 0
M  V30 6872 C 624.688 -0.0345631 2.33474 0
M  V30 6873 C 625.669 -0.818193 1.4913 0
M  V30 6874 O 626.854 -0.780867 1.77809 0
M  V30 6875 C 623.984 -1.00576 3.32418 0
M  V30 6876 C 622.938 -0.33266 4.26705 0
M  V30 6877 C 622.264 -1.41489 5.1564 0
M  V30 6878 C 623.564 0.771204 5.16575 0
M  V30 6879 H 625.258 0.715163 2.90733 0
M  V30 6880 H 622.804 0.345364 1.39797 0
M  V30 6881 H 624.757 -1.49159 3.94119 0
M  V30 6882 H 623.481 -1.78657 2.73403 0
M  V30 6883 H 622.14 0.13267 3.6636 0
M  V30 6884 H 621.788 -2.18698 4.52968 0
M  V30 6885 H 621.488 -0.969799 5.79542 0
M  V30 6886 H 623.012 -1.9022 5.80214 0
M  V30 6887 H 624.426 0.36779 5.72119 0
M  V30 6888 H 622.823 1.1404 5.89165 0
M  V30 6889 H 623.893 1.63169 4.56622 0
M  V30 6890 N 625.236 -1.5273 0.388769 0
M  V30 6891 C 626.183 -2.26437 -0.446639 0
M  V30 6892 C 627.153 -1.28025 -1.05824 0
M  V30 6893 O 628.338 -1.56852 -1.08637 0
M  V30 6894 C 625.478 -3.07407 -1.56828 0
M  V30 6895 C 624.591 -4.20747 -0.979589 0
M  V30 6896 C 623.726 -4.89113 -2.07224 0
M  V30 6897 C 622.765 -5.94447 -1.45942 0
M  V30 6898 N 621.902 -6.56411 -2.49135 0
M  V30 6899 H 626.742 -2.97404 0.18837 0
M  V30 6900 H 624.279 -1.46727 0.104725 0
M  V30 6901 H 626.237 -3.52642 -2.22934 0
M  V30 6902 H 624.867 -2.3865 -2.17361 0
M  V30 6903 H 623.919 -3.7983 -0.208151 0
M  V30 6904 H 625.231 -4.9637 -0.491747 0
M  V30 6905 H 624.385 -5.3765 -2.81101 0
M  V30 6906 H 623.124 -4.13013 -2.59368 0
M  V30 6907 H 622.129 -5.4525 -0.705894 0
M  V30 6908 H 623.354 -6.7248 -0.945932 0
M  V30 6909 H 621.3 -5.83152 -3.00449 0
M  V30 6910 H 621.217 -7.27645 -2.05105 0
M  V30 6911 H 622.485 -7.09592 -3.22644 0
M  V30 6912 N 626.714 -0.118576 -1.57153 0
M  V30 6913 C 627.644 0.828436 -2.1831 0
M  V30 6914 C 628.625 1.27758 -1.12303 0
M  V30 6915 O 629.81 1.34026 -1.40537 0
M  V30 6916 C 626.94 2.07876 -2.78217 0
M  V30 6917 C 625.894 1.76742 -3.89803 0
M  V30 6918 C 625.22 3.08801 -4.36516 0
M  V30 6919 C 626.52 1.03606 -5.11921 0
M  V30 6920 H 628.214 0.318824 -2.97698 0
M  V30 6921 H 625.76 0.151911 -1.43196 0
M  V30 6922 H 627.713 2.74584 -3.19659 0
M  V30 6923 H 626.437 2.61161 -1.96118 0
M  V30 6924 H 625.096 1.12424 -3.48936 0
M  V30 6925 H 624.744 3.6002 -3.51276 0
M  V30 6926 H 624.444 2.88743 -5.11763 0
M  V30 6927 H 625.968 3.76627 -4.80608 0
M  V30 6928 H 627.382 1.60467 -5.50385 0
M  V30 6929 H 625.779 0.936454 -5.92748 0
M  V30 6930 H 626.849 0.0227421 -4.84895 0
M  V30 6931 N 628.193 1.56834 0.155195 0
M  V30 6932 C 629.421 1.87049 0.884326 0
M  V30 6933 C 629.836 0.705839 1.7511 0
M  V30 6934 O 629.193 -0.324641 1.79589 0
M  V30 6935 C 629.244 3.1644 1.74781 0
M  V30 6936 O 628.965 4.28417 0.915978 0
M  V30 6937 C 630.466 3.60113 2.58522 0
M  V30 6938 H 627.686 0.620196 0.25612 0
M  V30 6939 H 630.23 2.03946 0.150445 0
M  V30 6940 H 628.385 3.01321 2.43484 0
M  V30 6941 H 628.799 5.02353 1.50803 0
M  V30 6942 H 630.273 4.53508 3.14698 0
M  V30 6943 H 630.75 2.85005 3.34169 0
M  V30 6944 H 631.356 3.77898 1.95124 0
M  V30 6945 N 629.671 -0.424282 1.51781 0
M  V30 6946 C 631.082 -1.00368 1.57427 0
M  V30 6947 C 631.433 -1.91962 0.40558 0
M  V30 6948 O 630.558 -2.111 -0.47601 0
M  V30 6949 C 631.153 -1.82707 2.85313 0
M  V30 6950 C 629.712 -2.35675 2.93487 0
M  V30 6951 C 628.859 -1.1524 2.5222 0
M  V30 6952 H 631.81 -0.205064 1.5737 0
M  V30 6953 H 631.831 -2.68294 2.69812 0
M  V30 6954 H 631.343 -1.16017 3.70353 0
M  V30 6955 H 629.444 -3.05781 2.12906 0
M  V30 6956 H 629.557 -2.67578 3.97415 0
M  V30 6957 H 627.921 -1.50174 2.05718 0
M  V30 6958 H 628.704 -0.5014 3.39619 0
M  V30 6959 N 631.149 -1.42148 -0.680565 0
M  V30 6960 C 632.395 -1.42521 -1.44277 0
M  V30 6961 C 632.728 -0.0393718 -1.9416 0
M  V30 6962 O 632.003 0.935425 -1.70529 0
M  V30 6963 C 632.286 -2.44475 -2.64394 0
M  V30 6964 C 632.139 -3.92226 -2.20179 0
M  V30 6965 C 633.458 -2.43491 -3.66606 0
M  V30 6966 H 630.577 -0.518985 -0.523282 0
M  V30 6967 H 633.219 -1.73524 -0.773914 0
M  V30 6968 H 631.369 -2.18168 -3.21458 0
M  V30 6969 H 633.041 -4.29493 -1.68327 0
M  V30 6970 H 631.284 -4.0637 -1.5181 0
M  V30 6971 H 631.955 -4.59133 -3.06433 0
M  V30 6972 H 634.431 -2.66872 -3.19247 0
M  V30 6973 H 633.307 -3.16816 -4.4824 0
M  V30 6974 H 633.568 -1.45881 -4.17338 0
M  V30 6975 N 632.627 0.916307 -1.28225 0
M  V30 6976 C 633.59 1.99996 -1.11957 0
M  V30 6977 C 634.59 1.60688 -0.0600152 0
M  V30 6978 O 635.78 1.71499 -0.30558 0
M  V30 6979 C 632.912 3.33458 -0.708411 0
M  V30 6980 H 634.105 2.15858 -2.08196 0
M  V30 6981 H 631.658 1.09863 -1.11175 0
M  V30 6982 H 632.393 3.23297 0.254859 0
M  V30 6983 H 632.178 3.63349 -1.47377 0
M  V30 6984 H 633.668 4.13014 -0.617164 0
M  V30 6985 N 634.105 1.10431 1.1244 0
M  V30 6986 C 635.335 0.867612 1.87499 0
M  V30 6987 C 635.743 -0.585475 1.79913 0
M  V30 6988 O 635.086 -1.41539 1.171 0
M  V30 6989 C 635.148 1.2374 3.37533 0
M  V30 6990 C 634.812 2.69751 3.68895 0
M  V30 6991 C 635.809 3.67988 3.67261 0
M  V30 6992 C 633.494 3.06135 3.98229 0
M  V30 6993 C 635.488 5.00632 3.9452 0
M  V30 6994 C 633.175 4.38967 4.25149 0
M  V30 6995 C 634.173 5.36025 4.23281 0
M  V30 6996 O 633.861 6.66465 4.49533 0
M  V30 6997 H 633.593 0.311196 0.600111 0
M  V30 6998 H 636.147 1.47257 1.43194 0
M  V30 6999 H 634.377 0.575537 3.82393 0
M  V30 7000 H 636.066 0.978187 3.93937 0
M  V30 7001 H 636.832 3.41224 3.44661 0
M  V30 7002 H 632.711 2.31214 3.98825 0
M  V30 7003 H 636.255 5.7638 3.92978 0
M  V30 7004 H 632.152 4.6547 4.47223 0
M  V30 7005 H 632.92 6.72095 4.67152 0
M  V30 7006 N 635.583 -1.29855 0.893053 0
M  V30 7007 C 636.831 -1.9544 0.514566 0
M  V30 7008 C 637.152 -1.70795 -0.940959 0
M  V30 7009 O 636.422 -1.03601 -1.66264 0
M  V30 7010 H 635.002 -0.723137 0.187302 0
M  V30 7011 H 637.664 -1.58234 1.13789 0
M  V30 7012 H 636.76 -3.04341 0.691581 0
M  V30 7013 N 637.061 -0.65484 -1.43351 0
M  V30 7014 C 638.301 -0.172514 -2.03671 0
M  V30 7015 C 638.665 1.19154 -1.50553 0
M  V30 7016 O 639.866 1.76737 -2.02528 0
M  V30 7017 C 638.137 -0.183982 -3.56926 0
M  V30 7018 S 639.696 0.230262 -4.38195 0
M  V30 7019 H 636.514 -0.0727503 -0.707268 0
M  V30 7020 H 639.116 -0.863537 -1.75395 0
M  V30 7021 H 637.82 -1.17945 -3.93087 0
M  V30 7022 H 637.351 0.527527 -3.89847 0
M  V30 7023 H 639.366 1.46874 -4.73965 0
M  V30 7024 N 638.539 1.52521 -0.396863 0
M  V30 7025 C 639.486 2.26671 0.434624 0
M  V30 7026 C 640.456 1.28584 1.05144 0
M  V30 7027 O 641.641 1.57426 1.07804 0
M  V30 7028 C 638.781 3.08234 1.55196 0
M  V30 7029 C 637.894 4.21261 0.957262 0
M  V30 7030 C 637.029 4.90205 2.04627 0
M  V30 7031 C 636.068 5.95213 1.42787 0
M  V30 7032 N 635.205 6.57723 2.45651 0
M  V30 7033 H 640.045 2.973 -0.204139 0
M  V30 7034 H 637.582 1.46669 -0.112505 0
M  V30 7035 H 639.54 3.53819 2.2106 0
M  V30 7036 H 638.17 2.398 2.16092 0
M  V30 7037 H 637.222 3.79935 0.188005 0
M  V30 7038 H 638.534 4.96624 0.465416 0
M  V30 7039 H 637.688 5.39133 2.78246 0
M  V30 7040 H 636.427 4.14383 2.57174 0
M  V30 7041 H 635.432 5.45616 0.676968 0
M  V30 7042 H 636.657 6.72972 0.910255 0
M  V30 7043 H 634.603 5.84737 2.97353 0
M  V30 7044 H 634.52 7.28723 2.01243 0
M  V30 7045 H 635.788 7.11293 3.18876 0
M  V30 7046 N 640.017 0.126909 1.57088 0
M  V30 7047 C 641.263 -0.529952 1.95753 0
M  V30 7048 C 641.596 -1.65823 1.01077 0
M  V30 7049 O 640.871 -1.94437 0.0494162 0
M  V30 7050 C 641.154 -1.05517 3.44294 0
M  V30 7051 C 641.007 0.0702253 4.49745 0
M  V30 7052 C 642.326 -1.9435 3.94862 0
M  V30 7053 H 639.445 -0.191168 0.711775 0
M  V30 7054 H 642.087 0.204071 1.88901 0
M  V30 7055 H 640.237 -1.68069 3.50264 0
M  V30 7056 H 641.909 0.705834 4.55868 0
M  V30 7057 H 640.152 0.732259 4.27575 0
M  V30 7058 H 640.823 -0.338642 5.5096 0
M  V30 7059 H 643.299 -1.41658 3.91244 0
M  V30 7060 H 642.175 -2.28015 4.993 0
M  V30 7061 H 642.436 -2.87299 3.36024 0
M  V30 7062 N 641.495 -1.56914 -0.146875 0
M  V30 7063 C 642.405 -2.0154 -1.20079 0
M  V30 7064 C 643.421 -0.930838 -1.47008 0
M  V30 7065 O 644.597 -1.24032 -1.58676 0
M  V30 7066 C 641.662 -2.38715 -2.51428 0
M  V30 7067 C 640.723 -3.6112 -2.32145 0
M  V30 7068 C 639.956 -3.96512 -3.57231 0
M  V30 7069 O 640.179 -3.32566 -4.63418 0
M  V30 7070 O 639.113 -4.89758 -3.49887 0
M  V30 7071 H 642.939 -2.91506 -0.851924 0
M  V30 7072 H 640.524 -1.45106 -0.355607 0
M  V30 7073 H 642.406 -2.63485 -3.28867 0
M  V30 7074 H 641.081 -1.51903 -2.85845 0
M  V30 7075 H 639.988 -3.41536 -1.52656 0
M  V30 7076 H 641.321 -4.48549 -2.02644 0
M  V30 7077 N 642.974 0.416227 -1.52004 0
M  V30 7078 C 644.199 1.19029 -1.69843 0
M  V30 7079 C 644.624 1.83708 -0.404103 0
M  V30 7080 O 643.982 1.69711 0.637787 0
M  V30 7081 C 644.03 2.23439 -2.83032 0
M  V30 7082 O 643.134 3.29419 -2.48106 0
M  V30 7083 H 642.475 0.347785 -0.565634 0
M  V30 7084 H 645.005 0.488871 -1.98674 0
M  V30 7085 H 645.015 2.67884 -3.07737 0
M  V30 7086 H 643.69 1.75745 -3.76944 0
M  V30 7087 H 642.267 2.90303 -2.34048 0
M  V30 7088 N 644.452 1.42507 0.673017 0
M  V30 7089 C 645.701 1.42364 1.42883 0
M  V30 7090 C 646.014 0.0441598 1.9555 0
M  V30 7091 O 647.22 -0.0798679 2.71382 0
M  V30 7092 C 645.676 2.5043 2.58482 0
M  V30 7093 C 645.284 3.94392 2.12506 0
M  V30 7094 C 647.028 2.59455 3.35981 0
M  V30 7095 C 644.935 4.93964 3.25198 0
M  V30 7096 H 643.865 0.52951 0.536782 0
M  V30 7097 H 646.516 1.68422 0.728448 0
M  V30 7098 H 644.898 2.1754 3.30896 0
M  V30 7099 H 646.072 4.36645 1.47233 0
M  V30 7100 H 644.387 3.89233 1.4794 0
M  V30 7101 H 646.984 3.31025 4.19912 0
M  V30 7102 H 647.327 1.63869 3.82691 0
M  V30 7103 H 647.86 2.91549 2.70637 0
M  V30 7104 H 644.599 5.91034 2.83477 0
M  V30 7105 H 644.119 4.56341 3.89247 0
M  V30 7106 H 645.798 5.15763 3.90637 0
M  V30 7107 N 645.93 -0.909495 1.28709 0
M  V30 7108 C 647.16 -1.69027 1.188 0
M  V30 7109 C 647.568 -1.87469 -0.255329 0
M  V30 7110 O 646.911 -1.40458 -1.18394 0
M  V30 7111 C 646.973 -3.10064 1.81936 0
M  V30 7112 C 646.637 -3.14891 3.31199 0
M  V30 7113 C 647.634 -2.95768 4.27571 0
M  V30 7114 C 645.319 -3.37269 3.7223 0
M  V30 7115 C 647.313 -2.98942 5.6295 0
M  V30 7116 C 645 -3.40074 5.07733 0
M  V30 7117 C 645.998 -3.20932 6.02903 0
M  V30 7118 O 645.686 -3.23507 7.35934 0
M  V30 7119 H 645.418 -0.535014 0.413203 0
M  V30 7120 H 647.972 -1.14645 1.70428 0
M  V30 7121 H 646.202 -3.66005 1.24808 0
M  V30 7122 H 647.891 -3.70185 1.66486 0
M  V30 7123 H 648.657 -2.78302 3.97206 0
M  V30 7124 H 644.536 -3.51212 2.98615 0
M  V30 7125 H 648.08 -2.83919 6.37209 0
M  V30 7126 H 643.977 -3.5707 5.37747 0
M  V30 7127 H 644.745 -3.3984 7.44615 0
M  V30 7128 N 647.408 -1.11026 -1.11852 0
M  V30 7129 C 648.338 -0.786812 -2.19844 0
M  V30 7130 C 649.319 0.242935 -1.68356 0
M  V30 7131 O 650.504 0.107355 -1.93903 0
M  V30 7132 C 647.634 -0.224516 -3.46574 0
M  V30 7133 C 646.588 -1.18564 -4.1125 0
M  V30 7134 C 645.914 -0.484261 -5.32503 0
M  V30 7135 C 647.214 -2.53465 -4.56676 0
M  V30 7136 H 648.908 -1.68978 -2.47158 0
M  V30 7137 H 646.454 -0.813906 -1.18792 0
M  V30 7138 H 648.407 0.0139435 -4.21398 0
M  V30 7139 H 647.131 0.713722 -3.18706 0
M  V30 7140 H 645.79 -1.40966 -3.38414 0
M  V30 7141 H 645.438 0.458646 -5.00905 0
M  V30 7142 H 645.138 -1.12526 -5.76725 0
M  V30 7143 H 646.662 -0.254492 -6.10069 0
M  V30 7144 H 648.076 -2.35177 -5.22843 0
M  V30 7145 H 646.473 -3.13507 -5.11697 0
M  V30 7146 H 647.543 -3.13008 -3.70343 0
M  V30 7147 N 648.886 1.2938 -0.899927 0
M  V30 7148 C 649.834 2.29675 -0.367698 0
M  V30 7149 C 650.828 1.60787 0.533282 0
M  V30 7150 O 652.034 1.75126 0.416058 0
M  V30 7151 H 648.409 0.745284 -0.100279 0
M  V30 7152 H 650.38 2.72008 -1.22696 0
M  V30 7153 C 649.129 3.45512 0.389483 0
M  V30 7154 H 648.452 3.98713 -0.294575 0
M  V30 7155 H 649.892 4.17725 0.726744 0
M  V30 7156 C 648.351 2.969 1.59223 0
M  V30 7157 O 648.881 2.98195 2.69152 0
M  V30 7158 N 647.087 2.52728 1.43447 0
M  V30 7159 H 646.634 2.51873 0.540148 0
M  V30 7160 H 646.592 2.20561 2.24054 0
M  V30 7161 N 650.364 0.662433 1.43002 0
M  V30 7162 C 651.61 0.179857 2.02001 0
M  V30 7163 C 651.943 -1.20625 1.52195 0
M  V30 7164 O 651.218 -1.80726 0.718911 0
M  V30 7165 C 651.501 0.200845 3.59539 0
M  V30 7166 C 651.354 1.62153 4.19555 0
M  V30 7167 C 652.673 -0.457738 4.37713 0
M  V30 7168 H 649.792 0.0668305 0.733964 0
M  V30 7169 H 652.434 0.84487 1.70182 0
M  V30 7170 H 650.584 -0.365411 3.86778 0
M  V30 7171 H 652.256 2.23908 4.03315 0
M  V30 7172 H 650.499 2.16601 3.75854 0
M  V30 7173 H 651.17 1.58799 5.28665 0
M  V30 7174 H 653.646 0.0241495 4.16093 0
M  V30 7175 H 652.522 -0.412363 5.47349 0
M  V30 7176 H 652.783 -1.53336 4.14657 0
M  V30 7177 N 651.842 -1.52309 0.404946 0
M  V30 7178 C 652.752 -2.30634 -0.429555 0
M  V30 7179 C 653.768 -1.38187 -1.05737 0
M  V30 7180 O 654.944 -1.71261 -1.05979 0
M  V30 7181 C 652.009 -3.10947 -1.53339 0
M  V30 7182 C 651.07 -4.19126 -0.929065 0
M  V30 7183 C 650.303 -4.95601 -1.9803 0
M  V30 7184 O 650.526 -4.72331 -3.1978 0
M  V30 7185 O 649.46 -5.80551 -1.58886 0
M  V30 7186 H 653.286 -3.0298 0.208963 0
M  V30 7187 H 650.871 -1.4845 0.168255 0
M  V30 7188 H 652.753 -3.60974 -2.1743 0
M  V30 7189 H 651.428 -2.41399 -2.15658 0
M  V30 7190 H 650.335 -3.73257 -0.250982 0
M  V30 7191 H 651.668 -4.90955 -0.349855 0
M  V30 7192 N 653.32 -0.135238 -1.57019 0
M  V30 7193 C 654.283 0.794707 -2.14981 0
M  V30 7194 C 655.283 1.18342 -1.08866 0
M  V30 7195 O 656.473 1.10627 -1.34563 0
M  V30 7196 C 653.605 2.07685 -2.70333 0
M  V30 7197 H 654.798 0.290696 -2.98488 0
M  V30 7198 H 652.351 0.114128 -1.55883 0
M  V30 7199 H 653.086 2.6248 -1.9046 0
M  V30 7200 H 652.871 1.80745 -3.47957 0
M  V30 7201 H 654.361 2.74127 -3.1503 0
M  V30 7202 N 654.798 1.5699 0.138552 0
M  V30 7203 C 656.044 1.84081 0.85099 0
M  V30 7204 C 656.377 0.718107 1.80435 0
M  V30 7205 O 655.652 -0.277633 1.92508 0
M  V30 7206 C 655.935 3.21699 1.61808 0
M  V30 7207 C 655.788 4.44544 0.685633 0
M  V30 7208 C 657.107 3.5664 2.57868 0
M  V30 7209 H 654.226 0.669592 0.307922 0
M  V30 7210 H 656.868 1.89646 0.11588 0
M  V30 7211 H 655.018 3.17086 2.24474 0
M  V30 7212 H 656.69 4.61248 0.0693179 0
M  V30 7213 H 654.933 4.338 -0.00421993 0
M  V30 7214 H 655.604 5.3746 1.25858 0
M  V30 7215 H 658.08 3.61918 2.05316 0
M  V30 7216 H 656.956 4.53946 3.08584 0
M  V30 7217 H 657.217 2.83036 3.39622 0
M  V30 7218 N 656.276 -0.40816 1.52223 0
M  V30 7219 C 657.224 -1.51788 1.76248 0
M  V30 7220 C 658.218 -1.57264 0.629638 0
M  V30 7221 O 659.424 -1.60659 0.811704 0
M  V30 7222 H 655.799 -0.504823 0.557367 0
M  V30 7223 H 657.77 -1.2871 2.69214 0
M  V30 7224 C 656.519 -2.89145 1.93107 0
M  V30 7225 H 655.842 -2.85674 2.79697 0
M  V30 7226 H 657.282 -3.66082 2.13916 0
M  V30 7227 C 655.741 -3.29581 0.698431 0
M  V30 7228 O 656.271 -4.01479 -0.133238 0
M  V30 7229 N 654.477 -2.85651 0.53405 0
M  V30 7230 H 654.024 -2.2731 1.21194 0
M  V30 7231 H 653.982 -3.13065 -0.289387 0
M  V30 7232 N 657.755 -1.42862 -0.66545 0
M  V30 7233 C 658.983 -1.47246 -1.45349 0
M  V30 7234 C 659.398 -0.0865944 -1.88601 0
M  V30 7235 O 658.755 0.900652 -1.58728 0
M  V30 7236 C 658.806 -2.40772 -2.6965 0
M  V30 7237 O 658.527 -3.73968 -2.2821 0
M  V30 7238 C 660.028 -2.54272 -3.63126 0
M  V30 7239 H 657.248 -0.500497 -0.446927 0
M  V30 7240 H 659.792 -1.87477 -0.816871 0
M  V30 7241 H 657.947 -2.0377 -3.29479 0
M  V30 7242 H 658.361 -4.24146 -3.08546 0
M  V30 7243 H 659.835 -3.23815 -4.47043 0
M  V30 7244 H 660.312 -1.58364 -4.09656 0
M  V30 7245 H 660.918 -2.92036 -3.09185 0
M  V30 7246 N 659.233 0.902656 -1.29189 0
M  V30 7247 C 660.183 1.99326 -1.10695 0
M  V30 7248 C 661.167 1.60877 -0.0272521 0
M  V30 7249 O 662.359 1.75245 -0.248635 0
M  V30 7250 C 659.488 3.34265 -0.78244 0
M  V30 7251 C 658.574 3.79081 -1.90153 0
M  V30 7252 N 658.965 3.96162 -3.14466 0
M  V30 7253 C 657.263 4.08333 -1.79389 0
M  V30 7254 C 657.964 4.3388 -3.87458 0
M  V30 7255 N 656.94 4.42759 -3.15381 0
M  V30 7256 H 660.742 2.10597 -2.05003 0
M  V30 7257 H 658.256 1.09127 -1.20271 0
M  V30 7258 H 660.253 4.12097 -0.630996 0
M  V30 7259 H 658.913 3.2434 0.152754 0
M  V30 7260 H 659.924 3.81775 -3.49954 0
M  V30 7261 H 656.601 4.06982 -0.931217 0
M  V30 7262 H 657.991 4.54965 -4.94425 0
M  V30 7263 N 660.711 1.11618 1.11262 0
M  V30 7264 C 662.127 0.850468 1.35053 0
M  V30 7265 C 662.327 -0.523868 1.94571 0
M  V30 7266 O 661.383 -1.2743 2.17986 0
M  V30 7267 C 662.696 1.96005 2.28041 0
M  V30 7268 C 664.244 1.98993 2.416 0
M  V30 7269 C 664.719 3.0916 3.37911 0
M  V30 7270 N 666.21 3.08547 3.45475 0
M  V30 7271 C 666.945 3.9043 4.19943 0
M  V30 7272 N 666.441 4.8228 4.97371 0
M  V30 7273 N 668.234 3.786 4.15474 0
M  V30 7274 H 660.385 2.00184 0.709932 0
M  V30 7275 H 662.648 0.870635 0.375099 0
M  V30 7276 H 662.354 2.9499 1.91503 0
M  V30 7277 H 662.228 1.85782 3.28275 0
M  V30 7278 H 664.615 1.00633 2.77411 0
M  V30 7279 H 664.696 2.13292 1.4121 0
M  V30 7280 H 664.34 4.07748 3.02827 0
M  V30 7281 H 664.27 2.92102 4.3816 0
M  V30 7282 H 666.761 2.42 2.90249 0
M  V30 7283 H 667.074 5.41289 5.51567 0
M  V30 7284 H 665.419 4.863 4.96525 0
M  V30 7285 H 668.61 3.06185 3.54074 0
M  V30 7286 H 668.783 4.42647 4.73253 0
M  V30 7287 N 662.189 -1.289 0.906776 0
M  V30 7288 C 663.099 -2.31256 0.394707 0
M  V30 7289 C 664.115 -1.66231 -0.514121 0
M  V30 7290 O 665.291 -1.97347 -0.401994 0
M  V30 7291 C 662.356 -3.44792 -0.363191 0
M  V30 7292 C 661.417 -4.25391 0.578012 0
M  V30 7293 C 660.65 -5.33506 -0.143811 0
M  V30 7294 O 660.873 -5.53786 -1.36665 0
M  V30 7295 O 659.807 -5.99673 0.5173 0
M  V30 7296 H 663.633 -2.77051 1.24405 0
M  V30 7297 H 661.218 -1.33466 0.671346 0
M  V30 7298 H 663.1 -4.139 -0.791503 0
M  V30 7299 H 661.775 -3.01093 -1.18848 0
M  V30 7300 H 660.682 -3.58899 1.05558 0
M  V30 7301 H 662.015 -4.72752 1.36992 0
M  V30 7302 N 663.667 -0.670007 -1.42649 0
M  V30 7303 C 664.614 0.0112928 -2.30797 0
M  V30 7304 C 665.584 0.797627 -1.45695 0
M  V30 7305 O 666.769 0.770845 -1.74535 0
M  V30 7306 C 663.909 0.95998 -3.31479 0
M  V30 7307 C 663.022 0.167975 -4.31673 0
M  V30 7308 C 662.157 1.11198 -5.19431 0
M  V30 7309 C 661.196 0.311381 -6.11307 0
M  V30 7310 N 660.333 1.20784 -6.91633 0
M  V30 7311 H 665.173 -0.746231 -2.88505 0
M  V30 7312 H 662.71 -0.379739 -1.42114 0
M  V30 7313 H 664.668 1.52379 -3.88377 0
M  V30 7314 H 663.298 1.68419 -2.75382 0
M  V30 7315 H 662.35 -0.512385 -3.76933 0
M  V30 7316 H 663.662 -0.453814 -4.96731 0
M  V30 7317 H 662.816 1.74587 -5.81037 0
M  V30 7318 H 661.555 1.76766 -4.54538 0
M  V30 7319 H 660.56 -0.335758 -5.48774 0
M  V30 7320 H 661.785 -0.340135 -6.78248 0
M  V30 7321 H 659.731 1.85001 -6.29373 0
M  V30 7322 H 659.648 0.64102 -7.53277 0
M  V30 7323 H 660.916 1.82936 -7.5773 0
M  V30 7324 N 665.145 1.52092 -0.413018 0
M  V30 7325 C 666.556 1.86617 0.0556967 0
M  V30 7326 C 666.907 1.33156 1.44097 0
M  V30 7327 O 666.032 0.672417 2.05688 0
M  V30 7328 C 666.627 3.38628 0.107844 0
M  V30 7329 C 665.186 3.72778 0.520904 0
M  V30 7330 C 664.333 2.75649 -0.302109 0
M  V30 7331 H 667.284 1.45663 -0.629919 0
M  V30 7332 H 667.305 3.69152 0.922324 0
M  V30 7333 H 666.817 3.77508 -0.900506 0
M  V30 7334 H 664.918 3.39478 1.53575 0
M  V30 7335 H 665.031 4.7838 0.262591 0
M  V30 7336 H 663.395 2.53603 0.236115 0
M  V30 7337 H 664.178 3.17369 -1.30888 0
M  V30 7338 N 666.623 0.143563 1.56945 0
M  V30 7339 C 667.533 -0.810562 2.20152 0
M  V30 7340 C 668.549 -1.27431 1.1848 0
M  V30 7341 O 669.725 -1.33221 1.51044 0
M  V30 7342 C 666.79 -2.03353 2.80799 0
M  V30 7343 C 665.851 -1.61936 3.97587 0
M  V30 7344 C 665.084 -2.78403 4.55332 0
M  V30 7345 O 665.307 -3.94521 4.11958 0
M  V30 7346 O 664.241 -2.54073 5.45647 0
M  V30 7347 H 668.067 -0.30253 3.02189 0
M  V30 7348 H 665.652 -0.0832925 1.49168 0
M  V30 7349 H 667.534 -2.74932 3.19359 0
M  V30 7350 H 666.209 -2.53116 2.01777 0
M  V30 7351 H 665.116 -0.873904 3.6375 0
M  V30 7352 H 666.449 -1.16892 4.78118 0
M  V30 7353 N 668.101 -1.57061 -0.130224 0
M  V30 7354 C 669.049 -2.00486 -1.17933 0
M  V30 7355 C 670.043 -0.899933 -1.43519 0
M  V30 7356 O 671.249 -1.08514 -1.43613 0
M  V30 7357 H 667.624 -0.638441 -0.397363 0
M  V30 7358 H 669.595 -2.87848 -0.786501 0
M  V30 7359 C 668.344 -2.41565 -2.50084 0
M  V30 7360 H 667.667 -3.26148 -2.31231 0
M  V30 7361 H 669.107 -2.75757 -3.22078 0
M  V30 7362 C 667.566 -1.27485 -3.11848 0
M  V30 7363 O 668.096 -0.584688 -3.97422 0
M  V30 7364 N 666.302 -1.03478 -2.71552 0
M  V30 7365 H 665.849 -1.59779 -2.02061 0
M  V30 7366 H 665.807 -0.27341 -3.13209 0
M  V30 7367 N 669.579 0.400081 -1.52437 0
M  V30 7368 C 670.825 1.14788 -1.67187 0
M  V30 7369 C 671.158 1.89928 -0.405074 0
M  V30 7370 O 670.433 1.85118 0.596804 0
M  V30 7371 C 670.716 2.13507 -2.89977 0
M  V30 7372 C 670.569 1.42204 -4.2673 0
M  V30 7373 C 671.888 3.14069 -3.083 0
M  V30 7374 H 669.007 0.415939 -0.608411 0
M  V30 7375 H 671.649 0.432542 -1.85011 0
M  V30 7376 H 669.799 2.7451 -2.74912 0
M  V30 7377 H 671.471 0.842503 -4.53541 0
M  V30 7378 H 669.714 0.723939 -4.27717 0
M  V30 7379 H 670.385 2.14281 -5.08712 0
M  V30 7380 H 672.861 2.63148 -3.22323 0
M  V30 7381 H 671.737 3.80398 -3.95713 0
M  V30 7382 H 671.998 3.82309 -2.22018 0
M  V30 7383 N 671.057 1.43213 0.657864 0
M  V30 7384 C 672.334 1.35063 1.41483 0
M  V30 7385 C 672.714 -0.0038314 2.111 0
M  V30 7386 O 672.062 -1.02018 2.04462 0
M  V30 7387 C 672.272 2.53061 2.40335 0
M  V30 7388 C 673.62 2.9594 3.04474 0
M  V30 7389 O 674.644 2.53074 2.50663 0
M  V30 7390 O 673.503 3.70184 4.02027 0
M  V30 7391 H 670.597 0.533517 0.631893 0
M  V30 7392 H 673.143 1.55253 0.685162 0
M  V30 7393 H 671.915 3.43283 1.87809 0
M  V30 7394 H 671.538 2.34945 3.20759 0
M  V30 7395 N 672.536 -0.895792 1.29666 0
M  V30 7396 C 673.785 -1.64131 1.17234 0
M  V30 7397 C 674.098 -1.93665 -0.274416 0
M  V30 7398 O 675.304 -2.66472 -0.520105 0
M  V30 7399 C 673.76 -2.95764 2.05065 0
M  V30 7400 C 673.368 -2.7381 3.54587 0
M  V30 7401 C 675.112 -3.737 2.01367 0
M  V30 7402 C 673.019 -4.01194 4.34508 0
M  V30 7403 H 671.949 -0.615742 0.435175 0
M  V30 7404 H 674.6 -0.992626 1.54335 0
M  V30 7405 H 672.982 -3.61867 1.60837 0
M  V30 7406 H 674.156 -2.16277 4.06892 0
M  V30 7407 H 672.471 -2.09265 3.59996 0
M  V30 7408 H 675.068 -4.68152 2.58337 0
M  V30 7409 H 675.411 -4.04245 0.994575 0
M  V30 7410 H 675.944 -3.14444 2.43659 0
M  V30 7411 H 672.683 -3.75813 5.37071 0
M  V30 7412 H 672.203 -4.58272 3.86971 0
M  V30 7413 H 673.882 -4.69307 4.45376 0
M  V30 7414 N 674.014 -1.12206 -1.10668 0
M  V30 7415 C 675.242 -0.898635 -1.86366 0
M  V30 7416 C 675.657 0.551991 -1.80551 0
M  V30 7417 O 675.014 1.38152 -1.19249 0
M  V30 7418 C 675.065 -1.36199 -3.34861 0
M  V30 7419 O 674.786 -2.75576 -3.40573 0
M  V30 7420 C 676.287 -1.17515 -4.2744 0
M  V30 7421 H 673.507 -0.321281 -0.589084 0
M  V30 7422 H 676.051 -1.49142 -1.39918 0
M  V30 7423 H 674.206 -0.81249 -3.78784 0
M  V30 7424 H 674.62 -2.95851 -4.33096 0
M  V30 7425 H 676.094 -1.54827 -5.29842 0
M  V30 7426 H 676.571 -0.115486 -4.39048 0
M  V30 7427 H 677.177 -1.71203 -3.89319 0
M  V30 7428 N 675.492 1.28418 -0.913599 0
M  V30 7429 C 676.908 1.47411 -0.611728 0
M  V30 7430 C 677.108 1.83018 0.843008 0
M  V30 7431 O 676.164 1.93505 1.6221 0
M  V30 7432 C 677.477 2.57703 -1.5495 0
M  V30 7433 C 679.025 2.71572 -1.5562 0
M  V30 7434 C 679.5 3.85008 -2.48058 0
M  V30 7435 N 680.991 3.92361 -2.46184 0
M  V30 7436 C 681.726 4.79516 -3.14407 0
M  V30 7437 N 681.222 5.71262 -3.91958 0
M  V30 7438 N 683.015 4.73125 -3.03495 0
M  V30 7439 H 675.166 1.03585 -1.85429 0
M  V30 7440 H 677.429 0.515907 -0.795326 0
M  V30 7441 H 677.135 2.38298 -2.58663 0
M  V30 7442 H 677.009 3.54801 -1.28048 0
M  V30 7443 H 679.396 2.90366 -0.526441 0
M  V30 7444 H 679.477 1.75006 -1.86565 0
M  V30 7445 H 679.121 3.66969 -3.51136 0
M  V30 7446 H 679.051 4.80971 -2.14416 0
M  V30 7447 H 681.542 3.26749 -1.89851 0
M  V30 7448 H 681.855 6.34593 -4.41034 0
M  V30 7449 H 680.2 5.71103 -3.96063 0
M  V30 7450 H 683.391 4.00442 -2.42413 0
M  V30 7451 H 683.564 5.40834 -3.56935 0
M  V30 7452 N 676.97 0.677563 1.42291 0
M  V30 7453 C 677.88 0.000962654 2.346 0
M  V30 7454 C 678.896 -0.785833 1.55244 0
M  V30 7455 O 680.072 -0.727523 1.87801 0
M  V30 7456 C 677.137 -0.936746 3.33805 0
M  V30 7457 C 676.198 -0.144173 4.29058 0
M  V30 7458 C 675.431 -1.03722 5.23524 0
M  V30 7459 O 675.654 -2.27675 5.22992 0
M  V30 7460 O 674.588 -0.496542 5.99848 0
M  V30 7461 H 678.414 0.761397 2.94001 0
M  V30 7462 H 675.999 0.43781 1.42841 0
M  V30 7463 H 677.881 -1.47497 3.94744 0
M  V30 7464 H 676.556 -1.67698 2.76874 0
M  V30 7465 H 675.463 0.438224 3.71524 0
M  V30 7466 H 676.796 0.55701 4.89038 0
M  V30 7467 N 678.448 -1.51871 0.421078 0
M  V30 7468 C 679.859 -1.86644 -0.0457991 0
M  V30 7469 C 680.21 -1.33919 -1.43388 0
M  V30 7470 O 679.335 -0.683316 -2.05328 0
M  V30 7471 C 679.93 -3.38681 -0.0898844 0
M  V30 7472 C 678.489 -3.73049 -0.501127 0
M  V30 7473 C 677.636 -2.75485 0.316723 0
M  V30 7474 H 680.587 -1.45327 0.637635 0
M  V30 7475 H 680.608 -3.69636 -0.902734 0
M  V30 7476 H 680.12 -3.77025 0.920513 0
M  V30 7477 H 678.221 -3.40288 -1.51773 0
M  V30 7478 H 678.334 -4.78512 -0.237217 0
M  V30 7479 H 676.698 -2.53725 -0.222663 0
M  V30 7480 H 677.481 -3.16671 1.32569 0
M  V30 7481 N 679.926 -0.151884 -1.56866 0
M  V30 7482 C 680.836 0.798876 -2.20579 0
M  V30 7483 C 681.852 1.268 -1.19154 0
M  V30 7484 O 683.028 1.32418 -1.51748 0
M  V30 7485 C 680.093 2.01861 -2.81874 0
M  V30 7486 C 679.154 1.59825 -3.9844 0
M  V30 7487 C 678.387 2.75984 -4.56802 0
M  V30 7488 O 678.61 3.92331 -4.14044 0
M  V30 7489 O 677.544 2.51175 -5.46987 0
M  V30 7490 H 681.37 0.2865 -3.02346 0
M  V30 7491 H 678.955 0.0753806 -1.4921 0
M  V30 7492 H 680.837 2.73235 -3.20813 0
M  V30 7493 H 679.512 2.52042 -2.03117 0
M  V30 7494 H 678.419 0.854601 -3.64208 0
M  V30 7495 H 679.752 1.14355 -4.78731 0
M  V30 7496 N 681.404 1.57128 0.121893 0
M  V30 7497 C 682.314 2.03425 1.16857 0
M  V30 7498 C 683.33 0.954108 1.45509 0
M  V30 7499 O 684.506 1.26541 1.56682 0
M  V30 7500 C 681.571 2.42685 2.47599 0
M  V30 7501 C 680.632 3.64767 2.2637 0
M  V30 7502 C 679.865 4.02145 3.50878 0
M  V30 7503 O 680.088 3.39897 4.58068 0
M  V30 7504 O 679.022 4.95262 3.42051 0
M  V30 7505 H 682.848 2.92825 0.80544 0
M  V30 7506 H 680.433 1.45654 0.332477 0
M  V30 7507 H 682.315 2.68684 3.24634 0
M  V30 7508 H 680.99 1.56432 2.83392 0
M  V30 7509 H 679.897 3.43922 1.47203 0
M  V30 7510 H 681.23 4.51716 1.95482 0
M  V30 7511 N 682.882 -0.391992 1.52647 0
M  V30 7512 C 683.845 -1.46135 1.7657 0
M  V30 7513 C 684.845 -1.47701 0.635698 0
M  V30 7514 O 686.035 -1.48924 0.903728 0
M  V30 7515 C 683.167 -2.85443 1.86374 0
M  V30 7516 H 684.36 -1.26208 2.72051 0
M  V30 7517 H 681.913 -0.623549 1.43323 0
M  V30 7518 H 682.648 -3.10718 0.928685 0
M  V30 7519 H 682.433 -2.85708 2.68539 0
M  V30 7520 H 683.923 -3.62933 2.06566 0
M  V30 7521 N 684.36 -1.4356 -0.65026 0
M  V30 7522 C 685.29 -1.51758 -1.77459 0
M  V30 7523 C 686.271 -0.372019 -1.65982 0
M  V30 7524 O 687.456 -0.589627 -1.85033 0
M  V30 7525 C 684.586 -1.44302 -3.15902 0
M  V30 7526 C 683.54 -2.57138 -3.42146 0
M  V30 7527 C 682.866 -2.34735 -4.8042 0
M  V30 7528 C 684.166 -3.99373 -3.36598 0
M  V30 7529 H 685.86 -2.45863 -1.70855 0
M  V30 7530 H 683.406 -1.18333 -0.820566 0
M  V30 7531 H 685.359 -1.48641 -3.94314 0
M  V30 7532 H 684.083 -0.467026 -3.23244 0
M  V30 7533 H 682.742 -2.52157 -2.66106 0
M  V30 7534 H 682.39 -1.35372 -4.84441 0
M  V30 7535 H 682.09 -3.10375 -4.9894 0
M  V30 7536 H 683.614 -2.40862 -5.61086 0
M  V30 7537 H 685.028 -4.05826 -4.04942 0
M  V30 7538 H 683.425 -4.75063 -3.66654 0
M  V30 7539 H 684.495 -4.243 -2.34729 0
M  V30 7540 N 685.838 0.888903 -1.30139 0
M  V30 7541 C 687.115 1.62145 -1.094 0
M  V30 7542 C 687.495 2.08041 0.358091 0
M  V30 7543 O 686.843 1.84438 1.34888 0
M  V30 7544 C 687.053 2.794 -2.09133 0
M  V30 7545 C 688.401 3.49826 -2.40638 0
M  V30 7546 O 689.425 2.89583 -2.07412 0
M  V30 7547 O 688.284 4.58457 -2.97455 0
M  V30 7548 H 685.378 0.712475 -0.41989 0
M  V30 7549 H 687.924 0.936023 -1.41551 0
M  V30 7550 H 686.696 2.42762 -3.06891 0
M  V30 7551 H 686.319 3.55643 -1.77776 0
M  V30 7552 N 687.317 1.12792 1.10072 0
M  V30 7553 C 688.545 0.908506 1.85886 0
M  V30 7554 C 688.96 -0.542408 1.80841 0
M  V30 7555 O 688.317 -1.37517 1.1998 0
M  V30 7556 C 688.368 1.37973 3.34134 0
M  V30 7557 O 688.089 2.77378 3.39106 0
M  V30 7558 C 689.59 1.1978 4.26811 0
M  V30 7559 H 686.81 0.3244 0.587372 0
M  V30 7560 H 689.354 1.49882 1.39125 0
M  V30 7561 H 687.509 0.832566 3.78348 0
M  V30 7562 H 687.923 2.98144 4.31521 0
M  V30 7563 H 689.397 1.57635 5.29014 0
M  V30 7564 H 689.874 0.138768 4.38981 0
M  V30 7565 H 690.48 1.73266 3.88406 0
M  V30 7566 N 688.795 -1.27931 0.920396 0
M  V30 7567 C 690.041 -1.94977 0.557832 0
M  V30 7568 C 690.374 -1.72224 -0.897365 0
M  V30 7569 O 689.649 -1.04705 -1.63912 0
M  V30 7570 C 689.932 -3.49289 0.875741 0
M  V30 7571 C 689.785 -3.81416 2.38416 0
M  V30 7572 C 691.104 -4.38486 0.376517 0
M  V30 7573 H 688.223 -0.708164 0.20414 0
M  V30 7574 H 690.865 -1.5118 1.15085 0
M  V30 7575 H 689.015 -3.86724 0.371062 0
M  V30 7576 H 690.687 -3.53813 2.95997 0
M  V30 7577 H 688.93 -3.28225 2.83639 0
M  V30 7578 H 689.601 -4.89198 2.55713 0
M  V30 7579 H 692.077 -4.08161 0.808945 0
M  V30 7580 H 690.953 -5.45296 0.627976 0
M  V30 7581 H 691.214 -4.36143 -0.723293 0
M  V30 7582 N 690.273 -0.685099 -1.4193 0
M  V30 7583 C 691.684 -0.287699 -1.8447 0
M  V30 7584 C 692.035 1.17215 -1.57338 0
M  V30 7585 O 691.16 1.89856 -1.03845 0
M  V30 7586 C 691.755 -0.515385 -3.34857 0
M  V30 7587 C 690.314 -0.172006 -3.76007 0
M  V30 7588 C 689.461 -0.802808 -2.65425 0
M  V30 7589 H 692.412 -0.88652 -1.3163 0
M  V30 7590 H 692.433 0.229251 -3.79809 0
M  V30 7591 H 691.945 -1.57796 -3.54573 0
M  V30 7592 H 690.046 0.886716 -3.61895 0
M  V30 7593 H 690.159 -0.619717 -4.75075 0
M  V30 7594 H 688.523 -0.233267 -2.5363 0
M  V30 7595 H 689.306 -1.86904 -2.87961 0
M  V30 7596 N 691.751 1.51645 -0.429126 0
M  V30 7597 C 692.714 2.26116 0.374726 0
M  V30 7598 C 693.714 1.29242 0.956714 0
M  V30 7599 O 694.904 1.53022 0.832452 0
M  V30 7600 C 692.036 3.04669 1.52937 0
M  V30 7601 H 693.229 2.9861 -0.277818 0
M  V30 7602 H 690.782 1.55236 -0.182097 0
M  V30 7603 H 691.517 2.36571 2.21821 0
M  V30 7604 H 691.302 3.75814 1.11833 0
M  V30 7605 H 692.792 3.61102 2.09751 0
M  V30 7606 N 693.229 0.160201 1.56784 0
M  V30 7607 C 694.179 -0.786461 2.14007 0
M  V30 7608 C 695.163 -1.20046 1.07134 0
M  V30 7609 O 696.355 -1.16468 1.33283 0
M  V30 7610 C 693.484 -2.02024 2.77563 0
M  V30 7611 C 692.57 -1.62874 3.91578 0
M  V30 7612 N 692.961 -0.946176 4.96871 0
M  V30 7613 C 691.259 -1.92054 4.02531 0
M  V30 7614 C 691.96 -0.755084 5.76778 0
M  V30 7615 N 690.936 -1.29307 5.27997 0
M  V30 7616 H 694.738 -0.255879 2.92784 0
M  V30 7617 H 692.252 -0.0408778 1.62349 0
M  V30 7618 H 694.249 -2.70855 3.16928 0
M  V30 7619 H 692.909 -2.55587 2.00263 0
M  V30 7620 H 693.92 -0.605455 5.14349 0
M  V30 7621 H 690.597 -2.47374 3.36322 0
M  V30 7622 H 691.987 -0.216138 6.71552 0
M  V30 7623 N 694.707 -1.5719 -0.113559 0
M  V30 7624 C 695.937 -1.89053 -0.833212 0
M  V30 7625 C 696.345 -0.750139 -1.73694 0
M  V30 7626 O 695.688 0.287808 -1.81431 0
M  V30 7627 C 695.75 -3.15986 -1.71443 0
M  V30 7628 C 695.414 -4.46271 -0.984449 0
M  V30 7629 C 696.411 -5.18897 -0.322741 0
M  V30 7630 C 694.096 -4.92963 -0.964011 0
M  V30 7631 C 696.09 -6.3644 0.349646 0
M  V30 7632 C 693.777 -6.10422 -0.287828 0
M  V30 7633 C 694.775 -6.82009 0.36784 0
M  V30 7634 O 694.463 -7.97233 1.03322 0
M  V30 7635 H 694.195 -0.630225 -0.244526 0
M  V30 7636 H 696.749 -2.05152 -0.100847 0
M  V30 7637 H 694.979 -2.95984 -2.48858 0
M  V30 7638 H 696.668 -3.33826 -2.309 0
M  V30 7639 H 697.434 -4.83875 -0.330114 0
M  V30 7640 H 693.313 -4.37143 -1.46379 0
M  V30 7641 H 696.857 -6.92254 0.861996 0
M  V30 7642 H 692.754 -6.449 -0.278237 0
M  V30 7643 H 693.522 -8.13105 0.938247 0
M  V30 7644 O 696.224 0.257811 -1.59429 0
M  V30 7645 H 696.915 0.901882 -1.71423 0
M  V30 END ATOM
M  V30 BEGIN BOND
M  V30 END BOND
M  V30 END CTAB
M  END
$$$$
