drugbank_target|P03956 Interstitial collagenase (DB00786; DB07556; DB07926; DB08403; DB08482; DB08491)
 OpenBabel12092119433D

  0  0  0     0  0            999 V3000
M  V30 BEGIN CTAB
M  V30 COUNTS 7488 7607 0 0 0
M  V30 BEGIN ATOM
M  V30 1 H -0.908 1.98254 -0.117106 0
M  V30 2 N 0 1.576 0 0
M  V30 3 C 0.933 2.03868 1.02534 0
M  V30 4 C 1.911 0.928543 1.3348 0
M  V30 5 O 3.095 1.19667 1.45644 0
M  V30 6 C 0.222 2.43627 2.35294 0
M  V30 7 C -0.732 3.65373 2.2001 0
M  V30 8 S 0.101 5.13292 1.52614 0
M  V30 9 C 1.257 5.56322 2.86805 0
M  V30 10 H 1.49 2.90518 0.631377 0
M  V30 11 H -0.977 1.52953 0.210867 0
M  V30 12 H 0.981 2.67203 3.11629 0
M  V30 13 H -0.358 1.57376 2.7183 0
M  V30 14 H -1.165 3.90944 3.18086 0
M  V30 15 H -1.563 3.418 1.51819 0
M  V30 16 H 0.729 5.58782 3.83104 0
M  V30 17 H 1.672 6.56266 2.65933 0
M  V30 18 H 2.08 4.83886 2.90714 0
M  V30 19 N 1.4781 -0.272755 1.55222 0
M  V30 20 C 2.4281 -1.33946 1.84506 0
M  V30 21 C 3.4121 -1.44682 0.70399 0
M  V30 22 O 4.6041 -1.48358 0.965338 0
M  V30 23 C 1.7331 -2.69968 2.12067 0
M  V30 24 C 0.8191 -2.63341 3.32434 0
M  V30 25 N 1.2101 -2.26335 4.52334 0
M  V30 26 C -0.4919 -2.94402 3.35028 0
M  V30 27 C 0.2091 -2.29705 5.34425 0
M  V30 28 N -0.8149 -2.68188 4.72838 0
M  V30 29 H 2.9871 -1.04343 2.74754 0
M  V30 30 H 0.5011 -0.481389 1.55101 0
M  V30 31 H 2.4981 -3.46916 2.31202 0
M  V30 32 H 1.1581 -3.00459 1.23103 0
M  V30 33 H 2.1691 -1.98309 4.78429 0
M  V30 34 H -1.1539 -3.29603 2.56257 0
M  V30 35 H 0.2361 -2.03653 6.40293 0
M  V30 36 N 2.9562 -1.48159 -0.537278 0
M  V30 37 C 4.1812 -1.59707 -1.32319 0
M  V30 38 C 4.6062 -0.254859 -1.86365 0
M  V30 39 O 3.9642 0.772378 -1.64024 0
M  V30 40 C 4.0122 -2.6412 -2.45505 0
M  V30 41 O 3.1162 -2.20774 -3.48328 0
M  V30 42 H 2.4572 -0.535791 -0.392204 0
M  V30 43 H 4.9872 -1.94092 -0.647268 0
M  V30 44 H 4.9972 -2.85166 -2.91795 0
M  V30 45 H 3.6722 -3.61567 -2.05528 0
M  V30 46 H 2.2492 -2.09911 -3.08207 0
M  V30 47 N 4.4343 0.785586 -1.36625 0
M  V30 48 C 5.6813 1.54362 -1.31067 0
M  V30 49 C 6.0093 1.94195 0.10893 0
M  V30 50 O 5.2643 1.63262 1.07908 0
M  V30 51 C 5.5633 2.83007 -2.1827 0
M  V30 52 C 5.2293 2.62294 -3.6676 0
M  V30 53 C 3.8913 2.56353 -4.0723 0
M  V30 54 C 6.2433 2.43371 -4.6089 0
M  V30 55 C 3.5713 2.29461 -5.39967 0
M  V30 56 C 5.9233 2.18005 -5.93849 0
M  V30 57 C 4.5873 2.105 -6.3344 0
M  V30 58 H 3.8573 0.564851 -0.479609 0
M  V30 59 H 6.5043 0.906028 -1.68711 0
M  V30 60 H 4.8093 3.51253 -1.73576 0
M  V30 61 H 6.5063 3.40817 -2.11292 0
M  V30 62 H 3.0963 2.67774 -3.34656 0
M  V30 63 H 7.2803 2.46959 -4.30494 0
M  V30 64 H 2.5363 2.22135 -5.69619 0
M  V30 65 H 6.7103 2.02359 -6.66351 0
M  V30 66 H 4.3373 1.89425 -7.36222 0
M  V30 67 N 5.9124 1.20967 1.01018 0
M  V30 68 C 7.3234 1.02319 1.56165 0
M  V30 69 C 7.6744 -0.418546 1.91684 0
M  V30 70 O 6.7994 -1.30096 1.72928 0
M  V30 71 C 7.3944 1.85109 2.8376 0
M  V30 72 C 5.9534 1.70809 3.35412 0
M  V30 73 C 5.1004 1.82643 2.08655 0
M  V30 74 H 8.0514 1.35065 0.833255 0
M  V30 75 H 8.0724 1.35827 3.55431 0
M  V30 76 H 7.5844 2.90035 2.57878 0
M  V30 77 H 5.6854 0.685464 3.66241 0
M  V30 78 H 5.7984 2.52467 4.07182 0
M  V30 79 H 4.1624 1.25896 2.21409 0
M  V30 80 H 4.9454 2.89066 1.85191 0
M  V30 81 N 7.3905 -1.2043 1.01659 0
M  V30 82 C 8.8015 -1.71517 0.737482 0
M  V30 83 C 9.1525 -1.81547 -0.743973 0
M  V30 84 O 8.2775 -1.47803 -1.58061 0
M  V30 85 C 8.8725 -3.11515 1.33206 0
M  V30 86 C 7.4315 -3.59912 1.10183 0
M  V30 87 C 6.5785 -2.37116 1.43776 0
M  V30 88 H 9.5295 -1.05444 1.18606 0
M  V30 89 H 9.5505 -3.73575 0.722636 0
M  V30 90 H 9.0625 -3.04182 2.41028 0
M  V30 91 H 7.1635 -3.72577 0.0412756 0
M  V30 92 H 7.2765 -4.44731 1.78188 0
M  V30 93 H 5.6405 -2.39857 0.856778 0
M  V30 94 H 6.4235 -2.32424 2.52654 0
M  V30 95 N 8.8686 -0.792821 -1.36206 0
M  V30 96 C 9.7986 -0.207853 -2.32573 0
M  V30 97 C 10.7796 0.659055 -1.56813 0
M  V30 98 O 11.9646 0.592176 -1.84951 0
M  V30 99 C 9.0946 0.655449 -3.41059 0
M  V30 100 C 8.0486 -0.111842 -4.27854 0
M  V30 101 C 7.3746 0.872274 -5.27537 0
M  V30 102 C 8.6746 -1.30299 -5.05786 0
M  V30 103 H 10.3686 -1.01294 -2.81744 0
M  V30 104 H 7.9146 -0.48854 -1.3546 0
M  V30 105 H 9.8676 1.07464 -4.07467 0
M  V30 106 H 8.5916 1.49328 -2.90463 0
M  V30 107 H 7.2506 -0.512053 -3.63006 0
M  V30 108 H 6.8986 1.70523 -4.73214 0
M  V30 109 H 6.5986 0.363291 -5.86476 0
M  V30 110 H 8.1226 1.28996 -5.96818 0
M  V30 111 H 9.5366 -0.959379 -5.65216 0
M  V30 112 H 7.9336 -1.7455 -5.74154 0
M  V30 113 H 9.0036 -2.09663 -4.37229 0
M  V30 114 N 10.3467 1.47872 -0.545128 0
M  V30 115 C 11.2767 2.32661 0.197793 0
M  V30 116 C 12.2577 1.43041 0.920504 0
M  V30 117 O 13.4427 1.71912 0.90333 0
M  V30 118 C 10.5727 3.24569 1.23582 0
M  V30 119 C 9.5267 4.23333 0.630323 0
M  V30 120 C 8.8527 5.0448 1.77211 0
M  V30 121 C 10.1527 5.20704 -0.407974 0
M  V30 122 H 11.8467 2.95024 -0.510045 0
M  V30 123 H 9.3927 1.4187 -0.246731 0
M  V30 124 H 11.3457 3.8272 1.76362 0
M  V30 125 H 10.0697 2.60236 1.97344 0
M  V30 126 H 8.7287 3.6639 0.123922 0
M  V30 127 H 8.3767 4.36561 2.49847 0
M  V30 128 H 8.0767 5.71339 1.37281 0
M  V30 129 H 9.6007 5.65487 2.3034 0
M  V30 130 H 11.0147 5.7329 0.033305 0
M  V30 131 H 9.4117 5.95699 -0.725486 0
M  V30 132 H 10.4817 4.66917 -1.30828 0
M  V30 133 N 11.8248 0.280983 1.55075 0
M  V30 134 C 12.7548 -0.597469 2.25727 0
M  V30 135 C 13.7358 -1.15417 1.24952 0
M  V30 136 O 14.9208 -1.18722 1.53684 0
M  V30 137 C 12.0508 -1.7789 2.98283 0
M  V30 138 C 11.0048 -1.35347 4.06036 0
M  V30 139 C 10.3308 -2.61846 4.66198 0
M  V30 140 C 11.6308 -0.499354 5.19907 0
M  V30 141 H 13.3248 -0.00824265 2.99399 0
M  V30 142 H 10.8708 -0.0025244 1.44 0
M  V30 143 H 12.8238 -2.39937 3.46422 0
M  V30 144 H 11.5478 -2.39405 2.22155 0
M  V30 145 H 10.2068 -0.756156 3.58717 0
M  V30 146 H 9.8548 -3.21632 3.86732 0
M  V30 147 H 9.5548 -2.3409 5.38958 0
M  V30 148 H 11.0788 -3.24732 5.1709 0
M  V30 149 H 12.4928 -1.02498 5.64063 0
M  V30 150 H 10.8898 -0.316424 5.99265 0
M  V30 151 H 11.9598 0.480459 4.82514 0
M  V30 152 N 13.3029 -1.57598 0.00835791 0
M  V30 153 C 14.2329 -2.1198 -0.979113 0
M  V30 154 C 15.2139 -1.03091 -1.35301 0
M  V30 155 O 16.3989 -1.30818 -1.43528 0
M  V30 156 C 13.5289 -2.62995 -2.26828 0
M  V30 157 C 12.4829 -3.76485 -2.03576 0
M  V30 158 C 11.8089 -4.13846 -3.38579 0
M  V30 159 C 13.1089 -5.0342 -1.39161 0
M  V30 160 H 14.8029 -2.94738 -0.526281 0
M  V30 161 H 12.3489 -1.41783 -0.251704 0
M  V30 162 H 14.3019 -2.99669 -2.96271 0
M  V30 163 H 13.0259 -1.7737 -2.7424 0
M  V30 164 H 11.6849 -3.40217 -1.36557 0
M  V30 165 H 11.3329 -3.25232 -3.83709 0
M  V30 166 H 11.0329 -4.90312 -3.23834 0
M  V30 167 H 12.5569 -4.53086 -4.09323 0
M  V30 168 H 13.9709 -5.37812 -1.98573 0
M  V30 169 H 12.3679 -5.84746 -1.34878 0
M  V30 170 H 13.4379 -4.83548 -0.361868 0
M  V30 171 N 14.781 0.264519 -1.55364 0
M  V30 172 C 15.711 1.33121 -1.91836 0
M  V30 173 C 16.692 1.51101 -0.781192 0
M  V30 174 O 17.877 1.64003 -1.04003 0
M  V30 175 C 15.007 2.68921 -2.19769 0
M  V30 176 C 13.961 2.65661 -3.35571 0
M  V30 177 C 13.287 4.05093 -3.49004 0
M  V30 178 C 14.587 2.24187 -4.71739 0
M  V30 179 H 16.281 1.02844 -2.81182 0
M  V30 180 H 13.827 0.493286 -1.35287 0
M  V30 181 H 15.78 3.43663 -2.43872 0
M  V30 182 H 14.504 3.00799 -1.27231 0
M  V30 183 H 13.163 1.93377 -3.1145 0
M  V30 184 H 12.811 4.34206 -2.53917 0
M  V30 185 H 12.511 4.03804 -4.26868 0
M  V30 186 H 14.035 4.81561 -3.75408 0
M  V30 187 H 15.449 2.88654 -4.9533 0
M  V30 188 H 13.846 2.34044 -5.52579 0
M  V30 189 H 14.916 1.19327 -4.69988 0
M  V30 190 N 16.2591 1.48442 0.529413 0
M  V30 191 C 17.5061 1.56488 1.28521 0
M  V30 192 C 17.8341 0.239042 1.93025 0
M  V30 193 O 17.0891 -0.770713 1.79885 0
M  V30 194 C 17.3881 2.6523 2.39558 0
M  V30 195 C 17.0541 4.07648 1.92702 0
M  V30 196 C 15.7161 4.46411 1.79641 0
M  V30 197 C 18.0681 4.96896 1.573 0
M  V30 198 C 15.3961 5.72226 1.29514 0
M  V30 199 C 17.7481 6.23202 1.08636 0
M  V30 200 C 16.4121 6.60821 0.941919 0
M  V30 201 H 15.6821 0.572631 0.470292 0
M  V30 202 H 18.3291 1.82161 0.59072 0
M  V30 203 H 16.6341 2.33419 3.14679 0
M  V30 204 H 18.3311 2.68671 2.97686 0
M  V30 205 H 14.9211 3.77036 2.03819 0
M  V30 206 H 19.1051 4.67626 1.66251 0
M  V30 207 H 14.3611 6.00097 1.17019 0
M  V30 208 H 18.5351 6.91753 0.803136 0
M  V30 209 H 16.1621 7.58198 0.5513 0
M  V30 210 N 17.7372 -0.778329 1.37039 0
M  V30 211 C 18.9832 -1.53817 1.33086 0
M  V30 212 C 19.3382 -1.92208 -0.0860346 0
M  V30 213 O 18.6312 -1.60713 -1.04316 0
M  V30 214 C 18.8252 -2.81845 2.19768 0
M  V30 215 C 18.6542 -2.55967 3.69744 0
M  V30 216 C 17.4242 -2.50428 4.38878 0
M  V30 217 C 19.6222 -2.2441 4.62758 0
M  V30 218 N 17.6042 -2.16564 5.74433 0
M  V30 219 C 18.9752 -2.0063 5.86641 0
M  V30 220 C 21.0302 -2.1051 4.5121 0
M  V30 221 C 19.7332 -1.64354 7.00272 0
M  V30 222 C 21.7592 -1.75634 5.64718 0
M  V30 223 C 21.1212 -1.52709 6.87648 0
M  V30 224 H 17.2202 -0.563434 0.542279 0
M  V30 225 H 19.8042 -0.908617 1.72198 0
M  V30 226 H 17.9752 -3.42649 1.82883 0
M  V30 227 H 19.7072 -3.47682 2.07122 0
M  V30 228 H 16.4622 -2.66056 3.91805 0
M  V30 229 H 16.8862 -2.02348 6.46053 0
M  V30 230 H 21.5282 -2.26919 3.56746 0
M  V30 231 H 19.2462 -1.46683 7.94676 0
M  V30 232 H 22.8322 -1.65546 5.57751 0
M  V30 233 H 21.7122 -1.2612 7.73992 0
M  V30 234 N 19.2153 -1.21501 -1.00376 0
M  V30 235 C 20.4633 -1.03095 -1.73827 0
M  V30 236 C 20.7843 0.436341 -1.90055 0
M  V30 237 O 20.0543 1.31466 -1.45236 0
M  V30 238 H 18.6343 -0.378487 -0.644016 0
M  V30 239 H 21.2963 -1.52831 -1.20949 0
M  V30 240 H 20.3923 -1.49991 -2.73695 0
M  V30 241 N 20.6934 1.19889 -1.02296 0
M  V30 242 C 21.9394 1.89701 -0.717033 0
M  V30 243 C 22.2724 1.7905 0.751989 0
M  V30 244 O 21.5474 1.17891 1.547 0
M  V30 245 C 21.8304 3.40858 -1.16136 0
M  V30 246 C 21.6834 3.60411 -2.69117 0
M  V30 247 C 23.0024 4.33876 -0.737549 0
M  V30 248 H 20.1214 0.688874 -0.261957 0
M  V30 249 H 22.7634 1.41154 -1.27183 0
M  V30 250 H 20.9134 3.82335 -0.689342 0
M  V30 251 H 22.5854 3.28145 -3.2422 0
M  V30 252 H 20.8284 3.03665 -3.0979 0
M  V30 253 H 21.4994 4.66396 -2.95261 0
M  V30 254 H 23.9754 4.00081 -1.14344 0
M  V30 255 H 22.8514 5.38242 -1.0764 0
M  V30 256 H 23.1124 4.40628 0.360436 0
M  V30 257 N 22.1715 0.800033 1.35784 0
M  V30 258 C 23.4175 0.377901 1.99248 0
M  V30 259 C 23.7505 -1.05052 1.63333 0
M  V30 260 O 23.0255 -1.72768 0.893385 0
M  V30 261 C 23.3085 0.553922 3.55814 0
M  V30 262 C 23.1615 2.0268 4.01548 0
M  V30 263 C 24.4805 -0.0244802 4.40093 0
M  V30 264 H 21.5995 0.138782 0.723815 0
M  V30 265 H 24.2415 1.00835 1.61035 0
M  V30 266 H 22.3915 0.0172398 3.88496 0
M  V30 267 H 24.0635 2.62536 3.79305 0
M  V30 268 H 22.3065 2.5256 3.52698 0
M  V30 269 H 22.9775 2.10087 5.10458 0
M  V30 270 H 25.4535 0.433775 4.13833 0
M  V30 271 H 24.3295 0.128637 5.48749 0
M  V30 272 H 24.5905 -1.11758 4.27741 0
M  V30 273 N 23.6496 -1.47581 0.552962 0
M  V30 274 C 24.8746 -2.07378 0.0300593 0
M  V30 275 C 25.2996 -1.40355 -1.25229 0
M  V30 276 O 24.6576 -0.477099 -1.7491 0
M  V30 277 C 24.7056 -3.60274 -0.153231 0
M  V30 278 O 23.8096 -3.94041 -1.21678 0
M  V30 279 H 23.1506 -0.662158 0.0494182 0
M  V30 280 H 25.6806 -1.89662 0.767434 0
M  V30 281 H 25.6906 -4.0633 -0.368761 0
M  V30 282 H 24.3656 -4.08455 0.783397 0
M  V30 283 H 22.9426 -3.59735 -0.982079 0
M  V30 284 N 25.1277 -0.289203 -1.54924 0
M  V30 285 C 26.0777 0.606939 -2.19773 0
M  V30 286 C 27.0617 1.10783 -1.16687 0
M  V30 287 O 28.2537 1.05057 -1.4245 0
M  V30 288 C 25.3827 1.78398 -2.93307 0
M  V30 289 C 24.4687 1.29961 -4.03697 0
M  V30 290 N 24.8597 0.532377 -5.0299 0
M  V30 291 C 23.1577 1.58136 -4.17024 0
M  V30 292 C 23.8587 0.275912 -5.81045 0
M  V30 293 N 22.8347 0.852365 -5.36876 0
M  V30 294 H 26.6367 0.0130779 -2.93897 0
M  V30 295 H 24.1507 -0.09341 -1.62131 0
M  V30 296 H 26.1477 2.43741 -3.38225 0
M  V30 297 H 24.8077 2.38166 -2.20697 0
M  V30 298 H 25.8187 0.17838 -5.17593 0
M  V30 299 H 22.4957 2.18738 -3.55612 0
M  V30 300 H 23.8857 -0.339502 -6.71042 0
M  V30 301 N 26.6058 1.57591 -0.0167156 0
M  V30 302 C 27.8308 1.9598 0.67872 0
M  V30 303 C 28.2558 0.892546 1.65575 0
M  V30 304 O 27.6138 -0.147772 1.80697 0
M  V30 305 C 27.6618 3.33468 1.37227 0
M  V30 306 O 26.7658 3.28954 2.48722 0
M  V30 307 H 26.1068 0.639339 0.17928 0
M  V30 308 H 28.6368 2.04463 -0.0748802 0
M  V30 309 H 28.6468 3.69417 1.7319 0
M  V30 310 H 27.3218 4.10694 0.656007 0
M  V30 311 H 25.8988 3.04705 2.14963 0
M  V30 312 N 28.0839 -0.256276 1.55502 0
M  V30 313 C 29.3309 -0.985619 1.76895 0
M  V30 314 C 29.6589 -1.85671 0.579355 0
M  V30 315 O 28.9139 -1.90744 -0.437651 0
M  V30 316 C 29.2129 -1.88432 3.03691 0
M  V30 317 C 28.8789 -1.16936 4.35473 0
M  V30 318 C 27.5409 -0.97173 4.71286 0
M  V30 319 C 29.8929 -0.661889 5.1698 0
M  V30 320 C 27.2209 -0.254179 5.86149 0
M  V30 321 C 29.5729 0.042149 6.32586 0
M  V30 322 C 28.2369 0.25134 6.67027 0
M  V30 323 H 27.5069 -0.360663 0.647304 0
M  V30 324 H 30.1539 -0.256483 1.89775 0
M  V30 325 H 28.4589 -2.68021 2.85783 0
M  V30 326 H 30.1559 -2.45015 3.1744 0
M  V30 327 H 26.7459 -1.33332 4.07333 0
M  V30 328 H 30.9299 -0.802145 4.89775 0
M  V30 329 H 26.1859 -0.0815408 6.11346 0
M  V30 330 H 30.3599 0.443049 6.94989 0
M  V30 331 H 27.9869 0.809314 7.5588 0
M  V30 332 N 29.562 -1.4872 -0.521534 0
M  V30 333 C 30.973 -1.50607 -1.10337 0
M  V30 334 C 31.324 -0.280612 -1.94183 0
M  V30 335 O 30.449 0.611507 -2.0758 0
M  V30 336 C 31.044 -2.72903 -2.00772 0
M  V30 337 C 29.603 -2.77634 -2.54158 0
M  V30 338 C 28.75 -2.44241 -1.31307 0
M  V30 339 H 31.701 -1.55714 -0.306388 0
M  V30 340 H 31.722 -2.519 -2.85178 0
M  V30 341 H 31.234 -3.62077 -1.39721 0
M  V30 342 H 29.335 -1.92689 -3.18907 0
M  V30 343 H 29.448 -3.79283 -2.92714 0
M  V30 344 H 27.812 -1.95577 -1.63161 0
M  V30 345 H 28.595 -3.35666 -0.719943 0
M  V30 346 N 31.0401 0.771051 -1.3745 0
M  V30 347 C 32.0031 1.86598 -1.33093 0
M  V30 348 C 33.0031 1.59076 -0.234845 0
M  V30 349 O 34.1931 1.67145 -0.490732 0
M  V30 350 C 31.3251 3.23747 -1.06773 0
M  V30 351 H 32.5181 1.91873 -2.30488 0
M  V30 352 H 30.0711 0.970876 -1.2249 0
M  V30 353 H 30.8061 3.24148 -0.099129 0
M  V30 354 H 30.5911 3.45115 -1.86112 0
M  V30 355 H 32.0811 4.03824 -1.06377 0
M  V30 356 N 32.5182 1.22032 0.997298 0
M  V30 357 C 33.7462 1.06841 1.7718 0
M  V30 358 C 34.1612 -0.381325 1.84909 0
M  V30 359 O 33.5182 -1.26437 1.31605 0
M  V30 360 C 33.5692 1.66814 3.20711 0
M  V30 361 O 33.2902 3.06116 3.13408 0
M  V30 362 C 34.7912 1.56838 4.14628 0
M  V30 363 H 32.0112 0.374782 0.556578 0
M  V30 364 H 34.5552 1.61532 1.2541 0
M  V30 365 H 32.7102 1.16196 3.69564 0
M  V30 366 H 33.1242 3.34926 4.0364 0
M  V30 367 H 34.5982 2.03532 5.13107 0
M  V30 368 H 35.0752 0.524155 4.36061 0
M  V30 369 H 35.6812 2.06741 3.7167 0
M  V30 370 N 33.9963 -1.19345 1.0293 0
M  V30 371 C 34.9263 -2.2481 0.631105 0
M  V30 372 C 35.9073 -1.66245 -0.360104 0
M  V30 373 O 37.0923 -1.92677 -0.242726 0
M  V30 374 C 34.2223 -3.47295 -0.0184607 0
M  V30 375 C 33.1763 -4.18536 0.895073 0
M  V30 376 C 32.5023 -5.34586 0.110592 0
M  V30 377 C 33.8023 -4.73287 2.209 0
M  V30 378 H 35.4963 -2.58372 1.51275 0
M  V30 379 H 33.0423 -1.24194 0.728818 0
M  V30 380 H 34.9953 -4.20268 -0.308675 0
M  V30 381 H 33.7193 -3.12933 -0.934907 0
M  V30 382 H 32.3783 -3.47446 1.16949 0
M  V30 383 H 32.0263 -4.96469 -0.807902 0
M  V30 384 H 31.7263 -5.83183 0.719087 0
M  V30 385 H 33.2503 -6.10355 -0.172871 0
M  V30 386 H 34.6643 -5.38013 1.98028 0
M  V30 387 H 33.0613 -5.32373 2.76946 0
M  V30 388 H 34.1313 -3.91331 2.86336 0
M  V30 389 N 35.4744 -0.807222 -1.35358 0
M  V30 390 C 36.3844 -0.219594 -2.3357 0
M  V30 391 C 37.4004 0.637734 -1.61892 0
M  V30 392 O 38.5764 0.549336 -1.93763 0
M  V30 393 C 35.6414 0.62158 -3.41083 0
M  V30 394 C 34.7024 -0.256315 -4.28534 0
M  V30 395 C 33.9354 0.544807 -5.30912 0
M  V30 396 O 34.1584 1.77944 -5.41934 0
M  V30 397 O 33.0924 -0.0646478 -6.01865 0
M  V30 398 H 36.9184 -1.03208 -2.85625 0
M  V30 399 H 34.5034 -0.569025 -1.38139 0
M  V30 400 H 36.3854 1.10067 -4.06772 0
M  V30 401 H 35.0604 1.41165 -2.91297 0
M  V30 402 H 33.9674 -0.782559 -3.65823 0
M  V30 403 H 35.3004 -1.01034 -4.81719 0
M  V30 404 N 36.9525 1.47285 -0.560781 0
M  V30 405 C 38.1805 2.06855 -0.0430262 0
M  V30 406 C 38.5955 1.41291 1.25229 0
M  V30 407 O 37.9525 0.510648 1.7521 0
M  V30 408 C 38.0035 3.61178 0.152518 0
M  V30 409 O 37.7245 4.24285 -1.0915 0
M  V30 410 C 39.2255 4.37624 0.707145 0
M  V30 411 H 36.4455 0.669319 -0.0474652 0
M  V30 412 H 38.9895 1.89237 -0.77521 0
M  V30 413 H 37.1445 3.78298 0.834843 0
M  V30 414 H 37.5585 5.16868 -0.891482 0
M  V30 415 H 39.0325 5.46271 0.793244 0
M  V30 416 H 39.5095 4.04152 1.71923 0
M  V30 417 H 40.1155 4.25257 0.0604027 0
M  V30 418 N 38.4306 0.297415 1.54768 0
M  V30 419 C 39.3626 -0.613881 2.20826 0
M  V30 420 C 40.3756 -1.10032 1.19987 0
M  V30 421 O 41.5646 -1.01839 1.46598 0
M  V30 422 C 38.6646 -1.852 2.83821 0
M  V30 423 C 37.8376 -1.50865 4.10559 0
M  V30 424 C 36.8966 -2.60154 4.57391 0
M  V30 425 O 35.9226 -2.25398 5.2267 0
M  V30 426 N 37.1246 -3.90629 4.29406 0
M  V30 427 H 39.8896 -0.048389 2.99661 0
M  V30 428 H 37.4506 0.11946 1.61459 0
M  V30 429 H 39.4426 -2.57652 3.12086 0
M  V30 430 H 38.0126 -2.32597 2.08847 0
M  V30 431 H 37.2326 -0.616925 3.89343 0
M  V30 432 H 38.5206 -1.25458 4.9309 0
M  V30 433 H 37.9186 -4.21677 3.77101 0
M  V30 434 H 36.4756 -4.59391 4.62388 0
M  V30 435 N 39.9087 -1.5758 0.0250728 0
M  V30 436 C 40.8187 -2.1343 -0.973905 0
M  V30 437 C 41.8347 -1.08556 -1.35984 0
M  V30 438 O 43.0107 -1.40592 -1.44207 0
M  V30 439 C 40.0757 -2.64703 -2.23904 0
M  V30 440 C 39.1367 -3.84276 -1.91391 0
M  V30 441 C 38.3697 -4.33095 -3.11873 0
M  V30 442 O 38.5927 -3.81107 -4.24398 0
M  V30 443 O 37.5267 -5.24984 -2.94406 0
M  V30 444 H 41.3527 -2.99057 -0.529036 0
M  V30 445 H 38.9377 -1.48118 -0.195288 0
M  V30 446 H 40.8197 -2.97769 -2.98181 0
M  V30 447 H 39.4947 -1.82161 -2.6758 0
M  V30 448 H 38.4017 -3.56143 -1.14511 0
M  V30 449 H 39.7347 -4.67968 -1.52534 0
M  V30 450 N 41.3868 0.248026 -1.55636 0
M  V30 451 C 42.3188 1.32993 -1.8667 0
M  V30 452 C 43.3318 1.44345 -0.752877 0
M  V30 453 O 44.5208 1.45715 -1.03098 0
M  V30 454 C 41.6208 2.70863 -2.03682 0
M  V30 455 C 40.7938 2.81792 -3.34532 0
M  V30 456 C 39.8528 4.005 -3.41301 0
M  V30 457 O 38.8788 3.9008 -4.14519 0
M  V30 458 N 40.0808 5.13618 -2.70512 0
M  V30 459 H 42.8458 1.06707 -2.8006 0
M  V30 460 H 40.4068 0.438129 -1.55859 0
M  V30 461 H 42.3988 3.48612 -2.05553 0
M  V30 462 H 40.9688 2.89862 -1.17041 0
M  V30 463 H 40.1888 1.90729 -3.44987 0
M  V30 464 H 41.4768 2.86043 -4.20781 0
M  V30 465 H 40.8748 5.24975 -2.10755 0
M  V30 466 H 39.4318 5.89505 -2.78077 0
M  V30 467 N 42.8649 1.48995 0.513639 0
M  V30 468 C 44.1419 1.48338 1.27495 0
M  V30 469 C 44.5219 0.204065 2.10111 0
M  V30 470 O 43.8699 -0.813881 2.13514 0
M  V30 471 C 44.0799 2.75498 2.14247 0
M  V30 472 C 45.4279 3.24484 2.73852 0
M  V30 473 O 46.4519 2.76528 2.24523 0
M  V30 474 O 45.3109 4.07974 3.6362 0
M  V30 475 H 42.4049 0.593149 0.576284 0
M  V30 476 H 44.9509 1.61246 0.528948 0
M  V30 477 H 43.7229 3.60109 1.53092 0
M  V30 478 H 43.3459 2.6539 2.96064 0
M  V30 479 N 44.343 -0.763751 1.37857 0
M  V30 480 C 45.589 -1.52483 1.33704 0
M  V30 481 C 45.922 -1.94051 -0.0759612 0
M  V30 482 O 45.197 -1.64675 -1.03501 0
M  V30 483 C 45.48 -2.78441 2.28348 0
M  V30 484 C 45.333 -2.43075 3.78463 0
M  V30 485 C 46.652 -3.80415 2.21298 0
M  V30 486 H 43.771 -0.553169 0.487005 0
M  V30 487 H 46.413 -0.875562 1.68624 0
M  V30 488 H 44.563 -3.33842 1.987 0
M  V30 489 H 46.235 -1.93527 4.18742 0
M  V30 490 H 44.478 -1.75666 3.96641 0
M  V30 491 H 45.149 -3.33149 4.40132 0
M  V30 492 H 47.625 -3.34527 2.47449 0
M  V30 493 H 46.501 -4.66257 2.89647 0
M  V30 494 H 46.762 -4.25262 1.20849 0
M  V30 495 N 45.8211 -1.22559 -0.990812 0
M  V30 496 C 47.0981 -0.959875 -1.70428 0
M  V30 497 C 47.4781 0.524455 -2.04481 0
M  V30 498 O 46.8261 1.49302 -1.72977 0
M  V30 499 C 47.0361 -1.85955 -2.95333 0
M  V30 500 C 48.3841 -2.11687 -3.68068 0
M  V30 501 O 49.4081 -1.8342 -3.05345 0
M  V30 502 O 48.2671 -2.59572 -4.80921 0
M  V30 503 H 45.3611 -0.361154 -0.743974 0
M  V30 504 H 47.9071 -1.33554 -1.04697 0
M  V30 505 H 46.6791 -2.86346 -2.66687 0
M  V30 506 H 46.3021 -1.4856 -3.68803 0
M  V30 507 N 47.2992 1.18797 -1.03562 0
M  V30 508 C 48.2292 2.24472 -0.643019 0
M  V30 509 C 49.2102 1.66433 0.351283 0
M  V30 510 O 50.3952 1.92803 0.232505 0
M  V30 511 C 47.5252 3.473 4.24935e-05 0
M  V30 512 C 46.4792 4.18055 -0.917257 0
M  V30 513 C 45.8052 5.34519 -0.138941 0
M  V30 514 C 47.1052 4.72109 -2.23407 0
M  V30 515 H 48.7992 2.57566 -1.52643 0
M  V30 516 H 46.3452 1.23806 -0.735394 0
M  V30 517 H 48.2982 4.20426 0.286383 0
M  V30 518 H 47.0222 3.13424 0.918299 0
M  V30 519 H 45.6812 3.46821 -1.1879 0
M  V30 520 H 45.3292 4.96891 0.781562 0
M  V30 521 H 45.0292 5.82794 -0.750005 0
M  V30 522 H 46.5532 6.10438 0.1405 0
M  V30 523 H 47.9672 5.36955 -2.00879 0
M  V30 524 H 46.3642 5.30897 -2.79765 0
M  V30 525 H 47.4342 3.89807 -2.88407 0
M  V30 526 N 48.7773 0.814389 1.34928 0
M  V30 527 C 50.0233 0.399013 1.98836 0
M  V30 528 C 50.3563 -1.03314 1.64438 0
M  V30 529 O 49.6313 -1.71811 0.911659 0
M  V30 530 C 49.9143 0.591629 3.55207 0
M  V30 531 C 49.7673 2.06928 3.99376 0
M  V30 532 C 51.0863 0.022199 4.40094 0
M  V30 533 H 48.2053 0.146451 0.722303 0
M  V30 534 H 50.8473 1.02537 1.59957 0
M  V30 535 H 48.9973 0.0584441 3.88456 0
M  V30 536 H 50.6693 2.66544 3.76499 0
M  V30 537 H 48.9123 2.56287 3.49999 0
M  V30 538 H 49.5833 2.1549 5.08201 0
M  V30 539 H 52.0593 0.477643 4.13349 0
M  V30 540 H 50.9353 0.186832 5.48582 0
M  V30 541 H 51.1963 -1.07215 4.28902 0
M  V30 542 N 50.2554 -1.46986 0.568584 0
M  V30 543 C 51.1874 -2.28233 -0.210337 0
M  V30 544 C 52.2004 -1.37682 -0.868767 0
M  V30 545 O 53.3894 -1.62406 -0.740705 0
M  V30 546 C 50.4894 -3.12293 -1.3163 0
M  V30 547 C 49.6624 -4.30878 -0.7525 0
M  V30 548 C 48.7214 -4.96445 -1.74439 0
M  V30 549 O 47.7474 -5.54482 -1.286 0
M  V30 550 N 48.9494 -4.92171 -3.07812 0
M  V30 551 H 51.7144 -2.95723 0.486648 0
M  V30 552 H 49.2754 -1.56742 0.405409 0
M  V30 553 H 51.2674 -3.53022 -1.97883 0
M  V30 554 H 49.8374 -2.46971 -1.91636 0
M  V30 555 H 49.0574 -3.94104 0.0871128 0
M  V30 556 H 50.3454 -5.07558 -0.35536 0
M  V30 557 H 49.7434 -4.46239 -3.47688 0
M  V30 558 H 48.3004 -5.36884 -3.69592 0
M  V30 559 N 51.7335 -0.305618 -1.54608 0
M  V30 560 C 52.6805 0.568421 -2.23691 0
M  V30 561 C 53.6505 1.12592 -1.22116 0
M  V30 562 O 54.8355 1.16959 -1.50749 0
M  V30 563 C 51.9755 1.7322 -2.98477 0
M  V30 564 C 51.0885 1.20566 -4.14835 0
M  V30 565 C 50.2235 2.33368 -4.77193 0
M  V30 566 C 49.2625 1.7787 -5.85686 0
M  V30 567 N 48.3995 2.84263 -6.4198 0
M  V30 568 H 53.2395 -0.0272867 -2.97988 0
M  V30 569 H 50.7765 -0.0252363 -1.47078 0
M  V30 570 H 52.7345 2.41675 -3.40072 0
M  V30 571 H 51.3645 2.29947 -2.26548 0
M  V30 572 H 50.4165 0.413223 -3.78149 0
M  V30 573 H 51.7285 0.759417 -4.92985 0
M  V30 574 H 50.8825 3.09761 -5.21664 0
M  V30 575 H 49.6215 2.8132 -3.98385 0
M  V30 576 H 48.6265 0.99968 -5.40635 0
M  V30 577 H 49.8515 1.30816 -6.66381 0
M  V30 578 H 47.7975 3.31541 -5.66053 0
M  V30 579 H 47.7145 2.44149 -7.15491 0
M  V30 580 H 48.9825 3.6054 -6.91109 0
M  V30 581 N 53.2116 1.57565 -0.0334293 0
M  V30 582 C 54.4416 1.95996 0.653398 0
M  V30 583 C 54.8496 0.908749 1.65947 0
M  V30 584 O 54.1926 -0.117471 1.83324 0
M  V30 585 C 54.2546 3.30589 1.41249 0
M  V30 586 C 53.9186 4.53503 0.564263 0
M  V30 587 C 54.9156 5.19647 -0.16225 0
M  V30 588 C 52.6006 4.99801 0.500398 0
M  V30 589 C 54.5946 6.30412 -0.941255 0
M  V30 590 C 52.2816 6.10448 -0.282308 0
M  V30 591 C 53.2796 6.75612 -1.00184 0
M  V30 592 O 52.9676 7.84134 -1.77171 0
M  V30 593 H 52.6996 0.65027 0.184728 0
M  V30 594 H 55.2536 2.05199 -0.0907841 0
M  V30 595 H 53.4836 3.17888 2.20191 0
M  V30 596 H 55.1726 3.53892 1.98784 0
M  V30 597 H 55.9386 4.84846 -0.12227 0
M  V30 598 H 51.8176 4.48883 1.05002 0
M  V30 599 H 55.3616 6.81208 -1.50339 0
M  V30 600 H 51.2586 6.44686 -0.323989 0
M  V30 601 H 52.0266 8.00822 -1.69194 0
M  V30 602 N 54.6897 -0.239769 1.55765 0
M  V30 603 C 55.6197 -1.30052 1.9393 0
M  V30 604 C 56.6007 -1.49839 0.805132 0
M  V30 605 O 57.7857 -1.62328 1.06599 0
M  V30 606 C 54.9157 -2.65391 2.2402 0
M  V30 607 C 53.8697 -2.60289 3.39755 0
M  V30 608 C 53.1957 -3.99489 3.55405 0
M  V30 609 C 54.4957 -2.16654 4.75246 0
M  V30 610 H 56.1897 -0.983573 2.82783 0
M  V30 611 H 53.7357 -0.471701 1.36055 0
M  V30 612 H 55.6887 -3.3974 2.49308 0
M  V30 613 H 54.4127 -2.98736 1.32 0
M  V30 614 H 53.0717 -1.88398 3.14487 0
M  V30 615 H 52.7197 -4.30112 2.60793 0
M  V30 616 H 52.4197 -3.96962 4.33238 0
M  V30 617 H 53.9437 -4.75528 3.83022 0
M  V30 618 H 55.3577 -2.80737 4.99859 0
M  V30 619 H 53.7547 -2.25223 5.56232 0
M  V30 620 H 54.8247 -1.11835 4.71827 0
M  V30 621 N 56.1678 -1.49265 -0.50573 0
M  V30 622 C 57.0778 -1.68312 -1.63427 0
M  V30 623 C 58.0938 -0.565682 -1.64548 0
M  V30 624 O 59.2698 -0.839801 -1.83055 0
M  V30 625 C 56.3348 -1.74107 -2.99813 0
M  V30 626 C 55.3958 -2.97653 -3.09356 0
M  V30 627 C 54.6288 -3.03163 -4.39236 0
M  V30 628 O 54.8518 -2.16396 -5.27758 0
M  V30 629 O 53.7858 -3.9558 -4.53652 0
M  V30 630 H 57.6118 -2.63907 -1.50289 0
M  V30 631 H 55.1968 -1.32951 -0.681502 0
M  V30 632 H 57.0788 -1.803 -3.80881 0
M  V30 633 H 55.7538 -0.816901 -3.13223 0
M  V30 634 H 54.6608 -2.96981 -2.27493 0
M  V30 635 H 55.9938 -3.89535 -3.00871 0
M  V30 636 N 57.6459 0.756429 -1.3826 0
M  V30 637 C 58.5929 1.87011 -1.35261 0
M  V30 638 C 59.5629 1.64695 -0.215616 0
M  V30 639 O 60.7479 1.864 -0.407399 0
M  V30 640 C 57.8879 3.24275 -1.18068 0
M  V30 641 C 57.0009 3.58442 -2.41129 0
M  V30 642 C 56.1359 4.84994 -2.16689 0
M  V30 643 C 55.1749 5.11939 -3.35537 0
M  V30 644 N 54.3119 6.29685 -3.10549 0
M  V30 645 H 59.1519 1.8891 -2.30472 0
M  V30 646 H 56.6889 0.923373 -1.14509 0
M  V30 647 H 58.6469 4.03479 -1.06116 0
M  V30 648 H 57.2769 3.21711 -0.264973 0
M  V30 649 H 56.3289 2.74103 -2.63764 0
M  V30 650 H 57.6409 3.74283 -3.29717 0
M  V30 651 H 56.7949 5.72135 -2.01857 0
M  V30 652 H 55.5339 4.71286 -1.25462 0
M  V30 653 H 54.5389 4.23268 -3.50891 0
M  V30 654 H 55.7639 5.27546 -4.27635 0
M  V30 655 H 53.7099 6.17306 -2.21967 0
M  V30 656 H 53.6269 6.46014 -3.92686 0
M  V30 657 H 54.8949 7.19722 -2.99367 0
M  V30 658 N 59.124 1.23083 0.984299 0
M  V30 659 C 60.354 1.08556 1.75781 0
M  V30 660 C 60.762 -0.366171 1.85623 0
M  V30 661 O 60.105 -1.26524 1.33182 0
M  V30 662 C 60.167 1.63208 3.20318 0
M  V30 663 C 59.831 3.11922 3.33997 0
M  V30 664 C 60.828 4.09259 3.2063 0
M  V30 665 C 58.513 3.51552 3.58771 0
M  V30 666 C 60.507 5.4421 3.31835 0
M  V30 667 C 58.194 4.86649 3.69616 0
M  V30 668 C 59.192 5.82787 3.56157 0
M  V30 669 O 58.88 7.15431 3.66626 0
M  V30 670 H 58.612 0.380713 0.5586 0
M  V30 671 H 61.166 1.63321 1.2456 0
M  V30 672 H 59.396 1.0286 3.72769 0
M  V30 673 H 61.085 1.44216 3.79416 0
M  V30 674 H 61.851 3.79984 3.01392 0
M  V30 675 H 57.73 2.77239 3.6832 0
M  V30 676 H 61.274 6.1923 3.21247 0
M  V30 677 H 57.171 5.15601 3.88363 0
M  V30 678 H 57.939 7.23127 3.83445 0
M  V30 679 N 60.6021 -1.18246 1.0419 0
M  V30 680 C 61.8321 -1.91916 0.764961 0
M  V30 681 C 62.2401 -1.76485 -0.681898 0
M  V30 682 O 61.5831 -1.09275 -1.47664 0
M  V30 683 C 61.6451 -3.4373 1.05309 0
M  V30 684 C 61.3091 -3.8294 2.4941 0
M  V30 685 C 62.3061 -3.86621 3.47592 0
M  V30 686 C 59.9911 -4.142 2.84155 0
M  V30 687 C 61.9851 -4.21013 4.78568 0
M  V30 688 C 59.6721 -4.48262 4.15337 0
M  V30 689 C 60.6701 -4.51645 5.12353 0
M  V30 690 O 60.3581 -4.84911 6.41183 0
M  V30 691 H 60.0901 -0.61606 0.278292 0
M  V30 692 H 62.6441 -1.50947 1.39299 0
M  V30 693 H 60.8741 -3.84946 0.367933 0
M  V30 694 H 62.5631 -3.9865 0.763752 0
M  V30 695 H 63.3291 -3.62607 3.22089 0
M  V30 696 H 59.2081 -4.10743 2.09311 0
M  V30 697 H 62.7521 -4.23568 5.54289 0
M  V30 698 H 58.6491 -4.71737 4.40607 0
M  V30 699 H 59.4171 -5.02809 6.45852 0
M  V30 700 N 62.0802 -0.821533 -1.34494 0
M  V30 701 C 63.0282 -0.230702 -2.31453 0
M  V30 702 C 64.0222 0.627793 -1.57338 0
M  V30 703 O 65.2282 0.519288 -1.72347 0
M  V30 704 H 61.6032 -0.0558577 -0.749923 0
M  V30 705 H 63.5742 -1.06332 -2.78812 0
M  V30 706 C 62.3232 0.59391 -3.4259 0
M  V30 707 H 61.6462 -0.0573588 -3.99759 0
M  V30 708 H 63.0862 0.973446 -4.12674 0
M  V30 709 C 61.5452 1.76568 -2.86924 0
M  V30 710 O 62.0752 2.8638 -2.81691 0
M  V30 711 N 60.2812 1.58198 -2.43766 0
M  V30 712 H 59.8282 0.68872 -2.48222 0
M  V30 713 H 59.7862 2.36752 -2.06871 0
M  V30 714 N 63.5583 1.46682 -0.576371 0
M  V30 715 C 64.4883 2.33028 0.148397 0
M  V30 716 C 65.4693 1.44961 0.889956 0
M  V30 717 O 66.6543 1.73789 0.866662 0
M  V30 718 C 63.7843 3.27117 1.1667 0
M  V30 719 C 62.7383 4.24575 0.540386 0
M  V30 720 C 62.0643 5.08126 1.6647 0
M  V30 721 C 63.3643 5.19722 -0.518331 0
M  V30 722 H 65.0583 2.93875 -0.572509 0
M  V30 723 H 62.6043 1.41315 -0.276768 0
M  V30 724 H 64.5573 3.86374 1.68204 0
M  V30 725 H 63.2813 2.64364 1.9178 0
M  V30 726 H 61.9403 3.66571 0.0461769 0
M  V30 727 H 61.5883 4.41762 2.40531 0
M  V30 728 H 61.2883 5.74122 1.25131 0
M  V30 729 H 62.8123 5.70246 2.18293 0
M  V30 730 H 64.2263 5.73232 -0.0883058 0
M  V30 731 H 62.6233 5.94026 -0.851679 0
M  V30 732 H 63.6933 4.64037 -1.40703 0
M  V30 733 N 65.0364 0.313813 1.54444 0
M  V30 734 C 65.9834 -0.55655 2.23989 0
M  V30 735 C 66.9534 -1.11943 1.22711 0
M  V30 736 O 68.1384 -1.16158 1.51367 0
M  V30 737 C 65.2784 -1.71635 2.99392 0
M  V30 738 C 64.3914 -1.18364 4.15468 0
M  V30 739 C 63.5264 -2.30834 4.78424 0
M  V30 740 C 62.5654 -1.74762 5.86622 0
M  V30 741 N 61.7024 -2.80855 6.43479 0
M  V30 742 H 66.5424 0.0430893 2.97969 0
M  V30 743 H 64.0794 0.0330359 1.47063 0
M  V30 744 H 66.0374 -2.39868 3.41349 0
M  V30 745 H 64.6674 -2.28742 2.27765 0
M  V30 746 H 63.7194 -0.393163 3.78363 0
M  V30 747 H 65.0314 -0.733262 4.93381 0
M  V30 748 H 64.1854 -3.0699 5.23299 0
M  V30 749 H 62.9244 -2.79204 3.99871 0
M  V30 750 H 61.9294 -0.970995 5.41158 0
M  V30 751 H 63.1544 -1.2728 6.67066 0
M  V30 752 H 61.1004 -3.28535 5.67804 0
M  V30 753 H 61.0174 -2.40351 7.16776 0
M  V30 754 H 62.2854 -3.5687 6.93011 0
M  V30 755 N 66.5145 -1.57545 0.0417849 0
M  V30 756 C 67.4625 -2.12148 -0.953723 0
M  V30 757 C 68.4565 -1.05104 -1.32852 0
M  V30 758 O 69.6625 -1.23524 -1.30927 0
M  V30 759 H 66.0375 -0.677957 -0.325389 0
M  V30 760 H 68.0085 -2.94707 -0.467991 0
M  V30 761 C 66.7575 -2.6739 -2.22257 0
M  V30 762 H 66.0805 -3.49413 -1.94295 0
M  V30 763 H 67.5205 -3.09227 -2.90094 0
M  V30 764 C 65.9795 -1.60723 -2.96091 0
M  V30 765 O 66.5095 -1.01449 -3.88679 0
M  V30 766 N 64.7155 -1.32466 -2.58652 0
M  V30 767 H 64.2625 -1.80856 -1.83437 0
M  V30 768 H 64.2205 -0.61325 -3.08361 0
M  V30 769 N 67.9926 0.231505 -1.5589 0
M  V30 770 C 69.2696 0.981096 -1.69215 0
M  V30 771 C 69.6496 2.02799 -0.586164 0
M  V30 772 O 68.9976 2.24823 0.408253 0
M  V30 773 C 69.2076 1.60054 -3.10135 0
M  V30 774 C 70.5556 2.09658 -3.69227 0
M  V30 775 O 71.5796 1.69967 -3.13033 0
M  V30 776 O 70.4386 2.8258 -4.67772 0
M  V30 777 H 67.5326 0.457653 -0.688827 0
M  V30 778 H 70.0786 0.224073 -1.68214 0
M  V30 779 H 68.8506 0.844105 -3.82087 0
M  V30 780 H 68.4736 2.42336 -3.15212 0
M  V30 781 N 69.4707 1.49531 0.497807 0
M  V30 782 C 70.7187 1.58865 1.24926 0
M  V30 783 C 71.0397 0.278721 1.92998 0
M  V30 784 O 70.3097 -0.702144 1.82885 0
M  V30 785 H 68.8897 0.585343 0.464094 0
M  V30 786 H 71.5517 1.86174 0.57666 0
M  V30 787 H 70.6477 2.38633 2.01149 0
M  V30 788 N 70.9488 -0.749086 1.3866 0
M  V30 789 C 72.3648 -1.05276 1.19955 0
M  V30 790 C 72.5648 -2.01435 0.05134 0
M  V30 791 O 71.6208 -2.45232 -0.60147 0
M  V30 792 C 72.9338 -1.62853 2.52783 0
M  V30 793 C 74.4818 -1.75002 2.59506 0
M  V30 794 C 74.9568 -2.35991 3.92521 0
M  V30 795 N 76.4478 -2.43416 3.94085 0
M  V30 796 C 77.1828 -2.91511 4.9377 0
M  V30 797 N 76.6788 -3.39608 6.03853 0
M  V30 798 N 78.4718 -2.90592 4.81157 0
M  V30 799 H 70.6228 -0.111066 2.12109 0
M  V30 800 H 72.8858 -0.111901 0.941373 0
M  V30 801 H 72.5918 -0.99664 3.37283 0
M  V30 802 H 72.4658 -2.61854 2.715 0
M  V30 803 H 74.8528 -2.37317 1.75398 0
M  V30 804 H 74.9338 -0.74693 2.44652 0
M  V30 805 H 74.5778 -1.74308 4.77053 0
M  V30 806 H 74.5078 -3.3695 4.04688 0
M  V30 807 H 76.9988 -2.09405 3.14576 0
M  V30 808 H 77.3118 -3.74775 6.75843 0
M  V30 809 H 75.6568 -3.37653 6.07466 0
M  V30 810 H 78.8478 -2.52332 3.94267 0
M  V30 811 H 79.0208 -3.27762 5.58996 0
M  V30 812 N 72.4269 -1.23603 -0.977757 0
M  V30 813 C 73.3589 -0.977369 -2.07317 0
M  V30 814 C 74.3719 0.0495845 -1.62724 0
M  V30 815 O 75.5609 -0.186261 -1.77526 0
M  V30 816 C 72.6609 -0.451216 -3.35883 0
M  V30 817 C 71.8339 -1.53896 -4.09432 0
M  V30 818 C 70.8929 -1.01721 -5.16274 0
M  V30 819 O 69.9189 -1.70676 -5.43009 0
M  V30 820 N 71.1209 0.153594 -5.80297 0
M  V30 821 H 73.8859 -1.92047 -2.30082 0
M  V30 822 H 71.4469 -1.14497 -1.14465 0
M  V30 823 H 73.4389 -0.0871574 -4.04606 0
M  V30 824 H 72.0089 0.397368 -3.10064 0
M  V30 825 H 71.2289 -2.07566 -3.35127 0
M  V30 826 H 72.5169 -2.27037 -4.55337 0
M  V30 827 H 71.9149 0.730323 -5.60966 0
M  V30 828 H 70.4719 0.458892 -6.50183 0
M  V30 829 N 73.905 1.17692 -1.04816 0
M  V30 830 C 75.151 1.88137 -0.75711 0
M  V30 831 C 75.484 1.80604 0.713841 0
M  V30 832 O 74.759 1.21146 1.52164 0
M  V30 833 C 75.042 3.38318 -1.2334 0
M  V30 834 C 74.895 3.54622 -2.76701 0
M  V30 835 C 76.214 4.32214 -0.829415 0
M  V30 836 H 73.333 0.683163 -0.27651 0
M  V30 837 H 75.975 1.38424 -1.30149 0
M  V30 838 H 74.125 3.80787 -0.770286 0
M  V30 839 H 75.797 3.21194 -3.31107 0
M  V30 840 H 74.04 2.97026 -3.16161 0
M  V30 841 H 74.711 4.60028 -3.05088 0
M  V30 842 H 77.187 3.97565 -1.22805 0
M  V30 843 H 76.063 5.35838 -1.19033 0
M  V30 844 H 76.324 4.41294 0.266891 0
M  V30 845 N 75.3831 0.828654 1.34056 0
M  V30 846 C 76.2931 0.256725 2.33191 0
M  V30 847 C 77.3091 -0.611898 1.62886 0
M  V30 848 O 78.4851 -0.51844 1.94613 0
M  V30 849 C 75.5501 -0.567238 3.42028 0
M  V30 850 C 74.6111 0.324458 4.28072 0
M  V30 851 C 73.8441 -0.460274 5.31712 0
M  V30 852 O 74.0671 -1.693 5.44696 0
M  V30 853 O 73.0011 0.160391 6.01686 0
M  V30 854 H 76.8271 1.07739 2.83947 0
M  V30 855 H 74.4121 0.59093 1.37217 0
M  V30 856 H 76.2941 -1.03582 4.08471 0
M  V30 857 H 74.9691 -1.36513 2.93506 0
M  V30 858 H 73.8761 0.840659 3.64532 0
M  V30 859 H 75.2091 1.08685 4.8005 0
M  V30 860 N 76.8612 -1.46375 0.584142 0
M  V30 861 C 77.8082 -2.30323 -0.148286 0
M  V30 862 C 78.7782 -1.40703 -0.882713 0
M  V30 863 O 79.9632 -1.69651 -0.873099 0
M  V30 864 C 77.1032 -3.25196 -1.15507 0
M  V30 865 C 76.2162 -4.29915 -0.423943 0
M  V30 866 C 75.3512 -5.11914 -1.41838 0
M  V30 867 C 74.3902 -6.08381 -0.673736 0
M  V30 868 N 73.5272 -6.83242 -1.6163 0
M  V30 869 H 78.3672 -2.92427 0.573644 0
M  V30 870 H 75.9042 -1.44118 0.294703 0
M  V30 871 H 77.8622 -3.78646 -1.75166 0
M  V30 872 H 76.4922 -2.64898 -1.8447 0
M  V30 873 H 75.5442 -3.7931 0.287714 0
M  V30 874 H 76.8562 -4.98549 0.158128 0
M  V30 875 H 76.0102 -5.69648 -2.08773 0
M  V30 876 H 74.7492 -4.43243 -2.03438 0
M  V30 877 H 73.7542 -5.49799 0.00938483 0
M  V30 878 H 74.9792 -6.79071 -0.0631082 0
M  V30 879 H 72.9252 -6.1728 -2.22038 0
M  V30 880 H 72.8422 -7.48144 -1.08707 0
M  V30 881 H 74.1102 -7.45534 -2.27596 0
M  V30 882 N 78.3393 -0.321999 -1.54275 0
M  V30 883 C 79.7553 0.0306999 -1.5957 0
M  V30 884 C 79.9553 1.50614 -1.33857 0
M  V30 885 O 79.0113 2.2619 -1.12223 0
M  V30 886 C 80.3243 -0.386122 -2.98211 0
M  V30 887 C 81.8723 -0.336647 -3.11184 0
M  V30 888 C 82.3473 -0.728607 -4.52167 0
M  V30 889 N 83.8383 -0.681952 -4.58152 0
M  V30 890 C 84.5733 -0.957449 -5.6535 0
M  V30 891 N 84.0693 -1.3 -6.80494 0
M  V30 892 N 85.8623 -0.883113 -5.55119 0
M  V30 893 H 78.0133 -1.28332 -1.69247 0
M  V30 894 H 80.2763 -0.521716 -0.791528 0
M  V30 895 H 79.9823 -1.41404 -3.22022 0
M  V30 896 H 79.8563 0.249662 -3.76373 0
M  V30 897 H 82.2433 0.682058 -2.8711 0
M  V30 898 H 82.3243 -1.00734 -2.3513 0
M  V30 899 H 81.9683 -1.74522 -4.76974 0
M  V30 900 H 81.8983 -0.0356152 -5.26588 0
M  V30 901 H 84.3893 -0.428985 -3.75457 0
M  V30 902 H 84.7023 -1.49563 -7.58189 0
M  V30 903 H 83.0473 -1.33824 -6.81994 0
M  V30 904 H 86.2383 -0.615001 -4.64042 0
M  V30 905 H 86.4113 -1.10118 -6.38575 0
M  V30 906 N 79.8174 1.5752 -0.0501392 0
M  V30 907 C 81.2334 1.56631 0.306402 0
M  V30 908 C 81.4334 1.0577 1.71508 0
M  V30 909 O 80.4894 0.713837 2.422 0
M  V30 910 C 81.8024 3.00393 0.135811 0
M  V30 911 C 83.3504 3.12315 0.206993 0
M  V30 912 C 83.8254 4.57954 0.064944 0
M  V30 913 N 85.3164 4.63041 0.121254 0
M  V30 914 C 86.0514 5.73389 0.0354381 0
M  V30 915 N 85.5474 6.92724 -0.102666 0
M  V30 916 N 87.3404 5.62026 0.090946 0
M  V30 917 H 79.4914 1.88903 -0.971046 0
M  V30 918 H 81.7544 0.869876 -0.376855 0
M  V30 919 H 81.4604 3.41635 -0.835384 0
M  V30 920 H 81.3344 3.66373 0.897275 0
M  V30 921 H 83.7214 2.70973 1.16866 0
M  V30 922 H 83.8024 2.49016 -0.585208 0
M  V30 923 H 83.4464 4.99981 -0.893394 0
M  V30 924 H 83.3764 5.19258 0.876277 0
M  V30 925 H 85.8674 3.77216 0.227284 0
M  V30 926 H 86.1804 7.72633 -0.160882 0
M  V30 927 H 84.5254 6.94864 -0.137737 0
M  V30 928 H 87.7164 4.67684 0.197388 0
M  V30 929 H 87.8894 6.47997 0.0206089 0
M  V30 930 N 81.2955 -0.223234 1.56011 0
M  V30 931 C 82.2435 -1.29627 1.93131 0
M  V30 932 C 83.2375 -1.48608 0.813146 0
M  V30 933 O 84.4435 -1.49802 0.997966 0
M  V30 934 H 80.8185 -0.434563 0.613726 0
M  V30 935 H 82.7895 -0.955995 2.82672 0
M  V30 936 C 81.5385 -2.63983 2.26292 0
M  V30 937 H 80.8615 -2.50185 3.11846 0
M  V30 938 H 82.3015 -3.3788 2.56151 0
M  V30 939 C 80.7605 -3.18866 1.08747 0
M  V30 940 O 81.2905 -4.00192 0.347727 0
M  V30 941 N 79.4965 -2.77217 0.871743 0
M  V30 942 H 79.0435 -2.1119 1.47501 0
M  V30 943 H 79.0015 -3.1428 0.0869905 0
M  V30 944 N 82.7736 -1.49793 -0.48987 0
M  V30 945 C 83.9986 -1.63836 -1.27172 0
M  V30 946 C 84.4236 -0.31402 -1.8546 0
M  V30 947 O 83.7816 0.719803 -1.66399 0
M  V30 948 C 83.8296 -2.71797 -2.36978 0
M  V30 949 O 82.9336 -2.31744 -3.41128 0
M  V30 950 H 82.2746 -0.547997 -0.37496 0
M  V30 951 H 84.8046 -1.96053 -0.585191 0
M  V30 952 H 84.8146 -2.94305 -2.82575 0
M  V30 953 H 83.4896 -3.67923 -1.93921 0
M  V30 954 H 82.0666 -2.1961 -3.01373 0
M  V30 955 N 84.2517 0.741722 -1.39055 0
M  V30 956 C 85.4997 1.49818 -1.35643 0
M  V30 957 C 85.8207 1.94938 0.0491642 0
M  V30 958 O 85.0907 1.68505 0.999141 0
M  V30 959 H 83.6707 0.555755 -0.499144 0
M  V30 960 H 86.3327 0.880957 -1.73854 0
M  V30 961 H 85.4287 2.38348 -2.01486 0
M  V30 962 N 85.7298 1.2412 0.971189 0
M  V30 963 C 87.1408 1.07236 1.52831 0
M  V30 964 C 87.4918 -0.357352 1.92918 0
M  V30 965 O 86.6168 -1.24528 1.76979 0
M  V30 966 C 87.2118 1.94043 2.77728 0
M  V30 967 C 85.7708 1.81394 3.29808 0
M  V30 968 C 84.9178 1.89189 2.02738 0
M  V30 969 H 87.8688 1.37648 0.789864 0
M  V30 970 H 87.8898 1.47066 3.5093 0
M  V30 971 H 87.4018 2.98093 2.4852 0
M  V30 972 H 85.5028 0.801634 3.63874 0
M  V30 973 H 85.6158 2.65294 3.98944 0
M  V30 974 H 83.9798 1.32877 2.17292 0
M  V30 975 H 84.7628 2.94812 1.759 0
M  V30 976 N 87.2079 -1.17134 1.05439 0
M  V30 977 C 88.4539 -1.87733 0.767077 0
M  V30 978 C 88.7869 -1.8098 -0.704253 0
M  V30 979 O 88.0619 -1.21951 -1.5152 0
M  V30 980 C 88.3449 -3.37659 1.25133 0
M  V30 981 C 88.1979 -3.53149 2.78578 0
M  V30 982 C 89.5169 -4.31768 0.852324 0
M  V30 983 H 86.6359 -0.681687 0.280129 0
M  V30 984 H 89.2779 -1.37732 1.30881 0
M  V30 985 H 87.4279 -3.80373 0.790469 0
M  V30 986 H 89.0999 -3.19434 3.32806 0
M  V30 987 H 87.3429 -2.95345 3.17732 0
M  V30 988 H 88.0139 -4.58403 3.07523 0
M  V30 989 H 90.4899 -3.96909 1.24911 0
M  V30 990 H 89.3659 -5.35199 1.21873 0
M  V30 991 H 89.6269 -4.41429 -0.243485 0
M  V30 992 N 88.686 -0.835752 -1.33615 0
M  V30 993 C 89.932 -0.430596 -1.98176 0
M  V30 994 C 90.265 1.00684 -1.66061 0
M  V30 995 O 89.54 1.70339 -0.938877 0
M  V30 996 C 89.823 -0.648065 -3.5422 0
M  V30 997 C 89.676 -2.13255 -3.96033 0
M  V30 998 C 90.995 -0.0922113 -4.40003 0
M  V30 999 H 88.114 -0.157924 -0.719881 0
M  V30 1000 H 90.756 -1.05069 -1.58305 0
M  V30 1001 H 88.906 -0.120237 -3.88314 0
M  V30 1002 H 90.578 -2.725 -3.72211 0
M  V30 1003 H 88.821 -2.61823 -3.45878 0
M  V30 1004 H 89.492 -2.23547 -5.04708 0
M  V30 1005 H 91.968 -0.543343 -4.12537 0
M  V30 1006 H 90.844 -0.274083 -5.48215 0
M  V30 1007 H 91.105 1.00378 -4.30554 0
M  V30 1008 N 90.1641 1.46063 -0.591896 0
M  V30 1009 C 91.0741 2.34192 0.13831 0
M  V30 1010 C 92.0901 1.50305 0.876608 0
M  V30 1011 O 93.2661 1.8315 0.837728 0
M  V30 1012 C 90.3311 3.27656 1.13326 0
M  V30 1013 C 89.3921 4.27445 0.39863 0
M  V30 1014 C 88.6251 5.16443 1.34618 0
M  V30 1015 O 88.8481 5.08553 2.58321 0
M  V30 1016 O 87.7821 5.95843 0.851768 0
M  V30 1017 H 91.6081 2.98002 -0.58552 0
M  V30 1018 H 89.1931 1.45188 -0.352239 0
M  V30 1019 H 91.0751 3.85291 1.70671 0
M  V30 1020 H 89.7501 2.6643 1.83839 0
M  V30 1021 H 88.6571 3.73471 -0.216895 0
M  V30 1022 H 89.9901 4.91482 -0.265709 0
M  V30 1023 N 91.6422 0.330177 1.54103 0
M  V30 1024 C 92.5892 -0.532762 2.24567 0
M  V30 1025 C 93.5592 -1.10635 1.23892 0
M  V30 1026 O 94.7442 -1.14546 1.5259 0
M  V30 1027 C 91.8842 -1.6845 3.01195 0
M  V30 1028 C 90.9972 -1.13951 4.167 0
M  V30 1029 C 90.1322 -2.25746 4.80845 0
M  V30 1030 C 89.1712 -1.6853 5.88442 0
M  V30 1031 N 88.3082 -2.74014 6.46421 0
M  V30 1032 H 93.1482 0.0746905 2.97906 0
M  V30 1033 H 90.6852 0.048632 1.4702 0
M  V30 1034 H 92.6432 -2.36234 3.43874 0
M  V30 1035 H 91.2732 -2.26314 2.30178 0
M  V30 1036 H 90.3252 -0.35301 3.78758 0
M  V30 1037 H 91.6372 -0.680892 4.94131 0
M  V30 1038 H 90.7912 -3.01422 5.26526 0
M  V30 1039 H 89.5302 -2.74947 4.0281 0
M  V30 1040 H 88.5352 -0.913543 5.42157 0
M  V30 1041 H 89.7602 -1.20198 6.68378 0
M  V30 1042 H 87.7062 -3.22494 5.71256 0
M  V30 1043 H 87.6232 -2.32735 7.19285 0
M  V30 1044 H 88.8912 -3.49499 6.96757 0
M  V30 1045 N 93.1203 -1.57491 0.0584922 0
M  V30 1046 C 94.0503 -2.14988 -0.911178 0
M  V30 1047 C 95.0313 -1.07343 -1.31952 0
M  V30 1048 O 96.2163 -1.35318 -1.39294 0
M  V30 1049 C 93.3463 -2.70078 -2.18347 0
M  V30 1050 C 92.3003 -3.82771 -1.91495 0
M  V30 1051 C 91.6263 -4.24408 -3.25241 0
M  V30 1052 C 92.9263 -5.07592 -1.23075 0
M  V30 1053 H 94.6203 -2.96263 -0.432246 0
M  V30 1054 H 92.1663 -1.42512 -0.206469 0
M  V30 1055 H 94.1193 -3.08943 -2.86587 0
M  V30 1056 H 92.8433 -1.86005 -2.68458 0
M  V30 1057 H 91.5023 -3.44389 -1.25664 0
M  V30 1058 H 91.1503 -3.37275 -3.73168 0
M  V30 1059 H 90.8503 -5.00366 -3.08071 0
M  V30 1060 H 92.3743 -4.65879 -3.94701 0
M  V30 1061 H 93.7883 -5.43857 -1.81362 0
M  V30 1062 H 92.1853 -5.88741 -1.16207 0
M  V30 1063 H 93.2553 -4.84454 -0.207847 0
M  V30 1064 N 94.5984 0.214957 -1.56127 0
M  V30 1065 C 95.5454 1.26642 -1.92952 0
M  V30 1066 C 96.5154 1.46244 -0.78753 0
M  V30 1067 O 97.7004 1.59704 -1.04399 0
M  V30 1068 C 94.8404 2.6104 -2.25726 0
M  V30 1069 C 93.9534 2.49183 -3.52891 0
M  V30 1070 C 93.0884 3.76149 -3.7508 0
M  V30 1071 C 92.1274 3.59041 -4.95738 0
M  V30 1072 N 91.2644 4.77972 -5.14283 0
M  V30 1073 H 96.1044 0.945384 -2.82607 0
M  V30 1074 H 93.6414 0.455489 -1.3987 0
M  V30 1075 H 95.5994 3.39313 -2.42739 0
M  V30 1076 H 94.2294 2.91227 -1.39236 0
M  V30 1077 H 93.2814 1.6231 -3.44034 0
M  V30 1078 H 94.5934 2.32466 -4.41318 0
M  V30 1079 H 93.7474 4.62865 -3.92226 0
M  V30 1080 H 92.4864 3.95799 -2.84947 0
M  V30 1081 H 91.4914 2.7071 -4.78535 0
M  V30 1082 H 92.7164 3.40856 -5.87362 0
M  V30 1083 H 90.6624 4.97923 -4.27093 0
M  V30 1084 H 90.5794 4.64006 -5.96853 0
M  V30 1085 H 91.8474 5.66096 -5.35869 0
M  V30 1086 N 96.0765 1.50051 0.48192 0
M  V30 1087 C 97.0085 1.64263 1.59844 0
M  V30 1088 C 98.0215 0.52451 1.54119 0
M  V30 1089 O 99.2105 0.797293 1.59704 0
M  V30 1090 C 96.3105 1.60102 2.98698 0
M  V30 1091 C 95.4835 2.87767 3.29407 0
M  V30 1092 C 94.5425 2.76397 4.47762 0
M  V30 1093 O 93.5685 3.50348 4.48603 0
M  V30 1094 N 94.7705 1.89222 5.48794 0
M  V30 1095 H 97.5355 2.60566 1.48073 0
M  V30 1096 H 95.0965 1.47379 0.670149 0
M  V30 1097 H 97.0885 1.50123 3.75826 0
M  V30 1098 H 95.6585 0.715798 3.04294 0
M  V30 1099 H 94.8785 3.11954 2.40994 0
M  V30 1100 H 96.1665 3.72365 3.4673 0
M  V30 1101 H 95.5645 1.28434 5.50928 0
M  V30 1102 H 94.1215 1.85154 6.24949 0
M  V30 1103 N 97.5546 -0.734337 1.39446 0
M  V30 1104 C 98.4876 -1.85715 1.32609 0
M  V30 1105 C 99.4656 -1.6137 0.199636 0
M  V30 1106 O 100.65 -1.84626 0.380195 0
M  V30 1107 C 97.7766 -3.21709 1.05929 0
M  V30 1108 C 96.8226 -3.64913 2.20773 0
M  V30 1109 S 97.6556 -3.74203 3.83056 0
M  V30 1110 C 98.8116 -5.12986 3.58603 0
M  V30 1111 H 99.0446 -1.91232 2.27635 0
M  V30 1112 H 96.5776 -0.899263 1.25509 0
M  V30 1113 H 98.5356 -4.00236 0.912203 0
M  V30 1114 H 97.1966 -3.13848 0.125883 0
M  V30 1115 H 96.3896 -4.63606 1.97699 0
M  V30 1116 H 95.9916 -2.93593 2.31688 0
M  V30 1117 H 98.2836 -5.99339 3.15909 0
M  V30 1118 H 99.2266 -5.41088 4.5676 0
M  V30 1119 H 99.6346 -4.82694 2.9269 0
M  V30 1120 N 99.0327 -1.24633 -0.964593 0
M  V30 1121 C 99.9647 -0.999302 -2.06268 0
M  V30 1122 C 100.978 0.0323226 -1.62768 0
M  V30 1123 O 102.167 -0.205079 -1.77318 0
M  V30 1124 C 99.2667 -0.486816 -3.35385 0
M  V30 1125 C 98.4397 -1.5823 -4.07777 0
M  V30 1126 C 97.4987 -1.07191 -5.15166 0
M  V30 1127 O 96.5247 -1.76426 -5.41168 0
M  V30 1128 N 97.7267 0.0920373 -5.80427 0
M  V30 1129 H 100.492 -1.94477 -2.28033 0
M  V30 1130 H 98.0527 -1.15704 -1.13244 0
M  V30 1131 H 100.045 -0.130066 -4.04491 0
M  V30 1132 H 98.6147 0.364459 -3.10468 0
M  V30 1133 H 97.8347 -2.11109 -3.32906 0
M  V30 1134 H 99.1227 -2.31854 -4.52903 0
M  V30 1135 H 98.5207 0.670784 -5.61709 0
M  V30 1136 H 97.0777 0.389905 -6.50633 0
M  V30 1137 N 100.511 1.16574 -1.06058 0
M  V30 1138 C 101.421 2.2452 -0.680282 0
M  V30 1139 C 102.437 1.71348 0.302604 0
M  V30 1140 O 103.613 2.00822 0.152513 0
M  V30 1141 C 100.678 3.46629 -0.0700315 0
M  V30 1142 C 99.7388 4.14849 -1.10448 0
M  V30 1143 C 98.9718 5.31129 -0.523256 0
M  V30 1144 O 99.1948 5.66514 0.664709 0
M  V30 1145 O 98.1288 5.88526 -1.26179 0
M  V30 1146 H 101.955 2.59355 -1.58015 0
M  V30 1147 H 99.5398 1.24043 -0.832694 0
M  V30 1148 H 101.422 4.20543 0.268667 0
M  V30 1149 H 100.097 3.13573 0.803353 0
M  V30 1150 H 99.0038 3.42916 -1.49532 0
M  V30 1151 H 100.337 4.51954 -1.94931 0
M  V30 1152 N 101.989 0.842826 1.3317 0
M  V30 1153 C 103.236 0.440447 1.97652 0
M  V30 1154 C 103.564 -1.00123 1.6675 0
M  V30 1155 O 102.819 -1.7155 0.941761 0
M  V30 1156 C 103.118 0.612607 3.52111 0
M  V30 1157 C 102.784 2.02297 4.02972 0
M  V30 1158 C 101.446 2.40874 4.16573 0
M  V30 1159 C 103.798 2.94402 4.30089 0
M  V30 1160 C 101.126 3.70852 4.54627 0
M  V30 1161 C 103.478 4.23865 4.69597 0
M  V30 1162 C 102.142 4.62392 4.81404 0
M  V30 1163 H 101.412 0.161171 0.72326 0
M  V30 1164 H 104.059 1.07061 1.58777 0
M  V30 1165 H 102.364 -0.100849 3.9167 0
M  V30 1166 H 104.061 0.2815 4.00011 0
M  V30 1167 H 100.651 1.71338 3.92863 0
M  V30 1168 H 104.835 2.65835 4.19101 0
M  V30 1169 H 100.091 4.00501 4.61962 0
M  V30 1170 H 104.265 4.95306 4.89536 0
M  V30 1171 H 101.892 5.63154 5.10648 0
M  V30 1172 N 103.467 -1.45747 0.599634 0
M  V30 1173 C 104.714 -2.02292 0.0917284 0
M  V30 1174 C 105.042 -1.46906 -1.27472 0
M  V30 1175 O 104.297 -0.630652 -1.8526 0
M  V30 1176 C 104.596 -3.57399 -0.00602758 0
M  V30 1177 C 104.262 -4.31902 1.29503 0
M  V30 1178 C 102.924 -4.51974 1.65144 0
M  V30 1179 C 105.276 -4.74551 2.15525 0
M  V30 1180 C 102.604 -5.11949 2.86574 0
M  V30 1181 C 104.956 -5.35868 3.36196 0
M  V30 1182 C 103.62 -5.54165 3.72099 0
M  V30 1183 H 102.89 -0.740239 0.0335658 0
M  V30 1184 H 105.537 -1.7491 0.779661 0
M  V30 1185 H 103.842 -3.84014 -0.777183 0
M  V30 1186 H 105.539 -3.98846 -0.415038 0
M  V30 1187 H 102.129 -4.16588 1.00761 0
M  V30 1188 H 106.313 -4.58784 1.8929 0
M  V30 1189 H 101.569 -5.24305 3.14507 0
M  V30 1190 H 105.743 -5.6787 4.03109 0
M  V30 1191 H 103.37 -6.00406 4.6628 0
M  V30 1192 N 104.945 -0.338344 -1.53925 0
M  V30 1193 C 106.193 0.259245 -2.0043 0
M  V30 1194 C 106.514 1.51484 -1.22791 0
M  V30 1195 O 105.784 1.93037 -0.33368 0
M  V30 1196 H 104.364 0.0987845 -0.740439 0
M  V30 1197 H 107.026 -0.458302 -1.89435 0
M  V30 1198 H 106.122 0.505334 -3.07982 0
M  V30 1199 N 106.423 1.57458 -0.0668435 0
M  V30 1200 C 107.353 2.15468 0.899764 0
M  V30 1201 C 108.334 1.08042 1.31381 0
M  V30 1202 O 109.519 1.36054 1.38574 0
M  V30 1203 C 106.649 2.71232 2.16911 0
M  V30 1204 C 105.603 3.83781 1.89463 0
M  V30 1205 C 104.929 4.26127 3.22986 0
M  V30 1206 C 106.229 5.08238 1.20381 0
M  V30 1207 H 107.923 2.96488 0.416529 0
M  V30 1208 H 105.469 1.4262 0.198908 0
M  V30 1209 H 107.422 3.10458 2.84945 0
M  V30 1210 H 106.146 1.87426 2.67468 0
M  V30 1211 H 104.805 3.45051 1.23836 0
M  V30 1212 H 104.453 3.39249 3.71374 0
M  V30 1213 H 104.153 5.01993 3.05413 0
M  V30 1214 H 105.677 4.67966 3.92225 0
M  V30 1215 H 107.091 5.44811 1.78475 0
M  V30 1216 H 105.488 5.89349 1.13083 0
M  V30 1217 H 106.558 4.84558 0.182153 0
M  V30 1218 N 107.901 -0.206675 1.56239 0
M  V30 1219 C 108.848 -1.25617 1.93621 0
M  V30 1220 C 109.818 -1.45824 0.795274 0
M  V30 1221 O 111.003 -1.59148 1.05245 0
M  V30 1222 C 108.143 -2.59839 2.27107 0
M  V30 1223 C 107.256 -2.47308 3.54207 0
M  V30 1224 C 106.391 -3.74155 3.7707 0
M  V30 1225 C 105.43 -3.56407 4.97635 0
M  V30 1226 N 104.567 -4.75238 5.1681 0
M  V30 1227 H 109.407 -0.930383 2.83104 0
M  V30 1228 H 106.944 -0.448065 1.4011 0
M  V30 1229 H 108.902 -3.38021 2.44535 0
M  V30 1230 H 107.532 -2.90485 1.40778 0
M  V30 1231 H 106.584 -1.60483 3.4489 0
M  V30 1232 H 107.896 -2.30122 4.42544 0
M  V30 1233 H 107.05 -4.60778 3.94675 0
M  V30 1234 H 105.789 -3.94282 2.87042 0
M  V30 1235 H 104.794 -2.68168 4.79964 0
M  V30 1236 H 106.019 -3.37736 5.89161 0
M  V30 1237 H 103.965 -4.95651 4.29728 0
M  V30 1238 H 103.882 -4.60835 5.99306 0
M  V30 1239 H 105.15 -5.63246 5.38864 0
M  V30 1240 N 109.379 -1.50304 -0.473955 0
M  V30 1241 C 110.625 -1.61389 -1.22806 0
M  V30 1242 C 110.958 -0.311955 -1.91678 0
M  V30 1243 O 110.233 0.686384 -1.81986 0
M  V30 1244 C 110.516 -2.79219 -2.27396 0
M  V30 1245 C 110.369 -4.19286 -1.62848 0
M  V30 1246 C 111.688 -2.92614 -3.28732 0
M  V30 1247 H 108.807 -0.587399 -0.445119 0
M  V30 1248 H 111.449 -1.82681 -0.522265 0
M  V30 1249 H 109.599 -2.61195 -2.87592 0
M  V30 1250 H 111.271 -4.48892 -1.06271 0
M  V30 1251 H 109.514 -4.23677 -0.931693 0
M  V30 1252 H 110.185 -4.97655 -2.38838 0
M  V30 1253 H 112.661 -3.09105 -2.78556 0
M  V30 1254 H 111.537 -3.76688 -3.99246 0
M  V30 1255 H 111.798 -2.03107 -3.92683 0
M  V30 1256 N 110.857 0.726932 -1.39834 0
M  V30 1257 C 112.085 1.51613 -1.40787 0
M  V30 1258 C 112.5 1.88799 -0.00451505 0
M  V30 1259 O 111.857 1.54662 0.968809 0
M  V30 1260 C 111.908 2.79863 -2.28821 0
M  V30 1261 O 111.629 2.44253 -3.63692 0
M  V30 1262 C 113.13 3.73837 -2.38245 0
M  V30 1263 H 110.35 0.468264 -0.480593 0
M  V30 1264 H 112.894 0.897607 -1.83748 0
M  V30 1265 H 111.049 3.38027 -1.89252 0
M  V30 1266 H 111.463 3.26695 -4.1033 0
M  V30 1267 H 112.937 4.60699 -3.04073 0
M  V30 1268 H 113.414 4.16153 -1.40403 0
M  V30 1269 H 114.02 3.21589 -2.78317 0
M  V30 1270 N 112.336 1.25143 0.95797 0
M  V30 1271 C 113.584 1.09476 1.69881 0
M  V30 1272 C 113.905 -0.365502 1.91544 0
M  V30 1273 O 113.175 -1.25985 1.50015 0
M  V30 1274 H 111.755 0.402128 0.629525 0
M  V30 1275 H 114.417 1.57214 1.15194 0
M  V30 1276 H 113.513 1.60046 2.6794 0
M  V30 1277 N 113.814 -1.1601 1.06675 0
M  V30 1278 C 114.761 -2.20525 0.680967 0
M  V30 1279 C 115.731 -1.62904 -0.324283 0
M  V30 1280 O 116.916 -1.89615 -0.212294 0
M  V30 1281 C 114.056 -3.45013 0.0776551 0
M  V30 1282 C 113.169 -4.16863 1.13355 0
M  V30 1283 C 112.304 -5.2888 0.49597 0
M  V30 1284 C 111.343 -5.92537 1.53513 0
M  V30 1285 N 110.48 -6.96038 0.920631 0
M  V30 1286 H 115.32 -2.52876 1.57663 0
M  V30 1287 H 112.857 -1.24199 0.788223 0
M  V30 1288 H 114.815 -4.16193 -0.289704 0
M  V30 1289 H 113.445 -3.132 -0.781393 0
M  V30 1290 H 112.497 -3.44248 1.61857 0
M  V30 1291 H 113.809 -4.60294 1.92174 0
M  V30 1292 H 112.963 -6.06653 0.0758604 0
M  V30 1293 H 111.702 -4.86622 -0.324062 0
M  V30 1294 H 110.707 -5.13482 1.9651 0
M  V30 1295 H 111.932 -6.36873 2.35733 0
M  V30 1296 H 109.878 -6.55888 0.12138 0
M  V30 1297 H 109.795 -7.3786 1.64616 0
M  V30 1298 H 111.063 -7.77725 0.525795 0
M  V30 1299 N 115.292 -0.849877 -1.32721 0
M  V30 1300 C 116.703 -0.506188 -1.79707 0
M  V30 1301 C 117.054 0.975627 -1.70223 0
M  V30 1302 O 116.179 1.76078 -1.25799 0
M  V30 1303 C 116.774 -0.912044 -3.26293 0
M  V30 1304 C 115.333 -0.620326 -3.71253 0
M  V30 1305 C 114.48 -1.11439 -2.53922 0
M  V30 1306 H 117.431 -1.03754 -1.20087 0
M  V30 1307 H 117.452 -0.226493 -3.79825 0
M  V30 1308 H 116.964 -1.99057 -3.33164 0
M  V30 1309 H 115.065 0.447674 -3.69901 0
M  V30 1310 H 115.178 -1.18327 -4.64258 0
M  V30 1311 H 113.542 -0.534834 -2.49021 0
M  V30 1312 H 114.325 -2.19992 -2.6355 0
M  V30 1313 N 116.77 1.45427 -0.607355 0
M  V30 1314 C 118.047 1.9557 -0.0344566 0
M  V30 1315 C 118.427 1.54979 1.43334 0
M  V30 1316 O 117.775 0.812241 2.13576 0
M  V30 1317 C 117.985 3.48226 -0.232321 0
M  V30 1318 C 119.333 4.2445 -0.113001 0
M  V30 1319 O 120.357 3.55829 -0.162431 0
M  V30 1320 O 119.216 5.465 0.00209442 0
M  V30 1321 H 116.31 0.826222 0.0358667 0
M  V30 1322 H 118.856 1.55594 -0.6774 0
M  V30 1323 H 117.628 3.70739 -1.25174 0
M  V30 1324 H 117.251 3.95092 0.445896 0
M  V30 1325 N 118.248 0.346503 1.53744 0
M  V30 1326 C 119.211 -0.496439 2.23759 0
M  V30 1327 C 120.211 -1.0252 1.2388 0
M  V30 1328 O 121.401 -0.913974 1.48297 0
M  V30 1329 C 118.533 -1.69187 2.95954 0
M  V30 1330 H 119.726 0.115952 2.99676 0
M  V30 1331 H 117.279 0.0978939 1.55993 0
M  V30 1332 H 118.014 -2.34288 2.24231 0
M  V30 1333 H 117.799 -1.31989 3.69217 0
M  V30 1334 H 119.289 -2.28969 3.49232 0
M  V30 1335 N 119.726 -1.57421 0.075193 0
M  V30 1336 C 120.636 -2.1642 -0.905511 0
M  V30 1337 C 121.652 -1.12828 -1.32461 0
M  V30 1338 O 122.828 -1.45109 -1.39661 0
M  V30 1339 C 119.893 -2.71693 -2.15369 0
M  V30 1340 C 118.954 -3.90171 -1.79068 0
M  V30 1341 C 118.187 -4.42798 -2.97936 0
M  V30 1342 O 118.41 -3.94416 -4.12058 0
M  V30 1343 O 117.344 -5.34085 -2.77555 0
M  V30 1344 H 121.17 -3.00588 -0.433626 0
M  V30 1345 H 118.755 -1.48664 -0.148067 0
M  V30 1346 H 120.637 -3.07104 -2.88557 0
M  V30 1347 H 119.312 -1.90582 -2.61649 0
M  V30 1348 H 118.219 -3.59606 -1.03122 0
M  V30 1349 H 119.552 -4.72584 -1.37569 0
M  V30 1350 N 121.204 0.198386 -1.56346 0
M  V30 1351 C 122.432 0.935572 -1.84539 0
M  V30 1352 C 122.847 1.76989 -0.657281 0
M  V30 1353 O 122.204 1.78626 0.374043 0
M  V30 1354 C 122.255 1.8344 -3.11499 0
M  V30 1355 O 121.976 1.03377 -4.25728 0
M  V30 1356 C 123.477 2.68355 -3.52846 0
M  V30 1357 H 120.697 0.273126 -0.612897 0
M  V30 1358 H 123.241 0.20663 -2.03453 0
M  V30 1359 H 121.396 2.51701 -2.94492 0
M  V30 1360 H 121.81 1.64599 -4.98003 0
M  V30 1361 H 123.284 3.27085 -4.44657 0
M  V30 1362 H 123.761 3.41901 -2.75681 0
M  V30 1363 H 124.367 2.05471 -3.72373 0
M  V30 1364 N 122.682 1.50554 0.465978 0
M  V30 1365 C 123.612 1.72722 1.57128 0
M  V30 1366 C 124.593 0.576294 1.6004 0
M  V30 1367 O 125.778 0.81598 1.76225 0
M  V30 1368 C 122.908 1.82605 2.95419 0
M  V30 1369 C 121.862 2.97835 3.07373 0
M  V30 1370 C 121.188 2.92867 4.47363 0
M  V30 1371 C 122.488 4.38265 2.84114 0
M  V30 1372 H 124.182 2.65267 1.38829 0
M  V30 1373 H 121.728 1.2765 0.666441 0
M  V30 1374 H 123.681 1.96698 3.72677 0
M  V30 1375 H 122.405 0.866858 3.14886 0
M  V30 1376 H 121.064 2.83401 2.3255 0
M  V30 1377 H 120.712 1.94783 4.63755 0
M  V30 1378 H 120.412 3.70227 4.56296 0
M  V30 1379 H 121.936 3.09015 5.26633 0
M  V30 1380 H 123.35 4.53198 3.51118 0
M  V30 1381 H 121.747 5.17115 3.04487 0
M  V30 1382 H 122.817 4.50281 1.7993 0
M  V30 1383 N 124.16 -0.719506 1.40217 0
M  V30 1384 C 125.107 -1.83359 1.40172 0
M  V30 1385 C 126.077 -1.64065 0.259206 0
M  V30 1386 O 127.262 -1.85254 0.456677 0
M  V30 1387 C 124.402 -3.2103 1.26624 0
M  V30 1388 C 123.515 -3.51923 2.50548 0
M  V30 1389 C 122.65 -4.79079 2.29471 0
M  V30 1390 C 121.689 -5.02863 3.48992 0
M  V30 1391 N 120.826 -6.2123 3.27135 0
M  V30 1392 H 125.666 -1.82733 2.35399 0
M  V30 1393 H 123.203 -0.892688 1.16917 0
M  V30 1394 H 125.161 -4.00524 1.16776 0
M  V30 1395 H 123.791 -3.20895 0.350176 0
M  V30 1396 H 122.843 -2.67014 2.70939 0
M  V30 1397 H 124.155 -3.6541 3.39525 0
M  V30 1398 H 123.309 -5.66582 2.16955 0
M  V30 1399 H 122.048 -4.67794 1.37913 0
M  V30 1400 H 121.053 -4.13816 3.6199 0
M  V30 1401 H 122.278 -5.16023 4.41472 0
M  V30 1402 H 120.224 -6.11204 2.38256 0
M  V30 1403 H 120.141 -6.35375 4.09675 0
M  V30 1404 H 121.409 -7.11532 3.18344 0
M  V30 1405 N 125.638 -1.25649 -0.95132 0
M  V30 1406 C 126.884 -1.10757 -1.69884 0
M  V30 1407 C 127.217 0.350061 -1.91019 0
M  V30 1408 O 126.492 1.25783 -1.48354 0
M  V30 1409 C 126.775 -1.86606 -3.07978 0
M  V30 1410 C 126.628 -3.40217 -2.94232 0
M  V30 1411 C 127.947 -1.65182 -4.07925 0
M  V30 1412 H 125.066 -0.40374 -0.616574 0
M  V30 1413 H 127.708 -1.54521 -1.10558 0
M  V30 1414 H 125.858 -1.49409 -3.58621 0
M  V30 1415 H 127.53 -3.87108 -2.50889 0
M  V30 1416 H 125.773 -3.67759 -2.30078 0
M  V30 1417 H 126.444 -3.88505 -3.92133 0
M  V30 1418 H 128.92 -1.9757 -3.66204 0
M  V30 1419 H 127.796 -2.20683 -5.02583 0
M  V30 1420 H 128.057 -0.593933 -4.38092 0
M  V30 1421 N 127.117 1.15442 -1.07289 0
M  V30 1422 C 128.05 2.19135 -0.636798 0
M  V30 1423 C 129.028 1.58884 0.34562 0
M  V30 1424 O 130.212 1.86805 0.252195 0
M  V30 1425 C 127.339 3.38638 0.0650014 0
M  V30 1426 C 126.385 4.17412 -0.87576 0
M  V30 1427 S 127.218 4.79882 -2.37642 0
M  V30 1428 C 128.374 6.02753 -1.6864 0
M  V30 1429 H 128.607 2.55787 -1.51526 0
M  V30 1430 H 126.14 1.26394 -0.886793 0
M  V30 1431 H 128.098 4.07873 0.463664 0
M  V30 1432 H 126.759 3.00331 0.919801 0
M  V30 1433 H 125.952 5.02909 -0.33143 0
M  V30 1434 H 125.554 3.53722 -1.21478 0
M  V30 1435 H 127.846 6.70113 -0.997753 0
M  V30 1436 H 128.789 6.61754 -2.51967 0
M  V30 1437 H 129.197 5.52355 -1.16465 0
M  V30 1438 N 128.595 0.856903 1.32268 0
M  V30 1439 C 129.542 0.301172 2.28827 0
M  V30 1440 C 130.512 -0.593104 1.5515 0
M  V30 1441 O 131.697 -0.527537 1.83362 0
M  V30 1442 C 128.837 -0.502523 3.41422 0
M  V30 1443 C 127.95 0.417797 4.29975 0
M  V30 1444 C 127.085 -0.398749 5.29701 0
M  V30 1445 C 126.124 0.518827 6.09897 0
M  V30 1446 N 125.261 -0.260674 7.01616 0
M  V30 1447 H 130.101 1.12983 2.75751 0
M  V30 1448 H 127.638 0.568582 1.35667 0
M  V30 1449 H 129.596 -0.984141 4.05426 0
M  V30 1450 H 128.226 -1.29599 2.95642 0
M  V30 1451 H 127.278 1.01781 3.66531 0
M  V30 1452 H 128.59 1.12191 4.86019 0
M  V30 1453 H 127.744 -0.943435 5.9932 0
M  V30 1454 H 126.483 -1.13622 4.7428 0
M  V30 1455 H 125.488 1.07538 5.39181 0
M  V30 1456 H 126.713 1.25495 6.67404 0
M  V30 1457 H 124.659 -0.981198 6.4862 0
M  V30 1458 H 124.576 0.384364 7.55022 0
M  V30 1459 H 125.844 -0.787014 7.75517 0
M  V30 1460 N 130.073 -1.45103 0.615059 0
M  V30 1461 C 131.005 -2.28786 -0.13762 0
M  V30 1462 C 132.018 -1.40376 -0.824525 0
M  V30 1463 O 133.207 -1.64681 -0.688662 0
M  V30 1464 C 130.307 -3.16322 -1.21628 0
M  V30 1465 C 129.48 -4.33054 -0.615039 0
M  V30 1466 C 128.539 -5.01743 -1.58556 0
M  V30 1467 O 127.565 -5.58293 -1.10895 0
M  V30 1468 N 128.767 -5.01714 -2.91998 0
M  V30 1469 H 131.532 -2.94025 0.580483 0
M  V30 1470 H 129.093 -1.55373 0.45507 0
M  V30 1471 H 131.085 -3.59139 -1.86552 0
M  V30 1472 H 129.655 -2.52943 -1.83681 0
M  V30 1473 H 128.875 -3.93627 0.21245 0
M  V30 1474 H 130.163 -5.08431 -0.193704 0
M  V30 1475 H 129.561 -4.57075 -3.33316 0
M  V30 1476 H 128.118 -5.48371 -3.52325 0
M  V30 1477 N 131.551 -0.354651 -1.53558 0
M  V30 1478 C 132.962 0.126902 -1.86268 0
M  V30 1479 C 133.313 1.49075 -1.27558 0
M  V30 1480 O 132.438 2.08105 -0.5934 0
M  V30 1481 C 133.033 0.237046 -3.3797 0
M  V30 1482 C 131.592 0.662842 -3.70518 0
M  V30 1483 C 130.739 -0.196652 -2.76602 0
M  V30 1484 H 133.69 -0.573849 -1.47962 0
M  V30 1485 H 133.711 1.06259 -3.65362 0
M  V30 1486 H 133.223 -0.755725 -3.80671 0
M  V30 1487 H 131.324 1.66424 -3.33367 0
M  V30 1488 H 131.437 0.445034 -4.77029 0
M  V30 1489 H 129.801 0.332763 -2.52517 0
M  V30 1490 H 130.584 -1.18676 -3.22135 0
M  V30 1491 N 133.029 1.57378 -0.0835403 0
M  V30 1492 C 134.445 1.57246 0.273109 0
M  V30 1493 C 134.645 1.09385 1.69225 0
M  V30 1494 O 133.701 0.765051 2.40631 0
M  V30 1495 C 135.014 3.00614 0.0720628 0
M  V30 1496 C 136.562 3.12684 0.1407 0
M  V30 1497 C 137.037 4.57989 -0.0322094 0
M  V30 1498 N 138.528 4.63194 0.0230085 0
M  V30 1499 C 139.263 5.73335 -0.0861941 0
M  V30 1500 N 138.759 6.9235 -0.24958 0
M  V30 1501 N 140.552 5.62093 -0.0282886 0
M  V30 1502 H 132.703 1.86801 -1.0109 0
M  V30 1503 H 134.966 0.861687 -0.395222 0
M  V30 1504 H 134.672 3.39786 -0.907662 0
M  V30 1505 H 134.546 3.68193 0.81936 0
M  V30 1506 H 136.933 2.73391 1.11092 0
M  V30 1507 H 137.014 2.47719 -0.637896 0
M  V30 1508 H 136.658 4.97973 -0.999247 0
M  V30 1509 H 136.588 5.21 0.765937 0
M  V30 1510 H 139.079 3.77613 0.14722 0
M  V30 1511 H 139.392 7.72117 -0.324733 0
M  V30 1512 H 137.737 6.94415 -0.285097 0
M  V30 1513 H 140.928 4.67997 0.0981408 0
M  V30 1514 H 141.101 6.47895 -0.116845 0
M  V30 1515 N 134.507 -0.190092 1.56449 0
M  V30 1516 C 135.747 -0.916414 1.82705 0
M  V30 1517 C 136.111 -1.80235 0.661763 0
M  V30 1518 O 137.312 -2.56484 0.80433 0
M  V30 1519 C 135.583 -1.70691 3.14005 0
M  V30 1520 S 137.142 -2.48457 3.61683 0
M  V30 1521 H 133.96 -0.307281 0.64117 0
M  V30 1522 H 136.562 -0.179433 1.94675 0
M  V30 1523 H 135.266 -1.04677 3.96826 0
M  V30 1524 H 134.797 -2.48562 3.04927 0
M  V30 1525 H 136.812 -3.72756 3.27517 0
M  V30 1526 N 135.985 -1.50799 -0.457987 0
M  V30 1527 C 137.233 -1.62121 -1.2067 0
M  V30 1528 C 137.554 -0.329793 -1.92191 0
M  V30 1529 O 136.824 0.653409 -1.84682 0
M  V30 1530 H 135.404 -0.597441 -0.448411 0
M  V30 1531 H 138.066 -1.87637 -0.527096 0
M  V30 1532 H 137.162 -2.43882 -1.94751 0
M  V30 1533 N 137.463 0.71206 -1.40597 0
M  V30 1534 C 138.709 1.47416 -1.39271 0
M  V30 1535 C 139.042 1.942 0.00388791 0
M  V30 1536 O 138.317 1.68403 0.973179 0
M  V30 1537 C 138.6 2.69774 -2.38525 0
M  V30 1538 C 138.453 2.28861 -3.87224 0
M  V30 1539 C 139.772 3.71939 -2.35264 0
M  V30 1540 H 136.891 0.534713 -0.5072 0
M  V30 1541 H 139.533 0.812375 -1.71757 0
M  V30 1542 H 137.683 3.26238 -2.10953 0
M  V30 1543 H 139.355 1.77852 -4.25636 0
M  V30 1544 H 137.598 1.60824 -4.02887 0
M  V30 1545 H 138.269 3.16584 -4.52193 0
M  V30 1546 H 140.745 3.25113 -2.59694 0
M  V30 1547 H 139.621 4.55186 -3.06753 0
M  V30 1548 H 139.882 4.20484 -1.36549 0
M  V30 1549 N 138.941 1.26152 0.944643 0
M  V30 1550 C 140.352 1.10454 1.50522 0
M  V30 1551 C 140.703 -0.31635 1.93633 0
M  V30 1552 O 139.828 -1.20746 1.79581 0
M  V30 1553 C 140.423 1.99891 2.73549 0
M  V30 1554 C 138.982 1.88348 3.25886 0
M  V30 1555 C 138.129 1.93447 1.9868 0
M  V30 1556 H 141.08 1.39292 0.760489 0
M  V30 1557 H 141.101 1.54477 3.47732 0
M  V30 1558 H 140.613 3.03297 2.42141 0
M  V30 1559 H 138.714 0.878636 3.62092 0
M  V30 1560 H 138.827 2.73696 3.93227 0
M  V30 1561 H 137.191 1.37456 2.14425 0
M  V30 1562 H 137.974 2.98476 1.69607 0
M  V30 1563 N 140.419 -1.14872 1.07899 0
M  V30 1564 C 141.696 -1.81928 0.71845 0
M  V30 1565 C 142.076 -1.95417 -0.798455 0
M  V30 1566 O 141.424 -1.50997 -1.715 0
M  V30 1567 C 141.634 -3.17937 1.43935 0
M  V30 1568 C 142.982 -3.93501 1.59506 0
M  V30 1569 O 144.006 -3.27509 1.40058 0
M  V30 1570 O 142.865 -5.1183 1.91551 0
M  V30 1571 H 139.959 -0.78628 0.256305 0
M  V30 1572 H 142.505 -1.21934 1.18026 0
M  V30 1573 H 141.277 -3.0325 2.47295 0
M  V30 1574 H 140.9 -3.85619 0.968687 0
M  V30 1575 N 141.898 -0.863906 -1.31812 0
M  V30 1576 C 143.144 -0.472535 -1.97218 0
M  V30 1577 C 143.477 0.971394 -1.68159 0
M  V30 1578 O 142.752 1.68309 -0.974798 0
M  V30 1579 C 143.035 -0.723054 -3.52766 0
M  V30 1580 C 142.888 -2.21608 -3.91421 0
M  V30 1581 C 144.207 -0.185522 -4.39709 0
M  V30 1582 H 141.326 -0.173158 -0.71637 0
M  V30 1583 H 143.968 -1.08403 -1.56041 0
M  V30 1584 H 142.118 -0.202577 -3.87971 0
M  V30 1585 H 143.79 -2.80334 -3.66347 0
M  V30 1586 H 142.033 -2.691 -3.40246 0
M  V30 1587 H 142.704 -2.34203 -4.99853 0
M  V30 1588 H 145.18 -0.630726 -4.11292 0
M  V30 1589 H 144.056 -0.390306 -5.47511 0
M  V30 1590 H 144.317 0.912229 -4.32586 0
M  V30 1591 N 143.376 1.44774 -0.622745 0
M  V30 1592 C 144.339 2.29069 0.0774015 0
M  V30 1593 C 145.339 1.4059 0.780461 0
M  V30 1594 O 146.529 1.62551 0.626322 0
M  V30 1595 C 143.661 3.21974 1.12006 0
M  V30 1596 H 144.854 2.92459 -0.663901 0
M  V30 1597 H 142.407 1.51548 -0.382486 0
M  V30 1598 H 143.142 2.63417 1.89162 0
M  V30 1599 H 142.927 3.87168 0.619951 0
M  V30 1600 H 144.417 3.85318 1.60995 0
M  V30 1601 N 144.854 0.36279 1.53368 0
M  V30 1602 C 145.786 -0.519668 2.23231 0
M  V30 1603 C 146.799 -1.04844 1.24546 0
M  V30 1604 O 147.988 -0.955296 1.50786 0
M  V30 1605 C 145.088 -1.72995 2.9142 0
M  V30 1606 C 144.261 -1.33316 4.16588 0
M  V30 1607 C 143.32 -2.40521 4.68013 0
M  V30 1608 O 142.346 -2.03027 5.3176 0
M  V30 1609 N 143.548 -3.72065 4.45587 0
M  V30 1610 H 146.313 0.078751 2.99597 0
M  V30 1611 H 143.874 0.187833 1.60807 0
M  V30 1612 H 145.866 -2.44184 3.22733 0
M  V30 1613 H 144.436 -2.2353 2.18525 0
M  V30 1614 H 143.656 -0.451236 3.91609 0
M  V30 1615 H 144.944 -1.04432 4.97967 0
M  V30 1616 H 144.342 -4.05304 3.94646 0
M  V30 1617 H 142.899 -4.39366 4.81457 0
M  V30 1618 N 146.332 -1.57332 0.0918853 0
M  V30 1619 C 147.579 -1.94236 -0.572577 0
M  V30 1620 C 147.907 -0.973398 -1.6839 0
M  V30 1621 O 147.162 0.00756912 -1.95699 0
M  V30 1622 C 147.461 -3.37689 -1.17051 0
M  V30 1623 C 147.127 -4.50527 -0.183304 0
M  V30 1624 C 145.789 -4.81119 0.0882276 0
M  V30 1625 C 148.141 -5.18883 0.49095 0
M  V30 1626 C 145.469 -5.77395 1.04076 0
M  V30 1627 C 147.821 -6.1618 1.43193 0
M  V30 1628 C 146.485 -6.45179 1.71173 0
M  V30 1629 H 145.755 -0.710762 -0.209521 0
M  V30 1630 H 148.402 -1.9077 0.167036 0
M  V30 1631 H 146.707 -3.37718 -1.9863 0
M  V30 1632 H 148.404 -3.63543 -1.69227 0
M  V30 1633 H 144.994 -4.26681 -0.405124 0
M  V30 1634 H 149.178 -4.95427 0.294312 0
M  V30 1635 H 144.434 -5.98179 1.26457 0
M  V30 1636 H 148.608 -6.68243 1.96023 0
M  V30 1637 H 146.235 -7.1959 2.4514 0
M  V30 1638 N 147.81 0.181792 -1.56548 0
M  V30 1639 C 149.056 0.901431 -1.81665 0
M  V30 1640 C 149.389 1.82347 -0.668075 0
M  V30 1641 O 148.664 1.91669 0.330615 0
M  V30 1642 C 148.947 1.70618 -3.17115 0
M  V30 1643 C 148.8 0.807964 -4.42484 0
M  V30 1644 C 150.119 2.67605 -3.49393 0
M  V30 1645 H 147.238 0.32627 -0.660846 0
M  V30 1646 H 149.88 0.168134 -1.89255 0
M  V30 1647 H 148.03 2.33133 -3.10775 0
M  V30 1648 H 149.702 0.19649 -4.60881 0
M  V30 1649 H 147.945 0.115411 -4.33646 0
M  V30 1650 H 148.616 1.40632 -5.33785 0
M  V30 1651 H 151.092 2.15218 -3.56118 0
M  V30 1652 H 149.968 3.20985 -4.45264 0
M  V30 1653 H 150.229 3.47298 -2.73563 0
M  V30 1654 N 149.288 1.51039 0.449983 0
M  V30 1655 C 150.218 1.74379 1.55288 0
M  V30 1656 C 151.199 0.593236 1.5942 0
M  V30 1657 O 152.384 0.834625 1.7535 0
M  V30 1658 C 149.514 1.85728 2.93466 0
M  V30 1659 C 148.468 3.01078 3.04197 0
M  V30 1660 C 147.794 2.97595 4.44231 0
M  V30 1661 C 149.094 4.41254 2.7945 0
M  V30 1662 H 150.788 2.66725 1.36008 0
M  V30 1663 H 148.334 1.2835 0.652864 0
M  V30 1664 H 150.287 2.0064 3.70569 0
M  V30 1665 H 149.011 0.900207 3.13949 0
M  V30 1666 H 147.67 2.85851 2.29531 0
M  V30 1667 H 147.318 1.99691 4.61663 0
M  V30 1668 H 147.018 3.75046 4.52343 0
M  V30 1669 H 148.542 3.14583 5.23326 0
M  V30 1670 H 149.956 4.56897 3.46292 0
M  V30 1671 H 148.353 5.20315 2.98985 0
M  V30 1672 H 149.423 4.52164 1.75144 0
M  V30 1673 N 150.766 -0.704594 1.40972 0
M  V30 1674 C 151.994 -1.49354 1.43182 0
M  V30 1675 C 152.409 -1.88768 0.0345508 0
M  V30 1676 O 151.766 -1.56184 -0.944081 0
M  V30 1677 C 151.817 -2.76187 2.33244 0
M  V30 1678 O 151.538 -2.38436 3.67532 0
M  V30 1679 C 153.039 -3.7 2.44162 0
M  V30 1680 H 150.259 -0.460559 0.487982 0
M  V30 1681 H 152.803 -0.868261 1.85153 0
M  V30 1682 H 150.958 -3.34974 1.94606 0
M  V30 1683 H 151.372 -3.20126 4.15475 0
M  V30 1684 H 152.846 -4.55803 3.11364 0
M  V30 1685 H 153.323 -4.13867 1.47006 0
M  V30 1686 H 153.929 -3.17121 2.83398 0
M  V30 1687 N 152.244 -1.26651 -0.937939 0
M  V30 1688 C 153.154 -1.10276 -2.07066 0
M  V30 1689 C 154.17 -0.0354197 -1.73964 0
M  V30 1690 O 155.346 -0.239816 -1.99967 0
M  V30 1691 C 152.411 -0.740887 -3.38691 0
M  V30 1692 C 151.472 -1.88799 -3.85556 0
M  V30 1693 C 150.705 -1.54329 -5.10899 0
M  V30 1694 O 150.928 -0.446494 -5.6865 0
M  V30 1695 O 149.862 -2.37911 -5.52885 0
M  V30 1696 H 153.688 -2.05309 -2.23789 0
M  V30 1697 H 151.273 -1.05743 -1.0554 0
M  V30 1698 H 153.155 -0.55195 -4.1777 0
M  V30 1699 H 151.83 0.180022 -3.23199 0
M  V30 1700 H 150.737 -2.13191 -3.07409 0
M  V30 1701 H 152.07 -2.78874 -4.05574 0
M  V30 1702 N 153.722 1.14298 -1.08507 0
M  V30 1703 C 154.97 1.84993 -0.813763 0
M  V30 1704 C 155.291 1.83405 0.662393 0
M  V30 1705 O 154.561 1.28319 1.48024 0
M  V30 1706 H 153.141 0.684966 -0.298045 0
M  V30 1707 H 155.803 1.385 -1.37126 0
M  V30 1708 H 154.899 2.89788 -1.15884 0
M  V30 1709 N 155.201 0.870884 1.31352 0
M  V30 1710 C 156.149 0.316445 2.30437 0
M  V30 1711 C 157.143 -0.568965 1.59559 0
M  V30 1712 O 158.349 -0.454964 1.74155 0
M  V30 1713 H 154.724 0.0836521 0.747333 0
M  V30 1714 H 156.695 1.16606 2.74673 0
M  V30 1715 C 155.444 -0.46635 3.44558 0
M  V30 1716 H 154.767 0.205687 3.99271 0
M  V30 1717 H 156.207 -0.819614 4.16003 0
M  V30 1718 C 154.666 -1.65797 2.9328 0
M  V30 1719 O 155.196 -2.75728 2.92125 0
M  V30 1720 N 153.402 -1.49041 2.4947 0
M  V30 1721 H 152.949 -0.59612 2.50608 0
M  V30 1722 H 152.907 -2.28911 2.15516 0
M  V30 1723 N 156.679 -1.44442 0.630414 0
M  V30 1724 C 158.09 -1.85434 0.217063 0
M  V30 1725 C 158.441 -1.52748 -1.23136 0
M  V30 1726 O 157.566 -0.965205 -1.93682 0
M  V30 1727 C 158.161 -3.36581 0.387168 0
M  V30 1728 C 156.72 -3.76389 0.0283297 0
M  V30 1729 C 155.867 -2.68296 0.700889 0
M  V30 1730 H 158.818 -1.34919 0.83562 0
M  V30 1731 H 158.839 -3.78657 -0.374086 0
M  V30 1732 H 158.351 -3.60339 1.44144 0
M  V30 1733 H 156.452 -3.58246 -1.02423 0
M  V30 1734 H 156.565 -4.77095 0.437892 0
M  V30 1735 H 154.929 -2.54335 0.136267 0
M  V30 1736 H 155.712 -2.94887 1.75774 0
M  V30 1737 N 158.157 -0.370918 -1.53173 0
M  V30 1738 C 159.573 -0.0200818 -1.59587 0
M  V30 1739 C 159.773 1.46279 -1.38581 0
M  V30 1740 O 158.829 2.22506 -1.19363 0
M  V30 1741 C 160.142 -0.4808 -2.96831 0
M  V30 1742 C 161.69 -0.435477 -3.09956 0
M  V30 1743 C 162.165 -0.872092 -4.4962 0
M  V30 1744 N 163.656 -0.827364 -4.55751 0
M  V30 1745 C 164.391 -1.13683 -5.62018 0
M  V30 1746 N 163.887 -1.51584 -6.76014 0
M  V30 1747 N 165.68 -1.05927 -5.52029 0
M  V30 1748 H 157.831 -1.33652 -1.65079 0
M  V30 1749 H 160.094 -0.546634 -0.774529 0
M  V30 1750 H 159.8 -1.51577 -3.1736 0
M  V30 1751 H 159.674 0.129796 -3.76977 0
M  V30 1752 H 162.061 0.590371 -2.89134 0
M  V30 1753 H 162.142 -1.08164 -2.31806 0
M  V30 1754 H 161.786 -1.89608 -4.71181 0
M  V30 1755 H 161.716 -0.203127 -5.26208 0
M  V30 1756 H 164.207 -0.548216 -3.73902 0
M  V30 1757 H 164.52 -1.73609 -7.53047 0
M  V30 1758 H 162.865 -1.55454 -6.77391 0
M  V30 1759 H 166.056 -0.762321 -4.61851 0
M  V30 1760 H 166.229 -1.30378 -6.34749 0
M  V30 1761 N 159.635 1.57281 -0.100228 0
M  V30 1762 C 160.881 1.95626 0.556946 0
M  V30 1763 C 161.236 0.981655 1.65473 0
M  V30 1764 O 160.529 0.00849847 1.91598 0
M  V30 1765 C 160.723 3.38305 1.15259 0
M  V30 1766 C 160.552 4.49555 0.114035 0
M  V30 1767 C 159.322 5.0434 -0.311266 0
M  V30 1768 C 161.52 5.10051 -0.659768 0
M  V30 1769 N 159.502 5.99152 -1.33755 0
M  V30 1770 C 160.873 6.00628 -1.53774 0
M  V30 1771 C 162.928 4.92772 -0.712723 0
M  V30 1772 C 161.631 6.7578 -2.46403 0
M  V30 1773 C 163.657 5.6859 -1.62663 0
M  V30 1774 C 163.019 6.58838 -2.49222 0
M  V30 1775 H 159.118 0.7624 0.173982 0
M  V30 1776 H 161.702 1.93829 -0.183988 0
M  V30 1777 H 159.873 3.40786 1.86332 0
M  V30 1778 H 161.605 3.63817 1.77254 0
M  V30 1779 H 158.36 4.73537 0.0774812 0
M  V30 1780 H 158.784 6.5126 -1.84905 0
M  V30 1781 H 163.426 4.22761 -0.0576648 0
M  V30 1782 H 161.144 7.4505 -3.12931 0
M  V30 1783 H 164.73 5.57233 -1.67281 0
M  V30 1784 H 163.61 7.16479 -3.18791 0
M  V30 1785 N 161.113 -0.173488 1.56642 0
M  V30 1786 C 162.023 -1.23482 1.99473 0
M  V30 1787 C 163.039 -1.48567 0.905752 0
M  V30 1788 O 164.215 -1.60758 1.21321 0
M  V30 1789 C 161.28 -2.55444 2.34413 0
M  V30 1790 C 160.341 -2.38241 3.57127 0
M  V30 1791 C 159.574 -3.63909 3.90392 0
M  V30 1792 O 159.797 -4.68996 3.24653 0
M  V30 1793 O 158.731 -3.58149 4.83749 0
M  V30 1794 H 162.557 -0.901279 2.90018 0
M  V30 1795 H 160.142 -0.380185 1.44482 0
M  V30 1796 H 162.024 -3.33292 2.57865 0
M  V30 1797 H 160.699 -2.88382 1.4703 0
M  V30 1798 H 159.606 -1.58431 3.38896 0
M  V30 1799 H 160.939 -2.10228 4.45045 0
M  V30 1800 N 162.591 -1.51276 -0.441967 0
M  V30 1801 C 163.523 -1.68444 -1.55433 0
M  V30 1802 C 164.536 -0.565187 -1.52674 0
M  V30 1803 O 165.725 -0.839356 -1.57534 0
M  V30 1804 C 162.825 -1.67966 -2.94348 0
M  V30 1805 C 161.998 -2.964 -3.21661 0
M  V30 1806 C 161.057 -2.88171 -4.40277 0
M  V30 1807 O 160.083 -3.62119 -4.39157 0
M  V30 1808 N 161.285 -2.03706 -5.43584 0
M  V30 1809 H 164.05 -2.644 -1.41112 0
M  V30 1810 H 161.611 -1.49104 -0.630838 0
M  V30 1811 H 163.603 -1.60035 -3.71713 0
M  V30 1812 H 162.173 -0.796225 -3.0229 0
M  V30 1813 H 161.393 -3.18234 -2.32638 0
M  V30 1814 H 162.681 -3.81427 -3.36736 0
M  V30 1815 H 162.079 -1.42995 -5.47329 0
M  V30 1816 H 160.636 -2.01658 -6.1982 0
M  V30 1817 N 164.069 0.697108 -1.41344 0
M  V30 1818 C 165.297 1.48593 -1.43972 0
M  V30 1819 C 165.712 1.88747 -0.0445612 0
M  V30 1820 O 165.069 1.56682 0.935785 0
M  V30 1821 C 165.12 2.74946 -2.34706 0
M  V30 1822 O 164.841 2.36484 -3.68791 0
M  V30 1823 C 166.342 3.687 -2.46121 0
M  V30 1824 H 163.562 0.457964 -0.490418 0
M  V30 1825 H 166.106 0.858429 -1.8561 0
M  V30 1826 H 164.261 3.33937 -1.9638 0
M  V30 1827 H 164.675 3.17918 -4.17167 0
M  V30 1828 H 166.149 4.54145 -3.13777 0
M  V30 1829 H 166.626 4.13081 -1.49199 0
M  V30 1830 H 167.232 3.15613 -2.85076 0
M  V30 1831 N 165.547 1.27147 0.931209 0
M  V30 1832 C 166.497 1.06227 2.01742 0
M  V30 1833 C 167.481 -0.00859065 1.60898 0
M  V30 1834 O 168.673 0.209537 1.75755 0
M  V30 1835 C 165.802 0.707787 3.35924 0
M  V30 1836 C 164.888 1.81661 3.83223 0
M  V30 1837 N 165.279 3.05564 4.03069 0
M  V30 1838 C 163.577 1.70249 4.12227 0
M  V30 1839 C 164.278 3.77697 4.42403 0
M  V30 1840 N 163.254 3.0544 4.49675 0
M  V30 1841 H 167.056 2.00261 2.15111 0
M  V30 1842 H 164.57 1.1781 1.11779 0
M  V30 1843 H 166.567 0.539043 4.134 0
M  V30 1844 H 165.227 -0.224964 3.2392 0
M  V30 1845 H 166.238 3.41363 3.89476 0
M  V30 1846 H 162.915 0.840329 4.08956 0
M  V30 1847 H 164.305 4.84168 4.65866 0
M  V30 1848 N 167.025 -1.13721 1.09112 0
M  V30 1849 C 167.955 -2.21148 0.749385 0
M  V30 1850 C 168.936 -1.6792 -0.271475 0
M  V30 1851 O 170.121 -1.93693 -0.140251 0
M  V30 1852 C 167.251 -3.46905 0.165659 0
M  V30 1853 C 166.205 -4.13203 1.11567 0
M  V30 1854 C 165.531 -5.33248 0.393809 0
M  V30 1855 C 166.831 -4.60912 2.45678 0
M  V30 1856 H 168.525 -2.4999 1.64758 0
M  V30 1857 H 166.071 -1.20156 0.793626 0
M  V30 1858 H 168.024 -4.21313 -0.085466 0
M  V30 1859 H 166.748 -3.17449 -0.767714 0
M  V30 1860 H 165.407 -3.40758 1.35202 0
M  V30 1861 H 165.055 -5.00054 -0.543599 0
M  V30 1862 H 164.755 -5.78552 1.02721 0
M  V30 1863 H 166.279 -6.10413 0.150908 0
M  V30 1864 H 167.693 -5.26759 2.26269 0
M  V30 1865 H 166.09 -5.16944 3.04776 0
M  V30 1866 H 167.16 -3.75603 3.06677 0
M  V30 1867 N 168.503 -0.877838 -1.30888 0
M  V30 1868 C 169.731 -0.507414 -2.00581 0
M  V30 1869 C 170.146 0.902216 -1.65848 0
M  V30 1870 O 169.503 1.59225 -0.891831 0
M  V30 1871 C 169.554 -0.664162 -3.55347 0
M  V30 1872 O 169.275 -2.01829 -3.8884 0
M  V30 1873 C 170.776 -0.295787 -4.42312 0
M  V30 1874 H 167.996 -0.196866 -0.641471 0
M  V30 1875 H 170.54 -1.18117 -1.66939 0
M  V30 1876 H 168.695 -0.0378619 -3.87381 0
M  V30 1877 H 169.109 -2.03174 -4.8355 0
M  V30 1878 H 170.583 -0.456388 -5.5011 0
M  V30 1879 H 171.06 0.765663 -4.32475 0
M  V30 1880 H 171.666 -0.898113 -4.15709 0
M  V30 1881 N 169.982 1.44106 -0.638065 0
M  V30 1882 C 171.212 2.06037 -0.152394 0
M  V30 1883 C 171.62 1.47808 1.18108 0
M  V30 1884 O 170.963 0.598092 1.73691 0
M  V30 1885 C 171.025 3.59488 0.0293714 0
M  V30 1886 C 170.689 4.4022 -1.22702 0
M  V30 1887 C 171.686 4.73256 -2.15232 0
M  V30 1888 C 169.371 4.8048 -1.46437 0
M  V30 1889 C 171.365 5.45444 -3.29802 0
M  V30 1890 C 169.052 5.52417 -2.61303 0
M  V30 1891 C 170.05 5.84819 -3.52811 0
M  V30 1892 O 169.738 6.55289 -4.65673 0
M  V30 1893 H 169.47 0.671233 -0.0801401 0
M  V30 1894 H 172.024 1.85851 -0.874563 0
M  V30 1895 H 170.254 3.78191 0.806758 0
M  V30 1896 H 171.943 4.03164 0.470475 0
M  V30 1897 H 172.709 4.42684 -1.98131 0
M  V30 1898 H 168.588 4.54676 -0.760977 0
M  V30 1899 H 172.132 5.70653 -4.01249 0
M  V30 1900 H 168.029 5.82404 -2.78344 0
M  V30 1901 H 168.797 6.73762 -4.64744 0
M  V30 1902 N 171.46 0.379036 1.52974 0
M  V30 1903 C 172.876 0.0285448 1.59574 0
M  V30 1904 C 173.076 -1.45542 1.39355 0
M  V30 1905 O 172.132 -2.2187 1.20541 0
M  V30 1906 C 173.445 0.496535 2.96572 0
M  V30 1907 C 174.993 0.451909 3.0972 0
M  V30 1908 C 175.468 0.895924 4.49152 0
M  V30 1909 N 176.959 0.851522 4.55306 0
M  V30 1910 C 177.694 1.16661 5.61407 0
M  V30 1911 N 177.19 1.55166 6.752 0
M  V30 1912 N 178.983 1.08853 5.51459 0
M  V30 1913 H 171.134 1.34525 1.64367 0
M  V30 1914 H 173.397 0.550733 0.771619 0
M  V30 1915 H 173.103 1.53258 3.16552 0
M  V30 1916 H 172.977 -0.109802 3.7704 0
M  V30 1917 H 175.364 -0.575029 2.89443 0
M  V30 1918 H 175.445 1.09392 2.3123 0
M  V30 1919 H 175.089 1.92104 4.70168 0
M  V30 1920 H 175.019 0.23103 5.26093 0
M  V30 1921 H 177.51 0.568038 3.73606 0
M  V30 1922 H 177.823 1.776 7.52116 0
M  V30 1923 H 176.168 1.59044 6.76557 0
M  V30 1924 H 179.359 0.786803 4.6144 0
M  V30 1925 H 179.532 1.33742 6.34048 0
M  V30 1926 N 172.938 -1.57226 0.108567 0
M  V30 1927 C 174.187 -1.94008 -0.551703 0
M  V30 1928 C 174.5 -0.993442 -1.68494 0
M  V30 1929 O 175.706 -1.25551 -2.40726 0
M  V30 1930 C 174.162 -3.44763 -1.03279 0
M  V30 1931 C 173.77 -4.47943 0.0714193 0
M  V30 1932 C 175.514 -3.90483 -1.66503 0
M  V30 1933 C 173.421 -5.89865 -0.425779 0
M  V30 1934 H 172.351 -0.724206 -0.209863 0
M  V30 1935 H 175.002 -1.82547 0.186741 0
M  V30 1936 H 173.384 -3.51422 -1.82533 0
M  V30 1937 H 174.558 -4.52942 0.847365 0
M  V30 1938 H 172.873 -4.11913 0.609669 0
M  V30 1939 H 175.47 -4.93925 -2.04798 0
M  V30 1940 H 175.813 -3.29877 -2.53942 0
M  V30 1941 H 176.346 -3.86581 -0.938074 0
M  V30 1942 H 173.085 -6.54202 0.412316 0
M  V30 1943 H 172.605 -5.88309 -1.16843 0
M  V30 1944 H 174.284 -6.40844 -0.890397 0
M  V30 1945 N 174.416 0.165178 -1.56732 0
M  V30 1946 C 175.326 1.22423 -2.00125 0
M  V30 1947 C 176.342 1.48084 -0.913619 0
M  V30 1948 O 177.518 1.60112 -1.22172 0
M  V30 1949 C 174.583 2.54197 -2.35764 0
M  V30 1950 C 173.644 2.36343 -3.58386 0
M  V30 1951 C 172.877 3.61834 -3.92316 0
M  V30 1952 O 173.1 4.67267 -3.27135 0
M  V30 1953 O 172.034 3.55579 -4.85641 0
M  V30 1954 H 175.86 0.885886 -2.90492 0
M  V30 1955 H 173.445 0.372518 -1.44681 0
M  V30 1956 H 175.327 3.3192 -2.59629 0
M  V30 1957 H 174.002 2.87598 -1.48557 0
M  V30 1958 H 172.909 1.56632 -3.39731 0
M  V30 1959 H 174.242 2.07865 -4.46154 0
M  V30 1960 N 175.894 1.51508 0.433938 0
M  V30 1961 C 176.842 1.73646 1.54757 0
M  V30 1962 C 177.836 0.602854 1.5831 0
M  V30 1963 O 179.042 0.784318 1.62014 0
M  V30 1964 H 175.417 0.548718 0.51421 0
M  V30 1965 H 177.388 2.66991 1.33261 0
M  V30 1966 C 176.137 1.88172 2.92381 0
M  V30 1967 H 175.46 2.74808 2.90381 0
M  V30 1968 H 176.9 2.07672 3.6966 0
M  V30 1969 C 175.359 0.64239 3.30719 0
M  V30 1970 O 175.889 -0.201362 4.01195 0
M  V30 1971 N 174.095 0.485489 2.86516 0
M  V30 1972 H 173.642 1.17318 2.29334 0
M  V30 1973 H 173.6 -0.342482 3.12529 0
M  V30 1974 N 177.372 -0.689602 1.41712 0
M  V30 1975 C 178.602 -1.47613 1.44548 0
M  V30 1976 C 179.01 -1.89132 0.0509034 0
M  V30 1977 O 178.353 -1.57741 -0.94146 0
M  V30 1978 C 178.415 -2.76596 2.2964 0
M  V30 1979 C 178.079 -2.57245 3.77722 0
M  V30 1980 C 179.076 -2.22804 4.69739 0
M  V30 1981 C 176.761 -2.727 4.2183 0
M  V30 1982 C 178.755 -2.04064 6.03851 0
M  V30 1983 C 176.442 -2.53576 5.56006 0
M  V30 1984 C 177.44 -2.1931 6.46832 0
M  V30 1985 O 177.128 -2.00359 7.78532 0
M  V30 1986 H 176.86 -0.461227 0.494212 0
M  V30 1987 H 179.414 -0.856045 1.86711 0
M  V30 1988 H 177.644 -3.41033 1.82301 0
M  V30 1989 H 179.333 -3.38424 2.24107 0
M  V30 1990 H 180.099 -2.10473 4.36951 0
M  V30 1991 H 175.978 -2.98353 3.51435 0
M  V30 1992 H 179.522 -1.77241 6.74708 0
M  V30 1993 H 175.419 -2.65499 5.88371 0
M  V30 1994 H 176.187 -2.15075 7.89737 0
M  V30 1995 N 178.85 -1.27639 -0.924453 0
M  V30 1996 C 180.078 -1.16989 -1.70649 0
M  V30 1997 C 180.493 0.272869 -1.86818 0
M  V30 1998 O 179.85 1.18549 -1.38753 0
M  V30 1999 C 179.901 -1.85229 -3.10439 0
M  V30 2000 O 179.622 -3.23868 -2.95028 0
M  V30 2001 C 181.123 -1.80746 -4.04779 0
M  V30 2002 H 178.343 -0.406595 -0.53378 0
M  V30 2003 H 180.887 -1.68569 -1.15778 0
M  V30 2004 H 179.042 -1.37545 -3.6216 0
M  V30 2005 H 179.456 -3.57889 -3.83426 0
M  V30 2006 H 180.93 -2.33101 -5.00368 0
M  V30 2007 H 181.407 -0.777499 -4.32263 0
M  V30 2008 H 182.013 -2.28059 -3.58984 0
M  V30 2009 N 180.328 1.1314 -1.09713 0
M  V30 2010 C 181.739 1.66029 -0.853885 0
M  V30 2011 C 182.09 1.86241 0.617142 0
M  V30 2012 O 181.215 1.5834 1.47503 0
M  V30 2013 C 181.81 3.01599 -1.5435 0
M  V30 2014 C 180.369 3.51467 -1.34714 0
M  V30 2015 C 179.516 2.26648 -1.59769 0
M  V30 2016 H 182.467 0.970226 -1.25588 0
M  V30 2017 H 182.488 3.67709 -0.978267 0
M  V30 2018 H 182 2.86856 -2.6141 0
M  V30 2019 H 180.101 3.71408 -0.297838 0
M  V30 2020 H 180.214 4.314 -2.08401 0
M  V30 2021 H 178.578 2.33385 -1.01998 0
M  V30 2022 H 179.361 2.14467 -2.68065 0
M  V30 2023 N 181.806 0.884767 1.30421 0
M  V30 2024 C 183.083 0.423185 1.90967 0
M  V30 2025 C 183.463 -1.09605 1.80416 0
M  V30 2026 O 182.811 -1.93126 1.22125 0
M  V30 2027 C 183.021 0.921056 3.36627 0
M  V30 2028 C 184.369 0.955903 4.137 0
M  V30 2029 O 185.393 0.867706 3.4547 0
M  V30 2030 O 184.252 1.08614 5.35598 0
M  V30 2031 H 181.346 0.129369 0.816819 0
M  V30 2032 H 183.892 0.973653 1.3899 0
M  V30 2033 H 182.664 1.96489 3.3839 0
M  V30 2034 H 182.287 0.349741 3.96059 0
M  V30 2035 N 183.284 -1.43765 0.645699 0
M  V30 2036 C 184.214 -2.33471 -0.0370477 0
M  V30 2037 C 185.195 -1.49042 -0.819779 0
M  V30 2038 O 186.38 -1.77726 -0.782758 0
M  V30 2039 C 183.51 -3.32311 -1.0093 0
M  V30 2040 C 182.464 -4.2667 -0.337201 0
M  V30 2041 C 181.79 -5.1549 -1.42037 0
M  V30 2042 C 183.09 -5.16657 0.765706 0
M  V30 2043 H 184.784 -2.90809 0.712069 0
M  V30 2044 H 182.33 -1.39834 0.343876 0
M  V30 2045 H 184.283 -3.9396 -1.49578 0
M  V30 2046 H 183.007 -2.73213 -1.78948 0
M  V30 2047 H 181.666 -3.66374 0.128771 0
M  V30 2048 H 181.314 -4.52735 -2.1918 0
M  V30 2049 H 181.014 -5.79438 -0.975966 0
M  V30 2050 H 182.538 -5.80012 -1.90838 0
M  V30 2051 H 183.952 -5.72158 0.361702 0
M  V30 2052 H 182.349 -5.89286 1.13413 0
M  V30 2053 H 183.419 -4.56796 1.62683 0
M  V30 2054 N 184.763 -0.387143 -1.52771 0
M  V30 2055 C 186.174 0.0873634 -1.86495 0
M  V30 2056 C 186.525 1.46336 -1.30691 0
M  V30 2057 O 185.65 2.068 -0.637409 0
M  V30 2058 C 186.245 0.165305 -3.38396 0
M  V30 2059 C 184.804 0.584101 -3.7184 0
M  V30 2060 C 183.951 -0.255279 -2.76122 0
M  V30 2061 H 186.902 -0.605104 -1.46711 0
M  V30 2062 H 186.923 0.984848 -3.67534 0
M  V30 2063 H 186.435 -0.836301 -3.78982 0
M  V30 2064 H 184.536 1.59315 -3.36823 0
M  V30 2065 H 184.649 0.343749 -4.77865 0
M  V30 2066 H 183.013 0.279126 -2.53166 0
M  V30 2067 H 183.796 -1.25482 -3.19545 0
M  V30 2068 N 186.241 1.57166 -0.116904 0
M  V30 2069 C 187.657 1.5779 0.239693 0
M  V30 2070 C 187.857 1.1295 1.66867 0
M  V30 2071 O 186.913 0.81592 2.38954 0
M  V30 2072 C 188.226 3.00699 0.00828202 0
M  V30 2073 C 189.774 3.12912 0.0743438 0
M  V30 2074 C 190.249 4.57817 -0.129348 0
M  V30 2075 N 191.74 4.63139 -0.075247 0
M  V30 2076 C 192.475 5.73023 -0.207788 0
M  V30 2077 N 191.971 6.91665 -0.396382 0
M  V30 2078 N 193.764 5.61906 -0.14751 0
M  V30 2079 H 185.915 1.84615 -1.05029 0
M  V30 2080 H 188.178 0.85311 -0.41341 0
M  V30 2081 H 187.884 3.37784 -0.979531 0
M  V30 2082 H 187.758 3.69848 0.741077 0
M  V30 2083 H 190.145 2.75686 1.05268 0
M  V30 2084 H 190.226 2.4631 -0.690297 0
M  V30 2085 H 189.87 4.95742 -1.10465 0
M  V30 2086 H 189.8 5.22507 0.655253 0
M  V30 2087 H 192.291 3.7784 0.0670898 0
M  V30 2088 H 192.604 7.71255 -0.488437 0
M  V30 2089 H 190.949 6.93654 -0.432329 0
M  V30 2090 H 194.14 4.681 -0.00115036 0
M  V30 2091 H 194.313 6.47501 -0.254247 0
M  V30 2092 N 187.719 -0.156864 1.56817 0
M  V30 2093 C 188.682 -1.17781 1.96622 0
M  V30 2094 C 189.682 -1.36401 0.851555 0
M  V30 2095 O 190.872 -1.33561 1.11836 0
M  V30 2096 C 188.004 -2.54008 2.27361 0
M  V30 2097 H 189.197 -0.836564 2.87996 0
M  V30 2098 H 186.75 -0.39985 1.51099 0
M  V30 2099 H 187.485 -2.9312 1.38748 0
M  V30 2100 H 187.27 -2.41856 3.08623 0
M  V30 2101 H 188.76 -3.27558 2.59029 0
M  V30 2102 N 189.197 -1.51736 -0.425897 0
M  V30 2103 C 190.474 -1.55519 -1.1863 0
M  V30 2104 C 190.854 -0.326219 -2.08564 0
M  V30 2105 O 190.202 0.688012 -2.17896 0
M  V30 2106 C 190.412 -2.87521 -1.9782 0
M  V30 2107 C 191.76 -3.39899 -2.54468 0
M  V30 2108 O 192.784 -2.89148 -2.08019 0
M  V30 2109 O 191.643 -4.2848 -3.39215 0
M  V30 2110 H 188.737 -0.625739 -0.540721 0
M  V30 2111 H 191.283 -1.64055 -0.434038 0
M  V30 2112 H 190.055 -3.68422 -1.31836 0
M  V30 2113 H 189.678 -2.822 -2.80088 0
M  V30 2114 N 190.675 0.682077 -1.42076 0
M  V30 2115 C 191.921 1.44428 -1.42367 0
M  V30 2116 C 192.254 1.94164 -0.0373056 0
M  V30 2117 O 191.529 1.70429 0.937239 0
M  V30 2118 C 191.812 2.64654 -2.44194 0
M  V30 2119 C 191.665 2.20596 -3.91991 0
M  V30 2120 C 192.984 3.66865 -2.431 0
M  V30 2121 H 190.103 0.523834 -0.518428 0
M  V30 2122 H 192.745 0.77576 -1.73442 0
M  V30 2123 H 190.895 3.2169 -2.17826 0
M  V30 2124 H 192.567 1.68783 -4.29313 0
M  V30 2125 H 190.81 1.52242 -4.06208 0
M  V30 2126 H 191.481 3.06921 -4.58807 0
M  V30 2127 H 193.957 3.19531 -2.66532 0
M  V30 2128 H 192.833 4.48577 -3.16339 0
M  V30 2129 H 193.094 4.17493 -1.45437 0
M  V30 2130 N 192.153 1.28127 0.917671 0
M  V30 2131 C 193.43 1.05761 1.64542 0
M  V30 2132 C 193.81 -0.404344 2.07191 0
M  V30 2133 O 193.158 -1.38963 1.81388 0
M  V30 2134 C 193.368 2.02857 2.83989 0
M  V30 2135 C 194.716 2.32786 3.551 0
M  V30 2136 O 195.74 2.0091 2.94132 0
M  V30 2137 O 194.599 2.87169 4.64969 0
M  V30 2138 H 191.693 0.403916 0.721652 0
M  V30 2139 H 194.239 1.39431 0.967322 0
M  V30 2140 H 193.011 3.01407 2.49538 0
M  V30 2141 H 192.634 1.69809 3.59514 0
M  V30 2142 N 193.631 -1.12557 1.10312 0
M  V30 2143 C 194.581 -2.16331 0.720076 0
M  V30 2144 C 195.565 -1.58616 -0.270115 0
M  V30 2145 O 196.757 -1.76823 -0.0790507 0
M  V30 2146 C 193.886 -3.42963 0.152113 0
M  V30 2147 C 192.972 -4.07663 1.16927 0
M  V30 2148 N 193.363 -4.47392 2.35953 0
M  V30 2149 C 191.661 -4.34425 1.0095 0
M  V30 2150 C 192.362 -4.97932 3.0073 0
M  V30 2151 N 191.338 -4.93358 2.28252 0
M  V30 2152 H 195.14 -2.44813 1.62616 0
M  V30 2153 H 192.654 -1.29449 0.980654 0
M  V30 2154 H 194.651 -4.16664 -0.14037 0
M  V30 2155 H 193.311 -3.1595 -0.748701 0
M  V30 2156 H 194.322 -4.39802 2.73486 0
M  V30 2157 H 190.999 -4.17177 0.164134 0
M  V30 2158 H 192.389 -5.38397 4.01969 0
M  V30 2159 N 195.109 -0.891671 -1.2995 0
M  V30 2160 C 196.072 -0.36828 -2.26222 0
M  V30 2161 C 197.072 0.493014 -1.53056 0
M  V30 2162 O 198.262 0.299213 -1.71611 0
M  V30 2163 C 195.394 0.47442 -3.37583 0
M  V30 2164 H 196.587 -1.21844 -2.74033 0
M  V30 2165 H 194.14 -0.669107 -1.41254 0
M  V30 2166 H 194.875 1.34489 -2.95099 0
M  V30 2167 H 194.66 -0.142615 -3.91841 0
M  V30 2168 H 196.15 0.83218 -4.09224 0
M  V30 2169 N 196.587 1.43421 -0.653314 0
M  V30 2170 C 197.836 2.01032 -0.164076 0
M  V30 2171 C 198.149 1.52147 1.22926 0
M  V30 2172 O 199.355 2.02031 1.81371 0
M  V30 2173 C 197.811 3.59082 -0.24252 0
M  V30 2174 C 197.419 4.1696 -1.63855 0
M  V30 2175 C 199.163 4.24079 0.18911 0
M  V30 2176 C 197.07 5.67304 -1.67092 0
M  V30 2177 H 196 0.751798 -0.0575769 0
M  V30 2178 H 198.651 1.6439 -0.815362 0
M  V30 2179 H 197.033 3.93125 0.476276 0
M  V30 2180 H 198.207 3.94416 -2.38271 0
M  V30 2181 H 196.522 3.64335 -2.01616 0
M  V30 2182 H 199.119 5.34381 0.184775 0
M  V30 2183 H 199.462 3.98005 1.22056 0
M  V30 2184 H 199.995 3.94918 -0.477938 0
M  V30 2185 H 196.734 5.98145 -2.68146 0
M  V30 2186 H 196.254 5.91904 -0.970014 0
M  V30 2187 H 197.933 6.31344 -1.4147 0
M  V30 2188 N 198.065 0.39524 1.52563 0
M  V30 2189 C 198.975 -0.444232 2.30356 0
M  V30 2190 C 199.991 -1.06615 1.37511 0
M  V30 2191 O 201.167 -1.07067 1.70583 0
M  V30 2192 C 198.232 -1.55315 3.09964 0
M  V30 2193 C 197.293 -0.955734 4.18526 0
M  V30 2194 C 196.526 -2.01181 4.9433 0
M  V30 2195 O 196.749 -3.22781 4.70285 0
M  V30 2196 O 195.683 -1.62579 5.79527 0
M  V30 2197 H 199.509 0.189667 3.03107 0
M  V30 2198 H 197.094 0.1588 1.48554 0
M  V30 2199 H 198.976 -2.19724 3.59582 0
M  V30 2200 H 197.651 -2.17191 2.4002 0
M  V30 2201 H 196.558 -0.274743 3.7309 0
M  V30 2202 H 197.891 -0.381109 4.90722 0
M  V30 2203 N 199.544 -1.57102 0.125237 0
M  V30 2204 C 200.491 -2.15641 -0.822655 0
M  V30 2205 C 201.461 -1.08313 -1.25927 0
M  V30 2206 O 202.646 -1.36251 -1.33567 0
M  V30 2207 C 199.786 -2.76504 -2.06494 0
M  V30 2208 C 198.899 -3.98158 -1.67612 0
M  V30 2209 C 198.034 -4.47088 -2.86854 0
M  V30 2210 C 197.073 -5.6126 -2.44242 0
M  V30 2211 N 196.21 -6.04905 -3.56419 0
M  V30 2212 H 201.05 -2.96313 -0.316625 0
M  V30 2213 H 198.587 -1.46388 -0.144588 0
M  V30 2214 H 200.545 -3.09925 -2.79289 0
M  V30 2215 H 199.175 -1.98512 -2.54545 0
M  V30 2216 H 198.227 -3.70858 -0.846661 0
M  V30 2217 H 199.539 -4.80934 -1.32301 0
M  V30 2218 H 198.693 -4.82451 -3.67867 0
M  V30 2219 H 197.432 -3.63275 -3.25396 0
M  V30 2220 H 196.437 -5.25495 -1.61663 0
M  V30 2221 H 197.662 -6.46843 -2.0681 0
M  V30 2222 H 195.608 -5.24032 -3.94623 0
M  V30 2223 H 195.525 -6.82552 -3.25051 0
M  V30 2224 H 196.793 -6.44907 -4.37853 0
M  V30 2225 N 201.022 0.148545 -1.56898 0
M  V30 2226 C 201.985 1.16736 -1.97244 0
M  V30 2227 C 202.985 1.35947 -0.858777 0
M  V30 2228 O 204.175 1.32966 -1.12542 0
M  V30 2229 C 201.307 2.52798 -2.28705 0
M  V30 2230 H 202.5 0.821279 -2.88435 0
M  V30 2231 H 200.053 0.391831 -1.51309 0
M  V30 2232 H 200.788 2.92381 -1.403 0
M  V30 2233 H 200.573 2.40216 -3.09901 0
M  V30 2234 H 202.063 3.26179 -2.60762 0
M  V30 2235 N 202.5 1.5196 0.417844 0
M  V30 2236 C 203.747 1.65591 1.16559 0
M  V30 2237 C 204.075 0.381565 1.90721 0
M  V30 2238 O 203.33 -0.635156 1.85106 0
M  V30 2239 C 203.629 2.82269 2.19223 0
M  V30 2240 C 203.295 4.20819 1.61933 0
M  V30 2241 C 201.957 4.58506 1.46033 0
M  V30 2242 C 204.309 5.07196 1.20008 0
M  V30 2243 C 201.637 5.80257 0.867113 0
M  V30 2244 C 203.989 6.29544 0.621086 0
M  V30 2245 C 202.653 6.65987 0.449144 0
M  V30 2246 H 201.923 0.605939 0.42652 0
M  V30 2247 H 204.57 1.86041 0.45397 0
M  V30 2248 H 202.875 2.56118 2.96498 0
M  V30 2249 H 204.572 2.90012 2.76936 0
M  V30 2250 H 201.162 3.91116 1.7529 0
M  V30 2251 H 205.346 4.7867 1.31105 0
M  V30 2252 H 200.602 6.07124 0.721833 0
M  V30 2253 H 204.776 6.95805 0.287798 0
M  V30 2254 H 202.403 7.60199 -0.012632 0
M  V30 2255 N 203.978 -0.674533 1.42435 0
M  V30 2256 C 204.91 -1.80005 1.41883 0
M  V30 2257 C 205.923 -1.59667 0.31787 0
M  V30 2258 O 207.112 -1.68781 0.580973 0
M  V30 2259 C 204.212 -3.17114 1.19549 0
M  V30 2260 C 203.385 -3.64299 2.42084 0
M  V30 2261 C 202.444 -4.80142 2.15291 0
M  V30 2262 O 201.47 -4.90673 2.88493 0
M  V30 2263 N 202.672 -5.68869 1.1562 0
M  V30 2264 H 205.437 -1.80964 2.38898 0
M  V30 2265 H 202.998 -0.857633 1.37318 0
M  V30 2266 H 204.99 -3.92267 0.995417 0
M  V30 2267 H 203.56 -3.11053 0.310569 0
M  V30 2268 H 202.78 -2.79822 2.77657 0
M  V30 2269 H 204.068 -3.92567 3.23679 0
M  V30 2270 H 203.466 -5.63012 0.550765 0
M  V30 2271 H 202.023 -6.43833 1.016 0
M  V30 2272 N 205.456 -1.28612 -0.910864 0
M  V30 2273 C 206.386 -1.15326 -2.03032 0
M  V30 2274 C 207.367 -0.0502924 -1.70026 0
M  V30 2275 O 208.552 -0.227797 -1.92859 0
M  V30 2276 C 205.682 -0.817343 -3.37545 0
M  V30 2277 C 204.636 -1.8754 -3.84724 0
M  V30 2278 C 203.962 -1.39305 -5.16235 0
M  V30 2279 C 205.262 -3.28244 -4.06267 0
M  V30 2280 H 206.956 -2.08975 -2.14406 0
M  V30 2281 H 204.502 -1.00612 -1.03021 0
M  V30 2282 H 206.455 -0.711151 -4.15356 0
M  V30 2283 H 205.179 0.154846 -3.26233 0
M  V30 2284 H 203.838 -1.97079 -3.09121 0
M  V30 2285 H 203.486 -0.409846 -5.01328 0
M  V30 2286 H 203.186 -2.10057 -5.48771 0
M  V30 2287 H 204.71 -1.30014 -5.96598 0
M  V30 2288 H 206.124 -3.21611 -4.74594 0
M  V30 2289 H 204.521 -3.96855 -4.5014 0
M  V30 2290 H 205.591 -3.72048 -3.10979 0
M  V30 2291 N 206.934 1.1197 -1.10907 0
M  V30 2292 C 208.18 1.84059 -0.865674 0
M  V30 2293 C 208.535 1.82731 0.602254 0
M  V30 2294 O 207.828 1.26543 1.43866 0
M  V30 2295 C 208.022 3.30749 -1.35425 0
M  V30 2296 C 207.851 3.46363 -2.86815 0
M  V30 2297 C 206.621 3.59712 -3.54874 0
M  V30 2298 C 208.819 3.41116 -3.84895 0
M  V30 2299 N 206.801 3.63741 -4.94536 0
M  V30 2300 C 208.172 3.51698 -5.10596 0
M  V30 2301 C 210.227 3.24612 -3.77533 0
M  V30 2302 C 208.93 3.4748 -6.29802 0
M  V30 2303 C 210.956 3.21708 -4.96244 0
M  V30 2304 C 210.318 3.32856 -6.20795 0
M  V30 2305 H 206.417 0.689015 -0.369841 0
M  V30 2306 H 209.001 1.34016 -1.41237 0
M  V30 2307 H 207.172 3.79322 -0.834814 0
M  V30 2308 H 208.904 3.90718 -1.05458 0
M  V30 2309 H 205.659 3.62038 -3.05329 0
M  V30 2310 H 206.083 3.69408 -5.67333 0
M  V30 2311 H 210.725 3.14883 -2.8215 0
M  V30 2312 H 208.443 3.55978 -7.25469 0
M  V30 2313 H 212.029 3.10113 -4.92261 0
M  V30 2314 H 210.909 3.3059 -7.11112 0
M  V30 2315 N 208.412 0.89855 1.29475 0
M  V30 2316 C 209.637 0.538561 2.00285 0
M  V30 2317 C 210.062 -0.869135 1.66816 0
M  V30 2318 O 209.42 -1.57831 0.892145 0
M  V30 2319 C 209.468 0.736475 3.52999 0
M  V30 2320 O 208.572 -0.211537 4.11857 0
M  V30 2321 H 207.913 0.210563 0.62973 0
M  V30 2322 H 210.443 1.20982 1.64998 0
M  V30 2323 H 210.453 0.640685 4.02938 0
M  V30 2324 H 209.128 1.76276 3.76696 0
M  V30 2325 H 207.705 -0.0682991 3.72837 0
M  V30 2326 N 209.89 -1.43072 0.660911 0
M  V30 2327 C 210.838 -2.32569 -0.0378199 0
M  V30 2328 C 211.832 -1.49046 -0.805092 0
M  V30 2329 O 213.038 -1.65206 -0.714624 0
M  V30 2330 H 209.413 -0.75136 -0.031019 0
M  V30 2331 H 211.384 -2.89216 0.734609 0
M  V30 2332 C 210.133 -3.33453 -0.985124 0
M  V30 2333 H 209.456 -3.97752 -0.404147 0
M  V30 2334 H 210.896 -3.98691 -1.44297 0
M  V30 2335 C 209.355 -2.64642 -2.08486 0
M  V30 2336 O 209.885 -2.46776 -3.16961 0
M  V30 2337 N 208.091 -2.23891 -1.8526 0
M  V30 2338 H 207.638 -2.38621 -0.970449 0
M  V30 2339 H 207.596 -1.78181 -2.59034 0
M  V30 2340 N 211.368 -0.403325 -1.52352 0
M  V30 2341 C 212.614 0.174605 -2.02047 0
M  V30 2342 C 212.947 1.45282 -1.28867 0
M  V30 2343 O 212.222 1.90483 -0.393257 0
M  V30 2344 C 212.505 0.428238 -3.57545 0
M  V30 2345 C 212.358 -0.866248 -4.4138 0
M  V30 2346 C 213.677 1.21287 -4.23057 0
M  V30 2347 H 210.796 0.0619851 -0.734389 0
M  V30 2348 H 213.438 -0.53565 -1.82293 0
M  V30 2349 H 211.588 1.03327 -3.74507 0
M  V30 2350 H 213.26 -1.50265 -4.3614 0
M  V30 2351 H 211.503 -1.47851 -4.07827 0
M  V30 2352 H 212.174 -0.643249 -5.48239 0
M  V30 2353 H 214.65 0.700703 -4.10158 0
M  V30 2354 H 213.526 1.35909 -5.31808 0
M  V30 2355 H 213.787 2.23193 -3.81625 0
M  V30 2356 N 212.846 1.57033 -0.133567 0
M  V30 2357 C 214.074 2.00044 0.528195 0
M  V30 2358 C 214.489 1.01349 1.59291 0
M  V30 2359 O 213.846 0.00848369 1.82498 0
M  V30 2360 C 213.897 3.43018 1.1411 0
M  V30 2361 O 213.618 4.37939 0.11892 0
M  V30 2362 C 215.119 4.01237 1.88477 0
M  V30 2363 H 212.339 0.656517 0.138661 0
M  V30 2364 H 214.883 2.03267 -0.224196 0
M  V30 2365 H 213.038 3.40688 1.84418 0
M  V30 2366 H 213.452 5.21436 0.56613 0
M  V30 2367 H 214.926 5.03314 2.26669 0
M  V30 2368 H 215.403 3.41193 2.76558 0
M  V30 2369 H 216.009 4.07156 1.22898 0
M  V30 2370 N 214.325 -0.140222 1.56975 0
M  V30 2371 C 215.736 -0.699596 1.73097 0
M  V30 2372 C 216.087 -1.8134 0.749022 0
M  V30 2373 O 215.212 -2.16241 -0.0828503 0
M  V30 2374 C 215.807 -1.27582 3.1386 0
M  V30 2375 C 214.366 -1.78169 3.31561 0
M  V30 2376 C 213.513 -0.672855 2.69013 0
M  V30 2377 H 216.464 0.0855115 1.58469 0
M  V30 2378 H 216.485 -2.14561 3.14235 0
M  V30 2379 H 215.997 -0.464955 3.85305 0
M  V30 2380 H 214.098 -2.61801 2.65124 0
M  V30 2381 H 214.211 -1.90574 4.39566 0
M  V30 2382 H 212.575 -1.10118 2.29665 0
M  V30 2383 H 213.358 0.126679 3.43066 0
M  V30 2384 N 215.803 -1.52179 -0.40978 0
M  V30 2385 C 216.733 -1.78435 -1.5061 0
M  V30 2386 C 217.714 -0.635295 -1.57791 0
M  V30 2387 O 218.899 -0.880823 -1.73076 0
M  V30 2388 C 216.029 -1.93444 -2.88439 0
M  V30 2389 C 214.983 -3.09038 -2.96108 0
M  V30 2390 C 214.309 -3.09268 -4.36185 0
M  V30 2391 C 215.609 -4.48508 -2.67652 0
M  V30 2392 H 217.303 -2.70237 -1.28889 0
M  V30 2393 H 214.849 -1.30036 -0.618605 0
M  V30 2394 H 216.802 -2.10394 -3.65119 0
M  V30 2395 H 215.526 -0.983129 -3.11452 0
M  V30 2396 H 214.185 -2.91837 -2.21872 0
M  V30 2397 H 213.833 -2.11861 -4.56206 0
M  V30 2398 H 213.533 -3.86907 -4.42241 0
M  V30 2399 H 215.057 -3.28348 -5.14801 0
M  V30 2400 H 216.471 -4.65918 -3.34056 0
M  V30 2401 H 214.868 -5.28059 -2.85085 0
M  V30 2402 H 215.938 -4.56649 -1.63095 0
M  V30 2403 N 217.281 0.66697 -1.42791 0
M  V30 2404 C 218.509 1.45505 -1.47091 0
M  V30 2405 C 218.924 1.8861 -0.0845873 0
M  V30 2406 O 218.281 1.58632 0.90234 0
M  V30 2407 C 218.332 2.69906 -2.40485 0
M  V30 2408 O 218.053 2.28608 -3.73725 0
M  V30 2409 C 219.554 3.63396 -2.53886 0
M  V30 2410 H 216.774 0.447459 -0.500022 0
M  V30 2411 H 219.318 0.818866 -1.8739 0
M  V30 2412 H 217.473 3.29696 -2.03419 0
M  V30 2413 H 217.887 3.08997 -4.23817 0
M  V30 2414 H 219.361 4.47387 -3.2334 0
M  V30 2415 H 219.838 4.09824 -1.57927 0
M  V30 2416 H 220.444 3.09495 -2.91706 0
M  V30 2417 N 218.759 1.29093 0.90403 0
M  V30 2418 C 220.006 1.16813 1.65411 0
M  V30 2419 C 220.334 -0.28128 1.92455 0
M  V30 2420 O 219.589 -1.22006 1.53013 0
M  V30 2421 C 219.888 1.92224 3.01305 0
M  V30 2422 C 219.554 3.41968 2.93885 0
M  V30 2423 C 218.216 3.82807 2.91569 0
M  V30 2424 C 220.568 4.37409 2.83413 0
M  V30 2425 C 217.896 5.1741 2.76594 0
M  V30 2426 C 220.248 5.72097 2.69977 0
M  V30 2427 C 218.912 6.12199 2.66024 0
M  V30 2428 H 218.182 0.42745 0.605283 0
M  V30 2429 H 220.829 1.59981 1.05254 0
M  V30 2430 H 219.134 1.41635 3.65304 0
M  V30 2431 H 220.831 1.80131 3.58265 0
M  V30 2432 H 217.421 3.09504 2.96488 0
M  V30 2433 H 221.605 4.06813 2.84283 0
M  V30 2434 H 216.861 5.47596 2.71935 0
M  V30 2435 H 221.035 6.45704 2.60844 0
M  V30 2436 H 218.662 7.16448 2.54178 0
M  V30 2437 N 220.237 -1.11381 1.11499 0
M  V30 2438 C 221.465 -1.86934 0.88675 0
M  V30 2439 C 221.88 -1.80195 -0.563476 0
M  V30 2440 O 221.237 -1.18367 -1.38908 0
M  V30 2441 C 221.288 -3.35722 1.34064 0
M  V30 2442 O 221.009 -3.4232 2.73401 0
M  V30 2443 C 222.51 -4.2818 1.14791 0
M  V30 2444 H 219.73 -0.591117 0.317523 0
M  V30 2445 H 222.274 -1.40865 1.48248 0
M  V30 2446 H 220.429 -3.79294 0.788355 0
M  V30 2447 H 220.843 -4.34971 2.93087 0
M  V30 2448 H 222.317 -5.30817 1.5145 0
M  V30 2449 H 222.794 -4.39113 0.0875279 0
M  V30 2450 H 223.4 -3.90402 1.68721 0
M  V30 2451 N 221.715 -0.905404 -1.28997 0
M  V30 2452 C 222.662 -0.385892 -2.27551 0
M  V30 2453 C 223.632 0.535113 -1.57244 0
M  V30 2454 O 224.817 0.459119 -1.85194 0
M  V30 2455 C 221.957 0.375461 -3.43051 0
M  V30 2456 C 221.07 -0.577092 -4.28128 0
M  V30 2457 C 220.205 0.201879 -5.30816 0
M  V30 2458 C 219.244 -0.744829 -6.07551 0
M  V30 2459 N 218.381 9.42587e-05 -7.021 0
M  V30 2460 H 223.221 -1.23139 -2.71368 0
M  V30 2461 H 220.758 -0.618542 -1.33463 0
M  V30 2462 H 222.716 0.832992 -4.088 0
M  V30 2463 H 221.346 1.18537 -3.00248 0
M  V30 2464 H 220.398 -1.15315 -3.62501 0
M  V30 2465 H 221.71 -1.30152 -4.8152 0
M  V30 2466 H 220.864 0.720351 -6.02408 0
M  V30 2467 H 219.603 0.959413 -4.7817 0
M  V30 2468 H 218.608 -1.27475 -5.34818 0
M  V30 2469 H 219.833 -1.50178 -6.62286 0
M  V30 2470 H 217.779 0.739791 -6.51815 0
M  V30 2471 H 217.696 -0.664321 -7.53076 0
M  V30 2472 H 218.964 0.498644 -7.77903 0
M  V30 2473 N 223.193 1.4272 -0.668489 0
M  V30 2474 C 224.439 2.01923 -0.188419 0
M  V30 2475 C 224.772 1.52704 1.19979 0
M  V30 2476 O 224.047 0.726566 1.8042 0
M  V30 2477 C 224.33 3.59451 -0.216085 0
M  V30 2478 C 224.183 4.18864 -1.6393 0
M  V30 2479 C 225.502 4.37903 0.439179 0
M  V30 2480 H 222.621 0.733674 -0.0699412 0
M  V30 2481 H 225.263 1.69822 -0.852076 0
M  V30 2482 H 223.413 3.86929 0.349012 0
M  V30 2483 H 225.085 4.02362 -2.25616 0
M  V30 2484 H 223.328 3.74933 -2.18193 0
M  V30 2485 H 223.999 5.27987 -1.61039 0
M  V30 2486 H 226.475 4.16079 -0.0417878 0
M  V30 2487 H 225.351 5.47519 0.389157 0
M  V30 2488 H 225.612 4.15303 1.51577 0
M  V30 2489 N 224.671 0.411399 1.52136 0
M  V30 2490 C 225.896 -0.165538 2.06738 0
M  V30 2491 C 226.321 -1.379 1.27926 0
M  V30 2492 O 225.679 -1.78628 0.310114 0
M  V30 2493 C 225.727 -0.492124 3.57226 0
M  V30 2494 O 224.831 -1.58276 3.80818 0
M  V30 2495 H 224.172 -0.0132132 0.663869 0
M  V30 2496 H 226.702 0.585253 1.96051 0
M  V30 2497 H 226.712 -0.750104 4.01045 0
M  V30 2498 H 225.387 0.394922 4.14021 0
M  V30 2499 H 223.964 -1.31677 3.48877 0
M  V30 2500 N 226.149 -1.5696 0.141893 0
M  V30 2501 C 227.059 -2.20066 -0.812905 0
M  V30 2502 C 228.075 -1.18344 -1.27557 0
M  V30 2503 O 229.251 -1.50902 -1.33381 0
M  V30 2504 C 226.316 -2.80583 -2.03652 0
M  V30 2505 C 225.377 -3.97414 -1.62359 0
M  V30 2506 C 224.61 -4.55036 -2.78887 0
M  V30 2507 O 224.833 -4.11538 -3.94959 0
M  V30 2508 O 223.767 -5.45376 -2.54653 0
M  V30 2509 H 227.593 -3.02157 -0.305746 0
M  V30 2510 H 225.178 -1.49159 -0.0848799 0
M  V30 2511 H 227.06 -3.19067 -2.75272 0
M  V30 2512 H 225.735 -2.01508 -2.5333 0
M  V30 2513 H 224.642 -3.63656 -0.877775 0
M  V30 2514 H 225.975 -4.77994 -1.17401 0
M  V30 2515 N 227.627 0.131896 -1.57047 0
M  V30 2516 C 228.875 0.840269 -1.83804 0
M  V30 2517 C 229.196 1.81017 -0.72512 0
M  V30 2518 O 228.466 1.94272 0.251995 0
M  V30 2519 H 227.046 0.313294 -0.678127 0
M  V30 2520 H 229.708 0.122294 -1.94516 0
M  V30 2521 H 228.804 1.39335 -2.79271 0
M  V30 2522 N 229.106 1.52395 0.401703 0
M  V30 2523 C 230.038 1.72505 1.50912 0
M  V30 2524 C 231.051 0.605468 1.51122 0
M  V30 2525 O 232.24 0.880828 1.55254 0
M  V30 2526 C 229.34 1.75711 2.89791 0
M  V30 2527 C 228.513 3.04824 3.1369 0
M  V30 2528 C 227.572 2.99743 4.32482 0
M  V30 2529 O 226.598 3.73635 4.29402 0
M  V30 2530 N 227.8 2.18047 5.37992 0
M  V30 2531 H 230.565 2.68049 1.34052 0
M  V30 2532 H 228.126 1.50724 0.591084 0
M  V30 2533 H 230.118 1.69834 3.6734 0
M  V30 2534 H 228.688 0.876092 3.00072 0
M  V30 2535 H 227.908 3.2429 2.24119 0
M  V30 2536 H 229.196 3.90221 3.26504 0
M  V30 2537 H 228.594 1.57456 5.43345 0
M  V30 2538 H 227.151 2.18021 6.14256 0
M  V30 2539 N 230.584 -0.659388 1.43143 0
M  V30 2540 C 231.547 -1.75432 1.47501 0
M  V30 2541 C 232.547 -1.56707 0.360512 0
M  V30 2542 O 233.737 -1.62717 0.622002 0
M  V30 2543 C 230.869 -3.14239 1.32162 0
M  V30 2544 H 232.062 -1.7295 2.45006 0
M  V30 2545 H 229.615 -0.870469 1.29817 0
M  V30 2546 H 230.35 -3.22336 0.356401 0
M  V30 2547 H 230.135 -3.29235 2.12948 0
M  V30 2548 H 231.625 -3.94094 1.3813 0
M  V30 2549 N 232.062 -1.29571 -0.897171 0
M  V30 2550 C 233.339 -1.08365 -1.62839 0
M  V30 2551 C 233.719 0.371331 -2.07808 0
M  V30 2552 O 233.067 1.3606 -1.83576 0
M  V30 2553 C 233.277 -2.0735 -2.80726 0
M  V30 2554 C 234.625 -2.38406 -3.51351 0
M  V30 2555 O 235.649 -2.05564 -2.90898 0
M  V30 2556 O 234.508 -2.9453 -4.60341 0
M  V30 2557 H 231.602 -0.415345 -0.715134 0
M  V30 2558 H 234.148 -1.40952 -0.945018 0
M  V30 2559 H 232.92 -3.05339 -2.44711 0
M  V30 2560 H 232.543 -1.75507 -3.56767 0
M  V30 2561 N 233.54 1.10788 -1.12088 0
M  V30 2562 C 234.789 1.82036 -0.868659 0
M  V30 2563 C 235.102 1.85929 0.607426 0
M  V30 2564 O 236.308 2.53346 0.97613 0
M  V30 2565 C 234.764 3.26951 -1.50435 0
M  V30 2566 C 234.372 3.31367 -3.01496 0
M  V30 2567 C 236.116 4.03053 -1.33225 0
M  V30 2568 C 234.023 4.7072 -3.58017 0
M  V30 2569 H 232.953 0.682108 -0.321318 0
M  V30 2570 H 235.604 1.24618 -1.34694 0
M  V30 2571 H 233.986 3.84343 -0.953735 0
M  V30 2572 H 235.16 2.83819 -3.6302 0
M  V30 2573 H 233.475 2.6875 -3.18061 0
M  V30 2574 H 236.072 5.05981 -1.72878 0
M  V30 2575 H 236.415 4.15387 -0.275529 0
M  V30 2576 H 236.948 3.52066 -1.85188 0
M  V30 2577 H 233.687 4.63585 -4.63432 0
M  V30 2578 H 233.207 5.1865 -3.01268 0
M  V30 2579 H 234.886 5.39685 -3.56859 0
M  V30 2580 N 235.018 0.912232 1.28515 0
M  V30 2581 C 235.951 0.343928 2.25593 0
M  V30 2582 C 236.929 -0.550994 1.5298 0
M  V30 2583 O 238.113 -0.494991 1.81885 0
M  V30 2584 C 235.24 -0.508525 3.34861 0
M  V30 2585 C 234.286 0.320808 4.25292 0
M  V30 2586 S 235.119 1.72658 5.06902 0
M  V30 2587 C 236.275 0.881394 6.19663 0
M  V30 2588 H 236.508 1.16674 2.73449 0
M  V30 2589 H 234.041 0.713384 1.36931 0
M  V30 2590 H 235.999 -0.994539 3.9827 0
M  V30 2591 H 234.66 -1.30571 2.85675 0
M  V30 2592 H 233.853 -0.330941 5.02912 0
M  V30 2593 H 233.455 0.74042 3.66598 0
M  V30 2594 H 235.747 0.110359 6.7741 0
M  V30 2595 H 236.69 1.63009 6.89082 0
M  V30 2596 H 237.098 0.430239 5.62858 0
M  V30 2597 N 236.496 -1.42363 0.676048 0
M  V30 2598 C 237.745 -2.00745 0.196037 0
M  V30 2599 C 238.058 -1.54083 -1.20489 0
M  V30 2600 O 239.264 -2.04891 -1.78134 0
M  V30 2601 C 237.72 -3.58651 0.299616 0
M  V30 2602 C 237.328 -4.143 1.70468 0
M  V30 2603 C 239.072 -4.24326 -0.121619 0
M  V30 2604 C 236.979 -5.64574 1.76096 0
M  V30 2605 H 235.909 -0.750787 0.0695301 0
M  V30 2606 H 238.56 -1.63072 0.841412 0
M  V30 2607 H 236.942 -3.93833 -0.413673 0
M  V30 2608 H 238.116 -3.90575 2.44515 0
M  V30 2609 H 236.431 -3.61081 2.07387 0
M  V30 2610 H 239.028 -5.34607 -0.0997362 0
M  V30 2611 H 239.371 -3.99897 -1.15708 0
M  V30 2612 H 239.904 -3.94108 0.540706 0
M  V30 2613 H 236.643 -5.93804 2.77628 0
M  V30 2614 H 236.163 -5.90286 1.06406 0
M  V30 2615 H 237.842 -6.29013 1.51496 0
M  V30 2616 N 237.974 -0.419461 -1.51915 0
M  V30 2617 C 239.199 0.154572 -2.06823 0
M  V30 2618 C 239.624 1.3722 -1.28656 0
M  V30 2619 O 238.982 1.78461 -0.319583 0
M  V30 2620 C 239.03 0.473172 -3.57482 0
M  V30 2621 O 238.134 1.56255 -3.81652 0
M  V30 2622 H 237.475 0.0096924 -0.663929 0
M  V30 2623 H 240.005 -0.595642 -1.95738 0
M  V30 2624 H 240.015 0.728825 -4.01438 0
M  V30 2625 H 238.69 -0.416873 -4.13805 0
M  V30 2626 H 237.267 1.29825 -3.49571 0
M  V30 2627 N 239.452 1.56882 -0.150215 0
M  V30 2628 C 240.699 1.96228 0.500093 0
M  V30 2629 C 241.027 1.03522 1.64661 0
M  V30 2630 O 240.282 0.0650683 1.95592 0
M  V30 2631 C 240.581 3.41801 1.04437 0
M  V30 2632 C 240.247 4.50897 0.0159671 0
M  V30 2633 C 238.909 4.8046 -0.266731 0
M  V30 2634 C 241.261 5.16703 -0.683192 0
M  V30 2635 C 238.589 5.73135 -1.25434 0
M  V30 2636 C 240.941 6.10441 -1.65964 0
M  V30 2637 C 239.605 6.38382 -1.95 0
M  V30 2638 H 238.875 0.718048 0.182997 0
M  V30 2639 H 241.522 1.90019 -0.237724 0
M  V30 2640 H 239.827 3.44857 1.85959 0
M  V30 2641 H 241.524 3.69573 1.55618 0
M  V30 2642 H 238.114 4.27891 0.246485 0
M  V30 2643 H 242.298 4.93993 -0.477983 0
M  V30 2644 H 237.554 5.93074 -1.48571 0
M  V30 2645 H 241.728 6.60507 -2.20689 0
M  V30 2646 H 239.355 7.09996 -2.71679 0
M  V30 2647 N 240.93 -0.123565 1.57115 0
M  V30 2648 C 242.176 -0.833386 1.84885 0
M  V30 2649 C 242.509 -1.79742 0.735292 0
M  V30 2650 O 241.784 -1.92764 -0.25925 0
M  V30 2651 C 242.067 -1.5873 3.23228 0
M  V30 2652 C 241.92 -0.643183 4.45178 0
M  V30 2653 C 243.239 -2.54453 3.59085 0
M  V30 2654 H 240.358 -0.301518 0.6725 0
M  V30 2655 H 243 -0.097778 1.89748 0
M  V30 2656 H 241.15 -2.21438 3.19214 0
M  V30 2657 H 242.822 -0.0253015 4.61293 0
M  V30 2658 H 241.065 0.0456139 4.33776 0
M  V30 2659 H 241.736 -1.20724 5.38637 0
M  V30 2660 H 244.212 -2.01853 3.63861 0
M  V30 2661 H 243.088 -3.04238 4.5687 0
M  V30 2662 H 243.349 -3.36906 2.86264 0
M  V30 2663 N 242.408 -1.52605 -0.393616 0
M  V30 2664 C 243.824 -1.41753 -0.733357 0
M  V30 2665 C 244.024 -0.534293 -1.94287 0
M  V30 2666 O 243.08 -0.0059787 -2.52499 0
M  V30 2667 C 244.393 -2.84531 -0.972772 0
M  V30 2668 C 245.941 -2.93978 -1.07453 0
M  V30 2669 C 246.416 -4.37756 -1.3466 0
M  V30 2670 N 247.907 -4.4106 -1.41492 0
M  V30 2671 C 248.642 -5.49387 -1.642 0
M  V30 2672 N 248.138 -6.67806 -1.8441 0
M  V30 2673 N 249.931 -5.36923 -1.66342 0
M  V30 2674 H 242.082 -2.08555 0.402328 0
M  V30 2675 H 244.345 -0.940654 0.117789 0
M  V30 2676 H 244.051 -3.51353 -0.156204 0
M  V30 2677 H 243.925 -3.26508 -1.88871 0
M  V30 2678 H 246.312 -2.27326 -1.88167 0
M  V30 2679 H 246.393 -2.55435 -0.136605 0
M  V30 2680 H 246.037 -5.04972 -0.544581 0
M  V30 2681 H 245.967 -4.73848 -2.2973 0
M  V30 2682 H 248.458 -3.55705 -1.27601 0
M  V30 2683 H 248.771 -7.46141 -2.01231 0
M  V30 2684 H 247.116 -6.70843 -1.81644 0
M  V30 2685 H 250.307 -4.43381 -1.50102 0
M  V30 2686 H 250.48 -6.21416 -1.837 0
M  V30 2687 N 243.887 0.651787 -1.4349 0
M  V30 2688 C 245.135 1.40888 -1.44897 0
M  V30 2689 C 245.456 1.94856 -0.0749086 0
M  V30 2690 O 244.726 1.74518 0.889956 0
M  V30 2691 H 243.306 0.522887 -0.533478 0
M  V30 2692 H 245.968 0.768609 -1.79104 0
M  V30 2693 H 245.064 2.25052 -2.16236 0
M  V30 2694 N 245.365 1.30045 0.890287 0
M  V30 2695 C 246.642 1.09227 1.62262 0
M  V30 2696 C 247.022 -0.360305 2.08002 0
M  V30 2697 O 246.37 -1.35084 1.84295 0
M  V30 2698 C 246.58 2.08835 2.79623 0
M  V30 2699 C 247.928 2.40266 3.50082 0
M  V30 2700 O 248.952 2.07104 2.89804 0
M  V30 2701 O 247.811 2.96967 4.58773 0
M  V30 2702 H 244.905 0.419132 0.712922 0
M  V30 2703 H 247.451 1.41451 0.937529 0
M  V30 2704 H 246.223 3.06633 2.43089 0
M  V30 2705 H 245.846 1.77397 3.55832 0
M  V30 2706 N 246.843 -1.10192 1.12674 0
M  V30 2707 C 247.793 -2.14754 0.765801 0
M  V30 2708 C 248.777 -1.59154 -0.236409 0
M  V30 2709 O 249.969 -1.76951 -0.0415261 0
M  V30 2710 C 247.098 -3.42563 0.224827 0
M  V30 2711 C 246.184 -4.05091 1.25548 0
M  V30 2712 N 246.575 -4.42287 2.4539 0
M  V30 2713 C 244.873 -4.32186 1.10142 0
M  V30 2714 C 245.574 -4.91441 3.11224 0
M  V30 2715 N 244.55 -4.88405 2.38666 0
M  V30 2716 H 248.352 -2.41309 1.67772 0
M  V30 2717 H 245.866 -1.27339 1.00789 0
M  V30 2718 H 247.863 -4.16868 -0.0519578 0
M  V30 2719 H 246.523 -3.17467 -0.681515 0
M  V30 2720 H 247.534 -4.33902 2.82754 0
M  V30 2721 H 244.211 -4.16735 0.252587 0
M  V30 2722 H 245.601 -5.29749 4.13298 0
M  V30 2723 N 248.321 -0.919034 -1.28029 0
M  V30 2724 C 249.737 -0.617972 -1.4715 0
M  V30 2725 C 249.937 0.835242 -1.83374 0
M  V30 2726 O 248.993 1.61388 -1.94191 0
M  V30 2727 C 250.306 -1.56041 -2.57044 0
M  V30 2728 C 251.854 -1.56769 -2.7091 0
M  V30 2729 C 252.329 -2.49688 -3.83953 0
M  V30 2730 N 253.82 -2.47845 -3.91314 0
M  V30 2731 C 254.555 -3.16437 -4.78179 0
M  V30 2732 N 254.051 -3.94376 -5.69596 0
M  V30 2733 N 255.844 -3.05498 -4.71834 0
M  V30 2734 H 247.995 -1.85866 -1.02798 0
M  V30 2735 H 250.258 -0.797506 -0.512531 0
M  V30 2736 H 249.964 -2.59671 -2.372 0
M  V30 2737 H 249.838 -1.29551 -3.54255 0
M  V30 2738 H 252.225 -0.538745 -2.90141 0
M  V30 2739 H 252.306 -1.87305 -1.74214 0
M  V30 2740 H 251.95 -3.52688 -3.65477 0
M  V30 2741 H 251.88 -2.16453 -4.80058 0
M  V30 2742 H 254.371 -1.91234 -3.25941 0
M  V30 2743 H 254.684 -4.43721 -6.32718 0
M  V30 2744 H 253.029 -3.98481 -5.69419 0
M  V30 2745 H 256.22 -2.44108 -3.99411 0
M  V30 2746 H 256.393 -3.59225 -5.39316 0
M  V30 2747 N 249.799 1.42003 -0.683588 0
M  V30 2748 C 251.076 1.95112 -0.138075 0
M  V30 2749 C 251.456 1.62359 1.34918 0
M  V30 2750 O 250.804 0.924311 2.08971 0
M  V30 2751 C 251.014 3.46505 -0.416581 0
M  V30 2752 C 252.362 4.23254 -0.337834 0
M  V30 2753 O 253.386 3.54468 -0.35082 0
M  V30 2754 O 252.245 5.45743 -0.287596 0
M  V30 2755 H 249.339 0.826961 -0.00797996 0
M  V30 2756 H 251.885 1.51784 -0.758924 0
M  V30 2757 H 250.657 3.63582 -1.4465 0
M  V30 2758 H 250.28 3.969 0.235839 0
M  V30 2759 N 251.277 0.427512 1.51691 0
M  V30 2760 C 252.225 -0.403359 2.29076 0
M  V30 2761 C 253.219 -1.02962 1.34518 0
M  V30 2762 O 254.425 -0.965715 1.51901 0
M  V30 2763 H 250.8 -0.148879 0.737115 0
M  V30 2764 H 252.771 0.270295 2.97173 0
M  V30 2765 C 251.52 -1.49763 3.13794 0
M  V30 2766 H 250.843 -1.02508 3.86435 0
M  V30 2767 H 252.283 -2.05244 3.71014 0
M  V30 2768 C 250.742 -2.47536 2.28533 0
M  V30 2769 O 251.272 -3.51848 1.93819 0
M  V30 2770 N 249.478 -2.18187 1.91945 0
M  V30 2771 H 249.025 -1.33389 2.20375 0
M  V30 2772 H 248.983 -2.83848 1.35195 0
M  V30 2773 N 252.755 -1.56801 0.158532 0
M  V30 2774 C 253.98 -2.01295 -0.499516 0
M  V30 2775 C 254.405 -1.03799 -1.56867 0
M  V30 2776 O 253.763 -0.0155162 -1.81293 0
M  V30 2777 C 253.811 -3.44469 -1.06647 0
M  V30 2778 O 252.915 -3.50012 -2.18095 0
M  V30 2779 H 252.256 -0.652884 -0.12099 0
M  V30 2780 H 254.786 -2.02958 0.258661 0
M  V30 2781 H 254.796 -3.8351 -1.39227 0
M  V30 2782 H 253.471 -4.14932 -0.283581 0
M  V30 2783 H 252.048 -3.22822 -1.86656 0
M  V30 2784 N 254.233 0.115231 -1.57178 0
M  V30 2785 C 255.644 0.67197 -1.74188 0
M  V30 2786 C 255.995 1.80125 -0.777777 0
M  V30 2787 O 255.12 2.16346 0.0484376 0
M  V30 2788 C 255.715 1.22573 -3.1585 0
M  V30 2789 C 254.274 1.72872 -3.34353 0
M  V30 2790 C 253.421 0.629972 -2.70049 0
M  V30 2791 H 256.372 -0.110712 -1.58313 0
M  V30 2792 H 256.393 2.09535 -3.17609 0
M  V30 2793 H 255.905 0.403598 -3.85996 0
M  V30 2794 H 254.006 2.5755 -2.69256 0
M  V30 2795 H 254.119 1.83557 -4.42542 0
M  V30 2796 H 252.483 1.0645 -2.31388 0
M  V30 2797 H 253.266 -0.181241 -3.42821 0
M  V30 2798 N 255.711 1.52812 0.385517 0
M  V30 2799 C 256.958 1.68026 1.1302 0
M  V30 2800 C 257.286 0.421934 1.89868 0
M  V30 2801 O 256.541 -0.595749 1.86412 0
M  V30 2802 C 256.84 2.86856 2.13187 0
M  V30 2803 C 256.506 4.24159 1.5297 0
M  V30 2804 C 255.168 4.61501 1.36274 0
M  V30 2805 C 257.52 5.09627 1.09223 0
M  V30 2806 C 254.848 5.81966 0.743837 0
M  V30 2807 C 257.2 6.30719 0.487411 0
M  V30 2808 C 255.864 6.6679 0.307777 0
M  V30 2809 H 255.134 0.614849 0.413571 0
M  V30 2810 H 257.781 1.86962 0.414405 0
M  V30 2811 H 256.086 2.6235 2.90998 0
M  V30 2812 H 257.783 2.95821 2.70722 0
M  V30 2813 H 254.373 3.94746 1.66954 0
M  V30 2814 H 258.557 4.81343 1.20922 0
M  V30 2815 H 253.813 6.08519 0.592891 0
M  V30 2816 H 257.987 6.96259 0.140143 0
M  V30 2817 H 255.614 7.60001 -0.173879 0
M  V30 2818 N 257.189 -0.644168 1.43834 0
M  V30 2819 C 258.466 -1.40188 1.36406 0
M  V30 2820 C 258.846 -2.11094 0.0163124 0
M  V30 2821 O 258.194 -2.05426 -1.00062 0
M  V30 2822 C 258.404 -2.3791 2.55343 0
M  V30 2823 C 259.752 -3.01637 2.98832 0
M  V30 2824 O 260.776 -2.48237 2.55455 0
M  V30 2825 O 259.635 -3.98477 3.74003 0
M  V30 2826 H 256.729 -0.626773 0.539523 0
M  V30 2827 H 259.275 -0.670317 1.559 0
M  V30 2828 H 258.047 -1.84525 3.4506 0
M  V30 2829 H 257.67 -3.18503 2.37995 0
M  V30 2830 N 258.668 -1.30515 -0.883378 0
M  V30 2831 C 259.916 -1.19194 -1.63209 0
M  V30 2832 C 260.237 0.253205 -1.93349 0
M  V30 2833 O 259.507 1.17025 -1.57105 0
M  V30 2834 H 258.087 -0.438148 -0.605009 0
M  V30 2835 H 260.749 -1.63663 -1.05832 0
M  V30 2836 H 259.845 -1.75396 -2.58153 0
M  V30 2837 N 260.146 1.09593 -1.13257 0
M  V30 2838 C 261.557 1.63229 -0.906274 0
M  V30 2839 C 261.908 1.8811 0.557578 0
M  V30 2840 O 261.033 1.62953 1.42391 0
M  V30 2841 C 261.628 2.96535 -1.63867 0
M  V30 2842 C 260.187 3.47003 -1.45828 0
M  V30 2843 C 259.334 2.2145 -1.66898 0
M  V30 2844 H 262.285 0.92978 -1.28611 0
M  V30 2845 H 262.306 3.64411 -1.09476 0
M  V30 2846 H 261.818 2.78394 -2.70404 0
M  V30 2847 H 259.919 3.70272 -0.415848 0
M  V30 2848 H 260.032 4.24551 -2.2202 0
M  V30 2849 H 258.396 2.30022 -1.09371 0
M  V30 2850 H 259.179 2.0583 -2.74752 0
M  V30 2851 N 261.624 0.925811 1.2754 0
M  V30 2852 C 262.872 0.564138 1.94067 0
M  V30 2853 C 263.193 -0.897188 1.73134 0
M  V30 2854 O 262.463 -1.63573 1.07799 0
M  V30 2855 H 261.043 0.205645 0.718136 0
M  V30 2856 H 263.705 1.1778 1.55287 0
M  V30 2857 H 262.801 0.76881 3.02483 0
M  V30 2858 N 263.102 -1.41638 0.69111 0
M  V30 2859 C 264.35 -2.00902 0.219758 0
M  V30 2860 C 264.671 -1.54994 -1.18329 0
M  V30 2861 O 263.941 -0.778628 -1.79762 0
M  V30 2862 H 262.521 -0.74289 0.0782558 0
M  V30 2863 H 265.183 -1.73327 0.891271 0
M  V30 2864 H 264.279 -3.11224 0.233708 0
M  V30 2865 N 264.58 -0.43555 -1.51462 0
M  V30 2866 C 265.528 0.391205 -2.29287 0
M  V30 2867 C 266.522 1.02247 -1.35062 0
M  V30 2868 O 267.728 0.957646 -1.52411 0
M  V30 2869 H 264.103 0.144968 -0.737895 0
M  V30 2870 H 266.074 -0.286051 -2.97026 0
M  V30 2871 C 264.823 1.48096 -3.14583 0
M  V30 2872 H 264.146 1.00457 -3.86973 0
M  V30 2873 H 265.586 2.03273 -3.72097 0
M  V30 2874 C 264.045 2.46321 -2.29843 0
M  V30 2875 O 264.575 3.50815 -1.95682 0
M  V30 2876 N 262.781 2.17166 -1.931 0
M  V30 2877 H 262.328 1.32218 -2.21079 0
M  V30 2878 H 262.286 2.83127 -1.36698 0
M  V30 2879 N 266.058 1.56714 -0.166846 0
M  V30 2880 C 266.988 2.20754 0.760913 0
M  V30 2881 C 267.969 1.16178 1.24244 0
M  V30 2882 O 269.154 1.44592 1.29641 0
M  V30 2883 C 266.284 2.84478 1.99223 0
M  V30 2884 C 265.238 3.95053 1.64672 0
M  V30 2885 C 264.564 4.45805 2.95232 0
M  V30 2886 C 265.864 5.14865 0.878155 0
M  V30 2887 H 267.558 2.98537 0.22713 0
M  V30 2888 H 265.104 1.43596 0.107805 0
M  V30 2889 H 267.057 3.27951 2.64624 0
M  V30 2890 H 265.781 2.04056 2.55007 0
M  V30 2891 H 264.44 3.52228 1.01641 0
M  V30 2892 H 264.088 3.62181 3.49047 0
M  V30 2893 H 263.788 5.204 2.7287 0
M  V30 2894 H 265.312 4.91962 3.6167 0
M  V30 2895 H 266.726 5.55059 1.43466 0
M  V30 2896 H 265.123 5.95348 0.753738 0
M  V30 2897 H 266.193 4.84735 -0.126377 0
M  V30 2898 N 267.536 -0.106894 1.57237 0
M  V30 2899 C 268.499 -1.11466 2.0027 0
M  V30 2900 C 269.499 -1.33623 0.894519 0
M  V30 2901 O 270.689 -1.29935 1.16028 0
M  V30 2902 C 267.821 -2.46646 2.35327 0
M  V30 2903 H 269.014 -0.744516 2.90512 0
M  V30 2904 H 266.567 -0.351576 1.52295 0
M  V30 2905 H 267.302 -2.88558 1.48003 0
M  V30 2906 H 267.087 -2.31915 3.16161 0
M  V30 2907 H 268.577 -3.19151 2.69318 0
M  V30 2908 N 269.014 -1.53014 -0.377408 0
M  V30 2909 C 269.964 -1.74996 -1.46152 0
M  V30 2910 C 270.948 -0.604236 -1.49123 0
M  V30 2911 O 272.14 -0.862489 -1.54564 0
M  V30 2912 C 269.269 -1.93267 -2.8373 0
M  V30 2913 C 268.355 -3.13807 -2.85283 0
M  V30 2914 N 268.746 -4.35941 -2.56493 0
M  V30 2915 C 267.044 -3.14288 -3.16448 0
M  V30 2916 C 267.745 -5.17615 -2.65424 0
M  V30 2917 N 266.721 -4.53559 -2.99641 0
M  V30 2918 H 270.523 -2.67044 -1.22738 0
M  V30 2919 H 268.037 -1.51479 -0.585479 0
M  V30 2920 H 270.034 -2.0714 -3.61799 0
M  V30 2921 H 268.694 -1.0244 -3.08117 0
M  V30 2922 H 269.705 -4.63876 -2.30302 0
M  V30 2923 H 266.382 -2.33312 -3.46225 0
M  V30 2924 H 267.772 -6.25006 -2.46612 0
M  V30 2925 N 270.492 0.636531 -1.44174 0
M  V30 2926 C 271.455 1.73063 -1.50273 0
M  V30 2927 C 272.455 1.56113 -0.385397 0
M  V30 2928 O 273.645 1.61707 -0.64781 0
M  V30 2929 C 270.777 3.12096 -1.37145 0
M  V30 2930 H 271.97 1.69031 -2.47727 0
M  V30 2931 H 269.523 0.849706 -1.31186 0
M  V30 2932 H 270.258 3.21728 -0.407636 0
M  V30 2933 H 270.043 3.25805 -2.18159 0
M  V30 2934 H 271.533 3.91846 -1.44382 0
M  V30 2935 N 271.97 1.30982 0.876444 0
M  V30 2936 C 273.217 1.20296 1.62896 0
M  V30 2937 C 273.545 -0.240395 1.93009 0
M  V30 2938 O 272.8 -1.18733 1.55567 0
M  V30 2939 C 273.099 1.98572 2.9716 0
M  V30 2940 C 272.765 3.48125 2.86566 0
M  V30 2941 C 271.427 3.88905 2.83383 0
M  V30 2942 C 273.779 4.43322 2.74071 0
M  V30 2943 C 271.107 5.2316 2.65556 0
M  V30 2944 C 273.459 5.77695 2.57781 0
M  V30 2945 C 272.123 6.17704 2.52979 0
M  V30 2946 H 271.393 0.440193 0.59608 0
M  V30 2947 H 274.04 1.62177 1.01837 0
M  V30 2948 H 272.345 1.49352 3.62217 0
M  V30 2949 H 274.042 1.8769 3.54364 0
M  V30 2950 H 270.632 3.15723 2.89856 0
M  V30 2951 H 274.816 4.12752 2.75589 0
M  V30 2952 H 270.072 5.53241 2.60259 0
M  V30 2953 H 274.246 6.51091 2.47089 0
M  V30 2954 H 271.873 7.21678 2.38924 0
M  V30 2955 N 273.449 -1.08991 1.13837 0
M  V30 2956 C 274.381 -2.15606 0.777612 0
M  V30 2957 C 275.394 -1.61533 -0.202739 0
M  V30 2958 O 276.583 -1.78491 0.0181055 0
M  V30 2959 C 273.683 -3.3864 0.132623 0
M  V30 2960 C 272.856 -4.22115 1.1462 0
M  V30 2961 C 271.915 -5.23564 0.526074 0
M  V30 2962 O 270.941 -5.56678 1.18735 0
M  V30 2963 N 272.143 -5.76266 -0.699866 0
M  V30 2964 H 274.908 -2.47159 1.69506 0
M  V30 2965 H 272.469 -1.24747 1.03198 0
M  V30 2966 H 274.461 -4.03626 -0.29459 0
M  V30 2967 H 273.031 -3.04938 -0.687849 0
M  V30 2968 H 272.251 -3.53199 1.75055 0
M  V30 2969 H 273.539 -4.74709 1.83109 0
M  V30 2970 H 272.937 -5.51585 -1.25581 0
M  V30 2971 H 271.494 -6.42963 -1.06968 0
M  V30 2972 N 274.927 -0.932562 -1.27047 0
M  V30 2973 C 276.338 -0.619451 -1.76124 0
M  V30 2974 C 276.689 0.865397 -1.76083 0
M  V30 2975 O 275.814 1.67722 -1.36742 0
M  V30 2976 C 276.409 -1.11771 -3.19832 0
M  V30 2977 C 274.968 -0.855174 -3.66557 0
M  V30 2978 C 274.115 -1.27362 -2.46321 0
M  V30 2979 H 277.066 -1.11181 -1.13245 0
M  V30 2980 H 277.087 -0.46759 -3.77616 0
M  V30 2981 H 276.599 -2.19842 -3.1983 0
M  V30 2982 H 274.7 0.211524 -3.71999 0
M  V30 2983 H 274.813 -1.47613 -4.55793 0
M  V30 2984 H 273.177 -0.692119 -2.45116 0
M  V30 2985 H 273.96 -2.36307 -2.49025 0
M  V30 2986 N 276.405 1.4127 -0.698611 0
M  V30 2987 C 277.653 2.00782 -0.230409 0
M  V30 2988 C 277.974 1.5562 1.17505 0
M  V30 2989 O 277.244 0.78815 1.79346 0
M  V30 2990 H 275.824 0.742464 -0.0821944 0
M  V30 2991 H 278.486 1.72852 -0.90045 0
M  V30 2992 H 277.582 3.11095 -0.25021 0
M  V30 2993 N 277.883 0.443576 1.51229 0
M  V30 2994 C 279.294 -0.0180867 1.86691 0
M  V30 2995 C 279.645 -1.41384 1.36033 0
M  V30 2996 O 278.77 -2.04291 0.713722 0
M  V30 2997 C 279.365 -0.039597 3.38777 0
M  V30 2998 C 277.924 -0.445692 3.73752 0
M  V30 2999 C 277.071 0.357584 2.74985 0
M  V30 3000 H 280.022 0.659138 1.44364 0
M  V30 3001 H 280.043 -0.847761 3.70936 0
M  V30 3002 H 279.555 0.976382 3.75617 0
M  V30 3003 H 277.656 -1.46704 3.42503 0
M  V30 3004 H 277.769 -0.166155 4.78812 0
M  V30 3005 H 276.133 -0.184973 2.54027 0
M  V30 3006 H 276.916 1.37256 3.14668 0
M  V30 3007 N 279.361 -1.56624 0.175154 0
M  V30 3008 C 280.609 -1.96609 -0.467885 0
M  V30 3009 C 280.93 -1.06238 -1.63519 0
M  V30 3010 O 280.2 -0.129523 -1.95471 0
M  V30 3011 H 278.78 -0.726008 -0.175845 0
M  V30 3012 H 281.442 -1.93195 0.257234 0
M  V30 3013 H 280.538 -3.00989 -0.825342 0
M  V30 3014 N 280.839 0.0985539 -1.57292 0
M  V30 3015 C 282.088 0.801358 -1.85098 0
M  V30 3016 C 282.401 1.80066 -0.763902 0
M  V30 3017 O 283.607 2.55112 -0.928981 0
M  V30 3018 C 282.063 1.47599 -3.28242 0
M  V30 3019 C 281.671 0.516624 -4.45011 0
M  V30 3020 C 283.415 2.16272 -3.65276 0
M  V30 3021 C 281.322 1.19564 -5.79188 0
M  V30 3022 H 280.252 0.303022 -0.69043 0
M  V30 3023 H 282.903 0.0542623 -1.8342 0
M  V30 3024 H 281.285 2.27042 -3.2445 0
M  V30 3025 H 282.459 -0.246065 -4.60143 0
M  V30 3026 H 280.774 -0.064227 -4.1635 0
M  V30 3027 H 283.371 2.67802 -4.62803 0
M  V30 3028 H 283.714 2.95009 -2.93727 0
M  V30 3029 H 284.247 1.43693 -3.70941 0
M  V30 3030 H 280.986 0.449157 -6.53959 0
M  V30 3031 H 280.506 1.92984 -5.67906 0
M  V30 3032 H 282.185 1.7231 -6.23633 0
M  V30 3033 N 282.317 1.53212 0.369288 0
M  V30 3034 C 283.565 1.68881 1.11012 0
M  V30 3035 C 283.886 0.441285 1.89941 0
M  V30 3036 O 283.156 -0.544623 1.88177 0
M  V30 3037 H 281.736 0.622569 0.412816 0
M  V30 3038 H 284.398 1.90391 0.416802 0
M  V30 3039 H 283.494 2.54822 1.80201 0
M  V30 3040 N 283.795 -0.628877 1.44509 0
M  V30 3041 C 285.043 -1.38565 1.4712 0
M  V30 3042 C 285.364 -1.94712 0.105899 0
M  V30 3043 O 284.634 -1.75912 -0.862079 0
M  V30 3044 H 283.214 -0.514333 0.541729 0
M  V30 3045 H 285.876 -0.740018 1.80305 0
M  V30 3046 H 284.972 -2.21583 2.19789 0
M  V30 3047 N 285.273 -1.31445 -0.869486 0
M  V30 3048 C 286.55 -1.11795 -1.60503 0
M  V30 3049 C 286.93 0.327168 -2.08549 0
M  V30 3050 O 286.278 1.32135 -1.8642 0
M  V30 3051 C 286.488 -2.13258 -2.76265 0
M  V30 3052 C 287.836 -2.45805 -3.46215 0
M  V30 3053 O 288.86 -2.11688 -2.86473 0
M  V30 3054 O 287.719 -3.04228 -4.5399 0
M  V30 3055 H 284.813 -0.430421 -0.706163 0
M  V30 3056 H 287.359 -1.42925 -0.914907 0
M  V30 3057 H 286.131 -3.10461 -2.3818 0
M  V30 3058 H 285.754 -1.83035 -3.52964 0
M  V30 3059 N 286.751 1.08385 -1.14413 0
M  V30 3060 C 287.714 2.13486 -0.834048 0
M  V30 3061 C 288.714 1.59988 0.161418 0
M  V30 3062 O 289.904 1.74071 -0.0669575 0
M  V30 3063 C 287.036 3.4003 -0.243354 0
M  V30 3064 H 288.229 2.42425 -1.7655 0
M  V30 3065 H 285.782 1.24101 -0.950189 0
M  V30 3066 H 286.517 3.16726 0.696807 0
M  V30 3067 H 286.302 3.80157 -0.960367 0
M  V30 3068 H 287.792 4.17577 -0.0436242 0
M  V30 3069 N 288.23 0.939286 1.26551 0
M  V30 3070 C 289.18 0.418284 2.2413 0
M  V30 3071 C 290.164 -0.483935 1.5345 0
M  V30 3072 O 291.356 -0.319489 1.74093 0
M  V30 3073 C 288.485 -0.31709 3.41832 0
M  V30 3074 C 287.571 0.602311 4.19801 0
M  V30 3075 N 287.962 1.72726 4.75394 0
M  V30 3076 C 286.26 0.407534 4.44134 0
M  V30 3077 C 286.961 2.30004 5.34297 0
M  V30 3078 N 285.937 1.58828 5.1988 0
M  V30 3079 H 289.739 1.27705 2.64705 0
M  V30 3080 H 287.253 0.794929 1.41614 0
M  V30 3081 H 289.25 -0.707364 4.10855 0
M  V30 3082 H 287.91 -1.17264 3.02786 0
M  V30 3083 H 288.921 2.10944 4.72994 0
M  V30 3084 H 285.598 -0.406406 4.15517 0
M  V30 3085 H 286.988 3.24778 5.88191 0
M  V30 3086 N 289.708 -1.40897 0.706093 0
M  V30 3087 C 290.955 -2.01054 0.241531 0
M  V30 3088 C 291.283 -1.55956 -1.16223 0
M  V30 3089 O 290.538 -0.766336 -1.80072 0
M  V30 3090 C 290.837 -3.5646 0.259099 0
M  V30 3091 C 290.503 -4.21106 1.61184 0
M  V30 3092 C 289.165 -4.38479 1.98216 0
M  V30 3093 C 291.517 -4.57256 2.50132 0
M  V30 3094 C 288.845 -4.89282 3.2376 0
M  V30 3095 C 291.197 -5.09454 3.7502 0
M  V30 3096 C 289.861 -5.25037 4.12181 0
M  V30 3097 H 289.131 -0.73571 0.0883825 0
M  V30 3098 H 291.778 -1.68645 0.907257 0
M  V30 3099 H 290.083 -3.88721 -0.490189 0
M  V30 3100 H 291.78 -4.00826 -0.11804 0
M  V30 3101 H 288.37 -4.07966 1.31384 0
M  V30 3102 H 292.554 -4.43479 2.228 0
M  V30 3103 H 287.81 -4.99531 3.52532 0
M  V30 3104 H 291.984 -5.36404 4.44121 0
M  V30 3105 H 289.611 -5.64164 5.09532 0
M  V30 3106 N 291.186 -0.45159 -1.50991 0
M  V30 3107 C 292.463 0.170707 -1.94854 0
M  V30 3108 C 292.843 1.58788 -1.39103 0
M  V30 3109 O 292.191 2.20913 -0.583921 0
M  V30 3110 C 292.401 0.133929 -3.48743 0
M  V30 3111 C 293.749 0.33248 -4.23296 0
M  V30 3112 O 294.773 0.211403 -3.55572 0
M  V30 3113 O 293.632 0.57486 -5.43468 0
M  V30 3114 H 290.726 0.122264 -0.817912 0
M  V30 3115 H 293.272 -0.510594 -1.61836 0
M  V30 3116 H 292.044 -0.856283 -3.81816 0
M  V30 3117 H 291.667 0.857529 -3.88242 0
M  V30 3118 N 292.664 1.56529 -0.183458 0
M  V30 3119 C 293.574 2.22144 0.754272 0
M  V30 3120 C 294.59 1.21684 1.24374 0
M  V30 3121 O 295.766 1.54385 1.29333 0
M  V30 3122 C 292.831 2.85884 1.96141 0
M  V30 3123 C 291.892 4.01579 1.51765 0
M  V30 3124 C 291.125 4.6227 2.66725 0
M  V30 3125 O 291.348 4.21865 3.83909 0
M  V30 3126 O 290.282 5.51936 2.40104 0
M  V30 3127 H 294.108 3.02861 0.225527 0
M  V30 3128 H 291.693 1.49331 0.0453032 0
M  V30 3129 H 293.575 3.26253 2.66715 0
M  V30 3130 H 292.25 2.08154 2.47899 0
M  V30 3131 H 291.157 3.65856 0.781049 0
M  V30 3132 H 292.49 4.80938 1.04686 0
M  V30 3133 N 294.142 -0.090211 1.57342 0
M  V30 3134 C 295.419 -0.824761 1.77361 0
M  V30 3135 C 295.799 -1.96698 0.76637 0
M  V30 3136 O 295.147 -2.27586 -0.204179 0
M  V30 3137 C 295.357 -1.31481 3.23286 0
M  V30 3138 C 296.705 -1.75563 3.86604 0
M  V30 3139 O 297.729 -1.41093 3.27065 0
M  V30 3140 O 296.588 -2.39317 4.91314 0
M  V30 3141 H 293.682 -0.393776 0.727234 0
M  V30 3142 H 296.228 -0.0717138 1.69548 0
M  V30 3143 H 295 -0.496671 3.88135 0
M  V30 3144 H 294.623 -2.12973 3.35751 0
M  V30 3145 N 295.62 -1.53406 -0.361157 0
M  V30 3146 C 296.53 -1.83122 -1.4664 0
M  V30 3147 C 297.546 -0.719943 -1.58407 0
M  V30 3148 O 298.722 -1.01046 -1.74218 0
M  V30 3149 C 295.787 -2.01891 -2.81853 0
M  V30 3150 C 294.848 -3.25784 -2.79577 0
M  V30 3151 C 294.081 -3.43648 -4.0834 0
M  V30 3152 O 294.304 -2.65714 -5.0473 0
M  V30 3153 O 293.238 -4.37018 -4.13883 0
M  V30 3154 H 297.064 -2.7703 -1.24451 0
M  V30 3155 H 294.649 -1.38841 -0.551678 0
M  V30 3156 H 296.531 -2.15782 -3.61962 0
M  V30 3157 H 295.206 -1.11173 -3.0401 0
M  V30 3158 H 294.113 -3.17312 -1.98151 0
M  V30 3159 H 295.446 -4.16439 -2.62373 0
M  V30 3160 N 297.098 0.621204 -1.44841 0
M  V30 3161 C 298.514 0.94048 -1.28946 0
M  V30 3162 C 298.714 2.00154 -0.23249 0
M  V30 3163 O 297.77 2.49651 0.378237 0
M  V30 3164 C 299.083 1.39433 -2.66419 0
M  V30 3165 C 300.631 1.50927 -2.74208 0
M  V30 3166 C 301.106 1.99692 -4.12174 0
M  V30 3167 N 302.597 2.06947 -4.144 0
M  V30 3168 C 303.332 2.45871 -5.1801 0
M  V30 3169 N 302.828 2.83862 -6.31977 0
M  V30 3170 N 304.621 2.46092 -5.05366 0
M  V30 3171 H 296.772 -0.0803548 -2.12248 0
M  V30 3172 H 299.035 0.0266913 -0.947624 0
M  V30 3173 H 298.741 0.688925 -3.44887 0
M  V30 3174 H 298.615 2.36347 -2.93973 0
M  V30 3175 H 301.002 2.20561 -1.96053 0
M  V30 3176 H 301.083 0.523627 -2.50383 0
M  V30 3177 H 300.727 1.30649 -4.90809 0
M  V30 3178 H 300.657 2.99146 -4.33381 0
M  V30 3179 H 303.148 1.80232 -3.32152 0
M  V30 3180 H 303.461 3.12405 -7.0684 0
M  V30 3181 H 301.806 2.8159 -6.35399 0
M  V30 3182 H 304.997 2.1581 -4.15384 0
M  V30 3183 H 305.17 2.76102 -5.86235 0
M  V30 3184 N 298.576 1.31904 0.862503 0
M  V30 3185 C 299.822 1.23207 1.61838 0
M  V30 3186 C 300.177 -0.206062 1.91293 0
M  V30 3187 O 299.47 -1.14162 1.53875 0
M  V30 3188 C 299.664 2.01713 2.95037 0
M  V30 3189 C 299.493 3.53014 2.78588 0
M  V30 3190 C 298.263 4.22359 2.77382 0
M  V30 3191 C 300.461 4.47819 2.52909 0
M  V30 3192 N 298.443 5.59766 2.52062 0
M  V30 3193 C 299.814 5.72947 2.36922 0
M  V30 3194 C 301.869 4.37162 2.38314 0
M  V30 3195 C 300.572 6.88623 2.07823 0
M  V30 3196 C 302.598 5.5263 2.10604 0
M  V30 3197 C 301.96 6.76752 1.95411 0
M  V30 3198 H 298.059 0.505984 0.596242 0
M  V30 3199 H 300.643 1.66179 1.01452 0
M  V30 3200 H 298.814 1.61098 3.53415 0
M  V30 3201 H 300.546 1.84975 3.59953 0
M  V30 3202 H 297.301 3.74401 2.90036 0
M  V30 3203 H 297.725 6.32135 2.42352 0
M  V30 3204 H 302.367 3.41857 2.48784 0
M  V30 3205 H 300.085 7.83948 1.9609 0
M  V30 3206 H 303.671 5.46307 2.00101 0
M  V30 3207 H 302.551 7.6459 1.74274 0
M  V30 3208 N 300.054 -1.07777 1.14986 0
M  V30 3209 C 301.282 -1.84018 0.945773 0
M  V30 3210 C 301.697 -1.81897 -0.505863 0
M  V30 3211 O 301.054 -1.22726 -1.35072 0
M  V30 3212 C 301.105 -3.31287 1.44677 0
M  V30 3213 O 300.826 -3.33449 2.84154 0
M  V30 3214 C 302.327 -4.24311 1.28355 0
M  V30 3215 H 299.547 -0.580716 0.336169 0
M  V30 3216 H 302.091 -1.36077 1.52654 0
M  V30 3217 H 300.246 -3.76594 0.908625 0
M  V30 3218 H 300.66 -4.25427 3.06777 0
M  V30 3219 H 302.134 -5.2573 1.68261 0
M  V30 3220 H 302.611 -4.38612 0.227184 0
M  V30 3221 H 303.217 -3.84836 1.81056 0
M  V30 3222 N 301.532 -0.945985 -1.26051 0
M  V30 3223 C 302.48 -0.450259 -2.282 0
M  V30 3224 C 303.474 0.47497 -1.62605 0
M  V30 3225 O 304.68 0.352653 -1.76512 0
M  V30 3226 H 301.055 -0.127081 -0.741184 0
M  V30 3227 H 303.026 -1.32422 -2.67408 0
M  V30 3228 C 301.775 0.26467 -3.46691 0
M  V30 3229 H 301.098 -0.438123 -3.97392 0
M  V30 3230 H 302.538 0.575678 -4.20074 0
M  V30 3231 C 300.997 1.48416 -3.02447 0
M  V30 3232 O 301.527 2.58227 -3.07704 0
M  V30 3233 N 299.733 1.34243 -2.57735 0
M  V30 3234 H 299.28 0.448994 -2.53657 0
M  V30 3235 H 299.238 2.15957 -2.28495 0
M  V30 3236 N 303.011 1.40521 -0.713556 0
M  V30 3237 C 303.959 2.32549 -0.0485227 0
M  V30 3238 C 304.953 1.51931 0.74922 0
M  V30 3239 O 306.159 1.67745 0.652816 0
M  V30 3240 H 302.534 0.751994 0.00311138 0
M  V30 3241 H 304.505 2.86291 -0.841443 0
M  V30 3242 C 303.254 3.36879 0.860687 0
M  V30 3243 H 302.577 3.98978 0.256246 0
M  V30 3244 H 304.017 4.03772 1.294 0
M  V30 3245 C 302.476 2.72197 1.9852 0
M  V30 3246 O 303.006 2.5837 3.07584 0
M  V30 3247 N 301.212 2.30612 1.76823 0
M  V30 3248 H 300.759 2.42059 0.881217 0
M  V30 3249 H 300.717 1.87672 2.52243 0
M  V30 3250 N 304.489 0.459591 1.5075 0
M  V30 3251 C 305.736 -0.0993495 2.02256 0
M  V30 3252 C 306.064 -1.40751 1.34237 0
M  V30 3253 O 305.319 -1.90379 0.453228 0
M  V30 3254 C 305.618 -0.342866 3.55752 0
M  V30 3255 C 305.284 0.88218 4.42186 0
M  V30 3256 C 303.946 1.21808 4.65528 0
M  V30 3257 C 306.298 1.69837 4.92752 0
M  V30 3258 C 303.626 2.37045 5.36681 0
M  V30 3259 C 305.978 2.84192 5.65171 0
M  V30 3260 C 304.642 3.1821 5.8677 0
M  V30 3261 H 303.912 -0.0363545 0.740108 0
M  V30 3262 H 306.559 0.611329 1.8148 0
M  V30 3263 H 304.864 -1.13567 3.7498 0
M  V30 3264 H 306.561 -0.789121 3.93159 0
M  V30 3265 H 303.151 0.610467 4.2423 0
M  V30 3266 H 307.335 1.45205 4.74583 0
M  V30 3267 H 302.591 2.63689 5.51614 0
M  V30 3268 H 306.765 3.4779 6.03337 0
M  V30 3269 H 304.392 4.07613 6.41682 0
M  V30 3270 N 305.967 -1.56429 0.191757 0
M  V30 3271 C 307.383 -1.58754 -0.164137 0
M  V30 3272 C 307.583 -1.20782 -1.61288 0
M  V30 3273 O 306.639 -0.928999 -2.34789 0
M  V30 3274 C 307.952 -3.00396 0.135195 0
M  V30 3275 C 309.5 -3.1291 0.0750351 0
M  V30 3276 C 309.975 -4.56679 0.347632 0
M  V30 3277 N 311.466 -4.62252 0.296131 0
M  V30 3278 C 312.201 -5.71379 0.480948 0
M  V30 3279 N 311.697 -6.88986 0.725933 0
M  V30 3280 N 313.49 -5.60563 0.415435 0
M  V30 3281 H 305.641 -1.79393 1.13718 0
M  V30 3282 H 307.904 -0.832414 0.453643 0
M  V30 3283 H 307.61 -3.32726 1.13958 0
M  V30 3284 H 307.484 -3.72963 -0.563773 0
M  V30 3285 H 309.871 -2.80394 -0.919948 0
M  V30 3286 H 309.952 -2.42736 0.807029 0
M  V30 3287 H 309.596 -4.89907 1.33992 0
M  V30 3288 H 309.526 -5.25039 -0.405212 0
M  V30 3289 H 312.017 -3.7773 0.113259 0
M  V30 3290 H 312.33 -7.68046 0.855857 0
M  V30 3291 H 310.675 -6.90801 0.762788 0
M  V30 3292 H 313.866 -4.67561 0.224486 0
M  V30 3293 H 314.039 -6.45551 0.562889 0
M  V30 3294 N 307.445 0.0818655 -1.57387 0
M  V30 3295 C 308.355 1.11642 -2.06333 0
M  V30 3296 C 309.371 1.43033 -0.99083 0
M  V30 3297 O 310.547 1.53411 -1.30488 0
M  V30 3298 C 307.612 2.41342 -2.48907 0
M  V30 3299 C 306.673 2.17014 -3.7041 0
M  V30 3300 C 305.906 3.4053 -4.10944 0
M  V30 3301 O 306.129 4.4927 -3.51444 0
M  V30 3302 O 305.063 3.29336 -5.03807 0
M  V30 3303 H 308.889 0.730657 -2.9478 0
M  V30 3304 H 306.474 0.295301 -1.46452 0
M  V30 3305 H 308.356 3.17691 -2.76858 0
M  V30 3306 H 307.031 2.79319 -1.63593 0
M  V30 3307 H 305.938 1.38403 -3.47556 0
M  V30 3308 H 307.271 1.83923 -4.56545 0
M  V30 3309 N 308.923 1.53595 0.353017 0
M  V30 3310 C 310.153 1.74058 1.11299 0
M  V30 3311 C 310.561 0.475205 1.83135 0
M  V30 3312 O 309.904 -0.562344 1.74881 0
M  V30 3313 C 309.966 2.85994 2.17825 0
M  V30 3314 C 309.63 4.25923 1.65647 0
M  V30 3315 C 310.627 5.07829 1.11383 0
M  V30 3316 C 308.312 4.72377 1.7078 0
M  V30 3317 C 310.306 6.34285 0.629439 0
M  V30 3318 C 307.993 5.98808 1.21953 0
M  V30 3319 C 308.991 6.79594 0.681265 0
M  V30 3320 O 308.679 8.03651 0.200248 0
M  V30 3321 H 308.411 0.585327 0.338183 0
M  V30 3322 H 310.965 2.01186 0.413927 0
M  V30 3323 H 309.195 2.54368 2.91262 0
M  V30 3324 H 310.884 2.94515 2.79313 0
M  V30 3325 H 311.65 4.73107 1.06746 0
M  V30 3326 H 307.529 4.0956 2.11617 0
M  V30 3327 H 311.073 6.97288 0.208636 0
M  V30 3328 H 306.97 6.33026 1.26287 0
M  V30 3329 H 307.738 8.1788 0.318416 0
M  V30 3330 N 310.401 -0.613514 1.45168 0
M  V30 3331 C 311.349 -1.74572 1.53712 0
M  V30 3332 C 312.343 -1.64426 0.407505 0
M  V30 3333 O 313.549 -1.70291 0.583176 0
M  V30 3334 H 309.924 -0.576641 0.48269 0
M  V30 3335 H 311.895 -1.64492 2.48968 0
M  V30 3336 C 310.644 -3.12943 1.51532 0
M  V30 3337 H 309.967 -3.21407 2.37776 0
M  V30 3338 H 311.407 -3.9201 1.61569 0
M  V30 3339 C 309.866 -3.36053 0.238798 0
M  V30 3340 O 310.396 -3.95837 -0.6838 0
M  V30 3341 N 308.602 -2.9028 0.136359 0
M  V30 3342 H 308.149 -2.41811 0.887999 0
M  V30 3343 H 308.107 -3.06116 -0.716944 0
M  V30 3344 N 311.879 -1.3236 -0.855495 0
M  V30 3345 C 312.809 -1.23833 -1.97958 0
M  V30 3346 C 313.79 -0.122361 -1.69659 0
M  V30 3347 O 314.975 -0.30939 -1.9172 0
M  V30 3348 C 312.105 -0.959772 -3.33775 0
M  V30 3349 C 311.059 -2.03689 -3.76424 0
M  V30 3350 C 310.385 -1.61075 -5.09862 0
M  V30 3351 C 311.685 -3.4518 -3.9198 0
M  V30 3352 H 313.379 -2.1788 -2.0535 0
M  V30 3353 H 310.925 -1.04891 -0.986605 0
M  V30 3354 H 312.878 -0.886678 -4.11966 0
M  V30 3355 H 311.602 0.0163404 -3.26596 0
M  V30 3356 H 310.261 -2.10012 -3.00484 0
M  V30 3357 H 309.909 -0.622107 -4.99138 0
M  V30 3358 H 309.609 -2.33143 -5.39368 0
M  V30 3359 H 311.133 -1.55201 -5.90546 0
M  V30 3360 H 312.547 -3.4145 -4.60526 0
M  V30 3361 H 310.944 -4.1559 -4.32903 0
M  V30 3362 H 312.014 -3.84903 -2.94919 0
M  V30 3363 N 313.357 1.07166 -1.15556 0
M  V30 3364 C 314.307 2.12649 -0.82247 0
M  V30 3365 C 315.291 1.59725 0.194129 0
M  V30 3366 O 316.483 1.76999 -0.00540402 0
M  V30 3367 C 313.612 3.41847 -0.315572 0
M  V30 3368 C 312.698 4.0162 -1.36244 0
M  V30 3369 N 313.089 4.35625 -2.5703 0
M  V30 3370 C 311.387 4.29114 -1.21562 0
M  V30 3371 C 312.088 4.83017 -3.24144 0
M  V30 3372 N 311.064 4.81906 -2.51531 0
M  V30 3373 H 314.866 2.36776 -1.74111 0
M  V30 3374 H 312.38 1.24622 -1.0413 0
M  V30 3375 H 314.377 4.16859 -0.0585855 0
M  V30 3376 H 313.037 3.19163 0.597105 0
M  V30 3377 H 314.048 4.26253 -2.94158 0
M  V30 3378 H 310.725 4.15919 -0.362988 0
M  V30 3379 H 312.115 5.18605 -4.27198 0
M  V30 3380 N 314.835 0.952656 1.25548 0
M  V30 3381 C 316.251 0.656769 1.4546 0
M  V30 3382 C 316.451 -0.78633 1.85524 0
M  V30 3383 O 315.507 -1.56183 1.98402 0
M  V30 3384 C 316.82 1.62801 2.52817 0
M  V30 3385 C 318.368 1.63897 2.66659 0
M  V30 3386 C 318.843 2.5978 3.77198 0
M  V30 3387 N 320.334 2.58133 3.84606 0
M  V30 3388 C 321.069 3.29003 4.69621 0
M  V30 3389 N 320.565 4.09339 5.58939 0
M  V30 3390 N 322.358 3.179 4.63569 0
M  V30 3391 H 314.509 1.88526 0.978344 0
M  V30 3392 H 316.772 0.810815 0.491206 0
M  V30 3393 H 316.478 2.65869 2.30232 0
M  V30 3394 H 316.352 1.38898 3.50695 0
M  V30 3395 H 318.739 0.615481 2.8861 0
M  V30 3396 H 318.82 1.91858 1.69187 0
M  V30 3397 H 318.464 3.62254 3.55997 0
M  V30 3398 H 318.394 2.29105 4.7415 0
M  V30 3399 H 320.885 1.99809 3.20757 0
M  V30 3400 H 321.198 4.6034 6.20731 0
M  V30 3401 H 319.543 4.13438 5.58654 0
M  V30 3402 H 322.734 2.54612 3.92798 0
M  V30 3403 H 322.907 3.73398 5.29602 0
M  V30 3404 N 316.313 -1.40141 0.720998 0
M  V30 3405 C 317.559 -2.01084 0.263231 0
M  V30 3406 C 317.892 -1.57052 -1.14229 0
M  V30 3407 O 317.167 -0.793027 -1.77599 0
M  V30 3408 C 317.45 -3.58401 0.349344 0
M  V30 3409 C 317.303 -4.12491 1.79363 0
M  V30 3410 C 318.622 -4.39231 -0.276351 0
M  V30 3411 H 315.741 -0.730572 0.0971228 0
M  V30 3412 H 318.383 -1.66543 0.914518 0
M  V30 3413 H 316.533 -3.87958 -0.205165 0
M  V30 3414 H 318.205 -3.93711 2.40394 0
M  V30 3415 H 316.448 -3.66576 2.31958 0
M  V30 3416 H 317.119 -5.21646 1.80524 0
M  V30 3417 H 319.595 -4.15637 0.196184 0
M  V30 3418 H 318.471 -5.48586 -0.185681 0
M  V30 3419 H 318.732 -4.20643 -1.36059 0
M  V30 3420 N 317.792 -0.46758 -1.50504 0
M  V30 3421 C 318.755 0.317059 -2.26996 0
M  V30 3422 C 319.755 0.923513 -1.31635 0
M  V30 3423 O 320.945 0.793239 -1.55091 0
M  V30 3424 C 318.077 1.45134 -3.08462 0
M  V30 3425 H 319.27 -0.353723 -2.97807 0
M  V30 3426 H 316.823 -0.221545 -1.54722 0
M  V30 3427 H 317.558 2.15728 -2.4214 0
M  V30 3428 H 317.343 1.02232 -3.78538 0
M  V30 3429 H 318.833 2.00493 -3.66323 0
M  V30 3430 N 319.27 1.56325 -0.20005 0
M  V30 3431 C 320.233 2.18084 0.705132 0
M  V30 3432 C 321.233 1.13666 1.1374 0
M  V30 3433 O 322.423 1.39023 1.04968 0
M  V30 3434 C 319.555 2.78689 1.96329 0
M  V30 3435 H 320.748 2.99435 0.167023 0
M  V30 3436 H 318.301 1.56221 0.0495725 0
M  V30 3437 H 319.036 2.0115 2.5438 0
M  V30 3438 H 318.821 3.55133 1.66202 0
M  V30 3439 H 320.311 3.26096 2.60866 0
M  V30 3440 N 320.748 -0.0735177 1.57428 0
M  V30 3441 C 321.698 -1.09442 2.00016 0
M  V30 3442 C 322.682 -1.34575 0.881947 0
M  V30 3443 O 323.874 -1.34905 1.14585 0
M  V30 3444 C 321.003 -2.40865 2.4462 0
M  V30 3445 C 320.089 -2.19014 3.63172 0
M  V30 3446 N 320.48 -1.67087 4.77405 0
M  V30 3447 C 318.778 -2.49494 3.69688 0
M  V30 3448 C 319.479 -1.6001 5.5926 0
M  V30 3449 N 318.455 -2.05999 5.03056 0
M  V30 3450 H 322.257 -0.686227 2.85776 0
M  V30 3451 H 319.771 -0.280617 1.59957 0
M  V30 3452 H 321.768 -3.14763 2.73368 0
M  V30 3453 H 320.428 -2.82403 1.60246 0
M  V30 3454 H 321.439 -1.35975 4.99731 0
M  V30 3455 H 318.116 -2.94409 2.96023 0
M  V30 3456 H 319.506 -1.2073 6.60964 0
M  V30 3457 N 322.226 -1.5378 -0.344866 0
M  V30 3458 C 323.136 -1.84667 -1.4469 0
M  V30 3459 C 324.152 -0.736704 -1.57635 0
M  V30 3460 O 325.328 -1.02888 -1.73136 0
M  V30 3461 C 322.393 -2.04869 -2.79696 0
M  V30 3462 C 321.454 -3.28731 -2.76106 0
M  V30 3463 C 320.687 -3.4796 -4.04673 0
M  V30 3464 O 320.91 -2.71052 -5.01883 0
M  V30 3465 O 319.844 -4.41383 -4.09224 0
M  V30 3466 H 323.67 -2.78334 -1.21506 0
M  V30 3467 H 321.255 -1.39418 -0.536921 0
M  V30 3468 H 323.137 -2.19609 -3.59652 0
M  V30 3469 H 321.812 -1.14391 -3.02814 0
M  V30 3470 H 320.719 -3.19396 -1.94774 0
M  V30 3471 H 322.052 -4.19198 -2.57941 0
M  V30 3472 N 323.704 0.605807 -1.45491 0
M  V30 3473 C 324.634 1.72709 -1.57143 0
M  V30 3474 C 325.615 1.6476 -0.422884 0
M  V30 3475 O 326.8 1.83132 -0.646247 0
M  V30 3476 C 323.93 3.11316 -1.53948 0
M  V30 3477 C 322.884 3.34077 -2.67537 0
M  V30 3478 C 322.21 4.72975 -2.49397 0
M  V30 3479 C 323.51 3.24158 -4.09535 0
M  V30 3480 H 325.204 1.63214 -2.51001 0
M  V30 3481 H 322.75 0.78379 -1.208 0
M  V30 3482 H 324.703 3.89557 -1.60696 0
M  V30 3483 H 323.427 3.21655 -0.566205 0
M  V30 3484 H 322.086 2.58227 -2.6022 0
M  V30 3485 H 321.734 4.8005 -1.50205 0
M  V30 3486 H 321.434 4.8916 -3.25571 0
M  V30 3487 H 322.958 5.53414 -2.58002 0
M  V30 3488 H 324.372 3.92271 -4.18086 0
M  V30 3489 H 322.769 3.51872 -4.86113 0
M  V30 3490 H 323.839 2.2157 -4.31317 0
M  V30 3491 N 325.182 1.32811 0.848464 0
M  V30 3492 C 326.43 1.23479 1.59991 0
M  V30 3493 C 326.751 -0.201853 1.93952 0
M  V30 3494 O 326.021 -1.12818 1.60153 0
M  V30 3495 H 324.601 0.454034 0.593179 0
M  V30 3496 H 327.263 1.66412 1.01455 0
M  V30 3497 H 326.359 1.82178 2.53412 0
M  V30 3498 N 326.66 -1.06551 1.16123 0
M  V30 3499 C 327.61 -2.12209 0.833736 0
M  V30 3500 C 328.594 -1.59825 -0.185656 0
M  V30 3501 O 329.786 -1.76994 0.0147906 0
M  V30 3502 C 326.915 -3.41674 0.333697 0
M  V30 3503 C 326.001 -4.00892 1.38372 0
M  V30 3504 N 326.392 -4.34256 2.59337 0
M  V30 3505 C 324.69 -4.28463 1.23836 0
M  V30 3506 C 325.391 -4.81291 3.26701 0
M  V30 3507 N 324.367 -4.80565 2.54083 0
M  V30 3508 H 328.169 -2.35849 1.75364 0
M  V30 3509 H 325.683 -1.24068 1.04789 0
M  V30 3510 H 327.68 -4.16822 0.0806918 0
M  V30 3511 H 326.34 -3.19475 -0.58017 0
M  V30 3512 H 327.351 -4.24687 2.96415 0
M  V30 3513 H 324.028 -4.15721 0.38504 0
M  V30 3514 H 325.418 -5.16332 4.29943 0
M  V30 3515 N 328.138 -0.959301 -1.25041 0
M  V30 3516 C 329.363 -0.633507 -1.97488 0
M  V30 3517 C 329.788 0.788555 -1.70773 0
M  V30 3518 O 329.146 1.53394 -0.966431 0
M  V30 3519 C 329.194 -0.904057 -3.49083 0
M  V30 3520 O 328.298 0.0147939 -4.12397 0
M  V30 3521 H 327.639 -0.240368 -0.618966 0
M  V30 3522 H 330.169 -1.28717 -1.59038 0
M  V30 3523 H 330.179 -0.832203 -3.99423 0
M  V30 3524 H 328.854 -1.94048 -3.67856 0
M  V30 3525 H 327.431 -0.109664 -3.72739 0
M  V30 3526 N 329.616 1.39756 -0.72842 0
M  V30 3527 C 330.546 2.33289 -0.0991354 0
M  V30 3528 C 331.527 1.53568 0.731489 0
M  V30 3529 O 332.712 1.81987 0.677807 0
M  V30 3530 C 329.842 3.3763 0.813834 0
M  V30 3531 C 328.796 4.2791 0.0878663 0
M  V30 3532 C 328.122 5.22894 1.11741 0
M  V30 3533 C 329.422 5.11314 -1.06563 0
M  V30 3534 H 331.116 2.86163 -0.880408 0
M  V30 3535 H 328.662 1.37591 -0.424819 0
M  V30 3536 H 330.615 4.0201 1.26355 0
M  V30 3537 H 329.339 2.83181 1.62715 0
M  V30 3538 H 327.998 3.65 -0.342159 0
M  V30 3539 H 327.646 4.64744 1.92412 0
M  V30 3540 H 327.346 5.84143 0.636477 0
M  V30 3541 H 328.87 5.90151 1.56697 0
M  V30 3542 H 330.284 5.69076 -0.694671 0
M  V30 3543 H 328.681 5.81671 -1.47577 0
M  V30 3544 H 329.751 4.46534 -1.89038 0
M  V30 3545 N 331.094 0.475555 1.50254 0
M  V30 3546 C 332.342 -0.077738 2.0195 0
M  V30 3547 C 332.663 -1.39813 1.35931 0
M  V30 3548 O 331.933 -1.89249 0.506123 0
M  V30 3549 H 330.513 -0.031719 0.746326 0
M  V30 3550 H 333.175 0.626995 1.84539 0
M  V30 3551 H 332.271 -0.225995 3.11281 0
M  V30 3552 N 332.573 -1.56217 0.208337 0
M  V30 3553 C 333.503 -2.22694 -0.702116 0
M  V30 3554 C 334.484 -1.19432 -1.2112 0
M  V30 3555 O 335.669 -1.47978 -1.25762 0
M  V30 3556 C 332.799 -2.8966 -1.9161 0
M  V30 3557 C 331.753 -3.9928 -1.5414 0
M  V30 3558 C 331.079 -4.53476 -2.83308 0
M  V30 3559 C 332.379 -5.17012 -0.741339 0
M  V30 3560 H 334.073 -2.99034 -0.147898 0
M  V30 3561 H 331.619 -1.43831 -0.0696951 0
M  V30 3562 H 333.572 -3.34852 -2.55836 0
M  V30 3563 H 332.296 -2.10746 -2.49507 0
M  V30 3564 H 330.955 -3.54799 -0.922668 0
M  V30 3565 H 330.603 -3.71308 -3.39322 0
M  V30 3566 H 330.303 -5.27451 -2.58976 0
M  V30 3567 H 331.827 -5.01378 -3.485 0
M  V30 3568 H 333.241 -5.58667 -1.28699 0
M  V30 3569 H 331.638 -5.97137 -0.595627 0
M  V30 3570 H 332.708 -4.8423 0.254851 0
M  V30 3571 N 334.051 0.0651679 -1.57465 0
M  V30 3572 C 335.276 0.779605 -1.9219 0
M  V30 3573 C 335.701 1.69988 -0.805333 0
M  V30 3574 O 335.059 1.79685 0.241435 0
M  V30 3575 C 335.107 1.54364 -3.2589 0
M  V30 3576 O 334.211 2.65474 -3.1559 0
M  V30 3577 H 333.552 0.212249 -0.629163 0
M  V30 3578 H 336.082 0.0314294 -2.04576 0
M  V30 3579 H 336.092 1.92146 -3.59922 0
M  V30 3580 H 334.767 0.868457 -4.06732 0
M  V30 3581 H 333.344 2.30501 -2.93128 0
M  V30 3582 N 335.529 1.53961 0.336706 0
M  V30 3583 C 336.479 1.7881 1.41461 0
M  V30 3584 C 337.463 0.643561 1.47469 0
M  V30 3585 O 338.655 0.903166 1.52223 0
M  V30 3586 C 335.784 2.00722 2.78506 0
M  V30 3587 C 334.87 3.2126 2.76862 0
M  V30 3588 N 335.261 4.42588 2.44845 0
M  V30 3589 C 333.559 3.22568 3.08004 0
M  V30 3590 C 334.26 5.2447 2.51607 0
M  V30 3591 N 333.236 4.61344 2.87511 0
M  V30 3592 H 337.038 2.70205 1.15615 0
M  V30 3593 H 334.552 1.52978 0.545112 0
M  V30 3594 H 336.549 2.1666 3.5618 0
M  V30 3595 H 335.209 1.10573 3.05293 0
M  V30 3596 H 336.22 4.69819 2.17922 0
M  V30 3597 H 332.897 2.42409 3.39918 0
M  V30 3598 H 334.287 6.31324 2.29955 0
M  V30 3599 N 337.007 -0.598083 1.45811 0
M  V30 3600 C 338.232 -1.3881 1.54099 0
M  V30 3601 C 338.657 -1.8726 0.177578 0
M  V30 3602 O 338.015 -1.6069 -0.839541 0
M  V30 3603 C 338.063 -2.56217 2.53743 0
M  V30 3604 O 337.167 -3.5716 2.06182 0
M  V30 3605 H 336.508 -0.414024 0.519115 0
M  V30 3606 H 339.038 -0.726971 1.91249 0
M  V30 3607 H 339.048 -3.03337 2.72856 0
M  V30 3608 H 337.723 -2.20303 3.5276 0
M  V30 3609 H 336.3 -3.16624 1.96987 0
M  V30 3610 N 338.485 -1.33259 -0.841409 0
M  V30 3611 C 339.713 -1.27605 -1.62864 0
M  V30 3612 C 340.128 0.153507 -1.88175 0
M  V30 3613 O 339.485 1.09485 -1.46011 0
M  V30 3614 C 339.536 -2.04596 -2.98031 0
M  V30 3615 O 339.257 -3.41975 -2.73834 0
M  V30 3616 C 340.758 -2.06122 -3.92465 0
M  V30 3617 H 337.978 -0.439718 -0.506842 0
M  V30 3618 H 340.522 -1.75591 -1.04824 0
M  V30 3619 H 338.677 -1.60299 -3.5268 0
M  V30 3620 H 339.091 -3.81549 -3.59889 0
M  V30 3621 H 340.565 -2.64451 -4.84531 0
M  V30 3622 H 341.042 -1.05083 -4.26444 0
M  V30 3623 H 341.648 -2.50427 -3.43753 0
M  V30 3624 N 339.963 1.05934 -1.16686 0
M  V30 3625 C 341.24 1.75643 -0.860747 0
M  V30 3626 C 341.62 2.01144 0.640641 0
M  V30 3627 O 340.968 1.64147 1.58959 0
M  V30 3628 C 341.178 3.05493 -1.68745 0
M  V30 3629 C 342.526 3.79581 -1.90271 0
M  V30 3630 O 343.55 3.15344 -1.65641 0
M  V30 3631 O 342.409 4.9499 -2.31618 0
M  V30 3632 H 339.503 0.763426 -0.317977 0
M  V30 3633 H 342.049 1.1217 -1.27342 0
M  V30 3634 H 340.821 2.8264 -2.70611 0
M  V30 3635 H 340.444 3.76702 -1.27206 0
M  V30 3636 N 341.441 0.965919 1.2453 0
M  V30 3637 C 342.69 0.622437 1.91856 0
M  V30 3638 C 343.003 -0.846006 1.76358 0
M  V30 3639 O 344.209 -1.29993 2.38357 0
M  V30 3640 C 342.665 1.0626 3.43856 0
M  V30 3641 C 342.273 2.55437 3.68043 0
M  V30 3642 C 344.017 0.792183 4.17043 0
M  V30 3643 C 341.924 2.93196 5.13605 0
M  V30 3644 H 340.854 0.229092 0.718354 0
M  V30 3645 H 343.505 1.17189 1.41206 0
M  V30 3646 H 341.887 0.441476 3.93531 0
M  V30 3647 H 343.061 3.22665 3.28974 0
M  V30 3648 H 341.376 2.8007 3.08139 0
M  V30 3649 H 343.973 1.05031 5.24283 0
M  V30 3650 H 344.316 -0.271584 4.15413 0
M  V30 3651 H 344.849 1.37419 3.73311 0
M  V30 3652 H 341.588 3.98636 5.20355 0
M  V30 3653 H 341.108 2.30651 5.53679 0
M  V30 3654 H 342.787 2.83004 5.81823 0
M  V30 3655 N 342.919 -1.39368 0.735821 0
M  V30 3656 C 344.167 -2.00101 0.283562 0
M  V30 3657 C 344.488 -1.5868 -1.13338 0
M  V30 3658 O 343.758 -0.835423 -1.77193 0
M  V30 3659 H 342.338 -0.740024 0.101851 0
M  V30 3660 H 345 -1.70404 0.945962 0
M  V30 3661 H 344.096 -3.10323 0.332604 0
M  V30 3662 N 344.397 -0.483516 -1.5 0
M  V30 3663 C 345.36 0.292965 -2.2732 0
M  V30 3664 C 346.36 0.909499 -1.32608 0
M  V30 3665 O 347.55 0.776745 -1.55924 0
M  V30 3666 C 344.682 1.41854 -3.09984 0
M  V30 3667 H 345.875 -0.385289 -2.97415 0
M  V30 3668 H 343.428 -0.237942 -1.54478 0
M  V30 3669 H 344.163 2.13148 -2.44414 0
M  V30 3670 H 343.948 0.982114 -3.79601 0
M  V30 3671 H 345.438 1.96597 -3.68429 0
M  V30 3672 N 345.875 1.56104 -0.216619 0
M  V30 3673 C 346.805 2.23063 0.690296 0
M  V30 3674 C 347.786 1.20072 1.20485 0
M  V30 3675 O 348.971 1.48643 1.24976 0
M  V30 3676 C 346.101 2.90672 1.90072 0
M  V30 3677 C 345.055 4.00092 1.5202 0
M  V30 3678 C 344.381 4.54972 2.80899 0
M  V30 3679 C 345.681 5.17398 0.71391 0
M  V30 3680 H 347.375 2.99109 0.132038 0
M  V30 3681 H 344.921 1.43866 0.0620664 0
M  V30 3682 H 346.874 3.36204 2.54057 0
M  V30 3683 H 345.598 2.12066 2.48386 0
M  V30 3684 H 344.257 3.55283 0.903839 0
M  V30 3685 H 343.905 3.73102 3.37348 0
M  V30 3686 H 343.605 5.28817 2.56176 0
M  V30 3687 H 345.129 5.0322 3.45836 0
M  V30 3688 H 346.543 5.59342 1.25735 0
M  V30 3689 H 344.94 5.97444 0.563951 0
M  V30 3690 H 346.01 4.84088 -0.280527 0
M  V30 3691 N 347.353 -0.0568162 1.57498 0
M  V30 3692 C 348.286 -1.09817 2.00039 0
M  V30 3693 C 349.264 -1.3674 0.879819 0
M  V30 3694 O 350.448 -1.49863 1.14338 0
M  V30 3695 C 347.575 -2.43924 2.34986 0
M  V30 3696 C 346.621 -2.33039 3.57204 0
M  V30 3697 S 347.454 -1.7102 5.07457 0
M  V30 3698 C 348.61 -3.06674 5.45621 0
M  V30 3699 H 348.843 -0.735701 2.88053 0
M  V30 3700 H 346.376 -0.265871 1.52094 0
M  V30 3701 H 348.334 -3.2106 2.55795 0
M  V30 3702 H 346.995 -2.77327 1.47474 0
M  V30 3703 H 346.188 -3.31973 3.79223 0
M  V30 3704 H 345.79 -1.64043 3.36104 0
M  V30 3705 H 348.082 -4.03 5.44608 0
M  V30 3706 H 349.025 -2.8942 6.46252 0
M  V30 3707 H 349.433 -3.07969 4.73091 0
M  V30 3708 N 348.832 -1.54138 -0.328536 0
M  V30 3709 C 350.062 -1.75807 -1.08516 0
M  V30 3710 C 350.47 -0.50428 -1.82356 0
M  V30 3711 O 349.813 0.534451 -1.75754 0
M  V30 3712 C 349.875 -2.89423 -2.13248 0
M  V30 3713 C 349.539 -4.28504 -1.5885 0
M  V30 3714 C 350.536 -5.09536 -1.03289 0
M  V30 3715 C 348.221 -4.75034 -1.63243 0
M  V30 3716 C 350.215 -6.35206 -0.52845 0
M  V30 3717 C 347.902 -6.00672 -1.12411 0
M  V30 3718 C 348.9 -6.80592 -0.573062 0
M  V30 3719 O 348.588 -8.03867 -0.0723692 0
M  V30 3720 H 348.32 -0.590633 -0.328829 0
M  V30 3721 H 350.874 -2.01819 -0.381868 0
M  V30 3722 H 349.104 -2.5897 -2.87178 0
M  V30 3723 H 350.793 -2.98921 -2.74592 0
M  V30 3724 H 351.559 -4.74745 -0.99206 0
M  V30 3725 H 347.438 -4.12875 -2.05074 0
M  V30 3726 H 350.982 -6.97532 -0.0976774 0
M  V30 3727 H 346.879 -6.34955 -1.162 0
M  V30 3728 H 347.647 -8.18283 -0.188258 0
M  V30 3729 N 350.31 0.590341 -1.46126 0
M  V30 3730 C 351.721 1.17243 -1.45296 0
M  V30 3731 C 352.072 1.95281 -0.189723 0
M  V30 3732 O 351.197 2.04502 0.707674 0
M  V30 3733 C 351.792 2.13284 -2.6324 0
M  V30 3734 C 350.351 2.66832 -2.65476 0
M  V30 3735 C 349.498 1.42557 -2.3785 0
M  V30 3736 H 352.449 0.378692 -1.54116 0
M  V30 3737 H 352.47 2.96619 -2.38323 0
M  V30 3738 H 351.982 1.56459 -3.55165 0
M  V30 3739 H 350.083 3.27548 -1.77603 0
M  V30 3740 H 350.196 3.10088 -3.65215 0
M  V30 3741 H 348.56 1.72107 -1.87753 0
M  V30 3742 H 349.343 0.875741 -3.31942 0
M  V30 3743 N 351.788 1.33704 0.83433 0
M  V30 3744 C 353.013 1.28615 1.62705 0
M  V30 3745 C 353.438 -0.139242 1.87584 0
M  V30 3746 O 352.796 -1.09734 1.4432 0
M  V30 3747 C 352.844 2.07139 2.95171 0
M  V30 3748 O 351.948 1.4331 3.86699 0
M  V30 3749 H 351.289 0.44226 0.49528 0
M  V30 3750 H 353.819 1.76335 1.03766 0
M  V30 3751 H 353.829 2.18073 3.44831 0
M  V30 3752 H 352.504 3.10779 2.76386 0
M  V30 3753 H 351.081 1.4105 3.45195 0
M  V30 3754 N 353.266 -1.05314 1.17247 0
M  V30 3755 C 354.496 -1.81707 0.983166 0
M  V30 3756 C 354.904 -1.83222 -0.471822 0
M  V30 3757 O 354.247 -1.25721 -1.3394 0
M  V30 3758 C 354.309 -3.29134 1.44606 0
M  V30 3759 C 353.973 -3.51304 2.92292 0
M  V30 3760 C 354.97 -3.4353 3.90235 0
M  V30 3761 C 352.655 -3.78306 3.30439 0
M  V30 3762 C 354.649 -3.62442 5.24323 0
M  V30 3763 C 352.336 -3.96866 4.64694 0
M  V30 3764 C 353.334 -3.88933 5.61445 0
M  V30 3765 O 353.022 -4.06976 6.93272 0
M  V30 3766 H 352.754 -0.579476 0.348114 0
M  V30 3767 H 355.308 -1.33705 1.55924 0
M  V30 3768 H 353.538 -3.78046 0.813537 0
M  V30 3769 H 355.227 -3.87049 1.22262 0
M  V30 3770 H 355.993 -3.22648 3.62109 0
M  V30 3771 H 351.872 -3.83585 2.55702 0
M  V30 3772 H 355.416 -3.56165 5.99827 0
M  V30 3773 H 351.313 -4.1724 4.92525 0
M  V30 3774 H 352.081 -4.24209 6.99992 0
M  V30 3775 N 354.744 -0.972509 -1.24016 0
M  V30 3776 C 355.972 -0.654803 -1.96265 0
M  V30 3777 C 356.387 0.776708 -1.72083 0
M  V30 3778 O 355.744 1.52171 -1.00748 0
M  V30 3779 C 355.795 -0.92592 -3.49441 0
M  V30 3780 O 355.516 -2.30116 -3.72798 0
M  V30 3781 C 357.017 -0.623068 -4.38899 0
M  V30 3782 H 354.237 -0.243907 -0.6251 0
M  V30 3783 H 356.781 -1.30175 -1.57717 0
M  V30 3784 H 354.936 -0.325108 -3.86033 0
M  V30 3785 H 355.35 -2.38483 -4.67147 0
M  V30 3786 H 356.824 -0.863189 -5.45209 0
M  V30 3787 H 357.301 0.442754 -4.36963 0
M  V30 3788 H 357.907 -1.204 -4.07902 0
M  V30 3789 N 356.222 1.38976 -0.743202 0
M  V30 3790 C 357.469 2.00343 -0.294752 0
M  V30 3791 C 357.797 1.58983 1.12047 0
M  V30 3792 O 357.052 0.813809 1.77977 0
M  V30 3793 C 357.351 3.55647 -0.353517 0
M  V30 3794 C 357.017 4.16685 -1.72292 0
M  V30 3795 C 355.679 4.3307 -2.09771 0
M  V30 3796 C 358.031 4.50464 -2.62168 0
M  V30 3797 C 355.359 4.80526 -3.36618 0
M  V30 3798 C 357.711 4.99332 -3.88395 0
M  V30 3799 C 356.375 5.13924 -4.25956 0
M  V30 3800 H 355.645 0.733108 -0.107857 0
M  V30 3801 H 358.292 1.6618 -0.951651 0
M  V30 3802 H 356.597 3.89884 0.386954 0
M  V30 3803 H 358.294 4.00998 0.0117269 0
M  V30 3804 H 354.884 4.04339 -1.42155 0
M  V30 3805 H 359.068 4.37416 -2.3448 0
M  V30 3806 H 354.324 4.90008 -3.65653 0
M  V30 3807 H 358.498 5.2444 -4.58187 0
M  V30 3808 H 356.125 5.50457 -5.2431 0
M  V30 3809 N 357.7 0.491464 1.49741 0
M  V30 3810 C 358.925 -0.0557177 2.07325 0
M  V30 3811 C 359.35 -1.30925 1.35056 0
M  V30 3812 O 358.708 -1.76733 0.404365 0
M  V30 3813 C 358.756 -0.302074 3.59333 0
M  V30 3814 O 357.86 -1.37868 3.88672 0
M  V30 3815 H 357.201 0.0219956 0.663636 0
M  V30 3816 H 359.731 0.688352 1.92673 0
M  V30 3817 H 359.741 -0.536464 4.04458 0
M  V30 3818 H 358.416 0.61383 4.11345 0
M  V30 3819 H 356.993 -1.12999 3.55367 0
M  V30 3820 N 359.178 -1.55987 0.224894 0
M  V30 3821 C 360.426 -1.97998 -0.405099 0
M  V30 3822 C 360.747 -1.11387 -1.60056 0
M  V30 3823 O 360.017 -0.191645 -1.9496 0
M  V30 3824 H 358.597 -0.731235 -0.152658 0
M  V30 3825 H 361.259 -1.92279 0.318567 0
M  V30 3826 H 360.355 -3.03463 -0.729167 0
M  V30 3827 N 360.656 0.0484629 -1.57525 0
M  V30 3828 C 361.933 0.777447 -1.79486 0
M  V30 3829 C 362.313 1.94597 -0.818251 0
M  V30 3830 O 361.661 2.28047 0.143767 0
M  V30 3831 C 361.871 1.22864 -3.26658 0
M  V30 3832 C 363.219 1.65251 -3.91123 0
M  V30 3833 O 364.243 1.32372 -3.3069 0
M  V30 3834 O 363.102 2.26207 -4.97486 0
M  V30 3835 H 360.196 0.374357 -0.737419 0
M  V30 3836 H 362.742 0.0267359 -1.69679 0
M  V30 3837 H 361.514 0.393589 -3.89316 0
M  V30 3838 H 361.137 2.03996 -3.41279 0
M  V30 3839 N 362.134 1.5431 0.320358 0
M  V30 3840 C 363.38 1.72924 1.05949 0
M  V30 3841 C 363.713 0.503185 1.87568 0
M  V30 3842 O 362.988 -0.499839 1.87968 0
M  V30 3843 C 363.271 3.00676 1.98156 0
M  V30 3844 C 363.124 4.3354 1.19845 0
M  V30 3845 C 364.443 3.24198 2.9763 0
M  V30 3846 H 361.562 0.629195 0.383774 0
M  V30 3847 H 364.204 1.87008 0.335854 0
M  V30 3848 H 362.354 2.888 2.59859 0
M  V30 3849 H 364.026 4.57305 0.605773 0
M  V30 3850 H 362.269 4.309 0.500784 0
M  V30 3851 H 362.94 5.19156 1.87567 0
M  V30 3852 H 365.416 3.35557 2.4605 0
M  V30 3853 H 364.292 4.14938 3.59329 0
M  V30 3854 H 364.553 2.41577 3.7026 0
M  V30 3855 N 363.613 -0.582584 1.46437 0
M  V30 3856 C 364.545 -1.70618 1.53043 0
M  V30 3857 C 365.558 -1.57322 0.418769 0
M  V30 3858 O 366.747 -1.64744 0.687136 0
M  V30 3859 C 363.847 -3.08869 1.39474 0
M  V30 3860 C 363.02 -3.48166 2.64762 0
M  V30 3861 C 362.079 -4.65478 2.4539 0
M  V30 3862 O 361.105 -4.71333 3.19114 0
M  V30 3863 N 362.307 -5.60365 1.51564 0
M  V30 3864 H 365.072 -1.65405 2.49923 0
M  V30 3865 H 362.633 -0.768567 1.42494 0
M  V30 3866 H 364.625 -3.85143 1.24287 0
M  V30 3867 H 363.195 -3.08449 0.507758 0
M  V30 3868 H 362.415 -2.61598 2.9489 0
M  V30 3869 H 363.703 -3.71188 3.4799 0
M  V30 3870 H 363.101 -5.5837 0.907705 0
M  V30 3871 H 361.658 -6.36068 1.4234 0
M  V30 3872 N 365.091 -1.34144 -0.827227 0
M  V30 3873 C 366.021 -1.28005 -1.95287 0
M  V30 3874 C 367.002 -0.158321 -1.69362 0
M  V30 3875 O 368.187 -0.349987 -1.9102 0
M  V30 3876 C 365.317 -1.03036 -3.31664 0
M  V30 3877 C 364.271 -2.11628 -3.72019 0
M  V30 3878 C 363.597 -1.71854 -5.0633 0
M  V30 3879 C 364.897 -3.53417 -3.8457 0
M  V30 3880 H 366.591 -2.22187 -2.00682 0
M  V30 3881 H 364.137 -1.0696 -0.964135 0
M  V30 3882 H 366.09 -0.973863 -4.09993 0
M  V30 3883 H 364.814 -0.0529391 -3.26557 0
M  V30 3884 H 363.473 -2.16339 -2.95961 0
M  V30 3885 H 363.121 -0.727841 -4.97706 0
M  V30 3886 H 362.821 -2.44531 -5.34302 0
M  V30 3887 H 364.345 -1.67692 -5.87122 0
M  V30 3888 H 365.759 -3.51142 -4.5318 0
M  V30 3889 H 364.156 -4.24679 -4.2399 0
M  V30 3890 H 365.226 -3.91072 -2.86689 0
M  V30 3891 N 366.569 1.04691 -1.17803 0
M  V30 3892 C 367.532 2.10724 -0.901545 0
M  V30 3893 C 368.532 1.6042 0.110437 0
M  V30 3894 O 369.722 1.7377 -0.122303 0
M  V30 3895 C 366.854 3.39084 -0.351409 0
M  V30 3896 H 368.047 2.36686 -1.84174 0
M  V30 3897 H 365.6 1.21015 -0.98919 0
M  V30 3898 H 366.335 3.18782 0.59569 0
M  V30 3899 H 366.12 3.76909 -1.08083 0
M  V30 3900 H 367.61 4.17227 -0.176451 0
M  V30 3901 N 368.047 0.979072 1.23499 0
M  V30 3902 C 368.979 0.476271 2.24197 0
M  V30 3903 C 369.992 -0.421166 1.57258 0
M  V30 3904 O 371.181 -0.225515 1.7707 0
M  V30 3905 C 368.281 -0.330503 3.37285 0
M  V30 3906 C 367.454 0.559744 4.33804 0
M  V30 3907 C 366.513 -0.192954 5.25846 0
M  V30 3908 O 365.539 0.416978 5.67671 0
M  V30 3909 N 366.741 -1.47932 5.61334 0
M  V30 3910 H 369.506 1.34211 2.67969 0
M  V30 3911 H 367.067 0.852189 1.37657 0
M  V30 3912 H 369.059 -0.842361 3.95836 0
M  V30 3913 H 367.629 -1.09734 2.92707 0
M  V30 3914 H 366.849 1.25245 3.73775 0
M  V30 3915 H 368.137 1.1665 4.95248 0
M  V30 3916 H 367.535 -1.9964 5.29302 0
M  V30 3917 H 366.092 -1.93664 6.22364 0
M  V30 3918 N 369.525 -1.3858 0.750561 0
M  V30 3919 C 370.802 -1.94231 0.231009 0
M  V30 3920 C 371.182 -1.68611 -1.27018 0
M  V30 3921 O 370.53 -1.02296 -2.04323 0
M  V30 3922 C 370.74 -3.44123 0.581428 0
M  V30 3923 C 372.088 -4.2116 0.539389 0
M  V30 3924 O 373.112 -3.52391 0.519541 0
M  V30 3925 O 371.971 -5.43749 0.54765 0
M  V30 3926 H 369.065 -0.825639 0.0474263 0
M  V30 3927 H 371.611 -1.4799 0.830478 0
M  V30 3928 H 370.383 -3.56267 1.61833 0
M  V30 3929 H 370.006 -3.97573 -0.0462047 0
M  V30 3930 N 371.003 -0.499398 -1.49478 0
M  V30 3931 C 372.28 0.108629 -1.95298 0
M  V30 3932 C 372.66 1.54282 -1.44084 0
M  V30 3933 O 372.008 2.18944 -0.653908 0
M  V30 3934 C 372.218 0.0229111 -3.48992 0
M  V30 3935 C 373.566 0.197643 -4.2414 0
M  V30 3936 O 374.59 0.0981735 -3.56065 0
M  V30 3937 O 373.449 0.401669 -5.45022 0
M  V30 3938 H 370.543 0.096181 -0.821388 0
M  V30 3939 H 373.089 -0.561822 -1.6013 0
M  V30 3940 H 371.861 -0.977321 -3.78899 0
M  V30 3941 H 371.484 0.733579 -3.90774 0
M  V30 3942 N 372.481 1.55866 -0.233164 0
M  V30 3943 C 373.73 1.97779 0.39579 0
M  V30 3944 C 374.043 1.12419 1.60066 0
M  V30 3945 O 375.249 1.44283 2.29988 0
M  V30 3946 C 373.705 3.5188 0.755556 0
M  V30 3947 C 373.313 4.45959 -0.427152 0
M  V30 3948 C 375.057 4.02479 1.34946 0
M  V30 3949 C 372.964 5.91383 -0.0443043 0
M  V30 3950 H 371.894 0.738592 0.15165 0
M  V30 3951 H 374.545 1.80486 -0.331212 0
M  V30 3952 H 372.927 3.64816 1.5403 0
M  V30 3953 H 374.101 4.44776 -1.20462 0
M  V30 3954 H 372.416 4.05765 -0.935068 0
M  V30 3955 H 375.013 5.08637 1.649 0
M  V30 3956 H 375.356 3.49014 2.26925 0
M  V30 3957 H 375.889 3.92813 0.62791 0
M  V30 3958 H 372.628 6.48857 -0.930874 0
M  V30 3959 H 372.148 5.95734 0.697238 0
M  V30 3960 H 373.827 6.45893 0.378334 0
M  V30 3961 N 373.959 -0.0401083 1.57549 0
M  V30 3962 C 375.236 -0.767917 1.79896 0
M  V30 3963 C 375.616 -1.9416 0.82856 0
M  V30 3964 O 374.964 -2.2812 -0.131671 0
M  V30 3965 C 375.174 -1.2113 3.27305 0
M  V30 3966 C 376.522 -1.63175 3.91994 0
M  V30 3967 O 377.546 -1.30616 3.31388 0
M  V30 3968 O 376.405 -2.23565 4.98679 0
M  V30 3969 H 373.499 -0.370441 0.739393 0
M  V30 3970 H 376.045 -0.017737 1.69691 0
M  V30 3971 H 374.817 -0.372937 3.89519 0
M  V30 3972 H 374.44 -2.02183 3.42356 0
M  V30 3973 N 375.437 -1.54477 -0.31217 0
M  V30 3974 C 376.685 -1.72884 -1.04668 0
M  V30 3975 C 377.006 -0.511477 -1.88173 0
M  V30 3976 O 376.276 0.474407 -1.90069 0
M  V30 3977 H 374.856 -0.637461 -0.389425 0
M  V30 3978 H 377.518 -1.91807 -0.345852 0
M  V30 3979 H 376.614 -2.61334 -1.70619 0
M  V30 3980 N 376.915 0.57481 -1.46744 0
M  V30 3981 C 378.164 1.32898 -1.51727 0
M  V30 3982 C 378.477 1.948 -0.176692 0
M  V30 3983 O 379.683 2.71299 -0.104385 0
M  V30 3984 C 378.139 2.40901 -2.67385 0
M  V30 3985 C 377.747 1.85266 -4.07898 0
M  V30 3986 C 379.491 3.17609 -2.81646 0
M  V30 3987 C 377.398 2.90945 -5.14883 0
M  V30 3988 H 376.328 0.499631 -0.564699 0
M  V30 3989 H 378.979 0.612536 -1.72975 0
M  V30 3990 H 377.361 3.15379 -2.39483 0
M  V30 3991 H 378.535 1.17278 -4.45626 0
M  V30 3992 H 376.85 1.21199 -3.98371 0
M  V30 3993 H 379.447 3.96493 -3.58744 0
M  V30 3994 H 379.79 3.70696 -1.89448 0
M  V30 3995 H 380.323 2.50239 -3.09233 0
M  V30 3996 H 377.062 2.42736 -6.089 0
M  V30 3997 H 376.582 3.57398 -4.81691 0
M  V30 3998 H 378.261 3.54755 -5.41071 0
M  V30 3999 N 378.394 1.34581 0.820102 0
M  V30 4000 C 379.326 1.22236 1.93884 0
M  V30 4001 C 380.339 0.148776 1.62119 0
M  V30 4002 O 381.528 0.400877 1.7394 0
M  V30 4003 C 378.628 0.856542 3.27897 0
M  V30 4004 C 377.801 2.02569 3.87666 0
M  V30 4005 C 376.86 1.63782 5.00062 0
M  V30 4006 O 375.886 2.35477 5.18208 0
M  V30 4007 N 377.088 0.553611 5.77854 0
M  V30 4008 H 379.853 2.18615 2.05006 0
M  V30 4009 H 377.414 1.27573 0.99683 0
M  V30 4010 H 379.406 0.578806 4.0054 0
M  V30 4011 H 377.976 -0.0171518 3.12595 0
M  V30 4012 H 377.196 2.468 3.07382 0
M  V30 4013 H 378.484 2.80752 4.24329 0
M  V30 4014 H 377.882 -0.0423528 5.65684 0
M  V30 4015 H 376.439 0.335614 6.50935 0
M  V30 4016 N 379.872 -1.04064 1.18357 0
M  V30 4017 C 380.835 -2.10243 0.912707 0
M  V30 4018 C 381.835 -1.60477 -0.101928 0
M  V30 4019 O 383.025 -1.73703 0.131517 0
M  V30 4020 C 380.157 -3.38893 0.369387 0
M  V30 4021 H 381.35 -2.35706 1.85426 0
M  V30 4022 H 378.903 -1.20489 0.995594 0
M  V30 4023 H 379.638 -3.19094 -0.578776 0
M  V30 4024 H 379.423 -3.76331 1.1008 0
M  V30 4025 H 380.913 -4.17128 0.198575 0
M  V30 4026 N 381.35 -0.985608 -1.22978 0
M  V30 4027 C 382.599 -0.652881 -1.90841 0
M  V30 4028 C 382.912 0.817842 -1.77681 0
M  V30 4029 O 384.118 1.26185 -2.40395 0
M  V30 4030 C 382.574 -1.11717 -3.42122 0
M  V30 4031 C 382.182 -2.6126 -3.63933 0
M  V30 4032 C 383.926 -0.85843 -4.1573 0
M  V30 4033 C 381.833 -3.0133 -5.08876 0
M  V30 4034 H 380.763 -0.240491 -0.714619 0
M  V30 4035 H 383.414 -1.1942 -1.39324 0
M  V30 4036 H 381.796 -0.504027 -3.92779 0
M  V30 4037 H 382.97 -3.27858 -3.23799 0
M  V30 4038 H 381.285 -2.84937 -3.03644 0
M  V30 4039 H 383.882 -1.13359 -5.22546 0
M  V30 4040 H 384.225 0.205461 -4.15793 0
M  V30 4041 H 384.758 -1.43341 -3.71077 0
M  V30 4042 H 381.497 -4.06864 -5.13947 0
M  V30 4043 H 381.017 -2.3943 -5.49939 0
M  V30 4044 H 382.696 -2.92224 -5.77247 0
M  V30 4045 N 382.828 1.3818 -0.7579 0
M  V30 4046 C 384.058 2.04004 -0.326463 0
M  V30 4047 C 384.466 1.57286 1.05156 0
M  V30 4048 O 383.809 0.743144 1.67997 0
M  V30 4049 C 383.871 3.58444 -0.275402 0
M  V30 4050 C 383.535 4.28237 -1.59569 0
M  V30 4051 C 384.532 4.53312 -2.54566 0
M  V30 4052 C 382.217 4.66341 -1.86631 0
M  V30 4053 C 384.211 5.15531 -3.74842 0
M  V30 4054 C 381.898 5.28283 -3.0718 0
M  V30 4055 C 382.896 5.52814 -4.01106 0
M  V30 4056 O 382.584 6.13465 -5.19534 0
M  V30 4057 H 382.316 0.662026 -0.136739 0
M  V30 4058 H 384.87 1.7777 -1.02893 0
M  V30 4059 H 383.1 3.83667 0.483337 0
M  V30 4060 H 384.789 4.05701 0.127099 0
M  V30 4061 H 385.555 4.24299 -2.34936 0
M  V30 4062 H 381.434 4.46591 -1.14358 0
M  V30 4063 H 384.978 5.34594 -4.48168 0
M  V30 4064 H 380.875 5.56719 -3.26702 0
M  V30 4065 H 381.643 6.31951 -5.20173 0
M  V30 4066 N 384.306 0.507319 1.49211 0
M  V30 4067 C 385.554 -0.0348839 2.0207 0
M  V30 4068 C 385.875 -1.36898 1.38866 0
M  V30 4069 O 385.145 -1.88133 0.546151 0
M  V30 4070 H 383.725 -0.0158812 0.746831 0
M  V30 4071 H 386.387 0.665998 1.83168 0
M  V30 4072 H 385.483 -0.159917 3.1169 0
M  V30 4073 N 385.784 -1.5574 0.241426 0
M  V30 4074 C 387.2 -1.59196 -0.113548 0
M  V30 4075 C 387.4 -1.25852 -1.57364 0
M  V30 4076 O 386.456 -1.00322 -2.31715 0
M  V30 4077 C 387.769 -2.99814 0.230695 0
M  V30 4078 C 389.317 -3.12513 0.174547 0
M  V30 4079 C 389.792 -4.55342 0.492744 0
M  V30 4080 N 391.283 -4.61076 0.443043 0
M  V30 4081 C 392.018 -5.6956 0.662484 0
M  V30 4082 N 391.514 -6.86328 0.944761 0
M  V30 4083 N 393.307 -5.58957 0.593564 0
M  V30 4084 H 385.458 -1.75685 1.19368 0
M  V30 4085 H 387.721 -0.81756 0.479896 0
M  V30 4086 H 387.427 -3.28932 1.24485 0
M  V30 4087 H 387.301 -3.74568 -0.444833 0
M  V30 4088 H 389.688 -2.83179 -0.830277 0
M  V30 4089 H 389.769 -2.40045 0.883845 0
M  V30 4090 H 389.413 -4.85396 1.4951 0
M  V30 4091 H 389.343 -5.26062 -0.23797 0
M  V30 4092 H 391.834 -3.77179 0.233374 0
M  V30 4093 H 392.147 -7.64935 1.09977 0
M  V30 4094 H 390.492 -6.88025 0.982175 0
M  V30 4095 H 393.683 -4.66611 0.373123 0
M  V30 4096 H 393.856 -6.43433 0.767981 0
M  V30 4097 N 387.262 0.0317525 -1.57568 0
M  V30 4098 C 388.487 0.738664 -1.938 0
M  V30 4099 C 388.912 1.68242 -0.841208 0
M  V30 4100 O 388.27 1.80157 0.203267 0
M  V30 4101 C 388.318 1.47417 -3.29091 0
M  V30 4102 O 387.422 2.5872 -3.2115 0
M  V30 4103 H 386.763 0.198856 -0.633524 0
M  V30 4104 H 389.293 -0.0119713 -2.04596 0
M  V30 4105 H 389.303 1.84468 -3.63917 0
M  V30 4106 H 387.978 0.781988 -4.08482 0
M  V30 4107 H 386.555 2.24231 -2.97951 0
M  V30 4108 N 388.74 1.54641 0.303973 0
M  V30 4109 C 389.672 1.81754 1.39636 0
M  V30 4110 C 390.685 0.70035 1.46966 0
M  V30 4111 O 391.874 0.97778 1.49338 0
M  V30 4112 C 388.974 1.93785 2.7803 0
M  V30 4113 C 388.147 3.24156 2.93669 0
M  V30 4114 C 387.206 3.26641 4.12544 0
M  V30 4115 O 386.232 4.00187 4.04771 0
M  V30 4116 N 387.434 2.5182 5.23036 0
M  V30 4117 H 390.199 2.76031 1.16734 0
M  V30 4118 H 387.76 1.54178 0.494033 0
M  V30 4119 H 389.752 1.92852 3.55795 0
M  V30 4120 H 388.322 1.06515 2.93893 0
M  V30 4121 H 387.542 3.37887 2.03042 0
M  V30 4122 H 388.83 4.10195 3.01027 0
M  V30 4123 H 388.228 1.91692 5.32232 0
M  V30 4124 H 386.785 2.56644 5.99147 0
M  V30 4125 N 390.218 -0.567019 1.47046 0
M  V30 4126 C 391.166 -1.69593 1.59188 0
M  V30 4127 C 392.16 -1.63046 0.459609 0
M  V30 4128 O 393.366 -1.6835 0.637058 0
M  V30 4129 H 389.741 -0.560993 0.500791 0
M  V30 4130 H 391.712 -1.56488 2.54075 0
M  V30 4131 C 390.461 -3.07964 1.61411 0
M  V30 4132 H 389.784 -3.13679 2.47881 0
M  V30 4133 H 391.224 -3.86671 1.73958 0
M  V30 4134 C 389.683 -3.35123 0.34559 0
M  V30 4135 O 390.213 -3.97812 -0.557521 0
M  V30 4136 N 388.419 -2.89699 0.22864 0
M  V30 4137 H 387.966 -2.38863 0.964479 0
M  V30 4138 H 387.924 -3.08242 -0.619192 0
M  V30 4139 N 391.696 -1.35014 -0.812953 0
M  V30 4140 C 393.107 -1.25035 -1.38648 0
M  V30 4141 C 393.458 0.119967 -1.95833 0
M  V30 4142 O 392.583 1.02069 -1.90816 0
M  V30 4143 C 393.178 -2.26394 -2.52054 0
M  V30 4144 C 391.737 -2.20175 -3.05287 0
M  V30 4145 C 390.884 -2.12451 -1.78213 0
M  V30 4146 H 393.835 -1.46235 -0.616516 0
M  V30 4147 H 393.856 -1.88672 -3.30429 0
M  V30 4148 H 393.368 -3.26116 -2.10404 0
M  V30 4149 H 391.469 -1.23841 -3.51417 0
M  V30 4150 H 391.582 -3.11863 -3.63701 0
M  V30 4151 H 389.946 -1.58328 -1.9951 0
M  V30 4152 H 390.729 -3.14024 -1.38723 0
M  V30 4153 N 393.175 1.03435 -1.18907 0
M  V30 4154 C 394.421 1.77005 -0.989798 0
M  V30 4155 C 394.754 1.88205 0.478816 0
M  V30 4156 O 394.029 1.39481 1.35556 0
M  V30 4157 C 394.312 3.19925 -1.65287 0
M  V30 4158 C 394.165 3.1663 -3.19477 0
M  V30 4159 C 395.484 4.18189 -1.37134 0
M  V30 4160 H 392.603 0.642538 -0.360991 0
M  V30 4161 H 395.245 1.20784 -1.46667 0
M  V30 4162 H 393.395 3.67929 -1.24741 0
M  V30 4163 H 395.067 2.76567 -3.692 0
M  V30 4164 H 393.31 2.54491 -3.51307 0
M  V30 4165 H 393.981 4.1758 -3.61013 0
M  V30 4166 H 396.457 3.78761 -1.72276 0
M  V30 4167 H 395.333 5.16394 -1.86087 0
M  V30 4168 H 395.594 4.41112 -0.295424 0
M  V30 4169 N 394.653 0.992116 1.22453 0
M  V30 4170 C 395.585 0.500024 2.23679 0
M  V30 4171 C 396.598 -0.404463 1.57696 0
M  V30 4172 O 397.787 -0.206722 1.77299 0
M  V30 4173 C 394.887 -0.294711 3.37616 0
M  V30 4174 C 394.06 0.605723 4.33186 0
M  V30 4175 C 393.119 -0.13717 5.26021 0
M  V30 4176 O 392.145 0.477164 5.67196 0
M  V30 4177 N 393.347 -1.4197 5.62872 0
M  V30 4178 H 396.112 1.37045 2.66531 0
M  V30 4179 H 393.673 0.866741 1.36745 0
M  V30 4180 H 395.665 -0.800329 3.96707 0
M  V30 4181 H 394.235 -1.06623 2.93854 0
M  V30 4182 H 393.455 1.29202 3.72425 0
M  V30 4183 H 394.743 1.21896 4.93983 0
M  V30 4184 H 394.141 -1.94015 5.31389 0
M  V30 4185 H 392.698 -1.87052 6.24383 0
M  V30 4186 N 396.131 -1.37776 0.765217 0
M  V30 4187 C 397.542 -1.82521 0.392819 0
M  V30 4188 C 397.893 -1.63789 -1.08017 0
M  V30 4189 O 397.018 -1.14542 -1.83601 0
M  V30 4190 C 397.613 -3.31358 0.706214 0
M  V30 4191 C 396.172 -3.74406 0.386952 0
M  V30 4192 C 395.319 -2.60394 0.953422 0
M  V30 4193 H 398.27 -1.2634 0.960412 0
M  V30 4194 H 398.291 -3.80498 -0.0114706 0
M  V30 4195 H 397.803 -3.44959 1.77833 0
M  V30 4196 H 395.904 -3.66377 -0.678112 0
M  V30 4197 H 396.017 -4.70749 0.890636 0
M  V30 4198 H 394.381 -2.51878 0.378064 0
M  V30 4199 H 395.164 -2.76791 2.03081 0
M  V30 4200 N 397.609 -0.515225 -1.4894 0
M  V30 4201 C 398.858 0.0261361 -2.01683 0
M  V30 4202 C 399.171 1.36719 -1.39883 0
M  V30 4203 O 400.377 1.99606 -1.84037 0
M  V30 4204 C 398.833 0.0970111 -3.59769 0
M  V30 4205 C 398.441 -1.23825 -4.30548 0
M  V30 4206 C 400.185 0.587981 -4.20408 0
M  V30 4207 C 398.092 -1.12877 -5.80528 0
M  V30 4208 H 397.022 0.0135398 -0.753878 0
M  V30 4209 H 399.673 -0.656787 -1.71343 0
M  V30 4210 H 398.055 0.844694 -3.86886 0
M  V30 4211 H 399.229 -2.00034 -4.15118 0
M  V30 4212 H 397.544 -1.66379 -3.81716 0
M  V30 4213 H 400.141 0.68763 -5.3026 0
M  V30 4214 H 400.484 1.59026 -3.84729 0
M  V30 4215 H 401.017 -0.103582 -3.97665 0
M  V30 4216 H 397.756 -2.10575 -6.20756 0
M  V30 4217 H 397.276 -0.407799 -5.98412 0
M  V30 4218 H 398.955 -0.813332 -6.41868 0
M  V30 4219 N 399.087 1.5561 -0.249682 0
M  V30 4220 C 400.335 1.98618 0.373548 0
M  V30 4221 C 400.656 1.13919 1.58264 0
M  V30 4222 O 399.926 0.222637 1.94631 0
M  V30 4223 H 398.506 0.733571 0.141006 0
M  V30 4224 H 401.168 1.91748 -0.349117 0
M  V30 4225 H 400.264 3.04584 0.680796 0
M  V30 4226 N 400.565 -0.0233959 1.57583 0
M  V30 4227 C 401.976 -0.56927 1.77809 0
M  V30 4228 C 402.327 -1.75284 0.881472 0
M  V30 4229 O 401.452 -2.1626 0.0777805 0
M  V30 4230 C 402.047 -1.03949 3.22459 0
M  V30 4231 C 400.606 -1.53084 3.43864 0
M  V30 4232 C 399.753 -0.471454 2.73263 0
M  V30 4233 H 402.704 0.202825 1.57399 0
M  V30 4234 H 402.725 -1.90661 3.29285 0
M  V30 4235 H 402.237 -0.177865 3.87692 0
M  V30 4236 H 400.338 -2.41414 2.83814 0
M  V30 4237 H 400.451 -1.57443 4.52491 0
M  V30 4238 H 398.815 -0.927788 2.37201 0
M  V30 4239 H 399.598 0.380808 3.41181 0
M  V30 4240 N 402.043 -1.548 -0.295768 0
M  V30 4241 C 402.975 -1.82492 -1.3867 0
M  V30 4242 C 403.988 -0.708134 -1.46592 0
M  V30 4243 O 405.177 -0.985686 -1.48817 0
M  V30 4244 C 402.277 -1.95256 -2.76999 0
M  V30 4245 C 401.45 -3.25709 -2.91946 0
M  V30 4246 C 400.509 -3.28824 -4.10806 0
M  V30 4247 O 399.535 -4.02328 -4.02643 0
M  V30 4248 N 400.737 -2.5459 -5.21694 0
M  V30 4249 H 403.502 -2.76646 -1.15269 0
M  V30 4250 H 401.063 -1.54438 -0.485849 0
M  V30 4251 H 403.055 -1.94736 -3.54768 0
M  V30 4252 H 401.625 -1.08072 -2.93324 0
M  V30 4253 H 400.845 -3.38959 -2.01247 0
M  V30 4254 H 402.133 -4.11786 -2.98847 0
M  V30 4255 H 401.531 -1.94512 -5.31208 0
M  V30 4256 H 400.088 -2.59818 -5.97778 0
M  V30 4257 N 403.521 0.559213 -1.47345 0
M  V30 4258 C 404.749 1.34194 -1.57479 0
M  V30 4259 C 405.164 1.87463 -0.224261 0
M  V30 4260 O 404.521 1.64888 0.782185 0
M  V30 4261 C 404.572 2.51324 -2.59843 0
M  V30 4262 O 404.293 2.00256 -3.89653 0
M  V30 4263 C 405.794 3.43563 -2.80142 0
M  V30 4264 H 403.014 0.409136 -0.531835 0
M  V30 4265 H 405.558 0.677609 -1.92947 0
M  V30 4266 H 403.713 3.13699 -2.27314 0
M  V30 4267 H 404.127 2.76708 -4.4557 0
M  V30 4268 H 405.601 4.2217 -3.55635 0
M  V30 4269 H 406.078 3.9698 -1.87892 0
M  V30 4270 H 406.684 2.87005 -3.1386 0
M  V30 4271 N 404.999 1.35443 0.805782 0
M  V30 4272 C 406.41 1.25768 1.37983 0
M  V30 4273 C 406.761 -0.10958 1.95894 0
M  V30 4274 O 405.886 -1.01056 1.91355 0
M  V30 4275 C 406.481 2.27727 2.5085 0
M  V30 4276 C 405.04 2.2179 3.04115 0
M  V30 4277 C 404.187 2.13393 1.77084 0
M  V30 4278 H 407.138 1.4656 0.608752 0
M  V30 4279 H 407.159 1.90422 3.29424 0
M  V30 4280 H 406.671 3.27227 2.08671 0
M  V30 4281 H 404.772 1.25703 3.50756 0
M  V30 4282 H 404.885 3.13788 3.62042 0
M  V30 4283 H 403.249 1.59384 1.98668 0
M  V30 4284 H 404.032 3.14755 1.37056 0
M  V30 4285 N 406.477 -1.02803 1.19454 0
M  V30 4286 C 407.424 -2.11099 0.933046 0
M  V30 4287 C 408.394 -1.65571 -0.132447 0
M  V30 4288 O 409.579 -1.90797 0.00987576 0
M  V30 4289 C 406.719 -3.41763 0.478747 0
M  V30 4290 C 405.832 -4.00833 1.6111 0
M  V30 4291 C 404.967 -5.19511 1.10825 0
M  V30 4292 C 404.006 -5.70639 2.21445 0
M  V30 4293 N 403.143 -6.80589 1.72461 0
M  V30 4294 H 407.983 -2.32804 1.86028 0
M  V30 4295 H 405.52 -1.14179 0.927441 0
M  V30 4296 H 407.478 -4.16736 0.196745 0
M  V30 4297 H 406.108 -3.20166 -0.411493 0
M  V30 4298 H 405.16 -3.23066 2.00829 0
M  V30 4299 H 406.472 -4.34794 2.4445 0
M  V30 4300 H 405.626 -6.01645 0.781533 0
M  V30 4301 H 404.365 -4.87086 0.244606 0
M  V30 4302 H 403.37 -4.87116 2.54947 0
M  V30 4303 H 404.595 -6.05102 3.08267 0
M  V30 4304 H 402.541 -6.50016 0.884056 0
M  V30 4305 H 402.458 -7.13681 2.49389 0
M  V30 4306 H 403.726 -7.66317 1.42755 0
M  V30 4307 N 407.956 -0.998596 -1.21925 0
M  V30 4308 C 408.919 -0.558679 -2.22287 0
M  V30 4309 C 409.919 0.361525 -1.56683 0
M  V30 4310 O 411.109 0.152695 -1.73529 0
M  V30 4311 C 408.241 0.18661 -3.40389 0
M  V30 4312 H 409.434 -1.4463 -2.62721 0
M  V30 4313 H 406.987 -0.786413 -1.35075 0
M  V30 4314 H 407.722 1.08996 -3.05435 0
M  V30 4315 H 407.507 -0.474188 -3.89222 0
M  V30 4316 H 408.997 0.482367 -4.14805 0
M  V30 4317 N 409.434 1.37368 -0.772513 0
M  V30 4318 C 410.674 2.01512 -0.342361 0
M  V30 4319 C 411.038 1.59997 1.06136 0
M  V30 4320 O 412.239 2.16609 1.59167 0
M  V30 4321 C 410.51 3.54134 -0.482048 0
M  V30 4322 S 412.069 4.38585 -0.137272 0
M  V30 4323 H 408.887 0.698699 -0.131686 0
M  V30 4324 H 411.489 1.67552 -1.0073 0
M  V30 4325 H 410.193 3.81837 -1.50428 0
M  V30 4326 H 409.724 3.92894 0.199413 0
M  V30 4327 H 411.739 4.84594 1.06692 0
M  V30 4328 N 410.912 0.523116 1.48665 0
M  V30 4329 C 412.189 -0.0775449 1.95446 0
M  V30 4330 C 412.569 -1.5197 1.4652 0
M  V30 4331 O 411.917 -2.17876 0.688657 0
M  V30 4332 C 412.127 0.0326135 3.48985 0
M  V30 4333 C 413.475 -0.130141 4.24401 0
M  V30 4334 O 414.499 -0.0415142 3.56176 0
M  V30 4335 O 413.358 -0.31491 5.45592 0
M  V30 4336 H 410.452 -0.0831012 0.822814 0
M  V30 4337 H 412.998 0.587227 1.59216 0
M  V30 4338 H 411.77 1.03748 3.77296 0
M  V30 4339 H 411.393 -0.671317 3.91892 0
M  V30 4340 N 412.39 -1.55475 0.257931 0
M  V30 4341 C 413.615 -2.04064 -0.370488 0
M  V30 4342 C 414.04 -1.13565 -1.49948 0
M  V30 4343 O 413.398 -0.130781 -1.80828 0
M  V30 4344 C 413.446 -3.50554 -0.845237 0
M  V30 4345 O 412.55 -3.63173 -1.95394 0
M  V30 4346 H 411.891 -0.659257 -0.0792243 0
M  V30 4347 H 414.421 -2.00903 0.387212 0
M  V30 4348 H 414.431 -3.91588 -1.14555 0
M  V30 4349 H 413.106 -4.15896 -0.0191259 0
M  V30 4350 H 411.683 -3.34039 -1.65748 0
M  V30 4351 N 413.868 0.0150385 -1.57593 0
M  V30 4352 C 414.815 1.01126 -2.07466 0
M  V30 4353 C 415.785 1.35064 -0.966794 0
M  V30 4354 O 416.97 1.4516 -1.23827 0
M  V30 4355 C 414.11 2.30276 -2.57035 0
M  V30 4356 C 413.223 2.02373 -3.81666 0
M  V30 4357 C 412.358 3.25496 -4.19793 0
M  V30 4358 C 411.397 2.93211 -5.37303 0
M  V30 4359 N 410.534 4.08826 -5.70794 0
M  V30 4360 H 415.374 0.57901 -2.92321 0
M  V30 4361 H 412.911 0.27426 -1.44521 0
M  V30 4362 H 414.869 3.05757 -2.83846 0
M  V30 4363 H 413.499 2.71197 -1.75077 0
M  V30 4364 H 412.551 1.17327 -3.61854 0
M  V30 4365 H 413.863 1.74567 -4.67256 0
M  V30 4366 H 413.017 4.09333 -4.47807 0
M  V30 4367 H 411.756 3.56428 -3.32882 0
M  V30 4368 H 410.761 2.07777 -5.09027 0
M  V30 4369 H 411.986 2.63542 -6.25877 0
M  V30 4370 H 409.932 4.39682 -4.86842 0
M  V30 4371 H 409.849 3.84491 -6.50924 0
M  V30 4372 H 411.117 4.93496 -6.03392 0
M  V30 4373 N 415.346 1.54954 0.287554 0
M  V30 4374 C 416.276 1.89839 1.35954 0
M  V30 4375 C 417.257 0.758675 1.52244 0
M  V30 4376 O 418.442 1.01557 1.65529 0
M  V30 4377 C 415.572 2.15753 2.72154 0
M  V30 4378 C 414.526 3.3159 2.70614 0
M  V30 4379 C 413.852 3.42952 4.10229 0
M  V30 4380 C 415.152 4.68359 2.31165 0
M  V30 4381 H 416.846 2.79625 1.07007 0
M  V30 4382 H 414.392 1.3454 0.513316 0
M  V30 4383 H 416.345 2.38743 3.47246 0
M  V30 4384 H 415.069 1.22752 3.02654 0
M  V30 4385 H 413.728 3.08545 1.97979 0
M  V30 4386 H 413.376 2.47443 4.37928 0
M  V30 4387 H 413.076 4.20826 4.10097 0
M  V30 4388 H 414.6 3.68218 4.87081 0
M  V30 4389 H 416.014 4.9099 2.95976 0
M  V30 4390 H 414.411 5.49044 2.42221 0
M  V30 4391 H 415.481 4.68165 1.26291 0
M  V30 4392 N 416.824 -0.551391 1.4764 0
M  V30 4393 C 418.052 -1.33357 1.58189 0
M  V30 4394 C 418.467 -1.87342 0.234199 0
M  V30 4395 O 417.824 -1.65301 -0.77343 0
M  V30 4396 C 417.875 -2.49942 2.61173 0
M  V30 4397 O 417.596 -1.98187 3.90709 0
M  V30 4398 C 419.097 -3.42072 2.8196 0
M  V30 4399 H 416.317 -0.40631 0.533998 0
M  V30 4400 H 418.861 -0.667367 1.93304 0
M  V30 4401 H 417.016 -3.12489 2.28975 0
M  V30 4402 H 417.43 -2.74342 4.47031 0
M  V30 4403 H 418.904 -4.20278 3.57869 0
M  V30 4404 H 419.381 -3.95978 1.89995 0
M  V30 4405 H 419.987 -2.85336 3.15378 0
M  V30 4406 N 418.302 -1.35869 -0.798587 0
M  V30 4407 C 419.549 -1.29588 -1.55606 0
M  V30 4408 C 419.877 0.127456 -1.94082 0
M  V30 4409 O 419.132 1.09461 -1.62225 0
M  V30 4410 C 419.431 -2.1556 -2.85077 0
M  V30 4411 C 419.097 -3.6424 -2.65781 0
M  V30 4412 C 417.759 -4.04766 -2.60227 0
M  V30 4413 C 420.111 -4.58547 -2.47758 0
M  V30 4414 C 417.439 -5.37753 -2.34603 0
M  V30 4415 C 419.791 -5.91742 -2.23662 0
M  V30 4416 C 418.455 -6.31402 -2.16534 0
M  V30 4417 H 417.725 -0.474197 -0.569402 0
M  V30 4418 H 420.372 -1.67839 -0.922086 0
M  V30 4419 H 418.677 -1.70216 -3.52893 0
M  V30 4420 H 420.374 -2.08031 -3.42818 0
M  V30 4421 H 416.964 -3.32086 -2.70956 0
M  V30 4422 H 421.148 -4.28117 -2.51056 0
M  V30 4423 H 416.404 -5.67474 -2.2756 0
M  V30 4424 H 420.578 -6.6439 -2.08708 0
M  V30 4425 H 418.205 -7.34381 -1.96441 0
M  V30 4426 N 419.78 1.02168 -1.19998 0
M  V30 4427 C 421.057 1.72816 -0.916191 0
M  V30 4428 C 421.437 2.03081 0.576325 0
M  V30 4429 O 420.785 1.69122 1.53656 0
M  V30 4430 C 420.995 2.9997 -1.78378 0
M  V30 4431 C 422.343 3.73336 -2.02251 0
M  V30 4432 O 423.367 3.09914 -1.75589 0
M  V30 4433 O 422.226 4.87371 -2.47249 0
M  V30 4434 H 419.32 0.752924 -0.342103 0
M  V30 4435 H 421.866 1.08062 -1.30846 0
M  V30 4436 H 420.638 2.73888 -2.79466 0
M  V30 4437 H 420.261 3.72464 -1.39126 0
M  V30 4438 N 421.258 1.00505 1.21394 0
M  V30 4439 C 422.221 0.570459 2.21987 0
M  V30 4440 C 423.221 -0.353211 1.56873 0
M  V30 4441 O 424.411 -0.14349 1.73608 0
M  V30 4442 C 421.543 -0.168555 3.40483 0
M  V30 4443 H 422.736 1.46021 2.6195 0
M  V30 4444 H 420.289 0.793565 1.34656 0
M  V30 4445 H 421.024 -1.07374 3.06009 0
M  V30 4446 H 420.809 0.494823 3.88965 0
M  V30 4447 H 422.299 -0.460362 4.15055 0
M  V30 4448 N 422.737 -1.36956 0.779787 0
M  V30 4449 C 423.986 -1.98738 0.344405 0
M  V30 4450 C 424.299 -1.62596 -1.08728 0
M  V30 4451 O 425.505 -2.1754 -1.62445 0
M  V30 4452 C 423.961 -3.5544 0.564829 0
M  V30 4453 C 423.569 -4.00514 2.0073 0
M  V30 4454 C 425.313 -4.24059 0.193471 0
M  V30 4455 C 423.22 -5.49957 2.17489 0
M  V30 4456 H 422.15 -0.743561 0.12503 0
M  V30 4457 H 424.801 -1.56381 0.960057 0
M  V30 4458 H 423.183 -3.95817 -0.120397 0
M  V30 4459 H 424.357 -3.71362 2.72814 0
M  V30 4460 H 422.672 -3.44703 2.336 0
M  V30 4461 H 425.269 -5.33874 0.297097 0
M  V30 4462 H 425.612 -4.07378 -0.857263 0
M  V30 4463 H 426.145 -3.89012 0.831556 0
M  V30 4464 H 422.884 -5.71574 3.2091 0
M  V30 4465 H 422.404 -5.80767 1.49899 0
M  V30 4466 H 424.083 -6.16043 1.97738 0
M  V30 4467 N 424.215 -0.530993 -1.48385 0
M  V30 4468 C 425.443 -0.00134122 -2.069 0
M  V30 4469 C 425.858 1.2805 -1.3874 0
M  V30 4470 O 425.215 1.76204 -0.475244 0
M  V30 4471 C 425.266 0.225256 -3.60798 0
M  V30 4472 O 424.987 -1.0058 -4.26398 0
M  V30 4473 C 426.488 0.795172 -4.3611 0
M  V30 4474 H 423.708 -0.0339704 -0.67014 0
M  V30 4475 H 426.252 -0.736926 -1.90761 0
M  V30 4476 H 424.407 0.910891 -3.76539 0
M  V30 4477 H 424.821 -0.787165 -5.1856 0
M  V30 4478 H 426.295 0.903143 -5.44562 0
M  V30 4479 H 426.772 1.80031 -4.00606 0
M  V30 4480 H 427.378 0.146069 -4.25049 0
M  V30 4481 N 425.693 1.55336 -0.266172 0
M  V30 4482 C 426.921 2.03801 0.356756 0
M  V30 4483 C 427.336 1.14485 1.50129 0
M  V30 4484 O 426.693 0.163121 1.8177 0
M  V30 4485 C 426.744 3.51455 0.846281 0
M  V30 4486 O 426.465 4.37371 -0.252663 0
M  V30 4487 C 427.966 4.15767 1.53794 0
M  V30 4488 H 425.186 0.665906 0.0825218 0
M  V30 4489 H 427.73 2.00636 -0.39566 0
M  V30 4490 H 425.885 3.55092 1.54881 0
M  V30 4491 H 426.299 5.24358 0.122173 0
M  V30 4492 H 427.773 5.20714 1.83198 0
M  V30 4493 H 428.25 3.63404 2.46646 0
M  V30 4494 H 428.856 4.16107 0.879488 0
M  V30 4495 N 427.171 -0.0066808 1.57599 0
M  V30 4496 C 428.42 -0.692078 1.89455 0
M  V30 4497 C 428.733 -1.75306 0.867586 0
M  V30 4498 O 429.939 -2.49262 1.07614 0
M  V30 4499 C 428.395 -1.2821 3.36289 0
M  V30 4500 C 428.003 -0.256291 4.47266 0
M  V30 4501 C 429.747 -1.94608 3.77264 0
M  V30 4502 C 427.654 -0.855927 5.85173 0
M  V30 4503 H 426.584 -0.262252 0.706923 0
M  V30 4504 H 429.235 0.052769 1.83424 0
M  V30 4505 H 427.617 -2.0774 3.37135 0
M  V30 4506 H 428.791 0.513923 4.57925 0
M  V30 4507 H 427.106 0.306862 4.15268 0
M  V30 4508 H 429.703 -2.40364 4.77629 0
M  V30 4509 H 430.046 -2.77382 3.10427 0
M  V30 4510 H 430.579 -1.21822 3.78688 0
M  V30 4511 H 427.318 -0.0671161 6.55466 0
M  V30 4512 H 426.838 -1.59546 5.78191 0
M  V30 4513 H 428.517 -1.35658 6.32618 0
M  V30 4514 N 428.649 -1.55105 -0.279332 0
M  V30 4515 C 430.065 -1.46803 -0.626187 0
M  V30 4516 C 430.265 -0.676939 -1.89789 0
M  V30 4517 O 429.321 -0.19326 -2.51759 0
M  V30 4518 C 430.634 -2.90962 -0.759034 0
M  V30 4519 C 432.182 -3.01138 -0.853504 0
M  V30 4520 C 432.657 -4.46539 -1.01818 0
M  V30 4521 N 434.148 -4.50341 -1.08386 0
M  V30 4522 C 434.883 -5.60053 -1.22996 0
M  V30 4523 N 434.379 -6.79645 -1.34366 0
M  V30 4524 N 436.172 -5.47783 -1.26056 0
M  V30 4525 H 428.323 -2.04996 0.555921 0
M  V30 4526 H 430.586 -0.929325 0.187239 0
M  V30 4527 H 430.292 -3.51544 0.104852 0
M  V30 4528 H 430.166 -3.39619 -1.64131 0
M  V30 4529 H 432.553 -2.40658 -1.70786 0
M  V30 4530 H 432.634 -2.55745 0.0532466 0
M  V30 4531 H 432.278 -5.0762 -0.168504 0
M  V30 4532 H 432.208 -4.89583 -1.93948 0
M  V30 4533 H 434.699 -3.64191 -1.00864 0
M  V30 4534 H 435.012 -7.59012 -1.4533 0
M  V30 4535 H 433.357 -6.82469 -1.31382 0
M  V30 4536 H 436.548 -4.53294 -1.168 0
M  V30 4537 H 436.721 -6.33331 -1.37098 0
M  V30 4538 N 430.127 0.543554 -1.4793 0
M  V30 4539 C 431.375 1.29752 -1.54948 0
M  V30 4540 C 431.696 1.93764 -0.219242 0
M  V30 4541 O 430.966 1.80639 0.75805 0
M  V30 4542 H 429.546 0.481874 -0.570795 0
M  V30 4543 H 432.208 0.633636 -1.84312 0
M  V30 4544 H 431.304 2.08392 -2.32334 0
M  V30 4545 N 431.605 1.3629 0.791371 0
M  V30 4546 C 432.515 1.32606 1.93527 0
M  V30 4547 C 433.531 0.228541 1.72493 0
M  V30 4548 O 434.707 0.460571 1.96063 0
M  V30 4549 C 431.772 1.11271 3.28359 0
M  V30 4550 C 430.833 2.3048 3.62185 0
M  V30 4551 C 430.066 2.10154 4.90583 0
M  V30 4552 O 430.289 1.07572 5.60165 0
M  V30 4553 O 429.223 2.97884 5.23019 0
M  V30 4554 H 433.049 2.28909 1.99585 0
M  V30 4555 H 430.634 1.16818 0.931344 0
M  V30 4556 H 432.516 1.01283 4.09047 0
M  V30 4557 H 431.191 0.180292 3.23198 0
M  V30 4558 H 430.098 2.46036 2.81811 0
M  V30 4559 H 431.431 3.22221 3.72068 0
M  V30 4560 N 433.083 -1.0153 1.20538 0
M  V30 4561 C 434.329 -1.75408 1.01783 0
M  V30 4562 C 434.662 -1.88943 -0.448814 0
M  V30 4563 O 433.937 -1.4162 -1.33319 0
M  V30 4564 C 434.22 -3.17255 1.70356 0
M  V30 4565 C 434.073 -3.11508 3.24473 0
M  V30 4566 C 435.392 -4.15955 1.43769 0
M  V30 4567 H 432.511 -0.636713 0.371167 0
M  V30 4568 H 435.153 -1.18436 1.4857 0
M  V30 4569 H 433.303 -3.65898 1.30578 0
M  V30 4570 H 434.975 -2.70658 3.73553 0
M  V30 4571 H 433.218 -2.4887 3.55311 0
M  V30 4572 H 433.889 -4.11784 3.67611 0
M  V30 4573 H 436.365 -3.75973 1.7828 0
M  V30 4574 H 435.241 -5.13368 1.94279 0
M  V30 4575 H 435.502 -4.40586 0.365564 0
M  V30 4576 N 434.561 -1.01147 -1.20859 0
M  V30 4577 C 435.494 -0.522108 -2.22147 0
M  V30 4578 C 436.472 0.427686 -1.56874 0
M  V30 4579 O 437.656 0.34889 -1.85243 0
M  V30 4580 C 434.783 0.240819 -3.37843 0
M  V30 4581 C 433.829 -0.657752 -4.21398 0
M  V30 4582 S 434.662 -2.12393 -4.91578 0
M  V30 4583 C 435.818 -1.37102 -6.10699 0
M  V30 4584 H 436.051 -1.38035 -2.63313 0
M  V30 4585 H 433.584 -0.819941 -1.30829 0
M  V30 4586 H 435.542 0.674908 -4.04914 0
M  V30 4587 H 434.203 1.07457 -2.95147 0
M  V30 4588 H 433.396 -0.0697456 -5.03952 0
M  V30 4589 H 432.998 -1.0294 -3.59555 0
M  V30 4590 H 435.29 -0.648315 -6.74391 0
M  V30 4591 H 436.233 -2.17252 -6.73949 0
M  V30 4592 H 436.641 -0.876154 -5.57659 0
M  V30 4593 N 436.039 1.36541 -0.78704 0
M  V30 4594 C 437.286 1.99304 -0.358341 0
M  V30 4595 C 437.614 1.62467 1.06933 0
M  V30 4596 O 436.869 0.870019 1.75297 0
M  V30 4597 C 437.168 3.54343 -0.466485 0
M  V30 4598 C 436.834 4.10993 -1.85461 0
M  V30 4599 C 435.496 4.26177 -2.23443 0
M  V30 4600 C 437.848 4.41895 -2.76366 0
M  V30 4601 C 435.176 4.69573 -3.51736 0
M  V30 4602 C 437.528 4.86722 -4.04084 0
M  V30 4603 C 436.192 5.00112 -4.42091 0
M  V30 4604 H 435.462 0.729306 -0.131126 0
M  V30 4605 H 438.109 1.63068 -1.00404 0
M  V30 4606 H 436.414 3.90918 0.262719 0
M  V30 4607 H 438.111 4.00833 -0.115854 0
M  V30 4608 H 434.701 3.99612 -1.54946 0
M  V30 4609 H 438.885 4.29735 -2.48277 0
M  V30 4610 H 434.141 4.78127 -3.81057 0
M  V30 4611 H 438.315 5.09598 -4.7464 0
M  V30 4612 H 435.942 5.33498 -5.41557 0
M  V30 4613 N 437.518 0.538854 1.48102 0
M  V30 4614 C 438.765 0.0080018 2.02498 0
M  V30 4615 C 439.093 -1.33437 1.41509 0
M  V30 4616 O 438.348 -1.87709 0.553507 0
M  V30 4617 C 438.647 -0.153808 3.57069 0
M  V30 4618 C 438.313 1.11533 4.36888 0
M  V30 4619 C 436.975 1.46314 4.58417 0
M  V30 4620 C 439.327 1.95718 4.83057 0
M  V30 4621 C 436.655 2.6516 5.23361 0
M  V30 4622 C 439.007 3.13751 5.49312 0
M  V30 4623 C 437.671 3.48866 5.69077 0
M  V30 4624 H 436.941 0.00292807 0.740994 0
M  V30 4625 H 439.588 0.706668 1.77984 0
M  V30 4626 H 437.893 -0.935309 3.80472 0
M  V30 4627 H 439.59 -0.579607 3.96789 0
M  V30 4628 H 436.18 0.834484 4.20398 0
M  V30 4629 H 440.364 1.70158 4.66219 0
M  V30 4630 H 435.62 2.92558 5.36861 0
M  V30 4631 H 439.794 3.79282 5.84053 0
M  V30 4632 H 437.421 4.41054 6.19173 0
M  V30 4633 N 438.996 -1.55193 0.274407 0
M  V30 4634 C 439.943 -2.225 -0.613374 0
M  V30 4635 C 440.913 -1.19823 -1.15029 0
M  V30 4636 O 442.098 -1.48362 -1.19973 0
M  V30 4637 C 439.238 -2.94927 -1.79199 0
M  V30 4638 C 438.351 -4.12322 -1.28899 0
M  V30 4639 C 437.486 -4.72394 -2.42934 0
M  V30 4640 C 436.525 -5.81984 -1.89634 0
M  V30 4641 N 435.662 -6.36123 -2.9714 0
M  V30 4642 H 440.502 -2.97982 -0.032756 0
M  V30 4643 H 438.039 -1.47099 -0.00440146 0
M  V30 4644 H 439.997 -3.35134 -2.48478 0
M  V30 4645 H 438.627 -2.2187 -2.34465 0
M  V30 4646 H 437.679 -3.7724 -0.489327 0
M  V30 4647 H 438.991 -4.91355 -0.858587 0
M  V30 4648 H 438.145 -5.15317 -3.20208 0
M  V30 4649 H 436.884 -3.92636 -2.8929 0
M  V30 4650 H 435.889 -5.38511 -1.1084 0
M  V30 4651 H 437.114 -6.6361 -1.44215 0
M  V30 4652 H 435.06 -5.59259 -3.42878 0
M  V30 4653 H 434.977 -7.10427 -2.58515 0
M  V30 4654 H 436.245 -6.83704 -3.74391 0
M  V30 4655 N 440.474 -0.00167713 -1.576 0
M  V30 4656 C 441.751 0.719951 -1.81868 0
M  V30 4657 C 442.131 1.91895 -0.879747 0
M  V30 4658 O 441.479 2.28389 0.0711423 0
M  V30 4659 C 441.689 1.12409 -3.30402 0
M  V30 4660 C 443.037 1.52724 -3.96182 0
M  V30 4661 O 444.061 1.21784 -3.34734 0
M  V30 4662 O 442.92 2.10265 -5.04431 0
M  V30 4663 H 440.014 0.350707 -0.748955 0
M  V30 4664 H 442.56 -0.0272597 -1.69678 0
M  V30 4665 H 441.332 0.269532 -3.90371 0
M  V30 4666 H 440.955 1.93035 -3.47596 0
M  V30 4667 N 441.952 1.55251 0.271103 0
M  V30 4668 C 443.368 1.47133 0.618393 0
M  V30 4669 C 443.568 0.686994 1.89427 0
M  V30 4670 O 442.624 0.206609 2.51653 0
M  V30 4671 C 443.937 2.91361 0.743593 0
M  V30 4672 C 445.485 3.01587 0.837522 0
M  V30 4673 C 445.96 4.47073 0.994483 0
M  V30 4674 N 447.451 4.50909 1.05996 0
M  V30 4675 C 448.186 5.60698 1.20024 0
M  V30 4676 N 447.682 6.80348 1.30759 0
M  V30 4677 N 449.475 5.48444 1.23149 0
M  V30 4678 H 441.626 2.04698 -0.566784 0
M  V30 4679 H 443.889 0.928319 -0.192165 0
M  V30 4680 H 443.595 3.51483 -0.123493 0
M  V30 4681 H 443.469 3.40484 1.62328 0
M  V30 4682 H 445.856 2.4156 1.69507 0
M  V30 4683 H 445.937 2.55713 -0.0668086 0
M  V30 4684 H 445.581 5.07703 0.141582 0
M  V30 4685 H 445.511 4.90605 1.91349 0
M  V30 4686 H 448.002 3.6472 0.989316 0
M  V30 4687 H 448.315 7.59772 1.41303 0
M  V30 4688 H 446.66 6.83156 1.27761 0
M  V30 4689 H 449.851 4.53907 1.14394 0
M  V30 4690 H 450.024 6.34049 1.33738 0
M  V30 4691 N 443.43 -0.535701 1.48216 0
M  V30 4692 C 444.677 -1.29183 1.55942 0
M  V30 4693 C 445.005 -1.93125 0.230857 0
M  V30 4694 O 444.26 -1.79556 -0.778331 0
M  V30 4695 C 444.559 -2.4068 2.64212 0
M  V30 4696 C 444.225 -1.94428 4.06827 0
M  V30 4697 C 442.887 -1.81532 4.45645 0
M  V30 4698 C 445.239 -1.59405 4.96225 0
M  V30 4699 C 442.567 -1.31939 5.71672 0
M  V30 4700 C 444.919 -1.11276 6.22736 0
M  V30 4701 C 443.583 -0.969924 6.60416 0
M  V30 4702 H 442.853 -0.472715 0.570632 0
M  V30 4703 H 445.5 -0.598437 1.81909 0
M  V30 4704 H 443.805 -3.15666 2.32083 0
M  V30 4705 H 445.502 -2.98822 2.67407 0
M  V30 4706 H 442.092 -2.05415 3.76168 0
M  V30 4707 H 446.276 -1.68231 4.66917 0
M  V30 4708 H 441.532 -1.19562 5.99596 0
M  V30 4709 H 445.706 -0.832453 6.91407 0
M  V30 4710 H 443.333 -0.583436 7.57958 0
M  V30 4711 N 444.908 -1.36708 -0.784132 0
M  V30 4712 C 446.138 -1.34203 -1.57077 0
M  V30 4713 C 446.546 0.0774945 -1.89041 0
M  V30 4714 O 445.889 1.04628 -1.50992 0
M  V30 4715 C 445.951 -2.10351 -2.91535 0
M  V30 4716 C 445.615 -3.59405 -2.82272 0
M  V30 4717 C 446.612 -4.53545 -2.54151 0
M  V30 4718 C 444.297 -4.02362 -3.00683 0
M  V30 4719 C 446.291 -5.8862 -2.44551 0
M  V30 4720 C 443.978 -5.37526 -2.90704 0
M  V30 4721 C 444.976 -6.30468 -2.62677 0
M  V30 4722 O 444.664 -7.63149 -2.52702 0
M  V30 4723 H 444.396 -0.461791 -0.493685 0
M  V30 4724 H 446.95 -1.80475 -0.980712 0
M  V30 4725 H 445.18 -1.5875 -3.52612 0
M  V30 4726 H 446.869 -2.00636 -3.52845 0
M  V30 4727 H 447.635 -4.21669 -2.39625 0
M  V30 4728 H 443.514 -3.30389 -3.21503 0
M  V30 4729 H 447.058 -6.61133 -2.22596 0
M  V30 4730 H 442.955 -5.69008 -3.04795 0
M  V30 4731 H 443.723 -7.73331 -2.68144 0
M  V30 4732 N 446.386 1.0089 -1.21074 0
M  V30 4733 C 447.319 2.09279 -0.909806 0
M  V30 4734 C 448.297 1.61986 0.141145 0
M  V30 4735 O 449.481 1.88495 0.0130332 0
M  V30 4736 C 446.608 3.36723 -0.365374 0
M  V30 4737 C 445.654 4.02919 -1.39852 0
M  V30 4738 S 446.487 4.45835 -2.96633 0
M  V30 4739 C 447.643 5.76471 -2.43786 0
M  V30 4740 H 447.876 2.34484 -1.82769 0
M  V30 4741 H 445.409 1.14115 -1.04006 0
M  V30 4742 H 447.367 4.10459 -0.0578203 0
M  V30 4743 H 446.028 3.09577 0.531136 0
M  V30 4744 H 445.221 4.94634 -0.967117 0
M  V30 4745 H 444.823 3.35441 -1.65395 0
M  V30 4746 H 447.115 6.52027 -1.84029 0
M  V30 4747 H 448.058 6.24418 -3.33928 0
M  V30 4748 H 448.466 5.33104 -1.85636 0
M  V30 4749 N 447.864 1.01787 1.20321 0
M  V30 4750 C 449.28 0.732951 1.41774 0
M  V30 4751 C 449.48 -0.686883 1.89431 0
M  V30 4752 O 448.536 -1.45446 2.06402 0
M  V30 4753 C 449.849 1.75973 2.43832 0
M  V30 4754 C 451.397 1.77802 2.57596 0
M  V30 4755 C 451.872 2.7941 3.62897 0
M  V30 4756 N 453.363 2.78157 3.70382 0
M  V30 4757 C 454.098 3.53434 4.51521 0
M  V30 4758 N 453.594 4.38392 5.36455 0
M  V30 4759 N 455.387 3.42026 4.46066 0
M  V30 4760 H 447.538 1.93447 0.877035 0
M  V30 4761 H 449.801 0.835712 0.447536 0
M  V30 4762 H 449.507 2.77699 2.15815 0
M  V30 4763 H 449.381 1.57292 3.4284 0
M  V30 4764 H 451.768 0.767602 2.84942 0
M  V30 4765 H 451.849 2.00557 1.58779 0
M  V30 4766 H 451.493 3.80616 3.36295 0
M  V30 4767 H 451.423 2.53916 4.61339 0
M  V30 4768 H 453.914 2.16531 3.09714 0
M  V30 4769 H 454.227 4.92596 5.95457 0
M  V30 4770 H 452.572 4.4247 5.35953 0
M  V30 4771 H 455.763 2.75075 3.78749 0
M  V30 4772 H 455.936 4.00946 5.09064 0
M  V30 4773 N 449.342 -1.36122 0.79427 0
M  V30 4774 C 450.57 -2.03362 0.380989 0
M  V30 4775 C 450.985 -1.59881 -1.00416 0
M  V30 4776 O 450.342 -0.790515 -1.6449 0
M  V30 4777 C 450.393 -3.58804 0.440649 0
M  V30 4778 O 450.114 -4.007 1.77118 0
M  V30 4779 C 451.615 -4.43296 0.0186117 0
M  V30 4780 H 448.835 -0.652526 0.156367 0
M  V30 4781 H 451.379 -1.73998 1.07447 0
M  V30 4782 H 449.534 -3.8686 -0.204458 0
M  V30 4783 H 449.948 -4.95309 1.72538 0
M  V30 4784 H 451.422 -5.51887 0.111488 0
M  V30 4785 H 451.899 -4.2684 -1.03461 0
M  V30 4786 H 452.505 -4.20512 0.636395 0
M  V30 4787 N 450.82 -0.546701 -1.47814 0
M  V30 4788 C 451.768 0.220048 -2.31557 0
M  V30 4789 C 452.762 0.919472 -1.42275 0
M  V30 4790 O 453.968 0.841953 -1.59095 0
M  V30 4791 H 450.343 0.0898334 -0.746615 0
M  V30 4792 H 452.314 -0.505589 -2.94086 0
M  V30 4793 C 451.063 1.24353 -3.24702 0
M  V30 4794 H 450.386 0.714758 -3.93359 0
M  V30 4795 H 451.826 1.75112 -3.8615 0
M  V30 4796 C 450.285 2.28593 -2.47481 0
M  V30 4797 O 450.815 3.35334 -2.21165 0
M  V30 4798 N 449.021 2.02244 -2.08676 0
M  V30 4799 H 448.568 1.15455 -2.30278 0
M  V30 4800 H 448.526 2.72207 -1.57323 0
M  V30 4801 N 452.299 1.55045 -0.282633 0
M  V30 4802 C 453.71 1.85473 0.213655 0
M  V30 4803 C 454.061 1.20465 1.54863 0
M  V30 4804 O 453.186 0.495676 2.10647 0
M  V30 4805 C 453.781 3.36496 0.394445 0
M  V30 4806 C 452.34 3.67022 0.834961 0
M  V30 4807 C 451.487 2.77218 -0.0674081 0
M  V30 4808 H 454.438 1.50478 -0.504202 0
M  V30 4809 H 454.459 3.60007 1.23186 0
M  V30 4810 H 453.971 3.83782 -0.577326 0
M  V30 4811 H 452.072 3.25241 1.81794 0
M  V30 4812 H 452.185 4.74433 0.667075 0
M  V30 4813 H 450.549 2.5069 0.450196 0
M  V30 4814 H 451.332 3.2732 -1.0352 0
M  V30 4815 N 453.777 0.010035 1.57597 0
M  V30 4816 C 455.024 -0.6727 1.91 0
M  V30 4817 C 455.352 -1.73219 0.884614 0
M  V30 4818 O 454.607 -1.95395 -0.109215 0
M  V30 4819 C 454.906 -1.34434 3.31153 0
M  V30 4820 C 454.572 -0.417083 4.48967 0
M  V30 4821 C 453.234 -0.161809 4.80928 0
M  V30 4822 C 455.586 0.220753 5.20732 0
M  V30 4823 C 452.914 0.739426 5.82022 0
M  V30 4824 C 455.266 1.10993 6.22787 0
M  V30 4825 C 453.93 1.37428 6.532 0
M  V30 4826 H 453.2 -0.246158 0.698918 0
M  V30 4827 H 455.847 0.0677145 1.9138 0
M  V30 4828 H 454.152 -2.15905 3.26944 0
M  V30 4829 H 455.849 -1.87883 3.54261 0
M  V30 4830 H 452.439 -0.626217 4.24001 0
M  V30 4831 H 456.623 0.0365643 4.96287 0
M  V30 4832 H 451.879 0.952139 6.03941 0
M  V30 4833 H 456.053 1.61046 6.77523 0
M  V30 4834 H 453.68 2.0743 7.31353 0
M  V30 4835 N 455.255 -1.55392 -0.262866 0
M  V30 4836 C 456.485 -1.80251 -1.00961 0
M  V30 4837 C 456.893 -0.58117 -1.80053 0
M  V30 4838 O 456.236 0.459427 -1.77862 0
M  V30 4839 C 456.298 -2.98207 -2.00781 0
M  V30 4840 C 455.962 -4.34856 -1.40533 0
M  V30 4841 C 456.959 -5.13459 -0.815853 0
M  V30 4842 C 454.644 -4.8153 -1.42948 0
M  V30 4843 C 456.638 -6.36875 -0.258562 0
M  V30 4844 C 454.325 -6.04899 -0.868334 0
M  V30 4845 C 455.323 -6.8241 -0.283884 0
M  V30 4846 O 455.011 -8.03451 0.268644 0
M  V30 4847 H 454.743 -0.604049 -0.303482 0
M  V30 4848 H 457.297 -2.03257 -0.295926 0
M  V30 4849 H 455.527 -2.70917 -2.75936 0
M  V30 4850 H 457.216 -3.10299 -2.61667 0
M  V30 4851 H 457.982 -4.78526 -0.789812 0
M  V30 4852 H 453.861 -4.21201 -1.87378 0
M  V30 4853 H 457.405 -6.97318 0.198257 0
M  V30 4854 H 453.302 -6.39312 -0.891649 0
M  V30 4855 H 454.07 -8.18346 0.158974 0
M  V30 4856 N 456.733 0.527833 -1.48498 0
M  V30 4857 C 458.144 1.10975 -1.50138 0
M  V30 4858 C 458.495 1.943 -0.272378 0
M  V30 4859 O 457.62 2.07319 0.620301 0
M  V30 4860 C 458.215 2.01927 -2.72049 0
M  V30 4861 C 456.774 2.55332 -2.76554 0
M  V30 4862 C 455.921 1.32341 -2.43683 0
M  V30 4863 H 458.872 0.312986 -1.55583 0
M  V30 4864 H 458.893 2.86244 -2.50689 0
M  V30 4865 H 458.405 1.41254 -3.61481 0
M  V30 4866 H 456.506 3.19721 -1.91336 0
M  V30 4867 H 456.619 2.94319 -3.78038 0
M  V30 4868 H 454.983 1.63989 -1.94884 0
M  V30 4869 H 455.766 0.734165 -3.35358 0
M  V30 4870 N 458.211 1.37122 0.776871 0
M  V30 4871 C 459.121 1.34651 1.9211 0
M  V30 4872 C 460.137 0.246824 1.7224 0
M  V30 4873 O 461.313 0.48134 1.95563 0
M  V30 4874 C 458.378 1.14748 3.2716 0
M  V30 4875 C 457.439 2.34308 3.5972 0
M  V30 4876 C 456.672 2.15345 4.88326 0
M  V30 4877 O 456.895 1.13507 5.58992 0
M  V30 4878 O 455.829 3.03414 5.1983 0
M  V30 4879 H 459.655 2.31013 1.97146 0
M  V30 4880 H 457.24 1.17799 0.918901 0
M  V30 4881 H 459.122 1.05616 4.0795 0
M  V30 4882 H 457.797 0.214562 3.22988 0
M  V30 4883 H 456.704 2.49011 2.79185 0
M  V30 4884 H 458.037 3.26149 3.68629 0
M  V30 4885 N 459.689 -1.00246 1.21608 0
M  V30 4886 C 460.935 -1.74319 1.03638 0
M  V30 4887 C 461.268 -1.89408 -0.428749 0
M  V30 4888 O 460.543 -1.43026 -1.3181 0
M  V30 4889 C 460.826 -3.15431 1.73711 0
M  V30 4890 C 460.679 -3.08049 3.27759 0
M  V30 4891 C 461.998 -4.14407 1.48173 0
M  V30 4892 H 459.117 -0.632741 0.377899 0
M  V30 4893 H 461.759 -1.16853 1.49818 0
M  V30 4894 H 459.909 -3.64493 1.34452 0
M  V30 4895 H 461.581 -2.66681 3.76403 0
M  V30 4896 H 459.824 -2.45088 3.57931 0
M  V30 4897 H 460.495 -4.07862 3.71958 0
M  V30 4898 H 462.971 -3.74061 1.82258 0
M  V30 4899 H 461.847 -5.11279 1.99713 0
M  V30 4900 H 462.108 -4.40174 0.412273 0
M  V30 4901 N 461.167 -1.02423 -1.1978 0
M  V30 4902 C 462.077 -0.610919 -2.26506 0
M  V30 4903 C 463.093 0.355152 -1.70337 0
M  V30 4904 O 464.269 0.214195 -2.00258 0
M  V30 4905 C 461.334 0.0365921 -3.46681 0
M  V30 4906 C 460.395 -0.976389 -4.18049 0
M  V30 4907 C 459.628 -0.359683 -5.32487 0
M  V30 4908 O 459.851 0.838601 -5.64202 0
M  V30 4909 O 458.785 -1.08022 -5.92127 0
M  V30 4910 H 462.611 -1.49965 -2.64091 0
M  V30 4911 H 460.196 -0.794156 -1.26545 0
M  V30 4912 H 462.078 0.39786 -4.19518 0
M  V30 4913 H 460.753 0.899398 -3.10954 0
M  V30 4914 H 459.66 -1.38916 -3.47352 0
M  V30 4915 H 460.993 -1.80941 -4.57735 0
M  V30 4916 N 462.645 1.35699 -0.801477 0
M  V30 4917 C 463.575 2.32436 -0.222658 0
M  V30 4918 C 464.556 1.5723 0.649057 0
M  V30 4919 O 465.741 1.85324 0.580387 0
M  V30 4920 C 462.871 3.41469 0.633719 0
M  V30 4921 C 461.825 4.27774 -0.139083 0
M  V30 4922 C 461.151 5.28082 0.838666 0
M  V30 4923 C 462.451 5.04946 -1.33517 0
M  V30 4924 H 464.145 2.81094 -1.03086 0
M  V30 4925 H 461.691 1.35146 -0.497155 0
M  V30 4926 H 463.644 4.08143 1.04868 0
M  V30 4927 H 462.368 2.91408 1.47475 0
M  V30 4928 H 461.027 3.62673 -0.535156 0
M  V30 4929 H 460.675 4.7429 1.67506 0
M  V30 4930 H 460.375 5.86695 0.32594 0
M  V30 4931 H 461.899 5.97628 1.25194 0
M  V30 4932 H 463.313 5.64593 -0.995349 0
M  V30 4933 H 461.71 5.7303 -1.78202 0
M  V30 4934 H 462.78 4.35886 -2.12442 0
M  V30 4935 N 464.123 0.554532 1.47522 0
M  V30 4936 C 465.071 -0.207765 2.3167 0
M  V30 4937 C 466.065 -0.911914 1.4276 0
M  V30 4938 O 467.271 -0.833504 1.59539 0
M  V30 4939 H 463.646 -0.0858726 0.747081 0
M  V30 4940 H 465.617 0.521178 2.93813 0
M  V30 4941 C 464.366 -1.2263 3.25357 0
M  V30 4942 H 463.689 -0.693887 3.93732 0
M  V30 4943 H 465.129 -1.73062 3.87073 0
M  V30 4944 C 463.588 -2.27278 2.4869 0
M  V30 4945 O 464.118 -3.34156 2.22941 0
M  V30 4946 N 462.324 -2.01134 2.09746 0
M  V30 4947 H 461.871 -1.14232 2.30887 0
M  V30 4948 H 461.829 -2.71369 1.58765 0
M  V30 4949 N 465.601 -1.54893 0.290851 0
M  V30 4950 C 466.848 -1.99933 -0.321391 0
M  V30 4951 C 467.176 -1.17927 -1.54672 0
M  V30 4952 O 466.431 -0.240902 -1.94212 0
M  V30 4953 C 466.73 -3.49815 -0.732397 0
M  V30 4954 C 466.396 -4.4921 0.390056 0
M  V30 4955 C 465.058 -4.76107 0.698223 0
M  V30 4956 C 467.41 -5.08453 1.14562 0
M  V30 4957 C 464.738 -5.59514 1.76526 0
M  V30 4958 C 467.09 -5.9302 2.2025 0
M  V30 4959 C 465.754 -6.18232 2.51684 0
M  V30 4960 H 465.024 -0.731608 -0.117605 0
M  V30 4961 H 467.671 -1.87107 0.407839 0
M  V30 4962 H 465.976 -3.60199 -1.54155 0
M  V30 4963 H 467.673 -3.82083 -1.21712 0
M  V30 4964 H 464.263 -4.28372 0.13976 0
M  V30 4965 H 468.447 -4.87683 0.920801 0
M  V30 4966 H 463.703 -5.77289 2.01364 0
M  V30 4967 H 467.877 -6.37955 2.7926 0
M  V30 4968 H 465.504 -6.82653 3.34499 0
M  V30 4969 N 467.08 -0.0183926 -1.57589 0
M  V30 4970 C 468.329 0.66185 -1.90532 0
M  V30 4971 C 468.642 1.73904 -0.895366 0
M  V30 4972 O 469.848 2.47518 -1.11566 0
M  V30 4973 C 468.304 1.22844 -3.38286 0
M  V30 4974 C 467.912 0.185103 -4.47617 0
M  V30 4975 C 469.656 1.88581 -3.80312 0
M  V30 4976 C 467.563 0.762723 -5.86461 0
M  V30 4977 H 466.493 0.250972 -0.711006 0
M  V30 4978 H 469.144 -0.0819435 -1.83317 0
M  V30 4979 H 467.526 2.0235 -3.40398 0
M  V30 4980 H 468.7 -0.58671 -4.5705 0
M  V30 4981 H 467.015 -0.372889 -4.14727 0
M  V30 4982 H 469.612 2.32735 -4.81392 0
M  V30 4983 H 469.955 2.72408 -3.14801 0
M  V30 4984 H 470.488 1.15782 -3.80578 0
M  V30 4985 H 467.227 -0.0371713 -6.55489 0
M  V30 4986 H 466.747 1.50327 -5.80656 0
M  V30 4987 H 468.426 1.25576 -6.34697 0
M  V30 4988 N 468.558 1.5553 0.254621 0
M  V30 4989 C 469.783 1.81383 1.00573 0
M  V30 4990 C 470.208 0.594419 1.78461 0
M  V30 4991 O 469.566 -0.456403 1.75461 0
M  V30 4992 C 469.614 3.04892 1.92545 0
M  V30 4993 O 468.718 2.81266 3.01601 0
M  V30 4994 H 468.059 0.598969 0.286587 0
M  V30 4995 H 470.589 2.02703 0.277952 0
M  V30 4996 H 470.599 3.34119 2.34155 0
M  V30 4997 H 469.274 3.93287 1.3527 0
M  V30 4998 H 467.851 2.63185 2.64174 0
M  V30 4999 N 470.036 -0.519951 1.48776 0
M  V30 5000 C 471.282 -1.27711 1.57536 0
M  V30 5001 C 471.615 -1.92547 0.252866 0
M  V30 5002 O 470.89 -1.7979 -0.742021 0
M  V30 5003 C 471.173 -2.35875 2.72094 0
M  V30 5004 C 471.026 -1.75664 4.1408 0
M  V30 5005 C 472.345 -3.37575 2.82367 0
M  V30 5006 H 469.464 -0.462971 0.573434 0
M  V30 5007 H 472.106 -0.578194 1.80989 0
M  V30 5008 H 470.256 -2.95488 2.52228 0
M  V30 5009 H 471.928 -1.20025 4.45412 0
M  V30 5010 H 470.171 -1.06154 4.20611 0
M  V30 5011 H 470.842 -2.54029 4.90075 0
M  V30 5012 H 473.318 -2.87929 3.00393 0
M  V30 5013 H 472.194 -4.1064 3.64233 0
M  V30 5014 H 472.455 -3.98743 1.90936 0
M  V30 5015 N 471.514 -1.37532 -0.769588 0
M  V30 5016 C 472.761 -1.3286 -1.52822 0
M  V30 5017 C 473.089 0.0862597 -1.94309 0
M  V30 5018 O 472.344 1.05995 -1.6451 0
M  V30 5019 C 472.643 -2.21558 -2.8044 0
M  V30 5020 C 472.309 -3.69796 -2.57996 0
M  V30 5021 C 470.971 -4.10194 -2.51583 0
M  V30 5022 C 473.323 -4.63699 -2.37976 0
M  V30 5023 C 470.651 -5.42608 -2.23144 0
M  V30 5024 C 473.003 -5.96353 -2.1106 0
M  V30 5025 C 471.667 -6.35853 -2.03093 0
M  V30 5026 H 470.937 -0.486168 -0.559215 0
M  V30 5027 H 473.584 -1.69757 -0.886277 0
M  V30 5028 H 471.889 -1.77663 -3.49204 0
M  V30 5029 H 473.586 -2.15256 -3.38328 0
M  V30 5030 H 470.176 -3.37759 -2.63851 0
M  V30 5031 H 474.36 -4.33346 -2.41919 0
M  V30 5032 H 469.616 -5.72173 -2.15472 0
M  V30 5033 H 473.79 -6.68667 -1.94568 0
M  V30 5034 H 471.417 -7.38382 -1.8082 0
M  V30 5035 N 472.992 0.995999 -1.22138 0
M  V30 5036 C 474.238 1.7386 -1.05567 0
M  V30 5037 C 474.593 1.8808 0.405418 0
M  V30 5038 O 473.886 1.41062 1.29661 0
M  V30 5039 C 474.08 3.14553 -1.6968 0
M  V30 5040 C 473.909 3.14053 -3.21871 0
M  V30 5041 C 472.679 3.20121 -3.90961 0
M  V30 5042 C 474.877 2.98451 -4.18845 0
M  V30 5043 N 472.859 3.09342 -5.30265 0
M  V30 5044 C 474.23 2.95667 -5.4496 0
M  V30 5045 C 476.285 2.8282 -4.09777 0
M  V30 5046 C 474.988 2.78852 -6.63049 0
M  V30 5047 C 477.014 2.67364 -5.27513 0
M  V30 5048 C 476.376 2.65264 -6.52544 0
M  V30 5049 H 472.475 0.645989 -0.440706 0
M  V30 5050 H 475.059 1.1831 -1.54631 0
M  V30 5051 H 473.23 3.68353 -1.2317 0
M  V30 5052 H 474.962 3.77358 -1.4623 0
M  V30 5053 H 471.717 3.27679 -3.4194 0
M  V30 5054 H 472.141 3.0727 -6.03253 0
M  V30 5055 H 476.783 2.83243 -3.139 0
M  V30 5056 H 474.501 2.77175 -7.59078 0
M  V30 5057 H 478.087 2.56256 -5.22326 0
M  V30 5058 H 476.967 2.5345 -7.42114 0
M  V30 5059 N 474.47 1.03057 1.19235 0
M  V30 5060 C 475.881 0.757449 1.70645 0
M  V30 5061 C 476.232 -0.722735 1.82403 0
M  V30 5062 O 475.357 -1.56325 1.49638 0
M  V30 5063 C 475.952 1.36833 3.09939 0
M  V30 5064 C 474.511 1.14375 3.58602 0
M  V30 5065 C 473.658 1.46533 2.35422 0
M  V30 5066 H 476.609 1.19828 1.04052 0
M  V30 5067 H 476.63 0.766184 3.72706 0
M  V30 5068 H 476.142 2.44562 3.01349 0
M  V30 5069 H 474.243 0.0847542 3.72504 0
M  V30 5070 H 474.356 1.83366 4.42622 0
M  V30 5071 H 472.72 0.884712 2.38841 0
M  V30 5072 H 473.503 2.55349 2.2946 0
M  V30 5073 N 475.948 -1.35272 0.808662 0
M  V30 5074 C 476.88 -2.28507 0.178149 0
M  V30 5075 C 477.893 -1.50377 -0.623754 0
M  V30 5076 O 479.082 -1.72583 -0.455774 0
M  V30 5077 C 476.182 -3.30038 -0.769959 0
M  V30 5078 C 475.355 -4.37398 -0.0139749 0
M  V30 5079 C 474.414 -5.18775 -0.880875 0
M  V30 5080 O 473.44 -5.68236 -0.331059 0
M  V30 5081 N 474.642 -5.37087 -2.20267 0
M  V30 5082 H 477.407 -2.83255 0.979106 0
M  V30 5083 H 474.968 -1.47643 0.664308 0
M  V30 5084 H 476.96 -3.81371 -1.35418 0
M  V30 5085 H 475.53 -2.75789 -1.47171 0
M  V30 5086 H 474.75 -3.86971 0.751468 0
M  V30 5087 H 476.038 -5.06268 0.506965 0
M  V30 5088 H 475.436 -4.9855 -2.67328 0
M  V30 5089 H 473.993 -5.91593 -2.73608 0
M  V30 5090 N 477.426 -0.562348 -1.47226 0
M  V30 5091 C 478.356 0.170627 -2.32876 0
M  V30 5092 C 479.337 0.903748 -1.44106 0
M  V30 5093 O 480.522 0.883206 -1.72954 0
M  V30 5094 C 477.652 1.19786 -3.25989 0
M  V30 5095 C 476.606 0.580875 -4.2404 0
M  V30 5096 C 475.932 1.71311 -5.06514 0
M  V30 5097 C 477.232 -0.468714 -5.20193 0
M  V30 5098 H 478.926 -0.544441 -2.94408 0
M  V30 5099 H 476.472 -0.263271 -1.41573 0
M  V30 5100 H 478.425 1.71884 -3.84752 0
M  V30 5101 H 477.149 1.94294 -2.62521 0
M  V30 5102 H 475.808 0.0811538 -3.6651 0
M  V30 5103 H 475.456 2.44736 -4.39447 0
M  V30 5104 H 475.156 1.30604 -5.72902 0
M  V30 5105 H 476.68 2.23725 -5.68137 0
M  V30 5106 H 478.094 -0.0336028 -5.7329 0
M  V30 5107 H 476.491 -0.794957 -5.94811 0
M  V30 5108 H 477.561 -1.36269 -4.65359 0
M  V30 5109 N 478.904 1.54736 -0.299062 0
M  V30 5110 C 480.315 1.8569 0.193971 0
M  V30 5111 C 480.666 1.22101 1.53577 0
M  V30 5112 O 479.791 0.51799 2.10109 0
M  V30 5113 C 480.386 3.36895 0.358733 0
M  V30 5114 C 478.945 3.67887 0.795986 0
M  V30 5115 C 478.092 2.77131 -0.096807 0
M  V30 5116 H 481.043 1.49934 -0.520134 0
M  V30 5117 H 481.064 3.61294 1.19361 0
M  V30 5118 H 480.576 3.83148 -0.617998 0
M  V30 5119 H 478.677 3.27151 1.78334 0
M  V30 5120 H 478.79 4.75114 0.616718 0
M  V30 5121 H 477.154 2.51153 0.423581 0
M  V30 5122 H 477.937 3.26204 -1.06986 0
M  V30 5123 N 480.382 0.0267497 1.57577 0
M  V30 5124 C 481.33 -0.973923 2.11229 0
M  V30 5125 C 482.324 -1.33849 1.03831 0
M  V30 5126 O 483.53 -1.321 1.22269 0
M  V30 5127 H 479.905 -0.331844 0.674821 0
M  V30 5128 H 481.876 -0.496092 2.94247 0
M  V30 5129 C 480.625 -2.24798 2.65257 0
M  V30 5130 H 479.948 -1.9762 3.47543 0
M  V30 5131 H 481.388 -2.93031 3.06445 0
M  V30 5132 C 479.847 -2.97611 1.57891 0
M  V30 5133 O 480.377 -3.89629 0.97735 0
M  V30 5134 N 478.583 -2.59905 1.29992 0
M  V30 5135 H 478.13 -1.85154 1.79097 0
M  V30 5136 H 478.088 -3.08932 0.583798 0
M  V30 5137 N 481.861 -1.55662 -0.24637 0
M  V30 5138 C 483.109 -1.77168 -0.972411 0
M  V30 5139 C 483.43 -0.590827 -1.85834 0
M  V30 5140 O 482.7 0.393365 -1.9191 0
M  V30 5141 H 481.28 -0.653405 -0.362038 0
M  V30 5142 H 483.942 -1.93101 -0.264189 0
M  V30 5143 H 483.038 -2.68335 -1.59382 0
M  V30 5144 N 483.339 0.512053 -1.4905 0
M  V30 5145 C 484.269 1.62365 -1.67809 0
M  V30 5146 C 485.25 1.61737 -0.526809 0
M  V30 5147 O 486.435 1.78651 -0.761404 0
M  V30 5148 C 483.565 3.00895 -1.73435 0
M  V30 5149 C 482.519 3.16387 -2.88242 0
M  V30 5150 C 481.845 4.56157 -2.78971 0
M  V30 5151 C 483.145 2.97457 -4.29321 0
M  V30 5152 H 484.839 1.46921 -2.60873 0
M  V30 5153 H 482.385 0.705379 -1.2554 0
M  V30 5154 H 484.338 3.78549 -1.85145 0
M  V30 5155 H 483.062 3.17403 -0.769619 0
M  V30 5156 H 481.721 2.41155 -2.76116 0
M  V30 5157 H 481.369 4.69525 -1.8043 0
M  V30 5158 H 481.069 4.67465 -3.5602 0
M  V30 5159 H 482.593 5.35886 -2.92675 0
M  V30 5160 H 484.007 3.64888 -4.42187 0
M  V30 5161 H 482.404 3.20245 -5.07507 0
M  V30 5162 H 483.474 1.93692 -4.44535 0
M  V30 5163 N 484.817 1.37938 0.762283 0
M  V30 5164 C 485.727 1.36681 1.90671 0
M  V30 5165 C 486.743 0.265078 1.71969 0
M  V30 5166 O 487.919 0.502055 1.95042 0
M  V30 5167 C 484.984 1.18211 3.25925 0
M  V30 5168 C 484.045 2.3811 3.57214 0
M  V30 5169 C 483.278 2.20512 4.86014 0
M  V30 5170 O 483.501 1.19429 5.57757 0
M  V30 5171 O 482.435 3.08911 5.16583 0
M  V30 5172 H 486.261 2.33091 1.94685 0
M  V30 5173 H 483.846 1.18767 0.906356 0
M  V30 5174 H 485.728 1.09937 4.06807 0
M  V30 5175 H 484.403 0.248807 3.22742 0
M  V30 5176 H 483.31 2.51958 2.76529 0
M  V30 5177 H 484.643 3.30041 3.65149 0
M  V30 5178 N 486.295 -0.989507 1.22664 0
M  V30 5179 C 487.258 -2.06183 1.00106 0
M  V30 5180 C 488.258 -1.60765 -0.0337726 0
M  V30 5181 O 489.448 -1.72989 0.205072 0
M  V30 5182 C 486.58 -3.37021 0.51279 0
M  V30 5183 H 487.773 -2.27629 1.95256 0
M  V30 5184 H 485.326 -1.16158 1.0458 0
M  V30 5185 H 486.061 -3.21261 -0.442917 0
M  V30 5186 H 485.846 -3.71323 1.25942 0
M  V30 5187 H 487.336 -4.1591 0.375315 0
M  V30 5188 N 487.773 -1.03688 -1.18687 0
M  V30 5189 C 488.736 -0.629115 -2.20397 0
M  V30 5190 C 489.736 0.311495 -1.57754 0
M  V30 5191 O 490.926 0.0974107 -1.73927 0
M  V30 5192 C 488.058 0.0782231 -3.4081 0
M  V30 5193 H 489.251 -1.52915 -2.57987 0
M  V30 5194 H 486.804 -0.828988 -1.32505 0
M  V30 5195 H 487.539 0.992233 -3.08748 0
M  V30 5196 H 487.324 -0.597776 -3.87517 0
M  V30 5197 H 488.814 0.350156 -4.16129 0
M  V30 5198 N 489.251 1.34841 -0.815825 0
M  V30 5199 C 490.481 2.02436 -0.412695 0
M  V30 5200 C 490.889 1.61604 0.983906 0
M  V30 5201 O 490.232 0.813729 1.64694 0
M  V30 5202 C 490.294 3.56953 -0.427182 0
M  V30 5203 C 489.958 4.21083 -1.77589 0
M  V30 5204 C 490.955 4.42107 -2.73564 0
M  V30 5205 C 488.64 4.58006 -2.06243 0
M  V30 5206 C 490.634 4.99169 -3.9637 0
M  V30 5207 C 488.321 5.1478 -3.2931 0
M  V30 5208 C 489.319 5.35304 -4.24191 0
M  V30 5209 O 489.007 5.90878 -5.45086 0
M  V30 5210 H 488.739 0.655631 -0.164695 0
M  V30 5211 H 491.293 1.73246 -1.1034 0
M  V30 5212 H 489.523 3.85372 0.320175 0
M  V30 5213 H 491.212 4.05875 -0.0450875 0
M  V30 5214 H 491.978 4.13953 -2.52721 0
M  V30 5215 H 487.857 4.41339 -1.33196 0
M  V30 5216 H 491.401 5.15105 -4.70439 0
M  V30 5217 H 487.298 5.42362 -3.5002 0
M  V30 5218 H 488.066 6.0932 -5.46508 0
M  V30 5219 N 490.729 0.570148 1.46925 0
M  V30 5220 C 491.639 -0.173061 2.33961 0
M  V30 5221 C 492.655 -0.898825 1.48987 0
M  V30 5222 O 493.831 -0.864825 1.81887 0
M  V30 5223 C 490.896 -1.18177 3.25937 0
M  V30 5224 C 489.957 -0.462041 4.26806 0
M  V30 5225 C 489.19 -1.4227 5.14388 0
M  V30 5226 O 489.413 -2.65842 5.04662 0
M  V30 5227 O 488.347 -0.940127 5.94513 0
M  V30 5228 H 492.173 0.541216 2.98839 0
M  V30 5229 H 489.758 0.330647 1.45695 0
M  V30 5230 H 491.64 -1.76372 3.82715 0
M  V30 5231 H 490.315 -1.87774 2.63671 0
M  V30 5232 H 489.222 0.161429 3.73752 0
M  V30 5233 H 490.555 0.192719 4.91823 0
M  V30 5234 N 492.207 -1.54576 0.307264 0
M  V30 5235 C 493.454 -2.00263 -0.300167 0
M  V30 5236 C 493.782 -1.19561 -1.53413 0
M  V30 5237 O 493.037 -0.261487 -1.93945 0
M  V30 5238 C 493.336 -3.50572 -0.695253 0
M  V30 5239 C 493.002 -4.48771 0.437679 0
M  V30 5240 C 491.664 -4.7534 0.748681 0
M  V30 5241 C 494.016 -5.0721 1.19949 0
M  V30 5242 C 491.344 -5.5761 1.8245 0
M  V30 5243 C 493.696 -5.90651 2.26527 0
M  V30 5244 C 492.36 -6.15528 2.58227 0
M  V30 5245 H 491.63 -0.732814 -0.109839 0
M  V30 5246 H 494.277 -1.86664 0.427661 0
M  V30 5247 H 492.582 -3.61814 -1.50326 0
M  V30 5248 H 494.279 -3.83352 -1.17653 0
M  V30 5249 H 490.869 -4.282 0.185187 0
M  V30 5250 H 495.053 -4.86679 0.972474 0
M  V30 5251 H 490.309 -5.75121 2.07476 0
M  V30 5252 H 494.483 -6.34957 2.86011 0
M  V30 5253 H 492.11 -6.79066 3.4172 0
M  V30 5254 N 493.685 -0.035106 -1.57561 0
M  V30 5255 C 494.648 0.929819 -2.09492 0
M  V30 5256 C 495.648 1.25026 -1.01119 0
M  V30 5257 O 496.838 1.18961 -1.27255 0
M  V30 5258 C 493.97 2.24457 -2.56577 0
M  V30 5259 H 495.163 0.479935 -2.96035 0
M  V30 5260 H 492.716 0.213033 -1.54841 0
M  V30 5261 H 493.451 2.74061 -1.73382 0
M  V30 5262 H 493.236 2.02508 -3.35757 0
M  V30 5263 H 494.726 2.93607 -2.96959 0
M  V30 5264 N 495.163 1.55791 0.238111 0
M  V30 5265 C 496.44 1.68798 0.98826 0
M  V30 5266 C 496.82 0.577562 2.03045 0
M  V30 5267 O 496.168 -0.41778 2.24648 0
M  V30 5268 C 496.378 3.09454 1.61367 0
M  V30 5269 C 497.726 3.68335 2.11221 0
M  V30 5270 O 498.75 3.1231 1.71292 0
M  V30 5271 O 497.609 4.6657 2.84561 0
M  V30 5272 H 494.703 0.686881 0.460568 0
M  V30 5273 H 497.249 1.68118 0.231202 0
M  V30 5274 H 496.021 3.81726 0.860295 0
M  V30 5275 H 495.644 3.14182 2.4367 0
M  V30 5276 N 496.642 -0.504142 1.49319 0
M  V30 5277 C 498.058 -0.835039 1.36012 0
M  V30 5278 C 498.258 -1.97674 0.390808 0
M  V30 5279 O 497.314 -2.51867 -0.178655 0
M  V30 5280 C 498.627 -1.17821 2.76656 0
M  V30 5281 C 500.175 -1.2866 2.85334 0
M  V30 5282 C 500.65 -1.66307 4.26739 0
M  V30 5283 N 502.141 -1.73362 4.29534 0
M  V30 5284 C 502.876 -2.0393 5.35911 0
M  V30 5285 N 502.372 -2.32744 6.52535 0
M  V30 5286 N 504.165 -2.05155 5.23324 0
M  V30 5287 H 496.316 0.248764 2.10938 0
M  V30 5288 H 498.579 0.0486962 0.946748 0
M  V30 5289 H 498.285 -0.412682 3.4927 0
M  V30 5290 H 498.159 -2.12239 3.11825 0
M  V30 5291 H 500.546 -2.04285 2.1296 0
M  V30 5292 H 500.627 -0.323004 2.53752 0
M  V30 5293 H 500.271 -0.91234 4.99639 0
M  V30 5294 H 500.201 -2.63761 4.55782 0
M  V30 5295 H 502.692 -1.53268 3.45424 0
M  V30 5296 H 503.005 -2.55248 7.2943 0
M  V30 5297 H 501.35 -2.30207 6.55767 0
M  V30 5298 H 504.541 -1.82119 4.3122 0
M  V30 5299 H 504.714 -2.28644 6.06322 0
M  V30 5300 N 498.12 -1.38341 -0.754957 0
M  V30 5301 C 499.397 -1.24995 -1.50451 0
M  V30 5302 C 499.777 0.149244 -2.10572 0
M  V30 5303 O 499.125 1.15861 -1.96948 0
M  V30 5304 C 499.335 -2.35904 -2.57197 0
M  V30 5305 C 500.683 -2.74262 -3.24138 0
M  V30 5306 O 501.707 -2.35205 -2.67501 0
M  V30 5307 O 500.566 -3.4161 -4.26574 0
M  V30 5308 H 497.66 -0.48872 -0.667144 0
M  V30 5309 H 500.206 -1.50165 -0.790486 0
M  V30 5310 H 498.978 -3.2953 -2.11011 0
M  V30 5311 H 498.601 -2.12291 -3.36182 0
M  V30 5312 N 499.598 0.982988 -1.23187 0
M  V30 5313 C 500.508 2.10907 -1.02739 0
M  V30 5314 C 501.524 1.73979 0.0273188 0
M  V30 5315 O 502.7 2.00702 -0.16757 0
M  V30 5316 C 499.765 3.41142 -0.618304 0
M  V30 5317 C 498.826 3.92112 -1.74777 0
M  V30 5318 C 498.059 5.16131 -1.3581 0
M  V30 5319 O 498.282 5.6989 -0.241201 0
M  V30 5320 O 497.216 5.61103 -2.17824 0
M  V30 5321 H 501.042 2.31046 -1.97108 0
M  V30 5322 H 498.627 1.09284 -1.01869 0
M  V30 5323 H 500.509 4.19488 -0.400982 0
M  V30 5324 H 499.184 3.2234 0.296421 0
M  V30 5325 H 498.091 3.14895 -2.0197 0
M  V30 5326 H 499.424 4.15364 -2.64071 0
M  V30 5327 N 501.076 1.04316 1.18135 0
M  V30 5328 C 502.322 0.749128 1.88457 0
M  V30 5329 C 502.655 -0.72149 1.803 0
M  V30 5330 O 501.93 -1.52676 1.205 0
M  V30 5331 C 502.213 1.21905 3.38838 0
M  V30 5332 C 502.066 2.75195 3.55792 0
M  V30 5333 C 503.385 0.811085 4.32561 0
M  V30 5334 H 500.504 0.273611 0.684329 0
M  V30 5335 H 503.146 1.29561 1.38975 0
M  V30 5336 H 501.296 0.754137 3.8111 0
M  V30 5337 H 502.968 3.29743 3.22595 0
M  V30 5338 H 501.211 3.14899 2.98364 0
M  V30 5339 H 501.882 3.03135 4.61317 0
M  V30 5340 H 504.358 1.21118 3.98082 0
M  V30 5341 H 503.234 1.16761 5.36338 0
M  V30 5342 H 503.495 -0.285596 4.41177 0
M  V30 5343 N 502.554 -1.34406 0.822964 0
M  V30 5344 C 503.97 -1.51275 0.508727 0
M  V30 5345 C 504.17 -1.76776 -0.967083 0
M  V30 5346 O 503.226 -1.81871 -1.75155 0
M  V30 5347 C 504.539 -2.67765 1.36829 0
M  V30 5348 C 506.087 -2.81647 1.36542 0
M  V30 5349 C 506.562 -4.01181 2.20947 0
M  V30 5350 N 508.053 -4.08388 2.18571 0
M  V30 5351 C 508.788 -5.00036 2.80627 0
M  V30 5352 N 508.284 -5.96906 3.51674 0
M  V30 5353 N 510.077 -4.92908 2.70181 0
M  V30 5354 H 502.228 -1.16113 1.77852 0
M  V30 5355 H 504.491 -0.56947 0.757897 0
M  V30 5356 H 504.197 -2.55551 2.41633 0
M  V30 5357 H 504.071 -3.62779 1.03303 0
M  V30 5358 H 506.458 -2.93303 0.325163 0
M  V30 5359 H 506.539 -1.87443 1.74066 0
M  V30 5360 H 506.183 -3.90286 3.25022 0
M  V30 5361 H 506.113 -4.94599 1.80774 0
M  V30 5362 H 508.604 -3.39051 1.66891 0
M  V30 5363 H 508.917 -6.63468 3.96271 0
M  V30 5364 H 507.262 -5.9703 3.5578 0
M  V30 5365 H 510.453 -4.1619 2.14251 0
M  V30 5366 H 510.626 -5.64137 3.18831 0
M  V30 5367 N 504.032 -0.577932 -1.46621 0
M  V30 5368 C 505.279 -0.0616879 -2.02406 0
M  V30 5369 C 505.607 1.29638 -1.44997 0
M  V30 5370 O 504.862 1.86176 -0.60308 0
M  V30 5371 C 505.161 0.0590832 -3.57351 0
M  V30 5372 C 504.827 -1.23077 -4.33777 0
M  V30 5373 C 503.489 -1.58416 -4.54376 0
M  V30 5374 C 505.841 -2.08457 -4.77698 0
M  V30 5375 C 503.169 -2.78943 -5.16147 0
M  V30 5376 C 505.521 -3.28204 -5.408 0
M  V30 5377 C 504.185 -3.63832 -5.59627 0
M  V30 5378 H 503.455 -0.0225732 -0.740656 0
M  V30 5379 H 506.102 -0.753609 -1.76048 0
M  V30 5380 H 504.407 0.834104 -3.82818 0
M  V30 5381 H 506.104 0.474202 -3.98186 0
M  V30 5382 H 502.694 -0.945652 -4.18038 0
M  V30 5383 H 506.878 -1.82459 -4.61544 0
M  V30 5384 H 502.134 -3.06689 -5.28916 0
M  V30 5385 H 506.308 -3.94634 -5.73792 0
M  V30 5386 H 503.935 -4.57315 -6.07262 0
M  V30 5387 N 505.51 1.54411 -0.315457 0
M  V30 5388 C 506.757 2.00419 0.289543 0
M  V30 5389 C 507.085 1.20373 1.52776 0
M  V30 5390 O 506.34 0.271769 1.93804 0
M  V30 5391 C 506.639 3.50936 0.676652 0
M  V30 5392 C 506.305 4.48532 -0.461472 0
M  V30 5393 C 504.967 4.74936 -0.773879 0
M  V30 5394 C 507.319 5.06567 -1.22637 0
M  V30 5395 C 504.647 5.56634 -1.85405 0
M  V30 5396 C 506.999 5.89441 -2.29657 0
M  V30 5397 C 505.663 6.1415 -2.61488 0
M  V30 5398 H 504.933 0.733386 0.105951 0
M  V30 5399 H 507.58 1.86434 -0.437554 0
M  V30 5400 H 505.885 3.62606 1.48405 0
M  V30 5401 H 507.582 3.83971 1.15618 0
M  V30 5402 H 504.172 4.28096 -0.207893 0
M  V30 5403 H 508.356 4.86157 -0.998271 0
M  V30 5404 H 503.612 5.74012 -2.10523 0
M  V30 5405 H 507.786 6.33432 -2.89374 0
M  V30 5406 H 505.413 6.77245 -3.45317 0
M  V30 5407 N 506.988 0.0434614 1.5754 0
M  V30 5408 C 507.935 -0.93356 2.11077 0
M  V30 5409 C 508.905 -1.31383 1.01626 0
M  V30 5410 O 510.09 -1.40465 1.29129 0
M  V30 5411 C 507.23 -2.20578 2.65404 0
M  V30 5412 C 506.343 -1.88068 3.88914 0
M  V30 5413 C 505.478 -3.09691 4.31584 0
M  V30 5414 C 504.517 -2.73067 5.47815 0
M  V30 5415 N 503.654 -3.87359 5.85574 0
M  V30 5416 H 508.494 -0.470118 2.94268 0
M  V30 5417 H 506.031 -0.220434 1.45439 0
M  V30 5418 H 507.989 -2.95011 2.94999 0
M  V30 5419 H 506.619 -2.64513 1.85021 0
M  V30 5420 H 505.671 -1.03816 3.6596 0
M  V30 5421 H 506.983 -1.57104 4.73413 0
M  V30 5422 H 506.137 -3.92431 4.62691 0
M  V30 5423 H 504.876 -3.43827 3.45882 0
M  V30 5424 H 503.881 -1.88742 5.16388 0
M  V30 5425 H 505.106 -2.40131 6.35227 0
M  V30 5426 H 503.052 -4.21311 5.02825 0
M  V30 5427 H 502.969 -3.60068 6.64746 0
M  V30 5428 H 504.237 -4.70761 6.21292 0
M  V30 5429 N 508.466 -1.55915 -0.229846 0
M  V30 5430 C 509.714 -1.7819 -0.953565 0
M  V30 5431 C 510.035 -0.610504 -1.85197 0
M  V30 5432 O 509.305 0.372988 -1.92316 0
M  V30 5433 H 507.885 -0.657208 -0.355087 0
M  V30 5434 H 510.547 -1.9337 -0.243693 0
M  V30 5435 H 509.643 -2.70011 -1.56527 0
M  V30 5436 N 509.944 0.496216 -1.49584 0
M  V30 5437 C 510.892 1.61805 -1.67098 0
M  V30 5438 C 511.886 1.60667 -0.536877 0
M  V30 5439 O 513.092 1.65118 -0.716654 0
M  V30 5440 H 509.467 0.53646 -0.526986 0
M  V30 5441 H 511.438 1.44187 -2.61252 0
M  V30 5442 C 510.187 2.99912 -1.75921 0
M  V30 5443 H 509.51 3.01496 -2.62565 0
M  V30 5444 H 510.95 3.77931 -1.92209 0
M  V30 5445 C 509.409 3.33092 -0.505088 0
M  V30 5446 O 509.939 4.00019 0.367085 0
M  V30 5447 N 508.145 2.88278 -0.366599 0
M  V30 5448 H 507.692 2.33989 -1.07735 0
M  V30 5449 H 507.65 3.10846 0.47142 0
M  V30 5450 N 511.423 1.38739 0.74761 0
M  V30 5451 C 512.37 1.36449 1.86146 0
M  V30 5452 C 513.34 0.226098 1.64554 0
M  V30 5453 O 514.525 0.41926 1.86137 0
M  V30 5454 C 511.665 1.2013 3.23516 0
M  V30 5455 C 510.778 2.43407 3.56899 0
M  V30 5456 C 509.913 2.19773 4.83605 0
M  V30 5457 C 508.952 3.3879 5.09792 0
M  V30 5458 N 508.089 3.14553 6.27695 0
M  V30 5459 H 512.929 2.3167 1.87438 0
M  V30 5460 H 510.466 1.15094 0.916063 0
M  V30 5461 H 512.424 1.08683 4.02795 0
M  V30 5462 H 511.054 0.285453 3.21535 0
M  V30 5463 H 510.106 2.65504 2.72418 0
M  V30 5464 H 511.418 3.32094 3.72176 0
M  V30 5465 H 510.572 2.05496 5.70838 0
M  V30 5466 H 509.311 1.28461 4.70478 0
M  V30 5467 H 508.316 3.53579 4.21025 0
M  V30 5468 H 509.541 4.30986 5.24812 0
M  V30 5469 H 507.487 2.25893 6.1588 0
M  V30 5470 H 507.404 3.96791 6.435 0
M  V30 5471 H 508.672 3.03943 7.17801 0
M  V30 5472 N 512.901 -0.976442 1.23707 0
M  V30 5473 C 514.131 -1.75087 1.09673 0
M  V30 5474 C 514.539 -1.85852 -0.354344 0
M  V30 5475 O 513.882 -1.33985 -1.25673 0
M  V30 5476 C 513.944 -3.19272 1.65245 0
M  V30 5477 C 513.608 -3.32004 3.14042 0
M  V30 5478 C 514.605 -3.18017 4.11292 0
M  V30 5479 C 512.29 -3.56525 3.53829 0
M  V30 5480 C 514.284 -3.28363 5.46312 0
M  V30 5481 C 511.971 -3.6651 4.88993 0
M  V30 5482 C 512.969 -3.52439 5.85043 0
M  V30 5483 O 512.657 -3.62063 7.1775 0
M  V30 5484 H 512.389 -0.556164 0.384262 0
M  V30 5485 H 514.943 -1.23518 1.64111 0
M  V30 5486 H 513.173 -3.72107 1.05231 0
M  V30 5487 H 514.862 -3.7849 1.46629 0
M  V30 5488 H 515.628 -2.98966 3.81896 0
M  V30 5489 H 511.507 -3.66547 2.79579 0
M  V30 5490 H 515.051 -3.17297 6.21263 0
M  V30 5491 H 510.948 -3.85072 5.18063 0
M  V30 5492 H 511.716 -3.78833 7.25553 0
M  V30 5493 N 514.379 -1.04941 -1.1758 0
M  V30 5494 C 515.625 -0.768896 -1.88307 0
M  V30 5495 C 515.98 0.696361 -1.79356 0
M  V30 5496 O 515.273 1.50245 -1.18899 0
M  V30 5497 C 515.467 -1.18062 -3.37337 0
M  V30 5498 C 515.296 -2.68436 -3.60794 0
M  V30 5499 C 514.066 -3.35709 -3.77661 0
M  V30 5500 C 516.264 -3.66657 -3.60649 0
M  V30 5501 N 514.246 -4.74974 -3.88939 0
M  V30 5502 C 515.617 -4.91638 -3.77747 0
M  V30 5503 C 517.672 -3.60162 -3.43785 0
M  V30 5504 C 516.375 -6.10902 -3.79726 0
M  V30 5505 C 518.401 -4.78863 -3.47051 0
M  V30 5506 C 517.763 -6.02666 -3.64654 0
M  V30 5507 H 513.862 -0.33355 -0.707296 0
M  V30 5508 H 516.446 -1.34085 -1.41171 0
M  V30 5509 H 514.617 -0.636648 -3.83147 0
M  V30 5510 H 516.349 -0.8502 -3.95669 0
M  V30 5511 H 513.104 -2.8611 -3.77409 0
M  V30 5512 H 513.528 -5.47378 -3.98379 0
M  V30 5513 H 518.17 -2.65412 -3.29114 0
M  V30 5514 H 515.888 -7.05998 -3.93182 0
M  V30 5515 H 519.474 -4.75488 -3.35265 0
M  V30 5516 H 518.354 -6.92979 -3.67083 0
M  V30 5517 N 515.857 1.33968 -0.830081 0
M  V30 5518 C 516.82 2.27694 -0.26235 0
M  V30 5519 C 517.82 1.50589 0.563876 0
M  V30 5520 O 519.01 1.70028 0.378941 0
M  V30 5521 C 516.142 3.35002 0.63138 0
M  V30 5522 H 517.335 2.79419 -1.08928 0
M  V30 5523 H 514.888 1.44221 -0.602486 0
M  V30 5524 H 515.623 2.88504 1.48109 0
M  V30 5525 H 515.408 3.92079 0.0403276 0
M  V30 5526 H 516.898 4.04897 1.02217 0
M  V30 5527 N 517.335 0.585699 1.46312 0
M  V30 5528 C 518.581 0.0725284 2.0267 0
M  V30 5529 C 518.914 -1.28523 1.45586 0
M  V30 5530 O 518.189 -1.84283 0.622101 0
M  V30 5531 C 518.472 0.0099788 3.60099 0
M  V30 5532 C 518.325 1.39685 4.27561 0
M  V30 5533 C 519.644 -0.689117 4.34671 0
M  V30 5534 H 516.763 0.0278307 0.736474 0
M  V30 5535 H 519.405 0.753472 1.74421 0
M  V30 5536 H 517.555 -0.56992 3.84297 0
M  V30 5537 H 519.227 2.02215 4.14617 0
M  V30 5538 H 517.47 1.96374 3.86807 0
M  V30 5539 H 518.141 1.30553 5.36339 0
M  V30 5540 H 520.617 -0.196446 4.15636 0
M  V30 5541 H 519.493 -0.701921 5.44393 0
M  V30 5542 H 519.754 -1.75101 4.05946 0
M  V30 5543 N 518.813 -1.54241 0.323641 0
M  V30 5544 C 519.745 -2.21836 -0.576311 0
M  V30 5545 C 520.758 -1.21837 -1.07979 0
M  V30 5546 O 521.947 -1.48306 -0.99336 0
M  V30 5547 C 519.047 -2.86923 -1.80356 0
M  V30 5548 C 518.22 -4.1306 -1.43875 0
M  V30 5549 C 517.279 -4.6174 -2.52353 0
M  V30 5550 O 516.305 -5.26421 -2.16494 0
M  V30 5551 N 517.507 -4.35974 -3.83284 0
M  V30 5552 H 520.272 -2.997 0.00247987 0
M  V30 5553 H 517.833 -1.61233 0.146848 0
M  V30 5554 H 519.825 -3.16414 -2.52318 0
M  V30 5555 H 518.395 -2.12765 -2.29019 0
M  V30 5556 H 517.615 -3.90334 -0.550752 0
M  V30 5557 H 518.903 -4.95148 -1.17071 0
M  V30 5558 H 518.301 -3.84203 -4.15216 0
M  V30 5559 H 516.858 -4.70119 -4.51477 0
M  V30 5560 N 520.291 -0.0518155 -1.57515 0
M  V30 5561 C 521.539 0.620595 -1.92336 0
M  V30 5562 C 521.86 1.71345 -0.930907 0
M  V30 5563 O 521.13 1.95885 0.0241341 0
M  V30 5564 H 519.71 0.232226 -0.709986 0
M  V30 5565 H 522.372 -0.104969 -1.94617 0
M  V30 5566 H 521.468 1.05879 -2.93592 0
M  V30 5567 N 521.769 1.56035 0.221574 0
M  V30 5568 C 522.701 1.889 1.29805 0
M  V30 5569 C 523.714 0.777269 1.43047 0
M  V30 5570 O 524.903 1.05557 1.43945 0
M  V30 5571 C 522.003 2.0825 2.67367 0
M  V30 5572 C 521.176 3.39267 2.76073 0
M  V30 5573 C 520.235 3.48049 3.94649 0
M  V30 5574 O 519.261 4.2108 3.82988 0
M  V30 5575 N 520.463 2.79191 5.08953 0
M  V30 5576 H 523.228 2.81831 1.01938 0
M  V30 5577 H 520.789 1.5658 0.411612 0
M  V30 5578 H 522.781 2.11441 3.45072 0
M  V30 5579 H 521.351 1.21944 2.87834 0
M  V30 5580 H 520.571 3.48175 1.84846 0
M  V30 5581 H 521.859 4.25575 2.7886 0
M  V30 5582 H 521.257 2.19635 5.21322 0
M  V30 5583 H 519.814 2.88043 5.84701 0
M  V30 5584 N 523.247 -0.488276 1.49845 0
M  V30 5585 C 524.195 -1.60917 1.67954 0
M  V30 5586 C 525.189 -1.6038 0.54539 0
M  V30 5587 O 526.395 -1.64736 0.7254 0
M  V30 5588 H 522.77 -0.533658 0.529824 0
M  V30 5589 H 524.741 -1.428 2.62013 0
M  V30 5590 C 523.49 -2.98975 1.77509 0
M  V30 5591 H 522.813 -3.00099 2.6416 0
M  V30 5592 H 524.253 -3.76906 1.9421 0
M  V30 5593 C 522.712 -3.3282 0.522745 0
M  V30 5594 O 523.242 -4.00208 -0.345866 0
M  V30 5595 N 521.448 -2.8808 0.381882 0
M  V30 5596 H 520.995 -2.33415 1.08974 0
M  V30 5597 H 520.953 -3.11091 -0.454929 0
M  V30 5598 N 524.725 -1.39134 -0.740242 0
M  V30 5599 C 525.971 -1.36273 -1.50192 0
M  V30 5600 C 526.304 0.0430136 -1.94152 0
M  V30 5601 O 525.579 1.00691 -1.66408 0
M  V30 5602 C 525.862 -2.33041 -2.74525 0
M  V30 5603 C 525.715 -3.82535 -2.36617 0
M  V30 5604 C 527.034 -2.27723 -3.76604 0
M  V30 5605 H 524.153 -0.496323 -0.544823 0
M  V30 5606 H 526.795 -1.70085 -0.846815 0
M  V30 5607 H 524.945 -2.04337 -3.30422 0
M  V30 5608 H 526.617 -4.21967 -1.86391 0
M  V30 5609 H 524.86 -3.99565 -1.68909 0
M  V30 5610 H 525.531 -4.45723 -3.2563 0
M  V30 5611 H 528.007 -2.53091 -3.30279 0
M  V30 5612 H 526.883 -2.97519 -4.61274 0
M  V30 5613 H 527.144 -1.28049 -4.2315 0
M  V30 5614 N 526.204 0.969867 -1.24223 0
M  V30 5615 C 527.134 2.08191 -1.05729 0
M  V30 5616 C 528.115 1.70075 0.0290765 0
M  V30 5617 O 529.3 1.93712 -0.137583 0
M  V30 5618 C 526.43 3.40991 -0.658995 0
M  V30 5619 C 525.384 3.93054 -1.69389 0
M  V30 5620 C 524.71 5.22171 -1.15072 0
M  V30 5621 C 526.01 4.21137 -3.08935 0
M  V30 5622 H 527.704 2.23921 -1.98746 0
M  V30 5623 H 525.25 1.07602 -0.956967 0
M  V30 5624 H 527.203 4.18221 -0.51662 0
M  V30 5625 H 525.927 3.25155 0.30686 0
M  V30 5626 H 524.586 3.17977 -1.82444 0
M  V30 5627 H 524.234 5.02694 -0.175539 0
M  V30 5628 H 523.934 5.57973 -1.84229 0
M  V30 5629 H 525.458 6.02013 -1.02042 0
M  V30 5630 H 526.872 4.8908 -2.99121 0
M  V30 5631 H 525.269 4.68163 -3.75425 0
M  V30 5632 H 526.339 3.27996 -3.57137 0
M  V30 5633 N 527.682 1.05563 1.17022 0
M  V30 5634 C 528.632 0.630007 2.19123 0
M  V30 5635 C 529.616 -0.335472 1.57364 0
M  V30 5636 O 530.808 -0.1521 1.76345 0
M  V30 5637 C 527.937 0.0101676 3.43298 0
M  V30 5638 C 527.023 0.999698 4.12149 0
M  V30 5639 N 527.414 2.17251 4.56766 0
M  V30 5640 C 525.712 0.829 4.38228 0
M  V30 5641 C 526.413 2.79883 5.09942 0
M  V30 5642 N 525.389 2.07656 5.02374 0
M  V30 5643 H 529.191 1.52353 2.51328 0
M  V30 5644 H 526.705 0.926288 1.33393 0
M  V30 5645 H 528.702 -0.312541 4.15727 0
M  V30 5646 H 527.362 -0.878707 3.12584 0
M  V30 5647 H 528.373 2.55067 4.50734 0
M  V30 5648 H 525.05 -0.00850974 4.17499 0
M  V30 5649 H 526.44 3.79362 5.54558 0
M  V30 5650 N 529.16 -1.33526 0.837174 0
M  V30 5651 C 530.408 -1.97446 0.431211 0
M  V30 5652 C 530.729 -1.6665 -1.01255 0
M  V30 5653 O 529.999 -0.964559 -1.70508 0
M  V30 5654 H 528.579 -0.73043 0.156463 0
M  V30 5655 H 531.241 -1.62918 1.06976 0
M  V30 5656 H 530.337 -3.07001 0.561877 0
M  V30 5657 N 530.638 -0.59345 -1.46 0
M  V30 5658 C 531.868 -0.0889642 -2.06408 0
M  V30 5659 C 532.276 1.22597 -1.44106 0
M  V30 5660 O 531.619 1.75448 -0.544398 0
M  V30 5661 C 531.681 0.139902 -3.59228 0
M  V30 5662 C 531.345 -1.09107 -4.43784 0
M  V30 5663 C 532.342 -2.00577 -4.79651 0
M  V30 5664 C 530.027 -1.31593 -4.84756 0
M  V30 5665 C 532.021 -3.12873 -5.55328 0
M  V30 5666 C 529.708 -2.44192 -5.60191 0
M  V30 5667 C 530.706 -3.34661 -5.95392 0
M  V30 5668 O 530.394 -4.45302 -6.69299 0
M  V30 5669 H 530.126 -0.0594613 -0.67338 0
M  V30 5670 H 532.68 -0.817 -1.88452 0
M  V30 5671 H 530.91 0.922672 -3.75531 0
M  V30 5672 H 532.599 0.594228 -4.01527 0
M  V30 5673 H 533.365 -1.84425 -4.48567 0
M  V30 5674 H 529.244 -0.620801 -4.56801 0
M  V30 5675 H 532.788 -3.83511 -5.82722 0
M  V30 5676 H 528.685 -2.60303 -5.90688 0
M  V30 5677 H 529.453 -4.43805 -6.87735 0
M  V30 5678 N 532.116 1.54067 -0.331816 0
M  V30 5679 C 533.527 1.86059 0.15454 0
M  V30 5680 C 533.878 1.25331 1.50952 0
M  V30 5681 O 533.003 0.562441 2.08963 0
M  V30 5682 C 533.598 3.37581 0.287192 0
M  V30 5683 C 532.157 3.69493 0.717773 0
M  V30 5684 C 531.304 2.76863 -0.155569 0
M  V30 5685 H 534.255 1.48797 -0.55182 0
M  V30 5686 H 534.276 3.63744 1.11671 0
M  V30 5687 H 533.788 3.81751 -0.699131 0
M  V30 5688 H 531.889 3.3086 1.71354 0
M  V30 5689 H 532.002 4.76315 0.5158 0
M  V30 5690 H 530.366 2.51995 0.370213 0
M  V30 5691 H 531.149 3.23861 -1.13881 0
M  V30 5692 N 533.594 0.0601682 1.57485 0
M  V30 5693 C 534.541 -0.91112 2.12055 0
M  V30 5694 C 535.511 -1.30298 1.03013 0
M  V30 5695 O 536.696 -1.39087 1.30612 0
M  V30 5696 C 533.836 -2.1775 2.67729 0
M  V30 5697 C 532.949 -1.83933 3.90887 0
M  V30 5698 C 532.084 -3.05096 4.34845 0
M  V30 5699 C 531.123 -2.67241 5.5068 0
M  V30 5700 N 530.26 -3.81127 5.8965 0
M  V30 5701 H 535.1 -0.43888 2.9475 0
M  V30 5702 H 532.637 -0.204995 1.45665 0
M  V30 5703 H 534.595 -2.91866 2.98111 0
M  V30 5704 H 533.225 -2.62535 1.87816 0
M  V30 5705 H 532.277 -0.999287 3.6704 0
M  V30 5706 H 533.589 -1.52074 4.75052 0
M  V30 5707 H 532.743 -3.87502 4.66827 0
M  V30 5708 H 531.482 -3.40139 3.49509 0
M  V30 5709 H 530.487 -1.83254 5.18361 0
M  V30 5710 H 531.712 -2.3338 6.37738 0
M  V30 5711 H 529.658 -4.15954 5.07266 0
M  V30 5712 H 529.575 -3.52997 6.68528 0
M  V30 5713 H 530.843 -4.64145 6.2625 0
M  V30 5714 N 535.072 -1.5615 -0.213296 0
M  V30 5715 C 536.349 -1.70349 -0.961281 0
M  V30 5716 C 536.729 -0.609791 -2.02101 0
M  V30 5717 O 536.077 0.381987 -2.25285 0
M  V30 5718 C 536.287 -3.11982 -1.56424 0
M  V30 5719 C 537.635 -3.71649 -2.05334 0
M  V30 5720 O 538.659 -3.14995 -1.66302 0
M  V30 5721 O 537.518 -4.71038 -2.77102 0
M  V30 5722 H 534.612 -0.694121 -0.449582 0
M  V30 5723 H 537.158 -1.68464 -0.204426 0
M  V30 5724 H 535.93 -3.83046 -0.799457 0
M  V30 5725 H 535.553 -3.18019 -2.38641 0
M  V30 5726 N 536.55 0.480323 -1.50102 0
M  V30 5727 C 537.799 1.22979 -1.59872 0
M  V30 5728 C 538.112 1.93282 -0.30022 0
M  V30 5729 O 539.318 2.70086 -0.276709 0
M  V30 5730 C 537.774 2.23408 -2.82164 0
M  V30 5731 C 537.382 1.5895 -4.18854 0
M  V30 5732 C 539.126 2.99055 -3.01275 0
M  V30 5733 C 537.033 2.57611 -5.32344 0
M  V30 5734 H 535.963 0.462707 -0.59533 0
M  V30 5735 H 538.614 0.501291 -1.7652 0
M  V30 5736 H 536.996 2.99511 -2.59055 0
M  V30 5737 H 538.17 0.887 -4.52182 0
M  V30 5738 H 536.485 0.956191 -4.05273 0
M  V30 5739 H 539.082 3.72876 -3.83233 0
M  V30 5740 H 539.425 3.57897 -2.12639 0
M  V30 5741 H 539.958 2.30066 -3.24522 0
M  V30 5742 H 536.697 2.03521 -6.23105 0
M  V30 5743 H 536.217 3.26041 -5.03445 0
M  V30 5744 H 537.896 3.19627 -5.62537 0
M  V30 5745 N 538.028 1.39524 0.732853 0
M  V30 5746 C 539.258 1.3994 1.51988 0
M  V30 5747 C 539.666 -0.00727973 1.89199 0
M  V30 5748 O 539.009 -0.989521 1.54771 0
M  V30 5749 C 539.071 2.21026 2.83527 0
M  V30 5750 C 538.735 3.69633 2.68738 0
M  V30 5751 C 539.732 4.62665 2.37143 0
M  V30 5752 C 537.417 4.13244 2.85542 0
M  V30 5753 C 539.411 5.97291 2.22536 0
M  V30 5754 C 537.098 5.47945 2.70554 0
M  V30 5755 C 538.096 6.39783 2.39097 0
M  V30 5756 O 537.784 7.72002 2.24204 0
M  V30 5757 H 537.516 0.479795 0.476206 0
M  V30 5758 H 540.07 1.8399 0.913054 0
M  V30 5759 H 538.3 1.71728 3.46477 0
M  V30 5760 H 539.989 2.13594 3.45156 0
M  V30 5761 H 540.755 4.30272 2.2381 0
M  V30 5762 H 536.634 3.42094 3.09019 0
M  V30 5763 H 540.178 6.68939 1.97905 0
M  V30 5764 H 536.075 5.79928 2.83466 0
M  V30 5765 H 536.843 7.8275 2.39258 0
M  V30 5766 N 539.506 -0.963266 1.24736 0
M  V30 5767 C 540.731 -1.74699 1.11781 0
M  V30 5768 C 541.156 -1.85267 -0.325258 0
M  V30 5769 O 540.514 -1.32681 -1.23553 0
M  V30 5770 C 540.562 -3.14322 1.76731 0
M  V30 5771 O 539.666 -3.99043 1.04109 0
M  V30 5772 H 539.007 -0.53684 0.390767 0
M  V30 5773 H 541.537 -1.20801 1.65131 0
M  V30 5774 H 541.547 -3.64824 1.82668 0
M  V30 5775 H 540.222 -3.05946 2.81726 0
M  V30 5776 H 538.799 -3.5752 1.05991 0
M  V30 5777 N 540.985 -1.06182 -1.16461 0
M  V30 5778 C 542.21 -0.798599 -1.91408 0
M  V30 5779 C 542.635 0.640987 -1.76842 0
M  V30 5780 O 541.993 1.44652 -1.09296 0
M  V30 5781 C 542.041 -1.19665 -3.40165 0
M  V30 5782 O 541.145 -0.334768 -4.11039 0
M  V30 5783 H 540.486 -0.291961 -0.596368 0
M  V30 5784 H 543.016 -1.41732 -1.47557 0
M  V30 5785 H 543.026 -1.16772 -3.90933 0
M  V30 5786 H 541.701 -2.24526 -3.50087 0
M  V30 5787 H 540.278 -0.425168 -3.70468 0
M  V30 5788 N 542.463 1.3308 -0.844243 0
M  V30 5789 C 543.71 1.97605 -0.44255 0
M  V30 5790 C 544.038 1.66856 0.999458 0
M  V30 5791 O 543.293 0.943586 1.7145 0
M  V30 5792 C 543.592 3.52045 -0.616354 0
M  V30 5793 C 543.258 4.02757 -2.02726 0
M  V30 5794 C 541.92 4.16316 -2.41317 0
M  V30 5795 C 544.272 4.29776 -2.9486 0
M  V30 5796 C 541.6 4.54232 -3.71335 0
M  V30 5797 C 543.952 4.69146 -4.24364 0
M  V30 5798 C 542.616 4.80911 -4.62904 0
M  V30 5799 H 541.886 0.723088 -0.161941 0
M  V30 5800 H 544.533 1.58663 -1.0723 0
M  V30 5801 H 542.838 3.91681 0.0966812 0
M  V30 5802 H 544.535 3.99981 -0.285756 0
M  V30 5803 H 541.125 3.9268 -1.71756 0
M  V30 5804 H 545.309 4.18818 -2.6628 0
M  V30 5805 H 540.565 4.61535 -4.00993 0
M  V30 5806 H 544.739 4.89008 -4.95827 0
M  V30 5807 H 542.366 5.10048 -5.63698 0
M  V30 5808 N 543.941 0.601185 1.45683 0
M  V30 5809 C 545.189 0.0936957 2.01883 0
M  V30 5810 C 545.51 -1.2779 1.47291 0
M  V30 5811 O 544.78 -1.84279 0.664691 0
M  V30 5812 H 543.36 0.0316466 0.746329 0
M  V30 5813 H 546.022 0.781137 1.78562 0
M  V30 5814 H 545.118 0.0386297 3.12076 0
M  V30 5815 N 545.419 -1.53889 0.339982 0
M  V30 5816 C 546.666 -2.00855 -0.257621 0
M  V30 5817 C 546.994 -1.22788 -1.50842 0
M  V30 5818 O 546.249 -0.302567 -1.93347 0
M  V30 5819 C 546.548 -3.51968 -0.620735 0
M  V30 5820 C 546.214 -4.47741 0.532771 0
M  V30 5821 C 544.876 -4.73645 0.849339 0
M  V30 5822 C 547.228 -5.04551 1.3068 0
M  V30 5823 C 544.556 -5.53614 1.94237 0
M  V30 5824 C 546.908 -5.85713 2.39005 0
M  V30 5825 C 545.572 -6.09912 2.71225 0
M  V30 5826 H 544.842 -0.734979 -0.0942703 0
M  V30 5827 H 547.489 -1.85714 0.467159 0
M  V30 5828 H 545.794 -3.64921 -1.42618 0
M  V30 5829 H 547.491 -3.85762 -1.09495 0
M  V30 5830 H 544.081 -4.27711 0.275973 0
M  V30 5831 H 548.265 -4.84507 1.07549 0
M  V30 5832 H 543.521 -5.7059 2.19628 0
M  V30 5833 H 547.695 -6.28748 2.99415 0
M  V30 5834 H 545.322 -6.71665 3.56047 0
M  V30 5835 N 546.897 -0.0685191 -1.57451 0
M  V30 5836 C 548.308 0.464634 -1.80826 0
M  V30 5837 C 548.659 1.69847 -0.982169 0
M  V30 5838 O 547.784 2.15439 -0.203734 0
M  V30 5839 C 548.379 0.849721 -3.27971 0
M  V30 5840 C 546.938 1.32776 -3.52204 0
M  V30 5841 C 546.085 0.311332 -2.75547 0
M  V30 5842 H 549.036 -0.294248 -1.55948 0
M  V30 5843 H 549.057 1.71138 -3.39841 0
M  V30 5844 H 548.569 -0.0484736 -3.8807 0
M  V30 5845 H 546.67 2.24456 -2.97406 0
M  V30 5846 H 546.783 1.30794 -4.60901 0
M  V30 5847 H 545.147 0.787915 -2.42206 0
M  V30 5848 H 545.93 -0.579078 -3.38381 0
M  V30 5849 N 548.375 1.56261 0.205012 0
M  V30 5850 C 549.791 1.49623 0.555433 0
M  V30 5851 C 549.991 0.766719 1.86343 0
M  V30 5852 O 549.047 0.313158 2.50551 0
M  V30 5853 C 550.36 2.94253 0.619347 0
M  V30 5854 C 551.908 3.04868 0.708855 0
M  V30 5855 C 552.383 4.50888 0.803969 0
M  V30 5856 N 553.874 4.54999 0.867758 0
M  V30 5857 C 554.609 5.65284 0.96135 0
M  V30 5858 N 554.105 6.85282 1.01786 0
M  V30 5859 N 555.898 5.53174 0.997771 0
M  V30 5860 H 548.049 2.0211 -0.653094 0
M  V30 5861 H 550.312 0.919333 -0.231366 0
M  V30 5862 H 550.018 3.50643 -0.272458 0
M  V30 5863 H 549.892 3.47063 1.47741 0
M  V30 5864 H 552.279 2.48532 1.5911 0
M  V30 5865 H 552.36 2.55199 -0.175205 0
M  V30 5866 H 552.004 5.07846 -0.0738798 0
M  V30 5867 H 551.934 4.98279 1.70369 0
M  V30 5868 H 554.425 3.68588 0.833735 0
M  V30 5869 H 554.738 7.65081 1.08951 0
M  V30 5870 H 553.083 6.8796 0.986706 0
M  V30 5871 H 556.274 4.5835 0.950392 0
M  V30 5872 H 556.447 6.39151 1.06725 0
M  V30 5873 N 549.853 -0.472356 1.50355 0
M  V30 5874 C 551.081 -1.24784 1.65035 0
M  V30 5875 C 551.496 -1.85837 0.333176 0
M  V30 5876 O 550.853 -1.69168 -0.68472 0
M  V30 5877 C 550.904 -2.35747 2.74054 0
M  V30 5878 O 550.625 -1.77197 4.00665 0
M  V30 5879 C 552.126 -3.26645 2.99696 0
M  V30 5880 H 549.346 -0.377432 0.554785 0
M  V30 5881 H 551.89 -0.563962 1.9657 0
M  V30 5882 H 550.045 -2.99912 2.45217 0
M  V30 5883 H 550.459 -2.5026 4.60945 0
M  V30 5884 H 551.933 -4.00718 3.79644 0
M  V30 5885 H 552.41 -3.8535 2.10718 0
M  V30 5886 H 553.016 -2.68218 3.3006 0
M  V30 5887 N 551.331 -1.39911 -0.725443 0
M  V30 5888 C 552.577 -1.37858 -1.48738 0
M  V30 5889 C 552.91 0.0224187 -1.94187 0
M  V30 5890 O 552.185 0.989204 -1.67466 0
M  V30 5891 C 552.468 -2.3594 -2.72038 0
M  V30 5892 C 552.321 -3.85023 -2.32546 0
M  V30 5893 C 553.64 -2.31704 -3.74167 0
M  V30 5894 H 550.759 -0.502074 -0.539528 0
M  V30 5895 H 553.401 -1.70974 -0.828728 0
M  V30 5896 H 551.551 -2.0783 -3.28236 0
M  V30 5897 H 553.223 -4.2392 -1.81905 0
M  V30 5898 H 551.466 -4.01334 -1.64661 0
M  V30 5899 H 552.137 -4.49152 -3.20884 0
M  V30 5900 H 554.613 -2.5658 -3.27576 0
M  V30 5901 H 553.489 -3.02395 -4.58092 0
M  V30 5902 H 553.75 -1.3253 -4.21768 0
M  V30 5903 N 552.809 0.956637 -1.25245 0
M  V30 5904 C 553.756 2.053 -1.05454 0
M  V30 5905 C 554.726 1.66062 0.0356889 0
M  V30 5906 O 555.911 1.90415 -0.121099 0
M  V30 5907 C 553.051 3.38391 -0.677191 0
M  V30 5908 C 552.164 3.90758 -1.84206 0
M  V30 5909 C 551.299 5.12165 -1.40926 0
M  V30 5910 C 550.338 5.56757 -2.54338 0
M  V30 5911 N 549.475 6.69376 -2.11848 0
M  V30 5912 H 554.315 2.21562 -1.99284 0
M  V30 5913 H 551.852 1.08578 -0.992434 0
M  V30 5914 H 553.81 4.1488 -0.43938 0
M  V30 5915 H 552.44 3.22021 0.224127 0
M  V30 5916 H 551.492 3.10808 -2.19323 0
M  V30 5917 H 552.804 4.19802 -2.69383 0
M  V30 5918 H 551.958 5.96065 -1.13098 0
M  V30 5919 H 550.697 4.84832 -0.528175 0
M  V30 5920 H 549.702 4.71423 -2.82913 0
M  V30 5921 H 550.927 5.861 -3.43022 0
M  V30 5922 H 548.873 6.43756 -1.26153 0
M  V30 5923 H 548.79 6.97927 -2.90574 0
M  V30 5924 H 550.058 7.5669 -1.87191 0
M  V30 5925 N 554.287 1.06798 1.15896 0
M  V30 5926 C 555.237 0.653213 2.18443 0
M  V30 5927 C 556.221 -0.318763 1.57711 0
M  V30 5928 O 557.413 -0.133388 1.76497 0
M  V30 5929 C 554.542 0.0465785 3.43268 0
M  V30 5930 C 553.628 1.04336 4.11066 0
M  V30 5931 N 554.019 2.22084 4.54436 0
M  V30 5932 C 552.317 0.875433 4.37324 0
M  V30 5933 C 553.018 2.85276 5.06944 0
M  V30 5934 N 551.994 2.12973 5.00143 0
M  V30 5935 H 555.796 1.55011 2.49698 0
M  V30 5936 H 553.31 0.940384 1.32403 0
M  V30 5937 H 555.307 -0.26843 4.16035 0
M  V30 5938 H 553.967 -0.845504 3.13499 0
M  V30 5939 H 554.978 2.59833 4.48004 0
M  V30 5940 H 551.655 0.0357721 4.17485 0
M  V30 5941 H 553.045 3.85223 5.50503 0
M  V30 5942 N 555.766 -1.3263 0.851289 0
M  V30 5943 C 557.015 -1.96633 0.449267 0
M  V30 5944 C 557.328 -1.68131 -0.999562 0
M  V30 5945 O 558.534 -2.25845 -1.50685 0
M  V30 5946 C 556.99 -3.51946 0.752446 0
M  V30 5947 C 556.598 -3.89311 2.21678 0
M  V30 5948 C 558.342 -4.22437 0.417983 0
M  V30 5949 C 556.249 -5.37655 2.46336 0
M  V30 5950 H 555.179 -0.735888 0.164269 0
M  V30 5951 H 557.83 -1.51073 1.0416 0
M  V30 5952 H 556.212 -3.95899 0.0895858 0
M  V30 5953 H 557.386 -3.56378 2.92115 0
M  V30 5954 H 555.701 -3.31836 2.51543 0
M  V30 5955 H 558.298 -5.31549 0.579674 0
M  V30 5956 H 558.641 -4.11349 -0.640115 0
M  V30 5957 H 559.174 -3.84057 1.03659 0
M  V30 5958 H 555.913 -5.5376 3.50757 0
M  V30 5959 H 555.433 -5.72005 1.80473 0
M  V30 5960 H 557.112 -6.04695 2.30115 0
M  V30 5961 N 557.244 -0.608902 -1.45362 0
M  V30 5962 C 558.521 -0.0365378 -1.95566 0
M  V30 5963 C 558.901 1.43169 -1.55131 0
M  V30 5964 O 558.249 2.1349 -0.814513 0
M  V30 5965 C 558.459 -0.236026 -3.48201 0
M  V30 5966 C 559.807 -0.117518 -4.24437 0
M  V30 5967 O 560.831 -0.166217 -3.55812 0
M  V30 5968 O 559.69 -0.00372127 -5.465 0
M  V30 5969 H 556.784 0.0349874 -0.82626 0
M  V30 5970 H 559.33 -0.679055 -1.55521 0
M  V30 5971 H 558.102 -1.25569 -3.70605 0
M  V30 5972 H 557.725 0.441691 -3.95139 0
M  V30 5973 N 558.722 1.53707 -0.348139 0
M  V30 5974 C 559.685 2.23812 0.494058 0
M  V30 5975 C 560.685 1.23989 1.02388 0
M  V30 5976 O 561.875 1.48395 0.912396 0
M  V30 5977 C 559.007 2.96133 1.68872 0
M  V30 5978 H 560.2 2.99663 -0.119141 0
M  V30 5979 H 557.753 1.55983 -0.0995539 0
M  V30 5980 H 558.488 2.24481 2.34049 0
M  V30 5981 H 558.273 3.69357 1.31596 0
M  V30 5982 H 559.763 3.49475 2.28597 0
M  V30 5983 N 560.2 0.0768682 1.57412 0
M  V30 5984 C 561.163 -0.873949 2.11884 0
M  V30 5985 C 562.163 -1.22301 1.04398 0
M  V30 5986 O 563.353 -1.15545 1.30365 0
M  V30 5987 C 560.485 -2.17575 2.62438 0
M  V30 5988 H 561.678 -0.401278 2.97203 0
M  V30 5989 H 559.231 -0.171904 1.55352 0
M  V30 5990 H 559.966 -2.69368 1.80587 0
M  V30 5991 H 559.751 -1.93534 3.41009 0
M  V30 5992 H 561.241 -2.85631 3.04639 0
M  V30 5993 N 561.678 -1.56367 -0.196722 0
M  V30 5994 C 562.608 -1.97442 -1.24655 0
M  V30 5995 C 563.589 -0.846147 -1.47561 0
M  V30 5996 O 564.774 -1.11035 -1.59326 0
M  V30 5997 C 561.904 -2.31253 -2.59112 0
M  V30 5998 C 560.858 -3.46804 -2.50821 0
M  V30 5999 C 560.184 -3.66286 -3.89536 0
M  V30 6000 C 561.484 -4.8104 -2.03465 0
M  V30 6001 H 563.178 -2.85388 -0.905216 0
M  V30 6002 H 560.724 -1.37304 -0.434002 0
M  V30 6003 H 562.677 -2.58583 -3.32736 0
M  V30 6004 H 561.401 -1.40188 -2.94983 0
M  V30 6005 H 560.06 -3.19563 -1.79653 0
M  V30 6006 H 559.708 -2.72555 -4.22756 0
M  V30 6007 H 559.408 -4.4402 -3.84864 0
M  V30 6008 H 560.932 -3.9599 -4.64784 0
M  V30 6009 H 562.346 -5.07411 -2.66846 0
M  V30 6010 H 560.743 -5.62232 -2.09798 0
M  V30 6011 H 561.813 -4.74732 -0.98781 0
M  V30 6012 N 563.156 0.464375 -1.50603 0
M  V30 6013 C 564.381 1.24372 -1.65971 0
M  V30 6014 C 564.806 1.84901 -0.345453 0
M  V30 6015 O 564.164 1.67596 0.691457 0
M  V30 6016 C 564.212 2.32331 -2.7578 0
M  V30 6017 O 563.316 3.37146 -2.375 0
M  V30 6018 H 562.657 0.365604 -0.554283 0
M  V30 6019 H 565.187 0.55183 -1.97018 0
M  V30 6020 H 565.197 2.77539 -2.99059 0
M  V30 6021 H 563.872 1.87648 -3.71162 0
M  V30 6022 H 562.449 2.97602 -2.24694 0
M  V30 6023 N 564.634 1.40294 0.718013 0
M  V30 6024 C 565.544 1.42678 1.86226 0
M  V30 6025 C 566.56 0.319655 1.71039 0
M  V30 6026 O 567.736 0.563852 1.93346 0
M  V30 6027 C 564.801 1.2852 3.21999 0
M  V30 6028 C 563.862 2.49354 3.49458 0
M  V30 6029 C 563.095 2.35863 4.78753 0
M  V30 6030 O 563.318 1.37114 5.53675 0
M  V30 6031 O 562.252 3.25189 5.06494 0
M  V30 6032 H 566.078 2.39167 1.87171 0
M  V30 6033 H 563.663 1.2159 0.868112 0
M  V30 6034 H 565.545 1.22824 4.03103 0
M  V30 6035 H 564.22 0.351359 3.21787 0
M  V30 6036 H 563.127 2.60628 2.68373 0
M  V30 6037 H 564.46 3.41491 3.54464 0
M  V30 6038 N 566.112 -0.949982 1.2575 0
M  V30 6039 C 567.022 -2.08109 1.08295 0
M  V30 6040 C 568.038 -1.7399 0.0188181 0
M  V30 6041 O 569.214 -2.00187 0.220724 0
M  V30 6042 C 566.279 -3.39383 0.708534 0
M  V30 6043 C 565.34 -3.8734 1.85111 0
M  V30 6044 C 564.573 -5.12349 1.49447 0
M  V30 6045 O 564.796 -5.6905 0.392212 0
M  V30 6046 O 563.73 -5.5513 2.32624 0
M  V30 6047 H 567.556 -2.25738 2.03165 0
M  V30 6048 H 565.141 -1.06545 1.04731 0
M  V30 6049 H 567.023 -4.18277 0.512061 0
M  V30 6050 H 565.698 -3.23013 -0.210854 0
M  V30 6051 H 564.605 -3.09429 2.10248 0
M  V30 6052 H 565.938 -4.08216 2.74991 0
M  V30 6053 N 567.59 -1.07411 -1.15328 0
M  V30 6054 C 568.538 -0.689316 -2.22151 0
M  V30 6055 C 569.532 0.300156 -1.6672 0
M  V30 6056 O 570.738 0.163804 -1.79253 0
M  V30 6057 H 567.113 -0.204834 -0.723566 0
M  V30 6058 H 569.084 -1.59988 -2.51886 0
M  V30 6059 C 567.833 -0.103848 -3.47545 0
M  V30 6060 H 567.156 -0.856367 -3.90521 0
M  V30 6061 H 568.596 0.127725 -4.23808 0
M  V30 6062 C 567.055 1.15563 -3.1646 0
M  V30 6063 O 567.585 2.242 -3.33312 0
M  V30 6064 N 565.791 1.06203 -2.70498 0
M  V30 6065 H 565.338 0.177933 -2.56985 0
M  V30 6066 H 565.296 1.90553 -2.50074 0
M  V30 6067 N 569.068 1.32177 -0.85831 0
M  V30 6068 C 570.296 2.01313 -0.477582 0
M  V30 6069 C 570.711 1.6449 0.926736 0
M  V30 6070 O 570.068 0.868096 1.60531 0
M  V30 6071 C 570.119 3.56293 -0.611337 0
M  V30 6072 O 569.84 3.91794 -1.96034 0
M  V30 6073 C 571.341 4.42702 -0.230093 0
M  V30 6074 H 568.561 0.644323 -0.187322 0
M  V30 6075 H 571.105 1.68674 -1.15626 0
M  V30 6076 H 569.26 3.87395 0.0196494 0
M  V30 6077 H 569.674 4.86513 -1.95973 0
M  V30 6078 H 571.148 5.50727 -0.374674 0
M  V30 6079 H 571.625 4.3129 0.829779 0
M  V30 6080 H 572.231 4.16997 -0.836302 0
M  V30 6081 N 570.547 0.616602 1.45037 0
M  V30 6082 C 571.795 0.115103 2.01772 0
M  V30 6083 C 572.116 -1.2622 1.48639 0
M  V30 6084 O 571.386 -1.83563 0.684199 0
M  V30 6085 H 569.966 0.0395607 0.745952 0
M  V30 6086 H 572.628 0.800032 1.77723 0
M  V30 6087 H 571.724 0.0717274 3.12018 0
M  V30 6088 N 572.025 -1.5352 0.356285 0
M  V30 6089 C 572.972 -2.25439 -0.494569 0
M  V30 6090 C 573.942 -1.25752 -1.08516 0
M  V30 6091 O 575.127 -1.54513 -1.1194 0
M  V30 6092 C 572.267 -3.04011 -1.63313 0
M  V30 6093 C 571.38 -4.18574 -1.06862 0
M  V30 6094 C 570.515 -4.84607 -2.17552 0
M  V30 6095 C 569.554 -5.91218 -1.58518 0
M  V30 6096 N 568.691 -6.50979 -2.63003 0
M  V30 6097 H 573.531 -2.97737 0.125244 0
M  V30 6098 H 571.068 -1.46916 0.0735789 0
M  V30 6099 H 573.026 -3.47834 -2.30363 0
M  V30 6100 H 571.656 -2.33986 -2.22374 0
M  V30 6101 H 570.708 -3.79303 -0.288672 0
M  V30 6102 H 572.02 -4.95215 -0.596924 0
M  V30 6103 H 571.174 -5.31566 -2.92442 0
M  V30 6104 H 569.913 -4.07418 -2.6807 0
M  V30 6105 H 568.918 -5.4363 -0.821391 0
M  V30 6106 H 570.143 -6.70322 -1.08836 0
M  V30 6107 H 568.089 -5.76648 -3.12751 0
M  V30 6108 H 568.006 -7.23131 -2.20493 0
M  V30 6109 H 569.274 -7.02589 -3.37623 0
M  V30 6110 N 573.503 -0.0852151 -1.57369 0
M  V30 6111 C 574.731 0.58946 -1.98325 0
M  V30 6112 C 575.146 1.62333 -0.96403 0
M  V30 6113 O 574.503 1.82438 0.0476395 0
M  V30 6114 C 574.554 1.24604 -3.39347 0
M  V30 6115 O 574.275 0.253532 -4.37366 0
M  V30 6116 C 575.776 2.00726 -3.95252 0
M  V30 6117 H 572.996 0.158783 -0.651942 0
M  V30 6118 H 575.54 -0.161584 -2.03861 0
M  V30 6119 H 573.695 1.94808 -3.34856 0
M  V30 6120 H 574.109 0.726207 -5.19448 0
M  V30 6121 H 575.583 2.42039 -4.96106 0
M  V30 6122 H 576.06 2.86919 -3.32527 0
M  V30 6123 H 576.666 1.3536 -4.03185 0
M  V30 6124 N 574.981 1.5647 0.188427 0
M  V30 6125 C 576.211 1.84863 0.922463 0
M  V30 6126 C 576.619 0.666413 1.77075 0
M  V30 6127 O 575.962 -0.374044 1.79852 0
M  V30 6128 C 576.024 3.07447 1.86324 0
M  V30 6129 C 575.688 4.41066 1.19625 0
M  V30 6130 C 576.685 5.16767 0.569946 0
M  V30 6131 C 574.37 4.87802 1.19811 0
M  V30 6132 C 576.364 6.37384 -0.045594 0
M  V30 6133 C 574.051 6.08353 0.57874 0
M  V30 6134 C 575.049 6.82987 -0.0420259 0
M  V30 6135 O 574.737 8.01254 -0.651675 0
M  V30 6136 H 574.469 0.61784 0.274316 0
M  V30 6137 H 577.023 2.04437 0.198613 0
M  V30 6138 H 575.253 2.83774 2.62696 0
M  V30 6139 H 576.942 3.2243 2.46564 0
M  V30 6140 H 577.708 4.81749 0.560601 0
M  V30 6141 H 573.587 4.29662 1.67069 0
M  V30 6142 H 577.131 6.95578 -0.530731 0
M  V30 6143 H 573.028 6.42838 0.58561 0
M  V30 6144 H 573.796 8.16655 -0.549236 0
M  V30 6145 N 576.459 -0.456382 1.50847 0
M  V30 6146 C 577.706 -1.20736 1.62571 0
M  V30 6147 C 578.034 -1.9163 0.332904 0
M  V30 6148 O 577.289 -1.8343 -0.682058 0
M  V30 6149 C 577.588 -2.26336 2.76599 0
M  V30 6150 C 577.254 -1.7259 4.16562 0
M  V30 6151 C 575.916 -1.57654 4.54641 0
M  V30 6152 C 578.268 -1.32877 5.03977 0
M  V30 6153 C 575.596 -1.0145 5.77862 0
M  V30 6154 C 577.948 -0.7811 6.27759 0
M  V30 6155 C 576.612 -0.618488 6.64628 0
M  V30 6156 H 575.882 -0.441803 0.594888 0
M  V30 6157 H 578.529 -0.501169 1.84826 0
M  V30 6158 H 576.834 -3.0292 2.48489 0
M  V30 6159 H 578.531 -2.84227 2.82871 0
M  V30 6160 H 575.121 -1.85187 3.86528 0
M  V30 6161 H 579.305 -1.43245 4.75179 0
M  V30 6162 H 574.561 -0.876109 6.0509 0
M  V30 6163 H 578.735 -0.464783 6.94847 0
M  V30 6164 H 576.362 -0.180838 7.59985 0
M  V30 6165 N 577.937 -1.40673 -0.710563 0
M  V30 6166 C 579.184 -1.39222 -1.47049 0
M  V30 6167 C 579.512 0.0037691 -1.945 0
M  V30 6168 O 578.767 0.989224 -1.68857 0
M  V30 6169 C 579.066 -2.33253 -2.70791 0
M  V30 6170 C 578.732 -3.80406 -2.42079 0
M  V30 6171 C 577.394 -4.20496 -2.33959 0
M  V30 6172 C 579.746 -4.73375 -2.18094 0
M  V30 6173 C 577.074 -5.51584 -1.99929 0
M  V30 6174 C 579.426 -6.04768 -1.85576 0
M  V30 6175 C 578.09 -6.43895 -1.75941 0
M  V30 6176 H 577.36 -0.509449 -0.538092 0
M  V30 6177 H 580.007 -1.73363 -0.81348 0
M  V30 6178 H 578.312 -1.92314 -3.41354 0
M  V30 6179 H 580.009 -2.29412 -3.28894 0
M  V30 6180 H 576.599 -3.48645 -2.49288 0
M  V30 6181 H 580.783 -4.43217 -2.23321 0
M  V30 6182 H 576.039 -5.80797 -1.91011 0
M  V30 6183 H 580.213 -6.76318 -1.66033 0
M  V30 6184 H 577.84 -7.45387 -1.4934 0
M  V30 6185 N 579.415 0.9433 -1.26252 0
M  V30 6186 C 580.661 1.69175 -1.11837 0
M  V30 6187 C 580.994 1.91238 0.337891 0
M  V30 6188 O 580.269 1.49152 1.24836 0
M  V30 6189 C 580.552 3.06783 -1.88563 0
M  V30 6190 C 580.405 2.9206 -3.42083 0
M  V30 6191 C 581.724 4.06865 -1.67776 0
M  V30 6192 H 578.843 0.61399 -0.407658 0
M  V30 6193 H 581.485 1.09572 -1.55222 0
M  V30 6194 H 579.635 3.57663 -1.51689 0
M  V30 6195 H 581.307 2.48419 -3.88698 0
M  V30 6196 H 579.55 2.27731 -3.69217 0
M  V30 6197 H 580.221 3.89651 -3.90994 0
M  V30 6198 H 582.697 3.64939 -1.99897 0
M  V30 6199 H 581.573 5.01168 -2.23879 0
M  V30 6200 H 581.834 4.37705 -0.621816 0
M  V30 6201 N 580.893 1.08022 1.14757 0
M  V30 6202 C 581.856 0.71048 2.1791 0
M  V30 6203 C 582.856 -0.252731 1.58801 0
M  V30 6204 O 584.046 -0.0327915 1.74169 0
M  V30 6205 C 581.178 0.0483203 3.40866 0
M  V30 6206 H 582.371 1.62384 2.52134 0
M  V30 6207 H 579.924 0.877595 1.29337 0
M  V30 6208 H 580.659 -0.876959 3.12218 0
M  V30 6209 H 580.444 0.741189 3.85031 0
M  V30 6210 H 581.934 -0.195471 4.17142 0
M  V30 6211 N 582.371 -1.3172 0.865308 0
M  V30 6212 C 583.319 -2.30569 0.306674 0
M  V30 6213 C 584.313 -1.59317 -0.575724 0
M  V30 6214 O 585.519 -1.73961 -0.462343 0
M  V30 6215 H 581.894 -0.747681 0.0804834 0
M  V30 6216 H 583.865 -2.75165 1.15441 0
M  V30 6217 C 582.614 -3.44358 -0.480952 0
M  V30 6218 H 581.937 -3.99354 0.18876 0
M  V30 6219 H 583.377 -4.15652 -0.837241 0
M  V30 6220 C 581.836 -2.92574 -1.67039 0
M  V30 6221 O 582.366 -2.90954 -2.76964 0
M  V30 6222 N 580.572 -2.48835 -1.50097 0
M  V30 6223 H 580.119 -2.50353 -0.606738 0
M  V30 6224 H 580.077 -2.14543 -2.29823 0
M  V30 6225 N 583.85 -0.624285 -1.44708 0
M  V30 6226 C 584.797 0.0847135 -2.30644 0
M  V30 6227 C 585.767 0.843575 -1.43084 0
M  V30 6228 O 586.952 0.825982 -1.71995 0
M  V30 6229 C 584.091 1.06495 -3.28257 0
M  V30 6230 C 583.205 0.305224 -4.3092 0
M  V30 6231 C 582.34 1.27667 -5.1563 0
M  V30 6232 C 581.379 0.505706 -6.10007 0
M  V30 6233 N 580.516 1.42727 -6.8744 0
M  V30 6234 H 585.356 -0.654068 -2.90733 0
M  V30 6235 H 582.893 -0.334334 -1.4325 0
M  V30 6236 H 584.851 1.64658 -3.83332 0
M  V30 6237 H 583.481 1.77094 -2.69884 0
M  V30 6238 H 582.533 -0.392207 -3.78373 0
M  V30 6239 H 583.845 -0.295553 -4.97924 0
M  V30 6240 H 582.999 1.92984 -5.75189 0
M  V30 6241 H 581.738 1.91137 -4.48685 0
M  V30 6242 H 580.743 -0.160999 -5.49564 0
M  V30 6243 H 581.968 -0.124183 -6.78986 0
M  V30 6244 H 579.913 2.04931 -6.23169 0
M  V30 6245 H 579.831 0.880345 -7.50857 0
M  V30 6246 H 581.099 2.0695 -7.51526 0
M  V30 6247 N 585.328 1.53329 -0.364422 0
M  V30 6248 C 586.558 2.05359 0.226096 0
M  V30 6249 C 586.966 1.23777 1.43094 0
M  V30 6250 O 586.309 0.271139 1.81688 0
M  V30 6251 C 586.371 3.52918 0.684794 0
M  V30 6252 C 586.035 4.55218 -0.403206 0
M  V30 6253 C 587.032 5.04583 -1.2527 0
M  V30 6254 C 584.717 4.99134 -0.563117 0
M  V30 6255 C 586.711 5.96463 -2.24745 0
M  V30 6256 C 584.398 5.9082 -1.56124 0
M  V30 6257 C 585.396 6.39375 -2.40184 0
M  V30 6258 O 585.084 7.29255 -3.38293 0
M  V30 6259 H 584.816 0.674588 0.0436772 0
M  V30 6260 H 587.37 1.98688 -0.520782 0
M  V30 6261 H 585.6 3.57122 1.48326 0
M  V30 6262 H 587.289 3.87812 1.19818 0
M  V30 6263 H 588.055 4.71403 -1.14034 0
M  V30 6264 H 583.934 4.60928 0.0813909 0
M  V30 6265 H 587.478 6.34285 -2.90393 0
M  V30 6266 H 583.375 6.23414 -1.67407 0
M  V30 6267 H 584.143 7.47249 -3.34009 0
M  V30 6268 N 586.806 0.0935595 1.57322 0
M  V30 6269 C 588.052 -0.565234 1.95388 0
M  V30 6270 C 588.407 -1.65888 0.974632 0
M  V30 6271 O 587.7 -1.916 0.000376385 0
M  V30 6272 C 587.894 -1.16692 3.37813 0
M  V30 6273 C 587.723 -0.133091 4.49503 0
M  V30 6274 C 586.493 0.289884 5.04468 0
M  V30 6275 C 588.691 0.638141 5.10326 0
M  V30 6276 N 586.673 1.31214 5.99713 0
M  V30 6277 C 588.044 1.51227 6.01274 0
M  V30 6278 C 590.099 0.691827 4.9307 0
M  V30 6279 C 588.802 2.43536 6.76818 0
M  V30 6280 C 590.828 1.60251 5.69274 0
M  V30 6281 C 590.19 2.46427 6.59889 0
M  V30 6282 H 586.289 -0.177212 0.761656 0
M  V30 6283 H 588.873 0.175769 1.93905 0
M  V30 6284 H 587.044 -1.87775 3.39993 0
M  V30 6285 H 588.776 -1.78795 3.63063 0
M  V30 6286 H 585.531 -0.0975541 4.735 0
M  V30 6287 H 585.955 1.82143 6.52038 0
M  V30 6288 H 590.597 0.0397431 4.22781 0
M  V30 6289 H 588.315 3.0977 7.4637 0
M  V30 6290 H 591.901 1.64917 5.57937 0
M  V30 6291 H 590.781 3.15751 7.17824 0
M  V30 6292 N 588.284 -1.56567 -0.180126 0
M  V30 6293 C 589.7 -1.50488 -0.531559 0
M  V30 6294 C 589.9 -0.796267 -1.851 0
M  V30 6295 O 588.956 -0.352978 -2.50021 0
M  V30 6296 C 590.269 -2.95201 -0.572456 0
M  V30 6297 C 591.817 -3.05957 -0.660264 0
M  V30 6298 C 592.292 -4.5211 -0.732135 0
M  V30 6299 N 593.783 -4.56322 -0.795262 0
M  V30 6300 C 594.518 -5.66742 -0.871296 0
M  V30 6301 N 594.014 -6.86815 -0.908708 0
M  V30 6302 N 595.807 -5.54691 -0.909639 0
M  V30 6303 H 587.958 -2.01045 0.685165 0
M  V30 6304 H 590.221 -0.915536 0.245962 0
M  V30 6305 H 589.927 -3.50165 0.328208 0
M  V30 6306 H 589.801 -3.49369 -1.422 0
M  V30 6307 H 592.188 -2.51032 -1.55136 0
M  V30 6308 H 592.269 -2.54888 0.215783 0
M  V30 6309 H 591.913 -5.07664 0.154664 0
M  V30 6310 H 591.843 -5.00926 -1.6242 0
M  V30 6311 H 594.334 -3.69868 -0.77499 0
M  V30 6312 H 594.647 -7.66718 -0.967654 0
M  V30 6313 H 592.992 -6.89443 -0.877132 0
M  V30 6314 H 596.183 -4.59804 -0.877353 0
M  V30 6315 H 596.356 -6.40768 -0.965434 0
M  V30 6316 N 589.762 0.448376 -1.51087 0
M  V30 6317 C 590.992 1.21965 -1.66757 0
M  V30 6318 C 591.4 1.85748 -0.359753 0
M  V30 6319 O 590.743 1.71022 0.670604 0
M  V30 6320 C 590.805 2.35284 -2.71812 0
M  V30 6321 C 590.469 1.91957 -4.1473 0
M  V30 6322 C 591.466 1.42921 -4.9987 0
M  V30 6323 C 589.151 1.99985 -4.60772 0
M  V30 6324 C 591.145 1.02485 -6.29107 0
M  V30 6325 C 588.832 1.5916 -5.90009 0
M  V30 6326 C 589.83 1.10491 -6.74004 0
M  V30 6327 O 589.518 0.702413 -8.00825 0
M  V30 6328 H 589.25 0.374125 -0.563034 0
M  V30 6329 H 591.804 0.538927 -1.98204 0
M  V30 6330 H 590.034 3.06599 -2.35657 0
M  V30 6331 H 591.723 2.97184 -2.76472 0
M  V30 6332 H 592.489 1.36123 -4.65506 0
M  V30 6333 H 588.368 2.36814 -3.95525 0
M  V30 6334 H 591.912 0.644271 -6.94619 0
M  V30 6335 H 587.809 1.65626 -6.2389 0
M  V30 6336 H 588.577 0.829248 -8.14288 0
M  V30 6337 N 591.24 1.41047 0.703093 0
M  V30 6338 C 592.517 1.30493 1.45708 0
M  V30 6339 C 592.897 -0.0709892 2.10981 0
M  V30 6340 O 592.245 -1.08471 2.01113 0
M  V30 6341 C 592.455 2.45287 2.48265 0
M  V30 6342 C 593.803 2.86104 3.13735 0
M  V30 6343 O 594.827 2.44971 2.58587 0
M  V30 6344 O 593.686 3.57206 4.13601 0
M  V30 6345 H 590.78 0.513144 0.648546 0
M  V30 6346 H 593.326 1.52995 0.734208 0
M  V30 6347 H 592.098 3.37135 1.98635 0
M  V30 6348 H 591.721 2.24622 3.28071 0
M  V30 6349 N 592.718 -0.936591 1.26751 0
M  V30 6350 C 593.628 -2.06949 1.10496 0
M  V30 6351 C 594.644 -1.7396 0.037271 0
M  V30 6352 O 595.82 -1.99941 0.241944 0
M  V30 6353 C 592.885 -3.38612 0.744491 0
M  V30 6354 C 591.946 -3.85355 1.89209 0
M  V30 6355 C 591.179 -5.10735 1.54873 0
M  V30 6356 O 591.402 -5.68602 0.452546 0
M  V30 6357 O 590.336 -5.52632 2.38499 0
M  V30 6358 H 594.162 -2.23571 2.05547 0
M  V30 6359 H 591.747 -1.05428 1.05855 0
M  V30 6360 H 593.629 -4.17711 0.556396 0
M  V30 6361 H 592.304 -3.23218 -0.176582 0
M  V30 6362 H 591.211 -3.07182 2.13518 0
M  V30 6363 H 592.544 -4.05277 2.79305 0
M  V30 6364 N 594.196 -1.08629 -1.14182 0
M  V30 6365 C 595.426 -0.837673 -1.88856 0
M  V30 6366 C 595.834 0.614024 -1.78959 0
M  V30 6367 O 595.177 1.43384 -1.14833 0
M  V30 6368 C 595.239 -1.18355 -3.39459 0
M  V30 6369 C 594.903 -2.63848 -3.73139 0
M  V30 6370 C 595.9 -3.62099 -3.73069 0
M  V30 6371 C 593.585 -2.99761 -4.03049 0
M  V30 6372 C 595.579 -4.94292 -4.02435 0
M  V30 6373 C 593.266 -4.32147 -4.32078 0
M  V30 6374 C 594.264 -5.29223 -4.31755 0
M  V30 6375 O 593.952 -6.59229 -4.60079 0
M  V30 6376 H 593.684 -0.301609 -0.604986 0
M  V30 6377 H 596.238 -1.44961 -1.45518 0
M  V30 6378 H 594.468 -0.514628 -3.8326 0
M  V30 6379 H 596.157 -0.915391 -3.95443 0
M  V30 6380 H 596.923 -3.35698 -3.50046 0
M  V30 6381 H 592.802 -2.2484 -4.02453 0
M  V30 6382 H 596.346 -5.70055 -4.02098 0
M  V30 6383 H 592.243 -4.58296 -4.54571 0
M  V30 6384 H 593.011 -6.64578 -4.77785 0
M  V30 6385 N 595.674 1.31259 -0.872281 0
M  V30 6386 C 596.621 2.28459 -0.327857 0
M  V30 6387 C 597.591 1.55831 0.574957 0
M  V30 6388 O 598.776 1.83965 0.506101 0
M  V30 6389 C 595.916 3.41985 0.462644 0
M  V30 6390 C 595.029 4.29458 -0.467949 0
M  V30 6391 C 594.164 5.30131 0.336903 0
M  V30 6392 C 593.203 6.0925 -0.58997 0
M  V30 6393 N 592.34 7.01872 0.178775 0
M  V30 6394 H 597.18 2.74414 -1.16193 0
M  V30 6395 H 594.717 1.34994 -0.584376 0
M  V30 6396 H 596.675 4.06547 0.936759 0
M  V30 6397 H 595.305 2.97134 1.2614 0
M  V30 6398 H 594.357 3.65318 -1.06052 0
M  V30 6399 H 595.669 4.84677 -1.17856 0
M  V30 6400 H 594.823 6.0038 0.873427 0
M  V30 6401 H 593.562 4.75573 1.08079 0
M  V30 6402 H 592.567 5.37889 -1.13823 0
M  V30 6403 H 593.792 6.65894 -1.33275 0
M  V30 6404 H 591.738 6.49721 0.905435 0
M  V30 6405 H 591.655 7.54522 -0.472452 0
M  V30 6406 H 592.923 7.76382 0.696454 0
M  V30 6407 N 597.152 0.631951 1.44375 0
M  V30 6408 C 598.568 0.297642 1.568 0
M  V30 6409 C 598.768 -1.19916 1.61934 0
M  V30 6410 O 597.824 -1.98324 1.56281 0
M  V30 6411 C 599.137 0.990286 2.83926 0
M  V30 6412 C 600.685 0.968507 2.97639 0
M  V30 6413 C 601.16 1.64163 4.27568 0
M  V30 6414 N 602.651 1.60826 4.34384 0
M  V30 6415 C 603.386 2.09802 5.33639 0
M  V30 6416 N 602.882 2.66973 6.39294 0
M  V30 6417 N 604.675 2.00426 5.25153 0
M  V30 6418 H 596.826 1.60353 1.39286 0
M  V30 6419 H 599.089 0.673142 0.667521 0
M  V30 6420 H 598.795 2.04519 2.8612 0
M  V30 6421 H 598.669 0.528563 3.73478 0
M  V30 6422 H 601.056 -0.0779247 2.94997 0
M  V30 6423 H 601.137 1.46873 2.09433 0
M  V30 6424 H 600.781 2.68752 4.3097 0
M  V30 6425 H 600.711 1.11624 5.14634 0
M  V30 6426 H 603.202 1.19087 3.58646 0
M  V30 6427 H 603.515 3.02074 7.11316 0
M  V30 6428 H 601.86 2.71024 6.39977 0
M  V30 6429 H 605.051 1.55483 4.41523 0
M  V30 6430 H 605.224 2.38906 6.02352 0
M  V30 6431 N 598.631 -1.53133 0.372548 0
M  V30 6432 C 599.856 -2.0625 -0.218098 0
M  V30 6433 C 600.281 -1.24375 -1.41111 0
M  V30 6434 O 599.639 -0.264554 -1.79359 0
M  V30 6435 C 599.687 -3.55858 -0.582876 0
M  V30 6436 O 598.791 -3.76667 -1.67917 0
M  V30 6437 H 598.132 -0.663317 -0.030104 0
M  V30 6438 H 600.662 -1.97477 0.535169 0
M  V30 6439 H 600.672 -3.99007 -0.851925 0
M  V30 6440 H 599.347 -4.14892 0.289428 0
M  V30 6441 H 597.924 -3.45413 -1.40513 0
M  V30 6442 N 600.109 -0.101901 -1.5727 0
M  V30 6443 C 601.042 0.891377 -2.10071 0
M  V30 6444 C 602.02 1.27197 -1.01291 0
M  V30 6445 O 603.204 1.37602 -1.28833 0
M  V30 6446 C 600.331 2.19049 -2.58331 0
M  V30 6447 C 599.377 1.95925 -3.78834 0
M  V30 6448 S 600.21 1.19106 -5.22086 0
M  V30 6449 C 601.366 2.50234 -5.73702 0
M  V30 6450 H 601.599 0.442212 -2.93993 0
M  V30 6451 H 599.132 0.111529 -1.53997 0
M  V30 6452 H 601.09 2.937 -2.86793 0
M  V30 6453 H 599.751 2.61086 -1.74622 0
M  V30 6454 H 598.944 2.92143 -4.10693 0
M  V30 6455 H 598.546 1.29401 -3.50901 0
M  V30 6456 H 600.838 3.46173 -5.82384 0
M  V30 6457 H 601.781 2.22944 -6.72088 0
M  V30 6458 H 602.189 2.58818 -5.01671 0
M  V30 6459 N 601.587 1.56661 0.17182 0
M  V30 6460 C 602.864 1.72838 0.915778 0
M  V30 6461 C 603.244 0.66316 2.00413 0
M  V30 6462 O 602.592 -0.322123 2.26218 0
M  V30 6463 C 602.802 3.16019 1.48097 0
M  V30 6464 C 604.15 3.76962 1.95408 0
M  V30 6465 O 605.174 3.19294 1.57892 0
M  V30 6466 O 604.033 4.78219 2.64516 0
M  V30 6467 H 601.127 0.705797 0.431021 0
M  V30 6468 H 603.673 1.68947 0.159689 0
M  V30 6469 H 602.445 3.85031 0.697618 0
M  V30 6470 H 602.068 3.24234 2.30126 0
M  V30 6471 N 603.065 -0.440357 1.51323 0
M  V30 6472 C 604.476 -1.02032 1.56353 0
M  V30 6473 C 604.827 -1.92382 0.385197 0
M  V30 6474 O 603.952 -2.10583 -0.498373 0
M  V30 6475 C 604.547 -1.85723 2.83359 0
M  V30 6476 C 603.106 -2.38774 2.90971 0
M  V30 6477 C 602.253 -1.17908 2.50984 0
M  V30 6478 H 605.204 -0.221744 1.57143 0
M  V30 6479 H 605.225 -2.71141 2.66951 0
M  V30 6480 H 604.737 -1.19939 3.69102 0
M  V30 6481 H 602.838 -3.08021 2.09651 0
M  V30 6482 H 602.951 -2.71778 3.94555 0
M  V30 6483 H 601.315 -1.52347 2.04114 0
M  V30 6484 H 602.098 -0.537393 3.39068 0
M  V30 6485 N 604.543 -1.41418 -0.695603 0
M  V30 6486 C 605.791 -1.40496 -1.45277 0
M  V30 6487 C 606.112 -0.0149538 -1.94994 0
M  V30 6488 O 605.382 0.9432 -1.71699 0
M  V30 6489 H 603.962 -0.517147 -0.539044 0
M  V30 6490 H 606.624 -1.76656 -0.823321 0
M  V30 6491 H 605.72 -2.09214 -2.31595 0
M  V30 6492 N 606.021 0.929856 -1.27246 0
M  V30 6493 C 607.251 1.70895 -1.16096 0
M  V30 6494 C 607.659 1.87039 0.285122 0
M  V30 6495 O 607.002 1.38557 1.20614 0
M  V30 6496 C 607.064 3.12919 -1.7698 0
M  V30 6497 C 606.728 3.2012 -3.26148 0
M  V30 6498 C 607.725 3.02533 -4.22812 0
M  V30 6499 C 605.41 3.43148 -3.66817 0
M  V30 6500 C 607.404 3.07861 -5.58122 0
M  V30 6501 C 605.091 3.48109 -5.02258 0
M  V30 6502 C 606.089 3.30483 -5.97721 0
M  V30 6503 O 605.777 3.35175 -7.30694 0
M  V30 6504 H 605.509 0.54152 -0.404639 0
M  V30 6505 H 608.063 1.17342 -1.68582 0
M  V30 6506 H 606.293 3.67945 -1.18969 0
M  V30 6507 H 607.982 3.72787 -1.60576 0
M  V30 6508 H 608.748 2.84586 -3.92728 0
M  V30 6509 H 604.627 3.55918 -2.9299 0
M  V30 6510 H 608.171 2.94021 -6.32612 0
M  V30 6511 H 604.068 3.65579 -5.31998 0
M  V30 6512 H 604.836 3.51644 -7.39114 0
M  V30 6513 N 607.499 1.09233 1.13605 0
M  V30 6514 C 608.91 0.846839 1.6639 0
M  V30 6515 C 609.261 -0.625031 1.85978 0
M  V30 6516 O 608.386 -1.48173 1.57714 0
M  V30 6517 C 608.981 1.5307 3.0225 0
M  V30 6518 C 607.54 1.33223 3.52035 0
M  V30 6519 C 606.687 1.58806 2.27323 0
M  V30 6520 H 609.638 1.25175 0.975541 0
M  V30 6521 H 609.659 0.96267 3.68121 0
M  V30 6522 H 609.171 2.60192 2.87961 0
M  V30 6523 H 607.272 0.282091 3.71531 0
M  V30 6524 H 607.385 2.0657 4.32279 0
M  V30 6525 H 605.749 1.01007 2.33815 0
M  V30 6526 H 606.532 2.67153 2.15602 0
M  V30 6527 N 608.977 -1.30795 0.87923 0
M  V30 6528 C 609.924 -2.28282 0.339968 0
M  V30 6529 C 610.894 -1.56134 -0.566685 0
M  V30 6530 O 612.079 -1.84231 -0.496338 0
M  V30 6531 C 609.219 -3.42225 -0.444501 0
M  V30 6532 C 608.332 -4.29204 0.490717 0
M  V30 6533 C 607.467 -5.30302 -0.308784 0
M  V30 6534 C 606.506 -6.08929 0.622272 0
M  V30 6535 N 605.643 -7.01957 -0.14155 0
M  V30 6536 H 610.483 -2.73794 1.17647 0
M  V30 6537 H 608.02 -1.34682 0.591527 0
M  V30 6538 H 609.978 -4.07038 -0.915186 0
M  V30 6539 H 608.608 -2.97799 -1.24562 0
M  V30 6540 H 607.66 -3.6475 1.07988 0
M  V30 6541 H 608.972 -4.84045 1.20425 0
M  V30 6542 H 608.126 -6.00835 -0.841575 0
M  V30 6543 H 606.865 -4.7614 -1.05556 0
M  V30 6544 H 605.87 -5.37278 1.16674 0
M  V30 6545 H 607.095 -6.65178 1.36804 0
M  V30 6546 H 605.041 -6.50192 -0.870966 0
M  V30 6547 H 604.958 -7.54261 0.51246 0
M  V30 6548 H 606.226 -7.76741 -0.655271 0
M  V30 6549 N 610.455 -0.639598 -1.44038 0
M  V30 6550 C 611.388 0.109736 -2.27936 0
M  V30 6551 C 612.366 0.843095 -1.39035 0
M  V30 6552 O 613.55 0.845456 -1.68476 0
M  V30 6553 C 610.677 1.16173 -3.18153 0
M  V30 6554 C 609.723 0.527954 -4.2322 0
M  V30 6555 S 610.556 -0.688318 -5.31058 0
M  V30 6556 C 611.712 0.363481 -6.24844 0
M  V30 6557 H 611.945 -0.601986 -2.91142 0
M  V30 6558 H 609.478 -0.42802 -1.48349 0
M  V30 6559 H 611.436 1.76372 -3.7068 0
M  V30 6560 H 610.097 1.84569 -2.54151 0
M  V30 6561 H 609.29 1.32054 -4.86393 0
M  V30 6562 H 608.892 0.000396444 -3.74 0
M  V30 6563 H 611.184 1.23362 -6.66174 0
M  V30 6564 H 612.127 -0.23288 -7.07717 0
M  V30 6565 H 612.535 0.693179 -5.60228 0
M  V30 6566 N 611.933 1.52934 -0.380664 0
M  V30 6567 C 613.182 2.00651 0.205477 0
M  V30 6568 C 613.495 1.27164 1.48623 0
M  V30 6569 O 614.701 1.65547 2.15189 0
M  V30 6570 C 613.157 3.57479 0.416726 0
M  V30 6571 C 612.765 4.39857 -0.850268 0
M  V30 6572 C 614.509 4.13509 0.959702 0
M  V30 6573 C 612.416 5.88269 -0.607773 0
M  V30 6574 H 611.346 0.749684 0.0805614 0
M  V30 6575 H 613.997 1.76508 -0.501732 0
M  V30 6576 H 612.379 3.77836 1.18557 0
M  V30 6577 H 613.553 4.31269 -1.62307 0
M  V30 6578 H 611.868 3.95005 -1.31756 0
M  V30 6579 H 614.465 5.22039 1.15669 0
M  V30 6580 H 614.808 3.69054 1.92626 0
M  V30 6581 H 615.341 3.9701 0.250645 0
M  V30 6582 H 612.08 6.3703 -1.54509 0
M  V30 6583 H 611.6 5.99667 0.126247 0
M  V30 6584 H 613.279 6.46558 -0.239014 0
M  V30 6585 N 613.412 0.11024 1.57214 0
M  V30 6586 C 614.375 -0.828808 2.1369 0
M  V30 6587 C 615.375 -1.20059 1.06969 0
M  V30 6588 O 616.565 -1.12754 1.32786 0
M  V30 6589 C 613.697 -2.11959 2.66994 0
M  V30 6590 H 614.89 -0.338146 2.97988 0
M  V30 6591 H 612.443 -0.138913 1.55681 0
M  V30 6592 H 613.178 -2.65476 1.8626 0
M  V30 6593 H 612.963 -1.86258 3.45037 0
M  V30 6594 H 614.453 -2.79105 3.10629 0
M  V30 6595 N 614.89 -1.56749 -0.16351 0
M  V30 6596 C 615.84 -1.93424 -1.20712 0
M  V30 6597 C 616.824 -0.803469 -1.39403 0
M  V30 6598 O 618.016 -1.06675 -1.41243 0
M  V30 6599 C 615.145 -2.30431 -2.54473 0
M  V30 6600 C 614.231 -3.5004 -2.39443 0
M  V30 6601 N 614.622 -4.67058 -1.9414 0
M  V30 6602 C 612.92 -3.548 -2.70246 0
M  V30 6603 C 613.621 -5.49184 -1.9176 0
M  V30 6604 N 612.597 -4.9044 -2.34457 0
M  V30 6605 H 616.399 -2.8138 -0.848681 0
M  V30 6606 H 613.913 -1.58089 -0.371717 0
M  V30 6607 H 615.91 -2.54903 -3.29894 0
M  V30 6608 H 614.57 -1.43818 -2.91112 0
M  V30 6609 H 615.581 -4.91128 -1.64357 0
M  V30 6610 H 612.258 -2.78685 -3.10871 0
M  V30 6611 H 613.648 -6.5297 -1.58366 0
M  V30 6612 N 616.368 0.432326 -1.51554 0
M  V30 6613 C 617.645 1.19288 -1.55015 0
M  V30 6614 C 618.025 2.08701 -0.317375 0
M  V30 6615 O 617.373 2.17602 0.697243 0
M  V30 6616 C 617.583 1.99037 -2.86679 0
M  V30 6617 C 618.931 2.55907 -3.38817 0
M  V30 6618 O 619.955 2.09243 -2.88263 0
M  V30 6619 O 618.814 3.41029 -4.27038 0
M  V30 6620 H 615.908 0.543369 -0.623441 0
M  V30 6621 H 618.454 0.440988 -1.6387 0
M  V30 6622 H 617.226 1.33397 -3.6786 0
M  V30 6623 H 616.849 2.81281 -2.8101 0
M  V30 6624 N 617.846 1.41785 0.688094 0
M  V30 6625 C 619.093 1.41544 1.44816 0
M  V30 6626 C 619.421 0.0271746 1.94481 0
M  V30 6627 O 618.676 -0.962235 1.7041 0
M  V30 6628 C 618.975 2.37532 2.67046 0
M  V30 6629 C 618.641 3.84209 2.35996 0
M  V30 6630 C 617.303 4.24165 2.27239 0
M  V30 6631 C 619.655 4.76785 2.10536 0
M  V30 6632 C 616.983 5.54695 1.91128 0
M  V30 6633 C 619.335 6.07644 1.75931 0
M  V30 6634 C 617.999 6.46613 1.65675 0
M  V30 6635 H 617.269 0.517945 0.529919 0
M  V30 6636 H 619.916 1.74635 0.785797 0
M  V30 6637 H 618.221 1.9772 3.38251 0
M  V30 6638 H 619.918 2.34615 3.25203 0
M  V30 6639 H 616.508 3.52567 2.4371 0
M  V30 6640 H 620.692 4.46714 2.16242 0
M  V30 6641 H 615.948 5.83762 1.81746 0
M  V30 6642 H 620.122 6.78874 1.55252 0
M  V30 6643 H 617.749 7.47668 1.37463 0
M  V30 6644 N 619.324 -0.923095 1.27737 0
M  V30 6645 C 620.735 -1.48626 1.12993 0
M  V30 6646 C 621.086 -1.94142 -0.283439 0
M  V30 6647 O 620.211 -1.81605 -1.17681 0
M  V30 6648 C 620.806 -2.70117 2.04505 0
M  V30 6649 C 619.365 -3.22642 1.93853 0
M  V30 6650 C 618.512 -1.95368 1.96791 0
M  V30 6651 H 621.463 -0.736737 1.40563 0
M  V30 6652 H 621.484 -3.4506 1.60356 0
M  V30 6653 H 620.996 -2.36959 3.07363 0
M  V30 6654 H 619.097 -3.60549 0.939968 0
M  V30 6655 H 619.21 -3.88525 2.80331 0
M  V30 6656 H 617.574 -2.12061 1.41076 0
M  V30 6657 H 618.357 -1.64517 3.01312 0
M  V30 6658 N 620.802 -1.09834 -1.13024 0
M  V30 6659 C 622.05 -0.835297 -1.8403 0
M  V30 6660 C 622.371 0.640944 -1.84165 0
M  V30 6661 O 621.641 1.46517 -1.30037 0
M  V30 6662 H 620.221 -0.306018 -0.681441 0
M  V30 6663 H 622.883 -1.38734 -1.36891 0
M  V30 6664 H 621.979 -1.19258 -2.88416 0
M  V30 6665 N 622.28 1.30327 -0.886154 0
M  V30 6666 C 623.529 1.95373 -0.501243 0
M  V30 6667 C 623.842 1.70722 0.954634 0
M  V30 6668 O 625.048 2.29761 1.44644 0
M  V30 6669 C 623.504 3.49828 -0.845493 0
M  V30 6670 C 623.112 3.83296 -2.31922 0
M  V30 6671 C 624.856 4.2118 -0.529838 0
M  V30 6672 C 622.763 5.30935 -2.60504 0
M  V30 6673 H 621.693 0.731274 -0.183722 0
M  V30 6674 H 624.344 1.48258 -1.08129 0
M  V30 6675 H 622.726 3.95522 -0.19452 0
M  V30 6676 H 623.9 3.48508 -3.01461 0
M  V30 6677 H 622.215 3.2505 -2.60253 0
M  V30 6678 H 624.812 5.29825 -0.720401 0
M  V30 6679 H 625.155 4.12902 0.530828 0
M  V30 6680 H 625.688 3.81173 -1.13806 0
M  V30 6681 H 622.427 5.44265 -3.65316 0
M  V30 6682 H 621.947 5.67019 -1.95575 0
M  V30 6683 H 623.626 5.98381 -2.46066 0
M  V30 6684 N 623.758 0.647228 1.43697 0
M  V30 6685 C 625.006 0.157876 2.01482 0
M  V30 6686 C 625.327 -1.23039 1.51282 0
M  V30 6687 O 624.597 -1.82071 0.722982 0
M  V30 6688 H 623.177 0.0553745 0.744945 0
M  V30 6689 H 625.839 0.83755 1.75986 0
M  V30 6690 H 624.935 0.137895 3.11795 0
M  V30 6691 N 625.236 -1.5273 0.388769 0
M  V30 6692 C 626.186 -2.23238 -0.463567 0
M  V30 6693 C 627.17 -1.23606 -1.03007 0
M  V30 6694 O 628.362 -1.48945 -0.956261 0
M  V30 6695 C 625.491 -3.04228 -1.5906 0
M  V30 6696 C 624.577 -4.11255 -1.03587 0
M  V30 6697 N 624.968 -5.0538 -0.206038 0
M  V30 6698 C 623.266 -4.26376 -1.30841 0
M  V30 6699 C 623.967 -5.81613 0.100359 0
M  V30 6700 N 622.943 -5.41264 -0.503447 0
M  V30 6701 H 626.745 -2.93367 0.176978 0
M  V30 6702 H 624.259 -1.61188 0.198046 0
M  V30 6703 H 626.256 -3.53277 -2.21362 0
M  V30 6704 H 624.916 -2.35634 -2.23398 0
M  V30 6705 H 625.927 -5.17663 0.156659 0
M  V30 6706 H 622.604 -3.69011 -1.95287 0
M  V30 6707 H 623.994 -6.67442 0.772676 0
M  V30 6708 N 626.714 -0.118576 -1.57153 0
M  V30 6709 C 627.661 0.831789 -2.1529 0
M  V30 6710 C 628.631 1.26385 -1.07778 0
M  V30 6711 O 629.816 1.34144 -1.35684 0
M  V30 6712 C 626.956 2.07664 -2.75626 0
M  V30 6713 C 626.069 1.69298 -3.97444 0
M  V30 6714 C 625.204 2.88747 -4.45868 0
M  V30 6715 C 624.243 2.46619 -5.60219 0
M  V30 6716 N 623.38 3.5898 -6.03389 0
M  V30 6717 H 628.22 0.329183 -2.96176 0
M  V30 6718 H 625.757 0.150792 -1.46325 0
M  V30 6719 H 627.715 2.80601 -3.08738 0
M  V30 6720 H 626.345 2.55384 -1.97431 0
M  V30 6721 H 625.397 0.862374 -3.70496 0
M  V30 6722 H 626.709 1.34338 -4.80369 0
M  V30 6723 H 625.863 3.69909 -4.80887 0
M  V30 6724 H 624.602 3.26933 -3.61892 0
M  V30 6725 H 623.607 1.63889 -5.24805 0
M  V30 6726 H 624.832 2.0955 -6.45961 0
M  V30 6727 H 622.778 3.9684 -5.22354 0
M  V30 6728 H 622.695 3.27942 -6.81168 0
M  V30 6729 H 623.963 4.40583 -6.43045 0
M  V30 6730 N 628.193 1.56834 0.155195 0
M  V30 6731 C 629.439 1.83169 0.870467 0
M  V30 6732 C 629.772 0.698929 1.81187 0
M  V30 6733 O 629.047 -0.298035 1.92203 0
M  V30 6734 C 629.33 3.19965 1.65211 0
M  V30 6735 C 629.183 4.43792 0.732744 0
M  V30 6736 C 630.502 3.53885 2.61636 0
M  V30 6737 H 627.621 0.666288 0.315006 0
M  V30 6738 H 630.263 1.89513 0.135988 0
M  V30 6739 H 628.413 3.14687 2.27825 0
M  V30 6740 H 630.085 4.61148 0.118236 0
M  V30 6741 H 628.328 4.3378 0.0417906 0
M  V30 6742 H 628.999 5.36095 1.31552 0
M  V30 6743 H 631.475 3.5972 2.09143 0
M  V30 6744 H 630.351 4.50648 3.13381 0
M  V30 6745 H 630.612 2.79418 3.42605 0
M  V30 6746 N 629.671 -0.424282 1.51781 0
M  V30 6747 C 630.948 -1.18464 1.55646 0
M  V30 6748 C 631.328 -2.08529 0.328438 0
M  V30 6749 O 630.676 -2.17969 -0.685693 0
M  V30 6750 C 630.886 -1.97514 2.87731 0
M  V30 6751 C 632.234 -2.54106 3.40169 0
M  V30 6752 O 633.258 -2.07711 2.89369 0
M  V30 6753 O 632.117 -3.38759 4.28841 0
M  V30 6754 H 629.211 -0.540055 0.626314 0
M  V30 6755 H 631.757 -0.432291 1.64102 0
M  V30 6756 H 630.529 -1.31444 3.68562 0
M  V30 6757 H 630.152 -2.79787 2.82498 0
M  V30 6758 N 631.149 -1.42148 -0.680565 0
M  V30 6759 C 632.112 -1.4488 -1.77602 0
M  V30 6760 C 633.112 -0.337209 -1.57224 0
M  V30 6761 O 634.302 -0.597778 -1.63622 0
M  V30 6762 C 631.434 -1.27483 -3.16166 0
M  V30 6763 H 632.627 -2.42412 -1.76568 0
M  V30 6764 H 630.18 -1.28511 -0.889645 0
M  V30 6765 H 630.915 -0.30851 -3.22829 0
M  V30 6766 H 630.7 -2.08037 -3.3236 0
M  V30 6767 H 632.19 -1.32265 -3.96101 0
M  V30 6768 N 632.627 0.916307 -1.28225 0
M  V30 6769 C 633.873 1.66765 -1.154 0
M  V30 6770 C 634.206 1.91912 0.297251 0
M  V30 6771 O 633.481 1.51766 1.21644 0
M  V30 6772 C 633.764 3.02715 -1.95028 0
M  V30 6773 C 633.617 2.84738 -3.48201 0
M  V30 6774 C 634.936 4.03215 -1.76369 0
M  V30 6775 H 632.055 0.605205 -0.42059 0
M  V30 6776 H 634.697 1.06255 -1.57512 0
M  V30 6777 H 632.847 3.54365 -1.59242 0
M  V30 6778 H 634.519 2.40118 -3.9388 0
M  V30 6779 H 632.762 2.19848 -3.73964 0
M  V30 6780 H 633.433 3.8127 -3.99171 0
M  V30 6781 H 635.909 3.60617 -2.07593 0
M  V30 6782 H 634.785 4.96306 -2.34459 0
M  V30 6783 H 635.046 4.36288 -0.71452 0
M  V30 6784 N 634.105 1.10431 1.1244 0
M  V30 6785 C 635.352 0.846717 1.83948 0
M  V30 6786 C 635.68 -0.627709 1.84093 0
M  V30 6787 O 634.935 -1.47876 1.28184 0
M  V30 6788 C 635.234 1.34022 3.3132 0
M  V30 6789 C 634.9 2.82606 3.51347 0
M  V30 6790 C 633.562 3.23182 3.56521 0
M  V30 6791 C 635.914 3.78356 3.58464 0
M  V30 6792 C 633.242 4.58258 3.66356 0
M  V30 6793 C 635.594 5.13234 3.69829 0
M  V30 6794 C 634.258 5.53384 3.73259 0
M  V30 6795 H 633.528 0.309836 0.673114 0
M  V30 6796 H 636.175 1.38091 1.32677 0
M  V30 6797 H 634.48 0.726047 3.85014 0
M  V30 6798 H 636.177 1.11739 3.85118 0
M  V30 6799 H 632.767 2.50212 3.47983 0
M  V30 6800 H 636.951 3.48115 3.53737 0
M  V30 6801 H 632.207 4.88787 3.67284 0
M  V30 6802 H 636.381 5.87272 3.74279 0
M  V30 6803 H 634.008 6.58045 3.80633 0
M  V30 6804 N 635.583 -1.29855 0.893053 0
M  V30 6805 C 636.516 -2.26079 0.3104 0
M  V30 6806 C 637.494 -1.52145 -0.573644 0
M  V30 6807 O 638.678 -1.8113 -0.521937 0
M  V30 6808 C 635.805 -3.34069 -0.558179 0
M  V30 6809 C 634.851 -4.25721 0.257638 0
M  V30 6810 S 635.684 -5.09409 1.65114 0
M  V30 6811 C 636.84 -6.20903 0.789307 0
M  V30 6812 H 637.073 -2.75151 1.12602 0
M  V30 6813 H 634.606 -1.37975 0.692978 0
M  V30 6814 H 636.564 -3.9675 -1.05355 0
M  V30 6815 H 635.225 -2.83705 -1.34797 0
M  V30 6816 H 634.418 -5.02366 -0.405562 0
M  V30 6817 H 634.02 -3.67656 0.685917 0
M  V30 6818 H 636.312 -6.77499 0.00978451 0
M  V30 6819 H 637.255 -6.91426 1.52762 0
M  V30 6820 H 637.663 -5.63435 0.346634 0
M  V30 6821 N 637.061 -0.65484 -1.43351 0
M  V30 6822 C 638.008 0.0357713 -2.30772 0
M  V30 6823 C 638.978 0.813035 -1.44841 0
M  V30 6824 O 640.163 0.789314 -1.73708 0
M  V30 6825 C 637.303 0.995084 -3.30442 0
M  V30 6826 C 636.416 0.21375 -4.31471 0
M  V30 6827 C 635.551 1.16701 -5.18222 0
M  V30 6828 C 634.59 0.376201 -6.10943 0
M  V30 6829 N 633.727 1.28113 -6.90313 0
M  V30 6830 H 638.567 -0.71559 -2.89281 0
M  V30 6831 H 636.104 -0.364645 -1.42509 0
M  V30 6832 H 638.062 1.5649 -3.86739 0
M  V30 6833 H 636.692 1.7133 -2.7358 0
M  V30 6834 H 635.744 -0.472377 -3.77456 0
M  V30 6835 H 637.056 -0.401103 -4.97185 0
M  V30 6836 H 636.21 1.8074 -5.79153 0
M  V30 6837 H 634.949 1.81577 -4.52638 0
M  V30 6838 H 633.954 -0.277534 -5.49099 0
M  V30 6839 H 635.179 -0.268178 -6.7857 0
M  V30 6840 H 633.125 1.91666 -6.27376 0
M  V30 6841 H 633.042 0.720879 -7.52555 0
M  V30 6842 H 634.31 1.90962 -7.55747 0
M  V30 6843 N 638.539 1.52521 -0.396863 0
M  V30 6844 C 639.816 1.94112 0.240842 0
M  V30 6845 C 640.196 1.33288 1.637 0
M  V30 6846 O 639.544 0.503901 2.22875 0
M  V30 6847 C 639.754 3.48033 0.259567 0
M  V30 6848 C 641.102 4.21822 0.484866 0
M  V30 6849 O 642.126 3.54579 0.339453 0
M  V30 6850 O 640.985 5.41042 0.770412 0
M  V30 6851 H 638.079 0.812973 0.151671 0
M  V30 6852 H 640.625 1.63572 -0.451918 0
M  V30 6853 H 639.397 3.84655 -0.718078 0
M  V30 6854 H 639.02 3.84899 0.996937 0
M  V30 6855 N 640.017 0.126909 1.57088 0
M  V30 6856 C 641.265 -0.528123 1.95078 0
M  V30 6857 C 641.586 -1.66708 1.0116 0
M  V30 6858 O 640.856 -1.95777 0.0693527 0
M  V30 6859 H 639.436 -0.198087 0.720257 0
M  V30 6860 H 642.098 0.197703 1.93895 0
M  V30 6861 H 641.194 -0.917507 2.98309 0
M  V30 6862 N 641.495 -1.56914 -0.146875 0
M  V30 6863 C 642.742 -1.83356 -0.859467 0
M  V30 6864 C 643.07 -0.707811 -1.81164 0
M  V30 6865 O 642.325 0.303155 -1.93338 0
M  V30 6866 C 642.624 -3.16128 -1.66727 0
M  V30 6867 C 642.29 -4.42586 -0.861881 0
M  V30 6868 C 640.952 -4.76929 -0.639687 0
M  V30 6869 C 643.304 -5.20344 -0.298643 0
M  V30 6870 C 640.632 -5.86491 0.156451 0
M  V30 6871 C 642.984 -6.30742 0.484536 0
M  V30 6872 C 641.648 -6.63635 0.717306 0
M  V30 6873 H 640.918 -0.670947 -0.314501 0
M  V30 6874 H 643.565 -1.91104 -0.123108 0
M  V30 6875 H 641.87 -3.03831 -2.47374 0
M  V30 6876 H 643.567 -3.33802 -2.2221 0
M  V30 6877 H 640.157 -4.15662 -1.04513 0
M  V30 6878 H 644.341 -4.94186 -0.457585 0
M  V30 6879 H 639.597 -6.10419 0.346292 0
M  V30 6880 H 643.771 -6.90188 0.928105 0
M  V30 6881 H 641.398 -7.48367 1.33607 0
M  V30 6882 N 642.974 0.416227 -1.52004 0
M  V30 6883 C 644.221 1.16383 -1.65714 0
M  V30 6884 C 644.549 1.9068 -0.383594 0
M  V30 6885 O 643.804 1.85174 0.633185 0
M  V30 6886 C 644.103 2.18923 -2.82502 0
M  V30 6887 C 643.769 1.61485 -4.20991 0
M  V30 6888 C 642.431 1.45545 -4.58661 0
M  V30 6889 C 644.783 1.19468 -5.07323 0
M  V30 6890 C 642.111 0.860937 -5.80349 0
M  V30 6891 C 644.463 0.614386 -6.29609 0
M  V30 6892 C 643.127 0.442056 -6.66035 0
M  V30 6893 H 642.397 0.425875 -0.606392 0
M  V30 6894 H 645.044 0.45199 -1.8609 0
M  V30 6895 H 643.349 2.96225 -2.56433 0
M  V30 6896 H 645.046 2.76628 -2.90307 0
M  V30 6897 H 641.636 1.74873 -3.91302 0
M  V30 6898 H 645.82 1.30596 -4.78809 0
M  V30 6899 H 641.076 0.715372 -6.072 0
M  V30 6900 H 645.25 0.280393 -6.95835 0
M  V30 6901 H 642.877 -0.0207218 -7.60197 0
M  V30 6902 N 644.452 1.42507 0.673017 0
M  V30 6903 C 645.682 1.46261 1.45916 0
M  V30 6904 C 646.09 0.0729724 1.89059 0
M  V30 6905 O 645.433 -0.922987 1.58829 0
M  V30 6906 C 645.495 2.32853 2.73898 0
M  V30 6907 C 645.159 3.80699 2.52819 0
M  V30 6908 C 646.156 4.72307 2.17306 0
M  V30 6909 C 643.841 4.24983 2.67758 0
M  V30 6910 C 645.835 6.06192 1.97003 0
M  V30 6911 C 643.522 5.58927 2.4707 0
M  V30 6912 C 644.52 6.49348 2.11746 0
M  V30 6913 O 644.208 7.80817 1.91259 0
M  V30 6914 H 643.94 0.499561 0.455428 0
M  V30 6915 H 646.494 1.87697 0.834196 0
M  V30 6916 H 644.724 1.86268 3.38882 0
M  V30 6917 H 646.413 2.28041 3.35786 0
M  V30 6918 H 647.179 4.39378 2.05359 0
M  V30 6919 H 643.058 3.54893 2.94231 0
M  V30 6920 H 646.602 6.76731 1.69355 0
M  V30 6921 H 642.499 5.91429 2.58615 0
M  V30 6922 H 643.267 7.92194 2.05843 0
M  V30 6923 N 645.93 -0.909495 1.28709 0
M  V30 6924 C 647.177 -1.65905 1.16111 0
M  V30 6925 C 647.505 -1.92334 -0.289436 0
M  V30 6926 O 646.76 -1.52495 -1.22653 0
M  V30 6927 C 647.059 -3.02117 1.90945 0
M  V30 6928 C 646.725 -2.95332 3.40719 0
M  V30 6929 C 645.387 -2.93189 3.81567 0
M  V30 6930 C 647.739 -2.85264 4.36204 0
M  V30 6931 C 645.067 -2.78784 5.16233 0
M  V30 6932 C 647.419 -2.724 5.70948 0
M  V30 6933 C 646.083 -2.68617 6.11066 0
M  V30 6934 H 645.353 -0.60709 0.42488 0
M  V30 6935 H 648 -1.05932 1.59533 0
M  V30 6936 H 646.305 -3.65901 1.40085 0
M  V30 6937 H 648.002 -3.59026 1.7861 0
M  V30 6938 H 644.592 -2.97797 3.08245 0
M  V30 6939 H 648.776 -2.86005 4.05605 0
M  V30 6940 H 644.032 -2.74254 5.46438 0
M  V30 6941 H 648.206 -2.63579 6.44592 0
M  V30 6942 H 645.833 -2.57213 7.15364 0
M  V30 6943 N 647.408 -1.11026 -1.11852 0
M  V30 6944 C 648.655 -0.85646 -1.83497 0
M  V30 6945 C 648.983 0.617938 -1.84423 0
M  V30 6946 O 648.238 1.47194 -1.28966 0
M  V30 6947 C 648.537 -1.35777 -3.30604 0
M  V30 6948 C 648.203 -2.84465 -3.49843 0
M  V30 6949 C 646.865 -3.25068 -3.54802 0
M  V30 6950 C 649.217 -3.80251 -3.56453 0
M  V30 6951 C 646.545 -4.60194 -3.63921 0
M  V30 6952 C 648.897 -5.15188 -3.67102 0
M  V30 6953 C 647.561 -5.55356 -3.70319 0
M  V30 6954 H 646.831 -0.313401 -0.671462 0
M  V30 6955 H 649.478 -1.38792 -1.31943 0
M  V30 6956 H 647.783 -0.746455 -3.84624 0
M  V30 6957 H 649.48 -1.13779 -3.8452 0
M  V30 6958 H 646.07 -2.52054 -3.46651 0
M  V30 6959 H 650.254 -3.49986 -3.51886 0
M  V30 6960 H 645.51 -4.90728 -3.64686 0
M  V30 6961 H 649.684 -5.89248 -3.71159 0
M  V30 6962 H 647.311 -6.60054 -3.77138 0
M  V30 6963 N 648.886 1.2938 -0.899927 0
M  V30 6964 C 649.836 2.25311 -0.349165 0
M  V30 6965 C 650.82 1.51889 0.530892 0
M  V30 6966 O 652.012 1.73028 0.372872 0
M  V30 6967 C 649.141 3.40696 0.422055 0
M  V30 6968 C 648.227 4.21455 -0.472935 0
M  V30 6969 N 648.618 4.8048 -1.58026 0
M  V30 6970 C 646.916 4.45177 -0.270767 0
M  V30 6971 C 647.617 5.41117 -2.13465 0
M  V30 6972 N 646.593 5.24518 -1.42766 0
M  V30 6973 H 650.395 2.68507 -1.19505 0
M  V30 6974 H 647.909 1.43992 -0.751006 0
M  V30 6975 H 649.906 4.08486 0.833369 0
M  V30 6976 H 648.566 2.99037 1.2652 0
M  V30 6977 H 649.577 4.79257 -1.96299 0
M  V30 6978 H 646.254 4.14071 0.533988 0
M  V30 6979 H 647.644 5.979 -3.06537 0
M  V30 6980 N 650.364 0.662433 1.43002 0
M  V30 6981 C 651.612 0.179237 2.01304 0
M  V30 6982 C 651.933 -1.21428 1.52579 0
M  V30 6983 O 651.203 -1.81294 0.742252 0
M  V30 6984 H 649.783 0.0632725 0.744316 0
M  V30 6985 H 652.445 0.856169 1.75088 0
M  V30 6986 H 651.541 0.170957 3.11631 0
M  V30 6987 N 651.842 -1.52309 0.404946 0
M  V30 6988 C 653.07 -2.06185 -0.171818 0
M  V30 6989 C 653.485 -1.27536 -1.39212 0
M  V30 6990 O 652.842 -0.326112 -1.79563 0
M  V30 6991 C 652.893 -3.57647 -0.526417 0
M  V30 6992 O 652.614 -4.3332 0.645417 0
M  V30 6993 C 654.115 -4.27925 -1.15736 0
M  V30 6994 H 651.335 -0.670632 -0.0222328 0
M  V30 6995 H 653.879 -1.96259 0.574692 0
M  V30 6996 H 652.034 -3.67595 -1.22282 0
M  V30 6997 H 652.448 -5.23328 0.35042 0
M  V30 6998 H 653.922 -5.35093 -1.35572 0
M  V30 6999 H 654.399 -3.84134 -2.12926 0
M  V30 7000 H 655.005 -4.22335 -0.501281 0
M  V30 7001 N 653.32 -0.135238 -1.57019 0
M  V30 7002 C 654.736 0.221262 -1.58059 0
M  V30 7003 C 654.936 1.65538 -1.14889 0
M  V30 7004 O 653.992 2.37985 -0.843751 0
M  V30 7005 C 655.305 -0.0268114 -3.00688 0
M  V30 7006 C 656.853 0.0378206 -3.12977 0
M  V30 7007 C 657.328 -0.182769 -4.57635 0
M  V30 7008 N 658.819 -0.129292 -4.6302 0
M  V30 7009 C 659.554 -0.274648 -5.72742 0
M  V30 7010 N 659.05 -0.477075 -6.91155 0
M  V30 7011 N 660.843 -0.213077 -5.61696 0
M  V30 7012 H 652.994 -1.07177 -1.83376 0
M  V30 7013 H 655.257 -0.423338 -0.848227 0
M  V30 7014 H 654.963 -1.01889 -3.36618 0
M  V30 7015 H 654.837 0.697863 -3.70688 0
M  V30 7016 H 657.224 1.02043 -2.76896 0
M  V30 7017 H 657.305 -0.718996 -2.45487 0
M  V30 7018 H 656.949 -1.16243 -4.94419 0
M  V30 7019 H 656.879 0.59423 -5.23237 0
M  V30 7020 H 659.37 0.0229896 -3.77893 0
M  V30 7021 H 659.683 -0.578413 -7.70632 0
M  V30 7022 H 658.028 -0.513252 -6.93102 0
M  V30 7023 H 661.219 -0.0557796 -4.68067 0
M  V30 7024 H 661.392 -0.329796 -6.4716 0
M  V30 7025 N 654.798 1.5699 0.138552 0
M  V30 7026 C 655.73 1.95515 1.1961 0
M  V30 7027 C 656.743 0.852002 1.38726 0
M  V30 7028 O 657.932 1.13038 1.38147 0
M  V30 7029 C 655.032 2.2213 2.55952 0
M  V30 7030 C 654.205 3.53424 2.57702 0
M  V30 7031 C 653.264 3.6848 3.75645 0
M  V30 7032 O 652.29 4.4079 3.60129 0
M  V30 7033 N 653.492 3.05777 4.93438 0
M  V30 7034 H 656.257 2.86838 0.868557 0
M  V30 7035 H 653.818 1.58542 0.328033 0
M  V30 7036 H 655.81 2.29435 3.33379 0
M  V30 7037 H 654.38 1.3703 2.80965 0
M  V30 7038 H 653.6 3.57484 1.6613 0
M  V30 7039 H 654.888 4.39759 2.55909 0
M  V30 7040 H 654.286 2.46961 5.08947 0
M  V30 7041 H 652.843 3.18631 5.6861 0
M  V30 7042 N 656.276 -0.40816 1.52223 0
M  V30 7043 C 657.506 -1.17501 1.69932 0
M  V30 7044 C 657.914 -1.84729 0.408874 0
M  V30 7045 O 657.257 -1.7274 -0.625025 0
M  V30 7046 C 657.319 -2.27994 2.77955 0
M  V30 7047 C 656.983 -1.80894 4.19674 0
M  V30 7048 C 657.98 -1.29618 5.03483 0
M  V30 7049 C 655.665 -1.87698 4.65913 0
M  V30 7050 C 657.659 -0.857695 6.31603 0
M  V30 7051 C 655.346 -1.43461 5.94022 0
M  V30 7052 C 656.344 -0.925822 6.76696 0
M  V30 7053 O 656.032 -0.489841 8.02406 0
M  V30 7054 H 655.764 -0.359065 0.572755 0
M  V30 7055 H 658.318 -0.486188 1.99563 0
M  V30 7056 H 656.548 -3.00243 2.43703 0
M  V30 7057 H 658.237 -2.89749 2.84254 0
M  V30 7058 H 659.003 -1.23733 4.68951 0
M  V30 7059 H 654.882 -2.26244 4.01665 0
M  V30 7060 H 658.426 -0.459879 6.96083 0
M  V30 7061 H 654.323 -1.49026 6.28062 0
M  V30 7062 H 655.091 -0.613062 8.16201 0
M  V30 7063 N 657.755 -1.42862 -0.66545 0
M  V30 7064 C 658.702 -1.4707 -1.77874 0
M  V30 7065 C 659.672 -0.321654 -1.62956 0
M  V30 7066 O 660.857 -0.52707 -1.83376 0
M  V30 7067 C 657.997 -1.38788 -3.15962 0
M  V30 7068 C 657.11 -2.63801 -3.42101 0
M  V30 7069 C 656.245 -2.47594 -4.69969 0
M  V30 7070 C 655.284 -3.67936 -4.89172 0
M  V30 7071 N 654.421 -3.50614 -6.08288 0
M  V30 7072 H 659.261 -2.42204 -1.73613 0
M  V30 7073 H 656.798 -1.20239 -0.847401 0
M  V30 7074 H 658.756 -1.31982 -3.95773 0
M  V30 7075 H 657.386 -0.472431 -3.19324 0
M  V30 7076 H 656.438 -2.80935 -2.56475 0
M  V30 7077 H 657.75 -3.53228 -3.52181 0
M  V30 7078 H 656.904 -2.38427 -5.57886 0
M  V30 7079 H 655.643 -1.55672 -4.62188 0
M  V30 7080 H 654.648 -3.77525 -3.99694 0
M  V30 7081 H 655.873 -4.60851 -4.98792 0
M  V30 7082 H 653.819 -2.61417 -6.01662 0
M  V30 7083 H 653.736 -4.33634 -6.19272 0
M  V30 7084 H 655.004 -3.45276 -6.98859 0
M  V30 7085 N 659.233 0.902656 -1.29189 0
M  V30 7086 C 660.48 1.65287 -1.16989 0
M  V30 7087 C 660.808 1.92485 0.279232 0
M  V30 7088 O 660.063 1.53143 1.21843 0
M  V30 7089 C 660.362 3.011 -1.92545 0
M  V30 7090 C 660.028 2.93521 -3.42281 0
M  V30 7091 C 658.69 2.91161 -3.83117 0
M  V30 7092 C 661.042 2.82947 -4.3771 0
M  V30 7093 C 658.37 2.76043 -5.17704 0
M  V30 7094 C 660.722 2.69368 -5.72384 0
M  V30 7095 C 659.386 2.65373 -6.12482 0
M  V30 7096 H 658.656 0.604828 -0.428094 0
M  V30 7097 H 661.303 1.05084 -1.60092 0
M  V30 7098 H 659.608 3.65153 -1.42024 0
M  V30 7099 H 661.305 3.58073 -1.80512 0
M  V30 7100 H 657.895 2.96158 -3.09819 0
M  V30 7101 H 662.079 2.83849 -4.07116 0
M  V30 7102 H 657.335 2.71352 -5.47885 0
M  V30 7103 H 661.509 2.60156 -6.45981 0
M  V30 7104 H 659.136 2.53415 -7.16718 0
M  V30 7105 N 660.711 1.11618 1.11262 0
M  V30 7106 C 661.988 0.777876 1.79467 0
M  V30 7107 C 662.368 -0.733774 1.97937 0
M  V30 7108 O 661.716 -1.66443 1.56554 0
M  V30 7109 C 661.926 1.5431 3.13032 0
M  V30 7110 C 663.274 1.72357 3.88044 0
M  V30 7111 O 664.298 1.5075 3.22727 0
M  V30 7112 O 663.157 2.08276 5.05256 0
M  V30 7113 H 660.251 0.282018 0.777428 0
M  V30 7114 H 662.797 1.21971 1.17988 0
M  V30 7115 H 661.569 2.57132 2.94956 0
M  V30 7116 H 661.192 1.09495 3.82226 0
M  V30 7117 N 662.189 -1.289 0.906776 0
M  V30 7118 C 663.6 -1.77336 0.58384 0
M  V30 7119 C 663.951 -1.74304 -0.900697 0
M  V30 7120 O 663.076 -1.33335 -1.70443 0
M  V30 7121 C 663.671 -3.22019 1.05304 0
M  V30 7122 C 662.23 -3.68205 0.781148 0
M  V30 7123 C 661.377 -2.48837 1.22373 0
M  V30 7124 H 664.328 -1.15462 1.08877 0
M  V30 7125 H 664.349 -3.78481 0.391414 0
M  V30 7126 H 663.861 -3.24194 2.13353 0
M  V30 7127 H 661.962 -3.71497 -0.28643 0
M  V30 7128 H 662.075 -4.58675 1.384 0
M  V30 7129 H 660.439 -2.46461 0.642594 0
M  V30 7130 H 661.222 -2.53736 2.31242 0
M  V30 7131 N 663.667 -0.670007 -1.42649 0
M  V30 7132 C 664.614 0.0112928 -2.30797 0
M  V30 7133 C 665.584 0.797627 -1.45695 0
M  V30 7134 O 666.769 0.770845 -1.74535 0
M  V30 7135 C 663.909 0.95998 -3.31479 0
M  V30 7136 C 663.022 0.167975 -4.31673 0
M  V30 7137 C 662.157 1.11198 -5.19431 0
M  V30 7138 C 661.196 0.311381 -6.11307 0
M  V30 7139 N 660.333 1.20784 -6.91633 0
M  V30 7140 H 665.173 -0.746231 -2.88505 0
M  V30 7141 H 662.71 -0.379739 -1.42114 0
M  V30 7142 H 664.668 1.52379 -3.88377 0
M  V30 7143 H 663.298 1.68419 -2.75382 0
M  V30 7144 H 662.35 -0.512385 -3.76933 0
M  V30 7145 H 663.662 -0.453814 -4.96731 0
M  V30 7146 H 662.816 1.74587 -5.81037 0
M  V30 7147 H 661.555 1.76766 -4.54538 0
M  V30 7148 H 660.56 -0.335758 -5.48774 0
M  V30 7149 H 661.785 -0.340135 -6.78248 0
M  V30 7150 H 659.731 1.85001 -6.29373 0
M  V30 7151 H 659.648 0.64102 -7.53277 0
M  V30 7152 H 660.916 1.82936 -7.5773 0
M  V30 7153 N 665.145 1.52092 -0.413018 0
M  V30 7154 C 666.373 2.06274 0.160881 0
M  V30 7155 C 666.788 1.28273 1.38533 0
M  V30 7156 O 666.145 0.33563 1.79387 0
M  V30 7157 C 666.196 3.57921 0.507443 0
M  V30 7158 O 665.917 4.32971 -0.668388 0
M  V30 7159 C 667.418 4.28533 1.13465 0
M  V30 7160 H 664.638 0.67074 0.0186759 0
M  V30 7161 H 667.182 1.95951 -0.585092 0
M  V30 7162 H 665.337 3.68238 1.20331 0
M  V30 7163 H 665.751 5.23135 -0.378169 0
M  V30 7164 H 667.225 5.35804 1.32732 0
M  V30 7165 H 667.702 3.85258 2.10886 0
M  V30 7166 H 668.308 4.22595 0.478876 0
M  V30 7167 N 666.623 0.143563 1.56945 0
M  V30 7168 C 667.57 -0.797433 2.16586 0
M  V30 7169 C 668.54 -1.24654 1.09775 0
M  V30 7170 O 669.725 -1.31968 1.37801 0
M  V30 7171 C 666.865 -2.03253 2.78895 0
M  V30 7172 C 665.978 -1.62954 4.00087 0
M  V30 7173 C 665.113 -2.81617 4.50406 0
M  V30 7174 C 664.152 -2.37675 5.64072 0
M  V30 7175 N 663.289 -3.49335 6.09023 0
M  V30 7176 H 668.129 -0.282023 2.96662 0
M  V30 7177 H 665.666 -0.127494 1.46546 0
M  V30 7178 H 667.624 -2.75653 3.13163 0
M  V30 7179 H 666.254 -2.52211 2.01469 0
M  V30 7180 H 665.306 -0.803322 3.71821 0
M  V30 7181 H 666.618 -1.26679 4.82446 0
M  V30 7182 H 665.772 -3.62212 4.86711 0
M  V30 7183 H 664.511 -3.21134 3.67048 0
M  V30 7184 H 663.516 -1.55519 5.27346 0
M  V30 7185 H 664.741 -1.99247 6.49213 0
M  V30 7186 H 662.687 -3.8848 5.28601 0
M  V30 7187 H 662.604 -3.17064 6.86299 0
M  V30 7188 H 663.872 -4.30297 6.49973 0
M  V30 7189 N 668.101 -1.57061 -0.130224 0
M  V30 7190 C 669.517 -1.52103 -0.483413 0
M  V30 7191 C 669.717 -0.854752 -1.82473 0
M  V30 7192 O 668.773 -0.432342 -2.48771 0
M  V30 7193 C 670.086 -2.96872 -0.47825 0
M  V30 7194 C 671.634 -3.07902 -0.562592 0
M  V30 7195 C 672.109 -4.54211 -0.587929 0
M  V30 7196 N 673.6 -4.58621 -0.649684 0
M  V30 7197 C 674.335 -5.69227 -0.690551 0
M  V30 7198 N 673.831 -6.89358 -0.689743 0
M  V30 7199 N 675.624 -5.57304 -0.732708 0
M  V30 7200 H 667.775 -1.98764 0.748779 0
M  V30 7201 H 670.038 -0.907248 0.274965 0
M  V30 7202 H 669.744 -3.48944 0.439444 0
M  V30 7203 H 669.618 -3.53716 -1.31013 0
M  V30 7204 H 672.005 -2.5584 -1.47071 0
M  V30 7205 H 672.086 -2.54073 0.296764 0
M  V30 7206 H 671.73 -5.06915 0.316096 0
M  V30 7207 H 671.66 -5.0584 -1.46401 0
M  V30 7208 H 674.151 -3.72146 -0.656927 0
M  V30 7209 H 674.464 -7.69408 -0.723239 0
M  V30 7210 H 672.809 -6.91884 -0.657347 0
M  V30 7211 H 676 -4.62363 -0.730625 0
M  V30 7212 H 676.173 -6.43515 -0.76109 0
M  V30 7213 N 669.579 0.400081 -1.52437 0
M  V30 7214 C 670.828 1.14332 -1.66166 0
M  V30 7215 C 671.141 1.91419 -0.402253 0
M  V30 7216 O 672.347 2.6824 -0.419487 0
M  V30 7217 C 670.803 2.08137 -2.9361 0
M  V30 7218 C 670.411 1.36524 -4.26691 0
M  V30 7219 C 672.155 2.82664 -3.16703 0
M  V30 7220 C 670.062 2.29031 -5.45251 0
M  V30 7221 H 668.992 0.430499 -0.61902 0
M  V30 7222 H 671.643 0.407017 -1.78929 0
M  V30 7223 H 670.025 2.85358 -2.74567 0
M  V30 7224 H 671.199 0.646061 -4.56249 0
M  V30 7225 H 669.514 0.74002 -4.09771 0
M  V30 7226 H 672.111 3.52037 -4.0246 0
M  V30 7227 H 672.454 3.46122 -2.31312 0
M  V30 7228 H 672.987 2.12541 -3.36261 0
M  V30 7229 H 669.726 1.70206 -6.33017 0
M  V30 7230 H 669.246 2.98896 -5.2002 0
M  V30 7231 H 670.925 2.89359 -5.78689 0
M  V30 7232 N 671.057 1.43213 0.657864 0
M  V30 7233 C 671.987 1.50815 1.78262 0
M  V30 7234 C 672.968 0.363211 1.66177 0
M  V30 7235 O 674.153 0.579806 1.85343 0
M  V30 7236 C 671.283 1.42625 3.16663 0
M  V30 7237 C 670.237 2.5532 3.43505 0
M  V30 7238 C 669.563 2.32184 4.81658 0
M  V30 7239 C 670.863 3.97583 3.38711 0
M  V30 7240 H 672.557 2.44954 1.72157 0
M  V30 7241 H 670.103 1.17896 0.82683 0
M  V30 7242 H 672.056 1.46548 3.95097 0
M  V30 7243 H 670.78 0.449877 3.23487 0
M  V30 7244 H 669.439 2.50742 2.6744 0
M  V30 7245 H 669.087 1.32801 4.85153 0
M  V30 7246 H 668.787 3.07724 5.00579 0
M  V30 7247 H 670.311 2.37883 5.62356 0
M  V30 7248 H 671.725 4.03673 4.07089 0
M  V30 7249 H 670.122 4.73112 3.69168 0
M  V30 7250 H 671.192 4.23049 2.36976 0
M  V30 7251 N 672.536 -0.895792 1.29666 0
M  V30 7252 C 673.764 -1.68001 1.20761 0
M  V30 7253 C 674.179 -1.87379 -0.231187 0
M  V30 7254 O 673.536 -1.41359 -1.15429 0
M  V30 7255 C 673.587 -3.06236 1.92098 0
M  V30 7256 O 673.308 -2.8774 3.30359 0
M  V30 7257 C 674.809 -4.00652 1.89717 0
M  V30 7258 H 672.029 -0.524591 0.418384 0
M  V30 7259 H 674.573 -1.11995 1.71106 0
M  V30 7260 H 672.728 -3.59007 1.45578 0
M  V30 7261 H 673.142 -3.75359 3.66342 0
M  V30 7262 H 674.616 -4.95051 2.44189 0
M  V30 7263 H 675.093 -4.30424 0.873595 0
M  V30 7264 H 675.699 -3.53815 2.35998 0
M  V30 7265 N 674.014 -1.12206 -1.10668 0
M  V30 7266 C 674.944 -0.810086 -2.18997 0
M  V30 7267 C 675.925 0.225065 -1.68604 0
M  V30 7268 O 677.11 0.086783 -1.94006 0
M  V30 7269 C 674.24 -0.261262 -3.46316 0
M  V30 7270 C 673.194 -1.2292 -4.09969 0
M  V30 7271 C 672.52 -0.540713 -5.31959 0
M  V30 7272 C 673.82 -2.58295 -4.53962 0
M  V30 7273 H 675.514 -1.7159 -2.45352 0
M  V30 7274 H 673.06 -0.82646 -1.17922 0
M  V30 7275 H 675.013 -0.0307522 -4.21389 0
M  V30 7276 H 673.737 0.679879 -3.19445 0
M  V30 7277 H 672.396 -1.44548 -3.369 0
M  V30 7278 H 672.044 0.405492 -5.01363 0
M  V30 7279 H 671.744 -1.18637 -5.75499 0
M  V30 7280 H 673.268 -0.319184 -6.09765 0
M  V30 7281 H 674.682 -2.40709 -5.20319 0
M  V30 7282 H 673.079 -3.18916 -5.08343 0
M  V30 7283 H 674.149 -3.16918 -3.67002 0
M  V30 7284 N 675.492 1.28418 -0.913599 0
M  V30 7285 C 676.424 2.26368 -0.359169 0
M  V30 7286 C 677.437 1.54858 0.502285 0
M  V30 7287 O 678.626 1.75659 0.31719 0
M  V30 7288 C 675.726 3.35112 0.50526 0
M  V30 7289 C 674.899 4.36126 -0.333648 0
M  V30 7290 C 673.958 5.24134 0.465845 0
M  V30 7291 O 672.984 5.6907 -0.121538 0
M  V30 7292 N 674.186 5.52892 1.76891 0
M  V30 7293 H 676.951 2.74579 -1.2011 0
M  V30 7294 H 674.512 1.41898 -0.779532 0
M  V30 7295 H 676.504 3.90926 1.04684 0
M  V30 7296 H 675.074 2.86611 1.2479 0
M  V30 7297 H 674.294 3.79776 -1.0566 0
M  V30 7298 H 675.582 5.00638 -0.907669 0
M  V30 7299 H 674.98 5.18217 2.26865 0
M  V30 7300 H 673.537 6.11464 2.25732 0
M  V30 7301 N 676.97 0.677563 1.42291 0
M  V30 7302 C 677.917 0.000947061 2.308 0
M  V30 7303 C 678.887 -0.789889 1.46116 0
M  V30 7304 O 680.072 -0.761578 1.74942 0
M  V30 7305 C 677.212 -0.942387 3.31984 0
M  V30 7306 C 676.325 -0.14508 4.31756 0
M  V30 7307 C 675.46 -1.08442 5.20013 0
M  V30 7308 C 674.499 -0.278958 6.11464 0
M  V30 7309 N 673.636 -1.17115 6.92263 0
M  V30 7310 H 678.476 0.761521 2.88106 0
M  V30 7311 H 676.013 0.38727 1.41911 0
M  V30 7312 H 677.971 -1.50317 3.89179 0
M  V30 7313 H 676.601 -1.66956 2.76271 0
M  V30 7314 H 675.653 0.532368 3.76656 0
M  V30 7315 H 676.965 0.48015 4.96484 0
M  V30 7316 H 676.119 -1.71504 5.81955 0
M  V30 7317 H 674.858 -1.74353 4.55469 0
M  V30 7318 H 673.863 0.364856 5.48588 0
M  V30 7319 H 675.088 0.376099 6.78058 0
M  V30 7320 H 673.034 -1.81661 6.30345 0
M  V30 7321 H 672.951 -0.601063 7.53607 0
M  V30 7322 H 674.219 -1.78915 7.58689 0
M  V30 7323 N 678.448 -1.51871 0.421078 0
M  V30 7324 C 679.411 -2.25914 -0.386712 0
M  V30 7325 C 680.411 -1.28733 -0.963555 0
M  V30 7326 O 681.601 -1.52579 -0.840556 0
M  V30 7327 C 678.733 -3.03853 -1.54551 0
M  V30 7328 H 679.926 -2.98754 0.261978 0
M  V30 7329 H 677.479 -1.5533 0.173862 0
M  V30 7330 H 678.214 -2.35392 -2.23072 0
M  V30 7331 H 677.999 -3.75215 -1.13824 0
M  V30 7332 H 679.489 -3.59984 -2.11663 0
M  V30 7333 N 679.926 -0.151884 -1.56866 0
M  V30 7334 C 680.874 0.80299 -2.183 0
M  V30 7335 C 681.868 1.25174 -1.14139 0
M  V30 7336 O 683.074 1.21966 -1.3238 0
M  V30 7337 H 679.449 0.277169 -0.699057 0
M  V30 7338 H 681.42 0.260699 -2.97259 0
M  V30 7339 C 680.169 2.03009 -2.82281 0
M  V30 7340 H 679.492 1.69377 -3.62148 0
M  V30 7341 H 680.932 2.67753 -3.28762 0
M  V30 7342 C 679.391 2.84123 -1.81041 0
M  V30 7343 O 679.921 3.8063 -1.28388 0
M  V30 7344 N 678.127 2.48753 -1.50234 0
M  V30 7345 H 677.674 1.70337 -1.93244 0
M  V30 7346 H 677.632 3.03316 -0.827445 0
M  V30 7347 N 681.404 1.57128 0.121893 0
M  V30 7348 C 682.629 1.89254 0.848385 0
M  V30 7349 C 683.054 0.743527 1.72781 0
M  V30 7350 O 682.412 -0.306056 1.78698 0
M  V30 7351 C 682.46 3.20113 1.66012 0
M  V30 7352 O 681.564 3.05815 2.76679 0
M  V30 7353 H 680.905 0.621103 0.234793 0
M  V30 7354 H 683.435 2.0433 0.10516 0
M  V30 7355 H 683.445 3.52761 2.04996 0
M  V30 7356 H 682.12 4.03336 1.01452 0
M  V30 7357 H 680.697 2.84627 2.40918 0
M  V30 7358 N 682.882 -0.391992 1.52647 0
M  V30 7359 C 684.128 -1.13563 1.68745 0
M  V30 7360 C 684.483 -1.87745 0.420685 0
M  V30 7361 O 683.776 -1.82434 -0.585529 0
M  V30 7362 C 683.97 -2.14401 2.85949 0
M  V30 7363 C 683.799 -1.50124 4.23902 0
M  V30 7364 C 682.569 -1.2666 4.89168 0
M  V30 7365 C 684.767 -0.952933 5.05395 0
M  V30 7366 N 682.749 -0.584555 6.11111 0
M  V30 7367 C 684.12 -0.398784 6.18716 0
M  V30 7368 C 686.175 -0.849053 4.90607 0
M  V30 7369 C 684.878 0.249084 7.18869 0
M  V30 7370 C 686.904 -0.215011 5.91009 0
M  V30 7371 C 686.266 0.328382 7.03634 0
M  V30 7372 H 682.365 -0.401628 0.670984 0
M  V30 7373 H 684.949 -0.425585 1.89992 0
M  V30 7374 H 683.12 -2.82746 2.66288 0
M  V30 7375 H 684.852 -2.8125 2.90999 0
M  V30 7376 H 681.607 -1.54078 4.47836 0
M  V30 7377 H 682.031 -0.259663 6.76502 0
M  V30 7378 H 686.673 -1.25497 4.03745 0
M  V30 7379 H 684.391 0.667019 8.05342 0
M  V30 7380 H 687.977 -0.135921 5.81641 0
M  V30 7381 H 686.857 0.811257 7.79992 0
M  V30 7382 N 684.36 -1.4356 -0.65026 0
M  V30 7383 C 685.607 -1.45333 -1.41012 0
M  V30 7384 C 685.935 -0.0787282 -1.94341 0
M  V30 7385 O 685.19 0.916715 -1.72901 0
M  V30 7386 C 685.489 -2.44528 -2.60654 0
M  V30 7387 C 685.155 -3.90331 -2.25727 0
M  V30 7388 C 683.817 -4.3004 -2.15914 0
M  V30 7389 C 686.169 -4.822 -1.97821 0
M  V30 7390 C 683.497 -5.59568 -1.76354 0
M  V30 7391 C 685.849 -6.12095 -1.59759 0
M  V30 7392 C 684.513 -6.50778 -1.48473 0
M  V30 7393 H 683.783 -0.531813 -0.516 0
M  V30 7394 H 686.43 -1.76657 -0.739219 0
M  V30 7395 H 684.735 -2.06619 -3.3289 0
M  V30 7396 H 686.432 -2.43155 -3.18868 0
M  V30 7397 H 683.022 -3.58905 -2.34276 0
M  V30 7398 H 687.206 -4.5229 -2.04322 0
M  V30 7399 H 682.462 -5.88376 -1.66205 0
M  V30 7400 H 686.636 -6.82751 -1.37198 0
M  V30 7401 H 684.263 -7.5105 -1.17591 0
M  V30 7402 N 685.838 0.888903 -1.30139 0
M  V30 7403 C 686.786 2.0156 -1.16088 0
M  V30 7404 C 687.78 1.69239 -0.0737413 0
M  V30 7405 O 688.986 1.78468 -0.234313 0
M  V30 7406 H 685.361 0.660825 -0.358907 0
M  V30 7407 H 687.332 2.10547 -2.11453 0
M  V30 7408 C 686.081 3.36758 -0.865426 0
M  V30 7409 H 685.404 3.62137 -1.69402 0
M  V30 7410 H 686.844 4.16246 -0.807192 0
M  V30 7411 C 685.303 3.34124 0.431577 0
M  V30 7412 O 685.833 3.7445 1.45431 0
M  V30 7413 N 684.039 2.87229 0.441321 0
M  V30 7414 H 683.586 2.54609 -0.391433 0
M  V30 7415 H 683.544 2.8585 1.30909 0
M  V30 7416 N 687.317 1.12792 1.10072 0
M  V30 7417 C 688.557 0.895691 1.8373 0
M  V30 7418 C 688.921 -0.568131 1.83402 0
M  V30 7419 O 690.122 -0.917666 2.52651 0
M  V30 7420 C 688.393 1.4593 3.2625 0
M  V30 7421 S 689.952 1.36615 4.16991 0
M  V30 7422 H 686.77 0.323017 0.633389 0
M  V30 7423 H 689.372 1.43816 1.32428 0
M  V30 7424 H 688.076 2.51818 3.24062 0
M  V30 7425 H 687.607 0.914478 3.82624 0
M  V30 7426 H 689.622 0.340131 4.95033 0
M  V30 7427 N 688.795 -1.27931 0.920396 0
M  V30 7428 C 690.211 -1.47085 0.619537 0
M  V30 7429 C 690.411 -1.83463 -0.833291 0
M  V30 7430 O 689.467 -1.94363 -1.61181 0
M  V30 7431 C 690.78 -2.56878 1.56314 0
M  V30 7432 C 692.328 -2.70743 1.57058 0
M  V30 7433 C 692.803 -3.83687 2.50097 0
M  V30 7434 N 694.294 -3.9105 2.48262 0
M  V30 7435 C 695.029 -4.77842 3.16945 0
M  V30 7436 N 694.525 -5.69176 3.94982 0
M  V30 7437 N 696.318 -4.71509 3.06 0
M  V30 7438 H 688.469 -1.02601 1.85975 0
M  V30 7439 H 690.732 -0.511682 0.798051 0
M  V30 7440 H 690.438 -2.36923 2.59923 0
M  V30 7441 H 690.312 -3.54117 1.29928 0
M  V30 7442 H 692.699 -2.90083 0.541832 0
M  V30 7443 H 692.78 -1.74015 1.8749 0
M  V30 7444 H 692.424 -3.65101 3.53077 0
M  V30 7445 H 692.354 -4.79827 2.16964 0
M  V30 7446 H 694.845 -3.25738 1.91581 0
M  V30 7447 H 695.158 -6.32245 4.44394 0
M  V30 7448 H 693.503 -5.68995 3.99086 0
M  V30 7449 H 696.694 -3.99151 2.44533 0
M  V30 7450 H 696.867 -5.38933 3.59799 0
M  V30 7451 N 690.273 -0.685099 -1.4193 0
M  V30 7452 C 691.22 -0.0131869 -2.30796 0
M  V30 7453 C 692.19 0.782129 -1.46533 0
M  V30 7454 O 693.375 0.75229 -1.75343 0
M  V30 7455 C 690.515 0.924768 -3.32479 0
M  V30 7456 C 689.628 0.122181 -4.31827 0
M  V30 7457 C 688.763 1.05682 -5.20581 0
M  V30 7458 C 687.802 0.246526 -6.11603 0
M  V30 7459 N 686.939 1.13442 -6.92875 0
M  V30 7460 H 691.779 -0.776789 -2.87698 0
M  V30 7461 H 689.316 -0.394791 -1.41703 0
M  V30 7462 H 691.274 1.48251 -3.89971 0
M  V30 7463 H 689.904 1.65488 -2.77152 0
M  V30 7464 H 688.956 -0.552335 -3.76369 0
M  V30 7465 H 690.268 -0.506473 -4.96222 0
M  V30 7466 H 689.422 1.68415 -5.82856 0
M  V30 7467 H 688.161 1.71935 -4.56388 0
M  V30 7468 H 687.166 -0.393944 -5.48387 0
M  V30 7469 H 688.391 -0.412053 -6.77849 0
M  V30 7470 H 686.337 1.78316 -6.313 0
M  V30 7471 H 686.254 0.561089 -7.53915 0
M  V30 7472 H 687.522 1.74889 -7.59628 0
M  V30 7473 N 691.751 1.51645 -0.429126 0
M  V30 7474 C 692.699 2.29119 0.400921 0
M  V30 7475 C 693.693 1.34628 1.02819 0
M  V30 7476 O 694.899 1.52004 0.964098 0
M  V30 7477 H 691.274 0.737273 0.148095 0
M  V30 7478 H 693.245 2.97144 -0.273457 0
M  V30 7479 C 691.994 3.13953 1.49429 0
M  V30 7480 H 691.317 3.86544 1.02097 0
M  V30 7481 H 692.757 3.71232 2.04849 0
M  V30 7482 C 691.216 2.28796 2.47293 0
M  V30 7483 O 691.746 1.94193 3.51642 0
M  V30 7484 N 689.952 1.92177 2.17982 0
M  V30 7485 H 689.499 2.20517 1.33154 0
M  V30 7486 H 689.457 1.35497 2.83704 0
M  V30 7487 O 693.268 0.301146 1.58667 0
M  V30 7488 H 693.959 -0.263453 1.919 0
M  V30 END ATOM
M  V30 BEGIN BOND
M  V30 END BOND
M  V30 END CTAB
M  END
$$$$
