drugbank_target|Q8TDN1 Potassium voltage-gated channel subfamily G member 4 (DB00228; DB01069; DB01110)
 OpenBabel12092121213D

  0  0  0     0  0            999 V3000
M  V30 BEGIN CTAB
M  V30 COUNTS 8317 8412 0 0 0
M  V30 BEGIN ATOM
M  V30 1 H -0.908 1.98254 -0.117106 0
M  V30 2 N 0 1.576 0 0
M  V30 3 C 0.933 2.03868 1.02534 0
M  V30 4 C 1.911 0.928543 1.3348 0
M  V30 5 O 3.095 1.19667 1.45644 0
M  V30 6 C 0.222 2.43627 2.35294 0
M  V30 7 C -0.732 3.65373 2.2001 0
M  V30 8 S 0.101 5.13292 1.52614 0
M  V30 9 C 1.257 5.56322 2.86805 0
M  V30 10 H 1.49 2.90518 0.631377 0
M  V30 11 H -0.977 1.52953 0.210867 0
M  V30 12 H 0.981 2.67203 3.11629 0
M  V30 13 H -0.358 1.57376 2.7183 0
M  V30 14 H -1.165 3.90944 3.18086 0
M  V30 15 H -1.563 3.418 1.51819 0
M  V30 16 H 0.729 5.58782 3.83104 0
M  V30 17 H 1.672 6.56266 2.65933 0
M  V30 18 H 2.08 4.83886 2.90714 0
M  V30 19 N 1.4781 -0.272755 1.55222 0
M  V30 20 C 2.8891 -0.84378 1.66545 0
M  V30 21 C 3.2401 -1.87035 0.592641 0
M  V30 22 O 2.3651 -2.14761 -0.265818 0
M  V30 23 C 2.9601 -1.53723 3.01918 0
M  V30 24 C 1.5191 -2.05628 3.15268 0
M  V30 25 C 0.6661 -0.898424 2.62343 0
M  V30 26 H 3.6171 -0.0490998 1.58624 0
M  V30 27 H 3.6381 -2.40421 2.94921 0
M  V30 28 H 3.1501 -0.78983 3.79978 0
M  V30 29 H 1.2511 -2.83329 2.41983 0
M  V30 30 H 1.3641 -2.27142 4.21833 0
M  V30 31 H -0.2719 -1.29186 2.19506 0
M  V30 32 H 0.5111 -0.164528 3.42906 0
M  V30 33 N 2.9562 -1.48159 -0.537278 0
M  V30 34 C 3.8892 -1.567 -1.65893 0
M  V30 35 C 4.8672 -0.41787 -1.57139 0
M  V30 36 O 6.0512 -0.628461 -1.77715 0
M  V30 37 C 3.1782 -1.48818 -3.04255 0
M  V30 38 C 2.2242 -2.68482 -3.31391 0
M  V30 39 S 3.0572 -4.30516 -3.1846 0
M  V30 40 C 4.2132 -4.2522 -4.59281 0
M  V30 41 H 4.4462 -2.5159 -1.58397 0
M  V30 42 H 1.9792 -1.36602 -0.719672 0
M  V30 43 H 3.9372 -1.44958 -3.84054 0
M  V30 44 H 2.5982 -0.552777 -3.09198 0
M  V30 45 H 1.7912 -2.59085 -4.32309 0
M  V30 46 H 1.3932 -2.69567 -2.59248 0
M  V30 47 H 3.6852 -3.94703 -5.5065 0
M  V30 48 H 4.6282 -5.26292 -4.73732 0
M  V30 49 H 5.0362 -3.55791 -4.38261 0
M  V30 50 N 4.4343 0.785586 -1.36625 0
M  V30 51 C 5.8453 1.36101 -1.27803 0
M  V30 52 C 6.1963 1.96035 0.0804875 0
M  V30 53 O 5.3213 1.92834 0.982042 0
M  V30 54 C 5.9163 2.47442 -2.31426 0
M  V30 55 C 4.4753 3.00789 -2.26281 0
M  V30 56 C 3.6223 1.73896 -2.15999 0
M  V30 57 H 6.5733 0.586928 -1.47448 0
M  V30 58 H 6.5943 3.2656 -1.95291 0
M  V30 59 H 6.1063 2.03791 -3.30289 0
M  V30 60 H 4.2073 3.48851 -1.30896 0
M  V30 61 H 4.3203 3.57343 -3.19128 0
M  V30 62 H 2.6843 1.9628 -1.62316 0
M  V30 63 H 3.4673 1.32368 -3.16755 0
M  V30 64 N 5.9124 1.20967 1.01018 0
M  V30 65 C 7.1374 1.0503 1.78839 0
M  V30 66 C 7.5624 -0.395752 1.8389 0
M  V30 67 O 6.9204 -1.28529 1.27867 0
M  V30 68 C 6.9684 1.64602 3.2084 0
M  V30 69 O 6.0724 0.887988 4.02726 0
M  V30 70 H 5.4134 0.369987 0.551367 0
M  V30 71 H 7.9434 1.60399 1.27018 0
M  V30 72 H 7.9534 1.68607 3.71532 0
M  V30 73 H 6.6284 2.69841 3.16479 0
M  V30 74 H 5.2054 0.922648 3.61305 0
M  V30 75 N 7.3905 -1.2043 1.01659 0
M  V30 76 C 8.8065 -1.41852 0.731442 0
M  V30 77 C 9.0065 -1.89358 -0.688898 0
M  V30 78 O 8.0625 -2.06247 -1.45666 0
M  V30 79 C 9.3755 -2.44019 1.75714 0
M  V30 80 C 10.9235 -2.57785 1.77527 0
M  V30 81 C 11.3985 -3.63194 2.79023 0
M  V30 82 N 12.8895 -3.70678 2.77763 0
M  V30 83 C 13.6245 -4.51897 3.52954 0
M  V30 84 N 13.1205 -5.36921 4.37821 0
M  V30 85 N 14.9135 -4.4643 3.41551 0
M  V30 86 H 7.0645 -0.879093 1.93354 0
M  V30 87 H 9.3275 -0.448425 0.835236 0
M  V30 88 H 9.0335 -2.1611 2.77469 0
M  V30 89 H 8.9075 -3.43007 1.56927 0
M  V30 90 H 11.2945 -2.85023 0.764569 0
M  V30 91 H 11.3755 -1.58992 2.00387 0
M  V30 92 H 11.0195 -3.36699 3.80258 0
M  V30 93 H 10.9495 -4.61609 2.53425 0
M  V30 94 H 13.4405 -3.09944 2.16201 0
M  V30 95 H 13.7535 -5.95981 4.91962 0
M  V30 96 H 12.0985 -5.36424 4.41899 0
M  V30 97 H 15.2895 -3.79042 2.74672 0
M  V30 98 H 15.4625 -5.09491 4.00404 0
M  V30 99 N 8.8686 -0.792821 -1.36206 0
M  V30 100 C 10.1456 -0.290627 -1.93429 0
M  V30 101 C 10.5256 1.21773 -1.72437 0
M  V30 102 O 9.8736 2.0108 -1.08531 0
M  V30 103 C 10.0836 -0.686973 -3.42172 0
M  V30 104 C 11.4316 -0.668643 -4.19302 0
M  V30 105 O 12.4556 -0.627658 -3.50626 0
M  V30 106 O 11.3146 -0.714597 -5.41808 0
M  V30 107 H 8.4086 -0.0727927 -0.82379 0
M  V30 108 H 10.9546 -0.875593 -1.45367 0
M  V30 109 H 9.7266 -1.72711 -3.51122 0
M  V30 110 H 9.3496 -0.0760733 -3.97527 0
M  V30 111 N 10.3467 1.47872 -0.545128 0
M  V30 112 C 11.5947 2.02093 -0.016553 0
M  V30 113 C 11.9157 1.42305 1.3332 0
M  V30 114 O 11.1857 0.593853 1.86682 0
M  V30 115 H 9.7657 0.746993 -0.00313038 0
M  V30 116 H 12.4277 1.81414 -0.712397 0
M  V30 117 H 11.5237 3.11996 0.0805422 0
M  V30 118 N 11.8248 0.280983 1.55075 0
M  V30 119 C 13.0728 -0.333455 1.9933 0
M  V30 120 C 13.3938 -1.55937 1.17085 0
M  V30 121 O 12.6638 -1.94143 0.261805 0
M  V30 122 H 11.2438 -0.126197 0.736263 0
M  V30 123 H 13.9058 0.387678 1.91005 0
M  V30 124 H 13.0018 -0.619292 3.05894 0
M  V30 125 N 13.3029 -1.57598 0.00835791 0
M  V30 126 C 14.2329 -2.1198 -0.979113 0
M  V30 127 C 15.2139 -1.03091 -1.35301 0
M  V30 128 O 16.3989 -1.30818 -1.43528 0
M  V30 129 C 13.5289 -2.62995 -2.26828 0
M  V30 130 C 12.4829 -3.76485 -2.03576 0
M  V30 131 C 11.8089 -4.13846 -3.38579 0
M  V30 132 C 13.1089 -5.0342 -1.39161 0
M  V30 133 H 14.8029 -2.94738 -0.526281 0
M  V30 134 H 12.3489 -1.41783 -0.251704 0
M  V30 135 H 14.3019 -2.99669 -2.96271 0
M  V30 136 H 13.0259 -1.7737 -2.7424 0
M  V30 137 H 11.6849 -3.40217 -1.36557 0
M  V30 138 H 11.3329 -3.25232 -3.83709 0
M  V30 139 H 11.0329 -4.90312 -3.23834 0
M  V30 140 H 12.5569 -4.53086 -4.09323 0
M  V30 141 H 13.9709 -5.37812 -1.98573 0
M  V30 142 H 12.3679 -5.84746 -1.34878 0
M  V30 143 H 13.4379 -4.83548 -0.361868 0
M  V30 144 N 14.781 0.264519 -1.55364 0
M  V30 145 C 15.731 1.32966 -1.85214 0
M  V30 146 C 16.715 1.44306 -0.711653 0
M  V30 147 O 17.907 1.47844 -0.973192 0
M  V30 148 C 15.036 2.68839 -2.13495 0
M  V30 149 C 14.122 2.61575 -3.33825 0
M  V30 150 N 14.513 2.23933 -4.53528 0
M  V30 151 C 12.811 2.92621 -3.36584 0
M  V30 152 C 13.512 2.26868 -5.35636 0
M  V30 153 N 12.488 2.65677 -4.74254 0
M  V30 154 H 16.29 1.02884 -2.75304 0
M  V30 155 H 13.804 0.473157 -1.55354 0
M  V30 156 H 15.801 3.45685 -2.33039 0
M  V30 157 H 14.461 2.99802 -1.24694 0
M  V30 158 H 15.472 1.95769 -4.79474 0
M  V30 159 H 12.149 3.2824 -2.58002 0
M  V30 160 H 13.539 2.00254 -6.41364 0
M  V30 161 N 16.2591 1.48442 0.529413 0
M  V30 162 C 17.6701 1.5002 1.11134 0
M  V30 163 C 18.0211 0.27031 1.94329 0
M  V30 164 O 17.1461 -0.622507 2.07253 0
M  V30 165 C 17.7411 2.71834 2.02217 0
M  V30 166 C 16.3001 2.76283 2.55627 0
M  V30 167 C 15.4471 2.43542 1.326 0
M  V30 168 H 18.3981 1.5555 0.314641 0
M  V30 169 H 18.4191 2.50384 2.8651 0
M  V30 170 H 17.9311 3.61331 1.41639 0
M  V30 171 H 16.0321 1.90995 3.19924 0
M  V30 172 H 16.1451 3.77725 2.94721 0
M  V30 173 H 14.5091 1.94709 1.64196 0
M  V30 174 H 15.2921 3.3528 0.737734 0
M  V30 175 N 17.7372 -0.778329 1.37039 0
M  V30 176 C 19.1532 -1.07796 1.17695 0
M  V30 177 C 19.3532 -2.01498 0.00860115 0
M  V30 178 O 18.4092 -2.43901 -0.653352 0
M  V30 179 C 19.7222 -1.68178 2.49272 0
M  V30 180 C 21.2702 -1.80467 2.55735 0
M  V30 181 C 21.7452 -2.44263 3.87427 0
M  V30 182 N 23.2362 -2.51721 3.88833 0
M  V30 183 C 23.9712 -3.01919 4.87476 0
M  V30 184 N 23.4672 -3.5234 5.96513 0
M  V30 185 N 25.2602 -3.00733 4.74885 0
M  V30 186 H 17.4112 -0.156032 2.11826 0
M  V30 187 H 19.6742 -0.131844 0.938787 0
M  V30 188 H 19.3802 -1.06796 3.35093 0
M  V30 189 H 19.2542 -2.67554 2.65885 0
M  V30 190 H 21.6412 -2.40984 1.70325 0
M  V30 191 H 21.7222 -0.798656 2.43013 0
M  V30 192 H 21.3662 -1.84388 4.73248 0
M  V30 193 H 21.2962 -3.45458 3.9745 0
M  V30 194 H 23.7872 -2.1603 3.10063 0
M  V30 195 H 24.1002 -3.89027 6.67741 0
M  V30 196 H 22.4452 -3.50462 6.00168 0
M  V30 197 H 25.6362 -2.60638 3.88826 0
M  V30 198 H 25.8092 -3.39545 5.51918 0
M  V30 199 N 19.2153 -1.21501 -1.00376 0
M  V30 200 C 20.1653 -0.942843 -2.07592 0
M  V30 201 C 21.1493 0.102384 -1.60574 0
M  V30 202 O 22.3413 -0.10671 -1.76678 0
M  V30 203 C 19.4703 -0.510729 -3.3948 0
M  V30 204 C 18.5563 -1.59009 -3.93163 0
M  V30 205 N 18.9473 -2.81544 -4.20198 0
M  V30 206 C 17.2453 -1.45925 -4.21452 0
M  V30 207 C 17.9463 -3.51261 -4.63671 0
M  V30 208 N 16.9223 -2.78703 -4.66718 0
M  V30 209 H 20.7243 -1.87378 -2.26421 0
M  V30 210 H 18.2383 -1.11093 -1.18458 0
M  V30 211 H 20.2353 -0.297101 -4.1584 0
M  V30 212 H 18.8953 0.413436 -3.22057 0
M  V30 213 H 19.9063 -3.18075 -4.08716 0
M  V30 214 H 16.5833 -0.600467 -4.13159 0
M  V30 215 H 17.9733 -4.56183 -4.93302 0
M  V30 216 N 20.6934 1.19889 -1.02296 0
M  V30 217 C 21.6434 2.20777 -0.56934 0
M  V30 218 C 22.6274 1.56379 0.378741 0
M  V30 219 O 23.8194 1.75859 0.200673 0
M  V30 220 C 20.9484 3.43196 0.0845077 0
M  V30 221 C 20.0344 4.14749 -0.88566 0
M  V30 222 N 20.4254 4.62584 -2.04573 0
M  V30 223 C 18.7234 4.40347 -0.707835 0
M  V30 224 C 19.4244 5.17466 -2.65714 0
M  V30 225 N 18.4004 5.0791 -1.93723 0
M  V30 226 H 22.2024 2.55434 -1.45365 0
M  V30 227 H 19.7164 1.35897 -0.88915 0
M  V30 228 H 21.7134 4.14707 0.427067 0
M  V30 229 H 20.3734 3.10042 0.964574 0
M  V30 230 H 21.3844 4.57597 -2.4254 0
M  V30 231 H 18.0614 4.17317 0.12364 0
M  V30 232 H 19.4514 5.64808 -3.63925 0
M  V30 233 N 22.1715 0.800033 1.35784 0
M  V30 234 C 23.1215 0.178654 2.27299 0
M  V30 235 C 24.1055 -0.643667 1.47464 0
M  V30 236 O 25.2975 -0.502 1.69732 0
M  V30 237 C 22.4265 -0.677194 3.36555 0
M  V30 238 C 21.5125 0.154497 4.23818 0
M  V30 239 N 21.9035 1.21427 4.91008 0
M  V30 240 C 20.2015 -0.0649462 4.45953 0
M  V30 241 C 20.9025 1.72147 5.55644 0
M  V30 242 N 19.8785 1.02897 5.33773 0
M  V30 243 H 23.6805 0.989637 2.76737 0
M  V30 244 H 21.1945 0.64054 1.49234 0
M  V30 245 H 23.1915 -1.13835 4.01058 0
M  V30 246 H 21.8515 -1.4866 2.8867 0
M  V30 247 H 22.8625 1.59684 4.92668 0
M  V30 248 H 19.5395 -0.844016 4.0888 0
M  V30 249 H 20.9295 2.60683 6.19269 0
M  V30 250 N 23.6496 -1.47581 0.552962 0
M  V30 251 C 24.8796 -2.06575 0.0320091 0
M  V30 252 C 25.2876 -1.4067 -1.26525 0
M  V30 253 O 24.6306 -0.495808 -1.76883 0
M  V30 254 C 24.6926 -3.58705 -0.238913 0
M  V30 255 C 24.3566 -4.46625 0.968272 0
M  V30 256 C 25.3536 -4.85 1.87274 0
M  V30 257 C 23.0386 -4.88201 1.18175 0
M  V30 258 C 25.0326 -5.63745 2.9744 0
M  V30 259 C 22.7196 -5.66712 2.28651 0
M  V30 260 C 23.7176 -6.04394 3.18114 0
M  V30 261 O 23.4056 -6.81324 4.26676 0
M  V30 262 H 23.1376 -0.674763 0.0408689 0
M  V30 263 H 25.6916 -1.90634 0.764719 0
M  V30 264 H 23.9216 -3.72844 -1.02588 0
M  V30 265 H 25.6106 -3.99735 -0.704731 0
M  V30 266 H 26.3766 -4.53482 1.71984 0
M  V30 267 H 22.2556 -4.58339 0.494593 0
M  V30 268 H 25.7996 -5.93077 3.67296 0
M  V30 269 H 21.6966 -5.97642 2.43915 0
M  V30 270 H 22.4646 -6.99712 4.24671 0
M  V30 271 N 25.1277 -0.289203 -1.54924 0
M  V30 272 C 26.3757 0.322879 -1.99504 0
M  V30 273 C 26.6967 1.55313 -1.1791 0
M  V30 274 O 25.9667 1.94001 -0.272097 0
M  V30 275 H 24.5467 0.122291 -0.736922 0
M  V30 276 H 27.2087 -0.397802 -1.90797 0
M  V30 277 H 26.3047 0.603061 -3.06218 0
M  V30 278 N 26.6058 1.57591 -0.0167156 0
M  V30 279 C 27.8308 1.9598 0.67872 0
M  V30 280 C 28.2558 0.892546 1.65575 0
M  V30 281 O 27.6138 -0.147772 1.80697 0
M  V30 282 C 27.6618 3.33468 1.37227 0
M  V30 283 O 26.7658 3.28954 2.48722 0
M  V30 284 H 26.1068 0.639339 0.17928 0
M  V30 285 H 28.6368 2.04463 -0.0748802 0
M  V30 286 H 28.6468 3.69417 1.7319 0
M  V30 287 H 27.3218 4.10694 0.656007 0
M  V30 288 H 25.8988 3.04705 2.14963 0
M  V30 289 N 28.0839 -0.256276 1.55502 0
M  V30 290 C 29.0339 -1.31981 1.85916 0
M  V30 291 C 30.0179 -1.43927 0.719296 0
M  V30 292 O 31.2099 -1.47326 0.981019 0
M  V30 293 C 28.3389 -2.67703 2.14918 0
M  V30 294 C 27.4249 -2.59801 3.35208 0
M  V30 295 N 27.8159 -2.21524 4.54709 0
M  V30 296 C 26.1139 -2.90832 3.38131 0
M  V30 297 C 26.8149 -2.24024 5.36832 0
M  V30 298 N 25.7909 -2.63158 4.75656 0
M  V30 299 H 29.5929 -1.01423 2.75845 0
M  V30 300 H 27.1069 -0.464911 1.55603 0
M  V30 301 H 29.1039 -3.44445 2.34869 0
M  V30 302 H 27.7639 -2.99137 1.26282 0
M  V30 303 H 28.7749 -1.93223 4.80505 0
M  V30 304 H 25.4519 -3.26867 2.59739 0
M  V30 305 H 26.8419 -1.9685 6.42417 0
M  V30 306 N 29.562 -1.4872 -0.521534 0
M  V30 307 C 30.787 -1.61101 -1.30618 0
M  V30 308 C 31.212 -0.274611 -1.86085 0
M  V30 309 O 30.57 0.754937 -1.64834 0
M  V30 310 C 30.618 -2.66709 -2.4269 0
M  V30 311 O 29.722 -2.24456 -3.45967 0
M  V30 312 H 29.063 -0.539921 -0.386499 0
M  V30 313 H 31.593 -1.94767 -0.626645 0
M  V30 314 H 31.603 -2.88245 -2.88754 0
M  V30 315 H 30.278 -3.63727 -2.01682 0
M  V30 316 H 28.855 -2.13168 -3.05964 0
M  V30 317 N 31.0401 0.771051 -1.3745 0
M  V30 318 C 32.4511 1.34737 -1.29239 0
M  V30 319 C 32.8021 1.96109 0.0596908 0
M  V30 320 O 31.9271 1.93865 0.961534 0
M  V30 321 C 32.5221 2.44973 -2.34037 0
M  V30 322 C 31.0811 2.98372 -2.29458 0
M  V30 323 C 30.2281 1.71595 -2.17831 0
M  V30 324 H 33.1791 0.571256 -1.48062 0
M  V30 325 H 33.2001 3.24471 -1.98744 0
M  V30 326 H 32.7121 2.00276 -3.32432 0
M  V30 327 H 30.8131 3.47443 -1.34589 0
M  V30 328 H 30.9261 3.53939 -3.229 0
M  V30 329 H 29.2901 1.94547 -1.64388 0
M  V30 330 H 30.0731 1.29001 -3.18141 0
M  V30 331 N 32.5182 1.22032 0.997298 0
M  V30 332 C 33.7642 1.05382 1.73972 0
M  V30 333 C 34.1192 -0.407419 1.88037 0
M  V30 334 O 33.4122 -1.29811 1.40924 0
M  V30 335 C 33.6062 1.69345 3.14733 0
M  V30 336 C 33.4352 3.21537 3.14395 0
M  V30 337 C 32.2052 3.9062 3.20537 0
M  V30 338 C 34.4032 4.18527 2.98897 0
M  V30 339 N 32.3852 5.29935 3.09906 0
M  V30 340 C 33.7562 5.44645 2.96247 0
M  V30 341 C 35.8112 4.09476 2.83255 0
M  V30 342 C 34.5142 6.62752 2.79557 0
M  V30 343 C 36.5402 5.27228 2.67926 0
M  V30 344 C 35.9022 6.52262 2.65959 0
M  V30 345 H 32.0012 0.440018 0.646458 0
M  V30 346 H 34.5852 1.54505 1.18475 0
M  V30 347 H 32.7562 1.22778 3.68484 0
M  V30 348 H 34.4882 1.45828 3.77513 0
M  V30 349 H 31.2432 3.41592 3.28043 0
M  V30 350 H 31.6672 6.02926 3.07912 0
M  V30 351 H 36.3092 3.13598 2.83577 0
M  V30 352 H 34.0272 7.58783 2.77982 0
M  V30 353 H 37.6132 5.22053 2.56812 0
M  V30 354 H 36.4932 7.41844 2.54239 0
M  V30 355 N 33.9963 -1.19345 1.0293 0
M  V30 356 C 35.2213 -1.93538 0.745511 0
M  V30 357 C 35.6463 -1.75007 -0.689511 0
M  V30 358 O 35.0043 -1.05265 -1.47611 0
M  V30 359 C 35.0523 -3.43336 1.10239 0
M  V30 360 O 34.1563 -4.11806 0.221289 0
M  V30 361 H 33.4973 -0.604193 0.275404 0
M  V30 362 H 36.0273 -1.5141 1.37609 0
M  V30 363 H 36.0373 -3.94004 1.05947 0
M  V30 364 H 34.7123 -3.56146 2.14786 0
M  V30 365 H 33.2893 -3.715 0.322842 0
M  V30 366 N 35.4744 -0.807222 -1.35358 0
M  V30 367 C 36.4064 -0.175717 -2.28525 0
M  V30 368 C 37.4194 0.625354 -1.5031 0
M  V30 369 O 38.6084 0.457611 -1.72535 0
M  V30 370 C 35.7084 0.773471 -3.29956 0
M  V30 371 C 34.8814 0.0186296 -4.37396 0
M  V30 372 C 33.9404 0.886395 -5.18681 0
M  V30 373 O 32.9664 0.337106 -5.68201 0
M  V30 374 N 34.1684 2.20839 -5.36852 0
M  V30 375 H 36.9334 -0.976091 -2.83359 0
M  V30 376 H 34.4944 -0.662737 -1.47714 0
M  V30 377 H 36.4864 1.35824 -3.81227 0
M  V30 378 H 35.0564 1.47465 -2.75632 0
M  V30 379 H 34.2764 -0.747349 -3.87051 0
M  V30 380 H 35.5644 -0.501577 -5.06322 0
M  V30 381 H 34.9624 2.67858 -4.98265 0
M  V30 382 H 33.5194 2.74237 -5.91301 0
M  V30 383 N 36.9525 1.47285 -0.560781 0
M  V30 384 C 37.8825 2.32857 0.173105 0
M  V30 385 C 38.8635 1.44009 0.905281 0
M  V30 386 O 40.0485 1.7286 0.885046 0
M  V30 387 C 37.1785 3.25861 1.20133 0
M  V30 388 C 36.1325 4.23978 0.585388 0
M  V30 389 C 35.4585 5.06332 1.7185 0
M  V30 390 C 36.7585 5.20242 -0.463178 0
M  V30 391 H 38.4525 2.94466 -0.541307 0
M  V30 392 H 35.9985 1.41601 -0.261764 0
M  V30 393 H 37.9515 3.84569 1.72293 0
M  V30 394 H 36.6755 2.62315 1.94573 0
M  V30 395 H 35.3345 3.66501 0.085054 0
M  V30 396 H 34.9825 4.39186 2.45203 0
M  V30 397 H 34.6825 5.72762 1.31213 0
M  V30 398 H 36.2065 5.67899 2.24329 0
M  V30 399 H 37.6205 5.73293 -0.027502 0
M  V30 400 H 36.0175 5.94896 -0.788627 0
M  V30 401 H 37.0875 4.65504 -1.35773 0
M  V30 402 N 38.4306 0.297415 1.54768 0
M  V30 403 C 39.3606 -0.573494 2.26348 0
M  V30 404 C 40.3416 -1.14085 1.26169 0
M  V30 405 O 41.5266 -1.17086 1.54934 0
M  V30 406 C 38.6566 -1.74716 3.00153 0
M  V30 407 C 37.6106 -1.31032 4.07449 0
M  V30 408 C 36.9366 -2.56887 4.68949 0
M  V30 409 C 38.2366 -0.444183 5.20408 0
M  V30 410 H 39.9306 0.0235131 2.99391 0
M  V30 411 H 37.4766 0.0127488 1.43994 0
M  V30 412 H 39.4296 -2.3625 3.48947 0
M  V30 413 H 38.1536 -2.37035 2.24682 0
M  V30 414 H 36.8126 -0.718066 3.59499 0
M  V30 415 H 36.4606 -3.17512 3.90122 0
M  V30 416 H 36.1606 -2.2836 5.41411 0
M  V30 417 H 37.6846 -3.19229 5.20505 0
M  V30 418 H 39.0986 -0.9651 5.65118 0
M  V30 419 H 37.4956 -0.252846 5.99567 0
M  V30 420 H 38.5656 0.531609 4.81977 0
M  V30 421 N 39.9087 -1.5758 0.0250728 0
M  V30 422 C 41.1337 -1.96337 -0.668317 0
M  V30 423 C 41.5587 -0.901314 -1.651 0
M  V30 424 O 40.9167 0.138187 -1.80773 0
M  V30 425 C 40.9647 -3.34191 -1.35457 0
M  V30 426 O 40.0687 -3.30269 -2.46974 0
M  V30 427 H 39.4097 -0.640281 -0.175887 0
M  V30 428 H 41.9397 -2.0442 0.0857224 0
M  V30 429 H 41.9497 -3.70331 -1.71228 0
M  V30 430 H 40.6247 -4.11036 -0.634218 0
M  V30 431 H 39.2017 -3.05841 -2.13344 0
M  V30 432 N 41.3868 0.248026 -1.55636 0
M  V30 433 C 42.6118 0.998028 -1.81808 0
M  V30 434 C 43.0368 1.78207 -0.601979 0
M  V30 435 O 42.3948 1.75653 0.448961 0
M  V30 436 C 42.4428 1.9125 -3.05705 0
M  V30 437 O 41.5468 3.00406 -2.82542 0
M  V30 438 H 40.8878 0.284045 -0.600179 0
M  V30 439 H 43.4178 0.269357 -2.02819 0
M  V30 440 H 43.4278 2.32737 -3.35108 0
M  V30 441 H 42.1028 1.33602 -3.93857 0
M  V30 442 H 40.6798 2.63056 -2.64303 0
M  V30 443 N 42.8649 1.48995 0.513639 0
M  V30 444 C 44.2759 1.5119 1.09537 0
M  V30 445 C 44.6269 0.290906 1.94031 0
M  V30 446 O 43.7519 -0.60049 2.07902 0
M  V30 447 C 44.3469 2.73964 1.99322 0
M  V30 448 C 42.9059 2.78978 2.52682 0
M  V30 449 C 42.0529 2.44934 1.30009 0
M  V30 450 H 45.0039 1.55875 0.298125 0
M  V30 451 H 45.0249 2.53409 2.83838 0
M  V30 452 H 44.5369 3.62813 1.37799 0
M  V30 453 H 42.6379 1.94378 3.1788 0
M  V30 454 H 42.7509 3.8083 2.90698 0
M  V30 455 H 41.1149 1.9644 1.62122 0
M  V30 456 H 41.8979 3.36043 0.702131 0
M  V30 457 N 44.343 -0.763751 1.37857 0
M  V30 458 C 45.276 -1.88486 1.28639 0
M  V30 459 C 46.254 -1.61757 0.165363 0
M  V30 460 O 47.438 -1.85391 0.340948 0
M  V30 461 C 44.565 -3.23884 0.990811 0
M  V30 462 C 43.611 -3.69514 2.12983 0
M  V30 463 S 44.444 -3.82244 3.75033 0
M  V30 464 C 45.6 -5.20477 3.47641 0
M  V30 465 H 45.833 -1.96017 2.23527 0
M  V30 466 H 43.366 -0.925684 1.23574 0
M  V30 467 H 45.324 -4.02081 0.827101 0
M  V30 468 H 43.985 -3.14044 0.0592832 0
M  V30 469 H 43.178 -4.67696 1.87821 0
M  V30 470 H 42.78 -2.98441 2.25408 0
M  V30 471 H 45.072 -6.05905 3.03125 0
M  V30 472 H 46.015 -5.50655 4.4518 0
M  V30 473 H 46.423 -4.88793 2.82385 0
M  V30 474 N 45.8211 -1.22559 -0.990812 0
M  V30 475 C 46.7311 -1.01394 -2.11557 0
M  V30 476 C 47.7471 0.0383962 -1.73958 0
M  V30 477 O 48.9231 -0.154787 -2.00804 0
M  V30 478 C 45.9881 -0.596569 -3.41529 0
M  V30 479 C 45.0491 -1.72276 -3.93217 0
M  V30 480 C 44.2821 -1.32521 -5.16985 0
M  V30 481 O 44.5051 -0.204909 -5.70032 0
M  V30 482 O 43.4391 -2.14247 -5.62478 0
M  V30 483 H 47.2651 -1.95633 -2.32296 0
M  V30 484 H 44.8501 -1.01172 -1.0993 0
M  V30 485 H 46.7321 -0.374263 -4.19735 0
M  V30 486 H 45.4071 0.316939 -3.22145 0
M  V30 487 H 44.3141 -1.99961 -3.16174 0
M  V30 488 H 45.6471 -2.61421 -4.17037 0
M  V30 489 N 47.2992 1.18797 -1.03562 0
M  V30 490 C 48.5272 1.92599 -0.755869 0
M  V30 491 C 48.9422 1.75886 0.686271 0
M  V30 492 O 48.2992 1.08517 1.46732 0
M  V30 493 C 48.3502 3.44159 -1.10619 0
M  V30 494 O 48.0712 3.60341 -2.4917 0
M  V30 495 C 49.5722 4.3507 -0.850214 0
M  V30 496 H 46.7922 0.611587 -0.276048 0
M  V30 497 H 49.3362 1.50742 -1.38192 0
M  V30 498 H 47.4912 3.83823 -0.525194 0
M  V30 499 H 47.9052 4.54128 -2.62427 0
M  V30 500 H 49.3792 5.39989 -1.14523 0
M  V30 501 H 49.8562 4.38673 0.215176 0
M  V30 502 H 50.4622 4.01097 -1.41426 0
M  V30 503 N 48.7773 0.814389 1.34928 0
M  V30 504 C 50.1883 0.458364 1.80986 0
M  V30 505 C 50.5393 -1.02042 1.67577 0
M  V30 506 O 49.6643 -1.79352 1.21086 0
M  V30 507 C 50.2593 0.825212 3.28597 0
M  V30 508 C 48.8183 0.521677 3.72767 0
M  V30 509 C 47.9653 1.04668 2.56788 0
M  V30 510 H 50.9163 1.00533 1.22795 0
M  V30 511 H 50.9373 0.12571 3.80292 0
M  V30 512 H 50.4493 1.90154 3.38324 0
M  V30 513 H 48.5503 -0.545589 3.68584 0
M  V30 514 H 48.6633 1.05977 4.67232 0
M  V30 515 H 47.0273 0.468622 2.50352 0
M  V30 516 H 47.8103 2.12927 2.6929 0
M  V30 517 N 50.2554 -1.46986 0.568584 0
M  V30 518 C 51.4804 -2.07335 0.0520528 0
M  V30 519 C 51.9054 -1.41675 -1.23733 0
M  V30 520 O 51.2634 -0.495623 -1.74394 0
M  V30 521 C 51.3114 -3.60417 -0.11501 0
M  V30 522 O 50.4154 -3.95309 -1.17492 0
M  V30 523 H 49.7564 -0.661597 0.0564385 0
M  V30 524 H 52.2864 -1.88837 0.787507 0
M  V30 525 H 52.2964 -4.06698 -0.325644 0
M  V30 526 H 50.9714 -4.07601 0.826675 0
M  V30 527 H 49.5484 -3.60757 -0.943869 0
M  V30 528 N 51.7335 -0.305618 -1.54608 0
M  V30 529 C 52.9825 0.303098 -1.9941 0
M  V30 530 C 53.2955 1.54648 -1.19764 0
M  V30 531 O 54.5015 2.23007 -1.54855 0
M  V30 532 C 52.9575 0.590588 -3.55021 0
M  V30 533 C 52.5655 -0.634719 -4.43481 0
M  V30 534 C 54.3095 1.16025 -4.08336 0
M  V30 535 C 52.2165 -0.320126 -5.90533 0
M  V30 536 H 51.1465 0.117031 -0.744862 0
M  V30 537 H 53.7975 -0.415045 -1.78745 0
M  V30 538 H 52.1795 1.36845 -3.71604 0
M  V30 539 H 53.3535 -1.41079 -4.38672 0
M  V30 540 H 51.6685 -1.12333 -4.00962 0
M  V30 541 H 54.2655 1.40994 -5.15776 0
M  V30 542 H 54.6085 2.10397 -3.5922 0
M  V30 543 H 55.1415 0.443985 -3.95315 0
M  V30 544 H 51.8805 -1.23254 -6.43808 0
M  V30 545 H 51.4005 0.418579 -5.98338 0
M  V30 546 H 53.0795 0.0766241 -6.46955 0
M  V30 547 N 53.2116 1.57565 -0.0334293 0
M  V30 548 C 54.1586 2.10478 0.946981 0
M  V30 549 C 55.1286 1.00787 1.32027 0
M  V30 550 O 56.3136 1.28232 1.41284 0
M  V30 551 C 53.4536 2.63994 2.22263 0
M  V30 552 C 52.5666 3.87709 1.90541 0
M  V30 553 C 51.7016 4.29604 3.12433 0
M  V30 554 C 50.7406 5.46065 2.76549 0
M  V30 555 N 49.8776 5.83096 3.9108 0
M  V30 556 H 54.7176 2.93963 0.488846 0
M  V30 557 H 52.2546 1.45296 0.22969 0
M  V30 558 H 54.2126 2.93114 2.96884 0
M  V30 559 H 52.8426 1.83333 2.65685 0
M  V30 560 H 51.8946 3.65291 1.06144 0
M  V30 561 H 53.2066 4.72403 1.60116 0
M  V30 562 H 52.3606 4.60182 3.9537 0
M  V30 563 H 51.0996 3.43685 3.46023 0
M  V30 564 H 50.1046 5.15176 1.92026 0
M  V30 565 H 51.3296 6.33685 2.44171 0
M  V30 566 H 49.2756 5.00132 4.24504 0
M  V30 567 H 49.1926 6.6244 3.64293 0
M  V30 568 H 50.4606 6.18282 4.74708 0
M  V30 569 N 54.6897 -0.239769 1.55765 0
M  V30 570 C 55.9377 -0.964892 1.77579 0
M  V30 571 C 56.2587 -1.85582 0.598699 0
M  V30 572 O 55.5287 -1.92075 -0.385226 0
M  V30 573 H 54.1087 -0.359265 0.654933 0
M  V30 574 H 56.7707 -0.256001 1.93211 0
M  V30 575 H 55.8667 -1.58243 2.69009 0
M  V30 576 N 56.1678 -1.49265 -0.50573 0
M  V30 577 C 57.0978 -1.68495 -1.61653 0
M  V30 578 C 58.0788 -0.53366 -1.61512 0
M  V30 579 O 59.2638 -0.76897 -1.78327 0
M  V30 580 C 56.3938 -1.74709 -3.00157 0
M  V30 581 C 55.3478 -2.89581 -3.15162 0
M  V30 582 C 54.6738 -2.80903 -4.5497 0
M  V30 583 C 55.9738 -4.30578 -2.95634 0
M  V30 584 H 57.6678 -2.61493 -1.45814 0
M  V30 585 H 55.2138 -1.25838 -0.70005 0
M  V30 586 H 57.1668 -1.86748 -3.77761 0
M  V30 587 H 55.8908 -0.783067 -3.17074 0
M  V30 588 H 54.5498 -2.77136 -2.39982 0
M  V30 589 H 54.1978 -1.82419 -4.68756 0
M  V30 590 H 53.8978 -3.57999 -4.65951 0
M  V30 591 H 55.4218 -2.94944 -5.34641 0
M  V30 592 H 56.8358 -4.4373 -3.63011 0
M  V30 593 H 55.2328 -5.0886 -3.18091 0
M  V30 594 H 56.3028 -4.45352 -1.91806 0
M  V30 595 N 57.6459 0.756429 -1.3826 0
M  V30 596 C 58.8759 1.54341 -1.3734 0
M  V30 597 C 59.2839 1.89159 0.0393917 0
M  V30 598 O 58.6269 1.5307 1.01565 0
M  V30 599 C 58.6889 2.87238 -2.16182 0
M  V30 600 C 58.3529 2.74973 -3.65019 0
M  V30 601 C 59.3499 2.44962 -4.58574 0
M  V30 602 C 57.0349 2.92515 -4.08338 0
M  V30 603 C 59.0289 2.32642 -5.93428 0
M  V30 604 C 56.7159 2.79815 -5.43274 0
M  V30 605 C 57.7139 2.49921 -6.35632 0
M  V30 606 O 57.4019 2.37275 -7.68086 0
M  V30 607 H 57.1339 0.484281 -0.471643 0
M  V30 608 H 59.6879 0.944152 -1.82414 0
M  V30 609 H 57.9179 3.49342 -1.65822 0
M  V30 610 H 59.6069 3.48731 -2.07705 0
M  V30 611 H 60.3729 2.31081 -4.26412 0
M  V30 612 H 56.2519 3.14781 -3.368 0
M  V30 613 H 59.7959 2.0923 -6.65484 0
M  V30 614 H 55.6929 2.93269 -5.75034 0
M  V30 615 H 56.4609 2.52509 -7.78577 0
M  V30 616 N 59.124 1.23083 0.984299 0
M  V30 617 C 60.354 1.08556 1.75781 0
M  V30 618 C 60.762 -0.366171 1.85623 0
M  V30 619 O 60.105 -1.26524 1.33182 0
M  V30 620 C 60.167 1.63208 3.20318 0
M  V30 621 C 59.831 3.11922 3.33997 0
M  V30 622 C 60.828 4.09259 3.2063 0
M  V30 623 C 58.513 3.51552 3.58771 0
M  V30 624 C 60.507 5.4421 3.31835 0
M  V30 625 C 58.194 4.86649 3.69616 0
M  V30 626 C 59.192 5.82787 3.56157 0
M  V30 627 O 58.88 7.15431 3.66626 0
M  V30 628 H 58.612 0.380713 0.5586 0
M  V30 629 H 61.166 1.63321 1.2456 0
M  V30 630 H 59.396 1.0286 3.72769 0
M  V30 631 H 61.085 1.44216 3.79416 0
M  V30 632 H 61.851 3.79984 3.01392 0
M  V30 633 H 57.73 2.77239 3.6832 0
M  V30 634 H 61.274 6.1923 3.21247 0
M  V30 635 H 57.171 5.15601 3.88363 0
M  V30 636 H 57.939 7.23127 3.83445 0
M  V30 637 N 60.6021 -1.18246 1.0419 0
M  V30 638 C 62.0181 -1.40269 0.761366 0
M  V30 639 C 62.2181 -1.90777 -0.648578 0
M  V30 640 O 61.2741 -2.0929 -1.41258 0
M  V30 641 C 62.5871 -2.40237 1.8085 0
M  V30 642 C 64.1351 -2.53961 1.82955 0
M  V30 643 C 64.6101 -3.57194 2.86664 0
M  V30 644 N 66.1011 -3.64702 2.85563 0
M  V30 645 C 66.8361 -4.44309 3.6246 0
M  V30 646 N 66.3321 -5.27514 4.49111 0
M  V30 647 N 68.1251 -4.39084 3.50944 0
M  V30 648 H 60.2761 -0.837882 1.95175 0
M  V30 649 H 62.5391 -0.430608 0.84456 0
M  V30 650 H 62.2451 -2.10176 2.81991 0
M  V30 651 H 62.1191 -3.39601 1.64168 0
M  V30 652 H 64.5061 -2.83338 0.824855 0
M  V30 653 H 64.5871 -1.54706 2.03715 0
M  V30 654 H 64.2311 -3.28558 3.87314 0
M  V30 655 H 64.1611 -4.5613 2.6316 0
M  V30 656 H 66.6521 -3.05289 2.22727 0
M  V30 657 H 66.9651 -5.85411 5.04493 0
M  V30 658 H 65.3101 -5.2693 4.53178 0
M  V30 659 H 68.5011 -3.7313 2.82651 0
M  V30 660 H 68.6741 -5.00883 4.11121 0
M  V30 661 N 62.0802 -0.821533 -1.34494 0
M  V30 662 C 63.4962 -0.507117 -1.51329 0
M  V30 663 C 63.6962 0.968964 -1.76673 0
M  V30 664 O 62.7522 1.75348 -1.81685 0
M  V30 665 C 64.0652 -1.36544 -2.67911 0
M  V30 666 C 65.6132 -1.36242 -2.81793 0
M  V30 667 C 66.0882 -2.2052 -4.01416 0
M  V30 668 N 67.5792 -2.18136 -4.08621 0
M  V30 669 C 68.3142 -2.80095 -5.00334 0
M  V30 670 N 67.8102 -3.51039 -5.9728 0
M  V30 671 N 69.6032 -2.69656 -4.93196 0
M  V30 672 H 61.7542 -1.77729 -1.16302 0
M  V30 673 H 64.0172 -0.757291 -0.570276 0
M  V30 674 H 63.7232 -2.41361 -2.55808 0
M  V30 675 H 63.5972 -1.02917 -3.62888 0
M  V30 676 H 65.9842 -0.322041 -2.93338 0
M  V30 677 H 66.0652 -1.73866 -1.87628 0
M  V30 678 H 65.7092 -3.24607 -3.90631 0
M  V30 679 H 65.6392 -1.80247 -4.94791 0
M  V30 680 H 68.1302 -1.6653 -3.39229 0
M  V30 681 H 68.4432 -3.95565 -6.63889 0
M  V30 682 H 66.7882 -3.55145 -5.97409 0
M  V30 683 H 69.9792 -2.13808 -4.16418 0
M  V30 684 H 70.1522 -3.1823 -5.64476 0
M  V30 685 N 63.5583 1.46682 -0.576371 0
M  V30 686 C 64.8043 2.02712 -0.0596221 0
M  V30 687 C 65.1373 1.44765 1.29448 0
M  V30 688 O 64.4123 0.610355 1.84675 0
M  V30 689 C 64.6953 3.60098 0.0129503 0
M  V30 690 C 64.5483 4.28441 -1.3696 0
M  V30 691 C 65.8673 4.34224 0.71678 0
M  V30 692 H 62.9863 0.736637 -0.0231407 0
M  V30 693 H 65.6283 1.74898 -0.742351 0
M  V30 694 H 63.7783 3.83926 0.594378 0
M  V30 695 H 65.4503 4.15896 -1.9957 0
M  V30 696 H 63.6933 3.8805 -1.93907 0
M  V30 697 H 64.3643 5.3716 -1.27135 0
M  V30 698 H 66.8403 4.15503 0.222908 0
M  V30 699 H 65.7163 5.43936 0.73657 0
M  V30 700 H 65.9773 4.04823 1.77682 0
M  V30 701 N 65.0364 0.313813 1.54444 0
M  V30 702 C 66.4524 -0.0391619 1.59552 0
M  V30 703 C 66.6524 -1.51322 1.33056 0
M  V30 704 O 65.7084 -2.26782 1.11022 0
M  V30 705 C 67.0214 0.370302 2.98411 0
M  V30 706 C 68.5694 0.320139 3.11358 0
M  V30 707 C 69.0444 0.704617 4.52547 0
M  V30 708 N 70.5354 0.657645 4.58508 0
M  V30 709 C 71.2704 0.927453 5.6585 0
M  V30 710 N 70.7664 1.26389 6.81174 0
M  V30 711 N 72.5594 0.853662 5.5558 0
M  V30 712 H 64.7104 1.27433 1.69925 0
M  V30 713 H 66.9734 0.517511 0.794284 0
M  V30 714 H 66.6794 1.39694 3.22767 0
M  V30 715 H 66.5534 -0.269619 3.76235 0
M  V30 716 H 68.9404 -0.697275 2.86744 0
M  V30 717 H 69.0214 0.99486 2.35661 0
M  V30 718 H 68.6654 1.7199 4.77893 0
M  V30 719 H 68.5954 0.00768843 5.26599 0
M  V30 720 H 71.0864 0.409067 3.75679 0
M  V30 721 H 71.3994 1.4554 7.58972 0
M  V30 722 H 69.7444 1.30206 6.82694 0
M  V30 723 H 72.9354 0.590383 4.64362 0
M  V30 724 H 73.1084 1.0673 6.3915 0
M  V30 725 N 66.5145 -1.57545 0.0417849 0
M  V30 726 C 67.4615 -2.10977 -0.935805 0
M  V30 727 C 68.4315 -1.01486 -1.31491 0
M  V30 728 O 69.6165 -1.2898 -1.40602 0
M  V30 729 C 66.7565 -2.65169 -2.2086 0
M  V30 730 C 65.8695 -3.88714 -1.88482 0
M  V30 731 C 65.0045 -4.31254 -3.1015 0
M  V30 732 C 64.0435 -5.47524 -2.7365 0
M  V30 733 N 63.1805 -5.85162 -3.87982 0
M  V30 734 H 68.0205 -2.94218 -0.473249 0
M  V30 735 H 65.5575 -1.45415 -0.221981 0
M  V30 736 H 67.5155 -2.94685 -2.95325 0
M  V30 737 H 66.1455 -1.8474 -2.64709 0
M  V30 738 H 65.1975 -3.65849 -1.04205 0
M  V30 739 H 66.5095 -4.73245 -1.57608 0
M  V30 740 H 65.6635 -4.62273 -3.92923 0
M  V30 741 H 64.4025 -3.45516 -3.44195 0
M  V30 742 H 63.4075 -5.16187 -1.89291 0
M  V30 743 H 64.6325 -6.34971 -2.40807 0
M  V30 744 H 62.5785 -5.02377 -4.21846 0
M  V30 745 H 62.4955 -6.64362 -3.60775 0
M  V30 746 H 63.7635 -6.20791 -4.71422 0
M  V30 747 N 67.9926 0.231505 -1.5589 0
M  V30 748 C 69.2386 0.95877 -1.78705 0
M  V30 749 C 69.5716 1.8438 -0.609725 0
M  V30 750 O 68.8466 1.90521 0.391426 0
M  V30 751 C 69.1296 1.8062 -3.11526 0
M  V30 752 C 68.9826 0.948328 -4.39689 0
M  V30 753 C 70.3016 2.78585 -3.40703 0
M  V30 754 H 67.4206 0.347129 -0.650131 0
M  V30 755 H 70.0626 0.228259 -1.88624 0
M  V30 756 H 68.2126 2.42902 -3.03201 0
M  V30 757 H 69.8846 0.343016 -4.60023 0
M  V30 758 H 68.1276 0.253314 -4.3306 0
M  V30 759 H 68.7986 1.57543 -5.29041 0
M  V30 760 H 71.2746 2.26439 -3.49091 0
M  V30 761 H 70.1506 3.34988 -4.34826 0
M  V30 762 H 70.4116 3.55825 -2.62375 0
M  V30 763 N 69.4707 1.49531 0.497807 0
M  V30 764 C 70.7187 1.58865 1.24926 0
M  V30 765 C 71.0397 0.278721 1.92998 0
M  V30 766 O 70.3097 -0.702144 1.82885 0
M  V30 767 H 68.8897 0.585343 0.464094 0
M  V30 768 H 71.5517 1.86174 0.57666 0
M  V30 769 H 70.6477 2.38633 2.01149 0
M  V30 770 N 70.9488 -0.749086 1.3866 0
M  V30 771 C 71.9118 -1.84457 1.36045 0
M  V30 772 C 72.9118 -1.58682 0.260122 0
M  V30 773 O 74.1018 -1.66343 0.517261 0
M  V30 774 C 71.2338 -3.22008 1.11911 0
M  V30 775 H 72.4268 -1.88182 2.33512 0
M  V30 776 H 69.9798 -0.951266 1.24019 0
M  V30 777 H 70.7148 -3.2395 0.150686 0
M  V30 778 H 70.4998 -3.42111 1.91579 0
M  V30 779 H 71.9898 -4.0208 1.12788 0
M  V30 780 N 72.4269 -1.23603 -0.977757 0
M  V30 781 C 73.3569 -1.04401 -2.0886 0
M  V30 782 C 74.3379 0.0399052 -1.70053 0
M  V30 783 O 75.5229 -0.125246 -1.93796 0
M  V30 784 C 72.6529 -0.637269 -3.41403 0
M  V30 785 C 71.6069 -1.66883 -3.94124 0
M  V30 786 C 70.9329 -1.11745 -5.22893 0
M  V30 787 C 72.2329 -3.06247 -4.23096 0
M  V30 788 H 73.9269 -1.97316 -2.25182 0
M  V30 789 H 71.4729 -0.950096 -1.08209 0
M  V30 790 H 73.4259 -0.48998 -4.18542 0
M  V30 791 H 72.1499 0.327557 -3.24953 0
M  V30 792 H 70.8089 -1.80416 -3.19133 0
M  V30 793 H 70.4569 -0.143527 -5.02795 0
M  V30 794 H 70.1569 -1.80672 -5.59134 0
M  V30 795 H 71.6809 -0.982067 -6.02651 0
M  V30 796 H 73.0949 -2.96001 -4.90975 0
M  V30 797 H 71.4919 -3.72436 -4.70544 0
M  V30 798 H 72.5619 -3.55041 -3.30263 0
M  V30 799 N 73.905 1.17692 -1.04816 0
M  V30 800 C 75.182 1.83768 -0.669963 0
M  V30 801 C 75.562 1.93232 0.849986 0
M  V30 802 O 74.91 1.46397 1.75443 0
M  V30 803 C 75.12 3.21641 -1.35455 0
M  V30 804 C 76.468 3.97592 -1.49017 0
M  V30 805 O 77.492 3.31107 -1.31326 0
M  V30 806 O 76.351 5.16729 -1.77914 0
M  V30 807 H 73.445 0.792799 -0.235368 0
M  V30 808 H 75.991 1.25021 -1.14751 0
M  V30 809 H 74.763 3.097 -2.39168 0
M  V30 810 H 74.386 3.88052 -0.866107 0
M  V30 811 N 75.3831 0.828654 1.34056 0
M  V30 812 C 76.3461 0.259927 2.27721 0
M  V30 813 C 77.3461 -0.565478 1.50529 0
M  V30 814 O 78.5361 -0.38075 1.69988 0
M  V30 815 C 75.6681 -0.634944 3.34935 0
M  V30 816 H 76.8611 1.0863 2.79534 0
M  V30 817 H 74.4141 0.600951 1.44285 0
M  V30 818 H 75.1491 -1.48416 2.88346 0
M  V30 819 H 74.9341 -0.0444999 3.92075 0
M  V30 820 H 76.4241 -1.02648 4.04788 0
M  V30 821 N 76.8612 -1.46375 0.584142 0
M  V30 822 C 78.0862 -2.07268 0.0740405 0
M  V30 823 C 78.5112 -1.42979 -1.22223 0
M  V30 824 O 77.8692 -0.514092 -1.73859 0
M  V30 825 C 77.9172 -3.60518 -0.0767769 0
M  V30 826 O 77.0212 -3.96533 -1.13292 0
M  V30 827 H 76.3622 -0.660961 0.0634524 0
M  V30 828 H 78.8922 -1.87991 0.807492 0
M  V30 829 H 78.9022 -4.07021 -0.282489 0
M  V30 830 H 77.5772 -4.06702 0.86986 0
M  V30 831 H 76.1542 -3.61738 -0.905553 0
M  V30 832 N 78.3393 -0.321999 -1.54275 0
M  V30 833 C 79.7503 0.166384 -1.85957 0
M  V30 834 C 80.1013 1.51747 -1.24367 0
M  V30 835 O 79.2263 2.09317 -0.549124 0
M  V30 836 C 79.8213 0.308681 -3.37391 0
M  V30 837 C 78.3803 0.741286 -3.69028 0
M  V30 838 C 77.5273 -0.137937 -2.76957 0
M  V30 839 H 80.4783 -0.542335 -1.49146 0
M  V30 840 H 80.4993 1.13984 -3.63026 0
M  V30 841 H 80.0113 -0.674809 -3.82188 0
M  V30 842 H 78.1123 1.73458 -3.29762 0
M  V30 843 H 78.2253 0.546118 -4.75977 0
M  V30 844 H 76.5893 0.386251 -2.51754 0
M  V30 845 H 77.3723 -1.11816 -3.2458 0
M  V30 846 N 79.8174 1.5752 -0.0501392 0
M  V30 847 C 81.0634 1.92936 0.624798 0
M  V30 848 C 81.3964 0.928685 1.70555 0
M  V30 849 O 80.6714 -0.0454779 1.94447 0
M  V30 850 C 80.9544 3.38737 1.22185 0
M  V30 851 C 80.8074 4.49552 0.149218 0
M  V30 852 C 82.1264 3.84913 2.13378 0
M  V30 853 H 79.2454 0.701604 0.225657 0
M  V30 854 H 81.8874 1.89671 -0.111693 0
M  V30 855 H 80.0374 3.4165 1.84953 0
M  V30 856 H 81.7094 4.58768 -0.482648 0
M  V30 857 H 79.9524 4.30638 -0.522841 0
M  V30 858 H 80.6234 5.48653 0.606966 0
M  V30 859 H 83.0994 3.8387 1.60572 0
M  V30 860 H 81.9754 4.87584 2.52097 0
M  V30 861 H 82.2364 3.21611 3.03346 0
M  V30 862 N 81.2955 -0.223234 1.56011 0
M  V30 863 C 82.5725 -0.972108 1.69733 0
M  V30 864 C 82.9525 -2.02485 0.59691 0
M  V30 865 O 82.3005 -2.25037 -0.396324 0
M  V30 866 C 82.5105 -1.58407 3.10979 0
M  V30 867 C 83.8585 -2.07696 3.70334 0
M  V30 868 O 84.8825 -1.68304 3.1393 0
M  V30 869 O 83.7415 -2.80096 4.69264 0
M  V30 870 H 80.8355 -0.453993 0.691245 0
M  V30 871 H 83.3815 -0.215149 1.68331 0
M  V30 872 H 82.1535 -0.823831 3.82529 0
M  V30 873 H 81.7765 -2.40661 3.16493 0
M  V30 874 N 82.7736 -1.49793 -0.48987 0
M  V30 875 C 83.7036 -1.70201 -1.59856 0
M  V30 876 C 84.6846 -0.55076 -1.60937 0
M  V30 877 O 85.8696 -0.787841 -1.77501 0
M  V30 878 C 82.9996 -1.77882 -2.98287 0
M  V30 879 C 81.9536 -2.92907 -3.12073 0
M  V30 880 C 81.2796 -2.85712 -4.51965 0
M  V30 881 C 82.5796 -4.3369 -2.91051 0
M  V30 882 H 84.2736 -2.63025 -1.43032 0
M  V30 883 H 81.8196 -1.26574 -0.686664 0
M  V30 884 H 83.7726 -1.90744 -3.75759 0
M  V30 885 H 82.4966 -0.816653 -3.16225 0
M  V30 886 H 81.1556 -2.79665 -2.37029 0
M  V30 887 H 80.8036 -1.8738 -4.66795 0
M  V30 888 H 80.5036 -3.62921 -4.62128 0
M  V30 889 H 82.0276 -3.00598 -5.31482 0
M  V30 890 H 83.4416 -4.47555 -3.58284 0
M  V30 891 H 81.8386 -5.12205 -3.12675 0
M  V30 892 H 82.9086 -4.47362 -1.87071 0
M  V30 893 N 84.2517 0.741722 -1.39055 0
M  V30 894 C 85.1987 1.85566 -1.37237 0
M  V30 895 C 86.1687 1.64457 -0.233072 0
M  V30 896 O 87.3537 1.85957 -0.427147 0
M  V30 897 C 84.4937 3.23004 -1.215 0
M  V30 898 C 83.6067 3.55864 -2.44918 0
M  V30 899 C 82.7417 4.82669 -2.21821 0
M  V30 900 C 81.7807 5.08351 -3.40948 0
M  V30 901 N 80.9177 6.26356 -3.17211 0
M  V30 902 H 85.7577 1.86455 -2.32462 0
M  V30 903 H 83.2947 0.911176 -1.15482 0
M  V30 904 H 85.2527 4.02331 -1.10389 0
M  V30 905 H 83.8827 3.21411 -0.29908 0
M  V30 906 H 82.9347 2.7129 -2.66657 0
M  V30 907 H 84.2467 3.70765 -3.33668 0
M  V30 908 H 83.4007 5.69962 -2.07914 0
M  V30 909 H 82.1397 4.69929 -1.30454 0
M  V30 910 H 81.1447 4.19522 -3.55361 0
M  V30 911 H 82.3697 5.22981 -4.33207 0
M  V30 912 H 80.3157 6.14917 -2.28502 0
M  V30 913 H 80.2327 6.41813 -3.99515 0
M  V30 914 H 81.5007 7.16506 -3.06984 0
M  V30 915 N 85.7298 1.2412 0.971189 0
M  V30 916 C 86.6768 1.0305 2.06517 0
M  V30 917 C 87.6468 -0.0550666 1.66009 0
M  V30 918 O 88.8318 0.0988688 1.90544 0
M  V30 919 C 85.9718 0.637653 3.39158 0
M  V30 920 C 85.0848 1.79633 3.92882 0
M  V30 921 C 84.2198 1.34939 5.13775 0
M  V30 922 C 83.2588 2.47823 5.59687 0
M  V30 923 N 82.3958 2.04022 6.71803 0
M  V30 924 H 87.2358 1.96685 2.23873 0
M  V30 925 H 84.7728 0.979694 1.09729 0
M  V30 926 H 86.7308 0.390931 4.15364 0
M  V30 927 H 85.3608 -0.261693 3.21737 0
M  V30 928 H 84.4128 2.15681 3.13346 0
M  V30 929 H 85.7248 2.64466 4.22918 0
M  V30 930 H 84.8788 1.06134 5.97345 0
M  V30 931 H 83.6178 0.471557 4.85415 0
M  V30 932 H 82.6228 2.77392 4.74693 0
M  V30 933 H 83.8478 3.36158 5.90063 0
M  V30 934 H 81.7938 1.18632 6.45184 0
M  V30 935 H 81.7108 2.82409 7.01271 0
M  V30 936 H 82.9788 1.78347 7.58823 0
M  V30 937 N 87.2079 -1.17134 1.05439 0
M  V30 938 C 88.1179 -2.24878 0.668365 0
M  V30 939 C 89.1339 -1.71186 -0.311687 0
M  V30 940 O 90.3099 -2.00738 -0.163161 0
M  V30 941 C 87.3749 -3.46662 0.051648 0
M  V30 942 C 86.4359 -4.15429 1.08246 0
M  V30 943 C 85.6689 -5.31399 0.495082 0
M  V30 944 O 85.8919 -5.66153 -0.694743 0
M  V30 945 O 84.8259 -5.89187 1.23056 0
M  V30 946 H 88.6519 -2.60189 1.56637 0
M  V30 947 H 86.2369 -1.24482 0.826104 0
M  V30 948 H 88.1189 -4.20394 -0.290966 0
M  V30 949 H 86.7939 -3.13142 -0.819971 0
M  V30 950 H 85.7009 -3.43704 1.47711 0
M  V30 951 H 87.0339 -4.52982 1.92532 0
M  V30 952 N 88.686 -0.835752 -1.33615 0
M  V30 953 C 89.935 -0.426289 -1.97144 0
M  V30 954 C 90.248 1.01912 -1.66953 0
M  V30 955 O 91.454 1.53311 -2.24072 0
M  V30 956 C 89.91 -0.711321 -3.52801 0
M  V30 957 C 89.518 -2.1712 -3.91871 0
M  V30 958 C 91.262 -0.368654 -4.22896 0
M  V30 959 C 89.169 -2.40044 -5.40493 0
M  V30 960 H 88.099 -0.15567 -0.737755 0
M  V30 961 H 90.75 -1.0239 -1.52278 0
M  V30 962 H 89.132 -0.0433766 -3.95976 0
M  V30 963 H 90.306 -2.87936 -3.59763 0
M  V30 964 H 88.621 -2.47654 -3.34749 0
M  V30 965 H 91.218 -0.517601 -5.32189 0
M  V30 966 H 91.561 0.688078 -4.10574 0
M  V30 967 H 92.094 -0.991702 -3.8524 0
M  V30 968 H 88.833 -3.44271 -5.57815 0
M  V30 969 H 88.353 -1.73785 -5.74072 0
M  V30 970 H 90.032 -2.23042 -6.0734 0
M  V30 971 N 90.1641 1.46063 -0.591896 0
M  V30 972 C 91.0941 2.33172 0.123673 0
M  V30 973 C 92.0751 1.45897 0.87453 0
M  V30 974 O 93.2601 1.74698 0.848181 0
M  V30 975 C 90.3901 3.28336 1.13194 0
M  V30 976 C 89.3441 4.25124 0.495324 0
M  V30 977 C 88.6701 5.09863 1.61071 0
M  V30 978 C 89.9701 5.19143 -0.573425 0
M  V30 979 H 91.6641 2.93252 -0.603646 0
M  V30 980 H 89.2101 1.41014 -0.291741 0
M  V30 981 H 91.1631 3.88137 1.64097 0
M  V30 982 H 89.8871 2.66383 1.88965 0
M  V30 983 H 88.5461 3.66599 0.00729452 0
M  V30 984 H 88.1941 4.44288 2.35832 0
M  V30 985 H 87.8941 5.75417 1.19035 0
M  V30 986 H 89.4181 5.72529 2.12233 0
M  V30 987 H 90.8321 5.73106 -0.1491 0
M  V30 988 H 89.2291 5.93089 -0.914636 0
M  V30 989 H 90.2991 4.62519 -1.45617 0
M  V30 990 N 91.6422 0.330177 1.54103 0
M  V30 991 C 92.8912 -0.271336 1.99867 0
M  V30 992 C 93.2042 -1.52723 1.22209 0
M  V30 993 O 94.4102 -2.20515 1.58383 0
M  V30 994 C 92.8662 -0.534032 3.55916 0
M  V30 995 C 92.4742 0.705193 4.42415 0
M  V30 996 C 94.2182 -1.09514 4.1013 0
M  V30 997 C 92.1252 0.414035 5.89949 0
M  V30 998 H 91.0552 -0.105166 0.74663 0
M  V30 999 H 93.7062 0.443429 1.78062 0
M  V30 1000 H 92.0882 -1.30915 3.73734 0
M  V30 1001 H 93.2622 1.4804 4.36372 0
M  V30 1002 H 91.5772 1.18698 3.99124 0
M  V30 1003 H 94.1742 -1.3277 5.17954 0
M  V30 1004 H 94.5172 -2.04656 3.62521 0
M  V30 1005 H 95.0502 -0.381038 3.95971 0
M  V30 1006 H 91.7892 1.33481 6.41766 0
M  V30 1007 H 91.3092 -0.323336 5.98928 0
M  V30 1008 H 92.9882 0.0263105 6.46995 0
M  V30 1009 N 93.1203 -1.57491 0.0584922 0
M  V30 1010 C 94.0683 -2.13148 -0.931168 0
M  V30 1011 C 95.0623 -1.06507 -1.31729 0
M  V30 1012 O 96.2683 -1.24906 -1.29609 0
M  V30 1013 H 92.6433 -0.68137 -0.31818 0
M  V30 1014 H 94.6143 -2.95187 -0.436707 0
M  V30 1015 C 93.3633 -2.69732 -2.19408 0
M  V30 1016 H 92.6863 -3.51454 -1.90578 0
M  V30 1017 H 94.1263 -3.12287 -2.86798 0
M  V30 1018 C 92.5853 -1.63855 -2.94369 0
M  V30 1019 O 93.1153 -1.05565 -3.87581 0
M  V30 1020 N 91.3213 -1.35202 -2.57233 0
M  V30 1021 H 90.8683 -1.82791 -1.81508 0
M  V30 1022 H 90.8263 -0.645922 -3.07693 0
M  V30 1023 N 94.5984 0.214957 -1.56127 0
M  V30 1024 C 95.8444 0.939762 -1.79712 0
M  V30 1025 C 96.1774 1.83723 -0.629247 0
M  V30 1026 O 95.4524 1.90925 0.371197 0
M  V30 1027 C 95.7354 1.77306 -3.13424 0
M  V30 1028 C 95.5884 0.90164 -4.40671 0
M  V30 1029 C 96.9074 2.74956 -3.43638 0
M  V30 1030 H 94.0264 0.340214 -0.653776 0
M  V30 1031 H 96.6684 0.20824 -1.88855 0
M  V30 1032 H 94.8184 2.39673 -3.0576 0
M  V30 1033 H 96.4904 0.294206 -4.60361 0
M  V30 1034 H 94.7334 0.207368 -4.33304 0
M  V30 1035 H 95.4044 1.51923 -5.30682 0
M  V30 1036 H 97.8804 2.22724 -3.51473 0
M  V30 1037 H 96.7564 3.30358 -4.38355 0
M  V30 1038 H 97.0174 3.53023 -2.66134 0
M  V30 1039 N 96.0765 1.50051 0.48192 0
M  V30 1040 C 97.3245 1.60181 1.23234 0
M  V30 1041 C 97.6455 0.299176 1.92691 0
M  V30 1042 O 96.9155 -0.682708 1.83619 0
M  V30 1043 H 95.4955 0.590232 0.457859 0
M  V30 1044 H 98.1575 1.86775 0.556881 0
M  V30 1045 H 97.2535 2.40753 1.98607 0
M  V30 1046 N 97.5546 -0.734337 1.39446 0
M  V30 1047 C 98.8026 -1.49096 1.36436 0
M  V30 1048 C 99.1236 -1.94961 -0.0388255 0
M  V30 1049 O 98.3936 -1.69033 -0.990191 0
M  V30 1050 H 96.9736 -0.5531 0.502085 0
M  V30 1051 H 99.6356 -0.871725 1.74319 0
M  V30 1052 H 98.7316 -2.37276 2.02747 0
M  V30 1053 N 99.0327 -1.24633 -0.964593 0
M  V30 1054 C 100.449 -1.01239 -1.2338 0
M  V30 1055 C 100.649 0.2769 -1.99588 0
M  V30 1056 O 99.7047 0.992241 -2.32187 0
M  V30 1057 C 101.018 -2.22937 -2.01791 0
M  V30 1058 C 102.566 -2.27594 -2.14872 0
M  V30 1059 C 103.041 -3.48921 -2.96678 0
M  V30 1060 N 104.532 -3.49257 -3.04259 0
M  V30 1061 C 105.267 -4.39795 -3.67924 0
M  V30 1062 N 104.763 -5.40591 -4.33281 0
M  V30 1063 N 106.556 -4.275 -3.64966 0
M  V30 1064 H 98.7067 -2.0748 -0.454502 0
M  V30 1065 H 100.97 -0.910647 -0.26349 0
M  V30 1066 H 100.676 -3.16587 -1.53184 0
M  V30 1067 H 100.55 -2.25306 -3.02518 0
M  V30 1068 H 102.937 -1.34473 -2.6268 0
M  V30 1069 H 103.018 -2.2925 -1.13482 0
M  V30 1070 H 102.662 -4.42359 -2.49562 0
M  V30 1071 H 102.592 -3.4451 -3.98272 0
M  V30 1072 H 105.083 -2.76337 -2.57771 0
M  V30 1073 H 105.396 -6.05904 -4.79687 0
M  V30 1074 H 103.741 -5.44475 -4.3194 0
M  V30 1075 H 106.932 -3.47987 -3.13086 0
M  V30 1076 H 107.105 -4.98258 -4.14298 0
M  V30 1077 N 100.511 1.16574 -1.06058 0
M  V30 1078 C 101.927 1.3904 -0.783585 0
M  V30 1079 C 102.127 1.91784 0.618145 0
M  V30 1080 O 101.183 2.11511 1.37911 0
M  V30 1081 C 102.496 2.37329 -1.84649 0
M  V30 1082 C 104.044 2.51018 -1.86973 0
M  V30 1083 C 104.519 3.52588 -2.92311 0
M  V30 1084 N 106.01 3.60113 -2.91329 0
M  V30 1085 C 106.745 4.38486 -3.69482 0
M  V30 1086 N 106.241 5.20302 -4.57447 0
M  V30 1087 N 108.034 4.33446 -3.57885 0
M  V30 1088 H 100.185 0.806725 -1.96483 0
M  V30 1089 H 102.448 0.417117 -0.851303 0
M  V30 1090 H 102.154 2.05663 -2.85299 0
M  V30 1091 H 102.028 3.36946 -1.6955 0
M  V30 1092 H 104.415 2.81989 -0.869827 0
M  V30 1093 H 104.496 1.51445 -2.0615 0
M  V30 1094 H 104.14 3.22354 -3.92492 0
M  V30 1095 H 104.07 4.51886 -2.70383 0
M  V30 1096 H 106.561 3.01707 -2.27555 0
M  V30 1097 H 106.874 5.77311 -5.13743 0
M  V30 1098 H 105.219 5.19653 -4.61503 0
M  V30 1099 H 108.41 3.68586 -2.88551 0
M  V30 1100 H 108.583 4.94279 -4.19037 0
M  V30 1101 N 101.989 0.842826 1.3317 0
M  V30 1102 C 103.219 0.453397 2.01564 0
M  V30 1103 C 103.627 -0.951147 1.63554 0
M  V30 1104 O 102.97 -1.63021 0.846746 0
M  V30 1105 C 103.032 0.499013 3.5602 0
M  V30 1106 C 102.696 1.86037 4.1742 0
M  V30 1107 C 103.693 2.82416 4.36506 0
M  V30 1108 C 101.378 2.15428 4.53757 0
M  V30 1109 C 103.372 4.06346 4.91082 0
M  V30 1110 C 101.059 3.39615 5.0804 0
M  V30 1111 C 102.057 4.3489 5.26649 0
M  V30 1112 O 101.745 5.5688 5.79776 0
M  V30 1113 H 101.477 0.177871 0.652179 0
M  V30 1114 H 104.031 1.13808 1.70988 0
M  V30 1115 H 102.261 -0.242467 3.85939 0
M  V30 1116 H 103.95 0.126852 4.05702 0
M  V30 1117 H 104.716 2.6101 4.08777 0
M  V30 1118 H 100.595 1.42061 4.38565 0
M  V30 1119 H 104.139 4.80722 5.05522 0
M  V30 1120 H 100.036 3.60876 5.352 0
M  V30 1121 H 100.804 5.58674 5.98185 0
M  V30 1122 N 103.467 -1.45747 0.599634 0
M  V30 1123 C 104.397 -2.33235 -0.111306 0
M  V30 1124 C 105.378 -1.46359 -0.866781 0
M  V30 1125 O 106.563 -1.75146 -0.838904 0
M  V30 1126 C 103.693 -3.28932 -1.11451 0
M  V30 1127 C 102.647 -4.25381 -0.472772 0
M  V30 1128 C 101.973 -5.1071 -1.58365 0
M  V30 1129 C 103.273 -5.18831 0.600948 0
M  V30 1130 H 104.967 -2.92927 0.61919 0
M  V30 1131 H 102.513 -1.40857 0.299215 0
M  V30 1132 H 104.466 -3.89002 -1.62036 0
M  V30 1133 H 103.19 -2.67381 -1.8755 0
M  V30 1134 H 101.849 -3.66598 0.0121472 0
M  V30 1135 H 101.497 -4.45533 -2.33473 0
M  V30 1136 H 101.197 -5.7604 -1.15982 0
M  V30 1137 H 102.721 -5.73647 -2.09194 0
M  V30 1138 H 104.135 -5.73019 0.179491 0
M  V30 1139 H 102.532 -5.92595 0.946076 0
M  V30 1140 H 103.602 -4.6174 1.48068 0
M  V30 1141 N 104.945 -0.338344 -1.53925 0
M  V30 1142 C 105.875 0.51328 -2.27789 0
M  V30 1143 C 106.856 1.107 -1.29149 0
M  V30 1144 O 108.041 1.12937 -1.57984 0
M  V30 1145 C 105.171 1.66697 -3.04679 0
M  V30 1146 C 104.125 1.20183 -4.1078 0
M  V30 1147 C 103.451 2.44363 -4.75595 0
M  V30 1148 C 104.751 0.30605 -5.21403 0
M  V30 1149 H 106.445 -0.102883 -2.99223 0
M  V30 1150 H 103.991 -0.0509219 -1.4391 0
M  V30 1151 H 105.944 2.26915 -3.55088 0
M  V30 1152 H 104.668 2.30995 -2.30887 0
M  V30 1153 H 103.327 0.622499 -3.61276 0
M  V30 1154 H 102.975 3.07057 -3.98403 0
M  V30 1155 H 102.675 2.13925 -5.47275 0
M  V30 1156 H 104.199 3.05317 -5.28786 0
M  V30 1157 H 105.613 0.814929 -5.67478 0
M  V30 1158 H 104.01 0.0937929 -6.00027 0
M  V30 1159 H 105.08 -0.65921 -4.80398 0
M  V30 1160 N 106.423 1.57458 -0.0668435 0
M  V30 1161 C 107.834 1.80776 0.466558 0
M  V30 1162 C 108.185 0.980361 1.69951 0
M  V30 1163 O 107.31 0.201441 2.1546 0
M  V30 1164 C 107.905 3.27881 0.85321 0
M  V30 1165 C 106.464 3.52062 1.3315 0
M  V30 1166 C 105.611 2.75513 0.314264 0
M  V30 1167 H 108.562 1.5598 -0.292588 0
M  V30 1168 H 108.583 3.39659 1.715 0
M  V30 1169 H 108.095 3.88075 -0.0443439 0
M  V30 1170 H 106.196 2.97167 2.24772 0
M  V30 1171 H 106.309 4.60762 1.31285 0
M  V30 1172 H 104.673 2.42123 0.790492 0
M  V30 1173 H 105.456 3.38442 -0.575477 0
M  V30 1174 N 107.901 -0.206675 1.56239 0
M  V30 1175 C 109.147 -0.925733 1.81113 0
M  V30 1176 C 109.502 -1.81368 0.642135 0
M  V30 1177 O 108.795 -1.88126 -0.363211 0
M  V30 1178 C 108.989 -1.78675 3.09532 0
M  V30 1179 C 108.818 -0.98365 4.3881 0
M  V30 1180 C 107.588 -0.672661 5.00803 0
M  V30 1181 C 109.786 -0.341847 5.13163 0
M  V30 1182 N 107.768 0.150283 6.13716 0
M  V30 1183 C 109.139 0.343815 6.19046 0
M  V30 1184 C 111.194 -0.256392 4.97239 0
M  V30 1185 C 109.897 1.10678 7.10734 0
M  V30 1186 C 111.923 0.493142 5.8934 0
M  V30 1187 C 111.285 1.16729 6.94661 0
M  V30 1188 H 107.384 -0.318524 0.714189 0
M  V30 1189 H 109.968 -0.195378 1.93717 0
M  V30 1190 H 108.139 -2.4888 2.98183 0
M  V30 1191 H 109.871 -2.44441 3.22538 0
M  V30 1192 H 106.626 -0.994294 4.63045 0
M  V30 1193 H 107.05 0.551026 6.74754 0
M  V30 1194 H 111.692 -0.763249 4.15854 0
M  V30 1195 H 109.41 1.6251 7.91591 0
M  V30 1196 H 112.996 0.560465 5.79094 0
M  V30 1197 H 111.876 1.738 7.64698 0
M  V30 1198 N 109.379 -1.50304 -0.473955 0
M  V30 1199 C 110.604 -1.65175 -1.25427 0
M  V30 1200 C 111.029 -0.333673 -1.85117 0
M  V30 1201 O 110.387 0.702114 -1.67153 0
M  V30 1202 C 110.435 -2.74295 -2.34082 0
M  V30 1203 O 109.539 -2.35349 -3.38651 0
M  V30 1204 H 108.88 -0.551944 -0.369126 0
M  V30 1205 H 111.41 -1.96662 -0.564364 0
M  V30 1206 H 111.42 -2.97285 -2.79438 0
M  V30 1207 H 110.095 -3.69959 -1.90008 0
M  V30 1208 H 108.672 -2.22794 -2.99027 0
M  V30 1209 N 110.857 0.726932 -1.39834 0
M  V30 1210 C 112.085 1.51613 -1.40787 0
M  V30 1211 C 112.5 1.88799 -0.00451505 0
M  V30 1212 O 111.857 1.54662 0.968809 0
M  V30 1213 C 111.908 2.79863 -2.28821 0
M  V30 1214 O 111.629 2.44253 -3.63692 0
M  V30 1215 C 113.13 3.73837 -2.38245 0
M  V30 1216 H 110.35 0.468264 -0.480593 0
M  V30 1217 H 112.894 0.897607 -1.83748 0
M  V30 1218 H 111.049 3.38027 -1.89252 0
M  V30 1219 H 111.463 3.26695 -4.1033 0
M  V30 1220 H 112.937 4.60699 -3.04073 0
M  V30 1221 H 113.414 4.16153 -1.40403 0
M  V30 1222 H 114.02 3.21589 -2.78317 0
M  V30 1223 N 112.336 1.25143 0.95797 0
M  V30 1224 C 113.266 1.07711 2.07173 0
M  V30 1225 C 114.247 -0.0128462 1.70095 0
M  V30 1226 O 115.432 0.156061 1.93572 0
M  V30 1227 C 112.562 0.691503 3.40346 0
M  V30 1228 C 111.516 1.73132 3.9142 0
M  V30 1229 C 110.842 1.20049 5.21049 0
M  V30 1230 C 112.142 3.1294 4.1817 0
M  V30 1231 H 113.836 2.00873 2.22014 0
M  V30 1232 H 111.382 0.967191 1.06684 0
M  V30 1233 H 113.335 0.556505 4.17709 0
M  V30 1234 H 112.059 -0.275819 3.25433 0
M  V30 1235 H 110.718 1.8547 3.16222 0
M  V30 1236 H 110.366 0.223499 5.02503 0
M  V30 1237 H 110.066 1.89545 5.56189 0
M  V30 1238 H 111.59 1.07782 6.01012 0
M  V30 1239 H 113.004 3.03775 4.86203 0
M  V30 1240 H 111.401 3.79875 4.64559 0
M  V30 1241 H 112.471 3.6025 3.24573 0
M  V30 1242 N 113.814 -1.1601 1.06675 0
M  V30 1243 C 115.091 -1.82679 0.699114 0
M  V30 1244 C 115.471 -1.94559 -0.819137 0
M  V30 1245 O 114.819 -1.49169 -1.73092 0
M  V30 1246 C 115.029 -3.19445 1.40555 0
M  V30 1247 C 116.377 -3.95171 1.55323 0
M  V30 1248 O 117.401 -3.28976 1.36577 0
M  V30 1249 O 116.26 -5.13833 1.86112 0
M  V30 1250 H 113.354 -0.788954 0.247951 0
M  V30 1251 H 115.9 -1.23179 1.16726 0
M  V30 1252 H 114.672 -3.05856 2.44065 0
M  V30 1253 H 114.295 -3.86625 0.927733 0
M  V30 1254 N 115.292 -0.849877 -1.32721 0
M  V30 1255 C 116.708 -0.539102 -1.50219 0
M  V30 1256 C 116.908 0.931271 -1.78689 0
M  V30 1257 O 115.964 1.71455 -1.85363 0
M  V30 1258 C 117.277 -1.42196 -2.64954 0
M  V30 1259 C 118.825 -1.42189 -2.78839 0
M  V30 1260 C 119.3 -2.28985 -3.96648 0
M  V30 1261 N 120.791 -2.26754 -4.03902 0
M  V30 1262 C 121.526 -2.90644 -4.94281 0
M  V30 1263 N 121.022 -3.63629 -5.897 0
M  V30 1264 N 122.815 -2.80057 -4.87365 0
M  V30 1265 H 114.966 -1.80156 -1.12506 0
M  V30 1266 H 117.229 -0.769217 -0.554085 0
M  V30 1267 H 116.935 -2.46733 -2.50631 0
M  V30 1268 H 116.809 -1.10591 -3.60624 0
M  V30 1269 H 119.196 -0.38419 -2.92588 0
M  V30 1270 H 119.277 -1.77807 -1.83898 0
M  V30 1271 H 118.921 -3.32819 -3.83658 0
M  V30 1272 H 118.851 -1.90702 -4.90857 0
M  V30 1273 H 121.342 -1.73688 -3.3562 0
M  V30 1274 H 121.655 -4.09558 -6.55349 0
M  V30 1275 H 120 -3.67737 -5.89741 0
M  V30 1276 H 123.191 -2.22593 -4.11789 0
M  V30 1277 H 123.364 -3.30132 -5.57599 0
M  V30 1278 N 116.77 1.45427 -0.607355 0
M  V30 1279 C 118.017 2.02241 -0.102455 0
M  V30 1280 C 118.345 1.4758 1.26691 0
M  V30 1281 O 117.6 0.640468 1.84923 0
M  V30 1282 C 117.899 3.57398 -0.0129263 0
M  V30 1283 C 117.565 4.3121 -1.31792 0
M  V30 1284 C 116.227 4.51092 -1.67539 0
M  V30 1285 C 118.579 4.73401 -2.18039 0
M  V30 1286 C 115.907 5.10422 -2.89285 0
M  V30 1287 C 118.259 5.34078 -3.39034 0
M  V30 1288 C 116.923 5.52184 -3.75033 0
M  V30 1289 H 116.193 0.740051 -0.037491 0
M  V30 1290 H 118.84 1.74494 -0.788926 0
M  V30 1291 H 117.145 3.84421 0.756806 0
M  V30 1292 H 118.842 3.99061 0.393881 0
M  V30 1293 H 115.432 4.16047 -1.02968 0
M  V30 1294 H 119.616 4.57774 -1.91721 0
M  V30 1295 H 114.872 5.22629 -3.17283 0
M  V30 1296 H 119.046 5.65724 -4.06115 0
M  V30 1297 H 116.673 5.97925 -4.69457 0
M  V30 1298 N 118.248 0.346503 1.53744 0
M  V30 1299 C 119.659 -0.136779 1.86198 0
M  V30 1300 C 120.01 -1.49749 1.26766 0
M  V30 1301 O 119.135 -2.08417 0.582355 0
M  V30 1302 C 119.73 -0.254966 3.37839 0
M  V30 1303 C 118.289 -0.682482 3.70161 0
M  V30 1304 C 117.436 0.181981 2.76702 0
M  V30 1305 H 120.387 0.565994 1.48264 0
M  V30 1306 H 120.408 -1.08195 3.64793 0
M  V30 1307 H 119.92 0.735526 3.81066 0
M  V30 1308 H 118.021 -1.68189 3.3248 0
M  V30 1309 H 118.134 -0.470326 4.76786 0
M  V30 1310 H 116.498 -0.34615 2.52337 0
M  V30 1311 H 117.281 1.16966 3.2276 0
M  V30 1312 N 119.726 -1.57421 0.075193 0
M  V30 1313 C 120.656 -2.15942 -0.888324 0
M  V30 1314 C 121.637 -1.08737 -1.30806 0
M  V30 1315 O 122.822 -1.36787 -1.37851 0
M  V30 1316 C 119.952 -2.72379 -2.1547 0
M  V30 1317 C 118.906 -3.8478 -1.87425 0
M  V30 1318 C 118.232 -4.27834 -3.20721 0
M  V30 1319 C 119.532 -5.08869 -1.17684 0
M  V30 1320 H 121.226 -2.96705 -0.400799 0
M  V30 1321 H 118.772 -1.42723 -0.191342 0
M  V30 1322 H 120.725 -3.11965 -2.83295 0
M  V30 1323 H 119.449 -1.88841 -2.6647 0
M  V30 1324 H 118.108 -3.45703 -1.22004 0
M  V30 1325 H 117.756 -3.41214 -3.6957 0
M  V30 1326 H 117.456 -5.03605 -3.02746 0
M  V30 1327 H 118.98 -4.70039 -3.89738 0
M  V30 1328 H 120.394 -5.4575 -1.75584 0
M  V30 1329 H 118.791 -5.8994 -1.09956 0
M  V30 1330 H 119.861 -4.84648 -0.156453 0
M  V30 1331 N 121.204 0.198386 -1.56346 0
M  V30 1332 C 122.429 0.939682 -1.84891 0
M  V30 1333 C 122.854 1.76202 -0.658369 0
M  V30 1334 O 122.212 1.76993 0.392851 0
M  V30 1335 C 122.26 1.81428 -3.11635 0
M  V30 1336 O 121.364 2.91265 -2.91956 0
M  V30 1337 H 120.705 0.264807 -0.608912 0
M  V30 1338 H 123.235 0.204695 -2.03573 0
M  V30 1339 H 123.245 2.21958 -3.42343 0
M  V30 1340 H 121.92 1.21004 -3.97908 0
M  V30 1341 H 120.497 2.54514 -2.72538 0
M  V30 1342 N 122.682 1.50554 0.465978 0
M  V30 1343 C 124.098 1.38093 0.800154 0
M  V30 1344 C 124.298 0.440988 1.96615 0
M  V30 1345 O 123.354 -0.114499 2.5224 0
M  V30 1346 C 124.667 2.79565 1.10742 0
M  V30 1347 C 126.215 2.88516 1.21357 0
M  V30 1348 C 126.69 4.30833 1.55393 0
M  V30 1349 N 128.181 4.33807 1.62375 0
M  V30 1350 C 128.916 5.40927 1.90225 0
M  V30 1351 N 128.412 6.58247 2.16062 0
M  V30 1352 N 130.205 5.28376 1.9177 0
M  V30 1353 H 122.356 2.10237 -0.302366 0
M  V30 1354 H 124.619 0.945203 -0.0727746 0
M  V30 1355 H 124.325 3.50208 0.323661 0
M  V30 1356 H 124.199 3.17125 2.04234 0
M  V30 1357 H 126.586 2.1809 1.98799 0
M  V30 1358 H 126.667 2.54492 0.258321 0
M  V30 1359 H 126.311 5.01799 0.784889 0
M  V30 1360 H 126.241 4.62347 2.52076 0
M  V30 1361 H 128.732 3.49212 1.44427 0
M  V30 1362 H 129.045 7.3569 2.36601 0
M  V30 1363 H 127.39 6.61413 2.13444 0
M  V30 1364 H 130.581 4.35715 1.71085 0
M  V30 1365 H 130.754 6.11944 2.13139 0
M  V30 1366 N 124.16 -0.719506 1.40217 0
M  V30 1367 C 125.09 -1.8465 1.42922 0
M  V30 1368 C 126.071 -1.67599 0.29062 0
M  V30 1369 O 127.256 -1.87688 0.498677 0
M  V30 1370 C 124.386 -3.22565 1.28722 0
M  V30 1371 C 123.34 -3.54281 2.40144 0
M  V30 1372 C 122.666 -4.91298 2.11023 0
M  V30 1373 C 123.966 -3.55676 3.82481 0
M  V30 1374 H 125.66 -1.82644 2.37237 0
M  V30 1375 H 123.206 -0.877305 1.1419 0
M  V30 1376 H 125.159 -4.01095 1.29232 0
M  V30 1377 H 123.883 -3.25137 0.308811 0
M  V30 1378 H 122.542 -2.78088 2.38877 0
M  V30 1379 H 122.19 -4.90468 1.11582 0
M  V30 1380 H 121.89 -5.13485 2.8567 0
M  V30 1381 H 123.414 -5.72166 2.13209 0
M  V30 1382 H 124.828 -4.24254 3.85592 0
M  V30 1383 H 123.225 -3.89388 4.56614 0
M  V30 1384 H 124.295 -2.55144 4.12346 0
M  V30 1385 N 125.638 -1.25649 -0.95132 0
M  V30 1386 C 126.863 -1.13443 -1.73624 0
M  V30 1387 C 127.288 0.307565 -1.85568 0
M  V30 1388 O 126.646 1.22282 -1.33854 0
M  V30 1389 C 126.694 -1.79723 -3.12621 0
M  V30 1390 O 125.798 -1.07912 -3.98031 0
M  V30 1391 H 125.139 -0.395872 -0.533086 0
M  V30 1392 H 127.669 -1.66276 -1.1922 0
M  V30 1393 H 127.679 -1.86141 -3.63064 0
M  V30 1394 H 126.354 -2.84633 -3.03244 0
M  V30 1395 H 124.931 -1.09398 -3.56492 0
M  V30 1396 N 127.117 1.15442 -1.07289 0
M  V30 1397 C 128.064 2.20161 -0.692653 0
M  V30 1398 C 129.034 1.63073 0.31564 0
M  V30 1399 O 130.219 1.89725 0.202235 0
M  V30 1400 C 127.359 3.44967 -0.0959509 0
M  V30 1401 C 126.472 4.16256 -1.15564 0
M  V30 1402 C 125.607 5.28609 -0.524011 0
M  V30 1403 C 124.646 5.91715 -1.56653 0
M  V30 1404 N 123.783 6.9554 -0.957531 0
M  V30 1405 H 128.623 2.52037 -1.59002 0
M  V30 1406 H 126.16 1.2378 -0.794798 0
M  V30 1407 H 128.118 4.16341 0.267628 0
M  V30 1408 H 126.748 3.1361 0.764772 0
M  V30 1409 H 125.8 3.43385 -1.6368 0
M  V30 1410 H 127.112 4.59268 -1.94613 0
M  V30 1411 H 126.266 6.06604 -0.108032 0
M  V30 1412 H 125.005 4.86787 0.29825 0
M  V30 1413 H 124.01 5.12433 -1.9923 0
M  V30 1414 H 125.235 6.35614 -2.39107 0
M  V30 1415 H 123.181 6.55814 -0.156162 0
M  V30 1416 H 123.098 7.36977 -1.68526 0
M  V30 1417 H 124.366 7.77435 -0.567032 0
M  V30 1418 N 128.595 0.856903 1.32268 0
M  V30 1419 C 129.525 0.31858 2.31316 0
M  V30 1420 C 130.506 -0.583487 1.59779 0
M  V30 1421 O 131.691 -0.503259 1.87566 0
M  V30 1422 C 128.821 -0.491979 3.43798 0
M  V30 1423 C 127.775 0.315849 4.26833 0
M  V30 1424 C 127.101 -0.619586 5.31098 0
M  V30 1425 C 128.401 1.54282 4.98993 0
M  V30 1426 H 130.095 1.14621 2.76591 0
M  V30 1427 H 127.641 0.552613 1.32974 0
M  V30 1428 H 129.594 -0.879012 4.1213 0
M  V30 1429 H 128.318 -1.35299 2.97257 0
M  V30 1430 H 126.977 0.684664 3.6015 0
M  V30 1431 H 126.625 -1.47751 4.8081 0
M  V30 1432 H 126.325 -0.0830621 5.87541 0
M  V30 1433 H 127.849 -1.00375 6.02293 0
M  V30 1434 H 129.263 1.22796 5.59995 0
M  V30 1435 H 127.66 2.01745 5.65172 0
M  V30 1436 H 128.73 2.30285 4.26728 0
M  V30 1437 N 130.073 -1.45103 0.615059 0
M  V30 1438 C 131.489 -1.57137 0.279322 0
M  V30 1439 C 131.689 -1.60523 -1.21797 0
M  V30 1440 O 130.745 -1.53956 -2.00134 0
M  V30 1441 C 132.058 -2.85062 0.957083 0
M  V30 1442 C 133.606 -2.98749 0.933706 0
M  V30 1443 C 134.081 -4.29455 1.59162 0
M  V30 1444 N 135.572 -4.36231 1.55746 0
M  V30 1445 C 136.307 -5.36051 2.0356 0
M  V30 1446 N 135.803 -6.42367 2.59494 0
M  V30 1447 N 137.596 -5.27456 1.94284 0
M  V30 1448 H 129.747 -1.41148 1.58717 0
M  V30 1449 H 132.01 -0.675331 0.665306 0
M  V30 1450 H 131.716 -2.88488 2.01166 0
M  V30 1451 H 131.59 -3.7407 0.48494 0
M  V30 1452 H 133.977 -2.94886 -0.112347 0
M  V30 1453 H 134.058 -2.11132 1.44419 0
M  V30 1454 H 133.702 -4.34077 2.63704 0
M  V30 1455 H 133.632 -5.15901 1.0561 0
M  V30 1456 H 136.123 -3.60011 1.14893 0
M  V30 1457 H 136.436 -7.14793 2.93752 0
M  V30 1458 H 134.781 -6.43097 2.63537 0
M  V30 1459 H 137.972 -4.43308 1.5032 0
M  V30 1460 H 138.145 -6.05099 2.3186 0
M  V30 1461 N 131.551 -0.354651 -1.53558 0
M  V30 1462 C 132.481 0.489091 -2.2832 0
M  V30 1463 C 133.462 1.09324 -1.30316 0
M  V30 1464 O 134.647 1.11255 -1.59173 0
M  V30 1465 C 131.777 1.63456 -3.0643 0
M  V30 1466 C 130.731 1.1582 -4.12031 0
M  V30 1467 C 130.057 2.39305 -4.7816 0
M  V30 1468 C 131.357 0.250731 -5.21698 0
M  V30 1469 H 133.051 -0.134614 -2.99097 0
M  V30 1470 H 130.597 -0.0661826 -1.43848 0
M  V30 1471 H 132.55 2.23136 -3.57475 0
M  V30 1472 H 131.274 2.28533 -2.33325 0
M  V30 1473 H 129.933 0.584146 -3.61916 0
M  V30 1474 H 129.581 3.02814 -4.01637 0
M  V30 1475 H 129.281 2.08109 -5.49513 0
M  V30 1476 H 130.805 2.99691 -5.31994 0
M  V30 1477 H 132.219 0.754695 -5.68311 0
M  V30 1478 H 130.616 0.0301468 -6.00092 0
M  V30 1479 H 131.686 -0.710125 -4.79672 0
M  V30 1480 N 133.029 1.57378 -0.0835403 0
M  V30 1481 C 134.269 1.95808 0.586381 0
M  V30 1482 C 134.633 0.963706 1.66062 0
M  V30 1483 O 135.834 1.23608 2.38693 0
M  V30 1484 C 134.105 3.38808 1.13771 0
M  V30 1485 S 135.664 3.99225 1.82112 0
M  V30 1486 H 132.482 0.684675 0.191679 0
M  V30 1487 H 135.084 1.94843 -0.160194 0
M  V30 1488 H 133.788 4.08954 0.344197 0
M  V30 1489 H 133.319 3.43344 1.92038 0
M  V30 1490 H 135.334 3.87087 3.10449 0
M  V30 1491 N 134.507 -0.190092 1.56449 0
M  V30 1492 C 135.923 -0.54113 1.50146 0
M  V30 1493 C 136.123 -1.85603 0.784465 0
M  V30 1494 O 135.179 -2.5024 0.337051 0
M  V30 1495 C 136.492 -0.591241 2.9483 0
M  V30 1496 C 138.04 -0.679732 3.0553 0
M  V30 1497 C 138.515 -0.760908 4.51635 0
M  V30 1498 N 140.006 -0.824302 4.55806 0
M  V30 1499 C 140.741 -0.907365 5.66175 0
M  V30 1500 N 140.237 -0.952422 6.86222 0
M  V30 1501 N 142.03 -0.94494 5.541 0
M  V30 1502 H 134.181 0.67235 2.01478 0
M  V30 1503 H 136.444 0.240127 0.917084 0
M  V30 1504 H 136.15 0.305905 3.50367 0
M  V30 1505 H 136.024 -1.44422 3.48457 0
M  V30 1506 H 138.411 -1.56731 2.50039 0
M  V30 1507 H 138.492 0.199549 2.5502 0
M  V30 1508 H 138.136 0.122336 5.07753 0
M  V30 1509 H 138.066 -1.65606 4.99882 0
M  V30 1510 H 140.557 -0.798526 3.69367 0
M  V30 1511 H 140.87 -1.01645 7.66086 0
M  V30 1512 H 139.215 -0.921014 6.8887 0
M  V30 1513 H 142.406 -0.906612 4.59236 0
M  V30 1514 H 142.579 -1.00622 6.4014 0
M  V30 1515 N 135.985 -1.50799 -0.457987 0
M  V30 1516 C 137.21 -1.66496 -1.23668 0
M  V30 1517 C 137.635 -0.353288 -1.84752 0
M  V30 1518 O 136.993 0.684346 -1.67888 0
M  V30 1519 C 137.041 -2.76763 -2.3116 0
M  V30 1520 O 136.145 -2.38928 -3.36136 0
M  V30 1521 H 135.486 -0.555828 -0.363252 0
M  V30 1522 H 138.016 -1.9725 -0.543474 0
M  V30 1523 H 138.026 -3.00232 -2.76269 0
M  V30 1524 H 136.701 -3.71954 -1.86073 0
M  V30 1525 H 135.278 -2.25953 -2.96647 0
M  V30 1526 N 137.463 0.71206 -1.40597 0
M  V30 1527 C 138.693 1.49894 -1.42181 0
M  V30 1528 C 139.101 1.89189 -0.0208078 0
M  V30 1529 O 138.444 1.56223 0.966436 0
M  V30 1530 C 138.506 2.80215 -2.25211 0
M  V30 1531 C 138.17 2.63221 -3.73582 0
M  V30 1532 C 139.167 2.30249 -4.66135 0
M  V30 1533 C 136.852 2.79376 -4.17438 0
M  V30 1534 C 138.846 2.13645 -6.00529 0
M  V30 1535 C 136.533 2.6239 -5.51901 0
M  V30 1536 C 137.531 2.29573 -6.43262 0
M  V30 1537 O 137.219 2.12719 -7.75246 0
M  V30 1538 H 136.951 0.469031 -0.486812 0
M  V30 1539 H 139.505 0.88564 -1.85326 0
M  V30 1540 H 137.735 3.4389 -1.76852 0
M  V30 1541 H 139.424 3.41947 -2.18694 0
M  V30 1542 H 140.19 2.17398 -4.33547 0
M  V30 1543 H 136.069 3.03906 -3.46644 0
M  V30 1544 H 139.613 1.87953 -6.71803 0
M  V30 1545 H 135.51 2.74826 -5.84073 0
M  V30 1546 H 136.278 2.27611 -7.86216 0
M  V30 1547 N 138.941 1.26152 0.944643 0
M  V30 1548 C 139.851 1.09176 2.07648 0
M  V30 1549 C 140.867 0.0261935 1.7398 0
M  V30 1550 O 142.043 0.229208 2.00091 0
M  V30 1551 C 139.108 0.722915 3.39079 0
M  V30 1552 C 138.169 1.86752 3.86552 0
M  V30 1553 C 137.402 1.51617 5.11711 0
M  V30 1554 O 137.625 0.416331 5.68879 0
M  V30 1555 O 136.559 2.34975 5.54139 0
M  V30 1556 H 140.385 2.0412 2.24875 0
M  V30 1557 H 137.97 1.05182 1.061 0
M  V30 1558 H 139.852 0.529787 4.18056 0
M  V30 1559 H 138.527 -0.197159 3.23099 0
M  V30 1560 H 137.434 2.11558 3.08535 0
M  V30 1561 H 138.767 2.76719 4.07047 0
M  V30 1562 N 140.419 -1.14872 1.07899 0
M  V30 1563 C 141.329 -2.2341 0.715915 0
M  V30 1564 C 142.345 -1.71808 -0.275306 0
M  V30 1565 O 143.521 -2.01039 -0.120545 0
M  V30 1566 C 140.586 -3.46474 0.125168 0
M  V30 1567 C 139.647 -4.13039 1.17034 0
M  V30 1568 C 138.88 -5.30229 0.607688 0
M  V30 1569 O 139.103 -5.675 -0.574497 0
M  V30 1570 O 138.037 -5.86444 1.35526 0
M  V30 1571 H 141.863 -2.56808 1.62121 0
M  V30 1572 H 139.448 -1.22702 0.852322 0
M  V30 1573 H 141.33 -4.20917 -0.201729 0
M  V30 1574 H 140.005 -3.14811 -0.753364 0
M  V30 1575 H 138.912 -3.40493 1.54968 0
M  V30 1576 H 140.245 -4.48796 2.02097 0
M  V30 1577 N 141.898 -0.863906 -1.31812 0
M  V30 1578 C 143.147 -0.46801 -1.96195 0
M  V30 1579 C 143.46 0.983474 -1.69077 0
M  V30 1580 O 144.666 1.48523 -2.27273 0
M  V30 1581 C 143.122 -0.785995 -3.51212 0
M  V30 1582 C 142.73 -2.25383 -3.87178 0
M  V30 1583 C 144.474 -0.458274 -4.22019 0
M  V30 1584 C 142.381 -2.51455 -5.3528 0
M  V30 1585 H 141.311 -0.171283 -0.734287 0
M  V30 1586 H 143.962 -1.05597 -1.50072 0
M  V30 1587 H 142.344 -0.127359 -3.95795 0
M  V30 1588 H 143.518 -2.95502 -3.53575 0
M  V30 1589 H 141.833 -2.54698 -3.2942 0
M  V30 1590 H 144.43 -0.630369 -5.30971 0
M  V30 1591 H 144.773 0.600834 -4.11941 0
M  V30 1592 H 145.306 -1.07319 -3.8305 0
M  V30 1593 H 142.045 -3.56025 -5.50387 0
M  V30 1594 H 141.565 -1.85923 -5.70257 0
M  V30 1595 H 143.244 -2.35874 -6.02472 0
M  V30 1596 N 143.376 1.44774 -0.622745 0
M  V30 1597 C 144.622 2.0242 -0.124083 0
M  V30 1598 C 144.955 1.4881 1.24777 0
M  V30 1599 O 144.23 0.668799 1.8264 0
M  V30 1600 C 144.513 3.59957 -0.101619 0
M  V30 1601 C 144.366 4.23867 -1.50521 0
M  V30 1602 C 145.685 4.36284 0.578272 0
M  V30 1603 H 142.804 0.735528 -0.0465645 0
M  V30 1604 H 145.446 1.72447 -0.797617 0
M  V30 1605 H 143.596 3.85623 0.471934 0
M  V30 1606 H 145.268 4.09336 -2.12701 0
M  V30 1607 H 143.511 3.81684 -2.06154 0
M  V30 1608 H 144.182 5.32843 -1.4416 0
M  V30 1609 H 146.658 4.16001 0.0906057 0
M  V30 1610 H 145.534 5.46004 0.563149 0
M  V30 1611 H 145.795 4.10271 1.64713 0
M  V30 1612 N 144.854 0.36279 1.53368 0
M  V30 1613 C 145.786 -0.519668 2.23231 0
M  V30 1614 C 146.799 -1.04844 1.24546 0
M  V30 1615 O 147.988 -0.955296 1.50786 0
M  V30 1616 C 145.088 -1.72995 2.9142 0
M  V30 1617 C 144.261 -1.33316 4.16588 0
M  V30 1618 C 143.32 -2.40521 4.68013 0
M  V30 1619 O 142.346 -2.03027 5.3176 0
M  V30 1620 N 143.548 -3.72065 4.45587 0
M  V30 1621 H 146.313 0.078751 2.99597 0
M  V30 1622 H 143.874 0.187833 1.60807 0
M  V30 1623 H 145.866 -2.44184 3.22733 0
M  V30 1624 H 144.436 -2.2353 2.18525 0
M  V30 1625 H 143.656 -0.451236 3.91609 0
M  V30 1626 H 144.944 -1.04432 4.97967 0
M  V30 1627 H 144.342 -4.05304 3.94646 0
M  V30 1628 H 142.899 -4.39366 4.81457 0
M  V30 1629 N 146.332 -1.57332 0.0918853 0
M  V30 1630 C 147.262 -2.16872 -0.865371 0
M  V30 1631 C 148.243 -1.10118 -1.29646 0
M  V30 1632 O 149.428 -1.38242 -1.36392 0
M  V30 1633 C 146.558 -2.74649 -2.12569 0
M  V30 1634 C 145.512 -3.86747 -1.83333 0
M  V30 1635 C 144.838 -4.31212 -3.16166 0
M  V30 1636 C 146.138 -5.10089 -1.1228 0
M  V30 1637 H 147.832 -2.97114 -0.369307 0
M  V30 1638 H 145.378 -1.42918 -0.176194 0
M  V30 1639 H 147.331 -3.14952 -2.7997 0
M  V30 1640 H 146.055 -1.91657 -2.64452 0
M  V30 1641 H 144.714 -3.46978 -1.18331 0
M  V30 1642 H 144.362 -3.45115 -3.6593 0
M  V30 1643 H 144.062 -5.06788 -2.97388 0
M  V30 1644 H 145.586 -4.74146 -3.84731 0
M  V30 1645 H 147 -5.47582 -1.69785 0
M  V30 1646 H 145.397 -5.91073 -1.03693 0
M  V30 1647 H 146.467 -4.84786 -0.105041 0
M  V30 1648 N 147.81 0.181792 -1.56548 0
M  V30 1649 C 149.05 0.906711 -1.83189 0
M  V30 1650 C 149.414 1.79882 -0.671312 0
M  V30 1651 O 150.615 2.56054 -0.81792 0
M  V30 1652 C 148.886 1.69023 -3.14906 0
M  V30 1653 S 150.445 2.46535 -3.62996 0
M  V30 1654 H 147.263 0.303877 -0.642791 0
M  V30 1655 H 149.865 0.169107 -1.94767 0
M  V30 1656 H 148.569 1.02571 -3.97376 0
M  V30 1657 H 148.1 2.46941 -3.06241 0
M  V30 1658 H 150.115 3.71014 -3.29489 0
M  V30 1659 N 149.288 1.51039 0.449983 0
M  V30 1660 C 150.565 1.53612 1.21089 0
M  V30 1661 C 150.945 0.292997 2.09057 0
M  V30 1662 O 150.293 -0.72259 2.16774 0
M  V30 1663 C 150.503 2.84337 2.0237 0
M  V30 1664 C 151.851 3.35807 2.59843 0
M  V30 1665 O 152.875 2.85802 2.12593 0
M  V30 1666 O 151.734 4.23029 3.45989 0
M  V30 1667 H 148.828 0.617057 0.550608 0
M  V30 1668 H 151.374 1.63344 0.460082 0
M  V30 1669 H 150.146 3.66278 1.37681 0
M  V30 1670 H 149.769 2.77708 2.84542 0
M  V30 1671 N 150.766 -0.704594 1.40972 0
M  V30 1672 C 152.043 -1.45847 1.30338 0
M  V30 1673 C 152.423 -2.10973 -0.0732344 0
M  V30 1674 O 151.771 -2.00997 -1.08685 0
M  V30 1675 C 151.981 -2.48525 2.45023 0
M  V30 1676 C 153.329 -3.1404 2.8577 0
M  V30 1677 O 154.353 -2.58848 2.44696 0
M  V30 1678 O 153.212 -4.13981 3.56766 0
M  V30 1679 H 150.306 -0.649092 0.512454 0
M  V30 1680 H 152.852 -0.735836 1.52917 0
M  V30 1681 H 151.624 -1.98994 3.36923 0
M  V30 1682 H 151.247 -3.2831 2.24272 0
M  V30 1683 N 152.244 -1.26651 -0.937939 0
M  V30 1684 C 153.474 -1.15006 -1.71631 0
M  V30 1685 C 153.882 0.297026 -1.86854 0
M  V30 1686 O 153.225 1.21493 -1.37786 0
M  V30 1687 C 153.287 -1.74984 -3.14039 0
M  V30 1688 C 152.951 -3.24103 -3.2219 0
M  V30 1689 C 153.948 -4.20877 -3.05219 0
M  V30 1690 C 151.633 -3.64625 -3.45476 0
M  V30 1691 C 153.627 -5.56151 -3.11408 0
M  V30 1692 C 151.314 -5.00032 -3.513 0
M  V30 1693 C 152.312 -5.95604 -3.34282 0
M  V30 1694 O 152 -7.28545 -3.3982 0
M  V30 1695 H 151.732 -0.401183 -0.544085 0
M  V30 1696 H 154.286 -1.67832 -1.18413 0
M  V30 1697 H 152.516 -1.16624 -3.68695 0
M  V30 1698 H 154.205 -1.58199 -3.73802 0
M  V30 1699 H 154.971 -3.90908 -2.87081 0
M  V30 1700 H 150.85 -2.90718 -3.57777 0
M  V30 1701 H 154.394 -6.30727 -2.98043 0
M  V30 1702 H 150.291 -5.29659 -3.68959 0
M  V30 1703 H 151.059 -7.3686 -3.56343 0
M  V30 1704 N 153.722 1.14298 -1.08507 0
M  V30 1705 C 154.999 1.81544 -0.728088 0
M  V30 1706 C 155.379 1.95838 0.78808 0
M  V30 1707 O 154.727 1.51904 1.70697 0
M  V30 1708 C 154.937 3.17169 -1.45619 0
M  V30 1709 C 156.285 3.9265 -1.61591 0
M  V30 1710 O 157.309 3.26762 -1.41793 0
M  V30 1711 O 156.168 5.10807 -1.94263 0
M  V30 1712 H 153.262 0.78491 -0.260471 0
M  V30 1713 H 155.808 1.21307 -1.18671 0
M  V30 1714 H 154.58 3.01934 -2.489 0
M  V30 1715 H 154.203 3.851 -0.989124 0
M  V30 1716 N 155.201 0.870884 1.31352 0
M  V30 1717 C 156.111 0.330783 2.32256 0
M  V30 1718 C 157.127 -0.559767 1.6475 0
M  V30 1719 O 158.303 -0.456263 1.96164 0
M  V30 1720 C 155.368 -0.458137 3.4366 0
M  V30 1721 C 154.429 0.460482 4.26823 0
M  V30 1722 C 153.662 -0.290881 5.32907 0
M  V30 1723 O 153.885 -1.51885 5.49806 0
M  V30 1724 O 152.819 0.351732 6.00871 0
M  V30 1725 H 156.645 1.16718 2.80376 0
M  V30 1726 H 154.23 0.634285 1.35267 0
M  V30 1727 H 156.112 -0.905343 4.1156 0
M  V30 1728 H 154.787 -1.27106 2.97701 0
M  V30 1729 H 153.694 0.956207 3.61673 0
M  V30 1730 H 155.027 1.23903 4.7635 0
M  V30 1731 N 156.679 -1.44442 0.630414 0
M  V30 1732 C 157.956 -1.9549 0.0655657 0
M  V30 1733 C 158.336 -1.5724 -1.40851 0
M  V30 1734 O 157.684 -0.846116 -2.12257 0
M  V30 1735 C 157.894 -3.47812 0.287691 0
M  V30 1736 C 159.242 -4.24216 0.180513 0
M  V30 1737 O 160.266 -3.55526 0.219019 0
M  V30 1738 O 159.125 -5.46434 0.0848493 0
M  V30 1739 H 156.219 -0.826688 -0.0227177 0
M  V30 1740 H 158.765 -1.54496 0.702068 0
M  V30 1741 H 157.537 -3.687 1.31056 0
M  V30 1742 H 157.16 -3.95751 -0.382984 0
M  V30 1743 N 158.157 -0.370918 -1.53173 0
M  V30 1744 C 159.382 0.220293 -2.06227 0
M  V30 1745 C 159.807 1.41243 -1.24225 0
M  V30 1746 O 159.165 1.79387 -0.262645 0
M  V30 1747 C 159.213 0.586663 -3.55796 0
M  V30 1748 O 158.317 1.68317 -3.76488 0
M  V30 1749 H 157.658 0.0308099 -0.663285 0
M  V30 1750 H 160.188 -0.533068 -1.97534 0
M  V30 1751 H 160.198 0.85617 -3.98916 0
M  V30 1752 H 158.873 -0.285013 -4.14922 0
M  V30 1753 H 157.45 1.40881 -3.45264 0
M  V30 1754 N 159.635 1.57281 -0.100228 0
M  V30 1755 C 160.567 2.11342 0.886972 0
M  V30 1756 C 161.58 1.05182 1.24261 0
M  V30 1757 O 162.769 1.32613 1.19483 0
M  V30 1758 C 159.869 2.5825 2.19454 0
M  V30 1759 C 159.042 3.88302 2.01346 0
M  V30 1760 C 158.101 4.21004 3.15661 0
M  V30 1761 O 157.127 4.9014 2.89398 0
M  V30 1762 N 158.329 3.76818 4.41575 0
M  V30 1763 H 161.094 2.96668 0.425216 0
M  V30 1764 H 158.655 1.61678 0.0847334 0
M  V30 1765 H 160.647 2.7717 2.94888 0
M  V30 1766 H 159.217 1.77907 2.57037 0
M  V30 1767 H 158.437 3.7848 1.10212 0
M  V30 1768 H 159.725 4.73375 1.8653 0
M  V30 1769 H 159.123 3.2102 4.65792 0
M  V30 1770 H 157.68 4.00882 5.13942 0
M  V30 1771 N 161.113 -0.173488 1.56642 0
M  V30 1772 C 162.023 -1.23482 1.99473 0
M  V30 1773 C 163.039 -1.48567 0.905752 0
M  V30 1774 O 164.215 -1.60758 1.21321 0
M  V30 1775 C 161.28 -2.55444 2.34413 0
M  V30 1776 C 160.341 -2.38241 3.57127 0
M  V30 1777 C 159.574 -3.63909 3.90392 0
M  V30 1778 O 159.797 -4.68996 3.24653 0
M  V30 1779 O 158.731 -3.58149 4.83749 0
M  V30 1780 H 162.557 -0.901279 2.90018 0
M  V30 1781 H 160.142 -0.380185 1.44482 0
M  V30 1782 H 162.024 -3.33292 2.57865 0
M  V30 1783 H 160.699 -2.88382 1.4703 0
M  V30 1784 H 159.606 -1.58431 3.38896 0
M  V30 1785 H 160.939 -2.10228 4.45045 0
M  V30 1786 N 162.591 -1.51276 -0.441967 0
M  V30 1787 C 163.838 -1.63715 -1.19179 0
M  V30 1788 C 164.166 -0.351175 -1.91303 0
M  V30 1789 O 163.421 0.664524 -1.84072 0
M  V30 1790 C 163.72 -2.78746 -2.23686 0
M  V30 1791 C 163.386 -4.18189 -1.68607 0
M  V30 1792 C 162.048 -4.56125 -1.53308 0
M  V30 1793 C 164.4 -5.05222 -1.28062 0
M  V30 1794 C 161.728 -5.78804 -0.959317 0
M  V30 1795 C 164.08 -6.28476 -0.721162 0
M  V30 1796 C 162.744 -6.65188 -0.55504 0
M  V30 1797 H 162.014 -0.599076 -0.436106 0
M  V30 1798 H 164.661 -1.85296 -0.48351 0
M  V30 1799 H 162.966 -2.51369 -3.00535 0
M  V30 1800 H 164.663 -2.8557 -2.81515 0
M  V30 1801 H 161.253 -3.88277 -1.8149 0
M  V30 1802 H 165.437 -4.76524 -1.38704 0
M  V30 1803 H 160.693 -6.05899 -0.81833 0
M  V30 1804 H 164.867 -6.95259 -0.398458 0
M  V30 1805 H 162.494 -7.60123 -0.108311 0
M  V30 1806 N 164.069 0.697108 -1.41344 0
M  V30 1807 C 165.316 1.45714 -1.40619 0
M  V30 1808 C 165.644 1.94494 -0.0147907 0
M  V30 1809 O 164.899 1.69794 0.973066 0
M  V30 1810 C 165.198 2.68553 -2.35826 0
M  V30 1811 C 164.864 2.38438 -3.82698 0
M  V30 1812 C 163.526 2.29936 -4.22709 0
M  V30 1813 C 165.878 2.13567 -4.75435 0
M  V30 1814 C 163.206 1.94656 -5.53467 0
M  V30 1815 C 165.558 1.79797 -6.06511 0
M  V30 1816 C 164.222 1.69789 -6.45545 0
M  V30 1817 H 163.492 0.533206 -0.51456 0
M  V30 1818 H 166.139 0.796901 -1.74131 0
M  V30 1819 H 164.444 3.39503 -1.95563 0
M  V30 1820 H 166.141 3.2669 -2.32539 0
M  V30 1821 H 162.731 2.4595 -3.51008 0
M  V30 1822 H 166.915 2.19082 -4.45328 0
M  V30 1823 H 162.171 1.8546 -5.82593 0
M  V30 1824 H 166.345 1.59572 -6.77872 0
M  V30 1825 H 163.972 1.4222 -7.46778 0
M  V30 1826 N 165.547 1.27147 0.931209 0
M  V30 1827 C 166.794 1.13278 1.67852 0
M  V30 1828 C 167.122 -0.32204 1.91815 0
M  V30 1829 O 166.377 -1.25224 1.50391 0
M  V30 1830 C 166.676 1.8579 3.05314 0
M  V30 1831 C 166.342 3.35657 3.01073 0
M  V30 1832 C 165.004 3.76536 2.99623 0
M  V30 1833 C 167.356 4.31299 2.92627 0
M  V30 1834 C 164.684 5.11426 2.87506 0
M  V30 1835 C 167.036 5.66242 2.82051 0
M  V30 1836 C 165.7 6.06418 2.7895 0
M  V30 1837 H 164.97 0.414515 0.614214 0
M  V30 1838 H 167.617 1.57712 1.08624 0
M  V30 1839 H 165.922 1.33854 3.68226 0
M  V30 1840 H 167.619 1.72491 3.62005 0
M  V30 1841 H 164.209 3.03146 3.02986 0
M  V30 1842 H 168.393 4.00692 2.92848 0
M  V30 1843 H 163.649 5.41705 2.83489 0
M  V30 1844 H 167.823 6.40026 2.74481 0
M  V30 1845 H 165.45 7.10895 2.69318 0
M  V30 1846 N 167.025 -1.13721 1.09112 0
M  V30 1847 C 168.302 -1.81155 0.737706 0
M  V30 1848 C 168.682 -1.96253 -0.777683 0
M  V30 1849 O 168.03 -1.52807 -1.69889 0
M  V30 1850 C 168.24 -3.16392 1.47299 0
M  V30 1851 C 169.588 -3.91787 1.63671 0
M  V30 1852 O 170.612 -3.26005 1.43524 0
M  V30 1853 O 169.471 -5.0977 1.96969 0
M  V30 1854 H 166.565 -0.783518 0.26463 0
M  V30 1855 H 169.111 -1.20676 1.19312 0
M  V30 1856 H 167.883 -3.0061 2.50498 0
M  V30 1857 H 167.506 -3.8457 1.00953 0
M  V30 1858 N 168.503 -0.877838 -1.30888 0
M  V30 1859 C 169.919 -0.570844 -1.49042 0
M  V30 1860 C 170.119 0.893159 -1.80624 0
M  V30 1861 O 169.175 1.67485 -1.88958 0
M  V30 1862 C 170.488 -1.47784 -2.61878 0
M  V30 1863 C 172.036 -1.48071 -2.75761 0
M  V30 1864 C 172.511 -2.37347 -3.91702 0
M  V30 1865 N 174.002 -2.35271 -3.99001 0
M  V30 1866 C 174.737 -3.01063 -4.88004 0
M  V30 1867 N 174.233 -3.76055 -5.81854 0
M  V30 1868 N 176.026 -2.90332 -4.81315 0
M  V30 1869 H 168.177 -1.82502 -1.0866 0
M  V30 1870 H 170.44 -0.780797 -0.537644 0
M  V30 1871 H 170.146 -2.51993 -2.45341 0
M  V30 1872 H 170.02 -1.18215 -3.58197 0
M  V30 1873 H 172.407 -0.446166 -2.91708 0
M  V30 1874 H 172.488 -1.81668 -1.80085 0
M  V30 1875 H 172.132 -3.40883 -3.76512 0
M  V30 1876 H 172.062 -2.01071 -4.86701 0
M  V30 1877 H 174.553 -1.80768 -3.3186 0
M  V30 1878 H 174.866 -4.23366 -6.46514 0
M  V30 1879 H 173.211 -3.80163 -5.81808 0
M  V30 1880 H 176.402 -2.31278 -4.06974 0
M  V30 1881 H 176.575 -3.41885 -5.50471 0
M  V30 1882 N 169.982 1.44106 -0.638065 0
M  V30 1883 C 171.207 2.0685 -0.150916 0
M  V30 1884 C 171.632 1.47417 1.16833 0
M  V30 1885 O 170.99 0.578264 1.71831 0
M  V30 1886 C 171.038 3.60555 -0.05708 0
M  V30 1887 O 170.142 4.00465 0.984972 0
M  V30 1888 H 169.483 0.658151 -0.0879399 0
M  V30 1889 H 172.013 1.84865 -0.876707 0
M  V30 1890 H 172.023 4.07789 0.131232 0
M  V30 1891 H 170.698 4.03193 -1.02021 0
M  V30 1892 H 169.275 3.64849 0.770672 0
M  V30 1893 N 171.46 0.379036 1.52974 0
M  V30 1894 C 172.871 -0.0972525 1.86447 0
M  V30 1895 C 173.222 -1.47027 1.29914 0
M  V30 1896 O 172.347 -2.07135 0.626433 0
M  V30 1897 C 172.942 -0.183248 3.38304 0
M  V30 1898 C 171.501 -0.603812 3.71525 0
M  V30 1899 C 170.648 0.240632 2.76254 0
M  V30 1900 H 173.599 0.597316 1.4703 0
M  V30 1901 H 173.62 -1.00432 3.67006 0
M  V30 1902 H 173.132 0.816191 3.79421 0
M  V30 1903 H 171.233 -1.61099 3.35973 0
M  V30 1904 H 171.346 -0.369086 4.77676 0
M  V30 1905 H 169.71 -0.292548 2.53014 0
M  V30 1906 H 170.493 1.23786 3.20206 0
M  V30 1907 N 172.938 -1.57226 0.108567 0
M  V30 1908 C 174.163 -1.99604 -0.563303 0
M  V30 1909 C 174.588 -0.987563 -1.6009 0
M  V30 1910 O 173.946 0.0421687 -1.81251 0
M  V30 1911 C 173.994 -3.40902 -1.17552 0
M  V30 1912 O 173.098 -3.42896 -2.2912 0
M  V30 1913 H 172.439 -0.648704 -0.1417 0
M  V30 1914 H 174.969 -2.03679 0.193961 0
M  V30 1915 H 174.979 -3.78886 -1.51357 0
M  V30 1916 H 173.654 -4.1382 -0.415445 0
M  V30 1917 H 172.231 -3.1672 -1.96832 0
M  V30 1918 N 174.416 0.165178 -1.56732 0
M  V30 1919 C 175.379 1.18822 -1.95995 0
M  V30 1920 C 176.379 1.3685 -0.84431 0
M  V30 1921 O 177.569 1.34152 -1.11126 0
M  V30 1922 C 174.701 2.5521 -2.26011 0
M  V30 1923 H 175.894 0.851825 -2.87548 0
M  V30 1924 H 173.447 0.407857 -1.50885 0
M  V30 1925 H 174.182 2.93852 -1.37191 0
M  V30 1926 H 173.967 2.43489 -3.07336 0
M  V30 1927 H 175.457 3.28927 -2.57288 0
M  V30 1928 N 175.894 1.51508 0.433938 0
M  V30 1929 C 177.141 1.64345 1.18309 0
M  V30 1930 C 177.469 0.361315 1.91115 0
M  V30 1931 O 176.724 -0.654753 1.84422 0
M  V30 1932 C 177.023 2.79928 2.22205 0
M  V30 1933 C 176.689 4.19078 1.66387 0
M  V30 1934 C 175.351 4.56932 1.50887 0
M  V30 1935 C 177.703 5.05894 1.25381 0
M  V30 1936 C 175.031 5.79305 0.928608 0
M  V30 1937 C 177.383 6.2885 0.687823 0
M  V30 1938 C 176.047 6.65473 0.519755 0
M  V30 1939 H 175.317 0.601381 0.432923 0
M  V30 1940 H 177.964 1.85549 0.473676 0
M  V30 1941 H 176.269 2.52959 2.99197 0
M  V30 1942 H 177.966 2.87059 2.79997 0
M  V30 1943 H 174.556 3.89234 1.79428 0
M  V30 1944 H 178.74 4.77253 1.36175 0
M  V30 1945 H 173.996 6.06324 0.786186 0
M  V30 1946 H 178.17 6.95461 0.361581 0
M  V30 1947 H 175.797 7.6017 0.0679979 0
M  V30 1948 N 177.372 -0.689602 1.41712 0
M  V30 1949 C 178.62 -1.4468 1.4111 0
M  V30 1950 C 178.941 -1.94986 0.0232196 0
M  V30 1951 O 178.211 -1.72097 -0.935913 0
M  V30 1952 H 176.791 -0.536847 0.519427 0
M  V30 1953 H 179.453 -0.815825 1.77004 0
M  V30 1954 H 178.549 -2.30706 2.10193 0
M  V30 1955 N 178.85 -1.27639 -0.924453 0
M  V30 1956 C 180.096 -1.14336 -1.67497 0
M  V30 1957 C 180.429 0.309465 -1.91718 0
M  V30 1958 O 179.704 1.22608 -1.50989 0
M  V30 1959 C 179.987 -1.93096 -3.0395 0
M  V30 1960 C 179.84 -3.46381 -2.8695 0
M  V30 1961 C 181.159 -1.73798 -4.0433 0
M  V30 1962 H 178.278 -0.416728 -0.607871 0
M  V30 1963 H 180.92 -1.56832 -1.07256 0
M  V30 1964 H 179.07 -1.56982 -3.55372 0
M  V30 1965 H 180.742 -3.92343 -2.42621 0
M  V30 1966 H 178.985 -3.72557 -2.22225 0
M  V30 1967 H 179.656 -3.96735 -3.83804 0
M  V30 1968 H 182.132 -2.05293 -3.61931 0
M  V30 1969 H 181.008 -2.31294 -4.97789 0
M  V30 1970 H 181.269 -0.686725 -4.36734 0
M  V30 1971 N 180.328 1.1314 -1.09713 0
M  V30 1972 C 181.577 1.83838 -0.829851 0
M  V30 1973 C 181.89 1.84599 0.646728 0
M  V30 1974 O 183.096 2.51218 1.02965 0
M  V30 1975 C 181.552 3.30069 -1.43466 0
M  V30 1976 C 181.16 3.37688 -2.94399 0
M  V30 1977 C 182.904 4.05788 -1.24645 0
M  V30 1978 C 180.811 4.78209 -3.47952 0
M  V30 1979 H 179.741 0.68877 -0.306777 0
M  V30 1980 H 182.392 1.27448 -1.3202 0
M  V30 1981 H 180.774 3.8628 -0.871996 0
M  V30 1982 H 181.948 2.91456 -3.56918 0
M  V30 1983 H 180.263 2.75436 -3.12289 0
M  V30 1984 H 182.86 5.09535 -1.62107 0
M  V30 1985 H 183.203 4.15878 -0.187357 0
M  V30 1986 H 183.736 3.55915 -1.77678 0
M  V30 1987 H 180.475 4.73311 -4.53495 0
M  V30 1988 H 179.995 5.24924 -2.90198 0
M  V30 1989 H 181.674 5.47133 -3.45332 0
M  V30 1990 N 181.806 0.884767 1.30421 0
M  V30 1991 C 183.052 0.503851 1.96441 0
M  V30 1992 C 183.385 -0.944518 1.69684 0
M  V30 1993 O 182.66 -1.66737 1.00145 0
M  V30 1994 C 182.943 0.779085 3.51571 0
M  V30 1995 C 182.796 2.27807 3.87846 0
M  V30 1996 C 184.115 0.255452 4.39358 0
M  V30 1997 H 181.234 0.184533 0.713524 0
M  V30 1998 H 183.876 1.10872 1.54297 0
M  V30 1999 H 182.026 0.264274 3.876 0
M  V30 2000 H 183.698 2.86127 3.61841 0
M  V30 2001 H 181.941 2.74479 3.35922 0
M  V30 2002 H 182.612 2.42125 4.96064 0
M  V30 2003 H 185.088 0.696079 4.10236 0
M  V30 2004 H 183.964 0.477361 5.4682 0
M  V30 2005 H 184.225 -0.843293 4.33983 0
M  V30 2006 N 183.284 -1.43765 0.645699 0
M  V30 2007 C 184.509 -2.06767 0.161883 0
M  V30 2008 C 184.934 -1.48034 -1.16049 0
M  V30 2009 O 184.292 -0.587369 -1.71522 0
M  V30 2010 C 184.34 -3.60519 0.0762003 0
M  V30 2011 O 183.444 -4.00982 -0.963721 0
M  V30 2012 H 182.785 -0.657675 0.091429 0
M  V30 2013 H 185.315 -1.84397 0.886499 0
M  V30 2014 H 185.325 -4.07853 -0.109604 0
M  V30 2015 H 184 -4.02646 1.04157 0
M  V30 2016 H 182.577 -3.65253 -0.751312 0
M  V30 2017 N 184.763 -0.387143 -1.52771 0
M  V30 2018 C 186.01 0.195735 -2.01552 0
M  V30 2019 C 186.338 1.46995 -1.27369 0
M  V30 2020 O 185.593 1.92325 -0.361879 0
M  V30 2021 C 185.892 0.512209 -3.53711 0
M  V30 2022 C 185.558 -0.670202 -4.45891 0
M  V30 2023 C 184.22 -0.994586 -4.70809 0
M  V30 2024 C 186.572 -1.46134 -5.00294 0
M  V30 2025 C 183.9 -2.11169 -5.4738 0
M  V30 2026 C 186.252 -2.56903 -5.78086 0
M  V30 2027 C 184.916 -2.89852 -6.01284 0
M  V30 2028 H 184.186 0.0716246 -0.73753 0
M  V30 2029 H 186.833 -0.524046 -1.8419 0
M  V30 2030 H 185.138 1.31329 -3.69134 0
M  V30 2031 H 186.835 0.975804 -3.88946 0
M  V30 2032 H 183.425 -0.407366 -4.2666 0
M  V30 2033 H 187.609 -1.22397 -4.80971 0
M  V30 2034 H 182.865 -2.3707 -5.63567 0
M  V30 2035 H 187.039 -3.18608 -6.19243 0
M  V30 2036 H 184.666 -3.76533 -6.60399 0
M  V30 2037 N 186.241 1.57166 -0.116904 0
M  V30 2038 C 187.171 2.18222 0.830759 0
M  V30 2039 C 188.152 1.12167 1.27877 0
M  V30 2040 O 189.337 1.40394 1.34176 0
M  V30 2041 C 186.467 2.77996 2.08172 0
M  V30 2042 C 185.421 3.89614 1.77157 0
M  V30 2043 C 184.747 4.36187 3.09265 0
M  V30 2044 C 186.047 5.1181 1.04151 0
M  V30 2045 H 187.741 2.97664 0.321992 0
M  V30 2046 H 185.287 1.4318 0.153434 0
M  V30 2047 H 187.24 3.19366 2.74924 0
M  V30 2048 H 185.964 1.9584 2.6137 0
M  V30 2049 H 184.623 3.48816 1.12796 0
M  V30 2050 H 184.271 3.50893 3.60393 0
M  V30 2051 H 183.971 5.11455 2.89288 0
M  V30 2052 H 185.495 4.80207 3.77139 0
M  V30 2053 H 186.909 5.50214 1.61052 0
M  V30 2054 H 185.306 5.92648 0.942762 0
M  V30 2055 H 186.376 4.84892 0.0279022 0
M  V30 2056 N 187.719 -0.156864 1.56817 0
M  V30 2057 C 188.682 -1.17781 1.96622 0
M  V30 2058 C 189.682 -1.36401 0.851555 0
M  V30 2059 O 190.872 -1.33561 1.11836 0
M  V30 2060 C 188.004 -2.54008 2.27361 0
M  V30 2061 H 189.197 -0.836564 2.87996 0
M  V30 2062 H 186.75 -0.39985 1.51099 0
M  V30 2063 H 187.485 -2.9312 1.38748 0
M  V30 2064 H 187.27 -2.41856 3.08623 0
M  V30 2065 H 188.76 -3.27558 2.59029 0
M  V30 2066 N 189.197 -1.51736 -0.425897 0
M  V30 2067 C 190.16 -1.73271 -1.50032 0
M  V30 2068 C 191.16 -0.602639 -1.4908 0
M  V30 2069 O 192.35 -0.87033 -1.509 0
M  V30 2070 C 189.482 -1.79969 -2.89523 0
M  V30 2071 H 190.675 -2.69172 -1.32237 0
M  V30 2072 H 188.228 -1.41899 -0.65532 0
M  V30 2073 H 188.963 -0.859241 -3.1271 0
M  V30 2074 H 188.748 -2.62109 -2.91619 0
M  V30 2075 H 190.238 -1.9843 -3.67444 0
M  V30 2076 N 190.675 0.682077 -1.42076 0
M  V30 2077 C 191.923 1.4393 -1.41876 0
M  V30 2078 C 192.244 1.94971 -0.0335599 0
M  V30 2079 O 191.514 1.72591 0.926773 0
M  V30 2080 H 190.094 0.534085 -0.522267 0
M  V30 2081 H 192.756 0.806427 -1.77434 0
M  V30 2082 H 191.852 2.29588 -2.11414 0
M  V30 2083 N 192.153 1.28127 0.917671 0
M  V30 2084 C 193.1 1.11717 2.0196 0
M  V30 2085 C 194.07 0.0153929 1.66093 0
M  V30 2086 O 195.255 0.179596 1.89953 0
M  V30 2087 C 192.395 0.780927 3.36148 0
M  V30 2088 C 191.508 1.96135 3.84909 0
M  V30 2089 C 190.643 1.56609 5.0759 0
M  V30 2090 C 189.682 2.71339 5.48673 0
M  V30 2091 N 188.819 2.32332 6.62545 0
M  V30 2092 H 193.659 2.06003 2.15329 0
M  V30 2093 H 191.196 1.02535 1.05475 0
M  V30 2094 H 193.154 0.56675 4.13333 0
M  V30 2095 H 191.784 -0.124998 3.22558 0
M  V30 2096 H 190.836 2.28777 3.03916 0
M  V30 2097 H 192.148 2.82165 4.1132 0
M  V30 2098 H 191.302 1.31374 5.92305 0
M  V30 2099 H 190.041 0.677014 4.82978 0
M  V30 2100 H 189.046 2.97276 4.62501 0
M  V30 2101 H 190.271 3.60882 5.75274 0
M  V30 2102 H 188.217 1.45889 6.39572 0
M  V30 2103 H 188.134 3.11899 6.88662 0
M  V30 2104 H 189.402 2.10371 7.50576 0
M  V30 2105 N 193.631 -1.12557 1.10312 0
M  V30 2106 C 194.561 -2.20341 0.772798 0
M  V30 2107 C 195.542 -1.68198 -0.25365 0
M  V30 2108 O 196.727 -1.93831 -0.119699 0
M  V30 2109 C 193.857 -3.46709 0.202443 0
M  V30 2110 C 192.811 -4.11996 1.15943 0
M  V30 2111 C 192.137 -5.328 0.450345 0
M  V30 2112 C 193.437 -4.5828 2.50552 0
M  V30 2113 H 195.131 -2.48229 1.674 0
M  V30 2114 H 192.677 -1.19308 0.806326 0
M  V30 2115 H 194.63 -4.2138 -0.0407752 0
M  V30 2116 H 193.354 -3.18245 -0.734001 0
M  V30 2117 H 192.013 -3.39305 1.38808 0
M  V30 2118 H 191.661 -5.00602 -0.490531 0
M  V30 2119 H 191.361 -5.7743 1.08851 0
M  V30 2120 H 192.885 -6.10219 0.215642 0
M  V30 2121 H 194.299 -5.2433 2.31843 0
M  V30 2122 H 192.696 -5.13683 3.10242 0
M  V30 2123 H 193.766 -3.72329 3.10643 0
M  V30 2124 N 195.109 -0.891671 -1.2995 0
M  V30 2125 C 196.355 -0.514261 -1.96171 0
M  V30 2126 C 196.688 0.935506 -1.70182 0
M  V30 2127 O 195.963 1.66204 -1.01028 0
M  V30 2128 C 196.246 -0.797719 -3.51153 0
M  V30 2129 C 196.099 -2.2986 -3.86632 0
M  V30 2130 C 197.418 -0.278749 -4.39216 0
M  V30 2131 H 194.537 -0.188314 -0.712535 0
M  V30 2132 H 197.179 -1.11689 -1.53706 0
M  V30 2133 H 195.329 -0.284826 -3.87455 0
M  V30 2134 H 197.001 -2.88042 -3.60319 0
M  V30 2135 H 195.244 -2.76257 -3.34462 0
M  V30 2136 H 195.915 -2.44753 -4.94773 0
M  V30 2137 H 198.391 -0.717825 -4.09862 0
M  V30 2138 H 197.267 -0.506353 -5.46559 0
M  V30 2139 H 197.528 0.820266 -4.34424 0
M  V30 2140 N 196.587 1.43421 -0.653314 0
M  V30 2141 C 197.517 2.33487 0.0246656 0
M  V30 2142 C 198.498 1.49475 0.811863 0
M  V30 2143 O 199.683 1.78139 0.773322 0
M  V30 2144 C 196.813 3.32841 0.99166 0
M  V30 2145 C 195.767 4.26842 0.314568 0
M  V30 2146 C 195.093 5.16236 1.39302 0
M  V30 2147 C 196.393 5.16243 -0.793095 0
M  V30 2148 H 198.087 2.90427 -0.727481 0
M  V30 2149 H 195.633 1.39649 -0.351287 0
M  V30 2150 H 197.586 3.94747 1.47487 0
M  V30 2151 H 196.31 2.74158 1.77497 0
M  V30 2152 H 194.969 3.663 -0.148199 0
M  V30 2153 H 194.617 4.53891 2.16776 0
M  V30 2154 H 194.317 5.79948 0.945223 0
M  V30 2155 H 195.841 5.81015 1.87759 0
M  V30 2156 H 197.255 5.71958 -0.392039 0
M  V30 2157 H 195.652 5.88676 -1.16536 0
M  V30 2158 H 196.722 4.55927 -1.65103 0
M  V30 2159 N 198.065 0.39524 1.52563 0
M  V30 2160 C 198.995 -0.428384 2.29537 0
M  V30 2161 C 199.976 -1.05831 1.33169 0
M  V30 2162 O 201.161 -1.06995 1.62067 0
M  V30 2163 C 198.291 -1.55274 3.10656 0
M  V30 2164 C 197.245 -1.04855 4.14957 0
M  V30 2165 C 196.571 -2.26543 4.84337 0
M  V30 2166 C 197.871 -0.112324 5.22179 0
M  V30 2167 H 199.565 0.213867 2.98635 0
M  V30 2168 H 197.111 0.104298 1.43622 0
M  V30 2169 H 199.064 -2.1358 3.63265 0
M  V30 2170 H 197.788 -2.22266 2.39302 0
M  V30 2171 H 196.447 -0.487985 3.63338 0
M  V30 2172 H 196.095 -2.92059 4.09525 0
M  V30 2173 H 195.795 -1.93466 5.54837 0
M  V30 2174 H 197.319 -2.85481 5.39753 0
M  V30 2175 H 198.733 -0.603752 5.70112 0
M  V30 2176 H 197.13 0.128968 5.99961 0
M  V30 2177 H 198.2 0.837052 4.77621 0
M  V30 2178 N 199.544 -1.57102 0.125237 0
M  V30 2179 C 200.476 -2.12726 -0.853237 0
M  V30 2180 C 201.489 -1.07145 -1.22571 0
M  V30 2181 O 202.678 -1.34497 -1.17358 0
M  V30 2182 C 199.778 -2.61709 -2.15317 0
M  V30 2183 C 198.951 -3.91456 -1.95143 0
M  V30 2184 C 198.01 -4.25973 -3.08923 0
M  V30 2185 O 197.036 -4.94682 -2.81564 0
M  V30 2186 N 198.238 -3.83795 -4.35524 0
M  V30 2187 H 201.003 -2.97307 -0.377964 0
M  V30 2188 H 198.564 -1.61792 -0.0590011 0
M  V30 2189 H 200.556 -2.81826 -2.90441 0
M  V30 2190 H 199.126 -1.81974 -2.54174 0
M  V30 2191 H 198.346 -3.80185 -1.04177 0
M  V30 2192 H 199.634 -4.76283 -1.78976 0
M  V30 2193 H 199.032 -3.2839 -4.60626 0
M  V30 2194 H 197.589 -4.09008 -5.07499 0
M  V30 2195 N 201.022 0.148545 -1.56898 0
M  V30 2196 C 201.932 1.20293 -2.01412 0
M  V30 2197 C 202.948 1.47107 -0.929273 0
M  V30 2198 O 204.124 1.58807 -1.23863 0
M  V30 2199 C 201.189 2.51682 -2.38447 0
M  V30 2200 C 200.25 2.32529 -3.60872 0
M  V30 2201 C 199.483 3.57653 -3.96132 0
M  V30 2202 O 199.706 4.63771 -3.32073 0
M  V30 2203 O 198.64 3.50408 -4.89385 0
M  V30 2204 H 202.466 0.855025 -2.91416 0
M  V30 2205 H 200.051 0.357151 -1.45068 0
M  V30 2206 H 201.933 3.29147 -2.63135 0
M  V30 2207 H 200.608 2.86006 -1.51599 0
M  V30 2208 H 199.515 1.53019 -3.41373 0
M  V30 2209 H 200.848 2.03121 -4.48333 0
M  V30 2210 N 202.5 1.5196 0.417844 0
M  V30 2211 C 203.433 1.69387 1.52916 0
M  V30 2212 C 204.411 0.541419 1.53321 0
M  V30 2213 O 205.595 0.767695 1.72159 0
M  V30 2214 C 202.722 1.72525 2.91467 0
M  V30 2215 C 201.768 2.93967 3.09008 0
M  V30 2216 S 202.601 4.54461 2.83242 0
M  V30 2217 C 203.757 4.60372 4.24038 0
M  V30 2218 H 203.99 2.63382 1.37903 0
M  V30 2219 H 201.523 1.41889 0.608845 0
M  V30 2220 H 203.481 1.75018 3.7132 0
M  V30 2221 H 202.142 0.796733 3.03827 0
M  V30 2222 H 201.335 2.92619 4.10353 0
M  V30 2223 H 200.937 2.89316 2.37007 0
M  V30 2224 H 203.229 4.37213 5.17544 0
M  V30 2225 H 204.172 5.62273 4.30412 0
M  V30 2226 H 204.58 3.89492 4.08602 0
M  V30 2227 N 203.978 -0.674533 1.42435 0
M  V30 2228 C 205.218 -1.4466 1.44405 0
M  V30 2229 C 205.582 -1.91911 0.0585784 0
M  V30 2230 O 206.783 -2.68759 -0.0469991 0
M  V30 2231 C 205.054 -2.61136 2.44013 0
M  V30 2232 S 206.613 -3.49981 2.64687 0
M  V30 2233 H 203.431 -0.494074 0.511284 0
M  V30 2234 H 206.033 -0.785162 1.7904 0
M  V30 2235 H 204.737 -2.24662 3.43446 0
M  V30 2236 H 204.268 -3.32153 2.10803 0
M  V30 2237 H 206.283 -4.57124 1.93007 0
M  V30 2238 N 205.456 -1.28612 -0.910864 0
M  V30 2239 C 206.419 -1.12803 -1.9952 0
M  V30 2240 C 207.419 -0.0668264 -1.60661 0
M  V30 2241 O 208.609 -0.312847 -1.71368 0
M  V30 2242 C 205.741 -0.72254 -3.33155 0
M  V30 2243 H 206.934 -2.09109 -2.14973 0
M  V30 2244 H 204.487 -1.11639 -1.09391 0
M  V30 2245 H 205.222 0.241152 -3.23402 0
M  V30 2246 H 205.007 -1.48916 -3.62721 0
M  V30 2247 H 206.497 -0.634666 -4.12749 0
M  V30 2248 N 206.934 1.1197 -1.10907 0
M  V30 2249 C 207.864 2.19928 -0.784473 0
M  V30 2250 C 208.845 1.6833 0.244726 0
M  V30 2251 O 210.03 1.93892 0.109418 0
M  V30 2252 C 207.16 3.46597 -0.220827 0
M  V30 2253 C 206.114 4.11376 -1.18127 0
M  V30 2254 C 205.44 5.32554 -0.478594 0
M  V30 2255 C 206.74 4.56945 -2.52979 0
M  V30 2256 H 208.434 2.47337 -1.68715 0
M  V30 2257 H 205.98 1.18879 -0.812642 0
M  V30 2258 H 207.933 4.21396 0.0184278 0
M  V30 2259 H 206.657 3.1863 0.717113 0
M  V30 2260 H 205.316 3.38564 -1.40606 0
M  V30 2261 H 204.964 5.00856 0.463976 0
M  V30 2262 H 204.664 5.76844 -1.11912 0
M  V30 2263 H 206.188 6.10096 -0.248 0
M  V30 2264 H 207.602 5.23093 -2.3462 0
M  V30 2265 H 205.999 5.1203 -3.12962 0
M  V30 2266 H 207.069 3.70676 -3.12614 0
M  V30 2267 N 208.412 0.89855 1.29475 0
M  V30 2268 C 209.637 0.538561 2.00285 0
M  V30 2269 C 210.062 -0.869135 1.66816 0
M  V30 2270 O 209.42 -1.57831 0.892145 0
M  V30 2271 C 209.468 0.736475 3.52999 0
M  V30 2272 O 208.572 -0.211537 4.11857 0
M  V30 2273 H 207.913 0.210563 0.62973 0
M  V30 2274 H 210.443 1.20982 1.64998 0
M  V30 2275 H 210.453 0.640685 4.02938 0
M  V30 2276 H 209.128 1.76276 3.76696 0
M  V30 2277 H 207.705 -0.0682991 3.72837 0
M  V30 2278 N 209.89 -1.43072 0.660911 0
M  V30 2279 C 211.137 -2.01721 0.177445 0
M  V30 2280 C 211.465 -1.5218 -1.21126 0
M  V30 2281 O 210.72 -0.708659 -1.82419 0
M  V30 2282 C 211.019 -3.57103 0.145563 0
M  V30 2283 C 210.685 -4.26021 1.47705 0
M  V30 2284 C 209.347 -4.44563 1.84165 0
M  V30 2285 C 211.699 -4.64983 2.35458 0
M  V30 2286 C 209.027 -4.99334 3.0803 0
M  V30 2287 C 211.379 -5.21127 3.58622 0
M  V30 2288 C 210.043 -5.37884 3.95268 0
M  V30 2289 H 209.313 -0.73815 0.0649317 0
M  V30 2290 H 211.96 -1.71446 0.853144 0
M  V30 2291 H 210.265 -3.86965 -0.61361 0
M  V30 2292 H 211.962 -4.00248 -0.2455 0
M  V30 2293 H 208.552 -4.11939 1.18339 0
M  V30 2294 H 212.736 -4.50343 2.08579 0
M  V30 2295 H 207.992 -5.10493 3.36462 0
M  V30 2296 H 212.166 -5.50262 4.26831 0
M  V30 2297 H 209.793 -5.80089 4.91325 0
M  V30 2298 N 211.368 -0.403325 -1.52352 0
M  V30 2299 C 212.3 0.4603 -2.2453 0
M  V30 2300 C 213.313 1.01505 -1.27282 0
M  V30 2301 O 214.502 0.914982 -1.53266 0
M  V30 2302 C 211.602 1.65208 -2.95905 0
M  V30 2303 C 210.775 1.22224 -4.19976 0
M  V30 2304 C 209.834 2.28028 -4.74226 0
M  V30 2305 O 208.86 1.88857 -5.36956 0
M  V30 2306 N 210.062 3.6012 -4.55295 0
M  V30 2307 H 212.827 -0.158156 -2.99282 0
M  V30 2308 H 210.388 -0.230402 -1.60252 0
M  V30 2309 H 212.38 2.35541 -3.29093 0
M  V30 2310 H 210.95 2.17658 -2.24374 0
M  V30 2311 H 210.17 0.34725 -3.92668 0
M  V30 2312 H 211.458 0.911924 -5.00561 0
M  V30 2313 H 210.856 3.94698 -4.05253 0
M  V30 2314 H 209.413 4.26447 -4.92936 0
M  V30 2315 N 212.846 1.57033 -0.133567 0
M  V30 2316 C 213.756 2.19632 0.824564 0
M  V30 2317 C 214.772 1.17666 1.28182 0
M  V30 2318 O 215.948 1.50193 1.3418 0
M  V30 2319 C 213.013 2.79499 2.05137 0
M  V30 2320 C 212.074 3.96548 1.64464 0
M  V30 2321 C 211.307 4.5355 2.81297 0
M  V30 2322 O 211.53 4.09438 3.97136 0
M  V30 2323 O 210.464 5.44018 2.57542 0
M  V30 2324 H 214.29 3.01991 0.321766 0
M  V30 2325 H 211.875 1.49112 0.0927889 0
M  V30 2326 H 213.757 3.17602 2.7696 0
M  V30 2327 H 212.432 2.00162 2.54395 0
M  V30 2328 H 211.339 3.63186 0.897048 0
M  V30 2329 H 212.672 4.77364 1.19934 0
M  V30 2330 N 214.325 -0.140222 1.56975 0
M  V30 2331 C 215.235 -1.19223 2.02047 0
M  V30 2332 C 216.251 -1.46612 0.937062 0
M  V30 2333 O 217.427 -1.58148 1.24704 0
M  V30 2334 C 214.492 -2.50414 2.39778 0
M  V30 2335 C 213.553 -2.30612 3.621 0
M  V30 2336 C 212.786 -3.55547 3.98023 0
M  V30 2337 O 213.009 -4.62004 3.34528 0
M  V30 2338 O 211.943 -3.47808 4.91237 0
M  V30 2339 H 215.769 -0.839559 2.91865 0
M  V30 2340 H 213.354 -0.349453 1.45256 0
M  V30 2341 H 215.236 -3.27747 2.64877 0
M  V30 2342 H 213.911 -2.85198 1.53114 0
M  V30 2343 H 212.818 -1.51207 3.4218 0
M  V30 2344 H 214.151 -2.00741 4.49404 0
M  V30 2345 N 215.803 -1.52179 -0.40978 0
M  V30 2346 C 216.733 -1.78435 -1.5061 0
M  V30 2347 C 217.714 -0.635295 -1.57791 0
M  V30 2348 O 218.899 -0.880823 -1.73076 0
M  V30 2349 C 216.029 -1.93444 -2.88439 0
M  V30 2350 C 214.983 -3.09038 -2.96108 0
M  V30 2351 C 214.309 -3.09268 -4.36185 0
M  V30 2352 C 215.609 -4.48508 -2.67652 0
M  V30 2353 H 217.303 -2.70237 -1.28889 0
M  V30 2354 H 214.849 -1.30036 -0.618605 0
M  V30 2355 H 216.802 -2.10394 -3.65119 0
M  V30 2356 H 215.526 -0.983129 -3.11452 0
M  V30 2357 H 214.185 -2.91837 -2.21872 0
M  V30 2358 H 213.833 -2.11861 -4.56206 0
M  V30 2359 H 213.533 -3.86907 -4.42241 0
M  V30 2360 H 215.057 -3.28348 -5.14801 0
M  V30 2361 H 216.471 -4.65918 -3.34056 0
M  V30 2362 H 214.868 -5.28059 -2.85085 0
M  V30 2363 H 215.938 -4.56649 -1.63095 0
M  V30 2364 N 217.281 0.66697 -1.42791 0
M  V30 2365 C 218.244 1.76211 -1.46568 0
M  V30 2366 C 219.244 1.56896 -0.352196 0
M  V30 2367 O 220.434 1.63044 -0.613364 0
M  V30 2368 C 217.566 3.14935 -1.30494 0
M  V30 2369 H 218.759 1.74247 -2.44086 0
M  V30 2370 H 216.312 0.877342 -1.29354 0
M  V30 2371 H 217.047 3.2252 -0.339301 0
M  V30 2372 H 216.832 3.30359 -2.11199 0
M  V30 2373 H 218.322 3.94821 -1.36038 0
M  V30 2374 N 218.759 1.29093 0.90403 0
M  V30 2375 C 219.989 1.19516 1.68522 0
M  V30 2376 C 220.397 -0.24738 1.87576 0
M  V30 2377 O 219.74 -1.17798 1.40959 0
M  V30 2378 C 219.802 1.83249 3.0929 0
M  V30 2379 C 219.466 3.32531 3.13484 0
M  V30 2380 C 220.463 4.28821 2.93953 0
M  V30 2381 C 218.148 3.73656 3.35688 0
M  V30 2382 C 220.142 5.64212 2.96553 0
M  V30 2383 C 217.829 5.0917 3.37919 0
M  V30 2384 C 218.827 6.04258 3.18373 0
M  V30 2385 O 218.515 7.37298 3.20385 0
M  V30 2386 H 218.247 0.415467 0.533257 0
M  V30 2387 H 220.801 1.70912 1.13922 0
M  V30 2388 H 219.031 1.26358 3.65473 0
M  V30 2389 H 220.72 1.68054 3.69476 0
M  V30 2390 H 221.486 3.98382 2.76616 0
M  V30 2391 H 217.365 3.00101 3.49943 0
M  V30 2392 H 220.909 6.38407 2.81216 0
M  V30 2393 H 216.806 5.39256 3.54787 0
M  V30 2394 H 217.574 7.46048 3.36681 0
M  V30 2395 N 220.237 -1.11381 1.11499 0
M  V30 2396 C 221.483 -1.83597 0.875423 0
M  V30 2397 C 221.838 -1.83048 -0.592555 0
M  V30 2398 O 221.131 -1.27304 -1.43193 0
M  V30 2399 C 221.325 -3.30026 1.37177 0
M  V30 2400 C 221.154 -3.44837 2.88647 0
M  V30 2401 C 219.924 -3.57825 3.56776 0
M  V30 2402 C 222.122 -3.3907 3.86699 0
M  V30 2403 N 220.104 -3.61113 4.96458 0
M  V30 2404 C 221.475 -3.48986 5.12454 0
M  V30 2405 C 223.53 -3.22605 3.7925 0
M  V30 2406 C 222.233 -3.44135 6.31636 0
M  V30 2407 C 224.259 -3.19072 4.97943 0
M  V30 2408 C 223.621 -3.29559 6.22551 0
M  V30 2409 H 219.72 -0.687044 0.37349 0
M  V30 2410 H 222.304 -1.33265 1.41946 0
M  V30 2411 H 220.475 -3.78874 0.854919 0
M  V30 2412 H 222.207 -3.90153 1.07529 0
M  V30 2413 H 218.962 -3.60414 3.07244 0
M  V30 2414 H 219.386 -3.66394 5.69284 0
M  V30 2415 H 224.028 -3.13382 2.83816 0
M  V30 2416 H 221.746 -3.52126 7.27347 0
M  V30 2417 H 225.332 -3.07498 4.93899 0
M  V30 2418 H 224.212 -3.26815 7.12855 0
M  V30 2419 N 221.715 -0.905404 -1.28997 0
M  V30 2420 C 222.963 -0.533192 -1.9494 0
M  V30 2421 C 223.284 0.924618 -1.71685 0
M  V30 2422 O 222.554 1.65268 -1.05183 0
M  V30 2423 H 221.134 -0.194194 -0.721317 0
M  V30 2424 H 223.796 -1.15294 -1.57141 0
M  V30 2425 H 222.892 -0.72059 -3.03667 0
M  V30 2426 N 223.193 1.4272 -0.668489 0
M  V30 2427 C 224.442 2.00846 -0.185389 0
M  V30 2428 C 224.755 1.53442 1.21305 0
M  V30 2429 O 225.961 2.03944 1.79218 0
M  V30 2430 C 224.417 3.58805 -0.280591 0
M  V30 2431 C 224.025 4.15198 -1.68268 0
M  V30 2432 C 225.769 4.24255 0.14412 0
M  V30 2433 C 223.676 5.655 -1.73099 0
M  V30 2434 H 222.606 0.751145 -0.0655475 0
M  V30 2435 H 225.257 1.63516 -0.832752 0
M  V30 2436 H 223.639 3.93608 0.434553 0
M  V30 2437 H 224.813 3.91866 -2.42441 0
M  V30 2438 H 223.128 3.62176 -2.05469 0
M  V30 2439 H 225.725 5.34547 0.128086 0
M  V30 2440 H 226.068 3.99277 1.17827 0
M  V30 2441 H 226.601 3.94389 -0.519798 0
M  V30 2442 H 223.34 5.95268 -2.74475 0
M  V30 2443 H 222.86 5.90842 -1.03274 0
M  V30 2444 H 224.539 6.29808 -1.48158 0
M  V30 2445 N 224.671 0.411399 1.52136 0
M  V30 2446 C 225.581 -0.419774 2.30814 0
M  V30 2447 C 226.597 -1.0515 1.38634 0
M  V30 2448 O 227.773 -1.05252 1.71709 0
M  V30 2449 C 224.838 -1.52019 3.11594 0
M  V30 2450 C 223.899 -0.91129 4.19516 0
M  V30 2451 C 223.132 -1.95927 4.96436 0
M  V30 2452 O 223.355 -3.17775 4.73683 0
M  V30 2453 O 222.289 -1.56423 5.81219 0
M  V30 2454 H 226.115 0.221805 3.02889 0
M  V30 2455 H 223.7 0.174547 1.48377 0
M  V30 2456 H 225.582 -2.15898 3.61892 0
M  V30 2457 H 224.257 -2.14633 2.42311 0
M  V30 2458 H 223.164 -0.235157 3.7336 0
M  V30 2459 H 224.497 -0.32904 4.91099 0
M  V30 2460 N 226.149 -1.5696 0.141893 0
M  V30 2461 C 227.059 -2.20066 -0.812905 0
M  V30 2462 C 228.075 -1.18344 -1.27557 0
M  V30 2463 O 229.251 -1.50902 -1.33381 0
M  V30 2464 C 226.316 -2.80583 -2.03652 0
M  V30 2465 C 225.377 -3.97414 -1.62359 0
M  V30 2466 C 224.61 -4.55036 -2.78887 0
M  V30 2467 O 224.833 -4.11538 -3.94959 0
M  V30 2468 O 223.767 -5.45376 -2.54653 0
M  V30 2469 H 227.593 -3.02157 -0.305746 0
M  V30 2470 H 225.178 -1.49159 -0.0848799 0
M  V30 2471 H 227.06 -3.19067 -2.75272 0
M  V30 2472 H 225.735 -2.01508 -2.5333 0
M  V30 2473 H 224.642 -3.63656 -0.877775 0
M  V30 2474 H 225.975 -4.77994 -1.17401 0
M  V30 2475 N 227.627 0.131896 -1.57047 0
M  V30 2476 C 228.59 1.14638 -1.98471 0
M  V30 2477 C 229.59 1.35029 -0.873148 0
M  V30 2478 O 230.78 1.31764 -1.13946 0
M  V30 2479 C 227.912 2.50358 -2.31373 0
M  V30 2480 H 229.105 0.79064 -2.8929 0
M  V30 2481 H 226.658 0.375761 -1.51716 0
M  V30 2482 H 227.393 2.90876 -1.43393 0
M  V30 2483 H 227.178 2.36915 -3.12432 0
M  V30 2484 H 228.668 3.23395 -2.64207 0
M  V30 2485 N 229.106 1.52395 0.401703 0
M  V30 2486 C 230.056 1.72649 1.48917 0
M  V30 2487 C 231.04 0.580436 1.50066 0
M  V30 2488 O 232.232 0.83779 1.55917 0
M  V30 2489 C 229.361 1.88729 2.86769 0
M  V30 2490 C 228.447 3.09228 2.90239 0
M  V30 2491 N 228.838 4.31805 2.63396 0
M  V30 2492 C 227.136 3.09214 3.21408 0
M  V30 2493 C 227.837 5.13326 2.73625 0
M  V30 2494 N 226.813 4.48735 3.06819 0
M  V30 2495 H 230.615 2.65058 1.26971 0
M  V30 2496 H 228.129 1.50528 0.609504 0
M  V30 2497 H 230.126 2.01358 3.65049 0
M  V30 2498 H 228.786 0.975252 3.09708 0
M  V30 2499 H 229.797 4.60154 2.37653 0
M  V30 2500 H 226.474 2.27774 3.49893 0
M  V30 2501 H 227.864 6.21003 2.56524 0
M  V30 2502 N 230.584 -0.659388 1.43143 0
M  V30 2503 C 231.514 -1.78422 1.50625 0
M  V30 2504 C 232.495 -1.66216 0.361443 0
M  V30 2505 O 233.68 -1.85404 0.577834 0
M  V30 2506 C 230.81 -3.16815 1.42287 0
M  V30 2507 C 229.764 -3.43777 2.54954 0
M  V30 2508 C 229.09 -4.81905 2.31671 0
M  V30 2509 C 230.39 -3.39134 3.97222 0
M  V30 2510 H 232.084 -1.72417 2.44771 0
M  V30 2511 H 229.63 -0.828084 1.17808 0
M  V30 2512 H 231.583 -3.95253 1.46127 0
M  V30 2513 H 230.307 -3.23534 0.446435 0
M  V30 2514 H 228.966 -2.67707 2.50457 0
M  V30 2515 H 228.614 -4.85294 1.32284 0
M  V30 2516 H 228.314 -5.00906 3.07192 0
M  V30 2517 H 229.838 -5.62609 2.37284 0
M  V30 2518 H 231.252 -4.07518 4.03239 0
M  V30 2519 H 229.649 -3.69671 4.72719 0
M  V30 2520 H 230.719 -2.37426 4.22797 0
M  V30 2521 N 232.062 -1.29571 -0.897171 0
M  V30 2522 C 232.972 -1.16808 -2.03453 0
M  V30 2523 C 233.988 -0.0907471 -1.73763 0
M  V30 2524 O 235.164 -0.303312 -1.99103 0
M  V30 2525 C 232.229 -0.848264 -3.36163 0
M  V30 2526 C 231.29 -2.0097 -3.79354 0
M  V30 2527 C 230.523 -1.70505 -5.05731 0
M  V30 2528 O 230.746 -0.62718 -5.66941 0
M  V30 2529 O 229.68 -2.5538 -5.45036 0
M  V30 2530 H 233.506 -2.12325 -2.17144 0
M  V30 2531 H 231.091 -1.09047 -1.02123 0
M  V30 2532 H 232.973 -0.684581 -4.15802 0
M  V30 2533 H 231.648 0.0771071 -3.23608 0
M  V30 2534 H 230.555 -2.22863 -3.00471 0
M  V30 2535 H 231.888 -2.91636 -3.96496 0
M  V30 2536 N 233.54 1.10788 -1.12088 0
M  V30 2537 C 234.956 1.34691 -0.856186 0
M  V30 2538 C 235.156 1.94791 0.515615 0
M  V30 2539 O 234.212 2.18524 1.26505 0
M  V30 2540 C 235.525 2.27208 -1.9697 0
M  V30 2541 C 237.073 2.40755 -2.00016 0
M  V30 2542 C 237.548 3.36598 -3.1059 0
M  V30 2543 N 239.039 3.44164 -3.10008 0
M  V30 2544 C 239.774 4.18284 -3.92206 0
M  V30 2545 N 239.27 4.95322 -4.84384 0
M  V30 2546 N 241.063 4.13865 -3.80357 0
M  V30 2547 H 233.214 0.70144 -2.00483 0
M  V30 2548 H 235.477 0.371405 -0.872217 0
M  V30 2549 H 235.183 1.90251 -2.958 0
M  V30 2550 H 235.057 3.27485 -1.87172 0
M  V30 2551 H 237.444 2.76982 -1.01808 0
M  V30 2552 H 237.525 1.40305 -2.13888 0
M  V30 2553 H 237.169 3.01096 -4.09028 0
M  V30 2554 H 237.099 4.36918 -2.93956 0
M  V30 2555 H 239.59 2.8922 -2.43228 0
M  V30 2556 H 239.903 5.49267 -5.43623 0
M  V30 2557 H 238.248 4.94459 -4.884 0
M  V30 2558 H 241.439 3.52773 -3.07683 0
M  V30 2559 H 241.612 4.71372 -4.44649 0
M  V30 2560 N 235.018 0.912232 1.28515 0
M  V30 2561 C 236.258 0.551677 1.96814 0
M  V30 2562 C 236.622 -0.887825 1.7024 0
M  V30 2563 O 237.823 -1.35588 2.32098 0
M  V30 2564 C 236.094 0.850555 3.47132 0
M  V30 2565 S 237.653 0.59619 4.34731 0
M  V30 2566 H 234.471 0.204191 0.681049 0
M  V30 2567 H 237.073 1.17736 1.56072 0
M  V30 2568 H 235.777 1.8962 3.63968 0
M  V30 2569 H 235.308 0.213471 3.9282 0
M  V30 2570 H 237.323 -0.553154 4.93107 0
M  V30 2571 N 236.496 -1.42363 0.676048 0
M  V30 2572 C 237.736 -2.03392 0.20273 0
M  V30 2573 C 238.1 -1.52306 -1.16906 0
M  V30 2574 O 239.301 -2.05129 -1.73711 0
M  V30 2575 C 237.572 -3.56614 0.236947 0
M  V30 2576 S 239.131 -4.38489 -0.165186 0
M  V30 2577 H 235.949 -0.70611 0.0832418 0
M  V30 2578 H 238.551 -1.74093 0.88948 0
M  V30 2579 H 237.255 -3.91293 1.23767 0
M  V30 2580 H 236.786 -3.90587 -0.469596 0
M  V30 2581 H 238.801 -4.76093 -1.39822 0
M  V30 2582 N 237.974 -0.419461 -1.51915 0
M  V30 2583 C 238.904 0.391813 -2.30189 0
M  V30 2584 C 239.885 1.03699 -1.34836 0
M  V30 2585 O 241.07 1.04403 -1.63748 0
M  V30 2586 C 238.2 1.50312 -3.13087 0
M  V30 2587 C 237.154 0.9824 -4.16573 0
M  V30 2588 C 236.48 2.18809 -4.8788 0
M  V30 2589 C 237.78 0.0292356 -5.22292 0
M  V30 2590 H 239.474 -0.26135 -2.98257 0
M  V30 2591 H 237.02 -0.127134 -1.43438 0
M  V30 2592 H 238.973 2.07773 -3.66617 0
M  V30 2593 H 237.697 2.18431 -2.42807 0
M  V30 2594 H 236.356 0.430119 -3.64068 0
M  V30 2595 H 236.004 2.85507 -4.14119 0
M  V30 2596 H 235.704 1.84615 -5.57845 0
M  V30 2597 H 237.228 2.76858 -5.44226 0
M  V30 2598 H 238.642 0.512976 -5.71 0
M  V30 2599 H 237.039 -0.2244 -5.9968 0
M  V30 2600 H 238.109 -0.912931 -4.76228 0
M  V30 2601 N 239.452 1.56882 -0.150215 0
M  V30 2602 C 240.868 1.58263 0.20617 0
M  V30 2603 C 241.068 1.16464 1.64434 0
M  V30 2604 O 240.124 0.866422 2.3717 0
M  V30 2605 C 241.437 3.00649 -0.0555025 0
M  V30 2606 C 242.985 3.12999 0.00795388 0
M  V30 2607 C 243.46 4.5744 -0.226429 0
M  V30 2608 N 244.951 4.62875 -0.173469 0
M  V30 2609 C 245.686 5.72454 -0.329288 0
M  V30 2610 N 245.182 6.90669 -0.543005 0
M  V30 2611 N 246.975 5.61467 -0.266666 0
M  V30 2612 H 239.126 1.82345 -1.08922 0
M  V30 2613 H 241.389 0.844149 -0.431413 0
M  V30 2614 H 241.095 3.3563 -1.05096 0
M  V30 2615 H 240.969 3.71337 0.66246 0
M  V30 2616 H 243.356 2.77857 0.993966 0
M  V30 2617 H 243.437 2.4479 -0.742388 0
M  V30 2618 H 243.081 4.93287 -1.20956 0
M  V30 2619 H 243.011 5.2378 0.544274 0
M  V30 2620 H 245.502 3.77898 -0.0130709 0
M  V30 2621 H 245.815 7.70045 -0.651922 0
M  V30 2622 H 244.16 6.92581 -0.579366 0
M  V30 2623 H 247.351 4.67992 -0.100441 0
M  V30 2624 H 247.524 6.46816 -0.391535 0
M  V30 2625 N 240.93 -0.123565 1.57115 0
M  V30 2626 C 241.877 -1.15177 2.00007 0
M  V30 2627 C 242.847 -1.41403 0.871454 0
M  V30 2628 O 244.032 -1.53346 1.13533 0
M  V30 2629 C 241.172 -2.47436 2.40561 0
M  V30 2630 C 240.285 -2.28184 3.66819 0
M  V30 2631 C 239.42 -3.53641 3.96373 0
M  V30 2632 C 238.459 -3.29528 5.15827 0
M  V30 2633 N 237.596 -4.47175 5.41275 0
M  V30 2634 H 242.436 -0.779008 2.87638 0
M  V30 2635 H 239.973 -0.373166 1.42288 0
M  V30 2636 H 241.931 -3.24584 2.62109 0
M  V30 2637 H 240.561 -2.82614 1.55978 0
M  V30 2638 H 239.613 -1.41976 3.52912 0
M  V30 2639 H 240.925 -2.0634 4.5412 0
M  V30 2640 H 240.079 -4.39209 4.18545 0
M  V30 2641 H 238.818 -3.78512 3.07538 0
M  V30 2642 H 237.823 -2.42349 4.93505 0
M  V30 2643 H 239.048 -3.06031 6.06236 0
M  V30 2644 H 236.994 -4.72175 4.55397 0
M  V30 2645 H 236.911 -4.28419 6.22891 0
M  V30 2646 H 238.179 -5.3389 5.67963 0
M  V30 2647 N 242.408 -1.52605 -0.393616 0
M  V30 2648 C 243.338 -1.80022 -1.48709 0
M  V30 2649 C 244.319 -0.651995 -1.57108 0
M  V30 2650 O 245.504 -0.89913 -1.72132 0
M  V30 2651 C 242.634 -1.96492 -2.86371 0
M  V30 2652 C 241.588 -3.12161 -2.92813 0
M  V30 2653 C 240.914 -3.13877 -4.3288 0
M  V30 2654 C 242.214 -4.51322 -2.6288 0
M  V30 2655 H 243.908 -2.71589 -1.26015 0
M  V30 2656 H 241.454 -1.30684 -0.604778 0
M  V30 2657 H 243.407 -2.14255 -3.62867 0
M  V30 2658 H 242.131 -1.01611 -3.10391 0
M  V30 2659 H 240.79 -2.94173 -2.18764 0
M  V30 2660 H 240.438 -2.16687 -4.53933 0
M  V30 2661 H 240.138 -3.91576 -4.38112 0
M  V30 2662 H 241.662 -3.33789 -5.1129 0
M  V30 2663 H 243.076 -4.69435 -3.29096 0
M  V30 2664 H 241.473 -5.31053 -2.79468 0
M  V30 2665 H 242.543 -4.58353 -1.58242 0
M  V30 2666 N 243.887 0.651787 -1.4349 0
M  V30 2667 C 244.817 1.77621 -1.51569 0
M  V30 2668 C 245.798 1.66022 -0.370253 0
M  V30 2669 O 246.983 1.85095 -0.587658 0
M  V30 2670 C 244.113 3.16056 -1.43966 0
M  V30 2671 C 243.067 3.4242 -2.56774 0
M  V30 2672 C 242.393 4.8067 -2.34223 0
M  V30 2673 C 243.693 3.37023 -3.99015 0
M  V30 2674 H 245.387 1.71117 -2.45681 0
M  V30 2675 H 242.933 0.821825 -1.18246 0
M  V30 2676 H 244.886 3.94472 -1.48221 0
M  V30 2677 H 243.61 3.23293 -0.463586 0
M  V30 2678 H 242.269 2.66375 -2.51873 0
M  V30 2679 H 241.917 4.84585 -1.34856 0
M  V30 2680 H 241.617 4.9927 -3.09844 0
M  V30 2681 H 243.141 5.61342 -2.40265 0
M  V30 2682 H 244.555 4.05374 -4.05395 0
M  V30 2683 H 242.952 3.67159 -4.74673 0
M  V30 2684 H 244.022 2.3518 -4.2405 0
M  V30 2685 N 245.365 1.30045 0.890287 0
M  V30 2686 C 246.781 1.08261 1.17268 0
M  V30 2687 C 246.981 -0.160063 2.00863 0
M  V30 2688 O 246.037 -0.855181 2.37577 0
M  V30 2689 C 247.35 2.34323 1.8845 0
M  V30 2690 C 248.898 2.39735 2.01237 0
M  V30 2691 C 249.373 3.65625 2.7583 0
M  V30 2692 N 250.864 3.66402 2.83379 0
M  V30 2693 C 251.599 4.60498 3.41657 0
M  V30 2694 N 251.095 5.64933 4.01026 0
M  V30 2695 N 252.888 4.48051 3.39421 0
M  V30 2696 H 245.039 2.09777 0.332762 0
M  V30 2697 H 247.302 0.92446 0.209948 0
M  V30 2698 H 247.008 3.2498 1.34465 0
M  V30 2699 H 246.882 2.4256 2.88867 0
M  V30 2700 H 249.269 1.4956 2.54393 0
M  V30 2701 H 249.35 2.35476 0.999232 0
M  V30 2702 H 248.994 4.56156 2.23347 0
M  V30 2703 H 248.924 3.67144 3.77509 0
M  V30 2704 H 251.415 2.90896 2.41222 0
M  V30 2705 H 251.728 6.32841 4.43545 0
M  V30 2706 H 250.073 5.68732 3.99461 0
M  V30 2707 H 253.264 3.65649 2.92264 0
M  V30 2708 H 253.437 5.21565 3.84544 0
M  V30 2709 N 246.843 -1.10192 1.12674 0
M  V30 2710 C 247.79 -2.16606 0.796906 0
M  V30 2711 C 248.76 -1.64394 -0.237476 0
M  V30 2712 O 249.945 -1.90474 -0.111484 0
M  V30 2713 C 247.085 -3.44116 0.26043 0
M  V30 2714 C 246.198 -4.10268 1.35293 0
M  V30 2715 C 245.333 -5.25507 0.775621 0
M  V30 2716 C 244.372 -5.83567 1.84706 0
M  V30 2717 N 243.509 -6.90179 1.28829 0
M  V30 2718 H 248.349 -2.44163 1.70846 0
M  V30 2719 H 245.886 -1.19846 0.85295 0
M  V30 2720 H 247.844 -4.17143 -0.0686814 0
M  V30 2721 H 246.474 -3.16901 -0.614274 0
M  V30 2722 H 245.526 -3.35184 1.79877 0
M  V30 2723 H 246.838 -4.4946 2.16303 0
M  V30 2724 H 245.992 -6.05398 0.397327 0
M  V30 2725 H 244.731 -4.87656 -0.0656581 0
M  V30 2726 H 243.736 -5.02344 2.23452 0
M  V30 2727 H 244.961 -6.23482 2.69161 0
M  V30 2728 H 242.907 -6.54322 0.468881 0
M  V30 2729 H 242.824 -7.28097 2.03497 0
M  V30 2730 H 244.092 -7.73844 0.937311 0
M  V30 2731 N 248.321 -0.919034 -1.28029 0
M  V30 2732 C 249.251 -0.428581 -2.29533 0
M  V30 2733 C 250.232 0.50659 -1.62381 0
M  V30 2734 O 251.417 0.413195 -1.89753 0
M  V30 2735 C 248.547 0.327388 -3.45753 0
M  V30 2736 C 247.501 -0.519137 -4.2484 0
M  V30 2737 C 246.827 0.365486 -5.33449 0
M  V30 2738 C 248.127 -1.77914 -4.91064 0
M  V30 2739 H 249.821 -1.27687 -2.70807 0
M  V30 2740 H 247.367 -0.615428 -1.30186 0
M  V30 2741 H 249.32 0.681378 -4.15855 0
M  V30 2742 H 248.044 1.20963 -3.03374 0
M  V30 2743 H 246.703 -0.855717 -3.56473 0
M  V30 2744 H 246.351 1.24642 -4.87312 0
M  V30 2745 H 246.051 -0.197356 -5.87268 0
M  V30 2746 H 247.575 0.715241 -6.06396 0
M  V30 2747 H 248.989 -1.49374 -5.53498 0
M  V30 2748 H 247.386 -2.2848 -5.54903 0
M  V30 2749 H 248.456 -2.50382 -4.15255 0
M  V30 2750 N 249.799 1.42003 -0.683588 0
M  V30 2751 C 250.709 2.34597 -0.0109075 0
M  V30 2752 C 251.725 1.55576 0.779245 0
M  V30 2753 O 252.901 1.88107 0.719555 0
M  V30 2754 C 249.966 3.34199 0.922588 0
M  V30 2755 C 249.027 4.29115 0.125984 0
M  V30 2756 C 248.26 5.23959 1.01502 0
M  V30 2757 O 248.483 5.23952 2.25456 0
M  V30 2758 O 247.417 6.00053 0.47111 0
M  V30 2759 H 251.243 2.93675 -0.773853 0
M  V30 2760 H 248.828 1.42654 -0.443861 0
M  V30 2761 H 250.71 3.95365 1.45823 0
M  V30 2762 H 249.385 2.77582 1.66523 0
M  V30 2763 H 248.292 3.71335 -0.453969 0
M  V30 2764 H 249.625 4.88798 -0.577736 0
M  V30 2765 N 251.277 0.427512 1.51691 0
M  V30 2766 C 252.187 -0.39527 2.31246 0
M  V30 2767 C 253.203 -1.03674 1.39742 0
M  V30 2768 O 254.379 -1.03425 1.72816 0
M  V30 2769 C 251.444 -1.48706 3.13189 0
M  V30 2770 C 250.505 -0.866743 4.20459 0
M  V30 2771 C 249.738 -1.90651 4.98486 0
M  V30 2772 O 249.961 -3.12733 4.77026 0
M  V30 2773 O 248.895 -1.5025 5.82845 0
M  V30 2774 H 252.721 0.253918 3.02637 0
M  V30 2775 H 250.306 0.190274 1.48183 0
M  V30 2776 H 252.188 -2.12047 3.64162 0
M  V30 2777 H 250.863 -2.12051 2.44573 0
M  V30 2778 H 249.77 -0.195544 3.73589 0
M  V30 2779 H 251.103 -0.276934 4.9142 0
M  V30 2780 N 252.755 -1.56801 0.158532 0
M  V30 2781 C 253.685 -2.20347 -0.772609 0
M  V30 2782 C 254.666 -1.15518 -1.24859 0
M  V30 2783 O 255.851 -1.43902 -1.30406 0
M  V30 2784 C 252.981 -2.83417 -2.00729 0
M  V30 2785 C 251.935 -3.94174 -1.66765 0
M  V30 2786 C 251.261 -4.44233 -2.97592 0
M  V30 2787 C 252.561 -5.14392 -0.905447 0
M  V30 2788 H 254.255 -2.98413 -0.242959 0
M  V30 2789 H 251.801 -1.43537 -0.115419 0
M  V30 2790 H 253.754 -3.26543 -2.6636 0
M  V30 2791 H 252.478 -2.02701 -2.56086 0
M  V30 2792 H 251.137 -3.51684 -1.03508 0
M  V30 2793 H 250.785 -3.60325 -3.50963 0
M  V30 2794 H 250.485 -5.18945 -2.75626 0
M  V30 2795 H 252.009 -4.90037 -3.64274 0
M  V30 2796 H 253.423 -5.5429 -1.46408 0
M  V30 2797 H 251.82 -5.9494 -0.7853 0
M  V30 2798 H 252.89 -4.84795 0.100668 0
M  V30 2799 N 254.233 0.115231 -1.57178 0
M  V30 2800 C 255.143 1.15994 -2.03918 0
M  V30 2801 C 256.159 1.45103 -0.960268 0
M  V30 2802 O 257.335 1.56144 -1.27204 0
M  V30 2803 C 254.4 2.46568 -2.43732 0
M  V30 2804 C 253.461 2.24822 -3.65723 0
M  V30 2805 C 252.694 3.4917 -4.03629 0
M  V30 2806 O 252.917 4.56623 -3.41835 0
M  V30 2807 O 251.851 3.39949 -4.96708 0
M  V30 2808 H 255.677 0.793019 -2.93164 0
M  V30 2809 H 253.262 0.3263 -1.45793 0
M  V30 2810 H 255.144 3.23492 -2.70057 0
M  V30 2811 H 253.819 2.82726 -1.57631 0
M  V30 2812 H 252.726 1.45744 -3.44542 0
M  V30 2813 H 254.059 1.93566 -4.52541 0
M  V30 2814 N 255.711 1.52812 0.385517 0
M  V30 2815 C 256.621 1.80766 1.49535 0
M  V30 2816 C 257.637 0.694651 1.59532 0
M  V30 2817 O 258.813 0.982611 1.75803 0
M  V30 2818 C 255.878 1.97381 2.85029 0
M  V30 2819 C 254.939 3.21295 2.84724 0
M  V30 2820 C 254.172 3.37108 4.13756 0
M  V30 2821 O 254.395 2.5765 5.08893 0
M  V30 2822 O 253.329 4.30378 4.20783 0
M  V30 2823 H 257.155 2.75015 1.28842 0
M  V30 2824 H 254.74 1.37946 0.573697 0
M  V30 2825 H 256.622 2.09996 3.65349 0
M  V30 2826 H 255.297 1.06322 3.05741 0
M  V30 2827 H 254.204 3.1412 2.03174 0
M  V30 2828 H 255.537 4.12212 2.68965 0
M  V30 2829 N 257.189 -0.644168 1.43834 0
M  V30 2830 C 258.119 -1.76814 1.52509 0
M  V30 2831 C 259.1 -1.65823 0.379052 0
M  V30 2832 O 260.285 -1.84781 0.597466 0
M  V30 2833 C 257.415 -3.15288 1.4564 0
M  V30 2834 C 256.369 -3.41053 2.58586 0
M  V30 2835 C 255.695 -4.79421 2.36769 0
M  V30 2836 C 256.995 -3.34902 4.00797 0
M  V30 2837 H 258.689 -1.69812 2.46586 0
M  V30 2838 H 256.235 -0.815542 1.1868 0
M  V30 2839 H 258.188 -3.93681 1.50311 0
M  V30 2840 H 256.912 -3.23043 0.480725 0
M  V30 2841 H 255.571 -2.65035 2.53282 0
M  V30 2842 H 255.219 -4.83863 1.37424 0
M  V30 2843 H 254.919 -4.9762 3.12487 0
M  V30 2844 H 256.443 -5.6006 2.43238 0
M  V30 2845 H 257.857 -4.03218 4.07539 0
M  V30 2846 H 256.254 -3.64637 4.76613 0
M  V30 2847 H 257.324 -2.32928 4.25291 0
M  V30 2848 N 258.668 -1.30515 -0.883378 0
M  V30 2849 C 259.631 -1.1701 -1.97082 0
M  V30 2850 C 260.631 -0.10089 -1.60483 0
M  V30 2851 O 261.821 -0.349127 -1.70666 0
M  V30 2852 C 258.953 -0.793045 -3.31547 0
M  V30 2853 H 260.146 -2.13622 -2.10489 0
M  V30 2854 H 257.699 -1.13935 -1.06998 0
M  V30 2855 H 258.434 0.172499 -3.23841 0
M  V30 2856 H 258.219 -1.56576 -3.5948 0
M  V30 2857 H 259.709 -0.722073 -4.1131 0
M  V30 2858 N 260.146 1.09593 -1.13257 0
M  V30 2859 C 261.093 2.1618 -0.808381 0
M  V30 2860 C 262.063 1.64517 0.228754 0
M  V30 2861 O 263.248 1.9053 0.101381 0
M  V30 2862 C 260.388 3.43973 -0.278675 0
M  V30 2863 C 259.501 4.09545 -1.37466 0
M  V30 2864 C 258.636 5.25088 -0.803479 0
M  V30 2865 C 257.675 5.82579 -1.87799 0
M  V30 2866 N 256.812 6.89486 -1.32488 0
M  V30 2867 H 261.652 2.43254 -1.72138 0
M  V30 2868 H 259.189 1.19392 -0.859294 0
M  V30 2869 H 261.147 4.17174 0.0465583 0
M  V30 2870 H 259.777 3.17223 0.597459 0
M  V30 2871 H 258.829 3.34226 -1.81652 0
M  V30 2872 H 260.141 4.48307 -2.18684 0
M  V30 2873 H 259.295 6.05178 -0.429427 0
M  V30 2874 H 258.034 4.87684 0.0397956 0
M  V30 2875 H 257.039 5.01152 -2.26113 0
M  V30 2876 H 258.264 6.22045 -2.72463 0
M  V30 2877 H 256.21 6.54064 -0.503575 0
M  V30 2878 H 256.127 7.27007 -2.07355 0
M  V30 2879 H 257.395 7.73336 -0.978336 0
M  V30 2880 N 261.624 0.925811 1.2754 0
M  V30 2881 C 262.554 0.440748 2.29303 0
M  V30 2882 C 263.535 -0.497971 1.62648 0
M  V30 2883 O 264.72 -0.403126 1.8997 0
M  V30 2884 C 261.85 -0.309048 3.45922 0
M  V30 2885 C 260.804 0.54166 4.24559 0
M  V30 2886 C 260.13 -0.337191 5.33636 0
M  V30 2887 C 261.43 1.80516 4.90114 0
M  V30 2888 H 263.124 1.29121 2.70126 0
M  V30 2889 H 260.67 0.622323 1.29858 0
M  V30 2890 H 262.623 -0.659315 4.1621 0
M  V30 2891 H 261.347 -1.19352 3.04011 0
M  V30 2892 H 260.006 0.874609 3.56014 0
M  V30 2893 H 259.654 -1.22056 4.87966 0
M  V30 2894 H 259.354 0.228497 5.87156 0
M  V30 2895 H 260.878 -0.683072 6.06767 0
M  V30 2896 H 262.292 1.52307 5.52698 0
M  V30 2897 H 260.689 2.3142 5.53683 0
M  V30 2898 H 261.759 2.52581 4.13921 0
M  V30 2899 N 263.102 -1.41638 0.69111 0
M  V30 2900 C 264.052 -2.28 -0.000107832 0
M  V30 2901 C 265.036 -1.41964 -0.757304 0
M  V30 2902 O 266.228 -1.65274 -0.633532 0
M  V30 2903 C 263.357 -3.30209 -0.938983 0
M  V30 2904 C 262.443 -4.23725 -0.17827 0
M  V30 2905 N 262.834 -4.99017 0.825563 0
M  V30 2906 C 261.132 -4.44071 -0.414392 0
M  V30 2907 C 261.833 -5.67431 1.28052 0
M  V30 2908 N 260.809 -5.40197 0.607304 0
M  V30 2909 H 264.611 -2.83644 0.769617 0
M  V30 2910 H 262.125 -1.53797 0.521562 0
M  V30 2911 H 264.122 -3.90898 -1.44929 0
M  V30 2912 H 262.782 -2.76126 -1.70836 0
M  V30 2913 H 263.793 -5.03671 1.20566 0
M  V30 2914 H 260.47 -4.01004 -1.162 0
M  V30 2915 H 261.86 -6.37801 2.11327 0
M  V30 2916 N 264.58 -0.43555 -1.51462 0
M  V30 2917 C 265.996 -0.0877501 -1.59359 0
M  V30 2918 C 266.196 1.4027 -1.4466 0
M  V30 2919 O 265.252 2.17243 -1.28693 0
M  V30 2920 C 266.565 -0.606264 -2.94525 0
M  V30 2921 C 268.113 -0.566548 -3.0783 0
M  V30 2922 C 268.588 -1.06201 -4.45517 0
M  V30 2923 N 270.079 -1.01992 -4.51832 0
M  V30 2924 C 270.814 -1.37417 -5.5669 0
M  V30 2925 N 270.31 -1.80119 -6.68976 0
M  V30 2926 N 272.103 -1.29245 -5.47039 0
M  V30 2927 H 264.254 -1.40533 -1.59261 0
M  V30 2928 H 266.517 -0.578992 -0.750648 0
M  V30 2929 H 266.223 -1.64901 -3.10645 0
M  V30 2930 H 266.097 -0.0302097 -3.77188 0
M  V30 2931 H 268.484 0.467208 -2.91378 0
M  V30 2932 H 268.565 -1.17898 -2.2701 0
M  V30 2933 H 268.209 -2.09422 -4.62715 0
M  V30 2934 H 268.139 -0.426127 -5.24873 0
M  V30 2935 H 270.63 -0.706308 -3.71241 0
M  V30 2936 H 270.943 -2.05392 -7.45006 0
M  V30 2937 H 269.288 -1.84044 -6.70189 0
M  V30 2938 H 272.479 -0.957522 -4.58202 0
M  V30 2939 H 272.652 -1.57182 -6.28648 0
M  V30 2940 N 266.058 1.56714 -0.166846 0
M  V30 2941 C 266.968 2.21331 0.777791 0
M  V30 2942 C 267.984 1.20358 1.25658 0
M  V30 2943 O 269.16 1.53005 1.30964 0
M  V30 2944 C 266.225 2.83787 1.99163 0
M  V30 2945 C 265.286 3.99947 1.56016 0
M  V30 2946 C 264.519 4.59415 2.71613 0
M  V30 2947 O 264.742 4.17769 3.88362 0
M  V30 2948 O 263.676 5.49359 2.45945 0
M  V30 2949 H 267.502 3.02605 0.257636 0
M  V30 2950 H 265.087 1.49275 0.0611393 0
M  V30 2951 H 266.969 3.23405 2.70161 0
M  V30 2952 H 265.644 2.05513 2.50092 0
M  V30 2953 H 264.551 3.65007 0.819809 0
M  V30 2954 H 265.884 4.79801 1.09782 0
M  V30 2955 N 267.536 -0.106894 1.57237 0
M  V30 2956 C 268.813 -0.843526 1.76477 0
M  V30 2957 C 269.193 -1.97499 0.745464 0
M  V30 2958 O 268.541 -2.27357 -0.228306 0
M  V30 2959 C 268.751 -1.34903 3.21873 0
M  V30 2960 C 270.099 -1.79654 3.8472 0
M  V30 2961 O 271.123 -1.44554 3.2555 0
M  V30 2962 O 269.982 -2.44515 4.88748 0
M  V30 2963 H 267.076 -0.401468 0.723016 0
M  V30 2964 H 269.622 -0.0896927 1.69463 0
M  V30 2965 H 268.394 -0.53781 3.87586 0
M  V30 2966 H 268.017 -2.16522 3.33473 0
M  V30 2967 N 269.014 -1.53014 -0.377408 0
M  V30 2968 C 270.26 -1.68872 -1.12294 0
M  V30 2969 C 270.593 -0.433224 -1.89306 0
M  V30 2970 O 269.868 0.569258 -1.85983 0
M  V30 2971 C 270.151 -2.93115 -2.09179 0
M  V30 2972 C 270.004 -4.28794 -1.35853 0
M  V30 2973 C 271.323 -3.12928 -3.09458 0
M  V30 2974 H 268.442 -0.614518 -0.406862 0
M  V30 2975 H 271.084 -1.85633 -0.40503 0
M  V30 2976 H 269.234 -2.78956 -2.70399 0
M  V30 2977 H 270.906 -4.54742 -0.775082 0
M  V30 2978 H 269.149 -4.28744 -0.660364 0
M  V30 2979 H 269.82 -5.11837 -2.06706 0
M  V30 2980 H 272.296 -3.26194 -2.58334 0
M  V30 2981 H 271.172 -4.01316 -3.74482 0
M  V30 2982 H 271.433 -2.27669 -3.78971 0
M  V30 2983 N 270.492 0.636531 -1.44174 0
M  V30 2984 C 271.422 1.76003 -1.53444 0
M  V30 2985 C 272.403 1.65619 -0.387841 0
M  V30 2986 O 273.588 1.84461 -0.607257 0
M  V30 2987 C 270.718 3.14511 -1.4731 0
M  V30 2988 C 269.672 3.39677 -2.60391 0
M  V30 2989 C 268.998 4.78159 -2.39308 0
M  V30 2990 C 270.298 3.32772 -4.02567 0
M  V30 2991 H 271.992 1.68501 -2.47483 0
M  V30 2992 H 269.538 0.809237 -1.19111 0
M  V30 2993 H 271.491 3.92878 -1.52397 0
M  V30 2994 H 270.215 3.22783 -0.49785 0
M  V30 2995 H 268.874 2.63688 -2.54684 0
M  V30 2996 H 268.522 4.83128 -1.39988 0
M  V30 2997 H 268.222 4.95956 -3.15122 0
M  V30 2998 H 269.746 5.58762 -2.46205 0
M  V30 2999 H 271.16 4.01051 -4.09672 0
M  V30 3000 H 269.557 3.62104 -4.7854 0
M  V30 3001 H 270.627 2.30669 -4.2652 0
M  V30 3002 N 271.97 1.30982 0.876444 0
M  V30 3003 C 273.386 1.09498 1.16113 0
M  V30 3004 C 273.586 -0.13875 2.01022 0
M  V30 3005 O 272.642 -0.829935 2.38471 0
M  V30 3006 C 273.955 2.36308 1.85954 0
M  V30 3007 C 275.503 2.41856 1.98683 0
M  V30 3008 C 275.978 3.6853 2.71937 0
M  V30 3009 N 277.469 3.69387 2.79477 0
M  V30 3010 C 278.204 4.64096 3.36753 0
M  V30 3011 N 277.7 5.69155 3.95012 0
M  V30 3012 N 279.493 4.51626 3.3465 0
M  V30 3013 H 271.644 2.10118 0.310494 0
M  V30 3014 H 273.907 0.926634 0.200131 0
M  V30 3015 H 273.613 3.26388 1.31011 0
M  V30 3016 H 273.487 2.4561 2.86278 0
M  V30 3017 H 275.874 1.52249 2.52793 0
M  V30 3018 H 275.955 2.36523 0.9742 0
M  V30 3019 H 275.599 4.58499 2.18496 0
M  V30 3020 H 275.529 3.71127 3.73593 0
M  V30 3021 H 278.02 2.93438 2.38123 0
M  V30 3022 H 278.333 6.3751 4.36808 0
M  V30 3023 H 276.678 5.72937 3.93406 0
M  V30 3024 H 279.869 3.68728 2.8837 0
M  V30 3025 H 280.042 5.25614 3.7899 0
M  V30 3026 N 273.449 -1.08991 1.13837 0
M  V30 3027 C 274.381 -2.15606 0.777612 0
M  V30 3028 C 275.394 -1.61533 -0.202739 0
M  V30 3029 O 276.583 -1.78491 0.0181055 0
M  V30 3030 C 273.683 -3.3864 0.132623 0
M  V30 3031 C 272.856 -4.22115 1.1462 0
M  V30 3032 C 271.915 -5.23564 0.526074 0
M  V30 3033 O 270.941 -5.56678 1.18735 0
M  V30 3034 N 272.143 -5.76266 -0.699866 0
M  V30 3035 H 274.908 -2.47159 1.69506 0
M  V30 3036 H 272.469 -1.24747 1.03198 0
M  V30 3037 H 274.461 -4.03626 -0.29459 0
M  V30 3038 H 273.031 -3.04938 -0.687849 0
M  V30 3039 H 272.251 -3.53199 1.75055 0
M  V30 3040 H 273.539 -4.74709 1.83109 0
M  V30 3041 H 272.937 -5.51585 -1.25581 0
M  V30 3042 H 271.494 -6.42963 -1.06968 0
M  V30 3043 N 274.927 -0.932562 -1.27047 0
M  V30 3044 C 275.859 -0.392734 -2.2581 0
M  V30 3045 C 276.872 0.479241 -1.55586 0
M  V30 3046 O 278.061 0.291078 -1.76111 0
M  V30 3047 C 275.161 0.455456 -3.35826 0
M  V30 3048 C 274.334 -0.398355 -4.35582 0
M  V30 3049 C 273.393 0.387985 -5.24768 0
M  V30 3050 O 272.419 -0.206003 -5.68827 0
M  V30 3051 N 273.621 1.68664 -5.55457 0
M  V30 3052 H 276.386 -1.24173 -2.72766 0
M  V30 3053 H 273.947 -0.800511 -1.40725 0
M  V30 3054 H 275.939 0.988692 -3.92437 0
M  V30 3055 H 274.509 1.20522 -2.88432 0
M  V30 3056 H 273.729 -1.11286 -3.78165 0
M  V30 3057 H 275.017 -0.981889 -4.99236 0
M  V30 3058 H 274.415 2.19147 -5.21528 0
M  V30 3059 H 272.972 2.1663 -6.14748 0
M  V30 3060 N 276.405 1.4127 -0.698611 0
M  V30 3061 C 277.821 1.55241 -0.370462 0
M  V30 3062 C 278.021 1.67351 1.12231 0
M  V30 3063 O 277.077 1.65363 1.90818 0
M  V30 3064 C 278.39 2.78997 -1.12165 0
M  V30 3065 C 279.938 2.92797 -1.1063 0
M  V30 3066 C 280.413 4.19445 -1.8393 0
M  V30 3067 N 281.904 4.26409 -1.80914 0
M  V30 3068 C 282.639 5.23271 -2.34467 0
M  V30 3069 N 282.135 6.26145 -2.96504 0
M  V30 3070 N 283.928 5.15232 -2.24706 0
M  V30 3071 H 276.079 1.31654 -1.66676 0
M  V30 3072 H 278.342 0.635393 -0.703548 0
M  V30 3073 H 278.048 2.76268 -2.17644 0
M  V30 3074 H 277.922 3.70606 -0.702209 0
M  V30 3075 H 280.309 2.95039 -0.0597713 0
M  V30 3076 H 280.39 2.02353 -1.56483 0
M  V30 3077 H 280.034 4.17964 -2.88563 0
M  V30 3078 H 279.964 5.08866 -1.35509 0
M  V30 3079 H 282.455 3.527 -1.35687 0
M  V30 3080 H 282.768 6.96451 -3.34927 0
M  V30 3081 H 281.113 6.26638 -3.00583 0
M  V30 3082 H 284.304 4.33789 -1.7591 0
M  V30 3083 H 284.477 5.90552 -2.66745 0
M  V30 3084 N 277.883 0.443576 1.51229 0
M  V30 3085 C 278.793 -0.370721 2.31652 0
M  V30 3086 C 279.809 -1.02186 1.40833 0
M  V30 3087 O 280.985 -1.01586 1.73903 0
M  V30 3088 C 278.05 -1.45376 3.14749 0
M  V30 3089 C 277.111 -0.822099 4.21355 0
M  V30 3090 C 276.344 -1.85353 5.0048 0
M  V30 3091 O 276.567 -3.07656 4.80316 0
M  V30 3092 O 275.501 -1.4406 5.84406 0
M  V30 3093 H 279.327 0.286002 3.0235 0
M  V30 3094 H 276.912 0.20598 1.47973 0
M  V30 3095 H 278.794 -2.08173 3.66391 0
M  V30 3096 H 277.469 -2.09445 2.46809 0
M  V30 3097 H 276.376 -0.155909 3.73775 0
M  V30 3098 H 277.709 -0.224797 4.91686 0
M  V30 3099 N 279.361 -1.56624 0.175154 0
M  V30 3100 C 280.589 -2.01374 -0.474971 0
M  V30 3101 C 281.004 -1.05537 -1.56548 0
M  V30 3102 O 280.361 -0.0568668 -1.82411 0
M  V30 3103 C 280.412 -3.45923 -1.04975 0
M  V30 3104 O 280.133 -4.381 -0.00276605 0
M  V30 3105 C 281.634 -4.06093 -1.77773 0
M  V30 3106 H 278.854 -0.659962 -0.121206 0
M  V30 3107 H 281.398 -2.02601 0.27801 0
M  V30 3108 H 279.553 -3.45458 -1.75321 0
M  V30 3109 H 279.967 -5.22753 -0.427681 0
M  V30 3110 H 281.441 -5.09147 -2.13245 0
M  V30 3111 H 281.918 -3.48405 -2.67414 0
M  V30 3112 H 282.524 -4.10272 -1.12059 0
M  V30 3113 N 280.839 0.0985539 -1.57292 0
M  V30 3114 C 282.255 0.45267 -1.53046 0
M  V30 3115 C 282.455 1.80713 -0.891342 0
M  V30 3116 O 281.511 2.4785 -0.482375 0
M  V30 3117 C 282.824 0.418341 -2.97776 0
M  V30 3118 C 284.372 0.500443 -3.08973 0
M  V30 3119 C 284.847 0.496297 -4.55303 0
M  V30 3120 N 286.338 0.557151 -4.59837 0
M  V30 3121 C 287.073 0.575726 -5.70502 0
M  V30 3122 N 286.569 0.550714 -6.90608 0
M  V30 3123 N 288.362 0.620277 -5.58667 0
M  V30 3124 H 280.513 -0.788673 -1.97215 0
M  V30 3125 H 282.776 -0.293188 -0.901524 0
M  V30 3126 H 282.482 -0.509659 -3.47988 0
M  V30 3127 H 282.356 1.2386 -3.56284 0
M  V30 3128 H 284.743 1.41886 -2.58751 0
M  V30 3129 H 284.824 -0.347894 -2.53423 0
M  V30 3130 H 284.468 -0.418162 -5.06176 0
M  V30 3131 H 284.398 1.3618 -5.08687 0
M  V30 3132 H 286.889 0.581816 -3.73394 0
M  V30 3133 H 287.202 0.568075 -7.70709 0
M  V30 3134 H 285.547 0.517816 -6.93068 0
M  V30 3135 H 288.738 0.637322 -4.63741 0
M  V30 3136 H 288.911 0.631283 -6.44918 0
M  V30 3137 N 282.317 1.53212 0.369288 0
M  V30 3138 C 283.733 1.42902 0.710712 0
M  V30 3139 C 283.933 0.565135 1.93413 0
M  V30 3140 O 282.989 0.0461484 2.52458 0
M  V30 3141 C 284.302 2.86042 0.927382 0
M  V30 3142 C 285.85 2.9565 1.02762 0
M  V30 3143 C 286.325 4.39843 1.27679 0
M  V30 3144 N 287.816 4.43256 1.34457 0
M  V30 3145 C 288.551 5.51929 1.55439 0
M  V30 3146 N 288.047 6.70655 1.73762 0
M  V30 3147 N 289.84 5.39502 1.57779 0
M  V30 3148 H 281.991 2.07888 -0.435457 0
M  V30 3149 H 284.254 0.938661 -0.132739 0
M  V30 3150 H 283.96 3.51557 0.100287 0
M  V30 3151 H 283.834 3.29472 1.83653 0
M  V30 3152 H 286.221 2.30291 1.84527 0
M  V30 3153 H 286.302 2.5562 0.0959504 0
M  V30 3154 H 285.946 5.05774 0.464175 0
M  V30 3155 H 285.876 4.77443 2.22162 0
M  V30 3156 H 288.367 3.5769 1.21926 0
M  V30 3157 H 288.68 7.49248 1.89335 0
M  V30 3158 H 287.025 6.73648 1.70948 0
M  V30 3159 H 290.216 4.45713 1.43029 0
M  V30 3160 H 290.389 6.2426 1.7379 0
M  V30 3161 N 283.795 -0.628877 1.44509 0
M  V30 3162 C 285.206 -1.21054 1.42137 0
M  V30 3163 C 285.557 -1.95715 0.137881 0
M  V30 3164 O 284.682 -2.02554 -0.761645 0
M  V30 3165 C 285.277 -2.20189 2.57493 0
M  V30 3166 C 283.836 -2.73777 2.58308 0
M  V30 3167 C 282.983 -1.48813 2.33987 0
M  V30 3168 H 285.934 -0.41942 1.53057 0
M  V30 3169 H 285.955 -3.02833 2.30375 0
M  V30 3170 H 285.467 -1.6582 3.50892 0
M  V30 3171 H 283.568 -3.32142 1.68856 0
M  V30 3172 H 283.681 -3.19662 3.56865 0
M  V30 3173 H 282.045 -1.77024 1.83124 0
M  V30 3174 H 282.828 -0.963442 3.29504 0
M  V30 3175 N 285.273 -1.31445 -0.869486 0
M  V30 3176 C 286.236 -1.19094 -1.9583 0
M  V30 3177 C 287.236 -0.117906 -1.60367 0
M  V30 3178 O 288.426 -0.367208 -1.70286 0
M  V30 3179 C 285.558 -0.828165 -3.30688 0
M  V30 3180 H 286.751 -2.15842 -2.08212 0
M  V30 3181 H 284.304 -1.15063 -1.05784 0
M  V30 3182 H 285.039 0.138142 -3.24006 0
M  V30 3183 H 284.824 -1.6038 -3.578 0
M  V30 3184 H 286.314 -0.765658 -4.10521 0
M  V30 3185 N 286.751 1.08385 -1.14413 0
M  V30 3186 C 287.976 1.85057 -0.936413 0
M  V30 3187 C 288.401 1.81055 0.509971 0
M  V30 3188 O 287.759 1.1958 1.36273 0
M  V30 3189 C 287.807 3.30505 -1.44217 0
M  V30 3190 O 286.911 4.07491 -0.634409 0
M  V30 3191 H 286.252 0.573425 -0.334784 0
M  V30 3192 H 288.782 1.36799 -1.52142 0
M  V30 3193 H 288.792 3.81348 -1.45043 0
M  V30 3194 H 287.467 3.32734 -2.49522 0
M  V30 3195 H 286.044 3.66368 -0.694902 0
M  V30 3196 N 288.23 0.939286 1.26551 0
M  V30 3197 C 289.18 0.418284 2.2413 0
M  V30 3198 C 290.164 -0.483935 1.5345 0
M  V30 3199 O 291.356 -0.319489 1.74093 0
M  V30 3200 C 288.485 -0.31709 3.41832 0
M  V30 3201 C 287.571 0.602311 4.19801 0
M  V30 3202 N 287.962 1.72726 4.75394 0
M  V30 3203 C 286.26 0.407534 4.44134 0
M  V30 3204 C 286.961 2.30004 5.34297 0
M  V30 3205 N 285.937 1.58828 5.1988 0
M  V30 3206 H 289.739 1.27705 2.64705 0
M  V30 3207 H 287.253 0.794929 1.41614 0
M  V30 3208 H 289.25 -0.707364 4.10855 0
M  V30 3209 H 287.91 -1.17264 3.02786 0
M  V30 3210 H 288.921 2.10944 4.72994 0
M  V30 3211 H 285.598 -0.406406 4.15517 0
M  V30 3212 H 286.988 3.24778 5.88191 0
M  V30 3213 N 289.708 -1.40897 0.706093 0
M  V30 3214 C 290.933 -2.05895 0.249435 0
M  V30 3215 C 291.358 -1.52823 -1.09666 0
M  V30 3216 O 290.716 -0.659589 -1.68876 0
M  V30 3217 C 290.764 -3.59872 0.22904 0
M  V30 3218 O 289.868 -4.04708 -0.792784 0
M  V30 3219 H 289.209 -0.653206 0.119241 0
M  V30 3220 H 291.739 -1.80471 0.96391 0
M  V30 3221 H 291.749 -4.07951 0.0634791 0
M  V30 3222 H 290.424 -3.97866 1.21141 0
M  V30 3223 H 289.001 -3.68111 -0.59572 0
M  V30 3224 N 291.186 -0.45159 -1.50991 0
M  V30 3225 C 292.411 0.110667 -2.07105 0
M  V30 3226 C 292.836 1.3446 -1.31538 0
M  V30 3227 O 292.194 1.77743 -0.357365 0
M  V30 3228 C 292.242 0.397238 -3.58405 0
M  V30 3229 O 291.346 1.48124 -3.84881 0
M  V30 3230 H 290.687 -0.00439271 -0.663985 0
M  V30 3231 H 293.217 -0.637026 -1.9443 0
M  V30 3232 H 293.227 0.64351 -4.02893 0
M  V30 3233 H 291.902 -0.504553 -4.12828 0
M  V30 3234 H 290.479 1.22381 -3.52246 0
M  V30 3235 N 292.664 1.56529 -0.183458 0
M  V30 3236 C 294.08 1.58664 0.172554 0
M  V30 3237 C 294.28 1.19925 1.61926 0
M  V30 3238 O 293.336 0.916534 2.35278 0
M  V30 3239 C 294.649 3.00463 -0.119262 0
M  V30 3240 C 296.197 3.12945 -0.0584396 0
M  V30 3241 C 296.672 4.56857 -0.323408 0
M  V30 3242 N 298.163 4.62403 -0.271612 0
M  V30 3243 C 298.898 5.71626 -0.450639 0
M  V30 3244 N 298.394 6.89362 -0.689384 0
M  V30 3245 N 300.187 5.60775 -0.385701 0
M  V30 3246 H 292.338 1.79994 -1.12765 0
M  V30 3247 H 294.601 0.834808 -0.449222 0
M  V30 3248 H 294.307 3.33326 -1.12192 0
M  V30 3249 H 294.181 3.72659 0.583544 0
M  V30 3250 H 296.568 2.79902 0.934805 0
M  V30 3251 H 296.649 2.4316 -0.794144 0
M  V30 3252 H 296.293 4.9061 -1.31392 0
M  V30 3253 H 296.223 5.24816 0.43305 0
M  V30 3254 H 298.714 3.77785 -0.0932256 0
M  V30 3255 H 299.027 7.68489 -0.815113 0
M  V30 3256 H 297.372 6.91196 -0.726142 0
M  V30 3257 H 300.563 4.67674 -0.199687 0
M  V30 3258 H 300.736 6.4584 -0.528646 0
M  V30 3259 N 294.142 -0.090211 1.57342 0
M  V30 3260 C 295.388 -0.788838 1.8748 0
M  V30 3261 C 295.743 -1.76105 0.7749 0
M  V30 3262 O 295.036 -1.90302 -0.222663 0
M  V30 3263 C 295.23 -1.55222 3.21933 0
M  V30 3264 C 295.059 -0.655441 4.44898 0
M  V30 3265 C 293.829 -0.299325 5.04413 0
M  V30 3266 C 296.027 0.0397458 5.14285 0
M  V30 3267 N 294.009 0.605108 6.10911 0
M  V30 3268 C 295.38 0.802061 6.1479 0
M  V30 3269 C 297.435 0.113154 4.97771 0
M  V30 3270 C 296.138 1.63093 7.00566 0
M  V30 3271 C 298.164 0.928942 5.84059 0
M  V30 3272 C 297.526 1.67936 6.84088 0
M  V30 3273 H 293.625 -0.26467 0.735849 0
M  V30 3274 H 296.209 -0.0511453 1.94633 0
M  V30 3275 H 294.38 -2.26076 3.15823 0
M  V30 3276 H 296.112 -2.19843 3.39781 0
M  V30 3277 H 292.867 -0.648079 4.69145 0
M  V30 3278 H 293.291 1.05002 6.68808 0
M  V30 3279 H 297.933 -0.452676 4.2037 0
M  V30 3280 H 295.651 2.20781 7.77355 0
M  V30 3281 H 299.237 0.988478 5.73341 0
M  V30 3282 H 298.117 2.30044 7.49699 0
M  V30 3283 N 295.62 -1.53406 -0.361157 0
M  V30 3284 C 296.868 -1.69467 -1.10115 0
M  V30 3285 C 297.189 -0.451352 -1.89705 0
M  V30 3286 O 296.459 0.534636 -1.88463 0
M  V30 3287 H 295.039 -0.624749 -0.409508 0
M  V30 3288 H 297.701 -1.90609 -0.406699 0
M  V30 3289 H 296.797 -2.55774 -1.78847 0
M  V30 3290 N 297.098 0.621204 -1.44841 0
M  V30 3291 C 298.028 1.74366 -1.55303 0
M  V30 3292 C 299.009 1.65199 -0.405385 0
M  V30 3293 O 300.194 1.83807 -0.626787 0
M  V30 3294 C 297.324 3.12931 -1.50637 0
M  V30 3295 C 296.278 3.36896 -2.63979 0
M  V30 3296 C 295.604 4.75594 -2.44366 0
M  V30 3297 C 296.904 3.28483 -4.06074 0
M  V30 3298 H 298.598 1.65867 -2.49256 0
M  V30 3299 H 296.144 0.796558 -1.19962 0
M  V30 3300 H 298.097 3.9124 -1.56555 0
M  V30 3301 H 296.821 3.22237 -0.532057 0
M  V30 3302 H 295.48 2.60972 -2.57467 0
M  V30 3303 H 295.128 4.81616 -1.45105 0
M  V30 3304 H 294.828 4.92586 -3.20364 0
M  V30 3305 H 296.352 5.5612 -2.52117 0
M  V30 3306 H 297.766 3.96684 -4.13902 0
M  V30 3307 H 296.163 3.57008 -4.82354 0
M  V30 3308 H 297.233 2.26133 -4.28943 0
M  V30 3309 N 298.576 1.31904 0.862503 0
M  V30 3310 C 299.816 1.23324 1.63004 0
M  V30 3311 C 300.18 -0.203724 1.90916 0
M  V30 3312 O 301.381 -0.413132 2.65606 0
M  V30 3313 C 299.652 2.06116 2.91978 0
M  V30 3314 S 301.211 2.14478 3.82812 0
M  V30 3315 H 298.029 0.439117 0.559193 0
M  V30 3316 H 300.631 1.66658 1.02202 0
M  V30 3317 H 299.335 3.09593 2.69407 0
M  V30 3318 H 298.866 1.6353 3.57801 0
M  V30 3319 H 300.881 1.28855 4.79177 0
M  V30 3320 N 300.054 -1.07777 1.14986 0
M  V30 3321 C 300.987 -2.14228 0.786243 0
M  V30 3322 C 301.965 -1.60888 -0.235347 0
M  V30 3323 O 303.149 -1.88099 -0.122909 0
M  V30 3324 C 300.276 -3.38281 0.168433 0
M  V30 3325 C 299.322 -4.10387 1.16123 0
M  V30 3326 S 300.155 -4.62371 2.70135 0
M  V30 3327 C 301.311 -5.89704 2.09762 0
M  V30 3328 H 301.544 -2.44741 1.68787 0
M  V30 3329 H 299.077 -1.19984 0.971756 0
M  V30 3330 H 301.035 -4.10098 -0.181588 0
M  V30 3331 H 299.696 -3.05953 -0.710725 0
M  V30 3332 H 298.889 -4.99431 0.677086 0
M  V30 3333 H 298.491 -3.44513 1.45556 0
M  V30 3334 H 300.783 -6.61648 1.45701 0
M  V30 3335 H 301.726 -6.42824 2.96955 0
M  V30 3336 H 302.134 -5.4302 1.54239 0
M  V30 3337 N 301.532 -0.945985 -1.26051 0
M  V30 3338 C 302.48 -0.450259 -2.282 0
M  V30 3339 C 303.474 0.47497 -1.62605 0
M  V30 3340 O 304.68 0.352653 -1.76512 0
M  V30 3341 H 301.055 -0.127081 -0.741184 0
M  V30 3342 H 303.026 -1.32422 -2.67408 0
M  V30 3343 C 301.775 0.26467 -3.46691 0
M  V30 3344 H 301.098 -0.438123 -3.97392 0
M  V30 3345 H 302.538 0.575678 -4.20074 0
M  V30 3346 C 300.997 1.48416 -3.02447 0
M  V30 3347 O 301.527 2.58227 -3.07704 0
M  V30 3348 N 299.733 1.34243 -2.57735 0
M  V30 3349 H 299.28 0.448994 -2.53657 0
M  V30 3350 H 299.238 2.15957 -2.28495 0
M  V30 3351 N 303.011 1.40521 -0.713556 0
M  V30 3352 C 304.427 1.54839 -0.386907 0
M  V30 3353 C 304.627 1.68532 1.1045 0
M  V30 3354 O 303.683 1.67377 1.89053 0
M  V30 3355 C 304.996 2.77792 -1.15118 0
M  V30 3356 C 306.544 2.91607 -1.13729 0
M  V30 3357 C 307.019 4.1747 -1.88368 0
M  V30 3358 N 308.51 4.24466 -1.85427 0
M  V30 3359 C 309.245 5.20755 -2.40004 0
M  V30 3360 N 308.741 6.22965 -3.03129 0
M  V30 3361 N 310.534 5.1282 -2.30158 0
M  V30 3362 H 302.685 1.29879 -1.68063 0
M  V30 3363 H 304.948 0.627896 -0.710247 0
M  V30 3364 H 304.654 2.73944 -2.20561 0
M  V30 3365 H 304.528 3.6984 -0.741477 0
M  V30 3366 H 306.915 2.94959 -0.0910608 0
M  V30 3367 H 306.996 2.00682 -1.5862 0
M  V30 3368 H 306.64 4.1488 -2.9298 0
M  V30 3369 H 306.57 5.074 -1.40898 0
M  V30 3370 H 309.061 3.51241 -1.3942 0
M  V30 3371 H 309.374 6.92859 -3.42295 0
M  V30 3372 H 307.719 6.23415 -3.07212 0
M  V30 3373 H 310.91 4.31899 -1.80501 0
M  V30 3374 H 311.083 5.87689 -2.72993 0
M  V30 3375 N 304.489 0.459591 1.5075 0
M  V30 3376 C 305.419 -0.330644 2.31147 0
M  V30 3377 C 306.4 -1.00087 1.37538 0
M  V30 3378 O 307.585 -1.00025 1.66459 0
M  V30 3379 C 304.715 -1.41958 3.16962 0
M  V30 3380 C 303.669 -0.871608 4.19031 0
M  V30 3381 C 302.995 -2.05797 4.9351 0
M  V30 3382 C 304.295 0.109251 5.22186 0
M  V30 3383 H 305.989 0.340336 2.97459 0
M  V30 3384 H 303.535 0.165119 1.4305 0
M  V30 3385 H 305.488 -1.9798 3.71997 0
M  V30 3386 H 304.212 -2.11917 2.48513 0
M  V30 3387 H 302.871 -0.333442 3.6508 0
M  V30 3388 H 302.519 -2.74427 4.21544 0
M  V30 3389 H 302.219 -1.6976 5.62544 0
M  V30 3390 H 303.743 -2.62331 5.51375 0
M  V30 3391 H 305.157 -0.361405 5.7216 0
M  V30 3392 H 303.554 0.383316 5.98875 0
M  V30 3393 H 304.624 1.03887 4.73641 0
M  V30 3394 N 305.967 -1.56429 0.191757 0
M  V30 3395 C 307.383 -1.58754 -0.164137 0
M  V30 3396 C 307.583 -1.20782 -1.61288 0
M  V30 3397 O 306.639 -0.928999 -2.34789 0
M  V30 3398 C 307.952 -3.00396 0.135195 0
M  V30 3399 C 309.5 -3.1291 0.0750351 0
M  V30 3400 C 309.975 -4.56679 0.347632 0
M  V30 3401 N 311.466 -4.62252 0.296131 0
M  V30 3402 C 312.201 -5.71379 0.480948 0
M  V30 3403 N 311.697 -6.88986 0.725933 0
M  V30 3404 N 313.49 -5.60563 0.415435 0
M  V30 3405 H 305.641 -1.79393 1.13718 0
M  V30 3406 H 307.904 -0.832414 0.453643 0
M  V30 3407 H 307.61 -3.32726 1.13958 0
M  V30 3408 H 307.484 -3.72963 -0.563773 0
M  V30 3409 H 309.871 -2.80394 -0.919948 0
M  V30 3410 H 309.952 -2.42736 0.807029 0
M  V30 3411 H 309.596 -4.89907 1.33992 0
M  V30 3412 H 309.526 -5.25039 -0.405212 0
M  V30 3413 H 312.017 -3.7773 0.113259 0
M  V30 3414 H 312.33 -7.68046 0.855857 0
M  V30 3415 H 310.675 -6.90801 0.762788 0
M  V30 3416 H 313.866 -4.67561 0.224486 0
M  V30 3417 H 314.039 -6.45551 0.562889 0
M  V30 3418 N 307.445 0.0818655 -1.57387 0
M  V30 3419 C 308.355 1.11642 -2.06333 0
M  V30 3420 C 309.371 1.43033 -0.99083 0
M  V30 3421 O 310.547 1.53411 -1.30488 0
M  V30 3422 C 307.612 2.41342 -2.48907 0
M  V30 3423 C 306.673 2.17014 -3.7041 0
M  V30 3424 C 305.906 3.4053 -4.10944 0
M  V30 3425 O 306.129 4.4927 -3.51444 0
M  V30 3426 O 305.063 3.29336 -5.03807 0
M  V30 3427 H 308.889 0.730657 -2.9478 0
M  V30 3428 H 306.474 0.295301 -1.46452 0
M  V30 3429 H 308.356 3.17691 -2.76858 0
M  V30 3430 H 307.031 2.79319 -1.63593 0
M  V30 3431 H 305.938 1.38403 -3.47556 0
M  V30 3432 H 307.271 1.83923 -4.56545 0
M  V30 3433 N 308.923 1.53595 0.353017 0
M  V30 3434 C 309.856 1.7572 1.45594 0
M  V30 3435 C 310.834 0.605961 1.50887 0
M  V30 3436 O 312.018 0.840023 1.68748 0
M  V30 3437 C 309.145 1.84732 2.83887 0
M  V30 3438 C 308.191 3.06808 2.96262 0
M  V30 3439 S 309.024 4.66065 2.63711 0
M  V30 3440 C 310.18 4.77943 4.04131 0
M  V30 3441 H 310.413 2.68994 1.26608 0
M  V30 3442 H 307.946 1.44343 0.548117 0
M  V30 3443 H 309.904 1.9061 3.63563 0
M  V30 3444 H 308.565 0.92488 3.00175 0
M  V30 3445 H 307.758 3.09761 3.97573 0
M  V30 3446 H 307.36 2.99108 2.24523 0
M  V30 3447 H 309.652 4.5877 4.98534 0
M  V30 3448 H 310.595 5.80022 4.06177 0
M  V30 3449 H 311.003 4.06472 3.91715 0
M  V30 3450 N 310.401 -0.613514 1.45168 0
M  V30 3451 C 311.647 -1.37471 1.49096 0
M  V30 3452 C 311.98 -1.93765 0.129901 0
M  V30 3453 O 311.255 -1.74707 -0.854858 0
M  V30 3454 C 311.538 -2.52701 2.56542 0
M  V30 3455 C 311.391 -2.01643 4.0207 0
M  V30 3456 C 312.71 -3.54849 2.60327 0
M  V30 3457 H 309.829 -0.498502 0.54283 0
M  V30 3458 H 312.471 -0.692125 1.76945 0
M  V30 3459 H 310.621 -3.10931 2.32926 0
M  V30 3460 H 312.293 -1.48108 4.36877 0
M  V30 3461 H 310.536 -1.32688 4.13009 0
M  V30 3462 H 311.207 -2.84681 4.72928 0
M  V30 3463 H 313.683 -3.0645 2.81474 0
M  V30 3464 H 312.559 -4.32973 3.37381 0
M  V30 3465 H 312.82 -4.10079 1.6519 0
M  V30 3466 N 311.879 -1.3236 -0.855495 0
M  V30 3467 C 312.789 -1.23221 -1.99634 0
M  V30 3468 C 313.805 -0.145983 -1.73387 0
M  V30 3469 O 314.981 -0.366502 -1.98037 0
M  V30 3470 C 312.046 -0.954782 -3.33294 0
M  V30 3471 C 311.107 -2.12937 -3.72769 0
M  V30 3472 C 310.34 -1.86508 -5.00051 0
M  V30 3473 O 310.563 -0.807231 -5.64659 0
M  V30 3474 O 309.497 -2.72591 -5.36636 0
M  V30 3475 H 313.323 -2.19126 -2.1028 0
M  V30 3476 H 310.908 -1.12241 -0.986018 0
M  V30 3477 H 312.79 -0.816519 -4.13414 0
M  V30 3478 H 311.465 -0.0258854 -3.2369 0
M  V30 3479 H 310.372 -2.3231 -2.93228 0
M  V30 3480 H 311.705 -3.04102 -3.87018 0
M  V30 3481 N 313.357 1.07166 -1.15556 0
M  V30 3482 C 314.305 2.16517 -0.8499 0
M  V30 3483 C 315.299 1.68468 0.177454 0
M  V30 3484 O 316.505 1.79971 0.0323026 0
M  V30 3485 H 312.88 0.706652 -0.25719 0
M  V30 3486 H 314.851 2.39514 -1.77976 0
M  V30 3487 C 313.6 3.45855 -0.357682 0
M  V30 3488 H 312.923 3.83214 -1.13961 0
M  V30 3489 H 314.363 4.23607 -0.182489 0
M  V30 3490 C 312.822 3.24062 0.921152 0
M  V30 3491 O 313.352 3.48813 1.9923 0
M  V30 3492 N 311.558 2.77539 0.86141 0
M  V30 3493 H 311.105 2.57598 -0.0104408 0
M  V30 3494 H 311.063 2.63337 1.71758 0
M  V30 3495 N 314.835 0.952656 1.25548 0
M  V30 3496 C 316.246 0.647392 1.75116 0
M  V30 3497 C 316.597 -0.837274 1.77438 0
M  V30 3498 O 315.722 -1.65525 1.39393 0
M  V30 3499 C 316.317 1.16845 3.18014 0
M  V30 3500 C 314.876 0.913382 3.6515 0
M  V30 3501 C 314.023 1.31265 2.44264 0
M  V30 3502 H 316.974 1.12968 1.11462 0
M  V30 3503 H 316.995 0.527606 3.76824 0
M  V30 3504 H 316.507 2.24902 3.16292 0
M  V30 3505 H 314.608 -0.152316 3.72289 0
M  V30 3506 H 314.721 1.54845 4.53387 0
M  V30 3507 H 313.085 0.731028 2.43984 0
M  V30 3508 H 313.868 2.40239 2.45234 0
M  V30 3509 N 316.313 -1.40141 0.720998 0
M  V30 3510 C 317.245 -2.29177 0.0324669 0
M  V30 3511 C 318.258 -1.46105 -0.718126 0
M  V30 3512 O 319.447 -1.69335 -0.564608 0
M  V30 3513 C 316.547 -3.24473 -0.978292 0
M  V30 3514 C 315.72 -4.36423 -0.292115 0
M  V30 3515 C 314.779 -5.12122 -1.20901 0
M  V30 3516 O 313.805 -5.64981 -0.691766 0
M  V30 3517 N 315.007 -5.21992 -2.53978 0
M  V30 3518 H 317.772 -2.88909 0.796984 0
M  V30 3519 H 315.333 -1.51569 0.569068 0
M  V30 3520 H 317.325 -3.71987 -1.59398 0
M  V30 3521 H 315.895 -2.65871 -1.64413 0
M  V30 3522 H 315.115 -3.90967 0.503847 0
M  V30 3523 H 316.403 -5.08467 0.183971 0
M  V30 3524 H 315.801 -4.8054 -2.98493 0
M  V30 3525 H 314.358 -5.72995 -3.10677 0
M  V30 3526 N 317.792 -0.46758 -1.50504 0
M  V30 3527 C 319.017 0.0886943 -2.0721 0
M  V30 3528 C 319.442 1.33057 -1.32956 0
M  V30 3529 O 318.8 1.77354 -0.376197 0
M  V30 3530 C 318.848 0.359202 -3.58806 0
M  V30 3531 O 317.952 1.44034 -3.8643 0
M  V30 3532 H 317.293 -0.0114349 -0.663902 0
M  V30 3533 H 319.823 -0.657613 -1.93744 0
M  V30 3534 H 319.833 0.600742 -4.03553 0
M  V30 3535 H 318.508 -0.548311 -4.1227 0
M  V30 3536 H 317.085 1.18638 -3.53524 0
M  V30 3537 N 319.27 1.56325 -0.20005 0
M  V30 3538 C 320.518 1.97329 0.436547 0
M  V30 3539 C 320.839 1.08826 1.61808 0
M  V30 3540 O 320.109 0.160604 1.95241 0
M  V30 3541 H 318.689 0.728714 0.164272 0
M  V30 3542 H 321.351 1.92761 -0.287937 0
M  V30 3543 H 320.447 3.02264 0.777353 0
M  V30 3544 N 320.748 -0.0735177 1.57428 0
M  V30 3545 C 321.678 -1.0879 2.06608 0
M  V30 3546 C 322.659 -1.40473 0.959237 0
M  V30 3547 O 323.844 -1.5013 1.23185 0
M  V30 3548 C 320.974 -2.40183 2.50857 0
M  V30 3549 C 319.928 -2.22858 3.65402 0
M  V30 3550 C 319.254 -3.59619 3.957 0
M  V30 3551 C 320.554 -1.65123 4.95511 0
M  V30 3552 H 322.248 -0.678673 2.91607 0
M  V30 3553 H 319.794 -0.325013 1.40284 0
M  V30 3554 H 321.747 -3.11437 2.83874 0
M  V30 3555 H 320.471 -2.83083 1.62885 0
M  V30 3556 H 319.13 -1.54045 3.32664 0
M  V30 3557 H 318.778 -4.00086 3.04861 0
M  V30 3558 H 318.478 -3.48866 4.72828 0
M  V30 3559 H 320.002 -4.32306 4.31212 0
M  V30 3560 H 321.416 -2.26241 5.26771 0
M  V30 3561 H 319.813 -1.65071 5.7695 0
M  V30 3562 H 320.883 -0.612559 4.81015 0
M  V30 3563 N 322.226 -1.5378 -0.344866 0
M  V30 3564 C 323.637 -1.62428 -0.920552 0
M  V30 3565 C 323.988 -0.504747 -1.89596 0
M  V30 3566 O 323.113 0.365711 -2.13287 0
M  V30 3567 C 323.708 -2.94419 -1.67639 0
M  V30 3568 C 322.267 -3.05333 -2.20111 0
M  V30 3569 C 321.414 -2.57866 -1.01982 0
M  V30 3570 H 324.365 -1.58222 -0.123042 0
M  V30 3571 H 324.386 -2.83384 -2.53917 0
M  V30 3572 H 323.898 -3.7588 -0.966224 0
M  V30 3573 H 321.999 -2.28502 -2.94308 0
M  V30 3574 H 322.112 -4.10778 -2.46573 0
M  V30 3575 H 320.476 -2.13241 -1.39285 0
M  V30 3576 H 321.259 -3.41765 -0.324308 0
M  V30 3577 N 323.704 0.605807 -1.45491 0
M  V30 3578 C 324.952 1.36207 -1.49305 0
M  V30 3579 C 325.273 1.94519 -0.136863 0
M  V30 3580 O 324.543 1.77261 0.833983 0
M  V30 3581 H 323.123 0.50565 -0.549843 0
M  V30 3582 H 325.785 0.711239 -1.81459 0
M  V30 3583 H 324.881 2.18058 -2.23287 0
M  V30 3584 N 325.182 1.32811 0.848464 0
M  V30 3585 C 326.129 1.22265 1.95755 0
M  V30 3586 C 327.099 0.103413 1.65778 0
M  V30 3587 O 328.284 0.280033 1.88734 0
M  V30 3588 C 325.424 0.958014 3.31536 0
M  V30 3589 C 324.537 2.16262 3.73971 0
M  V30 3590 C 323.672 1.83295 4.98575 0
M  V30 3591 C 322.711 3.00041 5.33518 0
M  V30 3592 N 321.848 2.67125 6.49299 0
M  V30 3593 H 326.688 2.17128 2.04107 0
M  V30 3594 H 324.225 1.07982 0.998913 0
M  V30 3595 H 326.183 0.785052 4.09747 0
M  V30 3596 H 324.813 0.046159 3.22767 0
M  V30 3597 H 323.865 2.44565 2.91362 0
M  V30 3598 H 325.177 3.03572 3.95785 0
M  V30 3599 H 324.331 1.62586 5.84509 0
M  V30 3600 H 323.07 0.932078 4.7871 0
M  V30 3601 H 322.075 3.21374 4.46093 0
M  V30 3602 H 323.3 3.90869 5.55336 0
M  V30 3603 H 321.246 1.79586 6.3094 0
M  V30 3604 H 321.163 3.47965 6.71161 0
M  V30 3605 H 322.431 2.49861 7.3837 0
M  V30 3606 N 326.66 -1.06551 1.16123 0
M  V30 3607 C 327.906 -1.79567 0.94252 0
M  V30 3608 C 328.239 -1.86869 -0.528547 0
M  V30 3609 O 327.514 -1.35838 -1.39206 0
M  V30 3610 C 327.797 -3.24195 1.56747 0
M  V30 3611 C 327.65 -3.24989 3.10969 0
M  V30 3612 C 328.969 -4.21678 1.25998 0
M  V30 3613 H 326.088 -0.651883 0.343828 0
M  V30 3614 H 328.73 -1.2463 1.43413 0
M  V30 3615 H 326.88 -3.71107 1.14942 0
M  V30 3616 H 328.552 -2.86258 3.61737 0
M  V30 3617 H 326.795 -2.63716 3.44436 0
M  V30 3618 H 327.466 -4.27005 3.49815 0
M  V30 3619 H 329.942 -3.83196 1.62174 0
M  V30 3620 H 328.818 -5.21146 1.7233 0
M  V30 3621 H 329.079 -4.4174 0.178367 0
M  V30 3622 N 328.138 -0.959301 -1.25041 0
M  V30 3623 C 329.385 -0.616611 -1.92884 0
M  V30 3624 C 329.713 0.847036 -1.75087 0
M  V30 3625 O 328.968 1.62374 -1.09239 0
M  V30 3626 C 329.267 -0.927136 -3.45165 0
M  V30 3627 C 328.933 -2.37757 -3.83122 0
M  V30 3628 C 327.595 -2.77402 -3.93194 0
M  V30 3629 C 329.947 -3.31929 -4.01836 0
M  V30 3630 C 327.275 -4.10277 -4.19392 0
M  V30 3631 C 329.627 -4.64423 -4.29528 0
M  V30 3632 C 328.291 -5.03857 -4.37818 0
M  V30 3633 H 327.561 -0.225634 -0.705812 0
M  V30 3634 H 330.208 -1.20921 -1.48493 0
M  V30 3635 H 328.513 -0.252195 -3.90987 0
M  V30 3636 H 330.21 -0.6405 -3.95852 0
M  V30 3637 H 326.8 -2.06013 -3.75841 0
M  V30 3638 H 330.984 -3.02488 -3.93465 0
M  V30 3639 H 326.24 -4.40467 -4.24027 0
M  V30 3640 H 330.414 -5.37369 -4.42953 0
M  V30 3641 H 328.041 -6.06843 -4.57871 0
M  V30 3642 N 329.616 1.39756 -0.72842 0
M  V30 3643 C 330.579 2.29012 -0.0927297 0
M  V30 3644 C 331.579 1.45992 0.674025 0
M  V30 3645 O 332.769 1.66749 0.50402 0
M  V30 3646 C 329.901 3.29396 0.878137 0
M  V30 3647 H 331.094 2.86729 -0.879011 0
M  V30 3648 H 328.647 1.48293 -0.493847 0
M  V30 3649 H 329.382 2.76722 1.69101 0
M  V30 3650 H 329.167 3.907 0.331051 0
M  V30 3651 H 330.657 3.96199 1.3197 0
M  V30 3652 N 331.094 0.475555 1.50254 0
M  V30 3653 C 332.334 -0.0765802 2.04256 0
M  V30 3654 C 332.698 -1.36587 1.34937 0
M  V30 3655 O 333.899 -2.00066 1.79519 0
M  V30 3656 C 332.17 -0.251668 3.56513 0
M  V30 3657 S 333.729 -0.761716 4.32138 0
M  V30 3658 H 330.547 -0.0138456 0.710865 0
M  V30 3659 H 333.149 0.643714 1.84598 0
M  V30 3660 H 331.853 0.692404 4.04517 0
M  V30 3661 H 331.384 -0.997946 3.80532 0
M  V30 3662 H 333.399 -2.03451 4.52573 0
M  V30 3663 N 332.573 -1.56217 0.208337 0
M  V30 3664 C 333.503 -2.22694 -0.702116 0
M  V30 3665 C 334.484 -1.19432 -1.2112 0
M  V30 3666 O 335.669 -1.47978 -1.25762 0
M  V30 3667 C 332.799 -2.8966 -1.9161 0
M  V30 3668 C 331.753 -3.9928 -1.5414 0
M  V30 3669 C 331.079 -4.53476 -2.83308 0
M  V30 3670 C 332.379 -5.17012 -0.741339 0
M  V30 3671 H 334.073 -2.99034 -0.147898 0
M  V30 3672 H 331.619 -1.43831 -0.0696951 0
M  V30 3673 H 333.572 -3.34852 -2.55836 0
M  V30 3674 H 332.296 -2.10746 -2.49507 0
M  V30 3675 H 330.955 -3.54799 -0.922668 0
M  V30 3676 H 330.603 -3.71308 -3.39322 0
M  V30 3677 H 330.303 -5.27451 -2.58976 0
M  V30 3678 H 331.827 -5.01378 -3.485 0
M  V30 3679 H 333.241 -5.58667 -1.28699 0
M  V30 3680 H 331.638 -5.97137 -0.595627 0
M  V30 3681 H 332.708 -4.8423 0.254851 0
M  V30 3682 N 334.051 0.0651679 -1.57465 0
M  V30 3683 C 335.276 0.779605 -1.9219 0
M  V30 3684 C 335.701 1.69988 -0.805333 0
M  V30 3685 O 335.059 1.79685 0.241435 0
M  V30 3686 C 335.107 1.54364 -3.2589 0
M  V30 3687 O 334.211 2.65474 -3.1559 0
M  V30 3688 H 333.552 0.212249 -0.629163 0
M  V30 3689 H 336.082 0.0314294 -2.04576 0
M  V30 3690 H 336.092 1.92146 -3.59922 0
M  V30 3691 H 334.767 0.868457 -4.06732 0
M  V30 3692 H 333.344 2.30501 -2.93128 0
M  V30 3693 N 335.529 1.53961 0.336706 0
M  V30 3694 C 336.778 1.70751 1.07363 0
M  V30 3695 C 337.091 0.481061 1.89592 0
M  V30 3696 O 338.297 0.530046 2.66276 0
M  V30 3697 C 336.753 3.01965 1.95818 0
M  V30 3698 C 336.361 4.31971 1.18764 0
M  V30 3699 C 338.105 3.28121 2.69327 0
M  V30 3700 C 336.012 5.54255 2.06289 0
M  V30 3701 H 334.942 0.636292 0.404535 0
M  V30 3702 H 337.593 1.80459 0.332681 0
M  V30 3703 H 335.975 2.86132 2.7376 0
M  V30 3704 H 337.149 4.5853 0.456849 0
M  V30 3705 H 335.464 4.12481 0.569946 0
M  V30 3706 H 338.061 4.16673 3.35094 0
M  V30 3707 H 338.404 2.45426 3.36261 0
M  V30 3708 H 338.937 3.44762 1.98454 0
M  V30 3709 H 335.676 6.39513 1.43885 0
M  V30 3710 H 335.196 5.31935 2.77138 0
M  V30 3711 H 336.875 5.90159 2.65182 0
M  V30 3712 N 337.007 -0.598083 1.45811 0
M  V30 3713 C 337.937 -1.71873 1.58057 0
M  V30 3714 C 338.918 -1.64533 0.431615 0
M  V30 3715 O 340.103 -1.82787 0.65595 0
M  V30 3716 C 337.233 -3.10495 1.55597 0
M  V30 3717 C 336.187 -3.32654 2.69305 0
M  V30 3718 C 335.513 -4.71646 2.51902 0
M  V30 3719 C 336.813 -3.21981 4.11248 0
M  V30 3720 H 338.507 -1.61881 2.51863 0
M  V30 3721 H 336.053 -0.777372 1.21214 0
M  V30 3722 H 338.006 -3.88699 1.6276 0
M  V30 3723 H 336.73 -3.2135 0.583255 0
M  V30 3724 H 335.389 -2.56843 2.61586 0
M  V30 3725 H 335.037 -4.79246 1.52748 0
M  V30 3726 H 334.737 -4.87426 3.2816 0
M  V30 3727 H 336.261 -5.52038 2.60933 0
M  V30 3728 H 337.675 -3.90049 4.20161 0
M  V30 3729 H 336.072 -3.49289 4.87972 0
M  V30 3730 H 337.142 -2.1928 4.32486 0
M  V30 3731 N 338.485 -1.33259 -0.841409 0
M  V30 3732 C 339.732 -1.24572 -1.5965 0
M  V30 3733 C 340.06 0.189137 -1.93578 0
M  V30 3734 O 339.315 1.14566 -1.5866 0
M  V30 3735 C 339.614 -2.06381 -2.9179 0
M  V30 3736 C 339.28 -3.556 -2.77235 0
M  V30 3737 C 337.942 -3.96282 -2.72973 0
M  V30 3738 C 340.294 -4.50433 -2.62221 0
M  V30 3739 C 337.622 -5.30017 -2.51592 0
M  V30 3740 C 339.974 -5.84327 -2.42374 0
M  V30 3741 C 338.638 -6.24194 -2.36512 0
M  V30 3742 H 337.908 -0.455842 -0.5842 0
M  V30 3743 H 340.555 -1.6482 -0.975016 0
M  V30 3744 H 338.86 -1.58903 -3.5813 0
M  V30 3745 H 340.557 -1.97019 -3.49263 0
M  V30 3746 H 337.147 -3.23298 -2.81384 0
M  V30 3747 H 341.331 -4.19914 -2.64549 0
M  V30 3748 H 336.587 -5.59947 -2.45499 0
M  V30 3749 H 340.761 -6.57414 -2.29739 0
M  V30 3750 H 338.388 -7.27759 -2.19706 0
M  V30 3751 N 339.963 1.05934 -1.16686 0
M  V30 3752 C 341.209 1.79065 -0.95203 0
M  V30 3753 C 341.542 1.87147 0.518629 0
M  V30 3754 O 340.817 1.36574 1.38484 0
M  V30 3755 C 341.1 3.23359 -1.58464 0
M  V30 3756 C 340.953 3.23336 -3.12689 0
M  V30 3757 C 342.272 4.21004 -1.28232 0
M  V30 3758 H 339.391 0.65005 -0.34728 0
M  V30 3759 H 342.033 1.23868 -1.44072 0
M  V30 3760 H 340.183 3.70493 -1.16908 0
M  V30 3761 H 341.855 2.84336 -3.6325 0
M  V30 3762 H 340.098 2.61886 -3.4583 0
M  V30 3763 H 340.769 4.25144 -3.52075 0
M  V30 3764 H 343.245 3.8233 -1.64203 0
M  V30 3765 H 342.121 5.20225 -1.75092 0
M  V30 3766 H 342.382 4.41639 -0.201791 0
M  V30 3767 N 341.441 0.965919 1.2453 0
M  V30 3768 C 342.404 0.499547 2.2369 0
M  V30 3769 C 343.404 -0.40294 1.5567 0
M  V30 3770 O 344.594 -0.19865 1.73064 0
M  V30 3771 C 341.726 -0.276792 3.39774 0
M  V30 3772 H 342.919 1.37613 2.66463 0
M  V30 3773 H 340.472 0.750324 1.37112 0
M  V30 3774 H 341.207 -1.17055 3.02438 0
M  V30 3775 H 340.992 0.370826 3.90343 0
M  V30 3776 H 342.482 -0.592175 4.1338 0
M  V30 3777 N 342.919 -1.39368 0.735821 0
M  V30 3778 C 344.147 -2.04795 0.294393 0
M  V30 3779 C 344.562 -1.55478 -1.07107 0
M  V30 3780 O 343.919 -0.720038 -1.67695 0
M  V30 3781 C 343.97 -3.6035 0.288071 0
M  V30 3782 O 343.691 -4.07852 1.59963 0
M  V30 3783 C 345.192 -4.42976 -0.169422 0
M  V30 3784 H 342.412 -0.658571 0.128551 0
M  V30 3785 H 344.956 -1.78399 0.999701 0
M  V30 3786 H 343.111 -3.85645 -0.368355 0
M  V30 3787 H 343.525 -5.02181 1.51375 0
M  V30 3788 H 344.999 -5.51864 -0.122687 0
M  V30 3789 H 345.476 -4.22068 -1.21472 0
M  V30 3790 H 346.082 -4.22832 0.457469 0
M  V30 3791 N 344.397 -0.483516 -1.5 0
M  V30 3792 C 345.625 0.0644831 -2.06799 0
M  V30 3793 C 346.04 1.32399 -1.34596 0
M  V30 3794 O 345.397 1.77626 -0.418946 0
M  V30 3795 C 345.448 0.339927 -3.59898 0
M  V30 3796 O 345.169 -0.869635 -4.29382 0
M  V30 3797 C 346.67 0.933515 -4.33359 0
M  V30 3798 H 343.89 -0.0126333 -0.670881 0
M  V30 3799 H 346.434 -0.675864 -1.93009 0
M  V30 3800 H 344.589 1.03022 -3.7345 0
M  V30 3801 H 345.003 -0.62179 -5.20801 0
M  V30 3802 H 346.477 1.07593 -5.41413 0
M  V30 3803 H 346.954 1.92685 -3.94676 0
M  V30 3804 H 347.56 0.281221 -4.24369 0
M  V30 3805 N 345.875 1.56104 -0.216619 0
M  V30 3806 C 346.838 2.18819 0.681962 0
M  V30 3807 C 347.838 1.14866 1.12528 0
M  V30 3808 O 349.028 1.40128 1.03488 0
M  V30 3809 C 346.16 2.80756 1.93362 0
M  V30 3810 H 347.353 2.99595 0.135254 0
M  V30 3811 H 344.906 1.56265 0.0330003 0
M  V30 3812 H 345.641 2.03837 2.52232 0
M  V30 3813 H 345.426 3.56876 1.62426 0
M  V30 3814 H 346.916 3.28844 2.57393 0
M  V30 3815 N 347.353 -0.0568162 1.57498 0
M  V30 3816 C 348.599 -0.75422 1.88253 0
M  V30 3817 C 348.932 -1.76461 0.810865 0
M  V30 3818 O 348.207 -1.93691 -0.177259 0
M  V30 3819 C 348.49 -1.44878 3.2967 0
M  V30 3820 C 348.343 -0.453789 4.47505 0
M  V30 3821 C 349.662 -2.38994 3.69554 0
M  V30 3822 H 346.781 -0.272724 0.684683 0
M  V30 3823 H 349.423 -0.0172113 1.89992 0
M  V30 3824 H 347.573 -2.077 3.28318 0
M  V30 3825 H 349.245 0.170371 4.60985 0
M  V30 3826 H 347.488 0.229552 4.33192 0
M  V30 3827 H 348.159 -0.977699 5.43273 0
M  V30 3828 H 350.635 -1.86239 3.72095 0
M  V30 3829 H 349.511 -2.84587 4.69363 0
M  V30 3830 H 349.772 -3.24461 3.00296 0
M  V30 3831 N 348.832 -1.54138 -0.328536 0
M  V30 3832 C 350.057 -1.76378 -1.09112 0
M  V30 3833 C 350.482 -0.508596 -1.81094 0
M  V30 3834 O 349.84 0.539598 -1.73084 0
M  V30 3835 C 349.888 -2.95358 -2.06872 0
M  V30 3836 O 348.992 -2.66556 -3.14677 0
M  V30 3837 H 348.333 -0.584614 -0.314838 0
M  V30 3838 H 350.863 -2.01146 -0.374348 0
M  V30 3839 H 350.873 -3.22566 -2.4983 0
M  V30 3840 H 349.548 -3.86385 -1.5388 0
M  V30 3841 H 348.125 -2.50282 -2.7643 0
M  V30 3842 N 350.31 0.590341 -1.46126 0
M  V30 3843 C 351.24 1.71032 -1.58966 0
M  V30 3844 C 352.221 1.64302 -0.440335 0
M  V30 3845 O 353.406 1.82436 -0.665634 0
M  V30 3846 C 350.536 3.09665 -1.57241 0
M  V30 3847 C 349.49 3.31221 -2.71066 0
M  V30 3848 C 348.816 4.70303 -2.54399 0
M  V30 3849 C 350.116 3.19796 -4.1295 0
M  V30 3850 H 351.81 1.60543 -2.52718 0
M  V30 3851 H 349.356 0.770933 -1.21625 0
M  V30 3852 H 351.309 3.87831 -1.64819 0
M  V30 3853 H 350.033 3.21036 -0.600289 0
M  V30 3854 H 348.692 2.55452 -2.62944 0
M  V30 3855 H 348.34 4.78429 -1.55288 0
M  V30 3856 H 348.04 4.85679 -3.30741 0
M  V30 3857 H 349.564 5.50647 -2.63857 0
M  V30 3858 H 350.978 3.87815 -4.22223 0
M  V30 3859 H 349.375 3.46696 -4.89818 0
M  V30 3860 H 350.445 2.16983 -4.33643 0
M  V30 3861 N 351.788 1.33704 0.83433 0
M  V30 3862 C 353.028 1.26754 1.60352 0
M  V30 3863 C 353.392 -0.163182 1.91305 0
M  V30 3864 O 354.593 -0.3567 2.66423 0
M  V30 3865 C 352.864 2.12262 2.8754 0
M  V30 3866 S 354.423 2.22549 3.78176 0
M  V30 3867 H 351.241 0.450879 0.549753 0
M  V30 3868 H 353.843 1.68788 0.986444 0
M  V30 3869 H 352.547 3.15238 2.62779 0
M  V30 3870 H 352.078 1.71082 3.54252 0
M  V30 3871 H 354.093 1.3899 4.76336 0
M  V30 3872 N 353.266 -1.05314 1.17247 0
M  V30 3873 C 354.512 -1.78557 0.961513 0
M  V30 3874 C 354.845 -1.87419 -0.508697 0
M  V30 3875 O 354.12 -1.37307 -1.37757 0
M  V30 3876 C 354.403 -3.22514 1.60176 0
M  V30 3877 C 354.256 -3.21673 3.14399 0
M  V30 3878 C 355.575 -4.20318 1.30463 0
M  V30 3879 H 352.694 -0.6482 0.350723 0
M  V30 3880 H 355.336 -1.23102 1.44727 0
M  V30 3881 H 353.486 -3.69867 1.18871 0
M  V30 3882 H 355.158 -2.82405 3.64753 0
M  V30 3883 H 353.401 -2.60048 3.47214 0
M  V30 3884 H 354.072 -4.23271 3.54324 0
M  V30 3885 H 356.548 -3.81454 1.66229 0
M  V30 3886 H 355.424 -5.19289 1.77848 0
M  V30 3887 H 355.685 -4.41526 0.22521 0
M  V30 3888 N 354.744 -0.972509 -1.24016 0
M  V30 3889 C 355.969 -0.654417 -1.96805 0
M  V30 3890 C 356.394 0.770398 -1.716 0
M  V30 3891 O 355.752 1.52361 -0.982647 0
M  V30 3892 C 355.8 -0.941031 -3.48105 0
M  V30 3893 O 354.904 -0.0289472 -4.1239 0
M  V30 3894 H 354.245 -0.24692 -0.616382 0
M  V30 3895 H 356.775 -1.30396 -1.57664 0
M  V30 3896 H 356.785 -0.87452 -3.98517 0
M  V30 3897 H 355.46 -1.97939 -3.65777 0
M  V30 3898 H 354.037 -0.149192 -3.72601 0
M  V30 3899 N 356.222 1.38976 -0.743202 0
M  V30 3900 C 357.45 2.04636 -0.30525 0
M  V30 3901 C 357.865 1.56044 1.06281 0
M  V30 3902 O 357.222 0.728921 1.67311 0
M  V30 3903 C 357.273 3.60193 -0.307177 0
M  V30 3904 O 356.994 4.06998 -1.62124 0
M  V30 3905 C 358.495 4.4306 0.145928 0
M  V30 3906 H 355.715 0.65788 -0.132041 0
M  V30 3907 H 358.259 1.77866 -1.00915 0
M  V30 3908 H 356.414 3.85835 0.347898 0
M  V30 3909 H 356.828 5.01371 -1.54036 0
M  V30 3910 H 358.302 5.51921 0.0934183 0
M  V30 3911 H 358.779 4.22706 1.19231 0
M  V30 3912 H 359.385 4.22584 -0.479886 0
M  V30 3913 N 357.7 0.491464 1.49741 0
M  V30 3914 C 358.633 -0.338464 2.25676 0
M  V30 3915 C 359.611 -0.978676 1.29849 0
M  V30 3916 O 360.795 -1.01064 1.59117 0
M  V30 3917 C 357.922 -1.47588 3.04853 0
M  V30 3918 C 356.968 -0.951 4.15762 0
M  V30 3919 S 357.801 0.150626 5.35288 0
M  V30 3920 C 358.957 -0.990178 6.18018 0
M  V30 3921 H 359.19 0.306068 2.9572 0
M  V30 3922 H 356.723 0.276622 1.51902 0
M  V30 3923 H 358.681 -2.12764 3.51058 0
M  V30 3924 H 357.342 -2.09199 2.34296 0
M  V30 3925 H 356.535 -1.80311 4.70642 0
M  V30 3926 H 356.137 -0.376607 3.72099 0
M  V30 3927 H 358.429 -1.89748 6.50386 0
M  V30 3928 H 359.372 -0.480205 7.0647 0
M  V30 3929 H 359.78 -1.25321 5.50413 0
M  V30 3930 N 359.178 -1.55987 0.224894 0
M  V30 3931 C 360.589 -1.84553 -0.282345 0
M  V30 3932 C 360.94 -1.14634 -1.59227 0
M  V30 3933 O 360.065 -0.417155 -2.12341 0
M  V30 3934 C 360.66 -3.348 -0.519062 0
M  V30 3935 C 359.219 -3.63671 -0.970604 0
M  V30 3936 C 358.366 -2.77277 -0.0355261 0
M  V30 3937 H 361.317 -1.52245 0.448006 0
M  V30 3938 H 361.338 -3.55187 -1.36463 0
M  V30 3939 H 360.85 -3.8566 0.43449 0
M  V30 3940 H 358.951 -3.1827 -1.9374 0
M  V30 3941 H 359.064 -4.71631 -0.842698 0
M  V30 3942 H 357.428 -2.48846 -0.542927 0
M  V30 3943 H 358.211 -3.30937 0.913003 0
M  V30 3944 N 360.656 0.0484629 -1.57525 0
M  V30 3945 C 361.933 0.777447 -1.79486 0
M  V30 3946 C 362.313 1.94597 -0.818251 0
M  V30 3947 O 361.661 2.28047 0.143767 0
M  V30 3948 C 361.871 1.22864 -3.26658 0
M  V30 3949 C 363.219 1.65251 -3.91123 0
M  V30 3950 O 364.243 1.32372 -3.3069 0
M  V30 3951 O 363.102 2.26207 -4.97486 0
M  V30 3952 H 360.196 0.374357 -0.737419 0
M  V30 3953 H 362.742 0.0267359 -1.69679 0
M  V30 3954 H 361.514 0.393589 -3.89316 0
M  V30 3955 H 361.137 2.03996 -3.41279 0
M  V30 3956 N 362.134 1.5431 0.320358 0
M  V30 3957 C 363.064 1.86912 1.3995 0
M  V30 3958 C 364.045 0.726211 1.53819 0
M  V30 3959 O 365.23 0.980233 1.67646 0
M  V30 3960 C 362.36 2.09932 2.7667 0
M  V30 3961 C 361.314 3.25776 2.77586 0
M  V30 3962 C 360.64 3.34173 4.17412 0
M  V30 3963 C 361.94 4.6335 2.41048 0
M  V30 3964 H 363.634 2.77292 1.12914 0
M  V30 3965 H 361.18 1.33421 0.541738 0
M  V30 3966 H 363.133 2.31324 3.52232 0
M  V30 3967 H 361.857 1.16304 3.0519 0
M  V30 3968 H 360.516 3.04276 2.04479 0
M  V30 3969 H 360.164 2.38098 4.43078 0
M  V30 3970 H 359.864 4.12033 4.18931 0
M  V30 3971 H 361.388 3.57803 4.94782 0
M  V30 3972 H 362.802 4.84602 3.06324 0
M  V30 3973 H 361.199 5.43782 2.53813 0
M  V30 3974 H 362.269 4.65381 1.36193 0
M  V30 3975 N 363.613 -0.582584 1.46437 0
M  V30 3976 C 365.029 -0.905962 1.31394 0
M  V30 3977 C 365.229 -1.99468 0.285476 0
M  V30 3978 O 364.285 -2.50566 -0.311914 0
M  V30 3979 C 365.598 -1.3232 2.70022 0
M  V30 3980 C 367.146 -1.43604 2.78113 0
M  V30 3981 C 367.621 -1.88694 4.17323 0
M  V30 3982 N 369.112 -1.95887 4.19741 0
M  V30 3983 C 369.847 -2.32051 5.24347 0
M  V30 3984 N 369.343 -2.67006 6.39281 0
M  V30 3985 N 371.136 -2.32606 5.11713 0
M  V30 3986 H 363.287 0.1366 2.1196 0
M  V30 3987 H 365.55 -0.00155736 0.947999 0
M  V30 3988 H 365.256 -0.597242 3.46592 0
M  V30 3989 H 365.13 -2.28469 3.00136 0
M  V30 3990 H 367.517 -2.15286 2.01832 0
M  V30 3991 H 367.598 -0.457059 2.51684 0
M  V30 3992 H 367.242 -1.1759 4.941 0
M  V30 3993 H 367.172 -2.8755 4.4116 0
M  V30 3994 H 369.663 -1.71362 3.36814 0
M  V30 3995 H 369.976 -2.93554 7.14875 0
M  V30 3996 H 368.321 -2.64644 6.42642 0
M  V30 3997 H 371.512 -2.04721 4.2096 0
M  V30 3998 H 371.685 -2.60462 5.93349 0
M  V30 3999 N 365.091 -1.34144 -0.827227 0
M  V30 4000 C 366.054 -1.25264 -1.91942 0
M  V30 4001 C 367.054 -0.168866 -1.59911 0
M  V30 4002 O 368.244 -0.421198 -1.69031 0
M  V30 4003 C 365.376 -0.932952 -3.27885 0
M  V30 4004 H 366.569 -2.22357 -2.0124 0
M  V30 4005 H 364.122 -1.1837 -1.0207 0
M  V30 4006 H 364.857 0.0349917 -3.24281 0
M  V30 4007 H 364.642 -1.71682 -3.52516 0
M  V30 4008 H 366.132 -0.895874 -4.07877 0
M  V30 4009 N 366.569 1.04691 -1.17803 0
M  V30 4010 C 367.479 2.16057 -0.914151 0
M  V30 4011 C 368.495 1.73589 0.119503 0
M  V30 4012 O 369.671 2.01308 -0.0609468 0
M  V30 4013 C 366.736 3.4394 -0.436603 0
M  V30 4014 C 365.797 4.00825 -1.53746 0
M  V30 4015 C 365.03 5.22604 -1.0826 0
M  V30 4016 O 365.253 5.70367 0.0612244 0
M  V30 4017 O 364.187 5.7186 -1.87775 0
M  V30 4018 H 368.013 2.41169 -1.84584 0
M  V30 4019 H 365.598 1.1453 -0.959334 0
M  V30 4020 H 367.48 4.21024 -0.178057 0
M  V30 4021 H 366.155 3.20316 0.466869 0
M  V30 4022 H 365.062 3.25158 -1.84995 0
M  V30 4023 H 366.395 4.28778 -2.41683 0
M  V30 4024 N 368.047 0.979072 1.23499 0
M  V30 4025 C 368.957 0.526431 2.28617 0
M  V30 4026 C 369.973 -0.418126 1.68901 0
M  V30 4027 O 371.149 -0.288372 1.99325 0
M  V30 4028 C 368.214 -0.165235 3.46306 0
M  V30 4029 C 367.275 0.82056 4.21385 0
M  V30 4030 C 366.508 0.161807 5.33455 0
M  V30 4031 O 366.731 -1.04742 5.60701 0
M  V30 4032 O 365.665 0.859708 5.95729 0
M  V30 4033 H 369.491 1.4006 2.69475 0
M  V30 4034 H 367.076 0.746643 1.29405 0
M  V30 4035 H 368.958 -0.553287 4.17752 0
M  V30 4036 H 367.633 -1.01419 3.07402 0
M  V30 4037 H 366.54 1.25929 3.52268 0
M  V30 4038 H 367.873 1.63828 4.64135 0
M  V30 4039 N 369.525 -1.3858 0.750561 0
M  V30 4040 C 370.802 -1.94231 0.231009 0
M  V30 4041 C 371.182 -1.68611 -1.27018 0
M  V30 4042 O 370.53 -1.02296 -2.04323 0
M  V30 4043 C 370.74 -3.44123 0.581428 0
M  V30 4044 C 372.088 -4.2116 0.539389 0
M  V30 4045 O 373.112 -3.52391 0.519541 0
M  V30 4046 O 371.971 -5.43749 0.54765 0
M  V30 4047 H 369.065 -0.825639 0.0474263 0
M  V30 4048 H 371.611 -1.4799 0.830478 0
M  V30 4049 H 370.383 -3.56267 1.61833 0
M  V30 4050 H 370.006 -3.97573 -0.0462047 0
M  V30 4051 N 371.003 -0.499398 -1.49478 0
M  V30 4052 C 371.935 0.316575 -2.27003 0
M  V30 4053 C 372.948 0.932047 -1.33479 0
M  V30 4054 O 374.137 0.815658 -1.58774 0
M  V30 4055 C 371.237 1.46055 -3.05812 0
M  V30 4056 C 370.41 0.952679 -4.26899 0
M  V30 4057 C 369.469 1.97407 -4.87767 0
M  V30 4058 O 368.495 1.54326 -5.4788 0
M  V30 4059 N 369.697 3.30436 -4.77276 0
M  V30 4060 H 372.462 -0.348168 -2.97671 0
M  V30 4061 H 370.023 -0.33185 -1.58463 0
M  V30 4062 H 372.015 2.14135 -3.43407 0
M  V30 4063 H 370.585 2.02948 -2.37762 0
M  V30 4064 H 369.805 0.0968248 -3.94081 0
M  V30 4065 H 371.093 0.59174 -5.05347 0
M  V30 4066 H 370.491 3.68126 -4.29534 0
M  V30 4067 H 369.048 3.94235 -5.19059 0
M  V30 4068 N 372.481 1.55866 -0.233164 0
M  V30 4069 C 373.729 1.9821 0.394593 0
M  V30 4070 C 374.05 1.12234 1.59463 0
M  V30 4071 O 373.32 0.201981 1.94856 0
M  V30 4072 H 371.9 0.732034 0.148778 0
M  V30 4073 H 374.562 1.92107 -0.32876 0
M  V30 4074 H 373.658 3.03845 0.713063 0
M  V30 4075 N 373.959 -0.0401083 1.57549 0
M  V30 4076 C 374.869 -1.06133 2.0922 0
M  V30 4077 C 375.885 -1.40356 1.0284 0
M  V30 4078 O 377.061 -1.49897 1.34509 0
M  V30 4079 C 374.126 -2.34658 2.55218 0
M  V30 4080 C 373.187 -2.07117 3.76033 0
M  V30 4081 C 372.42 -3.29514 4.19829 0
M  V30 4082 O 372.643 -4.39794 3.63232 0
M  V30 4083 O 371.577 -3.15863 5.12362 0
M  V30 4084 H 375.403 -0.652244 2.96613 0
M  V30 4085 H 372.988 -0.256368 1.47184 0
M  V30 4086 H 374.87 -3.10239 2.85184 0
M  V30 4087 H 373.545 -2.74883 1.70941 0
M  V30 4088 H 372.452 -1.29139 3.51104 0
M  V30 4089 H 373.785 -1.71754 4.61261 0
M  V30 4090 N 375.437 -1.54477 -0.31217 0
M  V30 4091 C 376.677 -1.74958 -1.05684 0
M  V30 4092 C 377.041 -0.518414 -1.84869 0
M  V30 4093 O 378.242 -0.600759 -2.62001 0
M  V30 4094 C 376.513 -2.99656 -1.94785 0
M  V30 4095 S 378.072 -3.4109 -2.76049 0
M  V30 4096 H 374.89 -0.615104 -0.356606 0
M  V30 4097 H 377.492 -1.92669 -0.331514 0
M  V30 4098 H 376.196 -3.87397 -1.35468 0
M  V30 4099 H 375.727 -2.845 -2.71704 0
M  V30 4100 H 377.742 -2.97283 -3.97287 0
M  V30 4101 N 376.915 0.57481 -1.46744 0
M  V30 4102 C 378.14 1.36341 -1.56288 0
M  V30 4103 C 378.565 1.86954 -0.207347 0
M  V30 4104 O 377.923 1.62006 0.813871 0
M  V30 4105 C 377.971 2.52147 -2.57787 0
M  V30 4106 O 377.075 3.53834 -2.11838 0
M  V30 4107 H 376.416 0.405713 -0.525636 0
M  V30 4108 H 378.946 0.696453 -1.92382 0
M  V30 4109 H 378.956 2.98958 -2.77648 0
M  V30 4110 H 377.631 2.14663 -3.5622 0
M  V30 4111 H 376.208 3.1345 -2.01999 0
M  V30 4112 N 378.394 1.34581 0.820102 0
M  V30 4113 C 379.81 1.14325 1.11364 0
M  V30 4114 C 380.01 -0.0533648 2.01429 0
M  V30 4115 O 379.066 -0.728044 2.41776 0
M  V30 4116 C 380.379 2.43983 1.75764 0
M  V30 4117 C 381.927 2.50065 1.88246 0
M  V30 4118 C 382.402 3.79732 2.56061 0
M  V30 4119 N 383.893 3.80908 2.63558 0
M  V30 4120 C 384.628 4.77961 3.16766 0
M  V30 4121 N 384.124 5.85397 3.70517 0
M  V30 4122 N 385.917 4.65413 3.15194 0
M  V30 4123 H 378.068 2.11246 0.221096 0
M  V30 4124 H 380.331 0.934289 0.160649 0
M  V30 4125 H 380.037 3.31651 1.1705 0
M  V30 4126 H 379.911 2.57531 2.75604 0
M  V30 4127 H 382.298 1.62834 2.46108 0
M  V30 4128 H 382.379 2.40442 0.873006 0
M  V30 4129 H 382.023 4.67354 1.98853 0
M  V30 4130 H 381.953 3.86639 3.57516 0
M  V30 4131 H 384.444 3.03274 2.25463 0
M  V30 4132 H 384.757 6.55463 4.09376 0
M  V30 4133 H 383.102 5.89107 3.68752 0
M  V30 4134 H 386.293 3.80627 2.72471 0
M  V30 4135 H 386.466 5.41216 3.56356 0
M  V30 4136 N 379.872 -1.04064 1.18357 0
M  V30 4137 C 380.819 -2.12077 0.910603 0
M  V30 4138 C 381.789 -1.65421 -0.15 0
M  V30 4139 O 382.974 -1.90797 -0.0103614 0
M  V30 4140 C 380.114 -3.42252 0.442472 0
M  V30 4141 C 379.227 -4.0252 1.5685 0
M  V30 4142 C 378.362 -5.20657 1.05309 0
M  V30 4143 C 377.401 -5.72955 2.1538 0
M  V30 4144 N 376.538 -6.8238 1.65233 0
M  V30 4145 H 381.378 -2.34764 1.83548 0
M  V30 4146 H 378.915 -1.15157 0.915279 0
M  V30 4147 H 380.873 -4.16921 0.152534 0
M  V30 4148 H 379.503 -3.19712 -0.445428 0
M  V30 4149 H 378.555 -3.25178 1.97391 0
M  V30 4150 H 379.867 -4.37362 2.39824 0
M  V30 4151 H 379.021 -6.0244 0.717677 0
M  V30 4152 H 377.76 -4.87318 0.19293 0
M  V30 4153 H 376.765 -4.89793 2.49766 0
M  V30 4154 H 377.99 -6.08337 3.01832 0
M  V30 4155 H 375.936 -6.50917 0.815064 0
M  V30 4156 H 375.853 -7.16286 2.41805 0
M  V30 4157 H 377.121 -7.67788 1.34619 0
M  V30 4158 N 381.35 -0.985608 -1.22978 0
M  V30 4159 C 382.59 -0.665487 -1.93263 0
M  V30 4160 C 382.954 0.78706 -1.75127 0
M  V30 4161 O 384.155 1.21826 -2.39608 0
M  V30 4162 C 382.426 -1.0515 -3.41582 0
M  V30 4163 S 383.985 -0.848637 -4.30516 0
M  V30 4164 H 380.803 -0.24355 -0.667985 0
M  V30 4165 H 383.405 -1.26635 -1.48942 0
M  V30 4166 H 382.109 -2.10517 -3.52293 0
M  V30 4167 H 381.64 -0.442134 -3.90908 0
M  V30 4168 H 383.655 0.264717 -4.95493 0
M  V30 4169 N 382.828 1.3818 -0.7579 0
M  V30 4170 C 384.058 2.04004 -0.326463 0
M  V30 4171 C 384.466 1.57286 1.05156 0
M  V30 4172 O 383.809 0.743144 1.67997 0
M  V30 4173 C 383.871 3.58444 -0.275402 0
M  V30 4174 C 383.535 4.28237 -1.59569 0
M  V30 4175 C 384.532 4.53312 -2.54566 0
M  V30 4176 C 382.217 4.66341 -1.86631 0
M  V30 4177 C 384.211 5.15531 -3.74842 0
M  V30 4178 C 381.898 5.28283 -3.0718 0
M  V30 4179 C 382.896 5.52814 -4.01106 0
M  V30 4180 O 382.584 6.13465 -5.19534 0
M  V30 4181 H 382.316 0.662026 -0.136739 0
M  V30 4182 H 384.87 1.7777 -1.02893 0
M  V30 4183 H 383.1 3.83667 0.483337 0
M  V30 4184 H 384.789 4.05701 0.127099 0
M  V30 4185 H 385.555 4.24299 -2.34936 0
M  V30 4186 H 381.434 4.46591 -1.14358 0
M  V30 4187 H 384.978 5.34594 -4.48168 0
M  V30 4188 H 380.875 5.56719 -3.26702 0
M  V30 4189 H 381.643 6.31951 -5.20173 0
M  V30 4190 N 384.306 0.507319 1.49211 0
M  V30 4191 C 385.536 -0.0315292 2.06576 0
M  V30 4192 C 385.944 -1.30791 1.36713 0
M  V30 4193 O 385.287 -1.78324 0.441181 0
M  V30 4194 C 385.349 -0.349104 3.57801 0
M  V30 4195 C 385.013 0.830475 4.49391 0
M  V30 4196 C 386.01 1.72271 4.90529 0
M  V30 4197 C 383.695 1.03107 4.91604 0
M  V30 4198 C 385.689 2.79964 5.72625 0
M  V30 4199 C 383.376 2.11116 5.73475 0
M  V30 4200 C 384.374 2.99379 6.1389 0
M  V30 4201 O 384.062 4.05523 6.94123 0
M  V30 4202 H 383.794 0.0201002 0.675701 0
M  V30 4203 H 386.348 0.705737 1.92895 0
M  V30 4204 H 384.578 -1.14005 3.69513 0
M  V30 4205 H 386.267 -0.827319 3.97379 0
M  V30 4206 H 387.033 1.57958 4.58557 0
M  V30 4207 H 382.912 0.353417 4.59643 0
M  V30 4208 H 386.456 3.48884 6.04091 0
M  V30 4209 H 382.353 2.25421 6.0486 0
M  V30 4210 H 383.121 4.02953 7.1244 0
M  V30 4211 N 385.784 -1.5574 0.241426 0
M  V30 4212 C 387.033 -1.97986 -0.385295 0
M  V30 4213 C 387.346 -1.13267 -1.59468 0
M  V30 4214 O 388.552 -1.45501 -2.2922 0
M  V30 4215 C 387.008 -3.52275 -0.736884 0
M  V30 4216 C 386.616 -4.45726 0.450796 0
M  V30 4217 C 388.36 -4.03189 -1.3281 0
M  V30 4218 C 386.267 -5.91352 0.0756662 0
M  V30 4219 H 385.197 -0.739386 -0.147731 0
M  V30 4220 H 387.848 -1.80308 0.340779 0
M  V30 4221 H 386.23 -3.65628 -1.52094 0
M  V30 4222 H 387.404 -4.44131 1.22819 0
M  V30 4223 H 385.719 -4.05264 0.956573 0
M  V30 4224 H 388.316 -5.09505 -1.62201 0
M  V30 4225 H 388.659 -3.50212 -2.25071 0
M  V30 4226 H 389.192 -3.93141 -0.607069 0
M  V30 4227 H 385.931 -6.48354 0.965272 0
M  V30 4228 H 385.451 -5.96095 -0.665635 0
M  V30 4229 H 387.13 -6.46084 -0.344075 0
M  V30 4230 N 387.262 0.0317525 -1.57568 0
M  V30 4231 C 388.509 0.723104 -1.89149 0
M  V30 4232 C 388.837 1.75504 -0.838377 0
M  V30 4233 O 388.092 1.95037 0.160982 0
M  V30 4234 C 388.391 1.43167 -3.27472 0
M  V30 4235 C 388.057 0.535972 -4.47703 0
M  V30 4236 C 386.719 0.289262 -4.8033 0
M  V30 4237 C 389.071 -0.0826125 -5.21135 0
M  V30 4238 C 386.399 -0.584853 -5.83778 0
M  V30 4239 C 388.751 -0.944414 -6.25511 0
M  V30 4240 C 387.415 -1.20061 -6.56614 0
M  V30 4241 H 386.685 0.264602 -0.692146 0
M  V30 4242 H 389.332 -0.0169496 -1.91492 0
M  V30 4243 H 387.637 2.24497 -3.21105 0
M  V30 4244 H 389.334 1.97209 -3.49155 0
M  V30 4245 H 385.924 0.738414 -4.22191 0
M  V30 4246 H 390.108 0.0950302 -4.96209 0
M  V30 4247 H 385.364 -0.79168 -6.06253 0
M  V30 4248 H 389.538 -1.43026 -6.81554 0
M  V30 4249 H 387.165 -1.87967 -7.36595 0
M  V30 4250 N 388.74 1.54641 0.303973 0
M  V30 4251 C 389.989 1.7299 1.03717 0
M  V30 4252 C 390.302 0.521168 1.88529 0
M  V30 4253 O 391.508 0.586408 2.65092 0
M  V30 4254 C 389.964 3.06051 1.89369 0
M  V30 4255 C 389.572 4.34393 1.09574 0
M  V30 4256 C 391.316 3.3376 2.62306 0
M  V30 4257 C 389.223 5.58506 1.94486 0
M  V30 4258 H 388.153 0.64473 0.390947 0
M  V30 4259 H 390.804 1.81124 0.294328 0
M  V30 4260 H 389.186 2.91874 2.67629 0
M  V30 4261 H 390.36 4.59396 0.359485 0
M  V30 4262 H 388.675 4.13597 0.482324 0
M  V30 4263 H 391.272 4.23687 3.26181 0
M  V30 4264 H 391.615 2.52503 3.3098 0
M  V30 4265 H 392.148 3.48894 1.91097 0
M  V30 4266 H 388.887 6.42422 1.30287 0
M  V30 4267 H 388.407 5.37694 2.65792 0
M  V30 4268 H 390.086 5.95651 2.52605 0
M  V30 4269 N 390.218 -0.567019 1.47046 0
M  V30 4270 C 391.464 -1.32658 1.53394 0
M  V30 4271 C 391.797 -1.93254 0.19148 0
M  V30 4272 O 391.072 -1.77338 -0.798844 0
M  V30 4273 C 391.355 -2.44412 2.64452 0
M  V30 4274 C 391.208 -1.88749 4.08282 0
M  V30 4275 C 392.527 -3.46387 2.71485 0
M  V30 4276 H 389.646 -0.48098 0.558415 0
M  V30 4277 H 392.288 -0.635481 1.79058 0
M  V30 4278 H 390.438 -3.03363 2.427 0
M  V30 4279 H 392.11 -1.34134 4.41368 0
M  V30 4280 H 390.353 -1.19481 4.17021 0
M  V30 4281 H 391.024 -2.69491 4.81745 0
M  V30 4282 H 393.5 -2.9734 2.91081 0
M  V30 4283 H 392.376 -4.2202 3.50985 0
M  V30 4284 H 392.637 -4.04616 1.78153 0
M  V30 4285 N 391.696 -1.35014 -0.812953 0
M  V30 4286 C 392.606 -1.2951 -1.95613 0
M  V30 4287 C 393.622 -0.20107 -1.72834 0
M  V30 4288 O 394.798 -0.42932 -1.96771 0
M  V30 4289 C 391.863 -1.06033 -3.30088 0
M  V30 4290 C 390.924 -2.24688 -3.65805 0
M  V30 4291 C 390.157 -2.02322 -4.93864 0
M  V30 4292 O 390.38 -0.986464 -5.61805 0
M  V30 4293 O 389.314 -2.89525 -5.27692 0
M  V30 4294 H 393.14 -2.25705 -2.03202 0
M  V30 4295 H 390.725 -1.15321 -0.949811 0
M  V30 4296 H 392.607 -0.94763 -4.10607 0
M  V30 4297 H 391.282 -0.128852 -3.23443 0
M  V30 4298 H 390.189 -2.41521 -2.85689 0
M  V30 4299 H 391.522 -3.16261 -3.77147 0
M  V30 4300 N 393.175 1.03435 -1.18907 0
M  V30 4301 C 394.403 1.80381 -1.01342 0
M  V30 4302 C 394.818 1.83649 0.438005 0
M  V30 4303 O 394.175 1.27655 1.30424 0
M  V30 4304 C 394.226 3.25689 -1.56873 0
M  V30 4305 O 393.947 3.22673 -2.96334 0
M  V30 4306 C 395.448 4.19255 -1.44014 0
M  V30 4307 H 392.668 0.56784 -0.35749 0
M  V30 4308 H 395.212 1.30317 -1.576 0
M  V30 4309 H 393.367 3.72962 -1.04777 0
M  V30 4310 H 393.781 4.13748 -3.22355 0
M  V30 4311 H 395.255 5.19123 -1.87657 0
M  V30 4312 H 395.732 4.37467 -0.389815 0
M  V30 4313 H 396.338 3.77851 -1.95214 0
M  V30 4314 N 394.653 0.992116 1.22453 0
M  V30 4315 C 395.902 0.662992 1.90492 0
M  V30 4316 C 396.215 -0.808407 1.78113 0
M  V30 4317 O 397.421 -1.24908 2.41061 0
M  V30 4318 C 395.877 1.1353 3.41524 0
M  V30 4319 C 395.485 2.63187 3.62542 0
M  V30 4320 C 397.229 0.880465 4.15269 0
M  V30 4321 C 395.136 3.04024 5.0727 0
M  V30 4322 H 394.066 0.244278 0.713333 0
M  V30 4323 H 396.717 1.20157 1.38688 0
M  V30 4324 H 395.099 0.52485 3.92506 0
M  V30 4325 H 396.273 3.2957 3.22056 0
M  V30 4326 H 394.588 2.86543 3.02129 0
M  V30 4327 H 397.185 1.16128 5.21937 0
M  V30 4328 H 397.528 -0.183408 4.15896 0
M  V30 4329 H 398.061 1.45307 3.70312 0
M  V30 4330 H 394.8 4.09584 5.11782 0
M  V30 4331 H 394.32 2.42343 5.48662 0
M  V30 4332 H 395.999 2.95282 5.75689 0
M  V30 4333 N 396.131 -1.37776 0.765217 0
M  V30 4334 C 397.371 -2.01691 0.331669 0
M  V30 4335 C 397.735 -1.59432 -1.06983 0
M  V30 4336 O 398.936 -2.15761 -1.60314 0
M  V30 4337 C 397.207 -3.54385 0.463261 0
M  V30 4338 S 398.766 -4.38652 0.114011 0
M  V30 4339 H 395.584 -0.699387 0.127979 0
M  V30 4340 H 398.186 -1.68084 0.998396 0
M  V30 4341 H 396.89 -3.82629 1.48401 0
M  V30 4342 H 396.421 -3.92783 -0.220246 0
M  V30 4343 H 398.436 -4.84021 -1.09261 0
M  V30 4344 N 397.609 -0.515225 -1.4894 0
M  V30 4345 C 398.855 0.0242508 -2.02785 0
M  V30 4346 C 399.188 1.35323 -1.39289 0
M  V30 4347 O 398.463 1.87041 -0.533469 0
M  V30 4348 C 398.746 0.16184 -3.59736 0
M  V30 4349 C 398.599 -1.19127 -4.33738 0
M  V30 4350 C 399.918 0.895719 -4.30888 0
M  V30 4351 H 397.037 0.00733914 -0.736963 0
M  V30 4352 H 399.679 -0.669395 -1.77818 0
M  V30 4353 H 397.829 0.752624 -3.8114 0
M  V30 4354 H 399.501 -1.82202 -4.23792 0
M  V30 4355 H 397.744 -1.77695 -3.95736 0
M  V30 4356 H 398.415 -1.04815 -5.41957 0
M  V30 4357 H 400.891 0.394528 -4.14225 0
M  V30 4358 H 399.767 0.960859 -5.40425 0
M  V30 4359 H 400.028 1.9427 -3.97129 0
M  V30 4360 N 399.087 1.5561 -0.249682 0
M  V30 4361 C 400.05 2.20217 0.635394 0
M  V30 4362 C 401.05 1.17227 1.10066 0
M  V30 4363 O 402.24 1.42292 1.00492 0
M  V30 4364 C 399.372 2.84794 1.87363 0
M  V30 4365 H 400.565 2.99814 0.0716752 0
M  V30 4366 H 398.118 1.563 -0.000153234 0
M  V30 4367 H 398.853 2.09142 2.47851 0
M  V30 4368 H 398.638 3.60241 1.5482 0
M  V30 4369 H 400.128 3.3423 2.5036 0
M  V30 4370 N 400.565 -0.0233959 1.57583 0
M  V30 4371 C 401.811 -0.708611 1.90657 0
M  V30 4372 C 402.166 -1.7266 0.848895 0
M  V30 4373 O 401.459 -1.91075 -0.141749 0
M  V30 4374 C 401.653 -1.41428 3.28227 0
M  V30 4375 C 401.482 -0.466155 4.47277 0
M  V30 4376 C 400.252 -0.085117 5.05228 0
M  V30 4377 C 402.45 0.257836 5.13653 0
M  V30 4378 N 400.432 0.863672 6.07794 0
M  V30 4379 C 401.803 1.06209 6.10835 0
M  V30 4380 C 403.858 0.324174 4.96844 0
M  V30 4381 C 402.561 1.9266 6.93018 0
M  V30 4382 C 404.587 1.17583 5.79593 0
M  V30 4383 C 403.949 1.96799 6.7635 0
M  V30 4384 H 400.048 -0.233222 0.746412 0
M  V30 4385 H 402.632 0.0314512 1.94675 0
M  V30 4386 H 400.803 -2.12477 3.25128 0
M  V30 4387 H 402.535 -2.05233 3.488 0
M  V30 4388 H 399.29 -0.448516 4.71471 0
M  V30 4389 H 399.714 1.33274 6.63752 0
M  V30 4390 H 404.356 -0.273975 4.21911 0
M  V30 4391 H 402.074 2.53552 7.67292 0
M  V30 4392 H 405.66 1.23076 5.68633 0
M  V30 4393 H 404.54 2.61635 7.39268 0
M  V30 4394 N 402.043 -1.548 -0.295768 0
M  V30 4395 C 403.29 -1.74329 -1.03032 0
M  V30 4396 C 403.618 -0.531915 -1.87085 0
M  V30 4397 O 402.873 0.486052 -1.89568 0
M  V30 4398 C 403.172 -2.98797 -1.961 0
M  V30 4399 C 402.838 -4.32356 -1.2798 0
M  V30 4400 C 401.5 -4.68661 -1.09135 0
M  V30 4401 C 403.852 -5.15128 -0.793243 0
M  V30 4402 C 401.18 -5.85312 -0.403269 0
M  V30 4403 C 403.532 -6.32488 -0.118854 0
M  V30 4404 C 402.196 -6.6745 0.0815043 0
M  V30 4405 H 401.466 -0.637916 -0.37702 0
M  V30 4406 H 404.113 -1.8906 -0.304696 0
M  V30 4407 H 402.418 -2.78869 -2.75207 0
M  V30 4408 H 404.115 -3.11102 -2.53015 0
M  V30 4409 H 400.705 -4.03808 -1.43655 0
M  V30 4410 H 404.889 -4.87575 -0.92653 0
M  V30 4411 H 400.145 -6.1094 -0.237098 0
M  V30 4412 H 404.319 -6.95892 0.266035 0
M  V30 4413 H 401.946 -7.57695 0.616685 0
M  V30 4414 N 403.521 0.559213 -1.47345 0
M  V30 4415 C 404.746 1.34676 -1.57725 0
M  V30 4416 C 405.171 1.86723 -0.227164 0
M  V30 4417 O 404.529 1.6286 0.796642 0
M  V30 4418 C 404.577 2.49399 -2.60447 0
M  V30 4419 O 403.681 3.51567 -2.15578 0
M  V30 4420 H 403.022 0.400115 -0.52991 0
M  V30 4421 H 405.552 0.676009 -1.93109 0
M  V30 4422 H 405.562 2.95996 -2.80803 0
M  V30 4423 H 404.237 2.10873 -3.58477 0
M  V30 4424 H 402.814 3.11289 -2.05313 0
M  V30 4425 N 404.999 1.35443 0.805782 0
M  V30 4426 C 405.929 1.31095 1.93226 0
M  V30 4427 C 406.91 0.185244 1.69088 0
M  V30 4428 O 408.095 0.380332 1.90439 0
M  V30 4429 C 405.225 1.08299 3.29983 0
M  V30 4430 C 404.179 2.17519 3.68605 0
M  V30 4431 C 403.505 1.79887 5.03532 0
M  V30 4432 C 404.805 3.5949 3.78898 0
M  V30 4433 H 406.499 2.25352 1.97122 0
M  V30 4434 H 404.045 1.0848 0.946996 0
M  V30 4435 H 405.998 1.03897 4.08391 0
M  V30 4436 H 404.722 0.104885 3.26432 0
M  V30 4437 H 403.381 2.2102 2.92482 0
M  V30 4438 H 403.029 0.80693 4.96485 0
M  V30 4439 H 402.729 2.53001 5.30344 0
M  V30 4440 H 404.253 1.77011 5.84379 0
M  V30 4441 H 405.667 3.58307 4.47536 0
M  V30 4442 H 404.064 4.31371 4.1718 0
M  V30 4443 H 405.134 3.95584 2.80431 0
M  V30 4444 N 406.477 -1.02803 1.19454 0
M  V30 4445 C 407.387 -2.14575 0.948408 0
M  V30 4446 C 408.403 -1.73757 -0.091871 0
M  V30 4447 O 409.579 -2.01185 0.0929654 0
M  V30 4448 C 406.644 -3.43202 0.491265 0
M  V30 4449 C 405.705 -3.98328 1.60103 0
M  V30 4450 C 404.938 -5.20816 1.16561 0
M  V30 4451 O 405.161 -5.70392 0.0295238 0
M  V30 4452 O 404.095 -5.68801 1.96849 0
M  V30 4453 H 407.921 -2.38202 1.88397 0
M  V30 4454 H 405.506 -1.12989 0.977433 0
M  V30 4455 H 407.388 -4.20687 0.245015 0
M  V30 4456 H 406.063 -3.21018 -0.415851 0
M  V30 4457 H 404.97 -3.22174 1.90144 0
M  V30 4458 H 406.303 -4.24879 2.48473 0
M  V30 4459 N 407.956 -0.998596 -1.21925 0
M  V30 4460 C 409.203 -0.677663 -1.90824 0
M  V30 4461 C 409.531 0.790905 -1.77693 0
M  V30 4462 O 408.786 1.58817 -1.14349 0
M  V30 4463 C 409.085 -1.03648 -3.42041 0
M  V30 4464 C 408.751 -2.49825 -3.75364 0
M  V30 4465 C 407.413 -2.8977 -3.8417 0
M  V30 4466 C 409.765 -3.44545 -3.91073 0
M  V30 4467 C 407.093 -4.23412 -4.06127 0
M  V30 4468 C 409.445 -4.77853 -4.14535 0
M  V30 4469 C 408.109 -5.17531 -4.21566 0
M  V30 4470 H 407.379 -0.247975 -0.698276 0
M  V30 4471 H 410.026 -1.25584 -1.44571 0
M  V30 4472 H 408.331 -0.376457 -3.89987 0
M  V30 4473 H 410.028 -0.766113 -3.93614 0
M  V30 4474 H 406.618 -2.17866 -3.69097 0
M  V30 4475 H 410.802 -3.14853 -3.83642 0
M  V30 4476 H 406.058 -4.53734 -4.09799 0
M  V30 4477 H 410.232 -5.51189 -4.25633 0
M  V30 4478 H 407.859 -6.21102 -4.38333 0
M  V30 4479 N 409.434 1.37368 -0.772513 0
M  V30 4480 C 410.674 2.01512 -0.342361 0
M  V30 4481 C 411.038 1.59997 1.06136 0
M  V30 4482 O 412.239 2.16609 1.59167 0
M  V30 4483 C 410.51 3.54134 -0.482048 0
M  V30 4484 S 412.069 4.38585 -0.137272 0
M  V30 4485 H 408.887 0.698699 -0.131686 0
M  V30 4486 H 411.489 1.67552 -1.0073 0
M  V30 4487 H 410.193 3.81837 -1.50428 0
M  V30 4488 H 409.724 3.92894 0.199413 0
M  V30 4489 H 411.739 4.84594 1.06692 0
M  V30 4490 N 410.912 0.523116 1.48665 0
M  V30 4491 C 411.842 -0.23231 2.32342 0
M  V30 4492 C 412.823 -0.941637 1.41659 0
M  V30 4493 O 414.008 -0.928751 1.70552 0
M  V30 4494 C 411.138 -1.28387 3.22698 0
M  V30 4495 C 410.092 -0.693098 4.22351 0
M  V30 4496 C 409.418 -1.8468 5.01794 0
M  V30 4497 C 410.718 0.33063 5.21252 0
M  V30 4498 H 412.412 0.466192 2.95748 0
M  V30 4499 H 409.958 0.225643 1.42221 0
M  V30 4500 H 411.911 -1.82024 3.80059 0
M  V30 4501 H 410.635 -2.01186 2.57278 0
M  V30 4502 H 409.294 -0.178299 3.66166 0
M  V30 4503 H 408.942 -2.56301 4.32804 0
M  V30 4504 H 408.642 -1.45747 5.69238 0
M  V30 4505 H 410.166 -2.38709 5.62006 0
M  V30 4506 H 411.58 -0.118407 5.73178 0
M  V30 4507 H 409.977 0.636974 5.9671 0
M  V30 4508 H 411.047 1.23883 4.68808 0
M  V30 4509 N 412.39 -1.55475 0.257931 0
M  V30 4510 C 413.806 -1.59307 -0.0966563 0
M  V30 4511 C 414.006 -1.27514 -1.5602 0
M  V30 4512 O 413.062 -1.02774 -2.30637 0
M  V30 4513 C 414.375 -2.99552 0.262481 0
M  V30 4514 C 415.923 -3.1231 0.207683 0
M  V30 4515 C 416.398 -4.54793 0.541012 0
M  V30 4516 N 417.889 -4.6058 0.491921 0
M  V30 4517 C 418.624 -5.68825 0.722857 0
M  V30 4518 N 418.12 -6.85287 1.0175 0
M  V30 4519 N 419.913 -5.58296 0.652815 0
M  V30 4520 H 412.064 -1.74409 1.21224 0
M  V30 4521 H 414.327 -0.812424 0.48854 0
M  V30 4522 H 414.033 -3.27593 1.27967 0
M  V30 4523 H 413.907 -3.75019 -0.40508 0
M  V30 4524 H 416.294 -2.84044 -0.800195 0
M  V30 4525 H 416.375 -2.39095 0.909255 0
M  V30 4526 H 416.019 -4.83783 1.5465 0
M  V30 4527 H 415.949 -5.26285 -0.18216 0
M  V30 4528 H 418.44 -3.7691 0.273366 0
M  V30 4529 H 418.753 -7.63725 1.18084 0
M  V30 4530 H 417.098 -6.86945 1.05509 0
M  V30 4531 H 420.289 -4.66189 0.422592 0
M  V30 4532 H 420.462 -6.42582 0.836182 0
M  V30 4533 N 413.868 0.0150385 -1.57593 0
M  V30 4534 C 415.115 0.703001 -1.89906 0
M  V30 4535 C 415.443 1.74604 -0.856944 0
M  V30 4536 O 414.698 1.95197 0.140287 0
M  V30 4537 C 414.997 1.39686 -3.28972 0
M  V30 4538 C 414.663 0.488457 -4.48246 0
M  V30 4539 C 413.325 0.2383 -4.8061 0
M  V30 4540 C 415.677 -0.137881 -5.21018 0
M  V30 4541 C 413.005 -0.646738 -5.83125 0
M  V30 4542 C 415.357 -1.0107 -6.24474 0
M  V30 4543 C 414.021 -1.27019 -6.55303 0
M  V30 4544 H 413.291 0.257246 -0.694914 0
M  V30 4545 H 415.938 -0.037259 -1.91464 0
M  V30 4546 H 414.243 2.21079 -3.23468 0
M  V30 4547 H 415.94 1.93495 -3.51227 0
M  V30 4548 H 412.53 0.693593 -4.22951 0
M  V30 4549 H 416.714 0.0423953 -4.96282 0
M  V30 4550 H 411.97 -0.855937 -6.05379 0
M  V30 4551 H 416.144 -1.50247 -6.79999 0
M  V30 4552 H 413.771 -1.95769 -7.3456 0
M  V30 4553 N 415.346 1.54954 0.287554 0
M  V30 4554 C 416.592 1.75132 1.02257 0
M  V30 4555 C 416.925 0.542858 1.86458 0
M  V30 4556 O 416.2 -0.459856 1.88986 0
M  V30 4557 C 416.483 3.04812 1.91733 0
M  V30 4558 C 416.336 4.35985 1.10622 0
M  V30 4559 C 417.655 3.30438 2.90687 0
M  V30 4560 H 414.774 0.637194 0.370341 0
M  V30 4561 H 417.416 1.87678 0.296111 0
M  V30 4562 H 415.566 2.94247 2.53675 0
M  V30 4563 H 417.238 4.58487 0.508636 0
M  V30 4564 H 415.481 4.31865 0.409271 0
M  V30 4565 H 416.152 5.23017 1.76513 0
M  V30 4566 H 418.628 3.40701 2.38877 0
M  V30 4567 H 417.504 4.22467 3.50447 0
M  V30 4568 H 417.765 2.49377 3.65053 0
M  V30 4569 N 416.824 -0.551391 1.4764 0
M  V30 4570 C 417.756 -1.67333 1.56628 0
M  V30 4571 C 418.769 -1.56398 0.452045 0
M  V30 4572 O 419.958 -1.6325 0.721926 0
M  V30 4573 C 417.058 -3.05841 1.45994 0
M  V30 4574 C 416.231 -3.42472 2.72088 0
M  V30 4575 C 415.29 -4.60168 2.55209 0
M  V30 4576 O 414.316 -4.64458 3.2904 0
M  V30 4577 N 415.518 -5.57024 1.63416 0
M  V30 4578 H 418.283 -1.60066 2.53375 0
M  V30 4579 H 415.844 -0.738169 1.44093 0
M  V30 4580 H 417.836 -3.8242 1.32428 0
M  V30 4581 H 416.406 -3.07302 0.573071 0
M  V30 4582 H 415.626 -2.55284 3.00373 0
M  V30 4583 H 416.914 -3.63723 3.55785 0
M  V30 4584 H 416.312 -5.56319 1.02594 0
M  V30 4585 H 414.869 -6.32906 1.558 0
M  V30 4586 N 418.302 -1.35869 -0.798587 0
M  V30 4587 C 419.265 -1.29307 -1.89242 0
M  V30 4588 C 420.265 -0.202747 -1.59517 0
M  V30 4589 O 421.455 -0.456957 -1.681 0
M  V30 4590 C 418.587 -1.00229 -3.25833 0
M  V30 4591 H 419.78 -2.26576 -1.96478 0
M  V30 4592 H 417.333 -1.20509 -0.995358 0
M  V30 4593 H 418.068 -0.033801 -3.24282 0
M  V30 4594 H 417.853 -1.79121 -3.48795 0
M  V30 4595 H 419.343 -0.98219 -4.05885 0
M  V30 4596 N 419.78 1.02168 -1.19998 0
M  V30 4597 C 420.712 2.10705 -0.901994 0
M  V30 4598 C 421.725 1.6244 0.108216 0
M  V30 4599 O 422.914 1.78082 -0.12214 0
M  V30 4600 C 420.014 3.37291 -0.329834 0
M  V30 4601 C 419.187 4.14714 -1.39035 0
M  V30 4602 C 418.246 5.19606 -0.830432 0
M  V30 4603 O 417.272 5.48809 -1.50989 0
M  V30 4604 N 418.474 5.79366 0.362696 0
M  V30 4605 H 421.239 2.36856 -1.83628 0
M  V30 4606 H 418.8 1.18518 -1.10296 0
M  V30 4607 H 420.792 4.04657 0.0587633 0
M  V30 4608 H 419.362 3.0843 0.508891 0
M  V30 4609 H 418.582 3.42392 -1.9535 0
M  V30 4610 H 419.87 4.63226 -2.10474 0
M  V30 4611 H 419.268 5.57968 0.932081 0
M  V30 4612 H 417.825 6.48106 0.69299 0
M  V30 4613 N 421.258 1.00505 1.21394 0
M  V30 4614 C 422.535 0.603277 1.86064 0
M  V30 4615 C 422.915 -0.919095 1.90042 0
M  V30 4616 O 422.263 -1.80607 1.39977 0
M  V30 4617 C 422.473 1.23772 3.26315 0
M  V30 4618 C 423.821 1.34586 4.02705 0
M  V30 4619 O 424.845 1.19304 3.35626 0
M  V30 4620 O 423.704 1.59169 5.22807 0
M  V30 4621 H 420.798 0.206634 0.800769 0
M  V30 4622 H 423.344 1.1017 1.29076 0
M  V30 4623 H 422.116 2.27848 3.18121 0
M  V30 4624 H 421.739 0.725648 3.90922 0
M  V30 4625 N 422.737 -1.36956 0.779787 0
M  V30 4626 C 423.684 -2.30175 0.169697 0
M  V30 4627 C 424.654 -1.51501 -0.68094 0
M  V30 4628 O 425.839 -1.80042 -0.631629 0
M  V30 4629 C 422.979 -3.37985 -0.697131 0
M  V30 4630 C 422.092 -4.31661 0.170992 0
M  V30 4631 C 421.227 -5.2655 -0.701298 0
M  V30 4632 C 420.266 -6.11867 0.168869 0
M  V30 4633 N 419.403 -6.98973 -0.661855 0
M  V30 4634 H 424.243 -2.81767 0.970135 0
M  V30 4635 H 421.78 -1.38699 0.489994 0
M  V30 4636 H 423.738 -3.99128 -1.2146 0
M  V30 4637 H 422.368 -2.87739 -1.46309 0
M  V30 4638 H 421.42 -3.71756 0.80634 0
M  V30 4639 H 422.732 -4.91644 0.841875 0
M  V30 4640 H 421.886 -5.92937 -1.28494 0
M  V30 4641 H 420.625 -4.66998 -1.40584 0
M  V30 4642 H 419.63 -5.44452 0.764986 0
M  V30 4643 H 420.855 -6.73493 0.870863 0
M  V30 4644 H 418.801 -6.41941 -1.35086 0
M  V30 4645 H 418.718 -7.55984 -0.0484447 0
M  V30 4646 H 419.986 -7.6974 -1.22963 0
M  V30 4647 N 424.215 -0.530993 -1.48385 0
M  V30 4648 C 425.455 0.000718982 -2.044 0
M  V30 4649 C 425.819 1.31485 -1.39913 0
M  V30 4650 O 427.02 1.93265 -1.86821 0
M  V30 4651 C 425.291 0.119177 -3.57201 0
M  V30 4652 S 426.85 0.600806 -4.34667 0
M  V30 4653 H 423.668 -0.0125473 -0.710889 0
M  V30 4654 H 426.27 -0.711783 -1.82082 0
M  V30 4655 H 424.974 -0.842061 -4.01668 0
M  V30 4656 H 424.505 0.856026 -3.83974 0
M  V30 4657 H 426.52 1.86514 -4.59812 0
M  V30 4658 N 425.693 1.55336 -0.266172 0
M  V30 4659 C 426.625 2.19544 0.658247 0
M  V30 4660 C 427.638 1.17746 1.12427 0
M  V30 4661 O 428.827 1.44517 1.04772 0
M  V30 4662 C 425.927 2.80032 1.9088 0
M  V30 4663 C 425.1 4.07436 1.59106 0
M  V30 4664 C 424.159 4.52056 2.69317 0
M  V30 4665 O 423.185 5.18023 2.35883 0
M  V30 4666 N 424.387 4.21448 3.99201 0
M  V30 4667 H 427.152 2.99503 0.108754 0
M  V30 4668 H 424.713 1.61667 -0.0869059 0
M  V30 4669 H 426.705 3.06831 2.63888 0
M  V30 4670 H 425.275 2.04119 2.36758 0
M  V30 4671 H 424.495 3.88021 0.695243 0
M  V30 4672 H 425.783 4.90462 1.35367 0
M  V30 4673 H 425.181 3.68528 4.29189 0
M  V30 4674 H 423.738 4.53039 4.68614 0
M  V30 4675 N 427.171 -0.0066808 1.57599 0
M  V30 4676 C 428.418 -0.69292 1.90276 0
M  V30 4677 C 428.746 -1.74148 0.866192 0
M  V30 4678 O 428.001 -1.95268 -0.129933 0
M  V30 4679 C 428.3 -1.37939 3.29708 0
M  V30 4680 C 427.966 -0.464679 4.48499 0
M  V30 4681 C 426.628 -0.212809 4.80729 0
M  V30 4682 C 428.98 0.16551 5.20937 0
M  V30 4683 C 426.308 0.677653 5.82773 0
M  V30 4684 C 428.66 1.04381 6.23929 0
M  V30 4685 C 427.324 1.30492 6.54621 0
M  V30 4686 H 426.594 -0.253558 0.696268 0
M  V30 4687 H 429.241 0.0474123 1.91441 0
M  V30 4688 H 427.546 -2.1936 3.24636 0
M  V30 4689 H 429.243 -1.9163 3.52249 0
M  V30 4690 H 425.833 -0.671153 4.23313 0
M  V30 4691 H 430.017 -0.0160756 4.96297 0
M  V30 4692 H 425.273 0.88803 6.04917 0
M  V30 4693 H 429.447 1.53851 6.79193 0
M  V30 4694 H 427.074 1.99662 7.33512 0
M  V30 4695 N 428.649 -1.55105 -0.279332 0
M  V30 4696 C 429.896 -1.75412 -1.01177 0
M  V30 4697 C 430.224 -0.551728 -1.86511 0
M  V30 4698 O 429.479 0.465919 -1.90073 0
M  V30 4699 C 429.778 -3.0086 -1.92919 0
M  V30 4700 C 429.444 -4.33689 -1.23387 0
M  V30 4701 C 428.106 -4.69792 -1.04159 0
M  V30 4702 C 430.458 -5.15941 -0.738562 0
M  V30 4703 C 427.786 -5.85707 -0.341166 0
M  V30 4704 C 430.138 -6.32579 -0.0517636 0
M  V30 4705 C 428.802 -6.67326 0.152292 0
M  V30 4706 H 428.072 -0.641879 -0.370233 0
M  V30 4707 H 430.719 -1.89373 -0.284627 0
M  V30 4708 H 429.024 -2.81773 -2.72234 0
M  V30 4709 H 430.721 -3.13768 -2.49701 0
M  V30 4710 H 427.311 -4.05309 -1.39364 0
M  V30 4711 H 431.495 -4.8853 -0.874764 0
M  V30 4712 H 426.751 -6.11157 -0.172287 0
M  V30 4713 H 430.925 -6.9557 0.339828 0
M  V30 4714 H 428.552 -7.56998 0.697014 0
M  V30 4715 N 430.127 0.543554 -1.4793 0
M  V30 4716 C 431.059 1.665 -1.57513 0
M  V30 4717 C 432.072 1.56156 -0.460333 0
M  V30 4718 O 433.261 1.62865 -0.730573 0
M  V30 4719 C 430.361 3.05063 -1.47614 0
M  V30 4720 C 429.534 3.41024 -2.739 0
M  V30 4721 C 428.593 4.58809 -2.57645 0
M  V30 4722 O 427.619 4.62707 -3.31498 0
M  V30 4723 N 428.821 5.56149 -1.66368 0
M  V30 4724 H 431.586 1.5872 -2.5422 0
M  V30 4725 H 429.147 0.730517 -1.44482 0
M  V30 4726 H 431.139 3.81712 -1.34455 0
M  V30 4727 H 429.709 3.06994 -0.589359 0
M  V30 4728 H 428.929 2.53687 -3.01723 0
M  V30 4729 H 430.217 3.61831 -3.57709 0
M  V30 4730 H 429.615 5.55767 -1.05543 0
M  V30 4731 H 428.172 6.32071 -1.59154 0
M  V30 4732 N 431.605 1.3629 0.791371 0
M  V30 4733 C 432.853 1.30154 1.5461 0
M  V30 4734 C 433.174 -0.119409 1.94634 0
M  V30 4735 O 432.444 -1.05924 1.64794 0
M  V30 4736 H 431.024 0.478784 0.573389 0
M  V30 4737 H 433.686 1.70565 0.94306 0
M  V30 4738 H 432.782 1.92762 2.45457 0
M  V30 4739 N 433.083 -1.0153 1.20538 0
M  V30 4740 C 434.494 -1.56598 1.01657 0
M  V30 4741 C 434.845 -1.91505 -0.426668 0
M  V30 4742 O 433.97 -1.72375 -1.30827 0
M  V30 4743 C 434.565 -2.84542 1.83905 0
M  V30 4744 C 433.124 -3.36133 1.69386 0
M  V30 4745 C 432.271 -2.09427 1.81757 0
M  V30 4746 H 435.222 -0.838974 1.34711 0
M  V30 4747 H 435.243 -3.56004 1.34319 0
M  V30 4748 H 434.755 -2.59105 2.8894 0
M  V30 4749 H 432.856 -3.66528 0.669933 0
M  V30 4750 H 432.969 -4.08248 2.50739 0
M  V30 4751 H 431.333 -2.21941 1.24957 0
M  V30 4752 H 432.116 -1.86414 2.88279 0
M  V30 4753 N 434.561 -1.01147 -1.20859 0
M  V30 4754 C 435.491 -0.597663 -2.25722 0
M  V30 4755 C 436.472 0.384744 -1.65692 0
M  V30 4756 O 437.657 0.271303 -1.92296 0
M  V30 4757 C 434.787 0.0700149 -3.47229 0
M  V30 4758 C 433.741 -0.832843 -4.19819 0
M  V30 4759 C 433.067 -0.0312202 -5.34691 0
M  V30 4760 C 434.367 -2.1385 -4.76514 0
M  V30 4761 H 436.061 -1.47423 -2.60589 0
M  V30 4762 H 433.607 -0.710301 -1.25263 0
M  V30 4763 H 435.56 0.37103 -4.19763 0
M  V30 4764 H 434.284 0.981259 -3.11511 0
M  V30 4765 H 432.943 -1.11778 -3.49144 0
M  V30 4766 H 432.591 0.881515 -4.95215 0
M  V30 4767 H 432.291 -0.632434 -5.84187 0
M  V30 4768 H 433.815 0.26346 -6.10031 0
M  V30 4769 H 435.229 -1.9002 -5.40893 0
M  V30 4770 H 433.626 -2.69012 -5.36426 0
M  V30 4771 H 434.696 -2.80495 -3.95538 0
M  V30 4772 N 436.039 1.36541 -0.78704 0
M  V30 4773 C 436.987 2.31965 -0.171724 0
M  V30 4774 C 437.981 1.55689 0.667631 0
M  V30 4775 O 439.187 1.70969 0.562981 0
M  V30 4776 H 435.562 0.751101 -0.0367545 0
M  V30 4777 H 437.533 2.81428 -0.992017 0
M  V30 4778 C 436.282 3.40968 0.680904 0
M  V30 4779 H 435.605 3.99775 0.0443961 0
M  V30 4780 H 437.045 4.10063 1.07815 0
M  V30 4781 C 435.504 2.82338 1.83813 0
M  V30 4782 O 436.034 2.74311 2.93456 0
M  V30 4783 N 434.24 2.39661 1.6435 0
M  V30 4784 H 433.787 2.46389 0.751668 0
M  V30 4785 H 433.745 2.00779 2.4194 0
M  V30 4786 N 437.518 0.538854 1.48102 0
M  V30 4787 C 438.767 0.0059532 2.01699 0
M  V30 4788 C 439.08 -1.34476 1.42041 0
M  V30 4789 O 440.286 -1.96653 1.87189 0
M  V30 4790 C 438.742 -0.0397627 3.59878 0
M  V30 4791 C 438.35 1.30659 4.28523 0
M  V30 4792 C 440.094 -0.521024 4.2129 0
M  V30 4793 C 438.001 1.22098 5.78659 0
M  V30 4794 H 436.931 -0.00154456 0.753998 0
M  V30 4795 H 439.582 0.683963 1.70277 0
M  V30 4796 H 437.964 -0.783037 3.88181 0
M  V30 4797 H 439.138 2.06613 4.11883 0
M  V30 4798 H 437.453 1.7243 3.79021 0
M  V30 4799 H 440.05 -0.603184 5.31287 0
M  V30 4800 H 440.393 -1.52885 3.8721 0
M  V30 4801 H 440.926 0.166834 3.9745 0
M  V30 4802 H 437.665 2.20424 6.17328 0
M  V30 4803 H 437.185 0.50295 5.97688 0
M  V30 4804 H 438.864 0.915345 6.40492 0
M  V30 4805 N 438.996 -1.55193 0.274407 0
M  V30 4806 C 440.245 -1.98758 -0.343213 0
M  V30 4807 C 440.558 -1.16624 -1.5703 0
M  V30 4808 O 441.764 -1.5033 -2.26082 0
M  V30 4809 C 440.22 -3.53759 -0.661996 0
M  V30 4810 C 439.828 -4.4467 0.54524 0
M  V30 4811 C 441.572 -4.05916 -1.24228 0
M  V30 4812 C 439.479 -5.91058 0.201084 0
M  V30 4813 H 438.409 -0.742353 -0.132014 0
M  V30 4814 H 441.06 -1.79545 0.378948 0
M  V30 4815 H 439.442 -3.68772 -1.44304 0
M  V30 4816 H 440.616 -4.41426 1.32212 0
M  V30 4817 H 438.931 -4.03143 1.04232 0
M  V30 4818 H 441.528 -5.12831 -1.51357 0
M  V30 4819 H 441.871 -3.54908 -2.17592 0
M  V30 4820 H 442.404 -3.9434 -0.523542 0
M  V30 4821 H 439.143 -6.46161 1.10258 0
M  V30 4822 H 438.663 -5.97373 -0.539045 0
M  V30 4823 H 440.342 -6.46669 -0.206954 0
M  V30 4824 N 440.474 -0.00167713 -1.576 0
M  V30 4825 C 441.751 0.719951 -1.81868 0
M  V30 4826 C 442.131 1.91895 -0.879747 0
M  V30 4827 O 441.479 2.28389 0.0711423 0
M  V30 4828 C 441.689 1.12409 -3.30402 0
M  V30 4829 C 443.037 1.52724 -3.96182 0
M  V30 4830 O 444.061 1.21784 -3.34734 0
M  V30 4831 O 442.92 2.10265 -5.04431 0
M  V30 4832 H 440.014 0.350707 -0.748955 0
M  V30 4833 H 442.56 -0.0272597 -1.69678 0
M  V30 4834 H 441.332 0.269532 -3.90371 0
M  V30 4835 H 440.955 1.93035 -3.47596 0
M  V30 4836 N 441.952 1.55251 0.271103 0
M  V30 4837 C 443.201 1.75151 1.00025 0
M  V30 4838 C 443.514 0.561041 1.87381 0
M  V30 4839 O 444.72 0.642506 2.63788 0
M  V30 4840 C 443.176 3.09999 1.82835 0
M  V30 4841 C 442.784 4.3662 1.00336 0
M  V30 4842 C 444.528 3.39249 2.55168 0
M  V30 4843 C 442.435 5.62506 1.82595 0
M  V30 4844 H 441.365 0.652877 0.377183 0
M  V30 4845 H 444.016 1.81708 0.255843 0
M  V30 4846 H 442.398 2.97485 2.61378 0
M  V30 4847 H 443.572 4.60055 0.261959 0
M  V30 4848 H 441.887 4.14527 0.394486 0
M  V30 4849 H 444.484 4.3051 3.1712 0
M  V30 4850 H 444.827 2.59467 3.2555 0
M  V30 4851 H 445.36 3.52869 1.83653 0
M  V30 4852 H 442.099 6.45041 1.16631 0
M  V30 4853 H 441.619 5.43211 2.54327 0
M  V30 4854 H 443.298 6.00875 2.39913 0
M  V30 4855 N 443.43 -0.535701 1.48216 0
M  V30 4856 C 444.36 -1.65014 1.65204 0
M  V30 4857 C 445.341 -1.62554 0.501011 0
M  V30 4858 O 446.526 -1.7984 0.732886 0
M  V30 4859 C 443.656 -3.03616 1.68626 0
M  V30 4860 C 442.61 -3.20932 2.83172 0
M  V30 4861 C 441.936 -4.60537 2.71679 0
M  V30 4862 C 443.236 -3.04249 4.24535 0
M  V30 4863 H 444.93 -1.51053 2.58502 0
M  V30 4864 H 442.476 -0.725262 1.24402 0
M  V30 4865 H 444.429 -3.81446 1.79099 0
M  V30 4866 H 443.153 -3.18587 0.719026 0
M  V30 4867 H 441.812 -2.45517 2.72244 0
M  V30 4868 H 441.46 -4.72336 1.72937 0
M  V30 4869 H 441.16 -4.73069 3.48538 0
M  V30 4870 H 442.684 -5.40475 2.84112 0
M  V30 4871 H 444.098 -3.71877 4.36326 0
M  V30 4872 H 442.495 -3.28278 5.02348 0
M  V30 4873 H 443.565 -2.00739 4.41397 0
M  V30 4874 N 444.908 -1.36708 -0.784132 0
M  V30 4875 C 445.871 -1.31307 -1.87859 0
M  V30 4876 C 446.871 -0.219654 -1.59293 0
M  V30 4877 O 448.061 -0.47476 -1.67606 0
M  V30 4878 C 445.193 -1.03679 -3.24751 0
M  V30 4879 H 446.386 -2.28647 -1.94064 0
M  V30 4880 H 443.939 -1.21558 -0.98252 0
M  V30 4881 H 444.674 -0.0681936 -3.24228 0
M  V30 4882 H 444.459 -1.82811 -3.46876 0
M  V30 4883 H 445.949 -1.02518 -4.04821 0
M  V30 4884 N 446.386 1.0089 -1.21074 0
M  V30 4885 C 447.635 1.74019 -1.01981 0
M  V30 4886 C 447.948 1.90408 0.447665 0
M  V30 4887 O 449.154 2.60707 0.757906 0
M  V30 4888 C 447.61 3.13026 -1.77603 0
M  V30 4889 C 447.218 3.04623 -3.28495 0
M  V30 4890 C 448.962 3.90312 -1.66904 0
M  V30 4891 C 446.869 4.38685 -3.96623 0
M  V30 4892 H 445.799 0.652422 -0.377971 0
M  V30 4893 H 448.45 1.12755 -1.44771 0
M  V30 4894 H 446.832 3.74878 -1.27604 0
M  V30 4895 H 448.006 2.52032 -3.85767 0
M  V30 4896 H 446.321 2.40827 -3.39693 0
M  V30 4897 H 448.918 4.8951 -2.15138 0
M  V30 4898 H 449.261 4.11558 -0.62658 0
M  V30 4899 H 449.794 3.35104 -2.14359 0
M  V30 4900 H 446.533 4.22641 -5.01054 0
M  V30 4901 H 446.053 4.91252 -3.4414 0
M  V30 4902 H 447.732 5.075 -4.01314 0
M  V30 4903 N 447.864 1.01787 1.20321 0
M  V30 4904 C 449.089 0.727009 1.9424 0
M  V30 4905 C 449.514 -0.706179 1.74341 0
M  V30 4906 O 448.872 -1.48609 1.03852 0
M  V30 4907 C 448.92 1.06958 3.44372 0
M  V30 4908 O 448.024 0.181983 4.11998 0
M  V30 4909 H 447.365 0.269626 0.606793 0
M  V30 4910 H 449.895 1.36158 1.52716 0
M  V30 4911 H 449.905 1.02182 3.94997 0
M  V30 4912 H 448.58 2.11378 3.58179 0
M  V30 4913 H 447.157 0.287378 3.71791 0
M  V30 4914 N 449.342 -1.36122 0.79427 0
M  V30 4915 C 450.753 -1.81646 0.431446 0
M  V30 4916 C 451.104 -1.66043 -1.04518 0
M  V30 4917 O 450.229 -1.1841 -1.8113 0
M  V30 4918 C 450.824 -3.29785 0.776341 0
M  V30 4919 C 449.383 -3.73501 0.466282 0
M  V30 4920 C 448.53 -2.58313 1.00844 0
M  V30 4921 H 451.481 -1.24274 0.986995 0
M  V30 4922 H 451.502 -3.80437 0.0692413 0
M  V30 4923 H 451.014 -3.4111 1.8511 0
M  V30 4924 H 449.115 -3.67733 -0.600245 0
M  V30 4925 H 449.228 -4.68754 0.990288 0
M  V30 4926 H 447.592 -2.5102 0.431406 0
M  V30 4927 H 448.375 -2.72421 2.08906 0
M  V30 4928 N 450.82 -0.546701 -1.47814 0
M  V30 4929 C 452.05 -0.0232519 -2.06587 0
M  V30 4930 C 452.458 1.2712 -1.40133 0
M  V30 4931 O 451.801 1.77091 -0.488305 0
M  V30 4932 C 451.863 0.254117 -3.58601 0
M  V30 4933 C 451.527 -0.949331 -4.47031 0
M  V30 4934 C 452.524 -1.85216 -4.85789 0
M  V30 4935 C 450.209 -1.16104 -4.88697 0
M  V30 4936 C 452.203 -2.95047 -5.65001 0
M  V30 4937 C 449.89 -2.26247 -5.67676 0
M  V30 4938 C 450.888 -3.1555 -6.05737 0
M  V30 4939 O 450.576 -4.23784 -6.83127 0
M  V30 4940 H 450.308 -0.0380082 -0.674931 0
M  V30 4941 H 452.862 -0.756631 -1.90956 0
M  V30 4942 H 451.092 1.04168 -3.72406 0
M  V30 4943 H 452.781 0.72167 -3.99433 0
M  V30 4944 H 453.547 -1.70061 -4.54207 0
M  V30 4945 H 449.426 -0.475159 -4.58545 0
M  V30 4946 H 452.97 -3.64778 -5.94628 0
M  V30 4947 H 448.867 -2.41379 -5.98671 0
M  V30 4948 H 449.635 -4.21701 -7.01506 0
M  V30 4949 N 452.299 1.55045 -0.282633 0
M  V30 4950 C 453.529 2.03872 0.334635 0
M  V30 4951 C 453.937 1.16018 1.49454 0
M  V30 4952 O 453.28 0.174449 1.8287 0
M  V30 4953 C 453.342 3.48791 0.870905 0
M  V30 4954 C 453.006 4.56715 -0.161338 0
M  V30 4955 C 454.003 5.10513 -0.983466 0
M  V30 4956 C 451.688 5.01417 -0.297745 0
M  V30 4957 C 453.682 6.07538 -1.92811 0
M  V30 4958 C 451.369 5.98265 -1.24586 0
M  V30 4959 C 452.367 6.51208 -2.05954 0
M  V30 4960 O 452.055 7.46162 -2.99162 0
M  V30 4961 H 451.787 0.671324 0.0793742 0
M  V30 4962 H 454.341 2.01169 -0.41473 0
M  V30 4963 H 452.571 3.48758 1.67047 0
M  V30 4964 H 454.26 3.80916 1.40207 0
M  V30 4965 H 455.026 4.76785 -0.888856 0
M  V30 4966 H 450.905 4.59849 0.325604 0
M  V30 4967 H 454.449 6.48787 -2.56363 0
M  V30 4968 H 450.346 6.31412 -1.34126 0
M  V30 4969 H 451.114 7.63903 -2.93929 0
M  V30 4970 N 453.777 0.010035 1.57597 0
M  V30 4971 C 455.023 -0.673697 1.91283 0
M  V30 4972 C 455.356 -1.72863 0.884979 0
M  V30 4973 O 454.631 -1.94268 -0.0949487 0
M  V30 4974 C 454.914 -1.30766 3.35518 0
M  V30 4975 C 454.767 -0.263578 4.49027 0
M  V30 4976 C 456.086 -2.23105 3.79358 0
M  V30 4977 H 453.205 -0.243439 0.695634 0
M  V30 4978 H 455.847 0.0633864 1.89894 0
M  V30 4979 H 453.997 -1.93588 3.36832 0
M  V30 4980 H 455.669 0.365738 4.59848 0
M  V30 4981 H 453.912 0.413077 4.31829 0
M  V30 4982 H 454.583 -0.746398 5.4693 0
M  V30 4983 H 457.059 -1.70289 3.79659 0
M  V30 4984 H 455.935 -2.64424 4.81011 0
M  V30 4985 H 456.196 -3.11433 3.13787 0
M  V30 4986 N 455.255 -1.55392 -0.262866 0
M  V30 4987 C 456.48 -1.80847 -1.01533 0
M  V30 4988 C 456.905 -0.584946 -1.78774 0
M  V30 4989 O 456.263 0.465701 -1.75217 0
M  V30 4990 C 456.311 -3.03866 -1.94159 0
M  V30 4991 O 455.415 -2.79662 -3.03089 0
M  V30 4992 H 454.756 -0.597441 -0.289759 0
M  V30 4993 H 457.286 -2.02553 -0.288698 0
M  V30 4994 H 457.296 -3.32872 -2.35924 0
M  V30 4995 H 455.971 -3.92564 -1.37354 0
M  V30 4996 H 454.548 -2.61781 -2.65566 0
M  V30 4997 N 456.733 0.527833 -1.48498 0
M  V30 4998 C 457.663 1.64136 -1.66077 0
M  V30 4999 C 458.644 1.62286 -0.509625 0
M  V30 5000 O 459.829 1.79449 -0.742413 0
M  V30 5001 C 456.959 3.02717 -1.70234 0
M  V30 5002 C 455.913 3.19426 -2.8487 0
M  V30 5003 C 455.239 4.5909 -2.74118 0
M  V30 5004 C 456.539 3.01993 -4.26142 0
M  V30 5005 H 458.233 1.4968 -2.593 0
M  V30 5006 H 455.779 0.718654 -1.24785 0
M  V30 5007 H 457.732 3.80491 -1.8112 0
M  V30 5008 H 456.456 3.18201 -0.735911 0
M  V30 5009 H 455.115 2.4407 -2.73542 0
M  V30 5010 H 454.763 4.71413 -1.7544 0
M  V30 5011 H 454.463 4.71214 -3.51042 0
M  V30 5012 H 455.987 5.3896 -2.86974 0
M  V30 5013 H 457.401 3.69558 -4.38292 0
M  V30 5014 H 455.798 3.2561 -5.04082 0
M  V30 5015 H 456.868 1.98396 -4.42456 0
M  V30 5016 N 458.211 1.37122 0.776871 0
M  V30 5017 C 459.174 1.32301 1.8716 0
M  V30 5018 C 460.174 0.228099 1.59174 0
M  V30 5019 O 461.364 0.483642 1.67352 0
M  V30 5020 C 458.496 1.054 3.24197 0
M  V30 5021 H 459.689 2.29673 1.92848 0
M  V30 5022 H 457.242 1.22077 0.97606 0
M  V30 5023 H 457.977 0.0853872 3.24188 0
M  V30 5024 H 457.762 1.84648 3.45901 0
M  V30 5025 H 459.252 1.04664 4.04271 0
M  V30 5026 N 459.689 -1.00246 1.21608 0
M  V30 5027 C 460.935 -1.74319 1.03638 0
M  V30 5028 C 461.268 -1.89408 -0.428749 0
M  V30 5029 O 460.543 -1.43026 -1.3181 0
M  V30 5030 C 460.826 -3.15431 1.73711 0
M  V30 5031 C 460.679 -3.08049 3.27759 0
M  V30 5032 C 461.998 -4.14407 1.48173 0
M  V30 5033 H 459.117 -0.632741 0.377899 0
M  V30 5034 H 461.759 -1.16853 1.49818 0
M  V30 5035 H 459.909 -3.64493 1.34452 0
M  V30 5036 H 461.581 -2.66681 3.76403 0
M  V30 5037 H 459.824 -2.45088 3.57931 0
M  V30 5038 H 460.495 -4.07862 3.71958 0
M  V30 5039 H 462.971 -3.74061 1.82258 0
M  V30 5040 H 461.847 -5.11279 1.99713 0
M  V30 5041 H 462.108 -4.40174 0.412273 0
M  V30 5042 N 461.167 -1.02423 -1.1978 0
M  V30 5043 C 462.392 -0.7373 -1.93852 0
M  V30 5044 C 462.817 0.696923 -1.74713 0
M  V30 5045 O 462.175 1.48056 -1.04638 0
M  V30 5046 C 462.223 -1.08783 -3.438 0
M  V30 5047 O 461.327 -0.20383 -4.11896 0
M  V30 5048 H 460.668 -0.27284 -0.605355 0
M  V30 5049 H 463.198 -1.36966 -1.51992 0
M  V30 5050 H 463.208 -1.04276 -3.9445 0
M  V30 5051 H 461.883 -2.13274 -3.57053 0
M  V30 5052 H 460.46 -0.307091 -3.71633 0
M  V30 5053 N 462.645 1.35699 -0.801477 0
M  V30 5054 C 463.555 2.33661 -0.209691 0
M  V30 5055 C 464.571 1.6162 0.644591 0
M  V30 5056 O 465.747 1.93529 0.557545 0
M  V30 5057 C 462.812 3.40816 0.636033 0
M  V30 5058 C 461.873 4.28639 -0.238147 0
M  V30 5059 C 461.106 5.30676 0.567307 0
M  V30 5060 O 461.329 5.41174 1.8024 0
M  V30 5061 O 460.263 6.01887 -0.0391336 0
M  V30 5062 H 464.089 2.8606 -1.01996 0
M  V30 5063 H 461.674 1.38379 -0.563164 0
M  V30 5064 H 463.556 4.06301 1.11791 0
M  V30 5065 H 462.231 2.90696 1.42399 0
M  V30 5066 H 461.138 3.66152 -0.767044 0
M  V30 5067 H 462.471 4.82143 -0.989915 0
M  V30 5068 N 464.123 0.554532 1.47522 0
M  V30 5069 C 465.033 -0.197865 2.33764 0
M  V30 5070 C 466.049 -0.914576 1.48025 0
M  V30 5071 O 467.225 -0.884067 1.80959 0
M  V30 5072 C 464.29 -1.21628 3.24665 0
M  V30 5073 C 463.351 -0.507283 4.26292 0
M  V30 5074 C 462.584 -1.47718 5.1285 0
M  V30 5075 O 462.807 -2.7118 5.01814 0
M  V30 5076 O 461.741 -1.00313 5.93482 0
M  V30 5077 H 465.567 0.50949 2.99396 0
M  V30 5078 H 463.152 0.315176 1.46038 0
M  V30 5079 H 465.034 -1.80421 3.80823 0
M  V30 5080 H 463.709 -1.9056 2.61665 0
M  V30 5081 H 462.616 0.121778 3.73902 0
M  V30 5082 H 463.949 0.140544 4.91999 0
M  V30 5083 N 465.601 -1.54893 0.290851 0
M  V30 5084 C 467.012 -1.85584 -0.203816 0
M  V30 5085 C 467.363 -1.21285 -1.54222 0
M  V30 5086 O 466.488 -0.506841 -2.10381 0
M  V30 5087 C 467.083 -3.367 -0.376595 0
M  V30 5088 C 465.642 -3.6746 -0.815485 0
M  V30 5089 C 464.789 -2.77178 0.0821087 0
M  V30 5090 H 467.74 -1.50208 0.512175 0
M  V30 5091 H 467.761 -3.60656 -1.21275 0
M  V30 5092 H 467.273 -3.8347 0.59767 0
M  V30 5093 H 465.374 -3.26201 -1.80066 0
M  V30 5094 H 465.487 -4.7478 -0.641905 0
M  V30 5095 H 463.851 -2.50925 -0.436895 0
M  V30 5096 H 464.634 -3.26767 1.05254 0
M  V30 5097 N 467.08 -0.0183926 -1.57589 0
M  V30 5098 C 468.491 0.521927 -1.79256 0
M  V30 5099 C 468.842 1.72885 -0.927636 0
M  V30 5100 O 467.967 2.15978 -0.135091 0
M  V30 5101 C 468.562 0.953632 -3.25102 0
M  V30 5102 C 467.121 1.43913 -3.47801 0
M  V30 5103 C 466.268 0.398837 -2.74417 0
M  V30 5104 H 469.219 -0.244485 -1.56805 0
M  V30 5105 H 469.24 1.81863 -3.34224 0
M  V30 5106 H 468.752 0.0750123 -3.88028 0
M  V30 5107 H 466.853 2.33804 -2.90115 0
M  V30 5108 H 466.966 1.45391 -4.56507 0
M  V30 5109 H 465.33 0.864572 -2.39577 0
M  V30 5110 H 466.113 -0.471132 -3.40052 0
M  V30 5111 N 468.558 1.5553 0.254621 0
M  V30 5112 C 469.468 1.92789 1.33677 0
M  V30 5113 C 470.484 0.827356 1.53071 0
M  V30 5114 O 471.66 1.12807 1.66843 0
M  V30 5115 C 468.725 2.20827 2.67275 0
M  V30 5116 C 467.786 3.4427 2.5647 0
M  V30 5117 C 467.019 3.70961 3.83697 0
M  V30 5118 O 467.242 2.99852 4.85227 0
M  V30 5119 O 466.176 4.64491 3.82794 0
M  V30 5120 H 470.002 2.84945 1.05071 0
M  V30 5121 H 467.587 1.42312 0.454723 0
M  V30 5122 H 469.469 2.40204 3.46237 0
M  V30 5123 H 468.144 1.31851 2.9563 0
M  V30 5124 H 467.051 3.30209 1.75821 0
M  V30 5125 H 468.384 4.33524 2.33062 0
M  V30 5126 N 470.036 -0.519951 1.48776 0
M  V30 5127 C 471.313 -1.28123 1.47797 0
M  V30 5128 C 471.693 -2.10196 0.195157 0
M  V30 5129 O 471.041 -2.13167 -0.822925 0
M  V30 5130 C 471.251 -2.15413 2.74587 0
M  V30 5131 C 472.599 -2.75225 3.23321 0
M  V30 5132 O 473.623 -2.25694 2.75574 0
M  V30 5133 O 472.482 -3.65346 4.06429 0
M  V30 5134 H 469.576 -0.578793 0.590701 0
M  V30 5135 H 472.122 -0.535779 1.6102 0
M  V30 5136 H 470.894 -1.54617 3.59457 0
M  V30 5137 H 470.517 -2.97186 2.64132 0
M  V30 5138 N 471.514 -1.37532 -0.769588 0
M  V30 5139 C 472.762 -1.32597 -1.5252 0
M  V30 5140 C 473.083 0.0884294 -1.94799 0
M  V30 5141 O 472.353 1.03289 -1.66458 0
M  V30 5142 H 470.933 -0.487846 -0.565699 0
M  V30 5143 H 473.595 -1.72044 -0.915806 0
M  V30 5144 H 472.691 -1.96643 -2.42359 0
M  V30 5145 N 472.992 0.995999 -1.22138 0
M  V30 5146 C 473.902 2.11985 -1.00496 0
M  V30 5147 C 474.918 1.7394 0.0457701 0
M  V30 5148 O 476.094 2.00868 -0.146273 0
M  V30 5149 C 473.159 3.41779 -0.582086 0
M  V30 5150 C 472.22 3.93943 -1.70608 0
M  V30 5151 C 471.453 5.17542 -1.30328 0
M  V30 5152 O 471.676 5.70114 -0.180743 0
M  V30 5153 O 470.61 5.63382 -2.11861 0
M  V30 5154 H 474.436 2.33123 -1.94647 0
M  V30 5155 H 472.021 1.10358 -1.00705 0
M  V30 5156 H 473.903 4.1989 -0.356467 0
M  V30 5157 H 472.578 3.22007 0.330592 0
M  V30 5158 H 471.485 3.17019 -1.98619 0
M  V30 5159 H 472.818 4.18141 -2.59651 0
M  V30 5160 N 474.47 1.03057 1.19235 0
M  V30 5161 C 475.886 0.747947 1.40989 0
M  V30 5162 C 476.086 -0.666752 1.90149 0
M  V30 5163 O 475.142 -1.43249 2.07933 0
M  V30 5164 C 476.455 1.7855 2.41951 0
M  V30 5165 C 478.003 1.80524 2.55695 0
M  V30 5166 C 478.478 2.83243 3.59913 0
M  V30 5167 N 479.969 2.8207 3.67411 0
M  V30 5168 C 480.704 3.58204 4.47747 0
M  V30 5169 N 480.2 4.44057 5.31775 0
M  V30 5170 N 481.993 3.46738 4.42413 0
M  V30 5171 H 474.144 1.94367 0.856468 0
M  V30 5172 H 476.407 0.840412 0.438647 0
M  V30 5173 H 476.113 2.79973 2.12857 0
M  V30 5174 H 475.987 1.6092 3.41152 0
M  V30 5175 H 478.374 0.79778 2.84112 0
M  V30 5176 H 478.455 2.02229 1.56643 0
M  V30 5177 H 478.099 3.84161 3.32239 0
M  V30 5178 H 478.029 2.58795 4.5862 0
M  V30 5179 H 480.52 2.19803 3.074 0
M  V30 5180 H 480.833 4.98884 5.90199 0
M  V30 5181 H 479.178 4.48129 5.3123 0
M  V30 5182 H 482.369 2.79077 3.75811 0
M  V30 5183 H 482.542 4.06322 5.04783 0
M  V30 5184 N 475.948 -1.35272 0.808662 0
M  V30 5185 C 477.359 -1.81179 0.450688 0
M  V30 5186 C 477.71 -1.67143 -1.02751 0
M  V30 5187 O 476.835 -1.20325 -1.79864 0
M  V30 5188 C 477.43 -3.28943 0.811275 0
M  V30 5189 C 475.989 -3.72985 0.505871 0
M  V30 5190 C 475.136 -2.57229 1.03578 0
M  V30 5191 H 478.087 -1.2322 1.00012 0
M  V30 5192 H 478.108 -3.80342 0.109588 0
M  V30 5193 H 477.62 -3.39127 1.88718 0
M  V30 5194 H 475.721 -3.68349 -0.561209 0
M  V30 5195 H 475.834 -4.67677 1.03995 0
M  V30 5196 H 474.198 -2.50548 0.458005 0
M  V30 5197 H 474.981 -2.7019 2.11784 0
M  V30 5198 N 477.426 -0.562348 -1.47226 0
M  V30 5199 C 478.651 -0.0432632 -2.07355 0
M  V30 5200 C 479.076 1.24332 -1.41149 0
M  V30 5201 O 478.434 1.74603 -0.488226 0
M  V30 5202 C 478.482 0.130288 -3.60365 0
M  V30 5203 O 477.586 1.19166 -3.94808 0
M  V30 5204 H 476.927 -0.0536334 -0.66183 0
M  V30 5205 H 479.457 -0.779495 -1.89169 0
M  V30 5206 H 479.467 0.342881 -4.06557 0
M  V30 5207 H 478.142 -0.809389 -4.07948 0
M  V30 5208 H 476.719 0.959153 -3.60354 0
M  V30 5209 N 478.904 1.54736 -0.299062 0
M  V30 5210 C 480.152 1.99706 0.31017 0
M  V30 5211 C 480.473 1.18896 1.54559 0
M  V30 5212 O 479.743 0.284445 1.93824 0
M  V30 5213 H 478.323 0.737686 0.117596 0
M  V30 5214 H 480.985 1.9054 -0.409943 0
M  V30 5215 H 480.081 3.06596 0.58355 0
M  V30 5216 N 480.382 0.0267497 1.57577 0
M  V30 5217 C 481.607 -0.666227 1.96408 0
M  V30 5218 C 482.032 -1.65004 0.903071 0
M  V30 5219 O 481.39 -1.80787 -0.136263 0
M  V30 5220 C 481.438 -1.35101 3.34335 0
M  V30 5221 O 480.542 -2.46623 3.30531 0
M  V30 5222 H 479.883 -0.175206 0.640468 0
M  V30 5223 H 482.413 0.0878977 2.04411 0
M  V30 5224 H 482.423 -1.70834 3.70513 0
M  V30 5225 H 481.098 -0.629844 4.11103 0
M  V30 5226 H 479.675 -2.13019 3.06068 0
M  V30 5227 N 481.861 -1.55662 -0.24637 0
M  V30 5228 C 483.086 -1.81914 -0.996093 0
M  V30 5229 C 483.511 -0.603875 -1.78143 0
M  V30 5230 O 482.869 0.447091 -1.75701 0
M  V30 5231 C 482.917 -3.05908 -1.90925 0
M  V30 5232 O 482.021 -2.82861 -3.00105 0
M  V30 5233 H 481.362 -0.600481 -0.283406 0
M  V30 5234 H 483.892 -2.02848 -0.267199 0
M  V30 5235 H 483.902 -3.35356 -2.3238 0
M  V30 5236 H 482.577 -3.93999 -1.33183 0
M  V30 5237 H 481.154 -2.64583 -2.62775 0
M  V30 5238 N 483.339 0.512053 -1.4905 0
M  V30 5239 C 484.569 1.28928 -1.61434 0
M  V30 5240 C 484.977 1.87107 -0.280647 0
M  V30 5241 O 484.32 1.68024 0.742537 0
M  V30 5242 C 484.382 2.466 -2.61588 0
M  V30 5243 C 484.046 2.09375 -4.06216 0
M  V30 5244 C 485.043 1.63994 -4.93358 0
M  V30 5245 C 482.728 2.19348 -4.51876 0
M  V30 5246 C 484.722 1.29076 -6.24194 0
M  V30 5247 C 482.409 1.84041 -5.82728 0
M  V30 5248 C 483.407 1.38978 -6.68711 0
M  V30 5249 O 483.095 1.04144 -7.97126 0
M  V30 5250 H 482.827 0.397668 -0.546659 0
M  V30 5251 H 485.381 0.622507 -1.9574 0
M  V30 5252 H 483.611 3.16318 -2.22441 0
M  V30 5253 H 485.3 3.08642 -2.63619 0
M  V30 5254 H 486.066 1.55744 -4.59313 0
M  V30 5255 H 481.945 2.53376 -3.85125 0
M  V30 5256 H 485.489 0.938303 -6.91261 0
M  V30 5257 H 481.386 1.91938 -6.16304 0
M  V30 5258 H 482.154 1.17387 -8.10039 0
M  V30 5259 N 484.817 1.37938 0.762283 0
M  V30 5260 C 485.747 1.37176 1.88958 0
M  V30 5261 C 486.728 0.238945 1.68413 0
M  V30 5262 O 487.913 0.440726 1.89133 0
M  V30 5263 C 485.043 1.18742 3.2637 0
M  V30 5264 C 483.997 2.29136 3.61498 0
M  V30 5265 C 483.323 1.95816 4.97554 0
M  V30 5266 C 484.623 3.71363 3.6727 0
M  V30 5267 H 486.317 2.31509 1.89853 0
M  V30 5268 H 483.863 1.11438 0.912005 0
M  V30 5269 H 485.816 1.16837 4.04879 0
M  V30 5270 H 484.54 0.208683 3.25933 0
M  V30 5271 H 483.199 2.30213 2.85303 0
M  V30 5272 H 482.847 0.964475 4.93667 0
M  V30 5273 H 482.547 2.69745 5.22026 0
M  V30 5274 H 484.071 1.95513 5.78452 0
M  V30 5275 H 485.485 3.72364 4.35911 0
M  V30 5276 H 483.882 4.44425 4.03245 0
M  V30 5277 H 484.952 4.04305 2.67704 0
M  V30 5278 N 486.295 -0.989507 1.22664 0
M  V30 5279 C 487.205 -2.11449 1.01619 0
M  V30 5280 C 488.221 -1.73962 -0.036545 0
M  V30 5281 O 489.397 -2.00788 0.156924 0
M  V30 5282 C 486.462 -3.41465 0.600204 0
M  V30 5283 C 485.523 -3.93033 1.72695 0
M  V30 5284 C 484.756 -5.16844 1.33071 0
M  V30 5285 O 484.979 -5.7001 0.210975 0
M  V30 5286 O 483.913 -5.6225 2.14845 0
M  V30 5287 H 487.739 -2.32088 1.9588 0
M  V30 5288 H 485.324 -1.09823 1.01289 0
M  V30 5289 H 487.206 -4.19695 0.37873 0
M  V30 5290 H 485.881 -3.22178 -0.313511 0
M  V30 5291 H 484.788 -3.15961 2.00298 0
M  V30 5292 H 486.121 -4.16758 2.61865 0
M  V30 5293 N 487.773 -1.03688 -1.18687 0
M  V30 5294 C 488.72 -0.624624 -2.22187 0
M  V30 5295 C 489.69 0.365636 -1.62026 0
M  V30 5296 O 490.875 0.260481 -1.89014 0
M  V30 5297 C 488.015 0.0101738 -3.45099 0
M  V30 5298 C 487.128 -1.02709 -4.19613 0
M  V30 5299 C 486.263 -0.361213 -5.2997 0
M  V30 5300 C 485.302 -1.38384 -5.96252 0
M  V30 5301 N 484.439 -0.743196 -6.98155 0
M  V30 5302 H 489.279 -1.51176 -2.56807 0
M  V30 5303 H 486.816 -0.75636 -1.26165 0
M  V30 5304 H 488.774 0.395528 -4.15321 0
M  V30 5305 H 487.404 0.860848 -3.1111 0
M  V30 5306 H 486.456 -1.53043 -3.48256 0
M  V30 5307 H 487.768 -1.80398 -4.65036 0
M  V30 5308 H 486.922 0.0785537 -6.06649 0
M  V30 5309 H 485.661 0.447799 -4.8564 0
M  V30 5310 H 484.666 -1.83378 -5.18317 0
M  V30 5311 H 485.891 -2.19448 -6.42666 0
M  V30 5312 H 483.837 0.0455789 -6.55984 0
M  V30 5313 H 483.754 -1.45784 -7.41811 0
M  V30 5314 H 485.022 -0.327698 -7.78811 0
M  V30 5315 N 489.251 1.34841 -0.815825 0
M  V30 5316 C 490.497 1.98793 -0.401129 0
M  V30 5317 C 490.83 1.64548 1.03139 0
M  V30 5318 O 490.105 0.913487 1.71714 0
M  V30 5319 C 490.388 3.55143 -0.595409 0
M  V30 5320 C 490.241 3.99155 -2.07352 0
M  V30 5321 C 491.56 4.40092 -0.0268823 0
M  V30 5322 H 488.679 0.722146 -0.14722 0
M  V30 5323 H 491.321 1.59847 -1.02707 0
M  V30 5324 H 489.471 3.8845 -0.0625779 0
M  V30 5325 H 491.143 3.76216 -2.66945 0
M  V30 5326 H 489.386 3.49726 -2.56659 0
M  V30 5327 H 490.057 5.07971 -2.1603 0
M  V30 5328 H 492.533 4.13298 -0.482042 0
M  V30 5329 H 491.409 5.48562 -0.19267 0
M  V30 5330 H 491.67 4.29016 1.06759 0
M  V30 5331 N 490.729 0.570148 1.46925 0
M  V30 5332 C 491.977 0.0508523 2.02036 0
M  V30 5333 C 492.298 -1.30885 1.44548 0
M  V30 5334 O 491.568 -1.85647 0.625453 0
M  V30 5335 H 490.148 0.0158088 0.746833 0
M  V30 5336 H 492.81 0.743086 1.80178 0
M  V30 5337 H 491.906 -0.027575 3.12088 0
M  V30 5338 N 492.207 -1.54576 0.307264 0
M  V30 5339 C 493.137 -2.26708 -0.55907 0
M  V30 5340 C 494.118 -1.26893 -1.1328 0
M  V30 5341 O 495.303 -1.55677 -1.16097 0
M  V30 5342 C 492.433 -3.01259 -1.72801 0
M  V30 5343 C 491.387 -4.08275 -1.28435 0
M  V30 5344 C 490.713 -4.70575 -2.53895 0
M  V30 5345 C 492.013 -5.2068 -0.411038 0
M  V30 5346 H 493.707 -2.9937 0.042576 0
M  V30 5347 H 491.253 -1.43983 0.0219173 0
M  V30 5348 H 493.206 -3.50444 -2.34023 0
M  V30 5349 H 491.93 -2.26187 -2.356 0
M  V30 5350 H 490.589 -3.59949 -0.695161 0
M  V30 5351 H 490.237 -3.92136 -3.15021 0
M  V30 5352 H 489.937 -5.42854 -2.24908 0
M  V30 5353 H 491.461 -5.22527 -3.15908 0
M  V30 5354 H 492.875 -5.65721 -0.929097 0
M  V30 5355 H 491.272 -5.99716 -0.214664 0
M  V30 5356 H 492.342 -4.81629 0.562287 0
M  V30 5357 N 493.685 -0.035106 -1.57561 0
M  V30 5358 C 494.931 0.64318 -1.92331 0
M  V30 5359 C 495.264 1.71434 -0.912368 0
M  V30 5360 O 494.539 1.94395 0.0640303 0
M  V30 5361 C 494.822 1.25411 -3.37556 0
M  V30 5362 C 494.675 0.192109 -4.4939 0
M  V30 5363 C 495.994 2.17041 -3.82859 0
M  V30 5364 H 493.113 0.232341 -0.699419 0
M  V30 5365 H 495.755 -0.0935889 -1.89769 0
M  V30 5366 H 493.905 1.88205 -3.39869 0
M  V30 5367 H 495.577 -0.438849 -4.59208 0
M  V30 5368 H 493.82 -0.481725 -4.31117 0
M  V30 5369 H 494.491 0.659292 -5.48049 0
M  V30 5370 H 496.967 1.64228 -3.8232 0
M  V30 5371 H 495.843 2.56738 -4.85157 0
M  V30 5372 H 496.104 3.06401 -3.18702 0
M  V30 5373 N 495.163 1.55791 0.238111 0
M  V30 5374 C 496.093 1.94068 1.29846 0
M  V30 5375 C 497.074 0.806726 1.49753 0
M  V30 5376 O 498.259 1.06772 1.62214 0
M  V30 5377 C 495.389 2.24302 2.65153 0
M  V30 5378 C 494.343 3.40032 2.59927 0
M  V30 5379 C 493.669 3.55829 3.99111 0
M  V30 5380 C 494.969 4.75476 2.16148 0
M  V30 5381 H 496.663 2.82887 0.980563 0
M  V30 5382 H 494.209 1.36105 0.470253 0
M  V30 5383 H 496.162 2.4967 3.39475 0
M  V30 5384 H 494.886 1.32318 2.98596 0
M  V30 5385 H 493.545 3.14687 1.88063 0
M  V30 5386 H 493.193 2.6125 4.29834 0
M  V30 5387 H 492.893 4.3366 3.96501 0
M  V30 5388 H 494.417 3.83528 4.7512 0
M  V30 5389 H 495.831 5.00158 2.80205 0
M  V30 5390 H 494.228 5.56472 2.24631 0
M  V30 5391 H 495.298 4.71946 1.11333 0
M  V30 5392 N 496.642 -0.504142 1.49319 0
M  V30 5393 C 498.058 -0.835039 1.36012 0
M  V30 5394 C 498.258 -1.97674 0.390808 0
M  V30 5395 O 497.314 -2.51867 -0.178655 0
M  V30 5396 C 498.627 -1.17821 2.76656 0
M  V30 5397 C 500.175 -1.2866 2.85334 0
M  V30 5398 C 500.65 -1.66307 4.26739 0
M  V30 5399 N 502.141 -1.73362 4.29534 0
M  V30 5400 C 502.876 -2.0393 5.35911 0
M  V30 5401 N 502.372 -2.32744 6.52535 0
M  V30 5402 N 504.165 -2.05155 5.23324 0
M  V30 5403 H 496.316 0.248764 2.10938 0
M  V30 5404 H 498.579 0.0486962 0.946748 0
M  V30 5405 H 498.285 -0.412682 3.4927 0
M  V30 5406 H 498.159 -2.12239 3.11825 0
M  V30 5407 H 500.546 -2.04285 2.1296 0
M  V30 5408 H 500.627 -0.323004 2.53752 0
M  V30 5409 H 500.271 -0.91234 4.99639 0
M  V30 5410 H 500.201 -2.63761 4.55782 0
M  V30 5411 H 502.692 -1.53268 3.45424 0
M  V30 5412 H 503.005 -2.55248 7.2943 0
M  V30 5413 H 501.35 -2.30207 6.55767 0
M  V30 5414 H 504.541 -1.82119 4.3122 0
M  V30 5415 H 504.714 -2.28644 6.06322 0
M  V30 5416 N 498.12 -1.38341 -0.754957 0
M  V30 5417 C 499.366 -1.34672 -1.51628 0
M  V30 5418 C 499.699 0.0636036 -1.94096 0
M  V30 5419 O 498.974 1.0245 -1.6533 0
M  V30 5420 C 499.257 -2.30116 -2.76981 0
M  V30 5421 C 499.11 -3.80003 -2.4066 0
M  V30 5422 C 500.429 -2.23715 -3.78998 0
M  V30 5423 H 497.548 -0.490517 -0.550056 0
M  V30 5424 H 500.19 -1.69178 -0.864807 0
M  V30 5425 H 498.34 -2.00821 -3.3257 0
M  V30 5426 H 500.012 -4.19966 -1.90856 0
M  V30 5427 H 498.255 -3.97751 -1.73137 0
M  V30 5428 H 498.926 -4.42244 -3.30339 0
M  V30 5429 H 501.402 -2.49574 -3.32945 0
M  V30 5430 H 500.278 -2.9261 -4.64403 0
M  V30 5431 H 500.539 -1.23554 -4.24484 0
M  V30 5432 N 499.598 0.982988 -1.23187 0
M  V30 5433 C 500.528 2.09301 -1.03515 0
M  V30 5434 C 501.509 1.70035 0.0471136 0
M  V30 5435 O 502.694 1.93847 -0.117029 0
M  V30 5436 C 499.824 3.4167 -0.622791 0
M  V30 5437 C 498.778 3.94828 -1.65211 0
M  V30 5438 C 498.104 5.23362 -1.09527 0
M  V30 5439 C 499.404 4.2439 -3.04451 0
M  V30 5440 H 501.098 2.26016 -1.96359 0
M  V30 5441 H 498.644 1.08611 -0.945501 0
M  V30 5442 H 500.597 4.18746 -0.472233 0
M  V30 5443 H 499.321 3.24811 0.341329 0
M  V30 5444 H 497.98 3.19895 -1.79061 0
M  V30 5445 H 497.628 5.02852 -0.122211 0
M  V30 5446 H 497.328 5.59895 -1.783 0
M  V30 5447 H 498.852 6.03062 -0.956511 0
M  V30 5448 H 500.266 4.92225 -2.93917 0
M  V30 5449 H 498.663 4.72118 -3.70438 0
M  V30 5450 H 499.733 3.31765 -3.53638 0
M  V30 5451 N 501.076 1.04316 1.18135 0
M  V30 5452 C 502.492 0.762858 1.40188 0
M  V30 5453 C 502.692 -0.646547 1.90846 0
M  V30 5454 O 501.748 -1.41036 2.0944 0
M  V30 5455 C 503.061 1.81106 2.40044 0
M  V30 5456 C 504.609 1.83226 2.53766 0
M  V30 5457 C 505.084 2.87044 3.56889 0
M  V30 5458 N 506.575 2.85951 3.64398 0
M  V30 5459 C 507.31 3.62932 4.43923 0
M  V30 5460 N 506.806 4.49672 5.27036 0
M  V30 5461 N 508.599 3.51411 4.38711 0
M  V30 5462 H 500.75 1.95264 0.835805 0
M  V30 5463 H 503.013 0.845017 0.429709 0
M  V30 5464 H 502.719 2.82214 2.09876 0
M  V30 5465 H 502.593 1.64529 3.39426 0
M  V30 5466 H 504.98 0.827869 2.8325 0
M  V30 5467 H 505.061 2.03879 1.54489 0
M  V30 5468 H 504.705 3.87663 3.28145 0
M  V30 5469 H 504.635 2.63645 4.5585 0
M  V30 5470 H 507.126 2.23051 3.05052 0
M  V30 5471 H 507.439 5.05116 5.84874 0
M  V30 5472 H 505.784 4.53738 5.26447 0
M  V30 5473 H 508.975 2.83047 3.72829 0
M  V30 5474 H 509.148 4.11654 5.00445 0
M  V30 5475 N 502.554 -1.34406 0.822964 0
M  V30 5476 C 503.517 -2.2783 0.250271 0
M  V30 5477 C 504.517 -1.50288 -0.571854 0
M  V30 5478 O 505.707 -1.69825 -0.387952 0
M  V30 5479 C 502.839 -3.34663 -0.649137 0
M  V30 5480 H 504.032 -2.79992 1.07444 0
M  V30 5481 H 501.585 -1.44539 0.594829 0
M  V30 5482 H 502.32 -2.87714 -1.49637 0
M  V30 5483 H 502.105 -3.92052 -0.0611199 0
M  V30 5484 H 503.595 -4.04349 -1.04363 0
M  V30 5485 N 504.032 -0.577932 -1.46621 0
M  V30 5486 C 504.962 0.145917 -2.33044 0
M  V30 5487 C 505.943 0.888412 -1.45056 0
M  V30 5488 O 507.128 0.864812 -1.73881 0
M  V30 5489 C 504.258 1.16322 -3.27241 0
M  V30 5490 C 503.212 0.535868 -4.24632 0
M  V30 5491 C 502.538 1.65929 -5.08303 0
M  V30 5492 C 503.838 -0.523861 -5.19666 0
M  V30 5493 H 505.532 -0.575636 -2.93814 0
M  V30 5494 H 503.078 -0.278272 -1.41286 0
M  V30 5495 H 505.031 1.67793 -3.86553 0
M  V30 5496 H 503.755 1.91498 -2.64567 0
M  V30 5497 H 502.414 0.0422759 -3.66576 0
M  V30 5498 H 502.062 2.40061 -4.42018 0
M  V30 5499 H 501.762 1.2452 -5.74255 0
M  V30 5500 H 503.286 2.17686 -5.70478 0
M  V30 5501 H 504.7 -0.0944059 -5.73222 0
M  V30 5502 H 503.097 -0.858 -5.93935 0
M  V30 5503 H 504.167 -1.41197 -4.63887 0
M  V30 5504 N 505.51 1.54411 -0.315457 0
M  V30 5505 C 506.926 1.59556 0.037464 0
M  V30 5506 C 507.126 1.33217 1.5118 0
M  V30 5507 O 506.182 1.11264 2.26664 0
M  V30 5508 C 507.495 2.98372 -0.373477 0
M  V30 5509 C 509.043 3.11324 -0.323452 0
M  V30 5510 C 509.518 4.52472 -0.709433 0
M  V30 5511 N 511.009 4.58437 -0.662524 0
M  V30 5512 C 511.744 5.65751 -0.933474 0
M  V30 5513 N 511.24 6.81039 -1.27114 0
M  V30 5514 N 513.033 5.55489 -0.859573 0
M  V30 5515 H 505.184 1.6979 -1.27614 0
M  V30 5516 H 507.447 0.793732 -0.518356 0
M  V30 5517 H 507.153 3.22618 -1.40037 0
M  V30 5518 H 507.027 3.76264 0.265615 0
M  V30 5519 H 509.414 2.86818 0.694223 0
M  V30 5520 H 509.495 2.35555 -0.997367 0
M  V30 5521 H 509.139 4.7771 -1.72498 0
M  V30 5522 H 509.069 5.26598 -0.0132923 0
M  V30 5523 H 511.56 3.75636 -0.413065 0
M  V30 5524 H 511.873 7.58816 -1.46348 0
M  V30 5525 H 510.218 6.82555 -1.30932 0
M  V30 5526 H 513.409 4.64299 -0.595324 0
M  V30 5527 H 513.582 6.39036 -1.0741 0
M  V30 5528 N 506.988 0.0434614 1.5754 0
M  V30 5529 C 508.237 -0.631454 1.91561 0
M  V30 5530 C 508.55 -1.72457 0.92292 0
M  V30 5531 O 509.756 -2.45712 1.15489 0
M  V30 5532 C 508.212 -1.17447 3.40197 0
M  V30 5533 C 507.82 -0.113867 4.47855 0
M  V30 5534 C 509.564 -1.82507 3.83264 0
M  V30 5535 C 507.471 -0.669326 5.876 0
M  V30 5536 H 506.401 -0.239629 0.714908 0
M  V30 5537 H 509.052 0.111097 1.83163 0
M  V30 5538 H 507.434 -1.96909 3.43574 0
M  V30 5539 H 508.608 0.659348 4.56058 0
M  V30 5540 H 506.923 0.438821 4.14081 0
M  V30 5541 H 509.52 -2.25047 4.85034 0
M  V30 5542 H 509.863 -2.67365 3.19095 0
M  V30 5543 H 510.396 -1.09712 3.82372 0
M  V30 5544 H 507.135 0.141449 6.55347 0
M  V30 5545 H 506.655 -1.4107 5.82974 0
M  V30 5546 H 508.334 -1.15463 6.36614 0
M  V30 5547 N 508.466 -1.55915 -0.229846 0
M  V30 5548 C 509.396 -1.94754 -1.28815 0
M  V30 5549 C 510.377 -0.814657 -1.49323 0
M  V30 5550 O 511.562 -1.07631 -1.61645 0
M  V30 5551 C 508.692 -2.25705 -2.63959 0
M  V30 5552 C 507.646 -3.41406 -2.5812 0
M  V30 5553 C 506.972 -3.57941 -3.97218 0
M  V30 5554 C 508.272 -4.76616 -2.13623 0
M  V30 5555 H 509.966 -2.83404 -0.965547 0
M  V30 5556 H 507.512 -1.36353 -0.463028 0
M  V30 5557 H 509.465 -2.51467 -3.38146 0
M  V30 5558 H 508.189 -1.339 -2.9789 0
M  V30 5559 H 506.848 -3.1568 -1.86391 0
M  V30 5560 H 506.496 -2.63526 -4.28443 0
M  V30 5561 H 506.196 -4.35757 -3.94195 0
M  V30 5562 H 507.72 -3.86042 -4.73079 0
M  V30 5563 H 509.134 -5.01637 -2.77549 0
M  V30 5564 H 507.531 -5.57655 -2.21677 0
M  V30 5565 H 508.601 -4.7253 -1.08829 0
M  V30 5566 N 509.944 0.496216 -1.49584 0
M  V30 5567 C 511.174 1.27209 -1.62793 0
M  V30 5568 C 511.582 1.86799 -0.300476 0
M  V30 5569 O 510.925 1.68802 0.724674 0
M  V30 5570 C 510.987 2.43812 -2.64189 0
M  V30 5571 C 510.651 2.05055 -4.08414 0
M  V30 5572 C 511.648 1.58752 -4.9507 0
M  V30 5573 C 509.333 2.14543 -4.54177 0
M  V30 5574 C 511.327 1.22448 -6.25528 0
M  V30 5575 C 509.014 1.77851 -5.84647 0
M  V30 5576 C 510.012 1.31878 -6.70147 0
M  V30 5577 O 509.7 0.956834 -7.98185 0
M  V30 5578 H 509.432 0.391848 -0.550846 0
M  V30 5579 H 511.986 0.601712 -1.96389 0
M  V30 5580 H 510.216 3.13941 -2.25783 0
M  V30 5581 H 511.905 3.05829 -2.66877 0
M  V30 5582 H 512.671 1.50863 -4.60939 0
M  V30 5583 H 508.55 2.49277 -3.87791 0
M  V30 5584 H 512.094 0.864933 -6.92217 0
M  V30 5585 H 507.991 1.8539 -6.18305 0
M  V30 5586 H 508.759 1.08789 -8.11238 0
M  V30 5587 N 511.423 1.38739 0.74761 0
M  V30 5588 C 512.669 1.35475 1.50912 0
M  V30 5589 C 513.002 -0.0533093 1.94127 0
M  V30 5590 O 512.277 -1.01572 1.65871 0
M  V30 5591 C 512.56 2.31582 2.75757 0
M  V30 5592 C 512.413 3.81274 2.38642 0
M  V30 5593 C 513.732 2.25722 3.77806 0
M  V30 5594 H 510.851 0.493427 0.547447 0
M  V30 5595 H 513.493 1.69634 0.855823 0
M  V30 5596 H 511.643 2.02582 3.31501 0
M  V30 5597 H 513.315 4.20972 1.88626 0
M  V30 5598 H 511.558 3.98664 1.71025 0
M  V30 5599 H 512.229 4.4399 3.27989 0
M  V30 5600 H 514.705 2.51336 3.31616 0
M  V30 5601 H 513.581 2.95069 4.62845 0
M  V30 5602 H 513.842 1.25803 4.23823 0
M  V30 5603 N 512.901 -0.976442 1.23707 0
M  V30 5604 C 513.834 -2.06793 0.964973 0
M  V30 5605 C 514.812 -1.62304 -0.0981472 0
M  V30 5606 O 515.996 -1.88464 0.0369477 0
M  V30 5607 C 513.123 -3.35636 0.454522 0
M  V30 5608 C 512.169 -3.99069 1.50485 0
M  V30 5609 S 513.002 -4.37814 3.0835 0
M  V30 5610 C 514.158 -5.69805 2.58985 0
M  V30 5611 H 514.391 -2.29556 1.88922 0
M  V30 5612 H 511.924 -1.11317 1.06995 0
M  V30 5613 H 513.882 -4.10162 0.166626 0
M  V30 5614 H 512.543 -3.10876 -0.448871 0
M  V30 5615 H 511.736 -4.91896 1.09792 0
M  V30 5616 H 511.338 -3.30938 1.7423 0
M  V30 5617 H 513.63 -6.46919 2.01252 0
M  V30 5618 H 514.573 -6.15345 3.50366 0
M  V30 5619 H 514.981 -5.27994 1.99705 0
M  V30 5620 N 514.379 -1.04941 -1.1758 0
M  V30 5621 C 515.795 -0.770282 -1.39781 0
M  V30 5622 C 515.995 0.636417 -1.91186 0
M  V30 5623 O 515.051 1.39923 -2.10185 0
M  V30 5624 C 516.364 -1.82376 -2.3908 0
M  V30 5625 C 517.912 -1.84569 -2.52791 0
M  V30 5626 C 518.387 -2.88933 -3.55361 0
M  V30 5627 N 519.878 -2.8788 -3.62877 0
M  V30 5628 C 520.613 -3.65282 -4.41992 0
M  V30 5629 N 520.109 -4.52461 -5.24643 0
M  V30 5630 N 521.902 -3.53732 -4.36841 0
M  V30 5631 H 514.053 -1.95705 -0.825438 0
M  V30 5632 H 516.316 -0.847284 -0.425222 0
M  V30 5633 H 516.022 -2.83323 -2.08376 0
M  V30 5634 H 515.896 -1.66327 -3.38549 0
M  V30 5635 H 518.283 -0.842879 -2.82807 0
M  V30 5636 H 518.364 -2.04696 -1.53406 0
M  V30 5637 H 518.008 -3.89398 -3.26085 0
M  V30 5638 H 517.938 -2.66059 -4.54445 0
M  V30 5639 H 520.429 -2.24666 -3.03864 0
M  V30 5640 H 520.742 -5.08211 -5.82187 0
M  V30 5641 H 519.087 -4.56524 -5.24033 0
M  V30 5642 H 522.278 -2.85021 -3.71323 0
M  V30 5643 H 522.451 -4.14302 -4.98255 0
M  V30 5644 N 515.857 1.33968 -0.830081 0
M  V30 5645 C 516.787 2.31911 -0.271911 0
M  V30 5646 C 517.768 1.58571 0.61556 0
M  V30 5647 O 518.953 1.86514 0.540946 0
M  V30 5648 C 516.083 3.42737 0.561146 0
M  V30 5649 C 515.037 4.27383 -0.229789 0
M  V30 5650 C 514.363 5.29742 0.726463 0
M  V30 5651 C 515.663 5.02 -1.44197 0
M  V30 5652 H 517.357 2.78844 -1.09025 0
M  V30 5653 H 514.903 1.34061 -0.52571 0
M  V30 5654 H 516.856 4.10276 0.961867 0
M  V30 5655 H 515.58 2.94471 1.41261 0
M  V30 5656 H 514.239 3.61456 -0.611964 0
M  V30 5657 H 513.887 4.77736 1.57408 0
M  V30 5658 H 513.587 5.87255 0.20142 0
M  V30 5659 H 515.111 6.00149 1.12489 0
M  V30 5660 H 516.525 5.62355 -1.11488 0
M  V30 5661 H 514.922 5.69122 -1.90317 0
M  V30 5662 H 515.992 4.31281 -2.2164 0
M  V30 5663 N 517.335 0.585699 1.46312 0
M  V30 5664 C 518.298 -0.135673 2.28798 0
M  V30 5665 C 519.298 -0.815988 1.38558 0
M  V30 5666 O 520.488 -0.667487 1.60904 0
M  V30 5667 C 517.62 -1.20163 3.1902 0
M  V30 5668 H 518.813 0.589257 2.94054 0
M  V30 5669 H 516.366 0.343794 1.52472 0
M  V30 5670 H 517.101 -1.95804 2.58517 0
M  V30 5671 H 516.886 -0.718282 3.85465 0
M  V30 5672 H 518.376 -1.70749 3.81096 0
M  V30 5673 N 518.813 -1.54241 0.323641 0
M  V30 5674 C 520.229 -1.59574 -0.0290018 0
M  V30 5675 C 520.429 -1.34017 -1.50472 0
M  V30 5676 O 519.485 -1.12464 -2.26071 0
M  V30 5677 C 520.798 -2.98169 0.389295 0
M  V30 5678 C 522.346 -3.11148 0.339958 0
M  V30 5679 C 522.821 -4.5209 0.733418 0
M  V30 5680 N 524.312 -4.5808 0.686827 0
M  V30 5681 C 525.047 -5.65248 0.963464 0
M  V30 5682 N 524.543 -6.80355 1.30724 0
M  V30 5683 N 526.336 -5.55025 0.88902 0
M  V30 5684 H 518.487 -1.6911 1.28512 0
M  V30 5685 H 520.75 -0.790972 0.522558 0
M  V30 5686 H 520.456 -3.21871 1.41746 0
M  V30 5687 H 520.33 -3.76399 -0.245657 0
M  V30 5688 H 522.717 -2.87182 -0.679002 0
M  V30 5689 H 522.798 -2.35023 1.00985 0
M  V30 5690 H 522.442 -4.76788 1.75029 0
M  V30 5691 H 522.372 -5.26584 0.0412189 0
M  V30 5692 H 524.863 -3.75411 0.43298 0
M  V30 5693 H 525.176 -7.58029 1.5037 0
M  V30 5694 H 523.521 -6.81851 1.3455 0
M  V30 5695 H 526.712 -4.63977 0.619939 0
M  V30 5696 H 526.885 -6.38458 1.10797 0
M  V30 5697 N 520.291 -0.0518155 -1.57515 0
M  V30 5698 C 521.241 0.932017 -2.0808 0
M  V30 5699 C 522.225 1.27141 -0.986098 0
M  V30 5700 O 523.417 1.25373 -1.24943 0
M  V30 5701 C 520.546 2.20665 -2.62986 0
M  V30 5702 C 519.632 1.89462 -3.79427 0
M  V30 5703 N 520.023 1.28621 -4.89173 0
M  V30 5704 C 518.321 2.19327 -3.88345 0
M  V30 5705 C 519.022 1.15062 -5.70207 0
M  V30 5706 N 517.998 1.65372 -5.17835 0
M  V30 5707 H 521.8 0.456964 -2.90326 0
M  V30 5708 H 519.314 0.152619 -1.61681 0
M  V30 5709 H 521.311 2.92044 -2.97516 0
M  V30 5710 H 519.971 2.68776 -1.8218 0
M  V30 5711 H 520.982 0.958341 -5.08956 0
M  V30 5712 H 517.659 2.69955 -3.18482 0
M  V30 5713 H 519.049 0.678243 -6.68468 0
M  V30 5714 N 521.769 1.56035 0.221574 0
M  V30 5715 C 522.994 1.83476 0.967026 0
M  V30 5716 C 523.419 0.632139 1.7716 0
M  V30 5717 O 522.777 -0.419082 1.7639 0
M  V30 5718 C 522.825 3.08907 1.86034 0
M  V30 5719 O 521.929 2.876 2.95567 0
M  V30 5720 H 521.27 0.604913 0.273817 0
M  V30 5721 H 523.8 2.03247 0.234893 0
M  V30 5722 H 523.81 3.3901 2.27016 0
M  V30 5723 H 522.485 3.96068 1.26898 0
M  V30 5724 H 521.062 2.6873 2.58532 0
M  V30 5725 N 523.247 -0.488276 1.49845 0
M  V30 5726 C 524.177 -1.59675 1.70371 0
M  V30 5727 C 525.158 -1.60878 0.552473 0
M  V30 5728 O 526.343 -1.77417 0.78973 0
M  V30 5729 C 523.473 -2.98098 1.782 0
M  V30 5730 C 522.427 -3.11761 2.93239 0
M  V30 5731 C 521.753 -4.51661 2.86193 0
M  V30 5732 C 523.053 -2.90589 4.33999 0
M  V30 5733 H 524.747 -1.42752 2.63177 0
M  V30 5734 H 522.293 -0.685317 1.26647 0
M  V30 5735 H 524.246 -3.75555 1.91144 0
M  V30 5736 H 522.97 -3.16138 0.820018 0
M  V30 5737 H 521.629 -2.36732 2.79917 0
M  V30 5738 H 521.277 -4.66595 1.87877 0
M  V30 5739 H 520.977 -4.61742 3.63412 0
M  V30 5740 H 522.501 -5.31162 3.01163 0
M  V30 5741 H 523.915 -3.57807 4.47936 0
M  V30 5742 H 522.312 -3.1213 5.12538 0
M  V30 5743 H 523.382 -1.86595 4.4756 0
M  V30 5744 N 524.725 -1.39134 -0.740242 0
M  V30 5745 C 525.973 -1.35803 -1.49673 0
M  V30 5746 C 526.294 0.0470897 -1.94943 0
M  V30 5747 O 525.564 0.997347 -1.68611 0
M  V30 5748 H 524.144 -0.499736 -0.555224 0
M  V30 5749 H 526.806 -1.73947 -0.879107 0
M  V30 5750 H 525.902 -2.0174 -2.38133 0
M  V30 5751 N 526.204 0.969867 -1.24223 0
M  V30 5752 C 527.134 2.08191 -1.05729 0
M  V30 5753 C 528.115 1.70075 0.0290765 0
M  V30 5754 O 529.3 1.93712 -0.137583 0
M  V30 5755 C 526.43 3.40991 -0.658995 0
M  V30 5756 C 525.384 3.93054 -1.69389 0
M  V30 5757 C 524.71 5.22171 -1.15072 0
M  V30 5758 C 526.01 4.21137 -3.08935 0
M  V30 5759 H 527.704 2.23921 -1.98746 0
M  V30 5760 H 525.25 1.07602 -0.956967 0
M  V30 5761 H 527.203 4.18221 -0.51662 0
M  V30 5762 H 525.927 3.25155 0.30686 0
M  V30 5763 H 524.586 3.17977 -1.82444 0
M  V30 5764 H 524.234 5.02694 -0.175539 0
M  V30 5765 H 523.934 5.57973 -1.84229 0
M  V30 5766 H 525.458 6.02013 -1.02042 0
M  V30 5767 H 526.872 4.8908 -2.99121 0
M  V30 5768 H 525.269 4.68163 -3.75425 0
M  V30 5769 H 526.339 3.27996 -3.57137 0
M  V30 5770 N 527.682 1.05563 1.17022 0
M  V30 5771 C 528.614 0.617888 2.20714 0
M  V30 5772 C 529.627 -0.320303 1.59618 0
M  V30 5773 O 530.816 -0.112449 1.78145 0
M  V30 5774 C 527.916 -0.115333 3.38704 0
M  V30 5775 C 527.089 0.834493 4.29366 0
M  V30 5776 C 526.148 0.141855 5.26009 0
M  V30 5777 O 525.174 0.777151 5.6387 0
M  V30 5778 N 526.376 -1.11934 5.69606 0
M  V30 5779 H 529.141 1.50981 2.58892 0
M  V30 5780 H 526.702 0.938008 1.31958 0
M  V30 5781 H 528.694 -0.588918 4.00392 0
M  V30 5782 H 527.264 -0.908967 2.99093 0
M  V30 5783 H 526.484 1.48762 3.65053 0
M  V30 5784 H 527.772 1.4791 4.86827 0
M  V30 5785 H 527.17 -1.65574 5.40927 0
M  V30 5786 H 525.727 -1.53692 6.33421 0
M  V30 5787 N 529.16 -1.33526 0.837174 0
M  V30 5788 C 530.388 -2.02047 0.445494 0
M  V30 5789 C 530.803 -1.62995 -0.952788 0
M  V30 5790 O 530.16 -0.842447 -1.61892 0
M  V30 5791 C 530.211 -3.57221 0.554577 0
M  V30 5792 O 529.932 -3.94863 1.89776 0
M  V30 5793 C 531.433 -4.43012 0.159634 0
M  V30 5794 H 528.653 -0.647221 0.177048 0
M  V30 5795 H 531.197 -1.70492 1.12928 0
M  V30 5796 H 529.352 -3.87315 -0.0812781 0
M  V30 5797 H 529.766 -4.89569 1.88208 0
M  V30 5798 H 531.24 -5.51253 0.28701 0
M  V30 5799 H 531.717 -4.29916 -0.898289 0
M  V30 5800 H 532.323 -4.18274 0.769855 0
M  V30 5801 N 530.638 -0.59345 -1.46 0
M  V30 5802 C 531.568 0.121192 -2.33185 0
M  V30 5803 C 532.549 0.872977 -1.4599 0
M  V30 5804 O 533.734 0.846321 -1.74789 0
M  V30 5805 C 530.864 1.12844 -3.28456 0
M  V30 5806 C 529.818 0.4908 -4.25177 0
M  V30 5807 C 529.144 1.60529 -5.10034 0
M  V30 5808 C 530.444 -0.578949 -5.19081 0
M  V30 5809 H 532.138 -0.606767 -2.93187 0
M  V30 5810 H 529.684 -0.293242 -1.40983 0
M  V30 5811 H 531.637 1.63684 -3.88311 0
M  V30 5812 H 530.361 1.88681 -2.66584 0
M  V30 5813 H 529.02 0.00339328 -3.666 0
M  V30 5814 H 528.668 2.35359 -4.44539 0
M  V30 5815 H 528.368 1.18422 -5.75543 0
M  V30 5816 H 529.892 2.11623 -5.72755 0
M  V30 5817 H 531.306 -0.155199 -5.7309 0
M  V30 5818 H 529.703 -0.920947 -5.92991 0
M  V30 5819 H 530.773 -1.46109 -4.62364 0
M  V30 5820 N 532.116 1.54067 -0.331816 0
M  V30 5821 C 533.364 2.00319 0.267739 0
M  V30 5822 C 533.685 1.22148 1.52003 0
M  V30 5823 O 532.955 0.325494 1.93177 0
M  V30 5824 H 531.535 0.740014 0.101922 0
M  V30 5825 H 534.197 1.89628 -0.450267 0
M  V30 5826 H 533.293 3.07765 0.518385 0
M  V30 5827 N 533.594 0.0601682 1.57485 0
M  V30 5828 C 534.524 -0.90889 2.15085 0
M  V30 5829 C 535.505 -1.31838 1.07484 0
M  V30 5830 O 536.69 -1.3915 1.35466 0
M  V30 5831 C 533.82 -2.18059 2.7031 0
M  V30 5832 C 532.774 -1.91088 3.82974 0
M  V30 5833 C 532.1 -3.24789 4.24754 0
M  V30 5834 C 533.4 -1.22535 5.07723 0
M  V30 5835 H 535.094 -0.429093 2.96309 0
M  V30 5836 H 532.64 -0.204952 1.42534 0
M  V30 5837 H 534.593 -2.86258 3.09248 0
M  V30 5838 H 533.317 -2.6826 1.8629 0
M  V30 5839 H 531.976 -1.25297 3.44523 0
M  V30 5840 H 531.624 -3.72809 3.37672 0
M  V30 5841 H 531.324 -3.07538 5.00694 0
M  V30 5842 H 532.848 -3.94205 4.66299 0
M  V30 5843 H 534.262 -1.80783 5.4405 0
M  V30 5844 H 532.659 -1.1558 5.88864 0
M  V30 5845 H 533.729 -0.202692 4.84476 0
M  V30 5846 N 535.072 -1.5615 -0.213296 0
M  V30 5847 C 536.3 -1.83638 -0.953139 0
M  V30 5848 C 536.715 -0.640362 -1.77609 0
M  V30 5849 O 536.072 0.391071 -1.78261 0
M  V30 5850 C 536.123 -3.09735 -1.86405 0
M  V30 5851 O 535.844 -4.24723 -1.07435 0
M  V30 5852 C 537.345 -3.5027 -2.71709 0
M  V30 5853 H 534.565 -0.610263 -0.278962 0
M  V30 5854 H 537.109 -2.03247 -0.226035 0
M  V30 5855 H 535.264 -2.92077 -2.545 0
M  V30 5856 H 535.678 -4.9641 -1.69343 0
M  V30 5857 H 537.152 -4.41515 -3.31313 0
M  V30 5858 H 537.629 -2.72406 -3.44516 0
M  V30 5859 H 538.235 -3.70396 -2.09015 0
M  V30 5860 N 536.55 0.480323 -1.50102 0
M  V30 5861 C 537.796 1.23489 -1.60867 0
M  V30 5862 C 538.129 1.91809 -0.303827 0
M  V30 5863 O 537.404 1.81694 0.694092 0
M  V30 5864 C 537.687 2.28578 -2.78252 0
M  V30 5865 C 537.54 1.64624 -4.18592 0
M  V30 5866 C 538.859 3.2997 -2.91218 0
M  V30 5867 H 535.978 0.447605 -0.585507 0
M  V30 5868 H 538.62 0.530005 -1.82458 0
M  V30 5869 H 536.77 2.88697 -2.59974 0
M  V30 5870 H 538.442 1.08173 -4.48438 0
M  V30 5871 H 536.685 0.949645 -4.23278 0
M  V30 5872 H 537.356 2.40946 -4.96638 0
M  V30 5873 H 539.832 2.79864 -3.07921 0
M  V30 5874 H 538.708 4.00839 -3.74993 0
M  V30 5875 H 538.969 3.93541 -2.0144 0
M  V30 5876 N 538.028 1.39524 0.732853 0
M  V30 5877 C 539.444 1.21176 1.03868 0
M  V30 5878 C 539.644 0.0748448 2.01361 0
M  V30 5879 O 538.7 -0.57281 2.45917 0
M  V30 5880 C 540.013 2.54667 1.59892 0
M  V30 5881 C 541.561 2.6153 1.71962 0
M  V30 5882 C 542.036 3.95248 2.31394 0
M  V30 5883 N 543.527 3.96899 2.38801 0
M  V30 5884 C 544.262 4.97138 2.85729 0
M  V30 5885 N 543.758 6.07775 3.32537 0
M  V30 5886 N 545.551 4.84516 2.84957 0
M  V30 5887 H 537.702 2.12225 0.086304 0
M  V30 5888 H 539.965 0.942614 0.100907 0
M  V30 5889 H 539.671 3.38423 0.95721 0
M  V30 5890 H 539.545 2.74538 2.58668 0
M  V30 5891 H 541.932 1.78156 2.35254 0
M  V30 5892 H 542.013 2.45507 0.718327 0
M  V30 5893 H 541.657 4.79054 1.68729 0
M  V30 5894 H 541.587 4.08593 3.32204 0
M  V30 5895 H 544.078 3.16998 2.05719 0
M  V30 5896 H 544.391 6.8017 3.66862 0
M  V30 5897 H 542.736 6.11366 3.30541 0
M  V30 5898 H 545.927 3.97185 2.47713 0
M  V30 5899 H 546.1 5.62783 3.21215 0
M  V30 5900 N 539.506 -0.963266 1.24736 0
M  V30 5901 C 540.922 -1.23273 1.01371 0
M  V30 5902 C 541.122 -1.99618 -0.274776 0
M  V30 5903 O 540.178 -2.32293 -0.989769 0
M  V30 5904 C 541.491 -2.01554 2.23152 0
M  V30 5905 C 543.039 -2.14629 2.27823 0
M  V30 5906 C 543.514 -2.96307 3.49237 0
M  V30 5907 N 545.005 -3.03887 3.49581 0
M  V30 5908 C 545.74 -3.67456 4.40186 0
M  V30 5909 N 545.236 -4.32706 5.41052 0
M  V30 5910 N 547.029 -3.64511 4.27888 0
M  V30 5911 H 539.18 -0.452294 2.07528 0
M  V30 5912 H 541.443 -0.262521 0.910926 0
M  V30 5913 H 541.149 -1.52847 3.1675 0
M  V30 5914 H 541.023 -3.02278 2.25628 0
M  V30 5915 H 543.41 -2.62537 1.34753 0
M  V30 5916 H 543.491 -1.13238 2.2937 0
M  V30 5917 H 543.135 -2.49091 4.42624 0
M  V30 5918 H 543.065 -3.97905 3.44933 0
M  V30 5919 H 545.556 -2.57477 2.76611 0
M  V30 5920 H 545.869 -4.79042 6.06415 0
M  V30 5921 H 544.214 -4.31361 5.44934 0
M  V30 5922 H 547.405 -3.12715 3.4832 0
M  V30 5923 H 547.578 -4.13768 4.98698 0
M  V30 5924 N 540.985 -1.06182 -1.16461 0
M  V30 5925 C 542.225 -0.787048 -1.8864 0
M  V30 5926 C 542.589 0.674093 -1.79778 0
M  V30 5927 O 543.79 1.06341 -2.46871 0
M  V30 5928 C 542.061 -1.2666 -3.34203 0
M  V30 5929 S 543.62 -1.12071 -4.24247 0
M  V30 5930 H 540.438 -0.285539 -0.651144 0
M  V30 5931 H 543.04 -1.35851 -1.40587 0
M  V30 5932 H 541.744 -2.32496 -3.38192 0
M  V30 5933 H 541.275 -0.689841 -3.87304 0
M  V30 5934 H 543.29 -0.0509341 -4.96174 0
M  V30 5935 N 542.463 1.3308 -0.844243 0
M  V30 5936 C 543.691 2.01808 -0.456203 0
M  V30 5937 C 544.106 1.63498 0.944131 0
M  V30 5938 O 543.463 0.85102 1.61443 0
M  V30 5939 C 543.514 3.56922 -0.573513 0
M  V30 5940 O 543.235 3.93851 -1.91868 0
M  V30 5941 C 544.736 4.42922 -0.183125 0
M  V30 5942 H 541.956 0.646273 -0.180477 0
M  V30 5943 H 544.5 1.69891 -1.1383 0
M  V30 5944 H 542.655 3.87352 0.0607367 0
M  V30 5945 H 543.069 4.88564 -1.90802 0
M  V30 5946 H 544.543 5.51093 -0.316241 0
M  V30 5947 H 545.02 4.30386 0.875477 0
M  V30 5948 H 545.626 4.1786 -0.792027 0
M  V30 5949 N 543.941 0.601185 1.45683 0
M  V30 5950 C 545.357 0.264315 1.57396 0
M  V30 5951 C 545.557 -1.23324 1.59353 0
M  V30 5952 O 544.613 -2.01594 1.52039 0
M  V30 5953 C 545.926 0.929839 2.85962 0
M  V30 5954 C 547.474 0.905156 2.99626 0
M  V30 5955 C 547.949 1.55057 4.30954 0
M  V30 5956 N 549.44 1.51576 4.37697 0
M  V30 5957 C 550.175 1.98436 5.37969 0
M  V30 5958 N 549.671 2.53352 6.44813 0
M  V30 5959 N 551.464 1.89242 5.29286 0
M  V30 5960 H 543.615 1.57363 1.42656 0
M  V30 5961 H 545.878 0.658831 0.681649 0
M  V30 5962 H 545.584 1.98404 2.90394 0
M  V30 5963 H 545.458 0.449224 3.74515 0
M  V30 5964 H 547.845 -0.14048 2.94765 0
M  V30 5965 H 547.926 1.42397 2.12501 0
M  V30 5966 H 547.57 2.5955 4.36573 0
M  V30 5967 H 547.5 1.00682 5.16886 0
M  V30 5968 H 549.991 1.11452 3.61091 0
M  V30 5969 H 550.304 2.86918 7.17564 0
M  V30 5970 H 548.649 2.57388 6.45582 0
M  V30 5971 H 551.84 1.46083 4.44722 0
M  V30 5972 H 552.013 2.26075 6.07284 0
M  V30 5973 N 545.419 -1.53889 0.339982 0
M  V30 5974 C 546.329 -2.28604 -0.526988 0
M  V30 5975 C 547.345 -1.33578 -1.11503 0
M  V30 5976 O 548.521 -1.66612 -1.13148 0
M  V30 5977 C 545.586 -3.04164 -1.66389 0
M  V30 5978 C 544.647 -4.14809 -1.10599 0
M  V30 5979 C 543.88 -4.86756 -2.18871 0
M  V30 5980 O 544.103 -4.58343 -3.39526 0
M  V30 5981 O 543.037 -5.73289 -1.83366 0
M  V30 5982 H 546.863 -3.03594 0.0802707 0
M  V30 5983 H 544.448 -1.4903 0.105141 0
M  V30 5984 H 546.33 -3.51427 -2.32544 0
M  V30 5985 H 545.005 -2.32035 -2.25703 0
M  V30 5986 H 543.912 -3.71857 -0.409067 0
M  V30 5987 H 545.245 -4.89029 -0.557771 0
M  V30 5988 N 546.897 -0.0685191 -1.57451 0
M  V30 5989 C 548.144 0.601348 -1.93365 0
M  V30 5990 C 548.472 1.69816 -0.948294 0
M  V30 5991 O 547.727 1.95666 0.0366199 0
M  V30 5992 C 548.026 1.22051 -3.35914 0
M  V30 5993 C 547.692 0.250165 -4.50205 0
M  V30 5994 C 546.354 -0.0167954 -4.81197 0
M  V30 5995 C 548.706 -0.413867 -5.19554 0
M  V30 5996 C 546.034 -0.95493 -5.78876 0
M  V30 5997 C 548.386 -1.3403 -6.18238 0
M  V30 5998 C 547.05 -1.61576 -6.47649 0
M  V30 5999 H 546.32 0.220049 -0.707573 0
M  V30 6000 H 548.967 -0.138697 -1.90997 0
M  V30 6001 H 547.272 2.03622 -3.34732 0
M  V30 6002 H 548.969 1.74605 -3.6099 0
M  V30 6003 H 545.559 0.468421 -4.26033 0
M  V30 6004 H 549.743 -0.220733 -4.95809 0
M  V30 6005 H 544.999 -1.17563 -5.99991 0
M  V30 6006 H 549.173 -1.86081 -6.71079 0
M  V30 6007 H 546.8 -2.34431 -7.2315 0
M  V30 6008 N 548.375 1.56261 0.205012 0
M  V30 6009 C 549.623 1.79684 0.925096 0
M  V30 6010 C 549.944 0.63989 1.84202 0
M  V30 6011 O 549.214 -0.342345 1.92885 0
M  V30 6012 H 547.794 0.662774 0.344587 0
M  V30 6013 H 550.456 1.93734 0.212899 0
M  V30 6014 H 549.552 2.72467 1.52211 0
M  V30 6015 N 549.853 -0.472356 1.50355 0
M  V30 6016 C 550.783 -1.57859 1.72055 0
M  V30 6017 C 551.764 -1.60283 0.569505 0
M  V30 6018 O 552.949 -1.7657 0.808503 0
M  V30 6019 C 550.079 -2.96191 1.81351 0
M  V30 6020 C 549.033 -3.08633 2.96529 0
M  V30 6021 C 548.359 -4.486 2.90968 0
M  V30 6022 C 549.659 -2.85969 4.37057 0
M  V30 6023 H 551.353 -1.39953 2.64676 0
M  V30 6024 H 548.899 -0.671846 1.27367 0
M  V30 6025 H 550.852 -3.73507 1.95117 0
M  V30 6026 H 549.576 -3.15251 0.853502 0
M  V30 6027 H 548.235 -2.33749 2.82413 0
M  V30 6028 H 547.883 -4.64577 1.92815 0
M  V30 6029 H 547.583 -4.57861 3.68289 0
M  V30 6030 H 549.107 -5.27938 3.0678 0
M  V30 6031 H 550.521 -3.53036 4.51706 0
M  V30 6032 H 548.918 -3.06677 5.15819 0
M  V30 6033 H 549.988 -1.81838 4.49514 0
M  V30 6034 N 551.331 -1.39911 -0.725443 0
M  V30 6035 C 552.261 -1.42138 -1.85254 0
M  V30 6036 C 553.242 -0.283513 -1.67721 0
M  V30 6037 O 554.427 -0.490717 -1.87898 0
M  V30 6038 C 551.557 -1.27354 -3.23107 0
M  V30 6039 C 550.511 -2.3864 -3.55296 0
M  V30 6040 C 549.837 -2.08939 -4.92188 0
M  V30 6041 C 551.137 -3.8097 -3.57295 0
M  V30 6042 H 552.831 -2.36461 -1.83648 0
M  V30 6043 H 550.377 -1.13817 -0.882138 0
M  V30 6044 H 552.33 -1.2753 -4.01639 0
M  V30 6045 H 551.054 -0.295025 -3.25265 0
M  V30 6046 H 549.713 -2.37696 -2.79099 0
M  V30 6047 H 549.361 -1.09502 -4.90936 0
M  V30 6048 H 549.061 -2.83491 -5.14691 0
M  V30 6049 H 550.585 -2.10781 -5.73065 0
M  V30 6050 H 551.999 -3.8379 -4.25885 0
M  V30 6051 H 550.396 -4.5496 -3.9132 0
M  V30 6052 H 551.466 -4.11261 -2.5689 0
M  V30 6053 N 552.809 0.956637 -1.25245 0
M  V30 6054 C 553.739 2.07058 -1.07931 0
M  V30 6055 C 554.72 1.70096 0.0110361 0
M  V30 6056 O 555.905 1.93555 -0.158121 0
M  V30 6057 C 553.035 3.40272 -0.695124 0
M  V30 6058 C 551.989 3.91235 -1.73549 0
M  V30 6059 C 551.315 5.20921 -1.20604 0
M  V30 6060 C 552.615 4.17837 -3.13385 0
M  V30 6061 H 554.309 2.218 -2.01109 0
M  V30 6062 H 551.855 1.06581 -0.968326 0
M  V30 6063 H 553.808 4.1765 -0.560949 0
M  V30 6064 H 552.532 3.25462 0.272355 0
M  V30 6065 H 551.191 3.16025 -1.85807 0
M  V30 6066 H 550.839 5.02479 -0.228846 0
M  V30 6067 H 550.539 5.55987 -1.90136 0
M  V30 6068 H 552.063 6.00897 -1.08421 0
M  V30 6069 H 553.477 4.8588 -3.04292 0
M  V30 6070 H 551.874 4.64154 -3.80369 0
M  V30 6071 H 552.944 3.2419 -3.60595 0
M  V30 6072 N 554.287 1.06798 1.15896 0
M  V30 6073 C 555.217 0.704677 2.22613 0
M  V30 6074 C 556.198 -0.305252 1.67339 0
M  V30 6075 O 557.383 -0.179247 1.93371 0
M  V30 6076 C 554.513 0.0957325 3.47168 0
M  V30 6077 C 553.467 1.0322 4.15367 0
M  V30 6078 C 552.793 0.286293 5.33933 0
M  V30 6079 C 554.093 2.36341 4.65768 0
M  V30 6080 H 555.787 1.59688 2.53259 0
M  V30 6081 H 553.333 0.769257 1.21731 0
M  V30 6082 H 555.286 -0.170333 4.21056 0
M  V30 6083 H 554.01 -0.831516 3.15838 0
M  V30 6084 H 552.669 1.28309 3.43413 0
M  V30 6085 H 552.317 -0.644237 4.98857 0
M  V30 6086 H 552.017 0.910436 5.80504 0
M  V30 6087 H 553.541 0.0278938 6.10594 0
M  V30 6088 H 554.955 2.1561 5.31211 0
M  V30 6089 H 553.352 2.94299 5.2298 0
M  V30 6090 H 554.422 2.99047 3.81705 0
M  V30 6091 N 555.766 -1.3263 0.851289 0
M  V30 6092 C 557.013 -1.97368 0.453023 0
M  V30 6093 C 557.341 -1.67384 -0.990596 0
M  V30 6094 O 556.596 -0.952665 -1.70947 0
M  V30 6095 C 556.895 -3.51713 0.635015 0
M  V30 6096 C 556.561 -4.01676 2.04859 0
M  V30 6097 C 555.223 -4.15031 2.43522 0
M  V30 6098 C 557.575 -4.28206 2.97135 0
M  V30 6099 C 554.903 -4.52257 3.73739 0
M  V30 6100 C 557.255 -4.66889 4.26846 0
M  V30 6101 C 555.919 -4.7845 4.65448 0
M  V30 6102 H 555.189 -0.722219 0.165773 0
M  V30 6103 H 557.836 -1.58092 1.0807 0
M  V30 6104 H 556.141 -3.91726 -0.0759081 0
M  V30 6105 H 557.838 -3.99823 0.306964 0
M  V30 6106 H 554.428 -3.91764 1.73836 0
M  V30 6107 H 558.612 -4.174 2.68498 0
M  V30 6108 H 553.868 -4.59402 4.03435 0
M  V30 6109 H 558.042 -4.86372 4.98413 0
M  V30 6110 H 555.669 -5.07052 5.66395 0
M  V30 6111 N 557.244 -0.608902 -1.45362 0
M  V30 6112 C 558.174 0.0964526 -2.33301 0
M  V30 6113 C 559.155 0.857444 -1.46908 0
M  V30 6114 O 560.34 0.827735 -1.75676 0
M  V30 6115 C 557.47 1.09354 -3.29635 0
M  V30 6116 C 556.424 0.445676 -4.25673 0
M  V30 6117 C 555.75 1.5511 -5.11708 0
M  V30 6118 C 557.05 -0.633972 -5.18438 0
M  V30 6119 H 558.744 -0.637829 -2.92527 0
M  V30 6120 H 556.29 -0.308178 -1.40664 0
M  V30 6121 H 558.243 1.59556 -3.90025 0
M  V30 6122 H 556.967 1.85843 -2.6857 0
M  V30 6123 H 555.626 -0.0354897 -3.66583 0
M  V30 6124 H 555.274 2.30631 -4.4701 0
M  V30 6125 H 554.974 1.12311 -5.76767 0
M  V30 6126 H 556.498 2.05537 -5.74967 0
M  V30 6127 H 557.912 -0.215974 -5.72893 0
M  V30 6128 H 556.309 -0.983789 -5.91981 0
M  V30 6129 H 557.379 -1.51005 -4.60788 0
M  V30 6130 N 558.722 1.53707 -0.348139 0
M  V30 6131 C 559.685 2.23812 0.494058 0
M  V30 6132 C 560.685 1.23989 1.02388 0
M  V30 6133 O 561.875 1.48395 0.912396 0
M  V30 6134 C 559.007 2.96133 1.68872 0
M  V30 6135 H 560.2 2.99663 -0.119141 0
M  V30 6136 H 557.753 1.55983 -0.0995539 0
M  V30 6137 H 558.488 2.24481 2.34049 0
M  V30 6138 H 558.273 3.69357 1.31596 0
M  V30 6139 H 559.763 3.49475 2.28597 0
M  V30 6140 N 560.2 0.0768682 1.57412 0
M  V30 6141 C 561.446 -0.591961 1.93968 0
M  V30 6142 C 561.779 -1.68954 0.9575 0
M  V30 6143 O 561.054 -1.94496 -0.0124675 0
M  V30 6144 C 561.337 -1.16418 3.40762 0
M  V30 6145 C 561.19 -0.0728933 4.49741 0
M  V30 6146 C 562.509 -2.06814 3.88479 0
M  V30 6147 H 559.628 -0.213716 0.705333 0
M  V30 6148 H 562.27 0.14387 1.89455 0
M  V30 6149 H 560.42 -1.79128 3.4474 0
M  V30 6150 H 562.092 0.560446 4.57883 0
M  V30 6151 H 560.335 0.595859 4.29688 0
M  V30 6152 H 561.006 -0.513755 5.49604 0
M  V30 6153 H 563.482 -1.54033 3.8654 0
M  V30 6154 H 562.358 -2.43785 4.91793 0
M  V30 6155 H 562.619 -2.97844 3.26713 0
M  V30 6156 N 561.678 -1.56367 -0.196722 0
M  V30 6157 C 562.641 -1.93561 -1.22746 0
M  V30 6158 C 563.641 -0.816566 -1.38524 0
M  V30 6159 O 564.831 -1.084 -1.36363 0
M  V30 6160 C 561.963 -2.20823 -2.59712 0
M  V30 6161 H 563.156 -2.85774 -0.909586 0
M  V30 6162 H 560.709 -1.50032 -0.438174 0
M  V30 6163 H 561.444 -1.31243 -2.96557 0
M  V30 6164 H 561.229 -3.02368 -2.49632 0
M  V30 6165 H 562.719 -2.50608 -3.34044 0
M  V30 6166 N 563.156 0.464375 -1.50603 0
M  V30 6167 C 564.405 1.21277 -1.61167 0
M  V30 6168 C 564.718 1.92953 -0.320704 0
M  V30 6169 O 565.924 2.69778 -0.30534 0
M  V30 6170 C 564.38 2.20403 -2.84518 0
M  V30 6171 C 563.988 1.54499 -4.20516 0
M  V30 6172 C 565.732 2.95843 -3.0443 0
M  V30 6173 C 563.639 2.51951 -5.35047 0
M  V30 6174 H 562.569 0.456367 -0.600204 0
M  V30 6175 H 565.22 0.48254 -1.77042 0
M  V30 6176 H 563.602 2.96746 -2.62217 0
M  V30 6177 H 564.776 0.83899 -4.53098 0
M  V30 6178 H 563.091 0.913152 -4.06264 0
M  V30 6179 H 565.688 3.6879 -3.87167 0
M  V30 6180 H 566.031 3.55622 -2.16423 0
M  V30 6181 H 566.564 2.26611 -3.26944 0
M  V30 6182 H 563.303 1.96901 -6.25228 0
M  V30 6183 H 562.823 3.20683 -5.06875 0
M  V30 6184 H 564.502 3.13643 -5.65895 0
M  V30 6185 N 564.634 1.40294 0.718013 0
M  V30 6186 C 565.862 1.4175 1.50714 0
M  V30 6187 C 566.277 0.0165366 1.88793 0
M  V30 6188 O 565.634 -0.958942 1.55276 0
M  V30 6189 C 565.685 2.30598 2.784 0
M  V30 6190 O 565.406 3.6524 2.41932 0
M  V30 6191 C 566.907 2.4062 3.72313 0
M  V30 6192 H 564.127 0.483565 0.465194 0
M  V30 6193 H 566.671 1.84316 0.885889 0
M  V30 6194 H 564.826 1.91401 3.36815 0
M  V30 6195 H 565.24 4.12402 3.24076 0
M  V30 6196 H 566.714 3.07001 4.58753 0
M  V30 6197 H 567.191 1.4305 4.15251 0
M  V30 6198 H 567.797 2.80359 3.19811 0
M  V30 6199 N 566.112 -0.949982 1.2575 0
M  V30 6200 C 567.042 -2.06483 1.09028 0
M  V30 6201 C 568.023 -1.701 -0.00201532 0
M  V30 6202 O 569.208 -1.93469 0.168383 0
M  V30 6203 C 566.338 -3.39899 0.71316 0
M  V30 6204 C 565.292 -3.90309 1.75621 0
M  V30 6205 C 564.618 -5.20274 1.23365 0
M  V30 6206 C 565.918 -4.16169 3.15596 0
M  V30 6207 H 567.612 -2.20731 2.02283 0
M  V30 6208 H 565.158 -1.06066 0.973964 0
M  V30 6209 H 567.111 -4.17346 0.58309 0
M  V30 6210 H 565.835 -3.25602 -0.255091 0
M  V30 6211 H 564.494 -3.15035 1.8748 0
M  V30 6212 H 564.142 -5.02351 0.255491 0
M  V30 6213 H 563.842 -5.54971 1.93082 0
M  V30 6214 H 565.366 -6.00314 1.11607 0
M  V30 6215 H 566.78 -4.84259 3.06864 0
M  V30 6216 H 565.177 -4.62131 3.82825 0
M  V30 6217 H 566.247 -3.22273 3.6231 0
M  V30 6218 N 567.59 -1.07411 -1.15328 0
M  V30 6219 C 568.837 -0.797649 -1.86128 0
M  V30 6220 C 569.165 0.676298 -1.82364 0
M  V30 6221 O 568.42 1.51223 -1.24218 0
M  V30 6222 C 568.719 -1.25191 -3.34757 0
M  V30 6223 C 568.385 -2.73191 -3.58716 0
M  V30 6224 C 567.047 -3.13616 -3.64964 0
M  V30 6225 C 569.399 -3.68718 -3.6837 0
M  V30 6226 C 566.727 -4.48383 -3.78377 0
M  V30 6227 C 569.079 -5.03248 -3.83306 0
M  V30 6228 C 567.743 -5.43293 -3.878 0
M  V30 6229 H 567.013 -0.29188 -0.681092 0
M  V30 6230 H 569.66 -1.34524 -1.36292 0
M  V30 6231 H 567.965 -0.623712 -3.86804 0
M  V30 6232 H 569.662 -1.01489 -3.87945 0
M  V30 6233 H 566.252 -2.40898 -3.54494 0
M  V30 6234 H 570.436 -3.38614 -3.62842 0
M  V30 6235 H 565.692 -4.78877 -3.80114 0
M  V30 6236 H 569.866 -5.77142 -3.89718 0
M  V30 6237 H 567.493 -6.47721 -3.97946 0
M  V30 6238 N 569.068 1.32177 -0.85831 0
M  V30 6239 C 570.293 2.01847 -0.476718 0
M  V30 6240 C 570.718 1.64065 0.920021 0
M  V30 6241 O 570.076 0.843189 1.60499 0
M  V30 6242 C 570.124 3.55097 -0.627578 0
M  V30 6243 O 569.228 4.11012 0.338086 0
M  V30 6244 H 568.569 0.635907 -0.191099 0
M  V30 6245 H 571.099 1.68641 -1.15851 0
M  V30 6246 H 571.109 4.04718 -0.516476 0
M  V30 6247 H 569.784 3.81938 -1.64609 0
M  V30 6248 H 568.361 3.72451 0.182917 0
M  V30 6249 N 570.547 0.616602 1.45037 0
M  V30 6250 C 571.958 0.199359 1.85633 0
M  V30 6251 C 572.309 -1.24588 1.51566 0
M  V30 6252 O 571.434 -1.94594 0.94668 0
M  V30 6253 C 572.029 0.355033 3.36935 0
M  V30 6254 C 570.588 -0.00758748 3.76399 0
M  V30 6255 C 569.735 0.675256 2.68953 0
M  V30 6256 H 572.686 0.822708 1.3571 0
M  V30 6257 H 572.707 -0.410201 3.78282 0
M  V30 6258 H 572.219 1.40699 3.61698 0
M  V30 6259 H 570.32 -1.05837 3.57252 0
M  V30 6260 H 570.433 0.392346 4.77491 0
M  V30 6261 H 568.797 0.111992 2.54454 0
M  V30 6262 H 569.58 1.72952 2.96551 0
M  V30 6263 N 572.025 -1.5352 0.356285 0
M  V30 6264 C 572.955 -2.28372 -0.486661 0
M  V30 6265 C 573.936 -1.30432 -1.09185 0
M  V30 6266 O 575.121 -1.59291 -1.11085 0
M  V30 6267 C 572.251 -3.06604 -1.63129 0
M  V30 6268 C 571.205 -4.12154 -1.15381 0
M  V30 6269 C 570.531 -4.78415 -2.38796 0
M  V30 6270 C 571.831 -5.21724 -0.245179 0
M  V30 6271 H 573.525 -2.99083 0.137797 0
M  V30 6272 H 571.071 -1.43841 0.0677134 0
M  V30 6273 H 573.024 -3.57712 -2.22755 0
M  V30 6274 H 571.748 -2.33568 -2.28284 0
M  V30 6275 H 570.407 -3.61978 -0.580294 0
M  V30 6276 H 570.055 -4.01959 -3.02387 0
M  V30 6277 H 569.755 -5.49734 -2.07524 0
M  V30 6278 H 571.279 -5.32313 -2.99125 0
M  V30 6279 H 572.693 -5.68391 -0.748646 0
M  V30 6280 H 571.09 -6.00095 -0.0237608 0
M  V30 6281 H 572.16 -4.79596 0.715229 0
M  V30 6282 N 573.503 -0.0852151 -1.57369 0
M  V30 6283 C 574.749 0.581666 -1.94279 0
M  V30 6284 C 575.082 1.68444 -0.966446 0
M  V30 6285 O 574.357 1.945 0.00215277 0
M  V30 6286 C 574.64 1.14609 -3.41375 0
M  V30 6287 C 574.493 0.0490414 -4.49773 0
M  V30 6288 C 575.812 2.04751 -3.8957 0
M  V30 6289 H 572.931 0.209972 -0.706456 0
M  V30 6290 H 575.573 -0.153915 -1.89376 0
M  V30 6291 H 573.723 1.77297 -3.45685 0
M  V30 6292 H 575.395 -0.584721 -4.57579 0
M  V30 6293 H 573.638 -0.618638 -4.29366 0
M  V30 6294 H 574.309 0.484601 -5.49869 0
M  V30 6295 H 576.785 1.51981 -3.87351 0
M  V30 6296 H 575.661 2.41173 -4.93079 0
M  V30 6297 H 575.922 2.96107 -3.28288 0
M  V30 6298 N 574.981 1.5647 0.188427 0
M  V30 6299 C 576.211 1.84863 0.922463 0
M  V30 6300 C 576.619 0.666413 1.77075 0
M  V30 6301 O 575.962 -0.374044 1.79852 0
M  V30 6302 C 576.024 3.07447 1.86324 0
M  V30 6303 C 575.688 4.41066 1.19625 0
M  V30 6304 C 576.685 5.16767 0.569946 0
M  V30 6305 C 574.37 4.87802 1.19811 0
M  V30 6306 C 576.364 6.37384 -0.045594 0
M  V30 6307 C 574.051 6.08353 0.57874 0
M  V30 6308 C 575.049 6.82987 -0.0420259 0
M  V30 6309 O 574.737 8.01254 -0.651675 0
M  V30 6310 H 574.469 0.61784 0.274316 0
M  V30 6311 H 577.023 2.04437 0.198613 0
M  V30 6312 H 575.253 2.83774 2.62696 0
M  V30 6313 H 576.942 3.2243 2.46564 0
M  V30 6314 H 577.708 4.81749 0.560601 0
M  V30 6315 H 573.587 4.29662 1.67069 0
M  V30 6316 H 577.131 6.95578 -0.530731 0
M  V30 6317 H 573.028 6.42838 0.58561 0
M  V30 6318 H 573.796 8.16655 -0.549236 0
M  V30 6319 N 576.459 -0.456382 1.50847 0
M  V30 6320 C 577.705 -1.20914 1.62811 0
M  V30 6321 C 578.038 -1.91301 0.334304 0
M  V30 6322 O 577.313 -1.82775 -0.665098 0
M  V30 6323 C 577.596 -2.24122 2.81853 0
M  V30 6324 C 577.449 -1.57944 4.21158 0
M  V30 6325 C 578.768 -3.25295 2.96431 0
M  V30 6326 H 575.887 -0.438233 0.592554 0
M  V30 6327 H 578.529 -0.50091 1.83278 0
M  V30 6328 H 576.679 -2.84524 2.64534 0
M  V30 6329 H 578.351 -1.01025 4.50102 0
M  V30 6330 H 576.594 -0.882185 4.24735 0
M  V30 6331 H 577.265 -2.33014 5.00408 0
M  V30 6332 H 579.741 -2.7493 3.12335 0
M  V30 6333 H 578.617 -3.94822 3.81322 0
M  V30 6334 H 578.878 -3.90286 2.07676 0
M  V30 6335 N 577.937 -1.40673 -0.710563 0
M  V30 6336 C 578.9 -1.4108 -1.80635 0
M  V30 6337 C 579.9 -0.303783 -1.57904 0
M  V30 6338 O 581.09 -0.562937 -1.64853 0
M  V30 6339 C 578.222 -1.20748 -3.18799 0
M  V30 6340 H 579.415 -2.38612 -1.81671 0
M  V30 6341 H 576.968 -1.26595 -0.916704 0
M  V30 6342 H 577.703 -0.239964 -3.23411 0
M  V30 6343 H 577.488 -2.00941 -3.36698 0
M  V30 6344 H 578.978 -1.23833 -3.98817 0
M  V30 6345 N 579.415 0.9433 -1.26252 0
M  V30 6346 C 580.325 2.07532 -1.09397 0
M  V30 6347 C 581.341 1.73977 -0.0280449 0
M  V30 6348 O 582.517 2.00067 -0.231337 0
M  V30 6349 C 579.582 3.39002 -0.726523 0
M  V30 6350 C 578.643 3.86353 -1.87163 0
M  V30 6351 C 577.876 5.11549 -1.52162 0
M  V30 6352 O 578.099 5.68834 -0.422385 0
M  V30 6353 O 577.033 5.53889 -2.35565 0
M  V30 6354 H 580.859 2.24658 -2.04359 0
M  V30 6355 H 578.444 1.05988 -1.05295 0
M  V30 6356 H 580.326 4.18 -0.534236 0
M  V30 6357 H 579.001 3.2312 0.193721 0
M  V30 6358 H 577.908 3.0831 -2.11886 0
M  V30 6359 H 579.241 4.06752 -2.77152 0
M  V30 6360 N 580.893 1.08022 1.14757 0
M  V30 6361 C 581.84 0.706657 2.19716 0
M  V30 6362 C 582.81 -0.30525 1.63271 0
M  V30 6363 O 583.995 -0.19015 1.8985 0
M  V30 6364 C 581.135 0.117914 3.44898 0
M  V30 6365 C 580.248 1.18212 4.15512 0
M  V30 6366 C 579.383 0.557659 5.28265 0
M  V30 6367 C 578.422 1.60418 5.90705 0
M  V30 6368 N 577.559 1.0018 6.94916 0
M  V30 6369 H 582.399 1.60603 2.51019 0
M  V30 6370 H 579.936 0.802664 1.23271 0
M  V30 6371 H 581.894 -0.241112 4.16503 0
M  V30 6372 H 580.524 -0.744788 3.1409 0
M  V30 6373 H 579.576 1.65863 3.42335 0
M  V30 6374 H 580.888 1.97533 4.5802 0
M  V30 6375 H 580.042 0.146654 6.06523 0
M  V30 6376 H 578.781 -0.267249 4.86967 0
M  V30 6377 H 577.786 2.02489 5.11154 0
M  V30 6378 H 579.011 2.43149 6.34078 0
M  V30 6379 H 576.957 0.197917 6.55701 0
M  V30 6380 H 576.874 1.73216 7.35889 0
M  V30 6381 H 578.142 0.616523 7.77058 0
M  V30 6382 N 582.371 -1.3172 0.865308 0
M  V30 6383 C 583.281 -2.32394 0.320935 0
M  V30 6384 C 584.297 -1.64511 -0.566746 0
M  V30 6385 O 585.473 -1.95969 -0.464575 0
M  V30 6386 C 582.538 -3.43462 -0.472701 0
M  V30 6387 C 581.599 -4.27015 0.442385 0
M  V30 6388 C 580.832 -5.32779 -0.313469 0
M  V30 6389 O 581.055 -5.49158 -1.54214 0
M  V30 6390 O 579.989 -6.01015 0.326257 0
M  V30 6391 H 583.815 -2.80868 1.15528 0
M  V30 6392 H 581.4 -1.35535 0.628545 0
M  V30 6393 H 583.282 -4.11172 -0.922781 0
M  V30 6394 H 581.957 -2.97159 -1.28367 0
M  V30 6395 H 580.864 -3.62075 0.940866 0
M  V30 6396 H 582.197 -4.76871 1.21882 0
M  V30 6397 N 583.85 -0.624285 -1.44708 0
M  V30 6398 C 585.075 -0.131171 -2.06985 0
M  V30 6399 C 585.5 1.18234 -1.46295 0
M  V30 6400 O 584.858 1.72375 -0.561842 0
M  V30 6401 C 584.906 -0.0226724 -3.60593 0
M  V30 6402 O 584.01 1.02314 -3.99507 0
M  V30 6403 H 583.351 -0.0816556 -0.65896 0
M  V30 6404 H 585.88 -0.859027 -1.85693 0
M  V30 6405 H 585.891 0.170138 -4.07645 0
M  V30 6406 H 584.566 -0.981685 -4.04148 0
M  V30 6407 H 583.143 0.805452 -3.64097 0
M  V30 6408 N 585.328 1.53329 -0.364422 0
M  V30 6409 C 586.576 2.00842 0.225189 0
M  V30 6410 C 586.897 1.25345 1.49378 0
M  V30 6411 O 586.167 0.366396 1.92443 0
M  V30 6412 H 584.747 0.742009 0.0862027 0
M  V30 6413 H 587.409 1.8863 -0.490389 0
M  V30 6414 H 586.505 3.08795 0.452987 0
M  V30 6415 N 586.806 0.0935595 1.57322 0
M  V30 6416 C 588.222 -0.263091 1.57417 0
M  V30 6417 C 588.422 -1.68526 1.1046 0
M  V30 6418 O 587.478 -2.40139 0.780357 0
M  V30 6419 C 588.791 -0.0529201 3.00653 0
M  V30 6420 C 590.339 -0.120788 3.12767 0
M  V30 6421 C 590.814 0.0613707 4.57959 0
M  V30 6422 N 592.305 0.00648534 4.632 0
M  V30 6423 C 593.04 0.122699 5.73269 0
M  V30 6424 N 592.536 0.29366 6.92177 0
M  V30 6425 N 594.329 0.0640787 5.62063 0
M  V30 6426 H 586.48 1.02277 1.86154 0
M  V30 6427 H 588.743 0.4007 0.859153 0
M  V30 6428 H 588.449 0.929279 3.39201 0
M  V30 6429 H 588.323 -0.795899 3.68708 0
M  V30 6430 H 590.71 -1.09349 2.74093 0
M  V30 6431 H 590.791 0.653656 2.47307 0
M  V30 6432 H 590.435 1.03093 4.97327 0
M  V30 6433 H 590.365 -0.732748 5.21477 0
M  V30 6434 H 592.856 -0.123173 3.77699 0
M  V30 6435 H 593.169 0.37389 7.71895 0
M  V30 6436 H 591.514 0.329307 6.94219 0
M  V30 6437 H 594.705 -0.0683396 4.6805 0
M  V30 6438 H 594.878 0.158097 6.47807 0
M  V30 6439 N 588.284 -1.56567 -0.180126 0
M  V30 6440 C 589.53 -1.81761 -0.899497 0
M  V30 6441 C 589.863 -0.670015 -1.82276 0
M  V30 6442 O 589.138 0.328575 -1.91705 0
M  V30 6443 C 589.421 -3.17296 -1.7028 0
M  V30 6444 C 589.274 -4.4257 -0.803255 0
M  V30 6445 C 590.593 -3.49678 -2.67233 0
M  V30 6446 H 587.712 -0.661192 -0.325567 0
M  V30 6447 H 590.354 -1.89272 -0.16612 0
M  V30 6448 H 588.504 -3.11023 -2.32802 0
M  V30 6449 H 590.176 -4.60902 -0.191585 0
M  V30 6450 H 588.419 -4.33658 -0.110796 0
M  V30 6451 H 589.09 -5.33935 -1.40064 0
M  V30 6452 H 591.566 -3.56347 -2.14839 0
M  V30 6453 H 590.442 -4.45605 -3.20511 0
M  V30 6454 H 590.703 -2.73932 -3.47007 0
M  V30 6455 N 589.762 0.448376 -1.51087 0
M  V30 6456 C 590.692 1.55102 -1.74544 0
M  V30 6457 C 591.673 1.59357 -0.594932 0
M  V30 6458 O 592.858 1.75261 -0.836491 0
M  V30 6459 C 589.988 2.93268 -1.86041 0
M  V30 6460 C 588.942 3.03877 -3.01402 0
M  V30 6461 C 588.268 4.43914 -2.98068 0
M  V30 6462 C 589.568 2.7898 -4.41551 0
M  V30 6463 H 591.262 1.35724 -2.66869 0
M  V30 6464 H 588.808 0.651498 -1.28419 0
M  V30 6465 H 590.761 3.70356 -2.01034 0
M  V30 6466 H 589.485 3.13853 -0.903548 0
M  V30 6467 H 588.144 2.29227 -2.86096 0
M  V30 6468 H 587.792 4.6145 -2.00182 0
M  V30 6469 H 587.492 4.51944 -3.75527 0
M  V30 6470 H 589.016 5.22991 -3.1514 0
M  V30 6471 H 590.43 3.45805 -4.57265 0
M  V30 6472 H 588.827 2.98431 -5.20633 0
M  V30 6473 H 589.897 1.74663 -4.5235 0
M  V30 6474 N 591.24 1.41047 0.703093 0
M  V30 6475 C 592.15 1.44645 1.84703 0
M  V30 6476 C 593.166 0.337778 1.7069 0
M  V30 6477 O 594.342 0.584327 1.92737 0
M  V30 6478 C 591.407 1.31928 3.20618 0
M  V30 6479 C 590.468 2.53047 3.46794 0
M  V30 6480 C 589.701 2.40927 4.76224 0
M  V30 6481 O 589.924 1.42978 5.5219 0
M  V30 6482 O 588.858 3.30543 5.03016 0
M  V30 6483 H 592.684 2.41139 1.84624 0
M  V30 6484 H 590.269 1.22504 0.855167 0
M  V30 6485 H 592.151 1.27092 4.01778 0
M  V30 6486 H 590.826 0.385469 3.21397 0
M  V30 6487 H 589.733 2.6346 2.65593 0
M  V30 6488 H 591.066 3.45231 3.50822 0
M  V30 6489 N 592.718 -0.936591 1.26751 0
M  V30 6490 C 593.965 -1.68331 1.12566 0
M  V30 6491 C 594.293 -1.91677 -0.330168 0
M  V30 6492 O 593.548 -1.49859 -1.2586 0
M  V30 6493 C 593.847 -3.06099 1.84494 0
M  V30 6494 C 593.513 -3.02493 3.34378 0
M  V30 6495 C 592.175 -3.01217 3.75262 0
M  V30 6496 C 594.527 -2.94453 4.30055 0
M  V30 6497 C 591.855 -2.89672 5.10203 0
M  V30 6498 C 594.207 -2.84449 5.65041 0
M  V30 6499 C 592.871 -2.81518 6.0523 0
M  V30 6500 H 592.141 -0.615965 0.411907 0
M  V30 6501 H 594.788 -1.09292 1.5725 0
M  V30 6502 H 593.093 -3.6879 1.32292 0
M  V30 6503 H 594.79 -3.62733 1.70955 0
M  V30 6504 H 591.38 -3.04269 3.01858 0
M  V30 6505 H 595.564 -2.94544 3.99447 0
M  V30 6506 H 590.82 -2.85783 5.40498 0
M  V30 6507 H 594.994 -2.77192 6.38856 0
M  V30 6508 H 592.621 -2.72329 7.09747 0
M  V30 6509 N 594.196 -1.08629 -1.14182 0
M  V30 6510 C 595.424 -0.838889 -1.8913 0
M  V30 6511 C 595.839 0.609153 -1.78703 0
M  V30 6512 O 595.196 1.41876 -1.14794 0
M  V30 6513 C 595.247 -1.25477 -3.39025 0
M  V30 6514 O 594.968 -2.64601 -3.49167 0
M  V30 6515 C 596.469 -1.03856 -4.30963 0
M  V30 6516 H 593.689 -0.302377 -0.599007 0
M  V30 6517 H 596.233 -1.44615 -1.44592 0
M  V30 6518 H 594.388 -0.691571 -3.81177 0
M  V30 6519 H 594.802 -2.81922 -4.42289 0
M  V30 6520 H 596.276 -1.37892 -5.345 0
M  V30 6521 H 596.753 0.0242522 -4.39193 0
M  V30 6522 H 597.359 -1.58731 -3.94569 0
M  V30 6523 N 595.674 1.31259 -0.872281 0
M  V30 6524 C 596.899 2.0133 -0.498099 0
M  V30 6525 C 597.324 1.65031 0.902568 0
M  V30 6526 O 596.682 0.860164 1.59596 0
M  V30 6527 C 596.73 3.54411 -0.665205 0
M  V30 6528 O 595.834 4.11347 0.294473 0
M  V30 6529 H 595.175 0.633844 -0.197832 0
M  V30 6530 H 597.705 1.67402 -1.17633 0
M  V30 6531 H 597.715 4.04147 -0.559373 0
M  V30 6532 H 596.39 3.80171 -1.68651 0
M  V30 6533 H 594.967 3.72624 0.143403 0
M  V30 6534 N 597.152 0.631951 1.44375 0
M  V30 6535 C 598.401 0.134214 2.01253 0
M  V30 6536 C 598.714 -1.25171 1.50305 0
M  V30 6537 O 599.92 -1.8435 1.99317 0
M  V30 6538 C 598.376 0.189187 3.59402 0
M  V30 6539 C 597.984 1.57647 4.19346 0
M  V30 6540 C 599.728 -0.252044 4.23751 0
M  V30 6541 C 597.635 1.58651 5.69722 0
M  V30 6542 H 596.565 0.0464101 0.75257 0
M  V30 6543 H 599.216 0.790868 1.65582 0
M  V30 6544 H 597.598 -0.534584 3.92375 0
M  V30 6545 H 598.772 2.32389 3.97909 0
M  V30 6546 H 597.087 1.96186 3.67288 0
M  V30 6547 H 599.684 -0.264084 5.34047 0
M  V30 6548 H 600.027 -1.27951 3.96149 0
M  V30 6549 H 600.56 0.41926 3.95584 0
M  V30 6550 H 597.299 2.59237 6.0206 0
M  V30 6551 H 596.819 0.882039 5.93279 0
M  V30 6552 H 598.498 1.32082 6.33375 0
M  V30 6553 N 598.631 -1.53133 0.372548 0
M  V30 6554 C 600.042 -1.86404 -0.105155 0
M  V30 6555 C 600.393 -1.29289 -1.47576 0
M  V30 6556 O 599.518 -0.617646 -2.07398 0
M  V30 6557 C 600.113 -3.38223 -0.197588 0
M  V30 6558 C 598.672 -3.71266 -0.619556 0
M  V30 6559 C 597.819 -2.76353 0.228919 0
M  V30 6560 H 600.77 -1.47282 0.591077 0
M  V30 6561 H 600.791 -3.66577 -1.01987 0
M  V30 6562 H 600.303 -3.79763 0.800099 0
M  V30 6563 H 598.404 -3.35287 -1.62522 0
M  V30 6564 H 598.517 -4.77515 -0.389332 0
M  V30 6565 H 596.881 -2.52888 -0.303271 0
M  V30 6566 H 597.664 -3.20728 1.22428 0
M  V30 6567 N 600.109 -0.101901 -1.5727 0
M  V30 6568 C 601.072 0.840129 -2.13247 0
M  V30 6569 C 602.072 1.20625 -1.06331 0
M  V30 6570 O 603.262 1.13456 -1.32186 0
M  V30 6571 C 600.394 2.13372 -2.65867 0
M  V30 6572 H 601.587 0.353945 -2.97804 0
M  V30 6573 H 599.14 0.147167 -1.55606 0
M  V30 6574 H 599.875 2.66461 -1.84849 0
M  V30 6575 H 599.66 1.88085 -3.44044 0
M  V30 6576 H 601.15 2.80748 -3.09145 0
M  V30 6577 N 601.587 1.56661 0.17182 0
M  V30 6578 C 602.812 1.86459 0.908165 0
M  V30 6579 C 603.237 0.688181 1.75059 0
M  V30 6580 O 602.595 -0.362753 1.77634 0
M  V30 6581 C 602.643 3.14669 1.76112 0
M  V30 6582 O 601.747 2.96858 2.86268 0
M  V30 6583 H 601.088 0.613318 0.254434 0
M  V30 6584 H 603.618 2.03892 0.170113 0
M  V30 6585 H 603.628 3.46061 2.16115 0
M  V30 6586 H 602.303 3.99905 1.14233 0
M  V30 6587 H 600.88 2.76819 2.49852 0
M  V30 6588 N 603.065 -0.440357 1.51323 0
M  V30 6589 C 604.295 -1.21079 1.67402 0
M  V30 6590 C 604.703 -1.85555 0.369599 0
M  V30 6591 O 604.046 -1.71375 -0.661525 0
M  V30 6592 C 604.108 -2.33839 2.73056 0
M  V30 6593 C 603.772 -1.89755 4.15743 0
M  V30 6594 C 604.769 -1.40268 5.0062 0
M  V30 6595 C 602.454 -1.97539 4.61826 0
M  V30 6596 C 604.448 -0.991474 6.29642 0
M  V30 6597 C 602.135 -1.56029 5.90845 0
M  V30 6598 C 603.133 -1.06915 6.7458 0
M  V30 6599 O 602.821 -0.659933 8.01187 0
M  V30 6600 H 602.553 -0.371133 0.56501 0
M  V30 6601 H 605.107 -0.528409 1.98487 0
M  V30 6602 H 603.337 -3.05345 2.37279 0
M  V30 6603 H 605.026 -2.95713 2.78044 0
M  V30 6604 H 605.792 -1.33652 4.66221 0
M  V30 6605 H 601.671 -2.34713 3.96776 0
M  V30 6606 H 605.215 -0.607425 6.9495 0
M  V30 6607 H 601.112 -1.62315 6.24759 0
M  V30 6608 H 601.88 -0.786052 8.14717 0
M  V30 6609 N 604.543 -1.41418 -0.695603 0
M  V30 6610 C 605.789 -1.41983 -1.45645 0
M  V30 6611 C 606.144 -0.0282216 -1.92379 0
M  V30 6612 O 605.437 0.945916 -1.66622 0
M  V30 6613 C 605.631 -2.36112 -2.68302 0
M  V30 6614 C 605.46 -3.84288 -2.33566 0
M  V30 6615 C 604.23 -4.52971 -2.23932 0
M  V30 6616 C 606.428 -4.75264 -1.96543 0
M  V30 6617 N 604.41 -5.86276 -1.82081 0
M  V30 6618 C 605.781 -5.97517 -1.6545 0
M  V30 6619 C 607.836 -4.62911 -1.83352 0
M  V30 6620 C 606.539 -7.08793 -1.22492 0
M  V30 6621 C 608.565 -5.74149 -1.41799 0
M  V30 6622 C 607.927 -6.95501 -1.11617 0
M  V30 6623 H 604.026 -0.574771 -0.530247 0
M  V30 6624 H 606.61 -1.77289 -0.804788 0
M  V30 6625 H 604.781 -2.02902 -3.31188 0
M  V30 6626 H 606.513 -2.27397 -3.34773 0
M  V30 6627 H 603.268 -4.06909 -2.42327 0
M  V30 6628 H 603.692 -6.56926 -1.63638 0
M  V30 6629 H 608.334 -3.69588 -2.05341 0
M  V30 6630 H 606.052 -8.01982 -0.992482 0
M  V30 6631 H 609.638 -5.66595 -1.32143 0
M  V30 6632 H 608.518 -7.80114 -0.799493 0
M  V30 6633 N 606.021 0.929856 -1.27246 0
M  V30 6634 C 607.267 1.6802 -1.14634 0
M  V30 6635 C 607.622 1.89965 0.305151 0
M  V30 6636 O 606.915 1.47737 1.22001 0
M  V30 6637 C 607.109 3.05116 -1.86115 0
M  V30 6638 C 606.938 2.96549 -3.38066 0
M  V30 6639 C 605.708 2.98947 -4.0738 0
M  V30 6640 C 607.906 2.7583 -4.34077 0
M  V30 6641 N 605.888 2.80799 -5.45917 0
M  V30 6642 C 607.259 2.66364 -5.59866 0
M  V30 6643 C 609.314 2.60701 -4.24193 0
M  V30 6644 C 608.017 2.43313 -6.76898 0
M  V30 6645 C 610.043 2.39026 -5.40944 0
M  V30 6646 C 609.405 2.30302 -6.65688 0
M  V30 6647 H 605.504 0.62172 -0.474329 0
M  V30 6648 H 608.088 1.09947 -1.60685 0
M  V30 6649 H 606.259 3.61306 -1.42522 0
M  V30 6650 H 607.991 3.69076 -1.66027 0
M  V30 6651 H 604.746 3.09093 -3.58829 0
M  V30 6652 H 605.17 2.74861 -6.18692 0
M  V30 6653 H 609.812 2.66206 -3.28473 0
M  V30 6654 H 607.53 2.36548 -7.72704 0
M  V30 6655 H 611.116 2.28208 -5.35175 0
M  V30 6656 H 609.996 2.13756 -7.54505 0
M  V30 6657 N 607.499 1.09233 1.13605 0
M  V30 6658 C 608.462 0.733553 2.17144 0
M  V30 6659 C 609.462 -0.235873 1.59061 0
M  V30 6660 O 610.652 -0.0143167 1.74194 0
M  V30 6661 C 607.784 0.084471 3.40795 0
M  V30 6662 H 608.977 1.65049 2.50397 0
M  V30 6663 H 606.53 0.891264 1.28399 0
M  V30 6664 H 607.265 -0.843795 3.1313 0
M  V30 6665 H 607.05 0.781985 3.84223 0
M  V30 6666 H 608.54 -0.151216 4.17326 0
M  V30 6667 N 608.977 -1.30795 0.87923 0
M  V30 6668 C 610.226 -1.95636 0.490875 0
M  V30 6669 C 610.539 -1.70214 -0.963674 0
M  V30 6670 O 611.745 -2.28991 -1.45861 0
M  V30 6671 C 610.201 -3.50271 0.826929 0
M  V30 6672 C 609.809 -3.84521 2.29886 0
M  V30 6673 C 611.553 -4.21456 0.507494 0
M  V30 6674 C 609.46 -5.32309 2.57685 0
M  V30 6675 H 608.39 -0.732238 0.179841 0
M  V30 6676 H 611.041 -1.48829 1.07341 0
M  V30 6677 H 609.423 -3.9562 0.173542 0
M  V30 6678 H 610.597 -3.50102 2.99609 0
M  V30 6679 H 608.912 -3.26425 2.58526 0
M  V30 6680 H 611.509 -5.30199 0.692293 0
M  V30 6681 H 611.852 -4.12614 -0.552718 0
M  V30 6682 H 612.385 -3.81772 1.11782 0
M  V30 6683 H 609.124 -5.46195 3.62424 0
M  V30 6684 H 608.644 -5.68048 1.92566 0
M  V30 6685 H 610.323 -5.99678 2.42889 0
M  V30 6686 N 610.455 -0.639598 -1.44038 0
M  V30 6687 C 611.704 -0.144885 -2.01179 0
M  V30 6688 C 612.017 1.24372 -1.50967 0
M  V30 6689 O 613.223 1.83291 -2.00292 0
M  V30 6690 C 611.679 -0.208244 -3.59297 0
M  V30 6691 C 611.287 -1.59869 -4.18504 0
M  V30 6692 C 613.031 0.229568 -4.23879 0
M  V30 6693 C 610.938 -1.61671 -5.68873 0
M  V30 6694 H 609.868 -0.0504005 -0.752314 0
M  V30 6695 H 612.519 -0.799639 -1.65161 0
M  V30 6696 H 610.901 0.513767 -3.92653 0
M  V30 6697 H 612.075 -2.34496 -3.96671 0
M  V30 6698 H 610.39 -1.98131 -3.66242 0
M  V30 6699 H 612.987 0.235758 -5.3418 0
M  V30 6700 H 613.33 1.25848 -3.96822 0
M  V30 6701 H 613.863 -0.440233 -3.95357 0
M  V30 6702 H 610.602 -2.62427 -6.00677 0
M  V30 6703 H 610.122 -0.913489 -5.92803 0
M  V30 6704 H 611.801 -1.35439 -6.32665 0
M  V30 6705 N 611.933 1.52934 -0.380664 0
M  V30 6706 C 613.158 2.06363 0.207157 0
M  V30 6707 C 613.583 1.25122 1.4045 0
M  V30 6708 O 612.941 0.274062 1.79217 0
M  V30 6709 C 612.989 3.56162 0.563996 0
M  V30 6710 O 612.093 3.77552 1.65917 0
M  V30 6711 H 611.434 0.663468 0.0265859 0
M  V30 6712 H 613.964 1.9719 -0.545635 0
M  V30 6713 H 613.974 3.99453 0.830752 0
M  V30 6714 H 612.649 4.14732 -0.311427 0
M  V30 6715 H 611.226 3.46154 1.3868 0
M  V30 6716 N 613.412 0.11024 1.57214 0
M  V30 6717 C 614.345 -0.880224 2.1054 0
M  V30 6718 C 615.323 -1.26658 1.01964 0
M  V30 6719 O 616.507 -1.36917 1.29561 0
M  V30 6720 C 613.634 -2.17676 2.59489 0
M  V30 6721 C 612.68 -1.93914 3.79868 0
M  V30 6722 S 613.513 -1.16336 5.2271 0
M  V30 6723 C 614.669 -2.47188 5.75021 0
M  V30 6724 H 614.902 -0.426614 2.94223 0
M  V30 6725 H 612.435 -0.10336 1.54054 0
M  V30 6726 H 614.393 -2.92175 2.88347 0
M  V30 6727 H 613.054 -2.60156 1.76005 0
M  V30 6728 H 612.247 -2.8996 4.12236 0
M  V30 6729 H 611.849 -1.27539 3.51582 0
M  V30 6730 H 614.141 -3.43079 5.84211 0
M  V30 6731 H 615.084 -2.19377 6.7326 0
M  V30 6732 H 615.492 -2.56154 5.03036 0
M  V30 6733 N 614.89 -1.56749 -0.16351 0
M  V30 6734 C 616.118 -1.86577 -0.894233 0
M  V30 6735 C 616.533 -0.696543 -1.75481 0
M  V30 6736 O 615.89 0.334161 -1.79415 0
M  V30 6737 C 615.941 -3.15508 -1.76456 0
M  V30 6738 O 615.662 -4.27926 -0.938685 0
M  V30 6739 C 617.163 -3.58737 -2.60428 0
M  V30 6740 H 614.383 -0.618829 -0.259405 0
M  V30 6741 H 616.927 -2.03863 -0.161259 0
M  V30 6742 H 615.082 -3.00025 -2.45079 0
M  V30 6743 H 615.496 -5.01546 -1.53465 0
M  V30 6744 H 616.97 -4.51832 -3.17099 0
M  V30 6745 H 617.447 -2.83229 -3.35675 0
M  V30 6746 H 618.053 -3.76858 -1.97125 0
M  V30 6747 N 616.368 0.432326 -1.51554 0
M  V30 6748 C 617.596 1.20364 -1.68286 0
M  V30 6749 C 618.011 1.84888 -0.38233 0
M  V30 6750 O 617.368 1.70924 0.639627 0
M  V30 6751 C 617.419 2.28398 -2.80208 0
M  V30 6752 O 617.14 1.66512 -4.05223 0
M  V30 6753 C 618.641 3.18584 -3.08251 0
M  V30 6754 H 615.861 0.36259 -0.564596 0
M  V30 6755 H 618.405 0.511647 -1.97996 0
M  V30 6756 H 616.56 2.93305 -2.53083 0
M  V30 6757 H 616.974 2.37951 -4.67418 0
M  V30 6758 H 618.448 3.90511 -3.90135 0
M  V30 6759 H 618.925 3.79628 -2.2086 0
M  V30 6760 H 619.531 2.59372 -3.37055 0
M  V30 6761 N 617.846 1.41785 0.688094 0
M  V30 6762 C 619.092 1.41753 1.4503 0
M  V30 6763 C 619.425 0.0290745 1.94178 0
M  V30 6764 O 618.7 -0.944456 1.7003 0
M  V30 6765 C 618.983 2.43069 2.65686 0
M  V30 6766 C 618.836 3.91053 2.22256 0
M  V30 6767 C 620.155 2.41543 3.67893 0
M  V30 6768 H 617.274 0.516202 0.526027 0
M  V30 6769 H 619.916 1.73111 0.783105 0
M  V30 6770 H 618.066 2.1646 3.2261 0
M  V30 6771 H 619.738 4.28594 1.70602 0
M  V30 6772 H 617.981 4.05559 1.53963 0
M  V30 6773 H 618.652 4.57501 3.08863 0
M  V30 6774 H 621.128 2.65175 3.20658 0
M  V30 6775 H 620.004 3.14434 4.49914 0
M  V30 6776 H 620.265 1.43666 4.18106 0
M  V30 6777 N 619.324 -0.923095 1.27737 0
M  V30 6778 C 620.572 -1.66797 1.14119 0
M  V30 6779 C 620.893 -1.92479 -0.312541 0
M  V30 6780 O 620.163 -1.53432 -1.218 0
M  V30 6781 H 618.743 -0.618196 0.419336 0
M  V30 6782 H 621.405 -1.10815 1.60331 0
M  V30 6783 H 620.501 -2.63424 1.67374 0
M  V30 6784 N 620.802 -1.09834 -1.13024 0
M  V30 6785 C 622.032 -0.857657 -1.87957 0
M  V30 6786 C 622.44 0.595008 -1.796 0
M  V30 6787 O 621.783 1.42158 -1.16347 0
M  V30 6788 C 621.845 -1.21949 -3.38185 0
M  V30 6789 C 621.509 -2.67791 -3.7032 0
M  V30 6790 C 622.506 -3.66036 -3.69207 0
M  V30 6791 C 620.191 -3.04019 -3.99847 0
M  V30 6792 C 622.185 -4.98533 -3.9717 0
M  V30 6793 C 619.872 -4.36706 -4.27471 0
M  V30 6794 C 620.87 -5.33772 -4.26118 0
M  V30 6795 O 620.558 -6.64072 -4.53061 0
M  V30 6796 H 620.29 -0.308009 -0.601753 0
M  V30 6797 H 622.844 -1.46496 -1.43973 0
M  V30 6798 H 621.074 -0.555249 -3.82693 0
M  V30 6799 H 622.763 -0.957281 -3.9445 0
M  V30 6800 H 623.529 -3.39392 -3.46465 0
M  V30 6801 H 619.408 -2.29096 -4.00045 0
M  V30 6802 H 622.952 -5.74288 -3.96029 0
M  V30 6803 H 618.849 -4.63091 -4.49685 0
M  V30 6804 H 619.617 -6.69608 -4.7071 0
M  V30 6805 N 622.28 1.30327 -0.886154 0
M  V30 6806 C 623.528 1.9571 -0.504195 0
M  V30 6807 C 623.849 1.70294 0.950003 0
M  V30 6808 O 623.119 1.02718 1.66811 0
M  V30 6809 H 621.699 0.72412 -0.183465 0
M  V30 6810 H 624.361 1.58835 -1.12949 0
M  V30 6811 H 623.457 3.04704 -0.675431 0
M  V30 6812 N 623.758 0.647228 1.43697 0
M  V30 6813 C 625.035 0.0883758 1.954 0
M  V30 6814 C 625.415 -1.39006 1.58873 0
M  V30 6815 O 624.763 -2.11255 0.87083 0
M  V30 6816 C 624.973 0.328263 3.47453 0
M  V30 6817 C 626.321 0.230009 4.23977 0
M  V30 6818 O 627.345 0.260496 3.55246 0
M  V30 6819 O 626.204 0.148615 5.46298 0
M  V30 6820 H 623.298 -0.0130683 0.826897 0
M  V30 6821 H 625.844 0.72005 1.53666 0
M  V30 6822 H 624.616 1.3535 3.67146 0
M  V30 6823 H 624.239 -0.336772 3.96171 0
M  V30 6824 N 625.236 -1.5273 0.388769 0
M  V30 6825 C 626.169 -2.22861 -0.490752 0
M  V30 6826 C 627.147 -1.22912 -1.06449 0
M  V30 6827 O 628.331 -1.51896 -1.11624 0
M  V30 6828 C 625.458 -2.94141 -1.67925 0
M  V30 6829 C 624.504 -4.08355 -1.23081 0
M  V30 6830 S 625.337 -5.35077 -0.212786 0
M  V30 6831 C 626.493 -6.09879 -1.40708 0
M  V30 6832 H 626.726 -2.97115 0.104787 0
M  V30 6833 H 624.259 -1.53428 0.172956 0
M  V30 6834 H 626.217 -3.35818 -2.36085 0
M  V30 6835 H 624.878 -2.19568 -2.24608 0
M  V30 6836 H 624.071 -4.57328 -2.11818 0
M  V30 6837 H 623.673 -3.68688 -0.628121 0
M  V30 6838 H 625.965 -6.36018 -2.33424 0
M  V30 6839 H 626.908 -7.01586 -0.958271 0
M  V30 6840 H 627.316 -5.40646 -1.62364 0
M  V30 6841 N 626.714 -0.118576 -1.57153 0
M  V30 6842 C 627.96 0.540326 -1.95469 0
M  V30 6843 C 628.293 1.66356 -1.00196 0
M  V30 6844 O 627.568 1.94461 -0.039104 0
M  V30 6845 C 627.851 1.07342 -3.43729 0
M  V30 6846 C 627.704 -0.0463732 -4.49776 0
M  V30 6847 C 629.023 1.96442 -3.93826 0
M  V30 6848 H 626.142 0.19494 -0.710751 0
M  V30 6849 H 628.784 -0.19405 -1.89006 0
M  V30 6850 H 626.934 1.69925 -3.49368 0
M  V30 6851 H 628.606 -0.681648 -4.56236 0
M  V30 6852 H 626.849 -0.709574 -4.27957 0
M  V30 6853 H 627.52 0.367856 -5.50773 0
M  V30 6854 H 629.996 1.43731 -3.90488 0
M  V30 6855 H 628.872 2.3066 -4.98084 0
M  V30 6856 H 629.133 2.89077 -3.34495 0
M  V30 6857 N 628.193 1.56834 0.155195 0
M  V30 6858 C 629.604 1.72421 0.716082 0
M  V30 6859 C 629.955 0.731685 1.82046 0
M  V30 6860 O 629.08 -0.103481 2.16152 0
M  V30 6861 C 629.675 3.12629 1.30571 0
M  V30 6862 C 628.234 3.29846 1.81325 0
M  V30 6863 C 627.381 2.68359 0.698494 0
M  V30 6864 H 630.332 1.58544 -0.0703861 0
M  V30 6865 H 630.353 3.12174 2.1755 0
M  V30 6866 H 629.865 3.84844 0.501701 0
M  V30 6867 H 627.966 2.62614 2.64319 0
M  V30 6868 H 628.079 4.37727 1.9476 0
M  V30 6869 H 626.443 2.28604 1.12305 0
M  V30 6870 H 627.226 3.43171 -0.0939366 0
M  V30 6871 N 629.671 -0.424282 1.51781 0
M  V30 6872 C 631.087 -0.761768 1.40247 0
M  V30 6873 C 631.287 -1.95324 0.495041 0
M  V30 6874 O 630.343 -2.5246 -0.0448949 0
M  V30 6875 C 631.656 -1.0299 2.82513 0
M  V30 6876 C 633.204 -1.13354 2.91753 0
M  V30 6877 C 633.679 -1.43453 4.34954 0
M  V30 6878 N 635.17 -1.5035 4.3812 0
M  V30 6879 C 635.905 -1.75236 5.45967 0
M  V30 6880 N 635.401 -1.97827 6.63955 0
M  V30 6881 N 637.194 -1.77126 5.33463 0
M  V30 6882 H 629.345 0.360228 2.09323 0
M  V30 6883 H 631.608 0.0988128 0.942836 0
M  V30 6884 H 631.314 -0.226961 3.50967 0
M  V30 6885 H 631.188 -1.95411 3.22637 0
M  V30 6886 H 633.575 -1.92709 2.23489 0
M  V30 6887 H 633.656 -0.188041 2.55108 0
M  V30 6888 H 633.3 -0.646209 5.03772 0
M  V30 6889 H 633.23 -2.3923 4.69123 0
M  V30 6890 H 635.721 -1.34742 3.53062 0
M  V30 6891 H 636.034 -2.16223 7.41935 0
M  V30 6892 H 634.379 -1.95123 6.67047 0
M  V30 6893 H 637.57 -1.59005 4.40267 0
M  V30 6894 H 637.743 -1.96182 6.17589 0
M  V30 6895 N 631.149 -1.42148 -0.680565 0
M  V30 6896 C 632.374 -1.45901 -1.47403 0
M  V30 6897 C 632.799 -0.0700985 -1.87969 0
M  V30 6898 O 632.157 0.930145 -1.55621 0
M  V30 6899 C 632.205 -2.38661 -2.70321 0
M  V30 6900 O 631.309 -1.85399 -3.68376 0
M  V30 6901 H 630.65 -0.494565 -0.443059 0
M  V30 6902 H 633.18 -1.86774 -0.835251 0
M  V30 6903 H 633.19 -2.55046 -3.18458 0
M  V30 6904 H 631.865 -3.39571 -2.40134 0
M  V30 6905 H 630.442 -1.78541 -3.2738 0
M  V30 6906 N 632.627 0.916307 -1.28225 0
M  V30 6907 C 633.873 1.66765 -1.154 0
M  V30 6908 C 634.206 1.91912 0.297251 0
M  V30 6909 O 633.481 1.51766 1.21644 0
M  V30 6910 C 633.764 3.02715 -1.95028 0
M  V30 6911 C 633.617 2.84738 -3.48201 0
M  V30 6912 C 634.936 4.03215 -1.76369 0
M  V30 6913 H 632.055 0.605205 -0.42059 0
M  V30 6914 H 634.697 1.06255 -1.57512 0
M  V30 6915 H 632.847 3.54365 -1.59242 0
M  V30 6916 H 634.519 2.40118 -3.9388 0
M  V30 6917 H 632.762 2.19848 -3.73964 0
M  V30 6918 H 633.433 3.8127 -3.99171 0
M  V30 6919 H 635.909 3.60617 -2.07593 0
M  V30 6920 H 634.785 4.96306 -2.34459 0
M  V30 6921 H 635.046 4.36288 -0.71452 0
M  V30 6922 N 634.105 1.10431 1.1244 0
M  V30 6923 C 635.516 0.864439 1.65482 0
M  V30 6924 C 635.867 -0.60527 1.8663 0
M  V30 6925 O 634.992 -1.46492 1.59276 0
M  V30 6926 C 635.587 1.56267 3.0061 0
M  V30 6927 C 634.146 1.3695 3.50602 0
M  V30 6928 C 633.293 1.61209 2.25626 0
M  V30 6929 H 636.244 1.26203 0.962209 0
M  V30 6930 H 636.265 1.00166 3.67079 0
M  V30 6931 H 635.777 2.63231 2.85186 0
M  V30 6932 H 633.878 0.321481 3.71211 0
M  V30 6933 H 633.991 2.11143 4.30064 0
M  V30 6934 H 632.355 1.03482 2.32731 0
M  V30 6935 H 633.138 2.69425 2.12756 0
M  V30 6936 N 635.583 -1.29855 0.893053 0
M  V30 6937 C 636.831 -1.9544 0.514566 0
M  V30 6938 C 637.152 -1.70795 -0.940959 0
M  V30 6939 O 636.422 -1.03601 -1.66264 0
M  V30 6940 H 635.002 -0.723137 0.187302 0
M  V30 6941 H 637.664 -1.58234 1.13789 0
M  V30 6942 H 636.76 -3.04341 0.691581 0
M  V30 6943 N 637.061 -0.65484 -1.43351 0
M  V30 6944 C 637.993 0.0744757 -2.29079 0
M  V30 6945 C 639.006 0.7855 -1.42596 0
M  V30 6946 O 640.195 0.642986 -1.66517 0
M  V30 6947 C 637.295 1.12859 -3.19556 0
M  V30 6948 C 636.468 0.495381 -4.34586 0
M  V30 6949 C 635.527 1.44659 -5.05925 0
M  V30 6950 O 634.553 0.954567 -5.61139 0
M  V30 6951 N 635.755 2.78051 -5.09576 0
M  V30 6952 H 638.52 -0.661346 -2.92312 0
M  V30 6953 H 636.081 -0.497744 -1.54059 0
M  V30 6954 H 638.073 1.76577 -3.64147 0
M  V30 6955 H 636.643 1.76636 -2.57912 0
M  V30 6956 H 635.863 -0.32092 -3.92892 0
M  V30 6957 H 637.151 0.0534203 -5.08772 0
M  V30 6958 H 636.549 3.20584 -4.66093 0
M  V30 6959 H 635.106 3.37068 -5.57878 0
M  V30 6960 N 638.539 1.52521 -0.396863 0
M  V30 6961 C 639.472 2.23118 0.478926 0
M  V30 6962 C 640.45 1.23475 1.05796 0
M  V30 6963 O 641.634 1.52486 1.10817 0
M  V30 6964 C 638.761 2.95028 1.66362 0
M  V30 6965 C 637.807 4.09002 1.20913 0
M  V30 6966 S 638.64 5.35182 0.184407 0
M  V30 6967 C 639.796 6.10616 1.37471 0
M  V30 6968 H 640.029 2.97056 -0.120542 0
M  V30 6969 H 637.562 1.53334 -0.18109 0
M  V30 6970 H 639.52 3.37066 2.34301 0
M  V30 6971 H 638.181 2.20756 2.23441 0
M  V30 6972 H 637.374 4.58445 2.09389 0
M  V30 6973 H 636.976 3.69016 0.608559 0
M  V30 6974 H 639.268 6.37247 2.30048 0
M  V30 6975 H 640.211 7.02084 0.921051 0
M  V30 6976 H 640.619 5.41499 1.59495 0
M  V30 6977 N 640.017 0.126909 1.57088 0
M  V30 6978 C 641.263 -0.529952 1.95753 0
M  V30 6979 C 641.596 -1.65823 1.01077 0
M  V30 6980 O 640.871 -1.94437 0.0494162 0
M  V30 6981 C 641.154 -1.05517 3.44294 0
M  V30 6982 C 641.007 0.0702253 4.49745 0
M  V30 6983 C 642.326 -1.9435 3.94862 0
M  V30 6984 H 639.445 -0.191168 0.711775 0
M  V30 6985 H 642.087 0.204071 1.88901 0
M  V30 6986 H 640.237 -1.68069 3.50264 0
M  V30 6987 H 641.909 0.705834 4.55868 0
M  V30 6988 H 640.152 0.732259 4.27575 0
M  V30 6989 H 640.823 -0.338642 5.5096 0
M  V30 6990 H 643.299 -1.41658 3.91244 0
M  V30 6991 H 642.175 -2.28015 4.993 0
M  V30 6992 H 642.436 -2.87299 3.36024 0
M  V30 6993 N 641.495 -1.56914 -0.146875 0
M  V30 6994 C 642.458 -1.97368 -1.16526 0
M  V30 6995 C 643.458 -0.860223 -1.35856 0
M  V30 6996 O 644.648 -1.12684 -1.32846 0
M  V30 6997 C 641.78 -2.28974 -2.52555 0
M  V30 6998 H 642.973 -2.88523 -0.818209 0
M  V30 6999 H 640.526 -1.5135 -0.390221 0
M  V30 7000 H 641.261 -1.40611 -2.92231 0
M  V30 7001 H 641.046 -3.10157 -2.39886 0
M  V30 7002 H 642.536 -2.61109 -3.25902 0
M  V30 7003 N 642.974 0.416227 -1.52004 0
M  V30 7004 C 643.904 1.51365 -1.77795 0
M  V30 7005 C 644.885 1.58059 -0.628601 0
M  V30 7006 O 646.07 1.73447 -0.873478 0
M  V30 7007 C 643.2 2.89256 -1.92219 0
M  V30 7008 C 642.154 2.97415 -3.0778 0
M  V30 7009 C 641.48 4.37492 -3.07417 0
M  V30 7010 C 642.78 2.69551 -4.47369 0
M  V30 7011 H 644.474 1.30033 -2.69688 0
M  V30 7012 H 642.02 0.624112 -1.29772 0
M  V30 7013 H 643.973 3.66008 -2.08845 0
M  V30 7014 H 642.697 3.11866 -0.969917 0
M  V30 7015 H 641.356 2.23107 -2.90893 0
M  V30 7016 H 641.004 4.571 -2.09925 0
M  V30 7017 H 640.704 4.43877 -3.85029 0
M  V30 7018 H 642.228 5.16188 -3.26162 0
M  V30 7019 H 643.642 3.36028 -4.64497 0
M  V30 7020 H 642.039 2.87321 -5.26846 0
M  V30 7021 H 643.109 1.65029 -4.55953 0
M  V30 7022 N 644.452 1.42507 0.673017 0
M  V30 7023 C 645.677 1.4668 1.46627 0
M  V30 7024 C 646.102 0.080066 1.8793 0
M  V30 7025 O 645.46 -0.921879 1.56112 0
M  V30 7026 C 645.508 2.40091 2.69051 0
M  V30 7027 O 644.612 1.8735 3.67387 0
M  V30 7028 H 643.953 0.496908 0.44043 0
M  V30 7029 H 646.483 1.87215 0.825334 0
M  V30 7030 H 646.493 2.56731 3.17101 0
M  V30 7031 H 645.168 3.4084 2.3833 0
M  V30 7032 H 643.745 1.80274 3.26429 0
M  V30 7033 N 645.93 -0.909495 1.28709 0
M  V30 7034 C 647.155 -1.69801 1.1909 0
M  V30 7035 C 647.58 -1.86479 -0.246388 0
M  V30 7036 O 646.938 -1.37802 -1.17815 0
M  V30 7037 C 646.986 -3.06543 1.89904 0
M  V30 7038 O 646.09 -3.94268 1.2094 0
M  V30 7039 H 645.431 -0.519783 0.413185 0
M  V30 7040 H 647.961 -1.13689 1.70106 0
M  V30 7041 H 647.971 -3.56748 1.97977 0
M  V30 7042 H 646.646 -2.93722 2.94449 0
M  V30 7043 H 645.223 -3.52702 1.2106 0
M  V30 7044 N 647.408 -1.11026 -1.11852 0
M  V30 7045 C 648.657 -0.851249 -1.82857 0
M  V30 7046 C 648.97 0.62514 -1.85341 0
M  V30 7047 O 650.176 1.00026 -2.52403 0
M  V30 7048 C 648.632 -1.47309 -3.28372 0
M  V30 7049 C 648.24 -2.9832 -3.34229 0
M  V30 7050 C 649.984 -1.29373 -4.04306 0
M  V30 7051 C 647.891 -3.53509 -4.74115 0
M  V30 7052 H 646.821 -0.314794 -0.685143 0
M  V30 7053 H 649.472 -1.33499 -1.25898 0
M  V30 7054 H 647.854 -0.917017 -3.85236 0
M  V30 7055 H 649.028 -3.60295 -2.87271 0
M  V30 7056 H 647.343 -3.15482 -2.71772 0
M  V30 7057 H 649.94 -1.68042 -5.07608 0
M  V30 7058 H 650.283 -0.235879 -4.15631 0
M  V30 7059 H 650.816 -1.8182 -3.53817 0
M  V30 7060 H 647.555 -4.58987 -4.67986 0
M  V30 7061 H 647.075 -2.96305 -5.21501 0
M  V30 7062 H 648.754 -3.51693 -5.43066 0
M  V30 7063 N 648.886 1.2938 -0.899927 0
M  V30 7064 C 649.816 2.30144 -0.39446 0
M  V30 7065 C 650.797 1.61611 0.530639 0
M  V30 7066 O 651.982 1.89119 0.441319 0
M  V30 7067 C 649.112 3.45229 0.37868 0
M  V30 7068 C 648.066 4.25564 -0.456012 0
M  V30 7069 C 647.392 5.32848 0.444637 0
M  V30 7070 C 648.692 4.93651 -1.70605 0
M  V30 7071 H 650.386 2.72673 -1.23653 0
M  V30 7072 H 647.932 1.31086 -0.596034 0
M  V30 7073 H 649.885 4.14797 0.743037 0
M  V30 7074 H 648.609 3.01545 1.25453 0
M  V30 7075 H 647.268 3.57704 -0.802704 0
M  V30 7076 H 646.916 4.85408 1.31863 0
M  V30 7077 H 646.616 5.87497 -0.110154 0
M  V30 7078 H 648.14 6.05268 0.805182 0
M  V30 7079 H 649.554 5.55655 -1.41141 0
M  V30 7080 H 647.951 5.58233 -2.20217 0
M  V30 7081 H 649.021 4.18926 -2.4419 0
M  V30 7082 N 650.364 0.662433 1.43002 0
M  V30 7083 C 651.589 0.186003 2.06564 0
M  V30 7084 C 652.014 -1.14314 1.49379 0
M  V30 7085 O 651.372 -1.70824 0.607346 0
M  V30 7086 C 651.42 0.118269 3.60406 0
M  V30 7087 O 650.524 -0.916859 4.02079 0
M  V30 7088 H 649.865 0.0990981 0.656563 0
M  V30 7089 H 652.395 0.907958 1.8335 0
M  V30 7090 H 652.405 -0.0619981 4.07953 0
M  V30 7091 H 651.08 1.08849 4.01403 0
M  V30 7092 H 649.657 -0.708635 3.66105 0
M  V30 7093 N 651.842 -1.52309 0.404946 0
M  V30 7094 C 653.09 -2.01368 -0.17186 0
M  V30 7095 C 653.411 -1.29261 -1.46002 0
M  V30 7096 O 652.681 -0.41729 -1.91404 0
M  V30 7097 H 651.261 -0.744034 -0.0664993 0
M  V30 7098 H 653.923 -1.87263 0.540228 0
M  V30 7099 H 653.019 -3.09888 -0.370957 0
M  V30 7100 N 653.32 -0.135238 -1.57019 0
M  V30 7101 C 654.569 0.518694 -1.94917 0
M  V30 7102 C 654.882 1.66783 -1.0219 0
M  V30 7103 O 656.088 2.38561 -1.29619 0
M  V30 7104 C 654.544 0.974123 -3.46466 0
M  V30 7105 C 654.152 -0.147439 -4.47757 0
M  V30 7106 C 655.896 1.59851 -3.93253 0
M  V30 7107 C 653.803 0.325599 -5.90503 0
M  V30 7108 H 652.733 0.19754 -0.727663 0
M  V30 7109 H 655.384 -0.217698 -1.82204 0
M  V30 7110 H 653.766 1.76542 -3.5447 0
M  V30 7111 H 654.94 -0.924122 -4.51438 0
M  V30 7112 H 653.255 -0.679496 -4.10818 0
M  V30 7113 H 655.852 1.96385 -4.9733 0
M  V30 7114 H 656.195 2.48306 -3.3414 0
M  V30 7115 H 656.728 0.872323 -3.88118 0
M  V30 7116 H 653.467 -0.523295 -6.53408 0
M  V30 7117 H 652.987 1.06841 -5.90208 0
M  V30 7118 H 654.666 0.781498 -6.42263 0
M  V30 7119 N 654.798 1.5699 0.138552 0
M  V30 7120 C 655.728 2.01933 1.17241 0
M  V30 7121 C 656.709 0.90033 1.44319 0
M  V30 7122 O 657.894 1.16872 1.55095 0
M  V30 7123 C 655.024 2.40711 2.50351 0
M  V30 7124 C 653.978 3.55874 2.37776 0
M  V30 7125 C 653.304 3.80491 3.75674 0
M  V30 7126 C 654.604 4.8826 1.85472 0
M  V30 7127 H 656.298 2.88551 0.798672 0
M  V30 7128 H 653.844 1.3882 0.382743 0
M  V30 7129 H 655.797 2.70754 3.22909 0
M  V30 7130 H 654.521 1.5104 2.89576 0
M  V30 7131 H 653.18 3.2601 1.67669 0
M  V30 7132 H 652.828 2.88057 4.12349 0
M  V30 7133 H 652.528 4.57998 3.68119 0
M  V30 7134 H 654.052 4.12967 4.49767 0
M  V30 7135 H 655.466 5.16965 2.4783 0
M  V30 7136 H 653.863 5.69631 1.88787 0
M  V30 7137 H 654.933 4.78071 0.810935 0
M  V30 7138 N 656.276 -0.40816 1.52223 0
M  V30 7139 C 657.525 -1.15212 1.65557 0
M  V30 7140 C 657.838 -1.9163 0.392096 0
M  V30 7141 O 659.044 -2.68458 0.405256 0
M  V30 7142 C 657.5 -2.09691 2.92502 0
M  V30 7143 C 657.108 -1.38785 4.25961 0
M  V30 7144 C 658.852 -2.8434 3.152 0
M  V30 7145 C 656.759 -2.31919 5.44029 0
M  V30 7146 H 655.689 -0.433776 0.616729 0
M  V30 7147 H 658.34 -0.4165 1.78711 0
M  V30 7148 H 656.722 -2.8681 2.7305 0
M  V30 7149 H 657.896 -0.670248 4.55899 0
M  V30 7150 H 656.211 -0.761741 4.09373 0
M  V30 7151 H 658.808 -3.54166 4.00587 0
M  V30 7152 H 659.151 -3.47344 2.29473 0
M  V30 7153 H 659.684 -2.14321 3.35129 0
M  V30 7154 H 656.423 -1.7356 6.32105 0
M  V30 7155 H 655.943 -3.0165 5.18428 0
M  V30 7156 H 657.622 -2.92424 5.77146 0
M  V30 7157 N 657.755 -1.42862 -0.66545 0
M  V30 7158 C 658.688 -1.41509 -1.79026 0
M  V30 7159 C 659.666 -0.278106 -1.60204 0
M  V30 7160 O 660.85 -0.469792 -1.82552 0
M  V30 7161 C 657.977 -1.21494 -3.1616 0
M  V30 7162 C 657.023 -2.38308 -3.53711 0
M  V30 7163 S 657.856 -4.00852 -3.55075 0
M  V30 7164 C 659.012 -3.83197 -4.94885 0
M  V30 7165 H 659.245 -2.36691 -1.79902 0
M  V30 7166 H 656.778 -1.29746 -0.836977 0
M  V30 7167 H 658.736 -1.10633 -3.95311 0
M  V30 7168 H 657.397 -0.27881 -3.1286 0
M  V30 7169 H 656.59 -2.20076 -4.53412 0
M  V30 7170 H 656.192 -2.45732 -2.81943 0
M  V30 7171 H 658.484 -3.44765 -5.83218 0
M  V30 7172 H 659.427 -4.82607 -5.18166 0
M  V30 7173 H 659.835 -3.15884 -4.67843 0
M  V30 7174 N 659.233 0.902656 -1.29189 0
M  V30 7175 C 660.196 1.98797 -1.14071 0
M  V30 7176 C 661.196 1.60615 -0.0770549 0
M  V30 7177 O 662.386 1.71165 -0.323753 0
M  V30 7178 C 659.518 3.32688 -0.743739 0
M  V30 7179 H 660.711 2.13637 -2.10473 0
M  V30 7180 H 658.264 1.08678 -1.12334 0
M  V30 7181 H 658.999 3.23549 0.220554 0
M  V30 7182 H 658.784 3.61765 -1.51223 0
M  V30 7183 H 660.274 4.12337 -0.660935 0
M  V30 7184 N 660.711 1.11618 1.11262 0
M  V30 7185 C 661.958 0.86618 1.8304 0
M  V30 7186 C 662.286 -0.608149 1.84748 0
M  V30 7187 O 661.541 -1.46508 1.29745 0
M  V30 7188 C 661.84 1.37529 3.2988 0
M  V30 7189 C 661.506 2.86317 3.4833 0
M  V30 7190 C 660.168 3.26945 3.53073 0
M  V30 7191 C 662.52 3.82136 3.54431 0
M  V30 7192 C 659.848 4.62117 3.61475 0
M  V30 7193 C 662.2 5.17128 3.64365 0
M  V30 7194 C 660.864 5.57312 3.67369 0
M  V30 7195 H 660.134 0.316958 0.66979 0
M  V30 7196 H 662.781 1.3949 1.31205 0
M  V30 7197 H 661.086 0.766842 3.84222 0
M  V30 7198 H 662.783 1.15817 3.83911 0
M  V30 7199 H 659.373 2.53889 3.45309 0
M  V30 7200 H 663.557 3.51847 3.50025 0
M  V30 7201 H 658.813 4.92655 3.62079 0
M  V30 7202 H 662.987 5.91208 3.68029 0
M  V30 7203 H 660.614 6.62045 3.73632 0
M  V30 7204 N 662.189 -1.289 0.906776 0
M  V30 7205 C 663.6 -1.77336 0.58384 0
M  V30 7206 C 663.951 -1.74304 -0.900697 0
M  V30 7207 O 663.076 -1.33335 -1.70443 0
M  V30 7208 C 663.671 -3.22019 1.05304 0
M  V30 7209 C 662.23 -3.68205 0.781148 0
M  V30 7210 C 661.377 -2.48837 1.22373 0
M  V30 7211 H 664.328 -1.15462 1.08877 0
M  V30 7212 H 664.349 -3.78481 0.391414 0
M  V30 7213 H 663.861 -3.24194 2.13353 0
M  V30 7214 H 661.962 -3.71497 -0.28643 0
M  V30 7215 H 662.075 -4.58675 1.384 0
M  V30 7216 H 660.439 -2.46461 0.642594 0
M  V30 7217 H 661.222 -2.53736 2.31242 0
M  V30 7218 N 663.667 -0.670007 -1.42649 0
M  V30 7219 C 664.63 0.00204659 -2.292 0
M  V30 7220 C 665.63 0.733817 -1.4308 0
M  V30 7221 O 666.82 0.57254 -1.64522 0
M  V30 7222 C 663.952 1.01359 -3.25483 0
M  V30 7223 H 665.145 -0.759696 -2.90118 0
M  V30 7224 H 662.698 -0.432105 -1.50208 0
M  V30 7225 H 663.433 1.80399 -2.69493 0
M  V30 7226 H 663.218 0.492323 -3.88997 0
M  V30 7227 H 664.708 1.4824 -3.90403 0
M  V30 7228 N 665.145 1.52092 -0.413018 0
M  V30 7229 C 666.373 2.06274 0.160881 0
M  V30 7230 C 666.788 1.28273 1.38533 0
M  V30 7231 O 666.145 0.33563 1.79387 0
M  V30 7232 C 666.196 3.57921 0.507443 0
M  V30 7233 O 665.917 4.32971 -0.668388 0
M  V30 7234 C 667.418 4.28533 1.13465 0
M  V30 7235 H 664.638 0.67074 0.0186759 0
M  V30 7236 H 667.182 1.95951 -0.585092 0
M  V30 7237 H 665.337 3.68238 1.20331 0
M  V30 7238 H 665.751 5.23135 -0.378169 0
M  V30 7239 H 667.225 5.35804 1.32732 0
M  V30 7240 H 667.702 3.85258 2.10886 0
M  V30 7241 H 668.308 4.22595 0.478876 0
M  V30 7242 N 666.623 0.143563 1.56945 0
M  V30 7243 C 667.848 -0.518701 2.00809 0
M  V30 7244 C 668.273 -1.5785 1.02298 0
M  V30 7245 O 667.631 -1.813 -0.0017839 0
M  V30 7246 C 667.679 -1.09929 3.43436 0
M  V30 7247 O 666.783 -2.21425 3.47915 0
M  V30 7248 H 666.124 -0.127215 0.6517 0
M  V30 7249 H 668.654 0.239283 2.03196 0
M  V30 7250 H 668.664 -1.4288 3.82164 0
M  V30 7251 H 667.339 -0.323162 4.14643 0
M  V30 7252 H 665.916 -1.89728 3.21026 0
M  V30 7253 N 668.101 -1.57061 -0.130224 0
M  V30 7254 C 669.35 -1.83446 -0.838488 0
M  V30 7255 C 669.663 -0.727468 -1.81569 0
M  V30 7256 O 670.869 -0.877394 -2.56932 0
M  V30 7257 C 669.325 -3.25201 -1.54182 0
M  V30 7258 C 668.933 -4.4388 -0.606178 0
M  V30 7259 C 670.677 -3.60844 -2.23588 0
M  V30 7260 C 668.584 -5.76661 -1.31209 0
M  V30 7261 H 667.514 -0.684185 -0.316871 0
M  V30 7262 H 670.165 -1.83273 -0.0912059 0
M  V30 7263 H 668.547 -3.1981 -2.33533 0
M  V30 7264 H 669.721 -4.60545 0.153308 0
M  V30 7265 H 668.036 -4.16395 -0.0196705 0
M  V30 7266 H 670.633 -4.57313 -2.77072 0
M  V30 7267 H 670.976 -2.87724 -3.00867 0
M  V30 7268 H 671.509 -3.67971 -1.51137 0
M  V30 7269 H 668.248 -6.52922 -0.580823 0
M  V30 7270 H 667.768 -5.63902 -2.04387 0
M  V30 7271 H 669.447 -6.20035 -1.8484 0
M  V30 7272 N 669.579 0.400081 -1.52437 0
M  V30 7273 C 670.826 1.14619 -1.6694 0
M  V30 7274 C 671.154 1.90262 -0.403797 0
M  V30 7275 O 670.409 1.85835 0.61351 0
M  V30 7276 C 670.708 2.15914 -2.84808 0
M  V30 7277 C 670.374 1.57011 -4.2268 0
M  V30 7278 C 669.036 1.40672 -4.60179 0
M  V30 7279 C 671.388 1.14081 -5.08562 0
M  V30 7280 C 668.716 0.799335 -5.81229 0
M  V30 7281 C 671.068 0.547573 -6.30226 0
M  V30 7282 C 669.732 0.371389 -6.66466 0
M  V30 7283 H 669.002 0.419419 -0.610875 0
M  V30 7284 H 671.649 0.432227 -1.86558 0
M  V30 7285 H 669.954 2.93488 -2.59561 0
M  V30 7286 H 671.651 2.73533 -2.93225 0
M  V30 7287 H 668.241 1.70713 -3.93135 0
M  V30 7288 H 672.425 1.2551 -4.80168 0
M  V30 7289 H 667.681 0.65093 -6.07925 0
M  V30 7290 H 671.855 0.206575 -6.96094 0
M  V30 7291 H 669.482 -0.10135 -7.60132 0
M  V30 7292 N 671.057 1.43213 0.657864 0
M  V30 7293 C 672.007 1.44459 1.76396 0
M  V30 7294 C 672.991 0.313641 1.57814 0
M  V30 7295 O 674.183 0.557094 1.68004 0
M  V30 7296 C 671.312 1.36586 3.14959 0
M  V30 7297 C 670.398 2.54692 3.39106 0
M  V30 7298 N 670.789 3.80059 3.33749 0
M  V30 7299 C 669.087 2.49316 3.69807 0
M  V30 7300 C 669.788 4.58606 3.57849 0
M  V30 7301 N 668.764 3.89267 3.79437 0
M  V30 7302 H 672.566 2.39265 1.70673 0
M  V30 7303 H 670.08 1.378 0.859357 0
M  V30 7304 H 672.077 1.35561 3.94245 0
M  V30 7305 H 670.737 0.427956 3.21867 0
M  V30 7306 H 671.748 4.12414 3.13266 0
M  V30 7307 H 668.425 1.6419 3.83859 0
M  V30 7308 H 669.815 5.67619 3.59525 0
M  V30 7309 N 672.536 -0.895792 1.29666 0
M  V30 7310 C 673.764 -1.68001 1.20761 0
M  V30 7311 C 674.179 -1.87379 -0.231187 0
M  V30 7312 O 673.536 -1.41359 -1.15429 0
M  V30 7313 C 673.587 -3.06236 1.92098 0
M  V30 7314 O 673.308 -2.8774 3.30359 0
M  V30 7315 C 674.809 -4.00652 1.89717 0
M  V30 7316 H 672.029 -0.524591 0.418384 0
M  V30 7317 H 674.573 -1.11995 1.71106 0
M  V30 7318 H 672.728 -3.59007 1.45578 0
M  V30 7319 H 673.142 -3.75359 3.66342 0
M  V30 7320 H 674.616 -4.95051 2.44189 0
M  V30 7321 H 675.093 -4.30424 0.873595 0
M  V30 7322 H 675.699 -3.53815 2.35998 0
M  V30 7323 N 674.014 -1.12206 -1.10668 0
M  V30 7324 C 675.261 -0.875875 -1.82578 0
M  V30 7325 C 675.589 0.598342 -1.85068 0
M  V30 7326 O 674.844 1.45818 -1.3052 0
M  V30 7327 C 675.143 -1.39276 -3.29146 0
M  V30 7328 C 674.809 -2.8816 -3.46806 0
M  V30 7329 C 673.471 -3.28813 -3.51334 0
M  V30 7330 C 675.823 -3.8401 -3.52399 0
M  V30 7331 C 673.151 -4.64028 -3.59019 0
M  V30 7332 C 675.503 -5.19053 -3.61617 0
M  V30 7333 C 674.167 -5.59252 -3.64408 0
M  V30 7334 H 673.437 -0.320505 -0.6681 0
M  V30 7335 H 676.084 -1.40184 -1.30464 0
M  V30 7336 H 674.389 -0.787207 -3.8381 0
M  V30 7337 H 676.086 -1.17851 -3.83291 0
M  V30 7338 H 672.676 -2.55716 -3.43958 0
M  V30 7339 H 676.86 -3.53698 -3.48154 0
M  V30 7340 H 672.116 -4.94568 -3.59461 0
M  V30 7341 H 676.29 -5.93152 -3.64889 0
M  V30 7342 H 673.917 -6.64017 -3.70116 0
M  V30 7343 N 675.492 1.28418 -0.913599 0
M  V30 7344 C 676.717 1.99643 -0.561899 0
M  V30 7345 C 677.142 1.67819 0.849608 0
M  V30 7346 O 676.5 0.910503 1.56779 0
M  V30 7347 C 676.548 3.52116 -0.777622 0
M  V30 7348 O 675.652 4.12076 0.163457 0
M  V30 7349 H 674.993 0.627229 -0.217898 0
M  V30 7350 H 677.523 1.63575 -1.229 0
M  V30 7351 H 677.533 4.02163 -0.687666 0
M  V30 7352 H 676.208 3.74613 -1.8066 0
M  V30 7353 H 674.785 3.72892 0.0247827 0
M  V30 7354 N 676.97 0.677563 1.42291 0
M  V30 7355 C 677.92 -0.0218641 2.2799 0
M  V30 7356 C 678.904 -0.770816 1.41235 0
M  V30 7357 O 680.096 -0.649273 1.64662 0
M  V30 7358 C 677.225 -0.970449 3.29298 0
M  V30 7359 C 676.311 -0.218695 4.23536 0
M  V30 7360 N 676.702 0.777908 4.99782 0
M  V30 7361 C 675 -0.456748 4.43655 0
M  V30 7362 C 675.701 1.22632 5.68627 0
M  V30 7363 N 674.677 0.55573 5.40752 0
M  V30 7364 H 678.479 0.742516 2.84366 0
M  V30 7365 H 675.993 0.506862 1.54288 0
M  V30 7366 H 677.99 -1.48652 3.89497 0
M  V30 7367 H 676.65 -1.73463 2.74483 0
M  V30 7368 H 677.661 1.15754 5.04798 0
M  V30 7369 H 674.338 -1.20021 3.99877 0
M  V30 7370 H 675.728 2.05231 6.39789 0
M  V30 7371 N 678.448 -1.51871 0.421078 0
M  V30 7372 C 679.673 -2.0684 -0.152371 0
M  V30 7373 C 680.098 -1.28802 -1.37083 0
M  V30 7374 O 679.456 -0.321482 -1.78427 0
M  V30 7375 C 679.504 -3.57532 -0.469368 0
M  V30 7376 O 678.608 -3.81818 -1.55848 0
M  V30 7377 H 677.949 -0.663939 -0.00898586 0
M  V30 7378 H 680.479 -1.95674 0.597724 0
M  V30 7379 H 680.489 -4.01515 -0.724553 0
M  V30 7380 H 679.164 -4.13761 0.421276 0
M  V30 7381 H 677.741 -3.49709 -1.29453 0
M  V30 7382 N 679.926 -0.151884 -1.56866 0
M  V30 7383 C 681.156 0.504081 -2.00356 0
M  V30 7384 C 681.564 1.58639 -1.03103 0
M  V30 7385 O 680.907 1.83688 -0.0207931 0
M  V30 7386 C 680.969 1.15975 -3.40279 0
M  V30 7387 C 680.633 0.221453 -4.56463 0
M  V30 7388 C 681.63 -0.552766 -5.16953 0
M  V30 7389 C 679.315 0.122936 -5.0215 0
M  V30 7390 C 681.309 -1.4129 -6.21543 0
M  V30 7391 C 678.996 -0.740801 -6.06593 0
M  V30 7392 C 679.994 -1.50732 -6.6616 0
M  V30 7393 O 679.682 -2.35666 -7.68581 0
M  V30 7394 H 679.414 0.135279 -0.662326 0
M  V30 7395 H 681.968 -0.244916 -2.03935 0
M  V30 7396 H 680.198 1.95649 -3.33554 0
M  V30 7397 H 681.887 1.71594 -3.67846 0
M  V30 7398 H 682.653 -0.486716 -4.82552 0
M  V30 7399 H 678.532 0.70931 -4.5551 0
M  V30 7400 H 682.076 -2.01166 -6.67966 0
M  V30 7401 H 677.973 -0.808125 -6.40421 0
M  V30 7402 H 678.741 -2.28967 -7.85822 0
M  V30 7403 N 681.404 1.57128 0.121893 0
M  V30 7404 C 682.334 2.03165 1.15092 0
M  V30 7405 C 683.315 0.915587 1.43356 0
M  V30 7406 O 684.5 1.1851 1.53847 0
M  V30 7407 C 681.63 2.43352 2.47784 0
M  V30 7408 C 680.584 3.58376 2.33989 0
M  V30 7409 C 679.91 3.84454 3.71617 0
M  V30 7410 C 681.21 4.90199 1.80283 0
M  V30 7411 H 682.904 2.89382 0.768023 0
M  V30 7412 H 680.45 1.39218 0.367998 0
M  V30 7413 H 682.403 2.74163 3.20019 0
M  V30 7414 H 681.127 1.54103 2.87958 0
M  V30 7415 H 679.786 3.2777 1.64202 0
M  V30 7416 H 679.434 2.92414 4.09271 0
M  V30 7417 H 679.134 4.61877 3.6324 0
M  V30 7418 H 680.658 4.17714 4.45362 0
M  V30 7419 H 682.072 5.19565 2.42333 0
M  V30 7420 H 680.469 5.71601 1.82735 0
M  V30 7421 H 681.539 4.78904 0.760184 0
M  V30 7422 N 682.882 -0.391992 1.52647 0
M  V30 7423 C 683.792 -1.503 1.80131 0
M  V30 7424 C 684.808 -1.59825 0.687882 0
M  V30 7425 O 685.984 -1.76218 0.975149 0
M  V30 7426 C 683.049 -2.85863 1.96171 0
M  V30 7427 C 682.11 -2.86084 3.20085 0
M  V30 7428 C 681.343 -4.15181 3.35351 0
M  V30 7429 O 681.566 -5.09981 2.55491 0
M  V30 7430 O 680.5 -4.22603 4.28591 0
M  V30 7431 H 684.326 -1.30007 2.74466 0
M  V30 7432 H 681.911 -0.579539 1.37701 0
M  V30 7433 H 683.793 -3.66236 2.08445 0
M  V30 7434 H 682.468 -3.06189 1.05025 0
M  V30 7435 H 681.375 -2.04504 3.13256 0
M  V30 7436 H 682.708 -2.7071 4.11068 0
M  V30 7437 N 684.36 -1.4356 -0.65026 0
M  V30 7438 C 685.29 -1.51758 -1.77459 0
M  V30 7439 C 686.271 -0.372019 -1.65982 0
M  V30 7440 O 687.456 -0.589627 -1.85033 0
M  V30 7441 C 684.586 -1.44302 -3.15902 0
M  V30 7442 C 683.54 -2.57138 -3.42146 0
M  V30 7443 C 682.866 -2.34735 -4.8042 0
M  V30 7444 C 684.166 -3.99373 -3.36598 0
M  V30 7445 H 685.86 -2.45863 -1.70855 0
M  V30 7446 H 683.406 -1.18333 -0.820566 0
M  V30 7447 H 685.359 -1.48641 -3.94314 0
M  V30 7448 H 684.083 -0.467026 -3.23244 0
M  V30 7449 H 682.742 -2.52157 -2.66106 0
M  V30 7450 H 682.39 -1.35372 -4.84441 0
M  V30 7451 H 682.09 -3.10375 -4.9894 0
M  V30 7452 H 683.614 -2.40862 -5.61086 0
M  V30 7453 H 685.028 -4.05826 -4.04942 0
M  V30 7454 H 683.425 -4.75063 -3.66654 0
M  V30 7455 H 684.495 -4.243 -2.34729 0
M  V30 7456 N 685.838 0.888903 -1.30139 0
M  V30 7457 C 686.785 1.99422 -1.16188 0
M  V30 7458 C 687.755 1.66017 -0.0523869 0
M  V30 7459 O 688.94 1.89506 -0.221864 0
M  V30 7460 C 686.08 3.34325 -0.855612 0
M  V30 7461 C 685.193 3.80445 -2.0466 0
M  V30 7462 C 684.328 5.03975 -1.67876 0
M  V30 7463 C 683.367 5.42492 -2.83493 0
M  V30 7464 N 682.504 6.57206 -2.47032 0
M  V30 7465 H 687.344 2.10687 -2.10749 0
M  V30 7466 H 684.881 1.03165 -1.04859 0
M  V30 7467 H 686.839 4.11968 -0.658681 0
M  V30 7468 H 685.469 3.22756 0.0531155 0
M  V30 7469 H 684.521 2.98745 -2.3549 0
M  V30 7470 H 685.833 4.04933 -2.91257 0
M  V30 7471 H 684.987 5.89232 -1.44535 0
M  V30 7472 H 683.726 4.8135 -0.784431 0
M  V30 7473 H 682.731 4.55764 -3.07505 0
M  V30 7474 H 683.956 5.67093 -3.73607 0
M  V30 7475 H 681.902 6.36164 -1.601 0
M  V30 7476 H 681.819 6.81543 -3.27161 0
M  V30 7477 H 683.087 7.45704 -2.27038 0
M  V30 7478 N 687.317 1.12792 1.10072 0
M  V30 7479 C 688.264 0.79921 2.16521 0
M  V30 7480 C 689.234 -0.235726 1.64419 0
M  V30 7481 O 690.419 -0.109457 1.90486 0
M  V30 7482 C 687.559 0.264091 3.44088 0
M  V30 7483 C 686.672 1.35729 4.10124 0
M  V30 7484 C 685.807 0.781212 5.25424 0
M  V30 7485 C 684.846 1.85327 5.8337 0
M  V30 7486 N 683.983 1.29564 6.90042 0
M  V30 7487 H 688.823 1.71105 2.43981 0
M  V30 7488 H 686.36 0.854225 1.19756 0
M  V30 7489 H 688.318 -0.0642423 4.17151 0
M  V30 7490 H 686.948 -0.610901 3.16967 0
M  V30 7491 H 686 1.80234 3.34993 0
M  V30 7492 H 687.312 2.16782 4.4923 0
M  V30 7493 H 686.466 0.403769 6.05355 0
M  V30 7494 H 685.205 -0.0604686 4.87663 0
M  V30 7495 H 684.21 2.23986 5.02106 0
M  V30 7496 H 685.435 2.69824 6.23195 0
M  V30 7497 H 683.381 0.475844 6.54272 0
M  V30 7498 H 683.298 2.04271 7.2788 0
M  V30 7499 H 684.566 0.945545 7.73744 0
M  V30 7500 N 688.795 -1.27931 0.920396 0
M  V30 7501 C 689.705 -2.30824 0.419212 0
M  V30 7502 C 690.721 -1.66767 -0.496461 0
M  V30 7503 O 691.897 -1.97763 -0.38104 0
M  V30 7504 C 688.962 -3.45158 -0.326601 0
M  V30 7505 C 688.023 -4.24754 0.623098 0
M  V30 7506 C 687.256 -5.33629 -0.0872172 0
M  V30 7507 O 687.479 -5.55204 -1.30784 0
M  V30 7508 O 686.413 -5.99091 0.580875 0
M  V30 7509 H 690.239 -2.75716 1.27337 0
M  V30 7510 H 687.824 -1.32747 0.685465 0
M  V30 7511 H 689.706 -4.14716 -0.747559 0
M  V30 7512 H 688.381 -3.02336 -1.15648 0
M  V30 7513 H 687.288 -3.57759 1.09359 0
M  V30 7514 H 688.621 -4.71272 1.41998 0
M  V30 7515 N 690.273 -0.685099 -1.4193 0
M  V30 7516 C 691.205 0.0258679 -2.29185 0
M  V30 7517 C 692.218 0.755076 -1.44231 0
M  V30 7518 O 693.407 0.60752 -1.67844 0
M  V30 7519 C 690.507 1.06055 -3.21878 0
M  V30 7520 C 689.68 0.403088 -4.35539 0
M  V30 7521 C 688.739 1.33895 -5.0888 0
M  V30 7522 O 687.765 0.835326 -5.63037 0
M  V30 7523 N 688.967 2.6718 -5.15359 0
M  V30 7524 H 691.732 -0.723201 -2.90843 0
M  V30 7525 H 689.293 -0.53031 -1.52968 0
M  V30 7526 H 691.285 1.68813 -3.6781 0
M  V30 7527 H 689.855 1.71126 -2.616 0
M  V30 7528 H 689.075 -0.404185 -3.92122 0
M  V30 7529 H 690.363 -0.0545098 -5.08771 0
M  V30 7530 H 689.761 3.10626 -4.72788 0
M  V30 7531 H 688.318 3.25159 -5.64903 0
M  V30 7532 N 691.751 1.51645 -0.429126 0
M  V30 7533 C 692.661 2.31288 0.392809 0
M  V30 7534 C 693.677 1.39852 1.03525 0
M  V30 7535 O 694.853 1.72926 1.03241 0
M  V30 7536 C 691.918 3.13347 1.48372 0
M  V30 7537 C 690.979 4.20551 0.862268 0
M  V30 7538 C 690.212 4.98688 1.9012 0
M  V30 7539 O 690.435 4.77359 3.12225 0
M  V30 7540 O 689.369 5.83005 1.4963 0
M  V30 7541 H 693.195 3.02609 -0.257138 0
M  V30 7542 H 690.78 1.48163 -0.191851 0
M  V30 7543 H 692.662 3.64387 2.1166 0
M  V30 7544 H 691.337 2.44799 2.1179 0
M  V30 7545 H 690.244 3.73609 0.191568 0
M  V30 7546 H 691.577 4.91449 0.271704 0
M  V30 7547 N 693.229 0.160201 1.56784 0
M  V30 7548 C 694.161 -0.80564 2.14574 0
M  V30 7549 C 695.174 -1.20154 1.09849 0
M  V30 7550 O 696.363 -1.14333 1.37078 0
M  V30 7551 C 693.463 -2.09434 2.6644 0
M  V30 7552 C 692.636 -1.86375 3.95706 0
M  V30 7553 C 691.695 -2.99358 4.32749 0
M  V30 7554 O 690.721 -2.70475 5.00831 0
M  V30 7555 N 691.923 -4.26867 3.93402 0
M  V30 7556 H 694.688 -0.311644 2.98075 0
M  V30 7557 H 692.249 -0.0229465 1.61884 0
M  V30 7558 H 694.241 -2.84091 2.88226 0
M  V30 7559 H 692.811 -2.50057 1.8759 0
M  V30 7560 H 692.031 -0.956821 3.82412 0
M  V30 7561 H 693.319 -1.68322 4.80151 0
M  V30 7562 H 692.717 -4.53197 3.38569 0
M  V30 7563 H 691.274 -4.98263 4.20211 0
M  V30 7564 N 694.707 -1.5719 -0.113559 0
M  V30 7565 C 695.637 -2.03772 -1.14013 0
M  V30 7566 C 696.618 -0.923176 -1.42869 0
M  V30 7567 O 697.803 -1.19325 -1.53216 0
M  V30 7568 C 694.933 -2.44663 -2.4649 0
M  V30 7569 C 693.887 -3.59612 -2.32085 0
M  V30 7570 C 693.213 -3.8642 -3.69573 0
M  V30 7571 C 694.513 -4.91149 -1.7768 0
M  V30 7572 H 696.207 -2.89785 -0.752665 0
M  V30 7573 H 693.753 -1.39412 -0.360609 0
M  V30 7574 H 695.706 -2.75857 -3.18561 0
M  V30 7575 H 694.43 -1.55628 -2.87137 0
M  V30 7576 H 693.089 -3.28636 -1.62461 0
M  V30 7577 H 692.737 -2.94581 -4.07715 0
M  V30 7578 H 692.437 -4.63797 -3.60786 0
M  V30 7579 H 693.961 -4.2007 -4.4314 0
M  V30 7580 H 695.375 -5.20843 -2.39574 0
M  V30 7581 H 693.772 -5.72562 -1.79701 0
M  V30 7582 H 694.842 -4.79301 -0.734776 0
M  V30 7583 N 696.185 0.383891 -1.52853 0
M  V30 7584 C 697.117 1.48889 -1.74255 0
M  V30 7585 C 698.13 1.50405 -0.623063 0
M  V30 7586 O 699.319 1.54215 -0.898887 0
M  V30 7587 C 696.419 2.87721 -1.79081 0
M  V30 7588 C 695.592 3.10111 -3.08464 0
M  V30 7589 C 694.651 4.28954 -3.0477 0
M  V30 7590 O 693.677 4.25012 -3.78621 0
M  V30 7591 N 694.879 5.35411 -2.24311 0
M  V30 7592 H 697.644 1.30915 -2.69595 0
M  V30 7593 H 695.205 0.573454 -1.51404 0
M  V30 7594 H 697.197 3.65333 -1.7411 0
M  V30 7595 H 695.767 2.99029 -0.911052 0
M  V30 7596 H 694.987 2.20319 -3.26884 0
M  V30 7597 H 696.275 3.21928 -3.94005 0
M  V30 7598 H 695.673 5.41471 -1.63787 0
M  V30 7599 H 694.23 6.1167 -2.25175 0
M  V30 7600 N 697.663 1.43903 0.642637 0
M  V30 7601 C 698.626 1.49538 1.73698 0
M  V30 7602 C 699.626 0.378776 1.56275 0
M  V30 7603 O 700.816 0.64095 1.6198 0
M  V30 7604 C 697.948 1.35821 3.12675 0
M  V30 7605 H 699.141 2.47008 1.70079 0
M  V30 7606 H 696.694 1.30824 0.85526 0
M  V30 7607 H 697.429 0.393994 3.21898 0
M  V30 7608 H 697.214 2.16776 3.26727 0
M  V30 7609 H 698.704 1.4272 3.92455 0
M  V30 7610 N 699.141 -0.881989 1.30609 0
M  V30 7611 C 700.557 -1.16576 1.09005 0
M  V30 7612 C 700.757 -2.00961 -0.14727 0
M  V30 7613 O 699.813 -2.38117 -0.840036 0
M  V30 7614 C 701.126 -1.86954 2.35518 0
M  V30 7615 C 702.674 -1.99706 2.41011 0
M  V30 7616 C 703.149 -2.73497 3.67374 0
M  V30 7617 N 704.64 -2.8104 3.68199 0
M  V30 7618 C 705.375 -3.38718 4.62664 0
M  V30 7619 N 704.871 -3.97421 5.67475 0
M  V30 7620 N 706.664 -3.36561 4.50203 0
M  V30 7621 H 698.815 -0.319398 2.09985 0
M  V30 7622 H 701.078 -0.204058 0.925778 0
M  V30 7623 H 700.784 -1.32393 3.2583 0
M  V30 7624 H 700.658 -2.87317 2.44395 0
M  V30 7625 H 703.045 -2.53436 1.51176 0
M  V30 7626 H 703.126 -0.984218 2.36108 0
M  V30 7627 H 702.77 -2.20438 4.57569 0
M  V30 7628 H 702.7 -3.75163 3.6954 0
M  V30 7629 H 705.191 -2.39365 2.92426 0
M  V30 7630 H 705.504 -4.39507 6.35652 0
M  V30 7631 H 703.849 -3.95832 5.71264 0
M  V30 7632 H 707.04 -2.8993 3.67503 0
M  V30 7633 H 707.213 -3.81215 5.24003 0
M  V30 7634 N 700.619 -1.13374 -1.09472 0
M  V30 7635 C 701.549 -0.833268 -2.18126 0
M  V30 7636 C 702.53 0.207169 -1.68834 0
M  V30 7637 O 703.715 0.0662012 -1.94087 0
M  V30 7638 C 700.845 -0.297979 -3.46019 0
M  V30 7639 C 699.799 -1.27261 -4.08642 0
M  V30 7640 C 699.125 -0.597104 -5.31356 0
M  V30 7641 C 700.425 -2.63095 -4.51197 0
M  V30 7642 H 702.119 -1.74182 -2.43518 0
M  V30 7643 H 699.665 -0.838921 -1.17039 0
M  V30 7644 H 701.618 -0.0754444 -4.21332 0
M  V30 7645 H 700.342 0.645959 -3.20148 0
M  V30 7646 H 699.001 -1.48113 -3.35348 0
M  V30 7647 H 698.649 0.352293 -5.01765 0
M  V30 7648 H 698.349 -1.24734 -5.74208 0
M  V30 7649 H 699.873 -0.38384 -6.09392 0
M  V30 7650 H 701.287 -2.46214 -5.17737 0
M  V30 7651 H 699.684 -3.2429 -5.04932 0
M  V30 7652 H 700.754 -3.20793 -3.6362 0
M  V30 7653 N 702.098 1.27442 -0.927168 0
M  V30 7654 C 703.514 1.46754 -0.627329 0
M  V30 7655 C 703.714 1.83902 0.823549 0
M  V30 7656 O 702.77 1.95215 1.60148 0
M  V30 7657 C 704.083 2.56045 -1.57674 0
M  V30 7658 C 705.631 2.69906 -1.58491 0
M  V30 7659 C 706.106 3.82355 -2.52128 0
M  V30 7660 N 707.597 3.89728 -2.50332 0
M  V30 7661 C 708.332 4.76155 -3.19475 0
M  V30 7662 N 707.828 5.67073 -3.97995 0
M  V30 7663 N 709.621 4.6988 -3.08496 0
M  V30 7664 H 701.772 1.01613 -1.86517 0
M  V30 7665 H 704.035 0.507443 -0.800753 0
M  V30 7666 H 703.741 2.35542 -2.61176 0
M  V30 7667 H 703.615 3.53423 -1.31804 0
M  V30 7668 H 706.002 2.89792 -0.557208 0
M  V30 7669 H 706.083 1.73018 -1.8841 0
M  V30 7670 H 705.727 3.63224 -3.55008 0
M  V30 7671 H 705.657 4.7867 -2.19505 0
M  V30 7672 H 708.148 3.24717 -1.93306 0
M  V30 7673 H 708.461 6.2988 -4.4774 0
M  V30 7674 H 706.806 5.6687 -4.02098 0
M  V30 7675 H 709.997 3.97848 -2.46646 0
M  V30 7676 H 710.17 5.37017 -3.62652 0
M  V30 7677 N 703.576 0.692616 1.41565 0
M  V30 7678 C 704.526 0.00231847 2.28 0
M  V30 7679 C 705.51 -0.755793 1.42044 0
M  V30 7680 O 706.702 -0.631772 1.65341 0
M  V30 7681 C 703.831 -0.935468 3.30309 0
M  V30 7682 C 702.917 -0.173761 4.23744 0
M  V30 7683 N 703.308 0.830872 4.98929 0
M  V30 7684 C 701.606 -0.409666 4.44115 0
M  V30 7685 C 702.307 1.28656 5.67294 0
M  V30 7686 N 701.283 0.613053 5.40132 0
M  V30 7687 H 705.085 0.772635 2.83562 0
M  V30 7688 H 702.599 0.523198 1.53741 0
M  V30 7689 H 704.596 -1.44513 3.91052 0
M  V30 7690 H 703.256 -1.70542 2.76307 0
M  V30 7691 H 704.267 1.21101 5.03542 0
M  V30 7692 H 700.944 -1.15773 4.01127 0
M  V30 7693 H 702.334 2.12006 6.37576 0
M  V30 7694 N 705.054 -1.51416 0.437162 0
M  V30 7695 C 705.984 -2.30631 -0.364922 0
M  V30 7696 C 706.965 -1.36037 -1.02118 0
M  V30 7697 O 708.15 -1.64956 -1.02485 0
M  V30 7698 C 705.28 -3.1482 -1.46648 0
M  V30 7699 C 704.234 -4.17691 -0.933717 0
M  V30 7700 C 703.56 -4.904 -2.13101 0
M  V30 7701 C 704.86 -5.2229 0.0317201 0
M  V30 7702 H 706.554 -2.97932 0.29614 0
M  V30 7703 H 704.1 -1.4328 0.143865 0
M  V30 7704 H 706.053 -3.69017 -2.03481 0
M  V30 7705 H 704.777 -2.4534 -2.15583 0
M  V30 7706 H 703.436 -3.64545 -0.387602 0
M  V30 7707 H 703.084 -4.17423 -2.80654 0
M  V30 7708 H 702.784 -5.59962 -1.78092 0
M  V30 7709 H 704.308 -5.4742 -2.70487 0
M  V30 7710 H 705.722 -5.7156 -0.446302 0
M  V30 7711 H 704.119 -5.99378 0.29437 0
M  V30 7712 H 705.189 -4.75131 0.968447 0
M  V30 7713 N 706.532 -0.168513 -1.56696 0
M  V30 7714 C 707.464 0.794249 -2.14998 0
M  V30 7715 C 708.477 1.1957 -1.10485 0
M  V30 7716 O 709.666 1.13604 -1.37682 0
M  V30 7717 C 706.766 2.08018 -2.67547 0
M  V30 7718 C 705.939 1.84274 -3.96689 0
M  V30 7719 C 704.998 2.97059 -4.3433 0
M  V30 7720 O 704.024 2.67815 -5.02259 0
M  V30 7721 N 705.226 4.24775 -3.9566 0
M  V30 7722 H 707.991 0.295832 -2.98236 0
M  V30 7723 H 705.552 0.0143611 -1.61894 0
M  V30 7724 H 707.544 2.82559 -2.89729 0
M  V30 7725 H 706.114 2.49059 -1.88914 0
M  V30 7726 H 705.334 0.936528 -3.82914 0
M  V30 7727 H 706.622 1.65773 -4.81037 0
M  V30 7728 H 706.02 4.51395 -3.40968 0
M  V30 7729 H 704.577 4.96027 -4.22848 0
M  V30 7730 N 708.01 1.57248 0.105221 0
M  V30 7731 C 708.958 2.02337 1.14728 0
M  V30 7732 C 709.952 0.922652 1.42069 0
M  V30 7733 O 711.158 1.10785 1.41869 0
M  V30 7734 H 707.533 0.644682 0.387155 0
M  V30 7735 H 709.504 2.89063 0.740607 0
M  V30 7736 C 708.253 2.45513 2.46209 0
M  V30 7737 H 707.576 3.29785 2.26013 0
M  V30 7738 H 709.016 2.80846 3.1765 0
M  V30 7739 C 707.475 1.3243 3.09781 0
M  V30 7740 O 708.005 0.647841 3.96442 0
M  V30 7741 N 706.211 1.07785 2.69872 0
M  V30 7742 H 705.758 1.62973 1.99493 0
M  V30 7743 H 705.716 0.323204 3.12734 0
M  V30 7744 N 709.488 -0.375779 1.53054 0
M  V30 7745 C 710.716 -1.14036 1.72637 0
M  V30 7746 C 711.131 -1.83342 0.450687 0
M  V30 7747 O 710.488 -1.7318 -0.575749 0
M  V30 7748 C 710.539 -2.17841 2.88492 0
M  V30 7749 O 710.26 -1.51358 4.11123 0
M  V30 7750 C 711.761 -3.06924 3.19863 0
M  V30 7751 H 708.981 -0.341386 0.577665 0
M  V30 7752 H 711.525 -0.437809 1.99759 0
M  V30 7753 H 709.68 -2.8371 2.63794 0
M  V30 7754 H 710.094 -2.20439 4.75928 0
M  V30 7755 H 711.568 -3.75763 4.04359 0
M  V30 7756 H 712.045 -3.71169 2.34798 0
M  V30 7757 H 712.651 -2.46684 3.46449 0
M  V30 7758 N 710.966 -1.44241 -0.634997 0
M  V30 7759 C 712.214 -1.46531 -1.39187 0
M  V30 7760 C 712.535 -0.0976441 -1.94755 0
M  V30 7761 O 711.805 0.869528 -1.75545 0
M  V30 7762 H 710.385 -0.539544 -0.516625 0
M  V30 7763 H 713.047 -1.79989 -0.747655 0
M  V30 7764 H 712.143 -2.18848 -2.22513 0
M  V30 7765 N 712.444 0.87505 -1.31075 0
M  V30 7766 C 713.855 1.4433 -1.18431 0
M  V30 7767 C 714.206 1.9506 0.211189 0
M  V30 7768 O 713.331 1.85847 1.10859 0
M  V30 7769 C 713.926 2.62341 -2.14389 0
M  V30 7770 C 712.485 3.15225 -2.05694 0
M  V30 7771 C 711.632 1.87929 -2.03907 0
M  V30 7772 H 714.583 0.684061 -1.432 0
M  V30 7773 H 714.604 3.3887 -1.73053 0
M  V30 7774 H 714.116 2.25388 -3.15946 0
M  V30 7775 H 712.217 3.56812 -1.07314 0
M  V30 7776 H 712.33 3.77853 -2.94558 0
M  V30 7777 H 710.694 2.06679 -1.48849 0
M  V30 7778 H 711.477 1.53221 -3.07211 0
M  V30 7779 N 713.922 1.13953 1.08869 0
M  V30 7780 C 714.885 0.824991 2.13838 0
M  V30 7781 C 715.885 -0.168198 1.59918 0
M  V30 7782 O 717.075 0.0595778 1.74098 0
M  V30 7783 C 714.207 0.228938 3.4013 0
M  V30 7784 H 715.4 1.75521 2.43171 0
M  V30 7785 H 712.953 0.94492 1.24503 0
M  V30 7786 H 713.688 -0.710227 3.16427 0
M  V30 7787 H 713.473 0.944243 3.80561 0
M  V30 7788 H 714.963 0.0259223 4.17592 0
M  V30 7789 N 715.4 -1.26948 0.933913 0
M  V30 7790 C 716.625 -1.98724 0.593589 0
M  V30 7791 C 717.05 -1.6915 -0.822801 0
M  V30 7792 O 716.408 -0.93533 -1.5531 0
M  V30 7793 C 716.456 -3.50834 0.833542 0
M  V30 7794 O 715.56 -4.12284 -0.0978788 0
M  V30 7795 H 714.901 -0.623683 0.227849 0
M  V30 7796 H 717.431 -1.61599 1.25486 0
M  V30 7797 H 717.441 -4.01018 0.75156 0
M  V30 7798 H 716.116 -3.71691 1.86597 0
M  V30 7799 H 714.693 -3.72884 0.0345443 0
M  V30 7800 N 716.879 -0.700114 -1.41195 0
M  V30 7801 C 717.789 -0.0382854 -2.34569 0
M  V30 7802 C 718.805 0.761036 -1.56474 0
M  V30 7803 O 719.981 0.697553 -1.88934 0
M  V30 7804 C 717.046 0.883522 -3.35253 0
M  V30 7805 C 716.107 0.0758957 -4.29233 0
M  V30 7806 C 715.34 0.9538 -5.25108 0
M  V30 7807 O 715.563 2.19326 -5.26547 0
M  V30 7808 O 714.497 0.401049 -6.00562 0
M  V30 7809 H 718.323 -0.808073 -2.92752 0
M  V30 7810 H 715.908 -0.460479 -1.42127 0
M  V30 7811 H 717.79 1.41199 -3.9704 0
M  V30 7812 H 716.465 1.63272 -2.79506 0
M  V30 7813 H 715.372 -0.497274 -3.7078 0
M  V30 7814 H 716.705 -0.634741 -4.8809 0
M  V30 7815 N 718.357 1.51182 -0.445186 0
M  V30 7816 C 719.597 2.04061 0.117717 0
M  V30 7817 C 719.961 1.32158 1.39278 0
M  V30 7818 O 721.162 1.75452 2.03642 0
M  V30 7819 C 719.433 3.55933 0.323445 0
M  V30 7820 S 720.992 4.30516 0.848627 0
M  V30 7821 H 717.81 0.710442 0.028165 0
M  V30 7822 H 720.412 1.85858 -0.606391 0
M  V30 7823 H 719.116 4.0583 -0.610764 0
M  V30 7824 H 718.647 3.78444 1.07441 0
M  V30 7825 H 720.662 4.48382 2.12528 0
M  V30 7826 N 719.835 0.176821 1.56605 0
M  V30 7827 C 720.745 -0.763682 2.21822 0
M  V30 7828 C 721.761 -1.24889 1.21156 0
M  V30 7829 O 722.937 -1.29987 1.53836 0
M  V30 7830 C 720.002 -1.97352 2.8505 0
M  V30 7831 C 719.063 -1.53466 4.00932 0
M  V30 7832 C 718.296 -2.68682 4.61135 0
M  V30 7833 O 718.519 -3.85694 4.20234 0
M  V30 7834 O 717.453 -2.42442 5.50913 0
M  V30 7835 H 721.279 -0.238363 3.02763 0
M  V30 7836 H 718.864 -0.0516331 1.49311 0
M  V30 7837 H 720.746 -2.68096 3.25119 0
M  V30 7838 H 719.421 -2.48779 2.07101 0
M  V30 7839 H 718.328 -0.796551 3.65521 0
M  V30 7840 H 719.661 -1.06724 4.8049 0
M  V30 7841 N 721.313 -1.57302 -0.09688 0
M  V30 7842 C 722.243 -2.0497 -1.11846 0
M  V30 7843 C 723.224 -0.938278 -1.41882 0
M  V30 7844 O 724.409 -1.20943 -1.51942 0
M  V30 7845 C 721.539 -2.47264 -2.43881 0
M  V30 7846 C 720.493 -3.62053 -2.28257 0
M  V30 7847 C 719.819 -3.90318 -3.65453 0
M  V30 7848 C 721.119 -4.93005 -1.72461 0
M  V30 7849 H 722.813 -2.90567 -0.721888 0
M  V30 7850 H 720.359 -1.39786 -0.345803 0
M  V30 7851 H 722.312 -2.7922 -3.15617 0
M  V30 7852 H 721.036 -1.58664 -2.8547 0
M  V30 7853 H 719.695 -3.30341 -1.58967 0
M  V30 7854 H 719.343 -2.98889 -4.04567 0
M  V30 7855 H 719.043 -4.67597 -3.55846 0
M  V30 7856 H 720.567 -4.24747 -4.3866 0
M  V30 7857 H 721.981 -5.23354 -2.34036 0
M  V30 7858 H 720.378 -5.74436 -1.73618 0
M  V30 7859 H 721.448 -4.80053 -0.683898 0
M  V30 7860 N 722.791 0.367657 -1.53252 0
M  V30 7861 C 723.721 1.45632 -1.8252 0
M  V30 7862 C 724.702 1.55979 -0.678568 0
M  V30 7863 O 725.887 1.70581 -0.928217 0
M  V30 7864 C 723.017 2.82994 -2.01325 0
M  V30 7865 C 721.971 2.87473 -3.17086 0
M  V30 7866 C 721.297 4.2749 -3.21179 0
M  V30 7867 C 722.597 2.55182 -4.55719 0
M  V30 7868 H 724.291 1.21387 -2.73689 0
M  V30 7869 H 721.837 0.58251 -1.31692 0
M  V30 7870 H 723.79 3.59179 -2.20383 0
M  V30 7871 H 722.514 3.08622 -1.06864 0
M  V30 7872 H 721.173 2.13739 -2.97844 0
M  V30 7873 H 720.821 4.5019 -2.24361 0
M  V30 7874 H 720.521 4.31403 -3.98955 0
M  V30 7875 H 722.045 5.0555 -3.42419 0
M  V30 7876 H 723.459 3.21081 -4.74953 0
M  V30 7877 H 721.856 2.70414 -5.3572 0
M  V30 7878 H 722.926 1.5044 -4.60973 0
M  V30 7879 N 724.269 1.44576 0.627338 0
M  V30 7880 C 725.546 1.38033 1.38586 0
M  V30 7881 C 725.926 0.0409468 2.1106 0
M  V30 7882 O 725.274 -0.976582 2.0658 0
M  V30 7883 C 725.484 2.58102 2.34913 0
M  V30 7884 C 726.832 3.02332 2.98129 0
M  V30 7885 O 727.856 2.58334 2.45238 0
M  V30 7886 O 726.715 3.78628 3.94085 0
M  V30 7887 H 723.809 0.546801 0.620434 0
M  V30 7888 H 726.355 1.56672 0.652077 0
M  V30 7889 H 725.127 3.4719 1.80485 0
M  V30 7890 H 724.75 2.41696 3.15703 0
M  V30 7891 N 725.747 -0.868086 1.31537 0
M  V30 7892 C 727.158 -1.437 1.19195 0
M  V30 7893 C 727.509 -1.95169 -0.200842 0
M  V30 7894 O 726.634 -1.86432 -1.09872 0
M  V30 7895 C 727.229 -2.612 2.15778 0
M  V30 7896 C 725.788 -3.1413 2.07363 0
M  V30 7897 C 724.935 -1.86845 2.049 0
M  V30 7898 H 727.886 -0.676457 1.43561 0
M  V30 7899 H 727.907 -3.37948 1.74847 0
M  V30 7900 H 727.419 -2.23709 3.17137 0
M  V30 7901 H 725.52 -3.56238 1.09204 0
M  V30 7902 H 725.633 -3.76285 2.96557 0
M  V30 7903 H 723.997 -2.05886 1.49943 0
M  V30 7904 H 724.78 -1.51589 3.08019 0
M  V30 7905 N 727.225 -1.14528 -1.08264 0
M  V30 7906 C 728.175 -0.802141 -2.13424 0
M  V30 7907 C 729.159 0.209362 -1.59532 0
M  V30 7908 O 730.351 0.0114859 -1.76996 0
M  V30 7909 C 727.48 -0.282938 -3.42132 0
M  V30 7910 C 726.566 -1.32405 -4.02902 0
M  V30 7911 N 726.957 -2.52861 -4.38058 0
M  V30 7912 C 725.255 -1.17462 -4.30254 0
M  V30 7913 C 725.956 -3.1952 -4.86088 0
M  V30 7914 N 724.932 -2.46921 -4.84284 0
M  V30 7915 H 728.734 -1.71843 -2.38426 0
M  V30 7916 H 726.248 -1.02936 -1.2561 0
M  V30 7917 H 728.245 -0.0188053 -4.16896 0
M  V30 7918 H 726.905 0.627533 -3.18578 0
M  V30 7919 H 727.916 -2.90078 -4.2904 0
M  V30 7920 H 724.593 -0.323283 -4.16246 0
M  V30 7921 H 725.983 -4.2223 -5.22658 0
M  V30 7922 N 728.703 1.26451 -0.940633 0
M  V30 7923 C 729.949 1.94065 -0.58878 0
M  V30 7924 C 730.282 1.7363 0.869853 0
M  V30 7925 O 729.557 1.073 1.62225 0
M  V30 7926 C 729.84 3.47852 -0.931199 0
M  V30 7927 C 729.693 3.77575 -2.44453 0
M  V30 7928 C 731.012 4.37832 -0.446229 0
M  V30 7929 H 728.131 0.704827 -0.21538 0
M  V30 7930 H 730.773 1.4933 -1.17475 0
M  V30 7931 H 728.923 3.86085 -0.432539 0
M  V30 7932 H 730.595 3.49059 -3.01588 0
M  V30 7933 H 728.838 3.23671 -2.88825 0
M  V30 7934 H 729.509 4.85068 -2.63464 0
M  V30 7935 H 731.985 4.06822 -0.873778 0
M  V30 7936 H 730.861 5.44228 -0.714648 0
M  V30 7937 H 731.122 4.37239 0.653815 0
M  V30 7938 N 730.181 0.707592 1.40822 0
M  V30 7939 C 731.144 0.0587224 2.29125 0
M  V30 7940 C 732.144 -0.695624 1.44975 0
M  V30 7941 O 733.334 -0.528718 1.65983 0
M  V30 7942 C 730.466 -0.926939 3.28056 0
M  V30 7943 H 731.659 0.836349 2.88002 0
M  V30 7944 H 729.212 0.471778 1.4901 0
M  V30 7945 H 729.947 -1.7319 2.74182 0
M  V30 7946 H 729.732 -0.389015 3.90165 0
M  V30 7947 H 731.222 -1.37837 3.94196 0
M  V30 7948 N 731.66 -1.50943 0.453197 0
M  V30 7949 C 732.885 -2.07116 -0.108463 0
M  V30 7950 C 733.31 -1.31681 -1.3432 0
M  V30 7951 O 732.668 -0.359256 -1.77705 0
M  V30 7952 C 732.716 -3.58447 -0.393424 0
M  V30 7953 O 731.82 -3.85038 -1.47714 0
M  V30 7954 H 731.161 -0.66398 0.0050993 0
M  V30 7955 H 733.691 -1.94362 0.639095 0
M  V30 7956 H 733.701 -4.02961 -0.639222 0
M  V30 7957 H 732.376 -4.12774 0.508946 0
M  V30 7958 H 730.953 -3.52376 -1.22006 0
M  V30 7959 N 733.138 -0.185124 -1.56509 0
M  V30 7960 C 734.048 0.751908 -2.22224 0
M  V30 7961 C 735.064 1.24244 -1.21817 0
M  V30 7962 O 736.24 1.29169 -1.54523 0
M  V30 7963 C 733.305 1.95837 -2.86092 0
M  V30 7964 C 732.366 1.51337 -4.01741 0
M  V30 7965 C 731.599 2.66233 -4.62554 0
M  V30 7966 O 731.822 3.8346 -4.22273 0
M  V30 7967 O 730.756 2.39517 -5.52191 0
M  V30 7968 H 734.582 0.222304 -3.02885 0
M  V30 7969 H 732.167 0.0437141 -1.49336 0
M  V30 7970 H 734.049 2.66368 -3.26536 0
M  V30 7971 H 732.724 2.47677 -2.08417 0
M  V30 7972 H 731.631 0.777155 -3.65939 0
M  V30 7973 H 732.964 1.04175 -4.81049 0
M  V30 7974 N 734.616 1.57351 0.0885366 0
M  V30 7975 C 735.566 1.98963 1.11346 0
M  V30 7976 C 736.55 0.869065 1.35411 0
M  V30 7977 O 737.742 1.13292 1.35992 0
M  V30 7978 C 734.871 2.4231 2.43189 0
M  V30 7979 C 733.957 3.61065 2.22469 0
M  V30 7980 N 734.348 4.75789 1.71635 0
M  V30 7981 C 732.646 3.6729 2.5301 0
M  V30 7982 C 733.347 5.57708 1.65339 0
M  V30 7983 N 732.323 5.01067 2.1079 0
M  V30 7984 H 736.125 2.85109 0.713465 0
M  V30 7985 H 733.639 1.59682 0.295868 0
M  V30 7986 H 735.636 2.70352 3.17357 0
M  V30 7987 H 734.296 1.57544 2.83919 0
M  V30 7988 H 735.307 4.98411 1.40738 0
M  V30 7989 H 731.984 2.932 2.9722 0
M  V30 7990 H 733.374 6.59782 1.27031 0
M  V30 7991 N 736.094 -0.359525 1.53444 0
M  V30 7992 C 737.004 -1.46445 1.83278 0
M  V30 7993 C 738.02 -1.5833 0.721629 0
M  V30 7994 O 739.196 -1.7411 1.01231 0
M  V30 7995 C 736.261 -2.81638 2.02191 0
M  V30 7996 C 735.322 -2.7923 3.26082 0
M  V30 7997 C 734.555 -4.07974 3.44082 0
M  V30 7998 O 734.778 -5.04447 2.66251 0
M  V30 7999 O 733.712 -4.13417 4.37458 0
M  V30 8000 H 737.538 -1.24156 2.77162 0
M  V30 8001 H 735.123 -0.550201 1.389 0
M  V30 8002 H 737.005 -3.61732 2.16167 0
M  V30 8003 H 735.68 -3.03892 1.11496 0
M  V30 8004 H 734.587 -1.97813 3.17523 0
M  V30 8005 H 735.92 -2.6193 4.16718 0
M  V30 8006 N 737.572 -1.44907 -0.619662 0
M  V30 8007 C 738.502 -1.55488 -1.742 0
M  V30 8008 C 739.483 -0.407143 -1.65156 0
M  V30 8009 O 740.668 -0.628743 -1.8374 0
M  V30 8010 C 737.798 -1.5097 -3.1277 0
M  V30 8011 C 736.752 -2.64337 -3.36615 0
M  V30 8012 C 736.078 -2.44872 -4.75333 0
M  V30 8013 C 737.378 -4.06423 -3.28051 0
M  V30 8014 H 739.072 -2.49432 -1.65602 0
M  V30 8015 H 736.618 -1.20047 -0.795281 0
M  V30 8016 H 738.571 -1.56971 -3.91073 0
M  V30 8017 H 737.295 -0.535486 -3.2218 0
M  V30 8018 H 735.954 -2.57744 -2.60698 0
M  V30 8019 H 735.602 -1.45617 -4.81461 0
M  V30 8020 H 735.302 -3.20888 -4.92244 0
M  V30 8021 H 736.826 -2.52709 -5.55851 0
M  V30 8022 H 738.24 -4.14324 -3.96243 0
M  V30 8023 H 736.637 -4.82733 -3.56495 0
M  V30 8024 H 737.707 -4.29183 -2.25676 0
M  V30 8025 N 739.05 0.861098 -1.31996 0
M  V30 8026 C 739.983 1.97266 -1.14724 0
M  V30 8027 C 740.961 1.62528 -0.0483789 0
M  V30 8028 O 742.145 1.87366 -0.206478 0
M  V30 8029 C 739.272 3.30181 -0.754861 0
M  V30 8030 C 738.318 3.839 -1.85804 0
M  V30 8031 S 739.151 4.08274 -3.46515 0
M  V30 8032 C 740.307 5.44174 -3.09235 0
M  V30 8033 H 740.54 2.11614 -2.08822 0
M  V30 8034 H 738.073 1.01232 -1.16582 0
M  V30 8035 H 740.031 4.06996 -0.535232 0
M  V30 8036 H 738.692 3.13655 0.167155 0
M  V30 8037 H 737.885 4.80013 -1.53633 0
M  V30 8038 H 737.487 3.13907 -2.03318 0
M  V30 8039 H 739.779 6.26172 -2.58679 0
M  V30 8040 H 740.722 5.81301 -4.04345 0
M  V30 8041 H 741.13 5.0787 -2.46431 0
M  V30 8042 N 740.528 1.15101 1.07655 0
M  V30 8043 C 741.476 0.840714 2.16875 0
M  V30 8044 C 742.47 -0.184594 1.68391 0
M  V30 8045 O 743.676 -0.0399315 1.79956 0
M  V30 8046 H 740.051 0.254192 0.707736 0
M  V30 8047 H 742.022 1.76959 2.40266 0
M  V30 8048 C 740.771 0.343018 3.46004 0
M  V30 8049 H 740.094 1.12335 3.83694 0
M  V30 8050 H 741.534 0.16453 4.23681 0
M  V30 8051 C 739.993 -0.934881 3.23669 0
M  V30 8052 O 740.523 -2.00706 3.47965 0
M  V30 8053 N 738.729 -0.873167 2.77172 0
M  V30 8054 H 738.276 -0.000479072 2.576 0
M  V30 8055 H 738.234 -1.72873 2.62607 0
M  V30 8056 N 742.006 -1.2595 0.947325 0
M  V30 8057 C 743.283 -1.88676 0.515824 0
M  V30 8058 C 743.663 -1.85547 -1.00675 0
M  V30 8059 O 743.011 -1.31399 -1.8694 0
M  V30 8060 C 743.221 -3.31734 1.08415 0
M  V30 8061 C 744.569 -4.08545 1.15654 0
M  V30 8062 O 745.593 -3.40826 1.03517 0
M  V30 8063 O 744.452 -5.29663 1.34608 0
M  V30 8064 H 741.546 -0.809537 0.169055 0
M  V30 8065 H 744.092 -1.34075 1.04029 0
M  V30 8066 H 742.864 -3.28404 2.1276 0
M  V30 8067 H 742.487 -3.93882 0.542499 0
M  V30 8068 N 743.484 -0.715051 -1.40445 0
M  V30 8069 C 744.73 -0.254705 -2.01194 0
M  V30 8070 C 745.063 1.14894 -1.56567 0
M  V30 8071 O 744.338 1.77933 -0.785491 0
M  V30 8072 C 744.621 -0.334148 -3.58546 0
M  V30 8073 C 744.474 -1.77613 -4.13248 0
M  V30 8074 C 745.793 0.294968 -4.3911 0
M  V30 8075 H 742.912 -0.094025 -0.730978 0
M  V30 8076 H 745.554 -0.907449 -1.66929 0
M  V30 8077 H 743.704 0.221609 -3.87867 0
M  V30 8078 H 745.376 -2.38723 -3.94727 0
M  V30 8079 H 743.619 -2.30402 -3.67556 0
M  V30 8080 H 744.29 -1.78311 -5.22407 0
M  V30 8081 H 746.766 -0.178563 -4.15717 0
M  V30 8082 H 745.642 0.208934 -5.48502 0
M  V30 8083 H 745.903 1.37841 -4.20062 0
M  V30 8084 N 744.962 1.50701 -0.461195 0
M  V30 8085 C 745.91 2.29918 0.352231 0
M  V30 8086 C 746.904 1.36778 0.999403 0
M  V30 8087 O 748.11 1.54015 0.931639 0
M  V30 8088 H 744.485 0.740249 0.132423 0
M  V30 8089 H 746.456 2.96497 -0.336424 0
M  V30 8090 C 745.205 3.17052 1.42736 0
M  V30 8091 H 744.528 3.88623 0.938747 0
M  V30 8092 H 745.968 3.75493 1.96928 0
M  V30 8093 C 744.427 2.3399 2.42384 0
M  V30 8094 O 744.957 2.01608 3.47444 0
M  V30 8095 N 743.163 1.96758 2.13857 0
M  V30 8096 H 742.71 2.23292 1.28447 0
M  V30 8097 H 742.668 1.41484 2.80766 0
M  V30 8098 N 746.441 0.193421 1.56409 0
M  V30 8099 C 747.718 -0.493318 1.89277 0
M  V30 8100 C 748.098 -1.79765 1.10669 0
M  V30 8101 O 747.446 -2.27558 0.207274 0
M  V30 8102 C 747.656 -0.713732 3.41624 0
M  V30 8103 C 749.004 -1.03385 4.11821 0
M  V30 8104 O 750.028 -0.801511 3.47065 0
M  V30 8105 O 748.887 -1.47327 5.26267 0
M  V30 8106 H 745.981 -0.256973 0.786062 0
M  V30 8107 H 748.527 0.23351 1.68086 0
M  V30 8108 H 747.299 0.207446 3.9075 0
M  V30 8109 H 746.922 -1.49308 3.68501 0
M  V30 8110 N 747.919 -1.57396 -0.0801906 0
M  V30 8111 C 748.849 -2.06145 -1.09665 0
M  V30 8112 C 749.83 -0.953273 -1.40878 0
M  V30 8113 O 751.015 -1.22548 -1.50651 0
M  V30 8114 C 748.145 -2.49836 -2.41245 0
M  V30 8115 C 747.099 -3.64454 -2.24405 0
M  V30 8116 C 746.425 -3.94172 -3.61293 0
M  V30 8117 C 747.725 -4.94807 -1.67223 0
M  V30 8118 H 749.419 -2.91316 -0.691028 0
M  V30 8119 H 746.965 -1.40145 -0.330957 0
M  V30 8120 H 748.918 -2.82552 -3.12638 0
M  V30 8121 H 747.642 -1.61683 -2.83771 0
M  V30 8122 H 746.301 -3.32008 -1.55454 0
M  V30 8123 H 745.949 -3.03163 -4.01374 0
M  V30 8124 H 745.649 -4.71345 -3.50867 0
M  V30 8125 H 747.173 -4.29376 -4.3413 0
M  V30 8126 H 748.587 -5.25807 -2.28472 0
M  V30 8127 H 746.984 -5.76245 -1.67515 0
M  V30 8128 H 748.054 -4.80751 -0.632944 0
M  V30 8129 N 749.397 0.351382 -1.53633 0
M  V30 8130 C 750.646 1.08988 -1.69719 0
M  V30 8131 C 750.959 1.90043 -0.462948 0
M  V30 8132 O 752.165 2.66769 -0.504613 0
M  V30 8133 C 750.621 1.98691 -3.00083 0
M  V30 8134 C 750.229 1.22881 -4.30818 0
M  V30 8135 C 751.973 2.72446 -3.25536 0
M  V30 8136 C 749.88 2.11568 -5.52262 0
M  V30 8137 H 748.81 0.410588 -0.632403 0
M  V30 8138 H 751.461 0.349886 -1.80133 0
M  V30 8139 H 749.843 2.76478 -2.83506 0
M  V30 8140 H 751.017 0.500582 -4.58073 0
M  V30 8141 H 749.332 0.60928 -4.11918 0
M  V30 8142 H 751.929 3.39055 -4.13456 0
M  V30 8143 H 752.272 3.38588 -2.42206 0
M  V30 8144 H 752.805 2.01735 -3.42852 0
M  V30 8145 H 749.544 1.4998 -6.38111 0
M  V30 8146 H 749.064 2.82201 -5.29266 0
M  V30 8147 H 750.743 2.70802 -5.87601 0
M  V30 8148 N 750.875 1.45233 0.611969 0
M  V30 8149 C 751.805 1.5641 1.73373 0
M  V30 8150 C 752.786 0.415896 1.64937 0
M  V30 8151 O 753.971 0.638478 1.83404 0
M  V30 8152 C 751.101 1.52627 3.11965 0
M  V30 8153 C 750.055 2.66119 3.35208 0
M  V30 8154 C 749.381 2.4739 4.74028 0
M  V30 8155 C 750.681 4.08157 3.25891 0
M  V30 8156 H 752.375 2.50307 1.64277 0
M  V30 8157 H 749.921 1.20467 0.788904 0
M  V30 8158 H 751.874 1.59043 3.90235 0
M  V30 8159 H 750.598 0.552564 3.21892 0
M  V30 8160 H 749.257 2.59123 2.59327 0
M  V30 8161 H 748.905 1.48168 4.80682 0
M  V30 8162 H 748.605 3.23494 4.90536 0
M  V30 8163 H 750.129 2.55653 5.54503 0
M  V30 8164 H 751.543 4.1642 3.9404 0
M  V30 8165 H 749.94 4.84617 3.5393 0
M  V30 8166 H 751.01 4.30374 2.23397 0
M  V30 8167 N 752.353 -0.854086 1.3245 0
M  V30 8168 C 753.263 -1.99503 1.23434 0
M  V30 8169 C 754.279 -1.73371 0.147828 0
M  V30 8170 O 755.455 -1.97998 0.368609 0
M  V30 8171 C 752.52 -3.33192 0.958328 0
M  V30 8172 C 751.581 -3.72542 2.13333 0
M  V30 8173 C 750.814 -4.99852 1.8704 0
M  V30 8174 O 751.037 -5.64573 0.813239 0
M  V30 8175 O 749.971 -5.36345 2.73161 0
M  V30 8176 H 753.797 -2.10046 2.1935 0
M  V30 8177 H 751.382 -0.984823 1.12346 0
M  V30 8178 H 753.264 -4.13327 0.820918 0
M  V30 8179 H 751.939 -3.23687 0.0293299 0
M  V30 8180 H 750.846 -2.92981 2.32622 0
M  V30 8181 H 752.179 -3.86694 3.04514 0
M  V30 8182 N 753.831 -1.1567 -1.07043 0
M  V30 8183 C 755.079 -0.931673 -1.79344 0
M  V30 8184 C 755.4 0.542421 -1.87304 0
M  V30 8185 O 754.67 1.39418 -1.37621 0
M  V30 8186 H 753.25 -0.34171 -0.664262 0
M  V30 8187 H 755.912 -1.45795 -1.29344 0
M  V30 8188 H 755.008 -1.34379 -2.81689 0
M  V30 8189 N 755.309 1.25446 -0.953992 0
M  V30 8190 C 756.72 1.75047 -0.649255 0
M  V30 8191 C 757.071 1.77527 0.835385 0
M  V30 8192 O 756.196 1.39569 1.65377 0
M  V30 8193 C 756.791 3.17889 -1.17183 0
M  V30 8194 C 755.35 3.65052 -0.917267 0
M  V30 8195 C 754.497 2.44124 -1.31525 0
M  V30 8196 H 757.448 1.11342 -1.13087 0
M  V30 8197 H 757.469 3.76768 -0.531616 0
M  V30 8198 H 756.981 3.16052 -2.25239 0
M  V30 8199 H 755.082 3.72305 0.148354 0
M  V30 8200 H 755.195 4.53222 -1.55328 0
M  V30 8201 H 753.559 2.43906 -0.733624 0
M  V30 8202 H 754.342 2.44979 -2.405 0
M  V30 8203 N 756.787 0.722489 1.40064 0
M  V30 8204 C 757.75 0.0830209 2.2905 0
M  V30 8205 C 758.75 -0.680208 1.45705 0
M  V30 8206 O 759.94 -0.511084 1.66534 0
M  V30 8207 C 757.072 -0.892092 3.29021 0
M  V30 8208 H 758.265 0.866848 2.87099 0
M  V30 8209 H 755.818 0.487556 1.48501 0
M  V30 8210 H 756.553 -1.70273 2.76003 0
M  V30 8211 H 756.338 -0.34761 3.90556 0
M  V30 8212 H 757.828 -1.33648 3.95636 0
M  V30 8213 N 758.265 -1.50454 0.469181 0
M  V30 8214 C 759.195 -2.31353 -0.31592 0
M  V30 8215 C 760.176 -1.38172 -0.992094 0
M  V30 8216 O 761.361 -1.67093 -0.989633 0
M  V30 8217 C 758.491 -3.1786 -1.39937 0
M  V30 8218 C 757.445 -4.19578 -0.844909 0
M  V30 8219 C 756.771 -4.9481 -2.0265 0
M  V30 8220 C 758.071 -5.22106 0.142499 0
M  V30 8221 H 759.765 -2.97237 0.359269 0
M  V30 8222 H 757.311 -1.42942 0.174224 0
M  V30 8223 H 759.264 -3.7325 -1.95607 0
M  V30 8224 H 757.988 -2.49858 -2.1033 0
M  V30 8225 H 756.647 -3.65285 -0.310189 0
M  V30 8226 H 756.295 -4.23282 -2.71737 0
M  V30 8227 H 755.995 -5.63613 -1.66174 0
M  V30 8228 H 757.519 -5.53035 -2.58815 0
M  V30 8229 H 758.933 -5.72378 -0.324966 0
M  V30 8230 H 757.33 -5.98618 0.421441 0
M  V30 8231 H 758.4 -4.7297 1.06901 0
M  V30 8232 N 759.743 -0.201713 -1.56304 0
M  V30 8233 C 761.154 0.309711 -1.84113 0
M  V30 8234 C 761.505 1.60912 -1.12258 0
M  V30 8235 O 760.63 2.12937 -0.385587 0
M  V30 8236 C 761.225 0.568706 -3.33993 0
M  V30 8237 C 759.784 1.02448 -3.6219 0
M  V30 8238 C 758.931 0.0766842 -2.77194 0
M  V30 8239 H 761.882 -0.425356 -1.52893 0
M  V30 8240 H 761.903 1.41721 -3.53122 0
M  V30 8241 H 761.415 -0.37719 -3.86263 0
M  V30 8242 H 759.516 1.98443 -3.15359 0
M  V30 8243 H 759.629 0.912619 -4.70328 0
M  V30 8244 H 757.993 0.579809 -2.48013 0
M  V30 8245 H 758.776 -0.863774 -3.32256 0
M  V30 8246 N 761.222 1.57436 0.0718424 0
M  V30 8247 C 762.471 1.86431 0.769826 0
M  V30 8248 C 762.784 0.794355 1.78744 0
M  V30 8249 O 763.99 0.972148 2.53499 0
M  V30 8250 C 762.446 3.307 1.42006 0
M  V30 8251 C 762.054 4.45824 0.441017 0
M  V30 8252 C 763.798 3.68894 2.10041 0
M  V30 8253 C 761.705 5.81134 1.09717 0
M  V30 8254 H 760.635 0.695474 0.291259 0
M  V30 8255 H 763.286 1.83485 0.0231224 0
M  V30 8256 H 761.668 3.28257 2.21502 0
M  V30 8257 H 762.842 4.59659 -0.32413 0
M  V30 8258 H 761.157 4.16181 -0.134886 0
M  V30 8259 H 763.754 4.67281 2.59908 0
M  V30 8260 H 764.097 2.98692 2.89981 0
M  V30 8261 H 764.63 3.73326 1.37376 0
M  V30 8262 H 761.369 6.54628 0.338095 0
M  V30 8263 H 760.889 5.711 1.83317 0
M  V30 8264 H 762.568 6.26468 1.617 0
M  V30 8265 N 762.7 -0.34323 1.53817 0
M  V30 8266 C 763.633 -1.44472 1.76644 0
M  V30 8267 C 764.611 -1.50498 0.615556 0
M  V30 8268 O 765.795 -1.6821 0.850751 0
M  V30 8269 C 762.922 -2.82705 1.86536 0
M  V30 8270 C 761.968 -2.94302 3.08688 0
M  V30 8271 S 762.801 -2.60739 4.67735 0
M  V30 8272 C 763.957 -4.01079 4.80506 0
M  V30 8273 H 764.19 -1.24893 2.69794 0
M  V30 8274 H 761.723 -0.538915 1.4469 0
M  V30 8275 H 763.681 -3.62342 1.92921 0
M  V30 8276 H 762.342 -2.9958 0.943975 0
M  V30 8277 H 761.535 -3.95593 3.12286 0
M  V30 8278 H 761.137 -2.22614 3.00531 0
M  V30 8279 H 763.429 -4.95603 4.61935 0
M  V30 8280 H 764.372 -4.02475 5.82597 0
M  V30 8281 H 764.78 -3.89119 4.08958 0
M  V30 8282 N 764.178 -1.45556 -0.604258 0
M  V30 8283 C 765.128 -1.50906 -1.70913 0
M  V30 8284 C 766.112 -0.371996 -1.56541 0
M  V30 8285 O 767.304 -0.619064 -1.65821 0
M  V30 8286 C 764.433 -1.48181 -3.09673 0
M  V30 8287 C 763.519 -2.67102 -3.2942 0
M  V30 8288 N 763.91 -3.92184 -3.19414 0
M  V30 8289 C 762.208 -2.6287 -3.60299 0
M  V30 8290 C 762.909 -4.71571 -3.40581 0
M  V30 8291 N 761.885 -4.03081 -3.64728 0
M  V30 8292 H 765.687 -2.45435 -1.61675 0
M  V30 8293 H 763.201 -1.40894 -0.807622 0
M  V30 8294 H 765.198 -1.501 -3.88942 0
M  V30 8295 H 763.858 -0.54712 -3.20057 0
M  V30 8296 H 764.869 -4.23756 -2.97743 0
M  V30 8297 H 761.546 -1.78324 -3.77501 0
M  V30 8298 H 762.936 -5.80571 -3.38211 0
M  V30 8299 N 765.656 0.84705 -1.32902 0
M  V30 8300 C 766.589 1.96038 -1.1681 0
M  V30 8301 C 767.567 1.62468 -0.0656144 0
M  V30 8302 O 768.751 1.87136 -0.226339 0
M  V30 8303 C 765.878 3.29362 -0.789839 0
M  V30 8304 C 764.924 3.81908 -1.89865 0
M  V30 8305 S 765.757 4.04576 -3.50826 0
M  V30 8306 C 766.913 5.40863 -3.14989 0
M  V30 8307 H 767.146 2.09387 -2.11055 0
M  V30 8308 H 764.679 0.999896 -1.1765 0
M  V30 8309 H 766.637 4.06405 -0.578369 0
M  V30 8310 H 765.298 3.13815 0.133878 0
M  V30 8311 H 764.491 4.78357 -1.58716 0
M  V30 8312 H 764.093 3.11733 -2.06636 0
M  V30 8313 H 766.385 6.23393 -2.65306 0
M  V30 8314 H 767.328 5.7698 -4.10488 0
M  V30 8315 H 767.736 5.05228 -2.51804 0
M  V30 8316 O 767.173 1.28015 0.984606 0
M  V30 8317 H 767.864 1.07954 1.60828 0
M  V30 END ATOM
M  V30 BEGIN BOND
M  V30 END BOND
M  V30 END CTAB
M  END
$$$$
