drugbank_target|Q03736 Cytochrome c oxidase subunit 2 (DB03619)
 OpenBabel12092120463D

  0  0  0     0  0            999 V3000
M  V30 BEGIN CTAB
M  V30 COUNTS 4626 4688 0 0 0
M  V30 BEGIN ATOM
M  V30 1 H -0.908 1.98254 -0.117106 0
M  V30 2 N 0 1.576 0 0
M  V30 3 C 0.933 2.03868 1.02534 0
M  V30 4 C 1.911 0.928543 1.3348 0
M  V30 5 O 3.095 1.19667 1.45644 0
M  V30 6 C 0.222 2.43627 2.35294 0
M  V30 7 C -0.732 3.65373 2.2001 0
M  V30 8 S 0.101 5.13292 1.52614 0
M  V30 9 C 1.257 5.56322 2.86805 0
M  V30 10 H 1.49 2.90518 0.631377 0
M  V30 11 H -0.977 1.52953 0.210867 0
M  V30 12 H 0.981 2.67203 3.11629 0
M  V30 13 H -0.358 1.57376 2.7183 0
M  V30 14 H -1.165 3.90944 3.18086 0
M  V30 15 H -1.563 3.418 1.51819 0
M  V30 16 H 0.729 5.58782 3.83104 0
M  V30 17 H 1.672 6.56266 2.65933 0
M  V30 18 H 2.08 4.83886 2.90714 0
M  V30 19 N 1.4781 -0.272755 1.55222 0
M  V30 20 C 2.8941 -0.619959 1.47067 0
M  V30 21 C 3.0941 -1.895 0.684978 0
M  V30 22 O 2.1501 -2.51675 0.203931 0
M  V30 23 C 3.4631 -0.746693 2.91282 0
M  V30 24 C 5.0111 -0.840731 3.01497 0
M  V30 25 C 5.4861 -0.99924 4.46967 0
M  V30 26 N 6.9771 -1.06476 4.50796 0
M  V30 27 C 7.7121 -1.20621 5.6057 0
M  V30 28 N 7.2081 -1.31483 6.80209 0
M  V30 29 N 9.0011 -1.23733 5.48312 0
M  V30 30 H 1.1521 0.564606 2.04758 0
M  V30 31 H 3.4151 0.191177 0.928523 0
M  V30 32 H 3.1211 0.119753 3.51496 0
M  V30 33 H 2.9951 -1.6269 3.40311 0
M  V30 34 H 5.3821 -1.69764 2.41379 0
M  V30 35 H 5.4631 0.0640874 2.5572 0
M  V30 36 H 5.1071 -0.146984 5.07687 0
M  V30 37 H 5.0371 -1.91871 4.90401 0
M  V30 38 H 7.5281 -0.993196 3.64615 0
M  V30 39 H 7.8411 -1.42111 7.59621 0
M  V30 40 H 6.1861 -1.28487 6.8302 0
M  V30 41 H 9.3771 -1.14877 4.53785 0
M  V30 42 H 9.5501 -1.34412 6.33906 0
M  V30 43 N 2.9562 -1.48159 -0.537278 0
M  V30 44 C 3.9062 -1.5854 -1.63857 0
M  V30 45 C 4.8902 -0.442969 -1.54682 0
M  V30 46 O 6.0822 -0.69401 -1.62827 0
M  V30 47 C 3.2112 -1.62144 -3.02596 0
M  V30 48 C 2.2972 -2.81841 -3.16901 0
M  V30 49 N 2.6882 -4.06337 -3.01204 0
M  V30 50 C 0.9862 -2.79021 -3.47942 0
M  V30 51 C 1.6872 -4.86606 -3.18731 0
M  V30 52 N 0.6632 -4.19288 -3.45974 0
M  V30 53 H 4.4652 -2.5255 -1.50319 0
M  V30 54 H 1.9792 -1.4443 -0.742555 0
M  V30 55 H 3.9762 -1.67674 -3.81695 0
M  V30 56 H 2.6362 -0.69245 -3.17231 0
M  V30 57 H 3.6472 -4.36888 -2.78117 0
M  V30 58 H 0.3242 -1.95347 -3.6898 0
M  V30 59 H 1.7142 -5.95385 -3.11394 0
M  V30 60 N 4.4343 0.785586 -1.36625 0
M  V30 61 C 5.6593 1.57963 -1.34397 0
M  V30 62 C 6.0843 1.87964 0.071526 0
M  V30 63 O 5.4423 1.48182 1.0446 0
M  V30 64 C 5.4903 2.87511 -2.17646 0
M  V30 65 O 4.5943 3.81281 -1.57158 0
M  V30 66 H 3.9353 0.479014 -0.459828 0
M  V30 67 H 6.4653 0.973411 -1.79961 0
M  V30 68 H 6.4753 3.36745 -2.30362 0
M  V30 69 H 5.1503 2.65002 -3.20541 0
M  V30 70 H 3.7273 3.39885 -1.53403 0
M  V30 71 N 5.9124 1.20967 1.01018 0
M  V30 72 C 7.1404 1.04956 1.78303 0
M  V30 73 C 7.5554 -0.400915 1.84494 0
M  V30 74 O 6.9124 -1.27826 1.30257 0
M  V30 75 C 6.9634 1.63403 3.22462 0
M  V30 76 O 6.6844 3.02775 3.16637 0
M  V30 77 C 8.1854 1.52432 4.16268 0
M  V30 78 H 5.4054 0.368858 0.560522 0
M  V30 79 H 7.9494 1.60193 1.27116 0
M  V30 80 H 6.1044 1.1227 3.70775 0
M  V30 81 H 6.5184 3.30626 4.07169 0
M  V30 82 H 7.9924 1.98078 5.15237 0
M  V30 83 H 8.4694 0.477875 4.36592 0
M  V30 84 H 9.0754 2.02787 3.73841 0
M  V30 85 N 7.3905 -1.2043 1.01659 0
M  V30 86 C 8.6185 -1.93777 0.725132 0
M  V30 87 C 9.0335 -1.74772 -0.714166 0
M  V30 88 O 8.3905 -1.06169 -1.4844 0
M  V30 89 C 8.4415 -3.45876 1.05129 0
M  V30 90 O 8.1625 -3.6426 2.43406 0
M  V30 91 C 9.6635 -4.36368 0.780891 0
M  V30 92 H 6.8835 -0.615901 0.266284 0
M  V30 93 H 9.4275 -1.52922 1.35776 0
M  V30 94 H 7.5825 -3.8461 0.464065 0
M  V30 95 H 7.9965 -4.58246 2.55169 0
M  V30 96 H 9.4705 -5.41743 1.05918 0
M  V30 97 H 9.9475 -4.38275 -0.284937 0
M  V30 98 H 10.5535 -4.03296 1.35027 0
M  V30 99 N 8.8686 -0.792821 -1.36206 0
M  V30 100 C 9.7986 -0.207853 -2.32573 0
M  V30 101 C 10.7796 0.659055 -1.56813 0
M  V30 102 O 11.9646 0.592176 -1.84951 0
M  V30 103 C 9.0946 0.655449 -3.41059 0
M  V30 104 C 8.0486 -0.111842 -4.27854 0
M  V30 105 C 7.3746 0.872274 -5.27537 0
M  V30 106 C 8.6746 -1.30299 -5.05786 0
M  V30 107 H 10.3686 -1.01294 -2.81744 0
M  V30 108 H 7.9146 -0.48854 -1.3546 0
M  V30 109 H 9.8676 1.07464 -4.07467 0
M  V30 110 H 8.5916 1.49328 -2.90463 0
M  V30 111 H 7.2506 -0.512053 -3.63006 0
M  V30 112 H 6.8986 1.70523 -4.73214 0
M  V30 113 H 6.5986 0.363291 -5.86476 0
M  V30 114 H 8.1226 1.28996 -5.96818 0
M  V30 115 H 9.5366 -0.959379 -5.65216 0
M  V30 116 H 7.9336 -1.7455 -5.74154 0
M  V30 117 H 9.0036 -2.09663 -4.37229 0
M  V30 118 N 10.3467 1.47872 -0.545128 0
M  V30 119 C 11.5747 2.06889 -0.021084 0
M  V30 120 C 11.9897 1.39955 1.2672 0
M  V30 121 O 11.3467 0.492036 1.75742 0
M  V30 122 C 11.3977 3.60996 0.190817 0
M  V30 123 O 11.1187 4.25419 -1.04644 0
M  V30 124 C 12.6197 4.36849 0.753521 0
M  V30 125 H 9.8397 0.669785 -0.0403635 0
M  V30 126 H 12.3837 1.90049 -0.755095 0
M  V30 127 H 10.5387 3.77391 0.87492 0
M  V30 128 H 10.9527 5.17785 -0.836611 0
M  V30 129 H 12.4267 5.45399 0.851139 0
M  V30 130 H 12.9037 4.02306 1.762 0
M  V30 131 H 13.5097 4.25169 0.105503 0
M  V30 132 N 11.8248 0.280983 1.55075 0
M  V30 133 C 13.0728 -0.333455 1.9933 0
M  V30 134 C 13.3938 -1.55937 1.17085 0
M  V30 135 O 12.6638 -1.94143 0.261805 0
M  V30 136 H 11.2438 -0.126197 0.736263 0
M  V30 137 H 13.9058 0.387678 1.91005 0
M  V30 138 H 13.0018 -0.619292 3.05894 0
M  V30 139 N 13.3029 -1.57598 0.00835791 0
M  V30 140 C 14.5429 -1.92788 -0.679136 0
M  V30 141 C 14.9069 -0.883378 -1.70471 0
M  V30 142 O 16.1079 -1.12079 -2.44319 0
M  V30 143 C 14.3789 -3.32994 -1.29807 0
M  V30 144 S 15.9379 -3.90082 -2.00952 0
M  V30 145 H 12.7559 -0.67475 -0.224127 0
M  V30 146 H 15.3579 -1.95385 0.0670497 0
M  V30 147 H 14.0619 -4.06846 -0.538922 0
M  V30 148 H 13.5929 -3.33791 -2.082 0
M  V30 149 H 15.6079 -3.71834 -3.28563 0
M  V30 150 N 14.781 0.264519 -1.55364 0
M  V30 151 C 15.744 1.31046 -1.88042 0
M  V30 152 C 16.744 1.41943 -0.755569 0
M  V30 153 O 17.934 1.40947 -1.02369 0
M  V30 154 C 15.066 2.69067 -2.09323 0
M  V30 155 H 16.259 1.03297 -2.81549 0
M  V30 156 H 13.812 0.502989 -1.47986 0
M  V30 157 H 14.547 3.01982 -1.18226 0
M  V30 158 H 14.332 2.62542 -2.91229 0
M  V30 159 H 15.822 3.44623 -2.35848 0
M  V30 160 N 16.2591 1.48442 0.529413 0
M  V30 161 C 17.4871 1.60151 1.30994 0
M  V30 162 C 17.9021 0.261985 1.86973 0
M  V30 163 O 17.2591 -0.748805 1.66431 0
M  V30 164 C 17.3101 2.64854 2.46038 0
M  V30 165 O 17.0311 3.93608 1.92365 0
M  V30 166 C 18.5321 2.87007 3.37849 0
M  V30 167 H 15.7521 0.539971 0.398338 0
M  V30 168 H 18.2961 1.94273 0.638597 0
M  V30 169 H 16.4511 2.33589 3.09055 0
M  V30 170 H 16.8651 4.51055 2.67675 0
M  V30 171 H 18.3391 3.64068 4.14919 0
M  V30 172 H 18.8161 1.95852 3.93114 0
M  V30 173 H 19.4221 3.19579 2.80623 0
M  V30 174 N 17.7372 -0.778329 1.37039 0
M  V30 175 C 18.9852 -1.53361 1.31623 0
M  V30 176 C 19.3062 -1.94739 -0.100831 0
M  V30 177 O 18.5762 -1.65797 -1.04347 0
M  V30 178 H 17.1562 -0.568794 0.484234 0
M  V30 179 H 19.8182 -0.926742 1.71457 0
M  V30 180 H 18.9142 -2.43606 1.95096 0
M  V30 181 N 19.2153 -1.21501 -1.00376 0
M  V30 182 C 20.1783 -0.976927 -2.07337 0
M  V30 183 C 21.1783 0.0525322 -1.60714 0
M  V30 184 O 22.3683 -0.184869 -1.73216 0
M  V30 185 C 19.5003 -0.473423 -3.37597 0
M  V30 186 H 20.6933 -1.92587 -2.29892 0
M  V30 187 H 18.2463 -1.03217 -1.17371 0
M  V30 188 H 18.9813 0.480379 -3.20722 0
M  V30 189 H 18.7663 -1.216 -3.72768 0
M  V30 190 H 20.2563 -0.32675 -4.1632 0
M  V30 191 N 20.6934 1.19889 -1.02296 0
M  V30 192 C 21.6564 2.21116 -0.603351 0
M  V30 193 C 22.6564 1.5738 0.329884 0
M  V30 194 O 23.8464 1.73802 0.117702 0
M  V30 195 C 20.9784 3.40696 0.117992 0
M  V30 196 H 22.1714 2.59754 -1.49893 0
M  V30 197 H 19.7244 1.33463 -0.813468 0
M  V30 198 H 20.4594 3.07569 1.0282 0
M  V30 199 H 20.2444 3.88188 -0.552511 0
M  V30 200 H 21.7344 4.15692 0.398696 0
M  V30 201 N 22.1715 0.800033 1.35784 0
M  V30 202 C 23.4195 0.376597 1.9856 0
M  V30 203 C 23.7405 -1.05812 1.63795 0
M  V30 204 O 23.0105 -1.73103 0.917171 0
M  V30 205 H 21.5905 0.136261 0.734467 0
M  V30 206 H 24.2525 1.02442 1.65806 0
M  V30 207 H 23.3485 0.477002 3.08433 0
M  V30 208 N 23.6496 -1.47581 0.552962 0
M  V30 209 C 24.5796 -2.32762 -0.185451 0
M  V30 210 C 25.5606 -1.43527 -0.912905 0
M  V30 211 O 26.7456 -1.72388 -0.894201 0
M  V30 212 C 23.8756 -3.25219 -1.21859 0
M  V30 213 C 22.8296 -4.23661 -0.607864 0
M  V30 214 C 22.1556 -5.05413 -1.74533 0
M  V30 215 C 23.4556 -5.20481 0.435582 0
M  V30 216 H 25.1496 -2.94749 0.525684 0
M  V30 217 H 22.6956 -1.41738 0.254251 0
M  V30 218 H 24.6486 -3.8365 -1.7433 0
M  V30 219 H 23.3726 -2.61279 -1.95961 0
M  V30 220 H 22.0316 -3.66451 -0.104489 0
M  V30 221 H 21.6796 -4.3788 -2.47529 0
M  V30 222 H 21.3796 -5.72059 -1.34249 0
M  V30 223 H 22.9036 -5.66701 -2.27338 0
M  V30 224 H 24.3176 -5.733 -0.00290157 0
M  V30 225 H 22.7146 -5.95305 0.757067 0
M  V30 226 H 23.7846 -4.66217 1.33303 0
M  V30 227 N 25.1277 -0.289203 -1.54924 0
M  V30 228 C 26.0577 0.58549 -2.2604 0
M  V30 229 C 27.0387 1.14753 -1.25562 0
M  V30 230 O 28.2237 1.17906 -1.54311 0
M  V30 231 C 25.3537 1.76305 -2.99222 0
M  V30 232 C 24.3077 1.33191 -4.06748 0
M  V30 233 C 23.6337 2.5937 -4.6758 0
M  V30 234 C 24.9337 0.471775 -5.20165 0
M  V30 235 H 26.6277 -0.00763532 -2.99399 0
M  V30 236 H 24.1737 -0.00511229 -1.43999 0
M  V30 237 H 26.1267 2.38097 -3.47689 0
M  V30 238 H 24.8507 2.38223 -2.23422 0
M  V30 239 H 23.5097 0.737121 -3.59113 0
M  V30 240 H 23.1577 3.19576 -3.88433 0
M  V30 241 H 22.8577 2.31228 -5.40192 0
M  V30 242 H 24.3817 3.21985 -5.18804 0
M  V30 243 H 25.7957 0.995056 -5.64599 0
M  V30 244 H 24.1927 0.284639 -5.99425 0
M  V30 245 H 25.2627 -0.506041 -4.82252 0
M  V30 246 N 26.6058 1.57591 -0.0167156 0
M  V30 247 C 27.5688 2.08393 0.954204 0
M  V30 248 C 28.5688 0.996531 1.26198 0
M  V30 249 O 29.7588 1.25858 1.20438 0
M  V30 250 C 26.8908 2.5394 2.27436 0
M  V30 251 H 28.0838 2.95455 0.514451 0
M  V30 252 H 25.6368 1.54582 0.231089 0
M  V30 253 H 26.3718 1.70171 2.76066 0
M  V30 254 H 26.1568 3.33371 2.06412 0
M  V30 255 H 27.6468 2.93512 2.97053 0
M  V30 256 N 28.0839 -0.256276 1.55502 0
M  V30 257 C 29.0469 -1.30047 1.88734 0
M  V30 258 C 30.0469 -1.4154 0.763086 0
M  V30 259 O 31.2369 -1.40403 1.03115 0
M  V30 260 C 28.3689 -2.67953 2.10747 0
M  V30 261 H 29.5619 -1.01802 2.82093 0
M  V30 262 H 27.1149 -0.495134 1.4825 0
M  V30 263 H 27.8499 -3.01351 1.19825 0
M  V30 264 H 27.6349 -2.60993 2.92617 0
M  V30 265 H 29.1249 -3.43368 2.37673 0
M  V30 266 N 29.562 -1.4872 -0.521534 0
M  V30 267 C 30.79 -1.60843 -1.30142 0
M  V30 268 C 31.205 -0.271897 -1.86832 0
M  V30 269 O 30.562 0.739969 -1.66825 0
M  V30 270 C 30.613 -2.66155 -2.4463 0
M  V30 271 O 30.334 -3.94623 -1.90275 0
M  V30 272 C 31.835 -2.88795 -3.36322 0
M  V30 273 H 29.055 -0.542075 -0.395468 0
M  V30 274 H 31.599 -1.94609 -0.628285 0
M  V30 275 H 29.754 -2.35224 -3.07812 0
M  V30 276 H 30.168 -4.52468 -2.65279 0
M  V30 277 H 31.642 -3.66264 -4.12983 0
M  V30 278 H 32.119 -1.97934 -3.9207 0
M  V30 279 H 32.725 -3.21063 -2.78924 0
M  V30 280 N 31.0401 0.771051 -1.3745 0
M  V30 281 C 32.0031 1.86598 -1.33093 0
M  V30 282 C 33.0031 1.59076 -0.234845 0
M  V30 283 O 34.1931 1.67145 -0.490732 0
M  V30 284 C 31.3251 3.23747 -1.06773 0
M  V30 285 H 32.5181 1.91873 -2.30488 0
M  V30 286 H 30.0711 0.970876 -1.2249 0
M  V30 287 H 30.8061 3.24148 -0.099129 0
M  V30 288 H 30.5911 3.45115 -1.86112 0
M  V30 289 H 32.0811 4.03824 -1.06377 0
M  V30 290 N 32.5182 1.22032 0.997298 0
M  V30 291 C 33.4812 0.987909 2.06816 0
M  V30 292 C 34.4812 -0.0440084 1.6074 0
M  V30 293 O 35.6712 0.194053 1.73116 0
M  V30 294 C 32.8032 0.49132 3.37341 0
M  V30 295 H 33.9962 1.93803 2.28868 0
M  V30 296 H 31.5492 1.03838 1.16822 0
M  V30 297 H 32.2842 -0.463364 3.20973 0
M  V30 298 H 32.0692 1.23575 3.72118 0
M  V30 299 H 33.5592 0.348824 4.16141 0
M  V30 300 N 33.9963 -1.19345 1.0293 0
M  V30 301 C 34.9593 -2.20793 0.615069 0
M  V30 302 C 35.9593 -1.57553 -0.321533 0
M  V30 303 O 37.1493 -1.73862 -0.108483 0
M  V30 304 C 34.2813 -3.40754 -0.0999222 0
M  V30 305 H 35.4743 -2.58955 1.51269 0
M  V30 306 H 33.0273 -1.3303 0.820534 0
M  V30 307 H 33.7623 -3.0811 -1.01187 0
M  V30 308 H 33.5473 -3.87889 0.57309 0
M  V30 309 H 35.0373 -4.15898 -0.376645 0
M  V30 310 N 35.4744 -0.807222 -1.35358 0
M  V30 311 C 36.4374 -0.223665 -2.28106 0
M  V30 312 C 37.4374 0.589354 -1.4961 0
M  V30 313 O 38.6274 0.407745 -1.69361 0
M  V30 314 C 35.7594 0.688149 -3.33882 0
M  V30 315 H 36.9524 -1.04169 -2.81227 0
M  V30 316 H 34.5054 -0.577921 -1.45223 0
M  V30 317 H 35.2404 1.52984 -2.85948 0
M  V30 318 H 35.0254 0.10687 -3.91954 0
M  V30 319 H 36.5154 1.09075 -4.03104 0
M  V30 320 N 36.9525 1.47285 -0.560781 0
M  V30 321 C 37.8845 2.28118 0.222438 0
M  V30 322 C 38.8975 1.37219 0.876056 0
M  V30 323 O 40.0865 1.62011 0.749307 0
M  V30 324 C 37.1865 3.1159 1.33285 0
M  V30 325 C 36.3595 4.30473 0.77534 0
M  V30 326 C 35.4185 4.95513 1.77069 0
M  V30 327 O 34.4445 5.53792 1.31539 0
M  V30 328 N 35.6465 4.90531 3.10418 0
M  V30 329 H 38.4115 2.95976 -0.470958 0
M  V30 330 H 35.9725 1.56955 -0.39709 0
M  V30 331 H 37.9645 3.51967 1.99752 0
M  V30 332 H 36.5345 2.45951 1.92943 0
M  V30 333 H 35.7545 3.94144 -0.0662113 0
M  V30 334 H 37.0425 5.07362 0.382272 0
M  V30 335 H 36.4405 4.44389 3.5005 0
M  V30 336 H 34.9975 5.34917 3.72434 0
M  V30 337 N 38.4306 0.297415 1.54768 0
M  V30 338 C 39.3626 -0.613881 2.20826 0
M  V30 339 C 40.3756 -1.10032 1.19987 0
M  V30 340 O 41.5646 -1.01839 1.46598 0
M  V30 341 C 38.6646 -1.852 2.83821 0
M  V30 342 C 37.8376 -1.50865 4.10559 0
M  V30 343 C 36.8966 -2.60154 4.57391 0
M  V30 344 O 35.9226 -2.25398 5.2267 0
M  V30 345 N 37.1246 -3.90629 4.29406 0
M  V30 346 H 39.8896 -0.048389 2.99661 0
M  V30 347 H 37.4506 0.11946 1.61459 0
M  V30 348 H 39.4426 -2.57652 3.12086 0
M  V30 349 H 38.0126 -2.32597 2.08847 0
M  V30 350 H 37.2326 -0.616925 3.89343 0
M  V30 351 H 38.5206 -1.25458 4.9309 0
M  V30 352 H 37.9186 -4.21677 3.77101 0
M  V30 353 H 36.4756 -4.59391 4.62388 0
M  V30 354 N 39.9087 -1.5758 0.0250728 0
M  V30 355 C 40.8407 -2.06869 -0.986796 0
M  V30 356 C 41.8537 -0.991332 -1.29137 0
M  V30 357 O 43.0427 -1.26761 -1.25674 0
M  V30 358 C 40.1427 -2.47486 -2.31525 0
M  V30 359 C 39.3157 -3.78253 -2.19643 0
M  V30 360 C 38.3747 -4.05464 -3.35388 0
M  V30 361 O 37.4007 -4.75774 -3.12454 0
M  V30 362 N 38.6027 -3.55321 -4.59051 0
M  V30 363 H 41.3677 -2.94302 -0.566276 0
M  V30 364 H 38.9287 -1.6109 -0.161776 0
M  V30 365 H 40.9207 -2.62785 -3.07776 0
M  V30 366 H 39.4907 -1.65441 -2.65232 0
M  V30 367 H 38.7107 -3.7279 -1.28144 0
M  V30 368 H 39.9987 -4.63936 -2.08903 0
M  V30 369 H 39.3967 -2.98431 -4.80578 0
M  V30 370 H 37.9537 -3.75905 -5.32483 0
M  V30 371 N 41.3868 0.248026 -1.55636 0
M  V30 372 C 42.6118 0.998028 -1.81808 0
M  V30 373 C 43.0368 1.78207 -0.601979 0
M  V30 374 O 42.3948 1.75653 0.448961 0
M  V30 375 C 42.4428 1.9125 -3.05705 0
M  V30 376 O 41.5468 3.00406 -2.82542 0
M  V30 377 H 40.8878 0.284045 -0.600179 0
M  V30 378 H 43.4178 0.269357 -2.02819 0
M  V30 379 H 43.4278 2.32737 -3.35108 0
M  V30 380 H 42.1028 1.33602 -3.93857 0
M  V30 381 H 40.6798 2.63056 -2.64303 0
M  V30 382 N 42.8649 1.48995 0.513639 0
M  V30 383 C 43.7949 1.67636 1.62544 0
M  V30 384 C 44.7759 0.525087 1.61793 0
M  V30 385 O 45.9609 0.759502 1.78732 0
M  V30 386 C 43.0909 1.73114 3.01079 0
M  V30 387 C 42.0449 2.87905 3.16693 0
M  V30 388 C 41.3709 2.78486 4.56453 0
M  V30 389 C 42.6709 4.29005 2.97913 0
M  V30 390 H 44.3649 2.60716 1.47198 0
M  V30 391 H 41.9109 1.25465 0.706714 0
M  V30 392 H 43.8639 1.84742 3.78746 0
M  V30 393 H 42.5879 0.766241 3.17484 0
M  V30 394 H 41.2469 2.75859 2.41448 0
M  V30 395 H 40.8949 1.7993 4.69717 0
M  V30 396 H 40.5949 3.55523 4.67843 0
M  V30 397 H 42.1189 2.92104 5.36197 0
M  V30 398 H 43.5329 4.41798 3.65359 0
M  V30 399 H 41.9299 5.07166 3.20785 0
M  V30 400 H 42.9999 4.44329 1.94165 0
M  V30 401 N 44.343 -0.763751 1.37857 0
M  V30 402 C 45.253 -1.90817 1.36478 0
M  V30 403 C 46.269 -1.71997 0.263248 0
M  V30 404 O 47.445 -1.95095 0.499979 0
M  V30 405 C 44.51 -3.2605 1.17864 0
M  V30 406 C 43.571 -3.57467 2.3773 0
M  V30 407 C 42.804 -4.86249 2.19995 0
M  V30 408 O 43.027 -5.57884 1.18836 0
M  V30 409 O 41.961 -5.16911 3.08361 0
M  V30 410 H 45.787 -1.94933 2.32884 0
M  V30 411 H 43.372 -0.907619 1.1867 0
M  V30 412 H 45.254 -4.06924 1.09504 0
M  V30 413 H 43.929 -3.22769 0.245372 0
M  V30 414 H 42.836 -2.76796 2.51664 0
M  V30 415 H 44.169 -3.655 3.29652 0
M  V30 416 N 45.8211 -1.22559 -0.990812 0
M  V30 417 C 47.0701 -1.04553 -1.72486 0
M  V30 418 C 47.3831 0.419349 -1.91052 0
M  V30 419 O 48.5891 0.719121 -2.61803 0
M  V30 420 C 47.0451 -1.82231 -3.10355 0
M  V30 421 C 46.6531 -3.32981 -2.99713 0
M  V30 422 C 48.3971 -1.7268 -3.87791 0
M  V30 423 C 46.3041 -4.03091 -4.32748 0
M  V30 424 H 45.2341 -0.387614 -0.646739 0
M  V30 425 H 47.8851 -1.46429 -1.10593 0
M  V30 426 H 46.2671 -1.33155 -3.72942 0
M  V30 427 H 47.4411 -3.89466 -2.46278 0
M  V30 428 H 45.7561 -3.43231 -2.35758 0
M  V30 429 H 48.3531 -2.22381 -4.86262 0
M  V30 430 H 48.6961 -0.687607 -4.10582 0
M  V30 431 H 49.2291 -2.1931 -3.31885 0
M  V30 432 H 45.9681 -5.07273 -4.15156 0
M  V30 433 H 45.4881 -3.51394 -4.86089 0
M  V30 434 H 47.1671 -4.08804 -5.01486 0
M  V30 435 N 47.2992 1.18797 -1.03562 0
M  V30 436 C 48.5482 1.87978 -0.731235 0
M  V30 437 C 48.8612 1.80911 0.743671 0
M  V30 438 O 50.0672 2.45407 1.16137 0
M  V30 439 C 48.5232 3.3721 -1.25768 0
M  V30 440 C 48.1312 3.52818 -2.76085 0
M  V30 441 C 49.8752 4.11825 -1.0296 0
M  V30 442 C 47.7822 4.9598 -3.22114 0
M  V30 443 H 46.7122 0.704063 -0.269835 0
M  V30 444 H 49.3632 1.34266 -1.25079 0
M  V30 445 H 47.7452 3.90359 -0.666011 0
M  V30 446 H 48.9192 3.09965 -3.40966 0
M  V30 447 H 47.2342 2.91602 -2.97249 0
M  V30 448 H 49.8312 5.17411 -1.34869 0
M  V30 449 H 50.1742 4.16287 0.0333546 0
M  V30 450 H 50.7072 3.64833 -1.58562 0
M  V30 451 H 47.4462 4.96684 -4.27768 0
M  V30 452 H 46.9662 5.39569 -2.61965 0
M  V30 453 H 48.6452 5.6467 -3.15844 0
M  V30 454 N 48.7773 0.814389 1.34928 0
M  V30 455 C 50.0253 0.397636 1.9815 0
M  V30 456 C 50.3463 -1.04069 1.64908 0
M  V30 457 O 49.6163 -1.72121 0.93548 0
M  V30 458 H 48.1963 0.144043 0.732981 0
M  V30 459 H 50.8583 1.04195 1.6471 0
M  V30 460 H 49.9543 0.509688 3.0791 0
M  V30 461 N 50.2554 -1.46986 0.568584 0
M  V30 462 C 51.6714 -1.57946 0.229189 0
M  V30 463 C 51.8714 -1.56567 -1.26843 0
M  V30 464 O 50.9274 -1.47511 -2.04931 0
M  V30 465 C 52.2404 -2.87963 0.865909 0
M  V30 466 C 53.7884 -3.01568 0.838188 0
M  V30 467 C 54.2634 -4.34301 1.45419 0
M  V30 468 N 55.7544 -4.40965 1.41788 0
M  V30 469 C 56.4894 -5.42256 1.86403 0
M  V30 470 N 55.9854 -6.50297 2.38926 0
M  V30 471 N 57.7784 -5.3337 1.77405 0
M  V30 472 H 49.9294 -1.46126 1.54146 0
M  V30 473 H 52.1924 -0.696156 0.643484 0
M  V30 474 H 51.8984 -2.94742 1.91886 0
M  V30 475 H 51.7724 -3.75423 0.365687 0
M  V30 476 H 54.1594 -2.94379 -0.206106 0
M  V30 477 H 54.2404 -2.1562 1.37629 0
M  V30 478 H 53.8844 -4.42247 2.49761 0
M  V30 479 H 53.8144 -5.19 0.891435 0
M  V30 480 H 56.3054 -3.63484 1.03381 0
M  V30 481 H 56.6184 -7.23777 2.70863 0
M  V30 482 H 54.9634 -6.51155 2.42944 0
M  V30 483 H 58.1544 -4.47865 1.3614 0
M  V30 484 H 58.3274 -6.12169 2.12492 0
M  V30 485 N 51.7335 -0.305618 -1.54608 0
M  V30 486 C 53.1445 0.186098 -1.8577 0
M  V30 487 C 53.4955 1.53058 -1.22751 0
M  V30 488 O 52.6205 2.09888 -0.526893 0
M  V30 489 C 53.2155 0.344449 -3.37044 0
M  V30 490 C 51.7745 0.780384 -3.68221 0
M  V30 491 C 50.9215 -0.108554 -2.77087 0
M  V30 492 H 53.8725 -0.526485 -1.49712 0
M  V30 493 H 53.8935 1.17828 -3.61796 0
M  V30 494 H 53.4055 -0.634235 -3.82883 0
M  V30 495 H 51.5065 1.76945 -3.27904 0
M  V30 496 H 51.6195 0.596572 -4.75371 0
M  V30 497 H 49.9835 0.412931 -2.5133 0
M  V30 498 H 50.7665 -1.08368 -3.25747 0
M  V30 499 N 53.2116 1.57565 -0.0334293 0
M  V30 500 C 54.1436 2.0739 0.975811 0
M  V30 501 C 55.1566 0.998166 1.2861 0
M  V30 502 O 56.3456 1.27426 1.25 0
M  V30 503 C 53.4456 2.4871 2.30209 0
M  V30 504 C 52.6186 3.79413 2.17634 0
M  V30 505 C 51.6776 4.07237 3.33233 0
M  V30 506 O 50.7036 4.77425 3.09927 0
M  V30 507 N 51.9056 3.5775 4.5716 0
M  V30 508 H 54.6706 2.94598 0.55066 0
M  V30 509 H 52.2316 1.61173 0.15323 0
M  V30 510 H 54.2236 2.64413 3.06378 0
M  V30 511 H 52.7936 1.66845 2.64351 0
M  V30 512 H 52.0136 3.73465 1.26165 0
M  V30 513 H 53.3016 4.65038 2.0644 0
M  V30 514 H 52.6996 3.00976 4.78989 0
M  V30 515 H 51.2566 3.78724 5.30482 0
M  V30 516 N 54.6897 -0.239769 1.55765 0
M  V30 517 C 56.1007 -0.808263 1.68297 0
M  V30 518 C 56.4517 -1.85736 0.632181 0
M  V30 519 O 55.5767 -2.15277 -0.220204 0
M  V30 520 C 56.1717 -1.47284 3.05111 0
M  V30 521 C 54.7307 -1.98895 3.19559 0
M  V30 522 C 53.8777 -0.842575 2.64189 0
M  V30 523 H 56.8287 -0.0154422 1.58692 0
M  V30 524 H 56.8497 -2.34111 2.99954 0
M  V30 525 H 56.3617 -0.709053 3.81568 0
M  V30 526 H 54.4627 -2.78132 2.47938 0
M  V30 527 H 54.5757 -2.18143 4.26556 0
M  V30 528 H 52.9397 -1.24501 2.22197 0
M  V30 529 H 53.7227 -0.0917552 3.43177 0
M  V30 530 N 56.1678 -1.49265 -0.50573 0
M  V30 531 C 57.4158 -1.582 -1.25766 0
M  V30 532 C 57.7368 -0.268482 -1.93143 0
M  V30 533 O 57.0068 0.711833 -1.8251 0
M  V30 534 H 55.5868 -0.582873 -0.467191 0
M  V30 535 H 58.2488 -1.85865 -0.586525 0
M  V30 536 H 57.3448 -2.37563 -2.02412 0
M  V30 537 N 57.6459 0.756429 -1.3826 0
M  V30 538 C 58.8939 1.51248 -1.34047 0
M  V30 539 C 59.2149 1.94875 0.0698372 0
M  V30 540 O 58.4849 1.67436 1.01696 0
M  V30 541 H 57.0649 0.561018 -0.493222 0
M  V30 542 H 59.7269 0.899347 -1.7291 0
M  V30 543 H 58.8229 2.40472 -1.98947 0
M  V30 544 N 59.124 1.23083 0.984299 0
M  V30 545 C 60.352 1.08714 1.76037 0
M  V30 546 C 60.767 -0.361691 1.85303 0
M  V30 547 O 60.124 -1.25034 1.32939 0
M  V30 548 C 60.175 1.70206 3.18923 0
M  V30 549 O 59.896 3.09423 3.10144 0
M  V30 550 C 61.397 1.61227 4.12941 0
M  V30 551 H 58.617 0.380664 0.552572 0
M  V30 552 H 61.161 1.62853 1.23689 0
M  V30 553 H 59.316 1.20109 3.6831 0
M  V30 554 H 59.73 3.39188 4.00065 0
M  V30 555 H 61.204 2.08962 5.10919 0
M  V30 556 H 61.681 0.570375 4.35481 0
M  V30 557 H 62.287 2.10671 3.69456 0
M  V30 558 N 60.6021 -1.18246 1.0419 0
M  V30 559 C 61.8501 -1.87886 0.744543 0
M  V30 560 C 62.1711 -1.8082 -0.730006 0
M  V30 561 O 61.4411 -1.22736 -1.52685 0
M  V30 562 H 60.0211 -0.695556 0.272417 0
M  V30 563 H 62.6831 -1.43494 1.31892 0
M  V30 564 H 61.7791 -2.9389 1.05049 0
M  V30 565 N 62.0802 -0.821533 -1.34494 0
M  V30 566 C 63.3272 -0.408946 -1.98328 0
M  V30 567 C 63.6552 1.02764 -1.65136 0
M  V30 568 O 62.9102 1.73026 -0.914349 0
M  V30 569 C 63.2092 -0.556512 -3.53041 0
M  V30 570 C 62.8752 -1.95861 -4.0614 0
M  V30 571 C 61.5372 -2.34217 -4.20352 0
M  V30 572 C 63.8892 -2.87523 -4.34718 0
M  V30 573 C 61.2172 -3.63572 -4.6047 0
M  V30 574 C 63.5692 -4.1634 -4.76281 0
M  V30 575 C 62.2332 -4.54675 -4.88699 0
M  V30 576 H 61.5032 -0.149644 -0.725732 0
M  V30 577 H 64.1502 -1.04521 -1.6046 0
M  V30 578 H 62.4552 0.163148 -3.9146 0
M  V30 579 H 64.1522 -0.217826 -4.00408 0
M  V30 580 H 60.7422 -1.65066 -3.95539 0
M  V30 581 H 64.9262 -2.59133 -4.23277 0
M  V30 582 H 60.1822 -3.93101 -4.68275 0
M  V30 583 H 64.3562 -4.87455 -4.97354 0
M  V30 584 H 61.9832 -5.54959 -5.19542 0
M  V30 585 N 63.5583 1.46682 -0.576371 0
M  V30 586 C 64.4903 2.28341 0.198231 0
M  V30 587 C 65.5033 1.38141 0.861453 0
M  V30 588 O 66.6923 1.62797 0.732082 0
M  V30 589 C 63.7923 3.12986 1.29972 0
M  V30 590 C 62.9653 4.31271 0.729639 0
M  V30 591 C 62.0243 4.97363 1.71803 0
M  V30 592 O 61.0503 5.55156 1.25658 0
M  V30 593 N 62.2523 4.93796 3.05198 0
M  V30 594 H 65.0173 2.9546 -0.502324 0
M  V30 595 H 62.5783 1.56525 -0.413715 0
M  V30 596 H 64.5703 3.54066 1.96008 0
M  V30 597 H 63.1403 2.47984 1.90323 0
M  V30 598 H 62.3603 3.94052 -0.108012 0
M  V30 599 H 63.6483 5.07739 0.328438 0
M  V30 600 H 63.0463 4.48077 3.45317 0
M  V30 601 H 61.6033 5.38837 3.6674 0
M  V30 602 N 65.0364 0.313813 1.54444 0
M  V30 603 C 66.4474 -0.176243 1.85866 0
M  V30 604 C 66.7984 -1.52405 1.23561 0
M  V30 605 O 65.9234 -2.09605 0.538016 0
M  V30 606 C 66.5184 -0.32657 3.37222 0
M  V30 607 C 65.0774 -0.760846 3.6863 0
M  V30 608 C 64.2244 0.123247 2.77026 0
M  V30 609 H 67.1754 0.534418 1.49431 0
M  V30 610 H 67.1964 -1.15908 3.62416 0
M  V30 611 H 66.7084 0.654531 3.82541 0
M  V30 612 H 64.8094 -1.75204 3.28838 0
M  V30 613 H 64.9224 -0.571353 4.75681 0
M  V30 614 H 63.2864 -0.399597 2.51546 0
M  V30 615 H 64.0694 1.10094 3.25168 0
M  V30 616 N 66.5145 -1.57545 0.0417849 0
M  V30 617 C 67.7395 -1.97035 -0.647455 0
M  V30 618 C 68.1645 -0.918775 -1.64135 0
M  V30 619 O 67.5225 0.119006 -1.80909 0
M  V30 620 C 67.5705 -3.35609 -1.31905 0
M  V30 621 O 66.6745 -3.3287 -2.43457 0
M  V30 622 H 66.0155 -0.64211 -0.169086 0
M  V30 623 H 68.5455 -2.04318 0.107399 0
M  V30 624 H 68.5555 -3.72126 -1.67291 0
M  V30 625 H 67.2305 -4.11685 -0.590586 0
M  V30 626 H 65.8075 -3.08087 -2.10088 0
M  V30 627 N 67.9926 0.231505 -1.5589 0
M  V30 628 C 68.9556 1.27028 -1.90779 0
M  V30 629 C 69.9556 1.40308 -0.785507 0
M  V30 630 O 71.1456 1.38744 -1.05336 0
M  V30 631 C 68.2776 2.64566 -2.14983 0
M  V30 632 H 69.4706 0.973017 -2.83677 0
M  V30 633 H 67.0236 0.471486 -1.49019 0
M  V30 634 H 67.7586 2.99406 -1.24604 0
M  V30 635 H 67.5436 2.56305 -2.96732 0
M  V30 636 H 69.0336 3.39543 -2.43105 0
M  V30 637 N 69.4707 1.49531 0.497807 0
M  V30 638 C 70.6957 1.63159 1.28039 0
M  V30 639 C 71.1207 0.30418 1.85624 0
M  V30 640 O 70.4787 -0.728618 1.66015 0
M  V30 641 C 70.5267 2.70537 2.38416 0
M  V30 642 O 69.6307 2.29931 3.42353 0
M  V30 643 H 68.9717 0.546001 0.377861 0
M  V30 644 H 71.5017 1.9574 0.59558 0
M  V30 645 H 71.5117 2.92802 2.84132 0
M  V30 646 H 70.1867 3.6689 1.95869 0
M  V30 647 H 68.7637 2.18009 3.02533 0
M  V30 648 N 70.9488 -0.749086 1.3866 0
M  V30 649 C 72.3598 -1.32664 1.31366 0
M  V30 650 C 72.7108 -1.96179 -0.028484 0
M  V30 651 O 71.8358 -1.9537 -0.93057 0
M  V30 652 C 72.4308 -2.41219 2.37905 0
M  V30 653 C 70.9898 -2.94684 2.34176 0
M  V30 654 C 70.1368 -1.68108 2.20533 0
M  V30 655 H 73.0878 -0.547628 1.48952 0
M  V30 656 H 73.1088 -3.21268 2.0388 0
M  V30 657 H 72.6208 -1.94962 3.35576 0
M  V30 658 H 70.7218 -3.45258 1.401 0
M  V30 659 H 70.8348 -3.48757 3.2849 0
M  V30 660 H 69.1988 -1.91907 1.67463 0
M  V30 661 H 69.9818 -1.23923 3.20153 0
M  V30 662 N 72.4269 -1.23603 -0.977757 0
M  V30 663 C 73.6729 -1.07129 -1.72195 0
M  V30 664 C 74.0059 0.390501 -1.90233 0
M  V30 665 O 73.2809 1.28902 -1.45653 0
M  V30 666 C 73.5639 -1.80031 -3.11867 0
M  V30 667 C 73.4169 -3.33899 -3.01383 0
M  V30 668 C 74.7359 -1.56492 -4.11337 0
M  V30 669 H 71.8549 -0.390571 -0.624999 0
M  V30 670 H 74.4969 -1.52142 -1.13811 0
M  V30 671 H 72.6469 -1.41768 -3.6171 0
M  V30 672 H 74.3189 -3.81699 -2.59043 0
M  V30 673 H 72.5619 -3.62796 -2.37827 0
M  V30 674 H 73.2329 -3.801 -4.00285 0
M  V30 675 H 75.7089 -1.89757 -3.70313 0
M  V30 676 H 74.5849 -2.09973 -5.07151 0
M  V30 677 H 74.8459 -0.500874 -4.39254 0
M  V30 678 N 73.905 1.17692 -1.04816 0
M  V30 679 C 74.868 2.19787 -0.650117 0
M  V30 680 C 75.868 1.58044 0.296427 0
M  V30 681 O 77.058 1.74012 0.0808097 0
M  V30 682 C 74.19 3.40869 0.0456987 0
M  V30 683 H 75.383 2.56516 -1.5537 0
M  V30 684 H 72.936 1.31708 -0.841594 0
M  V30 685 H 73.671 3.09681 0.962726 0
M  V30 686 H 73.456 3.86928 -0.634727 0
M  V30 687 H 74.946 4.16445 0.310432 0
M  V30 688 N 75.3831 0.828654 1.34056 0
M  V30 689 C 76.6111 0.43262 2.02326 0
M  V30 690 C 77.0261 -0.963147 1.62385 0
M  V30 691 O 76.3831 -1.62425 0.832121 0
M  V30 692 C 76.4341 0.53182 3.57567 0
M  V30 693 O 76.1551 1.87258 3.96063 0
M  V30 694 C 77.6561 0.131422 4.43105 0
M  V30 695 H 74.8761 0.172923 0.648335 0
M  V30 696 H 77.4201 1.1184 1.71208 0
M  V30 697 H 75.5751 -0.105938 3.87255 0
M  V30 698 H 75.9891 1.85087 4.90758 0
M  V30 699 H 77.4631 0.251904 5.51425 0
M  V30 700 H 77.9401 -0.925645 4.29335 0
M  V30 701 H 78.5461 0.743207 4.18756 0
M  V30 702 N 76.8612 -1.46375 0.584142 0
M  V30 703 C 77.7932 -2.28443 -0.186119 0
M  V30 704 C 78.8062 -1.38596 -0.854115 0
M  V30 705 O 79.9952 -1.63183 -0.723438 0
M  V30 706 C 77.0952 -3.13671 -1.28311 0
M  V30 707 C 76.2682 -4.31652 -0.706758 0
M  V30 708 C 75.3272 -4.98267 -1.69163 0
M  V30 709 O 74.3532 -5.55815 -1.22712 0
M  V30 710 N 75.5552 -4.95408 -3.02575 0
M  V30 711 H 78.3202 -2.9519 0.517986 0
M  V30 712 H 75.8812 -1.56303 0.42201 0
M  V30 713 H 77.8732 -3.55101 -1.94128 0
M  V30 714 H 76.4432 -2.48989 -1.89005 0
M  V30 715 H 75.6632 -3.93989 0.128908 0
M  V30 716 H 76.9512 -5.07906 -0.301506 0
M  V30 717 H 76.3492 -4.49902 -3.42936 0
M  V30 718 H 74.9062 -5.40774 -3.63877 0
M  V30 719 N 78.3393 -0.321999 -1.54275 0
M  V30 720 C 79.5883 0.281931 -1.9972 0
M  V30 721 C 79.9013 1.53369 -1.21397 0
M  V30 722 O 81.1073 2.21352 -1.57211 0
M  V30 723 C 79.5633 0.5529 -3.55628 0
M  V30 724 C 79.1713 -0.681721 -4.42783 0
M  V30 725 C 80.9153 1.11687 -4.09544 0
M  V30 726 C 78.8223 -0.382742 -5.9016 0
M  V30 727 H 77.7523 0.109124 -0.746062 0
M  V30 728 H 80.4033 -0.43398 -1.78294 0
M  V30 729 H 78.7853 1.32896 -3.73035 0
M  V30 730 H 79.9593 -1.45723 -4.37151 0
M  V30 731 H 78.2743 -1.1658 -3.99748 0
M  V30 732 H 80.8713 1.35515 -5.17242 0
M  V30 733 H 81.2143 2.06575 -3.61431 0
M  V30 734 H 81.7473 0.402032 -3.95763 0
M  V30 735 H 78.4863 -1.30076 -6.42464 0
M  V30 736 H 78.0063 0.355094 -5.98748 0
M  V30 737 H 79.6853 0.00800157 -6.47 0
M  V30 738 N 79.8174 1.5752 -0.0501392 0
M  V30 739 C 80.7674 2.07981 0.934231 0
M  V30 740 C 81.7514 0.984745 1.27246 0
M  V30 741 O 82.9434 1.24809 1.25506 0
M  V30 742 C 80.0724 2.62751 2.20945 0
M  V30 743 C 79.1584 3.79225 1.89865 0
M  V30 744 N 79.5494 4.89036 1.29142 0
M  V30 745 C 77.8474 3.88111 2.19741 0
M  V30 746 C 78.5484 5.70084 1.15669 0
M  V30 747 N 77.5244 5.17659 1.65923 0
M  V30 748 H 81.3264 2.90277 0.460053 0
M  V30 749 H 78.8404 1.61665 0.15434 0
M  V30 750 H 80.8374 2.97205 2.9236 0
M  V30 751 H 79.4974 1.81894 2.6897 0
M  V30 752 H 80.5084 5.08854 0.963756 0
M  V30 753 H 77.1854 3.18194 2.70293 0
M  V30 754 H 78.5754 6.68395 0.685356 0
M  V30 755 N 81.2955 -0.223234 1.56011 0
M  V30 756 C 82.5415 -0.944891 1.8012 0
M  V30 757 C 82.8965 -1.82039 0.622862 0
M  V30 758 O 82.1895 -1.8773 -0.383143 0
M  V30 759 C 82.3835 -1.81948 3.0762 0
M  V30 760 C 82.2125 -1.03014 4.37742 0
M  V30 761 C 80.9825 -0.72574 5.00061 0
M  V30 762 C 83.1805 -0.396256 5.12771 0
M  V30 763 N 81.1625 0.0851816 6.13841 0
M  V30 764 C 82.5335 0.278137 6.19376 0
M  V30 765 C 84.5885 -0.309117 4.9694 0
M  V30 766 C 83.2915 1.03133 7.11868 0
M  V30 767 C 85.3175 0.430607 5.8983 0
M  V30 768 C 84.6795 1.09355 6.9586 0
M  V30 769 H 80.7785 -0.326081 0.710771 0
M  V30 770 H 83.3625 -0.215914 1.93499 0
M  V30 771 H 81.5335 -2.52029 2.95527 0
M  V30 772 H 83.2655 -2.47848 3.19927 0
M  V30 773 H 80.0205 -1.04335 4.61964 0
M  V30 774 H 80.4445 0.479428 6.753 0
M  V30 775 H 85.0865 -0.807313 4.15021 0
M  V30 776 H 82.8045 1.54105 7.9327 0
M  V30 777 H 86.3905 0.499012 5.79656 0
M  V30 778 H 85.2705 1.65679 7.66499 0
M  V30 779 N 82.7736 -1.49793 -0.48987 0
M  V30 780 C 83.7036 -1.70201 -1.59856 0
M  V30 781 C 84.6846 -0.55076 -1.60937 0
M  V30 782 O 85.8696 -0.787841 -1.77501 0
M  V30 783 C 82.9996 -1.77882 -2.98287 0
M  V30 784 C 81.9536 -2.92907 -3.12073 0
M  V30 785 C 81.2796 -2.85712 -4.51965 0
M  V30 786 C 82.5796 -4.3369 -2.91051 0
M  V30 787 H 84.2736 -2.63025 -1.43032 0
M  V30 788 H 81.8196 -1.26574 -0.686664 0
M  V30 789 H 83.7726 -1.90744 -3.75759 0
M  V30 790 H 82.4966 -0.816653 -3.16225 0
M  V30 791 H 81.1556 -2.79665 -2.37029 0
M  V30 792 H 80.8036 -1.8738 -4.66795 0
M  V30 793 H 80.5036 -3.62921 -4.62128 0
M  V30 794 H 82.0276 -3.00598 -5.31482 0
M  V30 795 H 83.4416 -4.47555 -3.58284 0
M  V30 796 H 81.8386 -5.12205 -3.12675 0
M  V30 797 H 82.9086 -4.47362 -1.87071 0
M  V30 798 N 84.2517 0.741722 -1.39055 0
M  V30 799 C 85.5287 1.49252 -1.26425 0
M  V30 800 C 85.9087 2.10705 0.129144 0
M  V30 801 O 85.2567 1.98045 1.13976 0
M  V30 802 C 85.4667 2.54934 -2.38347 0
M  V30 803 C 86.8147 3.21506 -2.77343 0
M  V30 804 O 87.8387 2.65245 -2.37747 0
M  V30 805 O 86.6977 4.23294 -3.45665 0
M  V30 806 H 83.7917 0.662451 -0.495064 0
M  V30 807 H 86.3377 0.776121 -1.50912 0
M  V30 808 H 85.1097 2.07857 -3.31529 0
M  V30 809 H 84.7327 3.34141 -2.15489 0
M  V30 810 N 85.7298 1.2412 0.971189 0
M  V30 811 C 86.9778 1.07668 1.71032 0
M  V30 812 C 87.2988 -0.385797 1.91146 0
M  V30 813 O 86.5688 -1.27569 1.4867 0
M  V30 814 H 85.1488 0.395429 0.633755 0
M  V30 815 H 87.8108 1.55984 1.16855 0
M  V30 816 H 86.9068 1.57195 2.69622 0
M  V30 817 N 87.2079 -1.17134 1.05439 0
M  V30 818 C 88.4549 -1.87456 0.765942 0
M  V30 819 C 88.7829 -1.81189 -0.707153 0
M  V30 820 O 88.0379 -1.21633 -1.5331 0
M  V30 821 C 88.3369 -3.36833 1.19491 0
M  V30 822 C 88.0029 -3.63301 2.67063 0
M  V30 823 C 86.6649 -3.70234 3.07376 0
M  V30 824 C 89.0169 -3.74575 3.62413 0
M  V30 825 C 86.3449 -3.85933 4.41896 0
M  V30 826 C 88.6969 -3.91793 4.9667 0
M  V30 827 C 87.3609 -3.96966 5.36633 0
M  V30 828 H 86.6309 -0.685948 0.280278 0
M  V30 829 H 89.2779 -1.38556 1.32192 0
M  V30 830 H 87.5829 -3.87807 0.557969 0
M  V30 831 H 89.2799 -3.89611 0.948893 0
M  V30 832 H 85.8699 -3.58532 2.34846 0
M  V30 833 H 90.0539 -3.68537 3.32406 0
M  V30 834 H 85.3099 -3.88187 4.72357 0
M  V30 835 H 89.4839 -3.99458 5.70444 0
M  V30 836 H 87.1109 -4.08883 6.40874 0
M  V30 837 N 88.686 -0.835752 -1.33615 0
M  V30 838 C 89.935 -0.426289 -1.97144 0
M  V30 839 C 90.248 1.01912 -1.66953 0
M  V30 840 O 91.454 1.53311 -2.24072 0
M  V30 841 C 89.91 -0.711321 -3.52801 0
M  V30 842 C 89.518 -2.1712 -3.91871 0
M  V30 843 C 91.262 -0.368654 -4.22896 0
M  V30 844 C 89.169 -2.40044 -5.40493 0
M  V30 845 H 88.099 -0.15567 -0.737755 0
M  V30 846 H 90.75 -1.0239 -1.52278 0
M  V30 847 H 89.132 -0.0433766 -3.95976 0
M  V30 848 H 90.306 -2.87936 -3.59763 0
M  V30 849 H 88.621 -2.47654 -3.34749 0
M  V30 850 H 91.218 -0.517601 -5.32189 0
M  V30 851 H 91.561 0.688078 -4.10574 0
M  V30 852 H 92.094 -0.991702 -3.8524 0
M  V30 853 H 88.833 -3.44271 -5.57815 0
M  V30 854 H 88.353 -1.73785 -5.74072 0
M  V30 855 H 90.032 -2.23042 -6.0734 0
M  V30 856 N 90.1641 1.46063 -0.591896 0
M  V30 857 C 91.0941 2.33172 0.123673 0
M  V30 858 C 92.0751 1.45897 0.87453 0
M  V30 859 O 93.2601 1.74698 0.848181 0
M  V30 860 C 90.3901 3.28336 1.13194 0
M  V30 861 C 89.3441 4.25124 0.495324 0
M  V30 862 C 88.6701 5.09863 1.61071 0
M  V30 863 C 89.9701 5.19143 -0.573425 0
M  V30 864 H 91.6641 2.93252 -0.603646 0
M  V30 865 H 89.2101 1.41014 -0.291741 0
M  V30 866 H 91.1631 3.88137 1.64097 0
M  V30 867 H 89.8871 2.66383 1.88965 0
M  V30 868 H 88.5461 3.66599 0.00729452 0
M  V30 869 H 88.1941 4.44288 2.35832 0
M  V30 870 H 87.8941 5.75417 1.19035 0
M  V30 871 H 89.4181 5.72529 2.12233 0
M  V30 872 H 90.8321 5.73106 -0.1491 0
M  V30 873 H 89.2291 5.93089 -0.914636 0
M  V30 874 H 90.2991 4.62519 -1.45617 0
M  V30 875 N 91.6422 0.330177 1.54103 0
M  V30 876 C 92.8882 -0.270806 2.00984 0
M  V30 877 C 93.2212 -1.51265 1.21789 0
M  V30 878 O 92.4962 -1.92142 0.301927 0
M  V30 879 C 92.7792 -0.598339 3.55094 0
M  V30 880 C 92.6322 0.654674 4.4501 0
M  V30 881 C 93.9512 -1.41334 4.16789 0
M  V30 882 H 91.0702 -0.0969531 0.730595 0
M  V30 883 H 93.7122 0.448066 1.84641 0
M  V30 884 H 91.8622 -1.21078 3.69151 0
M  V30 885 H 93.5342 1.29285 4.42813 0
M  V30 886 H 91.7772 1.28224 4.14416 0
M  V30 887 H 92.4482 0.380944 5.50684 0
M  V30 888 H 94.9242 -0.895597 4.06347 0
M  V30 889 H 93.8002 -1.61127 5.24718 0
M  V30 890 H 94.0612 -2.41146 3.70541 0
M  V30 891 N 93.1203 -1.57491 0.0584922 0
M  V30 892 C 94.3693 -1.92155 -0.613146 0
M  V30 893 C 94.6823 -0.939334 -1.71569 0
M  V30 894 O 95.8883 -1.17829 -2.44599 0
M  V30 895 C 94.3443 -3.41303 -1.14195 0
M  V30 896 C 93.9523 -4.47944 -0.0711265 0
M  V30 897 C 95.6963 -3.84988 -1.78841 0
M  V30 898 C 93.6033 -5.88212 -0.613225 0
M  V30 899 H 92.5333 -0.717162 -0.232796 0
M  V30 900 H 95.1843 -1.83049 0.12857 0
M  V30 901 H 93.5663 -3.45437 -1.93621 0
M  V30 902 H 94.7403 -4.55408 0.702836 0
M  V30 903 H 93.0553 -4.13644 0.478313 0
M  V30 904 H 95.6523 -4.87159 -2.20408 0
M  V30 905 H 95.9953 -3.21632 -2.64308 0
M  V30 906 H 96.5283 -3.83401 -1.06059 0
M  V30 907 H 93.2673 -6.55183 0.203978 0
M  V30 908 H 92.7873 -5.84294 -1.35501 0
M  V30 909 H 94.4663 -6.37687 -1.09383 0
M  V30 910 N 94.5984 0.214957 -1.56127 0
M  V30 911 C 95.8474 0.936451 -1.78643 0
M  V30 912 C 96.1604 1.85237 -0.628229 0
M  V30 913 O 97.3664 2.613 -0.737186 0
M  V30 914 C 95.8224 1.7154 -3.16389 0
M  V30 915 C 95.4304 0.845299 -4.39953 0
M  V30 916 C 97.1744 2.42772 -3.48227 0
M  V30 917 C 95.0814 1.62198 -5.68723 0
M  V30 918 H 94.0114 0.353401 -0.666051 0
M  V30 919 H 96.6624 0.190169 -1.82512 0
M  V30 920 H 95.0444 2.50484 -3.06715 0
M  V30 921 H 96.2184 0.0959353 -4.607 0
M  V30 922 H 94.5334 0.244789 -4.1568 0
M  V30 923 H 97.1304 3.01394 -4.41663 0
M  V30 924 H 97.4734 3.15984 -2.71035 0
M  V30 925 H 98.0064 1.70813 -3.5926 0
M  V30 926 H 94.7454 0.933011 -6.48826 0
M  V30 927 H 94.2654 2.34579 -5.52026 0
M  V30 928 H 95.9444 2.18095 -6.09133 0
M  V30 929 N 96.0765 1.50051 0.48192 0
M  V30 930 C 97.0395 1.67584 1.5636 0
M  V30 931 C 98.0395 0.546894 1.51214 0
M  V30 932 O 99.2295 0.813725 1.54026 0
M  V30 933 C 96.3615 1.691 2.96003 0
M  V30 934 H 97.5545 2.64078 1.42136 0
M  V30 935 H 95.1075 1.39369 0.707533 0
M  V30 936 H 95.8425 0.742589 3.15684 0
M  V30 937 H 95.6275 2.51105 3.01146 0
M  V30 938 H 97.1175 1.84656 3.74556 0
M  V30 939 N 97.5546 -0.734337 1.39446 0
M  V30 940 C 98.5176 -1.83004 1.37994 0
M  V30 941 C 99.5176 -1.58397 0.276938 0
M  V30 942 O 100.708 -1.65785 0.534875 0
M  V30 943 C 97.8396 -3.20802 1.1532 0
M  V30 944 H 99.0326 -1.85694 2.35494 0
M  V30 945 H 96.5856 -0.938059 1.25021 0
M  V30 946 H 97.3206 -3.23772 0.185036 0
M  V30 947 H 97.1056 -3.4006 1.95197 0
M  V30 948 H 98.5956 -4.00862 1.17046 0
M  V30 949 N 99.0327 -1.24633 -0.964593 0
M  V30 950 C 100.282 -1.08188 -1.7023 0
M  V30 951 C 100.595 0.37873 -1.91898 0
M  V30 952 O 101.801 0.663427 -2.6327 0
M  V30 953 C 100.257 -1.88773 -3.06419 0
M  V30 954 C 99.8647 -3.39263 -2.92582 0
M  V30 955 C 101.609 -1.80867 -3.84041 0
M  V30 956 C 99.5157 -4.1218 -4.24101 0
M  V30 957 H 98.4457 -0.401245 -0.638372 0
M  V30 958 H 101.097 -1.48742 -1.07462 0
M  V30 959 H 99.4787 -1.41035 -3.70034 0
M  V30 960 H 100.653 -3.94603 -2.37961 0
M  V30 961 H 98.9677 -3.48154 -2.28424 0
M  V30 962 H 101.565 -2.32646 -4.81435 0
M  V30 963 H 101.908 -0.774543 -4.09031 0
M  V30 964 H 102.441 -2.26301 -3.27159 0
M  V30 965 H 99.1797 -5.15965 -4.04303 0
M  V30 966 H 98.6997 -3.61626 -4.78526 0
M  V30 967 H 100.379 -4.19349 -4.92702 0
M  V30 968 N 100.511 1.16574 -1.06058 0
M  V30 969 C 101.739 1.90952 -0.796552 0
M  V30 970 C 102.154 1.77302 0.648808 0
M  V30 971 O 101.511 1.11605 1.44397 0
M  V30 972 C 101.562 3.41736 -1.17894 0
M  V30 973 O 101.283 3.54975 -2.56758 0
M  V30 974 C 102.784 4.33169 -0.942308 0
M  V30 975 H 100.004 0.605594 -0.288959 0
M  V30 976 H 102.548 1.47777 -1.41358 0
M  V30 977 H 100.703 3.82623 -0.606491 0
M  V30 978 H 101.117 4.4846 -2.72 0
M  V30 979 H 102.591 5.37439 -1.25952 0
M  V30 980 H 103.068 4.3903 0.122078 0
M  V30 981 H 103.674 3.98007 -1.49902 0
M  V30 982 N 101.989 0.842826 1.3317 0
M  V30 983 C 103.238 0.436738 1.96915 0
M  V30 984 C 103.551 -1.01025 1.67491 0
M  V30 985 O 104.757 -1.5212 2.24881 0
M  V30 986 C 103.213 0.730021 3.52418 0
M  V30 987 C 102.821 2.19195 3.90714 0
M  V30 988 C 104.565 0.391076 4.22695 0
M  V30 989 C 102.472 2.42907 5.39212 0
M  V30 990 H 101.402 0.15958 0.736919 0
M  V30 991 H 104.053 1.03196 1.51733 0
M  V30 992 H 102.435 0.0643755 3.95948 0
M  V30 993 H 103.609 2.8984 3.58231 0
M  V30 994 H 101.924 2.49425 3.33431 0
M  V30 995 H 104.521 0.545817 5.31907 0
M  V30 996 H 104.864 -0.666294 4.10933 0
M  V30 997 H 105.397 1.01212 3.84709 0
M  V30 998 H 102.136 3.47224 5.55982 0
M  V30 999 H 101.656 1.76827 5.73142 0
M  V30 1000 H 103.335 2.2626 6.06148 0
M  V30 1001 N 103.467 -1.45747 0.599634 0
M  V30 1002 C 104.714 -2.02292 0.0917284 0
M  V30 1003 C 105.042 -1.46906 -1.27472 0
M  V30 1004 O 104.297 -0.630652 -1.8526 0
M  V30 1005 C 104.596 -3.57399 -0.00602758 0
M  V30 1006 C 104.262 -4.31902 1.29503 0
M  V30 1007 C 102.924 -4.51974 1.65144 0
M  V30 1008 C 105.276 -4.74551 2.15525 0
M  V30 1009 C 102.604 -5.11949 2.86574 0
M  V30 1010 C 104.956 -5.35868 3.36196 0
M  V30 1011 C 103.62 -5.54165 3.72099 0
M  V30 1012 H 102.89 -0.740239 0.0335658 0
M  V30 1013 H 105.537 -1.7491 0.779661 0
M  V30 1014 H 103.842 -3.84014 -0.777183 0
M  V30 1015 H 105.539 -3.98846 -0.415038 0
M  V30 1016 H 102.129 -4.16588 1.00761 0
M  V30 1017 H 106.313 -4.58784 1.8929 0
M  V30 1018 H 101.569 -5.24305 3.14507 0
M  V30 1019 H 105.743 -5.6787 4.03109 0
M  V30 1020 H 103.37 -6.00406 4.6628 0
M  V30 1021 N 104.945 -0.338344 -1.53925 0
M  V30 1022 C 106.191 0.260143 -2.01125 0
M  V30 1023 C 106.524 1.50617 -1.22589 0
M  V30 1024 O 105.799 1.91979 -0.312113 0
M  V30 1025 C 106.082 0.579499 -3.55407 0
M  V30 1026 C 105.935 -0.678264 -4.44657 0
M  V30 1027 C 107.254 1.39122 -4.17532 0
M  V30 1028 H 104.373 0.0930772 -0.731099 0
M  V30 1029 H 107.015 -0.457852 -1.84401 0
M  V30 1030 H 105.165 1.19118 -3.69788 0
M  V30 1031 H 106.837 -1.31631 -4.42121 0
M  V30 1032 H 105.08 -1.3042 -4.13731 0
M  V30 1033 H 105.751 -0.410143 -5.50474 0
M  V30 1034 H 108.227 0.874035 -4.06817 0
M  V30 1035 H 107.103 1.58342 -5.25565 0
M  V30 1036 H 107.364 2.39178 -3.71815 0
M  V30 1037 N 106.423 1.57458 -0.0668435 0
M  V30 1038 C 107.651 1.97624 0.612565 0
M  V30 1039 C 108.066 0.94502 1.63447 0
M  V30 1040 O 107.423 -0.0689276 1.8237 0
M  V30 1041 C 107.474 3.37869 1.28555 0
M  V30 1042 O 107.195 4.3704 0.304557 0
M  V30 1043 C 108.696 3.92882 2.05325 0
M  V30 1044 H 105.916 0.650045 0.166381 0
M  V30 1045 H 108.46 2.04035 -0.137782 0
M  V30 1046 H 106.615 3.3256 1.98702 0
M  V30 1047 H 107.029 5.18565 0.786779 0
M  V30 1048 H 108.503 4.93247 2.47812 0
M  V30 1049 H 108.98 3.29156 2.9078 0
M  V30 1050 H 109.586 4.01577 1.40056 0
M  V30 1051 N 107.901 -0.206675 1.56239 0
M  V30 1052 C 108.831 -1.25909 1.96645 0
M  V30 1053 C 109.812 -1.48097 0.836734 0
M  V30 1054 O 110.997 -1.6003 1.10019 0
M  V30 1055 C 108.127 -2.6058 2.29599 0
M  V30 1056 C 107.081 -2.53024 3.452 0
M  V30 1057 C 106.407 -3.91861 3.63798 0
M  V30 1058 C 107.707 -2.06524 4.79734 0
M  V30 1059 H 109.401 -0.923369 2.84806 0
M  V30 1060 H 106.947 -0.442735 1.37025 0
M  V30 1061 H 108.9 -3.34375 2.56459 0
M  V30 1062 H 107.624 -2.95869 1.38307 0
M  V30 1063 H 106.283 -1.81684 3.18412 0
M  V30 1064 H 105.931 -4.24483 2.69857 0
M  V30 1065 H 105.631 -3.87683 4.4156 0
M  V30 1066 H 107.155 -4.67296 3.93022 0
M  V30 1067 H 108.569 -2.70072 5.05702 0
M  V30 1068 H 106.966 -2.13374 5.60885 0
M  V30 1069 H 108.036 -1.01802 4.74093 0
M  V30 1070 N 109.379 -1.50304 -0.473955 0
M  V30 1071 C 110.309 -1.71886 -1.58042 0
M  V30 1072 C 111.29 -0.567799 -1.60344 0
M  V30 1073 O 112.475 -0.806623 -1.76656 0
M  V30 1074 C 109.605 -1.81036 -2.96384 0
M  V30 1075 C 108.559 -2.962 -3.08949 0
M  V30 1076 C 107.885 -2.9049 -4.48909 0
M  V30 1077 C 109.185 -4.36752 -2.86434 0
M  V30 1078 H 110.879 -2.64527 -1.40234 0
M  V30 1079 H 108.425 -1.27295 -0.673201 0
M  V30 1080 H 110.378 -1.94719 -3.73714 0
M  V30 1081 H 109.102 -0.850147 -3.15341 0
M  V30 1082 H 107.761 -2.82164 -2.3405 0
M  V30 1083 H 107.409 -1.92321 -4.64781 0
M  V30 1084 H 107.109 -3.67802 -4.58253 0
M  V30 1085 H 108.633 -3.06218 -5.28264 0
M  V30 1086 H 110.047 -4.5133 -3.53517 0
M  V30 1087 H 108.444 -5.15493 -3.07225 0
M  V30 1088 H 109.514 -4.49321 -1.82316 0
M  V30 1089 N 110.857 0.726932 -1.39834 0
M  V30 1090 C 112.106 1.48214 -1.36805 0
M  V30 1091 C 112.419 1.95576 0.0305291 0
M  V30 1092 O 113.625 2.7088 0.183417 0
M  V30 1093 C 112.081 2.67854 -2.40379 0
M  V30 1094 C 111.689 2.27408 -3.85992 0
M  V30 1095 C 113.433 3.45641 -2.46439 0
M  V30 1096 C 111.34 3.43819 -4.81189 0
M  V30 1097 H 110.27 0.556606 -0.508631 0
M  V30 1098 H 112.921 0.792216 -1.65518 0
M  V30 1099 H 111.303 3.3896 -2.04749 0
M  V30 1100 H 112.477 1.63795 -4.30706 0
M  V30 1101 H 110.792 1.62692 -3.83302 0
M  V30 1102 H 113.389 4.32244 -3.14753 0
M  V30 1103 H 113.732 3.88669 -1.49139 0
M  V30 1104 H 114.265 2.8157 -2.81004 0
M  V30 1105 H 111.004 3.05834 -5.79781 0
M  V30 1106 H 110.524 4.06385 -4.41148 0
M  V30 1107 H 112.203 4.10043 -5.00474 0
M  V30 1108 N 112.336 1.25143 0.95797 0
M  V30 1109 C 113.266 1.07711 2.07173 0
M  V30 1110 C 114.247 -0.0128462 1.70095 0
M  V30 1111 O 115.432 0.156061 1.93572 0
M  V30 1112 C 112.562 0.691503 3.40346 0
M  V30 1113 C 111.516 1.73132 3.9142 0
M  V30 1114 C 110.842 1.20049 5.21049 0
M  V30 1115 C 112.142 3.1294 4.1817 0
M  V30 1116 H 113.836 2.00873 2.22014 0
M  V30 1117 H 111.382 0.967191 1.06684 0
M  V30 1118 H 113.335 0.556505 4.17709 0
M  V30 1119 H 112.059 -0.275819 3.25433 0
M  V30 1120 H 110.718 1.8547 3.16222 0
M  V30 1121 H 110.366 0.223499 5.02503 0
M  V30 1122 H 110.066 1.89545 5.56189 0
M  V30 1123 H 111.59 1.07782 6.01012 0
M  V30 1124 H 113.004 3.03775 4.86203 0
M  V30 1125 H 111.401 3.79875 4.64559 0
M  V30 1126 H 112.471 3.6025 3.24573 0
M  V30 1127 N 113.814 -1.1601 1.06675 0
M  V30 1128 C 115.044 -1.90251 0.805497 0
M  V30 1129 C 115.452 -1.77891 -0.64431 0
M  V30 1130 O 114.795 -1.12383 -1.45313 0
M  V30 1131 C 114.857 -3.41419 1.12576 0
M  V30 1132 C 114.521 -3.77564 2.57477 0
M  V30 1133 C 115.518 -3.79161 3.55715 0
M  V30 1134 C 113.203 -4.08079 2.92877 0
M  V30 1135 C 115.197 -4.10767 4.8739 0
M  V30 1136 C 112.884 -4.39351 4.24751 0
M  V30 1137 C 113.882 -4.40675 5.21818 0
M  V30 1138 O 113.57 -4.71202 6.51325 0
M  V30 1139 H 113.302 -0.610018 0.291297 0
M  V30 1140 H 115.856 -1.47958 1.4247 0
M  V30 1141 H 114.086 -3.84079 0.449503 0
M  V30 1142 H 115.775 -3.9694 0.84814 0
M  V30 1143 H 116.541 -3.55693 3.29708 0
M  V30 1144 H 112.42 -4.06211 2.17976 0
M  V30 1145 H 115.964 -4.11715 5.63148 0
M  V30 1146 H 111.861 -4.62285 4.50514 0
M  V30 1147 H 112.629 -4.88996 6.56373 0
M  V30 1148 N 115.292 -0.849877 -1.32721 0
M  V30 1149 C 116.255 -0.296122 -2.27279 0
M  V30 1150 C 117.255 0.541458 -1.5141 0
M  V30 1151 O 118.445 0.353658 -1.70572 0
M  V30 1152 C 115.577 0.581579 -3.35902 0
M  V30 1153 H 116.77 -1.13064 -2.77771 0
M  V30 1154 H 114.323 -0.62383 -1.43311 0
M  V30 1155 H 115.058 1.43809 -2.9067 0
M  V30 1156 H 114.843 -0.0178814 -3.92096 0
M  V30 1157 H 116.333 0.961951 -4.0637 0
M  V30 1158 N 116.77 1.45427 -0.607355 0
M  V30 1159 C 118.016 2.0254 -0.102607 0
M  V30 1160 C 118.349 1.47478 1.26348 0
M  V30 1161 O 117.624 0.64939 1.83339 0
M  V30 1162 C 117.907 3.60044 -0.0634347 0
M  V30 1163 C 117.76 4.2544 -1.46017 0
M  V30 1164 C 119.079 4.35646 0.624514 0
M  V30 1165 H 116.198 0.73598 -0.0387607 0
M  V30 1166 H 118.84 1.73284 -0.779282 0
M  V30 1167 H 116.99 3.85101 0.512808 0
M  V30 1168 H 118.662 4.11569 -2.08347 0
M  V30 1169 H 116.905 3.83849 -2.02094 0
M  V30 1170 H 117.576 5.34342 -1.385 0
M  V30 1171 H 120.052 4.15882 0.134723 0
M  V30 1172 H 118.928 5.45376 0.621028 0
M  V30 1173 H 119.189 4.08501 1.69055 0
M  V30 1174 N 118.248 0.346503 1.53744 0
M  V30 1175 C 119.494 -0.242135 2.01954 0
M  V30 1176 C 119.849 -1.47962 1.22984 0
M  V30 1177 O 119.142 -1.89077 0.309924 0
M  V30 1178 C 119.336 -0.605809 3.52228 0
M  V30 1179 C 119.165 0.594882 4.45748 0
M  V30 1180 C 117.935 1.1011 4.93157 0
M  V30 1181 C 120.133 1.45425 4.93311 0
M  V30 1182 N 118.115 2.26381 5.70636 0
M  V30 1183 C 119.486 2.46383 5.68942 0
M  V30 1184 C 121.541 1.47935 4.75415 0
M  V30 1185 C 120.244 3.49684 6.28581 0
M  V30 1186 C 122.27 2.50119 5.35905 0
M  V30 1187 C 121.632 3.49803 6.11406 0
M  V30 1188 H 117.731 -0.0518296 0.780281 0
M  V30 1189 H 120.315 0.486736 1.88518 0
M  V30 1190 H 118.486 -1.30378 3.65864 0
M  V30 1191 H 120.218 -1.17789 3.87179 0
M  V30 1192 H 116.973 0.668721 4.68855 0
M  V30 1193 H 117.397 2.85094 6.14044 0
M  V30 1194 H 122.039 0.722274 4.16585 0
M  V30 1195 H 119.757 4.26285 6.86518 0
M  V30 1196 H 123.343 2.52892 5.23963 0
M  V30 1197 H 122.223 4.27576 6.5738 0
M  V30 1198 N 119.726 -1.57421 0.075193 0
M  V30 1199 C 121.142 -1.57099 -0.281444 0
M  V30 1200 C 121.342 -1.08486 -1.69803 0
M  V30 1201 O 120.398 -0.752279 -2.41033 0
M  V30 1202 C 121.711 -3.00571 -0.0880041 0
M  V30 1203 C 123.259 -3.12605 -0.157281 0
M  V30 1204 C 123.734 -4.57999 0.0079207 0
M  V30 1205 N 125.225 -4.63176 -0.0475725 0
M  V30 1206 C 125.96 -5.73373 0.0557876 0
M  V30 1207 N 125.456 -6.92473 0.21286 0
M  V30 1208 N 127.249 -5.621 -0.00152098 0
M  V30 1209 H 119.4 -1.87335 1.00098 0
M  V30 1210 H 121.663 -0.86377 0.390646 0
M  V30 1211 H 121.369 -3.40262 0.889629 0
M  V30 1212 H 121.243 -3.67754 -0.838875 0
M  V30 1213 H 123.63 -2.72798 -1.1254 0
M  V30 1214 H 123.711 -2.48053 0.62475 0
M  V30 1215 H 123.355 -4.98496 0.972824 0
M  V30 1216 H 123.285 -5.20586 -0.793556 0
M  V30 1217 H 125.776 -3.7753 -0.167244 0
M  V30 1218 H 126.089 -7.72279 0.283781 0
M  V30 1219 H 124.434 -6.94556 0.248267 0
M  V30 1220 H 127.625 -4.67938 -0.122958 0
M  V30 1221 H 127.798 -6.47948 0.0824844 0
M  V30 1222 N 121.204 0.198386 -1.56346 0
M  V30 1223 C 122.451 0.919286 -1.80431 0
M  V30 1224 C 122.779 1.83393 -0.647866 0
M  V30 1225 O 122.034 1.92236 0.366556 0
M  V30 1226 C 122.333 1.77031 -3.10475 0
M  V30 1227 C 121.999 1.00693 -4.39513 0
M  V30 1228 C 120.661 0.796145 -4.74568 0
M  V30 1229 C 123.013 0.469559 -5.19081 0
M  V30 1230 C 120.341 0.0364588 -5.86689 0
M  V30 1231 C 122.693 -0.2769 -6.31994 0
M  V30 1232 C 121.357 -0.49873 -6.65634 0
M  V30 1233 H 120.627 0.336391 -0.660244 0
M  V30 1234 H 123.274 0.185872 -1.90596 0
M  V30 1235 H 121.579 2.5723 -2.95533 0
M  V30 1236 H 123.276 2.33065 -3.26315 0
M  V30 1237 H 119.866 1.18122 -4.12001 0
M  V30 1238 H 124.05 0.619816 -4.92414 0
M  V30 1239 H 119.306 -0.145412 -6.11227 0
M  V30 1240 H 123.48 -0.700684 -6.92866 0
M  V30 1241 H 121.107 -1.0893 -7.52355 0
M  V30 1242 N 122.682 1.50554 0.465978 0
M  V30 1243 C 123.632 1.66177 1.56106 0
M  V30 1244 C 124.616 0.516265 1.52393 0
M  V30 1245 O 125.808 0.770906 1.5933 0
M  V30 1246 C 122.937 1.76396 2.94515 0
M  V30 1247 C 122.023 2.9664 3.03093 0
M  V30 1248 N 122.414 4.20245 2.81474 0
M  V30 1249 C 120.712 2.95304 3.34233 0
M  V30 1250 C 121.413 5.01259 2.95151 0
M  V30 1251 N 120.389 4.35318 3.25576 0
M  V30 1252 H 124.191 2.59434 1.38099 0
M  V30 1253 H 121.705 1.47808 0.6728 0
M  V30 1254 H 123.702 1.85694 3.73261 0
M  V30 1255 H 122.362 0.843017 3.13565 0
M  V30 1256 H 123.373 4.4966 2.56956 0
M  V30 1257 H 120.05 2.12729 3.59239 0
M  V30 1258 H 121.44 6.09564 2.82632 0
M  V30 1259 N 124.16 -0.719506 1.40217 0
M  V30 1260 C 125.07 -1.86378 1.42479 0
M  V30 1261 C 126.086 -1.71073 0.317834 0
M  V30 1262 O 127.262 -1.93406 0.561794 0
M  V30 1263 C 124.327 -3.22136 1.28178 0
M  V30 1264 C 123.388 -3.49723 2.48982 0
M  V30 1265 C 122.621 -4.79004 2.35353 0
M  V30 1266 O 122.844 -5.53821 1.36524 0
M  V30 1267 O 121.778 -5.06839 3.2465 0
M  V30 1268 H 125.604 -1.87425 2.38968 0
M  V30 1269 H 123.189 -0.869405 1.21498 0
M  V30 1270 H 125.071 -4.03234 1.22395 0
M  V30 1271 H 123.746 -3.21825 0.347934 0
M  V30 1272 H 122.653 -2.6865 2.60342 0
M  V30 1273 H 123.986 -3.54828 3.41113 0
M  V30 1274 N 125.638 -1.25649 -0.95132 0
M  V30 1275 C 126.585 -1.06323 -2.04851 0
M  V30 1276 C 127.555 0.0286491 -1.66075 0
M  V30 1277 O 128.74 -0.12917 -1.90362 0
M  V30 1278 C 125.88 -0.691529 -3.381 0
M  V30 1279 C 124.993 -1.85861 -3.89974 0
M  V30 1280 C 124.128 -1.43096 -5.11563 0
M  V30 1281 C 123.167 -2.56696 -5.55674 0
M  V30 1282 N 122.304 -2.14684 -6.68472 0
M  V30 1283 H 127.144 -2.00222 -2.20715 0
M  V30 1284 H 124.681 -0.997027 -1.08156 0
M  V30 1285 H 126.639 -0.456963 -4.1469 0
M  V30 1286 H 125.269 0.210474 -3.22113 0
M  V30 1287 H 124.321 -2.20639 -3.09875 0
M  V30 1288 H 125.633 -2.71161 -4.18657 0
M  V30 1289 H 124.787 -1.15624 -5.9558 0
M  V30 1290 H 123.526 -0.548722 -4.84603 0
M  V30 1291 H 122.531 -2.84909 -4.7022 0
M  V30 1292 H 123.756 -3.45503 -5.8464 0
M  V30 1293 H 121.702 -1.28881 -6.43215 0
M  V30 1294 H 121.619 -2.9353 -6.96689 0
M  V30 1295 H 122.887 -1.90397 -7.5589 0
M  V30 1296 N 127.117 1.15442 -1.07289 0
M  V30 1297 C 128.533 1.38201 -0.798288 0
M  V30 1298 C 128.733 1.92429 0.597769 0
M  V30 1299 O 127.789 2.12962 1.3566 0
M  V30 1300 C 129.102 2.35357 -1.87156 0
M  V30 1301 C 130.65 2.49021 -1.89624 0
M  V30 1302 C 131.125 3.49468 -2.96034 0
M  V30 1303 N 132.616 3.57003 -2.95132 0
M  V30 1304 C 133.351 4.34543 -3.74112 0
M  V30 1305 N 132.847 5.15421 -4.6294 0
M  V30 1306 N 134.64 4.29625 -3.62462 0
M  V30 1307 H 126.791 0.78584 -1.97328 0
M  V30 1308 H 129.054 0.408065 -0.855679 0
M  V30 1309 H 128.76 2.02626 -2.87464 0
M  V30 1310 H 128.634 3.35129 -1.73114 0
M  V30 1311 H 131.021 2.81051 -0.899687 0
M  V30 1312 H 131.102 1.4925 -2.07745 0
M  V30 1313 H 130.746 3.18173 -3.95889 0
M  V30 1314 H 130.676 4.48992 -2.75161 0
M  V30 1315 H 133.167 2.99276 -2.30743 0
M  V30 1316 H 133.48 5.7183 -5.19837 0
M  V30 1317 H 131.825 5.14729 -4.66989 0
M  V30 1318 H 135.016 3.65505 -2.92444 0
M  V30 1319 H 135.189 4.89807 -4.24256 0
M  V30 1320 N 128.595 0.856903 1.32268 0
M  V30 1321 C 129.543 0.291987 2.3076 0
M  V30 1322 C 130.537 -0.585857 1.58947 0
M  V30 1323 O 131.743 -0.47341 1.73663 0
M  V30 1324 H 128.118 0.075721 0.748178 0
M  V30 1325 H 130.089 1.13687 2.75895 0
M  V30 1326 C 128.838 -0.502869 3.44044 0
M  V30 1327 H 128.161 0.163328 3.99466 0
M  V30 1328 H 129.601 -0.863691 4.1511 0
M  V30 1329 C 128.06 -1.68898 2.91505 0
M  V30 1330 O 128.59 -2.78811 2.89184 0
M  V30 1331 N 126.796 -1.51679 2.47875 0
M  V30 1332 H 126.343 -0.622666 2.49961 0
M  V30 1333 H 126.301 -2.31184 2.13076 0
M  V30 1334 N 130.073 -1.45103 0.615059 0
M  V30 1335 C 131.02 -2.30586 -0.0993978 0
M  V30 1336 C 131.99 -1.42544 -0.852669 0
M  V30 1337 O 133.175 -1.71465 -0.836917 0
M  V30 1338 C 130.315 -3.27572 -1.08583 0
M  V30 1339 C 129.428 -4.30717 -0.332656 0
M  V30 1340 C 128.563 -5.14807 -1.30947 0
M  V30 1341 C 127.602 -6.09673 -0.544538 0
M  V30 1342 N 126.739 -6.86517 -1.47101 0
M  V30 1343 H 131.579 -2.91144 0.635542 0
M  V30 1344 H 129.116 -1.4346 0.325206 0
M  V30 1345 H 131.074 -3.82276 -1.67095 0
M  V30 1346 H 129.704 -2.68751 -1.78809 0
M  V30 1347 H 128.756 -3.78615 0.368107 0
M  V30 1348 H 130.068 -4.98102 0.263842 0
M  V30 1349 H 129.222 -5.73948 -1.96643 0
M  V30 1350 H 127.961 -4.47458 -1.9399 0
M  V30 1351 H 126.966 -5.49656 0.126003 0
M  V30 1352 H 128.191 -6.79052 0.080947 0
M  V30 1353 H 126.137 -6.21851 -2.08895 0
M  V30 1354 H 126.054 -7.50281 -0.928137 0
M  V30 1355 H 127.322 -7.50194 -2.11731 0
M  V30 1356 N 131.551 -0.354651 -1.53558 0
M  V30 1357 C 132.797 0.238797 -2.01389 0
M  V30 1358 C 133.13 1.49309 -1.2418 0
M  V30 1359 O 132.405 1.91638 -0.332457 0
M  V30 1360 C 132.688 0.541771 -3.56001 0
M  V30 1361 C 132.541 -0.725388 -4.43912 0
M  V30 1362 C 133.86 1.34685 -4.18984 0
M  V30 1363 H 130.979 0.0853177 -0.732045 0
M  V30 1364 H 133.621 -0.477384 -1.83905 0
M  V30 1365 H 131.771 1.15189 -3.71031 0
M  V30 1366 H 133.443 -1.36313 -4.407 0
M  V30 1367 H 131.686 -1.34801 -4.12324 0
M  V30 1368 H 132.357 -0.468505 -5.50008 0
M  V30 1369 H 134.833 0.830837 -4.07721 0
M  V30 1370 H 133.709 1.52759 -5.27215 0
M  V30 1371 H 133.97 2.35221 -3.74331 0
M  V30 1372 N 133.029 1.57378 -0.0835403 0
M  V30 1373 C 134.44 1.81261 0.447358 0
M  V30 1374 C 134.791 0.998331 1.68902 0
M  V30 1375 O 133.916 0.224282 2.15235 0
M  V30 1376 C 134.511 3.28767 0.818386 0
M  V30 1377 C 133.07 3.53455 1.29409 0
M  V30 1378 C 132.217 2.75831 0.285024 0
M  V30 1379 H 135.168 1.5566 -0.309115 0
M  V30 1380 H 135.189 3.41459 1.67887 0
M  V30 1381 H 134.701 3.88006 -0.0855019 0
M  V30 1382 H 132.802 2.99534 2.21608 0
M  V30 1383 H 132.915 4.62128 1.2639 0
M  V30 1384 H 131.279 2.42947 0.764767 0
M  V30 1385 H 132.062 3.37813 -0.611341 0
M  V30 1386 N 134.507 -0.190092 1.56449 0
M  V30 1387 C 135.47 -1.21925 1.9408 0
M  V30 1388 C 136.47 -1.38176 0.822431 0
M  V30 1389 O 137.66 -1.35903 1.08977 0
M  V30 1390 C 134.792 -2.58773 2.21922 0
M  V30 1391 H 135.985 -0.897464 2.86157 0
M  V30 1392 H 133.538 -0.43181 1.50217 0
M  V30 1393 H 134.273 -2.95998 1.32499 0
M  V30 1394 H 134.058 -2.48348 3.03424 0
M  V30 1395 H 135.548 -3.32978 2.52022 0
M  V30 1396 N 135.985 -1.50799 -0.457987 0
M  V30 1397 C 137.401 -1.38515 -0.792819 0
M  V30 1398 C 137.601 -0.451409 -1.96379 0
M  V30 1399 O 136.657 0.10112 -2.52297 0
M  V30 1400 C 137.97 -2.80149 -1.09258 0
M  V30 1401 C 139.518 -2.89156 -1.19825 0
M  V30 1402 C 139.993 -4.31651 -1.53106 0
M  V30 1403 N 141.484 -4.34662 -1.60072 0
M  V30 1404 C 142.219 -5.41928 -1.87354 0
M  V30 1405 N 141.715 -6.59384 -2.12568 0
M  V30 1406 N 143.508 -5.29385 -1.88965 0
M  V30 1407 H 135.659 -2.10073 0.313511 0
M  V30 1408 H 137.922 -0.944803 0.0777862 0
M  V30 1409 H 137.628 -3.50374 -0.305084 0
M  V30 1410 H 137.502 -3.18204 -2.02549 0
M  V30 1411 H 139.889 -2.19141 -1.97639 0
M  V30 1412 H 139.97 -2.54626 -0.244821 0
M  V30 1413 H 139.614 -5.02208 -0.758266 0
M  V30 1414 H 139.544 -4.63678 -2.49621 0
M  V30 1415 H 142.035 -3.49973 -1.42573 0
M  V30 1416 H 142.348 -7.36934 -2.32696 0
M  V30 1417 H 140.693 -6.62535 -2.09933 0
M  V30 1418 H 143.884 -4.36616 -1.68772 0
M  V30 1419 H 144.057 -6.13066 -2.09891 0
M  V30 1420 N 137.463 0.71206 -1.40597 0
M  V30 1421 C 138.71 1.47197 -1.39065 0
M  V30 1422 C 139.038 1.94499 0.00583891 0
M  V30 1423 O 138.293 1.68752 0.99102 0
M  V30 1424 C 138.592 2.71039 -2.32965 0
M  V30 1425 C 138.258 2.42484 -3.80148 0
M  V30 1426 C 136.92 2.34406 -4.20247 0
M  V30 1427 C 139.272 2.18598 -4.73143 0
M  V30 1428 C 136.6 2.00516 -5.51371 0
M  V30 1429 C 138.952 1.8622 -6.0457 0
M  V30 1430 C 137.616 1.76626 -6.43708 0
M  V30 1431 H 136.886 0.538634 -0.508876 0
M  V30 1432 H 139.533 0.815325 -1.73276 0
M  V30 1433 H 137.838 3.41558 -1.91951 0
M  V30 1434 H 139.535 3.29138 -2.29061 0
M  V30 1435 H 136.125 2.49659 -3.4838 0
M  V30 1436 H 140.309 2.23793 -4.42979 0
M  V30 1437 H 135.565 1.91628 -5.80593 0
M  V30 1438 H 139.739 1.66752 -6.76141 0
M  V30 1439 H 137.366 1.50133 -7.45228 0
M  V30 1440 N 138.941 1.26152 0.944643 0
M  V30 1441 C 140.169 1.14259 1.72489 0
M  V30 1442 C 140.584 -0.302555 1.8636 0
M  V30 1443 O 139.941 -1.20741 1.36849 0
M  V30 1444 C 139.992 1.80266 3.13347 0
M  V30 1445 O 139.713 3.19133 3.00143 0
M  V30 1446 C 141.214 1.74283 4.07603 0
M  V30 1447 H 138.434 0.398051 0.540181 0
M  V30 1448 H 140.978 1.66706 1.18446 0
M  V30 1449 H 139.133 1.31766 3.64303 0
M  V30 1450 H 139.547 3.51744 3.89071 0
M  V30 1451 H 141.021 2.25111 5.04013 0
M  V30 1452 H 141.498 0.708631 4.33446 0
M  V30 1453 H 142.104 2.22319 3.62567 0
M  V30 1454 N 140.419 -1.14872 1.07899 0
M  V30 1455 C 141.369 -2.17809 0.674027 0
M  V30 1456 C 142.353 -1.58008 -0.303699 0
M  V30 1457 O 143.545 -1.76616 -0.11654 0
M  V30 1458 C 140.674 -3.43208 0.0793318 0
M  V30 1459 C 139.76 -4.10051 1.08253 0
M  V30 1460 N 140.151 -4.52296 2.2641 0
M  V30 1461 C 138.449 -4.36469 0.917124 0
M  V30 1462 C 139.15 -5.04199 2.901 0
M  V30 1463 N 138.126 -4.98088 2.17736 0
M  V30 1464 H 141.928 -2.48207 1.57386 0
M  V30 1465 H 139.442 -1.315 0.952976 0
M  V30 1466 H 141.439 -4.16272 -0.228719 0
M  V30 1467 H 140.099 -3.14291 -0.815551 0
M  V30 1468 H 141.11 -4.45504 2.64096 0
M  V30 1469 H 137.787 -4.17432 0.0756078 0
M  V30 1470 H 139.177 -5.46802 3.90458 0
M  V30 1471 N 141.898 -0.863906 -1.31812 0
M  V30 1472 C 142.846 -0.30422 -2.30602 0
M  V30 1473 C 143.84 0.577419 -1.59255 0
M  V30 1474 O 145.046 0.464194 -1.73912 0
M  V30 1475 H 141.421 -0.0796877 -0.747766 0
M  V30 1476 H 143.392 -1.15148 -2.75288 0
M  V30 1477 C 142.141 0.484617 -3.44306 0
M  V30 1478 H 141.464 -0.18451 -3.99374 0
M  V30 1479 H 142.904 0.841664 -4.15562 0
M  V30 1480 C 141.363 1.6735 -2.92396 0
M  V30 1481 O 141.893 2.77273 -2.90659 0
M  V30 1482 N 140.099 1.50362 -2.48676 0
M  V30 1483 H 139.646 0.609402 -2.50288 0
M  V30 1484 H 139.604 2.30051 -2.14299 0
M  V30 1485 N 143.376 1.44774 -0.622745 0
M  V30 1486 C 144.601 2.06999 -0.128968 0
M  V30 1487 C 145.026 1.4617 1.1839 0
M  V30 1488 O 144.384 0.560007 1.72434 0
M  V30 1489 C 144.432 3.60595 -0.0188351 0
M  V30 1490 O 143.536 3.99398 1.02739 0
M  V30 1491 H 142.877 0.659047 -0.0809544 0
M  V30 1492 H 145.407 1.85784 -0.85705 0
M  V30 1493 H 145.417 4.07627 0.174476 0
M  V30 1494 H 144.092 4.04252 -0.977384 0
M  V30 1495 H 142.669 3.64011 0.809326 0
M  V30 1496 N 144.854 0.36279 1.53368 0
M  V30 1497 C 146.265 -0.117022 1.86333 0
M  V30 1498 C 146.616 -1.48397 1.28347 0
M  V30 1499 O 145.741 -2.07787 0.604428 0
M  V30 1500 C 146.336 -0.21912 3.38091 0
M  V30 1501 C 144.895 -0.643184 3.70864 0
M  V30 1502 C 144.042 0.211318 2.76494 0
M  V30 1503 H 146.993 0.581687 1.47655 0
M  V30 1504 H 147.014 -1.04319 3.6592 0
M  V30 1505 H 146.526 0.775902 3.80265 0
M  V30 1506 H 144.627 -1.64654 3.34245 0
M  V30 1507 H 144.74 -0.41973 4.77258 0
M  V30 1508 H 143.104 -0.319367 2.5269 0
M  V30 1509 H 143.887 1.20383 3.21501 0
M  V30 1510 N 146.332 -1.57332 0.0918853 0
M  V30 1511 C 147.262 -2.16872 -0.865371 0
M  V30 1512 C 148.243 -1.10118 -1.29646 0
M  V30 1513 O 149.428 -1.38242 -1.36392 0
M  V30 1514 C 146.558 -2.74649 -2.12569 0
M  V30 1515 C 145.512 -3.86747 -1.83333 0
M  V30 1516 C 144.838 -4.31212 -3.16166 0
M  V30 1517 C 146.138 -5.10089 -1.1228 0
M  V30 1518 H 147.832 -2.97114 -0.369307 0
M  V30 1519 H 145.378 -1.42918 -0.176194 0
M  V30 1520 H 147.331 -3.14952 -2.7997 0
M  V30 1521 H 146.055 -1.91657 -2.64452 0
M  V30 1522 H 144.714 -3.46978 -1.18331 0
M  V30 1523 H 144.362 -3.45115 -3.6593 0
M  V30 1524 H 144.062 -5.06788 -2.97388 0
M  V30 1525 H 145.586 -4.74146 -3.84731 0
M  V30 1526 H 147 -5.47582 -1.69785 0
M  V30 1527 H 145.397 -5.91073 -1.03693 0
M  V30 1528 H 146.467 -4.84786 -0.105041 0
M  V30 1529 N 147.81 0.181792 -1.56548 0
M  V30 1530 C 148.72 1.24538 -1.98815 0
M  V30 1531 C 149.736 1.49045 -0.897861 0
M  V30 1532 O 150.912 1.61399 -1.20467 0
M  V30 1533 C 147.977 2.56683 -2.33055 0
M  V30 1534 C 147.038 2.40131 -3.55859 0
M  V30 1535 C 146.271 3.65975 -3.88456 0
M  V30 1536 O 146.494 4.70711 -3.22161 0
M  V30 1537 O 145.428 3.6071 -4.81842 0
M  V30 1538 H 149.254 0.916647 -2.89536 0
M  V30 1539 H 146.839 0.387842 -1.44278 0
M  V30 1540 H 148.721 3.34655 -2.56094 0
M  V30 1541 H 147.396 2.89157 -1.45498 0
M  V30 1542 H 146.303 1.60226 -3.38051 0
M  V30 1543 H 147.636 2.12585 -4.43924 0
M  V30 1544 N 149.288 1.51039 0.449983 0
M  V30 1545 C 150.537 1.62317 1.19733 0
M  V30 1546 C 150.85 0.339101 1.92638 0
M  V30 1547 O 152.056 0.331069 2.69474 0
M  V30 1548 C 150.512 2.86608 2.17678 0
M  V30 1549 C 150.12 4.21972 1.50479 0
M  V30 1550 C 151.864 3.07239 2.92924 0
M  V30 1551 C 149.771 5.37426 2.46834 0
M  V30 1552 H 148.701 0.604532 0.450619 0
M  V30 1553 H 151.352 1.77494 0.465625 0
M  V30 1554 H 149.734 2.65037 2.94231 0
M  V30 1555 H 150.908 4.53878 0.795716 0
M  V30 1556 H 149.223 4.07117 0.874344 0
M  V30 1557 H 151.82 3.90668 3.65079 0
M  V30 1558 H 152.163 2.19807 3.5354 0
M  V30 1559 H 152.696 3.29091 2.23481 0
M  V30 1560 H 149.435 6.27079 1.90926 0
M  V30 1561 H 148.955 5.09912 3.15832 0
M  V30 1562 H 150.634 5.68862 3.08228 0
M  V30 1563 N 150.766 -0.704594 1.40972 0
M  V30 1564 C 151.729 -1.80035 1.41845 0
M  V30 1565 C 152.729 -1.57774 0.310474 0
M  V30 1566 O 153.919 -1.64613 0.56992 0
M  V30 1567 C 151.051 -3.18284 1.22098 0
M  V30 1568 H 152.244 -1.80658 2.3938 0
M  V30 1569 H 149.797 -0.911329 1.26982 0
M  V30 1570 H 150.532 -3.23306 0.253672 0
M  V30 1571 H 150.317 -3.35843 2.02366 0
M  V30 1572 H 151.807 -3.98289 1.25522 0
M  V30 1573 N 152.244 -1.26651 -0.937939 0
M  V30 1574 C 153.49 -1.13562 -1.68746 0
M  V30 1575 C 153.845 0.317241 -1.89767 0
M  V30 1576 O 153.138 1.22939 -1.46957 0
M  V30 1577 C 153.332 -1.84168 -3.06295 0
M  V30 1578 C 153.161 -3.36171 -2.98696 0
M  V30 1579 C 151.931 -4.05468 -3.01535 0
M  V30 1580 C 154.129 -4.32312 -2.78588 0
M  V30 1581 N 152.111 -5.44118 -2.84269 0
M  V30 1582 C 153.482 -5.58159 -2.69924 0
M  V30 1583 C 155.537 -4.22524 -2.63396 0
M  V30 1584 C 154.24 -6.75335 -2.47618 0
M  V30 1585 C 156.266 -5.39411 -2.42466 0
M  V30 1586 C 155.628 -6.64208 -2.34536 0
M  V30 1587 H 151.727 -0.470361 -0.624728 0
M  V30 1588 H 154.311 -1.59982 -1.10968 0
M  V30 1589 H 152.482 -1.40219 -3.62206 0
M  V30 1590 H 154.214 -1.63674 -3.70126 0
M  V30 1591 H 150.969 -3.56854 -3.11372 0
M  V30 1592 H 151.393 -6.1693 -2.78795 0
M  V30 1593 H 156.035 -3.26771 -2.68292 0
M  V30 1594 H 153.753 -7.71182 -2.41463 0
M  V30 1595 H 157.339 -5.33711 -2.31611 0
M  V30 1596 H 156.219 -7.53129 -2.18555 0
M  V30 1597 N 153.722 1.14298 -1.08507 0
M  V30 1598 C 154.95 1.89219 -0.836876 0
M  V30 1599 C 155.365 1.78638 0.611054 0
M  V30 1600 O 154.722 1.14643 1.41998 0
M  V30 1601 C 154.773 3.39158 -1.25116 0
M  V30 1602 O 154.494 3.49449 -2.64229 0
M  V30 1603 C 155.995 4.31073 -1.03398 0
M  V30 1604 H 153.215 0.599328 -0.301739 0
M  V30 1605 H 155.759 1.44746 -1.44461 0
M  V30 1606 H 153.914 3.81251 -0.687514 0
M  V30 1607 H 154.328 4.42589 -2.81452 0
M  V30 1608 H 155.802 5.34646 -1.37323 0
M  V30 1609 H 156.279 4.3919 0.0289259 0
M  V30 1610 H 156.885 3.94738 -1.58311 0
M  V30 1611 N 155.201 0.870884 1.31352 0
M  V30 1612 C 156.45 0.478408 1.95944 0
M  V30 1613 C 156.763 -0.974493 1.69597 0
M  V30 1614 O 157.969 -1.47316 2.28058 0
M  V30 1615 C 156.425 0.804609 3.50791 0
M  V30 1616 C 156.033 2.27433 3.85977 0
M  V30 1617 C 157.777 0.480648 4.2177 0
M  V30 1618 C 155.684 2.5429 5.33939 0
M  V30 1619 H 154.614 0.175175 0.733369 0
M  V30 1620 H 157.265 1.06391 1.4951 0
M  V30 1621 H 155.647 0.148347 3.95722 0
M  V30 1622 H 156.821 2.97373 3.52002 0
M  V30 1623 H 155.136 2.56442 3.28065 0
M  V30 1624 H 157.733 0.658519 5.30629 0
M  V30 1625 H 158.076 -0.578979 4.12254 0
M  V30 1626 H 158.609 1.09349 3.82476 0
M  V30 1627 H 155.348 3.58939 5.48491 0
M  V30 1628 H 154.868 1.88945 5.69263 0
M  V30 1629 H 156.547 2.39066 6.01212 0
M  V30 1630 N 156.679 -1.44442 0.630414 0
M  V30 1631 C 157.925 -2.02351 0.134816 0
M  V30 1632 C 158.258 -1.4947 -1.23986 0
M  V30 1633 O 157.533 -0.678475 -1.82283 0
M  V30 1634 C 157.816 -3.59898 0.120707 0
M  V30 1635 C 157.669 -4.23063 1.52767 0
M  V30 1636 C 158.988 -4.36585 -0.555127 0
M  V30 1637 H 156.107 -0.73527 0.0504646 0
M  V30 1638 H 158.749 -1.72022 0.806751 0
M  V30 1639 H 156.899 -3.85868 -0.451477 0
M  V30 1640 H 158.571 -4.08202 2.14869 0
M  V30 1641 H 156.814 -3.80586 2.08175 0
M  V30 1642 H 157.485 -5.32071 1.46984 0
M  V30 1643 H 159.961 -4.16044 -0.0685429 0
M  V30 1644 H 158.837 -5.46294 -0.534185 0
M  V30 1645 H 159.098 -4.11138 -1.62535 0
M  V30 1646 N 158.157 -0.370918 -1.53173 0
M  V30 1647 C 159.568 0.107139 -1.86392 0
M  V30 1648 C 159.919 1.47714 -1.29132 0
M  V30 1649 O 159.044 2.07464 -0.615439 0
M  V30 1650 C 159.639 0.201187 -3.38202 0
M  V30 1651 C 158.198 0.623507 -3.712 0
M  V30 1652 C 157.345 -0.225978 -2.76378 0
M  V30 1653 H 160.296 -0.58951 -1.47345 0
M  V30 1654 H 160.317 1.02377 -3.66468 0
M  V30 1655 H 159.829 -0.796058 -3.79848 0
M  V30 1656 H 157.93 1.62879 -3.35114 0
M  V30 1657 H 158.043 0.394414 -4.77474 0
M  V30 1658 H 156.407 0.305962 -2.52856 0
M  V30 1659 H 157.19 -1.22086 -3.20858 0
M  V30 1660 N 159.635 1.57281 -0.100228 0
M  V30 1661 C 160.884 1.93713 0.561984 0
M  V30 1662 C 161.197 0.984492 1.69018 0
M  V30 1663 O 162.403 1.24273 2.41389 0
M  V30 1664 C 160.859 3.4421 1.05106 0
M  V30 1665 C 160.467 4.47975 -0.0476628 0
M  V30 1666 C 162.211 3.89595 1.68571 0
M  V30 1667 C 160.118 5.89631 0.457055 0
M  V30 1668 H 159.048 0.723082 0.2137 0
M  V30 1669 H 161.699 1.82644 -0.177057 0
M  V30 1670 H 160.081 3.50449 1.84395 0
M  V30 1671 H 161.255 4.53385 -0.823333 0
M  V30 1672 H 159.57 4.1223 -0.587816 0
M  V30 1673 H 162.167 4.92832 2.07414 0
M  V30 1674 H 162.51 3.28526 2.55688 0
M  V30 1675 H 163.043 3.86078 0.958562 0
M  V30 1676 H 159.782 6.54411 -0.377616 0
M  V30 1677 H 159.302 5.87681 1.19962 0
M  V30 1678 H 160.981 6.40363 0.92437 0
M  V30 1679 N 161.113 -0.173488 1.56642 0
M  V30 1680 C 162.359 -0.891784 1.8214 0
M  V30 1681 C 162.692 -1.8199 0.677736 0
M  V30 1682 O 161.967 -1.91842 -0.320446 0
M  V30 1683 C 162.25 -1.68933 3.18015 0
M  V30 1684 C 162.103 -0.784487 4.42906 0
M  V30 1685 C 163.422 -2.65748 3.50808 0
M  V30 1686 H 160.541 -0.322761 0.662567 0
M  V30 1687 H 163.183 -0.158095 1.89341 0
M  V30 1688 H 161.333 -2.31482 3.12007 0
M  V30 1689 H 163.005 -0.172046 4.60979 0
M  V30 1690 H 161.248 -0.0924117 4.33702 0
M  V30 1691 H 161.919 -1.37799 5.34524 0
M  V30 1692 H 164.395 -2.13327 3.57255 0
M  V30 1693 H 163.271 -3.18619 4.4696 0
M  V30 1694 H 163.532 -3.45842 2.75401 0
M  V30 1695 N 162.591 -1.51276 -0.441967 0
M  V30 1696 C 163.84 -1.6295 -1.18871 0
M  V30 1697 C 164.153 -0.349312 -1.92456 0
M  V30 1698 O 165.359 -0.345355 -2.69295 0
M  V30 1699 C 163.815 -2.87759 -2.16155 0
M  V30 1700 C 163.423 -4.22764 -1.48239 0
M  V30 1701 C 165.167 -3.08788 -2.91291 0
M  V30 1702 C 163.074 -5.38728 -2.4398 0
M  V30 1703 H 162.004 -0.606913 -0.447406 0
M  V30 1704 H 164.655 -1.77739 -0.456205 0
M  V30 1705 H 163.037 -2.66593 -2.92821 0
M  V30 1706 H 164.211 -4.54293 -0.771635 0
M  V30 1707 H 162.526 -4.07575 -0.852741 0
M  V30 1708 H 165.123 -3.92599 -3.63002 0
M  V30 1709 H 165.466 -2.21679 -3.5237 0
M  V30 1710 H 165.999 -3.30272 -2.21733 0
M  V30 1711 H 162.738 -6.28082 -1.87598 0
M  V30 1712 H 162.258 -5.1158 -3.13123 0
M  V30 1713 H 163.937 -5.70489 -3.05207 0
M  V30 1714 N 164.069 0.697108 -1.41344 0
M  V30 1715 C 164.999 1.82353 -1.45841 0
M  V30 1716 C 165.98 1.67115 -0.317247 0
M  V30 1717 O 167.165 1.86871 -0.528474 0
M  V30 1718 C 164.295 3.20476 -1.33838 0
M  V30 1719 C 163.249 3.50415 -2.4575 0
M  V30 1720 C 162.575 4.87878 -2.18813 0
M  V30 1721 C 163.875 3.49546 -3.88091 0
M  V30 1722 H 165.569 1.78846 -2.40113 0
M  V30 1723 H 163.115 0.859028 -1.15571 0
M  V30 1724 H 165.068 3.98988 -1.35596 0
M  V30 1725 H 163.792 3.24604 -0.360498 0
M  V30 1726 H 162.451 2.74253 -2.43271 0
M  V30 1727 H 162.099 4.8863 -1.19371 0
M  V30 1728 H 161.799 5.08875 -2.93803 0
M  V30 1729 H 163.323 5.68702 -2.22284 0
M  V30 1730 H 164.737 4.18066 -3.92293 0
M  V30 1731 H 163.134 3.82075 -4.62751 0
M  V30 1732 H 164.204 2.48552 -4.16353 0
M  V30 1733 N 165.547 1.27147 0.931209 0
M  V30 1734 C 166.793 1.13446 1.68101 0
M  V30 1735 C 167.126 -0.319628 1.91552 0
M  V30 1736 O 166.401 -1.23407 1.50336 0
M  V30 1737 C 166.684 1.91482 3.0497 0
M  V30 1738 C 166.537 3.44855 2.88782 0
M  V30 1739 C 167.856 1.71651 4.05246 0
M  V30 1740 H 164.975 0.413498 0.610072 0
M  V30 1741 H 167.617 1.56261 1.08086 0
M  V30 1742 H 165.767 1.55095 3.56199 0
M  V30 1743 H 167.439 3.9105 2.44698 0
M  V30 1744 H 165.682 3.71373 2.24198 0
M  V30 1745 H 166.353 3.94694 3.85902 0
M  V30 1746 H 168.829 2.0337 3.63015 0
M  V30 1747 H 167.705 2.28651 4.99009 0
M  V30 1748 H 167.966 0.663555 4.37092 0
M  V30 1749 N 167.025 -1.13721 1.09112 0
M  V30 1750 C 167.988 -2.17222 0.731241 0
M  V30 1751 C 168.988 -1.59035 -0.237566 0
M  V30 1752 O 170.178 -1.74192 -0.0161704 0
M  V30 1753 C 167.31 -3.40804 0.0808443 0
M  V30 1754 H 168.503 -2.50573 1.64783 0
M  V30 1755 H 166.056 -1.28493 0.889897 0
M  V30 1756 H 166.791 -3.1304 -0.847127 0
M  V30 1757 H 166.576 -3.84306 0.777896 0
M  V30 1758 H 168.066 -4.1731 -0.155657 0
M  V30 1759 N 168.503 -0.877838 -1.30888 0
M  V30 1760 C 169.752 -0.488793 -1.95688 0
M  V30 1761 C 170.065 0.965485 -1.70111 0
M  V30 1762 O 171.271 1.46104 -2.28836 0
M  V30 1763 C 169.727 -0.823201 -3.50359 0
M  V30 1764 C 169.335 -2.29477 -3.84765 0
M  V30 1765 C 171.079 -0.503009 -4.21509 0
M  V30 1766 C 168.986 -2.57118 -5.32583 0
M  V30 1767 H 167.916 -0.179062 -0.732429 0
M  V30 1768 H 170.567 -1.07183 -1.48943 0
M  V30 1769 H 168.949 -0.169331 -3.95638 0
M  V30 1770 H 170.123 -2.99236 -3.5042 0
M  V30 1771 H 168.438 -2.58178 -3.267 0
M  V30 1772 H 171.035 -0.68665 -5.30273 0
M  V30 1773 H 171.378 0.557109 -4.12555 0
M  V30 1774 H 171.911 -1.11376 -3.8189 0
M  V30 1775 H 168.65 -3.61843 -5.4658 0
M  V30 1776 H 168.17 -1.91961 -5.68253 0
M  V30 1777 H 169.849 -2.42251 -5.99936 0
M  V30 1778 N 169.982 1.44106 -0.638065 0
M  V30 1779 C 171.23 2.01579 -0.145043 0
M  V30 1780 C 171.551 1.50496 1.24 0
M  V30 1781 O 170.821 0.711374 1.82527 0
M  V30 1782 H 169.401 0.745282 -0.05063 0
M  V30 1783 H 172.063 1.76516 -0.826327 0
M  V30 1784 H 171.159 3.11877 -0.118039 0
M  V30 1785 N 171.46 0.379036 1.52974 0
M  V30 1786 C 172.423 -0.448865 2.24762 0
M  V30 1787 C 173.423 -0.998689 1.26027 0
M  V30 1788 O 174.613 -0.882313 1.50203 0
M  V30 1789 C 171.745 -1.62872 2.99476 0
M  V30 1790 H 172.938 0.179491 2.99362 0
M  V30 1791 H 170.491 0.13096 1.5575 0
M  V30 1792 H 171.226 -2.29479 2.29151 0
M  V30 1793 H 171.011 -1.24128 3.71934 0
M  V30 1794 H 172.501 -2.2151 3.5401 0
M  V30 1795 N 172.938 -1.57226 0.108567 0
M  V30 1796 C 174.185 -1.94833 -0.551943 0
M  V30 1797 C 174.513 -0.991204 -1.67348 0
M  V30 1798 O 173.768 -0.0131878 -1.95696 0
M  V30 1799 C 174.067 -3.38911 -1.13463 0
M  V30 1800 C 173.733 -4.50696 -0.135509 0
M  V30 1801 C 172.395 -4.80998 0.139252 0
M  V30 1802 C 174.747 -5.18333 0.545957 0
M  V30 1803 C 172.075 -5.76259 1.10194 0
M  V30 1804 C 174.427 -6.14627 1.49721 0
M  V30 1805 C 173.091 -6.43327 1.78006 0
M  V30 1806 H 172.361 -0.712944 -0.20197 0
M  V30 1807 H 175.008 -1.90582 0.18726 0
M  V30 1808 H 173.313 -3.39805 -1.95037 0
M  V30 1809 H 175.01 -3.65317 -1.65362 0
M  V30 1810 H 171.6 -4.27087 -0.359846 0
M  V30 1811 H 175.784 -4.95087 0.346842 0
M  V30 1812 H 171.04 -5.96804 1.32795 0
M  V30 1813 H 175.214 -6.66126 2.03099 0
M  V30 1814 H 172.841 -7.1695 2.52759 0
M  V30 1815 N 174.416 0.165178 -1.56732 0
M  V30 1816 C 175.641 0.900253 -1.86843 0
M  V30 1817 C 176.066 1.74766 -0.695596 0
M  V30 1818 O 175.424 1.77786 0.35522 0
M  V30 1819 C 175.472 1.74777 -3.15413 0
M  V30 1820 O 174.576 2.85007 -2.98068 0
M  V30 1821 H 173.917 0.251832 -0.614391 0
M  V30 1822 H 176.447 0.161468 -2.03962 0
M  V30 1823 H 176.457 2.14646 -3.46974 0
M  V30 1824 H 175.132 1.12537 -4.00385 0
M  V30 1825 H 173.709 2.48676 -2.77875 0
M  V30 1826 N 175.894 1.51508 0.433938 0
M  V30 1827 C 176.824 1.76016 1.53429 0
M  V30 1828 C 177.805 0.610112 1.58782 0
M  V30 1829 O 178.99 0.853177 1.74455 0
M  V30 1830 C 176.12 1.88831 2.9148 0
M  V30 1831 C 175.074 3.04288 3.00987 0
M  V30 1832 C 174.4 3.0229 4.4105 0
M  V30 1833 C 175.7 4.44193 2.74754 0
M  V30 1834 H 177.394 2.68152 1.33171 0
M  V30 1835 H 174.94 1.29035 0.639214 0
M  V30 1836 H 176.893 2.04559 3.6842 0
M  V30 1837 H 175.617 0.933455 3.12976 0
M  V30 1838 H 174.276 2.8827 2.26486 0
M  V30 1839 H 173.924 2.04576 4.59519 0
M  V30 1840 H 173.624 3.79822 4.4834 0
M  V30 1841 H 175.148 3.20116 5.1996 0
M  V30 1842 H 176.562 4.60544 3.41426 0
M  V30 1843 H 174.959 5.23457 2.9345 0
M  V30 1844 H 176.029 4.53996 1.70339 0
M  V30 1845 N 177.372 -0.689602 1.41712 0
M  V30 1846 C 178.783 -1.26973 1.36875 0
M  V30 1847 C 179.134 -1.96124 0.054748 0
M  V30 1848 O 178.259 -1.99141 -0.84687 0
M  V30 1849 C 178.854 -2.30912 2.47922 0
M  V30 1850 C 177.413 -2.84486 2.46464 0
M  V30 1851 C 176.56 -1.58603 2.27465 0
M  V30 1852 H 179.511 -0.48396 1.51141 0
M  V30 1853 H 179.532 -3.12331 2.17323 0
M  V30 1854 H 179.044 -1.80554 3.43543 0
M  V30 1855 H 177.145 -3.39005 1.54617 0
M  V30 1856 H 177.258 -3.34511 3.42986 0
M  V30 1857 H 175.622 -1.84632 1.75451 0
M  V30 1858 H 176.405 -1.10233 3.25121 0
M  V30 1859 N 178.85 -1.27639 -0.924453 0
M  V30 1860 C 180.096 -1.14336 -1.67497 0
M  V30 1861 C 180.429 0.309465 -1.91718 0
M  V30 1862 O 179.704 1.22608 -1.50989 0
M  V30 1863 C 179.987 -1.93096 -3.0395 0
M  V30 1864 C 179.84 -3.46381 -2.8695 0
M  V30 1865 C 181.159 -1.73798 -4.0433 0
M  V30 1866 H 178.278 -0.416728 -0.607871 0
M  V30 1867 H 180.92 -1.56832 -1.07256 0
M  V30 1868 H 179.07 -1.56982 -3.55372 0
M  V30 1869 H 180.742 -3.92343 -2.42621 0
M  V30 1870 H 178.985 -3.72557 -2.22225 0
M  V30 1871 H 179.656 -3.96735 -3.83804 0
M  V30 1872 H 182.132 -2.05293 -3.61931 0
M  V30 1873 H 181.008 -2.31294 -4.97789 0
M  V30 1874 H 181.269 -0.686725 -4.36734 0
M  V30 1875 N 180.328 1.1314 -1.09713 0
M  V30 1876 C 181.258 2.20748 -0.761102 0
M  V30 1877 C 182.239 1.68061 0.262566 0
M  V30 1878 O 183.424 1.93765 0.129977 0
M  V30 1879 C 180.554 3.46812 -0.184054 0
M  V30 1880 C 179.508 4.12606 -1.13757 0
M  V30 1881 C 178.834 5.33031 -0.422083 0
M  V30 1882 C 180.134 4.59603 -2.48118 0
M  V30 1883 H 181.828 2.49113 -1.66082 0
M  V30 1884 H 179.374 1.19734 -0.799987 0
M  V30 1885 H 181.327 4.21353 0.0631215 0
M  V30 1886 H 180.051 3.17851 0.750868 0
M  V30 1887 H 178.71 3.40036 -1.37007 0
M  V30 1888 H 178.358 5.00335 0.517072 0
M  V30 1889 H 178.058 5.77999 -1.05788 0
M  V30 1890 H 179.582 6.10325 -0.183277 0
M  V30 1891 H 180.996 5.25552 -2.29059 0
M  V30 1892 H 179.393 5.15321 -3.07514 0
M  V30 1893 H 180.463 3.73971 -3.08665 0
M  V30 1894 N 181.806 0.884767 1.30421 0
M  V30 1895 C 183.053 0.503105 1.96151 0
M  V30 1896 C 183.381 -0.947676 1.69851 0
M  V30 1897 O 182.636 -1.68467 0.995861 0
M  V30 1898 C 182.935 0.724318 3.49983 0
M  V30 1899 C 182.601 2.15015 3.96332 0
M  V30 1900 C 181.263 2.54005 4.08699 0
M  V30 1901 C 183.615 3.07936 4.20505 0
M  V30 1902 C 180.943 3.85128 4.42599 0
M  V30 1903 C 183.295 4.3859 4.55874 0
M  V30 1904 C 181.959 4.77474 4.66449 0
M  V30 1905 H 181.229 0.184099 0.717766 0
M  V30 1906 H 183.876 1.12058 1.55291 0
M  V30 1907 H 182.181 0.0238086 3.91793 0
M  V30 1908 H 183.878 0.408617 3.98913 0
M  V30 1909 H 180.468 1.8375 3.87213 0
M  V30 1910 H 184.652 2.79033 4.10431 0
M  V30 1911 H 179.908 4.14996 4.48986 0
M  V30 1912 H 184.082 5.10629 4.7353 0
M  V30 1913 H 181.709 5.79115 4.92473 0
M  V30 1914 N 183.284 -1.43765 0.645699 0
M  V30 1915 C 184.232 -2.32516 -0.0624849 0
M  V30 1916 C 185.226 -1.48183 -0.820855 0
M  V30 1917 O 186.432 -1.64439 -0.732106 0
M  V30 1918 H 182.807 -0.750989 -0.0389864 0
M  V30 1919 H 184.778 -2.89979 0.703892 0
M  V30 1920 C 183.527 -3.32389 -1.02044 0
M  V30 1921 H 182.85 -3.97301 -0.446312 0
M  V30 1922 H 184.29 -3.97138 -1.48517 0
M  V30 1923 C 182.749 -2.62416 -2.11281 0
M  V30 1924 O 183.279 -2.434 -3.19561 0
M  V30 1925 N 181.485 -2.21913 -1.87624 0
M  V30 1926 H 181.032 -2.37578 -0.995703 0
M  V30 1927 H 180.99 -1.75424 -2.6091 0
M  V30 1928 N 184.763 -0.387143 -1.52771 0
M  V30 1929 C 185.695 0.484089 -2.2403 0
M  V30 1930 C 186.708 1.02849 -1.26198 0
M  V30 1931 O 187.897 0.931186 -1.52286 0
M  V30 1932 C 184.997 1.68337 -2.94136 0
M  V30 1933 C 184.17 1.26672 -4.18656 0
M  V30 1934 C 183.229 2.33045 -4.7178 0
M  V30 1935 O 182.255 1.94541 -5.34923 0
M  V30 1936 N 183.457 3.64929 -4.5145 0
M  V30 1937 H 186.222 -0.126404 -2.99433 0
M  V30 1938 H 183.783 -0.213392 -1.60488 0
M  V30 1939 H 185.775 2.39019 -3.26577 0
M  V30 1940 H 184.345 2.20025 -2.22053 0
M  V30 1941 H 183.565 0.388878 -3.92277 0
M  V30 1942 H 184.853 0.964964 -4.99566 0
M  V30 1943 H 184.251 3.98974 -4.01044 0
M  V30 1944 H 182.808 4.31651 -4.88386 0
M  V30 1945 N 186.241 1.57166 -0.116904 0
M  V30 1946 C 187.173 2.12271 0.864507 0
M  V30 1947 C 188.186 1.06494 1.23138 0
M  V30 1948 O 189.375 1.33873 1.18069 0
M  V30 1949 C 186.475 2.60564 2.16702 0
M  V30 1950 C 185.648 3.90416 1.97216 0
M  V30 1951 C 184.707 4.24329 3.11178 0
M  V30 1952 O 183.733 4.93182 2.84184 0
M  V30 1953 N 184.935 3.8148 4.37554 0
M  V30 1954 H 187.7 2.97102 0.393726 0
M  V30 1955 H 185.261 1.61759 0.0675805 0
M  V30 1956 H 187.253 2.80282 2.91932 0
M  V30 1957 H 185.823 1.80623 2.55135 0
M  V30 1958 H 185.043 3.79627 1.06192 0
M  V30 1959 H 186.331 4.75327 1.81499 0
M  V30 1960 H 185.729 3.25943 4.62361 0
M  V30 1961 H 184.286 4.06311 5.09661 0
M  V30 1962 N 187.719 -0.156864 1.56817 0
M  V30 1963 C 188.629 -1.2136 2.00771 0
M  V30 1964 C 189.645 -1.47598 0.921459 0
M  V30 1965 O 190.821 -1.59462 1.2302 0
M  V30 1966 C 187.886 -2.52943 2.37109 0
M  V30 1967 C 186.947 -2.34439 3.59634 0
M  V30 1968 C 186.18 -3.59748 3.94229 0
M  V30 1969 O 186.403 -4.65526 3.29609 0
M  V30 1970 O 185.337 -3.52998 4.8752 0
M  V30 1971 H 189.163 -0.870468 2.90958 0
M  V30 1972 H 186.748 -0.36484 1.44877 0
M  V30 1973 H 188.63 -3.30538 2.61386 0
M  V30 1974 H 187.305 -2.86806 1.5008 0
M  V30 1975 H 186.212 -1.54828 3.40557 0
M  V30 1976 H 187.545 -2.05496 4.4725 0
M  V30 1977 N 189.197 -1.51736 -0.425897 0
M  V30 1978 C 190.446 -1.64201 -1.17136 0
M  V30 1979 C 190.759 -0.369705 -1.92074 0
M  V30 1980 O 191.965 -0.373898 -2.68913 0
M  V30 1981 C 190.421 -2.90035 -2.13091 0
M  V30 1982 C 190.029 -4.24312 -1.43747 0
M  V30 1983 C 191.773 -3.1186 -2.87999 0
M  V30 1984 C 189.68 -5.41285 -2.38253 0
M  V30 1985 H 188.61 -0.611624 -0.440944 0
M  V30 1986 H 191.261 -1.78212 -0.437328 0
M  V30 1987 H 189.643 -2.69684 -2.89977 0
M  V30 1988 H 190.817 -4.55086 -0.723408 0
M  V30 1989 H 189.132 -4.08456 -0.809465 0
M  V30 1990 H 191.729 -3.96427 -3.58817 0
M  V30 1991 H 192.072 -2.25403 -3.49999 0
M  V30 1992 H 192.605 -3.32605 -2.18217 0
M  V30 1993 H 189.344 -6.30037 -1.80925 0
M  V30 1994 H 188.864 -5.14872 -3.0768 0
M  V30 1995 H 190.543 -5.73694 -2.99139 0
M  V30 1996 N 190.675 0.682077 -1.42076 0
M  V30 1997 C 192.086 1.26246 -1.37546 0
M  V30 1998 C 192.437 1.96092 -0.0651481 0
M  V30 1999 O 191.562 1.99587 0.836297 0
M  V30 2000 C 192.157 2.29594 -2.49143 0
M  V30 2001 C 190.716 2.83175 -2.47969 0
M  V30 2002 C 189.863 1.57395 -2.28303 0
M  V30 2003 H 192.814 0.475937 -1.51395 0
M  V30 2004 H 192.835 3.11175 -2.18976 0
M  V30 2005 H 192.347 1.78729 -3.44496 0
M  V30 2006 H 190.448 3.3818 -1.56413 0
M  V30 2007 H 190.561 3.32687 -3.44755 0
M  V30 2008 H 188.925 1.83699 -1.76428 0
M  V30 2009 H 189.708 1.08507 -3.25701 0
M  V30 2010 N 192.153 1.28127 0.917671 0
M  V30 2011 C 193.063 1.13556 2.05286 0
M  V30 2012 C 194.079 0.0630914 1.73886 0
M  V30 2013 O 195.255 0.271598 1.9956 0
M  V30 2014 C 192.32 0.794676 3.3747 0
M  V30 2015 C 191.381 1.94909 3.82504 0
M  V30 2016 C 190.614 1.62437 5.0838 0
M  V30 2017 O 190.837 0.536905 5.67867 0
M  V30 2018 O 189.771 2.46677 5.4903 0
M  V30 2019 H 193.597 2.08844 2.20495 0
M  V30 2020 H 191.182 1.07409 1.03845 0
M  V30 2021 H 193.064 0.618344 4.16839 0
M  V30 2022 H 191.739 -0.128581 3.23445 0
M  V30 2023 H 190.646 2.18055 3.03978 0
M  V30 2024 H 191.979 2.85291 4.01086 0
M  V30 2025 N 193.631 -1.12557 1.10312 0
M  V30 2026 C 194.594 -2.16434 0.75424 0
M  V30 2027 C 195.594 -1.59278 -0.220685 0
M  V30 2028 O 196.784 -1.742 0.00230591 0
M  V30 2029 C 193.916 -3.40699 0.116987 0
M  V30 2030 H 195.109 -2.48811 1.67431 0
M  V30 2031 H 192.662 -1.27542 0.903475 0
M  V30 2032 H 193.397 -3.13921 -0.813877 0
M  V30 2033 H 193.182 -3.83459 0.818613 0
M  V30 2034 H 194.672 -4.17451 -0.111387 0
M  V30 2035 N 195.109 -0.891671 -1.2995 0
M  V30 2036 C 196.386 -0.433307 -1.9074 0
M  V30 2037 C 196.766 1.08646 -1.80995 0
M  V30 2038 O 196.114 1.92476 -1.23147 0
M  V30 2039 C 196.324 -0.938895 -3.36134 0
M  V30 2040 C 197.672 -0.977829 -4.13187 0
M  V30 2041 O 198.696 -0.886015 -3.45005 0
M  V30 2042 O 197.555 -1.11453 -5.35015 0
M  V30 2043 H 194.649 -0.133699 -0.816121 0
M  V30 2044 H 197.195 -0.981011 -1.38471 0
M  V30 2045 H 195.967 -1.98281 -3.37343 0
M  V30 2046 H 195.59 -0.37074 -3.95868 0
M  V30 2047 N 196.587 1.43421 -0.653314 0
M  V30 2048 C 197.833 2.02111 -0.166992 0
M  V30 2049 C 198.166 1.51423 1.21592 0
M  V30 2050 O 197.441 0.707389 1.8118 0
M  V30 2051 C 197.724 3.5966 -0.177948 0
M  V30 2052 C 197.577 4.20579 -1.59478 0
M  V30 2053 C 198.896 4.37413 0.4856 0
M  V30 2054 H 196.015 0.734374 -0.0621557 0
M  V30 2055 H 198.657 1.70717 -0.834016 0
M  V30 2056 H 196.807 3.86537 0.390032 0
M  V30 2057 H 198.479 4.04732 -2.21336 0
M  V30 2058 H 196.722 3.77226 -2.14204 0
M  V30 2059 H 197.393 5.29665 -1.5543 0
M  V30 2060 H 199.869 4.161 0.00234528 0
M  V30 2061 H 198.745 5.47075 0.447207 0
M  V30 2062 H 199.006 4.13672 1.55974 0
M  V30 2063 N 198.065 0.39524 1.52563 0
M  V30 2064 C 199.293 -0.184943 2.06072 0
M  V30 2065 C 199.708 -1.40021 1.26647 0
M  V30 2066 O 199.065 -1.79767 0.314672 0
M  V30 2067 C 199.116 -0.549179 3.57304 0
M  V30 2068 O 198.837 0.617813 4.33722 0
M  V30 2069 C 200.338 -1.18459 4.2718 0
M  V30 2070 H 197.558 -0.0265025 0.670476 0
M  V30 2071 H 200.102 0.562184 1.96621 0
M  V30 2072 H 198.257 -1.2462 3.66809 0
M  V30 2073 H 198.671 0.317091 5.23541 0
M  V30 2074 H 200.145 -1.38976 5.34219 0
M  V30 2075 H 200.622 -2.15368 3.82771 0
M  V30 2076 H 201.228 -0.528163 4.22008 0
M  V30 2077 N 199.544 -1.57102 0.125237 0
M  V30 2078 C 200.79 -1.95697 -0.532035 0
M  V30 2079 C 201.123 -1.009 -1.6593 0
M  V30 2080 O 200.398 -0.047347 -1.94442 0
M  V30 2081 C 200.681 -3.44181 -1.05884 0
M  V30 2082 C 200.534 -4.49752 0.0654392 0
M  V30 2083 C 201.853 -3.94655 -1.9477 0
M  V30 2084 H 198.972 -0.711571 -0.191925 0
M  V30 2085 H 201.614 -1.88923 0.20206 0
M  V30 2086 H 199.764 -3.50085 -1.68442 0
M  V30 2087 H 201.436 -4.55943 0.700982 0
M  V30 2088 H 199.679 -4.27653 0.727709 0
M  V30 2089 H 200.35 -5.50924 -0.344505 0
M  V30 2090 H 202.826 -3.91094 -1.42074 0
M  V30 2091 H 201.702 -4.99057 -2.28546 0
M  V30 2092 H 201.963 -3.35718 -2.87656 0
M  V30 2093 N 201.022 0.148545 -1.56898 0
M  V30 2094 C 201.969 1.18345 -1.98149 0
M  V30 2095 C 202.939 1.42772 -0.848848 0
M  V30 2096 O 204.124 1.55132 -1.11079 0
M  V30 2097 C 201.264 2.51231 -2.36594 0
M  V30 2098 C 200.377 2.33991 -3.63142 0
M  V30 2099 C 199.512 3.59902 -3.90697 0
M  V30 2100 C 198.551 3.37692 -5.1052 0
M  V30 2101 N 197.688 4.5573 -5.34092 0
M  V30 2102 H 202.528 0.82467 -2.86362 0
M  V30 2103 H 200.065 0.395756 -1.41676 0
M  V30 2104 H 202.023 3.28713 -2.56912 0
M  V30 2105 H 200.653 2.85059 -1.51463 0
M  V30 2106 H 199.705 1.47572 -3.50609 0
M  V30 2107 H 201.017 2.13539 -4.5078 0
M  V30 2108 H 200.171 4.45813 -4.11505 0
M  V30 2109 H 198.91 3.83357 -3.01477 0
M  V30 2110 H 197.915 2.5017 -4.89587 0
M  V30 2111 H 199.14 3.15637 -6.0129 0
M  V30 2112 H 197.086 4.79361 -4.47827 0
M  V30 2113 H 197.003 4.38274 -6.15996 0
M  V30 2114 H 198.271 5.42858 -5.59397 0
M  V30 2115 N 202.5 1.5196 0.417844 0
M  V30 2116 C 203.746 1.65836 1.16732 0
M  V30 2117 C 204.079 0.382881 1.90388 0
M  V30 2118 O 203.354 -0.618368 1.84408 0
M  V30 2119 C 203.637 2.87466 2.16876 0
M  V30 2120 C 203.49 4.25041 1.47174 0
M  V30 2121 C 204.809 3.04613 3.17646 0
M  V30 2122 H 201.928 0.603515 0.423011 0
M  V30 2123 H 204.57 1.84494 0.454105 0
M  V30 2124 H 202.72 2.71689 2.777 0
M  V30 2125 H 204.392 4.52527 0.895376 0
M  V30 2126 H 202.635 4.26843 0.773806 0
M  V30 2127 H 203.306 5.06176 2.20204 0
M  V30 2128 H 205.782 3.1923 2.66892 0
M  V30 2129 H 204.658 3.91247 3.8499 0
M  V30 2130 H 204.919 2.17541 3.84874 0
M  V30 2131 N 203.978 -0.674533 1.42435 0
M  V30 2132 C 205.206 -1.46283 1.46317 0
M  V30 2133 C 205.621 -1.88653 0.0745836 0
M  V30 2134 O 204.978 -1.58151 -0.91074 0
M  V30 2135 C 205.029 -2.71178 2.3905 0
M  V30 2136 O 204.75 -2.30586 3.72507 0
M  V30 2137 C 206.251 -3.64738 2.51955 0
M  V30 2138 H 203.471 -0.450104 0.497642 0
M  V30 2139 H 206.015 -0.828792 1.86953 0
M  V30 2140 H 204.17 -3.3077 2.01667 0
M  V30 2141 H 204.584 -3.11241 4.22172 0
M  V30 2142 H 206.058 -4.49096 3.20962 0
M  V30 2143 H 206.535 -4.10656 1.55752 0
M  V30 2144 H 207.141 -3.11038 2.90061 0
M  V30 2145 N 205.456 -1.28612 -0.910864 0
M  V30 2146 C 206.704 -1.15705 -1.65701 0
M  V30 2147 C 207.025 0.29416 -1.92769 0
M  V30 2148 O 206.295 1.20331 -1.54588 0
M  V30 2149 H 204.875 -0.425216 -0.614167 0
M  V30 2150 H 207.537 -1.61381 -1.0928 0
M  V30 2151 H 206.633 -1.6988 -2.61815 0
M  V30 2152 N 206.934 1.1197 -1.10907 0
M  V30 2153 C 208.164 1.8713 -0.875553 0
M  V30 2154 C 208.572 1.8016 0.577843 0
M  V30 2155 O 207.915 1.17699 1.41042 0
M  V30 2156 C 207.977 3.37005 -1.2517 0
M  V30 2157 C 207.641 3.67748 -2.71313 0
M  V30 2158 C 208.638 3.65698 -3.69542 0
M  V30 2159 C 206.323 3.96928 -3.07821 0
M  V30 2160 C 208.317 3.92395 -5.023 0
M  V30 2161 C 206.004 4.23284 -4.40765 0
M  V30 2162 C 207.002 4.21005 -5.37814 0
M  V30 2163 O 206.69 4.46704 -6.68364 0
M  V30 2164 H 206.422 0.598786 -0.313737 0
M  V30 2165 H 208.976 1.42568 -1.47863 0
M  V30 2166 H 207.206 3.82146 -0.591741 0
M  V30 2167 H 208.895 3.93519 -0.994877 0
M  V30 2168 H 209.661 3.43211 -3.42682 0
M  V30 2169 H 205.54 3.97841 -2.32902 0
M  V30 2170 H 209.084 3.90531 -5.78041 0
M  V30 2171 H 204.981 4.45246 -4.67361 0
M  V30 2172 H 205.749 4.64299 -6.74069 0
M  V30 2173 N 208.412 0.89855 1.29475 0
M  V30 2174 C 209.344 0.332726 2.26772 0
M  V30 2175 C 210.357 -0.520323 1.54261 0
M  V30 2176 O 211.546 -0.337668 1.75277 0
M  V30 2177 C 208.646 -0.544334 3.345 0
M  V30 2178 C 207.819 0.282728 4.36485 0
M  V30 2179 C 206.878 -0.526982 5.23555 0
M  V30 2180 O 205.904 0.0551165 5.69173 0
M  V30 2181 N 207.106 -1.83331 5.5079 0
M  V30 2182 H 209.871 1.16897 2.75962 0
M  V30 2183 H 207.432 0.762919 1.42798 0
M  V30 2184 H 209.424 -1.09239 3.89678 0
M  V30 2185 H 207.994 -1.28127 2.85136 0
M  V30 2186 H 207.214 1.01221 3.80983 0
M  V30 2187 H 208.502 0.84918 5.01664 0
M  V30 2188 H 207.9 -2.32898 5.15534 0
M  V30 2189 H 206.457 -2.32852 6.08788 0
M  V30 2190 N 209.89 -1.43072 0.660911 0
M  V30 2191 C 211.136 -2.02545 0.186337 0
M  V30 2192 C 211.491 -1.51253 -1.18913 0
M  V30 2193 O 210.784 -0.699167 -1.78388 0
M  V30 2194 C 210.978 -3.57103 0.145563 0
M  V30 2195 C 210.807 -4.23393 1.51554 0
M  V30 2196 C 209.577 -4.59144 2.10984 0
M  V30 2197 C 211.775 -4.51897 2.45548 0
M  V30 2198 N 209.757 -5.10545 3.40907 0
M  V30 2199 C 211.128 -5.04698 3.6011 0
M  V30 2200 C 213.183 -4.33872 2.44253 0
M  V30 2201 C 211.886 -5.41371 4.73613 0
M  V30 2202 C 213.912 -4.71612 3.56842 0
M  V30 2203 C 213.274 -5.24553 4.70131 0
M  V30 2204 H 209.373 -0.773823 0.112792 0
M  V30 2205 H 211.957 -1.74137 0.870885 0
M  V30 2206 H 210.128 -3.85059 -0.508353 0
M  V30 2207 H 211.86 -4.03264 -0.340598 0
M  V30 2208 H 208.615 -4.4444 1.63615 0
M  V30 2209 H 209.039 -5.40689 4.07411 0
M  V30 2210 H 213.681 -3.92208 1.579 0
M  V30 2211 H 211.399 -5.81975 5.60652 0
M  V30 2212 H 214.985 -4.59354 3.57051 0
M  V30 2213 H 213.865 -5.53213 5.5581 0
M  V30 2214 N 211.368 -0.403325 -1.52352 0
M  V30 2215 C 212.598 0.17376 -2.05868 0
M  V30 2216 C 213.006 1.39898 -1.27378 0
M  V30 2217 O 212.349 1.80939 -0.31729 0
M  V30 2218 C 212.411 0.594756 -3.54546 0
M  V30 2219 C 212.075 -0.518926 -4.54044 0
M  V30 2220 C 213.072 -1.3807 -5.01231 0
M  V30 2221 C 210.757 -0.689961 -4.97539 0
M  V30 2222 C 212.751 -2.39852 -5.90551 0
M  V30 2223 C 210.438 -1.71109 -5.86656 0
M  V30 2224 C 211.436 -2.56378 -6.33056 0
M  V30 2225 O 211.124 -3.56743 -7.20409 0
M  V30 2226 H 210.856 0.0264951 -0.675481 0
M  V30 2227 H 213.41 -0.571179 -1.97299 0
M  V30 2228 H 211.64 1.39189 -3.60782 0
M  V30 2229 H 213.329 1.0991 -3.90736 0
M  V30 2230 H 214.095 -1.25994 -4.68349 0
M  V30 2231 H 209.974 -0.035939 -4.60986 0
M  V30 2232 H 213.518 -3.06441 -6.26689 0
M  V30 2233 H 209.415 -1.83218 -6.18952 0
M  V30 2234 H 210.183 -3.52918 -7.38506 0
M  V30 2235 N 212.846 1.57033 -0.133567 0
M  V30 2236 C 214.092 1.96764 0.515326 0
M  V30 2237 C 214.447 1.01653 1.63353 0
M  V30 2238 O 213.74 0.0491374 1.91537 0
M  V30 2239 C 213.934 3.40674 1.08057 0
M  V30 2240 C 213.763 4.49696 0.0186522 0
M  V30 2241 C 212.533 5.03567 -0.418174 0
M  V30 2242 C 214.731 5.08536 -0.767809 0
M  V30 2243 N 212.713 5.9618 -1.46434 0
M  V30 2244 C 214.084 5.97231 -1.6648 0
M  V30 2245 C 216.139 4.9115 -0.817087 0
M  V30 2246 C 214.842 6.70401 -2.60681 0
M  V30 2247 C 216.868 5.65012 -1.74687 0
M  V30 2248 C 216.23 6.53403 -2.63141 0
M  V30 2249 H 212.329 0.765919 0.157771 0
M  V30 2250 H 214.913 1.93395 -0.22506 0
M  V30 2251 H 213.084 3.44662 1.79061 0
M  V30 2252 H 214.816 3.67495 1.69497 0
M  V30 2253 H 211.571 4.73594 -0.0229803 0
M  V30 2254 H 211.995 6.47191 -1.98678 0
M  V30 2255 H 216.637 4.22543 -0.147326 0
M  V30 2256 H 214.355 7.38245 -3.28664 0
M  V30 2257 H 217.941 5.53559 -1.79063 0
M  V30 2258 H 216.821 7.09556 -3.33917 0
M  V30 2259 N 214.325 -0.140222 1.56975 0
M  V30 2260 C 215.573 -0.850005 1.83356 0
M  V30 2261 C 215.894 -1.81399 0.71551 0
M  V30 2262 O 215.164 -1.94136 -0.262294 0
M  V30 2263 H 213.744 -0.316886 0.676456 0
M  V30 2264 H 216.406 -0.132608 1.94448 0
M  V30 2265 H 215.502 -1.40814 2.78528 0
M  V30 2266 N 215.803 -1.52179 -0.40978 0
M  V30 2267 C 217.033 -1.69807 -1.17682 0
M  V30 2268 C 217.441 -0.406908 -1.84773 0
M  V30 2269 O 216.784 0.626863 -1.72673 0
M  V30 2270 C 216.846 -2.77712 -2.2829 0
M  V30 2271 C 216.51 -4.19481 -1.81341 0
M  V30 2272 C 217.507 -5.03345 -1.30154 0
M  V30 2273 C 215.192 -4.65713 -1.88194 0
M  V30 2274 C 217.186 -6.31511 -0.864416 0
M  V30 2275 C 214.873 -5.93869 -1.44093 0
M  V30 2276 C 215.871 -6.76597 -0.933023 0
M  V30 2277 O 215.559 -8.02354 -0.49838 0
M  V30 2278 H 215.291 -0.572372 -0.359675 0
M  V30 2279 H 217.845 -1.99511 -0.488311 0
M  V30 2280 H 216.075 -2.43383 -3.00502 0
M  V30 2281 H 217.764 -2.83946 -2.90051 0
M  V30 2282 H 218.53 -4.68819 -1.24232 0
M  V30 2283 H 214.409 -4.01424 -2.26671 0
M  V30 2284 H 217.953 -6.96033 -0.467286 0
M  V30 2285 H 213.85 -6.27903 -1.49694 0
M  V30 2286 H 214.618 -8.16135 -0.621747 0
M  V30 2287 N 217.281 0.66697 -1.42791 0
M  V30 2288 C 218.191 1.80962 -1.49299 0
M  V30 2289 C 219.207 1.69775 -0.381108 0
M  V30 2290 O 220.383 1.91188 -0.633188 0
M  V30 2291 C 217.448 3.17156 -1.40045 0
M  V30 2292 C 216.509 3.40242 -2.6179 0
M  V30 2293 C 215.742 4.69939 -2.52969 0
M  V30 2294 O 215.965 5.48372 -1.56985 0
M  V30 2295 O 214.899 4.94441 -3.43237 0
M  V30 2296 H 218.725 1.78427 -2.45759 0
M  V30 2297 H 216.31 0.823713 -1.24641 0
M  V30 2298 H 218.192 3.98413 -1.37276 0
M  V30 2299 H 216.867 3.20312 -0.467138 0
M  V30 2300 H 215.774 2.58802 -2.70134 0
M  V30 2301 H 217.107 3.41923 -3.54047 0
M  V30 2302 N 218.759 1.29093 0.90403 0
M  V30 2303 C 219.989 1.19516 1.68522 0
M  V30 2304 C 220.397 -0.24738 1.87576 0
M  V30 2305 O 219.74 -1.17798 1.40959 0
M  V30 2306 C 219.802 1.83249 3.0929 0
M  V30 2307 C 219.466 3.32531 3.13484 0
M  V30 2308 C 220.463 4.28821 2.93953 0
M  V30 2309 C 218.148 3.73656 3.35688 0
M  V30 2310 C 220.142 5.64212 2.96553 0
M  V30 2311 C 217.829 5.0917 3.37919 0
M  V30 2312 C 218.827 6.04258 3.18373 0
M  V30 2313 O 218.515 7.37298 3.20385 0
M  V30 2314 H 218.247 0.415467 0.533257 0
M  V30 2315 H 220.801 1.70912 1.13922 0
M  V30 2316 H 219.031 1.26358 3.65473 0
M  V30 2317 H 220.72 1.68054 3.69476 0
M  V30 2318 H 221.486 3.98382 2.76616 0
M  V30 2319 H 217.365 3.00101 3.49943 0
M  V30 2320 H 220.909 6.38407 2.81216 0
M  V30 2321 H 216.806 5.39256 3.54787 0
M  V30 2322 H 217.574 7.46048 3.36681 0
M  V30 2323 N 220.237 -1.11381 1.11499 0
M  V30 2324 C 221.648 -1.6465 0.880191 0
M  V30 2325 C 221.999 -1.87199 -0.587434 0
M  V30 2326 O 221.124 -1.60667 -1.44966 0
M  V30 2327 C 221.719 -2.99105 1.59128 0
M  V30 2328 C 220.278 -3.49279 1.40289 0
M  V30 2329 C 219.425 -2.24077 1.63354 0
M  V30 2330 H 222.376 -0.950123 1.27116 0
M  V30 2331 H 222.397 -3.66107 1.03664 0
M  V30 2332 H 221.909 -2.82661 2.65941 0
M  V30 2333 H 220.01 -3.70887 0.356888 0
M  V30 2334 H 220.123 -4.2803 2.15238 0
M  V30 2335 H 218.487 -2.31733 1.05698 0
M  V30 2336 H 219.27 -2.10175 2.71443 0
M  V30 2337 N 221.715 -0.905404 -1.28997 0
M  V30 2338 C 222.992 -0.453513 -1.9027 0
M  V30 2339 C 223.372 1.06721 -1.82137 0
M  V30 2340 O 222.72 1.91159 -1.25182 0
M  V30 2341 C 222.93 -0.974494 -3.35119 0
M  V30 2342 C 224.278 -1.0216 -4.12127 0
M  V30 2343 O 225.302 -0.922557 -3.44046 0
M  V30 2344 O 224.161 -1.17121 -5.33802 0
M  V30 2345 H 221.255 -0.142347 -0.814657 0
M  V30 2346 H 223.801 -0.995642 -1.37423 0
M  V30 2347 H 222.573 -2.01848 -3.35221 0
M  V30 2348 H 222.196 -0.412706 -3.95452 0
M  V30 2349 N 223.193 1.4272 -0.668489 0
M  V30 2350 C 224.103 2.34596 0.0139753 0
M  V30 2351 C 225.119 1.5474 0.795703 0
M  V30 2352 O 226.295 1.87334 0.739466 0
M  V30 2353 C 223.36 3.33202 0.957982 0
M  V30 2354 C 222.421 4.28957 0.17149 0
M  V30 2355 C 221.654 5.22853 1.07053 0
M  V30 2356 O 221.877 5.21531 2.31001 0
M  V30 2357 O 220.811 5.9952 0.534727 0
M  V30 2358 H 224.637 2.9448 -0.742661 0
M  V30 2359 H 222.222 1.43117 -0.428705 0
M  V30 2360 H 224.104 3.93796 1.50008 0
M  V30 2361 H 222.779 2.758 1.69458 0
M  V30 2362 H 221.686 3.71796 -0.414558 0
M  V30 2363 H 223.019 4.89383 -0.52586 0
M  V30 2364 N 224.671 0.411399 1.52136 0
M  V30 2365 C 225.581 -0.419774 2.30814 0
M  V30 2366 C 226.597 -1.0515 1.38634 0
M  V30 2367 O 227.773 -1.05252 1.71709 0
M  V30 2368 C 224.838 -1.52019 3.11594 0
M  V30 2369 C 223.899 -0.91129 4.19516 0
M  V30 2370 C 223.132 -1.95927 4.96436 0
M  V30 2371 O 223.355 -3.17775 4.73683 0
M  V30 2372 O 222.289 -1.56423 5.81219 0
M  V30 2373 H 226.115 0.221805 3.02889 0
M  V30 2374 H 223.7 0.174547 1.48377 0
M  V30 2375 H 225.582 -2.15898 3.61892 0
M  V30 2376 H 224.257 -2.14633 2.42311 0
M  V30 2377 H 223.164 -0.235157 3.7336 0
M  V30 2378 H 224.497 -0.32904 4.91099 0
M  V30 2379 N 226.149 -1.5696 0.141893 0
M  V30 2380 C 227.398 -1.95135 -0.510427 0
M  V30 2381 C 227.711 -1.02896 -1.66348 0
M  V30 2382 O 228.917 -1.30629 -2.38009 0
M  V30 2383 C 227.373 -3.46876 -0.959427 0
M  V30 2384 C 226.981 -4.47691 0.166419 0
M  V30 2385 C 228.725 -3.93927 -1.58183 0
M  V30 2386 C 226.632 -5.90636 -0.300565 0
M  V30 2387 H 225.562 -0.728494 -0.194454 0
M  V30 2388 H 228.213 -1.8211 0.22542 0
M  V30 2389 H 226.595 -3.55215 -1.75038 0
M  V30 2390 H 227.769 -4.51043 0.94325 0
M  V30 2391 H 226.084 -4.10527 0.696905 0
M  V30 2392 H 228.681 -4.98158 -1.94275 0
M  V30 2393 H 229.024 -3.3519 -2.46888 0
M  V30 2394 H 229.557 -3.88484 -0.855863 0
M  V30 2395 H 226.296 -6.5318 0.550989 0
M  V30 2396 H 225.816 -5.90655 -1.04338 0
M  V30 2397 H 227.495 -6.42588 -0.754265 0
M  V30 2398 N 227.627 0.131896 -1.57047 0
M  V30 2399 C 228.852 0.860418 -1.8871 0
M  V30 2400 C 229.277 1.73251 -0.73251 0
M  V30 2401 O 228.635 1.785 0.317429 0
M  V30 2402 C 228.683 1.68047 -3.19049 0
M  V30 2403 O 227.787 2.7862 -3.04047 0
M  V30 2404 H 227.128 0.238743 -0.619595 0
M  V30 2405 H 229.658 0.118169 -2.04258 0
M  V30 2406 H 229.668 2.07238 -3.51449 0
M  V30 2407 H 228.343 1.04018 -4.02682 0
M  V30 2408 H 226.92 2.42726 -2.83088 0
M  V30 2409 N 229.106 1.52395 0.401703 0
M  V30 2410 C 230.353 1.66817 1.14796 0
M  V30 2411 C 230.681 0.401772 1.90305 0
M  V30 2412 O 229.936 -0.615487 1.85769 0
M  V30 2413 C 230.235 2.84578 2.16217 0
M  V30 2414 C 229.901 4.22513 1.5746 0
M  V30 2415 C 228.563 4.60029 1.41161 0
M  V30 2416 C 230.915 5.0844 1.14622 0
M  V30 2417 C 228.243 5.81144 0.80552 0
M  V30 2418 C 230.595 6.30167 0.55428 0
M  V30 2419 C 229.259 6.66426 0.378482 0
M  V30 2420 H 228.529 0.610428 0.420069 0
M  V30 2421 H 231.176 1.86512 0.434212 0
M  V30 2422 H 229.481 2.59248 2.93764 0
M  V30 2423 H 231.178 2.92933 2.73845 0
M  V30 2424 H 227.768 3.92953 1.71132 0
M  V30 2425 H 231.952 4.80034 1.26021 0
M  V30 2426 H 227.208 6.07855 0.657399 0
M  V30 2427 H 231.382 6.96071 0.213983 0
M  V30 2428 H 229.009 7.60143 -0.0932606 0
M  V30 2429 N 230.584 -0.659388 1.43143 0
M  V30 2430 C 231.494 -1.80167 1.50256 0
M  V30 2431 C 232.51 -1.69571 0.390106 0
M  V30 2432 O 233.686 -1.90849 0.643319 0
M  V30 2433 C 230.751 -3.16409 1.41725 0
M  V30 2434 C 229.812 -3.38848 2.63591 0
M  V30 2435 C 229.045 -4.68591 2.55458 0
M  V30 2436 O 229.268 -5.47532 1.59891 0
M  V30 2437 O 228.202 -4.92614 3.45854 0
M  V30 2438 H 232.028 -1.77121 2.46702 0
M  V30 2439 H 229.613 -0.817092 1.25076 0
M  V30 2440 H 231.495 -3.9768 1.39387 0
M  V30 2441 H 230.17 -3.20059 0.484118 0
M  V30 2442 H 229.077 -2.57366 2.71502 0
M  V30 2443 H 230.41 -3.4004 3.55856 0
M  V30 2444 N 232.062 -1.29571 -0.897171 0
M  V30 2445 C 233.287 -1.20705 -1.68656 0
M  V30 2446 C 233.712 0.228582 -1.86706 0
M  V30 2447 O 233.07 1.16494 -1.3892 0
M  V30 2448 C 233.118 -1.9282 -3.04717 0
M  V30 2449 O 232.222 -1.24697 -3.93096 0
M  V30 2450 H 231.563 -0.418126 -0.515816 0
M  V30 2451 H 234.093 -1.71183 -1.12061 0
M  V30 2452 H 234.103 -2.01372 -3.54843 0
M  V30 2453 H 232.778 -2.97239 -2.90899 0
M  V30 2454 H 231.355 -1.2442 -3.51531 0
M  V30 2455 N 233.54 1.10788 -1.12088 0
M  V30 2456 C 234.77 1.86191 -0.895351 0
M  V30 2457 C 235.178 1.80763 0.558702 0
M  V30 2458 O 234.521 1.19188 1.39785 0
M  V30 2459 C 234.583 3.35659 -1.28737 0
M  V30 2460 C 234.247 3.64849 -2.75198 0
M  V30 2461 C 235.244 3.61757 -3.734 0
M  V30 2462 C 232.929 3.93641 -3.12013 0
M  V30 2463 C 234.923 3.87045 -5.06434 0
M  V30 2464 C 232.61 4.18585 -4.4523 0
M  V30 2465 C 233.608 4.15277 -5.42249 0
M  V30 2466 O 233.296 4.3959 -6.73065 0
M  V30 2467 H 233.028 0.595425 -0.32007 0
M  V30 2468 H 235.582 1.40992 -1.49367 0
M  V30 2469 H 233.812 3.81497 -0.63224 0
M  V30 2470 H 235.501 3.92441 -1.03656 0
M  V30 2471 H 236.267 3.39557 -3.46303 0
M  V30 2472 H 232.146 3.95348 -2.37109 0
M  V30 2473 H 235.69 3.84378 -5.82151 0
M  V30 2474 H 231.587 4.40264 -4.72057 0
M  V30 2475 H 232.355 4.57123 -6.78956 0
M  V30 2476 N 235.018 0.912232 1.28515 0
M  V30 2477 C 235.951 0.343928 2.25593 0
M  V30 2478 C 236.929 -0.550994 1.5298 0
M  V30 2479 O 238.113 -0.494991 1.81885 0
M  V30 2480 C 235.24 -0.508525 3.34861 0
M  V30 2481 C 234.286 0.320808 4.25292 0
M  V30 2482 S 235.119 1.72658 5.06902 0
M  V30 2483 C 236.275 0.881394 6.19663 0
M  V30 2484 H 236.508 1.16674 2.73449 0
M  V30 2485 H 234.041 0.713384 1.36931 0
M  V30 2486 H 235.999 -0.994539 3.9827 0
M  V30 2487 H 234.66 -1.30571 2.85675 0
M  V30 2488 H 233.853 -0.330941 5.02912 0
M  V30 2489 H 233.455 0.74042 3.66598 0
M  V30 2490 H 235.747 0.110359 6.7741 0
M  V30 2491 H 236.69 1.63009 6.89082 0
M  V30 2492 H 237.098 0.430239 5.62858 0
M  V30 2493 N 236.496 -1.42363 0.676048 0
M  V30 2494 C 237.745 -2.00745 0.196037 0
M  V30 2495 C 238.058 -1.54083 -1.20489 0
M  V30 2496 O 239.264 -2.04891 -1.78134 0
M  V30 2497 C 237.72 -3.58651 0.299616 0
M  V30 2498 C 237.328 -4.143 1.70468 0
M  V30 2499 C 239.072 -4.24326 -0.121619 0
M  V30 2500 C 236.979 -5.64574 1.76096 0
M  V30 2501 H 235.909 -0.750787 0.0695301 0
M  V30 2502 H 238.56 -1.63072 0.841412 0
M  V30 2503 H 236.942 -3.93833 -0.413673 0
M  V30 2504 H 238.116 -3.90575 2.44515 0
M  V30 2505 H 236.431 -3.61081 2.07387 0
M  V30 2506 H 239.028 -5.34607 -0.0997362 0
M  V30 2507 H 239.371 -3.99897 -1.15708 0
M  V30 2508 H 239.904 -3.94108 0.540706 0
M  V30 2509 H 236.643 -5.93804 2.77628 0
M  V30 2510 H 236.163 -5.90286 1.06406 0
M  V30 2511 H 237.842 -6.29013 1.51496 0
M  V30 2512 N 237.974 -0.419461 -1.51915 0
M  V30 2513 C 239.222 0.152637 -2.01523 0
M  V30 2514 C 239.543 1.44762 -1.30649 0
M  V30 2515 O 238.813 1.90997 -0.435535 0
M  V30 2516 H 237.393 0.0593966 -0.744635 0
M  V30 2517 H 240.055 -0.558073 -1.86739 0
M  V30 2518 H 239.151 0.341369 -3.10227 0
M  V30 2519 N 239.452 1.56882 -0.150215 0
M  V30 2520 C 240.677 2.01027 0.510184 0
M  V30 2521 C 241.102 1.02966 1.57415 0
M  V30 2522 O 240.46 0.00590158 1.81299 0
M  V30 2523 C 240.508 3.43899 1.08472 0
M  V30 2524 O 239.612 3.4885 2.19948 0
M  V30 2525 H 238.953 0.652233 0.124451 0
M  V30 2526 H 241.483 2.03093 -0.247894 0
M  V30 2527 H 241.493 3.82766 1.41259 0
M  V30 2528 H 240.168 4.14776 0.305582 0
M  V30 2529 H 238.745 3.21827 1.88366 0
M  V30 2530 N 240.93 -0.123565 1.57115 0
M  V30 2531 C 242.341 -0.681198 1.73829 0
M  V30 2532 C 242.692 -1.80535 0.768214 0
M  V30 2533 O 241.817 -2.16317 -0.0599103 0
M  V30 2534 C 242.412 -1.24246 3.15196 0
M  V30 2535 C 240.971 -1.74643 3.33432 0
M  V30 2536 C 240.118 -0.644284 2.69711 0
M  V30 2537 H 243.069 0.102315 1.5837 0
M  V30 2538 H 243.09 -2.11216 3.16493 0
M  V30 2539 H 242.602 -0.424062 3.85776 0
M  V30 2540 H 240.703 -2.58974 2.67886 0
M  V30 2541 H 240.816 -1.85902 4.41562 0
M  V30 2542 H 239.18 -1.07676 2.3082 0
M  V30 2543 H 239.963 0.163058 3.42913 0
M  V30 2544 N 242.408 -1.52605 -0.393616 0
M  V30 2545 C 243.371 -1.76415 -1.46323 0
M  V30 2546 C 244.371 -0.634126 -1.47768 0
M  V30 2547 O 245.561 -0.902142 -1.4902 0
M  V30 2548 C 242.693 -1.8607 -2.85641 0
M  V30 2549 H 243.886 -2.71916 -1.26498 0
M  V30 2550 H 241.439 -1.43257 -0.625073 0
M  V30 2551 H 242.174 -0.925378 -3.10817 0
M  V30 2552 H 241.959 -2.68235 -2.85993 0
M  V30 2553 H 243.449 -2.06179 -3.63153 0
M  V30 2554 N 243.887 0.651787 -1.4349 0
M  V30 2555 C 245.115 1.43937 -1.48626 0
M  V30 2556 C 245.53 1.8851 -0.104587 0
M  V30 2557 O 244.887 1.5958 0.885464 0
M  V30 2558 C 244.938 2.6734 -2.43334 0
M  V30 2559 O 244.659 2.24631 -3.76128 0
M  V30 2560 C 246.16 3.60683 -2.57726 0
M  V30 2561 H 243.38 0.44213 -0.504739 0
M  V30 2562 H 245.924 0.798944 -1.88248 0
M  V30 2563 H 244.079 3.2752 -2.06904 0
M  V30 2564 H 244.493 3.04485 -4.2707 0
M  V30 2565 H 245.967 4.43933 -3.28067 0
M  V30 2566 H 246.444 4.08126 -1.62265 0
M  V30 2567 H 247.05 3.06384 -2.94973 0
M  V30 2568 N 245.365 1.30045 0.890287 0
M  V30 2569 C 246.613 1.18327 1.63839 0
M  V30 2570 C 246.934 -0.263455 1.93212 0
M  V30 2571 O 246.204 -1.17856 1.56482 0
M  V30 2572 H 244.784 0.434933 0.607324 0
M  V30 2573 H 247.446 1.631 1.06698 0
M  V30 2574 H 246.542 1.74024 2.59079 0
M  V30 2575 N 246.843 -1.10192 1.12674 0
M  V30 2576 C 248.091 -1.81845 0.881861 0
M  V30 2577 C 248.412 -1.85737 -0.593867 0
M  V30 2578 O 247.682 -1.33724 -1.4316 0
M  V30 2579 H 246.262 -0.673432 0.323261 0
M  V30 2580 H 248.924 -1.33316 1.42172 0
M  V30 2581 H 248.02 -2.85288 1.2656 0
M  V30 2582 N 248.321 -0.919034 -1.28029 0
M  V30 2583 C 249.598 -0.473668 -1.89778 0
M  V30 2584 C 249.978 1.04783 -1.83259 0
M  V30 2585 O 249.326 1.8982 -1.27202 0
M  V30 2586 C 249.536 -1.00998 -3.34066 0
M  V30 2587 C 250.884 -1.06525 -4.1102 0
M  V30 2588 O 251.908 -0.958996 -3.43048 0
M  V30 2589 O 250.767 -1.22776 -5.3253 0
M  V30 2590 H 247.861 -0.15098 -0.813101 0
M  V30 2591 H 250.407 -1.01016 -1.36359 0
M  V30 2592 H 249.179 -2.05392 -3.33061 0
M  V30 2593 H 248.802 -0.454626 -3.94992 0
M  V30 2594 N 249.799 1.42003 -0.683588 0
M  V30 2595 C 250.747 2.326 0.000815408 0
M  V30 2596 C 251.741 1.50308 0.781278 0
M  V30 2597 O 252.947 1.66322 0.688251 0
M  V30 2598 H 249.322 0.751758 0.0190616 0
M  V30 2599 H 251.293 2.88011 -0.780528 0
M  V30 2600 C 250.042 3.34978 0.93195 0
M  V30 2601 H 249.365 3.98345 0.340817 0
M  V30 2602 H 250.805 4.00936 1.37936 0
M  V30 2603 C 249.264 2.67925 2.04249 0
M  V30 2604 O 249.794 2.51788 3.12995 0
M  V30 2605 N 248 2.2681 1.81675 0
M  V30 2606 H 247.547 2.40135 0.932363 0
M  V30 2607 H 247.505 1.8228 2.56167 0
M  V30 2608 N 251.277 0.427512 1.51691 0
M  V30 2609 C 252.693 0.0792977 1.59403 0
M  V30 2610 C 252.893 -1.41035 1.43914 0
M  V30 2611 O 251.949 -2.17922 1.27539 0
M  V30 2612 C 253.262 0.590636 2.94842 0
M  V30 2613 C 254.81 0.550215 3.08126 0
M  V30 2614 C 255.285 1.03836 4.46074 0
M  V30 2615 N 256.776 0.995943 4.52366 0
M  V30 2616 C 257.511 1.34463 5.57411 0
M  V30 2617 N 257.007 1.76569 6.69922 0
M  V30 2618 N 258.8 1.26343 5.47717 0
M  V30 2619 H 250.951 1.39687 1.60004 0
M  V30 2620 H 253.214 0.575003 0.753708 0
M  V30 2621 H 252.92 1.63251 3.11516 0
M  V30 2622 H 252.794 0.0102061 3.77199 0
M  V30 2623 H 255.181 -0.482654 2.91126 0
M  V30 2624 H 255.262 1.16693 2.27632 0
M  V30 2625 H 254.906 2.06965 4.63819 0
M  V30 2626 H 254.836 0.398286 5.25092 0
M  V30 2627 H 257.327 0.68661 3.7161 0
M  V30 2628 H 257.64 2.01438 7.46085 0
M  V30 2629 H 255.985 1.80488 6.71155 0
M  V30 2630 H 259.176 0.933209 4.58703 0
M  V30 2631 H 259.349 1.53846 6.29472 0
M  V30 2632 N 252.755 -1.56801 0.158532 0
M  V30 2633 C 253.688 -2.13148 -0.815065 0
M  V30 2634 C 254.666 -1.0581 -1.23462 0
M  V30 2635 O 255.85 -1.3371 -1.32868 0
M  V30 2636 C 252.977 -2.6606 -2.09594 0
M  V30 2637 C 252.023 -3.85651 -1.82141 0
M  V30 2638 S 252.856 -5.26041 -1.00207 0
M  V30 2639 C 254.012 -5.8235 -2.29389 0
M  V30 2640 H 254.245 -2.95396 -0.335937 0
M  V30 2641 H 251.778 -1.54299 -0.0559391 0
M  V30 2642 H 253.736 -2.97195 -2.8317 0
M  V30 2643 H 252.397 -1.83921 -2.54621 0
M  V30 2644 H 251.59 -4.20958 -2.77147 0
M  V30 2645 H 251.192 -3.55338 -1.16667 0
M  V30 2646 H 253.484 -5.94485 -3.24952 0
M  V30 2647 H 254.427 -6.79688 -1.9857 0
M  V30 2648 H 254.835 -5.10675 -2.40564 0
M  V30 2649 N 254.233 0.115231 -1.57178 0
M  V30 2650 C 255.458 0.840354 -1.89612 0
M  V30 2651 C 255.883 1.72464 -0.750845 0
M  V30 2652 O 255.241 1.78826 0.298478 0
M  V30 2653 C 255.289 1.64654 -3.20814 0
M  V30 2654 O 254.393 2.7538 -3.06985 0
M  V30 2655 H 253.734 0.232158 -0.622092 0
M  V30 2656 H 256.264 0.0964977 -2.04372 0
M  V30 2657 H 256.274 2.03499 -3.53627 0
M  V30 2658 H 254.949 0.997416 -4.03763 0
M  V30 2659 H 253.526 2.3971 -2.85646 0
M  V30 2660 N 255.711 1.52812 0.385517 0
M  V30 2661 C 257.122 1.5993 0.963293 0
M  V30 2662 C 257.473 0.454302 1.90868 0
M  V30 2663 O 256.598 -0.422132 2.12243 0
M  V30 2664 C 257.193 2.89871 1.75387 0
M  V30 2665 C 255.752 2.99389 2.28129 0
M  V30 2666 C 254.899 2.55071 1.08783 0
M  V30 2667 H 257.85 1.5784 0.164948 0
M  V30 2668 H 257.871 2.76553 2.61341 0
M  V30 2669 H 257.383 3.73186 1.06554 0
M  V30 2670 H 255.484 2.20619 3.00263 0
M  V30 2671 H 255.597 4.04096 2.57377 0
M  V30 2672 H 253.961 2.09473 1.4489 0
M  V30 2673 H 254.744 3.40785 0.414807 0
M  V30 2674 N 257.189 -0.644168 1.43834 0
M  V30 2675 C 258.099 -1.78563 1.52159 0
M  V30 2676 C 259.115 -1.69147 0.408069 0
M  V30 2677 O 260.291 -1.90156 0.663524 0
M  V30 2678 C 257.356 -3.14888 1.45073 0
M  V30 2679 C 256.417 -3.36034 2.6717 0
M  V30 2680 C 255.65 -4.65855 2.60413 0
M  V30 2681 O 255.873 -5.45805 1.65689 0
M  V30 2682 O 254.807 -4.88918 3.5106 0
M  V30 2683 H 258.633 -1.74494 2.48567 0
M  V30 2684 H 256.218 -0.80378 1.25935 0
M  V30 2685 H 258.1 -3.96179 1.43597 0
M  V30 2686 H 256.775 -3.19528 0.518037 0
M  V30 2687 H 255.682 -2.54472 2.74217 0
M  V30 2688 H 257.015 -3.36247 3.59442 0
M  V30 2689 N 258.668 -1.30515 -0.883378 0
M  V30 2690 C 259.914 -1.19607 -1.63774 0
M  V30 2691 C 260.247 0.248314 -1.92606 0
M  V30 2692 O 259.522 1.17742 -1.54813 0
M  V30 2693 C 259.805 -2.02669 -2.97653 0
M  V30 2694 C 259.658 -3.55335 -2.75784 0
M  V30 2695 C 260.977 -1.86573 -3.98596 0
M  V30 2696 H 258.096 -0.435856 -0.594305 0
M  V30 2697 H 260.738 -1.60165 -1.02212 0
M  V30 2698 H 258.888 -1.68208 -3.50197 0
M  V30 2699 H 260.56 -3.99863 -2.30016 0
M  V30 2700 H 258.803 -3.79438 -2.1026 0
M  V30 2701 H 259.474 -4.08745 -3.70988 0
M  V30 2702 H 261.95 -2.16703 -3.55217 0
M  V30 2703 H 260.826 -2.47014 -4.90179 0
M  V30 2704 H 261.087 -0.825321 -4.34328 0
M  V30 2705 N 260.146 1.09593 -1.13257 0
M  V30 2706 C 261.056 2.19739 -0.821691 0
M  V30 2707 C 262.072 1.72926 0.19302 0
M  V30 2708 O 263.248 2.01385 0.0244895 0
M  V30 2709 C 260.313 3.45482 -0.290333 0
M  V30 2710 C 259.374 4.06985 -1.36607 0
M  V30 2711 C 258.607 5.26726 -0.859975 0
M  V30 2712 O 258.83 5.69594 0.303082 0
M  V30 2713 O 257.764 5.7931 -1.63351 0
M  V30 2714 H 261.59 2.48781 -1.74189 0
M  V30 2715 H 259.175 1.18496 -0.909894 0
M  V30 2716 H 261.057 4.214 0.000674022 0
M  V30 2717 H 259.732 3.18047 0.602306 0
M  V30 2718 H 258.639 3.32712 -1.71037 0
M  V30 2719 H 259.972 4.38643 -2.23279 0
M  V30 2720 N 261.624 0.925811 1.2754 0
M  V30 2721 C 262.556 0.380753 2.26015 0
M  V30 2722 C 263.569 -0.487485 1.5533 0
M  V30 2723 O 264.758 -0.300413 1.75954 0
M  V30 2724 C 261.858 -0.473259 3.35579 0
M  V30 2725 C 261.031 0.375249 4.35787 0
M  V30 2726 C 260.09 -0.415809 5.24555 0
M  V30 2727 O 259.116 0.175834 5.68928 0
M  V30 2728 N 260.318 -1.71607 5.54555 0
M  V30 2729 H 263.083 1.22725 2.73421 0
M  V30 2730 H 260.644 0.793037 1.41147 0
M  V30 2731 H 262.636 -1.00949 3.91907 0
M  V30 2732 H 261.206 -1.2205 2.87789 0
M  V30 2733 H 260.426 1.09279 3.7875 0
M  V30 2734 H 261.714 0.955399 4.99749 0
M  V30 2735 H 261.112 -2.2191 5.20358 0
M  V30 2736 H 259.669 -2.19887 6.1359 0
M  V30 2737 N 263.102 -1.41638 0.69111 0
M  V30 2738 C 264.034 -2.29194 -0.0161523 0
M  V30 2739 C 265.047 -1.44549 -0.748955 0
M  V30 2740 O 266.236 -1.681 -0.6004 0
M  V30 2741 C 263.336 -3.22325 -1.0469 0
M  V30 2742 C 262.509 -4.35706 -0.384621 0
M  V30 2743 C 261.568 -5.09443 -1.31737 0
M  V30 2744 O 260.594 -5.63386 -0.811451 0
M  V30 2745 N 261.796 -5.16487 -2.64993 0
M  V30 2746 H 264.561 -2.90534 0.735523 0
M  V30 2747 H 262.122 -1.52742 0.53679 0
M  V30 2748 H 264.114 -3.68522 -1.67252 0
M  V30 2749 H 262.684 -2.62323 -1.70015 0
M  V30 2750 H 261.904 -3.91948 0.420804 0
M  V30 2751 H 263.192 -5.08743 0.0760765 0
M  V30 2752 H 262.59 -4.741 -3.08619 0
M  V30 2753 H 261.147 -5.66276 -3.22761 0
M  V30 2754 N 264.58 -0.43555 -1.51462 0
M  V30 2755 C 265.51 0.367376 -2.30592 0
M  V30 2756 C 266.491 1.02263 -1.35928 0
M  V30 2757 O 267.676 1.02661 -1.64847 0
M  V30 2758 C 264.806 1.46983 -3.14664 0
M  V30 2759 C 263.76 0.938161 -4.17591 0
M  V30 2760 C 263.086 2.13622 -4.90173 0
M  V30 2761 C 264.386 -0.0261621 -5.22293 0
M  V30 2762 H 266.08 -0.292969 -2.97963 0
M  V30 2763 H 263.626 -0.14234 -1.43295 0
M  V30 2764 H 265.579 2.03873 -3.688 0
M  V30 2765 H 264.303 2.15843 -2.4511 0
M  V30 2766 H 262.962 0.391481 -3.64504 0
M  V30 2767 H 262.61 2.81098 -4.17124 0
M  V30 2768 H 262.31 1.78688 -5.59772 0
M  V30 2769 H 263.834 2.7107 -5.47132 0
M  V30 2770 H 265.248 0.452384 -5.71512 0
M  V30 2771 H 263.645 -0.287992 -5.99409 0
M  V30 2772 H 264.715 -0.963391 -4.75233 0
M  V30 2773 N 266.058 1.56714 -0.166846 0
M  V30 2774 C 267.307 1.95922 0.479318 0
M  V30 2775 C 267.62 1.05529 1.6469 0
M  V30 2776 O 268.826 1.34399 2.35901 0
M  V30 2777 C 267.282 3.48359 0.90412 0
M  V30 2778 C 266.89 4.47369 -0.237621 0
M  V30 2779 C 268.634 3.96394 1.51896 0
M  V30 2780 C 266.541 5.91039 0.206561 0
M  V30 2781 H 265.471 0.731495 0.18284 0
M  V30 2782 H 268.122 1.81728 -0.254363 0
M  V30 2783 H 266.504 3.57955 1.69365 0
M  V30 2784 H 267.678 4.49485 -1.01489 0
M  V30 2785 H 265.993 4.09366 -0.762128 0
M  V30 2786 H 268.59 5.01186 1.86325 0
M  V30 2787 H 268.933 3.39075 2.41524 0
M  V30 2788 H 269.466 3.89796 0.79395 0
M  V30 2789 H 266.205 6.52221 -0.654834 0
M  V30 2790 H 265.725 5.9224 0.949282 0
M  V30 2791 H 267.404 6.43707 0.651939 0
M  V30 2792 N 267.536 -0.106894 1.57237 0
M  V30 2793 C 268.446 -1.14911 2.0453 0
M  V30 2794 C 269.462 -1.44592 0.96795 0
M  V30 2795 O 270.638 -1.55468 1.2803 0
M  V30 2796 C 267.703 -2.45272 2.45036 0
M  V30 2797 C 266.764 -2.22879 3.66911 0
M  V30 2798 C 265.997 -3.47024 4.05475 0
M  V30 2799 O 266.22 -4.54804 3.44252 0
M  V30 2800 O 265.154 -3.3731 4.98504 0
M  V30 2801 H 268.98 -0.777461 2.9358 0
M  V30 2802 H 266.565 -0.318563 1.45964 0
M  V30 2803 H 268.447 -3.22055 2.71769 0
M  V30 2804 H 267.122 -2.81886 1.59129 0
M  V30 2805 H 266.029 -1.43915 3.45311 0
M  V30 2806 H 267.362 -1.91163 4.53561 0
M  V30 2807 N 269.014 -1.53014 -0.377408 0
M  V30 2808 C 269.977 -1.77957 -1.44444 0
M  V30 2809 C 270.977 -0.649763 -1.47087 0
M  V30 2810 O 272.167 -0.917897 -1.48055 0
M  V30 2811 C 269.299 -1.89089 -2.83651 0
M  V30 2812 H 270.492 -2.73243 -1.23606 0
M  V30 2813 H 268.045 -1.43912 -0.609844 0
M  V30 2814 H 268.78 -0.958293 -3.09818 0
M  V30 2815 H 268.565 -2.71254 -2.83132 0
M  V30 2816 H 270.055 -2.1002 -3.60945 0
M  V30 2817 N 270.492 0.636531 -1.44174 0
M  V30 2818 C 271.74 1.39343 -1.46383 0
M  V30 2819 C 272.061 1.94766 -0.0955715 0
M  V30 2820 O 271.331 1.75452 0.871395 0
M  V30 2821 H 269.911 0.517199 -0.538994 0
M  V30 2822 H 272.573 0.74957 -1.7991 0
M  V30 2823 H 271.669 2.22746 -2.18611 0
M  V30 2824 N 271.97 1.30982 0.876444 0
M  V30 2825 C 273.2 1.23063 1.65949 0
M  V30 2826 C 273.608 -0.207537 1.88058 0
M  V30 2827 O 272.951 -1.14781 1.43426 0
M  V30 2828 C 273.013 1.89768 3.05333 0
M  V30 2829 C 272.677 3.39106 3.0636 0
M  V30 2830 C 273.674 4.3496 2.84791 0
M  V30 2831 C 271.359 3.80693 3.27686 0
M  V30 2832 C 273.353 5.70375 2.84519 0
M  V30 2833 C 271.04 5.16223 3.27043 0
M  V30 2834 C 272.038 6.10875 3.05485 0
M  V30 2835 O 271.726 7.43928 3.04674 0
M  V30 2836 H 271.458 0.426685 0.524324 0
M  V30 2837 H 274.012 1.7329 1.10271 0
M  V30 2838 H 272.242 1.34082 3.6271 0
M  V30 2839 H 273.931 1.75853 3.65829 0
M  V30 2840 H 274.697 4.0416 2.68103 0
M  V30 2841 H 270.576 3.07457 3.43499 0
M  V30 2842 H 274.12 6.44228 2.67611 0
M  V30 2843 H 270.017 5.4666 3.43269 0
M  V30 2844 H 270.785 7.53022 3.2078 0
M  V30 2845 N 273.449 -1.08991 1.13837 0
M  V30 2846 C 274.674 -1.85551 0.926585 0
M  V30 2847 C 275.099 -1.80782 -0.519566 0
M  V30 2848 O 274.457 -1.18855 -1.36906 0
M  V30 2849 C 274.505 -3.31266 1.42462 0
M  V30 2850 O 273.609 -4.07822 0.612789 0
M  V30 2851 H 272.95 -0.575192 0.331738 0
M  V30 2852 H 275.48 -1.37604 1.51414 0
M  V30 2853 H 275.49 -3.82112 1.43019 0
M  V30 2854 H 274.165 -3.34052 2.47754 0
M  V30 2855 H 272.742 -3.66731 0.675463 0
M  V30 2856 N 274.927 -0.932562 -1.27047 0
M  V30 2857 C 276.343 -0.633544 -1.46487 0
M  V30 2858 C 276.543 0.815746 -1.84249 0
M  V30 2859 O 275.599 1.59319 -1.95892 0
M  V30 2860 C 276.912 -1.58758 -2.55375 0
M  V30 2861 C 278.46 -1.59634 -2.69232 0
M  V30 2862 C 278.935 -2.53747 -3.81283 0
M  V30 2863 N 280.426 -2.51982 -3.88664 0
M  V30 2864 C 281.161 -3.21491 -4.74796 0
M  V30 2865 N 280.657 -4.00395 -5.65381 0
M  V30 2866 N 282.45 -3.10485 -4.68568 0
M  V30 2867 H 274.601 -1.86946 -1.00821 0
M  V30 2868 H 276.864 -0.802897 -0.504044 0
M  V30 2869 H 276.57 -2.62172 -2.34432 0
M  V30 2870 H 276.444 -1.33301 -3.52861 0
M  V30 2871 H 278.831 -0.569488 -2.89553 0
M  V30 2872 H 278.912 -1.89142 -1.72218 0
M  V30 2873 H 278.556 -3.56545 -3.61715 0
M  V30 2874 H 278.486 -2.21532 -4.77735 0
M  V30 2875 H 280.977 -1.94681 -3.23895 0
M  V30 2876 H 281.29 -4.50406 -6.27976 0
M  V30 2877 H 279.635 -4.04498 -5.65161 0
M  V30 2878 H 282.826 -2.48331 -3.96799 0
M  V30 2879 H 282.999 -3.64925 -5.35475 0
M  V30 2880 N 276.405 1.4127 -0.698611 0
M  V30 2881 C 277.682 1.94955 -0.158762 0
M  V30 2882 C 278.062 1.63781 1.33188 0
M  V30 2883 O 277.41 0.946423 2.07979 0
M  V30 2884 C 277.62 3.46044 -0.453309 0
M  V30 2885 C 278.968 4.22872 -0.382707 0
M  V30 2886 O 279.992 3.54076 -0.388396 0
M  V30 2887 O 278.851 5.45407 -0.345463 0
M  V30 2888 H 275.945 0.82683 -0.0167505 0
M  V30 2889 H 278.491 1.50971 -0.77498 0
M  V30 2890 H 277.263 3.62028 -1.48498 0
M  V30 2891 H 276.886 3.97128 0.19373 0
M  V30 2892 N 277.883 0.443576 1.51229 0
M  V30 2893 C 278.793 -0.370721 2.31652 0
M  V30 2894 C 279.809 -1.02186 1.40833 0
M  V30 2895 O 280.985 -1.01586 1.73903 0
M  V30 2896 C 278.05 -1.45376 3.14749 0
M  V30 2897 C 277.111 -0.822099 4.21355 0
M  V30 2898 C 276.344 -1.85353 5.0048 0
M  V30 2899 O 276.567 -3.07656 4.80316 0
M  V30 2900 O 275.501 -1.4406 5.84406 0
M  V30 2901 H 279.327 0.286002 3.0235 0
M  V30 2902 H 276.912 0.20598 1.47973 0
M  V30 2903 H 278.794 -2.08173 3.66391 0
M  V30 2904 H 277.469 -2.09445 2.46809 0
M  V30 2905 H 276.376 -0.155909 3.73775 0
M  V30 2906 H 277.709 -0.224797 4.91686 0
M  V30 2907 N 279.361 -1.56624 0.175154 0
M  V30 2908 C 280.608 -1.96999 -0.468811 0
M  V30 2909 C 280.936 -1.06129 -1.62994 0
M  V30 2910 O 280.191 -0.0961771 -1.95464 0
M  V30 2911 C 280.49 -3.43419 -0.989864 0
M  V30 2912 C 280.156 -4.50866 0.0557687 0
M  V30 2913 C 278.818 -4.79975 0.343134 0
M  V30 2914 C 281.17 -5.15551 0.765308 0
M  V30 2915 C 278.498 -5.71066 1.34536 0
M  V30 2916 C 280.85 -6.07724 1.75654 0
M  V30 2917 C 279.514 -6.35199 2.05132 0
M  V30 2918 H 278.784 -0.720869 -0.17155 0
M  V30 2919 H 281.431 -1.89616 0.267924 0
M  V30 2920 H 279.736 -3.47772 -1.80449 0
M  V30 2921 H 281.433 -3.72002 -1.49719 0
M  V30 2922 H 278.023 -4.28229 -0.178381 0
M  V30 2923 H 282.207 -4.9317 0.556513 0
M  V30 2924 H 277.463 -5.90635 1.57988 0
M  V30 2925 H 281.637 -6.56912 2.31169 0
M  V30 2926 H 279.264 -7.05584 2.8294 0
M  V30 2927 N 280.839 0.0985539 -1.57292 0
M  V30 2928 C 281.769 1.12064 -2.04851 0
M  V30 2929 C 282.75 1.41981 -0.936767 0
M  V30 2930 O 283.935 1.52071 -1.20781 0
M  V30 2931 C 281.065 2.44144 -2.47004 0
M  V30 2932 C 280.019 2.28643 -3.6181 0
M  V30 2933 C 279.345 3.65869 -3.89929 0
M  V30 2934 C 280.645 1.72986 -4.92822 0
M  V30 2935 H 282.339 0.724979 -2.9049 0
M  V30 2936 H 279.885 0.34729 -1.39749 0
M  V30 2937 H 281.838 3.15914 -2.78884 0
M  V30 2938 H 280.562 2.85639 -1.5836 0
M  V30 2939 H 279.221 1.59318 -3.30172 0
M  V30 2940 H 278.869 4.04885 -2.98458 0
M  V30 2941 H 278.569 3.56344 -4.67218 0
M  V30 2942 H 280.093 4.39112 -4.2428 0
M  V30 2943 H 281.507 2.34593 -5.23105 0
M  V30 2944 H 279.904 1.74229 -5.74251 0
M  V30 2945 H 280.974 0.689007 -4.7998 0
M  V30 2946 N 282.317 1.53212 0.369288 0
M  V30 2947 C 283.247 1.82365 1.45826 0
M  V30 2948 C 284.228 0.676907 1.56051 0
M  V30 2949 O 285.413 0.926401 1.70679 0
M  V30 2950 C 282.543 2.01023 2.83208 0
M  V30 2951 C 281.497 3.1678 2.8781 0
M  V30 2952 C 280.823 3.20724 4.27832 0
M  V30 2953 C 282.123 4.55447 2.55667 0
M  V30 2954 H 283.817 2.73559 1.21678 0
M  V30 2955 H 281.363 1.3163 0.583911 0
M  V30 2956 H 283.316 2.20001 3.59413 0
M  V30 2957 H 282.04 1.06536 3.08736 0
M  V30 2958 H 280.699 2.97616 2.14056 0
M  V30 2959 H 280.347 2.23882 4.50429 0
M  V30 2960 H 280.047 3.98496 4.31827 0
M  V30 2961 H 281.571 3.41881 5.05915 0
M  V30 2962 H 282.985 4.74611 3.21586 0
M  V30 2963 H 281.382 5.35432 2.70984 0
M  V30 2964 H 282.452 4.60812 1.5093 0
M  V30 2965 N 283.795 -0.628877 1.44509 0
M  V30 2966 C 284.758 -1.72263 1.51188 0
M  V30 2967 C 285.758 -1.55907 0.39367 0
M  V30 2968 O 286.948 -1.61361 0.656377 0
M  V30 2969 C 284.08 -3.11365 1.38798 0
M  V30 2970 H 285.273 -1.67714 2.4862 0
M  V30 2971 H 282.826 -0.842737 1.31634 0
M  V30 2972 H 283.561 -3.21507 0.424693 0
M  V30 2973 H 283.346 -3.24644 2.19884 0
M  V30 2974 H 284.836 -3.91075 1.46458 0
M  V30 2975 N 285.273 -1.31445 -0.869486 0
M  V30 2976 C 286.501 -1.24122 -1.65534 0
M  V30 2977 C 286.916 0.193387 -1.87807 0
M  V30 2978 O 286.273 1.12557 -1.43656 0
M  V30 2979 C 286.324 -1.98229 -3.02304 0
M  V30 2980 O 286.045 -3.3609 -2.81026 0
M  V30 2981 C 287.546 -1.97751 -3.96749 0
M  V30 2982 H 284.766 -0.428868 -0.516055 0
M  V30 2983 H 287.31 -1.73328 -1.08525 0
M  V30 2984 H 285.465 -1.52782 -3.56001 0
M  V30 2985 H 285.879 -3.7383 -3.67902 0
M  V30 2986 H 287.353 -2.54114 -4.90031 0
M  V30 2987 H 287.83 -0.960137 -4.28577 0
M  V30 2988 H 288.436 -2.43079 -3.48988 0
M  V30 2989 N 286.751 1.08385 -1.14413 0
M  V30 2990 C 288.028 1.77429 -0.823297 0
M  V30 2991 C 288.408 1.9974 0.683163 0
M  V30 2992 O 287.756 1.60739 1.62405 0
M  V30 2993 C 287.966 3.09004 -1.62227 0
M  V30 2994 C 289.314 3.83532 -1.82177 0
M  V30 2995 O 290.338 3.18786 -1.58915 0
M  V30 2996 O 289.197 4.99792 -2.21067 0
M  V30 2997 H 286.291 0.769999 -0.301712 0
M  V30 2998 H 288.837 1.14846 -1.24934 0
M  V30 2999 H 287.609 2.88316 -2.64555 0
M  V30 3000 H 287.232 3.79316 -1.19187 0
M  V30 3001 N 288.23 0.939286 1.26551 0
M  V30 3002 C 289.458 0.602536 1.97932 0
M  V30 3003 C 289.873 -0.82206 1.69964 0
M  V30 3004 O 289.23 -1.54789 0.966784 0
M  V30 3005 C 289.281 0.832946 3.51773 0
M  V30 3006 O 289.002 2.20151 3.78768 0
M  V30 3007 C 290.503 0.506483 4.40397 0
M  V30 3008 H 287.723 0.227248 0.631347 0
M  V30 3009 H 290.267 1.25948 1.61113 0
M  V30 3010 H 288.422 0.222644 3.8676 0
M  V30 3011 H 288.836 2.26013 4.73306 0
M  V30 3012 H 290.31 0.718333 5.47306 0
M  V30 3013 H 290.787 -0.558451 4.35635 0
M  V30 3014 H 291.393 1.09543 4.10951 0
M  V30 3015 N 289.708 -1.40897 0.706093 0
M  V30 3016 C 290.671 -2.29131 0.0562841 0
M  V30 3017 C 291.671 -1.44901 -0.697166 0
M  V30 3018 O 292.861 -1.65926 -0.530484 0
M  V30 3019 C 289.993 -3.27957 -0.93043 0
M  V30 3020 H 291.186 -2.88091 0.833284 0
M  V30 3021 H 288.739 -1.4906 0.470192 0
M  V30 3022 H 289.474 -2.73997 -1.73482 0
M  V30 3023 H 289.259 -3.90124 -0.393166 0
M  V30 3024 H 290.749 -3.94049 -1.38256 0
M  V30 3025 N 291.186 -0.45159 -1.50991 0
M  V30 3026 C 292.119 0.398179 -2.24699 0
M  V30 3027 C 293.097 1.01276 -1.27208 0
M  V30 3028 O 294.281 1.05247 -1.56382 0
M  V30 3029 C 291.408 1.55618 -3.00833 0
M  V30 3030 C 290.454 1.0609 -4.13095 0
M  V30 3031 S 291.287 -0.00865136 -5.35499 0
M  V30 3032 C 292.443 1.15369 -6.15175 0
M  V30 3033 H 292.676 -0.227555 -2.96428 0
M  V30 3034 H 290.209 -0.236251 -1.52582 0
M  V30 3035 H 292.167 2.21997 -3.45293 0
M  V30 3036 H 290.828 2.15337 -2.28667 0
M  V30 3037 H 290.021 1.92726 -4.65696 0
M  V30 3038 H 289.623 0.47513 -3.7097 0
M  V30 3039 H 291.915 2.06925 -6.45126 0
M  V30 3040 H 292.858 0.667344 -7.04948 0
M  V30 3041 H 293.266 1.3987 -5.46897 0
M  V30 3042 N 292.664 1.56529 -0.183458 0
M  V30 3043 C 293.91 1.97537 0.459036 0
M  V30 3044 C 294.243 1.06989 1.62071 0
M  V30 3045 O 293.518 0.11948 1.94133 0
M  V30 3046 C 293.801 3.47874 0.930368 0
M  V30 3047 C 293.654 4.492 -0.232317 0
M  V30 3048 C 294.973 4.01612 1.79989 0
M  V30 3049 H 292.092 0.718204 0.165383 0
M  V30 3050 H 294.734 1.88042 -0.272038 0
M  V30 3051 H 292.884 3.56095 1.55333 0
M  V30 3052 H 294.556 4.53027 -0.86972 0
M  V30 3053 H 292.799 4.24657 -0.885928 0
M  V30 3054 H 293.47 5.51823 0.139796 0
M  V30 3055 H 295.946 3.96097 1.27461 0
M  V30 3056 H 294.822 5.07195 2.09867 0
M  V30 3057 H 295.083 3.46163 2.74998 0
M  V30 3058 N 294.142 -0.090211 1.57342 0
M  V30 3059 C 295.388 -0.793982 1.86611 0
M  V30 3060 C 295.721 -1.78142 0.773252 0
M  V30 3061 O 294.996 -1.93271 -0.218304 0
M  V30 3062 C 295.279 -1.51839 3.26523 0
M  V30 3063 C 295.132 -0.548609 4.46442 0
M  V30 3064 C 296.451 -2.46779 3.64401 0
M  V30 3065 H 293.57 -0.287186 0.678744 0
M  V30 3066 H 296.212 -0.0575076 1.89913 0
M  V30 3067 H 294.362 -2.14617 3.23839 0
M  V30 3068 H 296.034 0.0725513 4.61243 0
M  V30 3069 H 294.277 0.137614 4.33582 0
M  V30 3070 H 294.948 -1.09271 5.41076 0
M  V30 3071 H 297.424 -1.94089 3.68061 0
M  V30 3072 H 296.3 -2.94479 4.63221 0
M  V30 3073 H 296.561 -3.30758 2.93346 0
M  V30 3074 N 295.62 -1.53406 -0.361157 0
M  V30 3075 C 297.031 -1.61442 -0.937728 0
M  V30 3076 C 297.382 -0.48461 -1.90121 0
M  V30 3077 O 296.507 0.388312 -2.12888 0
M  V30 3078 C 297.102 -2.92624 -1.70753 0
M  V30 3079 C 295.661 -3.02981 -2.23337 0
M  V30 3080 C 294.808 -2.5677 -1.04712 0
M  V30 3081 H 297.759 -1.58083 -0.139816 0
M  V30 3082 H 297.78 -2.80675 -2.56908 0
M  V30 3083 H 297.292 -3.74834 -1.00604 0
M  V30 3084 H 295.393 -2.25368 -2.96715 0
M  V30 3085 H 295.506 -4.0814 -2.50916 0
M  V30 3086 H 293.87 -2.11752 -1.41539 0
M  V30 3087 H 294.653 -3.41402 -0.360539 0
M  V30 3088 N 297.098 0.621204 -1.44841 0
M  V30 3089 C 298.344 1.3826 -1.48365 0
M  V30 3090 C 298.677 1.93831 -0.119624 0
M  V30 3091 O 297.952 1.74251 0.864111 0
M  V30 3092 C 298.235 2.54058 -2.55199 0
M  V30 3093 C 298.088 2.03772 -4.00995 0
M  V30 3094 C 299.407 3.56225 -2.58442 0
M  V30 3095 H 296.526 0.501374 -0.540179 0
M  V30 3096 H 299.168 0.7015 -1.76576 0
M  V30 3097 H 297.318 3.12162 -2.31274 0
M  V30 3098 H 298.99 1.50423 -4.36086 0
M  V30 3099 H 297.233 1.34876 -4.12299 0
M  V30 3100 H 297.904 2.87185 -4.71411 0
M  V30 3101 H 300.38 3.07939 -2.79844 0
M  V30 3102 H 299.256 4.34756 -3.3508 0
M  V30 3103 H 299.517 4.10949 -1.63013 0
M  V30 3104 N 298.576 1.31904 0.862503 0
M  V30 3105 C 299.524 1.20125 1.9918 0
M  V30 3106 C 300.518 0.107824 1.69056 0
M  V30 3107 O 301.724 0.270223 1.7796 0
M  V30 3108 H 298.099 0.372148 0.65346 0
M  V30 3109 H 300.07 2.15652 2.06244 0
M  V30 3110 C 298.819 0.933099 3.34946 0
M  V30 3111 H 298.142 1.76664 3.5865 0
M  V30 3112 H 299.582 0.890892 4.14535 0
M  V30 3113 C 298.041 -0.364172 3.34926 0
M  V30 3114 O 298.571 -1.37858 3.77304 0
M  V30 3115 N 296.777 -0.383362 2.8806 0
M  V30 3116 H 296.324 0.442651 2.53768 0
M  V30 3117 H 296.282 -1.25123 2.8843 0
M  V30 3118 N 300.054 -1.07777 1.14986 0
M  V30 3119 C 301.001 -2.14867 0.842672 0
M  V30 3120 C 301.971 -1.6486 -0.202552 0
M  V30 3121 O 303.156 -1.90668 -0.0710568 0
M  V30 3122 C 300.296 -3.43486 0.333363 0
M  V30 3123 C 299.409 -4.07306 1.43965 0
M  V30 3124 C 298.544 -5.23744 0.886914 0
M  V30 3125 C 297.583 -5.79517 1.97043 0
M  V30 3126 N 296.72 -6.87291 1.4344 0
M  V30 3127 H 301.56 -2.40485 1.75986 0
M  V30 3128 H 299.097 -1.1801 0.878179 0
M  V30 3129 H 301.055 -4.17195 0.0198163 0
M  V30 3130 H 299.685 -3.18133 -0.546916 0
M  V30 3131 H 298.737 -3.31293 1.86946 0
M  V30 3132 H 300.049 -4.44771 2.25788 0
M  V30 3133 H 299.203 -6.04419 0.525651 0
M  V30 3134 H 297.942 -4.87685 0.0377957 0
M  V30 3135 H 296.947 -4.97491 2.34057 0
M  V30 3136 H 298.172 -6.17632 2.82325 0
M  V30 3137 H 296.118 -6.5318 0.607567 0
M  V30 3138 H 296.035 -7.23617 2.18895 0
M  V30 3139 H 297.303 -7.71682 1.10124 0
M  V30 3140 N 301.532 -0.945985 -1.26051 0
M  V30 3141 C 302.76 -0.613025 -1.9761 0
M  V30 3142 C 303.175 0.813035 -1.70397 0
M  V30 3143 O 302.532 1.54274 -0.974979 0
M  V30 3144 C 302.583 -0.85159 -3.51326 0
M  V30 3145 O 302.304 -2.22157 -3.77595 0
M  V30 3146 C 303.805 -0.529831 -4.40122 0
M  V30 3147 H 301.025 -0.230593 -0.630133 0
M  V30 3148 H 303.569 -1.268 -1.60443 0
M  V30 3149 H 301.724 -0.243151 -3.86636 0
M  V30 3150 H 302.138 -2.2852 -4.721 0
M  V30 3151 H 303.612 -0.747348 -5.46917 0
M  V30 3152 H 304.089 0.535341 -4.35925 0
M  V30 3153 H 304.695 -1.11721 -4.10364 0
M  V30 3154 N 303.011 1.40521 -0.713556 0
M  V30 3155 C 304.257 2.01221 -0.252564 0
M  V30 3156 C 304.59 1.56444 1.1506 0
M  V30 3157 O 303.865 0.783597 1.78017 0
M  V30 3158 C 304.148 3.58582 -0.330332 0
M  V30 3159 C 304.001 4.13437 -1.77173 0
M  V30 3160 C 305.32 4.39079 0.299641 0
M  V30 3161 H 302.439 0.731077 -0.0932471 0
M  V30 3162 H 305.081 1.67026 -0.905673 0
M  V30 3163 H 303.231 3.87844 0.225737 0
M  V30 3164 H 304.903 3.9498 -2.38303 0
M  V30 3165 H 303.146 3.67801 -2.3001 0
M  V30 3166 H 303.817 5.22597 -1.77755 0
M  V30 3167 H 306.293 4.15735 -0.174139 0
M  V30 3168 H 305.169 5.4848 0.214771 0
M  V30 3169 H 305.43 4.19915 1.38288 0
M  V30 3170 N 304.489 0.459591 1.5075 0
M  V30 3171 C 305.735 -0.0994966 2.02556 0
M  V30 3172 C 306.068 -1.40399 1.3417 0
M  V30 3173 O 305.343 -1.88892 0.463683 0
M  V30 3174 C 305.626 -0.295242 3.58888 0
M  V30 3175 C 305.479 1.02947 4.37861 0
M  V30 3176 C 306.798 -1.05502 4.27267 0
M  V30 3177 H 303.917 -0.034686 0.736183 0
M  V30 3178 H 306.559 0.602938 1.8018 0
M  V30 3179 H 304.709 -0.893563 3.78084 0
M  V30 3180 H 306.381 1.66348 4.30263 0
M  V30 3181 H 304.624 1.62885 4.02058 0
M  V30 3182 H 305.295 0.846281 5.45474 0
M  V30 3183 H 307.771 -0.547993 4.12476 0
M  V30 3184 H 306.647 -1.16077 5.36486 0
M  V30 3185 H 306.908 -2.08875 3.89645 0
M  V30 3186 N 305.967 -1.56429 0.191757 0
M  V30 3187 C 307.213 -1.97777 -0.448554 0
M  V30 3188 C 307.546 -1.07847 -1.61501 0
M  V30 3189 O 306.821 -0.129774 -1.94067 0
M  V30 3190 C 307.104 -3.48362 -0.911906 0
M  V30 3191 C 306.957 -4.4907 0.256136 0
M  V30 3192 C 308.276 -4.02561 -1.77857 0
M  V30 3193 H 305.395 -0.719071 -0.161572 0
M  V30 3194 H 308.037 -1.87896 0.282007 0
M  V30 3195 H 306.187 -3.56914 -1.53442 0
M  V30 3196 H 307.859 -4.5256 0.893733 0
M  V30 3197 H 306.102 -4.24181 0.908436 0
M  V30 3198 H 306.773 -5.51889 -0.11053 0
M  V30 3199 H 309.249 -3.96767 -1.25359 0
M  V30 3200 H 308.125 -5.08301 -2.07174 0
M  V30 3201 H 308.386 -3.47616 -2.73158 0
M  V30 3202 N 307.445 0.0818655 -1.57387 0
M  V30 3203 C 308.377 1.12484 -1.997 0
M  V30 3204 C 309.39 1.35564 -0.90146 0
M  V30 3205 O 310.579 1.33982 -1.17945 0
M  V30 3206 C 307.679 2.47778 -2.31213 0
M  V30 3207 C 306.852 2.44793 -3.62485 0
M  V30 3208 C 305.911 3.62117 -3.81782 0
M  V30 3209 O 304.937 3.44005 -4.53486 0
M  V30 3210 N 306.139 4.82094 -3.23367 0
M  V30 3211 H 308.904 0.764585 -2.89783 0
M  V30 3212 H 306.465 0.270664 -1.59621 0
M  V30 3213 H 308.457 3.24891 -2.41304 0
M  V30 3214 H 307.027 2.75843 -1.4707 0
M  V30 3215 H 306.247 1.53134 -3.6324 0
M  V30 3216 H 307.535 2.39889 -4.48699 0
M  V30 3217 H 306.933 4.99713 -2.65148 0
M  V30 3218 H 305.49 5.56753 -3.38923 0
M  V30 3219 N 308.923 1.53595 0.353017 0
M  V30 3220 C 310.169 1.70638 1.09593 0
M  V30 3221 C 310.502 0.463286 1.88593 0
M  V30 3222 O 309.777 -0.539597 1.86865 0
M  V30 3223 C 310.06 2.96406 2.04489 0
M  V30 3224 C 309.913 4.30901 1.29014 0
M  V30 3225 C 311.232 3.17812 3.0444 0
M  V30 3226 H 308.351 0.620913 0.397034 0
M  V30 3227 H 310.993 1.86254 0.375446 0
M  V30 3228 H 309.143 2.83223 2.65927 0
M  V30 3229 H 310.815 4.55917 0.702638 0
M  V30 3230 H 309.058 4.29741 0.592071 0
M  V30 3231 H 309.729 5.1506 1.98537 0
M  V30 3232 H 312.205 3.30263 2.53112 0
M  V30 3233 H 311.081 4.07223 3.6805 0
M  V30 3234 H 311.342 2.33669 3.75301 0
M  V30 3235 N 310.401 -0.613514 1.45168 0
M  V30 3236 C 311.629 -1.39946 1.5239 0
M  V30 3237 C 312.044 -1.88167 0.154531 0
M  V30 3238 O 311.401 -1.61872 -0.842843 0
M  V30 3239 C 311.452 -2.60795 2.50337 0
M  V30 3240 O 311.173 -2.1458 3.81952 0
M  V30 3241 C 312.674 -3.53723 2.67198 0
M  V30 3242 H 309.894 -0.428593 0.516284 0
M  V30 3243 H 312.438 -0.748753 1.903 0
M  V30 3244 H 310.593 -3.21919 2.15515 0
M  V30 3245 H 311.007 -2.93055 4.34993 0
M  V30 3246 H 312.481 -4.35079 3.39721 0
M  V30 3247 H 312.958 -4.0368 1.73029 0
M  V30 3248 H 313.564 -2.98456 3.02992 0
M  V30 3249 N 311.879 -1.3236 -0.855495 0
M  V30 3250 C 313.127 -1.22629 -1.60644 0
M  V30 3251 C 313.448 0.212136 -1.93843 0
M  V30 3252 O 312.718 1.13666 -1.59552 0
M  V30 3253 H 311.298 -0.450882 -0.595579 0
M  V30 3254 H 313.96 -1.65871 -1.02337 0
M  V30 3255 H 313.056 -1.80832 -2.54374 0
M  V30 3256 N 313.357 1.07166 -1.15556 0
M  V30 3257 C 314.32 2.12589 -0.856644 0
M  V30 3258 C 315.32 1.6015 0.14444 0
M  V30 3259 O 316.51 1.7399 -0.0854163 0
M  V30 3260 C 313.642 3.39753 -0.279405 0
M  V30 3261 H 314.835 2.40539 -1.79112 0
M  V30 3262 H 312.388 1.23086 -0.963298 0
M  V30 3263 H 313.123 3.17447 0.663174 0
M  V30 3264 H 312.908 3.79117 -1.00063 0
M  V30 3265 H 314.398 4.17507 -0.0879113 0
M  V30 3266 N 314.835 0.952656 1.25548 0
M  V30 3267 C 316.112 0.523818 1.88456 0
M  V30 3268 C 316.492 -0.998871 1.85973 0
M  V30 3269 O 315.84 -1.86381 1.3219 0
M  V30 3270 C 316.05 1.0982 3.31271 0
M  V30 3271 C 317.398 1.17385 4.08051 0
M  V30 3272 O 318.422 1.04961 3.40384 0
M  V30 3273 O 317.281 1.36852 5.29088 0
M  V30 3274 H 314.375 0.172485 0.808813 0
M  V30 3275 H 316.921 1.04596 1.33633 0
M  V30 3276 H 315.693 2.1415 3.27499 0
M  V30 3277 H 315.316 0.559191 3.93648 0
M  V30 3278 N 316.313 -1.40141 0.720998 0
M  V30 3279 C 317.559 -2.01084 0.263231 0
M  V30 3280 C 317.892 -1.57052 -1.14229 0
M  V30 3281 O 317.167 -0.793027 -1.77599 0
M  V30 3282 C 317.45 -3.58401 0.349344 0
M  V30 3283 C 317.303 -4.12491 1.79363 0
M  V30 3284 C 318.622 -4.39231 -0.276351 0
M  V30 3285 H 315.741 -0.730572 0.0971228 0
M  V30 3286 H 318.383 -1.66543 0.914518 0
M  V30 3287 H 316.533 -3.87958 -0.205165 0
M  V30 3288 H 318.205 -3.93711 2.40394 0
M  V30 3289 H 316.448 -3.66576 2.31958 0
M  V30 3290 H 317.119 -5.21646 1.80524 0
M  V30 3291 H 319.595 -4.15637 0.196184 0
M  V30 3292 H 318.471 -5.48586 -0.185681 0
M  V30 3293 H 318.732 -4.20643 -1.36059 0
M  V30 3294 N 317.792 -0.46758 -1.50504 0
M  V30 3295 C 319.041 0.0902868 -2.01498 0
M  V30 3296 C 319.354 1.411 -1.35463 0
M  V30 3297 O 320.56 2.0536 -1.77594 0
M  V30 3298 C 319.016 0.21142 -3.59278 0
M  V30 3299 C 318.624 -1.10065 -4.34269 0
M  V30 3300 C 320.368 0.721433 -4.18325 0
M  V30 3301 C 318.275 -0.943505 -5.83825 0
M  V30 3302 H 317.205 0.037517 -0.753066 0
M  V30 3303 H 319.856 -0.601943 -1.73346 0
M  V30 3304 H 318.238 0.967352 -3.84003 0
M  V30 3305 H 319.412 -1.86726 -4.21272 0
M  V30 3306 H 317.727 -1.5415 -3.86816 0
M  V30 3307 H 320.324 0.85598 -5.27804 0
M  V30 3308 H 320.667 1.71186 -3.79475 0
M  V30 3309 H 321.2 0.0229843 -3.97793 0
M  V30 3310 H 317.939 -1.90719 -6.27141 0
M  V30 3311 H 317.459 -0.217213 -5.99407 0
M  V30 3312 H 319.138 -0.608715 -6.4413 0
M  V30 3313 N 319.27 1.56325 -0.20005 0
M  V30 3314 C 320.22 2.15939 0.731743 0
M  V30 3315 C 321.204 1.10154 1.17281 0
M  V30 3316 O 322.396 1.36203 1.13038 0
M  V30 3317 C 319.525 2.82614 1.94895 0
M  V30 3318 C 318.611 3.95596 1.52855 0
M  V30 3319 N 319.002 4.99118 0.819418 0
M  V30 3320 C 317.3 4.07288 1.81748 0
M  V30 3321 C 318.001 5.78513 0.608053 0
M  V30 3322 N 316.977 5.31117 1.15828 0
M  V30 3323 H 320.779 2.9334 0.181285 0
M  V30 3324 H 318.293 1.624 -0.000452172 0
M  V30 3325 H 320.29 3.23718 2.62702 0
M  V30 3326 H 318.95 2.06702 2.50408 0
M  V30 3327 H 319.961 5.15723 0.47436 0
M  V30 3328 H 316.638 3.42509 2.38734 0
M  V30 3329 H 318.028 6.71885 0.0451619 0
M  V30 3330 N 320.748 -0.0735177 1.57428 0
M  V30 3331 C 321.973 -0.789787 1.91774 0
M  V30 3332 C 322.398 -1.70413 0.796306 0
M  V30 3333 O 321.756 -1.79555 -0.250961 0
M  V30 3334 C 321.804 -1.5609 3.25067 0
M  V30 3335 O 320.908 -2.67144 3.14178 0
M  V30 3336 H 320.249 -0.215582 0.628029 0
M  V30 3337 H 322.779 -0.0422781 2.04556 0
M  V30 3338 H 322.789 -1.94052 3.58898 0
M  V30 3339 H 321.464 -0.890015 4.06265 0
M  V30 3340 H 320.041 -2.32052 2.91901 0
M  V30 3341 N 322.226 -1.5378 -0.344866 0
M  V30 3342 C 323.472 -1.72158 -1.0832 0
M  V30 3343 C 323.827 -0.478218 -1.86362 0
M  V30 3344 O 323.12 0.529152 -1.84148 0
M  V30 3345 C 323.314 -2.92407 -2.05506 0
M  V30 3346 C 323.143 -4.28318 -1.37017 0
M  V30 3347 C 321.913 -4.92832 -1.11558 0
M  V30 3348 C 324.111 -5.08086 -0.797071 0
M  V30 3349 N 322.093 -6.12619 -0.396358 0
M  V30 3350 C 323.464 -6.1965 -0.208336 0
M  V30 3351 C 325.519 -4.92986 -0.697787 0
M  V30 3352 C 324.222 -7.17763 0.470023 0
M  V30 3353 C 326.248 -5.91391 -0.033171 0
M  V30 3354 C 325.61 -7.02292 0.544599 0
M  V30 3355 H 321.709 -0.683017 -0.380805 0
M  V30 3356 H 324.293 -1.91211 -0.366961 0
M  V30 3357 H 322.464 -2.74857 -2.74423 0
M  V30 3358 H 324.196 -2.9951 -2.72169 0
M  V30 3359 H 320.951 -4.52362 -1.40234 0
M  V30 3360 H 321.375 -6.7698 -0.0515119 0
M  V30 3361 H 326.017 -4.07414 -1.13022 0
M  V30 3362 H 323.735 -8.0291 0.914351 0
M  V30 3363 H 327.321 -5.81784 0.0430009 0
M  V30 3364 H 326.201 -7.77129 1.05073 0
M  V30 3365 N 323.704 0.605807 -1.45491 0
M  V30 3366 C 324.932 1.39136 -1.5313 0
M  V30 3367 C 325.347 1.88082 -0.164507 0
M  V30 3368 O 324.704 1.62316 0.834247 0
M  V30 3369 C 324.755 2.59463 -2.51716 0
M  V30 3370 O 324.476 2.12551 -3.83084 0
M  V30 3371 C 325.977 3.52301 -2.6907 0
M  V30 3372 H 323.197 0.425849 -0.51855 0
M  V30 3373 H 325.741 0.73865 -1.90694 0
M  V30 3374 H 323.896 3.20772 -2.17219 0
M  V30 3375 H 324.31 2.90744 -4.36541 0
M  V30 3376 H 325.784 4.33271 -3.42024 0
M  V30 3377 H 326.261 4.02757 -1.75167 0
M  V30 3378 H 326.867 2.96845 -3.04571 0
M  V30 3379 N 325.182 1.32811 0.848464 0
M  V30 3380 C 326.428 1.23907 1.60546 0
M  V30 3381 C 326.761 -0.197161 1.93197 0
M  V30 3382 O 326.036 -1.13596 1.5788 0
M  V30 3383 C 326.319 2.10489 2.92175 0
M  V30 3384 C 326.172 3.62522 2.66266 0
M  V30 3385 C 327.491 1.97075 3.93509 0
M  V30 3386 H 324.61 0.451459 0.58254 0
M  V30 3387 H 327.252 1.62818 0.979296 0
M  V30 3388 H 325.402 1.77434 3.45614 0
M  V30 3389 H 327.074 4.05821 2.19334 0
M  V30 3390 H 325.317 3.84879 2.00126 0
M  V30 3391 H 325.988 4.18437 3.6002 0
M  V30 3392 H 328.464 2.26045 3.49346 0
M  V30 3393 H 327.34 2.59923 4.83457 0
M  V30 3394 H 327.601 0.940186 4.31987 0
M  V30 3395 N 326.66 -1.06551 1.16123 0
M  V30 3396 C 328.071 -1.60768 0.949232 0
M  V30 3397 C 328.422 -1.89523 -0.507508 0
M  V30 3398 O 327.547 -1.66671 -1.38021 0
M  V30 3399 C 328.142 -2.92086 1.71671 0
M  V30 3400 C 326.701 -3.43015 1.54977 0
M  V30 3401 C 325.848 -2.16947 1.72711 0
M  V30 3402 H 328.799 -0.895354 1.31031 0
M  V30 3403 H 328.82 -3.6138 1.19099 0
M  V30 3404 H 328.332 -2.71127 2.7769 0
M  V30 3405 H 326.433 -3.69039 0.513873 0
M  V30 3406 H 326.546 -4.18516 2.33198 0
M  V30 3407 H 324.91 -2.27041 1.15431 0
M  V30 3408 H 325.693 -1.98473 2.80113 0
M  V30 3409 N 328.138 -0.959301 -1.25041 0
M  V30 3410 C 329.101 -0.487677 -2.23952 0
M  V30 3411 C 330.101 0.41119 -1.55454 0
M  V30 3412 O 331.291 0.207825 -1.72956 0
M  V30 3413 C 328.423 0.294807 -3.39623 0
M  V30 3414 H 329.616 -1.36198 -2.67189 0
M  V30 3415 H 327.169 -0.743042 -1.37508 0
M  V30 3416 H 327.904 1.18658 -3.01813 0
M  V30 3417 H 327.689 -0.35012 -3.90534 0
M  V30 3418 H 329.179 0.614089 -4.1306 0
M  V30 3419 N 329.616 1.39756 -0.72842 0
M  V30 3420 C 330.863 2.00645 -0.273487 0
M  V30 3421 C 331.191 1.57786 1.13727 0
M  V30 3422 O 330.446 0.794886 1.7883 0
M  V30 3423 C 330.745 3.56002 -0.315776 0
M  V30 3424 C 330.411 4.18489 -1.67863 0
M  V30 3425 C 329.073 4.3527 -2.05166 0
M  V30 3426 C 331.425 4.53219 -2.57375 0
M  V30 3427 C 328.753 4.84069 -3.31503 0
M  V30 3428 C 331.105 5.03423 -3.83077 0
M  V30 3429 C 329.769 5.18413 -4.20481 0
M  V30 3430 H 329.039 0.734211 -0.100076 0
M  V30 3431 H 331.686 1.6718 -0.933972 0
M  V30 3432 H 329.991 3.89452 0.428285 0
M  V30 3433 H 331.688 4.00963 0.0542575 0
M  V30 3434 H 328.278 4.05824 -1.37858 0
M  V30 3435 H 332.462 4.39878 -2.29827 0
M  V30 3436 H 327.718 4.93859 -3.60435 0
M  V30 3437 H 331.892 5.2927 -4.52599 0
M  V30 3438 H 329.519 5.55987 -5.18443 0
M  V30 3439 N 331.094 0.475555 1.50254 0
M  V30 3440 C 332.342 -0.077738 2.0195 0
M  V30 3441 C 332.663 -1.39813 1.35931 0
M  V30 3442 O 331.933 -1.89249 0.506123 0
M  V30 3443 H 330.513 -0.031719 0.746326 0
M  V30 3444 H 333.175 0.626995 1.84539 0
M  V30 3445 H 332.271 -0.225995 3.11281 0
M  V30 3446 N 332.573 -1.56217 0.208337 0
M  V30 3447 C 333.819 -1.98242 -0.427552 0
M  V30 3448 C 334.152 -1.09554 -1.60348 0
M  V30 3449 O 333.427 -0.15035 -1.93918 0
M  V30 3450 C 333.71 -3.4931 -0.874907 0
M  V30 3451 C 333.563 -4.48773 0.303751 0
M  V30 3452 C 334.882 -4.04424 -1.73577 0
M  V30 3453 H 332.001 -0.720744 -0.153936 0
M  V30 3454 H 334.643 -1.87586 0.30192 0
M  V30 3455 H 332.793 -3.58522 -1.49648 0
M  V30 3456 H 334.465 -4.51586 0.941682 0
M  V30 3457 H 332.708 -4.23194 0.953375 0
M  V30 3458 H 333.379 -5.51976 -0.0519883 0
M  V30 3459 H 335.855 -3.98075 -1.21143 0
M  V30 3460 H 334.731 -5.1047 -2.01771 0
M  V30 3461 H 334.992 -3.50494 -2.69456 0
M  V30 3462 N 334.051 0.0651679 -1.57465 0
M  V30 3463 C 334.998 1.07675 -2.04144 0
M  V30 3464 C 335.968 1.38071 -0.923335 0
M  V30 3465 O 337.153 1.49026 -1.19146 0
M  V30 3466 C 334.293 2.38337 -2.49579 0
M  V30 3467 C 333.406 2.14413 -3.75035 0
M  V30 3468 C 332.541 3.38686 -4.09225 0
M  V30 3469 C 331.58 3.10156 -5.27702 0
M  V30 3470 N 330.717 4.26778 -5.57499 0
M  V30 3471 H 335.557 0.671716 -2.90331 0
M  V30 3472 H 333.094 0.3201 -1.43575 0
M  V30 3473 H 335.052 3.14632 -2.73975 0
M  V30 3474 H 333.682 2.7663 -1.6636 0
M  V30 3475 H 332.734 1.2878 -3.57939 0
M  V30 3476 H 334.046 1.89344 -4.61466 0
M  V30 3477 H 333.2 4.23373 -4.34558 0
M  V30 3478 H 331.939 3.66837 -3.21374 0
M  V30 3479 H 330.944 2.23866 -5.02159 0
M  V30 3480 H 332.169 2.8332 -6.17176 0
M  V30 3481 H 330.115 4.54948 -4.72608 0
M  V30 3482 H 330.032 4.05005 -6.38362 0
M  V30 3483 H 331.3 5.12443 -5.87386 0
M  V30 3484 N 335.529 1.53961 0.336706 0
M  V30 3485 C 336.461 1.78751 1.4346 0
M  V30 3486 C 337.474 0.669019 1.48418 0
M  V30 3487 O 338.663 0.945884 1.51378 0
M  V30 3488 C 335.763 1.87844 2.82078 0
M  V30 3489 C 334.936 3.17854 3.00479 0
M  V30 3490 C 333.995 3.17816 4.19379 0
M  V30 3491 O 333.021 3.91511 4.13168 0
M  V30 3492 N 334.223 2.40669 5.2826 0
M  V30 3493 H 336.988 2.73493 1.22563 0
M  V30 3494 H 334.549 1.53096 0.526625 0
M  V30 3495 H 336.541 1.85261 3.59806 0
M  V30 3496 H 335.111 1.00257 2.96086 0
M  V30 3497 H 334.331 3.33504 2.10163 0
M  V30 3498 H 335.619 4.03718 3.0966 0
M  V30 3499 H 335.017 1.8036 5.36178 0
M  V30 3500 H 333.574 2.43877 6.04456 0
M  V30 3501 N 337.007 -0.598083 1.45811 0
M  V30 3502 C 338.284 -1.35777 1.40797 0
M  V30 3503 C 338.664 -2.10935 0.083462 0
M  V30 3504 O 338.012 -2.08505 -0.934763 0
M  V30 3505 C 338.222 -2.29666 2.62783 0
M  V30 3506 C 339.57 -2.91977 3.08277 0
M  V30 3507 O 340.594 -2.39984 2.63223 0
M  V30 3508 O 339.453 -3.86376 3.86491 0
M  V30 3509 H 336.547 -0.609291 0.55919 0
M  V30 3510 H 339.093 -0.620379 1.57954 0
M  V30 3511 H 337.865 -1.73454 3.50756 0
M  V30 3512 H 337.488 -3.1077 2.48008 0
M  V30 3513 N 338.485 -1.33259 -0.841409 0
M  V30 3514 C 339.448 -1.23221 -1.9326 0
M  V30 3515 C 340.448 -0.151895 -1.60081 0
M  V30 3516 O 341.638 -0.403246 -1.69468 0
M  V30 3517 C 338.77 -0.898123 -3.28856 0
M  V30 3518 H 339.963 -2.2021 -2.03587 0
M  V30 3519 H 337.516 -1.17281 -1.03319 0
M  V30 3520 H 338.251 0.0693841 -3.24226 0
M  V30 3521 H 338.036 -1.67934 -3.54317 0
M  V30 3522 H 339.526 -0.852563 -4.08805 0
M  V30 3523 N 339.963 1.05934 -1.16686 0
M  V30 3524 C 341.209 1.79065 -0.95203 0
M  V30 3525 C 341.542 1.87147 0.518629 0
M  V30 3526 O 340.817 1.36574 1.38484 0
M  V30 3527 C 341.1 3.23359 -1.58464 0
M  V30 3528 C 340.953 3.23336 -3.12689 0
M  V30 3529 C 342.272 4.21004 -1.28232 0
M  V30 3530 H 339.391 0.65005 -0.34728 0
M  V30 3531 H 342.033 1.23868 -1.44072 0
M  V30 3532 H 340.183 3.70493 -1.16908 0
M  V30 3533 H 341.855 2.84336 -3.6325 0
M  V30 3534 H 340.098 2.61886 -3.4583 0
M  V30 3535 H 340.769 4.25144 -3.52075 0
M  V30 3536 H 343.245 3.8233 -1.64203 0
M  V30 3537 H 342.121 5.20225 -1.75092 0
M  V30 3538 H 342.382 4.41639 -0.201791 0
M  V30 3539 N 341.441 0.965919 1.2453 0
M  V30 3540 C 342.852 0.665929 1.7442 0
M  V30 3541 C 343.203 -0.818407 1.78316 0
M  V30 3542 O 342.328 -1.64037 1.41141 0
M  V30 3543 C 342.923 1.20211 3.16757 0
M  V30 3544 C 341.482 0.952059 3.6416 0
M  V30 3545 C 340.629 1.33848 2.42858 0
M  V30 3546 H 343.58 1.14144 1.10258 0
M  V30 3547 H 343.601 0.567544 3.76244 0
M  V30 3548 H 343.113 2.28244 3.13889 0
M  V30 3549 H 341.214 -0.112821 3.72429 0
M  V30 3550 H 341.327 1.59645 4.51719 0
M  V30 3551 H 339.691 0.756864 2.43195 0
M  V30 3552 H 340.474 2.42827 2.42673 0
M  V30 3553 N 342.919 -1.39368 0.735821 0
M  V30 3554 C 344.167 -2.00101 0.283562 0
M  V30 3555 C 344.488 -1.5868 -1.13338 0
M  V30 3556 O 343.758 -0.835423 -1.77193 0
M  V30 3557 H 342.338 -0.740024 0.101851 0
M  V30 3558 H 345 -1.70404 0.945962 0
M  V30 3559 H 344.096 -3.10323 0.332604 0
M  V30 3560 N 344.397 -0.483516 -1.5 0
M  V30 3561 C 345.813 -0.138404 -1.58999 0
M  V30 3562 C 346.013 1.35597 -1.4905 0
M  V30 3563 O 345.069 2.13039 -1.35539 0
M  V30 3564 C 346.382 -0.699658 -2.92447 0
M  V30 3565 C 347.93 -0.664195 -3.05872 0
M  V30 3566 C 348.405 -1.20321 -4.41913 0
M  V30 3567 N 349.896 -1.16315 -4.48358 0
M  V30 3568 C 350.631 -1.55058 -5.52037 0
M  V30 3569 N 350.127 -2.01311 -6.62907 0
M  V30 3570 N 351.92 -1.46584 -5.42651 0
M  V30 3571 H 344.071 -1.45529 -1.5471 0
M  V30 3572 H 346.334 -0.60258 -0.731848 0
M  V30 3573 H 346.04 -1.747 -3.05242 0
M  V30 3574 H 345.914 -0.150194 -3.76901 0
M  V30 3575 H 348.301 0.374272 -2.92717 0
M  V30 3576 H 348.382 -1.25061 -2.23144 0
M  V30 3577 H 348.026 -2.24037 -4.55818 0
M  V30 3578 H 347.956 -0.592896 -5.23252 0
M  V30 3579 H 350.447 -0.824058 -3.68806 0
M  V30 3580 H 350.76 -2.2899 -7.38095 0
M  V30 3581 H 349.105 -2.05273 -6.63994 0
M  V30 3582 H 352.296 -1.10281 -4.54924 0
M  V30 3583 H 352.469 -1.77103 -6.23329 0
M  V30 3584 N 345.875 1.56104 -0.216619 0
M  V30 3585 C 346.805 2.23063 0.690296 0
M  V30 3586 C 347.786 1.20072 1.20485 0
M  V30 3587 O 348.971 1.48643 1.24976 0
M  V30 3588 C 346.101 2.90672 1.90072 0
M  V30 3589 C 345.055 4.00092 1.5202 0
M  V30 3590 C 344.381 4.54972 2.80899 0
M  V30 3591 C 345.681 5.17398 0.71391 0
M  V30 3592 H 347.375 2.99109 0.132038 0
M  V30 3593 H 344.921 1.43866 0.0620664 0
M  V30 3594 H 346.874 3.36204 2.54057 0
M  V30 3595 H 345.598 2.12066 2.48386 0
M  V30 3596 H 344.257 3.55283 0.903839 0
M  V30 3597 H 343.905 3.73102 3.37348 0
M  V30 3598 H 343.605 5.28817 2.56176 0
M  V30 3599 H 345.129 5.0322 3.45836 0
M  V30 3600 H 346.543 5.59342 1.25735 0
M  V30 3601 H 344.94 5.97444 0.563951 0
M  V30 3602 H 346.01 4.84088 -0.280527 0
M  V30 3603 N 347.353 -0.0568162 1.57498 0
M  V30 3604 C 348.316 -1.05038 2.03715 0
M  V30 3605 C 349.316 -1.30709 0.936577 0
M  V30 3606 O 350.506 -1.26178 1.20103 0
M  V30 3607 C 347.638 -2.39034 2.43055 0
M  V30 3608 H 348.831 -0.651715 2.92733 0
M  V30 3609 H 346.384 -0.302947 1.53336 0
M  V30 3610 H 347.119 -2.83703 1.57108 0
M  V30 3611 H 346.904 -2.21739 3.2338 0
M  V30 3612 H 348.394 -3.10421 2.79336 0
M  V30 3613 N 348.832 -1.54138 -0.328536 0
M  V30 3614 C 349.764 -1.79509 -1.4251 0
M  V30 3615 C 350.777 -0.67688 -1.48061 0
M  V30 3616 O 351.966 -0.953898 -1.50874 0
M  V30 3617 C 349.066 -1.89337 -2.81078 0
M  V30 3618 C 348.239 -3.19443 -2.98789 0
M  V30 3619 C 347.298 -3.20036 -4.17688 0
M  V30 3620 O 346.324 -3.93697 -4.11086 0
M  V30 3621 N 347.526 -2.43467 -5.26976 0
M  V30 3622 H 350.291 -2.74139 -1.21111 0
M  V30 3623 H 347.852 -1.53373 -0.518499 0
M  V30 3624 H 349.844 -1.87167 -3.58818 0
M  V30 3625 H 348.414 -1.01826 -2.95551 0
M  V30 3626 H 347.634 -3.34614 -2.08391 0
M  V30 3627 H 348.922 -4.05354 -3.07515 0
M  V30 3628 H 348.32 -1.83201 -5.35214 0
M  V30 3629 H 346.877 -2.4708 -6.03154 0
M  V30 3630 N 350.31 0.590341 -1.46126 0
M  V30 3631 C 351.24 1.71032 -1.58966 0
M  V30 3632 C 352.221 1.64302 -0.440335 0
M  V30 3633 O 353.406 1.82436 -0.665634 0
M  V30 3634 C 350.536 3.09665 -1.57241 0
M  V30 3635 C 349.49 3.31221 -2.71066 0
M  V30 3636 C 348.816 4.70303 -2.54399 0
M  V30 3637 C 350.116 3.19796 -4.1295 0
M  V30 3638 H 351.81 1.60543 -2.52718 0
M  V30 3639 H 349.356 0.770933 -1.21625 0
M  V30 3640 H 351.309 3.87831 -1.64819 0
M  V30 3641 H 350.033 3.21036 -0.600289 0
M  V30 3642 H 348.692 2.55452 -2.62944 0
M  V30 3643 H 348.34 4.78429 -1.55288 0
M  V30 3644 H 348.04 4.85679 -3.30741 0
M  V30 3645 H 349.564 5.50647 -2.63857 0
M  V30 3646 H 350.978 3.87815 -4.22223 0
M  V30 3647 H 349.375 3.46696 -4.89818 0
M  V30 3648 H 350.445 2.16983 -4.33643 0
M  V30 3649 N 351.788 1.33704 0.83433 0
M  V30 3650 C 353.034 1.26612 1.59188 0
M  V30 3651 C 353.389 -0.165439 1.91687 0
M  V30 3652 O 352.682 -1.10873 1.56262 0
M  V30 3653 C 352.876 2.07926 2.90692 0
M  V30 3654 C 352.705 3.58844 2.71038 0
M  V30 3655 C 351.475 4.28148 2.68361 0
M  V30 3656 C 353.673 4.53082 2.43353 0
M  V30 3657 N 351.655 5.64987 2.40132 0
M  V30 3658 C 353.026 5.77843 2.24716 0
M  V30 3659 C 355.081 4.42119 2.28987 0
M  V30 3660 C 353.784 6.92877 1.9317 0
M  V30 3661 C 355.81 5.56973 1.98835 0
M  V30 3662 C 355.172 6.80745 1.81012 0
M  V30 3663 H 351.271 0.518517 0.585375 0
M  V30 3664 H 353.855 1.68294 0.979044 0
M  V30 3665 H 352.026 1.68558 3.49918 0
M  V30 3666 H 353.758 1.92568 3.55949 0
M  V30 3667 H 350.513 3.80469 2.82029 0
M  V30 3668 H 350.937 6.37133 2.28889 0
M  V30 3669 H 355.579 3.47058 2.41477 0
M  V30 3670 H 353.297 7.87931 1.79418 0
M  V30 3671 H 356.883 5.50428 1.88468 0
M  V30 3672 H 355.763 7.68115 1.58017 0
M  V30 3673 N 353.266 -1.05314 1.17247 0
M  V30 3674 C 354.513 -1.78293 0.960091 0
M  V30 3675 C 354.841 -1.87658 -0.51136 0
M  V30 3676 O 354.096 -1.3718 -1.39571 0
M  V30 3677 C 354.395 -3.2229 1.54479 0
M  V30 3678 C 354.061 -3.32987 3.04024 0
M  V30 3679 C 352.723 -3.35613 3.44844 0
M  V30 3680 C 355.075 -3.34102 4.00031 0
M  V30 3681 C 352.403 -3.36982 4.8027 0
M  V30 3682 C 354.755 -3.3701 5.35357 0
M  V30 3683 C 353.419 -3.37923 5.75642 0
M  V30 3684 H 352.689 -0.652422 0.351322 0
M  V30 3685 H 355.336 -1.23782 1.46117 0
M  V30 3686 H 353.641 -3.7972 0.965391 0
M  V30 3687 H 355.338 -3.77376 1.35603 0
M  V30 3688 H 351.928 -3.31655 2.71483 0
M  V30 3689 H 356.112 -3.31276 3.69554 0
M  V30 3690 H 351.368 -3.35999 5.10798 0
M  V30 3691 H 355.542 -3.36822 6.09528 0
M  V30 3692 H 353.169 -3.38738 6.80559 0
M  V30 3693 N 354.744 -0.972509 -1.24016 0
M  V30 3694 C 356.16 -0.679827 -1.44397 0
M  V30 3695 C 356.36 0.756716 -1.86751 0
M  V30 3696 O 355.416 1.53007 -2.00861 0
M  V30 3697 C 356.729 -1.66803 -2.50195 0
M  V30 3698 C 358.277 -1.68119 -2.64017 0
M  V30 3699 C 358.752 -2.65748 -3.73017 0
M  V30 3700 N 360.243 -2.64219 -3.8045 0
M  V30 3701 C 360.978 -3.36433 -4.64328 0
M  V30 3702 N 360.474 -4.1818 -5.52356 0
M  V30 3703 N 362.267 -3.25235 -4.58453 0
M  V30 3704 H 354.418 -1.90059 -0.948228 0
M  V30 3705 H 356.681 -0.818527 -0.478245 0
M  V30 3706 H 356.387 -2.69498 -2.25973 0
M  V30 3707 H 356.261 -1.4446 -3.48441 0
M  V30 3708 H 358.648 -0.661319 -2.87594 0
M  V30 3709 H 358.729 -1.94525 -1.66113 0
M  V30 3710 H 358.373 -3.67872 -3.50189 0
M  V30 3711 H 358.303 -2.36619 -4.70446 0
M  V30 3712 H 360.794 -2.04887 -3.17537 0
M  V30 3713 H 361.107 -4.70157 -6.13329 0
M  V30 3714 H 359.452 -4.22273 -5.52006 0
M  V30 3715 H 362.643 -2.60829 -3.88698 0
M  V30 3716 H 362.816 -3.81776 -5.23594 0
M  V30 3717 N 356.222 1.38976 -0.743202 0
M  V30 3718 C 357.185 2.28901 -0.117014 0
M  V30 3719 C 358.185 1.46698 0.658503 0
M  V30 3720 O 359.375 1.67274 0.486305 0
M  V30 3721 C 356.507 3.30309 0.84315 0
M  V30 3722 H 357.7 2.8578 -0.909373 0
M  V30 3723 H 355.253 1.47761 -0.509547 0
M  V30 3724 H 355.988 2.785 1.66157 0
M  V30 3725 H 355.773 3.91029 0.289594 0
M  V30 3726 H 357.263 3.97577 1.2776 0
M  V30 3727 N 357.7 0.491464 1.49741 0
M  V30 3728 C 358.61 -0.296835 2.32715 0
M  V30 3729 C 359.626 -0.976536 1.44013 0
M  V30 3730 O 360.802 -0.960023 1.77047 0
M  V30 3731 C 357.867 -1.35288 3.19215 0
M  V30 3732 C 356.928 -0.687632 4.23757 0
M  V30 3733 C 356.161 -1.69336 5.06123 0
M  V30 3734 O 356.384 -2.92219 4.89861 0
M  V30 3735 O 355.318 -1.25394 5.88693 0
M  V30 3736 H 359.144 0.382048 3.01287 0
M  V30 3737 H 356.729 0.252953 1.47243 0
M  V30 3738 H 358.611 -1.96411 3.72828 0
M  V30 3739 H 357.286 -2.01487 2.53347 0
M  V30 3740 H 356.193 -0.0369159 3.74082 0
M  V30 3741 H 357.526 -0.0682566 4.92153 0
M  V30 3742 N 359.178 -1.55987 0.224894 0
M  V30 3743 C 360.594 -1.59066 -0.130426 0
M  V30 3744 C 360.794 -1.24176 -1.5869 0
M  V30 3745 O 359.85 -0.978592 -2.32766 0
M  V30 3746 C 361.163 -3.00042 0.198883 0
M  V30 3747 C 362.711 -3.1268 0.141391 0
M  V30 3748 C 363.186 -4.55839 0.444422 0
M  V30 3749 N 364.677 -4.6152 0.394115 0
M  V30 3750 C 365.412 -5.70231 0.602038 0
M  V30 3751 N 364.908 -6.87291 0.871914 0
M  V30 3752 N 366.701 -5.59555 0.534245 0
M  V30 3753 H 358.852 -1.76941 1.17497 0
M  V30 3754 H 361.115 -0.822604 0.471197 0
M  V30 3755 H 360.821 -3.30234 1.2099 0
M  V30 3756 H 360.695 -3.74075 -0.484535 0
M  V30 3757 H 363.082 -2.82283 -0.860265 0
M  V30 3758 H 363.163 -2.40969 0.858335 0
M  V30 3759 H 362.807 -4.86954 1.44353 0
M  V30 3760 H 362.737 -5.2578 -0.293752 0
M  V30 3761 H 365.228 -3.77405 0.193356 0
M  V30 3762 H 365.541 -7.66058 1.01858 0
M  V30 3763 H 363.886 -6.89028 0.909145 0
M  V30 3764 H 367.077 -4.6698 0.323612 0
M  V30 3765 H 367.25 -6.44211 0.699693 0
M  V30 3766 N 360.656 0.0484629 -1.57525 0
M  V30 3767 C 361.566 1.07241 -2.08654 0
M  V30 3768 C 362.582 1.409 -1.02095 0
M  V30 3769 O 363.758 1.50609 -1.33712 0
M  V30 3770 C 360.823 2.36008 -2.5397 0
M  V30 3771 C 359.884 2.09108 -3.7493 0
M  V30 3772 C 359.117 3.31736 -4.18075 0
M  V30 3773 O 359.34 4.41714 -3.60895 0
M  V30 3774 O 358.274 3.18576 -5.10679 0
M  V30 3775 H 362.1 0.667965 -2.96263 0
M  V30 3776 H 359.685 0.26417 -1.47046 0
M  V30 3777 H 361.567 3.11747 -2.83535 0
M  V30 3778 H 360.242 2.75786 -1.69481 0
M  V30 3779 H 359.149 1.31 -3.50414 0
M  V30 3780 H 360.482 1.74198 -4.60343 0
M  V30 3781 N 362.134 1.5431 0.320358 0
M  V30 3782 C 363.382 1.72327 1.05583 0
M  V30 3783 C 363.703 0.50149 1.88441 0
M  V30 3784 O 362.973 -0.48448 1.89815 0
M  V30 3785 H 361.553 0.635387 0.3928 0
M  V30 3786 H 364.215 1.91621 0.356019 0
M  V30 3787 H 363.311 2.60426 1.72003 0
M  V30 3788 N 363.613 -0.582584 1.46437 0
M  V30 3789 C 364.862 -1.337 1.5102 0
M  V30 3790 C 365.175 -1.94891 0.166359 0
M  V30 3791 O 366.381 -2.71351 0.0899954 0
M  V30 3792 C 364.837 -2.42315 2.66104 0
M  V30 3793 C 364.445 -1.87427 4.06909 0
M  V30 3794 C 366.189 -3.19099 2.79958 0
M  V30 3795 C 364.096 -2.93672 5.13333 0
M  V30 3796 H 363.026 -0.502619 0.562041 0
M  V30 3797 H 365.677 -0.621701 1.72647 0
M  V30 3798 H 364.059 -3.16645 2.37807 0
M  V30 3799 H 365.233 -1.19639 4.44998 0
M  V30 3800 H 363.548 -1.2331 3.97723 0
M  V30 3801 H 366.145 -3.9839 3.56636 0
M  V30 3802 H 366.488 -3.71695 1.87479 0
M  V30 3803 H 367.021 -2.51875 3.07902 0
M  V30 3804 H 363.76 -2.45962 6.07604 0
M  V30 3805 H 363.28 -3.59948 4.79789 0
M  V30 3806 H 364.959 -3.5762 5.39182 0
M  V30 3807 N 365.091 -1.34144 -0.827227 0
M  V30 3808 C 366.338 -1.26258 -1.58319 0
M  V30 3809 C 366.666 0.168595 -1.93768 0
M  V30 3810 O 365.921 1.12877 -1.59866 0
M  V30 3811 C 366.22 -2.09464 -2.89585 0
M  V30 3812 C 365.886 -3.58521 -2.73448 0
M  V30 3813 C 364.548 -3.99155 -2.68754 0
M  V30 3814 C 366.9 -4.53189 -2.57428 0
M  V30 3815 C 364.228 -5.32656 -2.45957 0
M  V30 3816 C 366.58 -5.86864 -2.36163 0
M  V30 3817 C 365.244 -6.26667 -2.29879 0
M  V30 3818 H 364.514 -0.462013 -0.579332 0
M  V30 3819 H 367.161 -1.65845 -0.95748 0
M  V30 3820 H 365.466 -1.62692 -3.56425 0
M  V30 3821 H 367.163 -2.00712 -3.47154 0
M  V30 3822 H 363.753 -3.26264 -2.77939 0
M  V30 3823 H 367.937 -4.22696 -2.60081 0
M  V30 3824 H 363.193 -5.62519 -2.39546 0
M  V30 3825 H 367.367 -6.59813 -2.22754 0
M  V30 3826 H 364.994 -7.30049 -2.11975 0
M  V30 3827 N 366.569 1.04691 -1.17803 0
M  V30 3828 C 367.816 1.77782 -0.969532 0
M  V30 3829 C 368.144 1.87926 0.501401 0
M  V30 3830 O 367.399 1.37918 1.38842 0
M  V30 3831 C 367.698 3.21467 -1.56186 0
M  V30 3832 C 367.364 3.3137 -3.05786 0
M  V30 3833 C 366.026 3.3378 -3.46619 0
M  V30 3834 C 368.378 3.31976 -4.01797 0
M  V30 3835 C 365.706 3.34431 -4.82051 0
M  V30 3836 C 368.058 3.34167 -5.37136 0
M  V30 3837 C 366.722 3.34866 -5.77426 0
M  V30 3838 H 365.992 0.650549 -0.354777 0
M  V30 3839 H 368.639 1.23006 -1.46772 0
M  V30 3840 H 366.944 3.79203 -0.985515 0
M  V30 3841 H 368.641 3.76652 -1.37602 0
M  V30 3842 H 365.231 3.3021 -2.73238 0
M  V30 3843 H 369.415 3.29311 -3.71306 0
M  V30 3844 H 364.671 3.33285 -5.12573 0
M  V30 3845 H 368.845 3.33585 -6.11305 0
M  V30 3846 H 366.472 3.35124 -6.82346 0
M  V30 3847 N 368.047 0.979072 1.23499 0
M  V30 3848 C 369.295 0.645941 1.91499 0
M  V30 3849 C 369.616 -0.822948 1.76784 0
M  V30 3850 O 368.886 -1.58854 1.14639 0
M  V30 3851 H 367.466 0.235919 0.708767 0
M  V30 3852 H 370.128 1.2426 1.50152 0
M  V30 3853 H 369.224 0.896411 2.9895 0
M  V30 3854 N 369.525 -1.3858 0.750561 0
M  V30 3855 C 370.457 -2.29057 0.0810714 0
M  V30 3856 C 371.47 -1.47596 -0.686973 0
M  V30 3857 O 372.659 -1.70495 -0.528563 0
M  V30 3858 C 369.759 -3.26475 -0.909247 0
M  V30 3859 C 368.932 -4.36945 -0.199478 0
M  V30 3860 C 367.991 -5.14572 -1.10011 0
M  V30 3861 O 367.017 -5.66321 -0.57177 0
M  V30 3862 N 368.219 -5.27262 -2.42849 0
M  V30 3863 H 370.984 -2.87153 0.858087 0
M  V30 3864 H 368.545 -1.50328 0.60109 0
M  V30 3865 H 370.537 -3.75285 -1.51471 0
M  V30 3866 H 369.107 -2.69298 -1.58736 0
M  V30 3867 H 368.327 -3.8981 0.586664 0
M  V30 3868 H 369.615 -5.07963 0.291783 0
M  V30 3869 H 369.013 -4.86763 -2.88233 0
M  V30 3870 H 367.57 -5.79456 -2.98453 0
M  V30 3871 N 371.003 -0.499398 -1.49478 0
M  V30 3872 C 372.243 0.0440751 -2.04352 0
M  V30 3873 C 372.607 1.34423 -1.37093 0
M  V30 3874 O 373.808 1.97184 -1.82679 0
M  V30 3875 C 372.079 0.194918 -3.56868 0
M  V30 3876 S 373.638 0.69287 -4.33295 0
M  V30 3877 H 370.456 0.00253458 -0.710995 0
M  V30 3878 H 373.058 -0.673 -1.83551 0
M  V30 3879 H 371.762 -0.756672 -4.03364 0
M  V30 3880 H 371.293 0.93728 -3.82071 0
M  V30 3881 H 373.308 1.96226 -4.55752 0
M  V30 3882 N 372.481 1.55866 -0.233164 0
M  V30 3883 C 373.706 2.03449 0.402906 0
M  V30 3884 C 374.131 1.11166 1.51736 0
M  V30 3885 O 373.489 0.101996 1.81013 0
M  V30 3886 C 373.537 3.49165 0.9009 0
M  V30 3887 O 372.641 3.60019 2.01147 0
M  V30 3888 H 371.982 0.657913 0.0897025 0
M  V30 3889 H 374.512 2.01493 -0.355201 0
M  V30 3890 H 374.522 3.89716 1.2077 0
M  V30 3891 H 373.197 4.15813 0.0852889 0
M  V30 3892 H 371.774 3.3136 1.71042 0
M  V30 3893 N 373.959 -0.0401083 1.57549 0
M  V30 3894 C 374.869 -1.06133 2.0922 0
M  V30 3895 C 375.885 -1.40356 1.0284 0
M  V30 3896 O 377.061 -1.49897 1.34509 0
M  V30 3897 C 374.126 -2.34658 2.55218 0
M  V30 3898 C 373.187 -2.07117 3.76033 0
M  V30 3899 C 372.42 -3.29514 4.19829 0
M  V30 3900 O 372.643 -4.39794 3.63232 0
M  V30 3901 O 371.577 -3.15863 5.12362 0
M  V30 3902 H 375.403 -0.652244 2.96613 0
M  V30 3903 H 372.988 -0.256368 1.47184 0
M  V30 3904 H 374.87 -3.10239 2.85184 0
M  V30 3905 H 373.545 -2.74883 1.70941 0
M  V30 3906 H 372.452 -1.29139 3.51104 0
M  V30 3907 H 373.785 -1.71754 4.61261 0
M  V30 3908 N 375.437 -1.54477 -0.31217 0
M  V30 3909 C 376.367 -1.87652 -1.38957 0
M  V30 3910 C 377.348 -0.734358 -1.53431 0
M  V30 3911 O 378.533 -0.98911 -1.67123 0
M  V30 3912 C 375.663 -2.11396 -2.75552 0
M  V30 3913 C 374.617 -3.27243 -2.75855 0
M  V30 3914 C 373.943 -3.36382 -4.15633 0
M  V30 3915 C 375.243 -4.64622 -2.38587 0
M  V30 3916 H 376.937 -2.77887 -1.11442 0
M  V30 3917 H 374.483 -1.33707 -0.534655 0
M  V30 3918 H 376.436 -2.33189 -3.51 0
M  V30 3919 H 375.16 -1.17921 -3.04569 0
M  V30 3920 H 373.819 -3.05356 -2.02863 0
M  V30 3921 H 373.467 -2.40445 -4.41809 0
M  V30 3922 H 373.167 -4.14249 -4.1674 0
M  V30 3923 H 374.691 -3.60422 -4.92877 0
M  V30 3924 H 376.105 -4.86219 -3.03749 0
M  V30 3925 H 374.502 -5.45121 -2.50925 0
M  V30 3926 H 375.572 -4.66097 -1.33723 0
M  V30 3927 N 376.915 0.57481 -1.46744 0
M  V30 3928 C 378.155 1.34369 -1.54027 0
M  V30 3929 C 378.519 1.91051 -0.190642 0
M  V30 3930 O 379.72 2.68444 -0.138255 0
M  V30 3931 C 377.991 2.43706 -2.61423 0
M  V30 3932 S 379.55 3.30915 -2.88167 0
M  V30 3933 H 376.368 0.45768 -0.544105 0
M  V30 3934 H 378.97 0.659959 -1.84024 0
M  V30 3935 H 377.674 2.0047 -3.58106 0
M  V30 3936 H 377.205 3.16842 -2.33184 0
M  V30 3937 H 379.22 4.42742 -2.24039 0
M  V30 3938 N 378.394 1.34581 0.820102 0
M  V30 3939 C 379.642 1.26845 1.57336 0
M  V30 3940 C 379.963 -0.160667 1.94337 0
M  V30 3941 O 379.233 -1.09396 1.6251 0
M  V30 3942 H 377.813 0.466514 0.583415 0
M  V30 3943 H 380.475 1.68526 0.979027 0
M  V30 3944 H 379.571 1.87513 2.4949 0
M  V30 3945 N 379.872 -1.04064 1.18357 0
M  V30 3946 C 381.121 -1.76662 0.973313 0
M  V30 3947 C 381.434 -1.89154 -0.497991 0
M  V30 3948 O 382.64 -2.58606 -0.826762 0
M  V30 3949 C 381.096 -3.17624 1.69242 0
M  V30 3950 C 380.704 -3.13225 3.20303 0
M  V30 3951 C 382.448 -3.946 1.56497 0
M  V30 3952 C 380.355 -4.49046 3.84853 0
M  V30 3953 H 379.285 -0.662214 0.36054 0
M  V30 3954 H 381.936 -1.16553 1.41731 0
M  V30 3955 H 380.318 -3.78129 1.1762 0
M  V30 3956 H 381.492 -2.62172 3.78949 0
M  V30 3957 H 379.807 -2.49749 3.33189 0
M  V30 3958 H 382.404 -4.95042 2.02084 0
M  V30 3959 H 382.747 -4.13074 0.517243 0
M  V30 3960 H 383.28 -3.4067 2.05399 0
M  V30 3961 H 380.019 -4.35777 4.89672 0
M  V30 3962 H 379.539 -5.00203 3.30994 0
M  V30 3963 H 381.218 -5.17961 3.87718 0
M  V30 3964 N 381.35 -0.985608 -1.22978 0
M  V30 3965 C 382.575 -0.675254 -1.961 0
M  V30 3966 C 383 0.752154 -1.72407 0
M  V30 3967 O 382.358 1.5131 -0.998751 0
M  V30 3968 C 382.406 -0.977899 -3.47087 0
M  V30 3969 O 381.51 -0.072685 -4.12336 0
M  V30 3970 H 380.851 -0.253443 -0.613728 0
M  V30 3971 H 383.381 -1.32061 -1.56272 0
M  V30 3972 H 383.391 -0.916739 -3.97567 0
M  V30 3973 H 382.066 -2.01807 -3.63657 0
M  V30 3974 H 380.643 -0.188703 -3.72422 0
M  V30 3975 N 382.828 1.3818 -0.7579 0
M  V30 3976 C 383.778 2.27741 -0.108674 0
M  V30 3977 C 384.762 1.45415 0.688709 0
M  V30 3978 O 385.954 1.68108 0.553956 0
M  V30 3979 C 383.083 3.34313 0.780367 0
M  V30 3980 C 382.169 4.24093 -0.0240977 0
M  V30 3981 N 382.56 4.9451 -1.06271 0
M  V30 3982 C 380.858 4.45542 0.202049 0
M  V30 3983 C 381.559 5.60675 -1.54979 0
M  V30 3984 N 380.535 5.36684 -0.864348 0
M  V30 3985 H 384.337 2.79649 -0.904071 0
M  V30 3986 H 381.851 1.51133 -0.594346 0
M  V30 3987 H 383.848 3.97368 1.26114 0
M  V30 3988 H 382.508 2.83962 1.57467 0
M  V30 3989 H 383.519 4.97345 -1.44459 0
M  V30 3990 H 380.196 4.06091 0.96935 0
M  V30 3991 H 381.586 6.26992 -2.41517 0
M  V30 3992 N 384.306 0.507319 1.49211 0
M  V30 3993 C 385.269 -0.256763 2.27757 0
M  V30 3994 C 386.269 -0.888287 1.34038 0
M  V30 3995 O 387.459 -0.751841 1.5714 0
M  V30 3996 C 384.591 -1.36905 3.12202 0
M  V30 3997 H 385.784 0.432557 2.96764 0
M  V30 3998 H 383.337 0.262488 1.5408 0
M  V30 3999 H 384.072 -2.09233 2.47775 0
M  V30 4000 H 383.857 -0.921599 3.81115 0
M  V30 4001 H 385.347 -1.9071 3.7151 0
M  V30 4002 N 385.784 -1.5574 0.241426 0
M  V30 4003 C 387.014 -2.02913 -0.38857 0
M  V30 4004 C 387.422 -1.12014 -1.52478 0
M  V30 4005 O 386.765 -0.125903 -1.83268 0
M  V30 4006 C 386.827 -3.4636 -0.963075 0
M  V30 4007 C 386.491 -4.56982 0.0401916 0
M  V30 4008 C 387.488 -5.12941 0.847766 0
M  V30 4009 C 385.173 -5.0203 0.164699 0
M  V30 4010 C 387.167 -6.12437 1.76636 0
M  V30 4011 C 384.854 -6.01358 1.0868 0
M  V30 4012 C 385.852 -6.5644 1.88616 0
M  V30 4013 O 385.54 -7.53831 2.79273 0
M  V30 4014 H 385.272 -0.668983 -0.0971452 0
M  V30 4015 H 387.826 -2.02198 0.361248 0
M  V30 4016 H 386.056 -3.44206 -1.76235 0
M  V30 4017 H 387.745 -3.77065 -1.50257 0
M  V30 4018 H 388.511 -4.78974 0.762133 0
M  V30 4019 H 384.39 -4.58824 -0.447411 0
M  V30 4020 H 387.934 -6.55355 2.39071 0
M  V30 4021 H 383.831 -6.34746 1.17338 0
M  V30 4022 H 384.599 -7.71428 2.73572 0
M  V30 4023 N 387.262 0.0317525 -1.57568 0
M  V30 4024 C 388.195 1.06621 -2.0176 0
M  V30 4025 C 389.173 1.35323 -0.901462 0
M  V30 4026 O 390.357 1.48025 -1.16708 0
M  V30 4027 C 387.484 2.40155 -2.38837 0
M  V30 4028 C 386.53 2.27327 -3.60867 0
M  V30 4029 S 387.363 1.62925 -5.10113 0
M  V30 4030 C 388.519 2.97955 -5.5043 0
M  V30 4031 H 388.752 0.689781 -2.89187 0
M  V30 4032 H 386.285 0.24164 -1.52497 0
M  V30 4033 H 388.243 3.1695 -2.6087 0
M  V30 4034 H 386.904 2.74946 -1.51867 0
M  V30 4035 H 386.097 3.25898 -3.84456 0
M  V30 4036 H 385.699 1.58675 -3.38671 0
M  V30 4037 H 387.991 3.94285 -5.5095 0
M  V30 4038 H 388.934 2.79102 -6.50775 0
M  V30 4039 H 389.342 3.00404 -4.77931 0
M  V30 4040 N 388.74 1.54641 0.303973 0
M  V30 4041 C 390.151 1.64811 0.877163 0
M  V30 4042 C 390.502 0.554838 1.88191 0
M  V30 4043 O 389.627 -0.309033 2.14182 0
M  V30 4044 C 390.222 2.9876 1.59775 0
M  V30 4045 C 388.781 3.11061 2.11938 0
M  V30 4046 C 387.928 2.60479 0.951097 0
M  V30 4047 H 390.879 1.58493 0.0810486 0
M  V30 4048 H 390.9 2.90017 2.46314 0
M  V30 4049 H 390.412 3.7831 0.866226 0
M  V30 4050 H 388.513 2.36225 2.88146 0
M  V30 4051 H 388.626 4.17171 2.35595 0
M  V30 4052 H 386.99 2.16859 1.33583 0
M  V30 4053 H 387.773 3.42504 0.233581 0
M  V30 4054 N 390.218 -0.567019 1.47046 0
M  V30 4055 C 391.467 -1.32091 1.5243 0
M  V30 4056 C 391.78 -1.94704 0.187021 0
M  V30 4057 O 392.986 -2.7124 0.118771 0
M  V30 4058 C 391.442 -2.39479 2.68659 0
M  V30 4059 C 391.05 -1.831 4.08874 0
M  V30 4060 C 392.794 -3.16111 2.83327 0
M  V30 4061 C 390.701 -2.8821 5.16419 0
M  V30 4062 H 389.631 -0.496629 0.56734 0
M  V30 4063 H 392.282 -0.603354 1.73297 0
M  V30 4064 H 390.664 -3.14105 2.41152 0
M  V30 4065 H 391.838 -1.14913 4.46242 0
M  V30 4066 H 390.153 -1.19085 3.99008 0
M  V30 4067 H 392.75 -3.94585 3.60842 0
M  V30 4068 H 393.093 -3.69686 1.91411 0
M  V30 4069 H 393.626 -2.48595 3.10556 0
M  V30 4070 H 390.365 -2.39504 6.10179 0
M  V30 4071 H 389.885 -3.54839 4.8358 0
M  V30 4072 H 391.564 -3.51881 5.42945 0
M  V30 4073 N 391.696 -1.35014 -0.812953 0
M  V30 4074 C 392.924 -1.31031 -1.6012 0
M  V30 4075 C 393.339 0.113558 -1.88458 0
M  V30 4076 O 392.696 1.06363 -1.48301 0
M  V30 4077 C 392.747 -2.10872 -2.93624 0
M  V30 4078 O 392.468 -3.47706 -2.66518 0
M  V30 4079 C 393.969 -2.14401 -3.88004 0
M  V30 4080 H 391.189 -0.45037 -0.497401 0
M  V30 4081 H 393.733 -1.77775 -1.01076 0
M  V30 4082 H 391.888 -1.67744 -3.492 0
M  V30 4083 H 392.302 -3.89097 -3.51715 0
M  V30 4084 H 393.776 -2.74669 -4.78812 0
M  V30 4085 H 394.253 -1.14105 -4.24119 0
M  V30 4086 H 394.859 -2.57662 -3.38364 0
M  V30 4087 N 393.175 1.03435 -1.18907 0
M  V30 4088 C 394.421 1.77005 -0.989798 0
M  V30 4089 C 394.754 1.88205 0.478816 0
M  V30 4090 O 394.029 1.39481 1.35556 0
M  V30 4091 C 394.312 3.19925 -1.65287 0
M  V30 4092 C 394.165 3.1663 -3.19477 0
M  V30 4093 C 395.484 4.18189 -1.37134 0
M  V30 4094 H 392.603 0.642538 -0.360991 0
M  V30 4095 H 395.245 1.20784 -1.46667 0
M  V30 4096 H 393.395 3.67929 -1.24741 0
M  V30 4097 H 395.067 2.76567 -3.692 0
M  V30 4098 H 393.31 2.54491 -3.51307 0
M  V30 4099 H 393.981 4.1758 -3.61013 0
M  V30 4100 H 396.457 3.78761 -1.72276 0
M  V30 4101 H 395.333 5.16394 -1.86087 0
M  V30 4102 H 395.594 4.41112 -0.295424 0
M  V30 4103 N 394.653 0.992116 1.22453 0
M  V30 4104 C 395.6 0.541731 2.24352 0
M  V30 4105 C 396.57 -0.425519 1.60557 0
M  V30 4106 O 397.755 -0.330453 1.87917 0
M  V30 4107 C 394.895 -0.138248 3.44823 0
M  V30 4108 C 394.008 0.870649 4.23136 0
M  V30 4109 C 393.143 0.164269 5.30946 0
M  V30 4110 C 392.182 1.16159 6.00977 0
M  V30 4111 N 391.319 0.483568 7.00433 0
M  V30 4112 H 396.159 1.41541 2.62241 0
M  V30 4113 H 393.696 0.709013 1.28885 0
M  V30 4114 H 395.654 -0.5494 4.13567 0
M  V30 4115 H 394.284 -0.975721 3.077 0
M  V30 4116 H 393.336 1.40013 3.53696 0
M  V30 4117 H 394.648 1.63014 4.7141 0
M  V30 4118 H 393.802 -0.303653 6.0594 0
M  V30 4119 H 392.541 -0.627733 4.83643 0
M  V30 4120 H 391.546 1.64015 5.24766 0
M  V30 4121 H 392.771 1.95445 6.50368 0
M  V30 4122 H 390.717 -0.289012 6.55363 0
M  V30 4123 H 390.634 1.18152 7.4671 0
M  V30 4124 H 391.902 0.0384219 7.79491 0
M  V30 4125 N 396.131 -1.37776 0.765217 0
M  V30 4126 C 397.377 -2.00145 0.327072 0
M  V30 4127 C 397.71 -1.60607 -1.09175 0
M  V30 4128 O 396.985 -0.849127 -1.74986 0
M  V30 4129 C 397.268 -3.57109 0.46319 0
M  V30 4130 C 397.121 -4.06576 1.92395 0
M  V30 4131 C 398.44 -4.39888 -0.136473 0
M  V30 4132 H 395.559 -0.727113 0.120316 0
M  V30 4133 H 398.201 -1.63549 0.967039 0
M  V30 4134 H 396.351 -3.88414 -0.0816358 0
M  V30 4135 H 398.023 -3.85864 2.52798 0
M  V30 4136 H 396.266 -3.59011 2.43503 0
M  V30 4137 H 396.937 -5.15639 1.97028 0
M  V30 4138 H 399.413 -4.14803 0.328317 0
M  V30 4139 H 398.289 -5.48899 -0.0110582 0
M  V30 4140 H 398.55 -4.24758 -1.22608 0
M  V30 4141 N 397.609 -0.515225 -1.4894 0
M  V30 4142 C 398.855 0.0242508 -2.02785 0
M  V30 4143 C 399.188 1.35323 -1.39289 0
M  V30 4144 O 398.463 1.87041 -0.533469 0
M  V30 4145 C 398.746 0.16184 -3.59736 0
M  V30 4146 C 398.599 -1.19127 -4.33738 0
M  V30 4147 C 399.918 0.895719 -4.30888 0
M  V30 4148 H 397.037 0.00733914 -0.736963 0
M  V30 4149 H 399.679 -0.669395 -1.77818 0
M  V30 4150 H 397.829 0.752624 -3.8114 0
M  V30 4151 H 399.501 -1.82202 -4.23792 0
M  V30 4152 H 397.744 -1.77695 -3.95736 0
M  V30 4153 H 398.415 -1.04815 -5.41957 0
M  V30 4154 H 400.891 0.394528 -4.14225 0
M  V30 4155 H 399.767 0.960859 -5.40425 0
M  V30 4156 H 400.028 1.9427 -3.97129 0
M  V30 4157 N 399.087 1.5561 -0.249682 0
M  V30 4158 C 400.312 2.03865 0.381305 0
M  V30 4159 C 400.737 1.12769 1.50548 0
M  V30 4160 O 400.095 0.121189 1.80895 0
M  V30 4161 C 400.143 3.50101 0.863816 0
M  V30 4162 O 399.247 3.62132 1.97318 0
M  V30 4163 H 398.588 0.658827 0.0827194 0
M  V30 4164 H 401.118 2.01105 -0.376552 0
M  V30 4165 H 401.128 3.90975 1.1663 0
M  V30 4166 H 399.803 4.1588 0.0411816 0
M  V30 4167 H 398.38 3.33155 1.67517 0
M  V30 4168 N 400.565 -0.0233959 1.57583 0
M  V30 4169 C 401.475 -1.03907 2.10334 0
M  V30 4170 C 402.491 -1.39257 1.04323 0
M  V30 4171 O 403.667 -1.48462 1.36091 0
M  V30 4172 C 400.732 -2.31938 2.57693 0
M  V30 4173 C 399.793 -2.03117 3.78209 0
M  V30 4174 C 399.026 -3.25043 4.233 0
M  V30 4175 O 399.249 -4.35916 3.67876 0
M  V30 4176 O 398.183 -3.10411 5.15683 0
M  V30 4177 H 402.009 -0.620748 2.97288 0
M  V30 4178 H 399.594 -0.240743 1.47448 0
M  V30 4179 H 401.476 -3.07196 2.88458 0
M  V30 4180 H 400.151 -2.73055 1.73847 0
M  V30 4181 H 399.058 -1.25408 3.52454 0
M  V30 4182 H 400.391 -1.66852 4.63056 0
M  V30 4183 N 402.043 -1.548 -0.295768 0
M  V30 4184 C 402.953 -1.89177 -1.38742 0
M  V30 4185 C 403.969 -0.786481 -1.55211 0
M  V30 4186 O 405.145 -1.08344 -1.69775 0
M  V30 4187 C 402.21 -2.13663 -2.73036 0
M  V30 4188 C 401.271 -3.37349 -2.65508 0
M  V30 4189 C 400.504 -3.60658 -3.93398 0
M  V30 4190 O 400.727 -2.86882 -4.93006 0
M  V30 4191 O 399.661 -4.54179 -3.94975 0
M  V30 4192 H 403.487 -2.82059 -1.12589 0
M  V30 4193 H 401.072 -1.41056 -0.492295 0
M  V30 4194 H 402.954 -2.3094 -3.52484 0
M  V30 4195 H 401.629 -1.23967 -2.99022 0
M  V30 4196 H 400.536 -3.25431 -1.84514 0
M  V30 4197 H 401.869 -4.27192 -2.44474 0
M  V30 4198 N 403.521 0.559213 -1.47345 0
M  V30 4199 C 404.484 1.64854 -1.59235 0
M  V30 4200 C 405.484 1.53851 -0.467607 0
M  V30 4201 O 406.674 1.58045 -0.732617 0
M  V30 4202 C 403.806 3.04388 -1.53496 0
M  V30 4203 H 404.999 1.55662 -2.56339 0
M  V30 4204 H 402.552 0.778973 -1.35505 0
M  V30 4205 H 403.287 3.19115 -0.577604 0
M  V30 4206 H 403.072 3.13783 -2.35123 0
M  V30 4207 H 404.562 3.83642 -1.6495 0
M  V30 4208 N 404.999 1.35443 0.805782 0
M  V30 4209 C 406.229 1.31687 1.59192 0
M  V30 4210 C 406.637 -0.10756 1.88894 0
M  V30 4211 O 405.98 -1.07017 1.49309 0
M  V30 4212 C 406.042 2.05686 2.94845 0
M  V30 4213 C 405.706 3.54868 2.87954 0
M  V30 4214 C 406.703 4.49444 2.61335 0
M  V30 4215 C 404.388 3.97528 3.07046 0
M  V30 4216 C 406.382 5.84655 2.53885 0
M  V30 4217 C 404.069 5.32833 2.99219 0
M  V30 4218 C 405.067 6.26209 2.72674 0
M  V30 4219 O 404.755 7.59032 2.64811 0
M  V30 4220 H 404.487 0.453878 0.50097 0
M  V30 4221 H 407.041 1.78892 1.0093 0
M  V30 4222 H 405.271 1.5312 3.55093 0
M  V30 4223 H 406.96 1.94998 3.55993 0
M  V30 4224 H 407.726 4.17804 2.46303 0
M  V30 4225 H 403.605 3.25233 3.26718 0
M  V30 4226 H 407.149 6.57508 2.33086 0
M  V30 4227 H 403.046 5.64087 3.13809 0
M  V30 4228 H 403.814 7.68967 2.80413 0
M  V30 4229 N 406.477 -1.02803 1.19454 0
M  V30 4230 C 407.44 -2.09264 0.934955 0
M  V30 4231 C 408.44 -1.60576 -0.0849015 0
M  V30 4232 O 409.63 -1.73554 0.149933 0
M  V30 4233 C 406.762 -3.38482 0.40531 0
M  V30 4234 H 407.955 -2.33726 1.87916 0
M  V30 4235 H 405.508 -1.19426 1.00832 0
M  V30 4236 H 406.243 -3.19689 -0.544899 0
M  V30 4237 H 406.028 -3.75142 1.14065 0
M  V30 4238 H 407.518 -4.16894 0.242806 0
M  V30 4239 N 407.956 -0.998596 -1.21925 0
M  V30 4240 C 408.919 -0.558679 -2.22287 0
M  V30 4241 C 409.919 0.361525 -1.56683 0
M  V30 4242 O 411.109 0.152695 -1.73529 0
M  V30 4243 C 408.241 0.18661 -3.40389 0
M  V30 4244 H 409.434 -1.4463 -2.62721 0
M  V30 4245 H 406.987 -0.786413 -1.35075 0
M  V30 4246 H 407.722 1.08996 -3.05435 0
M  V30 4247 H 407.507 -0.474188 -3.89222 0
M  V30 4248 H 408.997 0.482367 -4.14805 0
M  V30 4249 N 409.434 1.37368 -0.772513 0
M  V30 4250 C 410.68 2.00423 -0.3467 0
M  V30 4251 C 411.035 1.60224 1.06518 0
M  V30 4252 O 410.328 0.838712 1.72268 0
M  V30 4253 C 410.522 3.54817 -0.428876 0
M  V30 4254 C 410.351 4.10011 -1.84719 0
M  V30 4255 C 409.121 4.40927 -2.46803 0
M  V30 4256 C 411.319 4.30955 -2.80681 0
M  V30 4257 N 409.301 4.8184 -3.80399 0
M  V30 4258 C 410.672 4.74486 -3.99078 0
M  V30 4259 C 412.727 4.1309 -2.77958 0
M  V30 4260 C 411.43 5.02023 -5.15136 0
M  V30 4261 C 413.456 4.41764 -3.9319 0
M  V30 4262 C 412.818 4.85535 -5.10328 0
M  V30 4263 H 408.917 0.762413 -0.173927 0
M  V30 4264 H 411.501 1.66666 -1.00651 0
M  V30 4265 H 409.672 3.87881 0.200757 0
M  V30 4266 H 411.404 4.04696 0.0190668 0
M  V30 4267 H 408.159 4.30033 -1.98415 0
M  V30 4268 H 408.583 5.06604 -4.49089 0
M  V30 4269 H 413.225 3.7842 -1.88568 0
M  V30 4270 H 410.943 5.35582 -6.05126 0
M  V30 4271 H 414.529 4.29528 -3.92425 0
M  V30 4272 H 413.409 5.07296 -5.98013 0
M  V30 4273 N 410.912 0.523116 1.48665 0
M  V30 4274 C 411.842 -0.23231 2.32342 0
M  V30 4275 C 412.823 -0.941637 1.41659 0
M  V30 4276 O 414.008 -0.928751 1.70552 0
M  V30 4277 C 411.138 -1.28387 3.22698 0
M  V30 4278 C 410.092 -0.693098 4.22351 0
M  V30 4279 C 409.418 -1.8468 5.01794 0
M  V30 4280 C 410.718 0.33063 5.21252 0
M  V30 4281 H 412.412 0.466192 2.95748 0
M  V30 4282 H 409.958 0.225643 1.42221 0
M  V30 4283 H 411.911 -1.82024 3.80059 0
M  V30 4284 H 410.635 -2.01186 2.57278 0
M  V30 4285 H 409.294 -0.178299 3.66166 0
M  V30 4286 H 408.942 -2.56301 4.32804 0
M  V30 4287 H 408.642 -1.45747 5.69238 0
M  V30 4288 H 410.166 -2.38709 5.62006 0
M  V30 4289 H 411.58 -0.118407 5.73178 0
M  V30 4290 H 409.977 0.636974 5.9671 0
M  V30 4291 H 411.047 1.23883 4.68808 0
M  V30 4292 N 412.39 -1.55475 0.257931 0
M  V30 4293 C 413.3 -2.2549 -0.647425 0
M  V30 4294 C 414.316 -1.2748 -1.18427 0
M  V30 4295 O 415.492 -1.6038 -1.2182 0
M  V30 4296 C 412.557 -2.94916 -1.82278 0
M  V30 4297 C 411.618 -4.08363 -1.32432 0
M  V30 4298 C 410.851 -4.74469 -2.44366 0
M  V30 4299 O 411.074 -4.39701 -3.63344 0
M  V30 4300 O 410.008 -5.62763 -2.13497 0
M  V30 4301 H 413.834 -3.03593 -0.0807707 0
M  V30 4302 H 411.419 -1.49377 0.0259962 0
M  V30 4303 H 413.301 -3.38606 -2.50846 0
M  V30 4304 H 411.976 -2.19744 -2.37685 0
M  V30 4305 H 410.883 -3.69166 -0.605605 0
M  V30 4306 H 412.216 -4.85385 -0.816211 0
M  V30 4307 N 413.868 0.0150385 -1.57593 0
M  V30 4308 C 414.8 1.03912 -2.04291 0
M  V30 4309 C 415.813 1.31618 -0.958146 0
M  V30 4310 O 417.002 1.28859 -1.23522 0
M  V30 4311 C 414.102 2.37749 -2.41514 0
M  V30 4312 C 413.275 2.29198 -3.72541 0
M  V30 4313 C 412.334 3.45598 -3.96797 0
M  V30 4314 O 411.36 3.24461 -4.67668 0
M  V30 4315 N 412.562 4.67945 -3.43523 0
M  V30 4316 H 415.327 0.64099 -2.92765 0
M  V30 4317 H 412.888 0.20272 -1.60626 0
M  V30 4318 H 414.88 3.14364 -2.54867 0
M  V30 4319 H 413.45 2.69357 -1.58637 0
M  V30 4320 H 412.67 1.3759 -3.69408 0
M  V30 4321 H 413.958 2.20642 -4.5847 0
M  V30 4322 H 413.356 4.88017 -2.86104 0
M  V30 4323 H 411.913 5.41878 -3.62232 0
M  V30 4324 N 415.346 1.54954 0.287554 0
M  V30 4325 C 416.309 1.86076 1.33823 0
M  V30 4326 C 417.309 0.734414 1.43049 0
M  V30 4327 O 418.499 1.00266 1.42452 0
M  V30 4328 C 415.631 2.05305 2.72144 0
M  V30 4329 H 416.824 2.79984 1.07465 0
M  V30 4330 H 414.377 1.47223 0.524902 0
M  V30 4331 H 415.112 1.1373 3.03704 0
M  V30 4332 H 414.897 2.873 2.66836 0
M  V30 4333 H 416.387 2.30706 3.48087 0
M  V30 4334 N 416.824 -0.551391 1.4764 0
M  V30 4335 C 418.24 -0.877887 1.33287 0
M  V30 4336 C 418.44 -1.98817 0.327721 0
M  V30 4337 O 417.496 -2.51171 -0.258695 0
M  V30 4338 C 418.809 -1.26563 2.72768 0
M  V30 4339 C 420.357 -1.37673 2.81097 0
M  V30 4340 C 420.832 -1.79799 4.21232 0
M  V30 4341 N 422.323 -1.8694 4.23802 0
M  V30 4342 C 423.058 -2.20876 5.29151 0
M  V30 4343 N 422.554 -2.53386 6.448 0
M  V30 4344 N 424.347 -2.217 5.16532 0
M  V30 4345 H 416.498 0.18153 2.11623 0
M  V30 4346 H 418.761 0.0185514 0.947818 0
M  V30 4347 H 418.467 -0.523591 3.47781 0
M  V30 4348 H 418.341 -2.22052 3.04915 0
M  V30 4349 H 420.728 -2.10956 2.06353 0
M  V30 4350 H 420.809 -0.40357 2.52596 0
M  V30 4351 H 420.453 -1.07083 4.96483 0
M  V30 4352 H 420.383 -2.78128 4.4716 0
M  V30 4353 H 422.874 -1.64179 3.40373 0
M  V30 4354 H 423.187 -2.78325 7.20941 0
M  V30 4355 H 421.532 -2.50953 6.48111 0
M  V30 4356 H 424.723 -1.95745 4.25207 0
M  V30 4357 H 424.896 -2.47818 5.98741 0
M  V30 4358 N 418.302 -1.35869 -0.798587 0
M  V30 4359 C 419.55 -1.29332 -1.55298 0
M  V30 4360 C 419.871 0.129729 -1.94568 0
M  V30 4361 O 419.141 1.06796 -1.6423 0
M  V30 4362 H 417.721 -0.475737 -0.57592 0
M  V30 4363 H 420.383 -1.70062 -0.952093 0
M  V30 4364 H 419.479 -1.91458 -2.46476 0
M  V30 4365 N 419.78 1.02168 -1.19998 0
M  V30 4366 C 421.028 1.75338 -1.00504 0
M  V30 4367 C 421.349 1.89387 0.464506 0
M  V30 4368 O 420.619 1.43268 1.33608 0
M  V30 4369 H 419.199 0.649564 -0.368885 0
M  V30 4370 H 421.861 1.23205 -1.51018 0
M  V30 4371 H 420.957 2.75892 -1.45912 0
M  V30 4372 N 421.258 1.00505 1.21394 0
M  V30 4373 C 422.486 0.706609 1.9446 0
M  V30 4374 C 422.901 -0.73081 1.74082 0
M  V30 4375 O 422.258 -1.49446 1.04747 0
M  V30 4376 C 422.309 1.01824 3.46863 0
M  V30 4377 O 422.03 2.39919 3.66566 0
M  V30 4378 C 423.531 0.739216 4.37093 0
M  V30 4379 H 420.751 0.260394 0.618414 0
M  V30 4380 H 423.295 1.34311 1.54211 0
M  V30 4381 H 421.45 0.427343 3.85036 0
M  V30 4382 H 421.864 2.50784 4.6066 0
M  V30 4383 H 423.338 1.00744 5.42729 0
M  V30 4384 H 423.815 -0.326746 4.37983 0
M  V30 4385 H 424.421 1.31173 4.04566 0
M  V30 4386 N 422.737 -1.36956 0.779787 0
M  V30 4387 C 423.967 -2.03459 0.358877 0
M  V30 4388 C 424.375 -1.58939 -1.02641 0
M  V30 4389 O 423.718 -0.769777 -1.66794 0
M  V30 4390 C 423.78 -3.5796 0.332393 0
M  V30 4391 C 423.444 -4.25644 1.66362 0
M  V30 4392 C 424.441 -4.49205 2.61746 0
M  V30 4393 C 422.126 -4.63313 1.94027 0
M  V30 4394 C 424.12 -5.09503 3.82996 0
M  V30 4395 C 421.807 -5.2333 3.15546 0
M  V30 4396 C 422.805 -5.46363 4.0985 0
M  V30 4397 O 422.493 -6.05122 5.29228 0
M  V30 4398 H 422.225 -0.659767 0.147254 0
M  V30 4399 H 424.779 -1.76111 1.05708 0
M  V30 4400 H 423.009 -3.84388 -0.422237 0
M  V30 4401 H 424.698 -4.05852 -0.0625389 0
M  V30 4402 H 425.464 -4.20508 2.41657 0
M  V30 4403 H 421.343 -4.44715 1.21448 0
M  V30 4404 H 424.887 -5.27397 4.56617 0
M  V30 4405 H 420.784 -5.51451 3.35517 0
M  V30 4406 H 421.552 -6.23595 5.30161 0
M  V30 4407 N 424.215 -0.530993 -1.48385 0
M  V30 4408 C 425.125 0.23503 -2.3342 0
M  V30 4409 C 426.141 0.93801 -1.46552 0
M  V30 4410 O 427.317 0.912745 -1.7953 0
M  V30 4411 C 424.382 1.26778 -3.22689 0
M  V30 4412 C 423.443 0.575038 -4.25431 0
M  V30 4413 C 422.676 1.55858 -5.10435 0
M  V30 4414 O 422.899 2.79129 -4.97437 0
M  V30 4415 O 421.833 1.09742 -5.91811 0
M  V30 4416 H 425.659 -0.461794 -3.00169 0
M  V30 4417 H 423.244 -0.291903 -1.46521 0
M  V30 4418 H 425.126 1.86457 -3.77904 0
M  V30 4419 H 423.801 1.94699 -2.586 0
M  V30 4420 H 422.708 -0.0622782 -3.74048 0
M  V30 4421 H 424.041 -0.062253 -4.92161 0
M  V30 4422 N 425.693 1.55336 -0.266172 0
M  V30 4423 C 426.623 2.25146 0.618981 0
M  V30 4424 C 427.604 1.23845 1.16604 0
M  V30 4425 O 428.789 1.52544 1.20183 0
M  V30 4426 C 425.919 2.96572 1.80728 0
M  V30 4427 C 424.873 4.04726 1.39215 0
M  V30 4428 C 424.199 4.63678 2.66283 0
M  V30 4429 C 425.499 5.19407 0.548942 0
M  V30 4430 H 427.193 2.99377 0.0368116 0
M  V30 4431 H 424.739 1.43991 0.0162651 0
M  V30 4432 H 426.692 3.44116 2.43232 0
M  V30 4433 H 425.416 2.19861 2.41514 0
M  V30 4434 H 424.075 3.57979 0.790351 0
M  V30 4435 H 423.723 3.83646 3.25308 0
M  V30 4436 H 423.423 5.367 2.39222 0
M  V30 4437 H 424.947 5.13967 3.29651 0
M  V30 4438 H 426.361 5.63059 1.07876 0
M  V30 4439 H 424.758 5.98936 0.373593 0
M  V30 4440 H 425.828 4.8295 -0.434394 0
M  V30 4441 N 427.171 -0.0066808 1.57599 0
M  V30 4442 C 428.396 -0.707738 1.94951 0
M  V30 4443 C 428.821 -1.66882 0.867868 0
M  V30 4444 O 428.179 -1.80457 -0.17458 0
M  V30 4445 C 428.227 -1.42162 3.31394 0
M  V30 4446 O 427.331 -2.53578 3.25226 0
M  V30 4447 H 426.672 -0.188752 0.636607 0
M  V30 4448 H 429.202 0.0445193 2.04552 0
M  V30 4449 H 429.212 -1.78655 3.66806 0
M  V30 4450 H 427.887 -0.716903 4.09675 0
M  V30 4451 H 426.464 -2.19463 3.01481 0
M  V30 4452 N 428.649 -1.55105 -0.279332 0
M  V30 4453 C 429.874 -1.7976 -1.03446 0
M  V30 4454 C 430.299 -0.565952 -1.79384 0
M  V30 4455 O 429.657 0.484259 -1.74713 0
M  V30 4456 C 429.705 -3.0179 -1.97371 0
M  V30 4457 O 428.809 -2.76432 -3.06038 0
M  V30 4458 H 428.15 -0.594334 -0.29608 0
M  V30 4459 H 430.68 -2.02235 -0.310165 0
M  V30 4460 H 430.69 -3.30351 -2.39441 0
M  V30 4461 H 429.365 -3.91085 -1.4151 0
M  V30 4462 H 427.942 -2.58949 -2.68328 0
M  V30 4463 N 430.127 0.543554 -1.4793 0
M  V30 4464 C 431.373 1.30201 -1.55485 0
M  V30 4465 C 431.706 1.92925 -0.222201 0
M  V30 4466 O 430.981 1.78586 0.77053 0
M  V30 4467 C 431.264 2.40174 -2.68307 0
M  V30 4468 C 431.117 1.8223 -4.11233 0
M  V30 4469 C 432.436 3.42024 -2.76961 0
M  V30 4470 H 429.555 0.472036 -0.565996 0
M  V30 4471 H 432.197 0.606914 -1.80046 0
M  V30 4472 H 430.347 2.99463 -2.47495 0
M  V30 4473 H 432.019 1.27096 -4.43446 0
M  V30 4474 H 430.262 1.12832 -4.18869 0
M  V30 4475 H 430.933 2.61793 -4.85972 0
M  V30 4476 H 433.409 2.92672 -2.95774 0
M  V30 4477 H 432.285 4.16383 -3.57654 0
M  V30 4478 H 432.546 4.0173 -1.84568 0
M  V30 4479 N 431.605 1.3629 0.791371 0
M  V30 4480 C 432.535 1.33137 1.91825 0
M  V30 4481 C 433.516 0.203168 1.68882 0
M  V30 4482 O 434.701 0.400509 1.90025 0
M  V30 4483 C 431.831 1.11793 3.28816 0
M  V30 4484 C 430.785 2.21417 3.66277 0
M  V30 4485 C 430.111 1.85218 5.01596 0
M  V30 4486 C 431.411 3.63489 3.75064 0
M  V30 4487 H 433.105 2.2743 1.9472 0
M  V30 4488 H 430.651 1.09479 0.935437 0
M  V30 4489 H 432.604 1.08222 4.07266 0
M  V30 4490 H 431.328 0.139501 3.26302 0
M  V30 4491 H 429.987 2.2411 2.90121 0
M  V30 4492 H 429.635 0.859544 4.95602 0
M  V30 4493 H 429.335 2.58611 5.27631 0
M  V30 4494 H 430.859 1.832 5.82469 0
M  V30 4495 H 432.273 3.63034 4.43711 0
M  V30 4496 H 430.67 4.35771 4.12582 0
M  V30 4497 H 431.74 3.98536 2.76219 0
M  V30 4498 N 433.083 -1.0153 1.20538 0
M  V30 4499 C 434.494 -1.56598 1.01657 0
M  V30 4500 C 434.845 -1.91505 -0.426668 0
M  V30 4501 O 433.97 -1.72375 -1.30827 0
M  V30 4502 C 434.565 -2.84542 1.83905 0
M  V30 4503 C 433.124 -3.36133 1.69386 0
M  V30 4504 C 432.271 -2.09427 1.81757 0
M  V30 4505 H 435.222 -0.838974 1.34711 0
M  V30 4506 H 435.243 -3.56004 1.34319 0
M  V30 4507 H 434.755 -2.59105 2.8894 0
M  V30 4508 H 432.856 -3.66528 0.669933 0
M  V30 4509 H 432.969 -4.08248 2.50739 0
M  V30 4510 H 431.333 -2.21941 1.24957 0
M  V30 4511 H 432.116 -1.86414 2.88279 0
M  V30 4512 N 434.561 -1.01147 -1.20859 0
M  V30 4513 C 435.524 -0.582224 -2.21682 0
M  V30 4514 C 436.524 0.344887 -1.57058 0
M  V30 4515 O 437.714 0.134281 -1.73682 0
M  V30 4516 C 434.846 0.150496 -3.40568 0
M  V30 4517 H 436.039 -1.47408 -2.61172 0
M  V30 4518 H 433.592 -0.800695 -1.34233 0
M  V30 4519 H 434.327 1.0575 -3.06574 0
M  V30 4520 H 434.112 -0.515444 -3.88697 0
M  V30 4521 H 435.602 0.438344 -4.15293 0
M  V30 4522 N 436.039 1.36541 -0.78704 0
M  V30 4523 C 437.267 2.03561 -0.370199 0
M  V30 4524 C 437.682 1.59347 1.01263 0
M  V30 4525 O 437.039 0.781781 1.64907 0
M  V30 4526 C 437.09 3.59033 -0.421614 0
M  V30 4527 O 436.811 4.01634 -1.7499 0
M  V30 4528 C 438.312 4.433 0.00489763 0
M  V30 4529 H 435.532 0.653346 -0.152904 0
M  V30 4530 H 438.076 1.74566 -1.06522 0
M  V30 4531 H 436.231 3.86746 0.224971 0
M  V30 4532 H 436.645 4.96217 -1.69909 0
M  V30 4533 H 438.119 5.51939 -0.0822184 0
M  V30 4534 H 438.596 4.26285 1.05723 0
M  V30 4535 H 439.202 4.20843 -0.614085 0
M  V30 4536 N 437.518 0.538854 1.48102 0
M  V30 4537 C 438.929 0.100679 1.86428 0
M  V30 4538 C 439.28 -1.32447 1.44749 0
M  V30 4539 O 438.405 -1.99339 0.842199 0
M  V30 4540 C 439 0.175933 3.38343 0
M  V30 4541 C 437.559 -0.207098 3.7583 0
M  V30 4542 C 436.706 0.531741 2.72154 0
M  V30 4543 H 439.657 0.749614 1.3988 0
M  V30 4544 H 439.678 -0.610144 3.75576 0
M  V30 4545 H 439.19 1.21328 3.68648 0
M  V30 4546 H 437.291 -1.24626 3.5114 0
M  V30 4547 H 437.404 0.138687 4.78899 0
M  V30 4548 H 435.768 -0.0230462 2.5469 0
M  V30 4549 H 436.551 1.56989 3.05302 0
M  V30 4550 N 438.996 -1.55193 0.274407 0
M  V30 4551 C 439.959 -2.212 -0.600279 0
M  V30 4552 C 440.959 -1.18963 -1.08187 0
M  V30 4553 O 442.149 -1.43873 -0.982158 0
M  V30 4554 C 439.281 -2.87739 -1.82809 0
M  V30 4555 H 440.474 -2.9989 -0.0239682 0
M  V30 4556 H 438.027 -1.5628 0.0250192 0
M  V30 4557 H 438.762 -2.13058 -2.44493 0
M  V30 4558 H 438.547 -3.62658 -1.49069 0
M  V30 4559 H 440.037 -3.38171 -2.45011 0
M  V30 4560 N 440.474 -0.00167713 -1.576 0
M  V30 4561 C 441.722 0.681471 -1.90264 0
M  V30 4562 C 442.043 1.7422 -0.875924 0
M  V30 4563 O 441.313 1.95709 0.0864412 0
M  V30 4564 H 439.893 0.254696 -0.702239 0
M  V30 4565 H 442.555 -0.0429996 -1.94853 0
M  V30 4566 H 441.651 1.15166 -2.90075 0
M  V30 4567 N 441.952 1.55251 0.271103 0
M  V30 4568 C 443.198 1.76207 1.00394 0
M  V30 4569 C 443.531 0.562604 1.85872 0
M  V30 4570 O 442.806 -0.439785 1.89463 0
M  V30 4571 C 443.089 3.06828 1.8849 0
M  V30 4572 C 442.942 4.37134 1.05992 0
M  V30 4573 C 444.261 3.33503 2.87165 0
M  V30 4574 H 441.38 0.641086 0.363562 0
M  V30 4575 H 444.022 1.87982 0.276189 0
M  V30 4576 H 442.172 2.96921 2.5054 0
M  V30 4577 H 443.844 4.59001 0.459978 0
M  V30 4578 H 442.087 4.32275 0.363443 0
M  V30 4579 H 442.758 5.2486 1.70955 0
M  V30 4580 H 445.234 3.43215 2.3525 0
M  V30 4581 H 444.11 4.2616 3.45946 0
M  V30 4582 H 444.371 2.53235 3.62387 0
M  V30 4583 N 443.43 -0.535701 1.48216 0
M  V30 4584 C 444.655 -1.32149 1.59848 0
M  V30 4585 C 445.08 -1.86338 0.256842 0
M  V30 4586 O 444.438 -1.64107 -0.770632 0
M  V30 4587 C 444.486 -2.45224 2.64381 0
M  V30 4588 O 443.59 -3.48093 2.21144 0
M  V30 4589 H 442.931 -0.391634 0.536208 0
M  V30 4590 H 445.461 -0.645202 1.94161 0
M  V30 4591 H 445.471 -2.91491 2.85476 0
M  V30 4592 H 444.146 -2.05143 3.61786 0
M  V30 4593 H 442.723 -3.07984 2.10239 0
M  V30 4594 N 444.908 -1.36708 -0.784132 0
M  V30 4595 C 446.154 -1.31426 -1.54451 0
M  V30 4596 C 446.487 0.10476 -1.93917 0
M  V30 4597 O 445.762 1.05934 -1.6312 0
M  V30 4598 C 446.045 -2.24189 -2.818 0
M  V30 4599 C 445.898 -3.74813 -2.48667 0
M  V30 4600 C 447.217 -2.15626 -3.83658 0
M  V30 4601 H 444.336 -0.478739 -0.560337 0
M  V30 4602 H 446.978 -1.67305 -0.900498 0
M  V30 4603 H 445.128 -1.93722 -3.36755 0
M  V30 4604 H 446.8 -4.15823 -1.99722 0
M  V30 4605 H 445.043 -3.93989 -1.81535 0
M  V30 4606 H 445.714 -4.35138 -3.39646 0
M  V30 4607 H 448.19 -2.42456 -3.38163 0
M  V30 4608 H 447.066 -2.82694 -4.70506 0
M  V30 4609 H 447.327 -1.14522 -4.27009 0
M  V30 4610 N 446.386 1.0089 -1.21074 0
M  V30 4611 C 447.296 2.13039 -0.982425 0
M  V30 4612 C 448.312 1.73881 0.0642161 0
M  V30 4613 O 449.488 2.01012 -0.12496 0
M  V30 4614 C 446.553 3.42377 -0.545803 0
M  V30 4615 C 445.614 3.95731 -1.6642 0
M  V30 4616 C 444.847 5.18896 -1.24832 0
M  V30 4617 O 445.07 5.70273 -0.120265 0
M  V30 4618 O 444.004 5.65597 -2.05873 0
M  V30 4619 H 447.83 2.35175 -1.92163 0
M  V30 4620 H 445.415 1.1142 -0.995285 0
M  V30 4621 H 447.297 4.20244 -0.311912 0
M  V30 4622 H 445.972 3.21639 0.364727 0
M  V30 4623 H 444.879 3.19108 -1.95246 0
M  V30 4624 H 446.212 4.20872 -2.55201 0
M  V30 4625 O 447.903 1.14481 1.13914 0
M  V30 4626 H 448.594 0.866659 1.7323 0
M  V30 END ATOM
M  V30 BEGIN BOND
M  V30 END BOND
M  V30 END CTAB
M  END
$$$$
