drugbank_target|P19793 Retinoic acid receptor RXR-alpha (DB00132; DB00210; DB00307; DB00412; DB00459; DB00523; DB00749; DB00755; DB00926; DB01393; DB01436; DB02746; DB03756; DB04224; DB04557; DB05956; DB07557; DB07863; DB08063; DB08402; DB08601)
 OpenBabel12092119313D

  0  0  0     0  0            999 V3000
M  V30 BEGIN CTAB
M  V30 COUNTS 7112 7191 0 0 0
M  V30 BEGIN ATOM
M  V30 1 H -0.908 1.98254 -0.117106 0
M  V30 2 N 0 1.576 0 0
M  V30 3 C 0.933 2.03868 1.02534 0
M  V30 4 C 1.911 0.928543 1.3348 0
M  V30 5 O 3.095 1.19667 1.45644 0
M  V30 6 C 0.222 2.43627 2.35294 0
M  V30 7 C -0.732 3.65373 2.2001 0
M  V30 8 S 0.101 5.13292 1.52614 0
M  V30 9 C 1.257 5.56322 2.86805 0
M  V30 10 H 1.49 2.90518 0.631377 0
M  V30 11 H -0.977 1.52953 0.210867 0
M  V30 12 H 0.981 2.67203 3.11629 0
M  V30 13 H -0.358 1.57376 2.7183 0
M  V30 14 H -1.165 3.90944 3.18086 0
M  V30 15 H -1.563 3.418 1.51819 0
M  V30 16 H 0.729 5.58782 3.83104 0
M  V30 17 H 1.672 6.56266 2.65933 0
M  V30 18 H 2.08 4.83886 2.90714 0
M  V30 19 N 1.4781 -0.272755 1.55222 0
M  V30 20 C 2.7551 -1.02562 1.66555 0
M  V30 21 C 3.1351 -2.04282 0.532189 0
M  V30 22 O 2.4831 -2.23662 -0.467717 0
M  V30 23 C 2.6931 -1.6822 3.05782 0
M  V30 24 C 4.0411 -2.19373 3.63539 0
M  V30 25 O 5.0651 -1.78206 3.08417 0
M  V30 26 O 3.9241 -2.94883 4.60115 0
M  V30 27 H 1.0181 -0.475755 0.676451 0
M  V30 28 H 3.5641 -0.268593 1.67561 0
M  V30 29 H 2.3361 -0.945112 3.79715 0
M  V30 30 H 1.9591 -2.50609 3.08676 0
M  V30 31 N 2.9562 -1.48159 -0.537278 0
M  V30 32 C 4.1842 -1.59454 -1.31841 0
M  V30 33 C 4.5992 -0.252065 -1.8711 0
M  V30 34 O 3.9562 0.757621 -1.66031 0
M  V30 35 C 4.0072 -2.63546 -2.47439 0
M  V30 36 O 3.7282 -3.92583 -1.94449 0
M  V30 37 C 5.2292 -2.85212 -3.39366 0
M  V30 38 H 2.4492 -0.53785 -0.401196 0
M  V30 39 H 4.9932 -1.93932 -0.648891 0
M  V30 40 H 3.1482 -2.31946 -3.1029 0
M  V30 41 H 3.5622 -4.49629 -2.70063 0
M  V30 42 H 5.0362 -3.61863 -4.16844 0
M  V30 43 H 5.5132 -1.93765 -3.94147 0
M  V30 44 H 6.1192 -3.18086 -2.82314 0
M  V30 45 N 4.4343 0.785586 -1.36625 0
M  V30 46 C 5.3813 1.89838 -1.31264 0
M  V30 47 C 6.3513 1.65115 -0.180633 0
M  V30 48 O 7.5363 1.87222 -0.36777 0
M  V30 49 C 4.6763 3.26706 -1.11163 0
M  V30 50 C 3.7893 3.63476 -2.33472 0
M  V30 51 C 2.9243 4.89481 -2.06353 0
M  V30 52 C 1.9633 5.18941 -3.24602 0
M  V30 53 N 1.1003 6.36131 -2.97123 0
M  V30 54 H 5.9403 1.93756 -2.26413 0
M  V30 55 H 3.4773 0.947454 -1.12524 0
M  V30 56 H 5.4353 4.05639 -0.975337 0
M  V30 57 H 4.0653 3.222 -0.196674 0
M  V30 58 H 3.1173 2.79636 -2.57891 0
M  V30 59 H 4.4293 3.81193 -3.21704 0
M  V30 60 H 3.5833 5.76288 -1.89675 0
M  V30 61 H 2.3223 4.73841 -1.15437 0
M  V30 62 H 1.3273 4.30615 -3.41834 0
M  V30 63 H 2.5523 5.36498 -4.16349 0
M  V30 64 H 0.4983 6.21875 -2.08823 0
M  V30 65 H 0.4153 6.54198 -3.78894 0
M  V30 66 H 1.6833 7.2591 -2.84033 0
M  V30 67 N 5.9124 1.20967 1.01018 0
M  V30 68 C 6.8624 0.93182 2.08089 0
M  V30 69 C 7.8464 -0.110898 1.60517 0
M  V30 70 O 9.0384 0.0973392 1.76732 0
M  V30 71 C 6.1674 0.492719 3.39746 0
M  V30 72 C 5.2534 1.56922 3.94 0
M  V30 73 N 5.6444 2.79312 4.21686 0
M  V30 74 C 3.9424 1.43688 4.2222 0
M  V30 75 C 4.6434 3.48797 4.65527 0
M  V30 76 N 3.6194 2.76224 4.68189 0
M  V30 77 H 7.4214 1.86175 2.27412 0
M  V30 78 H 4.9354 1.10463 1.19045 0
M  V30 79 H 6.9324 0.275044 4.15992 0
M  V30 80 H 5.5924 -0.430509 3.21833 0
M  V30 81 H 6.6034 3.15903 4.10397 0
M  V30 82 H 3.2804 0.578548 4.13472 0
M  V30 83 H 4.6704 4.53561 4.95714 0
M  V30 84 N 7.3905 -1.2043 1.01659 0
M  V30 85 C 8.6375 -1.89797 0.705917 0
M  V30 86 C 8.9655 -1.78848 -0.764439 0
M  V30 87 O 8.2205 -1.16694 -1.57102 0
M  V30 88 C 8.5195 -3.40464 1.08714 0
M  V30 89 C 8.1855 -3.71614 2.5537 0
M  V30 90 C 6.8475 -3.79826 2.95441 0
M  V30 91 C 9.1995 -3.85915 3.50313 0
M  V30 92 C 6.5275 -3.99797 4.29394 0
M  V30 93 C 8.8795 -4.07396 4.83954 0
M  V30 94 C 7.5435 -4.13837 5.23732 0
M  V30 95 H 6.8135 -0.694518 0.258313 0
M  V30 96 H 9.4605 -1.42691 1.27717 0
M  V30 97 H 7.7655 -3.89385 0.434309 0
M  V30 98 H 9.4625 -3.92433 0.824461 0
M  V30 99 H 6.0525 -3.65822 2.23321 0
M  V30 100 H 10.2365 -3.78926 3.20513 0
M  V30 101 H 5.4925 -4.03018 4.59768 0
M  V30 102 H 9.6665 -4.17404 5.57447 0
M  V30 103 H 7.2935 -4.29064 6.27541 0
M  V30 104 N 8.8686 -0.792821 -1.36206 0
M  V30 105 C 9.7986 -0.207853 -2.32573 0
M  V30 106 C 10.7796 0.659055 -1.56813 0
M  V30 107 O 11.9646 0.592176 -1.84951 0
M  V30 108 C 9.0946 0.655449 -3.41059 0
M  V30 109 C 8.0486 -0.111842 -4.27854 0
M  V30 110 C 7.3746 0.872274 -5.27537 0
M  V30 111 C 8.6746 -1.30299 -5.05786 0
M  V30 112 H 10.3686 -1.01294 -2.81744 0
M  V30 113 H 7.9146 -0.48854 -1.3546 0
M  V30 114 H 9.8676 1.07464 -4.07467 0
M  V30 115 H 8.5916 1.49328 -2.90463 0
M  V30 116 H 7.2506 -0.512053 -3.63006 0
M  V30 117 H 6.8986 1.70523 -4.73214 0
M  V30 118 H 6.5986 0.363291 -5.86476 0
M  V30 119 H 8.1226 1.28996 -5.96818 0
M  V30 120 H 9.5366 -0.959379 -5.65216 0
M  V30 121 H 7.9336 -1.7455 -5.74154 0
M  V30 122 H 9.0036 -2.09663 -4.37229 0
M  V30 123 N 10.3467 1.47872 -0.545128 0
M  V30 124 C 11.7577 1.86384 -0.108581 0
M  V30 125 C 12.1087 1.45309 1.31832 0
M  V30 126 O 11.2337 0.850641 1.9898 0
M  V30 127 C 11.8287 3.38265 -0.190274 0
M  V30 128 C 10.3877 3.75914 0.191164 0
M  V30 129 C 9.5347 2.71926 -0.543273 0
M  V30 130 H 12.4857 1.39561 -0.755537 0
M  V30 131 H 12.5067 3.75831 0.594217 0
M  V30 132 H 12.0187 3.6813 -1.2289 0
M  V30 133 H 10.1197 3.51665 1.23136 0
M  V30 134 H 10.2327 4.78836 -0.158987 0
M  V30 135 H 8.5967 2.54697 0.0122495 0
M  V30 136 H 9.3797 3.04634 -1.58282 0
M  V30 137 N 11.8248 0.280983 1.55075 0
M  V30 138 C 12.7548 -0.597469 2.25727 0
M  V30 139 C 13.7358 -1.15417 1.24952 0
M  V30 140 O 14.9208 -1.18722 1.53684 0
M  V30 141 C 12.0508 -1.7789 2.98283 0
M  V30 142 C 11.0048 -1.35347 4.06036 0
M  V30 143 C 10.3308 -2.61846 4.66198 0
M  V30 144 C 11.6308 -0.499354 5.19907 0
M  V30 145 H 13.3248 -0.00824265 2.99399 0
M  V30 146 H 10.8708 -0.0025244 1.44 0
M  V30 147 H 12.8238 -2.39937 3.46422 0
M  V30 148 H 11.5478 -2.39405 2.22155 0
M  V30 149 H 10.2068 -0.756156 3.58717 0
M  V30 150 H 9.8548 -3.21632 3.86732 0
M  V30 151 H 9.5548 -2.3409 5.38958 0
M  V30 152 H 11.0788 -3.24732 5.1709 0
M  V30 153 H 12.4928 -1.02498 5.64063 0
M  V30 154 H 10.8898 -0.316424 5.99265 0
M  V30 155 H 11.9598 0.480459 4.82514 0
M  V30 156 N 13.3029 -1.57598 0.00835791 0
M  V30 157 C 14.5799 -1.82172 -0.712235 0
M  V30 158 C 14.9599 -0.887873 -1.9152 0
M  V30 159 O 14.3079 0.06146 -2.28417 0
M  V30 160 C 14.5179 -3.30875 -1.11008 0
M  V30 161 C 15.8659 -3.96826 -1.51044 0
M  V30 162 O 16.8899 -3.35248 -1.20364 0
M  V30 163 O 15.7489 -5.05318 -2.08125 0
M  V30 164 H 12.8429 -0.750435 -0.347529 0
M  V30 165 H 15.3889 -1.69665 0.0344523 0
M  V30 166 H 14.1609 -3.90481 -0.252982 0
M  V30 167 H 13.7839 -3.48412 -1.9156 0
M  V30 168 N 14.781 0.264519 -1.55364 0
M  V30 169 C 16.028 0.994986 -1.7637 0
M  V30 170 C 16.356 1.85976 -0.5695 0
M  V30 171 O 15.611 1.90509 0.44776 0
M  V30 172 C 15.91 1.9004 -3.02687 0
M  V30 173 C 15.576 1.19243 -4.34847 0
M  V30 174 C 14.238 0.996709 -4.70764 0
M  V30 175 C 16.59 0.689296 -5.16622 0
M  V30 176 C 13.918 0.285261 -5.86006 0
M  V30 177 C 16.27 -0.00860079 -6.32599 0
M  V30 178 C 14.934 -0.215963 -6.67151 0
M  V30 179 H 14.204 0.364091 -0.645383 0
M  V30 180 H 16.851 0.266543 -1.89636 0
M  V30 181 H 15.156 2.69533 -2.84357 0
M  V30 182 H 16.853 2.46695 -3.16137 0
M  V30 183 H 13.443 1.3549 -4.06621 0
M  V30 184 H 17.627 0.828108 -4.89342 0
M  V30 185 H 12.883 0.113961 -6.11294 0
M  V30 186 H 17.057 -0.406186 -6.95214 0
M  V30 187 H 14.684 -0.769217 -7.56298 0
M  V30 188 N 16.2591 1.48442 0.529413 0
M  V30 189 C 17.4841 1.60406 1.31471 0
M  V30 190 C 17.9091 0.264738 1.86228 0
M  V30 191 O 17.2671 -0.763668 1.64432 0
M  V30 192 C 17.3151 2.65419 2.44101 0
M  V30 193 O 16.4191 2.22618 3.47153 0
M  V30 194 H 15.7601 0.537863 0.389357 0
M  V30 195 H 18.2901 1.94432 0.636965 0
M  V30 196 H 18.3001 2.86709 2.90279 0
M  V30 197 H 16.9751 3.62652 2.03608 0
M  V30 198 H 15.5521 2.11543 3.0709 0
M  V30 199 N 17.7372 -0.778329 1.37039 0
M  V30 200 C 18.9652 -1.56734 1.35063 0
M  V30 201 C 19.3802 -1.88686 -0.0655597 0
M  V30 202 O 18.7372 -1.5096 -1.02554 0
M  V30 203 C 18.7882 -2.88163 2.18276 0
M  V30 204 O 18.5092 -2.57583 3.54376 0
M  V30 205 C 20.0102 -3.82422 2.24206 0
M  V30 206 H 17.2302 -0.485778 0.462883 0
M  V30 207 H 19.7742 -0.965185 1.8029 0
M  V30 208 H 17.9292 -3.44818 1.76576 0
M  V30 209 H 18.3432 -3.41699 3.97922 0
M  V30 210 H 19.8172 -4.71667 2.86765 0
M  V30 211 H 20.2942 -4.21078 1.24861 0
M  V30 212 H 20.9002 -3.31697 2.6619 0
M  V30 213 N 19.2153 -1.21501 -1.00376 0
M  V30 214 C 20.1473 -0.933174 -2.09343 0
M  V30 215 C 21.1603 0.0840896 -1.62583 0
M  V30 216 O 22.3493 -0.148563 -1.77881 0
M  V30 217 C 19.4493 -0.379869 -3.36764 0
M  V30 218 C 18.6223 -1.45176 -4.12605 0
M  V30 219 C 17.6813 -0.907476 -5.18316 0
M  V30 220 O 16.7073 -1.5912 -5.46507 0
M  V30 221 N 17.9093 0.276649 -5.7984 0
M  V30 222 H 20.6743 -1.87124 -2.34104 0
M  V30 223 H 18.2353 -1.12043 -1.16867 0
M  V30 224 H 20.2273 -0.00131488 -4.047 0
M  V30 225 H 18.7973 0.463048 -3.09151 0
M  V30 226 H 18.0173 -2.00411 -3.39454 0
M  V30 227 H 19.3053 -2.17328 -4.6005 0
M  V30 228 H 18.7033 0.849147 -5.59291 0
M  V30 229 H 17.2603 0.596702 -6.49063 0
M  V30 230 N 20.6934 1.19889 -1.02296 0
M  V30 231 C 21.9394 1.89701 -0.717033 0
M  V30 232 C 22.2724 1.7905 0.751989 0
M  V30 233 O 21.5474 1.17891 1.547 0
M  V30 234 C 21.8304 3.40858 -1.16136 0
M  V30 235 C 21.6834 3.60411 -2.69117 0
M  V30 236 C 23.0024 4.33876 -0.737549 0
M  V30 237 H 20.1214 0.688874 -0.261957 0
M  V30 238 H 22.7634 1.41154 -1.27183 0
M  V30 239 H 20.9134 3.82335 -0.689342 0
M  V30 240 H 22.5854 3.28145 -3.2422 0
M  V30 241 H 20.8284 3.03665 -3.0979 0
M  V30 242 H 21.4994 4.66396 -2.95261 0
M  V30 243 H 23.9754 4.00081 -1.14344 0
M  V30 244 H 22.8514 5.38242 -1.0764 0
M  V30 245 H 23.1124 4.40628 0.360436 0
M  V30 246 N 22.1715 0.800033 1.35784 0
M  V30 247 C 23.1195 0.193851 2.31791 0
M  V30 248 C 24.1135 -0.652744 1.56319 0
M  V30 249 O 25.3195 -0.546641 1.71499 0
M  V30 250 H 21.6945 0.04392 0.750716 0
M  V30 251 H 23.6655 1.01883 2.80468 0
M  V30 252 C 22.4145 -0.648338 3.41602 0
M  V30 253 H 21.7375 -0.00624665 3.998 0
M  V30 254 H 23.1775 -1.03898 4.11073 0
M  V30 255 C 21.6365 -1.8111 2.84079 0
M  V30 256 O 22.1665 -2.90825 2.77099 0
M  V30 257 N 20.3725 -1.62056 2.41218 0
M  V30 258 H 19.9195 -0.728123 2.47095 0
M  V30 259 H 19.8775 -2.40013 2.03079 0
M  V30 260 N 23.6496 -1.47581 0.552962 0
M  V30 261 C 24.8746 -2.07378 0.0300593 0
M  V30 262 C 25.2996 -1.40355 -1.25229 0
M  V30 263 O 24.6576 -0.477099 -1.7491 0
M  V30 264 C 24.7056 -3.60274 -0.153231 0
M  V30 265 O 23.8096 -3.94041 -1.21678 0
M  V30 266 H 23.1506 -0.662158 0.0494182 0
M  V30 267 H 25.6806 -1.89662 0.767434 0
M  V30 268 H 25.6906 -4.0633 -0.368761 0
M  V30 269 H 24.3656 -4.08455 0.783397 0
M  V30 270 H 22.9426 -3.59735 -0.982079 0
M  V30 271 N 25.1277 -0.289203 -1.54924 0
M  V30 272 C 26.3527 0.329299 -2.04769 0
M  V30 273 C 26.7777 1.4763 -1.16564 0
M  V30 274 O 26.1357 1.80527 -0.167186 0
M  V30 275 C 26.1837 0.774438 -3.52186 0
M  V30 276 O 25.2877 1.88038 -3.67036 0
M  V30 277 H 24.6287 0.0659259 -0.660719 0
M  V30 278 H 27.1587 -0.42761 -2.00082 0
M  V30 279 H 27.1687 1.06642 -3.93816 0
M  V30 280 H 25.8437 -0.0646707 -4.1585 0
M  V30 281 H 24.4207 1.58985 -3.3731 0
M  V30 282 N 26.6058 1.57591 -0.0167156 0
M  V30 283 C 27.5358 2.12496 0.967858 0
M  V30 284 C 28.5168 1.03807 1.34752 0
M  V30 285 O 29.7018 1.31577 1.42833 0
M  V30 286 C 26.8318 2.64194 2.25431 0
M  V30 287 C 25.7858 3.77559 2.01576 0
M  V30 288 C 25.1118 4.15636 3.36379 0
M  V30 289 C 26.4118 5.04151 1.36489 0
M  V30 290 H 28.1058 2.95013 0.510643 0
M  V30 291 H 25.6518 1.41915 0.244181 0
M  V30 292 H 27.6048 3.01236 2.94678 0
M  V30 293 H 26.3288 1.78821 2.73296 0
M  V30 294 H 24.9878 3.40937 1.34751 0
M  V30 295 H 24.6358 3.27263 3.81979 0
M  V30 296 H 24.3358 4.92022 3.21229 0
M  V30 297 H 25.8598 4.5525 4.06915 0
M  V30 298 H 27.2738 5.38857 1.95718 0
M  V30 299 H 25.6708 5.85453 1.31776 0
M  V30 300 H 26.7408 4.83733 0.336219 0
M  V30 301 N 28.0839 -0.256276 1.55502 0
M  V30 302 C 29.3119 -1.00342 1.8094 0
M  V30 303 C 29.7269 -1.79307 0.59114 0
M  V30 304 O 29.0839 -1.77114 -0.440081 0
M  V30 305 C 29.1349 -1.94875 3.04476 0
M  V30 306 O 28.8559 -1.19107 4.21598 0
M  V30 307 C 30.3569 -2.81266 3.42644 0
M  V30 308 H 27.5769 -0.295685 0.602338 0
M  V30 309 H 30.1209 -0.281998 2.02546 0
M  V30 310 H 28.2759 -2.62457 2.84947 0
M  V30 311 H 28.6899 -1.82969 4.91551 0
M  V30 312 H 30.1639 -3.43362 4.32211 0
M  V30 313 H 30.6409 -3.51897 2.62802 0
M  V30 314 H 31.2469 -2.1915 3.64491 0
M  V30 315 N 29.562 -1.4872 -0.521534 0
M  V30 316 C 30.787 -1.61101 -1.30618 0
M  V30 317 C 31.212 -0.274611 -1.86085 0
M  V30 318 O 30.57 0.754937 -1.64834 0
M  V30 319 C 30.618 -2.66709 -2.4269 0
M  V30 320 O 29.722 -2.24456 -3.45967 0
M  V30 321 H 29.063 -0.539921 -0.386499 0
M  V30 322 H 31.593 -1.94767 -0.626645 0
M  V30 323 H 31.603 -2.88245 -2.88754 0
M  V30 324 H 30.278 -3.63727 -2.01682 0
M  V30 325 H 28.855 -2.13168 -3.05964 0
M  V30 326 N 31.0401 0.771051 -1.3745 0
M  V30 327 C 32.4511 1.34737 -1.29239 0
M  V30 328 C 32.8021 1.96109 0.0596908 0
M  V30 329 O 31.9271 1.93865 0.961534 0
M  V30 330 C 32.5221 2.44973 -2.34037 0
M  V30 331 C 31.0811 2.98372 -2.29458 0
M  V30 332 C 30.2281 1.71595 -2.17831 0
M  V30 333 H 33.1791 0.571256 -1.48062 0
M  V30 334 H 33.2001 3.24471 -1.98744 0
M  V30 335 H 32.7121 2.00276 -3.32432 0
M  V30 336 H 30.8131 3.47443 -1.34589 0
M  V30 337 H 30.9261 3.53939 -3.229 0
M  V30 338 H 29.2901 1.94547 -1.64388 0
M  V30 339 H 30.0731 1.29001 -3.18141 0
M  V30 340 N 32.5182 1.22032 0.997298 0
M  V30 341 C 33.7462 1.06841 1.7718 0
M  V30 342 C 34.1612 -0.381325 1.84909 0
M  V30 343 O 33.5182 -1.26437 1.31605 0
M  V30 344 C 33.5692 1.66814 3.20711 0
M  V30 345 O 33.2902 3.06116 3.13408 0
M  V30 346 C 34.7912 1.56838 4.14628 0
M  V30 347 H 32.0112 0.374782 0.556578 0
M  V30 348 H 34.5552 1.61532 1.2541 0
M  V30 349 H 32.7102 1.16196 3.69564 0
M  V30 350 H 33.1242 3.34926 4.0364 0
M  V30 351 H 34.5982 2.03532 5.13107 0
M  V30 352 H 35.0752 0.524155 4.36061 0
M  V30 353 H 35.6812 2.06741 3.7167 0
M  V30 354 N 33.9963 -1.19345 1.0293 0
M  V30 355 C 35.2443 -1.88665 0.724574 0
M  V30 356 C 35.5653 -1.80036 -0.749144 0
M  V30 357 O 34.8353 -1.2111 -1.53978 0
M  V30 358 H 33.4153 -0.698406 0.265025 0
M  V30 359 H 36.0773 -1.44885 1.30362 0
M  V30 360 H 35.1733 -2.94987 1.01926 0
M  V30 361 N 35.4744 -0.807222 -1.35358 0
M  V30 362 C 36.8904 -0.491038 -1.51858 0
M  V30 363 C 37.0904 0.987648 -1.75635 0
M  V30 364 O 36.1464 1.77265 -1.79815 0
M  V30 365 C 37.4594 -1.33695 -2.69344 0
M  V30 366 C 39.0074 -1.33246 -2.83222 0
M  V30 367 C 39.4824 -2.1625 -4.03733 0
M  V30 368 N 40.9734 -2.1379 -4.10911 0
M  V30 369 C 41.7084 -2.74772 -5.03277 0
M  V30 370 N 41.2044 -3.44684 -6.0097 0
M  V30 371 N 42.9974 -2.6441 -4.96028 0
M  V30 372 H 35.1484 -1.76485 -1.18181 0
M  V30 373 H 37.4114 -0.751199 -0.578276 0
M  V30 374 H 37.1174 -2.38634 -2.58354 0
M  V30 375 H 36.9914 -0.990618 -3.6396 0
M  V30 376 H 39.3784 -0.290911 -2.93663 0
M  V30 377 H 39.4594 -1.71866 -1.89461 0
M  V30 378 H 39.1034 -3.20445 -3.94052 0
M  V30 379 H 39.0334 -1.74989 -4.96675 0
M  V30 380 H 41.5244 -1.62923 -3.40976 0
M  V30 381 H 41.8374 -3.88501 -6.68047 0
M  V30 382 H 40.1824 -3.48788 -6.01142 0
M  V30 383 H 43.3734 -2.0938 -4.18662 0
M  V30 384 H 43.5464 -3.12225 -5.6782 0
M  V30 385 N 36.9525 1.47285 -0.560781 0
M  V30 386 C 38.2005 2.02064 -0.0379868 0
M  V30 387 C 38.5215 1.43711 1.31803 0
M  V30 388 O 37.7915 0.61362 1.86042 0
M  V30 389 H 36.3715 0.746918 -0.0110531 0
M  V30 390 H 39.0335 1.80648 -0.731598 0
M  V30 391 H 38.1295 3.12064 0.0474463 0
M  V30 392 N 38.4306 0.297415 1.54768 0
M  V30 393 C 39.6556 -0.318435 2.04941 0
M  V30 394 C 40.0806 -1.4701 1.17345 0
M  V30 395 O 39.4386 -1.80436 0.176758 0
M  V30 396 C 39.4866 -0.755749 3.52592 0
M  V30 397 O 38.5906 -1.86088 3.68028 0
M  V30 398 H 37.9316 -0.062421 0.661059 0
M  V30 399 H 40.4616 0.438215 1.99852 0
M  V30 400 H 40.4716 -1.04552 3.94376 0
M  V30 401 H 39.1466 0.0867233 4.1581 0
M  V30 402 H 37.7236 -1.57193 3.38149 0
M  V30 403 N 39.9087 -1.5758 0.0250728 0
M  V30 404 C 40.8417 -2.05473 -0.992777 0
M  V30 405 C 41.8197 -0.949661 -1.31986 0
M  V30 406 O 43.0037 -1.21969 -1.43722 0
M  V30 407 C 40.1307 -2.4734 -2.31389 0
M  V30 408 C 39.1767 -3.68827 -2.1417 0
M  V30 409 S 40.0097 -5.15655 -1.44429 0
M  V30 410 C 41.1657 -5.60814 -2.77918 0
M  V30 411 H 41.3987 -2.91486 -0.585078 0
M  V30 412 H 38.9317 -1.53269 -0.186507 0
M  V30 413 H 40.8897 -2.72127 -3.07339 0
M  V30 414 H 39.5507 -1.6168 -2.69292 0
M  V30 415 H 38.7437 -3.95955 -3.11826 0
M  V30 416 H 38.3457 -3.44172 -1.46362 0
M  V30 417 H 40.6377 -5.64806 -3.74166 0
M  V30 418 H 41.5807 -6.60414 -2.55459 0
M  V30 419 H 41.9887 -4.8845 -2.82979 0
M  V30 420 N 41.3868 0.248026 -1.55636 0
M  V30 421 C 42.3498 1.29044 -1.89421 0
M  V30 422 C 43.3498 1.41134 -0.770581 0
M  V30 423 O 44.5398 1.39854 -1.03858 0
M  V30 424 C 41.6718 2.66831 -2.12165 0
M  V30 425 H 42.8648 1.00305 -2.82629 0
M  V30 426 H 40.4178 0.487265 -1.48511 0
M  V30 427 H 41.1528 3.00711 -1.21422 0
M  V30 428 H 40.9378 2.59438 -2.93997 0
M  V30 429 H 42.4278 3.42103 -2.3949 0
M  V30 430 N 42.8649 1.48995 0.513639 0
M  V30 431 C 43.8279 1.64229 1.59879 0
M  V30 432 C 44.8279 0.514696 1.5234 0
M  V30 433 O 46.0179 0.78087 1.55718 0
M  V30 434 C 43.1499 1.62783 2.99524 0
M  V30 435 H 44.3429 2.61004 1.47705 0
M  V30 436 H 41.8959 1.37837 0.736936 0
M  V30 437 H 42.6309 0.675461 3.17188 0
M  V30 438 H 42.4159 2.4466 3.06404 0
M  V30 439 H 43.9059 1.76669 3.78388 0
M  V30 440 N 44.343 -0.763751 1.37857 0
M  V30 441 C 45.754 -1.3405 1.29952 0
M  V30 442 C 46.105 -1.96138 -0.0492898 0
M  V30 443 O 45.23 -1.94372 -0.951239 0
M  V30 444 C 45.825 -2.43729 2.35333 0
M  V30 445 C 44.384 -2.97151 2.31037 0
M  V30 446 C 43.531 -1.70438 2.18738 0
M  V30 447 H 46.482 -0.563396 1.48363 0
M  V30 448 H 46.503 -3.23412 2.00462 0
M  V30 449 H 46.015 -1.9851 3.33489 0
M  V30 450 H 44.116 -3.46724 1.3643 0
M  V30 451 H 44.229 -3.52221 3.24772 0
M  V30 452 H 42.593 -1.93673 1.65418 0
M  V30 453 H 43.376 -1.27312 3.18821 0
M  V30 454 N 45.8211 -1.22559 -0.990812 0
M  V30 455 C 47.0461 -1.07862 -1.77145 0
M  V30 456 C 47.4711 0.366447 -1.84496 0
M  V30 457 O 46.8291 1.26478 -1.29896 0
M  V30 458 C 46.8771 -1.69686 -3.18181 0
M  V30 459 O 45.9811 -0.951946 -4.01263 0
M  V30 460 H 45.3221 -0.378712 -0.545411 0
M  V30 461 H 47.8521 -1.62399 -1.2445 0
M  V30 462 H 47.8621 -1.74496 -3.68802 0
M  V30 463 H 46.5371 -2.74841 -3.12146 0
M  V30 464 H 45.1141 -0.980011 -3.59792 0
M  V30 465 N 47.2992 1.18797 -1.03562 0
M  V30 466 C 48.2292 2.24472 -0.643019 0
M  V30 467 C 49.2102 1.66433 0.351283 0
M  V30 468 O 50.3952 1.92803 0.232505 0
M  V30 469 C 47.5252 3.473 4.24935e-05 0
M  V30 470 C 46.4792 4.18055 -0.917257 0
M  V30 471 C 45.8052 5.34519 -0.138941 0
M  V30 472 C 47.1052 4.72109 -2.23407 0
M  V30 473 H 48.7992 2.57566 -1.52643 0
M  V30 474 H 46.3452 1.23806 -0.735394 0
M  V30 475 H 48.2982 4.20426 0.286383 0
M  V30 476 H 47.0222 3.13424 0.918299 0
M  V30 477 H 45.6812 3.46821 -1.1879 0
M  V30 478 H 45.3292 4.96891 0.781562 0
M  V30 479 H 45.0292 5.82794 -0.750005 0
M  V30 480 H 46.5532 6.10438 0.1405 0
M  V30 481 H 47.9672 5.36955 -2.00879 0
M  V30 482 H 46.3642 5.30897 -2.79765 0
M  V30 483 H 47.4342 3.89807 -2.88407 0
M  V30 484 N 48.7773 0.814389 1.34928 0
M  V30 485 C 49.7273 0.202752 2.27097 0
M  V30 486 C 50.7113 -0.62799 1.48139 0
M  V30 487 O 51.9033 -0.483969 1.70255 0
M  V30 488 C 49.0323 -0.64146 3.37254 0
M  V30 489 C 48.1183 0.19944 4.23631 0
M  V30 490 N 48.5093 1.26628 4.89693 0
M  V30 491 C 46.8073 -0.0176433 4.45997 0
M  V30 492 C 47.5083 1.78031 5.53787 0
M  V30 493 N 46.4843 1.08553 5.32651 0
M  V30 494 H 50.2863 1.01893 2.75672 0
M  V30 495 H 47.8003 0.656332 1.48546 0
M  V30 496 H 49.7973 -1.09575 4.02243 0
M  V30 497 H 48.4573 -1.4559 2.9023 0
M  V30 498 H 49.4683 1.64901 4.90946 0
M  V30 499 H 46.1453 -0.800601 4.09752 0
M  V30 500 H 47.5353 2.67236 6.16469 0
M  V30 501 N 50.2554 -1.46986 0.568584 0
M  V30 502 C 51.6664 -1.86188 0.138219 0
M  V30 503 C 52.0174 -1.47388 -1.29504 0
M  V30 504 O 51.1424 -0.88219 -1.97602 0
M  V30 505 C 51.7374 -3.3792 0.244065 0
M  V30 506 C 50.2964 -3.76171 -0.131335 0
M  V30 507 C 49.4434 -2.71027 0.586465 0
M  V30 508 H 52.3944 -1.38342 0.777645 0
M  V30 509 H 52.4154 -3.76729 -0.534351 0
M  V30 510 H 51.9274 -3.66128 1.28731 0
M  V30 511 H 50.0284 -3.5358 -1.17526 0
M  V30 512 H 50.1414 -4.78523 0.235146 0
M  V30 513 H 48.5054 -2.54684 0.0282722 0
M  V30 514 H 49.2884 -3.02077 1.63109 0
M  V30 515 N 51.7335 -0.305618 -1.54608 0
M  V30 516 C 52.9585 0.307562 -2.05107 0
M  V30 517 C 53.3835 1.46385 -1.18123 0
M  V30 518 O 52.7415 1.8034 -0.186324 0
M  V30 519 C 52.7895 0.73704 -3.52987 0
M  V30 520 O 51.8935 1.84134 -3.6901 0
M  V30 521 H 51.2345 0.0589143 -0.661381 0
M  V30 522 H 53.7645 -0.448807 -1.99617 0
M  V30 523 H 53.7745 1.02459 -3.94925 0
M  V30 524 H 52.4495 -0.108773 -4.15758 0
M  V30 525 H 51.0265 1.55398 -3.38978 0
M  V30 526 N 53.2116 1.57565 -0.0334293 0
M  V30 527 C 54.1416 2.13511 0.945265 0
M  V30 528 C 55.1226 1.05231 1.33643 0
M  V30 529 O 56.3076 1.33084 1.41429 0
M  V30 530 C 53.4376 2.6657 2.22616 0
M  V30 531 C 52.3916 3.79676 1.97561 0
M  V30 532 C 51.7176 4.1918 3.31952 0
M  V30 533 C 53.0176 5.0557 1.31135 0
M  V30 534 H 54.7116 2.95538 0.479325 0
M  V30 535 H 52.2576 1.42166 0.229115 0
M  V30 536 H 54.2106 3.04344 2.91466 0
M  V30 537 H 52.9346 1.8171 2.71384 0
M  V30 538 H 51.5936 3.42347 1.31127 0
M  V30 539 H 51.2416 3.31296 3.78487 0
M  V30 540 H 50.9416 4.95402 3.15992 0
M  V30 541 H 52.4656 4.59541 4.02063 0
M  V30 542 H 53.8796 5.40903 1.89992 0
M  V30 543 H 52.2766 5.86818 1.25559 0
M  V30 544 H 53.3466 4.84062 0.284894 0
M  V30 545 N 54.6897 -0.239769 1.55765 0
M  V30 546 C 55.9377 -0.964892 1.77579 0
M  V30 547 C 56.2587 -1.85582 0.598699 0
M  V30 548 O 55.5287 -1.92075 -0.385226 0
M  V30 549 H 54.1087 -0.359265 0.654933 0
M  V30 550 H 56.7707 -0.256001 1.93211 0
M  V30 551 H 55.8667 -1.58243 2.69009 0
M  V30 552 N 56.1678 -1.49265 -0.50573 0
M  V30 553 C 57.5788 -1.51769 -1.08734 0
M  V30 554 C 57.9298 -0.301192 -1.93874 0
M  V30 555 O 57.0548 0.589456 -2.08217 0
M  V30 556 C 57.6498 -2.75017 -1.97867 0
M  V30 557 C 56.2088 -2.80314 -2.51199 0
M  V30 558 C 55.3558 -2.4562 -1.28709 0
M  V30 559 H 58.3068 -1.56031 -0.289855 0
M  V30 560 H 58.3278 -2.5491 -2.82491 0
M  V30 561 H 57.8398 -3.63539 -1.35873 0
M  V30 562 H 55.9408 -1.96061 -3.16845 0
M  V30 563 H 56.0538 -3.82366 -2.88675 0
M  V30 564 H 54.4178 -1.97297 -1.61078 0
M  V30 565 H 55.2008 -3.36411 -0.6843 0
M  V30 566 N 57.6459 0.756429 -1.3826 0
M  V30 567 C 58.8939 1.51248 -1.34047 0
M  V30 568 C 59.2149 1.94875 0.0698372 0
M  V30 569 O 58.4849 1.67436 1.01696 0
M  V30 570 H 57.0649 0.561018 -0.493222 0
M  V30 571 H 59.7269 0.899347 -1.7291 0
M  V30 572 H 58.8229 2.40472 -1.98947 0
M  V30 573 N 59.124 1.23083 0.984299 0
M  V30 574 C 60.373 1.05466 1.71929 0
M  V30 575 C 60.686 -0.409211 1.91272 0
M  V30 576 O 61.892 -0.705226 2.62181 0
M  V30 577 C 60.348 1.83874 3.09384 0
M  V30 578 C 59.956 3.34566 2.97943 0
M  V30 579 C 61.7 1.74734 3.8687 0
M  V30 580 C 59.607 4.05381 4.30605 0
M  V30 581 H 58.537 0.391039 0.644674 0
M  V30 582 H 61.188 1.47013 1.09815 0
M  V30 583 H 59.57 1.35131 3.72231 0
M  V30 584 H 60.744 3.90767 2.44209 0
M  V30 585 H 59.059 3.44476 2.33934 0
M  V30 586 H 61.656 2.24957 4.85076 0
M  V30 587 H 61.999 0.709372 4.10212 0
M  V30 588 H 62.532 2.21067 3.30717 0
M  V30 589 H 59.271 5.09467 4.1246 0
M  V30 590 H 58.791 3.53967 4.84218 0
M  V30 591 H 60.47 4.11458 4.99311 0
M  V30 592 N 60.6021 -1.18246 1.0419 0
M  V30 593 C 61.8501 -1.87886 0.744543 0
M  V30 594 C 62.1711 -1.8082 -0.730006 0
M  V30 595 O 61.4411 -1.22736 -1.52685 0
M  V30 596 H 60.0211 -0.695556 0.272417 0
M  V30 597 H 62.6831 -1.43494 1.31892 0
M  V30 598 H 61.7791 -2.9389 1.05049 0
M  V30 599 N 62.0802 -0.821533 -1.34494 0
M  V30 600 C 63.3052 -0.420873 -2.03085 0
M  V30 601 C 63.7302 0.964915 -1.61465 0
M  V30 602 O 63.0882 1.62763 -0.798607 0
M  V30 603 C 63.1362 -0.529414 -3.56693 0
M  V30 604 O 62.2402 0.451302 -4.09923 0
M  V30 605 H 61.5812 -0.173489 -0.640935 0
M  V30 606 H 64.1112 -1.11157 -1.71771 0
M  V30 607 H 64.1212 -0.404671 -4.05988 0
M  V30 608 H 62.7962 -1.54014 -3.86332 0
M  V30 609 H 61.3732 0.285558 -3.71805 0
M  V30 610 N 63.5583 1.46682 -0.576371 0
M  V30 611 C 64.9693 1.86112 -0.148091 0
M  V30 612 C 65.3203 1.48073 1.2872 0
M  V30 613 O 64.4453 0.892656 1.97131 0
M  V30 614 C 65.0403 3.37786 -0.261982 0
M  V30 615 C 63.5993 3.76235 0.111384 0
M  V30 616 C 62.7463 2.70713 -0.60083 0
M  V30 617 H 65.6973 1.37927 -0.78497 0
M  V30 618 H 65.7183 3.77007 0.514364 0
M  V30 619 H 65.2303 3.6544 -1.30671 0
M  V30 620 H 63.3313 3.54198 1.15649 0
M  V30 621 H 63.4443 4.78391 -0.26052 0
M  V30 622 H 61.8083 2.54666 -0.0417783 0
M  V30 623 H 62.5913 3.01208 -1.64708 0
M  V30 624 N 65.0364 0.313813 1.54444 0
M  V30 625 C 66.2844 -0.291099 1.99993 0
M  V30 626 C 66.6054 -1.53418 1.20366 0
M  V30 627 O 65.8754 -1.93544 0.302927 0
M  V30 628 H 64.4554 -0.110552 0.738774 0
M  V30 629 H 67.1174 0.428106 1.9014 0
M  V30 630 H 66.2134 -0.554268 3.07139 0
M  V30 631 N 66.5145 -1.57545 0.0417849 0
M  V30 632 C 67.4465 -2.07904 -0.964799 0
M  V30 633 C 68.4595 -1.00497 -1.28079 0
M  V30 634 O 69.6485 -1.28087 -1.24322 0
M  V30 635 C 66.7485 -2.49928 -2.28887 0
M  V30 636 C 65.9215 -3.80562 -2.15619 0
M  V30 637 C 64.9805 -4.08999 -3.31069 0
M  V30 638 O 64.0065 -4.79061 -3.0739 0
M  V30 639 N 65.2085 -3.6017 -4.55256 0
M  V30 640 H 67.9735 -2.94886 -0.535029 0
M  V30 641 H 65.5345 -1.61252 -0.144681 0
M  V30 642 H 67.5265 -2.66034 -3.04972 0
M  V30 643 H 66.0965 -1.68245 -2.63463 0
M  V30 644 H 65.3165 -3.74129 -1.24183 0
M  V30 645 H 66.6045 -4.66126 -2.03971 0
M  V30 646 H 66.0025 -3.03512 -4.77386 0
M  V30 647 H 64.5595 -3.81532 -5.28466 0
M  V30 648 N 67.9926 0.231505 -1.5589 0
M  V30 649 C 68.9226 1.29022 -1.94617 0
M  V30 650 C 69.9036 1.4941 -0.813067 0
M  V30 651 O 71.0886 1.6176 -1.07459 0
M  V30 652 C 68.2186 2.64199 -2.25424 0
M  V30 653 C 67.1726 2.58484 -3.41131 0
M  V30 654 C 66.4986 3.97599 -3.57518 0
M  V30 655 C 67.7986 2.1413 -4.76388 0
M  V30 656 H 69.4926 0.968563 -2.83301 0
M  V30 657 H 67.0386 0.464479 -1.36303 0
M  V30 658 H 68.9916 3.38413 -2.51107 0
M  V30 659 H 67.7156 2.98032 -1.33583 0
M  V30 660 H 66.3746 1.86727 -3.15481 0
M  V30 661 H 66.0226 4.28723 -2.6307 0
M  V30 662 H 65.7226 3.94659 -4.35337 0
M  V30 663 H 67.2466 4.7349 -3.85538 0
M  V30 664 H 68.6606 2.78083 -5.01341 0
M  V30 665 H 67.0576 2.2227 -5.57419 0
M  V30 666 H 68.1276 1.09331 -4.72414 0
M  V30 667 N 69.4707 1.49531 0.497807 0
M  V30 668 C 70.4207 1.62829 1.59596 0
M  V30 669 C 71.4047 0.483824 1.53453 0
M  V30 670 O 72.5967 0.736937 1.60929 0
M  V30 671 C 69.7257 1.7011 2.98191 0
M  V30 672 C 68.8117 2.90144 3.09317 0
M  V30 673 N 69.2027 4.1418 2.90324 0
M  V30 674 C 67.5007 2.88148 3.40422 0
M  V30 675 C 68.2017 4.94886 3.05717 0
M  V30 676 N 67.1777 4.28314 3.34736 0
M  V30 677 H 70.9797 2.56446 1.4357 0
M  V30 678 H 68.4937 1.46347 0.704001 0
M  V30 679 H 70.4907 1.77735 3.77115 0
M  V30 680 H 69.1507 0.776315 3.15283 0
M  V30 681 H 70.1617 4.44109 2.66436 0
M  V30 682 H 66.8387 2.05061 3.63671 0
M  V30 683 H 68.2287 6.03432 2.95499 0
M  V30 684 N 70.9488 -0.749086 1.3866 0
M  V30 685 C 72.1738 -1.54344 1.38538 0
M  V30 686 C 72.5988 -1.88088 -0.0216655 0
M  V30 687 O 71.9568 -1.50899 -1.00494 0
M  V30 688 C 72.0048 -2.8164 2.25192 0
M  V30 689 O 71.1088 -3.7698 1.67212 0
M  V30 690 H 70.4498 -0.466654 0.472367 0
M  V30 691 H 72.9798 -0.925355 1.82478 0
M  V30 692 H 72.9898 -3.30519 2.3921 0
M  V30 693 H 71.6648 -2.56411 3.27454 0
M  V30 694 H 70.2418 -3.35699 1.6236 0
M  V30 695 N 72.4269 -1.23603 -0.977757 0
M  V30 696 C 73.8379 -1.06424 -1.53398 0
M  V30 697 C 74.1889 0.367578 -1.92726 0
M  V30 698 O 73.3139 1.25465 -1.76316 0
M  V30 699 C 73.9089 -1.92568 -2.78753 0
M  V30 700 C 72.4679 -1.79642 -3.30765 0
M  V30 701 C 71.6149 -1.88111 -2.03739 0
M  V30 702 H 74.5659 -1.37227 -0.797152 0
M  V30 703 H 74.5869 -1.45203 -3.51705 0
M  V30 704 H 74.0989 -2.96771 -2.50098 0
M  V30 705 H 72.1999 -0.782325 -3.64294 0
M  V30 706 H 72.3129 -2.63174 -4.00345 0
M  V30 707 H 70.6769 -1.31723 -2.17994 0
M  V30 708 H 71.4599 -2.93875 -1.77461 0
M  V30 709 N 73.905 1.17692 -1.04816 0
M  V30 710 C 75.154 1.87192 -0.751132 0
M  V30 711 C 75.467 1.8169 0.724441 0
M  V30 712 O 76.673 2.46625 1.13527 0
M  V30 713 C 75.129 3.35857 -1.29338 0
M  V30 714 C 74.737 3.4987 -2.79812 0
M  V30 715 C 76.481 4.10709 -1.07322 0
M  V30 716 C 74.388 4.92536 -3.27356 0
M  V30 717 H 73.318 0.701162 -0.277288 0
M  V30 718 H 75.969 1.32932 -1.26496 0
M  V30 719 H 74.351 3.89631 -0.707376 0
M  V30 720 H 75.525 3.06332 -3.44235 0
M  V30 721 H 73.84 2.88433 -3.00325 0
M  V30 722 H 76.437 5.15952 -1.4035 0
M  V30 723 H 76.78 4.16299 -0.0108001 0
M  V30 724 H 77.313 3.6313 -1.62423 0
M  V30 725 H 74.052 4.92119 -4.33012 0
M  V30 726 H 73.572 5.3676 -2.67673 0
M  V30 727 H 75.251 5.61288 -3.21815 0
M  V30 728 N 75.3831 0.828654 1.34056 0
M  V30 729 C 76.6081 0.431637 2.02859 0
M  V30 730 C 77.0331 -0.956339 1.61975 0
M  V30 731 O 76.3911 -1.62338 0.807228 0
M  V30 732 C 76.4391 0.548323 3.56407 0
M  V30 733 O 75.5431 -0.429556 4.10157 0
M  V30 734 H 74.8841 0.176886 0.640006 0
M  V30 735 H 77.4141 1.12066 1.71179 0
M  V30 736 H 77.4241 0.426196 4.05768 0
M  V30 737 H 76.0991 1.5606 3.8551 0
M  V30 738 H 74.6761 -0.265836 3.71951 0
M  V30 739 N 76.8612 -1.46375 0.584142 0
M  V30 740 C 78.0892 -2.06761 0.0759296 0
M  V30 741 C 78.5042 -1.43266 -1.22965 0
M  V30 742 O 77.8612 -0.538458 -1.74376 0
M  V30 743 C 77.9122 -3.61375 -0.0950384 0
M  V30 744 O 77.6332 -4.22495 1.15887 0
M  V30 745 C 79.1342 -4.38693 -0.637434 0
M  V30 746 H 76.3542 -0.668479 0.0581075 0
M  V30 747 H 78.8982 -1.8798 0.805218 0
M  V30 748 H 77.0532 -3.79578 -0.774554 0
M  V30 749 H 77.4672 -5.15385 0.973598 0
M  V30 750 H 78.9412 -5.47464 -0.706237 0
M  V30 751 H 79.4182 -4.06836 -1.65472 0
M  V30 752 H 80.0242 -4.25299 0.00725967 0
M  V30 753 N 78.3393 -0.321999 -1.54275 0
M  V30 754 C 79.2693 0.537411 -2.27231 0
M  V30 755 C 80.2503 1.12064 -1.27968 0
M  V30 756 O 81.4353 1.14606 -1.56777 0
M  V30 757 C 78.5653 1.69919 -3.02894 0
M  V30 758 C 77.5193 1.24534 -4.09482 0
M  V30 759 C 76.8453 2.49394 -4.72977 0
M  V30 760 C 78.1453 0.361335 -5.21049 0
M  V30 761 H 79.8393 -0.0711406 -2.99315 0
M  V30 762 H 77.3853 -0.0356555 -1.43956 0
M  V30 763 H 79.3383 2.30668 -3.52662 0
M  V30 764 H 78.0623 2.33431 -2.28424 0
M  V30 765 H 76.7213 0.660782 -3.60596 0
M  V30 766 H 76.3693 3.11265 -3.95124 0
M  V30 767 H 76.0693 2.19718 -5.44975 0
M  V30 768 H 77.5933 3.10908 -5.25517 0
M  V30 769 H 79.0073 0.875072 -5.66582 0
M  V30 770 H 77.4043 0.157428 -5.99893 0
M  V30 771 H 78.4743 -0.60822 -4.8107 0
M  V30 772 N 79.8174 1.5752 -0.0501392 0
M  V30 773 C 81.0424 1.97376 0.636997 0
M  V30 774 C 81.4674 0.927466 1.63645 0
M  V30 775 O 80.8254 -0.10941 1.8097 0
M  V30 776 C 80.8734 3.36304 1.30123 0
M  V30 777 O 79.9774 3.34156 2.41689 0
M  V30 778 H 79.3184 0.642998 0.165679 0
M  V30 779 H 81.8484 2.04258 -0.118233 0
M  V30 780 H 81.8584 3.73008 1.65315 0
M  V30 781 H 80.5334 4.11993 0.568746 0
M  V30 782 H 79.1104 3.09196 2.08451 0
M  V30 783 N 81.2955 -0.223234 1.56011 0
M  V30 784 C 82.5205 -0.968978 1.83373 0
M  V30 785 C 82.9455 -1.77227 0.630254 0
M  V30 786 O 82.3035 -1.76345 -0.420959 0
M  V30 787 C 82.3515 -1.86363 3.08709 0
M  V30 788 O 81.4555 -2.95873 2.87285 0
M  V30 789 H 80.7965 -0.274461 0.604622 0
M  V30 790 H 83.3265 -0.237056 2.03222 0
M  V30 791 H 83.3365 -2.27376 3.38768 0
M  V30 792 H 82.0115 -1.27319 3.95933 0
M  V30 793 H 80.5885 -2.58818 2.68454 0
M  V30 794 N 82.7736 -1.49793 -0.48987 0
M  V30 795 C 84.1846 -1.52914 -1.07118 0
M  V30 796 C 84.5356 -0.321738 -1.93544 0
M  V30 797 O 83.6606 0.567338 -2.08831 0
M  V30 798 C 84.2556 -2.771 -1.94938 0
M  V30 799 C 82.8146 -2.82963 -2.48212 0
M  V30 800 C 81.9616 -2.46972 -1.26096 0
M  V30 801 H 84.9126 -1.56329 -0.273289 0
M  V30 802 H 84.9336 -2.57892 -2.79771 0
M  V30 803 H 84.4456 -3.64959 -1.32009 0
M  V30 804 H 82.5466 -1.99411 -3.14748 0
M  V30 805 H 82.6596 -3.85406 -2.84603 0
M  V30 806 H 81.0236 -1.98994 -1.58976 0
M  V30 807 H 81.8066 -3.37118 -0.648581 0
M  V30 808 N 84.2517 0.741722 -1.39055 0
M  V30 809 C 85.5007 1.49656 -1.35225 0
M  V30 810 C 85.8137 1.95533 0.0512708 0
M  V30 811 O 87.0197 2.7067 0.212138 0
M  V30 812 C 85.4757 2.70389 -2.37525 0
M  V30 813 C 85.0837 2.31489 -3.83558 0
M  V30 814 C 86.8277 3.48236 -2.42759 0
M  V30 815 C 84.7347 3.48903 -4.77515 0
M  V30 816 H 83.6647 0.56197 -0.502699 0
M  V30 817 H 86.3157 0.809727 -1.64668 0
M  V30 818 H 84.6977 3.41113 -2.01142 0
M  V30 819 H 85.8717 1.68354 -4.28945 0
M  V30 820 H 84.1867 1.66749 -3.81554 0
M  V30 821 H 86.7837 4.35558 -3.1015 0
M  V30 822 H 87.1267 3.90229 -1.45008 0
M  V30 823 H 87.6597 2.84535 -2.78002 0
M  V30 824 H 84.3987 3.11966 -5.76504 0
M  V30 825 H 83.9187 4.11041 -4.36813 0
M  V30 826 H 85.5977 4.15328 -4.96096 0
M  V30 827 N 85.7298 1.2412 0.971189 0
M  V30 828 C 86.6778 1.02812 2.08644 0
M  V30 829 C 87.6718 -0.0358403 1.69362 0
M  V30 830 O 88.8778 0.118429 1.7961 0
M  V30 831 H 85.2528 0.315428 0.682649 0
M  V30 832 H 87.2238 1.97397 2.23779 0
M  V30 833 C 85.9728 0.645874 3.41649 0
M  V30 834 H 85.2958 1.45632 3.72332 0
M  V30 835 H 86.7358 0.536366 4.20594 0
M  V30 836 C 85.1948 -0.646713 3.30635 0
M  V30 837 O 85.7248 -1.69338 3.64263 0
M  V30 838 N 83.9308 -0.626115 2.83775 0
M  V30 839 H 83.4778 0.225988 2.56607 0
M  V30 840 H 83.4358 -1.49117 2.76788 0
M  V30 841 N 87.2079 -1.17134 1.05439 0
M  V30 842 C 88.4559 -1.87085 0.764429 0
M  V30 843 C 88.7769 -1.81584 -0.710787 0
M  V30 844 O 88.0469 -1.24349 -1.51374 0
M  V30 845 H 86.6269 -0.692627 0.279779 0
M  V30 846 H 89.2889 -1.42087 1.33406 0
M  V30 847 H 88.3849 -2.92759 1.0816 0
M  V30 848 N 88.686 -0.835752 -1.33615 0
M  V30 849 C 89.619 -0.211815 -2.27215 0
M  V30 850 C 90.597 0.639249 -1.49507 0
M  V30 851 O 91.781 0.600193 -1.78689 0
M  V30 852 C 88.908 0.702893 -3.31326 0
M  V30 853 C 87.954 -0.0723049 -4.26439 0
M  V30 854 S 88.787 -1.42811 -5.16106 0
M  V30 855 C 89.943 -0.518613 -6.23748 0
M  V30 856 H 90.176 -1.00533 -2.79786 0
M  V30 857 H 87.709 -0.632336 -1.40858 0
M  V30 858 H 89.667 1.22505 -3.91794 0
M  V30 859 H 88.328 1.47004 -2.77576 0
M  V30 860 H 87.521 0.62359 -5.00127 0
M  V30 861 H 87.123 -0.525424 -3.70291 0
M  V30 862 H 89.415 0.284778 -6.76901 0
M  V30 863 H 90.358 -1.22556 -6.97413 0
M  V30 864 H 90.766 -0.101344 -5.64409 0
M  V30 865 N 90.1641 1.46063 -0.591896 0
M  V30 866 C 91.4121 2.01938 -0.0808391 0
M  V30 867 C 91.7331 1.46475 1.28725 0
M  V30 868 O 91.0031 0.652944 1.84698 0
M  V30 869 H 89.5831 0.746516 -0.0268938 0
M  V30 870 H 92.2451 1.79055 -0.769752 0
M  V30 871 H 91.3411 3.12094 -0.0187578 0
M  V30 872 N 91.6422 0.330177 1.54103 0
M  V30 873 C 93.0532 -0.15652 1.86043 0
M  V30 874 C 93.4042 -1.51086 1.2517 0
M  V30 875 O 92.5292 -2.09023 0.560217 0
M  V30 876 C 93.1242 -0.290784 3.3755 0
M  V30 877 C 91.6832 -0.721705 3.69416 0
M  V30 878 C 90.8302 0.152622 2.7688 0
M  V30 879 H 93.7812 0.550237 1.48856 0
M  V30 880 H 93.8022 -1.12058 3.63625 0
M  V30 881 H 93.3142 0.695068 3.81825 0
M  V30 882 H 91.4152 -1.71706 3.30678 0
M  V30 883 H 91.5282 -0.520869 4.7626 0
M  V30 884 H 89.8922 -0.372894 2.51956 0
M  V30 885 H 90.6752 1.13536 3.23982 0
M  V30 886 N 93.1203 -1.57491 0.0584922 0
M  V30 887 C 94.5313 -1.80526 -0.476138 0
M  V30 888 C 94.8823 -0.971334 -1.70469 0
M  V30 889 O 94.0073 -0.190012 -2.15564 0
M  V30 890 C 94.6023 -3.27424 -0.870587 0
M  V30 891 C 93.1613 -3.51351 -1.35015 0
M  V30 892 C 92.3083 -2.75343 -0.32887 0
M  V30 893 H 95.2593 -1.56133 0.284312 0
M  V30 894 H 95.2803 -3.38745 -1.73299 0
M  V30 895 H 94.7923 -3.88093 0.0237627 0
M  V30 896 H 92.8933 -2.95971 -2.26345 0
M  V30 897 H 93.0063 -4.60059 -1.33726 0
M  V30 898 H 91.3703 -2.417 -0.803321 0
M  V30 899 H 92.1533 -3.38743 0.557521 0
M  V30 900 N 94.5984 0.214957 -1.56127 0
M  V30 901 C 95.8454 0.938372 -1.79446 0
M  V30 902 C 96.1734 1.8407 -0.628378 0
M  V30 903 O 95.4284 1.91837 0.386925 0
M  V30 904 C 95.7274 1.80314 -3.0858 0
M  V30 905 C 95.3934 1.05349 -4.3842 0
M  V30 906 C 94.0554 0.846435 -4.73697 0
M  V30 907 C 96.4074 0.524588 -5.18553 0
M  V30 908 C 93.7354 0.098683 -5.86617 0
M  V30 909 C 96.0874 -0.209853 -6.32252 0
M  V30 910 C 94.7514 -0.428102 -6.66126 0
M  V30 911 H 94.0214 0.343375 -0.656639 0
M  V30 912 H 96.6684 0.206077 -1.90388 0
M  V30 913 H 94.9734 2.6035 -2.92789 0
M  V30 914 H 96.6704 2.36513 -3.23825 0
M  V30 915 H 93.2604 1.22486 -4.10725 0
M  V30 916 H 97.4444 0.672008 -4.91729 0
M  V30 917 H 92.7004 -0.0805753 -6.11347 0
M  V30 918 H 96.8744 -0.627157 -6.9357 0
M  V30 919 H 94.5014 -1.00944 -7.53468 0
M  V30 920 N 96.0765 1.50051 0.48192 0
M  V30 921 C 97.3015 1.64508 1.26301 0
M  V30 922 C 97.7265 0.323851 1.85291 0
M  V30 923 O 97.0845 -0.710969 1.66778 0
M  V30 924 C 97.1325 2.7305 2.35533 0
M  V30 925 O 96.2365 2.3355 3.39895 0
M  V30 926 H 95.5775 0.549978 0.372048 0
M  V30 927 H 98.1075 1.9636 0.574786 0
M  V30 928 H 98.1175 2.95799 2.8101 0
M  V30 929 H 96.7925 3.68946 1.91967 0
M  V30 930 H 95.3695 2.21205 3.00204 0
M  V30 931 N 97.5546 -0.734337 1.39446 0
M  V30 932 C 98.8006 -1.49613 1.36908 0
M  V30 933 C 99.1336 -1.94169 -0.0347829 0
M  V30 934 O 98.4086 -1.66833 -0.999847 0
M  V30 935 C 98.6916 -2.73534 2.34203 0
M  V30 936 C 98.5446 -2.34993 3.83534 0
M  V30 937 C 99.8636 -3.75635 2.29317 0
M  V30 938 H 96.9826 -0.542714 0.498629 0
M  V30 939 H 99.6246 -0.839597 1.70443 0
M  V30 940 H 97.7746 -3.29553 2.05736 0
M  V30 941 H 99.4466 -1.84601 4.22753 0
M  V30 942 H 97.6896 -1.67213 4.00278 0
M  V30 943 H 98.3606 -3.23738 4.47099 0
M  V30 944 H 100.837 -3.29203 2.54489 0
M  V30 945 H 99.7126 -4.60008 2.99472 0
M  V30 946 H 99.9736 -4.22603 1.29842 0
M  V30 947 N 99.0327 -1.24633 -0.964593 0
M  V30 948 C 100.282 -1.08188 -1.7023 0
M  V30 949 C 100.595 0.37873 -1.91898 0
M  V30 950 O 101.801 0.663427 -2.6327 0
M  V30 951 C 100.257 -1.88773 -3.06419 0
M  V30 952 C 99.8647 -3.39263 -2.92582 0
M  V30 953 C 101.609 -1.80867 -3.84041 0
M  V30 954 C 99.5157 -4.1218 -4.24101 0
M  V30 955 H 98.4457 -0.401245 -0.638372 0
M  V30 956 H 101.097 -1.48742 -1.07462 0
M  V30 957 H 99.4787 -1.41035 -3.70034 0
M  V30 958 H 100.653 -3.94603 -2.37961 0
M  V30 959 H 98.9677 -3.48154 -2.28424 0
M  V30 960 H 101.565 -2.32646 -4.81435 0
M  V30 961 H 101.908 -0.774543 -4.09031 0
M  V30 962 H 102.441 -2.26301 -3.27159 0
M  V30 963 H 99.1797 -5.15965 -4.04303 0
M  V30 964 H 98.6997 -3.61626 -4.78526 0
M  V30 965 H 100.379 -4.19349 -4.92702 0
M  V30 966 N 100.511 1.16574 -1.06058 0
M  V30 967 C 101.736 1.91493 -0.796562 0
M  V30 968 C 102.161 1.76773 0.642868 0
M  V30 969 O 101.519 1.09142 1.44768 0
M  V30 970 C 101.567 3.40293 -1.19303 0
M  V30 971 O 100.671 4.11074 -0.330394 0
M  V30 972 H 100.012 0.596678 -0.291326 0
M  V30 973 H 102.542 1.47708 -1.41575 0
M  V30 974 H 102.552 3.91057 -1.16356 0
M  V30 975 H 101.227 3.50326 -2.24153 0
M  V30 976 H 99.8038 3.70513 -0.421225 0
M  V30 977 N 101.989 0.842826 1.3317 0
M  V30 978 C 103.214 0.453129 2.02389 0
M  V30 979 C 103.639 -0.939105 1.6298 0
M  V30 980 O 102.997 -1.61472 0.8244 0
M  V30 981 C 103.045 0.586094 3.55805 0
M  V30 982 O 102.149 -0.386029 4.10589 0
M  V30 983 H 101.49 0.183664 0.638094 0
M  V30 984 H 104.02 1.13875 1.69981 0
M  V30 985 H 104.03 0.469209 4.05293 0
M  V30 986 H 102.705 1.6014 3.83833 0
M  V30 987 H 101.282 -0.226371 3.72212 0
M  V30 988 N 103.467 -1.45747 0.599634 0
M  V30 989 C 104.878 -1.85853 0.177681 0
M  V30 990 C 105.229 -1.50102 -1.26348 0
M  V30 991 O 104.354 -0.923905 -1.95686 0
M  V30 992 C 104.949 -3.37326 0.315688 0
M  V30 993 C 103.508 -3.76365 -0.0515144 0
M  V30 994 C 102.655 -2.69722 0.643822 0
M  V30 995 H 105.606 -1.36661 0.806814 0
M  V30 996 H 105.627 -3.77778 -0.454321 0
M  V30 997 H 105.139 -3.63315 1.36468 0
M  V30 998 H 103.24 -3.55993 -1.09999 0
M  V30 999 H 103.353 -4.77916 0.336594 0
M  V30 1000 H 101.717 -2.54567 0.0822881 0
M  V30 1001 H 102.5 -2.98549 1.6948 0
M  V30 1002 N 104.945 -0.338344 -1.53925 0
M  V30 1003 C 105.878 0.563758 -2.21127 0
M  V30 1004 C 106.856 1.10433 -1.19345 0
M  V30 1005 O 108.04 1.16557 -1.48144 0
M  V30 1006 C 105.167 1.77505 -2.88461 0
M  V30 1007 C 104.213 1.3644 -4.04087 0
M  V30 1008 S 105.046 0.388593 -5.34088 0
M  V30 1009 C 106.202 1.60683 -6.04923 0
M  V30 1010 H 106.435 -0.00704546 -2.97299 0
M  V30 1011 H 103.968 -0.122418 -1.53914 0
M  V30 1012 H 105.926 2.46999 -3.27875 0
M  V30 1013 H 104.587 2.31706 -2.12064 0
M  V30 1014 H 103.78 2.26739 -4.50117 0
M  V30 1015 H 103.382 0.748998 -3.66423 0
M  V30 1016 H 105.674 2.54209 -6.28 0
M  V30 1017 H 106.617 1.18842 -6.98056 0
M  V30 1018 H 107.025 1.80052 -5.35015 0
M  V30 1019 N 106.423 1.57458 -0.0668435 0
M  V30 1020 C 107.671 1.92919 0.602214 0
M  V30 1021 C 107.992 0.947215 1.70449 0
M  V30 1022 O 107.262 -0.00544117 1.95899 0
M  V30 1023 H 105.842 0.71217 0.22544 0
M  V30 1024 H 108.504 1.94508 -0.123535 0
M  V30 1025 H 107.6 2.94589 1.03073 0
M  V30 1026 N 107.901 -0.206675 1.56239 0
M  V30 1027 C 109.312 -0.772383 1.69974 0
M  V30 1028 C 109.663 -1.84353 0.671436 0
M  V30 1029 O 108.788 -2.15695 -0.174491 0
M  V30 1030 C 109.383 -1.40779 3.08167 0
M  V30 1031 C 107.942 -1.92072 3.23706 0
M  V30 1032 C 107.089 -0.786347 2.65917 0
M  V30 1033 H 110.04 0.0182223 1.5869 0
M  V30 1034 H 110.061 -2.27696 3.04852 0
M  V30 1035 H 109.573 -0.627958 3.82986 0
M  V30 1036 H 107.674 -2.7281 2.53782 0
M  V30 1037 H 107.787 -2.09046 4.31087 0
M  V30 1038 H 106.151 -1.1976 2.24788 0
M  V30 1039 H 106.934 -0.0189416 3.43295 0
M  V30 1040 N 109.379 -1.50304 -0.473955 0
M  V30 1041 C 110.329 -1.65347 -1.56985 0
M  V30 1042 C 111.313 -0.508176 -1.52664 0
M  V30 1043 O 112.505 -0.762446 -1.59737 0
M  V30 1044 C 109.634 -1.74832 -2.95447 0
M  V30 1045 C 108.72 -2.95028 -3.04662 0
M  V30 1046 N 109.111 -4.18747 -2.83698 0
M  V30 1047 C 107.409 -2.93527 -3.35795 0
M  V30 1048 C 108.11 -4.99687 -2.97805 0
M  V30 1049 N 107.086 -4.33585 -3.2788 0
M  V30 1050 H 110.888 -2.58698 -1.39472 0
M  V30 1051 H 108.402 -1.47449 -0.680629 0
M  V30 1052 H 110.399 -1.83712 -3.7424 0
M  V30 1053 H 109.059 -0.826376 -3.14008 0
M  V30 1054 H 110.07 -4.48291 -2.59337 0
M  V30 1055 H 106.747 -2.10821 -3.60362 0
M  V30 1056 H 108.137 -6.08057 -2.85861 0
M  V30 1057 N 110.857 0.726932 -1.39834 0
M  V30 1058 C 112.082 1.52121 -1.40976 0
M  V30 1059 C 112.507 1.88098 -0.00826029 0
M  V30 1060 O 111.865 1.52479 0.980807 0
M  V30 1061 C 111.913 2.78021 -2.29644 0
M  V30 1062 O 111.017 3.74272 -1.73188 0
M  V30 1063 H 110.358 0.45908 -0.479731 0
M  V30 1064 H 112.888 0.896207 -1.83927 0
M  V30 1065 H 112.898 3.26671 -2.44438 0
M  V30 1066 H 111.573 2.51169 -3.31492 0
M  V30 1067 H 110.15 3.33073 -1.6768 0
M  V30 1068 N 112.336 1.25143 0.95797 0
M  V30 1069 C 113.269 0.995565 2.05338 0
M  V30 1070 C 114.247 -0.0740423 1.62431 0
M  V30 1071 O 115.431 0.0649212 1.88388 0
M  V30 1072 C 112.558 0.504298 3.34925 0
M  V30 1073 C 111.604 1.56393 3.96792 0
M  V30 1074 S 112.437 3.14815 4.33188 0
M  V30 1075 C 113.593 2.67415 5.65898 0
M  V30 1076 H 113.826 1.92309 2.26726 0
M  V30 1077 H 111.359 1.08635 1.09716 0
M  V30 1078 H 113.317 0.227497 4.09869 0
M  V30 1079 H 111.978 -0.402671 3.11508 0
M  V30 1080 H 111.171 1.17082 4.90212 0
M  V30 1081 H 110.773 1.79124 3.28315 0
M  V30 1082 H 113.065 2.10833 6.4386 0
M  V30 1083 H 114.008 3.59463 6.10076 0
M  V30 1084 H 114.416 2.07521 5.24972 0
M  V30 1085 N 113.814 -1.1601 1.06675 0
M  V30 1086 C 115.039 -1.91068 0.806706 0
M  V30 1087 C 115.464 -1.77112 -0.633485 0
M  V30 1088 O 114.822 -1.09908 -1.44187 0
M  V30 1089 C 114.87 -3.39655 1.21106 0
M  V30 1090 O 113.974 -4.10893 0.352189 0
M  V30 1091 H 113.315 -0.595125 0.294486 0
M  V30 1092 H 115.845 -1.46955 1.42356 0
M  V30 1093 H 115.855 -3.90434 1.18428 0
M  V30 1094 H 114.53 -3.49132 2.26008 0
M  V30 1095 H 113.107 -3.70285 0.440868 0
M  V30 1096 N 115.292 -0.849877 -1.32721 0
M  V30 1097 C 116.538 -0.451591 -1.97708 0
M  V30 1098 C 116.871 0.989175 -1.6712 0
M  V30 1099 O 116.146 1.69334 -0.956891 0
M  V30 1100 C 116.429 -0.685598 -3.53513 0
M  V30 1101 C 116.282 -2.17444 -3.93749 0
M  V30 1102 C 117.601 -0.138874 -4.39881 0
M  V30 1103 H 114.72 -0.16555 -0.718166 0
M  V30 1104 H 117.362 -1.06742 -1.57182 0
M  V30 1105 H 115.512 -0.161416 -3.88165 0
M  V30 1106 H 117.184 -2.76433 -3.693 0
M  V30 1107 H 115.427 -2.65476 -3.43081 0
M  V30 1108 H 116.098 -2.28888 -5.02309 0
M  V30 1109 H 118.574 -0.587068 -4.11938 0
M  V30 1110 H 117.45 -0.332213 -5.47894 0
M  V30 1111 H 117.711 0.95806 -4.31594 0
M  V30 1112 N 116.77 1.45427 -0.607355 0
M  V30 1113 C 118.181 1.85756 -0.187535 0
M  V30 1114 C 118.532 1.5077 1.25551 0
M  V30 1115 O 117.657 0.93427 1.95193 0
M  V30 1116 C 118.252 3.37154 -0.333572 0
M  V30 1117 C 116.811 3.76387 0.0315542 0
M  V30 1118 C 115.958 2.69377 -0.658117 0
M  V30 1119 H 118.909 1.36231 -0.81405 0
M  V30 1120 H 118.93 3.78014 0.43428 0
M  V30 1121 H 118.442 3.62586 -1.38393 0
M  V30 1122 H 116.543 3.56571 1.0811 0
M  V30 1123 H 116.656 4.77731 -0.361935 0
M  V30 1124 H 115.02 2.5452 -0.0957873 0
M  V30 1125 H 115.803 2.97646 -1.7106 0
M  V30 1126 N 118.248 0.346503 1.53744 0
M  V30 1127 C 119.476 -0.25041 2.05379 0
M  V30 1128 C 119.891 -1.43979 1.22129 0
M  V30 1129 O 119.248 -1.80677 0.257321 0
M  V30 1130 C 119.299 -0.662575 3.55376 0
M  V30 1131 O 119.02 0.479515 4.35468 0
M  V30 1132 C 120.521 -1.31989 4.23195 0
M  V30 1133 H 117.741 -0.0478198 0.669294 0
M  V30 1134 H 120.285 0.499346 1.9831 0
M  V30 1135 H 118.44 -1.36227 3.62658 0
M  V30 1136 H 118.854 0.15037 5.24284 0
M  V30 1137 H 120.328 -1.55902 5.29527 0
M  V30 1138 H 120.805 -2.27436 3.75725 0
M  V30 1139 H 121.411 -0.662154 4.20114 0
M  V30 1140 N 119.726 -1.57421 0.075193 0
M  V30 1141 C 120.954 -1.97946 -0.602076 0
M  V30 1142 C 121.369 -0.953674 -1.62943 0
M  V30 1143 O 120.726 0.0592551 -1.82404 0
M  V30 1144 C 120.777 -3.38546 -1.26762 0
M  V30 1145 O 120.498 -4.37195 -0.281376 0
M  V30 1146 C 121.999 -3.93966 -2.03239 0
M  V30 1147 H 119.219 -0.650918 -0.162931 0
M  V30 1148 H 121.763 -2.03959 0.148601 0
M  V30 1149 H 119.918 -3.33609 -1.96936 0
M  V30 1150 H 120.332 -5.18975 -0.759267 0
M  V30 1151 H 121.806 -4.94555 -2.45193 0
M  V30 1152 H 122.283 -3.30693 -2.8903 0
M  V30 1153 H 122.889 -4.02315 -1.37924 0
M  V30 1154 N 121.204 0.198386 -1.56346 0
M  V30 1155 C 122.615 0.763358 -1.70381 0
M  V30 1156 C 122.966 1.83995 -0.681203 0
M  V30 1157 O 122.091 2.15785 0.16305 0
M  V30 1158 C 122.686 1.39143 -3.08909 0
M  V30 1159 C 121.245 1.90352 -3.2472 0
M  V30 1160 C 120.392 0.772233 -2.6633 0
M  V30 1161 H 123.343 -0.0266377 -1.58678 0
M  V30 1162 H 123.364 2.26076 -3.06055 0
M  V30 1163 H 122.876 0.607638 -3.83314 0
M  V30 1164 H 120.977 2.71461 -2.55225 0
M  V30 1165 H 121.09 2.06757 -4.3219 0
M  V30 1166 H 119.454 1.18566 -2.2542 0
M  V30 1167 H 120.237 0.00073556 -3.433 0
M  V30 1168 N 122.682 1.50554 0.465978 0
M  V30 1169 C 123.91 1.65563 1.24083 0
M  V30 1170 C 124.325 0.341051 1.85694 0
M  V30 1171 O 123.682 -0.677543 1.69457 0
M  V30 1172 C 123.733 2.75051 2.34583 0
M  V30 1173 O 123.454 4.01413 1.75497 0
M  V30 1174 C 124.955 3.01078 3.25372 0
M  V30 1175 H 122.175 0.55638 0.375077 0
M  V30 1176 H 124.719 1.96807 0.555624 0
M  V30 1177 H 122.874 2.46486 2.9887 0
M  V30 1178 H 123.288 4.62002 2.48303 0
M  V30 1179 H 124.762 3.81339 3.99105 0
M  V30 1180 H 125.239 2.12349 3.84453 0
M  V30 1181 H 125.845 3.31194 2.66816 0
M  V30 1182 N 124.16 -0.719506 1.40217 0
M  V30 1183 C 125.09 -1.8465 1.42922 0
M  V30 1184 C 126.071 -1.67599 0.29062 0
M  V30 1185 O 127.256 -1.87688 0.498677 0
M  V30 1186 C 124.386 -3.22565 1.28722 0
M  V30 1187 C 123.34 -3.54281 2.40144 0
M  V30 1188 C 122.666 -4.91298 2.11023 0
M  V30 1189 C 123.966 -3.55676 3.82481 0
M  V30 1190 H 125.66 -1.82644 2.37237 0
M  V30 1191 H 123.206 -0.877305 1.1419 0
M  V30 1192 H 125.159 -4.01095 1.29232 0
M  V30 1193 H 123.883 -3.25137 0.308811 0
M  V30 1194 H 122.542 -2.78088 2.38877 0
M  V30 1195 H 122.19 -4.90468 1.11582 0
M  V30 1196 H 121.89 -5.13485 2.8567 0
M  V30 1197 H 123.414 -5.72166 2.13209 0
M  V30 1198 H 124.828 -4.24254 3.85592 0
M  V30 1199 H 123.225 -3.89388 4.56614 0
M  V30 1200 H 124.295 -2.55144 4.12346 0
M  V30 1201 N 125.638 -1.25649 -0.95132 0
M  V30 1202 C 126.886 -1.10375 -1.69298 0
M  V30 1203 C 127.207 0.355339 -1.91735 0
M  V30 1204 O 126.477 1.25188 -1.50681 0
M  V30 1205 H 125.057 -0.405461 -0.627384 0
M  V30 1206 H 127.719 -1.57823 -1.14358 0
M  V30 1207 H 126.815 -1.61465 -2.67087 0
M  V30 1208 N 127.117 1.15442 -1.07289 0
M  V30 1209 C 128.364 1.86213 -0.795668 0
M  V30 1210 C 128.692 1.82291 0.678238 0
M  V30 1211 O 127.947 1.24057 1.51355 0
M  V30 1212 C 128.246 3.3489 -1.24834 0
M  V30 1213 C 127.912 3.59007 -2.72809 0
M  V30 1214 C 126.574 3.65298 -3.13227 0
M  V30 1215 C 128.926 3.68762 -3.68326 0
M  V30 1216 C 126.254 3.78854 -4.4798 0
M  V30 1217 C 128.606 3.83842 -5.0284 0
M  V30 1218 C 127.27 3.88378 -5.4288 0
M  V30 1219 H 126.54 0.681403 -0.291155 0
M  V30 1220 H 129.187 1.36435 -1.34379 0
M  V30 1221 H 127.492 3.8687 -0.619595 0
M  V30 1222 H 129.189 3.88052 -1.01076 0
M  V30 1223 H 125.779 3.5475 -2.40521 0
M  V30 1224 H 129.963 3.63202 -3.38227 0
M  V30 1225 H 125.219 3.80623 -4.78472 0
M  V30 1226 H 129.393 3.90332 -5.76727 0
M  V30 1227 H 127.02 3.98635 -6.47298 0
M  V30 1228 N 128.595 0.856903 1.32268 0
M  V30 1229 C 129.82 0.474569 2.01897 0
M  V30 1230 C 130.245 -0.921766 1.63967 0
M  V30 1231 O 129.603 -1.60589 0.84148 0
M  V30 1232 C 129.651 0.623799 3.55164 0
M  V30 1233 O 128.755 -0.342459 4.10976 0
M  V30 1234 H 128.096 0.190422 0.63611 0
M  V30 1235 H 130.626 1.15672 1.68764 0
M  V30 1236 H 130.636 0.512169 4.04773 0
M  V30 1237 H 129.311 1.64202 3.82113 0
M  V30 1238 H 127.888 -0.18688 3.72431 0
M  V30 1239 N 130.073 -1.45103 0.615059 0
M  V30 1240 C 131.301 -2.06553 0.11977 0
M  V30 1241 C 131.716 -1.45842 -1.19898 0
M  V30 1242 O 131.073 -0.575325 -1.73194 0
M  V30 1243 C 131.124 -3.61495 -0.018364 0
M  V30 1244 O 130.845 -4.19942 1.24822 0
M  V30 1245 C 132.346 -4.39947 -0.544237 0
M  V30 1246 H 129.566 -0.667096 0.0722739 0
M  V30 1247 H 132.11 -1.8623 0.84491 0
M  V30 1248 H 130.265 -3.81135 -0.693865 0
M  V30 1249 H 130.679 -5.13204 1.0827 0
M  V30 1250 H 132.153 -5.48838 -0.589953 0
M  V30 1251 H 132.63 -4.10255 -1.56805 0
M  V30 1252 H 133.236 -4.25188 0.0974703 0
M  V30 1253 N 131.551 -0.354651 -1.53558 0
M  V30 1254 C 132.799 0.237972 -2.00694 0
M  V30 1255 C 133.12 1.50173 -1.24391 0
M  V30 1256 O 132.39 1.92673 -0.354135 0
M  V30 1257 H 130.97 0.0909256 -0.741446 0
M  V30 1258 H 133.632 -0.478368 -1.88938 0
M  V30 1259 H 132.728 0.47264 -3.085 0
M  V30 1260 N 133.029 1.57378 -0.0835403 0
M  V30 1261 C 134.254 1.98682 0.594987 0
M  V30 1262 C 134.679 0.961969 1.61641 0
M  V30 1263 O 134.037 -0.0709989 1.81161 0
M  V30 1264 C 134.085 3.38988 1.2296 0
M  V30 1265 O 133.189 3.39208 2.34546 0
M  V30 1266 H 132.53 0.646368 0.152002 0
M  V30 1267 H 135.06 2.03961 -0.161533 0
M  V30 1268 H 135.07 3.76431 1.57366 0
M  V30 1269 H 133.745 4.13107 0.481228 0
M  V30 1270 H 132.322 3.13548 2.01846 0
M  V30 1271 N 134.507 -0.190092 1.56449 0
M  V30 1272 C 135.918 -0.754312 1.70784 0
M  V30 1273 C 136.269 -1.83631 0.690951 0
M  V30 1274 O 135.394 -2.15868 -0.151604 0
M  V30 1275 C 135.989 -1.37503 3.09642 0
M  V30 1276 C 134.548 -1.88628 3.25725 0
M  V30 1277 C 133.695 -0.758098 2.66736 0
M  V30 1278 H 136.646 0.0350524 1.58661 0
M  V30 1279 H 136.667 -2.2445 3.0725 0
M  V30 1280 H 136.179 -0.587302 3.83631 0
M  V30 1281 H 134.28 -2.70103 2.56661 0
M  V30 1282 H 134.393 -2.04462 4.3328 0
M  V30 1283 H 132.757 -1.17369 2.26046 0
M  V30 1284 H 133.54 0.0174705 3.43296 0
M  V30 1285 N 135.985 -1.50799 -0.457987 0
M  V30 1286 C 136.917 -1.66786 -1.57211 0
M  V30 1287 C 137.93 -0.548962 -1.53265 0
M  V30 1288 O 139.119 -0.8226 -1.58416 0
M  V30 1289 C 136.219 -1.64834 -2.96113 0
M  V30 1290 C 135.392 -2.92971 -3.24787 0
M  V30 1291 C 134.451 -2.83485 -4.43309 0
M  V30 1292 O 133.477 -3.5744 -4.42973 0
M  V30 1293 N 134.679 -1.97929 -5.45714 0
M  V30 1294 H 137.444 -2.62889 -1.43909 0
M  V30 1295 H 135.005 -1.48427 -0.646617 0
M  V30 1296 H 136.997 -1.56084 -3.7339 0
M  V30 1297 H 135.567 -0.764118 -3.03117 0
M  V30 1298 H 134.787 -3.15749 -2.36 0
M  V30 1299 H 136.075 -3.77834 -3.40762 0
M  V30 1300 H 135.473 -1.37182 -5.48815 0
M  V30 1301 H 134.03 -1.95073 -6.21924 0
M  V30 1302 N 137.463 0.71206 -1.40597 0
M  V30 1303 C 138.393 1.83889 -1.43899 0
M  V30 1304 C 139.374 1.67442 -0.299504 0
M  V30 1305 O 140.559 1.87421 -0.508624 0
M  V30 1306 C 137.689 3.21877 -1.30431 0
M  V30 1307 C 136.643 3.53002 -2.42019 0
M  V30 1308 C 135.969 4.90172 -2.13626 0
M  V30 1309 C 137.269 3.53643 -3.84362 0
M  V30 1310 H 138.963 1.81383 -2.38203 0
M  V30 1311 H 136.509 0.871237 -1.14654 0
M  V30 1312 H 138.462 4.00404 -1.31357 0
M  V30 1313 H 137.186 3.24968 -0.326049 0
M  V30 1314 H 135.845 2.76818 -2.40349 0
M  V30 1315 H 135.493 4.89869 -1.14182 0
M  V30 1316 H 135.193 5.11962 -2.88389 0
M  V30 1317 H 136.717 5.71028 -2.1624 0
M  V30 1318 H 138.131 4.22203 -3.87837 0
M  V30 1319 H 136.528 3.86961 -4.58673 0
M  V30 1320 H 137.598 2.52954 -4.13693 0
M  V30 1321 N 138.941 1.26152 0.944643 0
M  V30 1322 C 140.166 1.14363 1.7302 0
M  V30 1323 C 140.591 -0.29772 1.85729 0
M  V30 1324 O 139.949 -1.2157 1.34501 0
M  V30 1325 C 139.997 1.81378 3.11664 0
M  V30 1326 O 139.101 1.10022 3.97453 0
M  V30 1327 H 138.442 0.398694 0.53098 0
M  V30 1328 H 140.972 1.66906 1.18337 0
M  V30 1329 H 140.982 1.88064 3.62072 0
M  V30 1330 H 139.657 2.86237 3.0173 0
M  V30 1331 H 138.234 1.11287 3.55907 0
M  V30 1332 N 140.419 -1.14872 1.07899 0
M  V30 1333 C 141.644 -1.90202 0.826926 0
M  V30 1334 C 142.069 -1.77774 -0.614664 0
M  V30 1335 O 141.427 -1.11431 -1.43013 0
M  V30 1336 C 141.475 -3.38352 1.24702 0
M  V30 1337 O 140.579 -4.10497 0.39575 0
M  V30 1338 H 139.92 -0.591968 0.300782 0
M  V30 1339 H 142.45 -1.45437 1.43907 0
M  V30 1340 H 142.46 -3.89156 1.22563 0
M  V30 1341 H 141.135 -3.46715 2.29698 0
M  V30 1342 H 139.712 -3.69796 0.480117 0
M  V30 1343 N 141.898 -0.863906 -1.31812 0
M  V30 1344 C 143.309 -0.52522 -1.7916 0
M  V30 1345 C 143.66 0.957518 -1.71248 0
M  V30 1346 O 142.785 1.74734 -1.27659 0
M  V30 1347 C 143.38 -0.9466 -3.25307 0
M  V30 1348 C 141.939 -0.659668 -3.70574 0
M  V30 1349 C 141.086 -1.14126 -2.52726 0
M  V30 1350 H 144.037 -1.05022 -1.1898 0
M  V30 1351 H 144.058 -0.266766 -3.79564 0
M  V30 1352 H 143.57 -2.02579 -3.31034 0
M  V30 1353 H 141.671 0.408416 -3.70355 0
M  V30 1354 H 141.784 -1.23245 -4.62977 0
M  V30 1355 H 140.148 -0.561216 -2.4844 0
M  V30 1356 H 140.931 -2.22775 -2.61201 0
M  V30 1357 N 143.376 1.44774 -0.622745 0
M  V30 1358 C 144.309 2.27792 0.136329 0
M  V30 1359 C 145.287 1.38041 0.859264 0
M  V30 1360 O 146.471 1.67478 0.86506 0
M  V30 1361 C 143.598 3.16776 1.19878 0
M  V30 1362 C 142.644 4.22575 0.57731 0
M  V30 1363 S 143.477 5.31825 -0.626294 0
M  V30 1364 C 144.633 6.24377 0.436378 0
M  V30 1365 H 144.866 2.91824 -0.567967 0
M  V30 1366 H 142.399 1.48838 -0.410677 0
M  V30 1367 H 144.357 3.68596 1.80686 0
M  V30 1368 H 143.018 2.5198 1.87523 0
M  V30 1369 H 142.211 4.84818 1.37721 0
M  V30 1370 H 141.813 3.73974 0.0440439 0
M  V30 1371 H 144.105 6.64689 1.31128 0
M  V30 1372 H 145.048 7.07941 -0.150271 0
M  V30 1373 H 145.456 5.59381 0.758513 0
M  V30 1374 N 144.854 0.36279 1.53368 0
M  V30 1375 C 145.802 -0.500155 2.27159 0
M  V30 1376 C 146.796 -1.08575 1.3003 0
M  V30 1377 O 148.002 -1.02927 1.47668 0
M  V30 1378 H 144.377 -0.180009 0.730138 0
M  V30 1379 H 146.348 0.14401 2.98052 0
M  V30 1380 C 145.097 -1.62937 3.07159 0
M  V30 1381 H 144.42 -1.18806 3.8174 0
M  V30 1382 H 145.86 -2.20795 3.61975 0
M  V30 1383 C 144.319 -2.57007 2.17829 0
M  V30 1384 O 144.849 -3.59752 1.78721 0
M  V30 1385 N 143.055 -2.26131 1.82518 0
M  V30 1386 H 142.602 -1.42616 2.14519 0
M  V30 1387 H 142.56 -2.89327 1.23034 0
M  V30 1388 N 146.332 -1.57332 0.0918853 0
M  V30 1389 C 147.743 -1.81496 -0.437739 0
M  V30 1390 C 148.094 -1.00727 -1.6837 0
M  V30 1391 O 147.219 -0.235694 -2.15113 0
M  V30 1392 C 147.814 -3.29197 -0.800939 0
M  V30 1393 C 146.373 -3.54136 -1.27532 0
M  V30 1394 C 145.52 -2.75979 -0.270392 0
M  V30 1395 H 148.471 -1.55494 0.317366 0
M  V30 1396 H 148.492 -3.42344 -1.66074 0
M  V30 1397 H 148.004 -3.87955 0.106078 0
M  V30 1398 H 146.105 -3.00705 -2.20016 0
M  V30 1399 H 146.218 -4.62792 -1.23938 0
M  V30 1400 H 144.582 -2.43349 -0.751872 0
M  V30 1401 H 145.365 -3.37484 0.629248 0
M  V30 1402 N 147.81 0.181792 -1.56548 0
M  V30 1403 C 149.056 0.901431 -1.81665 0
M  V30 1404 C 149.389 1.82347 -0.668075 0
M  V30 1405 O 148.664 1.91669 0.330615 0
M  V30 1406 C 148.947 1.70618 -3.17115 0
M  V30 1407 C 148.8 0.807964 -4.42484 0
M  V30 1408 C 150.119 2.67605 -3.49393 0
M  V30 1409 H 147.238 0.32627 -0.660846 0
M  V30 1410 H 149.88 0.168134 -1.89255 0
M  V30 1411 H 148.03 2.33133 -3.10775 0
M  V30 1412 H 149.702 0.19649 -4.60881 0
M  V30 1413 H 147.945 0.115411 -4.33646 0
M  V30 1414 H 148.616 1.40632 -5.33785 0
M  V30 1415 H 151.092 2.15218 -3.56118 0
M  V30 1416 H 149.968 3.20985 -4.45264 0
M  V30 1417 H 150.229 3.47298 -2.73563 0
M  V30 1418 N 149.288 1.51039 0.449983 0
M  V30 1419 C 150.513 1.6715 1.22783 0
M  V30 1420 C 150.938 0.363081 1.84563 0
M  V30 1421 O 150.296 -0.675433 1.68249 0
M  V30 1422 C 150.344 2.77985 2.29689 0
M  V30 1423 O 149.448 2.40707 3.34864 0
M  V30 1424 H 148.789 0.557746 0.360299 0
M  V30 1425 H 151.319 1.97535 0.533005 0
M  V30 1426 H 151.329 3.01693 2.74673 0
M  V30 1427 H 150.004 3.72935 1.84098 0
M  V30 1428 H 148.581 2.27523 2.95445 0
M  V30 1429 N 150.766 -0.704594 1.40972 0
M  V30 1430 C 151.991 -1.49858 1.43378 0
M  V30 1431 C 152.416 -1.88061 0.038184 0
M  V30 1432 O 151.774 -1.5402 -0.956425 0
M  V30 1433 C 151.822 -2.74333 2.34038 0
M  V30 1434 O 150.926 -3.7147 1.7912 0
M  V30 1435 H 150.267 -0.45139 0.486974 0
M  V30 1436 H 152.797 -0.866832 1.8533 0
M  V30 1437 H 152.807 -3.22741 2.49604 0
M  V30 1438 H 151.482 -2.45863 3.35446 0
M  V30 1439 H 150.059 -3.30363 1.72958 0
M  V30 1440 N 152.244 -1.26651 -0.937939 0
M  V30 1441 C 153.469 -1.15279 -1.72411 0
M  V30 1442 C 153.894 0.287866 -1.85884 0
M  V30 1443 O 153.252 1.20855 -1.35143 0
M  V30 1444 C 153.3 -1.83028 -3.10698 0
M  V30 1445 O 152.404 -1.12128 -3.96864 0
M  V30 1446 H 151.745 -0.401504 -0.528858 0
M  V30 1447 H 154.275 -1.67531 -1.1745 0
M  V30 1448 H 154.285 -1.89981 -3.6107 0
M  V30 1449 H 152.96 -2.87833 -3.00208 0
M  V30 1450 H 151.537 -1.13173 -3.55312 0
M  V30 1451 N 153.722 1.14298 -1.08507 0
M  V30 1452 C 154.632 2.23027 -0.727753 0
M  V30 1453 C 155.648 1.71952 0.26619 0
M  V30 1454 O 156.824 2.011 0.109882 0
M  V30 1455 C 153.889 3.46403 -0.143541 0
M  V30 1456 C 152.95 4.12413 -1.19223 0
M  V30 1457 C 152.183 5.29899 -0.635798 0
M  V30 1458 O 152.406 5.67796 0.544393 0
M  V30 1459 O 151.34 5.85717 -1.38634 0
M  V30 1460 H 155.166 2.55945 -1.63481 0
M  V30 1461 H 152.751 1.22248 -0.858817 0
M  V30 1462 H 154.633 4.21018 0.179404 0
M  V30 1463 H 153.308 3.15206 0.736659 0
M  V30 1464 H 152.215 3.39667 -1.56772 0
M  V30 1465 H 153.548 4.47718 -2.04474 0
M  V30 1466 N 155.201 0.870884 1.31352 0
M  V30 1467 C 156.478 0.402907 1.91405 0
M  V30 1468 C 156.858 -1.11512 1.79244 0
M  V30 1469 O 156.206 -1.94411 1.2007 0
M  V30 1470 C 156.416 0.885301 3.37585 0
M  V30 1471 C 157.764 0.911971 4.14691 0
M  V30 1472 O 158.788 0.831016 3.46371 0
M  V30 1473 O 157.647 1.02927 5.3672 0
M  V30 1474 H 154.741 0.120698 0.818145 0
M  V30 1475 H 157.287 0.958857 1.40014 0
M  V30 1476 H 156.059 1.92889 3.40455 0
M  V30 1477 H 155.682 0.307714 3.96407 0
M  V30 1478 N 156.679 -1.44442 0.630414 0
M  V30 1479 C 157.928 -2.01267 0.132073 0
M  V30 1480 C 158.241 -1.50172 -1.25331 0
M  V30 1481 O 159.447 -1.9912 -1.84562 0
M  V30 1482 C 157.903 -3.59422 0.185362 0
M  V30 1483 C 157.511 -4.19514 1.57201 0
M  V30 1484 C 159.255 -4.23724 -0.256553 0
M  V30 1485 C 157.162 -5.69891 1.58045 0
M  V30 1486 H 156.092 -0.752619 0.0456092 0
M  V30 1487 H 158.743 -1.65666 0.789106 0
M  V30 1488 H 157.125 -3.92318 -0.538759 0
M  V30 1489 H 158.299 -3.98156 2.31966 0
M  V30 1490 H 156.614 -3.67496 1.95795 0
M  V30 1491 H 159.211 -5.34019 -0.269767 0
M  V30 1492 H 159.554 -3.96013 -1.28372 0
M  V30 1493 H 160.087 -3.95629 0.41505 0
M  V30 1494 H 156.826 -6.02336 2.58597 0
M  V30 1495 H 156.346 -5.93373 0.875725 0
M  V30 1496 H 158.025 -6.33515 1.31408 0
M  V30 1497 N 158.157 -0.370918 -1.53173 0
M  V30 1498 C 159.104 0.473035 -2.259 0
M  V30 1499 C 160.074 1.07311 -1.26781 0
M  V30 1500 O 161.259 1.1046 -1.55574 0
M  V30 1501 C 158.399 1.60405 -3.05556 0
M  V30 1502 C 157.512 1.02863 -4.19575 0
M  V30 1503 C 156.647 2.12918 -4.86661 0
M  V30 1504 C 155.686 1.52869 -5.92704 0
M  V30 1505 N 154.823 2.56779 -6.53459 0
M  V30 1506 H 159.663 -0.153649 -2.97604 0
M  V30 1507 H 157.2 -0.0875946 -1.46839 0
M  V30 1508 H 159.158 2.27034 -3.50016 0
M  V30 1509 H 157.788 2.20131 -2.36097 0
M  V30 1510 H 156.84 0.252465 -3.79561 0
M  V30 1511 H 158.152 0.549642 -4.95762 0
M  V30 1512 H 157.306 2.87356 -5.34333 0
M  V30 1513 H 156.045 2.6417 -4.09958 0
M  V30 1514 H 155.05 0.769479 -5.44389 0
M  V30 1515 H 156.275 1.02435 -6.7133 0
M  V30 1516 H 154.221 3.07235 -5.79606 0
M  V30 1517 H 154.138 2.13583 -7.25202 0
M  V30 1518 H 155.406 3.30903 -7.05779 0
M  V30 1519 N 159.635 1.57281 -0.100228 0
M  V30 1520 C 161.046 1.81725 0.428107 0
M  V30 1521 C 161.397 1.01619 1.67833 0
M  V30 1522 O 160.522 0.247098 2.14985 0
M  V30 1523 C 161.117 3.29617 0.78347 0
M  V30 1524 C 159.676 3.54808 1.25653 0
M  V30 1525 C 158.823 2.76118 0.255752 0
M  V30 1526 H 161.774 1.55324 -0.325608 0
M  V30 1527 H 161.795 3.4322 1.64256 0
M  V30 1528 H 161.307 3.87893 -0.12665 0
M  V30 1529 H 159.408 3.01868 2.18418 0
M  V30 1530 H 159.521 4.63443 1.21482 0
M  V30 1531 H 157.885 2.43745 0.738956 0
M  V30 1532 H 158.668 3.37145 -0.647136 0
M  V30 1533 N 161.113 -0.173488 1.56642 0
M  V30 1534 C 162.524 -0.736155 1.71574 0
M  V30 1535 C 162.875 -1.82888 0.710389 0
M  V30 1536 O 162 -2.16017 -0.1287 0
M  V30 1537 C 162.595 -1.34211 3.11083 0
M  V30 1538 C 161.154 -1.85162 3.27707 0
M  V30 1539 C 160.301 -0.729765 2.67525 0
M  V30 1540 H 163.252 0.0518786 1.58615 0
M  V30 1541 H 163.273 -2.21178 3.09613 0
M  V30 1542 H 162.785 -0.546579 3.84232 0
M  V30 1543 H 160.886 -2.67366 2.59512 0
M  V30 1544 H 160.999 -1.99855 4.35425 0
M  V30 1545 H 159.363 -1.14965 2.27278 0
M  V30 1546 H 160.146 0.0538806 3.43258 0
M  V30 1547 N 162.591 -1.51276 -0.441967 0
M  V30 1548 C 163.521 -1.752 -1.54361 0
M  V30 1549 C 164.502 -0.601682 -1.59103 0
M  V30 1550 O 165.687 -0.843913 -1.74905 0
M  V30 1551 C 162.817 -1.87282 -2.92477 0
M  V30 1552 C 161.771 -3.02687 -3.02596 0
M  V30 1553 C 161.097 -2.99947 -4.42647 0
M  V30 1554 C 162.397 -4.4273 -2.77106 0
M  V30 1555 H 164.091 -2.67442 -1.34592 0
M  V30 1556 H 161.637 -1.28694 -0.646048 0
M  V30 1557 H 163.59 -2.02602 -3.695 0
M  V30 1558 H 162.314 -0.916844 -3.13467 0
M  V30 1559 H 160.973 -2.87065 -2.28012 0
M  V30 1560 H 160.621 -2.02136 -4.60597 0
M  V30 1561 H 160.321 -3.77439 -4.50348 0
M  V30 1562 H 161.845 -3.17354 -5.2165 0
M  V30 1563 H 163.259 -4.58727 -3.43864 0
M  V30 1564 H 161.656 -5.21893 -2.96222 0
M  V30 1565 H 162.726 -4.53087 -1.72744 0
M  V30 1566 N 164.069 0.697108 -1.41344 0
M  V30 1567 C 165.317 1.45426 -1.40341 0
M  V30 1568 C 165.638 1.94996 -0.0128787 0
M  V30 1569 O 164.908 1.71599 0.945027 0
M  V30 1570 H 163.488 0.539594 -0.516573 0
M  V30 1571 H 166.15 0.825201 -1.76569 0
M  V30 1572 H 165.246 2.31817 -2.08967 0
M  V30 1573 N 165.547 1.27147 0.931209 0
M  V30 1574 C 166.477 1.12081 2.04842 0
M  V30 1575 C 167.458 0.0232364 1.70084 0
M  V30 1576 O 168.643 0.197085 1.93197 0
M  V30 1577 C 165.773 0.76354 3.38803 0
M  V30 1578 C 164.727 1.81396 3.87659 0
M  V30 1579 C 164.053 1.31075 5.18385 0
M  V30 1580 C 165.353 3.21739 4.11438 0
M  V30 1581 H 167.047 2.05537 2.17703 0
M  V30 1582 H 164.593 0.989603 1.04608 0
M  V30 1583 H 166.546 0.644982 4.16435 0
M  V30 1584 H 165.27 -0.206727 3.25945 0
M  V30 1585 H 163.929 1.92136 3.12217 0
M  V30 1586 H 163.577 0.330037 5.01916 0
M  V30 1587 H 163.277 2.013 5.52044 0
M  V30 1588 H 164.801 1.20506 5.98591 0
M  V30 1589 H 166.215 3.14019 4.79651 0
M  V30 1590 H 164.612 3.89644 4.56397 0
M  V30 1591 H 165.682 3.67054 3.16859 0
M  V30 1592 N 167.025 -1.13721 1.09112 0
M  V30 1593 C 167.973 -2.21103 0.722219 0
M  V30 1594 C 168.967 -1.67147 -0.275374 0
M  V30 1595 O 170.173 -1.79477 -0.137176 0
M  V30 1596 H 166.548 -0.720445 0.215553 0
M  V30 1597 H 168.519 -2.49483 1.63709 0
M  V30 1598 C 167.268 -3.47352 0.15543 0
M  V30 1599 H 166.591 -3.89206 0.914246 0
M  V30 1600 H 168.031 -4.2395 -0.0647967 0
M  V30 1601 C 166.49 -3.1814 -1.10852 0
M  V30 1602 O 167.02 -3.36604 -2.19227 0
M  V30 1603 N 165.226 -2.72045 -1.02176 0
M  V30 1604 H 164.773 -2.57221 -0.139764 0
M  V30 1605 H 164.731 -2.52875 -1.8682 0
M  V30 1606 N 168.503 -0.877838 -1.30888 0
M  V30 1607 C 169.751 -0.491723 -1.96027 0
M  V30 1608 C 170.072 0.960827 -1.69685 0
M  V30 1609 O 169.342 1.67462 -1.01654 0
M  V30 1610 H 167.922 -0.17885 -0.725273 0
M  V30 1611 H 170.584 -1.11935 -1.59551 0
M  V30 1612 H 169.68 -0.656016 -3.05128 0
M  V30 1613 N 169.982 1.44106 -0.638065 0
M  V30 1614 C 171.228 2.02277 -0.145546 0
M  V30 1615 C 171.561 1.50125 1.23191 0
M  V30 1616 O 170.836 0.688133 1.8192 0
M  V30 1617 C 171.119 3.59829 -0.139791 0
M  V30 1618 C 170.972 4.22247 -1.55008 0
M  V30 1619 C 172.291 4.36873 0.531966 0
M  V30 1620 H 169.41 0.734992 -0.0543632 0
M  V30 1621 H 172.052 1.71592 -0.815863 0
M  V30 1622 H 170.202 3.86102 0.431007 0
M  V30 1623 H 171.874 4.07057 -2.1703 0
M  V30 1624 H 170.117 3.79476 -2.10191 0
M  V30 1625 H 170.788 5.31284 -1.49804 0
M  V30 1626 H 173.264 4.16074 0.0464781 0
M  V30 1627 H 172.14 5.4657 0.505206 0
M  V30 1628 H 172.401 4.11995 1.60352 0
M  V30 1629 N 171.46 0.379036 1.52974 0
M  V30 1630 C 172.39 -0.452706 2.29069 0
M  V30 1631 C 173.371 -1.07237 1.32039 0
M  V30 1632 O 174.556 -1.08708 1.60923 0
M  V30 1633 C 171.686 -1.5856 3.08992 0
M  V30 1634 C 170.64 -1.0925 4.13822 0
M  V30 1635 C 169.966 -2.31668 4.81907 0
M  V30 1636 C 171.266 -0.167702 5.22031 0
M  V30 1637 H 172.96 0.182181 2.98845 0
M  V30 1638 H 170.506 0.0890592 1.43724 0
M  V30 1639 H 172.459 -2.1742 3.6098 0
M  V30 1640 H 171.183 -2.24792 2.36931 0
M  V30 1641 H 169.842 -0.526494 3.628 0
M  V30 1642 H 169.49 -2.96386 4.06404 0
M  V30 1643 H 169.19 -1.9934 5.52754 0
M  V30 1644 H 170.714 -2.91189 5.36695 0
M  V30 1645 H 172.128 -0.664186 5.6944 0
M  V30 1646 H 170.525 0.0653265 6.00064 0
M  V30 1647 H 171.595 0.786347 4.78482 0
M  V30 1648 N 172.938 -1.57226 0.108567 0
M  V30 1649 C 173.885 -2.14756 -0.845481 0
M  V30 1650 C 174.855 -1.06971 -1.27068 0
M  V30 1651 O 176.04 -1.34827 -1.35005 0
M  V30 1652 C 173.18 -2.74298 -2.09415 0
M  V30 1653 C 172.293 -3.96358 -1.71826 0
M  V30 1654 C 171.428 -4.44021 -2.9158 0
M  V30 1655 C 170.467 -5.58637 -2.50181 0
M  V30 1656 N 169.604 -6.01091 -3.62814 0
M  V30 1657 H 174.444 -2.95961 -0.348035 0
M  V30 1658 H 171.981 -1.46226 -0.160106 0
M  V30 1659 H 173.939 -3.06945 -2.82561 0
M  V30 1660 H 172.569 -1.95801 -2.56636 0
M  V30 1661 H 171.621 -3.69939 -0.885947 0
M  V30 1662 H 172.933 -4.79504 -1.37394 0
M  V30 1663 H 172.087 -4.78522 -3.72963 0
M  V30 1664 H 170.826 -3.59803 -3.29231 0
M  V30 1665 H 169.831 -5.23751 -1.67228 0
M  V30 1666 H 171.056 -6.44613 -2.13659 0
M  V30 1667 H 169.002 -5.19817 -4.00158 0
M  V30 1668 H 168.919 -6.79066 -3.32273 0
M  V30 1669 H 170.187 -6.40227 -4.44668 0
M  V30 1670 N 174.416 0.165178 -1.56732 0
M  V30 1671 C 175.662 0.882112 -1.82611 0
M  V30 1672 C 175.995 1.81628 -0.687378 0
M  V30 1673 O 175.27 1.92009 0.310267 0
M  V30 1674 C 175.553 1.67245 -3.18906 0
M  V30 1675 C 175.406 0.760987 -4.43316 0
M  V30 1676 C 176.725 2.63884 -3.52212 0
M  V30 1677 H 173.844 0.319242 -0.664269 0
M  V30 1678 H 176.486 0.148052 -1.89422 0
M  V30 1679 H 174.636 2.29824 -3.1323 0
M  V30 1680 H 176.308 0.147596 -4.61064 0
M  V30 1681 H 174.551 0.0694102 -4.33744 0
M  V30 1682 H 175.222 1.34962 -5.35247 0
M  V30 1683 H 177.698 2.11429 -3.58381 0
M  V30 1684 H 176.574 3.16245 -4.48643 0
M  V30 1685 H 176.835 3.44377 -2.77231 0
M  V30 1686 N 175.894 1.51508 0.433938 0
M  V30 1687 C 177.305 1.56784 1.01369 0
M  V30 1688 C 177.656 0.393349 1.92217 0
M  V30 1689 O 176.781 -0.489441 2.10792 0
M  V30 1690 C 177.376 2.84144 1.8452 0
M  V30 1691 C 175.935 2.9198 2.37539 0
M  V30 1692 C 175.082 2.51482 1.16843 0
M  V30 1693 H 178.033 1.57236 0.215081 0
M  V30 1694 H 178.054 2.68098 2.70007 0
M  V30 1695 H 177.566 3.69607 1.18373 0
M  V30 1696 H 175.667 2.10955 3.0713 0
M  V30 1697 H 175.78 3.95704 2.70103 0
M  V30 1698 H 174.144 2.04758 1.51481 0
M  V30 1699 H 174.927 3.39293 0.523015 0
M  V30 1700 N 177.372 -0.689602 1.41712 0
M  V30 1701 C 178.335 -1.78521 1.43746 0
M  V30 1702 C 179.335 -1.57436 0.327191 0
M  V30 1703 O 180.525 -1.64 0.587348 0
M  V30 1704 C 177.657 -3.16971 1.25467 0
M  V30 1705 H 178.85 -1.78108 2.41283 0
M  V30 1706 H 176.403 -0.89781 1.27942 0
M  V30 1707 H 177.138 -3.23019 0.287948 0
M  V30 1708 H 176.923 -3.33678 2.05917 0
M  V30 1709 H 178.413 -3.96935 1.2974 0
M  V30 1710 N 178.85 -1.27639 -0.924453 0
M  V30 1711 C 179.8 -1.07295 -2.01176 0
M  V30 1712 C 180.784 5.77352e-05 -1.609 0
M  V30 1713 O 181.976 -0.218855 -1.75642 0
M  V30 1714 C 179.105 -0.725592 -3.35544 0
M  V30 1715 C 178.191 -1.83691 -3.82254 0
M  V30 1716 N 178.582 -3.07697 -4.01443 0
M  V30 1717 C 176.88 -1.72433 -4.11319 0
M  V30 1718 C 177.581 -3.80037 -4.40394 0
M  V30 1719 N 176.557 -3.0782 -4.48049 0
M  V30 1720 H 180.359 -2.01399 -2.14046 0
M  V30 1721 H 177.873 -1.18401 -1.11153 0
M  V30 1722 H 179.87 -0.560959 -4.13109 0
M  V30 1723 H 178.53 0.207782 -3.24034 0
M  V30 1724 H 179.541 -3.43424 -3.8766 0
M  V30 1725 H 176.218 -0.862005 -4.08504 0
M  V30 1726 H 177.608 -4.86632 -4.63291 0
M  V30 1727 N 180.328 1.1314 -1.09713 0
M  V30 1728 C 181.739 1.66029 -0.853885 0
M  V30 1729 C 182.09 1.86241 0.617142 0
M  V30 1730 O 181.215 1.5834 1.47503 0
M  V30 1731 C 181.81 3.01599 -1.5435 0
M  V30 1732 C 180.369 3.51467 -1.34714 0
M  V30 1733 C 179.516 2.26648 -1.59769 0
M  V30 1734 H 182.467 0.970226 -1.25588 0
M  V30 1735 H 182.488 3.67709 -0.978267 0
M  V30 1736 H 182 2.86856 -2.6141 0
M  V30 1737 H 180.101 3.71408 -0.297838 0
M  V30 1738 H 180.214 4.314 -2.08401 0
M  V30 1739 H 178.578 2.33385 -1.01998 0
M  V30 1740 H 179.361 2.14467 -2.68065 0
M  V30 1741 N 181.806 0.884767 1.30421 0
M  V30 1742 C 183.031 0.517288 2.00845 0
M  V30 1743 C 183.456 -0.886779 1.65885 0
M  V30 1744 O 182.814 -1.58768 0.875354 0
M  V30 1745 C 182.862 0.698994 3.5376 0
M  V30 1746 O 181.966 -0.255208 4.1161 0
M  V30 1747 H 181.307 0.203872 0.631927 0
M  V30 1748 H 183.837 1.19225 1.66272 0
M  V30 1749 H 183.847 0.597912 4.03595 0
M  V30 1750 H 182.522 1.72271 3.78544 0
M  V30 1751 H 181.099 -0.10784 3.72744 0
M  V30 1752 N 183.284 -1.43765 0.645699 0
M  V30 1753 C 184.532 -2.01499 0.155731 0
M  V30 1754 C 184.853 -1.51151 -1.232 0
M  V30 1755 O 184.123 -0.721044 -1.82148 0
M  V30 1756 H 182.703 -0.745003 0.0545817 0
M  V30 1757 H 185.365 -1.76075 0.835677 0
M  V30 1758 H 184.461 -3.1181 0.134577 0
M  V30 1759 N 184.763 -0.387143 -1.52771 0
M  V30 1760 C 185.711 0.463953 -2.27926 0
M  V30 1761 C 186.705 1.06493 -1.31741 0
M  V30 1762 O 187.911 1.00565 -1.49287 0
M  V30 1763 H 184.286 0.16837 -0.732909 0
M  V30 1764 H 186.257 -0.19141 -2.97785 0
M  V30 1765 C 185.006 1.5803 -3.09713 0
M  V30 1766 H 184.329 1.12718 -3.83581 0
M  V30 1767 H 185.769 2.15008 -3.65442 0
M  V30 1768 C 184.228 2.53509 -2.2189 0
M  V30 1769 O 184.758 3.56863 -1.84422 0
M  V30 1770 N 182.964 2.23199 -1.86093 0
M  V30 1771 H 182.511 1.39185 -2.16761 0
M  V30 1772 H 182.469 2.87333 -1.27621 0
M  V30 1773 N 186.241 1.57166 -0.116904 0
M  V30 1774 C 187.174 2.10912 0.871291 0
M  V30 1775 C 188.152 1.025 1.26224 0
M  V30 1776 O 189.336 1.3014 1.36366 0
M  V30 1777 C 186.463 2.6041 2.16574 0
M  V30 1778 C 185.509 3.80687 1.92302 0
M  V30 1779 S 186.342 5.23199 1.14119 0
M  V30 1780 C 187.498 5.76064 2.44748 0
M  V30 1781 H 187.731 2.94401 0.414138 0
M  V30 1782 H 185.264 1.54096 0.096829 0
M  V30 1783 H 187.222 2.89583 2.9095 0
M  V30 1784 H 185.883 1.77106 2.59408 0
M  V30 1785 H 185.076 4.13462 2.8821 0
M  V30 1786 H 184.678 3.5212 1.26047 0
M  V30 1787 H 186.97 5.8566 3.406 0
M  V30 1788 H 187.913 6.74184 2.16521 0
M  V30 1789 H 188.321 5.04117 2.54019 0
M  V30 1790 N 187.719 -0.156864 1.56817 0
M  V30 1791 C 188.682 -1.17781 1.96622 0
M  V30 1792 C 189.682 -1.36401 0.851555 0
M  V30 1793 O 190.872 -1.33561 1.11836 0
M  V30 1794 C 188.004 -2.54008 2.27361 0
M  V30 1795 H 189.197 -0.836564 2.87996 0
M  V30 1796 H 186.75 -0.39985 1.51099 0
M  V30 1797 H 187.485 -2.9312 1.38748 0
M  V30 1798 H 187.27 -2.41856 3.08623 0
M  V30 1799 H 188.76 -3.27558 2.59029 0
M  V30 1800 N 189.197 -1.51736 -0.425897 0
M  V30 1801 C 190.422 -1.69082 -1.20108 0
M  V30 1802 C 190.847 -0.392398 -1.83962 0
M  V30 1803 O 190.205 0.64858 -1.69302 0
M  V30 1804 C 190.253 -2.81604 -2.25237 0
M  V30 1805 O 189.357 -2.46004 -3.30992 0
M  V30 1806 H 188.698 -0.563408 -0.35138 0
M  V30 1807 H 191.228 -1.98358 -0.501512 0
M  V30 1808 H 191.238 -3.06025 -2.69838 0
M  V30 1809 H 189.913 -3.75817 -1.78142 0
M  V30 1810 H 188.49 -2.32195 -2.91787 0
M  V30 1811 N 190.675 0.682077 -1.42076 0
M  V30 1812 C 191.922 1.44215 -1.42156 0
M  V30 1813 C 192.25 1.94468 -0.0354186 0
M  V30 1814 O 191.505 1.70816 0.955002 0
M  V30 1815 C 191.804 2.66036 -2.38662 0
M  V30 1816 C 191.47 2.34366 -3.85206 0
M  V30 1817 C 190.132 2.25439 -4.25124 0
M  V30 1818 C 192.484 2.08513 -4.77673 0
M  V30 1819 C 189.812 1.88775 -5.55501 0
M  V30 1820 C 192.164 1.73354 -6.08384 0
M  V30 1821 C 190.828 1.62933 -6.47309 0
M  V30 1822 H 190.098 0.527718 -0.520187 0
M  V30 1823 H 192.745 0.778387 -1.74967 0
M  V30 1824 H 191.05 3.3741 -1.99152 0
M  V30 1825 H 192.747 3.24205 -2.35991 0
M  V30 1826 H 189.337 2.42213 -3.53597 0
M  V30 1827 H 193.521 2.14346 -4.47626 0
M  V30 1828 H 188.777 1.7927 -5.84527 0
M  V30 1829 H 192.951 1.52373 -6.79526 0
M  V30 1830 H 190.578 1.34292 -7.48244 0
M  V30 1831 N 192.153 1.28127 0.917671 0
M  V30 1832 C 193.381 1.17892 1.70026 0
M  V30 1833 C 193.796 -0.262958 1.8696 0
M  V30 1834 O 193.153 -1.17811 1.3938 0
M  V30 1835 C 193.204 1.86872 3.09453 0
M  V30 1836 O 192.925 3.25428 2.93306 0
M  V30 1837 C 194.426 1.8289 4.03815 0
M  V30 1838 H 191.646 0.40942 0.531617 0
M  V30 1839 H 194.19 1.69181 1.14883 0
M  V30 1840 H 192.345 1.39464 3.61426 0
M  V30 1841 H 192.759 3.59918 3.81523 0
M  V30 1842 H 194.233 2.35751 4.99125 0
M  V30 1843 H 194.71 0.800412 4.31845 0
M  V30 1844 H 195.316 2.29959 3.57769 0
M  V30 1845 N 193.631 -1.12557 1.10312 0
M  V30 1846 C 194.578 -2.18247 0.750781 0
M  V30 1847 C 195.548 -1.63853 -0.272293 0
M  V30 1848 O 196.733 -1.90195 -0.151862 0
M  V30 1849 C 193.873 -3.44591 0.187379 0
M  V30 1850 C 192.986 -4.13046 1.2656 0
M  V30 1851 C 192.121 -5.27034 0.663978 0
M  V30 1852 C 191.16 -5.87353 1.72287 0
M  V30 1853 N 190.297 -6.92757 1.1416 0
M  V30 1854 H 195.137 -2.47732 1.65628 0
M  V30 1855 H 192.674 -1.21629 0.827337 0
M  V30 1856 H 194.632 -4.16904 -0.157148 0
M  V30 1857 H 193.262 -3.15527 -0.681355 0
M  V30 1858 H 192.314 -3.38924 1.72727 0
M  V30 1859 H 193.626 -4.53947 2.06721 0
M  V30 1860 H 192.78 -6.06104 0.268824 0
M  V30 1861 H 191.519 -4.87407 -0.169082 0
M  V30 1862 H 190.524 -5.06971 2.12746 0
M  V30 1863 H 191.749 -6.29051 2.55875 0
M  V30 1864 H 189.695 -6.5517 0.329984 0
M  V30 1865 H 189.612 -7.3225 1.88007 0
M  V30 1866 H 190.88 -7.75658 0.772956 0
M  V30 1867 N 195.109 -0.891671 -1.2995 0
M  V30 1868 C 196.059 -0.334811 -2.25528 0
M  V30 1869 C 197.043 0.540553 -1.51548 0
M  V30 1870 O 198.235 0.383882 -1.72787 0
M  V30 1871 C 195.364 0.44374 -3.4042 0
M  V30 1872 C 194.45 -0.44609 -4.21747 0
M  V30 1873 N 194.841 -1.54963 -4.81477 0
M  V30 1874 C 193.139 -0.242415 -4.45341 0
M  V30 1875 C 193.84 -2.10015 -5.42465 0
M  V30 1876 N 192.816 -1.39423 -5.25416 0
M  V30 1877 H 196.618 -1.17792 -2.69262 0
M  V30 1878 H 194.132 -0.741822 -1.44467 0
M  V30 1879 H 196.129 0.859362 -4.07947 0
M  V30 1880 H 194.789 1.28421 -2.98225 0
M  V30 1881 H 195.8 -1.93244 -4.80497 0
M  V30 1882 H 192.477 0.560342 -4.13723 0
M  V30 1883 H 193.867 -3.02724 -5.9984 0
M  V30 1884 N 196.587 1.43421 -0.653314 0
M  V30 1885 C 197.836 2.01032 -0.164076 0
M  V30 1886 C 198.149 1.52147 1.22926 0
M  V30 1887 O 199.355 2.02031 1.81371 0
M  V30 1888 C 197.811 3.59082 -0.24252 0
M  V30 1889 C 197.419 4.1696 -1.63855 0
M  V30 1890 C 199.163 4.24079 0.18911 0
M  V30 1891 C 197.07 5.67304 -1.67092 0
M  V30 1892 H 196 0.751798 -0.0575769 0
M  V30 1893 H 198.651 1.6439 -0.815362 0
M  V30 1894 H 197.033 3.93125 0.476276 0
M  V30 1895 H 198.207 3.94416 -2.38271 0
M  V30 1896 H 196.522 3.64335 -2.01616 0
M  V30 1897 H 199.119 5.34381 0.184775 0
M  V30 1898 H 199.462 3.98005 1.22056 0
M  V30 1899 H 199.995 3.94918 -0.477938 0
M  V30 1900 H 196.734 5.98145 -2.68146 0
M  V30 1901 H 196.254 5.91904 -0.970014 0
M  V30 1902 H 197.933 6.31344 -1.4147 0
M  V30 1903 N 198.065 0.39524 1.52563 0
M  V30 1904 C 199.305 -0.184744 2.03563 0
M  V30 1905 C 199.669 -1.43548 1.27507 0
M  V30 1906 O 200.87 -2.093 1.68662 0
M  V30 1907 C 199.141 -0.440294 3.54678 0
M  V30 1908 S 200.7 -0.989712 4.27493 0
M  V30 1909 H 197.518 -0.0515075 0.709132 0
M  V30 1910 H 200.12 0.544957 1.87751 0
M  V30 1911 H 198.824 0.477005 4.07618 0
M  V30 1912 H 198.355 -1.19825 3.74707 0
M  V30 1913 H 200.37 -2.27155 4.41152 0
M  V30 1914 N 199.544 -1.57102 0.125237 0
M  V30 1915 C 200.507 -2.14471 -0.80838 0
M  V30 1916 C 201.507 -1.0811 -1.19033 0
M  V30 1917 O 202.697 -1.33856 -1.11482 0
M  V30 1918 C 199.829 -2.69005 -2.09402 0
M  V30 1919 H 201.022 -2.98297 -0.309696 0
M  V30 1920 H 198.575 -1.55807 -0.124051 0
M  V30 1921 H 199.31 -1.88785 -2.63687 0
M  V30 1922 H 199.095 -3.46799 -1.82957 0
M  V30 1923 H 200.585 -3.13278 -2.76128 0
M  V30 1924 N 201.022 0.148545 -1.56898 0
M  V30 1925 C 202.271 0.85984 -1.82454 0
M  V30 1926 C 202.584 1.82406 -0.706229 0
M  V30 1927 O 203.79 2.57938 -0.847349 0
M  V30 1928 C 202.246 1.57967 -3.2338 0
M  V30 1929 C 201.854 0.65794 -4.43142 0
M  V30 1930 C 203.598 2.27784 -3.58211 0
M  V30 1931 C 201.505 1.3793 -5.75091 0
M  V30 1932 H 200.435 0.324834 -0.68044 0
M  V30 1933 H 203.086 0.112588 -1.83154 0
M  V30 1934 H 201.468 2.37249 -3.17063 0
M  V30 1935 H 202.642 -0.0995497 -4.60692 0
M  V30 1936 H 200.957 0.0682643 -4.16344 0
M  V30 1937 H 203.554 2.8239 -4.54048 0
M  V30 1938 H 203.897 3.04204 -2.84193 0
M  V30 1939 H 204.43 1.55421 -3.66182 0
M  V30 1940 H 201.169 0.656982 -6.52199 0
M  V30 1941 H 200.689 2.10954 -5.61479 0
M  V30 1942 H 202.368 1.92063 -6.17835 0
M  V30 1943 N 202.5 1.5196 0.417844 0
M  V30 1944 C 203.74 1.67262 1.17486 0
M  V30 1945 C 204.104 0.38983 1.88001 0
M  V30 1946 O 205.305 0.418845 2.65517 0
M  V30 1947 C 203.576 2.85526 2.14965 0
M  V30 1948 S 205.135 3.21263 2.98891 0
M  V30 1949 H 201.953 0.589077 0.398132 0
M  V30 1950 H 204.555 1.89927 0.463452 0
M  V30 1951 H 203.259 3.77145 1.61833 0
M  V30 1952 H 202.79 2.65107 2.90657 0
M  V30 1953 H 204.805 2.69208 4.16823 0
M  V30 1954 N 203.978 -0.674533 1.42435 0
M  V30 1955 C 205.226 -1.43175 1.42637 0
M  V30 1956 C 205.547 -1.94951 0.0438992 0
M  V30 1957 O 204.817 -1.7308 -0.917607 0
M  V30 1958 H 203.397 -0.531307 0.525092 0
M  V30 1959 H 206.059 -0.797006 1.77859 0
M  V30 1960 H 205.155 -2.28463 2.12629 0
M  V30 1961 N 205.456 -1.28612 -0.910864 0
M  V30 1962 C 206.733 -1.06632 -1.63979 0
M  V30 1963 C 207.113 0.393351 -2.07403 0
M  V30 1964 O 206.461 1.37999 -1.82122 0
M  V30 1965 C 206.671 -2.0436 -2.8291 0
M  V30 1966 C 208.019 -2.34666 -3.5386 0
M  V30 1967 O 209.043 -2.02467 -2.93062 0
M  V30 1968 O 207.902 -2.89631 -4.63439 0
M  V30 1969 H 204.996 -0.407737 -0.7195 0
M  V30 1970 H 207.542 -1.39942 -0.959914 0
M  V30 1971 H 206.314 -3.02727 -2.47936 0
M  V30 1972 H 205.937 -1.71714 -3.58609 0
M  V30 1973 N 206.934 1.1197 -1.10907 0
M  V30 1974 C 208.35 1.35591 -0.841852 0
M  V30 1975 C 208.55 1.94233 0.536246 0
M  V30 1976 O 207.606 2.1717 1.28816 0
M  V30 1977 C 208.919 2.29284 -1.94549 0
M  V30 1978 C 210.467 2.42862 -1.97451 0
M  V30 1979 C 210.942 3.39873 -3.07002 0
M  V30 1980 N 212.433 3.47433 -3.06341 0
M  V30 1981 C 213.168 4.22421 -3.87748 0
M  V30 1982 N 212.664 5.00432 -4.79103 0
M  V30 1983 N 214.457 4.17876 -3.75946 0
M  V30 1984 H 206.608 0.722664 -1.99728 0
M  V30 1985 H 208.871 0.380635 -0.868229 0
M  V30 1986 H 208.577 1.93378 -2.93765 0
M  V30 1987 H 208.451 3.29452 -1.83688 0
M  V30 1988 H 210.838 2.78046 -0.988645 0
M  V30 1989 H 210.919 1.42566 -2.12388 0
M  V30 1990 H 210.563 3.05417 -4.05811 0
M  V30 1991 H 210.493 4.40011 -2.89306 0
M  V30 1992 H 212.984 2.91784 -2.40147 0
M  V30 1993 H 213.297 5.55002 -5.37766 0
M  V30 1994 H 211.642 4.99612 -4.83128 0
M  V30 1995 H 214.833 3.56016 -3.03924 0
M  V30 1996 H 215.006 4.76061 -4.39624 0
M  V30 1997 N 208.412 0.89855 1.29475 0
M  V30 1998 C 209.637 0.538561 2.00285 0
M  V30 1999 C 210.062 -0.869135 1.66816 0
M  V30 2000 O 209.42 -1.57831 0.892145 0
M  V30 2001 C 209.468 0.736475 3.52999 0
M  V30 2002 O 208.572 -0.211537 4.11857 0
M  V30 2003 H 207.913 0.210563 0.62973 0
M  V30 2004 H 210.443 1.20982 1.64998 0
M  V30 2005 H 210.453 0.640685 4.02938 0
M  V30 2006 H 209.128 1.76276 3.76696 0
M  V30 2007 H 207.705 -0.0682991 3.72837 0
M  V30 2008 N 209.89 -1.43072 0.660911 0
M  V30 2009 C 211.115 -2.06584 0.183805 0
M  V30 2010 C 211.54 -1.49257 -1.14472 0
M  V30 2011 O 210.898 -0.605528 -1.70889 0
M  V30 2012 C 210.946 -3.60418 0.114434 0
M  V30 2013 O 210.05 -4.01981 -0.921137 0
M  V30 2014 H 209.391 -0.656669 0.0983994 0
M  V30 2015 H 211.921 -1.83447 0.906006 0
M  V30 2016 H 211.931 -4.07946 -0.0663394 0
M  V30 2017 H 210.606 -4.01519 1.08422 0
M  V30 2018 H 209.183 -3.66029 -0.71253 0
M  V30 2019 N 211.368 -0.403325 -1.52352 0
M  V30 2020 C 212.616 0.174003 -2.0135 0
M  V30 2021 C 212.937 1.46139 -1.29106 0
M  V30 2022 O 212.207 1.91448 -0.415253 0
M  V30 2023 H 210.787 0.0672911 -0.743963 0
M  V30 2024 H 213.449 -0.538235 -1.87321 0
M  V30 2025 H 212.545 0.374254 -3.09848 0
M  V30 2026 N 212.846 1.57033 -0.133567 0
M  V30 2027 C 213.793 2.16074 0.811208 0
M  V30 2028 C 214.763 1.08979 1.2535 0
M  V30 2029 O 215.948 1.36958 1.32843 0
M  V30 2030 C 213.088 2.77595 2.05024 0
M  V30 2031 C 212.201 3.99042 1.65498 0
M  V30 2032 C 211.336 4.48603 2.84479 0
M  V30 2033 C 210.375 5.62547 2.41262 0
M  V30 2034 N 209.512 6.06787 3.53206 0
M  V30 2035 H 214.352 2.96477 0.300906 0
M  V30 2036 H 211.889 1.46462 0.136822 0
M  V30 2037 H 213.847 3.11402 2.77642 0
M  V30 2038 H 212.477 1.99859 2.53488 0
M  V30 2039 H 211.529 3.71302 0.826981 0
M  V30 2040 H 212.841 4.81629 1.29748 0
M  V30 2041 H 211.995 4.84395 3.65303 0
M  V30 2042 H 210.734 3.64995 3.23465 0
M  V30 2043 H 209.739 5.26345 1.58874 0
M  V30 2044 H 210.964 6.47931 2.03377 0
M  V30 2045 H 208.91 5.26117 3.91838 0
M  V30 2046 H 208.827 6.84266 3.21427 0
M  V30 2047 H 210.095 6.4722 4.34427 0
M  V30 2048 N 214.325 -0.140222 1.56975 0
M  V30 2049 C 215.275 -1.17827 1.95194 0
M  V30 2050 C 216.259 -1.38195 0.824075 0
M  V30 2051 O 217.451 -1.39643 1.0876 0
M  V30 2052 C 214.58 -2.51024 2.34184 0
M  V30 2053 C 213.666 -2.3422 3.53556 0
M  V30 2054 N 214.057 -1.87185 4.69889 0
M  V30 2055 C 212.355 -2.64949 3.58773 0
M  V30 2056 C 213.056 -1.83586 5.5197 0
M  V30 2057 N 212.032 -2.2715 4.93866 0
M  V30 2058 H 215.834 -0.806817 2.82609 0
M  V30 2059 H 213.348 -0.348208 1.58623 0
M  V30 2060 H 215.345 -3.26074 2.59772 0
M  V30 2061 H 214.005 -2.88945 1.48124 0
M  V30 2062 H 215.016 -1.57048 4.93514 0
M  V30 2063 H 211.693 -3.067 2.8327 0
M  V30 2064 H 213.083 -1.48655 6.55249 0
M  V30 2065 N 215.803 -1.52179 -0.40978 0
M  V30 2066 C 217.033 -1.69807 -1.17682 0
M  V30 2067 C 217.441 -0.406908 -1.84773 0
M  V30 2068 O 216.784 0.626863 -1.72673 0
M  V30 2069 C 216.846 -2.77712 -2.2829 0
M  V30 2070 C 216.51 -4.19481 -1.81341 0
M  V30 2071 C 217.507 -5.03345 -1.30154 0
M  V30 2072 C 215.192 -4.65713 -1.88194 0
M  V30 2073 C 217.186 -6.31511 -0.864416 0
M  V30 2074 C 214.873 -5.93869 -1.44093 0
M  V30 2075 C 215.871 -6.76597 -0.933023 0
M  V30 2076 O 215.559 -8.02354 -0.49838 0
M  V30 2077 H 215.291 -0.572372 -0.359675 0
M  V30 2078 H 217.845 -1.99511 -0.488311 0
M  V30 2079 H 216.075 -2.43383 -3.00502 0
M  V30 2080 H 217.764 -2.83946 -2.90051 0
M  V30 2081 H 218.53 -4.68819 -1.24232 0
M  V30 2082 H 214.409 -4.01424 -2.26671 0
M  V30 2083 H 217.953 -6.96033 -0.467286 0
M  V30 2084 H 213.85 -6.27903 -1.49694 0
M  V30 2085 H 214.618 -8.16135 -0.621747 0
M  V30 2086 N 217.281 0.66697 -1.42791 0
M  V30 2087 C 218.529 1.42417 -1.43394 0
M  V30 2088 C 218.85 1.94925 -0.0542373 0
M  V30 2089 O 218.12 1.73564 0.908415 0
M  V30 2090 H 216.7 0.528515 -0.527902 0
M  V30 2091 H 219.362 0.787562 -1.78279 0
M  V30 2092 H 218.458 2.27333 -2.13837 0
M  V30 2093 N 218.759 1.29093 0.90403 0
M  V30 2094 C 220.005 1.16986 1.65656 0
M  V30 2095 C 220.338 -0.278925 1.92186 0
M  V30 2096 O 219.613 -1.2019 1.5292 0
M  V30 2097 C 219.896 1.97908 3.0084 0
M  V30 2098 C 219.749 3.50903 2.81403 0
M  V30 2099 C 221.068 1.80208 4.01513 0
M  V30 2100 H 218.187 0.426346 0.601164 0
M  V30 2101 H 220.829 1.58518 1.04747 0
M  V30 2102 H 218.979 1.62616 3.52829 0
M  V30 2103 H 220.651 3.96153 2.36348 0
M  V30 2104 H 218.894 3.76045 2.1627 0
M  V30 2105 H 219.565 4.02791 3.77443 0
M  V30 2106 H 222.041 2.11025 3.58619 0
M  V30 2107 H 220.917 2.39184 4.94047 0
M  V30 2108 H 221.178 0.756119 4.35586 0
M  V30 2109 N 220.237 -1.11381 1.11499 0
M  V30 2110 C 221.467 -1.86663 0.885464 0
M  V30 2111 C 221.875 -1.80464 -0.568281 0
M  V30 2112 O 221.218 -1.18445 -1.40415 0
M  V30 2113 C 221.28 -3.36337 1.26956 0
M  V30 2114 C 220.944 -3.66304 2.73259 0
M  V30 2115 C 221.941 -3.63733 3.71476 0
M  V30 2116 C 219.626 -3.9529 3.09921 0
M  V30 2117 C 221.62 -3.89725 5.04374 0
M  V30 2118 C 219.307 -4.20941 4.43004 0
M  V30 2119 C 220.305 -4.18147 5.40039 0
M  V30 2120 O 219.993 -4.43153 6.70724 0
M  V30 2121 H 219.725 -0.597114 0.316908 0
M  V30 2122 H 222.279 -1.41782 1.48617 0
M  V30 2123 H 220.509 -3.81826 0.611999 0
M  V30 2124 H 222.198 -3.92986 1.01573 0
M  V30 2125 H 222.964 -3.41389 3.44498 0
M  V30 2126 H 218.843 -3.966 2.35009 0
M  V30 2127 H 222.387 -3.8746 5.80104 0
M  V30 2128 H 218.284 -4.42761 4.69716 0
M  V30 2129 H 219.052 -4.60717 6.76522 0
M  V30 2130 N 221.715 -0.905404 -1.28997 0
M  V30 2131 C 222.94 -0.549175 -1.99997 0
M  V30 2132 C 223.365 0.860276 -1.67275 0
M  V30 2133 O 222.723 1.57355 -0.900502 0
M  V30 2134 C 222.771 -0.755185 -3.52604 0
M  V30 2135 O 221.875 0.189692 -4.11964 0
M  V30 2136 H 221.216 -0.213899 -0.628604 0
M  V30 2137 H 223.746 -1.21856 -1.64354 0
M  V30 2138 H 223.756 -0.662045 -4.02593 0
M  V30 2139 H 222.431 -1.78271 -3.75755 0
M  V30 2140 H 221.008 0.0485257 -3.72868 0
M  V30 2141 N 223.193 1.4272 -0.668489 0
M  V30 2142 C 224.433 2.03497 -0.19194 0
M  V30 2143 C 224.797 1.51684 1.17712 0
M  V30 2144 O 225.998 2.04205 1.74796 0
M  V30 2145 C 224.269 3.56734 -0.218032 0
M  V30 2146 S 225.828 4.38395 0.188438 0
M  V30 2147 H 222.646 0.706542 -0.0794959 0
M  V30 2148 H 225.248 1.74563 -0.880235 0
M  V30 2149 H 223.952 3.91943 -1.2169 0
M  V30 2150 H 223.483 3.90333 0.490303 0
M  V30 2151 H 225.498 4.75345 1.42345 0
M  V30 2152 N 224.671 0.411399 1.52136 0
M  V30 2153 C 225.581 -0.419774 2.30814 0
M  V30 2154 C 226.597 -1.0515 1.38634 0
M  V30 2155 O 227.773 -1.05252 1.71709 0
M  V30 2156 C 224.838 -1.52019 3.11594 0
M  V30 2157 C 223.899 -0.91129 4.19516 0
M  V30 2158 C 223.132 -1.95927 4.96436 0
M  V30 2159 O 223.355 -3.17775 4.73683 0
M  V30 2160 O 222.289 -1.56423 5.81219 0
M  V30 2161 H 226.115 0.221805 3.02889 0
M  V30 2162 H 223.7 0.174547 1.48377 0
M  V30 2163 H 225.582 -2.15898 3.61892 0
M  V30 2164 H 224.257 -2.14633 2.42311 0
M  V30 2165 H 223.164 -0.235157 3.7336 0
M  V30 2166 H 224.497 -0.32904 4.91099 0
M  V30 2167 N 226.149 -1.5696 0.141893 0
M  V30 2168 C 227.397 -1.95573 -0.509484 0
M  V30 2169 C 227.718 -1.02746 -1.65736 0
M  V30 2170 O 226.988 -0.0880311 -1.95702 0
M  V30 2171 H 225.568 -0.722115 -0.191205 0
M  V30 2172 H 228.23 -1.93697 0.216196 0
M  V30 2173 H 227.326 -2.99171 -0.889 0
M  V30 2174 N 227.627 0.131896 -1.57047 0
M  V30 2175 C 228.867 0.847972 -1.85981 0
M  V30 2176 C 229.231 1.77655 -0.7282 0
M  V30 2177 O 230.432 2.53322 -0.898968 0
M  V30 2178 C 228.703 1.58919 -3.20124 0
M  V30 2179 S 230.262 2.34862 -3.70655 0
M  V30 2180 H 227.08 0.283273 -0.652133 0
M  V30 2181 H 229.682 0.107057 -1.95207 0
M  V30 2182 H 228.386 0.898771 -4.00438 0
M  V30 2183 H 227.917 2.37073 -3.13942 0
M  V30 2184 H 229.932 3.60344 -3.41126 0
M  V30 2185 N 229.106 1.52395 0.401703 0
M  V30 2186 C 230.053 1.76268 1.48991 0
M  V30 2187 C 231.023 0.605386 1.54675 0
M  V30 2188 O 232.208 0.843742 1.7113 0
M  V30 2189 C 229.348 1.92592 2.86361 0
M  V30 2190 C 228.461 3.20259 2.89928 0
M  V30 2191 C 227.596 3.26972 4.18644 0
M  V30 2192 C 226.635 4.48812 4.16214 0
M  V30 2193 N 225.772 4.52877 5.36514 0
M  V30 2194 H 230.612 2.6914 1.27935 0
M  V30 2195 H 228.149 1.33355 0.620871 0
M  V30 2196 H 230.107 2.0004 3.66115 0
M  V30 2197 H 228.737 1.03093 3.05895 0
M  V30 2198 H 227.789 3.21945 2.02621 0
M  V30 2199 H 229.101 4.10056 2.83999 0
M  V30 2200 H 228.255 3.33533 5.06794 0
M  V30 2201 H 226.994 2.35126 4.27278 0
M  V30 2202 H 225.999 4.4239 3.26453 0
M  V30 2203 H 227.224 5.41961 4.09213 0
M  V30 2204 H 225.17 3.63917 5.45802 0
M  V30 2205 H 225.087 5.36529 5.32609 0
M  V30 2206 H 226.355 4.63676 6.26597 0
M  V30 2207 N 230.584 -0.659388 1.43143 0
M  V30 2208 C 231.832 -1.41654 1.44147 0
M  V30 2209 C 232.153 -1.94893 0.0645739 0
M  V30 2210 O 231.423 -1.74044 -0.899198 0
M  V30 2211 H 230.003 -0.525708 0.530697 0
M  V30 2212 H 232.665 -0.778097 1.78694 0
M  V30 2213 H 231.761 -2.26195 2.1504 0
M  V30 2214 N 232.062 -1.29571 -0.897171 0
M  V30 2215 C 233.309 -1.17689 -1.6479 0
M  V30 2216 C 233.637 0.27107 -1.92602 0
M  V30 2217 O 232.892 1.21193 -1.53658 0
M  V30 2218 C 233.191 -1.9382 -3.00281 0
M  V30 2219 C 232.857 -3.43522 -2.92068 0
M  V30 2220 C 231.519 -3.84348 -2.89535 0
M  V30 2221 C 233.871 -4.38906 -2.81089 0
M  V30 2222 C 231.199 -5.18869 -2.73846 0
M  V30 2223 C 233.551 -5.73521 -2.66939 0
M  V30 2224 C 232.215 -6.13601 -2.62774 0
M  V30 2225 H 231.485 -0.430654 -0.603008 0
M  V30 2226 H 234.132 -1.60536 -1.04404 0
M  V30 2227 H 232.437 -1.4357 -3.64547 0
M  V30 2228 H 234.134 -1.82028 -3.57305 0
M  V30 2229 H 230.724 -3.11072 -2.94842 0
M  V30 2230 H 234.908 -4.08315 -2.82121 0
M  V30 2231 H 230.164 -5.4903 -2.69027 0
M  V30 2232 H 234.338 -6.47078 -2.57416 0
M  V30 2233 H 231.965 -7.17786 -2.50375 0
M  V30 2234 N 233.54 1.10788 -1.12088 0
M  V30 2235 C 234.787 1.82671 -0.873931 0
M  V30 2236 C 235.115 1.85004 0.600311 0
M  V30 2237 O 234.37 1.30365 1.45957 0
M  V30 2238 C 234.669 3.29294 -1.38926 0
M  V30 2239 C 234.335 3.47113 -2.87791 0
M  V30 2240 C 232.997 3.51684 -3.28439 0
M  V30 2241 C 235.349 3.52808 -3.83635 0
M  V30 2242 C 232.677 3.59513 -4.63646 0
M  V30 2243 C 235.029 3.62169 -5.18668 0
M  V30 2244 C 233.693 3.65003 -5.58864 0
M  V30 2245 H 232.963 0.668441 -0.319794 0
M  V30 2246 H 235.61 1.30613 -1.40045 0
M  V30 2247 H 233.915 3.83894 -0.783122 0
M  V30 2248 H 235.612 3.83416 -1.17443 0
M  V30 2249 H 232.202 3.4423 -2.5535 0
M  V30 2250 H 236.386 3.4853 -3.53328 0
M  V30 2251 H 231.642 3.59987 -4.94185 0
M  V30 2252 H 235.816 3.6552 -5.92763 0
M  V30 2253 H 233.443 3.70822 -6.63623 0
M  V30 2254 N 235.018 0.912232 1.28515 0
M  V30 2255 C 235.965 0.397954 2.27343 0
M  V30 2256 C 236.935 -0.526766 1.57526 0
M  V30 2257 O 238.12 -0.449292 1.85435 0
M  V30 2258 C 235.26 -0.357263 3.43246 0
M  V30 2259 C 234.373 0.599788 4.27816 0
M  V30 2260 C 233.508 -0.173725 5.30916 0
M  V30 2261 C 232.547 0.777039 6.07148 0
M  V30 2262 N 231.684 0.0371398 7.0209 0
M  V30 2263 H 236.524 1.24577 2.70711 0
M  V30 2264 H 234.061 0.625612 1.33133 0
M  V30 2265 H 236.019 -0.8113 4.09236 0
M  V30 2266 H 234.649 -1.16943 3.00872 0
M  V30 2267 H 233.701 1.17235 3.61884 0
M  V30 2268 H 235.013 1.32704 4.80823 0
M  V30 2269 H 234.167 -0.688394 6.02782 0
M  V30 2270 H 232.906 -0.934041 4.78672 0
M  V30 2271 H 231.911 1.3031 5.34134 0
M  V30 2272 H 233.136 1.53689 6.61481 0
M  V30 2273 H 231.082 -0.705213 6.52198 0
M  V30 2274 H 230.999 0.704249 7.52713 0
M  V30 2275 H 232.267 -0.457383 7.78157 0
M  V30 2276 N 236.496 -1.42363 0.676048 0
M  V30 2277 C 237.912 -1.55811 0.345718 0
M  V30 2278 C 238.112 -1.65544 -1.14879 0
M  V30 2279 O 237.168 -1.62306 -1.93424 0
M  V30 2280 C 238.481 -2.80746 1.07713 0
M  V30 2281 C 240.029 -2.9452 1.05958 0
M  V30 2282 C 240.504 -4.22318 1.77233 0
M  V30 2283 N 241.995 -4.29233 1.74108 0
M  V30 2284 C 242.73 -5.26935 2.26113 0
M  V30 2285 N 242.226 -6.30783 2.86505 0
M  V30 2286 N 244.019 -5.18741 2.1648 0
M  V30 2287 H 236.17 -1.34289 1.6456 0
M  V30 2288 H 238.433 -0.646506 0.69335 0
M  V30 2289 H 238.139 -2.79696 2.13221 0
M  V30 2290 H 238.013 -3.71676 0.64316 0
M  V30 2291 H 240.4 -2.95097 0.0128255 0
M  V30 2292 H 240.481 -2.04817 1.53244 0
M  V30 2293 H 240.125 -4.22502 2.81877 0
M  V30 2294 H 240.055 -5.10958 1.27396 0
M  V30 2295 H 242.546 -3.54814 1.30059 0
M  V30 2296 H 242.859 -7.01691 3.23805 0
M  V30 2297 H 241.204 -6.31341 2.90575 0
M  V30 2298 H 244.395 -4.36533 1.68987 0
M  V30 2299 H 244.568 -5.94721 2.57316 0
M  V30 2300 N 237.974 -0.419461 -1.51915 0
M  V30 2301 C 239.202 0.152136 -2.0634 0
M  V30 2302 C 239.617 1.37988 -1.28859 0
M  V30 2303 O 238.974 1.79243 -0.343232 0
M  V30 2304 C 239.025 0.492266 -3.58133 0
M  V30 2305 O 238.746 -0.686736 -4.32684 0
M  V30 2306 C 240.247 1.11648 -4.2901 0
M  V30 2307 H 237.467 0.0158325 -0.670813 0
M  V30 2308 H 240.011 -0.593394 -1.95702 0
M  V30 2309 H 238.166 1.18769 -3.68745 0
M  V30 2310 H 238.58 -0.400341 -5.2297 0
M  V30 2311 H 240.054 1.3046 -5.36362 0
M  V30 2312 H 240.531 2.09251 -3.86148 0
M  V30 2313 H 241.137 0.460958 -4.22795 0
M  V30 2314 N 239.452 1.56882 -0.150215 0
M  V30 2315 C 240.698 1.96518 0.500834 0
M  V30 2316 C 241.031 1.03527 1.64304 0
M  V30 2317 O 240.306 0.0782751 1.94342 0
M  V30 2318 C 240.589 3.45822 1.00395 0
M  V30 2319 C 240.442 4.49591 -0.136983 0
M  V30 2320 C 241.761 3.97704 1.88467 0
M  V30 2321 H 238.88 0.714535 0.18058 0
M  V30 2322 H 241.522 1.88577 -0.232091 0
M  V30 2323 H 239.672 3.5272 1.62851 0
M  V30 2324 H 241.344 4.5477 -0.77343 0
M  V30 2325 H 239.587 4.26441 -0.795652 0
M  V30 2326 H 240.258 5.51402 0.256815 0
M  V30 2327 H 242.734 3.93304 1.35834 0
M  V30 2328 H 241.61 5.0263 2.20578 0
M  V30 2329 H 241.871 3.40252 2.82279 0
M  V30 2330 N 240.93 -0.123565 1.57115 0
M  V30 2331 C 242.346 -0.476961 1.52306 0
M  V30 2332 C 242.546 -1.82109 0.86248 0
M  V30 2333 O 241.602 -2.48586 0.442884 0
M  V30 2334 C 242.915 -0.465661 2.97073 0
M  V30 2335 C 244.463 -0.549534 3.08138 0
M  V30 2336 C 244.938 -0.568669 4.54456 0
M  V30 2337 N 246.429 -0.630237 4.58892 0
M  V30 2338 C 247.164 -0.666415 5.69514 0
M  V30 2339 N 246.66 -0.660514 6.89644 0
M  V30 2340 N 248.453 -0.709077 5.5761 0
M  V30 2341 H 240.604 0.757198 1.98445 0
M  V30 2342 H 242.867 0.278808 0.906074 0
M  V30 2343 H 242.573 0.454232 3.48754 0
M  V30 2344 H 242.447 -1.29513 3.54269 0
M  V30 2345 H 244.834 -1.45985 2.56461 0
M  V30 2346 H 244.915 0.307532 2.53945 0
M  V30 2347 H 244.559 0.337581 5.06777 0
M  V30 2348 H 244.489 -1.44256 5.06456 0
M  V30 2349 H 246.98 -0.641146 3.72421 0
M  V30 2350 H 247.293 -0.690616 7.69708 0
M  V30 2351 H 245.638 -0.628012 6.92157 0
M  V30 2352 H 248.829 -0.711019 4.62668 0
M  V30 2353 H 249.002 -0.733804 6.43832 0
M  V30 2354 N 242.408 -1.52605 -0.393616 0
M  V30 2355 C 243.355 -1.77055 -1.48054 0
M  V30 2356 C 244.325 -0.61358 -1.54352 0
M  V30 2357 O 245.51 -0.852806 -1.70681 0
M  V30 2358 C 242.65 -1.94108 -2.85335 0
M  V30 2359 C 241.763 -3.21792 -2.88226 0
M  V30 2360 C 240.898 -3.29188 -4.16904 0
M  V30 2361 C 239.937 -4.51013 -4.13828 0
M  V30 2362 N 239.074 -4.55716 -5.34105 0
M  V30 2363 H 243.914 -2.69815 -1.26506 0
M  V30 2364 H 241.451 -1.33683 -0.61379 0
M  V30 2365 H 243.409 -2.01979 -3.65049 0
M  V30 2366 H 242.039 -1.04713 -3.05344 0
M  V30 2367 H 241.091 -3.23015 -2.00911 0
M  V30 2368 H 242.403 -4.11557 -2.8182 0
M  V30 2369 H 241.557 -3.36216 -5.05018 0
M  V30 2370 H 240.296 -2.37389 -4.26026 0
M  V30 2371 H 239.301 -4.44115 -3.24102 0
M  V30 2372 H 240.526 -5.44123 -4.06333 0
M  V30 2373 H 238.472 -3.66807 -5.43865 0
M  V30 2374 H 238.389 -5.39346 -5.29756 0
M  V30 2375 H 239.657 -4.66993 -6.2413 0
M  V30 2376 N 243.887 0.651787 -1.4349 0
M  V30 2377 C 245.164 1.40909 -1.35661 0
M  V30 2378 C 245.544 2.11099 -0.00511733 0
M  V30 2379 O 244.892 2.04892 1.0115 0
M  V30 2380 C 245.102 2.3926 -2.54078 0
M  V30 2381 C 246.45 3.03217 -2.97228 0
M  V30 2382 O 247.474 2.49588 -2.54135 0
M  V30 2383 O 246.333 4.00455 -3.71885 0
M  V30 2384 H 243.427 0.629625 -0.536191 0
M  V30 2385 H 245.973 0.678575 -1.55542 0
M  V30 2386 H 244.745 1.86352 -3.44076 0
M  V30 2387 H 244.368 3.1976 -2.36303 0
M  V30 2388 N 245.365 1.30045 0.890287 0
M  V30 2389 C 246.295 1.18541 2.01172 0
M  V30 2390 C 247.276 0.0773356 1.69924 0
M  V30 2391 O 248.461 0.25845 1.92473 0
M  V30 2392 C 245.591 0.870941 3.36202 0
M  V30 2393 C 244.545 1.93637 3.81692 0
M  V30 2394 C 243.871 1.475 5.13953 0
M  V30 2395 C 245.171 3.34666 4.00994 0
M  V30 2396 H 246.865 2.12359 2.11054 0
M  V30 2397 H 244.411 1.02238 1.01407 0
M  V30 2398 H 246.364 0.777141 4.14172 0
M  V30 2399 H 245.088 -0.102926 3.26438 0
M  V30 2400 H 243.747 2.01972 3.05946 0
M  V30 2401 H 243.395 0.489551 5.00612 0
M  V30 2402 H 243.095 2.1876 5.4536 0
M  V30 2403 H 244.619 1.39489 5.94454 0
M  V30 2404 H 246.033 3.2912 4.69417 0
M  V30 2405 H 244.43 4.03966 4.43769 0
M  V30 2406 H 245.5 3.76949 3.05021 0
M  V30 2407 N 246.843 -1.10192 1.12674 0
M  V30 2408 C 248.071 -1.85983 0.906527 0
M  V30 2409 C 248.486 -1.80783 -0.544333 0
M  V30 2410 O 247.843 -1.19834 -1.37645 0
M  V30 2411 C 247.894 -3.34281 1.37618 0
M  V30 2412 O 247.615 -3.39401 2.77017 0
M  V30 2413 C 249.116 -4.26938 1.19325 0
M  V30 2414 H 246.336 -0.587716 0.323775 0
M  V30 2415 H 248.88 -1.39284 1.49734 0
M  V30 2416 H 247.035 -3.78436 0.828539 0
M  V30 2417 H 247.449 -4.31838 2.97684 0
M  V30 2418 H 248.923 -5.29181 1.57071 0
M  V30 2419 H 249.4 -4.38995 0.134097 0
M  V30 2420 H 250.006 -3.8859 1.72852 0
M  V30 2421 N 248.321 -0.919034 -1.28029 0
M  V30 2422 C 249.551 -0.570143 -1.98577 0
M  V30 2423 C 249.959 0.854172 -1.68821 0
M  V30 2424 O 249.302 1.57807 -0.940351 0
M  V30 2425 C 249.364 -0.705734 -3.52505 0
M  V30 2426 C 249.028 -2.10057 -4.05863 0
M  V30 2427 C 250.025 -3.07385 -4.19298 0
M  V30 2428 C 247.71 -2.41517 -4.40426 0
M  V30 2429 C 249.704 -4.34287 -4.66555 0
M  V30 2430 C 247.391 -3.68657 -4.87376 0
M  V30 2431 C 248.389 -4.64856 -5.00398 0
M  V30 2432 O 248.077 -5.89735 -5.46322 0
M  V30 2433 H 247.809 -0.215592 -0.6407 0
M  V30 2434 H 250.363 -1.23583 -1.64062 0
M  V30 2435 H 248.593 0.0170414 -3.86696 0
M  V30 2436 H 250.282 -0.363172 -4.04272 0
M  V30 2437 H 251.048 -2.84398 -3.92865 0
M  V30 2438 H 246.927 -1.67389 -4.29537 0
M  V30 2439 H 250.471 -5.09377 -4.76635 0
M  V30 2440 H 246.368 -3.91466 -5.13249 0
M  V30 2441 H 247.136 -5.92599 -5.64596 0
M  V30 2442 N 249.799 1.42003 -0.683588 0
M  V30 2443 C 251.027 2.05746 -0.218182 0
M  V30 2444 C 251.442 1.51396 1.12804 0
M  V30 2445 O 250.799 0.657303 1.70252 0
M  V30 2446 C 250.85 3.61171 -0.154131 0
M  V30 2447 O 250.571 4.13508 -1.44716 0
M  V30 2448 C 252.072 4.42042 0.333713 0
M  V30 2449 H 249.292 0.662888 -0.10402 0
M  V30 2450 H 251.836 1.81987 -0.9328 0
M  V30 2451 H 249.991 3.84012 0.511231 0
M  V30 2452 H 250.405 5.07453 -1.32632 0
M  V30 2453 H 251.879 5.51028 0.327423 0
M  V30 2454 H 252.356 4.17269 1.37053 0
M  V30 2455 H 252.962 4.24239 -0.300222 0
M  V30 2456 N 251.277 0.427512 1.51691 0
M  V30 2457 C 252.517 -0.141524 2.03909 0
M  V30 2458 C 252.881 -1.40811 1.30523 0
M  V30 2459 O 254.082 -2.05676 1.73063 0
M  V30 2460 C 252.353 -0.364962 3.55532 0
M  V30 2461 S 253.912 -0.898812 4.29496 0
M  V30 2462 H 250.73 -0.0364542 0.710065 0
M  V30 2463 H 253.332 0.584659 1.86553 0
M  V30 2464 H 252.036 0.56336 4.06515 0
M  V30 2465 H 251.567 -1.1185 3.77164 0
M  V30 2466 H 253.582 -2.17747 4.45871 0
M  V30 2467 N 252.755 -1.56801 0.158532 0
M  V30 2468 C 254.171 -1.5837 -0.197774 0
M  V30 2469 C 254.371 -1.17334 -1.63814 0
M  V30 2470 O 253.427 -0.878988 -2.36707 0
M  V30 2471 C 254.74 -3.00615 0.0714459 0
M  V30 2472 C 256.288 -3.12999 0.00864533 0
M  V30 2473 C 256.763 -4.57313 0.250685 0
M  V30 2474 N 258.254 -4.62777 0.198014 0
M  V30 2475 C 258.989 -5.72271 0.359642 0
M  V30 2476 N 258.485 -6.90371 0.579625 0
M  V30 2477 N 260.278 -5.61318 0.296438 0
M  V30 2478 H 252.429 -1.81765 1.09887 0
M  V30 2479 H 254.692 -0.841849 0.435884 0
M  V30 2480 H 254.398 -3.35068 1.06874 0
M  V30 2481 H 254.272 -3.71683 -0.642757 0
M  V30 2482 H 256.659 -2.7838 -0.979217 0
M  V30 2483 H 256.74 -2.44393 0.755359 0
M  V30 2484 H 256.384 -4.92639 1.2357 0
M  V30 2485 H 256.314 -5.24061 -0.516489 0
M  V30 2486 H 258.805 -3.77885 0.0331115 0
M  V30 2487 H 259.118 -7.69689 0.69275 0
M  V30 2488 H 257.463 -6.92264 0.616087 0
M  V30 2489 H 260.654 -4.67932 0.125258 0
M  V30 2490 H 260.827 -6.46599 0.425831 0
M  V30 2491 N 254.233 0.115231 -1.57178 0
M  V30 2492 C 255.51 0.852873 -1.76027 0
M  V30 2493 C 255.89 1.97892 -0.73498 0
M  V30 2494 O 255.238 2.27232 0.24036 0
M  V30 2495 C 255.448 1.36608 -3.21153 0
M  V30 2496 C 256.796 1.81692 -3.83762 0
M  V30 2497 O 257.82 1.46278 -3.24779 0
M  V30 2498 O 256.679 2.47104 -4.87444 0
M  V30 2499 H 253.773 0.405296 -0.720877 0
M  V30 2500 H 256.319 0.0986785 -1.69413 0
M  V30 2501 H 255.091 0.558357 -3.87296 0
M  V30 2502 H 254.714 2.18287 -3.3232 0
M  V30 2503 N 255.711 1.52812 0.385517 0
M  V30 2504 C 256.659 1.78482 1.49155 0
M  V30 2505 C 257.653 0.652914 1.56312 0
M  V30 2506 O 258.859 0.835464 1.59436 0
M  V30 2507 H 255.234 0.5648 0.496493 0
M  V30 2508 H 257.205 2.71095 1.24699 0
M  V30 2509 C 255.954 1.97378 2.86247 0
M  V30 2510 H 255.277 2.83907 2.81491 0
M  V30 2511 H 256.717 2.19327 3.62866 0
M  V30 2512 C 255.176 0.74728 3.28508 0
M  V30 2513 O 255.706 -0.0736232 4.01633 0
M  V30 2514 N 253.912 0.576396 2.84826 0
M  V30 2515 H 253.459 1.24555 2.25486 0
M  V30 2516 H 253.417 -0.24288 3.1346 0
M  V30 2517 N 257.189 -0.644168 1.43834 0
M  V30 2518 C 258.136 -1.75671 1.49694 0
M  V30 2519 C 259.106 -1.6246 0.345809 0
M  V30 2520 O 260.291 -1.82573 0.554234 0
M  V30 2521 C 257.431 -3.13867 1.43463 0
M  V30 2522 C 256.544 -3.38147 2.6885 0
M  V30 2523 C 255.679 -4.66241 2.54544 0
M  V30 2524 C 254.718 -4.83657 3.75157 0
M  V30 2525 N 253.855 -6.03016 3.59605 0
M  V30 2526 H 258.695 -1.69998 2.44754 0
M  V30 2527 H 256.232 -0.829458 1.21484 0
M  V30 2528 H 258.19 -3.9377 1.37843 0
M  V30 2529 H 256.82 -3.18588 0.519783 0
M  V30 2530 H 255.872 -2.52276 2.84712 0
M  V30 2531 H 257.184 -3.46899 3.58417 0
M  V30 2532 H 256.338 -5.54285 2.46683 0
M  V30 2533 H 255.077 -4.59826 1.62516 0
M  V30 2534 H 254.082 -3.94046 3.83416 0
M  V30 2535 H 255.307 -4.91896 4.68204 0
M  V30 2536 H 253.253 -5.97715 2.7032 0
M  V30 2537 H 253.17 -6.12766 4.42779 0
M  V30 2538 H 254.438 -6.93657 3.55613 0
M  V30 2539 N 258.668 -1.30515 -0.883378 0
M  V30 2540 C 259.945 -1.10086 -1.6168 0
M  V30 2541 C 260.325 0.349269 -2.08191 0
M  V30 2542 O 259.673 1.34105 -1.85008 0
M  V30 2543 C 259.883 -2.10315 -2.78511 0
M  V30 2544 C 261.231 -2.42119 -3.48803 0
M  V30 2545 O 262.255 -2.08638 -2.88702 0
M  V30 2546 O 261.114 -2.99396 -4.57192 0
M  V30 2547 H 258.208 -0.422907 -0.710689 0
M  V30 2548 H 260.754 -1.41947 -0.930015 0
M  V30 2549 H 259.526 -3.07917 -2.41459 0
M  V30 2550 H 259.149 -1.79282 -3.54886 0
M  V30 2551 N 260.146 1.09593 -1.13257 0
M  V30 2552 C 261.386 1.83349 -0.903472 0
M  V30 2553 C 261.75 1.83641 0.560351 0
M  V30 2554 O 262.951 2.53037 0.906947 0
M  V30 2555 C 261.222 3.25629 -1.47311 0
M  V30 2556 S 262.781 4.16408 -1.38382 0
M  V30 2557 H 259.599 0.632014 -0.325699 0
M  V30 2558 H 262.201 1.31817 -1.44376 0
M  V30 2559 H 260.905 3.22991 -2.53189 0
M  V30 2560 H 260.436 3.82233 -0.930689 0
M  V30 2561 H 262.451 4.94884 -0.361113 0
M  V30 2562 N 261.624 0.925811 1.2754 0
M  V30 2563 C 262.554 0.440748 2.29303 0
M  V30 2564 C 263.535 -0.497971 1.62648 0
M  V30 2565 O 264.72 -0.403126 1.8997 0
M  V30 2566 C 261.85 -0.309048 3.45922 0
M  V30 2567 C 260.804 0.54166 4.24559 0
M  V30 2568 C 260.13 -0.337191 5.33636 0
M  V30 2569 C 261.43 1.80516 4.90114 0
M  V30 2570 H 263.124 1.29121 2.70126 0
M  V30 2571 H 260.67 0.622323 1.29858 0
M  V30 2572 H 262.623 -0.659315 4.1621 0
M  V30 2573 H 261.347 -1.19352 3.04011 0
M  V30 2574 H 260.006 0.874609 3.56014 0
M  V30 2575 H 259.654 -1.22056 4.87966 0
M  V30 2576 H 259.354 0.228497 5.87156 0
M  V30 2577 H 260.878 -0.683072 6.06767 0
M  V30 2578 H 262.292 1.52307 5.52698 0
M  V30 2579 H 260.689 2.3142 5.53683 0
M  V30 2580 H 261.759 2.52581 4.13921 0
M  V30 2581 N 263.102 -1.41638 0.69111 0
M  V30 2582 C 264.351 -2.00526 0.217318 0
M  V30 2583 C 264.664 -1.55353 -1.18848 0
M  V30 2584 O 265.87 -2.06769 -1.75951 0
M  V30 2585 C 264.326 -3.58313 0.337639 0
M  V30 2586 C 263.934 -4.12469 1.74852 0
M  V30 2587 C 265.678 -4.24431 -0.0766066 0
M  V30 2588 C 263.585 -5.62675 1.82074 0
M  V30 2589 H 262.515 -0.750008 0.0774893 0
M  V30 2590 H 265.166 -1.6217 0.858661 0
M  V30 2591 H 263.548 -3.9425 -0.371879 0
M  V30 2592 H 264.722 -3.8796 2.48644 0
M  V30 2593 H 263.037 -3.58861 2.11205 0
M  V30 2594 H 265.634 -5.34683 -0.0430284 0
M  V30 2595 H 265.977 -4.01101 -1.1146 0
M  V30 2596 H 266.51 -3.93512 0.582476 0
M  V30 2597 H 263.249 -5.90826 2.83911 0
M  V30 2598 H 262.769 -5.89124 1.12661 0
M  V30 2599 H 264.448 -6.27371 1.58159 0
M  V30 2600 N 264.58 -0.43555 -1.51462 0
M  V30 2601 C 265.857 0.191364 -1.94662 0
M  V30 2602 C 266.237 1.60254 -1.37411 0
M  V30 2603 O 265.585 2.2152 -0.560458 0
M  V30 2604 C 265.795 0.17091 -3.48581 0
M  V30 2605 C 267.143 0.377357 -4.2292 0
M  V30 2606 O 268.167 0.249104 -3.55328 0
M  V30 2607 O 267.026 0.63247 -5.42828 0
M  V30 2608 H 264.12 0.130932 -0.816569 0
M  V30 2609 H 266.666 -0.4934 -1.62369 0
M  V30 2610 H 265.438 -0.815738 -3.82703 0
M  V30 2611 H 265.061 0.898659 -3.87311 0
M  V30 2612 N 266.058 1.56714 -0.166846 0
M  V30 2613 C 267.005 2.17746 0.765193 0
M  V30 2614 C 267.975 1.11614 1.23011 0
M  V30 2615 O 269.16 1.39745 1.29908 0
M  V30 2616 C 266.3 2.81882 1.9909 0
M  V30 2617 C 265.413 4.02462 1.56997 0
M  V30 2618 C 264.548 4.54537 2.749 0
M  V30 2619 C 263.587 5.67538 2.29275 0
M  V30 2620 N 262.724 6.14142 3.40255 0
M  V30 2621 H 267.564 2.97048 0.237952 0
M  V30 2622 H 265.101 1.4672 0.105725 0
M  V30 2623 H 267.059 3.17221 2.70974 0
M  V30 2624 H 265.689 2.05191 2.49192 0
M  V30 2625 H 264.741 3.72973 0.748037 0
M  V30 2626 H 266.053 4.84273 1.19503 0
M  V30 2627 H 265.207 4.92035 3.54946 0
M  V30 2628 H 263.946 3.71774 3.1565 0
M  V30 2629 H 262.951 5.29597 1.47674 0
M  V30 2630 H 264.176 6.52099 1.89588 0
M  V30 2631 H 262.122 5.3431 3.8059 0
M  V30 2632 H 262.039 6.9093 3.06841 0
M  V30 2633 H 263.307 6.56289 4.206 0
M  V30 2634 N 267.536 -0.106894 1.57237 0
M  V30 2635 C 268.952 -0.46078 1.52804 0
M  V30 2636 C 269.152 -1.81184 0.881746 0
M  V30 2637 O 268.208 -2.48102 0.469224 0
M  V30 2638 C 269.521 -0.434127 2.9755 0
M  V30 2639 C 271.069 -0.516821 3.08704 0
M  V30 2640 C 271.544 -0.520436 4.55033 0
M  V30 2641 N 273.035 -0.58153 4.59535 0
M  V30 2642 C 273.77 -0.605973 5.70189 0
M  V30 2643 N 273.266 -0.587331 6.90306 0
M  V30 2644 N 275.059 -0.649895 5.5833 0
M  V30 2645 H 267.21 0.778203 1.9763 0
M  V30 2646 H 269.473 0.288403 0.903066 0
M  V30 2647 H 269.179 0.491197 3.48253 0
M  V30 2648 H 269.053 -1.25748 3.55622 0
M  V30 2649 H 271.44 -1.43256 2.57995 0
M  V30 2650 H 271.521 0.334449 2.53604 0
M  V30 2651 H 271.165 0.391313 5.0639 0
M  V30 2652 H 271.095 -1.38876 5.07958 0
M  V30 2653 H 273.586 -0.60161 3.73081 0
M  V30 2654 H 273.899 -0.60894 7.70397 0
M  V30 2655 H 272.244 -0.554564 6.92784 0
M  V30 2656 H 275.435 -0.661907 4.63397 0
M  V30 2657 H 275.608 -0.665476 6.44574 0
M  V30 2658 N 269.014 -1.53014 -0.377408 0
M  V30 2659 C 269.946 -1.74884 -1.48149 0
M  V30 2660 C 270.959 -0.629433 -1.5014 0
M  V30 2661 O 272.148 -0.905416 -1.53833 0
M  V30 2662 C 269.248 -1.80299 -2.86959 0
M  V30 2663 C 268.421 -3.09776 -3.08801 0
M  V30 2664 C 267.48 -3.06586 -4.27658 0
M  V30 2665 O 266.506 -3.80419 -4.23403 0
M  V30 2666 N 267.708 -2.26578 -5.34455 0
M  V30 2667 H 270.473 -2.70147 -1.29771 0
M  V30 2668 H 268.034 -1.51646 -0.56703 0
M  V30 2669 H 270.026 -1.75657 -3.64591 0
M  V30 2670 H 268.596 -0.92372 -2.98641 0
M  V30 2671 H 267.816 -3.27815 -2.18931 0
M  V30 2672 H 269.104 -3.95366 -3.20255 0
M  V30 2673 H 268.502 -1.66081 -5.40771 0
M  V30 2674 H 267.059 -2.27766 -6.10709 0
M  V30 2675 N 270.492 0.636531 -1.44174 0
M  V30 2676 C 271.908 0.954104 -1.27941 0
M  V30 2677 C 272.108 2.0039 -0.211248 0
M  V30 2678 O 271.164 2.49236 0.404695 0
M  V30 2679 C 272.477 1.4225 -2.64925 0
M  V30 2680 C 274.025 1.53827 -2.72592 0
M  V30 2681 C 274.5 2.04053 -4.10032 0
M  V30 2682 N 275.991 2.11331 -4.12182 0
M  V30 2683 C 276.726 2.51352 -5.15374 0
M  V30 2684 N 276.222 2.90549 -6.2893 0
M  V30 2685 N 278.015 2.51438 -5.02728 0
M  V30 2686 H 270.166 -0.0578386 -2.12321 0
M  V30 2687 H 272.429 0.0367406 -0.947288 0
M  V30 2688 H 272.135 0.725466 -3.44136 0
M  V30 2689 H 272.009 2.39451 -2.9145 0
M  V30 2690 H 274.396 2.22628 -1.93702 0
M  V30 2691 H 274.477 0.550154 -2.49814 0
M  V30 2692 H 274.121 1.35848 -4.89395 0
M  V30 2693 H 274.051 3.03726 -4.30184 0
M  V30 2694 H 276.542 1.83745 -3.30222 0
M  V30 2695 H 276.855 3.19884 -7.03487 0
M  V30 2696 H 275.2 2.88313 -6.32377 0
M  V30 2697 H 278.391 2.20203 -4.13072 0
M  V30 2698 H 278.564 2.82304 -5.83274 0
M  V30 2699 N 271.97 1.30982 0.876444 0
M  V30 2700 C 272.918 1.18006 2.00443 0
M  V30 2701 C 273.912 0.0898871 1.69161 0
M  V30 2702 O 275.118 0.251333 1.78237 0
M  V30 2703 H 271.493 0.365196 0.65737 0
M  V30 2704 H 273.464 2.13453 2.0852 0
M  V30 2705 C 272.213 0.897521 3.35916 0
M  V30 2706 H 271.536 1.7285 3.60504 0
M  V30 2707 H 272.976 0.846874 4.15456 0
M  V30 2708 C 271.435 -0.399674 3.34521 0
M  V30 2709 O 271.965 -1.41852 3.7582 0
M  V30 2710 N 270.171 -0.413893 2.87637 0
M  V30 2711 H 269.718 0.41571 2.54224 0
M  V30 2712 H 269.676 -1.28175 2.87086 0
M  V30 2713 N 273.449 -1.08991 1.13837 0
M  V30 2714 C 274.865 -1.33312 0.877506 0
M  V30 2715 C 275.065 -1.95587 -0.48456 0
M  V30 2716 O 274.121 -2.20509 -1.23013 0
M  V30 2717 C 275.434 -2.24045 2.0056 0
M  V30 2718 C 276.982 -2.37542 2.03821 0
M  V30 2719 C 277.457 -3.31614 3.15905 0
M  V30 2720 N 278.948 -3.39189 3.15445 0
M  V30 2721 C 279.683 -4.11992 3.98811 0
M  V30 2722 N 279.179 -4.87553 4.92203 0
M  V30 2723 N 280.972 -4.07762 3.86894 0
M  V30 2724 H 273.123 -0.669456 2.01574 0
M  V30 2725 H 275.386 -0.357482 0.878015 0
M  V30 2726 H 275.092 -1.85521 2.98789 0
M  V30 2727 H 274.966 -3.24466 1.92359 0
M  V30 2728 H 277.353 -2.75327 1.06202 0
M  V30 2729 H 277.434 -1.36884 2.16093 0
M  V30 2730 H 277.078 -2.94551 4.13766 0
M  V30 2731 H 277.008 -4.32186 3.0087 0
M  V30 2732 H 279.499 -2.85314 2.47799 0
M  V30 2733 H 279.812 -5.40549 5.52292 0
M  V30 2734 H 278.157 -4.86627 4.96205 0
M  V30 2735 H 281.348 -3.47833 3.13257 0
M  V30 2736 H 281.521 -4.64238 4.52092 0
M  V30 2737 N 274.927 -0.932562 -1.27047 0
M  V30 2738 C 276.167 -0.582919 -1.95912 0
M  V30 2739 C 276.531 0.860629 -1.71631 0
M  V30 2740 O 277.732 1.31878 -2.34225 0
M  V30 2741 C 276.003 -0.905673 -3.45734 0
M  V30 2742 S 277.562 -0.665277 -4.33727 0
M  V30 2743 H 274.38 -0.215 -0.677714 0
M  V30 2744 H 276.982 -1.20204 -1.54179 0
M  V30 2745 H 275.686 -1.95386 -3.60905 0
M  V30 2746 H 275.217 -0.275939 -3.92431 0
M  V30 2747 H 277.232 0.474635 -4.93925 0
M  V30 2748 N 276.405 1.4127 -0.698611 0
M  V30 2749 C 277.337 2.292 0.00399731 0
M  V30 2750 C 278.35 1.44944 0.741279 0
M  V30 2751 O 279.539 1.68416 0.591477 0
M  V30 2752 C 276.639 3.22875 1.02979 0
M  V30 2753 C 275.812 4.35904 0.36151 0
M  V30 2754 C 274.871 5.10134 1.29033 0
M  V30 2755 O 273.897 5.63809 0.781562 0
M  V30 2756 N 275.099 5.17885 2.6225 0
M  V30 2757 H 277.864 2.9014 -0.750921 0
M  V30 2758 H 275.425 1.52455 -0.544882 0
M  V30 2759 H 277.417 3.69404 1.65296 0
M  V30 2760 H 275.987 2.63221 1.68622 0
M  V30 2761 H 275.207 3.91719 -0.441584 0
M  V30 2762 H 276.495 5.08696 -0.103055 0
M  V30 2763 H 275.893 4.7573 3.061 0
M  V30 2764 H 274.45 5.6798 3.19754 0
M  V30 2765 N 277.883 0.443576 1.51229 0
M  V30 2766 C 279.113 -0.119117 2.06256 0
M  V30 2767 C 279.521 -1.36471 1.31043 0
M  V30 2768 O 278.864 -1.80034 0.365151 0
M  V30 2769 C 278.926 -0.500546 3.55998 0
M  V30 2770 C 278.59 0.639125 4.52509 0
M  V30 2771 C 279.587 1.51311 4.97394 0
M  V30 2772 C 277.272 0.821632 4.95535 0
M  V30 2773 C 279.266 2.55425 5.83984 0
M  V30 2774 C 276.953 1.86603 5.81913 0
M  V30 2775 C 277.951 2.73072 6.26036 0
M  V30 2776 O 277.639 3.75718 7.10698 0
M  V30 2777 H 277.371 -0.00857665 0.675946 0
M  V30 2778 H 279.925 0.623288 1.95715 0
M  V30 2779 H 278.155 -1.29575 3.64345 0
M  V30 2780 H 279.844 -0.995116 3.93513 0
M  V30 2781 H 280.61 1.38367 4.64844 0
M  V30 2782 H 276.489 0.158149 4.60729 0
M  V30 2783 H 280.033 3.22949 6.18344 0
M  V30 2784 H 275.93 1.99564 6.13876 0
M  V30 2785 H 276.698 3.72374 7.2889 0
M  V30 2786 N 279.361 -1.56624 0.175154 0
M  V30 2787 C 280.601 -1.98894 -0.471221 0
M  V30 2788 C 280.965 -1.05889 -1.60161 0
M  V30 2789 O 282.166 -1.37315 -2.3108 0
M  V30 2790 C 280.437 -3.44865 -0.938241 0
M  V30 2791 S 281.996 -4.09164 -1.58526 0
M  V30 2792 H 278.814 -0.694686 -0.151434 0
M  V30 2793 H 281.416 -1.93577 0.27352 0
M  V30 2794 H 280.12 -4.10265 -0.10518 0
M  V30 2795 H 279.651 -3.53956 -1.71693 0
M  V30 2796 H 281.666 -4.04528 -2.87352 0
M  V30 2797 N 280.839 0.0985539 -1.57292 0
M  V30 2798 C 282.255 0.45267 -1.53046 0
M  V30 2799 C 282.455 1.80713 -0.891342 0
M  V30 2800 O 281.511 2.4785 -0.482375 0
M  V30 2801 C 282.824 0.418341 -2.97776 0
M  V30 2802 C 284.372 0.500443 -3.08973 0
M  V30 2803 C 284.847 0.496297 -4.55303 0
M  V30 2804 N 286.338 0.557151 -4.59837 0
M  V30 2805 C 287.073 0.575726 -5.70502 0
M  V30 2806 N 286.569 0.550714 -6.90608 0
M  V30 2807 N 288.362 0.620277 -5.58667 0
M  V30 2808 H 280.513 -0.788673 -1.97215 0
M  V30 2809 H 282.776 -0.293188 -0.901524 0
M  V30 2810 H 282.482 -0.509659 -3.47988 0
M  V30 2811 H 282.356 1.2386 -3.56284 0
M  V30 2812 H 284.743 1.41886 -2.58751 0
M  V30 2813 H 284.824 -0.347894 -2.53423 0
M  V30 2814 H 284.468 -0.418162 -5.06176 0
M  V30 2815 H 284.398 1.3618 -5.08687 0
M  V30 2816 H 286.889 0.581816 -3.73394 0
M  V30 2817 H 287.202 0.568075 -7.70709 0
M  V30 2818 H 285.547 0.517816 -6.93068 0
M  V30 2819 H 288.738 0.637322 -4.63741 0
M  V30 2820 H 288.911 0.631283 -6.44918 0
M  V30 2821 N 282.317 1.53212 0.369288 0
M  V30 2822 C 283.547 1.72868 1.13139 0
M  V30 2823 C 283.955 0.455754 1.83629 0
M  V30 2824 O 283.298 -0.580861 1.74275 0
M  V30 2825 C 283.36 2.83667 2.20847 0
M  V30 2826 C 283.024 4.24142 1.70155 0
M  V30 2827 C 284.021 5.06619 1.16763 0
M  V30 2828 C 281.706 4.70539 1.7578 0
M  V30 2829 C 283.7 6.33581 0.696678 0
M  V30 2830 C 281.387 5.97481 1.28297 0
M  V30 2831 C 282.385 6.78833 0.753307 0
M  V30 2832 O 282.073 8.03393 0.285475 0
M  V30 2833 H 281.805 0.581707 0.344373 0
M  V30 2834 H 284.359 2.00736 0.435243 0
M  V30 2835 H 282.589 2.51265 2.93944 0
M  V30 2836 H 284.278 2.91536 2.82421 0
M  V30 2837 H 285.044 4.71948 1.11758 0
M  V30 2838 H 280.923 4.07293 2.15949 0
M  V30 2839 H 284.467 6.97027 0.282581 0
M  V30 2840 H 280.364 6.31651 1.32994 0
M  V30 2841 H 281.132 8.17497 0.405145 0
M  V30 2842 N 283.795 -0.628877 1.44509 0
M  V30 2843 C 284.727 -1.754 1.47538 0
M  V30 2844 C 285.74 -1.58575 0.368506 0
M  V30 2845 O 286.929 -1.66847 0.634376 0
M  V30 2846 C 284.029 -3.1315 1.29577 0
M  V30 2847 C 283.202 -3.56413 2.53551 0
M  V30 2848 C 282.261 -4.7305 2.30457 0
M  V30 2849 O 281.287 -4.81247 3.03957 0
M  V30 2850 N 282.489 -5.64903 1.3366 0
M  V30 2851 H 285.254 -1.73272 2.44534 0
M  V30 2852 H 282.815 -0.813512 1.39977 0
M  V30 2853 H 284.807 -3.88902 1.11971 0
M  V30 2854 H 283.377 -3.09908 0.409371 0
M  V30 2855 H 282.597 -2.70847 2.86419 0
M  V30 2856 H 283.885 -3.82071 3.36005 0
M  V30 2857 H 283.283 -5.60975 0.729604 0
M  V30 2858 H 281.84 -6.40275 1.22032 0
M  V30 2859 N 285.273 -1.31445 -0.869486 0
M  V30 2860 C 286.22 -1.19135 -1.97675 0
M  V30 2861 C 287.19 -0.0770266 -1.65921 0
M  V30 2862 O 288.375 -0.249972 -1.89155 0
M  V30 2863 C 285.515 -0.905149 -3.33018 0
M  V30 2864 C 284.628 -2.10285 -3.77365 0
M  V30 2865 C 283.763 -1.75339 -5.01427 0
M  V30 2866 C 282.802 -2.91515 -5.38224 0
M  V30 2867 N 281.939 -2.56762 -6.53466 0
M  V30 2868 H 286.779 -2.13853 -2.07535 0
M  V30 2869 H 284.316 -1.06379 -1.01597 0
M  V30 2870 H 286.274 -0.719765 -4.10944 0
M  V30 2871 H 284.904 0.00519624 -3.228 0
M  V30 2872 H 283.956 -2.39899 -2.95216 0
M  V30 2873 H 285.268 -2.97237 -4.00564 0
M  V30 2874 H 284.422 -1.53266 -5.87022 0
M  V30 2875 H 283.161 -0.855801 -4.80133 0
M  V30 2876 H 282.166 -3.14237 -4.51149 0
M  V30 2877 H 283.391 -3.81985 -5.61484 0
M  V30 2878 H 281.337 -1.69526 -6.33717 0
M  V30 2879 H 281.254 -3.37243 -6.76612 0
M  V30 2880 H 282.522 -2.38083 -7.42251 0
M  V30 2881 N 286.751 1.08385 -1.14413 0
M  V30 2882 C 287.991 1.8238 -0.922868 0
M  V30 2883 C 288.355 1.84225 0.540842 0
M  V30 2884 O 289.556 2.53985 0.880058 0
M  V30 2885 C 287.827 3.24048 -1.50757 0
M  V30 2886 S 289.386 4.14917 -1.4279 0
M  V30 2887 H 286.204 0.628524 -0.332384 0
M  V30 2888 H 288.806 1.30278 -1.45766 0
M  V30 2889 H 287.51 3.20288 -2.56601 0
M  V30 2890 H 287.041 3.81224 -0.971178 0
M  V30 2891 H 289.056 4.94473 -0.413582 0
M  V30 2892 N 288.23 0.939286 1.26551 0
M  V30 2893 C 289.16 0.465044 2.28822 0
M  V30 2894 C 290.141 -0.480692 1.63167 0
M  V30 2895 O 291.326 -0.382955 1.90387 0
M  V30 2896 C 288.456 -0.27234 3.46231 0
M  V30 2897 C 287.41 0.58666 4.2396 0
M  V30 2898 C 286.736 -0.280573 5.33963 0
M  V30 2899 C 288.036 1.85704 4.88171 0
M  V30 2900 H 289.73 1.31979 2.68741 0
M  V30 2901 H 287.276 0.636061 1.29191 0
M  V30 2902 H 289.229 -0.615133 4.16886 0
M  V30 2903 H 287.953 -1.16121 3.0526 0
M  V30 2904 H 286.612 0.91232 3.55067 0
M  V30 2905 H 286.26 -1.16874 4.89234 0
M  V30 2906 H 285.96 0.29076 5.8688 0
M  V30 2907 H 287.484 -0.618678 6.07458 0
M  V30 2908 H 288.898 1.58161 5.51052 0
M  V30 2909 H 287.295 2.37279 5.51197 0
M  V30 2910 H 288.365 2.56957 4.11219 0
M  V30 2911 N 289.708 -1.40897 0.706093 0
M  V30 2912 C 290.671 -2.29131 0.0562841 0
M  V30 2913 C 291.671 -1.44901 -0.697166 0
M  V30 2914 O 292.861 -1.65926 -0.530484 0
M  V30 2915 C 289.993 -3.27957 -0.93043 0
M  V30 2916 H 291.186 -2.88091 0.833284 0
M  V30 2917 H 288.739 -1.4906 0.470192 0
M  V30 2918 H 289.474 -2.73997 -1.73482 0
M  V30 2919 H 289.259 -3.90124 -0.393166 0
M  V30 2920 H 290.749 -3.94049 -1.38256 0
M  V30 2921 N 291.186 -0.45159 -1.50991 0
M  V30 2922 C 292.119 0.398179 -2.24699 0
M  V30 2923 C 293.097 1.01276 -1.27208 0
M  V30 2924 O 294.281 1.05247 -1.56382 0
M  V30 2925 C 291.408 1.55618 -3.00833 0
M  V30 2926 C 290.454 1.0609 -4.13095 0
M  V30 2927 S 291.287 -0.00865136 -5.35499 0
M  V30 2928 C 292.443 1.15369 -6.15175 0
M  V30 2929 H 292.676 -0.227555 -2.96428 0
M  V30 2930 H 290.209 -0.236251 -1.52582 0
M  V30 2931 H 292.167 2.21997 -3.45293 0
M  V30 2932 H 290.828 2.15337 -2.28667 0
M  V30 2933 H 290.021 1.92726 -4.65696 0
M  V30 2934 H 289.623 0.47513 -3.7097 0
M  V30 2935 H 291.915 2.06925 -6.45126 0
M  V30 2936 H 292.858 0.667344 -7.04948 0
M  V30 2937 H 293.266 1.3987 -5.46897 0
M  V30 2938 N 292.664 1.56529 -0.183458 0
M  V30 2939 C 293.912 1.96855 0.457452 0
M  V30 2940 C 294.233 1.07104 1.62953 0
M  V30 2941 O 293.503 0.139887 1.954 0
M  V30 2942 H 292.083 0.72693 0.171992 0
M  V30 2943 H 294.745 1.93056 -0.267476 0
M  V30 2944 H 293.841 3.01423 0.809368 0
M  V30 2945 N 294.142 -0.090211 1.57342 0
M  V30 2946 C 295.075 -1.14035 1.97664 0
M  V30 2947 C 296.053 -1.38576 0.850616 0
M  V30 2948 O 297.237 -1.52255 1.11134 0
M  V30 2949 C 294.364 -2.48854 2.2976 0
M  V30 2950 C 293.41 -2.40564 3.52181 0
M  V30 2951 S 294.243 -1.81745 5.03715 0
M  V30 2952 C 295.399 -3.18178 5.38993 0
M  V30 2953 H 295.632 -0.796636 2.86428 0
M  V30 2954 H 293.165 -0.298072 1.51496 0
M  V30 2955 H 295.123 -3.26413 2.48927 0
M  V30 2956 H 293.784 -2.80393 1.41558 0
M  V30 2957 H 292.977 -3.39942 3.72096 0
M  V30 2958 H 292.579 -1.71135 3.32549 0
M  V30 2959 H 294.871 -4.14461 5.35937 0
M  V30 2960 H 295.814 -3.03062 6.39968 0
M  V30 2961 H 296.222 -3.17935 4.66452 0
M  V30 2962 N 295.62 -1.53406 -0.361157 0
M  V30 2963 C 296.567 -1.80156 -1.44265 0
M  V30 2964 C 297.537 -0.646183 -1.53015 0
M  V30 2965 O 298.722 -0.888818 -1.68833 0
M  V30 2966 C 295.862 -2.00116 -2.81154 0
M  V30 2967 C 294.975 -3.27833 -2.81335 0
M  V30 2968 C 294.11 -3.37957 -4.09828 0
M  V30 2969 C 293.149 -4.59689 -4.04168 0
M  V30 2970 N 292.286 -4.66942 -5.24318 0
M  V30 2971 H 297.126 -2.72438 -1.20754 0
M  V30 2972 H 294.663 -1.34954 -0.585296 0
M  V30 2973 H 296.621 -2.09677 -3.60682 0
M  V30 2974 H 295.251 -1.11167 -3.03054 0
M  V30 2975 H 294.303 -3.27204 -1.94014 0
M  V30 2976 H 295.615 -4.17442 -2.73027 0
M  V30 2977 H 294.769 -3.46853 -4.97773 0
M  V30 2978 H 293.508 -2.46372 -4.20894 0
M  V30 2979 H 292.513 -4.50889 -3.14609 0
M  V30 2980 H 293.738 -5.5262 -3.947 0
M  V30 2981 H 291.684 -3.7826 -5.35962 0
M  V30 2982 H 291.601 -5.50462 -5.18197 0
M  V30 2983 H 292.869 -4.80127 -6.14084 0
M  V30 2984 N 297.098 0.621204 -1.44841 0
M  V30 2985 C 298.514 0.94048 -1.28946 0
M  V30 2986 C 298.714 2.00154 -0.23249 0
M  V30 2987 O 297.77 2.49651 0.378237 0
M  V30 2988 C 299.083 1.39433 -2.66419 0
M  V30 2989 C 300.631 1.50927 -2.74208 0
M  V30 2990 C 301.106 1.99692 -4.12174 0
M  V30 2991 N 302.597 2.06947 -4.144 0
M  V30 2992 C 303.332 2.45871 -5.1801 0
M  V30 2993 N 302.828 2.83862 -6.31977 0
M  V30 2994 N 304.621 2.46092 -5.05366 0
M  V30 2995 H 296.772 -0.0803548 -2.12248 0
M  V30 2996 H 299.035 0.0266913 -0.947624 0
M  V30 2997 H 298.741 0.688925 -3.44887 0
M  V30 2998 H 298.615 2.36347 -2.93973 0
M  V30 2999 H 301.002 2.20561 -1.96053 0
M  V30 3000 H 301.083 0.523627 -2.50383 0
M  V30 3001 H 300.727 1.30649 -4.90809 0
M  V30 3002 H 300.657 2.99146 -4.33381 0
M  V30 3003 H 303.148 1.80232 -3.32152 0
M  V30 3004 H 303.461 3.12405 -7.0684 0
M  V30 3005 H 301.806 2.8159 -6.35399 0
M  V30 3006 H 304.997 2.1581 -4.15384 0
M  V30 3007 H 305.17 2.76102 -5.86235 0
M  V30 3008 N 298.576 1.31904 0.862503 0
M  V30 3009 C 299.486 1.22161 2.00285 0
M  V30 3010 C 300.502 0.136785 1.73462 0
M  V30 3011 O 301.678 0.355994 1.98229 0
M  V30 3012 C 298.743 0.937093 3.33796 0
M  V30 3013 C 297.804 2.10957 3.73893 0
M  V30 3014 C 297.037 1.83853 5.01033 0
M  V30 3015 O 297.26 0.777274 5.65079 0
M  V30 3016 O 296.194 2.69741 5.38074 0
M  V30 3017 H 300.02 2.18008 2.11439 0
M  V30 3018 H 297.605 1.11716 0.991957 0
M  V30 3019 H 299.487 0.794583 4.13841 0
M  V30 3020 H 298.162 0.00871894 3.23699 0
M  V30 3021 H 297.069 2.30752 2.94456 0
M  V30 3022 H 298.402 3.02046 3.88625 0
M  V30 3023 N 300.054 -1.07777 1.14986 0
M  V30 3024 C 301.017 -2.13041 0.845358 0
M  V30 3025 C 302.017 -1.60071 -0.152931 0
M  V30 3026 O 303.207 -1.74033 0.0761879 0
M  V30 3027 C 300.339 -3.39896 0.261383 0
M  V30 3028 H 301.532 -2.41485 1.77834 0
M  V30 3029 H 299.085 -1.23595 0.956757 0
M  V30 3030 H 299.82 -3.17091 -0.68 0
M  V30 3031 H 299.605 -3.79642 0.980514 0
M  V30 3032 H 301.095 -4.17548 0.0657687 0
M  V30 3033 N 301.532 -0.945985 -1.26051 0
M  V30 3034 C 302.778 -0.597002 -1.93814 0
M  V30 3035 C 303.111 0.862484 -1.73997 0
M  V30 3036 O 302.386 1.61769 -1.07986 0
M  V30 3037 C 302.669 -0.945937 -3.47454 0
M  V30 3038 C 302.522 -2.46052 -3.76535 0
M  V30 3039 C 303.841 -0.464785 -4.37639 0
M  V30 3040 H 300.96 -0.218366 -0.703907 0
M  V30 3041 H 303.602 -1.18107 -1.48831 0
M  V30 3042 H 301.752 -0.448902 -3.85898 0
M  V30 3043 H 303.424 -3.03065 -3.47778 0
M  V30 3044 H 301.667 -2.90194 -3.22444 0
M  V30 3045 H 302.338 -2.65517 -4.83947 0
M  V30 3046 H 304.814 -0.891016 -4.06448 0
M  V30 3047 H 303.69 -0.737712 -5.4392 0
M  V30 3048 H 303.951 0.635274 -4.37512 0
M  V30 3049 N 303.011 1.40521 -0.713556 0
M  V30 3050 C 303.943 2.29191 -0.0203126 0
M  V30 3051 C 304.956 1.45723 0.725864 0
M  V30 3052 O 306.145 1.69033 0.573581 0
M  V30 3053 C 303.245 3.2395 0.995486 0
M  V30 3054 C 302.418 4.36262 0.315256 0
M  V30 3055 C 301.477 5.11474 1.23616 0
M  V30 3056 O 300.503 5.64606 0.721719 0
M  V30 3057 N 301.705 5.20638 2.56743 0
M  V30 3058 H 304.47 2.89327 -0.781652 0
M  V30 3059 H 302.031 1.51869 -0.561022 0
M  V30 3060 H 304.023 3.71137 1.61368 0
M  V30 3061 H 302.593 2.64995 1.6582 0
M  V30 3062 H 301.813 3.91228 -0.483106 0
M  V30 3063 H 303.101 5.08558 -0.157004 0
M  V30 3064 H 302.499 4.7895 3.01037 0
M  V30 3065 H 301.056 5.71339 3.13712 0
M  V30 3066 N 304.489 0.459591 1.5075 0
M  V30 3067 C 305.399 -0.34613 2.32033 0
M  V30 3068 C 306.415 -1.00686 1.41909 0
M  V30 3069 O 307.591 -0.997361 1.7497 0
M  V30 3070 C 304.656 -1.42029 3.16273 0
M  V30 3071 C 303.717 -0.777362 4.22203 0
M  V30 3072 C 302.95 -1.80034 5.02418 0
M  V30 3073 O 303.173 -3.02544 4.83553 0
M  V30 3074 O 302.107 -1.37853 5.85901 0
M  V30 3075 H 305.933 0.318054 3.0203 0
M  V30 3076 H 303.518 0.221663 1.47746 0
M  V30 3077 H 305.4 -2.04275 3.68578 0
M  V30 3078 H 304.075 -2.06815 2.49016 0
M  V30 3079 H 302.982 -0.116256 3.73919 0
M  V30 3080 H 304.315 -0.172634 4.91897 0
M  V30 3081 N 305.967 -1.56429 0.191757 0
M  V30 3082 C 306.877 -2.22541 -0.742481 0
M  V30 3083 C 307.893 -1.22342 -1.23727 0
M  V30 3084 O 309.069 -1.55069 -1.28513 0
M  V30 3085 C 306.134 -2.8692 -1.94623 0
M  V30 3086 C 305.195 -4.02378 -1.49633 0
M  V30 3087 C 304.428 -4.63678 -2.6427 0
M  V30 3088 O 304.651 -4.23895 -3.81666 0
M  V30 3089 O 303.585 -5.53202 -2.37174 0
M  V30 3090 H 307.411 -3.02977 -0.209462 0
M  V30 3091 H 304.996 -1.49353 -0.0373832 0
M  V30 3092 H 306.878 -3.27663 -2.64982 0
M  V30 3093 H 305.553 -2.09466 -2.46791 0
M  V30 3094 H 304.46 -3.66265 -0.761636 0
M  V30 3095 H 305.793 -4.81487 -1.02134 0
M  V30 3096 N 307.445 0.0818655 -1.57387 0
M  V30 3097 C 308.861 0.436412 -1.53517 0
M  V30 3098 C 309.061 1.79758 -0.910459 0
M  V30 3099 O 308.117 2.47324 -0.508636 0
M  V30 3100 C 309.43 0.386734 -2.98203 0
M  V30 3101 C 310.978 0.467644 -3.09487 0
M  V30 3102 C 311.453 0.447978 -4.55804 0
M  V30 3103 N 312.944 0.508348 -4.60402 0
M  V30 3104 C 313.679 0.515184 -5.71081 0
M  V30 3105 N 313.175 0.477435 -6.91153 0
M  V30 3106 N 314.968 0.560988 -5.59294 0
M  V30 3107 H 307.119 -0.809546 -1.96367 0
M  V30 3108 H 309.382 -0.302733 -0.898363 0
M  V30 3109 H 309.088 -0.546539 -3.47427 0
M  V30 3110 H 308.962 1.20075 -3.57578 0
M  V30 3111 H 311.349 1.39134 -2.60242 0
M  V30 3112 H 311.43 -0.374753 -2.5304 0
M  V30 3113 H 311.074 -0.471826 -5.05704 0
M  V30 3114 H 311.004 1.30777 -5.10103 0
M  V30 3115 H 313.495 0.54218 -3.7399 0
M  V30 3116 H 313.808 0.486299 -7.71268 0
M  V30 3117 H 312.153 0.444278 -6.93579 0
M  V30 3118 H 315.344 0.5881 -4.64391 0
M  V30 3119 H 315.517 0.562846 -6.45551 0
M  V30 3120 N 308.923 1.53595 0.353017 0
M  V30 3121 C 309.855 1.77219 1.45348 0
M  V30 3122 C 310.868 0.65324 1.49119 0
M  V30 3123 O 312.057 0.929775 1.52373 0
M  V30 3124 C 309.157 1.84841 2.84055 0
M  V30 3125 C 308.33 3.14649 3.03833 0
M  V30 3126 C 307.389 3.13351 4.22727 0
M  V30 3127 O 306.415 3.87107 4.17297 0
M  V30 3128 N 307.617 2.35052 5.30783 0
M  V30 3129 H 310.382 2.72178 1.25457 0
M  V30 3130 H 307.943 1.52528 0.542833 0
M  V30 3131 H 309.935 1.81435 3.61751 0
M  V30 3132 H 308.505 0.971114 2.97133 0
M  V30 3133 H 307.725 3.31256 2.13689 0
M  V30 3134 H 309.013 4.00411 3.13925 0
M  V30 3135 H 308.411 1.74663 5.38061 0
M  V30 3136 H 306.968 2.37453 6.07009 0
M  V30 3137 N 310.401 -0.613514 1.45168 0
M  V30 3138 C 311.817 -0.933629 1.29443 0
M  V30 3139 C 312.017 -2.00028 0.243101 0
M  V30 3140 O 311.073 -2.49848 -0.364992 0
M  V30 3141 C 312.386 -1.38018 2.67155 0
M  V30 3142 C 313.934 -1.49471 2.75004 0
M  V30 3143 C 314.409 -1.97503 4.13227 0
M  V30 3144 N 315.9 -2.04746 4.15491 0
M  V30 3145 C 316.635 -2.43121 5.19307 0
M  V30 3146 N 316.131 -2.80506 6.33473 0
M  V30 3147 N 317.924 -2.43408 5.06664 0
M  V30 3148 H 310.075 0.0916097 2.12202 0
M  V30 3149 H 312.338 -0.0216655 0.947752 0
M  V30 3150 H 312.044 -0.670625 3.45247 0
M  V30 3151 H 311.918 -2.34784 2.95222 0
M  V30 3152 H 314.305 -2.19519 1.9722 0
M  V30 3153 H 314.386 -0.510342 2.50657 0
M  V30 3154 H 314.03 -1.28045 4.91495 0
M  V30 3155 H 313.96 -2.96843 4.34962 0
M  V30 3156 H 316.451 -1.78468 3.33103 0
M  V30 3157 H 316.764 -3.08652 7.08487 0
M  V30 3158 H 315.109 -2.78216 6.36884 0
M  V30 3159 H 318.3 -2.13604 4.16523 0
M  V30 3160 H 318.473 -2.72989 5.87691 0
M  V30 3161 N 311.879 -1.3236 -0.855495 0
M  V30 3162 C 313.127 -1.22629 -1.60644 0
M  V30 3163 C 313.448 0.212136 -1.93843 0
M  V30 3164 O 312.718 1.13666 -1.59552 0
M  V30 3165 H 311.298 -0.450882 -0.595579 0
M  V30 3166 H 313.96 -1.65871 -1.02337 0
M  V30 3167 H 313.056 -1.80832 -2.54374 0
M  V30 3168 N 313.357 1.07166 -1.15556 0
M  V30 3169 C 314.304 2.14417 -0.854055 0
M  V30 3170 C 315.274 1.64965 0.193806 0
M  V30 3171 O 316.459 1.90703 0.0609443 0
M  V30 3172 C 313.599 3.43304 -0.351574 0
M  V30 3173 C 312.712 4.06537 -1.46123 0
M  V30 3174 C 311.847 5.23266 -0.914677 0
M  V30 3175 C 310.886 5.78464 -2.00114 0
M  V30 3176 N 310.023 6.86521 -1.47083 0
M  V30 3177 H 314.863 2.39548 -1.77259 0
M  V30 3178 H 312.4 1.17543 -0.884425 0
M  V30 3179 H 314.358 4.17179 -0.0419409 0
M  V30 3180 H 312.988 3.18419 0.530037 0
M  V30 3181 H 312.04 3.30297 -1.88701 0
M  V30 3182 H 313.352 4.43567 -2.28144 0
M  V30 3183 H 312.506 6.04131 -0.557698 0
M  V30 3184 H 311.245 4.87658 -0.0636583 0
M  V30 3185 H 310.25 4.96243 -2.36692 0
M  V30 3186 H 311.475 6.16126 -2.85597 0
M  V30 3187 H 309.421 6.52849 -0.642198 0
M  V30 3188 H 309.338 7.22446 -2.22729 0
M  V30 3189 H 310.606 7.71087 -1.14215 0
M  V30 3190 N 314.835 0.952656 1.25548 0
M  V30 3191 C 316.112 0.523818 1.88456 0
M  V30 3192 C 316.492 -0.998871 1.85973 0
M  V30 3193 O 315.84 -1.86381 1.3219 0
M  V30 3194 C 316.05 1.0982 3.31271 0
M  V30 3195 C 317.398 1.17385 4.08051 0
M  V30 3196 O 318.422 1.04961 3.40384 0
M  V30 3197 O 317.281 1.36852 5.29088 0
M  V30 3198 H 314.375 0.172485 0.808813 0
M  V30 3199 H 316.921 1.04596 1.33633 0
M  V30 3200 H 315.693 2.1415 3.27499 0
M  V30 3201 H 315.316 0.559191 3.93648 0
M  V30 3202 N 316.313 -1.40141 0.720998 0
M  V30 3203 C 317.729 -1.54632 0.395113 0
M  V30 3204 C 317.929 -1.69115 -1.09555 0
M  V30 3205 O 316.985 -1.68377 -1.88163 0
M  V30 3206 C 318.298 -2.77177 1.1659 0
M  V30 3207 C 319.846 -2.91 1.15274 0
M  V30 3208 C 320.321 -4.16465 1.90579 0
M  V30 3209 N 321.812 -4.23476 1.87675 0
M  V30 3210 C 322.547 -5.19475 2.42762 0
M  V30 3211 N 322.043 -6.21348 3.06428 0
M  V30 3212 N 323.836 -5.11592 2.32874 0
M  V30 3213 H 315.987 -1.28986 1.68749 0
M  V30 3214 H 318.25 -0.62412 0.713567 0
M  V30 3215 H 317.956 -2.72771 2.22011 0
M  V30 3216 H 317.83 -3.69442 0.76108 0
M  V30 3217 H 320.217 -2.94907 0.106702 0
M  V30 3218 H 320.298 -1.99838 1.59682 0
M  V30 3219 H 319.942 -4.1332 2.95176 0
M  V30 3220 H 319.872 -5.06646 1.43587 0
M  V30 3221 H 322.363 -3.50497 1.41281 0
M  V30 3222 H 322.676 -6.91034 3.45965 0
M  V30 3223 H 321.021 -6.21777 3.10514 0
M  V30 3224 H 324.212 -4.30936 1.82789 0
M  V30 3225 H 324.385 -5.86233 2.76106 0
M  V30 3226 N 317.792 -0.46758 -1.50504 0
M  V30 3227 C 318.74 0.342482 -2.30065 0
M  V30 3228 C 319.734 0.993596 -1.37201 0
M  V30 3229 O 320.94 0.925102 -1.54408 0
M  V30 3230 H 317.315 0.129283 -0.740803 0
M  V30 3231 H 319.286 -0.34899 -2.96352 0
M  V30 3232 C 318.035 1.4139 -3.17654 0
M  V30 3233 H 317.358 0.922264 -3.89017 0
M  V30 3234 H 318.798 1.95335 -3.76325 0
M  V30 3235 C 317.257 2.4139 -2.35016 0
M  V30 3236 O 317.787 3.46586 -2.03079 0
M  V30 3237 N 315.993 2.13021 -1.97662 0
M  V30 3238 H 315.54 1.27499 -2.23834 0
M  V30 3239 H 315.498 2.80164 -1.42673 0
M  V30 3240 N 319.27 1.56325 -0.20005 0
M  V30 3241 C 320.18 2.22931 0.730668 0
M  V30 3242 C 321.196 1.22997 1.23076 0
M  V30 3243 O 322.372 1.55748 1.27689 0
M  V30 3244 C 319.437 2.87948 1.93098 0
M  V30 3245 C 318.498 4.03166 1.47497 0
M  V30 3246 C 317.731 4.65073 2.61807 0
M  V30 3247 O 317.954 4.25913 3.79413 0
M  V30 3248 O 316.888 5.54452 2.34237 0
M  V30 3249 H 320.714 3.03084 0.193391 0
M  V30 3250 H 318.299 1.49371 0.0294621 0
M  V30 3251 H 320.181 3.29063 2.6324 0
M  V30 3252 H 318.856 2.10771 2.45677 0
M  V30 3253 H 317.763 3.66664 0.742201 0
M  V30 3254 H 319.096 4.82022 0.995796 0
M  V30 3255 N 320.748 -0.0735177 1.57428 0
M  V30 3256 C 321.696 -1.10628 2.04607 0
M  V30 3257 C 322.69 -1.40181 0.951088 0
M  V30 3258 O 323.896 -1.39608 1.1362 0
M  V30 3259 H 320.271 -0.374088 0.652351 0
M  V30 3260 H 322.242 -0.682218 2.90497 0
M  V30 3261 C 320.991 -2.41212 2.50423 0
M  V30 3262 H 320.314 -2.19322 3.34272 0
M  V30 3263 H 321.754 -3.11927 2.87189 0
M  V30 3264 C 320.213 -3.0705 1.38644 0
M  V30 3265 O 320.743 -3.95056 0.727582 0
M  V30 3266 N 318.949 -2.67645 1.132 0
M  V30 3267 H 318.496 -1.96169 1.66959 0
M  V30 3268 H 318.454 -3.1202 0.386147 0
M  V30 3269 N 322.226 -1.5378 -0.344866 0
M  V30 3270 C 323.136 -1.84667 -1.4469 0
M  V30 3271 C 324.152 -0.736704 -1.57635 0
M  V30 3272 O 325.328 -1.02888 -1.73136 0
M  V30 3273 C 322.393 -2.04869 -2.79696 0
M  V30 3274 C 321.454 -3.28731 -2.76106 0
M  V30 3275 C 320.687 -3.4796 -4.04673 0
M  V30 3276 O 320.91 -2.71052 -5.01883 0
M  V30 3277 O 319.844 -4.41383 -4.09224 0
M  V30 3278 H 323.67 -2.78334 -1.21506 0
M  V30 3279 H 321.255 -1.39418 -0.536921 0
M  V30 3280 H 323.137 -2.19609 -3.59652 0
M  V30 3281 H 321.812 -1.14391 -3.02814 0
M  V30 3282 H 320.719 -3.19396 -1.94774 0
M  V30 3283 H 322.052 -4.19198 -2.57941 0
M  V30 3284 N 323.704 0.605807 -1.45491 0
M  V30 3285 C 324.95 1.36679 -1.49823 0
M  V30 3286 C 325.283 1.93693 -0.140175 0
M  V30 3287 O 324.558 1.75158 0.845581 0
M  V30 3288 C 324.841 2.51337 -2.57879 0
M  V30 3289 C 324.694 1.99508 -4.03134 0
M  V30 3290 C 326.013 3.53463 -2.62205 0
M  V30 3291 H 323.132 0.495617 -0.545466 0
M  V30 3292 H 325.774 0.682732 -1.7731 0
M  V30 3293 H 323.924 3.09691 -2.34571 0
M  V30 3294 H 325.596 1.45789 -4.37656 0
M  V30 3295 H 323.839 1.30496 -4.13707 0
M  V30 3296 H 324.51 2.82169 -4.74431 0
M  V30 3297 H 326.986 3.04953 -2.83095 0
M  V30 3298 H 325.862 4.31178 -3.39672 0
M  V30 3299 H 326.123 4.09197 -1.67363 0
M  V30 3300 N 325.182 1.32811 0.848464 0
M  V30 3301 C 326.092 1.24278 1.98978 0
M  V30 3302 C 327.108 0.155176 1.73307 0
M  V30 3303 O 328.284 0.376999 1.9784 0
M  V30 3304 C 325.349 0.972444 3.32783 0
M  V30 3305 C 324.41 2.14911 3.71634 0
M  V30 3306 C 323.643 1.89157 4.99054 0
M  V30 3307 O 323.866 0.837165 5.64223 0
M  V30 3308 O 322.8 2.75433 5.35183 0
M  V30 3309 H 326.626 2.20238 2.09115 0
M  V30 3310 H 324.211 1.12762 0.980052 0
M  V30 3311 H 326.093 0.838432 4.12975 0
M  V30 3312 H 324.768 0.043051 3.23671 0
M  V30 3313 H 323.675 2.33862 2.91992 0
M  V30 3314 H 325.008 3.06151 3.85399 0
M  V30 3315 N 326.66 -1.06551 1.16123 0
M  V30 3316 C 327.885 -1.83544 0.965735 0
M  V30 3317 C 328.31 -1.81843 -0.481102 0
M  V30 3318 O 327.668 -1.21732 -1.34354 0
M  V30 3319 C 327.716 -3.28169 1.49457 0
M  V30 3320 O 326.82 -4.0643 0.699157 0
M  V30 3321 H 326.161 -0.568026 0.343864 0
M  V30 3322 H 328.691 -1.34362 1.54299 0
M  V30 3323 H 328.701 -3.78992 1.51092 0
M  V30 3324 H 327.376 -3.28722 2.54784 0
M  V30 3325 H 325.953 -3.65216 0.7531 0
M  V30 3326 N 328.138 -0.959301 -1.25041 0
M  V30 3327 C 329.366 -0.633949 -1.96948 0
M  V30 3328 C 329.781 0.794916 -1.7125 0
M  V30 3329 O 329.138 1.53231 -0.991287 0
M  V30 3330 C 329.189 -0.888805 -3.50403 0
M  V30 3331 O 328.91 -2.26149 -3.75218 0
M  V30 3332 C 330.411 -0.576482 -4.39536 0
M  V30 3333 H 327.631 -0.237263 -0.627652 0
M  V30 3334 H 330.175 -1.28495 -1.59089 0
M  V30 3335 H 328.33 -0.284145 -3.86357 0
M  V30 3336 H 328.744 -2.33514 -4.6965 0
M  V30 3337 H 330.218 -0.805314 -5.46094 0
M  V30 3338 H 330.695 0.489075 -4.36468 0
M  V30 3339 H 331.301 -1.16067 -4.09156 0
M  V30 3340 N 329.616 1.39756 -0.72842 0
M  V30 3341 C 330.841 2.05472 -0.282159 0
M  V30 3342 C 331.266 1.54549 1.07221 0
M  V30 3343 O 330.624 0.686372 1.67805 0
M  V30 3344 C 330.672 3.59462 -0.286264 0
M  V30 3345 O 329.776 4.05918 0.728298 0
M  V30 3346 H 329.117 0.651226 -0.129618 0
M  V30 3347 H 331.647 1.78915 -0.992499 0
M  V30 3348 H 331.657 4.07798 -0.128373 0
M  V30 3349 H 330.332 3.95889 -1.27456 0
M  V30 3350 H 328.909 3.69012 0.537081 0
M  V30 3351 N 331.094 0.475555 1.50254 0
M  V30 3352 C 332.319 -0.0777042 2.07254 0
M  V30 3353 C 332.744 -1.3235 1.3366 0
M  V30 3354 O 332.102 -1.77152 0.385597 0
M  V30 3355 C 332.15 -0.340169 3.58992 0
M  V30 3356 O 331.254 -1.41982 3.87188 0
M  V30 3357 H 330.595 0.0149556 0.663832 0
M  V30 3358 H 333.125 0.667878 1.93392 0
M  V30 3359 H 333.135 -0.579332 4.03866 0
M  V30 3360 H 331.81 0.570167 4.11973 0
M  V30 3361 H 330.387 -1.16762 3.54148 0
M  V30 3362 N 332.573 -1.56217 0.208337 0
M  V30 3363 C 333.536 -2.18455 -0.693557 0
M  V30 3364 C 334.536 -1.14268 -1.13135 0
M  V30 3365 O 335.726 -1.39577 -1.0423 0
M  V30 3366 C 332.858 -2.79727 -1.94848 0
M  V30 3367 H 334.051 -2.99519 -0.15114 0
M  V30 3368 H 331.604 -1.56245 -0.041287 0
M  V30 3369 H 332.339 -2.02497 -2.53309 0
M  V30 3370 H 332.124 -3.56009 -1.64316 0
M  V30 3371 H 333.614 -3.27475 -2.59133 0
M  V30 3372 N 334.051 0.0651679 -1.57465 0
M  V30 3373 C 334.999 1.09542 -2.05191 0
M  V30 3374 C 335.993 1.39675 -0.958509 0
M  V30 3375 O 337.199 1.39003 -1.14359 0
M  V30 3376 H 333.574 0.370623 -0.654326 0
M  V30 3377 H 335.545 0.666802 -2.90854 0
M  V30 3378 C 334.294 2.39881 -2.51699 0
M  V30 3379 H 333.617 2.17547 -3.3543 0
M  V30 3380 H 335.057 3.104 -2.88839 0
M  V30 3381 C 333.516 3.0631 -1.40271 0
M  V30 3382 O 334.046 3.94664 -0.748523 0
M  V30 3383 N 332.252 2.67041 -1.14618 0
M  V30 3384 H 331.799 1.95281 -1.67997 0
M  V30 3385 H 331.757 3.1181 -0.402688 0
M  V30 3386 N 335.529 1.53961 0.336706 0
M  V30 3387 C 336.439 1.85432 1.43708 0
M  V30 3388 C 337.455 0.745053 1.57242 0
M  V30 3389 O 338.631 1.03804 1.72588 0
M  V30 3390 C 335.696 2.06349 2.78605 0
M  V30 3391 C 334.757 3.30191 2.74358 0
M  V30 3392 C 333.99 3.50101 4.02822 0
M  V30 3393 O 334.213 2.7371 5.00439 0
M  V30 3394 O 333.147 4.43547 4.06878 0
M  V30 3395 H 336.973 2.78975 1.20028 0
M  V30 3396 H 334.558 1.39701 0.52952 0
M  V30 3397 H 336.44 2.21513 3.58483 0
M  V30 3398 H 335.115 1.15995 3.02203 0
M  V30 3399 H 334.022 3.20425 1.93078 0
M  V30 3400 H 335.355 4.2056 2.55715 0
M  V30 3401 N 337.007 -0.598083 1.45811 0
M  V30 3402 C 338.284 -1.35777 1.40797 0
M  V30 3403 C 338.664 -2.10935 0.083462 0
M  V30 3404 O 338.012 -2.08505 -0.934763 0
M  V30 3405 C 338.222 -2.29666 2.62783 0
M  V30 3406 C 339.57 -2.91977 3.08277 0
M  V30 3407 O 340.594 -2.39984 2.63223 0
M  V30 3408 O 339.453 -3.86376 3.86491 0
M  V30 3409 H 336.547 -0.609291 0.55919 0
M  V30 3410 H 339.093 -0.620379 1.57954 0
M  V30 3411 H 337.865 -1.73454 3.50756 0
M  V30 3412 H 337.488 -3.1077 2.48008 0
M  V30 3413 N 338.485 -1.33259 -0.841409 0
M  V30 3414 C 339.418 -1.1764 -1.95541 0
M  V30 3415 C 340.396 -0.072501 -1.62438 0
M  V30 3416 O 341.58 -0.23427 -1.87039 0
M  V30 3417 C 338.707 -0.803794 -3.29024 0
M  V30 3418 C 337.753 -1.91482 -3.81099 0
M  V30 3419 S 338.586 -3.52538 -4.03085 0
M  V30 3420 C 339.742 -3.17279 -5.39523 0
M  V30 3421 H 339.975 -2.11941 -2.08491 0
M  V30 3422 H 337.508 -1.18072 -0.9949 0
M  V30 3423 H 339.466 -0.595592 -4.06156 0
M  V30 3424 H 338.127 0.120574 -3.13868 0
M  V30 3425 H 337.32 -1.60742 -4.7768 0
M  V30 3426 H 336.922 -2.07956 -3.10854 0
M  V30 3427 H 339.214 -2.67946 -6.22263 0
M  V30 3428 H 340.157 -4.1293 -5.75234 0
M  V30 3429 H 340.565 -2.53943 -5.04156 0
M  V30 3430 N 339.963 1.05934 -1.16686 0
M  V30 3431 C 341.374 1.60263 -0.957745 0
M  V30 3432 C 341.725 1.89789 0.49745 0
M  V30 3433 O 340.85 1.67401 1.37135 0
M  V30 3434 C 341.445 2.91172 -1.73218 0
M  V30 3435 C 340.004 3.42188 -1.56794 0
M  V30 3436 C 339.151 2.16028 -1.73859 0
M  V30 3437 H 342.102 0.888392 -1.31504 0
M  V30 3438 H 342.123 3.60744 -1.21014 0
M  V30 3439 H 341.635 2.6965 -2.79124 0
M  V30 3440 H 339.736 3.68762 -0.533437 0
M  V30 3441 H 339.849 4.17273 -2.35414 0
M  V30 3442 H 338.213 2.26426 -1.16633 0
M  V30 3443 H 338.996 1.96985 -2.81161 0
M  V30 3444 N 341.441 0.965919 1.2453 0
M  V30 3445 C 342.687 0.62776 1.92839 0
M  V30 3446 C 343.02 -0.834694 1.75347 0
M  V30 3447 O 342.295 -1.60031 1.10546 0
M  V30 3448 C 342.578 1.00109 3.45905 0
M  V30 3449 C 342.431 2.52011 3.72573 0
M  V30 3450 C 343.75 0.53435 4.36844 0
M  V30 3451 H 340.869 0.229537 0.700344 0
M  V30 3452 H 343.511 1.2046 1.46933 0
M  V30 3453 H 341.661 0.510238 3.85135 0
M  V30 3454 H 343.333 3.08559 3.42912 0
M  V30 3455 H 341.576 2.95287 3.17786 0
M  V30 3456 H 342.247 2.73183 4.79661 0
M  V30 3457 H 344.723 0.955565 4.04979 0
M  V30 3458 H 343.599 0.824152 5.42678 0
M  V30 3459 H 343.86 -0.565589 4.38467 0
M  V30 3460 N 342.919 -1.39368 0.735821 0
M  V30 3461 C 343.829 -2.34395 0.0979693 0
M  V30 3462 C 344.845 -1.58361 -0.720968 0
M  V30 3463 O 346.021 -1.90648 -0.649245 0
M  V30 3464 C 343.086 -3.37393 -0.797916 0
M  V30 3465 C 342.147 -4.29287 0.0333662 0
M  V30 3466 C 341.38 -5.27365 -0.819854 0
M  V30 3467 O 341.603 -5.31959 -2.05855 0
M  V30 3468 O 340.537 -6.01389 -0.248079 0
M  V30 3469 H 344.363 -2.90601 0.882315 0
M  V30 3470 H 341.948 -1.40909 0.4965 0
M  V30 3471 H 343.83 -4.00505 -1.31048 0
M  V30 3472 H 342.505 -2.83571 -1.56106 0
M  V30 3473 H 341.412 -3.69395 0.591475 0
M  V30 3474 H 342.745 -4.86317 0.758752 0
M  V30 3475 N 344.397 -0.483516 -1.5 0
M  V30 3476 C 345.813 -0.138404 -1.58999 0
M  V30 3477 C 346.013 1.35597 -1.4905 0
M  V30 3478 O 345.069 2.13039 -1.35539 0
M  V30 3479 C 346.382 -0.699658 -2.92447 0
M  V30 3480 C 347.93 -0.664195 -3.05872 0
M  V30 3481 C 348.405 -1.20321 -4.41913 0
M  V30 3482 N 349.896 -1.16315 -4.48358 0
M  V30 3483 C 350.631 -1.55058 -5.52037 0
M  V30 3484 N 350.127 -2.01311 -6.62907 0
M  V30 3485 N 351.92 -1.46584 -5.42651 0
M  V30 3486 H 344.071 -1.45529 -1.5471 0
M  V30 3487 H 346.334 -0.60258 -0.731848 0
M  V30 3488 H 346.04 -1.747 -3.05242 0
M  V30 3489 H 345.914 -0.150194 -3.76901 0
M  V30 3490 H 348.301 0.374272 -2.92717 0
M  V30 3491 H 348.382 -1.25061 -2.23144 0
M  V30 3492 H 348.026 -2.24037 -4.55818 0
M  V30 3493 H 347.956 -0.592896 -5.23252 0
M  V30 3494 H 350.447 -0.824058 -3.68806 0
M  V30 3495 H 350.76 -2.2899 -7.38095 0
M  V30 3496 H 349.105 -2.05273 -6.63994 0
M  V30 3497 H 352.296 -1.10281 -4.54924 0
M  V30 3498 H 352.469 -1.77103 -6.23329 0
M  V30 3499 N 345.875 1.56104 -0.216619 0
M  V30 3500 C 347.124 1.97348 0.416744 0
M  V30 3501 C 347.437 1.10715 1.6125 0
M  V30 3502 O 348.643 1.41836 2.31506 0
M  V30 3503 C 347.099 3.51059 0.792835 0
M  V30 3504 C 346.707 4.46387 -0.379828 0
M  V30 3505 C 348.451 4.01026 1.39208 0
M  V30 3506 C 346.358 5.91397 0.0184223 0
M  V30 3507 H 345.288 0.736942 0.159475 0
M  V30 3508 H 347.939 1.80827 -0.31205 0
M  V30 3509 H 346.321 3.63162 1.57891 0
M  V30 3510 H 347.495 4.46029 -1.15737 0
M  V30 3511 H 345.81 4.06734 -0.891979 0
M  V30 3512 H 348.407 5.0686 1.70286 0
M  V30 3513 H 348.75 3.46587 2.30614 0
M  V30 3514 H 349.283 3.92125 0.669537 0
M  V30 3515 H 346.022 6.49807 -0.862002 0
M  V30 3516 H 345.542 5.94961 0.760384 0
M  V30 3517 H 347.221 6.45455 0.446818 0
M  V30 3518 N 347.353 -0.0568162 1.57498 0
M  V30 3519 C 348.283 -1.06593 2.0775 0
M  V30 3520 C 349.264 -1.39448 0.974082 0
M  V30 3521 O 350.449 -1.48815 1.24771 0
M  V30 3522 C 347.579 -2.37509 2.5339 0
M  V30 3523 C 346.533 -2.1897 3.67745 0
M  V30 3524 C 345.859 -3.55402 3.99492 0
M  V30 3525 C 347.159 -1.59859 4.97235 0
M  V30 3526 H 348.853 -0.647706 2.9231 0
M  V30 3527 H 346.399 -0.310116 1.40621 0
M  V30 3528 H 348.352 -3.08409 2.87162 0
M  V30 3529 H 347.076 -2.8134 1.65878 0
M  V30 3530 H 345.735 -1.50508 3.3428 0
M  V30 3531 H 345.383 -3.9683 3.09088 0
M  V30 3532 H 345.083 -3.43831 4.76502 0
M  V30 3533 H 346.607 -4.27708 4.35773 0
M  V30 3534 H 348.021 -2.20642 5.29141 0
M  V30 3535 H 346.418 -1.58942 5.78669 0
M  V30 3536 H 347.488 -0.561506 4.81638 0
M  V30 3537 N 348.832 -1.54138 -0.328536 0
M  V30 3538 C 349.742 -1.86192 -1.42723 0
M  V30 3539 C 350.758 -0.753382 -1.56844 0
M  V30 3540 O 351.934 -1.04718 -1.72035 0
M  V30 3541 C 348.999 -2.07824 -2.77507 0
M  V30 3542 C 348.06 -3.31641 -2.72603 0
M  V30 3543 C 347.293 -3.52232 -4.00959 0
M  V30 3544 O 347.516 -2.7636 -4.9898 0
M  V30 3545 O 346.45 -4.45699 -4.0452 0
M  V30 3546 H 350.276 -2.79608 -1.18547 0
M  V30 3547 H 347.861 -1.3998 -0.522104 0
M  V30 3548 H 349.743 -2.23411 -3.57303 0
M  V30 3549 H 348.418 -1.17596 -3.01584 0
M  V30 3550 H 347.325 -3.21444 -1.91376 0
M  V30 3551 H 348.658 -4.2191 -2.53481 0
M  V30 3552 N 350.31 0.590341 -1.46126 0
M  V30 3553 C 351.273 1.68194 -1.55703 0
M  V30 3554 C 352.273 1.54808 -0.434868 0
M  V30 3555 O 353.463 1.59564 -0.698928 0
M  V30 3556 C 350.595 3.07575 -1.47005 0
M  V30 3557 H 351.788 1.61064 -2.52979 0
M  V30 3558 H 349.341 0.807541 -1.33823 0
M  V30 3559 H 350.076 3.20268 -0.509785 0
M  V30 3560 H 349.861 3.187 -2.28414 0
M  V30 3561 H 351.351 3.87055 -1.56776 0
M  V30 3562 N 351.788 1.33704 0.83433 0
M  V30 3563 C 352.698 1.26382 1.97648 0
M  V30 3564 C 353.714 0.173548 1.73132 0
M  V30 3565 O 354.89 0.397962 1.97429 0
M  V30 3566 C 351.955 1.00769 3.31733 0
M  V30 3567 C 351.016 2.1884 3.69334 0
M  V30 3568 C 350.249 1.9444 4.9702 0
M  V30 3569 O 350.472 0.896961 5.63303 0
M  V30 3570 O 349.406 2.81093 5.32231 0
M  V30 3571 H 353.232 2.22444 2.06767 0
M  V30 3572 H 350.817 1.13795 0.968037 0
M  V30 3573 H 352.699 0.882186 4.12062 0
M  V30 3574 H 351.374 0.0773783 3.23608 0
M  V30 3575 H 350.281 2.36946 2.89495 0
M  V30 3576 H 351.614 3.10221 3.82131 0
M  V30 3577 N 353.266 -1.05314 1.17247 0
M  V30 3578 C 354.196 -2.1498 0.911362 0
M  V30 3579 C 355.177 -1.69471 -0.146169 0
M  V30 3580 O 356.362 -1.942 0.003812 0
M  V30 3581 C 353.492 -3.4472 0.422528 0
M  V30 3582 C 352.446 -4.03789 1.4191 0
M  V30 3583 C 351.772 -5.28858 0.788274 0
M  V30 3584 C 353.072 -4.41418 2.7919 0
M  V30 3585 H 354.766 -2.3708 1.82848 0
M  V30 3586 H 352.312 -1.13938 0.880569 0
M  V30 3587 H 354.265 -4.20787 0.227289 0
M  V30 3588 H 352.989 -3.22269 -0.530123 0
M  V30 3589 H 351.648 -3.2979 1.60106 0
M  V30 3590 H 351.296 -5.02709 -0.171173 0
M  V30 3591 H 350.996 -5.69338 1.45353 0
M  V30 3592 H 352.52 -6.07612 0.603282 0
M  V30 3593 H 353.934 -5.08524 2.64719 0
M  V30 3594 H 352.331 -4.92913 3.42282 0
M  V30 3595 H 353.401 -3.51819 3.33693 0
M  V30 3596 N 354.744 -0.972509 -1.24016 0
M  V30 3597 C 355.707 -0.511403 -2.23422 0
M  V30 3598 C 356.707 0.394679 -1.55881 0
M  V30 3599 O 357.897 0.189469 -1.73167 0
M  V30 3600 C 355.029 0.258769 -3.39916 0
M  V30 3601 H 356.222 -1.39024 -2.6573 0
M  V30 3602 H 353.775 -0.757585 -1.36713 0
M  V30 3603 H 354.51 1.1545 -3.03054 0
M  V30 3604 H 354.295 -0.391522 -3.9014 0
M  V30 3605 H 355.785 0.570244 -4.13688 0
M  V30 3606 N 356.222 1.38976 -0.743202 0
M  V30 3607 C 357.468 2.0064 -0.295189 0
M  V30 3608 C 357.801 1.5885 1.11716 0
M  V30 3609 O 357.076 0.821181 1.76315 0
M  V30 3610 C 357.359 3.578 -0.406318 0
M  V30 3611 C 357.212 4.09586 -1.85903 0
M  V30 3612 C 358.531 4.39616 0.206439 0
M  V30 3613 H 355.65 0.728935 -0.108733 0
M  V30 3614 H 358.292 1.65067 -0.940897 0
M  V30 3615 H 356.442 3.88235 0.143419 0
M  V30 3616 H 358.114 3.89837 -2.46627 0
M  V30 3617 H 356.357 3.6284 -2.3776 0
M  V30 3618 H 357.028 5.18708 -1.888 0
M  V30 3619 H 359.504 4.15273 -0.262283 0
M  V30 3620 H 358.38 5.48812 0.0983819 0
M  V30 3621 H 358.641 4.22754 1.2935 0
M  V30 3622 N 357.7 0.491464 1.49741 0
M  V30 3623 C 358.61 -0.296835 2.32715 0
M  V30 3624 C 359.626 -0.976536 1.44013 0
M  V30 3625 O 360.802 -0.960023 1.77047 0
M  V30 3626 C 357.867 -1.35288 3.19215 0
M  V30 3627 C 356.928 -0.687632 4.23757 0
M  V30 3628 C 356.161 -1.69336 5.06123 0
M  V30 3629 O 356.384 -2.92219 4.89861 0
M  V30 3630 O 355.318 -1.25394 5.88693 0
M  V30 3631 H 359.144 0.382048 3.01287 0
M  V30 3632 H 356.729 0.252953 1.47243 0
M  V30 3633 H 358.611 -1.96411 3.72828 0
M  V30 3634 H 357.286 -2.01487 2.53347 0
M  V30 3635 H 356.193 -0.0369159 3.74082 0
M  V30 3636 H 357.526 -0.0682566 4.92153 0
M  V30 3637 N 359.178 -1.55987 0.224894 0
M  V30 3638 C 360.589 -1.84553 -0.282345 0
M  V30 3639 C 360.94 -1.14634 -1.59227 0
M  V30 3640 O 360.065 -0.417155 -2.12341 0
M  V30 3641 C 360.66 -3.348 -0.519062 0
M  V30 3642 C 359.219 -3.63671 -0.970604 0
M  V30 3643 C 358.366 -2.77277 -0.0355261 0
M  V30 3644 H 361.317 -1.52245 0.448006 0
M  V30 3645 H 361.338 -3.55187 -1.36463 0
M  V30 3646 H 360.85 -3.8566 0.43449 0
M  V30 3647 H 358.951 -3.1827 -1.9374 0
M  V30 3648 H 359.064 -4.71631 -0.842698 0
M  V30 3649 H 357.428 -2.48846 -0.542927 0
M  V30 3650 H 358.211 -3.30937 0.913003 0
M  V30 3651 N 360.656 0.0484629 -1.57525 0
M  V30 3652 C 361.603 1.05504 -2.05275 0
M  V30 3653 C 362.573 1.37084 -0.937927 0
M  V30 3654 O 363.758 1.47754 -1.2072 0
M  V30 3655 C 360.898 2.35676 -2.52093 0
M  V30 3656 C 360.011 2.10423 -3.77288 0
M  V30 3657 C 359.146 3.34327 -4.12794 0
M  V30 3658 C 358.185 3.04542 -5.30962 0
M  V30 3659 N 357.322 4.20841 -5.61994 0
M  V30 3660 H 362.162 0.640885 -2.91027 0
M  V30 3661 H 359.699 0.304854 -1.43906 0
M  V30 3662 H 361.657 3.11709 -2.77297 0
M  V30 3663 H 360.287 2.7485 -1.69285 0
M  V30 3664 H 359.339 1.24976 -3.59284 0
M  V30 3665 H 360.651 1.84438 -4.63448 0
M  V30 3666 H 359.805 4.1874 -4.39024 0
M  V30 3667 H 358.544 3.63408 -3.25247 0
M  V30 3668 H 357.549 2.18528 -5.04505 0
M  V30 3669 H 358.774 2.76758 -6.20146 0
M  V30 3670 H 356.72 4.4991 -4.77406 0
M  V30 3671 H 356.637 3.98212 -6.42622 0
M  V30 3672 H 357.905 5.06184 -5.92789 0
M  V30 3673 N 362.134 1.5431 0.320358 0
M  V30 3674 C 363.362 1.76636 1.07738 0
M  V30 3675 C 363.777 0.51649 1.81598 0
M  V30 3676 O 363.134 -0.512942 1.75143 0
M  V30 3677 C 363.185 2.96158 2.07299 0
M  V30 3678 O 362.906 4.16313 1.36438 0
M  V30 3679 C 364.407 3.3072 2.95193 0
M  V30 3680 H 361.627 0.589597 0.320339 0
M  V30 3681 H 364.171 2.01207 0.36551 0
M  V30 3682 H 362.326 2.73851 2.74016 0
M  V30 3683 H 362.74 4.83565 2.03138 0
M  V30 3684 H 364.214 4.17643 3.60941 0
M  V30 3685 H 364.691 2.48026 3.62463 0
M  V30 3686 H 365.297 3.55117 2.34034 0
M  V30 3687 N 363.613 -0.582584 1.46437 0
M  V30 3688 C 364.523 -1.71949 1.59595 0
M  V30 3689 C 365.539 -1.67264 0.479443 0
M  V30 3690 O 366.715 -1.87171 0.743579 0
M  V30 3691 C 363.78 -3.08452 1.58298 0
M  V30 3692 C 362.841 -3.244 2.81182 0
M  V30 3693 C 362.074 -4.54391 2.79937 0
M  V30 3694 O 362.297 -5.38287 1.8869 0
M  V30 3695 O 361.231 -4.73588 3.71481 0
M  V30 3696 H 365.057 -1.63795 2.55744 0
M  V30 3697 H 362.642 -0.749643 1.29231 0
M  V30 3698 H 364.524 -3.89732 1.60271 0
M  V30 3699 H 363.199 -3.17043 0.653094 0
M  V30 3700 H 362.106 -2.42613 2.84763 0
M  V30 3701 H 363.439 -3.20699 3.7338 0
M  V30 3702 N 365.091 -1.34144 -0.827227 0
M  V30 3703 C 366.319 -1.29325 -1.61501 0
M  V30 3704 C 366.734 0.13354 -1.88327 0
M  V30 3705 O 366.091 1.0793 -1.47164 0
M  V30 3706 C 366.142 -2.07746 -2.95844 0
M  V30 3707 O 365.863 -3.4486 -2.70191 0
M  V30 3708 C 367.364 -2.10273 -3.90256 0
M  V30 3709 H 364.584 -0.445069 -0.50215 0
M  V30 3710 H 367.128 -1.76693 -1.02955 0
M  V30 3711 H 365.283 -1.6403 -3.5096 0
M  V30 3712 H 365.697 -3.85345 -3.55822 0
M  V30 3713 H 367.171 -2.69575 -4.81698 0
M  V30 3714 H 367.648 -1.096 -4.25305 0
M  V30 3715 H 368.254 -2.54059 -3.41078 0
M  V30 3716 N 366.569 1.04691 -1.17803 0
M  V30 3717 C 367.799 1.81183 -0.992788 0
M  V30 3718 C 368.207 1.8347 0.462098 0
M  V30 3719 O 367.55 1.2643 1.33271 0
M  V30 3720 C 367.612 3.28363 -1.46349 0
M  V30 3721 C 367.276 3.49749 -2.94151 0
M  V30 3722 C 368.273 3.41456 -3.92051 0
M  V30 3723 C 365.958 3.76548 -3.32441 0
M  V30 3724 C 367.952 3.59656 -5.26238 0
M  V30 3725 C 365.639 3.94396 -4.66792 0
M  V30 3726 C 366.637 3.8595 -5.635 0
M  V30 3727 O 366.325 4.03294 -6.9542 0
M  V30 3728 H 366.057 0.577622 -0.351182 0
M  V30 3729 H 368.611 1.32876 -1.5663 0
M  V30 3730 H 366.841 3.77609 -0.833574 0
M  V30 3731 H 368.53 3.86395 -1.24313 0
M  V30 3732 H 369.296 3.20723 -3.63815 0
M  V30 3733 H 365.175 3.82224 -2.57732 0
M  V30 3734 H 368.719 3.52979 -6.01707 0
M  V30 3735 H 364.616 4.14622 -4.94731 0
M  V30 3736 H 365.384 4.2049 -7.02232 0
M  V30 3737 N 368.047 0.979072 1.23499 0
M  V30 3738 C 369.293 0.648178 1.92163 0
M  V30 3739 C 369.626 -0.816049 1.76222 0
M  V30 3740 O 368.901 -1.58849 1.12237 0
M  V30 3741 C 369.184 1.03773 3.44824 0
M  V30 3742 C 369.037 2.55948 3.69879 0
M  V30 3743 C 370.356 0.580653 4.36253 0
M  V30 3744 H 367.475 0.236952 0.69787 0
M  V30 3745 H 370.117 1.22012 1.45647 0
M  V30 3746 H 368.267 0.551058 3.84572 0
M  V30 3747 H 369.939 3.12179 3.3962 0
M  V30 3748 H 368.182 2.98641 3.14636 0
M  V30 3749 H 368.853 2.78255 4.76737 0
M  V30 3750 H 371.329 0.998465 4.03943 0
M  V30 3751 H 370.205 0.881663 5.41773 0
M  V30 3752 H 370.466 -0.519052 4.39042 0
M  V30 3753 N 369.525 -1.3858 0.750561 0
M  V30 3754 C 370.435 -2.34278 0.122825 0
M  V30 3755 C 371.451 -1.59116 -0.704131 0
M  V30 3756 O 372.627 -1.91326 -0.628987 0
M  V30 3757 C 369.692 -3.38221 -0.762086 0
M  V30 3758 C 368.753 -4.29227 0.078896 0
M  V30 3759 C 367.986 -5.28205 -0.763874 0
M  V30 3760 O 368.209 -5.34112 -2.00201 0
M  V30 3761 O 367.143 -6.01618 -0.18428 0
M  V30 3762 H 370.969 -2.89649 0.913088 0
M  V30 3763 H 368.554 -1.40374 0.511417 0
M  V30 3764 H 370.436 -4.01872 -1.26793 0
M  V30 3765 H 369.111 -2.85211 -1.5309 0
M  V30 3766 H 368.018 -3.68747 0.630621 0
M  V30 3767 H 369.351 -4.85484 0.810289 0
M  V30 3768 N 371.003 -0.499398 -1.49478 0
M  V30 3769 C 371.966 0.268838 -2.27618 0
M  V30 3770 C 372.966 0.895383 -1.33565 0
M  V30 3771 O 374.156 0.760164 -1.56739 0
M  V30 3772 C 371.288 1.38559 -3.11471 0
M  V30 3773 H 372.481 -0.416812 -2.96989 0
M  V30 3774 H 370.034 -0.254313 -1.54217 0
M  V30 3775 H 370.769 2.10544 -2.46661 0
M  V30 3776 H 370.554 0.941797 -3.80621 0
M  V30 3777 H 372.044 1.92678 -3.70493 0
M  V30 3778 N 372.481 1.55866 -0.233164 0
M  V30 3779 C 373.429 2.22176 0.68851 0
M  V30 3780 C 374.423 1.20487 1.19076 0
M  V30 3781 O 375.629 1.38536 1.14925 0
M  V30 3782 H 372.004 0.712511 0.240483 0
M  V30 3783 H 373.975 2.98212 0.105935 0
M  V30 3784 C 372.724 2.92446 1.88071 0
M  V30 3785 H 372.047 3.70458 1.50337 0
M  V30 3786 H 373.487 3.42226 2.50314 0
M  V30 3787 C 371.946 1.95555 2.74335 0
M  V30 3788 O 372.476 1.47986 3.73447 0
M  V30 3789 N 370.682 1.62953 2.40613 0
M  V30 3790 H 370.229 2.01831 1.60069 0
M  V30 3791 H 370.187 0.983886 2.98609 0
M  V30 3792 N 373.959 -0.0401083 1.57549 0
M  V30 3793 C 374.892 -1.07689 2.01192 0
M  V30 3794 C 375.87 -1.358 0.894273 0
M  V30 3795 O 377.054 -1.48642 1.15921 0
M  V30 3796 C 374.181 -2.41418 2.3756 0
M  V30 3797 C 373.227 -2.29237 3.59656 0
M  V30 3798 S 374.06 -1.65628 5.09242 0
M  V30 3799 C 375.216 -3.0087 5.48843 0
M  V30 3800 H 375.449 -0.705108 2.88817 0
M  V30 3801 H 372.982 -0.249724 1.52367 0
M  V30 3802 H 374.94 -3.18329 2.59186 0
M  V30 3803 H 373.601 -2.75747 1.50407 0
M  V30 3804 H 372.794 -3.27932 3.82722 0
M  V30 3805 H 372.396 -1.60469 3.37825 0
M  V30 3806 H 374.688 -3.97201 5.48851 0
M  V30 3807 H 375.631 -2.82549 6.49286 0
M  V30 3808 H 376.039 -3.02934 4.76331 0
M  V30 3809 N 375.437 -1.54477 -0.31217 0
M  V30 3810 C 376.685 -1.72884 -1.04668 0
M  V30 3811 C 377.006 -0.511477 -1.88173 0
M  V30 3812 O 376.276 0.474407 -1.90069 0
M  V30 3813 H 374.856 -0.637461 -0.389425 0
M  V30 3814 H 377.518 -1.91807 -0.345852 0
M  V30 3815 H 376.614 -2.61334 -1.70619 0
M  V30 3816 N 376.915 0.57481 -1.46744 0
M  V30 3817 C 377.845 1.69337 -1.60771 0
M  V30 3818 C 378.826 1.63825 -0.457736 0
M  V30 3819 O 380.011 1.8172 -0.684947 0
M  V30 3820 C 377.141 3.0798 -1.60517 0
M  V30 3821 C 376.095 3.28327 -2.74564 0
M  V30 3822 C 375.421 4.67578 -2.59373 0
M  V30 3823 C 376.721 3.15398 -4.16319 0
M  V30 3824 H 378.415 1.57853 -2.54407 0
M  V30 3825 H 375.961 0.75799 -1.22436 0
M  V30 3826 H 377.914 3.86061 -1.68923 0
M  V30 3827 H 376.638 3.20381 -0.634305 0
M  V30 3828 H 375.297 2.52649 -2.65639 0
M  V30 3829 H 374.945 4.76755 -1.60353 0
M  V30 3830 H 374.645 4.82144 -3.35873 0
M  V30 3831 H 376.169 5.47817 -2.69682 0
M  V30 3832 H 377.583 3.83315 -4.26313 0
M  V30 3833 H 375.98 3.41482 -4.93468 0
M  V30 3834 H 377.05 2.12372 -4.3592 0
M  V30 3835 N 378.394 1.34581 0.820102 0
M  V30 3836 C 379.342 1.26401 1.95258 0
M  V30 3837 C 380.336 0.161553 1.68628 0
M  V30 3838 O 381.542 0.326703 1.7701 0
M  V30 3839 H 377.917 0.392749 0.64129 0
M  V30 3840 H 379.888 2.22105 1.99279 0
M  V30 3841 C 378.637 1.03919 3.31807 0
M  V30 3842 H 377.96 1.87984 3.52848 0
M  V30 3843 H 379.4 1.02232 4.11491 0
M  V30 3844 C 377.859 -0.257433 3.35915 0
M  V30 3845 O 378.389 -1.25784 3.81499 0
M  V30 3846 N 376.595 -0.291524 2.89134 0
M  V30 3847 H 376.142 0.523161 2.52232 0
M  V30 3848 H 376.1 -1.15883 2.92264 0
M  V30 3849 N 379.872 -1.04064 1.18357 0
M  V30 3850 C 381.283 -1.58719 0.98312 0
M  V30 3851 C 381.634 -1.90556 -0.467193 0
M  V30 3852 O 380.759 -1.69561 -1.34454 0
M  V30 3853 C 381.354 -2.88379 1.77828 0
M  V30 3854 C 379.913 -3.3965 1.62218 0
M  V30 3855 C 379.06 -2.13235 1.77274 0
M  V30 3856 H 382.011 -0.867359 1.32901 0
M  V30 3857 H 382.032 -3.58773 1.26737 0
M  V30 3858 H 381.544 -2.65176 2.83379 0
M  V30 3859 H 379.645 -3.67866 0.592036 0
M  V30 3860 H 379.758 -4.13475 2.42023 0
M  V30 3861 H 378.122 -2.24542 1.20221 0
M  V30 3862 H 378.905 -1.92487 2.8426 0
M  V30 3863 N 381.35 -0.985608 -1.22978 0
M  V30 3864 C 382.575 -0.675254 -1.961 0
M  V30 3865 C 383 0.752154 -1.72407 0
M  V30 3866 O 382.358 1.5131 -0.998751 0
M  V30 3867 C 382.406 -0.977899 -3.47087 0
M  V30 3868 O 381.51 -0.072685 -4.12336 0
M  V30 3869 H 380.851 -0.253443 -0.613728 0
M  V30 3870 H 383.381 -1.32061 -1.56272 0
M  V30 3871 H 383.391 -0.916739 -3.97567 0
M  V30 3872 H 382.066 -2.01807 -3.63657 0
M  V30 3873 H 380.643 -0.188703 -3.72422 0
M  V30 3874 N 382.828 1.3818 -0.7579 0
M  V30 3875 C 384.053 2.04827 -0.325679 0
M  V30 3876 C 384.478 1.56788 1.03919 0
M  V30 3877 O 383.836 0.721811 1.66312 0
M  V30 3878 C 383.884 3.58774 -0.362447 0
M  V30 3879 O 382.988 4.07372 0.642033 0
M  V30 3880 H 382.329 0.64833 -0.143402 0
M  V30 3881 H 384.859 1.7677 -1.03023 0
M  V30 3882 H 384.869 4.07434 -0.214844 0
M  V30 3883 H 383.544 3.93096 -1.35824 0
M  V30 3884 H 382.121 3.70068 0.458688 0
M  V30 3885 N 384.306 0.507319 1.49211 0
M  V30 3886 C 385.717 0.0611118 1.866 0
M  V30 3887 C 386.068 -1.35488 1.41907 0
M  V30 3888 O 385.193 -2.0108 0.799726 0
M  V30 3889 C 385.788 0.104125 3.3864 0
M  V30 3890 C 384.347 -0.28677 3.75306 0
M  V30 3891 C 383.494 0.473893 2.73221 0
M  V30 3892 H 386.445 0.719775 1.41439 0
M  V30 3893 H 386.466 -0.689672 3.74198 0
M  V30 3894 H 385.978 1.13482 3.71138 0
M  V30 3895 H 384.079 -1.32046 3.48417 0
M  V30 3896 H 384.192 0.0370745 4.79086 0
M  V30 3897 H 382.556 -0.0770644 2.54583 0
M  V30 3898 H 383.339 1.50478 3.08563 0
M  V30 3899 N 385.784 -1.5574 0.241426 0
M  V30 3900 C 386.732 -2.22538 -0.676718 0
M  V30 3901 C 387.726 -1.21117 -1.18436 0
M  V30 3902 O 388.932 -1.39144 -1.14188 0
M  V30 3903 H 385.307 -0.713776 -0.236701 0
M  V30 3904 H 387.278 -2.98264 -0.0901187 0
M  V30 3905 C 386.027 -2.93439 -1.86518 0
M  V30 3906 H 385.35 -3.7125 -1.4837 0
M  V30 3907 H 386.79 -3.43549 -2.48495 0
M  V30 3908 C 385.249 -1.97008 -2.73294 0
M  V30 3909 O 385.779 -1.49965 -3.72657 0
M  V30 3910 N 383.985 -1.64227 -2.39745 0
M  V30 3911 H 383.532 -2.02677 -1.58996 0
M  V30 3912 H 383.49 -0.999708 -2.98083 0
M  V30 3913 N 387.262 0.0317525 -1.57568 0
M  V30 3914 C 388.539 0.758366 -1.803 0
M  V30 3915 C 388.919 1.93718 -0.838845 0
M  V30 3916 O 388.267 2.28187 0.119571 0
M  V30 3917 C 388.477 1.19392 -3.27943 0
M  V30 3918 C 389.825 1.61094 -3.92854 0
M  V30 3919 O 390.849 1.28857 -3.32076 0
M  V30 3920 O 389.708 2.20918 -4.99858 0
M  V30 3921 H 386.802 0.366514 -0.741348 0
M  V30 3922 H 389.348 0.00873765 -1.69698 0
M  V30 3923 H 388.12 0.352275 -3.89711 0
M  V30 3924 H 387.743 2.00365 -3.43424 0
M  V30 3925 N 388.74 1.54641 0.303973 0
M  V30 3926 C 390.151 1.64811 0.877163 0
M  V30 3927 C 390.502 0.554838 1.88191 0
M  V30 3928 O 389.627 -0.309033 2.14182 0
M  V30 3929 C 390.222 2.9876 1.59775 0
M  V30 3930 C 388.781 3.11061 2.11938 0
M  V30 3931 C 387.928 2.60479 0.951097 0
M  V30 3932 H 390.879 1.58493 0.0810486 0
M  V30 3933 H 390.9 2.90017 2.46314 0
M  V30 3934 H 390.412 3.7831 0.866226 0
M  V30 3935 H 388.513 2.36225 2.88146 0
M  V30 3936 H 388.626 4.17171 2.35595 0
M  V30 3937 H 386.99 2.16859 1.33583 0
M  V30 3938 H 387.773 3.42504 0.233581 0
M  V30 3939 N 390.218 -0.567019 1.47046 0
M  V30 3940 C 391.464 -1.32658 1.53394 0
M  V30 3941 C 391.797 -1.93254 0.19148 0
M  V30 3942 O 391.072 -1.77338 -0.798844 0
M  V30 3943 C 391.355 -2.44412 2.64452 0
M  V30 3944 C 391.208 -1.88749 4.08282 0
M  V30 3945 C 392.527 -3.46387 2.71485 0
M  V30 3946 H 389.646 -0.48098 0.558415 0
M  V30 3947 H 392.288 -0.635481 1.79058 0
M  V30 3948 H 390.438 -3.03363 2.427 0
M  V30 3949 H 392.11 -1.34134 4.41368 0
M  V30 3950 H 390.353 -1.19481 4.17021 0
M  V30 3951 H 391.024 -2.69491 4.81745 0
M  V30 3952 H 393.5 -2.9734 2.91081 0
M  V30 3953 H 392.376 -4.2202 3.50985 0
M  V30 3954 H 392.637 -4.04616 1.78153 0
M  V30 3955 N 391.696 -1.35014 -0.812953 0
M  V30 3956 C 392.924 -1.31031 -1.6012 0
M  V30 3957 C 393.339 0.113558 -1.88458 0
M  V30 3958 O 392.696 1.06363 -1.48301 0
M  V30 3959 C 392.747 -2.10872 -2.93624 0
M  V30 3960 O 392.468 -3.47706 -2.66518 0
M  V30 3961 C 393.969 -2.14401 -3.88004 0
M  V30 3962 H 391.189 -0.45037 -0.497401 0
M  V30 3963 H 393.733 -1.77775 -1.01076 0
M  V30 3964 H 391.888 -1.67744 -3.492 0
M  V30 3965 H 392.302 -3.89097 -3.51715 0
M  V30 3966 H 393.776 -2.74669 -4.78812 0
M  V30 3967 H 394.253 -1.14105 -4.24119 0
M  V30 3968 H 394.859 -2.57662 -3.38364 0
M  V30 3969 N 393.175 1.03435 -1.18907 0
M  V30 3970 C 394.123 2.13703 -0.918353 0
M  V30 3971 C 395.117 1.68947 0.123767 0
M  V30 3972 O 396.323 1.79983 -0.0249701 0
M  V30 3973 H 392.698 0.698112 -0.279542 0
M  V30 3974 H 394.669 2.33731 -1.85506 0
M  V30 3975 C 393.418 3.44542 -0.467532 0
M  V30 3976 H 392.741 3.79394 -1.26095 0
M  V30 3977 H 394.181 4.22812 -0.317164 0
M  V30 3978 C 392.64 3.26829 0.817588 0
M  V30 3979 O 393.17 3.54975 1.88031 0
M  V30 3980 N 391.376 2.80139 0.772677 0
M  V30 3981 H 390.923 2.57434 -0.0923883 0
M  V30 3982 H 390.881 2.68668 1.63294 0
M  V30 3983 N 394.653 0.992116 1.22453 0
M  V30 3984 C 395.902 0.662992 1.90492 0
M  V30 3985 C 396.215 -0.808407 1.78113 0
M  V30 3986 O 397.421 -1.24908 2.41061 0
M  V30 3987 C 395.877 1.1353 3.41524 0
M  V30 3988 C 395.485 2.63187 3.62542 0
M  V30 3989 C 397.229 0.880465 4.15269 0
M  V30 3990 C 395.136 3.04024 5.0727 0
M  V30 3991 H 394.066 0.244278 0.713333 0
M  V30 3992 H 396.717 1.20157 1.38688 0
M  V30 3993 H 395.099 0.52485 3.92506 0
M  V30 3994 H 396.273 3.2957 3.22056 0
M  V30 3995 H 394.588 2.86543 3.02129 0
M  V30 3996 H 397.185 1.16128 5.21937 0
M  V30 3997 H 397.528 -0.183408 4.15896 0
M  V30 3998 H 398.061 1.45307 3.70312 0
M  V30 3999 H 394.8 4.09584 5.11782 0
M  V30 4000 H 394.32 2.42343 5.48662 0
M  V30 4001 H 395.999 2.95282 5.75689 0
M  V30 4002 N 396.131 -1.37776 0.765217 0
M  V30 4003 C 397.371 -2.01691 0.331669 0
M  V30 4004 C 397.735 -1.59432 -1.06983 0
M  V30 4005 O 398.936 -2.15761 -1.60314 0
M  V30 4006 C 397.207 -3.54385 0.463261 0
M  V30 4007 S 398.766 -4.38652 0.114011 0
M  V30 4008 H 395.584 -0.699387 0.127979 0
M  V30 4009 H 398.186 -1.68084 0.998396 0
M  V30 4010 H 396.89 -3.82629 1.48401 0
M  V30 4011 H 396.421 -3.92783 -0.220246 0
M  V30 4012 H 398.436 -4.84021 -1.09261 0
M  V30 4013 N 397.609 -0.515225 -1.4894 0
M  V30 4014 C 398.541 0.292481 -2.27326 0
M  V30 4015 C 399.554 0.917838 -1.3446 0
M  V30 4016 O 400.743 0.798772 -1.5963 0
M  V30 4017 C 397.843 1.42803 -3.07344 0
M  V30 4018 C 397.016 0.907347 -4.27885 0
M  V30 4019 C 396.075 1.92222 -4.89834 0
M  V30 4020 O 395.101 1.48506 -5.49486 0
M  V30 4021 N 396.303 3.25355 -4.80754 0
M  V30 4022 H 399.068 -0.379721 -2.97285 0
M  V30 4023 H 396.629 -0.348638 -1.58102 0
M  V30 4024 H 398.621 2.10481 -3.45658 0
M  V30 4025 H 397.191 2.00414 -2.39902 0
M  V30 4026 H 396.411 0.0550218 -3.94162 0
M  V30 4027 H 397.699 0.538108 -5.05946 0
M  V30 4028 H 397.097 3.6355 -4.33414 0
M  V30 4029 H 395.654 3.88707 -5.23211 0
M  V30 4030 N 399.087 1.5561 -0.249682 0
M  V30 4031 C 400.05 2.20217 0.635394 0
M  V30 4032 C 401.05 1.17227 1.10066 0
M  V30 4033 O 402.24 1.42292 1.00492 0
M  V30 4034 C 399.372 2.84794 1.87363 0
M  V30 4035 H 400.565 2.99814 0.0716752 0
M  V30 4036 H 398.118 1.563 -0.000153234 0
M  V30 4037 H 398.853 2.09142 2.47851 0
M  V30 4038 H 398.638 3.60241 1.5482 0
M  V30 4039 H 400.128 3.3423 2.5036 0
M  V30 4040 N 400.565 -0.0233959 1.57583 0
M  V30 4041 C 401.528 -1.00693 2.05897 0
M  V30 4042 C 402.528 -1.28693 0.964092 0
M  V30 4043 O 403.718 -1.23602 1.22753 0
M  V30 4044 C 400.85 -2.33825 2.4807 0
M  V30 4045 H 402.043 -0.589476 2.9405 0
M  V30 4046 H 399.596 -0.270354 1.53944 0
M  V30 4047 H 400.331 -2.80307 1.6309 0
M  V30 4048 H 400.116 -2.1483 3.2801 0
M  V30 4049 H 401.606 -3.04426 2.85857 0
M  V30 4050 N 402.043 -1.548 -0.295768 0
M  V30 4051 C 403.32 -1.65014 -1.05023 0
M  V30 4052 C 403.7 -0.501805 -2.05049 0
M  V30 4053 O 403.048 0.500869 -2.22943 0
M  V30 4054 C 403.258 -3.03252 -1.72741 0
M  V30 4055 C 404.606 -3.60242 -2.24746 0
M  V30 4056 O 405.63 -3.05737 -1.82765 0
M  V30 4057 O 404.489 -4.55687 -3.01681 0
M  V30 4058 H 401.583 -0.669314 -0.485744 0
M  V30 4059 H 404.129 -1.67144 -0.293438 0
M  V30 4060 H 402.901 -3.7827 -1.00138 0
M  V30 4061 H 402.524 -3.04922 -2.55163 0
M  V30 4062 N 403.521 0.559213 -1.47345 0
M  V30 4063 C 404.468 1.66645 -1.59682 0
M  V30 4064 C 405.438 1.60168 -0.43994 0
M  V30 4065 O 406.623 1.79031 -0.659736 0
M  V30 4066 C 403.763 3.04969 -1.61518 0
M  V30 4067 C 402.876 3.21897 -2.88108 0
M  V30 4068 C 402.011 4.50608 -2.81294 0
M  V30 4069 C 401.05 4.60961 -4.02717 0
M  V30 4070 N 400.187 5.81024 -3.94151 0
M  V30 4071 H 405.027 1.55439 -2.54249 0
M  V30 4072 H 402.564 0.757219 -1.26113 0
M  V30 4073 H 404.522 3.85064 -1.60566 0
M  V30 4074 H 403.152 3.15015 -0.704645 0
M  V30 4075 H 402.204 2.35248 -2.98936 0
M  V30 4076 H 403.516 3.25412 -3.78032 0
M  V30 4077 H 402.67 5.3896 -2.7858 0
M  V30 4078 H 401.409 4.49568 -1.89049 0
M  V30 4079 H 400.414 3.71021 -4.05738 0
M  V30 4080 H 401.639 4.63761 -4.96087 0
M  V30 4081 H 399.585 5.80938 -3.04708 0
M  V30 4082 H 399.502 5.85909 -4.77752 0
M  V30 4083 H 400.77 6.71744 -3.9545 0
M  V30 4084 N 404.999 1.35443 0.805782 0
M  V30 4085 C 405.931 1.24285 1.92577 0
M  V30 4086 C 406.944 0.165962 1.61952 0
M  V30 4087 O 408.133 0.419303 1.73505 0
M  V30 4088 C 405.233 0.891272 3.2697 0
M  V30 4089 C 404.406 2.06669 3.85495 0
M  V30 4090 C 403.465 1.69077 4.98297 0
M  V30 4091 O 402.491 2.4096 5.15681 0
M  V30 4092 N 403.693 0.614869 5.77234 0
M  V30 4093 H 406.458 2.20777 2.02676 0
M  V30 4094 H 404.019 1.28623 0.983243 0
M  V30 4095 H 406.011 0.621256 3.99903 0
M  V30 4096 H 404.581 0.016004 3.12596 0
M  V30 4097 H 403.801 2.50046 3.04747 0
M  V30 4098 H 405.089 2.85237 4.21328 0
M  V30 4099 H 404.487 0.017648 5.65697 0
M  V30 4100 H 403.044 0.404636 6.50543 0
M  V30 4101 N 406.477 -1.02803 1.19454 0
M  V30 4102 C 407.407 -2.12999 0.956758 0
M  V30 4103 C 408.388 -1.69743 -0.110188 0
M  V30 4104 O 409.573 -1.94148 0.0450038 0
M  V30 4105 C 406.703 -3.43746 0.495553 0
M  V30 4106 C 405.657 -4.00688 1.50443 0
M  V30 4107 C 404.983 -5.27067 0.900275 0
M  V30 4108 C 406.283 -4.35397 2.8849 0
M  V30 4109 H 407.977 -2.33148 1.87836 0
M  V30 4110 H 405.523 -1.12045 0.904539 0
M  V30 4111 H 407.476 -4.2021 0.316493 0
M  V30 4112 H 406.2 -3.23321 -0.461646 0
M  V30 4113 H 404.859 -3.2632 1.67065 0
M  V30 4114 H 404.507 -5.02959 -0.064503 0
M  V30 4115 H 404.207 -5.66127 1.57397 0
M  V30 4116 H 405.731 -6.06196 0.73203 0
M  V30 4117 H 407.145 -5.02795 2.75446 0
M  V30 4118 H 405.542 -4.85541 3.52661 0
M  V30 4119 H 406.612 -3.44662 3.41081 0
M  V30 4120 N 407.956 -0.998596 -1.21925 0
M  V30 4121 C 409.203 -0.677663 -1.90824 0
M  V30 4122 C 409.531 0.790905 -1.77693 0
M  V30 4123 O 408.786 1.58817 -1.14349 0
M  V30 4124 C 409.085 -1.03648 -3.42041 0
M  V30 4125 C 408.751 -2.49825 -3.75364 0
M  V30 4126 C 407.413 -2.8977 -3.8417 0
M  V30 4127 C 409.765 -3.44545 -3.91073 0
M  V30 4128 C 407.093 -4.23412 -4.06127 0
M  V30 4129 C 409.445 -4.77853 -4.14535 0
M  V30 4130 C 408.109 -5.17531 -4.21566 0
M  V30 4131 H 407.379 -0.247975 -0.698276 0
M  V30 4132 H 410.026 -1.25584 -1.44571 0
M  V30 4133 H 408.331 -0.376457 -3.89987 0
M  V30 4134 H 410.028 -0.766113 -3.93614 0
M  V30 4135 H 406.618 -2.17866 -3.69097 0
M  V30 4136 H 410.802 -3.14853 -3.83642 0
M  V30 4137 H 406.058 -4.53734 -4.09799 0
M  V30 4138 H 410.232 -5.51189 -4.25633 0
M  V30 4139 H 407.859 -6.21102 -4.38333 0
M  V30 4140 N 409.434 1.37368 -0.772513 0
M  V30 4141 C 410.662 2.03942 -0.348588 0
M  V30 4142 C 411.077 1.58264 1.02947 0
M  V30 4143 O 410.434 0.764246 1.65727 0
M  V30 4144 C 410.485 3.5946 -0.38351 0
M  V30 4145 O 410.206 4.03468 -1.70721 0
M  V30 4146 C 411.707 4.4327 0.0519152 0
M  V30 4147 H 408.927 0.654931 -0.145966 0
M  V30 4148 H 411.471 1.75686 -1.04665 0
M  V30 4149 H 409.626 3.86486 0.265978 0
M  V30 4150 H 410.04 4.97991 -1.64636 0
M  V30 4151 H 411.514 5.51995 -0.0236733 0
M  V30 4152 H 411.991 4.2514 1.10238 0
M  V30 4153 H 412.597 4.21471 -0.569415 0
M  V30 4154 N 410.912 0.523116 1.48665 0
M  V30 4155 C 411.842 -0.23231 2.32342 0
M  V30 4156 C 412.823 -0.941637 1.41659 0
M  V30 4157 O 414.008 -0.928751 1.70552 0
M  V30 4158 C 411.138 -1.28387 3.22698 0
M  V30 4159 C 410.092 -0.693098 4.22351 0
M  V30 4160 C 409.418 -1.8468 5.01794 0
M  V30 4161 C 410.718 0.33063 5.21252 0
M  V30 4162 H 412.412 0.466192 2.95748 0
M  V30 4163 H 409.958 0.225643 1.42221 0
M  V30 4164 H 411.911 -1.82024 3.80059 0
M  V30 4165 H 410.635 -2.01186 2.57278 0
M  V30 4166 H 409.294 -0.178299 3.66166 0
M  V30 4167 H 408.942 -2.56301 4.32804 0
M  V30 4168 H 408.642 -1.45747 5.69238 0
M  V30 4169 H 410.166 -2.38709 5.62006 0
M  V30 4170 H 411.58 -0.118407 5.73178 0
M  V30 4171 H 409.977 0.636974 5.9671 0
M  V30 4172 H 411.047 1.23883 4.68808 0
M  V30 4173 N 412.39 -1.55475 0.257931 0
M  V30 4174 C 413.636 -1.99502 -0.364266 0
M  V30 4175 C 413.969 -1.146 -1.56782 0
M  V30 4176 O 413.244 -0.211968 -1.93342 0
M  V30 4177 C 413.527 -3.51917 -0.763333 0
M  V30 4178 C 413.38 -4.4758 0.446371 0
M  V30 4179 C 414.699 -4.09742 -1.60623 0
M  V30 4180 H 411.818 -0.725277 -0.130929 0
M  V30 4181 H 414.46 -1.8653 0.361446 0
M  V30 4182 H 412.61 -3.63101 -1.38166 0
M  V30 4183 H 414.282 -4.48362 1.08487 0
M  V30 4184 H 412.525 -4.19947 1.08753 0
M  V30 4185 H 413.196 -5.51862 0.123645 0
M  V30 4186 H 415.672 -4.01727 -1.08418 0
M  V30 4187 H 414.548 -5.16631 -1.85429 0
M  V30 4188 H 414.809 -3.58889 -2.58169 0
M  V30 4189 N 413.868 0.0150385 -1.57593 0
M  V30 4190 C 414.778 1.02791 -2.10882 0
M  V30 4191 C 415.794 1.38702 -1.0506 0
M  V30 4192 O 416.97 1.47739 -1.36877 0
M  V30 4193 C 414.035 2.30568 -2.58919 0
M  V30 4194 C 413.096 2.01108 -3.79281 0
M  V30 4195 C 412.329 3.22794 -4.25018 0
M  V30 4196 O 412.552 4.33959 -3.70183 0
M  V30 4197 O 411.486 3.07672 -5.17322 0
M  V30 4198 H 415.312 0.604973 -2.97613 0
M  V30 4199 H 412.897 0.23292 -1.47573 0
M  V30 4200 H 414.779 3.05662 -2.90084 0
M  V30 4201 H 413.454 2.72129 -1.75293 0
M  V30 4202 H 412.361 1.23537 -3.53114 0
M  V30 4203 H 413.694 1.64394 -4.63935 0
M  V30 4204 N 415.346 1.54954 0.287554 0
M  V30 4205 C 416.592 1.76059 1.01856 0
M  V30 4206 C 416.947 0.547056 1.84459 0
M  V30 4207 O 416.24 -0.460442 1.85985 0
M  V30 4208 C 416.434 2.99833 1.94512 0
M  V30 4209 C 416.263 4.33108 1.21026 0
M  V30 4210 C 415.033 4.96632 0.931896 0
M  V30 4211 C 417.231 5.10694 0.607949 0
M  V30 4212 N 415.213 6.13668 0.168716 0
M  V30 4213 C 416.584 6.19996 -0.0217865 0
M  V30 4214 C 418.639 4.95236 0.514338 0
M  V30 4215 C 417.342 7.15524 -0.736092 0
M  V30 4216 C 419.368 5.91106 -0.186343 0
M  V30 4217 C 418.73 6.99786 -0.804875 0
M  V30 4218 H 414.829 0.696679 0.355193 0
M  V30 4219 H 417.413 1.92441 0.295741 0
M  V30 4220 H 415.584 2.84853 2.64033 0
M  V30 4221 H 417.316 3.09405 2.60865 0
M  V30 4222 H 414.071 4.57255 1.23348 0
M  V30 4223 H 414.495 6.76705 -0.199781 0
M  V30 4224 H 419.137 4.11328 0.978234 0
M  V30 4225 H 416.855 7.98964 -1.21172 0
M  V30 4226 H 420.441 5.81224 -0.258897 0
M  V30 4227 H 419.321 7.72694 -1.33843 0
M  V30 4228 N 416.824 -0.551391 1.4764 0
M  V30 4229 C 417.787 -1.64007 1.60107 0
M  V30 4230 C 418.787 -1.53601 0.47576 0
M  V30 4231 O 419.977 -1.57655 0.740988 0
M  V30 4232 C 417.109 -3.03569 1.55108 0
M  V30 4233 H 418.302 -1.543 2.57161 0
M  V30 4234 H 415.855 -0.771776 1.35917 0
M  V30 4235 H 416.59 -3.18804 0.594519 0
M  V30 4236 H 416.375 -3.12532 2.36783 0
M  V30 4237 H 417.865 -3.82762 1.66982 0
M  V30 4238 N 418.302 -1.35869 -0.798587 0
M  V30 4239 C 419.249 -1.29446 -1.91082 0
M  V30 4240 C 420.219 -0.16487 -1.6528 0
M  V30 4241 O 421.404 -0.349888 -1.87564 0
M  V30 4242 C 418.544 -1.0804 -3.27752 0
M  V30 4243 C 417.657 -2.29993 -3.65687 0
M  V30 4244 C 416.792 -2.01673 -4.91428 0
M  V30 4245 C 415.831 -3.19636 -5.22015 0
M  V30 4246 N 414.968 -2.91039 -6.38937 0
M  V30 4247 H 419.808 -2.24553 -1.95907 0
M  V30 4248 H 417.345 -1.11615 -0.958148 0
M  V30 4249 H 419.303 -0.936586 -4.06551 0
M  V30 4250 H 417.933 -0.16592 -3.22373 0
M  V30 4251 H 416.985 -2.55211 -2.82085 0
M  V30 4252 H 418.297 -3.18052 -3.84245 0
M  V30 4253 H 417.451 -1.84168 -5.78072 0
M  V30 4254 H 416.19 -1.10911 -4.74921 0
M  V30 4255 H 415.195 -3.37709 -4.33858 0
M  V30 4256 H 416.42 -4.11211 -5.40447 0
M  V30 4257 H 414.366 -2.0288 -6.2384 0
M  V30 4258 H 414.283 -3.72635 -6.57784 0
M  V30 4259 H 415.551 -2.77093 -7.28587 0
M  V30 4260 N 419.78 1.02168 -1.19998 0
M  V30 4261 C 421.196 1.27969 -0.953737 0
M  V30 4262 C 421.396 1.98079 0.369703 0
M  V30 4263 O 420.452 2.27306 1.09947 0
M  V30 4264 C 421.765 2.11971 -2.13281 0
M  V30 4265 C 423.313 2.25255 -2.17323 0
M  V30 4266 C 423.788 3.12632 -3.34702 0
M  V30 4267 N 425.279 3.2022 -3.34684 0
M  V30 4268 C 426.014 3.88039 -4.22153 0
M  V30 4269 N 425.51 4.58027 -5.19791 0
M  V30 4270 N 427.303 3.84511 -4.10009 0
M  V30 4271 H 419.454 0.550794 -2.05134 0
M  V30 4272 H 421.717 0.305683 -0.897364 0
M  V30 4273 H 421.423 1.67785 -3.09097 0
M  V30 4274 H 421.297 3.12699 -2.10949 0
M  V30 4275 H 423.684 2.68667 -1.22073 0
M  V30 4276 H 423.765 1.24053 -2.23706 0
M  V30 4277 H 423.409 2.69926 -4.30235 0
M  V30 4278 H 423.339 4.13909 -3.25556 0
M  V30 4279 H 425.83 2.70382 -2.64012 0
M  V30 4280 H 426.143 5.07429 -5.82868 0
M  V30 4281 H 424.488 4.56869 -5.23733 0
M  V30 4282 H 427.679 3.28978 -3.33003 0
M  V30 4283 H 427.852 4.3709 -4.78389 0
M  V30 4284 N 421.258 1.00505 1.21394 0
M  V30 4285 C 422.507 0.683159 1.89778 0
M  V30 4286 C 422.82 -0.789471 1.7896 0
M  V30 4287 O 424.026 -1.22344 2.42372 0
M  V30 4288 C 422.482 1.17146 3.40301 0
M  V30 4289 C 422.09 2.67017 3.5973 0
M  V30 4290 C 423.834 0.924461 4.14311 0
M  V30 4291 C 421.741 3.09387 5.04017 0
M  V30 4292 H 420.671 0.25183 0.710702 0
M  V30 4293 H 423.322 1.21622 1.37406 0
M  V30 4294 H 421.704 0.566451 3.91928 0
M  V30 4295 H 422.878 3.32968 3.18542 0
M  V30 4296 H 421.193 2.89732 2.99073 0
M  V30 4297 H 423.79 1.21658 5.20676 0
M  V30 4298 H 424.133 -0.139286 4.16067 0
M  V30 4299 H 424.666 1.49226 3.6875 0
M  V30 4300 H 421.405 4.14989 5.07409 0
M  V30 4301 H 420.925 2.48149 5.46061 0
M  V30 4302 H 422.604 3.01371 5.72525 0
M  V30 4303 N 422.737 -1.36956 0.779787 0
M  V30 4304 C 424.148 -1.82094 0.412156 0
M  V30 4305 C 424.499 -1.64926 -1.06273 0
M  V30 4306 O 423.624 -1.16483 -1.82375 0
M  V30 4307 C 424.219 -3.3059 0.741319 0
M  V30 4308 C 422.778 -3.73974 0.426641 0
M  V30 4309 C 421.925 -2.59368 0.980987 0
M  V30 4310 H 424.876 -1.25314 0.973758 0
M  V30 4311 H 424.897 -3.80489 0.028887 0
M  V30 4312 H 424.409 -3.43054 1.81482 0
M  V30 4313 H 422.51 -3.67076 -0.639215 0
M  V30 4314 H 422.623 -4.69778 0.940515 0
M  V30 4315 H 420.987 -2.51463 0.404757 0
M  V30 4316 H 421.77 -2.74621 2.06005 0
M  V30 4317 N 424.215 -0.530993 -1.48385 0
M  V30 4318 C 425.165 0.251092 -2.26613 0
M  V30 4319 C 426.149 0.908977 -1.32765 0
M  V30 4320 O 427.341 0.811616 -1.57295 0
M  V30 4321 C 424.47 1.29677 -3.17866 0
M  V30 4322 C 423.556 0.643627 -4.19188 0
M  V30 4323 N 423.947 -0.271223 -5.05072 0
M  V30 4324 C 422.245 0.900711 -4.3681 0
M  V30 4325 C 422.946 -0.648109 -5.78078 0
M  V30 4326 N 421.922 -0.00895987 -5.43599 0
M  V30 4327 H 425.724 -0.452702 -2.90393 0
M  V30 4328 H 423.238 -0.349091 -1.58604 0
M  V30 4329 H 425.235 1.87079 -3.72568 0
M  V30 4330 H 423.895 2.00193 -2.55642 0
M  V30 4331 H 424.906 -0.643883 -5.13882 0
M  V30 4332 H 421.583 1.59636 -3.85775 0
M  V30 4333 H 422.973 -1.39833 -6.57188 0
M  V30 4334 N 425.693 1.55336 -0.266172 0
M  V30 4335 C 426.94 1.99397 0.353158 0
M  V30 4336 C 427.268 1.15451 1.56529 0
M  V30 4337 O 426.523 0.209974 1.9457 0
M  V30 4338 C 426.822 3.48606 0.787957 0
M  V30 4339 C 426.488 4.49773 -0.318541 0
M  V30 4340 C 425.15 4.77158 -0.62239 0
M  V30 4341 C 427.502 5.10212 -1.06459 0
M  V30 4342 C 424.83 5.62251 -1.67602 0
M  V30 4343 C 427.182 5.96449 -2.10788 0
M  V30 4344 C 425.846 6.22158 -2.41817 0
M  V30 4345 H 425.116 0.729644 0.12923 0
M  V30 4346 H 427.763 1.87732 -0.37802 0
M  V30 4347 H 426.068 3.57701 1.59866 0
M  V30 4348 H 427.765 3.80098 1.27775 0
M  V30 4349 H 424.355 4.2854 -0.0715925 0
M  V30 4350 H 428.539 4.89086 -0.843098 0
M  V30 4351 H 423.795 5.80419 -1.92155 0
M  V30 4352 H 427.969 6.42317 -2.69076 0
M  V30 4353 H 425.596 6.87888 -3.23596 0
M  V30 4354 N 427.171 -0.0066808 1.57599 0
M  V30 4355 C 428.396 -0.707738 1.94951 0
M  V30 4356 C 428.821 -1.66882 0.867868 0
M  V30 4357 O 428.179 -1.80457 -0.17458 0
M  V30 4358 C 428.227 -1.42162 3.31394 0
M  V30 4359 O 427.331 -2.53578 3.25226 0
M  V30 4360 H 426.672 -0.188752 0.636607 0
M  V30 4361 H 429.202 0.0445193 2.04552 0
M  V30 4362 H 429.212 -1.78655 3.66806 0
M  V30 4363 H 427.887 -0.716903 4.09675 0
M  V30 4364 H 426.464 -2.19463 3.01481 0
M  V30 4365 N 428.649 -1.55105 -0.279332 0
M  V30 4366 C 429.559 -1.90638 -1.36727 0
M  V30 4367 C 430.575 -0.802899 -1.54368 0
M  V30 4368 O 431.751 -1.10138 -1.68616 0
M  V30 4369 C 428.816 -2.16547 -2.70755 0
M  V30 4370 C 427.877 -3.40146 -2.61915 0
M  V30 4371 C 427.11 -3.6481 -3.8955 0
M  V30 4372 O 427.333 -2.92095 -4.89935 0
M  V30 4373 O 426.267 -4.58343 -3.90135 0
M  V30 4374 H 430.093 -2.83237 -1.09591 0
M  V30 4375 H 427.678 -1.4157 -0.477306 0
M  V30 4376 H 429.56 -2.34665 -3.50014 0
M  V30 4377 H 428.235 -1.27131 -2.9769 0
M  V30 4378 H 427.142 -3.2737 -1.81052 0
M  V30 4379 H 428.475 -4.29761 -2.3993 0
M  V30 4380 N 430.127 0.543554 -1.4793 0
M  V30 4381 C 431.057 1.65888 -1.64327 0
M  V30 4382 C 432.038 1.62818 -0.492383 0
M  V30 4383 O 433.223 1.80226 -0.723338 0
M  V30 4384 C 430.353 3.04506 -1.67013 0
M  V30 4385 C 429.307 3.2243 -2.81466 0
M  V30 4386 C 428.633 4.61972 -2.69233 0
M  V30 4387 C 429.933 3.06496 -4.22915 0
M  V30 4388 H 431.627 1.52421 -2.57698 0
M  V30 4389 H 429.173 0.731849 -1.24016 0
M  V30 4390 H 431.126 3.82391 -1.77074 0
M  V30 4391 H 429.85 3.18964 -0.70212 0
M  V30 4392 H 428.509 2.46957 -2.70938 0
M  V30 4393 H 428.157 4.73247 -1.7043 0
M  V30 4394 H 427.857 4.74911 -3.46025 0
M  V30 4395 H 429.381 5.41974 -2.81242 0
M  V30 4396 H 430.795 3.74186 -4.34348 0
M  V30 4397 H 429.192 3.30938 -5.006 0
M  V30 4398 H 430.262 2.03077 -4.40327 0
M  V30 4399 N 431.605 1.3629 0.791371 0
M  V30 4400 C 433.016 1.27225 1.36641 0
M  V30 4401 C 433.367 -0.0887968 1.95999 0
M  V30 4402 O 432.492 -0.990207 1.92416 0
M  V30 4403 C 433.087 2.30375 2.48421 0
M  V30 4404 C 431.646 2.25004 3.01746 0
M  V30 4405 C 430.793 2.15259 1.7481 0
M  V30 4406 H 433.744 1.47198 0.593173 0
M  V30 4407 H 433.765 1.93905 3.27385 0
M  V30 4408 H 433.277 3.29422 2.05189 0
M  V30 4409 H 431.378 1.29417 3.49403 0
M  V30 4410 H 431.491 3.1761 3.58693 0
M  V30 4411 H 429.855 1.61482 1.96966 0
M  V30 4412 H 430.638 3.16191 1.33709 0
M  V30 4413 N 433.083 -1.0153 1.20538 0
M  V30 4414 C 434.013 -2.11972 0.979295 0
M  V30 4415 C 434.994 -1.6985 -0.0921787 0
M  V30 4416 O 436.179 -1.94089 0.0655932 0
M  V30 4417 C 433.309 -3.43201 0.531984 0
M  V30 4418 C 432.263 -3.9907 1.54685 0
M  V30 4419 C 431.589 -5.26082 0.956127 0
M  V30 4420 C 432.889 -4.32313 2.93092 0
M  V30 4421 H 434.583 -2.31143 1.90298 0
M  V30 4422 H 432.129 -1.11079 0.916372 0
M  V30 4423 H 434.082 -4.1985 0.361044 0
M  V30 4424 H 432.806 -3.23792 -0.427327 0
M  V30 4425 H 431.465 -3.2453 1.70517 0
M  V30 4426 H 431.113 -5.02999 -0.0111538 0
M  V30 4427 H 430.813 -5.64426 1.63393 0
M  V30 4428 H 432.337 -6.05386 0.796284 0
M  V30 4429 H 433.751 -4.99845 2.80763 0
M  V30 4430 H 432.148 -4.81774 3.57791 0
M  V30 4431 H 433.218 -3.41025 3.44717 0
M  V30 4432 N 434.561 -1.01147 -1.20859 0
M  V30 4433 C 435.838 -0.613136 -1.85742 0
M  V30 4434 C 436.218 0.909004 -1.90526 0
M  V30 4435 O 435.566 1.79862 -1.40932 0
M  V30 4436 C 435.776 -1.255 -3.25654 0
M  V30 4437 C 437.124 -1.3672 -4.01986 0
M  V30 4438 O 438.148 -1.21082 -3.34989 0
M  V30 4439 O 437.007 -1.6194 -5.21956 0
M  V30 4440 H 434.101 -0.210878 -0.799662 0
M  V30 4441 H 436.647 -1.10853 -1.2849 0
M  V30 4442 H 435.419 -2.29532 -3.16908 0
M  V30 4443 H 435.042 -0.746369 -3.90532 0
M  V30 4444 N 436.039 1.36541 -0.78704 0
M  V30 4445 C 437.316 1.9355 -0.282424 0
M  V30 4446 C 437.696 1.71919 1.22503 0
M  V30 4447 O 437.044 1.07677 2.01539 0
M  V30 4448 C 437.254 3.4246 -0.672462 0
M  V30 4449 C 438.602 4.19582 -0.650863 0
M  V30 4450 O 439.626 3.50889 -0.612789 0
M  V30 4451 O 438.485 5.42106 -0.691623 0
M  V30 4452 H 435.579 0.824091 -0.0693 0
M  V30 4453 H 438.125 1.45736 -0.869423 0
M  V30 4454 H 436.897 3.51851 -1.71221 0
M  V30 4455 H 436.52 3.97556 -0.0592211 0
M  V30 4456 N 437.518 0.538854 1.48102 0
M  V30 4457 C 438.45 -0.256278 2.27763 0
M  V30 4458 C 439.463 -0.89633 1.35904 0
M  V30 4459 O 440.652 -0.773275 1.60881 0
M  V30 4460 C 437.752 -1.37896 3.09577 0
M  V30 4461 C 436.925 -0.839159 4.29275 0
M  V30 4462 C 435.984 -1.84405 4.9283 0
M  V30 4463 O 435.01 -1.39746 5.51779 0
M  V30 4464 N 436.212 -3.17666 4.85869 0
M  V30 4465 H 438.977 0.426968 2.96643 0
M  V30 4466 H 436.538 0.373747 1.57527 0
M  V30 4467 H 438.53 -2.04955 3.48963 0
M  V30 4468 H 437.1 -1.96572 2.4306 0
M  V30 4469 H 436.32 0.00769287 3.94199 0
M  V30 4470 H 437.608 -0.457548 5.06739 0
M  V30 4471 H 437.006 -3.56609 4.39143 0
M  V30 4472 H 435.563 -3.80334 5.29329 0
M  V30 4473 N 438.996 -1.55193 0.274407 0
M  V30 4474 C 440.242 -1.99877 -0.343086 0
M  V30 4475 C 440.575 -1.16256 -1.55558 0
M  V30 4476 O 439.85 -0.232462 -1.93106 0
M  V30 4477 C 440.133 -3.52706 -0.725965 0
M  V30 4478 C 439.986 -4.47081 0.493818 0
M  V30 4479 C 441.305 -4.11422 -1.56268 0
M  V30 4480 H 438.424 -0.726625 -0.123229 0
M  V30 4481 H 441.066 -1.86136 0.38121 0
M  V30 4482 H 439.216 -3.64546 -1.34307 0
M  V30 4483 H 440.888 -4.47186 1.13237 0
M  V30 4484 H 439.131 -4.1877 1.13201 0
M  V30 4485 H 439.802 -5.51699 0.18217 0
M  V30 4486 H 442.278 -4.02855 -1.04151 0
M  V30 4487 H 441.154 -5.18568 -1.79939 0
M  V30 4488 H 441.415 -3.61607 -2.54348 0
M  V30 4489 N 440.474 -0.00167713 -1.576 0
M  V30 4490 C 441.723 0.682021 -1.89819 0
M  V30 4491 C 442.036 1.74844 -0.876871 0
M  V30 4492 O 443.242 2.48688 -1.08934 0
M  V30 4493 C 441.698 1.26425 -3.36964 0
M  V30 4494 C 441.306 0.232568 -4.47396 0
M  V30 4495 C 443.05 1.92604 -3.78291 0
M  V30 4496 C 440.957 0.824882 -5.85619 0
M  V30 4497 H 439.887 0.258499 -0.708304 0
M  V30 4498 H 442.538 -0.0624957 -1.83394 0
M  V30 4499 H 440.92 2.05949 -3.38232 0
M  V30 4500 H 442.094 -0.5382 -4.57646 0
M  V30 4501 H 440.409 -0.32888 -4.15099 0
M  V30 4502 H 443.006 2.37827 -4.78897 0
M  V30 4503 H 443.349 2.75732 -3.11894 0
M  V30 4504 H 443.882 1.19812 -3.79328 0
M  V30 4505 H 440.621 0.0323542 -6.55492 0
M  V30 4506 H 440.141 1.56477 -5.79029 0
M  V30 4507 H 441.82 1.32301 -6.33329 0
M  V30 4508 N 441.952 1.55251 0.271103 0
M  V30 4509 C 442.882 1.9127 1.33933 0
M  V30 4510 C 443.863 0.77478 1.5143 0
M  V30 4511 O 445.048 1.03307 1.64442 0
M  V30 4512 C 442.178 2.18627 2.69851 0
M  V30 4513 C 441.132 3.34442 2.67081 0
M  V30 4514 C 440.458 3.47284 4.06569 0
M  V30 4515 C 441.758 4.70784 2.26185 0
M  V30 4516 H 443.452 2.80744 1.04035 0
M  V30 4517 H 440.998 1.35077 0.499017 0
M  V30 4518 H 442.951 2.42413 3.44694 0
M  V30 4519 H 441.675 1.25955 3.01335 0
M  V30 4520 H 440.334 3.10627 1.94695 0
M  V30 4521 H 439.982 2.52074 4.35279 0
M  V30 4522 H 439.682 4.25152 4.0561 0
M  V30 4523 H 441.206 3.73363 4.83148 0
M  V30 4524 H 442.62 4.94102 2.90751 0
M  V30 4525 H 441.017 5.51582 2.36384 0
M  V30 4526 H 442.087 4.69478 1.21319 0
M  V30 4527 N 443.43 -0.535701 1.48216 0
M  V30 4528 C 444.36 -1.65014 1.65204 0
M  V30 4529 C 445.341 -1.62554 0.501011 0
M  V30 4530 O 446.526 -1.7984 0.732886 0
M  V30 4531 C 443.656 -3.03616 1.68626 0
M  V30 4532 C 442.61 -3.20932 2.83172 0
M  V30 4533 C 441.936 -4.60537 2.71679 0
M  V30 4534 C 443.236 -3.04249 4.24535 0
M  V30 4535 H 444.93 -1.51053 2.58502 0
M  V30 4536 H 442.476 -0.725262 1.24402 0
M  V30 4537 H 444.429 -3.81446 1.79099 0
M  V30 4538 H 443.153 -3.18587 0.719026 0
M  V30 4539 H 441.812 -2.45517 2.72244 0
M  V30 4540 H 441.46 -4.72336 1.72937 0
M  V30 4541 H 441.16 -4.73069 3.48538 0
M  V30 4542 H 442.684 -5.40475 2.84112 0
M  V30 4543 H 444.098 -3.71877 4.36326 0
M  V30 4544 H 442.495 -3.28278 5.02348 0
M  V30 4545 H 443.565 -2.00739 4.41397 0
M  V30 4546 N 444.908 -1.36708 -0.784132 0
M  V30 4547 C 446.324 -1.17237 -1.08294 0
M  V30 4548 C 446.524 -5.93947e-05 -2.015 0
M  V30 4549 O 445.58 0.663686 -2.43622 0
M  V30 4550 C 446.893 -2.48557 -1.69233 0
M  V30 4551 C 448.441 -2.54968 -1.8155 0
M  V30 4552 C 448.916 -3.86388 -2.45904 0
M  V30 4553 N 450.407 -3.87762 -2.53367 0
M  V30 4554 C 451.142 -4.86191 -3.03983 0
M  V30 4555 N 450.638 -5.95015 -3.54866 0
M  V30 4556 N 452.431 -4.73606 -3.02743 0
M  V30 4557 H 444.582 -2.11758 -0.16501 0
M  V30 4558 H 446.845 -0.93822 -0.135822 0
M  V30 4559 H 446.551 -3.34638 -1.08215 0
M  V30 4560 H 446.425 -2.64748 -2.68679 0
M  V30 4561 H 448.812 -1.69302 -2.41704 0
M  V30 4562 H 448.893 -2.42672 -0.80895 0
M  V30 4563 H 448.537 -4.72462 -1.86392 0
M  V30 4564 H 448.467 -3.95982 -3.4714 0
M  V30 4565 H 450.958 -3.09145 -2.17343 0
M  V30 4566 H 451.271 -6.66086 -3.91854 0
M  V30 4567 H 449.616 -5.98676 -3.53003 0
M  V30 4568 H 452.807 -3.87717 -2.62284 0
M  V30 4569 H 452.98 -5.50473 -3.41881 0
M  V30 4570 N 446.386 1.0089 -1.21074 0
M  V30 4571 C 447.349 2.0775 -0.968129 0
M  V30 4572 C 448.349 1.6069 0.0593445 0
M  V30 4573 O 449.539 1.73293 -0.177525 0
M  V30 4574 C 446.671 3.37794 -0.459108 0
M  V30 4575 H 447.864 2.30707 -1.9161 0
M  V30 4576 H 445.417 1.17807 -1.02719 0
M  V30 4577 H 446.152 3.20516 0.49397 0
M  V30 4578 H 445.937 3.7328 -1.20019 0
M  V30 4579 H 447.427 4.16454 -0.309099 0
M  V30 4580 N 447.864 1.01787 1.20321 0
M  V30 4581 C 449.112 0.706538 1.89347 0
M  V30 4582 C 449.433 -0.766289 1.79313 0
M  V30 4583 O 448.703 -1.55126 1.19635 0
M  V30 4584 H 447.283 0.258348 0.700903 0
M  V30 4585 H 449.945 1.28974 1.46122 0
M  V30 4586 H 449.041 0.991066 2.95946 0
M  V30 4587 N 449.342 -1.36122 0.79427 0
M  V30 4588 C 450.588 -1.99846 0.378542 0
M  V30 4589 C 450.943 -1.61898 -1.03955 0
M  V30 4590 O 450.236 -0.866013 -1.70912 0
M  V30 4591 C 450.43 -3.5409 0.48527 0
M  V30 4592 C 450.259 -4.0702 1.91219 0
M  V30 4593 C 449.029 -4.36944 2.53787 0
M  V30 4594 C 451.227 -4.26435 2.87502 0
M  V30 4595 N 449.209 -4.75727 3.88017 0
M  V30 4596 C 450.58 -4.68077 4.06576 0
M  V30 4597 C 452.635 -4.08616 2.84495 0
M  V30 4598 C 451.338 -4.93765 5.23057 0
M  V30 4599 C 453.364 -4.35453 4.00169 0
M  V30 4600 C 452.726 -4.77355 5.17988 0
M  V30 4601 H 448.825 -0.759549 0.186034 0
M  V30 4602 H 451.409 -1.65043 1.0329 0
M  V30 4603 H 449.58 -3.88151 -0.139023 0
M  V30 4604 H 451.312 -4.04675 0.0453192 0
M  V30 4605 H 448.067 -4.26822 2.05231 0
M  V30 4606 H 448.491 -4.99396 4.57092 0
M  V30 4607 H 453.133 -3.75373 1.94564 0
M  V30 4608 H 450.851 -5.25887 6.1357 0
M  V30 4609 H 454.437 -4.2323 3.99208 0
M  V30 4610 H 453.317 -4.97718 6.06008 0
M  V30 4611 N 450.82 -0.546701 -1.47814 0
M  V30 4612 C 451.768 0.220048 -2.31557 0
M  V30 4613 C 452.762 0.919472 -1.42275 0
M  V30 4614 O 453.968 0.841953 -1.59095 0
M  V30 4615 H 450.343 0.0898334 -0.746615 0
M  V30 4616 H 452.314 -0.505589 -2.94086 0
M  V30 4617 C 451.063 1.24353 -3.24702 0
M  V30 4618 H 450.386 0.714758 -3.93359 0
M  V30 4619 H 451.826 1.75112 -3.8615 0
M  V30 4620 C 450.285 2.28593 -2.47481 0
M  V30 4621 O 450.815 3.35334 -2.21165 0
M  V30 4622 N 449.021 2.02244 -2.08676 0
M  V30 4623 H 448.568 1.15455 -2.30278 0
M  V30 4624 H 448.526 2.72207 -1.57323 0
M  V30 4625 N 452.299 1.55045 -0.282633 0
M  V30 4626 C 453.209 2.26491 0.61147 0
M  V30 4627 C 454.225 1.29348 1.16384 0
M  V30 4628 O 455.401 1.62298 1.19253 0
M  V30 4629 C 452.466 2.97779 1.77563 0
M  V30 4630 C 451.527 4.10418 1.25919 0
M  V30 4631 C 450.76 4.78297 2.36786 0
M  V30 4632 O 450.983 4.45426 3.56303 0
M  V30 4633 O 449.917 5.66089 2.04517 0
M  V30 4634 H 453.743 3.03683 0.0324615 0
M  V30 4635 H 451.328 1.49317 -0.0497576 0
M  V30 4636 H 453.21 3.42554 2.45427 0
M  V30 4637 H 451.885 2.23498 2.34159 0
M  V30 4638 H 450.792 3.70082 0.546797 0
M  V30 4639 H 452.125 4.86622 0.738887 0
M  V30 4640 N 453.777 0.010035 1.57597 0
M  V30 4641 C 454.707 -0.976857 2.12084 0
M  V30 4642 C 455.688 -1.35191 1.03235 0
M  V30 4643 O 456.873 -1.43389 1.3097 0
M  V30 4644 C 454.003 -2.26548 2.63236 0
M  V30 4645 C 452.957 -2.03175 3.76701 0
M  V30 4646 C 452.283 -3.38138 4.14206 0
M  V30 4647 C 453.583 -1.38625 5.03568 0
M  V30 4648 H 455.277 -0.523145 2.94794 0
M  V30 4649 H 452.823 -0.250195 1.4181 0
M  V30 4650 H 454.776 -2.95952 2.99984 0
M  V30 4651 H 453.5 -2.74051 1.77661 0
M  V30 4652 H 452.159 -1.36195 3.40362 0
M  V30 4653 H 451.807 -3.83363 3.25641 0
M  V30 4654 H 451.507 -3.23312 4.90656 0
M  V30 4655 H 453.031 -4.08841 4.53521 0
M  V30 4656 H 454.445 -1.98 5.38023 0
M  V30 4657 H 452.842 -1.34256 5.84889 0
M  V30 4658 H 453.912 -0.356722 4.83586 0
M  V30 4659 N 455.255 -1.55392 -0.262866 0
M  V30 4660 C 456.185 -1.91978 -1.32917 0
M  V30 4661 C 457.166 -0.7828 -1.51017 0
M  V30 4662 O 458.351 -1.04178 -1.63892 0
M  V30 4663 C 455.481 -2.20055 -2.68687 0
M  V30 4664 C 454.435 -3.35854 -2.65304 0
M  V30 4665 C 453.761 -3.49435 -4.04721 0
M  V30 4666 C 455.061 -4.71977 -2.23685 0
M  V30 4667 H 456.755 -2.81292 -1.02544 0
M  V30 4668 H 454.301 -1.3534 -0.491846 0
M  V30 4669 H 456.254 -2.44237 -3.43404 0
M  V30 4670 H 454.978 -1.27551 -3.00663 0
M  V30 4671 H 453.637 -3.11655 -1.93045 0
M  V30 4672 H 453.285 -2.54379 -4.33936 0
M  V30 4673 H 452.985 -4.27297 -4.0335 0
M  V30 4674 H 454.509 -3.7592 -4.81161 0
M  V30 4675 H 455.923 -4.95637 -2.88127 0
M  V30 4676 H 454.32 -5.52828 -2.33456 0
M  V30 4677 H 455.39 -4.70115 -1.18827 0
M  V30 4678 N 456.733 0.527833 -1.48498 0
M  V30 4679 C 457.982 1.28003 -1.55878 0
M  V30 4680 C 458.295 1.9414 -0.238577 0
M  V30 4681 O 459.501 2.7083 -0.190643 0
M  V30 4682 C 457.957 2.32272 -2.74914 0
M  V30 4683 C 457.565 1.72196 -4.13585 0
M  V30 4684 C 459.309 3.08488 -2.91608 0
M  V30 4685 C 457.216 2.74417 -5.23879 0
M  V30 4686 H 456.146 0.481413 -0.580308 0
M  V30 4687 H 458.797 0.557195 -1.74836 0
M  V30 4688 H 457.179 3.07601 -2.49395 0
M  V30 4689 H 458.353 1.03041 -4.49132 0
M  V30 4690 H 456.668 1.08464 -4.02025 0
M  V30 4691 H 459.265 3.84879 -3.71177 0
M  V30 4692 H 459.608 3.64481 -2.01145 0
M  V30 4693 H 460.141 2.40274 -3.17038 0
M  V30 4694 H 456.88 2.23242 -6.16314 0
M  V30 4695 H 456.4 3.41893 -4.92818 0
M  V30 4696 H 458.079 3.37362 -5.52083 0
M  V30 4697 N 458.211 1.37122 0.776871 0
M  V30 4698 C 459.174 1.32301 1.8716 0
M  V30 4699 C 460.174 0.228099 1.59174 0
M  V30 4700 O 461.364 0.483642 1.67352 0
M  V30 4701 C 458.496 1.054 3.24197 0
M  V30 4702 H 459.689 2.29673 1.92848 0
M  V30 4703 H 457.242 1.22077 0.97606 0
M  V30 4704 H 457.977 0.0853872 3.24188 0
M  V30 4705 H 457.762 1.84648 3.45901 0
M  V30 4706 H 459.252 1.04664 4.04271 0
M  V30 4707 N 459.689 -1.00246 1.21608 0
M  V30 4708 C 460.914 -1.78167 1.06167 0
M  V30 4709 C 461.339 -1.84138 -0.384035 0
M  V30 4710 O 460.697 -1.28683 -1.27712 0
M  V30 4711 C 460.745 -3.19786 1.66642 0
M  V30 4712 O 459.849 -4.02153 0.913613 0
M  V30 4713 H 459.19 -0.549 0.37349 0
M  V30 4714 H 461.72 -1.25994 1.61204 0
M  V30 4715 H 461.73 -3.70451 1.70969 0
M  V30 4716 H 460.405 -3.14754 2.7185 0
M  V30 4717 H 458.982 -3.60711 0.945635 0
M  V30 4718 N 461.167 -1.02423 -1.1978 0
M  V30 4719 C 462.414 -0.717988 -1.89344 0
M  V30 4720 C 462.742 0.753036 -1.79331 0
M  V30 4721 O 461.997 1.56355 -1.17692 0
M  V30 4722 C 462.296 -1.1088 -3.39765 0
M  V30 4723 C 461.962 -2.57731 -3.6998 0
M  V30 4724 C 460.624 -2.97854 -3.77937 0
M  V30 4725 C 462.976 -3.52763 -3.83677 0
M  V30 4726 C 460.304 -4.31931 -3.97054 0
M  V30 4727 C 462.656 -4.86538 -4.04306 0
M  V30 4728 C 461.32 -5.26356 -4.10494 0
M  V30 4729 H 460.59 -0.26273 -0.692859 0
M  V30 4730 H 463.237 -1.28623 -1.41875 0
M  V30 4731 H 461.542 -0.459094 -3.89101 0
M  V30 4732 H 463.239 -0.849432 -3.919 0
M  V30 4733 H 459.829 -2.25646 -3.64393 0
M  V30 4734 H 464.013 -3.2292 -3.76877 0
M  V30 4735 H 459.269 -4.62324 -4.00083 0
M  V30 4736 H 463.443 -5.60093 -4.13846 0
M  V30 4737 H 461.07 -6.3026 -4.2506 0
M  V30 4738 N 462.645 1.35699 -0.801477 0
M  V30 4739 C 463.87 2.03687 -0.390678 0
M  V30 4740 C 464.295 1.60015 0.988778 0
M  V30 4741 O 463.653 0.774357 1.63931 0
M  V30 4742 C 463.701 3.57439 -0.476404 0
M  V30 4743 O 462.805 4.09208 0.512106 0
M  V30 4744 H 462.146 0.64344 -0.163956 0
M  V30 4745 H 464.676 1.73403 -1.08594 0
M  V30 4746 H 464.686 4.06544 -0.344357 0
M  V30 4747 H 463.361 3.88576 -1.48262 0
M  V30 4748 H 461.938 3.7134 0.340721 0
M  V30 4749 N 464.123 0.554532 1.47522 0
M  V30 4750 C 465.073 -0.215008 2.26984 0
M  V30 4751 C 466.057 -0.88774 1.34194 0
M  V30 4752 O 467.249 -0.786489 1.58567 0
M  V30 4753 C 464.378 -1.24604 3.19889 0
M  V30 4754 C 463.464 -0.576857 4.20159 0
M  V30 4755 N 463.855 0.351541 5.04577 0
M  V30 4756 C 462.153 -0.831104 4.38188 0
M  V30 4757 C 462.854 0.739995 5.76974 0
M  V30 4758 N 461.83 0.0954407 5.43516 0
M  V30 4759 H 465.632 0.498843 2.89636 0
M  V30 4760 H 463.146 0.374279 1.58028 0
M  V30 4761 H 465.143 -1.81128 3.75498 0
M  V30 4762 H 463.803 -1.96101 2.58794 0
M  V30 4763 H 464.814 0.725556 5.12792 0
M  V30 4764 H 461.491 -1.53479 3.88266 0
M  V30 4765 H 462.881 1.50271 6.5488 0
M  V30 4766 N 465.601 -1.54893 0.290851 0
M  V30 4767 C 467.017 -1.59476 -0.0628432 0
M  V30 4768 C 467.217 -1.30795 -1.5328 0
M  V30 4769 O 466.273 -1.07644 -2.28406 0
M  V30 4770 C 467.586 -2.98928 0.325962 0
M  V30 4771 C 469.134 -3.11799 0.273882 0
M  V30 4772 C 469.609 -4.53544 0.637359 0
M  V30 4773 N 471.1 -4.59433 0.589507 0
M  V30 4774 C 471.835 -5.67164 0.84335 0
M  V30 4775 N 471.331 -6.82975 1.16263 0
M  V30 4776 N 473.124 -5.56786 0.771091 0
M  V30 4777 H 465.275 -1.71798 1.24896 0
M  V30 4778 H 467.538 -0.801879 0.505663 0
M  V30 4779 H 467.244 -3.24805 1.34887 0
M  V30 4780 H 467.118 -3.75793 -0.325441 0
M  V30 4781 H 469.505 -2.85677 -0.739765 0
M  V30 4782 H 469.586 -2.37112 0.959766 0
M  V30 4783 H 469.23 -4.80394 1.64877 0
M  V30 4784 H 469.16 -5.26553 -0.0704866 0
M  V30 4785 H 471.651 -3.76245 0.353252 0
M  V30 4786 H 471.964 -7.61048 1.34257 0
M  V30 4787 H 470.309 -6.84552 1.20057 0
M  V30 4788 H 473.5 -4.65187 0.521383 0
M  V30 4789 H 473.673 -6.40664 0.972295 0
M  V30 4790 N 467.08 -0.0183926 -1.57589 0
M  V30 4791 C 468.305 0.676634 -1.96052 0
M  V30 4792 C 468.73 1.6548 -0.894307 0
M  V30 4793 O 468.088 1.80712 0.145849 0
M  V30 4794 C 468.136 1.36872 -3.33614 0
M  V30 4795 O 467.24 2.48372 -3.29219 0
M  V30 4796 H 466.581 0.1786 -0.63953 0
M  V30 4797 H 469.111 -0.077056 -2.04455 0
M  V30 4798 H 469.121 1.72797 -3.69601 0
M  V30 4799 H 467.796 0.651636 -4.10763 0
M  V30 4800 H 466.373 2.14639 -3.04934 0
M  V30 4801 N 468.558 1.5553 0.254621 0
M  V30 4802 C 469.807 1.76202 0.981612 0
M  V30 4803 C 470.12 0.580883 1.86776 0
M  V30 4804 O 471.326 0.670448 2.63092 0
M  V30 4805 C 469.782 3.11921 1.79537 0
M  V30 4806 C 469.39 4.37659 0.956991 0
M  V30 4807 C 471.134 3.41936 2.51555 0
M  V30 4808 C 469.041 5.64411 1.76619 0
M  V30 4809 H 467.971 0.656841 0.370237 0
M  V30 4810 H 470.622 1.81969 0.236556 0
M  V30 4811 H 469.004 3.00241 2.58208 0
M  V30 4812 H 470.178 4.60307 0.21315 0
M  V30 4813 H 468.493 4.14922 0.350497 0
M  V30 4814 H 471.09 4.33849 3.12536 0
M  V30 4815 H 471.433 2.62905 3.22779 0
M  V30 4816 H 471.966 3.54797 1.799 0
M  V30 4817 H 468.705 6.46241 1.09783 0
M  V30 4818 H 468.225 5.45877 2.48551 0
M  V30 4819 H 469.904 6.03386 2.33527 0
M  V30 4820 N 470.036 -0.519951 1.48776 0
M  V30 4821 C 470.999 -1.60574 1.6355 0
M  V30 4822 C 471.999 -1.52557 0.508234 0
M  V30 4823 O 473.189 -1.56047 0.774262 0
M  V30 4824 C 470.321 -3.00211 1.61512 0
M  V30 4825 H 471.514 -1.4881 2.60376 0
M  V30 4826 H 469.067 -0.742772 1.37523 0
M  V30 4827 H 469.802 -3.17471 0.662009 0
M  V30 4828 H 469.587 -3.07439 2.43359 0
M  V30 4829 H 471.077 -3.79134 1.75064 0
M  V30 4830 N 471.514 -1.37532 -0.769588 0
M  V30 4831 C 472.76 -1.33057 -1.53048 0
M  V30 4832 C 473.093 0.0841865 -1.94017 0
M  V30 4833 O 472.368 1.04198 -1.64235 0
M  V30 4834 C 472.651 -2.27166 -2.79406 0
M  V30 4835 C 472.504 -3.77429 -2.44677 0
M  V30 4836 C 473.823 -2.19683 -3.81349 0
M  V30 4837 H 470.942 -0.484655 -0.555228 0
M  V30 4838 H 473.584 -1.68251 -0.882702 0
M  V30 4839 H 471.734 -1.97283 -3.34682 0
M  V30 4840 H 473.406 -4.17918 -1.953 0
M  V30 4841 H 471.649 -3.95892 -1.77346 0
M  V30 4842 H 472.32 -4.38716 -3.35011 0
M  V30 4843 H 474.796 -2.46029 -3.35573 0
M  V30 4844 H 473.672 -2.87668 -4.67481 0
M  V30 4845 H 473.933 -1.19045 -4.25771 0
M  V30 4846 N 472.992 0.995999 -1.22138 0
M  V30 4847 C 473.939 2.08551 -0.988687 0
M  V30 4848 C 474.909 1.65864 0.0885021 0
M  V30 4849 O 476.094 1.90704 -0.0604589 0
M  V30 4850 C 473.234 3.40374 -0.569191 0
M  V30 4851 C 472.347 3.96421 -1.71681 0
M  V30 4852 C 471.482 5.1639 -1.2456 0
M  V30 4853 C 470.521 5.64567 -2.36497 0
M  V30 4854 N 469.658 6.75777 -1.90445 0
M  V30 4855 H 474.498 2.2779 -1.92135 0
M  V30 4856 H 472.035 1.1168 -0.957388 0
M  V30 4857 H 473.993 4.16068 -0.307166 0
M  V30 4858 H 472.623 3.21145 0.326462 0
M  V30 4859 H 471.675 3.17628 -2.09324 0
M  V30 4860 H 472.987 4.2816 -2.55891 0
M  V30 4861 H 472.141 5.99362 -0.940774 0
M  V30 4862 H 470.88 4.86266 -0.373662 0
M  V30 4863 H 469.885 4.80185 -2.67772 0
M  V30 4864 H 471.11 5.96716 -3.24202 0
M  V30 4865 H 469.056 6.47443 -1.05609 0
M  V30 4866 H 468.973 7.06818 -2.68223 0
M  V30 4867 H 470.241 7.62262 -1.63022 0
M  V30 4868 N 474.47 1.03057 1.19235 0
M  V30 4869 C 475.747 0.642608 1.84743 0
M  V30 4870 C 476.127 -0.878577 1.91948 0
M  V30 4871 O 475.475 -1.77597 1.43776 0
M  V30 4872 C 475.685 1.30665 3.23616 0
M  V30 4873 C 477.033 1.43098 3.9976 0
M  V30 4874 O 478.057 1.26396 3.3302 0
M  V30 4875 O 476.916 1.70223 5.19313 0
M  V30 4876 H 474.01 0.223573 0.796206 0
M  V30 4877 H 476.556 1.12883 1.26711 0
M  V30 4878 H 475.328 2.34544 3.13217 0
M  V30 4879 H 474.951 0.808405 3.89295 0
M  V30 4880 N 475.948 -1.35272 0.808662 0
M  V30 4881 C 477.196 -1.98316 0.389233 0
M  V30 4882 C 477.517 -1.64465 -1.04767 0
M  V30 4883 O 476.787 -0.928175 -1.72516 0
M  V30 4884 H 475.367 -0.733585 0.140935 0
M  V30 4885 H 478.029 -1.6515 1.03496 0
M  V30 4886 H 477.125 -3.08123 0.496631 0
M  V30 4887 N 477.426 -0.562348 -1.47226 0
M  V30 4888 C 478.675 -0.038041 -2.01664 0
M  V30 4889 C 478.988 1.32199 -1.44162 0
M  V30 4890 O 480.194 1.9365 -1.90294 0
M  V30 4891 C 478.65 -0.0174958 -3.59896 0
M  V30 4892 C 478.258 -1.3746 -4.2639 0
M  V30 4893 C 480.002 0.453934 -4.22066 0
M  V30 4894 C 477.909 -1.31289 -5.76643 0
M  V30 4895 H 476.839 -0.0104511 -0.753928 0
M  V30 4896 H 479.49 -0.710966 -1.69167 0
M  V30 4897 H 477.872 0.721182 -3.89378 0
M  V30 4898 H 479.046 -2.1314 -4.08544 0
M  V30 4899 H 477.361 -1.78438 -3.7623 0
M  V30 4900 H 479.958 0.518584 -5.32179 0
M  V30 4901 H 480.301 1.46706 -3.89594 0
M  V30 4902 H 480.834 -0.230044 -3.97134 0
M  V30 4903 H 477.573 -2.30217 -6.13743 0
M  V30 4904 H 477.093 -0.597973 -5.96812 0
M  V30 4905 H 478.772 -1.01713 -6.38955 0
M  V30 4906 N 478.904 1.54736 -0.299062 0
M  V30 4907 C 479.834 2.26409 0.571085 0
M  V30 4908 C 480.815 1.2629 1.13951 0
M  V30 4909 O 482 1.55059 1.16921 0
M  V30 4910 C 479.13 3.00338 1.74396 0
M  V30 4911 C 478.084 4.07588 1.30599 0
M  V30 4912 C 477.41 4.69222 2.56387 0
M  V30 4913 C 478.71 5.20455 0.438645 0
M  V30 4914 H 480.404 2.99388 -0.0266991 0
M  V30 4915 H 477.95 1.43993 -0.0142812 0
M  V30 4916 H 479.903 3.49198 2.35878 0
M  V30 4917 H 478.627 2.24934 2.36796 0
M  V30 4918 H 477.286 3.59575 0.71424 0
M  V30 4919 H 476.934 3.9046 3.17097 0
M  V30 4920 H 476.634 5.41653 2.27784 0
M  V30 4921 H 478.158 5.20844 3.18675 0
M  V30 4922 H 479.572 5.65221 0.959085 0
M  V30 4923 H 477.969 5.99594 0.246466 0
M  V30 4924 H 479.039 4.8192 -0.536738 0
M  V30 4925 N 480.382 0.0267497 1.57577 0
M  V30 4926 C 481.312 -0.954308 2.13108 0
M  V30 4927 C 482.293 -1.34088 1.04663 0
M  V30 4928 O 483.478 -1.41992 1.32484 0
M  V30 4929 C 480.608 -2.23744 2.65624 0
M  V30 4930 C 479.562 -1.99168 3.78835 0
M  V30 4931 C 478.888 -3.33726 4.17769 0
M  V30 4932 C 480.188 -1.33277 5.0501 0
M  V30 4933 H 481.882 -0.491848 2.95332 0
M  V30 4934 H 479.428 -0.23514 1.42067 0
M  V30 4935 H 481.381 -2.92754 3.03106 0
M  V30 4936 H 480.105 -2.72151 1.80558 0
M  V30 4937 H 478.764 -1.32577 3.41788 0
M  V30 4938 H 478.412 -3.79888 3.29688 0
M  V30 4939 H 478.112 -3.18089 4.94058 0
M  V30 4940 H 479.636 -4.04008 4.57832 0
M  V30 4941 H 481.05 -1.92283 5.40093 0
M  V30 4942 H 479.447 -1.28045 5.8628 0
M  V30 4943 H 480.517 -0.305411 4.83937 0
M  V30 4944 N 481.861 -1.55662 -0.24637 0
M  V30 4945 C 482.824 -1.89558 -1.28842 0
M  V30 4946 C 483.824 -0.772082 -1.41052 0
M  V30 4947 O 485.014 -1.04007 -1.39743 0
M  V30 4948 C 482.146 -2.12449 -2.66605 0
M  V30 4949 H 483.339 -2.82735 -1.00004 0
M  V30 4950 H 480.892 -1.48562 -0.485684 0
M  V30 4951 H 481.627 -1.21742 -3.00582 0
M  V30 4952 H 481.412 -2.94273 -2.59125 0
M  V30 4953 H 482.902 -2.39854 -3.41847 0
M  V30 4954 N 483.339 0.512053 -1.4905 0
M  V30 4955 C 484.567 1.29116 -1.61669 0
M  V30 4956 C 484.982 1.86655 -0.283787 0
M  V30 4957 O 484.339 1.67293 0.729331 0
M  V30 4958 C 484.39 2.4293 -2.67707 0
M  V30 4959 O 484.111 1.87758 -3.95826 0
M  V30 4960 C 485.612 3.34476 -2.90931 0
M  V30 4961 H 482.832 0.392009 -0.544583 0
M  V30 4962 H 485.376 0.615881 -1.95006 0
M  V30 4963 H 483.531 3.06308 -2.37179 0
M  V30 4964 H 483.945 2.62393 -4.54148 0
M  V30 4965 H 485.419 4.10642 -3.68886 0
M  V30 4966 H 485.896 3.90801 -2.00427 0
M  V30 4967 H 486.502 2.76874 -3.22832 0
M  V30 4968 N 484.817 1.37938 0.762283 0
M  V30 4969 C 486.065 1.33404 1.51815 0
M  V30 4970 C 486.386 -0.0780975 1.94844 0
M  V30 4971 O 485.656 -1.02405 1.67003 0
M  V30 4972 H 484.236 0.490839 0.563104 0
M  V30 4973 H 486.898 1.72527 0.906669 0
M  V30 4974 H 485.994 1.97926 2.41313 0
M  V30 4975 N 486.295 -0.989507 1.22664 0
M  V30 4976 C 487.225 -2.09847 1.02404 0
M  V30 4977 C 488.206 -1.70007 -0.0561303 0
M  V30 4978 O 489.391 -1.93906 0.106748 0
M  V30 4979 C 486.521 -3.41996 0.604663 0
M  V30 4980 C 485.475 -3.95699 1.63115 0
M  V30 4981 C 484.801 -5.23936 1.0675 0
M  V30 4982 C 486.101 -4.25999 3.02196 0
M  V30 4983 H 487.795 -2.27054 1.95158 0
M  V30 4984 H 485.341 -1.09111 0.939727 0
M  V30 4985 H 487.294 -4.1899 0.45002 0
M  V30 4986 H 486.018 -3.24626 -0.35855 0
M  V30 4987 H 484.677 -3.2084 1.77362 0
M  V30 4988 H 484.325 -5.02909 0.0955422 0
M  V30 4989 H 484.025 -5.60833 1.75328 0
M  V30 4990 H 485.549 -6.0356 0.924516 0
M  V30 4991 H 486.963 -4.93777 2.91303 0
M  V30 4992 H 485.36 -4.74076 3.67929 0
M  V30 4993 H 486.43 -3.33636 3.51873 0
M  V30 4994 N 487.773 -1.03688 -1.18687 0
M  V30 4995 C 488.723 -0.595067 -2.20098 0
M  V30 4996 C 489.707 0.360465 -1.5681 0
M  V30 4997 O 490.899 0.180136 -1.76081 0
M  V30 4998 C 488.028 0.0444495 -3.43271 0
M  V30 4999 C 487.114 -0.934002 -4.13687 0
M  V30 5000 N 487.505 -2.09957 -4.60165 0
M  V30 5001 C 485.803 -0.759177 -4.39491 0
M  V30 5002 C 486.504 -2.71735 -5.1433 0
M  V30 5003 N 485.48 -1.99638 -5.05614 0
M  V30 5004 H 489.282 -1.48336 -2.5372 0
M  V30 5005 H 486.796 -0.904949 -1.3485 0
M  V30 5006 H 488.793 0.37864 -4.15177 0
M  V30 5007 H 487.453 0.928325 -3.11147 0
M  V30 5008 H 488.464 -2.47863 -4.54735 0
M  V30 5009 H 485.141 0.0749292 -4.17433 0
M  V30 5010 H 486.531 -3.70492 -5.60523 0
M  V30 5011 N 489.251 1.34841 -0.815825 0
M  V30 5012 C 490.497 1.98793 -0.401129 0
M  V30 5013 C 490.83 1.64548 1.03139 0
M  V30 5014 O 490.105 0.913487 1.71714 0
M  V30 5015 C 490.388 3.55143 -0.595409 0
M  V30 5016 C 490.241 3.99155 -2.07352 0
M  V30 5017 C 491.56 4.40092 -0.0268823 0
M  V30 5018 H 488.679 0.722146 -0.14722 0
M  V30 5019 H 491.321 1.59847 -1.02707 0
M  V30 5020 H 489.471 3.8845 -0.0625779 0
M  V30 5021 H 491.143 3.76216 -2.66945 0
M  V30 5022 H 489.386 3.49726 -2.56659 0
M  V30 5023 H 490.057 5.07971 -2.1603 0
M  V30 5024 H 492.533 4.13298 -0.482042 0
M  V30 5025 H 491.409 5.48562 -0.19267 0
M  V30 5026 H 491.67 4.29016 1.06759 0
M  V30 5027 N 490.729 0.570148 1.46925 0
M  V30 5028 C 491.679 -0.190921 2.27199 0
M  V30 5029 C 492.663 -0.873457 1.35128 0
M  V30 5030 O 493.855 -0.769627 1.59392 0
M  V30 5031 C 490.984 -1.21204 3.21192 0
M  V30 5032 C 490.07 -0.532261 4.20747 0
M  V30 5033 N 490.461 0.405038 5.04176 0
M  V30 5034 C 488.759 -0.784582 4.39045 0
M  V30 5035 C 489.46 0.801149 5.76157 0
M  V30 5036 N 488.436 0.153082 5.43384 0
M  V30 5037 H 492.238 0.529535 2.8909 0
M  V30 5038 H 489.752 0.391019 1.57622 0
M  V30 5039 H 491.749 -1.77135 3.77398 0
M  V30 5040 H 490.409 -1.93345 2.6086 0
M  V30 5041 H 491.42 0.779903 5.11994 0
M  V30 5042 H 488.097 -1.49352 3.89872 0
M  V30 5043 H 489.487 1.57208 6.5325 0
M  V30 5044 N 492.207 -1.54576 0.307264 0
M  V30 5045 C 493.623 -1.59534 -0.0459251 0
M  V30 5046 C 493.823 -1.32414 -1.51884 0
M  V30 5047 O 492.879 -1.1006 -2.27251 0
M  V30 5048 C 494.192 -2.98566 0.357649 0
M  V30 5049 C 495.74 -3.11491 0.306937 0
M  V30 5050 C 496.215 -4.52842 0.685427 0
M  V30 5051 N 497.706 -4.58782 0.638203 0
M  V30 5052 C 498.441 -5.66238 0.903458 0
M  V30 5053 N 497.937 -6.81703 1.23501 0
M  V30 5054 N 499.73 -5.55937 0.830102 0
M  V30 5055 H 491.881 -1.70464 1.26712 0
M  V30 5056 H 494.144 -0.79647 0.514139 0
M  V30 5057 H 493.85 -3.23356 1.38325 0
M  V30 5058 H 493.724 -3.76117 -0.285565 0
M  V30 5059 H 496.111 -2.86446 -0.709424 0
M  V30 5060 H 496.192 -2.36081 0.984861 0
M  V30 5061 H 495.836 -4.78618 1.69963 0
M  V30 5062 H 495.766 -5.26598 -0.0146346 0
M  V30 5063 H 498.257 -3.75849 0.393138 0
M  V30 5064 H 498.57 -7.59582 1.42322 0
M  V30 5065 H 496.915 -6.8324 1.27311 0
M  V30 5066 H 500.106 -4.64608 0.570693 0
M  V30 5067 H 500.279 -6.39597 1.04019 0
M  V30 5068 N 493.685 -0.035106 -1.57561 0
M  V30 5069 C 494.633 0.962707 -2.11742 0
M  V30 5070 C 495.627 1.33296 -1.0454 0
M  V30 5071 O 496.833 1.31449 -1.22968 0
M  V30 5072 H 493.208 0.32826 -0.676572 0
M  V30 5073 H 495.179 0.48048 -2.94506 0
M  V30 5074 C 493.928 2.23388 -2.66445 0
M  V30 5075 H 493.251 1.95774 -3.48587 0
M  V30 5076 H 494.691 2.91402 -3.07995 0
M  V30 5077 C 493.15 2.96769 -1.59467 0
M  V30 5078 O 493.68 3.89105 -0.998 0
M  V30 5079 N 491.886 2.59212 -1.31369 0
M  V30 5080 H 491.433 1.84202 -1.80076 0
M  V30 5081 H 491.391 3.08618 -0.600173 0
M  V30 5082 N 495.163 1.55791 0.238111 0
M  V30 5083 C 496.388 1.8244 0.986432 0
M  V30 5084 C 496.813 0.613314 1.7782 0
M  V30 5085 O 496.171 -0.437767 1.75935 0
M  V30 5086 C 496.219 3.06917 1.893 0
M  V30 5087 O 495.323 2.84449 2.98601 0
M  V30 5088 H 494.664 0.601975 0.280218 0
M  V30 5089 H 497.194 2.02987 0.256437 0
M  V30 5090 H 497.204 3.36583 2.30598 0
M  V30 5091 H 495.879 3.947 1.31091 0
M  V30 5092 H 494.456 2.65972 2.61368 0
M  V30 5093 N 496.642 -0.504142 1.49319 0
M  V30 5094 C 497.605 -1.5883 1.65244 0
M  V30 5095 C 498.605 -1.52009 0.524386 0
M  V30 5096 O 499.795 -1.55218 0.79077 0
M  V30 5097 C 496.927 -2.98481 1.64687 0
M  V30 5098 H 498.12 -1.4604 2.61939 0
M  V30 5099 H 495.673 -0.728144 1.38303 0
M  V30 5100 H 496.408 -3.16751 0.695644 0
M  V30 5101 H 496.193 -3.0484 2.46607 0
M  V30 5102 H 497.683 -3.77256 1.79075 0
M  V30 5103 N 498.12 -1.38341 -0.754957 0
M  V30 5104 C 499.07 -1.31964 -1.85929 0
M  V30 5105 C 500.054 -0.204181 -1.59599 0
M  V30 5106 O 501.246 -0.440036 -1.71443 0
M  V30 5107 C 498.375 -1.14565 -3.2362 0
M  V30 5108 C 497.461 -2.30727 -3.55846 0
M  V30 5109 N 497.852 -3.56165 -3.59138 0
M  V30 5110 C 496.15 -2.23249 -3.86104 0
M  V30 5111 C 496.851 -4.32865 -3.88591 0
M  V30 5112 N 495.827 -3.62203 -4.05351 0
M  V30 5113 H 499.629 -2.2694 -1.8675 0
M  V30 5114 H 497.143 -1.31553 -0.952243 0
M  V30 5115 H 499.14 -1.0808 -4.02647 0
M  V30 5116 H 497.8 -0.205212 -3.24051 0
M  V30 5117 H 498.811 -3.89854 -3.40932 0
M  V30 5118 H 495.488 -1.37357 -3.94258 0
M  V30 5119 H 496.878 -5.41504 -3.97773 0
M  V30 5120 N 499.598 0.982988 -1.23187 0
M  V30 5121 C 500.823 1.76455 -1.08988 0
M  V30 5122 C 501.248 1.84726 0.354691 0
M  V30 5123 O 500.606 1.30699 1.25649 0
M  V30 5124 C 500.654 3.17094 -1.71708 0
M  V30 5125 O 499.758 4.00648 -0.977477 0
M  V30 5126 H 499.099 0.542988 -0.382177 0
M  V30 5127 H 501.629 1.23413 -1.63188 0
M  V30 5128 H 501.639 3.67684 -1.76841 0
M  V30 5129 H 500.314 3.10389 -2.76823 0
M  V30 5130 H 498.891 3.59161 -1.0029 0
M  V30 5131 N 501.076 1.04316 1.18135 0
M  V30 5132 C 502.039 0.640794 2.2006 0
M  V30 5133 C 503.039 -0.303124 1.57917 0
M  V30 5134 O 504.229 -0.0881855 1.73977 0
M  V30 5135 C 501.361 -0.060148 3.40847 0
M  V30 5136 H 502.554 1.54281 2.57172 0
M  V30 5137 H 500.107 0.836004 1.32063 0
M  V30 5138 H 500.842 -0.975845 3.0927 0
M  V30 5139 H 500.627 0.618319 3.87194 0
M  V30 5140 H 502.117 -0.328082 4.16309 0
M  V30 5141 N 502.554 -1.34406 0.822964 0
M  V30 5142 C 503.802 -1.97892 0.410245 0
M  V30 5143 C 504.123 -1.65567 -1.03017 0
M  V30 5144 O 503.393 -0.94642 -1.71522 0
M  V30 5145 H 501.973 -0.732049 0.148707 0
M  V30 5146 H 504.635 -1.64043 1.05242 0
M  V30 5147 H 503.731 -3.07579 0.529284 0
M  V30 5148 N 504.032 -0.577932 -1.46621 0
M  V30 5149 C 505.278 -0.0617793 -2.02706 0
M  V30 5150 C 505.611 1.29294 -1.44903 0
M  V30 5151 O 504.886 1.8461 -0.61232 0
M  V30 5152 C 505.169 0.00911824 -3.60099 0
M  V30 5153 C 505.022 -1.37416 -4.28295 0
M  V30 5154 C 506.341 0.712159 -4.343 0
M  V30 5155 H 503.46 -0.0239246 -0.736612 0
M  V30 5156 H 506.102 -0.744211 -1.74818 0
M  V30 5157 H 504.252 0.590292 -3.83989 0
M  V30 5158 H 505.924 -2.00013 -4.15683 0
M  V30 5159 H 504.167 -1.94319 -3.87843 0
M  V30 5160 H 504.838 -1.27707 -5.37024 0
M  V30 5161 H 507.314 0.218486 -4.15526 0
M  V30 5162 H 506.19 0.730782 -5.44014 0
M  V30 5163 H 506.451 1.77251 -4.05012 0
M  V30 5164 N 505.51 1.54411 -0.315457 0
M  V30 5165 C 506.758 2.00023 0.288971 0
M  V30 5166 C 507.079 1.20529 1.5329 0
M  V30 5167 O 506.349 0.304986 1.93511 0
M  V30 5168 H 504.929 0.738891 0.109766 0
M  V30 5169 H 507.591 1.90094 -0.430129 0
M  V30 5170 H 506.687 3.07198 0.550999 0
M  V30 5171 N 506.988 0.0434614 1.5754 0
M  V30 5172 C 507.951 -0.918696 2.09982 0
M  V30 5173 C 508.951 -1.24488 1.01781 0
M  V30 5174 O 510.141 -1.18284 1.27885 0
M  V30 5175 C 507.273 -2.23093 2.57764 0
M  V30 5176 H 508.466 -0.464229 2.96285 0
M  V30 5177 H 506.019 -0.204818 1.54952 0
M  V30 5178 H 506.754 -2.73137 1.74832 0
M  V30 5179 H 506.539 -2.00724 3.36827 0
M  V30 5180 H 508.029 -2.92028 2.98512 0
M  V30 5181 N 508.466 -1.55915 -0.229846 0
M  V30 5182 C 509.715 -1.77742 -0.953455 0
M  V30 5183 C 510.028 -0.610524 -1.85828 0
M  V30 5184 O 511.234 -0.712219 -2.61992 0
M  V30 5185 C 509.69 -3.14738 -1.74551 0
M  V30 5186 C 509.298 -4.39126 -0.887242 0
M  V30 5187 C 511.042 -3.45895 -2.46084 0
M  V30 5188 C 508.949 -5.67149 -1.67617 0
M  V30 5189 H 507.879 -0.662648 -0.359741 0
M  V30 5190 H 510.53 -1.82322 -0.207576 0
M  V30 5191 H 508.912 -3.04311 -2.53399 0
M  V30 5192 H 510.086 -4.60588 -0.139892 0
M  V30 5193 H 508.401 -4.15427 -0.284443 0
M  V30 5194 H 510.998 -4.38767 -3.05594 0
M  V30 5195 H 511.341 -2.68007 -3.18556 0
M  V30 5196 H 511.874 -3.57614 -1.74233 0
M  V30 5197 H 508.613 -6.47906 -0.994881 0
M  V30 5198 H 508.133 -5.49763 -2.39836 0
M  V30 5199 H 509.812 -6.07025 -2.23898 0
M  V30 5200 N 509.944 0.496216 -1.49584 0
M  V30 5201 C 511.191 1.25003 -1.59312 0
M  V30 5202 C 511.519 1.92445 -0.28198 0
M  V30 5203 O 510.774 1.81557 0.730452 0
M  V30 5204 C 511.073 2.3359 -2.705 0
M  V30 5205 C 510.739 1.83574 -4.11839 0
M  V30 5206 C 509.401 1.69653 -4.50302 0
M  V30 5207 C 511.753 1.46193 -5.00277 0
M  V30 5208 C 509.081 1.16736 -5.74969 0
M  V30 5209 C 511.433 0.947265 -6.25468 0
M  V30 5210 C 510.097 0.794485 -6.62755 0
M  V30 5211 H 509.367 0.45742 -0.582965 0
M  V30 5212 H 512.014 0.549996 -1.83432 0
M  V30 5213 H 510.319 3.09401 -2.40371 0
M  V30 5214 H 512.016 2.91627 -2.75235 0
M  V30 5215 H 508.606 1.9537 -3.81482 0
M  V30 5216 H 512.79 1.55793 -4.71214 0
M  V30 5217 H 508.046 1.03623 -6.02555 0
M  V30 5218 H 512.22 0.648846 -6.93371 0
M  V30 5219 H 509.847 0.382271 -7.59238 0
M  V30 5220 N 511.423 1.38739 0.74761 0
M  V30 5221 C 512.7 1.25791 1.49786 0
M  V30 5222 C 513.08 -0.138075 2.10648 0
M  V30 5223 O 512.428 -1.14815 1.9756 0
M  V30 5224 C 512.638 2.37265 2.55942 0
M  V30 5225 C 513.986 2.75978 3.22679 0
M  V30 5226 O 515.01 2.36621 2.6625 0
M  V30 5227 O 513.869 3.43867 4.24756 0
M  V30 5228 H 510.963 0.492251 0.664543 0
M  V30 5229 H 513.509 1.50582 0.782511 0
M  V30 5230 H 512.281 3.30644 2.0926 0
M  V30 5231 H 511.904 2.14071 3.35051 0
M  V30 5232 N 512.901 -0.976442 1.23707 0
M  V30 5233 C 514.317 -1.24341 1.00058 0
M  V30 5234 C 514.517 -1.99315 -0.295932 0
M  V30 5235 O 513.573 -2.3123 -1.01435 0
M  V30 5236 C 514.886 -2.03909 2.21001 0
M  V30 5237 C 516.434 -2.17034 2.25534 0
M  V30 5238 C 516.909 -2.99994 3.46075 0
M  V30 5239 N 518.4 -3.07578 3.46338 0
M  V30 5240 C 519.135 -3.72104 4.36264 0
M  V30 5241 N 518.631 -4.3842 5.36432 0
M  V30 5242 N 520.424 -3.69029 4.23998 0
M  V30 5243 H 512.575 -0.47428 2.07037 0
M  V30 5244 H 514.838 -0.272167 0.908091 0
M  V30 5245 H 514.544 -1.56198 3.15111 0
M  V30 5246 H 514.418 -3.04654 2.22409 0
M  V30 5247 H 516.805 -2.63951 1.31961 0
M  V30 5248 H 516.886 -1.15664 2.28156 0
M  V30 5249 H 516.53 -2.53772 4.39957 0
M  V30 5250 H 516.46 -4.01541 3.40694 0
M  V30 5251 H 518.951 -2.60397 2.73865 0
M  V30 5252 H 519.264 -4.85447 6.013 0
M  V30 5253 H 517.609 -4.37116 5.40328 0
M  V30 5254 H 520.8 -3.16392 3.44984 0
M  V30 5255 H 520.973 -4.19034 4.94282 0
M  V30 5256 N 514.379 -1.04941 -1.1758 0
M  V30 5257 C 515.625 -0.759112 -1.88057 0
M  V30 5258 C 515.958 0.711918 -1.8068 0
M  V30 5259 O 515.233 1.52035 -1.21308 0
M  V30 5260 C 515.516 -1.237 -3.38187 0
M  V30 5261 C 515.369 -2.77078 -3.54327 0
M  V30 5262 C 516.688 -0.834014 -4.32125 0
M  V30 5263 H 513.807 -0.277237 -0.682868 0
M  V30 5264 H 516.449 -1.30296 -1.38286 0
M  V30 5265 H 514.599 -0.774337 -3.80705 0
M  V30 5266 H 516.271 -3.31449 -3.20842 0
M  V30 5267 H 514.514 -3.16477 -2.96689 0
M  V30 5268 H 515.185 -3.05577 -4.59703 0
M  V30 5269 H 517.661 -1.23228 -3.97434 0
M  V30 5270 H 516.537 -1.19603 -5.35711 0
M  V30 5271 H 516.798 0.262195 -4.41322 0
M  V30 5272 N 515.857 1.33968 -0.830081 0
M  V30 5273 C 516.787 2.31911 -0.271911 0
M  V30 5274 C 517.768 1.58571 0.61556 0
M  V30 5275 O 518.953 1.86514 0.540946 0
M  V30 5276 C 516.083 3.42737 0.561146 0
M  V30 5277 C 515.037 4.27383 -0.229789 0
M  V30 5278 C 514.363 5.29742 0.726463 0
M  V30 5279 C 515.663 5.02 -1.44197 0
M  V30 5280 H 517.357 2.78844 -1.09025 0
M  V30 5281 H 514.903 1.34061 -0.52571 0
M  V30 5282 H 516.856 4.10276 0.961867 0
M  V30 5283 H 515.58 2.94471 1.41261 0
M  V30 5284 H 514.239 3.61456 -0.611964 0
M  V30 5285 H 513.887 4.77736 1.57408 0
M  V30 5286 H 513.587 5.87255 0.20142 0
M  V30 5287 H 515.111 6.00149 1.12489 0
M  V30 5288 H 516.525 5.62355 -1.11488 0
M  V30 5289 H 514.922 5.69122 -1.90317 0
M  V30 5290 H 515.992 4.31281 -2.2164 0
M  V30 5291 N 517.335 0.585699 1.46312 0
M  V30 5292 C 518.563 0.0781299 2.06752 0
M  V30 5293 C 518.978 -1.22812 1.43396 0
M  V30 5294 O 518.335 -1.74318 0.540314 0
M  V30 5295 C 518.386 -0.0911927 3.61385 0
M  V30 5296 O 518.107 1.16336 4.22371 0
M  V30 5297 C 519.608 -0.632765 4.38761 0
M  V30 5298 H 516.828 0.0588188 0.668417 0
M  V30 5299 H 519.372 0.807218 1.87894 0
M  V30 5300 H 517.527 -0.770514 3.7966 0
M  V30 5301 H 517.941 0.979082 5.15281 0
M  V30 5302 H 519.415 -0.70041 5.47538 0
M  V30 5303 H 519.892 -1.65039 4.07012 0
M  V30 5304 H 520.498 0.0117856 4.25298 0
M  V30 5305 N 518.813 -1.54241 0.323641 0
M  V30 5306 C 519.723 -2.28033 -0.551205 0
M  V30 5307 C 520.739 -1.32388 -1.12913 0
M  V30 5308 O 521.915 -1.65403 -1.14908 0
M  V30 5309 C 518.98 -3.02382 -1.69606 0
M  V30 5310 C 518.041 -4.13612 -1.14993 0
M  V30 5311 C 517.274 -4.84407 -2.24022 0
M  V30 5312 O 517.497 -4.54716 -3.44368 0
M  V30 5313 O 516.431 -5.71312 -1.89436 0
M  V30 5314 H 520.257 -3.03662 0.048066 0
M  V30 5315 H 517.842 -1.49133 0.0893289 0
M  V30 5316 H 519.724 -3.48941 -2.36259 0
M  V30 5317 H 518.399 -2.29628 -2.28151 0
M  V30 5318 H 517.306 -3.71402 -0.448484 0
M  V30 5319 H 518.639 -4.8841 -0.609608 0
M  V30 5320 N 520.291 -0.0518155 -1.57515 0
M  V30 5321 C 521.221 0.920283 -2.146 0
M  V30 5322 C 522.202 1.32406 -1.06783 0
M  V30 5323 O 523.387 1.39866 -1.34726 0
M  V30 5324 C 520.517 2.1949 -2.6915 0
M  V30 5325 C 519.471 1.93116 -3.81956 0
M  V30 5326 C 518.797 3.27037 -4.23026 0
M  V30 5327 C 520.097 1.25225 -5.07066 0
M  V30 5328 H 521.791 0.444801 -2.96077 0
M  V30 5329 H 519.337 0.212508 -1.42423 0
M  V30 5330 H 521.29 2.87894 -3.07725 0
M  V30 5331 H 520.014 2.69244 -1.84865 0
M  V30 5332 H 518.673 1.27123 -3.43854 0
M  V30 5333 H 518.321 3.74595 -3.3569 0
M  V30 5334 H 518.021 3.10189 -4.99056 0
M  V30 5335 H 519.545 3.96673 -4.64202 0
M  V30 5336 H 520.959 1.83666 -5.43083 0
M  V30 5337 H 519.356 1.18702 -5.88243 0
M  V30 5338 H 520.426 0.228382 -4.84362 0
M  V30 5339 N 521.769 1.56035 0.221574 0
M  V30 5340 C 523.015 1.79312 0.947372 0
M  V30 5341 C 523.348 0.621453 1.83988 0
M  V30 5342 O 522.623 -0.379287 1.90766 0
M  V30 5343 C 522.906 3.1267 1.78633 0
M  V30 5344 C 522.759 4.40284 0.920312 0
M  V30 5345 C 524.078 3.4247 2.7641 0
M  V30 5346 H 521.197 0.652328 0.342982 0
M  V30 5347 H 523.839 1.88765 0.216244 0
M  V30 5348 H 521.989 3.04741 2.40967 0
M  V30 5349 H 523.661 4.60232 0.313718 0
M  V30 5350 H 521.904 4.33212 0.225734 0
M  V30 5351 H 522.575 5.30033 1.54171 0
M  V30 5352 H 525.051 3.50526 2.24211 0
M  V30 5353 H 523.927 4.3695 3.32213 0
M  V30 5354 H 524.188 2.64635 3.54148 0
M  V30 5355 N 523.247 -0.488276 1.49845 0
M  V30 5356 C 524.472 -1.26997 1.63971 0
M  V30 5357 C 524.897 -1.85427 0.315994 0
M  V30 5358 O 524.255 -1.66475 -0.718032 0
M  V30 5359 C 524.303 -2.36689 2.72049 0
M  V30 5360 O 523.407 -3.40882 2.32107 0
M  V30 5361 H 522.748 -0.374376 0.548396 0
M  V30 5362 H 525.278 -0.583104 1.96115 0
M  V30 5363 H 525.288 -2.82262 2.94605 0
M  V30 5364 H 523.963 -1.93529 3.68129 0
M  V30 5365 H 522.54 -3.01139 2.19931 0
M  V30 5366 N 524.725 -1.39134 -0.740242 0
M  V30 5367 C 525.672 -1.37434 -1.8542 0
M  V30 5368 C 526.642 -0.234822 -1.64432 0
M  V30 5369 O 527.827 -0.429125 -1.85912 0
M  V30 5370 C 524.967 -1.21844 -3.22875 0
M  V30 5371 C 524.08 -2.45296 -3.55603 0
M  V30 5372 C 523.215 -2.22334 -4.82432 0
M  V30 5373 C 522.254 -3.41488 -5.07988 0
M  V30 5374 N 521.391 -3.17877 -6.26018 0
M  V30 5375 H 526.231 -2.3266 -1.86207 0
M  V30 5376 H 523.768 -1.15578 -0.909946 0
M  V30 5377 H 525.726 -1.10818 -4.02213 0
M  V30 5378 H 524.356 -0.3025 -3.21379 0
M  V30 5379 H 523.408 -2.66945 -2.71006 0
M  V30 5380 H 524.72 -3.34063 -3.7041 0
M  V30 5381 H 523.874 -2.0852 -5.69741 0
M  V30 5382 H 522.613 -1.30954 -4.6979 0
M  V30 5383 H 521.618 -3.55807 -4.19144 0
M  V30 5384 H 522.843 -4.33763 -5.22519 0
M  V30 5385 H 520.789 -2.29156 -6.14673 0
M  V30 5386 H 520.706 -4.00198 -6.41387 0
M  V30 5387 H 521.974 -3.07746 -7.16179 0
M  V30 5388 N 526.204 0.969867 -1.24223 0
M  V30 5389 C 527.137 2.06279 -0.975926 0
M  V30 5390 C 528.115 1.62353 0.0895385 0
M  V30 5391 O 529.299 1.88442 -0.0469418 0
M  V30 5392 C 526.426 3.35391 -0.472315 0
M  V30 5393 C 525.472 3.98266 -1.526 0
M  V30 5394 S 526.305 4.36172 -3.10667 0
M  V30 5395 C 527.461 5.68423 -2.62003 0
M  V30 5396 H 527.694 2.28551 -1.90137 0
M  V30 5397 H 525.227 1.10748 -1.07584 0
M  V30 5398 H 527.185 4.10068 -0.188376 0
M  V30 5399 H 525.846 3.1111 0.432378 0
M  V30 5400 H 525.039 4.91307 -1.12399 0
M  V30 5401 H 524.641 3.30009 -1.75983 0
M  V30 5402 H 526.933 6.45842 -2.0468 0
M  V30 5403 H 527.876 6.13478 -3.53625 0
M  V30 5404 H 528.284 5.26928 -2.02502 0
M  V30 5405 N 527.682 1.05563 1.17022 0
M  V30 5406 C 529.098 0.777684 1.39371 0
M  V30 5407 C 529.298 -0.626269 1.91521 0
M  V30 5408 O 528.354 -1.38806 2.10924 0
M  V30 5409 C 529.667 1.83642 2.3811 0
M  V30 5410 C 531.215 1.85907 2.51809 0
M  V30 5411 C 531.69 2.90813 3.53824 0
M  V30 5412 N 533.181 2.898 3.61345 0
M  V30 5413 C 533.916 3.6762 4.40049 0
M  V30 5414 N 533.412 4.55237 5.22237 0
M  V30 5415 N 535.205 3.56044 4.34959 0
M  V30 5416 H 527.356 1.9614 0.815047 0
M  V30 5417 H 529.619 0.849527 0.420722 0
M  V30 5418 H 529.325 2.84425 2.06871 0
M  V30 5419 H 529.199 1.6812 3.37662 0
M  V30 5420 H 531.586 0.857865 2.82356 0
M  V30 5421 H 531.667 2.05506 1.52318 0
M  V30 5422 H 531.311 3.91122 3.24015 0
M  V30 5423 H 531.241 2.68465 4.53028 0
M  V30 5424 H 533.732 2.26274 3.02669 0
M  V30 5425 H 534.045 5.11291 5.79484 0
M  V30 5426 H 532.39 4.59296 5.21605 0
M  V30 5427 H 535.581 2.86986 3.69806 0
M  V30 5428 H 535.754 4.16938 4.96051 0
M  V30 5429 N 529.16 -1.33526 0.837174 0
M  V30 5430 C 530.437 -1.92369 0.354065 0
M  V30 5431 C 530.817 -1.76348 -1.16038 0
M  V30 5432 O 530.165 -1.15083 -1.97403 0
M  V30 5433 C 530.375 -3.39728 0.799101 0
M  V30 5434 C 531.723 -4.16877 0.806139 0
M  V30 5435 O 532.747 -3.48373 0.742597 0
M  V30 5436 O 531.606 -5.39166 0.892345 0
M  V30 5437 H 528.7 -0.820952 0.0998378 0
M  V30 5438 H 531.246 -1.42409 0.922913 0
M  V30 5439 H 530.018 -3.45254 1.84162 0
M  V30 5440 H 529.641 -3.97062 0.206731 0
M  V30 5441 N 530.638 -0.59345 -1.46 0
M  V30 5442 C 531.571 0.182196 -2.27472 0
M  V30 5443 C 532.549 0.886901 -1.36282 0
M  V30 5444 O 533.733 0.898627 -1.65701 0
M  V30 5445 C 530.86 1.26236 -3.14296 0
M  V30 5446 C 529.906 0.662331 -4.21326 0
M  V30 5447 S 530.739 -0.519017 -5.32979 0
M  V30 5448 C 531.895 0.562086 -6.23371 0
M  V30 5449 H 532.128 -0.509056 -2.92909 0
M  V30 5450 H 529.661 -0.380607 -1.49635 0
M  V30 5451 H 531.619 1.88075 -3.64881 0
M  V30 5452 H 530.28 1.92562 -2.48151 0
M  V30 5453 H 529.473 1.47461 -4.81945 0
M  V30 5454 H 529.075 0.119381 -3.73809 0
M  V30 5455 H 531.367 1.44494 -6.61912 0
M  V30 5456 H 532.31 -0.00760776 -7.081 0
M  V30 5457 H 532.718 0.871061 -5.57739 0
M  V30 5458 N 532.116 1.54067 -0.331816 0
M  V30 5459 C 533.048 2.22139 0.564538 0
M  V30 5460 C 534.061 1.22408 1.07332 0
M  V30 5461 O 535.25 1.4883 0.985481 0
M  V30 5462 C 532.35 2.87876 1.78831 0
M  V30 5463 C 531.523 4.13817 1.41682 0
M  V30 5464 C 530.582 4.63072 2.49901 0
M  V30 5465 O 529.608 5.27562 2.13699 0
M  V30 5466 N 530.81 4.38001 3.80967 0
M  V30 5467 H 533.575 2.99694 -0.0183736 0
M  V30 5468 H 531.136 1.61153 -0.155396 0
M  V30 5469 H 533.128 3.17747 2.50637 0
M  V30 5470 H 531.698 2.13977 2.27887 0
M  V30 5471 H 530.918 3.9062 0.530044 0
M  V30 5472 H 532.206 4.95762 1.14443 0
M  V30 5473 H 531.604 3.864 4.13173 0
M  V30 5474 H 530.161 4.72507 4.48977 0
M  V30 5475 N 533.594 0.0601682 1.57485 0
M  V30 5476 C 534.527 -0.94676 2.07634 0
M  V30 5477 C 535.505 -1.29837 0.978826 0
M  V30 5478 O 536.689 -1.40969 1.2514 0
M  V30 5479 C 533.816 -2.25822 2.52433 0
M  V30 5480 C 532.862 -2.05901 3.73507 0
M  V30 5481 S 533.695 -1.32907 5.18745 0
M  V30 5482 C 534.851 -2.65356 5.66866 0
M  V30 5483 H 535.084 -0.520003 2.92717 0
M  V30 5484 H 532.617 -0.152319 1.53647 0
M  V30 5485 H 534.575 -3.01201 2.78905 0
M  V30 5486 H 533.236 -2.65624 1.67639 0
M  V30 5487 H 532.429 -3.02929 4.02803 0
M  V30 5488 H 532.031 -1.38659 3.47347 0
M  V30 5489 H 534.323 -3.61492 5.73001 0
M  V30 5490 H 535.266 -2.40685 6.6594 0
M  V30 5491 H 535.674 -2.72028 4.94632 0
M  V30 5492 N 535.072 -1.5615 -0.213296 0
M  V30 5493 C 536.349 -1.70349 -0.961281 0
M  V30 5494 C 536.729 -0.609791 -2.02101 0
M  V30 5495 O 536.077 0.381987 -2.25285 0
M  V30 5496 C 536.287 -3.11982 -1.56424 0
M  V30 5497 C 537.635 -3.71649 -2.05334 0
M  V30 5498 O 538.659 -3.14995 -1.66302 0
M  V30 5499 O 537.518 -4.71038 -2.77102 0
M  V30 5500 H 534.612 -0.694121 -0.449582 0
M  V30 5501 H 537.158 -1.68464 -0.204426 0
M  V30 5502 H 535.93 -3.83046 -0.799457 0
M  V30 5503 H 535.553 -3.18019 -2.38641 0
M  V30 5504 N 536.55 0.480323 -1.50102 0
M  V30 5505 C 537.497 1.57946 -1.6829 0
M  V30 5506 C 538.467 1.57611 -0.524223 0
M  V30 5507 O 539.652 1.75282 -0.753709 0
M  V30 5508 C 536.792 2.95978 -1.77457 0
M  V30 5509 C 535.905 3.06173 -3.04766 0
M  V30 5510 C 535.04 4.35063 -3.04784 0
M  V30 5511 C 534.079 4.38966 -4.26586 0
M  V30 5512 N 533.216 5.59314 -4.24396 0
M  V30 5513 H 538.056 1.41743 -2.62131 0
M  V30 5514 H 535.593 0.689304 -1.2995 0
M  V30 5515 H 537.551 3.76011 -1.80752 0
M  V30 5516 H 536.181 3.10837 -0.870637 0
M  V30 5517 H 535.233 2.19071 -3.10986 0
M  V30 5518 H 536.545 3.04916 -3.9475 0
M  V30 5519 H 535.699 5.23436 -3.06757 0
M  V30 5520 H 534.438 4.38915 -2.12614 0
M  V30 5521 H 533.443 3.48992 -4.24835 0
M  V30 5522 H 534.668 4.36813 -5.19972 0
M  V30 5523 H 532.614 5.63969 -3.35074 0
M  V30 5524 H 532.531 5.5976 -5.08138 0
M  V30 5525 H 533.799 6.49837 -4.30502 0
M  V30 5526 N 538.028 1.39524 0.732853 0
M  V30 5527 C 539.256 1.40143 1.52209 0
M  V30 5528 C 539.671 -0.00348836 1.888 0
M  V30 5529 O 539.028 -0.975357 1.5425 0
M  V30 5530 C 539.079 2.27632 2.8083 0
M  V30 5531 O 538.8 3.62654 2.45792 0
M  V30 5532 C 540.301 2.36658 3.74844 0
M  V30 5533 H 537.521 0.478604 0.470297 0
M  V30 5534 H 540.065 1.83366 0.905388 0
M  V30 5535 H 538.22 1.87818 3.38826 0
M  V30 5536 H 538.634 4.08941 3.28431 0
M  V30 5537 H 540.108 3.02118 4.61984 0
M  V30 5538 H 540.585 1.38638 4.16745 0
M  V30 5539 H 541.191 2.76951 3.22766 0
M  V30 5540 N 539.506 -0.963266 1.24736 0
M  V30 5541 C 540.416 -2.09246 1.06082 0
M  V30 5542 C 541.432 -1.74 0.000363101 0
M  V30 5543 O 542.608 -2.0041 0.199479 0
M  V30 5544 C 539.673 -3.40115 0.672498 0
M  V30 5545 C 538.734 -3.89282 1.80993 0
M  V30 5546 C 537.967 -5.13905 1.44004 0
M  V30 5547 O 538.19 -5.69434 0.331835 0
M  V30 5548 O 537.124 -5.57566 2.26723 0
M  V30 5549 H 540.95 -2.27881 2.00759 0
M  V30 5550 H 538.535 -1.07649 1.03595 0
M  V30 5551 H 540.417 -4.18797 0.467668 0
M  V30 5552 H 539.092 -3.22771 -0.245102 0
M  V30 5553 H 537.999 -3.11642 2.06955 0
M  V30 5554 H 539.332 -4.1111 2.70646 0
M  V30 5555 N 540.985 -1.06182 -1.16461 0
M  V30 5556 C 541.915 -0.692861 -2.22984 0
M  V30 5557 C 542.896 0.314122 -1.67174 0
M  V30 5558 O 544.081 0.189499 -1.93273 0
M  V30 5559 C 541.211 -0.07732 -3.47214 0
M  V30 5560 C 540.165 -1.01015 -4.15909 0
M  V30 5561 C 539.491 -0.257973 -5.34077 0
M  V30 5562 C 540.791 -2.33868 -4.67015 0
M  V30 5563 H 542.485 -1.58343 -2.54102 0
M  V30 5564 H 540.031 -0.76279 -1.22137 0
M  V30 5565 H 541.984 0.19266 -4.20959 0
M  V30 5566 H 540.708 0.848254 -3.15392 0
M  V30 5567 H 539.367 -1.26486 -3.44088 0
M  V30 5568 H 539.015 0.670684 -4.98509 0
M  V30 5569 H 538.715 -0.879638 -5.80979 0
M  V30 5570 H 540.239 0.00448788 -6.106 0
M  V30 5571 H 541.653 -2.1279 -5.32347 0
M  V30 5572 H 540.05 -2.91522 -5.24533 0
M  V30 5573 H 541.12 -2.97019 -3.83286 0
M  V30 5574 N 542.463 1.3308 -0.844243 0
M  V30 5575 C 543.711 1.97215 -0.441676 0
M  V30 5576 C 544.032 1.67185 1.0037 0
M  V30 5577 O 543.302 0.973588 1.69994 0
M  V30 5578 H 541.882 0.72959 -0.160335 0
M  V30 5579 H 544.544 1.62348 -1.07838 0
M  V30 5580 H 543.64 3.06698 -0.57815 0
M  V30 5581 N 543.941 0.601185 1.45683 0
M  V30 5582 C 545.181 0.0968037 2.04171 0
M  V30 5583 C 545.545 -1.2466 1.46027 0
M  V30 5584 O 546.746 -1.84132 1.95829 0
M  V30 5585 C 545.017 0.051384 3.57363 0
M  V30 5586 S 546.576 -0.392737 4.37039 0
M  V30 5587 H 543.394 0.0464504 0.709481 0
M  V30 5588 H 545.996 0.797846 1.78479 0
M  V30 5589 H 544.7 1.03274 3.97193 0
M  V30 5590 H 544.231 -0.671853 3.87621 0
M  V30 5591 H 546.246 -1.64364 4.68187 0
M  V30 5592 N 545.419 -1.53889 0.339982 0
M  V30 5593 C 546.349 -2.27843 -0.510856 0
M  V30 5594 C 547.33 -1.29267 -1.10563 0
M  V30 5595 O 548.515 -1.58104 -1.12768 0
M  V30 5596 C 545.645 -3.04857 -1.66372 0
M  V30 5597 C 544.599 -4.10907 -1.19746 0
M  V30 5598 C 543.925 -4.75855 -2.43857 0
M  V30 5599 C 545.225 -5.21435 -0.300501 0
M  V30 5600 H 546.919 -2.99212 0.106067 0
M  V30 5601 H 544.465 -1.43904 0.0524533 0
M  V30 5602 H 546.418 -3.5533 -2.26537 0
M  V30 5603 H 545.142 -2.31133 -2.30749 0
M  V30 5604 H 543.801 -3.61342 -0.618654 0
M  V30 5605 H 543.449 -3.9873 -3.06633 0
M  V30 5606 H 543.149 -5.47502 -2.13343 0
M  V30 5607 H 544.673 -5.2911 -3.04754 0
M  V30 5608 H 546.087 -5.67565 -0.80889 0
M  V30 5609 H 544.484 -6.00036 -0.0874076 0
M  V30 5610 H 545.554 -4.80328 0.664321 0
M  V30 5611 N 546.897 -0.0685191 -1.57451 0
M  V30 5612 C 548.313 0.288101 -1.56978 0
M  V30 5613 C 548.513 1.70262 -1.07765 0
M  V30 5614 O 547.569 2.4135 -0.742054 0
M  V30 5615 C 548.882 0.100745 -3.00531 0
M  V30 5616 C 550.43 0.170531 -3.12535 0
M  V30 5617 C 550.905 0.0114944 -4.57999 0
M  V30 5618 N 552.396 0.0672065 -4.63151 0
M  V30 5619 C 553.131 -0.0314813 -5.73391 0
M  V30 5620 N 552.627 -0.183503 -6.92557 0
M  V30 5621 N 554.42 0.0253489 -5.62094 0
M  V30 5622 H 546.571 -0.993026 -1.87757 0
M  V30 5623 H 548.834 -0.386981 -0.865419 0
M  V30 5624 H 548.54 -0.875197 -3.40636 0
M  V30 5625 H 548.414 0.854457 -3.67395 0
M  V30 5626 H 550.801 1.13696 -2.72318 0
M  V30 5627 H 550.882 -0.614229 -2.48316 0
M  V30 5628 H 550.526 -0.951684 -4.98904 0
M  V30 5629 H 550.456 0.815617 -5.20245 0
M  V30 5630 H 552.947 0.183246 -3.77455 0
M  V30 5631 H 553.26 -0.251041 -7.72392 0
M  V30 5632 H 551.605 -0.218822 -6.94655 0
M  V30 5633 H 554.796 0.142794 -4.67882 0
M  V30 5634 H 554.969 -0.0550166 -6.47977 0
M  V30 5635 N 548.375 1.56261 0.205012 0
M  V30 5636 C 549.338 1.92908 1.23771 0
M  V30 5637 C 550.338 0.809208 1.38955 0
M  V30 5638 O 551.528 1.07676 1.36936 0
M  V30 5639 C 548.66 2.19442 2.60879 0
M  V30 5640 H 549.853 2.85287 0.924728 0
M  V30 5641 H 547.406 1.49798 0.446125 0
M  V30 5642 H 548.141 1.29668 2.97248 0
M  V30 5643 H 547.926 3.0104 2.51232 0
M  V30 5644 H 549.416 2.48833 3.35368 0
M  V30 5645 N 549.853 -0.472356 1.50355 0
M  V30 5646 C 551.102 -1.2213 1.60522 0
M  V30 5647 C 551.415 -1.9312 0.310466 0
M  V30 5648 O 552.621 -2.69936 0.291029 0
M  V30 5649 C 551.077 -2.21909 2.83345 0
M  V30 5650 C 550.685 -1.56727 4.19691 0
M  V30 5651 C 552.429 -2.97453 3.02856 0
M  V30 5652 C 550.336 -2.54785 5.33703 0
M  V30 5653 H 549.266 -0.459543 0.597776 0
M  V30 5654 H 551.917 -0.491922 1.76783 0
M  V30 5655 H 550.299 -2.98133 2.60639 0
M  V30 5656 H 551.473 -0.863007 4.52646 0
M  V30 5657 H 549.788 -0.934685 4.05774 0
M  V30 5658 H 552.385 -3.70838 3.85205 0
M  V30 5659 H 552.728 -3.56764 2.14534 0
M  V30 5660 H 553.261 -2.28342 3.25737 0
M  V30 5661 H 550 -2.00214 6.24175 0
M  V30 5662 H 549.52 -3.23367 5.05167 0
M  V30 5663 H 551.199 -3.16639 5.64224 0
M  V30 5664 N 551.331 -1.39911 -0.725443 0
M  V30 5665 C 552.577 -1.37858 -1.48738 0
M  V30 5666 C 552.91 0.0224187 -1.94187 0
M  V30 5667 O 552.185 0.989204 -1.67466 0
M  V30 5668 C 552.468 -2.3594 -2.72038 0
M  V30 5669 C 552.321 -3.85023 -2.32546 0
M  V30 5670 C 553.64 -2.31704 -3.74167 0
M  V30 5671 H 550.759 -0.502074 -0.539528 0
M  V30 5672 H 553.401 -1.70974 -0.828728 0
M  V30 5673 H 551.551 -2.0783 -3.28236 0
M  V30 5674 H 553.223 -4.2392 -1.81905 0
M  V30 5675 H 551.466 -4.01334 -1.64661 0
M  V30 5676 H 552.137 -4.49152 -3.20884 0
M  V30 5677 H 554.613 -2.5658 -3.27576 0
M  V30 5678 H 553.489 -3.02395 -4.58092 0
M  V30 5679 H 553.75 -1.3253 -4.21768 0
M  V30 5680 N 552.809 0.956637 -1.25245 0
M  V30 5681 C 553.739 2.07058 -1.07931 0
M  V30 5682 C 554.72 1.70096 0.0110361 0
M  V30 5683 O 555.905 1.93555 -0.158121 0
M  V30 5684 C 553.035 3.40272 -0.695124 0
M  V30 5685 C 551.989 3.91235 -1.73549 0
M  V30 5686 C 551.315 5.20921 -1.20604 0
M  V30 5687 C 552.615 4.17837 -3.13385 0
M  V30 5688 H 554.309 2.218 -2.01109 0
M  V30 5689 H 551.855 1.06581 -0.968326 0
M  V30 5690 H 553.808 4.1765 -0.560949 0
M  V30 5691 H 552.532 3.25462 0.272355 0
M  V30 5692 H 551.191 3.16025 -1.85807 0
M  V30 5693 H 550.839 5.02479 -0.228846 0
M  V30 5694 H 550.539 5.55987 -1.90136 0
M  V30 5695 H 552.063 6.00897 -1.08421 0
M  V30 5696 H 553.477 4.8588 -3.04292 0
M  V30 5697 H 551.874 4.64154 -3.80369 0
M  V30 5698 H 552.944 3.2419 -3.60595 0
M  V30 5699 N 554.287 1.06798 1.15896 0
M  V30 5700 C 555.534 0.787767 1.86549 0
M  V30 5701 C 555.862 -0.685959 1.82002 0
M  V30 5702 O 555.117 -1.5188 1.23414 0
M  V30 5703 C 555.416 1.23414 3.35416 0
M  V30 5704 C 555.082 2.71285 3.6016 0
M  V30 5705 C 553.744 3.11676 3.66622 0
M  V30 5706 C 556.096 3.6676 3.7032 0
M  V30 5707 C 553.424 4.4637 3.8075 0
M  V30 5708 C 555.776 5.01209 3.8597 0
M  V30 5709 C 554.44 5.41229 3.90676 0
M  V30 5710 H 553.71 0.288264 0.682631 0
M  V30 5711 H 556.357 1.338 1.37003 0
M  V30 5712 H 554.662 0.60319 3.87129 0
M  V30 5713 H 556.359 0.994298 3.88477 0
M  V30 5714 H 552.949 2.39015 3.55767 0
M  V30 5715 H 557.133 3.36685 3.64633 0
M  V30 5716 H 552.389 4.76855 3.82648 0
M  V30 5717 H 556.563 5.75067 3.92773 0
M  V30 5718 H 554.19 6.45602 4.01375 0
M  V30 5719 N 555.766 -1.3263 0.851289 0
M  V30 5720 C 556.714 -2.30882 0.282202 0
M  V30 5721 C 557.708 -1.58697 -0.592589 0
M  V30 5722 O 558.914 -1.73461 -0.480768 0
M  V30 5723 H 555.289 -0.748492 0.0725487 0
M  V30 5724 H 557.26 -2.76374 1.12516 0
M  V30 5725 C 556.009 -3.43828 -0.517449 0
M  V30 5726 H 555.332 -3.99532 0.146392 0
M  V30 5727 H 556.772 -4.1474 -0.88128 0
M  V30 5728 C 555.231 -2.90786 -1.70133 0
M  V30 5729 O 555.761 -2.88 -2.80034 0
M  V30 5730 N 553.967 -2.4723 -1.52728 0
M  V30 5731 H 553.514 -2.49695 -0.633257 0
M  V30 5732 H 553.472 -2.12094 -2.32085 0
M  V30 5733 N 557.244 -0.608902 -1.45362 0
M  V30 5734 C 558.655 -0.189511 -1.85736 0
M  V30 5735 C 559.006 1.2539 -1.50903 0
M  V30 5736 O 558.131 1.95094 -0.936347 0
M  V30 5737 C 558.726 -0.33716 -3.37118 0
M  V30 5738 C 557.285 0.0275487 -3.7639 0
M  V30 5739 C 556.432 -0.660983 -2.69307 0
M  V30 5740 H 559.383 -0.815499 -1.36144 0
M  V30 5741 H 559.404 0.430257 -3.7806 0
M  V30 5742 H 558.916 -1.38779 -3.62439 0
M  V30 5743 H 557.017 1.0773 -3.56686 0
M  V30 5744 H 557.13 -0.367018 -4.77692 0
M  V30 5745 H 555.494 -0.0984958 -2.54509 0
M  V30 5746 H 556.277 -1.71377 -2.97464 0
M  V30 5747 N 558.722 1.53707 -0.348139 0
M  V30 5748 C 559.999 1.93247 0.302475 0
M  V30 5749 C 560.379 1.28012 1.67857 0
M  V30 5750 O 559.727 0.43274 2.24365 0
M  V30 5751 C 559.937 3.47031 0.370159 0
M  V30 5752 C 561.285 4.20066 0.61882 0
M  V30 5753 O 562.309 3.53319 0.452087 0
M  V30 5754 O 561.168 5.38318 0.94215 0
M  V30 5755 H 558.262 0.807736 0.177458 0
M  V30 5756 H 560.808 1.64927 -0.399651 0
M  V30 5757 H 559.58 3.86745 -0.59534 0
M  V30 5758 H 559.203 3.81532 1.11888 0
M  V30 5759 N 560.2 0.0768682 1.57412 0
M  V30 5760 C 561.425 -0.603404 1.98428 0
M  V30 5761 C 561.85 -1.62047 0.955108 0
M  V30 5762 O 561.208 -1.81129 -0.0786778 0
M  V30 5763 C 561.256 -1.24396 3.38464 0
M  V30 5764 O 560.36 -2.35982 3.3821 0
M  V30 5765 H 559.701 -0.154741 0.645718 0
M  V30 5766 H 562.231 0.152885 2.04028 0
M  V30 5767 H 562.241 -1.5896 3.7576 0
M  V30 5768 H 560.916 -0.498735 4.12899 0
M  V30 5769 H 559.493 -2.03173 3.1269 0
M  V30 5770 N 561.678 -1.56367 -0.196722 0
M  V30 5771 C 562.625 -1.94417 -1.24382 0
M  V30 5772 C 563.595 -0.804543 -1.45315 0
M  V30 5773 O 564.78 -1.06256 -1.58475 0
M  V30 5774 C 561.92 -2.28757 -2.58388 0
M  V30 5775 C 561.033 -3.55775 -2.45047 0
M  V30 5776 C 560.168 -3.79445 -3.71746 0
M  V30 5777 C 559.207 -4.99894 -3.53231 0
M  V30 5778 N 558.344 -5.19826 -4.71938 0
M  V30 5779 H 563.184 -2.83691 -0.912338 0
M  V30 5780 H 560.721 -1.40392 -0.439135 0
M  V30 5781 H 562.679 -2.46682 -3.36457 0
M  V30 5782 H 561.309 -1.42625 -2.89582 0
M  V30 5783 H 560.361 -3.45905 -1.58284 0
M  V30 5784 H 561.673 -4.44 -2.27299 0
M  V30 5785 H 560.827 -3.97601 -4.58256 0
M  V30 5786 H 559.566 -2.89546 -3.92446 0
M  V30 5787 H 558.571 -4.81662 -2.65107 0
M  V30 5788 H 559.796 -5.913 -3.33978 0
M  V30 5789 H 557.742 -4.32875 -4.92905 0
M  V30 5790 H 557.659 -6.02228 -4.57009 0
M  V30 5791 H 558.927 -5.42439 -5.59803 0
M  V30 5792 N 563.156 0.464375 -1.50603 0
M  V30 5793 C 564.404 1.21356 -1.61608 0
M  V30 5794 C 564.725 1.92329 -0.321643 0
M  V30 5795 O 563.995 1.84403 0.661232 0
M  V30 5796 H 562.575 0.45094 -0.595535 0
M  V30 5797 H 565.237 0.535046 -1.87412 0
M  V30 5798 H 564.333 1.95783 -2.43054 0
M  V30 5799 N 564.634 1.40294 0.718013 0
M  V30 5800 C 565.564 1.43118 1.84498 0
M  V30 5801 C 566.545 0.292403 1.67568 0
M  V30 5802 O 567.73 0.500675 1.87635 0
M  V30 5803 C 564.86 1.29065 3.22427 0
M  V30 5804 C 563.814 2.40521 3.54025 0
M  V30 5805 C 563.14 2.11546 4.91073 0
M  V30 5806 C 564.44 3.82859 3.55269 0
M  V30 5807 H 566.134 2.37432 1.82391 0
M  V30 5808 H 563.68 1.14283 0.87609 0
M  V30 5809 H 565.633 1.29658 4.00957 0
M  V30 5810 H 564.357 0.312271 3.25104 0
M  V30 5811 H 563.016 2.39173 2.77834 0
M  V30 5812 H 562.664 1.12104 4.90348 0
M  V30 5813 H 562.364 2.86216 5.1318 0
M  V30 5814 H 563.888 2.13817 5.71939 0
M  V30 5815 H 565.302 3.86044 4.23843 0
M  V30 5816 H 563.699 4.57029 3.88902 0
M  V30 5817 H 564.769 4.12617 2.54706 0
M  V30 5818 N 566.112 -0.949982 1.2575 0
M  V30 5819 C 567.337 -1.73503 1.13628 0
M  V30 5820 C 567.762 -1.85601 -0.30559 0
M  V30 5821 O 567.12 -1.33984 -1.22139 0
M  V30 5822 C 567.168 -3.1243 1.80055 0
M  V30 5823 O 566.272 -3.97916 1.08336 0
M  V30 5824 H 565.613 -0.532665 0.396439 0
M  V30 5825 H 568.143 -1.19043 1.66403 0
M  V30 5826 H 568.153 -3.62866 1.86527 0
M  V30 5827 H 566.828 -3.02941 2.84956 0
M  V30 5828 H 565.405 -3.56375 1.09777 0
M  V30 5829 N 567.59 -1.07411 -1.15328 0
M  V30 5830 C 568.538 -0.689316 -2.22151 0
M  V30 5831 C 569.532 0.300156 -1.6672 0
M  V30 5832 O 570.738 0.163804 -1.79253 0
M  V30 5833 H 567.113 -0.204834 -0.723566 0
M  V30 5834 H 569.084 -1.59988 -2.51886 0
M  V30 5835 C 567.833 -0.103848 -3.47545 0
M  V30 5836 H 567.156 -0.856367 -3.90521 0
M  V30 5837 H 568.596 0.127725 -4.23808 0
M  V30 5838 C 567.055 1.15563 -3.1646 0
M  V30 5839 O 567.585 2.242 -3.33312 0
M  V30 5840 N 565.791 1.06203 -2.70498 0
M  V30 5841 H 565.338 0.177933 -2.56985 0
M  V30 5842 H 565.296 1.90553 -2.50074 0
M  V30 5843 N 569.068 1.32177 -0.85831 0
M  V30 5844 C 570.479 1.79381 -0.517621 0
M  V30 5845 C 570.83 1.70841 0.964769 0
M  V30 5846 O 569.955 1.26917 1.75274 0
M  V30 5847 C 570.55 3.25706 -0.932801 0
M  V30 5848 C 569.109 3.70851 -0.643953 0
M  V30 5849 C 568.256 2.53208 -1.13054 0
M  V30 5850 H 571.207 1.19424 -1.04516 0
M  V30 5851 H 571.228 3.79673 -0.250674 0
M  V30 5852 H 570.74 3.31889 -2.01174 0
M  V30 5853 H 568.841 3.70178 0.424112 0
M  V30 5854 H 568.954 4.63495 -1.21281 0
M  V30 5855 H 567.318 2.48676 -0.550679 0
M  V30 5856 H 568.101 2.62143 -2.21666 0
M  V30 5857 N 570.547 0.616602 1.45037 0
M  V30 5858 C 571.51 -0.0871112 2.29034 0
M  V30 5859 C 572.51 -0.786414 1.40258 0
M  V30 5860 O 573.7 -0.633207 1.62284 0
M  V30 5861 C 570.832 -1.13369 3.21497 0
M  V30 5862 H 572.025 0.651497 2.92738 0
M  V30 5863 H 569.578 0.376058 1.51709 0
M  V30 5864 H 570.313 -1.90277 2.62612 0
M  V30 5865 H 570.098 -0.636358 3.86902 0
M  V30 5866 H 571.588 -1.62627 3.84633 0
M  V30 5867 N 572.025 -1.5352 0.356285 0
M  V30 5868 C 572.935 -2.29151 -0.502712 0
M  V30 5869 C 573.951 -1.34753 -1.1008 0
M  V30 5870 O 575.127 -1.67803 -1.11374 0
M  V30 5871 C 572.192 -3.05911 -1.63154 0
M  V30 5872 C 571.253 -4.15958 -1.06194 0
M  V30 5873 C 570.486 -4.8905 -2.13696 0
M  V30 5874 O 570.709 -4.61919 -3.34645 0
M  V30 5875 O 569.643 -5.75202 -1.77275 0
M  V30 5876 H 573.469 -3.03492 0.112466 0
M  V30 5877 H 571.054 -1.4891 0.120942 0
M  V30 5878 H 572.936 -3.53874 -2.28804 0
M  V30 5879 H 571.611 -2.34415 -2.23229 0
M  V30 5880 H 570.518 -3.7227 -0.369603 0
M  V30 5881 H 571.851 -4.89593 -0.505872 0
M  V30 5882 N 573.503 -0.0852151 -1.57369 0
M  V30 5883 C 574.749 0.581666 -1.94279 0
M  V30 5884 C 575.082 1.68444 -0.966446 0
M  V30 5885 O 574.357 1.945 0.00215277 0
M  V30 5886 C 574.64 1.14609 -3.41375 0
M  V30 5887 C 574.493 0.0490414 -4.49773 0
M  V30 5888 C 575.812 2.04751 -3.8957 0
M  V30 5889 H 572.931 0.209972 -0.706456 0
M  V30 5890 H 575.573 -0.153915 -1.89376 0
M  V30 5891 H 573.723 1.77297 -3.45685 0
M  V30 5892 H 575.395 -0.584721 -4.57579 0
M  V30 5893 H 573.638 -0.618638 -4.29366 0
M  V30 5894 H 574.309 0.484601 -5.49869 0
M  V30 5895 H 576.785 1.51981 -3.87351 0
M  V30 5896 H 575.661 2.41173 -4.93079 0
M  V30 5897 H 575.922 2.96107 -3.28288 0
M  V30 5898 N 574.981 1.5647 0.188427 0
M  V30 5899 C 575.891 1.98285 1.2538 0
M  V30 5900 C 576.907 0.891535 1.49424 0
M  V30 5901 O 578.083 1.19782 1.61908 0
M  V30 5902 C 575.148 2.31965 2.57669 0
M  V30 5903 C 574.209 3.54838 2.41638 0
M  V30 5904 C 573.442 3.86901 3.67618 0
M  V30 5905 O 573.665 3.20163 4.72072 0
M  V30 5906 O 572.599 4.80309 3.62749 0
M  V30 5907 H 576.425 2.89145 0.928912 0
M  V30 5908 H 574.01 1.44112 0.393955 0
M  V30 5909 H 575.892 2.54673 3.35737 0
M  V30 5910 H 574.567 1.44271 2.89771 0
M  V30 5911 H 573.474 3.37369 1.61658 0
M  V30 5912 H 574.807 4.43019 2.14465 0
M  V30 5913 N 576.459 -0.456382 1.50847 0
M  V30 5914 C 577.422 -1.53493 1.70213 0
M  V30 5915 C 578.422 -1.50264 0.572481 0
M  V30 5916 O 579.612 -1.52623 0.839751 0
M  V30 5917 C 576.744 -2.93091 1.741 0
M  V30 5918 H 577.937 -1.37633 2.66453 0
M  V30 5919 H 575.49 -0.683776 1.4055 0
M  V30 5920 H 576.225 -3.14378 0.796063 0
M  V30 5921 H 576.01 -2.9684 2.5618 0
M  V30 5922 H 577.5 -3.71368 1.90987 0
M  V30 5923 N 577.937 -1.40673 -0.710563 0
M  V30 5924 C 578.867 -1.44095 -1.83736 0
M  V30 5925 C 579.848 -0.301286 -1.67411 0
M  V30 5926 O 581.033 -0.510618 -1.87367 0
M  V30 5927 C 578.163 -1.30773 -3.21738 0
M  V30 5928 C 577.117 -2.42395 -3.52745 0
M  V30 5929 C 576.443 -2.14147 -4.89944 0
M  V30 5930 C 577.743 -3.84738 -3.53234 0
M  V30 5931 H 579.437 -2.38396 -1.81129 0
M  V30 5932 H 576.983 -1.14746 -0.870017 0
M  V30 5933 H 578.936 -1.31783 -4.00264 0
M  V30 5934 H 577.66 -0.329507 -3.24934 0
M  V30 5935 H 576.319 -2.40643 -2.76562 0
M  V30 5936 H 575.967 -1.14703 -4.89747 0
M  V30 5937 H 575.667 -2.88934 -5.11655 0
M  V30 5938 H 577.191 -2.16848 -5.70797 0
M  V30 5939 H 578.605 -3.88286 -4.2179 0
M  V30 5940 H 577.002 -4.59085 -3.86473 0
M  V30 5941 H 578.072 -4.13962 -2.52514 0
M  V30 5942 N 579.415 0.9433 -1.26252 0
M  V30 5943 C 580.831 1.21644 -1.03319 0
M  V30 5944 C 581.031 2.0003 0.242983 0
M  V30 5945 O 580.087 2.33838 0.952688 0
M  V30 5946 C 581.4 1.97978 -2.2633 0
M  V30 5947 C 582.948 2.10978 -2.31209 0
M  V30 5948 C 583.423 2.90713 -3.53907 0
M  V30 5949 N 584.914 2.98287 -3.54371 0
M  V30 5950 C 585.649 3.60406 -4.45976 0
M  V30 5951 N 585.145 4.24043 -5.47868 0
M  V30 5952 N 586.938 3.57658 -4.33633 0
M  V30 5953 H 579.089 0.419221 -2.08222 0
M  V30 5954 H 581.352 0.247995 -0.914988 0
M  V30 5955 H 581.058 1.47788 -3.19142 0
M  V30 5956 H 580.932 2.9865 -2.30408 0
M  V30 5957 H 583.319 2.6036 -1.38913 0
M  V30 5958 H 583.4 1.09575 -2.31143 0
M  V30 5959 H 583.044 2.42018 -4.46531 0
M  V30 5960 H 582.974 3.92367 -3.5122 0
M  V30 5961 H 585.465 2.53044 -2.80673 0
M  V30 5962 H 585.778 4.69334 -6.13959 0
M  V30 5963 H 584.123 4.22637 -5.51728 0
M  V30 5964 H 587.314 3.07134 -3.53251 0
M  V30 5965 H 587.487 4.05782 -5.05218 0
M  V30 5966 N 580.893 1.08022 1.14757 0
M  V30 5967 C 581.803 0.718292 2.23333 0
M  V30 5968 C 582.819 -0.273477 1.71837 0
M  V30 5969 O 583.995 -0.118406 2.01052 0
M  V30 5970 C 581.06 0.128855 3.4646 0
M  V30 5971 C 580.121 1.17473 4.12915 0
M  V30 5972 C 579.354 0.61333 5.30164 0
M  V30 5973 O 579.577 -0.568458 5.6756 0
M  V30 5974 O 578.511 1.3615 5.86299 0
M  V30 5975 H 582.337 1.62394 2.56636 0
M  V30 5976 H 579.922 0.853628 1.22611 0
M  V30 5977 H 581.804 -0.197249 4.20938 0
M  V30 5978 H 580.479 -0.750014 3.14891 0
M  V30 5979 H 579.386 1.5533 3.40328 0
M  V30 5980 H 580.719 2.02574 4.48581 0
M  V30 5981 N 582.371 -1.3172 0.865308 0
M  V30 5982 C 583.318 -2.2863 0.315736 0
M  V30 5983 C 584.288 -1.55524 -0.583213 0
M  V30 5984 O 585.473 -1.83694 -0.51585 0
M  V30 5985 C 582.613 -3.41735 -0.480773 0
M  V30 5986 C 581.726 -4.297 0.445167 0
M  V30 5987 C 580.861 -5.29944 -0.365012 0
M  V30 5988 C 579.9 -6.09554 0.557651 0
M  V30 5989 N 579.037 -7.01768 -0.215994 0
M  V30 5990 H 583.877 -2.75026 1.14736 0
M  V30 5991 H 581.414 -1.35302 0.577209 0
M  V30 5992 H 583.372 -4.06045 -0.958306 0
M  V30 5993 H 582.002 -2.96461 -1.27714 0
M  V30 5994 H 581.054 -3.65875 1.04113 0
M  V30 5995 H 582.366 -4.85295 1.15284 0
M  V30 5996 H 581.52 -5.99908 -0.905255 0
M  V30 5997 H 580.259 -4.74994 -1.106 0
M  V30 5998 H 579.264 -5.38485 1.10969 0
M  V30 5999 H 580.489 -6.66591 1.29742 0
M  V30 6000 H 578.435 -6.49232 -0.939878 0
M  V30 6001 H 578.352 -7.54762 0.432431 0
M  V30 6002 H 579.62 -7.76002 -0.737618 0
M  V30 6003 N 583.85 -0.624285 -1.44708 0
M  V30 6004 C 585.096 -0.126237 -2.02407 0
M  V30 6005 C 585.428 1.24618 -1.48943 0
M  V30 6006 O 584.704 1.82569 -0.670742 0
M  V30 6007 C 584.986 -0.105449 -3.59946 0
M  V30 6008 C 584.84 -1.50972 -4.23707 0
M  V30 6009 C 586.159 0.573629 -4.36346 0
M  V30 6010 H 583.278 -0.0473472 -0.735478 0
M  V30 6011 H 585.92 -0.799452 -1.72362 0
M  V30 6012 H 584.07 0.46783 -3.85673 0
M  V30 6013 H 585.742 -2.13136 -4.0911 0
M  V30 6014 H 583.985 -2.0656 -3.81465 0
M  V30 6015 H 584.656 -1.44727 -5.32689 0
M  V30 6016 H 587.132 0.0861787 -4.16011 0
M  V30 6017 H 586.008 0.557338 -5.46063 0
M  V30 6018 H 586.269 1.64276 -4.10446 0
M  V30 6019 N 585.328 1.53329 -0.364422 0
M  V30 6020 C 586.558 2.05359 0.226096 0
M  V30 6021 C 586.966 1.23777 1.43094 0
M  V30 6022 O 586.309 0.271139 1.81688 0
M  V30 6023 C 586.371 3.52918 0.684794 0
M  V30 6024 C 586.035 4.55218 -0.403206 0
M  V30 6025 C 587.032 5.04583 -1.2527 0
M  V30 6026 C 584.717 4.99134 -0.563117 0
M  V30 6027 C 586.711 5.96463 -2.24745 0
M  V30 6028 C 584.398 5.9082 -1.56124 0
M  V30 6029 C 585.396 6.39375 -2.40184 0
M  V30 6030 O 585.084 7.29255 -3.38293 0
M  V30 6031 H 584.816 0.674588 0.0436772 0
M  V30 6032 H 587.37 1.98688 -0.520782 0
M  V30 6033 H 585.6 3.57122 1.48326 0
M  V30 6034 H 587.289 3.87812 1.19818 0
M  V30 6035 H 588.055 4.71403 -1.14034 0
M  V30 6036 H 583.934 4.60928 0.0813909 0
M  V30 6037 H 587.478 6.34285 -2.90393 0
M  V30 6038 H 583.375 6.23414 -1.67407 0
M  V30 6039 H 584.143 7.47249 -3.34009 0
M  V30 6040 N 586.806 0.0935595 1.57322 0
M  V30 6041 C 587.769 -0.851426 2.12799 0
M  V30 6042 C 588.769 -1.21187 1.0569 0
M  V30 6043 O 589.959 -1.14156 1.31583 0
M  V30 6044 C 587.091 -2.14779 2.64731 0
M  V30 6045 H 588.284 -0.369733 2.97612 0
M  V30 6046 H 585.837 -0.155417 1.55525 0
M  V30 6047 H 586.572 -2.67437 1.83434 0
M  V30 6048 H 586.357 -1.89907 3.43042 0
M  V30 6049 H 587.847 -2.82383 3.07651 0
M  V30 6050 N 588.284 -1.56567 -0.180126 0
M  V30 6051 C 589.509 -1.85975 -0.918041 0
M  V30 6052 C 589.934 -0.678888 -1.75422 0
M  V30 6053 O 589.292 0.372168 -1.77439 0
M  V30 6054 C 589.34 -3.13731 -1.77779 0
M  V30 6055 O 588.444 -2.95335 -2.87838 0
M  V30 6056 H 587.785 -0.61196 -0.257683 0
M  V30 6057 H 590.315 -2.03798 -0.180923 0
M  V30 6058 H 590.325 -3.4491 -2.17948 0
M  V30 6059 H 589 -3.99293 -1.16352 0
M  V30 6060 H 587.577 -2.7549 -2.51316 0
M  V30 6061 N 589.762 0.448376 -1.51087 0
M  V30 6062 C 590.692 1.55102 -1.74544 0
M  V30 6063 C 591.673 1.59357 -0.594932 0
M  V30 6064 O 592.858 1.75261 -0.836491 0
M  V30 6065 C 589.988 2.93268 -1.86041 0
M  V30 6066 C 588.942 3.03877 -3.01402 0
M  V30 6067 C 588.268 4.43914 -2.98068 0
M  V30 6068 C 589.568 2.7898 -4.41551 0
M  V30 6069 H 591.262 1.35724 -2.66869 0
M  V30 6070 H 588.808 0.651498 -1.28419 0
M  V30 6071 H 590.761 3.70356 -2.01034 0
M  V30 6072 H 589.485 3.13853 -0.903548 0
M  V30 6073 H 588.144 2.29227 -2.86096 0
M  V30 6074 H 587.792 4.6145 -2.00182 0
M  V30 6075 H 587.492 4.51944 -3.75527 0
M  V30 6076 H 589.016 5.22991 -3.1514 0
M  V30 6077 H 590.43 3.45805 -4.57265 0
M  V30 6078 H 588.827 2.98431 -5.20633 0
M  V30 6079 H 589.897 1.74663 -4.5235 0
M  V30 6080 N 591.24 1.41047 0.703093 0
M  V30 6081 C 592.15 1.44645 1.84703 0
M  V30 6082 C 593.166 0.337778 1.7069 0
M  V30 6083 O 594.342 0.584327 1.92737 0
M  V30 6084 C 591.407 1.31928 3.20618 0
M  V30 6085 C 590.468 2.53047 3.46794 0
M  V30 6086 C 589.701 2.40927 4.76224 0
M  V30 6087 O 589.924 1.42978 5.5219 0
M  V30 6088 O 588.858 3.30543 5.03016 0
M  V30 6089 H 592.684 2.41139 1.84624 0
M  V30 6090 H 590.269 1.22504 0.855167 0
M  V30 6091 H 592.151 1.27092 4.01778 0
M  V30 6092 H 590.826 0.385469 3.21397 0
M  V30 6093 H 589.733 2.6346 2.65593 0
M  V30 6094 H 591.066 3.45231 3.50822 0
M  V30 6095 N 592.718 -0.936591 1.26751 0
M  V30 6096 C 593.681 -2.01752 1.08761 0
M  V30 6097 C 594.681 -1.60763 0.0344435 0
M  V30 6098 O 595.871 -1.71963 0.278258 0
M  V30 6099 C 593.003 -3.34543 0.655271 0
M  V30 6100 H 594.196 -2.19143 2.04735 0
M  V30 6101 H 591.749 -1.11618 1.09413 0
M  V30 6102 H 592.484 -3.22851 -0.30626 0
M  V30 6103 H 592.269 -3.65647 1.41578 0
M  V30 6104 H 593.759 -4.13944 0.551378 0
M  V30 6105 N 594.196 -1.08629 -1.14182 0
M  V30 6106 C 595.426 -0.837673 -1.88856 0
M  V30 6107 C 595.834 0.614024 -1.78959 0
M  V30 6108 O 595.177 1.43384 -1.14833 0
M  V30 6109 C 595.239 -1.18355 -3.39459 0
M  V30 6110 C 594.903 -2.63848 -3.73139 0
M  V30 6111 C 595.9 -3.62099 -3.73069 0
M  V30 6112 C 593.585 -2.99761 -4.03049 0
M  V30 6113 C 595.579 -4.94292 -4.02435 0
M  V30 6114 C 593.266 -4.32147 -4.32078 0
M  V30 6115 C 594.264 -5.29223 -4.31755 0
M  V30 6116 O 593.952 -6.59229 -4.60079 0
M  V30 6117 H 593.684 -0.301609 -0.604986 0
M  V30 6118 H 596.238 -1.44961 -1.45518 0
M  V30 6119 H 594.468 -0.514628 -3.8326 0
M  V30 6120 H 596.157 -0.915391 -3.95443 0
M  V30 6121 H 596.923 -3.35698 -3.50046 0
M  V30 6122 H 592.802 -2.2484 -4.02453 0
M  V30 6123 H 596.346 -5.70055 -4.02098 0
M  V30 6124 H 592.243 -4.58296 -4.54571 0
M  V30 6125 H 593.011 -6.64578 -4.77785 0
M  V30 6126 N 595.674 1.31259 -0.872281 0
M  V30 6127 C 596.914 1.98418 -0.490894 0
M  V30 6128 C 597.278 1.67429 0.939755 0
M  V30 6129 O 598.479 2.27818 1.42661 0
M  V30 6130 C 596.75 3.49583 -0.743408 0
M  V30 6131 S 598.309 4.36359 -0.462226 0
M  V30 6132 H 595.127 0.687005 -0.183151 0
M  V30 6133 H 597.729 1.59619 -1.12881 0
M  V30 6134 H 596.433 3.69627 -1.78338 0
M  V30 6135 H 595.964 3.93291 -0.0925758 0
M  V30 6136 H 597.979 4.91173 0.704525 0
M  V30 6137 N 597.152 0.631951 1.44375 0
M  V30 6138 C 598.099 -0.0724807 2.30686 0
M  V30 6139 C 599.069 -0.835975 1.43529 0
M  V30 6140 O 600.254 -0.816849 1.7243 0
M  V30 6141 C 597.394 -1.04753 3.28817 0
M  V30 6142 C 596.507 -0.282367 4.31076 0
M  V30 6143 C 595.642 -1.2493 5.163 0
M  V30 6144 C 594.681 -0.473349 6.10267 0
M  V30 6145 N 593.818 -1.39079 6.88187 0
M  V30 6146 H 598.658 0.669477 2.90383 0
M  V30 6147 H 596.195 0.341927 1.43071 0
M  V30 6148 H 598.153 -1.62623 3.842 0
M  V30 6149 H 596.783 -1.75661 2.70819 0
M  V30 6150 H 595.835 0.412268 3.78159 0
M  V30 6151 H 597.147 0.321955 4.9776 0
M  V30 6152 H 596.301 -1.89931 5.76204 0
M  V30 6153 H 595.04 -1.88755 4.49692 0
M  V30 6154 H 594.045 0.190142 5.49471 0
M  V30 6155 H 595.27 0.16019 6.78911 0
M  V30 6156 H 593.216 -2.01623 6.24247 0
M  V30 6157 H 593.133 -0.840513 7.51313 0
M  V30 6158 H 594.401 -2.02961 7.52613 0
M  V30 6159 N 598.631 -1.53133 0.372548 0
M  V30 6160 C 599.581 -2.22733 -0.487218 0
M  V30 6161 C 600.565 -1.22506 -1.04312 0
M  V30 6162 O 601.757 -1.47923 -0.972005 0
M  V30 6163 C 598.886 -3.02524 -1.62278 0
M  V30 6164 C 597.972 -4.10133 -1.07943 0
M  V30 6165 N 598.363 -5.05133 -0.259629 0
M  V30 6166 C 596.661 -4.24964 -1.35356 0
M  V30 6167 C 597.362 -5.81687 0.0386656 0
M  V30 6168 N 596.338 -5.40699 -0.560827 0
M  V30 6169 H 600.14 -2.93538 0.145853 0
M  V30 6170 H 597.654 -1.61389 0.180938 0
M  V30 6171 H 599.651 -3.50909 -2.25096 0
M  V30 6172 H 598.311 -2.33252 -2.25884 0
M  V30 6173 H 599.322 -5.178 0.101746 0
M  V30 6174 H 595.999 -3.66919 -1.9919 0
M  V30 6175 H 597.389 -6.68224 0.701841 0
M  V30 6176 N 600.109 -0.101901 -1.5727 0
M  V30 6177 C 601.056 0.854577 -2.14396 0
M  V30 6178 C 602.026 1.27521 -1.06432 0
M  V30 6179 O 603.211 1.35575 -1.34253 0
M  V30 6180 C 600.351 2.10576 -2.73408 0
M  V30 6181 C 599.464 1.73504 -3.95626 0
M  V30 6182 C 598.599 2.9346 -4.42781 0
M  V30 6183 C 597.638 2.52547 -5.57572 0
M  V30 6184 N 596.775 3.65359 -5.99547 0
M  V30 6185 H 601.615 0.360578 -2.9581 0
M  V30 6186 H 599.152 0.166303 -1.46157 0
M  V30 6187 H 601.11 2.83859 -3.05745 0
M  V30 6188 H 599.74 2.57463 -1.94711 0
M  V30 6189 H 598.792 0.901622 -3.6956 0
M  V30 6190 H 600.104 1.39426 -4.78917 0
M  V30 6191 H 599.258 3.74988 -4.76937 0
M  V30 6192 H 597.997 3.30753 -3.58404 0
M  V30 6193 H 597.002 1.69446 -5.23037 0
M  V30 6194 H 598.227 2.1639 -6.43702 0
M  V30 6195 H 596.173 4.02358 -5.18116 0
M  V30 6196 H 596.09 3.35148 -6.77652 0
M  V30 6197 H 597.358 4.47378 -6.38336 0
M  V30 6198 N 601.587 1.56661 0.17182 0
M  V30 6199 C 602.817 1.85831 0.902804 0
M  V30 6200 C 603.225 0.685157 1.76358 0
M  V30 6201 O 602.568 -0.354947 1.80238 0
M  V30 6202 C 602.63 3.09406 1.83053 0
M  V30 6203 C 602.294 4.4231 1.1494 0
M  V30 6204 C 603.291 5.17342 0.515104 0
M  V30 6205 C 600.976 4.89045 1.14631 0
M  V30 6206 C 602.97 6.37299 -0.113194 0
M  V30 6207 C 600.657 6.08933 0.514184 0
M  V30 6208 C 601.655 6.82904 -0.114463 0
M  V30 6209 O 601.343 8.00518 -0.736622 0
M  V30 6210 H 601.075 0.620715 0.267748 0
M  V30 6211 H 603.629 2.04637 0.176918 0
M  V30 6212 H 601.859 2.86544 2.59672 0
M  V30 6213 H 603.548 3.25027 2.4313 0
M  V30 6214 H 604.314 4.82317 0.509474 0
M  V30 6215 H 600.193 4.31409 1.62502 0
M  V30 6216 H 603.737 6.94976 -0.604477 0
M  V30 6217 H 599.634 6.43423 0.517395 0
M  V30 6218 H 600.402 8.16027 -0.635822 0
M  V30 6219 N 603.065 -0.440357 1.51323 0
M  V30 6220 C 604.476 -1.02032 1.56353 0
M  V30 6221 C 604.827 -1.92382 0.385197 0
M  V30 6222 O 603.952 -2.10583 -0.498373 0
M  V30 6223 C 604.547 -1.85723 2.83359 0
M  V30 6224 C 603.106 -2.38774 2.90971 0
M  V30 6225 C 602.253 -1.17908 2.50984 0
M  V30 6226 H 605.204 -0.221744 1.57143 0
M  V30 6227 H 605.225 -2.71141 2.66951 0
M  V30 6228 H 604.737 -1.19939 3.69102 0
M  V30 6229 H 602.838 -3.08021 2.09651 0
M  V30 6230 H 602.951 -2.71778 3.94555 0
M  V30 6231 H 601.315 -1.52347 2.04114 0
M  V30 6232 H 602.098 -0.537393 3.39068 0
M  V30 6233 N 604.543 -1.41418 -0.695603 0
M  V30 6234 C 605.453 -1.45622 -1.83933 0
M  V30 6235 C 606.469 -0.346825 -1.70508 0
M  V30 6236 O 607.645 -0.59454 -1.92424 0
M  V30 6237 C 604.71 -1.33627 -3.19914 0
M  V30 6238 C 603.771 -2.54882 -3.45447 0
M  V30 6239 C 603.004 -2.43449 -4.7494 0
M  V30 6240 O 603.227 -1.45905 -5.51424 0
M  V30 6241 O 602.161 -3.33206 -5.01256 0
M  V30 6242 H 605.987 -2.42114 -1.83342 0
M  V30 6243 H 603.572 -1.22956 -0.848658 0
M  V30 6244 H 605.454 -1.29221 -4.01098 0
M  V30 6245 H 604.129 -0.402508 -3.21188 0
M  V30 6246 H 603.036 -2.64865 -2.64192 0
M  V30 6247 H 604.369 -3.47087 -3.48987 0
M  V30 6248 N 606.021 0.929856 -1.27246 0
M  V30 6249 C 606.953 2.03434 -1.0558 0
M  V30 6250 C 607.966 1.62795 -0.0125762 0
M  V30 6251 O 609.155 1.76685 -0.2539 0
M  V30 6252 C 606.255 3.33915 -0.57912 0
M  V30 6253 C 605.428 4.03259 -1.69415 0
M  V30 6254 C 604.487 5.12014 -1.21357 0
M  V30 6255 O 603.513 5.36097 -1.91282 0
M  V30 6256 N 604.715 5.8046 -0.0680622 0
M  V30 6257 H 607.48 2.22583 -2.00691 0
M  V30 6258 H 605.041 1.1001 -1.18783 0
M  V30 6259 H 607.033 4.03978 -0.241563 0
M  V30 6260 H 605.603 3.11355 0.278703 0
M  V30 6261 H 604.823 3.26958 -2.20209 0
M  V30 6262 H 606.111 4.46337 -2.44255 0
M  V30 6263 H 605.509 5.63345 0.515626 0
M  V30 6264 H 604.066 6.51461 0.210332 0
M  V30 6265 N 607.499 1.09233 1.13605 0
M  V30 6266 C 608.91 0.846839 1.6639 0
M  V30 6267 C 609.261 -0.625031 1.85978 0
M  V30 6268 O 608.386 -1.48173 1.57714 0
M  V30 6269 C 608.981 1.5307 3.0225 0
M  V30 6270 C 607.54 1.33223 3.52035 0
M  V30 6271 C 606.687 1.58806 2.27323 0
M  V30 6272 H 609.638 1.25175 0.975541 0
M  V30 6273 H 609.659 0.96267 3.68121 0
M  V30 6274 H 609.171 2.60192 2.87961 0
M  V30 6275 H 607.272 0.282091 3.71531 0
M  V30 6276 H 607.385 2.0657 4.32279 0
M  V30 6277 H 605.749 1.01007 2.33815 0
M  V30 6278 H 606.532 2.67153 2.15602 0
M  V30 6279 N 608.977 -1.30795 0.87923 0
M  V30 6280 C 610.225 -1.95974 0.493809 0
M  V30 6281 C 610.546 -1.69787 -0.959021 0
M  V30 6282 O 609.816 -1.01832 -1.67353 0
M  V30 6283 H 608.396 -0.725083 0.179622 0
M  V30 6284 H 611.058 -1.59432 1.12105 0
M  V30 6285 H 610.154 -3.05058 0.659263 0
M  V30 6286 N 610.455 -0.639598 -1.44038 0
M  V30 6287 C 611.871 -0.305953 -1.5664 0
M  V30 6288 C 612.071 1.19055 -1.62567 0
M  V30 6289 O 611.127 1.97492 -1.57331 0
M  V30 6290 C 612.44 -1.00533 -2.83397 0
M  V30 6291 C 613.988 -0.984278 -2.97121 0
M  V30 6292 C 614.463 -1.66428 -4.26691 0
M  V30 6293 N 615.954 -1.63127 -4.33525 0
M  V30 6294 C 616.689 -2.12629 -5.32519 0
M  V30 6295 N 616.185 -2.70359 -6.3787 0
M  V30 6296 N 617.978 -2.03208 -5.24083 0
M  V30 6297 H 610.129 -1.6109 -1.38434 0
M  V30 6298 H 612.392 -0.676672 -0.663942 0
M  V30 6299 H 612.098 -2.06034 -2.85032 0
M  V30 6300 H 611.972 -0.548362 -3.73193 0
M  V30 6301 H 614.359 0.0622792 -2.95034 0
M  V30 6302 H 614.44 -1.47981 -2.08651 0
M  V30 6303 H 614.084 -2.71034 -4.29538 0
M  V30 6304 H 614.014 -1.14351 -5.14034 0
M  V30 6305 H 616.505 -1.20987 -3.58009 0
M  V30 6306 H 616.818 -3.05842 -7.09704 0
M  V30 6307 H 615.163 -2.74414 -6.38531 0
M  V30 6308 H 618.354 -1.57823 -4.40692 0
M  V30 6309 H 618.527 -2.42097 -6.01077 0
M  V30 6310 N 611.933 1.52934 -0.380664 0
M  V30 6311 C 613.18 2.01467 0.204278 0
M  V30 6312 C 613.508 1.26744 1.47533 0
M  V30 6313 O 612.763 0.353723 1.92477 0
M  V30 6314 C 613.062 3.5349 0.527199 0
M  V30 6315 C 612.728 4.46171 -0.651295 0
M  V30 6316 C 611.39 4.71227 -0.974619 0
M  V30 6317 C 613.742 5.00909 -1.44012 0
M  V30 6318 C 611.07 5.4827 -2.08847 0
M  V30 6319 C 613.422 5.7917 -2.5445 0
M  V30 6320 C 612.086 6.02507 -2.87301 0
M  V30 6321 H 611.356 0.73722 0.0747504 0
M  V30 6322 H 614.003 1.84411 -0.516234 0
M  V30 6323 H 612.308 3.68574 1.32892 0
M  V30 6324 H 614.005 3.88529 0.992283 0
M  V30 6325 H 610.595 4.26829 -0.389276 0
M  V30 6326 H 614.779 4.81485 -1.20357 0
M  V30 6327 H 610.035 5.64567 -2.34679 0
M  V30 6328 H 614.209 6.20588 -3.1598 0
M  V30 6329 H 611.836 6.61989 -3.7373 0
M  V30 6330 N 613.412 0.11024 1.57214 0
M  V30 6331 C 614.375 -0.828808 2.1369 0
M  V30 6332 C 615.375 -1.20059 1.06969 0
M  V30 6333 O 616.565 -1.12754 1.32786 0
M  V30 6334 C 613.697 -2.11959 2.66994 0
M  V30 6335 H 614.89 -0.338146 2.97988 0
M  V30 6336 H 612.443 -0.138913 1.55681 0
M  V30 6337 H 613.178 -2.65476 1.8626 0
M  V30 6338 H 612.963 -1.86258 3.45037 0
M  V30 6339 H 614.453 -2.79105 3.10629 0
M  V30 6340 N 614.89 -1.56749 -0.16351 0
M  V30 6341 C 615.837 -1.97011 -1.2023 0
M  V30 6342 C 616.807 -0.835186 -1.43575 0
M  V30 6343 O 617.992 -1.09594 -1.56185 0
M  V30 6344 C 615.132 -2.34186 -2.53478 0
M  V30 6345 C 614.245 -3.60893 -2.37446 0
M  V30 6346 C 613.38 -3.87245 -3.63614 0
M  V30 6347 C 612.419 -5.07274 -3.42548 0
M  V30 6348 N 611.556 -5.29719 -4.60806 0
M  V30 6349 H 616.396 -2.85562 -0.851958 0
M  V30 6350 H 613.933 -1.41292 -0.409257 0
M  V30 6351 H 615.891 -2.53764 -3.31149 0
M  V30 6352 H 614.521 -1.48736 -2.86492 0
M  V30 6353 H 613.573 -3.49185 -1.50911 0
M  V30 6354 H 614.885 -4.48722 -2.1783 0
M  V30 6355 H 614.039 -4.07232 -4.49719 0
M  V30 6356 H 612.778 -2.97806 -3.86216 0
M  V30 6357 H 611.783 -4.87177 -2.5483 0
M  V30 6358 H 613.008 -5.98251 -3.2136 0
M  V30 6359 H 610.954 -4.43233 -4.83612 0
M  V30 6360 H 610.871 -6.11786 -4.44132 0
M  V30 6361 H 612.139 -5.54192 -5.48171 0
M  V30 6362 N 616.368 0.432326 -1.51554 0
M  V30 6363 C 617.298 1.53242 -1.76179 0
M  V30 6364 C 618.279 1.58717 -0.611801 0
M  V30 6365 O 619.464 1.74364 -0.855033 0
M  V30 6366 C 616.594 2.91278 -1.89141 0
M  V30 6367 C 615.548 3.00663 -3.04608 0
M  V30 6368 C 614.874 4.40728 -3.02759 0
M  V30 6369 C 616.174 2.74281 -4.44485 0
M  V30 6370 H 617.868 1.32886 -2.68294 0
M  V30 6371 H 615.414 0.637841 -1.29103 0
M  V30 6372 H 617.367 3.68203 -2.04951 0
M  V30 6373 H 616.091 3.12877 -0.936785 0
M  V30 6374 H 614.75 2.26179 -2.88511 0
M  V30 6375 H 614.398 4.59301 -2.05065 0
M  V30 6376 H 614.098 4.47936 -3.80299 0
M  V30 6377 H 615.622 5.19619 -3.20669 0
M  V30 6378 H 617.036 3.40936 -4.60907 0
M  V30 6379 H 615.433 2.92893 -5.23769 0
M  V30 6380 H 616.503 1.69856 -4.54177 0
M  V30 6381 N 617.846 1.41785 0.688094 0
M  V30 6382 C 618.776 1.47 1.8142 0
M  V30 6383 C 619.757 0.327881 1.6691 0
M  V30 6384 O 620.942 0.540362 1.86531 0
M  V30 6385 C 618.072 1.35876 3.19617 0
M  V30 6386 C 617.026 2.47976 3.48844 0
M  V30 6387 C 616.352 2.21915 4.86475 0
M  V30 6388 C 617.652 3.90309 3.47068 0
M  V30 6389 H 619.346 2.41247 1.77314 0
M  V30 6390 H 616.892 1.16116 0.851651 0
M  V30 6391 H 618.845 1.38134 3.98117 0
M  V30 6392 H 617.569 0.38116 3.24368 0
M  V30 6393 H 616.228 2.45013 2.72698 0
M  V30 6394 H 615.876 1.2248 4.8786 0
M  V30 6395 H 615.576 2.97037 5.06994 0
M  V30 6396 H 617.1 2.25901 5.67275 0
M  V30 6397 H 618.514 3.94947 4.1556 0
M  V30 6398 H 616.911 4.65175 3.7912 0
M  V30 6399 H 617.981 4.17927 2.45896 0
M  V30 6400 N 619.324 -0.923095 1.27737 0
M  V30 6401 C 620.254 -2.04124 1.13383 0
M  V30 6402 C 621.235 -1.70066 0.0340658 0
M  V30 6403 O 622.42 -1.93068 0.209383 0
M  V30 6404 C 619.55 -3.3831 0.785097 0
M  V30 6405 C 618.504 -3.86496 1.8386 0
M  V30 6406 C 617.83 -5.1754 1.34373 0
M  V30 6407 C 619.13 -4.09381 3.24353 0
M  V30 6408 H 620.824 -2.1639 2.06919 0
M  V30 6409 H 618.37 -1.03976 0.996243 0
M  V30 6410 H 620.323 -4.16016 0.671485 0
M  V30 6411 H 619.047 -3.2607 -0.185969 0
M  V30 6412 H 617.706 -3.10987 1.9412 0
M  V30 6413 H 617.354 -5.01696 0.361989 0
M  V30 6414 H 617.054 -5.50751 2.04811 0
M  V30 6415 H 618.578 -5.97811 1.24315 0
M  V30 6416 H 619.992 -4.77641 3.17067 0
M  V30 6417 H 618.389 -4.53906 3.92542 0
M  V30 6418 H 619.459 -3.14515 3.69064 0
M  V30 6419 N 620.802 -1.09834 -1.13024 0
M  V30 6420 C 622.218 -0.828875 -1.36388 0
M  V30 6421 C 622.418 0.554756 -1.93713 0
M  V30 6422 O 621.474 1.30882 -2.15931 0
M  V30 6423 C 622.787 -1.92352 -2.3113 0
M  V30 6424 C 624.335 -1.95124 -2.44735 0
M  V30 6425 C 624.81 -3.03745 -3.42787 0
M  V30 6426 N 626.301 -3.03012 -3.5034 0
M  V30 6427 C 627.036 -3.83699 -4.26101 0
M  V30 6428 N 626.532 -4.74306 -5.04981 0
M  V30 6429 N 628.325 -3.71942 -4.21445 0
M  V30 6430 H 620.476 -1.99029 -0.74169 0
M  V30 6431 H 622.739 -0.864557 -0.388903 0
M  V30 6432 H 622.445 -2.91906 -1.96172 0
M  V30 6433 H 622.319 -1.80536 -3.3119 0
M  V30 6434 H 624.706 -0.962069 -2.78977 0
M  V30 6435 H 624.787 -2.11018 -1.44586 0
M  V30 6436 H 624.431 -4.02878 -3.09276 0
M  V30 6437 H 624.361 -2.85094 -4.42752 0
M  V30 6438 H 626.852 -2.37352 -2.94062 0
M  V30 6439 H 627.165 -5.32446 -5.60108 0
M  V30 6440 H 625.51 -4.78339 -5.04199 0
M  V30 6441 H 628.701 -3.00513 -3.589 0
M  V30 6442 H 628.874 -4.35062 -4.80235 0
M  V30 6443 N 622.28 1.30327 -0.886154 0
M  V30 6444 C 623.21 2.30549 -0.370028 0
M  V30 6445 C 624.191 1.61039 0.547751 0
M  V30 6446 O 625.376 1.8864 0.461353 0
M  V30 6447 C 622.506 3.44808 0.415275 0
M  V30 6448 C 621.46 4.26024 -0.41085 0
M  V30 6449 C 620.786 5.32347 0.501128 0
M  V30 6450 C 622.086 4.95433 -1.65359 0
M  V30 6451 H 623.78 2.73969 -1.20754 0
M  V30 6452 H 621.326 1.3171 -0.582097 0
M  V30 6453 H 623.279 4.13986 0.78699 0
M  V30 6454 H 622.003 3.00197 1.28644 0
M  V30 6455 H 620.662 3.58535 -0.764719 0
M  V30 6456 H 620.31 4.83982 1.37004 0
M  V30 6457 H 620.01 5.87581 -0.0478356 0
M  V30 6458 H 621.534 6.0438 0.869333 0
M  V30 6459 H 622.948 5.5712 -1.35239 0
M  V30 6460 H 621.345 5.60537 -2.14284 0
M  V30 6461 H 622.415 4.21493 -2.39733 0
M  V30 6462 N 623.758 0.647228 1.43697 0
M  V30 6463 C 625.169 0.238689 1.85168 0
M  V30 6464 C 625.52 -1.21345 1.54175 0
M  V30 6465 O 624.645 -1.92542 0.987743 0
M  V30 6466 C 625.24 0.426422 3.36106 0
M  V30 6467 C 623.799 0.0722541 3.76331 0
M  V30 6468 C 622.946 0.732153 2.6746 0
M  V30 6469 H 625.897 0.851309 1.33934 0
M  V30 6470 H 625.918 -0.32987 3.79067 0
M  V30 6471 H 625.43 1.48339 3.58632 0
M  V30 6472 H 623.531 -0.982355 3.59417 0
M  V30 6473 H 623.644 0.493541 4.76551 0
M  V30 6474 H 622.008 0.16594 2.54159 0
M  V30 6475 H 622.791 1.79204 2.92816 0
M  V30 6476 N 625.236 -1.5273 0.388769 0
M  V30 6477 C 626.199 -2.25043 -0.434544 0
M  V30 6478 C 627.199 -1.26661 -0.990644 0
M  V30 6479 O 628.389 -1.50762 -0.872731 0
M  V30 6480 C 625.521 -3.00507 -1.60961 0
M  V30 6481 H 626.714 -2.99242 0.198549 0
M  V30 6482 H 624.267 -1.55664 0.140875 0
M  V30 6483 H 625.002 -2.30607 -2.28015 0
M  V30 6484 H 624.787 -3.72716 -1.21757 0
M  V30 6485 H 626.277 -3.55413 -2.19251 0
M  V30 6486 N 626.714 -0.118576 -1.57153 0
M  V30 6487 C 627.644 0.828436 -2.1831 0
M  V30 6488 C 628.625 1.27758 -1.12303 0
M  V30 6489 O 629.81 1.34026 -1.40537 0
M  V30 6490 C 626.94 2.07876 -2.78217 0
M  V30 6491 C 625.894 1.76742 -3.89803 0
M  V30 6492 C 625.22 3.08801 -4.36516 0
M  V30 6493 C 626.52 1.03606 -5.11921 0
M  V30 6494 H 628.214 0.318824 -2.97698 0
M  V30 6495 H 625.76 0.151911 -1.43196 0
M  V30 6496 H 627.713 2.74584 -3.19659 0
M  V30 6497 H 626.437 2.61161 -1.96118 0
M  V30 6498 H 625.096 1.12424 -3.48936 0
M  V30 6499 H 624.744 3.6002 -3.51276 0
M  V30 6500 H 624.444 2.88743 -5.11763 0
M  V30 6501 H 625.968 3.76627 -4.80608 0
M  V30 6502 H 627.382 1.60467 -5.50385 0
M  V30 6503 H 625.779 0.936454 -5.92748 0
M  V30 6504 H 626.849 0.0227421 -4.84895 0
M  V30 6505 N 628.193 1.56834 0.155195 0
M  V30 6506 C 629.609 1.51315 0.50755 0
M  V30 6507 C 629.809 0.825614 1.83809 0
M  V30 6508 O 628.865 0.39271 2.49427 0
M  V30 6509 C 630.178 2.96074 0.52542 0
M  V30 6510 C 631.726 3.06968 0.611505 0
M  V30 6511 C 632.201 4.53218 0.660115 0
M  V30 6512 N 633.692 4.5753 0.722564 0
M  V30 6513 C 634.427 5.68056 0.781023 0
M  V30 6514 N 633.923 6.88173 0.799327 0
M  V30 6515 N 635.716 5.56068 0.821278 0
M  V30 6516 H 627.867 1.9993 -0.717063 0
M  V30 6517 H 630.13 0.911507 -0.260496 0
M  V30 6518 H 629.836 3.49599 -0.383875 0
M  V30 6519 H 629.71 3.51587 1.36624 0
M  V30 6520 H 632.097 2.53468 1.51122 0
M  V30 6521 H 632.178 2.54513 -0.256306 0
M  V30 6522 H 631.822 5.07354 -0.23541 0
M  V30 6523 H 631.752 5.03447 1.5443 0
M  V30 6524 H 634.243 3.71054 0.716049 0
M  V30 6525 H 634.556 7.6816 0.845553 0
M  V30 6526 H 632.901 6.90751 0.767337 0
M  V30 6527 H 636.092 4.61142 0.804091 0
M  V30 6528 H 636.265 6.42223 0.863372 0
M  V30 6529 N 629.671 -0.424282 1.51781 0
M  V30 6530 C 630.896 -1.19928 1.6921 0
M  V30 6531 C 631.321 -1.8392 0.394355 0
M  V30 6532 O 630.679 -1.69371 -0.646778 0
M  V30 6533 C 630.727 -2.24937 2.81843 0
M  V30 6534 O 629.831 -3.3073 2.46356 0
M  V30 6535 H 629.172 -0.35078 0.563781 0
M  V30 6536 H 631.702 -0.499401 1.98412 0
M  V30 6537 H 631.712 -2.69512 3.06312 0
M  V30 6538 H 630.387 -1.77742 3.76006 0
M  V30 6539 H 628.964 -2.9154 2.32505 0
M  V30 6540 N 631.149 -1.42148 -0.680565 0
M  V30 6541 C 632.398 -1.41604 -1.43636 0
M  V30 6542 C 632.711 -0.0337887 -1.95571 0
M  V30 6543 O 633.917 0.0942588 -2.71336 0
M  V30 6544 C 632.373 -2.49056 -2.59806 0
M  V30 6545 C 631.981 -3.9326 -2.14594 0
M  V30 6546 C 633.725 -2.5767 -3.37352 0
M  V30 6547 C 631.632 -4.92232 -3.27813 0
M  V30 6548 H 630.562 -0.526656 -0.539583 0
M  V30 6549 H 633.213 -1.68033 -0.737369 0
M  V30 6550 H 631.595 -2.15782 -3.32045 0
M  V30 6551 H 632.769 -4.35858 -1.49546 0
M  V30 6552 H 631.084 -3.88443 -1.50002 0
M  V30 6553 H 633.681 -3.28794 -4.21662 0
M  V30 6554 H 634.024 -1.61837 -3.83555 0
M  V30 6555 H 634.557 -2.90109 -2.72179 0
M  V30 6556 H 631.296 -5.89522 -2.86607 0
M  V30 6557 H 630.816 -4.5427 -3.91661 0
M  V30 6558 H 632.495 -5.13684 -3.93367 0
M  V30 6559 N 632.627 0.916307 -1.28225 0
M  V30 6560 C 633.875 1.6619 -1.15002 0
M  V30 6561 C 634.196 1.92642 0.302329 0
M  V30 6562 O 633.466 1.54076 1.20985 0
M  V30 6563 H 632.046 0.615964 -0.422608 0
M  V30 6564 H 634.708 1.09963 -1.60917 0
M  V30 6565 H 633.804 2.62533 -1.68769 0
M  V30 6566 N 634.105 1.10431 1.1244 0
M  V30 6567 C 635.035 0.775143 2.20258 0
M  V30 6568 C 636.016 -0.25186 1.68225 0
M  V30 6569 O 637.201 -0.117637 1.93843 0
M  V30 6570 C 634.331 0.206133 3.46688 0
M  V30 6571 C 633.285 1.16382 4.11873 0
M  V30 6572 C 632.611 0.456014 5.32752 0
M  V30 6573 C 633.911 2.5104 4.58013 0
M  V30 6574 H 635.605 1.67665 2.4805 0
M  V30 6575 H 633.151 0.807595 1.19222 0
M  V30 6576 H 635.104 -0.036291 4.21384 0
M  V30 6577 H 633.828 -0.730614 3.18323 0
M  V30 6578 H 632.487 1.39169 3.39157 0
M  V30 6579 H 632.135 -0.485203 5.00654 0
M  V30 6580 H 631.835 1.09466 5.77314 0
M  V30 6581 H 633.359 0.222135 6.10196 0
M  V30 6582 H 634.773 2.32401 5.24083 0
M  V30 6583 H 633.17 3.10789 5.13352 0
M  V30 6584 H 634.24 3.11039 3.71998 0
M  V30 6585 N 635.583 -1.29855 0.893053 0
M  V30 6586 C 636.53 -2.27909 0.364161 0
M  V30 6587 C 637.5 -1.56726 -0.550093 0
M  V30 6588 O 638.685 -1.84747 -0.47677 0
M  V30 6589 C 635.825 -3.42678 -0.408178 0
M  V30 6590 C 634.938 -4.28659 0.536212 0
M  V30 6591 C 634.073 -5.30599 -0.252521 0
M  V30 6592 C 633.112 -6.08234 0.686822 0
M  V30 6593 N 632.249 -7.02068 -0.0670902 0
M  V30 6594 H 637.089 -2.72531 1.20544 0
M  V30 6595 H 634.626 -1.34047 0.605779 0
M  V30 6596 H 636.584 -4.07986 -0.871962 0
M  V30 6597 H 635.214 -2.99103 -1.21397 0
M  V30 6598 H 634.266 -3.63584 1.1185 0
M  V30 6599 H 635.578 -4.8274 1.25552 0
M  V30 6600 H 634.732 -6.01694 -0.777801 0
M  V30 6601 H 633.471 -4.77233 -1.005 0
M  V30 6602 H 632.476 -5.3601 1.22366 0
M  V30 6603 H 633.701 -6.63689 1.43852 0
M  V30 6604 H 631.647 -6.5108 -0.801955 0
M  V30 6605 H 631.564 -7.53675 0.59243 0
M  V30 6606 H 632.832 -7.77392 -0.572851 0
M  V30 6607 N 637.061 -0.65484 -1.43351 0
M  V30 6608 C 638.301 -0.172514 -2.03671 0
M  V30 6609 C 638.665 1.19154 -1.50553 0
M  V30 6610 O 639.866 1.76737 -2.02528 0
M  V30 6611 C 638.137 -0.183982 -3.56926 0
M  V30 6612 S 639.696 0.230262 -4.38195 0
M  V30 6613 H 636.514 -0.0727503 -0.707268 0
M  V30 6614 H 639.116 -0.863537 -1.75395 0
M  V30 6615 H 637.82 -1.17945 -3.93087 0
M  V30 6616 H 637.351 0.527527 -3.89847 0
M  V30 6617 H 639.366 1.46874 -4.73965 0
M  V30 6618 N 638.539 1.52521 -0.396863 0
M  V30 6619 C 639.469 2.29582 0.425941 0
M  V30 6620 C 640.45 1.33281 1.05689 0
M  V30 6621 O 641.635 1.62181 1.06823 0
M  V30 6622 C 638.765 3.10821 1.54943 0
M  V30 6623 C 637.719 4.15069 1.04413 0
M  V30 6624 C 637.045 4.84578 2.26028 0
M  V30 6625 C 638.345 5.22191 0.106767 0
M  V30 6626 H 640.039 2.98612 -0.217045 0
M  V30 6627 H 637.585 1.43611 -0.105826 0
M  V30 6628 H 639.538 3.63492 2.13193 0
M  V30 6629 H 638.262 2.39538 2.22011 0
M  V30 6630 H 636.921 3.63389 0.484118 0
M  V30 6631 H 636.569 4.09835 2.91623 0
M  V30 6632 H 636.269 5.55043 1.92876 0
M  V30 6633 H 637.793 5.40056 2.84906 0
M  V30 6634 H 639.207 5.70176 0.597685 0
M  V30 6635 H 637.604 5.99947 -0.135352 0
M  V30 6636 H 638.674 4.77531 -0.842134 0
M  V30 6637 N 640.017 0.126909 1.57088 0
M  V30 6638 C 640.927 -0.833867 2.1928 0
M  V30 6639 C 641.943 -1.2868 1.17122 0
M  V30 6640 O 643.119 -1.34815 1.49622 0
M  V30 6641 C 640.184 -2.0632 2.78627 0
M  V30 6642 C 639.245 -1.66143 3.95847 0
M  V30 6643 C 638.478 -2.83217 4.52354 0
M  V30 6644 O 638.701 -3.98868 4.0775 0
M  V30 6645 O 637.635 -2.59846 5.42922 0
M  V30 6646 H 641.461 -0.334564 3.01852 0
M  V30 6647 H 639.046 -0.0991091 1.49071 0
M  V30 6648 H 640.928 -2.78304 3.16425 0
M  V30 6649 H 639.603 -2.55242 1.99082 0
M  V30 6650 H 638.51 -0.912435 3.62802 0
M  V30 6651 H 639.843 -1.21957 4.76852 0
M  V30 6652 N 641.495 -1.56914 -0.146875 0
M  V30 6653 C 642.445 -1.94693 -1.18653 0
M  V30 6654 C 643.429 -0.81821 -1.38543 0
M  V30 6655 O 644.621 -1.08167 -1.40103 0
M  V30 6656 C 641.75 -2.33117 -2.52014 0
M  V30 6657 C 640.836 -3.5256 -2.35717 0
M  V30 6658 N 641.227 -4.69091 -1.89175 0
M  V30 6659 C 639.525 -3.57647 -2.66467 0
M  V30 6660 C 640.226 -5.51187 -1.85924 0
M  V30 6661 N 639.202 -4.92899 -2.29242 0
M  V30 6662 H 643.004 -2.82264 -0.81879 0
M  V30 6663 H 640.518 -1.58474 -0.354929 0
M  V30 6664 H 642.515 -2.58387 -3.27172 0
M  V30 6665 H 641.175 -1.46898 -2.89571 0
M  V30 6666 H 642.186 -4.92844 -1.59139 0
M  V30 6667 H 638.863 -2.81967 -3.07898 0
M  V30 6668 H 640.253 -6.54613 -1.51431 0
M  V30 6669 N 642.974 0.416227 -1.52004 0
M  V30 6670 C 643.904 1.51365 -1.77795 0
M  V30 6671 C 644.885 1.58059 -0.628601 0
M  V30 6672 O 646.07 1.73447 -0.873478 0
M  V30 6673 C 643.2 2.89256 -1.92219 0
M  V30 6674 C 642.154 2.97415 -3.0778 0
M  V30 6675 C 641.48 4.37492 -3.07417 0
M  V30 6676 C 642.78 2.69551 -4.47369 0
M  V30 6677 H 644.474 1.30033 -2.69688 0
M  V30 6678 H 642.02 0.624112 -1.29772 0
M  V30 6679 H 643.973 3.66008 -2.08845 0
M  V30 6680 H 642.697 3.11866 -0.969917 0
M  V30 6681 H 641.356 2.23107 -2.90893 0
M  V30 6682 H 641.004 4.571 -2.09925 0
M  V30 6683 H 640.704 4.43877 -3.85029 0
M  V30 6684 H 642.228 5.16188 -3.26162 0
M  V30 6685 H 643.642 3.36028 -4.64497 0
M  V30 6686 H 642.039 2.87321 -5.26846 0
M  V30 6687 H 643.109 1.65029 -4.55953 0
M  V30 6688 N 644.452 1.42507 0.673017 0
M  V30 6689 C 645.699 1.43072 1.43306 0
M  V30 6690 C 646.027 0.0478004 1.94441 0
M  V30 6691 O 645.282 -0.944106 1.71421 0
M  V30 6692 C 645.581 2.40351 2.64511 0
M  V30 6693 C 645.247 3.8669 2.31908 0
M  V30 6694 C 643.909 4.26551 2.22728 0
M  V30 6695 C 646.261 4.78991 2.05467 0
M  V30 6696 C 643.589 5.56691 1.85234 0
M  V30 6697 C 645.941 6.09476 1.69477 0
M  V30 6698 C 644.605 6.48334 1.58808 0
M  V30 6699 H 643.875 0.523536 0.524395 0
M  V30 6700 H 646.522 1.75459 0.76723 0
M  V30 6701 H 644.827 2.01297 3.36135 0
M  V30 6702 H 646.524 2.38051 3.22696 0
M  V30 6703 H 643.114 3.55132 2.39956 0
M  V30 6704 H 647.298 4.48982 2.11492 0
M  V30 6705 H 642.554 5.85657 1.75545 0
M  V30 6706 H 646.728 6.80482 1.48043 0
M  V30 6707 H 644.355 7.49084 1.29525 0
M  V30 6708 N 645.93 -0.909495 1.28709 0
M  V30 6709 C 647.177 -1.65905 1.16111 0
M  V30 6710 C 647.505 -1.92334 -0.289436 0
M  V30 6711 O 646.76 -1.52495 -1.22653 0
M  V30 6712 C 647.059 -3.02117 1.90945 0
M  V30 6713 C 646.725 -2.95332 3.40719 0
M  V30 6714 C 645.387 -2.93189 3.81567 0
M  V30 6715 C 647.739 -2.85264 4.36204 0
M  V30 6716 C 645.067 -2.78784 5.16233 0
M  V30 6717 C 647.419 -2.724 5.70948 0
M  V30 6718 C 646.083 -2.68617 6.11066 0
M  V30 6719 H 645.353 -0.60709 0.42488 0
M  V30 6720 H 648 -1.05932 1.59533 0
M  V30 6721 H 646.305 -3.65901 1.40085 0
M  V30 6722 H 648.002 -3.59026 1.7861 0
M  V30 6723 H 644.592 -2.97797 3.08245 0
M  V30 6724 H 648.776 -2.86005 4.05605 0
M  V30 6725 H 644.032 -2.74254 5.46438 0
M  V30 6726 H 648.206 -2.63579 6.44592 0
M  V30 6727 H 645.833 -2.57213 7.15364 0
M  V30 6728 N 647.408 -1.11026 -1.11852 0
M  V30 6729 C 648.655 -0.85646 -1.83497 0
M  V30 6730 C 648.983 0.617938 -1.84423 0
M  V30 6731 O 648.238 1.47194 -1.28966 0
M  V30 6732 C 648.537 -1.35777 -3.30604 0
M  V30 6733 C 648.203 -2.84465 -3.49843 0
M  V30 6734 C 646.865 -3.25068 -3.54802 0
M  V30 6735 C 649.217 -3.80251 -3.56453 0
M  V30 6736 C 646.545 -4.60194 -3.63921 0
M  V30 6737 C 648.897 -5.15188 -3.67102 0
M  V30 6738 C 647.561 -5.55356 -3.70319 0
M  V30 6739 H 646.831 -0.313401 -0.671462 0
M  V30 6740 H 649.478 -1.38792 -1.31943 0
M  V30 6741 H 647.783 -0.746455 -3.84624 0
M  V30 6742 H 649.48 -1.13779 -3.8452 0
M  V30 6743 H 646.07 -2.52054 -3.46651 0
M  V30 6744 H 650.254 -3.49986 -3.51886 0
M  V30 6745 H 645.51 -4.90728 -3.64686 0
M  V30 6746 H 649.684 -5.89248 -3.71159 0
M  V30 6747 H 647.311 -6.60054 -3.77138 0
M  V30 6748 N 648.886 1.2938 -0.899927 0
M  V30 6749 C 649.833 2.27713 -0.376243 0
M  V30 6750 C 650.803 1.57016 0.541774 0
M  V30 6751 O 651.988 1.84997 0.466966 0
M  V30 6752 C 649.128 3.42889 0.39 0
M  V30 6753 C 648.241 4.28369 -0.558938 0
M  V30 6754 C 647.376 5.30726 0.224379 0
M  V30 6755 C 646.415 6.07862 -0.719068 0
M  V30 6756 N 645.552 7.02094 0.0298569 0
M  V30 6757 H 650.392 2.71888 -1.21988 0
M  V30 6758 H 647.929 1.33724 -0.612879 0
M  V30 6759 H 649.887 4.08443 0.850314 0
M  V30 6760 H 648.517 2.99743 1.19809 0
M  V30 6761 H 647.569 3.62986 -1.13777 0
M  V30 6762 H 648.881 4.82068 -1.2811 0
M  V30 6763 H 648.035 6.02098 0.745881 0
M  V30 6764 H 646.774 4.77759 0.979674 0
M  V30 6765 H 645.779 5.35353 -1.25207 0
M  V30 6766 H 647.004 6.62917 -1.4737 0
M  V30 6767 H 644.95 6.51496 0.767415 0
M  V30 6768 H 644.867 7.5335 -0.632391 0
M  V30 6769 H 646.135 7.77685 0.531615 0
M  V30 6770 N 650.364 0.662433 1.43002 0
M  V30 6771 C 651.294 -0.00979809 2.33498 0
M  V30 6772 C 652.275 -0.802329 1.49989 0
M  V30 6773 O 653.46 -0.761964 1.78627 0
M  V30 6774 C 650.59 -0.970446 3.33466 0
M  V30 6775 C 649.544 -0.287383 4.27034 0
M  V30 6776 C 648.87 -1.36012 5.17112 0
M  V30 6777 C 650.17 0.82595 5.15728 0
M  V30 6778 H 651.864 0.745959 2.89958 0
M  V30 6779 H 649.41 0.360172 1.39423 0
M  V30 6780 H 651.363 -1.44971 3.95679 0
M  V30 6781 H 650.087 -1.75748 2.75282 0
M  V30 6782 H 648.746 0.17152 3.66199 0
M  V30 6783 H 648.394 -2.13882 4.55262 0
M  V30 6784 H 648.094 -0.908276 5.80538 0
M  V30 6785 H 649.618 -1.84056 5.82199 0
M  V30 6786 H 651.032 0.42845 5.71697 0
M  V30 6787 H 649.429 1.20282 5.87922 0
M  V30 6788 H 650.499 1.68003 4.54866 0
M  V30 6789 N 651.842 -1.52309 0.404946 0
M  V30 6790 C 653.091 -2.00952 -0.173529 0
M  V30 6791 C 653.404 -1.29512 -1.46581 0
M  V30 6792 O 654.61 -1.6895 -2.12528 0
M  V30 6793 C 653.066 -3.58097 -0.359801 0
M  V30 6794 C 652.674 -4.38449 0.920138 0
M  V30 6795 C 654.418 -4.14984 -0.893794 0
M  V30 6796 C 652.325 -5.87227 0.701285 0
M  V30 6797 H 651.255 -0.750871 -0.0686244 0
M  V30 6798 H 653.906 -1.75687 0.529749 0
M  V30 6799 H 652.288 -3.79675 -1.12531 0
M  V30 6800 H 653.462 -4.28633 1.69147 0
M  V30 6801 H 651.777 -3.92859 1.38024 0
M  V30 6802 H 654.374 -5.23813 -1.0735 0
M  V30 6803 H 654.717 -3.72072 -1.8673 0
M  V30 6804 H 655.25 -3.97358 -0.187453 0
M  V30 6805 H 651.989 -6.34491 1.64624 0
M  V30 6806 H 651.509 -5.99792 -0.0308288 0
M  V30 6807 H 653.188 -6.46096 0.341846 0
M  V30 6808 N 653.32 -0.135238 -1.57019 0
M  V30 6809 C 654.568 0.51777 -1.95355 0
M  V30 6810 C 654.889 1.6617 -1.02042 0
M  V30 6811 O 654.159 1.95738 -0.0797343 0
M  V30 6812 H 652.739 0.194264 -0.721298 0
M  V30 6813 H 655.401 -0.207983 -1.93787 0
M  V30 6814 H 654.497 0.901675 -2.98791 0
M  V30 6815 N 654.798 1.5699 0.138552 0
M  V30 6816 C 656.075 1.74741 0.87891 0
M  V30 6817 C 656.455 0.705522 1.98961 0
M  V30 6818 O 655.803 -0.274066 2.2685 0
M  V30 6819 C 656.013 3.1909 1.4136 0
M  V30 6820 C 657.361 3.81023 1.87368 0
M  V30 6821 O 658.385 3.22571 1.51084 0
M  V30 6822 O 657.244 4.83722 2.54312 0
M  V30 6823 H 654.338 0.714781 0.415953 0
M  V30 6824 H 656.884 1.69248 0.123817 0
M  V30 6825 H 655.656 3.86424 0.61579 0
M  V30 6826 H 655.279 3.29043 2.23196 0
M  V30 6827 N 656.276 -0.40816 1.52223 0
M  V30 6828 C 657.504 -1.17672 1.70179 0
M  V30 6829 C 657.919 -1.84257 0.411696 0
M  V30 6830 O 657.276 -1.7192 -0.612354 0
M  V30 6831 C 657.327 -2.23911 2.83806 0
M  V30 6832 O 657.048 -1.60044 4.0782 0
M  V30 6833 C 658.549 -3.1364 3.13281 0
M  V30 6834 H 655.769 -0.353562 0.570293 0
M  V30 6835 H 658.313 -0.480083 1.98785 0
M  V30 6836 H 656.468 -2.89242 2.57717 0
M  V30 6837 H 656.882 -2.30484 4.71145 0
M  V30 6838 H 658.356 -3.84255 3.96298 0
M  V30 6839 H 658.833 -3.76066 2.26872 0
M  V30 6840 H 659.439 -2.53977 3.41139 0
M  V30 6841 N 657.755 -1.42862 -0.66545 0
M  V30 6842 C 659.166 -1.3901 -1.24632 0
M  V30 6843 C 659.517 -0.0880285 -1.96002 0
M  V30 6844 O 658.642 0.812947 -2.0055 0
M  V30 6845 C 659.237 -2.51806 -2.2667 0
M  V30 6846 C 657.796 -2.51257 -2.80262 0
M  V30 6847 C 656.943 -2.30124 -1.5472 0
M  V30 6848 H 659.894 -1.5194 -0.458237 0
M  V30 6849 H 659.915 -2.22593 -3.08598 0
M  V30 6850 H 659.427 -3.46558 -1.74697 0
M  V30 6851 H 657.528 -1.60349 -3.36332 0
M  V30 6852 H 657.641 -3.48614 -3.28641 0
M  V30 6853 H 656.005 -1.7856 -1.81627 0
M  V30 6854 H 656.788 -3.26945 -1.04699 0
M  V30 6855 N 659.233 0.902656 -1.29189 0
M  V30 6856 C 660.482 1.6475 -1.16362 0
M  V30 6857 C 660.795 1.93517 0.284682 0
M  V30 6858 O 662.001 2.66192 0.534229 0
M  V30 6859 C 660.457 2.96848 -2.03493 0
M  V30 6860 C 660.065 2.75687 -3.5313 0
M  V30 6861 C 661.809 3.74762 -1.99383 0
M  V30 6862 C 659.716 4.03492 -4.32375 0
M  V30 6863 H 658.646 0.618041 -0.431904 0
M  V30 6864 H 661.297 1.0008 -1.53806 0
M  V30 6865 H 659.679 3.62715 -1.58916 0
M  V30 6866 H 660.853 2.18431 -4.05739 0
M  V30 6867 H 659.168 2.11171 -3.58881 0
M  V30 6868 H 661.765 4.69515 -2.5585 0
M  V30 6869 H 662.108 4.04767 -0.973123 0
M  V30 6870 H 662.641 3.15732 -2.41988 0
M  V30 6871 H 659.38 3.78656 -5.3507 0
M  V30 6872 H 658.9 4.60318 -3.84535 0
M  V30 6873 H 660.579 4.71662 -4.42881 0
M  V30 6874 N 660.711 1.11618 1.11262 0
M  V30 6875 C 661.988 0.777876 1.79467 0
M  V30 6876 C 662.368 -0.733774 1.97937 0
M  V30 6877 O 661.716 -1.66443 1.56554 0
M  V30 6878 C 661.926 1.5431 3.13032 0
M  V30 6879 C 663.274 1.72357 3.88044 0
M  V30 6880 O 664.298 1.5075 3.22727 0
M  V30 6881 O 663.157 2.08276 5.05256 0
M  V30 6882 H 660.251 0.282018 0.777428 0
M  V30 6883 H 662.797 1.21971 1.17988 0
M  V30 6884 H 661.569 2.57132 2.94956 0
M  V30 6885 H 661.192 1.09495 3.82226 0
M  V30 6886 N 662.189 -1.289 0.906776 0
M  V30 6887 C 663.417 -1.99401 0.551969 0
M  V30 6888 C 663.832 -1.67816 -0.865048 0
M  V30 6889 O 663.189 -0.927078 -1.57199 0
M  V30 6890 C 663.24 -3.53779 0.743152 0
M  V30 6891 O 662.961 -3.84248 2.1044 0
M  V30 6892 C 664.462 -4.41543 0.39424 0
M  V30 6893 H 661.682 -0.636926 0.211106 0
M  V30 6894 H 664.226 -1.64266 1.21807 0
M  V30 6895 H 662.381 -3.87201 0.124143 0
M  V30 6896 H 662.795 -4.78904 2.13895 0
M  V30 6897 H 664.269 -5.48957 0.578814 0
M  V30 6898 H 664.746 -4.34073 -0.669137 0
M  V30 6899 H 665.352 -4.13605 0.990491 0
M  V30 6900 N 663.667 -0.670007 -1.42649 0
M  V30 6901 C 664.914 -0.190286 -2.01604 0
M  V30 6902 C 665.242 1.20155 -1.52948 0
M  V30 6903 O 664.497 1.81964 -0.72026 0
M  V30 6904 C 664.796 -0.168298 -3.57004 0
M  V30 6905 C 664.462 -1.50415 -4.25072 0
M  V30 6906 C 663.124 -1.86992 -4.43382 0
M  V30 6907 C 665.476 -2.38414 -4.63474 0
M  V30 6908 C 662.804 -3.11203 -4.97363 0
M  V30 6909 C 665.156 -3.61933 -5.18833 0
M  V30 6910 C 663.82 -3.98685 -5.35356 0
M  V30 6911 H 663.09 -0.0696305 -0.737721 0
M  V30 6912 H 665.737 -0.864044 -1.70899 0
M  V30 6913 H 664.042 0.588958 -3.87348 0
M  V30 6914 H 665.739 0.22001 -4.00396 0
M  V30 6915 H 662.329 -1.20959 -4.11177 0
M  V30 6916 H 666.513 -2.11442 -4.49006 0
M  V30 6917 H 661.769 -3.39705 -5.08341 0
M  V30 6918 H 665.943 -4.30326 -5.47533 0
M  V30 6919 H 663.57 -4.95009 -5.76949 0
M  V30 6920 N 665.145 1.52092 -0.413018 0
M  V30 6921 C 666.075 2.30021 0.401567 0
M  V30 6922 C 667.056 1.34395 1.04269 0
M  V30 6923 O 668.241 1.63304 1.05097 0
M  V30 6924 C 665.371 3.12447 1.51638 0
M  V30 6925 C 664.325 4.16153 1.00005 0
M  V30 6926 C 663.651 4.86948 2.20875 0
M  V30 6927 C 664.951 5.22275 0.0513757 0
M  V30 6928 H 666.645 2.98365 -0.248704 0
M  V30 6929 H 664.191 1.4349 -0.121052 0
M  V30 6930 H 666.144 3.65733 2.09326 0
M  V30 6931 H 664.868 2.41879 2.19458 0
M  V30 6932 H 663.527 3.63882 0.445549 0
M  V30 6933 H 663.175 4.12905 2.8726 0
M  V30 6934 H 662.875 5.57057 1.86978 0
M  V30 6935 H 664.399 5.43048 2.79162 0
M  V30 6936 H 665.813 5.70778 0.537176 0
M  V30 6937 H 664.21 5.9977 -0.198977 0
M  V30 6938 H 665.28 4.76611 -0.892736 0
M  V30 6939 N 666.623 0.143563 1.56945 0
M  V30 6940 C 667.556 -0.835367 2.1236 0
M  V30 6941 C 668.534 -1.24466 1.04627 0
M  V30 6942 O 669.718 -1.34138 1.32436 0
M  V30 6943 C 666.845 -2.12123 2.64048 0
M  V30 6944 C 665.891 -1.85812 3.83896 0
M  V30 6945 S 666.724 -1.05222 5.25061 0
M  V30 6946 C 667.88 -2.34935 5.80135 0
M  V30 6947 H 668.113 -0.364109 2.95062 0
M  V30 6948 H 665.646 -0.0706601 1.54238 0
M  V30 6949 H 667.604 -2.85993 2.94479 0
M  V30 6950 H 666.265 -2.56364 1.81483 0
M  V30 6951 H 665.458 -2.81151 4.18294 0
M  V30 6952 H 665.06 -1.20052 3.54208 0
M  V30 6953 H 667.352 -3.3061 5.91357 0
M  V30 6954 H 668.295 -2.05046 6.77762 0
M  V30 6955 H 668.703 -2.45426 5.08356 0
M  V30 6956 N 668.101 -1.57061 -0.130224 0
M  V30 6957 C 669.011 -2.02802 -1.17934 0
M  V30 6958 C 670.027 -0.946378 -1.46013 0
M  V30 6959 O 671.203 -1.25708 -1.57351 0
M  V30 6960 C 668.268 -2.41368 -2.48882 0
M  V30 6961 C 667.329 -3.63561 -2.28301 0
M  V30 6962 C 666.562 -4.00279 -3.53005 0
M  V30 6963 O 666.785 -3.37463 -4.59864 0
M  V30 6964 O 665.719 -4.93441 -3.44673 0
M  V30 6965 H 669.545 -2.92394 -0.820958 0
M  V30 6966 H 667.13 -1.45475 -0.340197 0
M  V30 6967 H 669.012 -2.66958 -3.26054 0
M  V30 6968 H 667.687 -1.54926 -2.84217 0
M  V30 6969 H 666.594 -3.43136 -1.49025 0
M  V30 6970 H 667.927 -4.50673 -1.97875 0
M  V30 6971 N 669.579 0.400081 -1.52437 0
M  V30 6972 C 670.512 1.50929 -1.7116 0
M  V30 6973 C 671.49 1.52679 -0.559275 0
M  V30 6974 O 672.674 1.71251 -0.787735 0
M  V30 6975 C 669.801 2.89433 -1.75915 0
M  V30 6976 C 668.847 3.05556 -2.97553 0
M  V30 6977 S 669.68 2.77919 -4.57735 0
M  V30 6978 C 670.836 4.18636 -4.6529 0
M  V30 6979 H 671.069 1.3482 -2.64973 0
M  V30 6980 H 668.602 0.592245 -1.4259 0
M  V30 6981 H 670.56 3.69253 -1.7934 0
M  V30 6982 H 669.221 3.02877 -0.832137 0
M  V30 6983 H 668.414 4.0691 -2.97388 0
M  V30 6984 H 668.016 2.33615 -2.92062 0
M  V30 6985 H 670.308 5.12406 -4.43223 0
M  V30 6986 H 671.251 4.23821 -5.67258 0
M  V30 6987 H 671.659 4.04029 -3.94234 0
M  V30 6988 N 671.057 1.43213 0.657864 0
M  V30 6989 C 671.987 1.50815 1.78262 0
M  V30 6990 C 672.968 0.363211 1.66177 0
M  V30 6991 O 674.153 0.579806 1.85343 0
M  V30 6992 C 671.283 1.42625 3.16663 0
M  V30 6993 C 670.237 2.5532 3.43505 0
M  V30 6994 C 669.563 2.32184 4.81658 0
M  V30 6995 C 670.863 3.97583 3.38711 0
M  V30 6996 H 672.557 2.44954 1.72157 0
M  V30 6997 H 670.103 1.17896 0.82683 0
M  V30 6998 H 672.056 1.46548 3.95097 0
M  V30 6999 H 670.78 0.449877 3.23487 0
M  V30 7000 H 669.439 2.50742 2.6744 0
M  V30 7001 H 669.087 1.32801 4.85153 0
M  V30 7002 H 668.787 3.07724 5.00579 0
M  V30 7003 H 670.311 2.37883 5.62356 0
M  V30 7004 H 671.725 4.03673 4.07089 0
M  V30 7005 H 670.122 4.73112 3.69168 0
M  V30 7006 H 671.192 4.23049 2.36976 0
M  V30 7007 N 672.536 -0.895792 1.29666 0
M  V30 7008 C 673.446 -2.03329 1.17024 0
M  V30 7009 C 674.462 -1.73753 0.0925962 0
M  V30 7010 O 675.638 -1.99071 0.305431 0
M  V30 7011 C 672.703 -3.36072 0.851841 0
M  V30 7012 C 671.764 -3.7914 2.01373 0
M  V30 7013 C 670.997 -5.05549 1.71043 0
M  V30 7014 O 671.22 -5.66874 0.633213 0
M  V30 7015 O 670.154 -5.44764 2.5596 0
M  V30 7016 H 673.98 -2.16918 2.12556 0
M  V30 7017 H 671.565 -1.02007 1.09156 0
M  V30 7018 H 673.447 -4.15729 0.689006 0
M  V30 7019 H 672.122 -3.23616 -0.0736634 0
M  V30 7020 H 671.029 -3.00233 2.23183 0
M  V30 7021 H 672.362 -3.96186 2.92058 0
M  V30 7022 N 674.014 -1.12206 -1.10668 0
M  V30 7023 C 674.977 -0.790867 -2.15123 0
M  V30 7024 C 675.977 0.193618 -1.5963 0
M  V30 7025 O 677.167 -0.0318728 -1.74171 0
M  V30 7026 C 674.299 -0.174797 -3.40452 0
M  V30 7027 H 675.492 -1.7163 -2.45933 0
M  V30 7028 H 673.045 -0.924993 -1.2599 0
M  V30 7029 H 673.78 0.760478 -3.15257 0
M  V30 7030 H 673.565 -0.88358 -3.82015 0
M  V30 7031 H 675.055 0.0405162 -4.1758 0
M  V30 7032 N 675.492 1.28418 -0.913599 0
M  V30 7033 C 676.903 1.77024 -0.593237 0
M  V30 7034 C 677.254 1.74779 0.891441 0
M  V30 7035 O 676.379 1.34237 1.69733 0
M  V30 7036 C 676.974 3.21456 -1.07011 0
M  V30 7037 C 675.533 3.67786 -0.800664 0
M  V30 7038 C 674.68 2.48185 -1.23691 0
M  V30 7039 H 677.631 1.14883 -1.09487 0
M  V30 7040 H 677.652 3.78269 -0.411481 0
M  V30 7041 H 677.164 3.23058 -2.1507 0
M  V30 7042 H 675.265 3.71644 0.266725 0
M  V30 7043 H 675.378 4.57934 -1.4083 0
M  V30 7044 H 673.742 2.46116 -0.655655 0
M  V30 7045 H 674.525 2.52506 -2.32585 0
M  V30 7046 N 676.97 0.677563 1.42291 0
M  V30 7047 C 677.92 -0.0218641 2.2799 0
M  V30 7048 C 678.904 -0.770816 1.41235 0
M  V30 7049 O 680.096 -0.649273 1.64662 0
M  V30 7050 C 677.225 -0.970449 3.29298 0
M  V30 7051 C 676.311 -0.218695 4.23536 0
M  V30 7052 N 676.702 0.777908 4.99782 0
M  V30 7053 C 675 -0.456748 4.43655 0
M  V30 7054 C 675.701 1.22632 5.68627 0
M  V30 7055 N 674.677 0.55573 5.40752 0
M  V30 7056 H 678.479 0.742516 2.84366 0
M  V30 7057 H 675.993 0.506862 1.54288 0
M  V30 7058 H 677.99 -1.48652 3.89497 0
M  V30 7059 H 676.65 -1.73463 2.74483 0
M  V30 7060 H 677.661 1.15754 5.04798 0
M  V30 7061 H 674.338 -1.20021 3.99877 0
M  V30 7062 H 675.728 2.05231 6.39789 0
M  V30 7063 N 678.448 -1.51871 0.421078 0
M  V30 7064 C 679.38 -2.25052 -0.434065 0
M  V30 7065 C 680.393 -1.28458 -1.00013 0
M  V30 7066 O 681.582 -1.54323 -0.897033 0
M  V30 7067 C 678.682 -2.97813 -1.61743 0
M  V30 7068 C 677.855 -4.21374 -1.17315 0
M  V30 7069 C 676.914 -4.76854 -2.22478 0
M  V30 7070 O 675.94 -5.39123 -1.82577 0
M  V30 7071 N 677.142 -4.59467 -3.54782 0
M  V30 7072 H 679.907 -2.99077 0.193073 0
M  V30 7073 H 677.468 -1.59972 0.249088 0
M  V30 7074 H 679.46 -3.3182 -2.31685 0
M  V30 7075 H 678.03 -2.26899 -2.15024 0
M  V30 7076 H 677.25 -3.93046 -0.3014 0
M  V30 7077 H 678.538 -5.01591 -0.853444 0
M  V30 7078 H 677.936 -4.09832 -3.89941 0
M  V30 7079 H 676.493 -4.9788 -4.20665 0
M  V30 7080 N 679.926 -0.151884 -1.56866 0
M  V30 7081 C 680.859 0.824094 -2.128 0
M  V30 7082 C 681.837 1.2391 -1.05286 0
M  V30 7083 O 683.021 1.33433 -1.33146 0
M  V30 7084 C 680.148 2.1072 -2.65169 0
M  V30 7085 C 679.194 1.83774 -3.84876 0
M  V30 7086 S 680.027 1.02436 -5.25611 0
M  V30 7087 C 681.183 2.31855 -5.81373 0
M  V30 7088 H 681.416 0.348456 -2.95251 0
M  V30 7089 H 678.949 0.0624794 -1.54274 0
M  V30 7090 H 680.907 2.84428 -2.95992 0
M  V30 7091 H 679.568 2.55398 -1.8284 0
M  V30 7092 H 678.761 2.78929 -4.19779 0
M  V30 7093 H 678.363 1.18172 -3.5484 0
M  V30 7094 H 680.655 3.27469 -5.93102 0
M  V30 7095 H 681.598 2.01449 -6.7884 0
M  V30 7096 H 682.006 2.42727 -5.09651 0
M  V30 7097 N 681.404 1.57128 0.121893 0
M  V30 7098 C 682.632 1.88883 0.844451 0
M  V30 7099 C 683.047 0.742824 1.73573 0
M  V30 7100 O 682.404 -0.286475 1.80238 0
M  V30 7101 C 682.455 3.20076 1.68029 0
M  V30 7102 O 682.176 4.30264 0.824898 0
M  V30 7103 C 683.677 3.65515 2.50826 0
M  V30 7104 H 680.897 0.62549 0.242907 0
M  V30 7105 H 683.441 2.04219 0.107151 0
M  V30 7106 H 681.596 3.06418 2.37038 0
M  V30 7107 H 682.01 5.05439 1.40113 0
M  V30 7108 H 683.484 4.60081 3.05008 0
M  V30 7109 H 683.961 2.92029 3.28048 0
M  V30 7110 H 684.567 3.81952 1.87064 0
M  V30 7111 O 682.921 -0.266262 1.5929 0
M  V30 7112 H 683.612 -0.91096 1.70942 0
M  V30 END ATOM
M  V30 BEGIN BOND
M  V30 END BOND
M  V30 END CTAB
M  END
$$$$
