drugbank_target|P38516 50S ribosomal protein L4 (DB04272)
 OpenBabel12092120293D

  0  0  0     0  0            999 V3000
M  V30 BEGIN CTAB
M  V30 COUNTS 3830 3862 0 0 0
M  V30 BEGIN ATOM
M  V30 1 H -0.908 1.98254 -0.117106 0
M  V30 2 N 0 1.576 0 0
M  V30 3 C 0.933 2.03868 1.02534 0
M  V30 4 C 1.911 0.928543 1.3348 0
M  V30 5 O 3.095 1.19667 1.45644 0
M  V30 6 C 0.222 2.43627 2.35294 0
M  V30 7 C -0.732 3.65373 2.2001 0
M  V30 8 S 0.101 5.13292 1.52614 0
M  V30 9 C 1.257 5.56322 2.86805 0
M  V30 10 H 1.49 2.90518 0.631377 0
M  V30 11 H -0.977 1.52953 0.210867 0
M  V30 12 H 0.981 2.67203 3.11629 0
M  V30 13 H -0.358 1.57376 2.7183 0
M  V30 14 H -1.165 3.90944 3.18086 0
M  V30 15 H -1.563 3.418 1.51819 0
M  V30 16 H 0.729 5.58782 3.83104 0
M  V30 17 H 1.672 6.56266 2.65933 0
M  V30 18 H 2.08 4.83886 2.90714 0
M  V30 19 N 1.4781 -0.272755 1.55222 0
M  V30 20 C 2.4411 -1.32041 1.87344 0
M  V30 21 C 3.4411 -1.42342 0.74803 0
M  V30 22 O 4.6311 -1.41488 1.0162 0
M  V30 23 C 1.7631 -2.70173 2.07893 0
M  V30 24 H 2.9561 -1.04789 2.80997 0
M  V30 25 H 0.5091 -0.51083 1.47717 0
M  V30 26 H 1.2441 -3.02605 1.16622 0
M  V30 27 H 1.0291 -2.64082 2.89833 0
M  V30 28 H 2.5191 -3.45869 2.34017 0
M  V30 29 N 2.9562 -1.48159 -0.537278 0
M  V30 30 C 3.8882 -1.58218 -1.65831 0
M  V30 31 C 4.9012 -0.466948 -1.5596 0
M  V30 32 O 6.0902 -0.73747 -1.62553 0
M  V30 33 C 3.1902 -1.48906 -3.04434 0
M  V30 34 C 2.3632 -2.75343 -3.3986 0
M  V30 35 C 1.4222 -2.59588 -4.57712 0
M  V30 36 O 0.4482 -3.33457 -4.61297 0
M  V30 37 N 1.6502 -1.68724 -5.55439 0
M  V30 38 H 4.4152 -2.54891 -1.57641 0
M  V30 39 H 1.9762 -1.4479 -0.724386 0
M  V30 40 H 3.9682 -1.36072 -3.81139 0
M  V30 41 H 2.5382 -0.602368 -3.06741 0
M  V30 42 H 1.7582 -3.02795 -2.52406 0
M  V30 43 H 3.0462 -3.5924 -3.60311 0
M  V30 44 H 2.4442 -1.07898 -5.55315 0
M  V30 45 H 1.0012 -1.61832 -6.3139 0
M  V30 46 N 4.4343 0.785586 -1.36625 0
M  V30 47 C 5.6803 1.54591 -1.31261 0
M  V30 48 C 6.0133 1.93906 0.106823 0
M  V30 49 O 5.2883 1.63007 1.06108 0
M  V30 50 C 5.5713 2.82038 -2.23889 0
M  V30 51 C 5.4243 2.49066 -3.74548 0
M  V30 52 C 6.7433 3.83887 -2.15217 0
M  V30 53 H 3.8623 0.560846 -0.478143 0
M  V30 54 H 6.5043 0.902278 -1.67209 0
M  V30 55 H 4.6543 3.36961 -1.93363 0
M  V30 56 H 6.3263 2.00164 -4.15611 0
M  V30 57 H 4.5693 1.81954 -3.93796 0
M  V30 58 H 5.2403 3.40109 -4.34776 0
M  V30 59 H 7.7163 3.38421 -2.42096 0
M  V30 60 H 6.5923 4.70806 -2.82193 0
M  V30 61 H 6.8533 4.27131 -1.14068 0
M  V30 62 N 5.9124 1.20967 1.01018 0
M  V30 63 C 7.1894 0.93264 1.71934 0
M  V30 64 C 7.5694 -0.55692 2.03621 0
M  V30 65 O 6.9174 -1.52035 1.7058 0
M  V30 66 C 7.1274 1.81233 2.98254 0
M  V30 67 C 8.4754 2.05804 3.71389 0
M  V30 68 O 9.4994 1.78539 3.08225 0
M  V30 69 O 8.3584 2.51888 4.84989 0
M  V30 70 H 5.4524 0.349272 0.749625 0
M  V30 71 H 7.9984 1.31871 1.06808 0
M  V30 72 H 6.7704 2.82067 2.71208 0
M  V30 73 H 6.3934 1.42674 3.7112 0
M  V30 74 N 7.3905 -1.2043 1.01659 0
M  V30 75 C 8.3205 -2.25466 0.607226 0
M  V30 76 C 9.3015 -1.65853 -0.377716 0
M  V30 77 O 10.4865 -1.92409 -0.263149 0
M  V30 78 C 7.6165 -3.47256 -0.0552949 0
M  V30 79 C 6.5705 -4.19462 0.850632 0
M  V30 80 C 5.8965 -5.34673 0.0538859 0
M  V30 81 C 7.1965 -4.75603 2.15868 0
M  V30 82 H 8.8905 -2.59962 1.48526 0
M  V30 83 H 6.4365 -1.2496 0.715605 0
M  V30 84 H 8.3895 -4.19917 -0.353233 0
M  V30 85 H 7.1135 -3.11924 -0.968045 0
M  V30 86 H 5.7725 -3.48667 1.13257 0
M  V30 87 H 5.4205 -4.95585 -0.860514 0
M  V30 88 H 5.1205 -5.83913 0.657192 0
M  V30 89 H 6.6445 -6.10138 -0.237598 0
M  V30 90 H 8.0585 -5.40083 1.92311 0
M  V30 91 H 6.4555 -5.3528 2.71284 0
M  V30 92 H 7.5255 -3.94346 2.82169 0
M  V30 93 N 8.8686 -0.792821 -1.36206 0
M  V30 94 C 9.7986 -0.207853 -2.32573 0
M  V30 95 C 10.7796 0.659055 -1.56813 0
M  V30 96 O 11.9646 0.592176 -1.84951 0
M  V30 97 C 9.0946 0.655449 -3.41059 0
M  V30 98 C 8.0486 -0.111842 -4.27854 0
M  V30 99 C 7.3746 0.872274 -5.27537 0
M  V30 100 C 8.6746 -1.30299 -5.05786 0
M  V30 101 H 10.3686 -1.01294 -2.81744 0
M  V30 102 H 7.9146 -0.48854 -1.3546 0
M  V30 103 H 9.8676 1.07464 -4.07467 0
M  V30 104 H 8.5916 1.49328 -2.90463 0
M  V30 105 H 7.2506 -0.512053 -3.63006 0
M  V30 106 H 6.8986 1.70523 -4.73214 0
M  V30 107 H 6.5986 0.363291 -5.86476 0
M  V30 108 H 8.1226 1.28996 -5.96818 0
M  V30 109 H 9.5366 -0.959379 -5.65216 0
M  V30 110 H 7.9336 -1.7455 -5.74154 0
M  V30 111 H 9.0036 -2.09663 -4.37229 0
M  V30 112 N 10.3467 1.47872 -0.545128 0
M  V30 113 C 11.2947 2.31533 0.222512 0
M  V30 114 C 12.2887 1.42177 0.920985 0
M  V30 115 O 13.4947 1.59005 0.843645 0
M  V30 116 H 9.8697 0.746519 0.0906278 0
M  V30 117 H 11.8407 2.94139 -0.50246 0
M  V30 118 C 10.5897 3.2457 1.24699 0
M  V30 119 H 9.9127 3.93283 0.718944 0
M  V30 120 H 11.3527 3.85963 1.75523 0
M  V30 121 C 9.8117 2.47237 2.28856 0
M  V30 122 O 10.3417 2.20808 3.35569 0
M  V30 123 N 8.5477 2.08461 2.02466 0
M  V30 124 H 8.0947 2.30155 1.157 0
M  V30 125 H 8.0527 1.57033 2.72375 0
M  V30 126 N 11.8248 0.280983 1.55075 0
M  V30 127 C 13.0708 -0.33461 2.00021 0
M  V30 128 C 13.4038 -1.55063 1.16915 0
M  V30 129 O 12.6788 -1.93006 0.240646 0
M  V30 130 C 12.9618 -0.711007 3.53011 0
M  V30 131 C 12.8148 0.512766 4.46868 0
M  V30 132 C 14.1338 -1.54522 4.12081 0
M  V30 133 H 11.2528 -0.120147 0.727141 0
M  V30 134 H 13.8948 0.389097 1.85973 0
M  V30 135 H 12.0448 -1.32761 3.65112 0
M  V30 136 H 13.7168 1.15131 4.46702 0
M  V30 137 H 11.9598 1.14975 4.18286 0
M  V30 138 H 12.6308 0.205556 5.51617 0
M  V30 139 H 15.1068 -1.02442 4.03293 0
M  V30 140 H 13.9828 -1.77739 5.19327 0
M  V30 141 H 14.2438 -2.52813 3.62682 0
M  V30 142 N 13.3029 -1.57598 0.00835791 0
M  V30 143 C 14.2499 -2.08945 -0.980346 0
M  V30 144 C 15.2199 -0.986738 -1.33614 0
M  V30 145 O 16.4049 -1.25968 -1.43306 0
M  V30 146 C 13.5449 -2.60425 -2.26435 0
M  V30 147 C 12.6579 -3.84628 -1.96685 0
M  V30 148 C 11.7929 -4.24579 -3.19228 0
M  V30 149 C 10.8319 -5.41596 -2.85202 0
M  V30 150 N 9.9689 -5.768 -4.00307 0
M  V30 151 H 14.8089 -2.93148 -0.535551 0
M  V30 152 H 12.3459 -1.44912 -0.252776 0
M  V30 153 H 14.3039 -2.88354 -3.01509 0
M  V30 154 H 12.9339 -1.79083 -2.68568 0
M  V30 155 H 11.9859 -3.63556 -1.11942 0
M  V30 156 H 13.2979 -4.69796 -1.67611 0
M  V30 157 H 12.4519 -4.53834 -4.02641 0
M  V30 158 H 11.1909 -3.38137 -3.51447 0
M  V30 159 H 10.1959 -5.12056 -2.00198 0
M  V30 160 H 11.4209 -6.29721 -2.54222 0
M  V30 161 H 9.3669 -4.93316 -4.32407 0
M  V30 162 H 9.2839 -6.5656 -3.74786 0
M  V30 163 H 10.5519 -6.10652 -4.84484 0
M  V30 164 N 14.781 0.264519 -1.55364 0
M  V30 165 C 16.029 0.993021 -1.76021 0
M  V30 166 C 16.35 1.86511 -0.569099 0
M  V30 167 O 15.62 1.91438 0.415735 0
M  V30 168 H 14.2 0.369639 -0.649135 0
M  V30 169 H 16.862 0.286707 -1.9278 0
M  V30 170 H 15.958 1.62502 -2.66457 0
M  V30 171 N 16.2591 1.48442 0.529413 0
M  V30 172 C 17.1691 1.6569 1.66084 0
M  V30 173 C 18.1851 0.539432 1.65427 0
M  V30 174 O 19.3611 0.810572 1.84368 0
M  V30 175 C 16.4261 1.69315 3.02545 0
M  V30 176 C 15.4871 2.92694 3.14052 0
M  V30 177 C 14.7201 2.96137 4.44003 0
M  V30 178 O 14.9431 2.07973 5.31134 0
M  V30 179 O 13.8771 3.88312 4.59888 0
M  V30 180 H 17.7031 2.61483 1.54469 0
M  V30 181 H 15.2881 1.3185 0.702567 0
M  V30 182 H 17.1701 1.74217 3.83701 0
M  V30 183 H 15.8451 0.766966 3.14483 0
M  V30 184 H 14.7521 2.93324 2.32189 0
M  V30 185 H 16.0851 3.84699 3.0703 0
M  V30 186 N 17.7372 -0.778329 1.37039 0
M  V30 187 C 18.6842 -1.89139 1.32269 0
M  V30 188 C 19.6542 -1.65017 0.189387 0
M  V30 189 O 20.8392 -1.87024 0.377693 0
M  V30 190 C 17.9792 -3.26112 1.12894 0
M  V30 191 C 17.0922 -3.62233 2.35396 0
M  V30 192 C 16.2272 -4.8838 2.08946 0
M  V30 193 C 15.2662 -5.17212 3.2735 0
M  V30 194 N 14.4032 -6.34546 3.00492 0
M  V30 195 H 19.2432 -1.92552 2.27437 0
M  V30 196 H 16.7802 -0.941473 1.13025 0
M  V30 197 H 18.7382 -4.05116 0.996835 0
M  V30 198 H 17.3682 -3.22091 0.213758 0
M  V30 199 H 16.4202 -2.78265 2.5937 0
M  V30 200 H 17.7322 -3.79481 3.23721 0
M  V30 201 H 16.8862 -5.75274 1.92729 0
M  V30 202 H 15.6252 -4.73222 1.17949 0
M  V30 203 H 14.6302 -4.28796 3.44113 0
M  V30 204 H 15.8552 -5.34283 4.19188 0
M  V30 205 H 13.8012 -6.20759 2.12118 0
M  V30 206 H 13.7182 -6.52179 3.82358 0
M  V30 207 H 14.9862 -7.24394 2.87879 0
M  V30 208 N 19.2153 -1.21501 -1.00376 0
M  V30 209 C 20.4613 -1.03452 -1.74429 0
M  V30 210 C 20.7943 0.430764 -1.89362 0
M  V30 211 O 20.0693 1.31962 -1.42886 0
M  V30 212 C 20.3523 -1.73375 -3.15615 0
M  V30 213 C 20.2053 -3.27431 -3.08397 0
M  V30 214 C 21.5243 -1.47732 -4.14564 0
M  V30 215 H 18.6433 -0.377226 -0.633143 0
M  V30 216 H 21.2853 -1.49693 -1.17013 0
M  V30 217 H 19.4353 -1.34064 -3.64636 0
M  V30 218 H 21.1073 -3.76119 -2.67081 0
M  V30 219 H 19.3503 -3.5767 -2.45468 0
M  V30 220 H 20.0213 -3.71524 -4.08258 0
M  V30 221 H 22.4973 -1.8186 -3.74254 0
M  V30 222 H 21.3733 -1.99169 -5.11491 0
M  V30 223 H 21.6343 -0.407589 -4.40217 0
M  V30 224 N 20.6934 1.19889 -1.02296 0
M  V30 225 C 21.9414 1.89046 -0.714558 0
M  V30 226 C 22.2624 1.79636 0.758681 0
M  V30 227 O 21.5324 1.20292 1.54618 0
M  V30 228 H 20.1124 0.699802 -0.261317 0
M  V30 229 H 22.7744 1.45574 -1.29592 0
M  V30 230 H 21.8704 2.95524 -1.0036 0
M  V30 231 N 22.1715 0.800033 1.35784 0
M  V30 232 C 23.3995 0.389606 2.03199 0
M  V30 233 C 23.8145 -0.997375 1.60306 0
M  V30 234 O 23.1715 -1.64154 0.797481 0
M  V30 235 C 23.2225 0.455855 3.58614 0
M  V30 236 O 22.9435 1.78815 3.99946 0
M  V30 237 C 24.4445 0.0374032 4.43284 0
M  V30 238 H 21.6645 0.159132 0.651857 0
M  V30 239 H 24.2085 1.08183 1.73541 0
M  V30 240 H 22.3635 -0.188057 3.86943 0
M  V30 241 H 22.7775 1.74636 4.94573 0
M  V30 242 H 24.2515 0.134882 5.51835 0
M  V30 243 H 24.7285 -1.01651 4.27275 0
M  V30 244 H 25.3345 0.654215 4.20238 0
M  V30 245 N 23.6496 -1.47581 0.552962 0
M  V30 246 C 24.5796 -2.32762 -0.185451 0
M  V30 247 C 25.5606 -1.43527 -0.912905 0
M  V30 248 O 26.7456 -1.72388 -0.894201 0
M  V30 249 C 23.8756 -3.25219 -1.21859 0
M  V30 250 C 22.8296 -4.23661 -0.607864 0
M  V30 251 C 22.1556 -5.05413 -1.74533 0
M  V30 252 C 23.4556 -5.20481 0.435582 0
M  V30 253 H 25.1496 -2.94749 0.525684 0
M  V30 254 H 22.6956 -1.41738 0.254251 0
M  V30 255 H 24.6486 -3.8365 -1.7433 0
M  V30 256 H 23.3726 -2.61279 -1.95961 0
M  V30 257 H 22.0316 -3.66451 -0.104489 0
M  V30 258 H 21.6796 -4.3788 -2.47529 0
M  V30 259 H 21.3796 -5.72059 -1.34249 0
M  V30 260 H 22.9036 -5.66701 -2.27338 0
M  V30 261 H 24.3176 -5.733 -0.00290157 0
M  V30 262 H 22.7146 -5.95305 0.757067 0
M  V30 263 H 23.7846 -4.66217 1.33303 0
M  V30 264 N 25.1277 -0.289203 -1.54924 0
M  V30 265 C 26.0377 0.601863 -2.26748 0
M  V30 266 C 27.0537 1.15834 -1.2984 0
M  V30 267 O 28.2297 1.18564 -1.62802 0
M  V30 268 C 25.2947 1.76299 -2.98529 0
M  V30 269 C 24.3557 1.24178 -4.10948 0
M  V30 270 C 23.5887 2.34757 -4.79296 0
M  V30 271 O 23.8117 3.54411 -4.46933 0
M  V30 272 O 22.7457 2.02115 -5.66951 0
M  V30 273 H 26.5717 0.0195879 -3.03694 0
M  V30 274 H 24.1567 -0.0560868 -1.49295 0
M  V30 275 H 26.0387 2.43973 -3.43592 0
M  V30 276 H 24.7137 2.33209 -2.24488 0
M  V30 277 H 23.6207 0.531104 -3.70311 0
M  V30 278 H 24.9537 0.718252 -4.86931 0
M  V30 279 N 26.6058 1.57591 -0.0167156 0
M  V30 280 C 27.8548 1.90461 0.663877 0
M  V30 281 C 28.1678 0.893515 1.73999 0
M  V30 282 O 29.3738 1.11302 2.47637 0
M  V30 283 C 27.8298 3.38155 1.23204 0
M  V30 284 C 27.4378 4.47597 0.189866 0
M  V30 285 C 29.1818 3.80111 1.88986 0
M  V30 286 C 27.0888 5.86379 0.768964 0
M  V30 287 H 26.0188 0.710738 0.251729 0
M  V30 288 H 28.6698 1.83326 -0.0799926 0
M  V30 289 H 27.0518 3.40182 2.02712 0
M  V30 290 H 28.2258 4.57112 -0.581846 0
M  V30 291 H 26.5408 4.14766 -0.368475 0
M  V30 292 H 29.1378 4.81145 2.33247 0
M  V30 293 H 29.4808 3.14511 2.72743 0
M  V30 294 H 30.0138 3.80454 1.16187 0
M  V30 295 H 26.7528 6.55493 -0.0301957 0
M  V30 296 H 26.2728 5.80496 1.50945 0
M  V30 297 H 27.9518 6.34563 1.26251 0
M  V30 298 N 28.0839 -0.256276 1.55502 0
M  V30 299 C 29.3089 -1.00766 1.81276 0
M  V30 300 C 29.7339 -1.78524 0.59252 0
M  V30 301 O 29.0919 -1.75413 -0.45827 0
M  V30 302 C 29.1399 -1.92869 3.04687 0
M  V30 303 O 28.2439 -3.019 2.80945 0
M  V30 304 H 27.5849 -0.287224 0.598664 0
M  V30 305 H 30.1149 -0.280109 2.02674 0
M  V30 306 H 30.1249 -2.34511 3.33869 0
M  V30 307 H 28.7999 -1.35689 3.93143 0
M  V30 308 H 27.3769 -2.64454 2.62904 0
M  V30 309 N 29.562 -1.4872 -0.521534 0
M  V30 310 C 30.839 -1.4766 -1.2828 0
M  V30 311 C 31.219 -0.19292 -2.10217 0
M  V30 312 O 30.567 0.825193 -2.13079 0
M  V30 313 C 30.777 -2.74358 -2.15705 0
M  V30 314 C 32.125 -3.23028 -2.75569 0
M  V30 315 O 33.149 -2.75333 -2.25987 0
M  V30 316 O 32.008 -4.0604 -3.65778 0
M  V30 317 H 29.102 -0.590085 -0.579421 0
M  V30 318 H 31.648 -1.60963 -0.537492 0
M  V30 319 H 30.42 -3.59292 -1.54999 0
M  V30 320 H 30.043 -2.63816 -2.97467 0
M  V30 321 N 31.0401 0.771051 -1.3745 0
M  V30 322 C 32.2871 1.52963 -1.32697 0
M  V30 323 C 32.6151 1.94299 0.0883274 0
M  V30 324 O 31.8701 1.64397 1.0617 0
M  V30 325 C 32.1691 2.80676 -2.2126 0
M  V30 326 C 31.8351 2.58389 -3.69521 0
M  V30 327 C 30.4971 2.52019 -4.09927 0
M  V30 328 C 32.8491 2.38469 -4.63446 0
M  V30 329 C 30.1771 2.23721 -5.42371 0
M  V30 330 C 32.5291 2.11694 -5.96128 0
M  V30 331 C 31.1931 2.03769 -6.35637 0
M  V30 332 H 30.4631 0.559732 -0.485573 0
M  V30 333 H 33.1101 0.888083 -1.69662 0
M  V30 334 H 31.4151 3.49392 -1.77291 0
M  V30 335 H 33.1121 3.38557 -2.14895 0
M  V30 336 H 29.7021 2.6421 -3.37478 0
M  V30 337 H 33.8861 2.4238 -4.33089 0
M  V30 338 H 29.1421 2.16081 -5.71943 0
M  V30 339 H 33.3161 1.9528 -6.6846 0
M  V30 340 H 30.9431 1.81606 -7.38189 0
M  V30 341 N 32.5182 1.22032 0.997298 0
M  V30 342 C 33.7642 1.04376 1.73878 0
M  V30 343 C 34.0972 -0.420716 1.89588 0
M  V30 344 O 33.3722 -1.31202 1.43583 0
M  V30 345 C 33.6552 1.75047 3.14691 0
M  V30 346 C 33.5082 3.29062 3.06656 0
M  V30 347 C 34.8272 1.49928 4.13775 0
M  V30 348 H 31.9462 0.380578 0.631133 0
M  V30 349 H 34.5882 1.50312 1.16217 0
M  V30 350 H 32.7382 1.35996 3.63919 0
M  V30 351 H 34.4102 3.7753 2.65083 0
M  V30 352 H 32.6532 3.58967 2.43568 0
M  V30 353 H 33.3242 3.73683 4.06282 0
M  V30 354 H 35.8002 1.83842 3.73285 0
M  V30 355 H 34.6762 2.01878 5.10428 0
M  V30 356 H 34.9372 0.430929 4.39995 0
M  V30 357 N 33.9963 -1.19345 1.0293 0
M  V30 358 C 35.2433 -1.89038 0.726008 0
M  V30 359 C 35.5713 -1.79649 -0.745427 0
M  V30 360 O 34.8263 -1.18354 -1.55855 0
M  V30 361 C 35.1253 -3.39292 1.12319 0
M  V30 362 C 34.7913 -3.68885 2.59297 0
M  V30 363 C 33.4533 -3.76671 2.99453 0
M  V30 364 C 35.8053 -3.82178 3.54386 0
M  V30 365 C 33.1333 -3.9522 4.33611 0
M  V30 366 C 35.4853 -4.0224 4.88248 0
M  V30 367 C 34.1493 -4.08259 5.28092 0
M  V30 368 H 33.4193 -0.691739 0.265665 0
M  V30 369 H 36.0663 -1.41328 1.29223 0
M  V30 370 H 34.3713 -3.88903 0.475584 0
M  V30 371 H 36.0683 -3.91536 0.866037 0
M  V30 372 H 32.6583 -3.63433 2.27189 0
M  V30 373 H 36.8423 -3.75505 3.24514 0
M  V30 374 H 32.0983 -3.98119 4.64016 0
M  V30 375 H 36.2723 -4.11468 5.61843 0
M  V30 376 H 33.8993 -4.22384 6.32057 0
M  V30 377 N 35.4744 -0.807222 -1.35358 0
M  V30 378 C 36.4224 -0.20614 -2.31685 0
M  V30 379 C 37.4164 0.644445 -1.56663 0
M  V30 380 O 38.6224 0.537538 -1.71786 0
M  V30 381 H 34.9974 -0.0479006 -0.750473 0
M  V30 382 H 36.9684 -1.03369 -2.79924 0
M  V30 383 C 35.7174 0.630212 -3.41941 0
M  V30 384 H 35.0404 -0.0149558 -3.99797 0
M  V30 385 H 36.4804 1.01716 -4.11619 0
M  V30 386 C 34.9394 1.79601 -2.85035 0
M  V30 387 O 35.4694 2.89351 -2.78637 0
M  V30 388 N 33.6754 1.60774 -2.42074 0
M  V30 389 H 33.2224 0.715009 -2.47478 0
M  V30 390 H 33.1804 2.38933 -2.04349 0
M  V30 391 N 36.9525 1.47285 -0.560781 0
M  V30 392 C 38.2015 2.01668 -0.035895 0
M  V30 393 C 38.5145 1.44021 1.32353 0
M  V30 394 O 39.7205 1.90088 1.93853 0
M  V30 395 C 38.1765 3.59897 -0.0136659 0
M  V30 396 C 37.7845 4.26536 -1.37006 0
M  V30 397 C 39.5285 4.22017 0.458425 0
M  V30 398 C 37.4355 5.76782 -1.30675 0
M  V30 399 H 36.3655 0.753938 -0.00964879 0
M  V30 400 H 39.0165 1.69243 -0.709166 0
M  V30 401 H 37.3985 3.89301 0.725325 0
M  V30 402 H 38.5725 4.0877 -2.12705 0
M  V30 403 H 36.8875 3.76419 -1.78038 0
M  V30 404 H 39.4845 5.32124 0.524247 0
M  V30 405 H 39.8275 3.89437 1.4712 0
M  V30 406 H 40.3605 3.97159 -0.225818 0
M  V30 407 H 37.0995 6.13988 -2.29564 0
M  V30 408 H 36.6195 5.96875 -0.591622 0
M  V30 409 H 38.2985 6.39063 -1.01033 0
M  V30 410 N 38.4306 0.297415 1.54768 0
M  V30 411 C 39.7076 -0.365847 1.92148 0
M  V30 412 C 40.0876 -1.71975 1.22424 0
M  V30 413 O 39.4356 -2.25666 0.358739 0
M  V30 414 C 39.6456 -0.484056 3.45627 0
M  V30 415 C 40.9936 -0.756594 4.17805 0
M  V30 416 O 42.0176 -0.568007 3.51642 0
M  V30 417 O 40.8766 -1.11863 5.34929 0
M  V30 418 H 37.9706 -0.203919 0.801465 0
M  V30 419 H 40.5166 0.34521 1.66152 0
M  V30 420 H 39.2886 0.467865 3.88493 0
M  V30 421 H 38.9116 -1.24372 3.77647 0
M  V30 422 N 39.9087 -1.5758 0.0250728 0
M  V30 423 C 41.3197 -1.79476 -0.514323 0
M  V30 424 C 41.6707 -0.934956 -1.72491 0
M  V30 425 O 40.7957 -0.144245 -2.15919 0
M  V30 426 C 41.3907 -3.25503 -0.939842 0
M  V30 427 C 39.9497 -3.48408 -1.42438 0
M  V30 428 C 39.0967 -2.74583 -0.387201 0
M  V30 429 H 42.0477 -1.567 0.25113 0
M  V30 430 H 42.0687 -3.34992 -1.80445 0
M  V30 431 H 41.5807 -3.88056 -0.0585628 0
M  V30 432 H 39.6817 -2.91103 -2.32572 0
M  V30 433 H 39.7947 -4.57119 -1.43455 0
M  V30 434 H 38.1587 -2.39942 -0.854409 0
M  V30 435 H 38.9417 -3.39849 0.485543 0
M  V30 436 N 41.3868 0.248026 -1.55636 0
M  V30 437 C 42.3348 1.32683 -1.91045 0
M  V30 438 C 43.3288 1.49883 -0.789401 0
M  V30 439 O 44.5348 1.51371 -0.974007 0
M  V30 440 H 40.9098 0.444272 -0.606734 0
M  V30 441 H 42.8808 1.00085 -2.81115 0
M  V30 442 C 41.6298 2.6755 -2.22064 0
M  V30 443 H 40.9528 2.55114 -3.07826 0
M  V30 444 H 42.3928 3.41912 -2.50743 0
M  V30 445 C 40.8518 3.20556 -1.0366 0
M  V30 446 O 41.3818 4.00695 -0.284016 0
M  V30 447 N 39.5878 2.78568 -0.82753 0
M  V30 448 H 39.1348 2.1351 -1.44123 0
M  V30 449 H 39.0928 3.14378 -0.0369803 0
M  V30 450 N 42.8649 1.48995 0.513639 0
M  V30 451 C 44.0949 1.61297 1.291 0
M  V30 452 C 44.5029 0.278656 1.87137 0
M  V30 453 O 43.8459 -0.744325 1.67945 0
M  V30 454 C 43.9079 2.61326 2.46879 0
M  V30 455 C 43.5719 4.05993 2.09807 0
M  V30 456 C 44.5689 4.93183 1.64519 0
M  V30 457 C 42.2539 4.51642 2.19829 0
M  V30 458 C 44.2479 6.24056 1.2974 0
M  V30 459 C 41.9349 5.82532 1.84662 0
M  V30 460 C 42.9329 6.68562 1.3969 0
M  V30 461 O 42.6209 7.97014 1.04992 0
M  V30 462 H 42.3529 0.546236 0.39825 0
M  V30 463 H 44.9069 1.95673 0.62459 0
M  V30 464 H 43.1369 2.22104 3.16554 0
M  V30 465 H 44.8259 2.6329 3.08923 0
M  V30 466 H 45.5919 4.59147 1.56233 0
M  V30 467 H 41.4709 3.84855 2.53786 0
M  V30 468 H 45.0149 6.91161 0.945659 0
M  V30 469 H 40.9119 6.16099 1.92594 0
M  V30 470 H 41.6799 8.09913 1.18249 0
M  V30 471 N 44.343 -0.763751 1.37857 0
M  V30 472 C 45.62 -1.51244 1.24035 0
M  V30 473 C 46 -2.10472 -0.162649 0
M  V30 474 O 45.348 -1.96206 -1.17112 0
M  V30 475 C 45.558 -2.58694 2.34261 0
M  V30 476 C 46.906 -3.25878 2.72193 0
M  V30 477 O 47.93 -2.68993 2.33497 0
M  V30 478 O 46.789 -4.2874 3.38887 0
M  V30 479 H 43.883 -0.670243 0.484462 0
M  V30 480 H 46.429 -0.800031 1.49658 0
M  V30 481 H 45.201 -2.13105 3.2818 0
M  V30 482 H 44.824 -3.37527 2.10146 0
M  V30 483 N 45.8211 -1.22559 -0.990812 0
M  V30 484 C 47.0671 -1.05297 -1.73322 0
M  V30 485 C 47.4001 0.410655 -1.89808 0
M  V30 486 O 46.6751 1.30439 -1.44277 0
M  V30 487 C 46.9581 -1.76713 -3.13759 0
M  V30 488 C 46.8111 -3.30684 -3.04907 0
M  V30 489 C 48.1301 -1.52121 -4.12974 0
M  V30 490 H 45.2491 -0.38392 -0.629106 0
M  V30 491 H 47.8911 -1.50926 -1.15418 0
M  V30 492 H 46.0411 -1.37924 -3.63193 0
M  V30 493 H 47.7131 -3.7893 -2.63077 0
M  V30 494 H 45.9561 -3.60253 -2.41661 0
M  V30 495 H 46.6271 -3.75833 -4.04294 0
M  V30 496 H 49.1031 -1.85819 -3.72304 0
M  V30 497 H 47.9791 -2.04582 -5.0935 0
M  V30 498 H 48.2401 -0.454257 -4.3976 0
M  V30 499 N 47.2992 1.18797 -1.03562 0
M  V30 500 C 48.2322 2.2105 -0.56676 0
M  V30 501 C 49.2102 1.57704 0.395993 0
M  V30 502 O 50.3942 1.85908 0.311498 0
M  V30 503 C 47.5212 3.38259 0.172704 0
M  V30 504 C 46.5672 4.19987 -0.74252 0
M  V30 505 S 47.4002 4.87199 -2.22254 0
M  V30 506 C 48.5562 6.07813 -1.49379 0
M  V30 507 H 48.7892 2.60478 -1.43312 0
M  V30 508 H 46.3222 1.29151 -0.846133 0
M  V30 509 H 48.2802 4.06191 0.593191 0
M  V30 510 H 46.9412 2.97252 1.01488 0
M  V30 511 H 46.1342 5.03709 -0.171265 0
M  V30 512 H 45.7362 3.57408 -1.10163 0
M  V30 513 H 48.0282 6.72948 -0.784056 0
M  V30 514 H 48.9712 6.69435 -2.30786 0
M  V30 515 H 49.3792 5.55781 -0.988331 0
M  V30 516 N 48.7773 0.814389 1.34928 0
M  V30 517 C 50.0233 0.408167 1.99263 0
M  V30 518 C 50.3783 -1.0154 1.63424 0
M  V30 519 O 49.6713 -1.69607 0.891289 0
M  V30 520 C 49.8653 0.537781 3.53331 0
M  V30 521 C 49.6943 1.9724 4.04137 0
M  V30 522 C 48.4643 2.60245 4.33129 0
M  V30 523 C 50.6623 2.93801 4.2212 0
M  V30 524 N 48.6443 3.95036 4.69914 0
M  V30 525 C 50.0153 4.1348 4.6199 0
M  V30 526 C 52.0703 2.9053 4.04348 0
M  V30 527 C 50.7733 5.3033 4.85945 0
M  V30 528 C 52.7993 4.06589 4.29464 0
M  V30 529 C 52.1613 5.25017 4.69613 0
M  V30 530 H 48.2603 0.197289 0.756704 0
M  V30 531 H 50.8443 1.05728 1.63492 0
M  V30 532 H 49.0153 -0.0813868 3.88315 0
M  V30 533 H 50.7473 0.105389 4.04563 0
M  V30 534 H 47.5023 2.11545 4.23728 0
M  V30 535 H 47.9263 4.64455 4.92555 0
M  V30 536 H 52.5683 2.00115 3.72443 0
M  V30 537 H 50.2863 6.21309 5.16721 0
M  V30 538 H 53.8723 4.05447 4.17257 0
M  V30 539 H 52.7523 6.1333 4.88667 0
M  V30 540 N 50.2554 -1.46986 0.568584 0
M  V30 541 C 51.6714 -1.57946 0.229189 0
M  V30 542 C 51.8714 -1.56567 -1.26843 0
M  V30 543 O 50.9274 -1.47511 -2.04931 0
M  V30 544 C 52.2404 -2.87963 0.865909 0
M  V30 545 C 53.7884 -3.01568 0.838188 0
M  V30 546 C 54.2634 -4.34301 1.45419 0
M  V30 547 N 55.7544 -4.40965 1.41788 0
M  V30 548 C 56.4894 -5.42256 1.86403 0
M  V30 549 N 55.9854 -6.50297 2.38926 0
M  V30 550 N 57.7784 -5.3337 1.77405 0
M  V30 551 H 49.9294 -1.46126 1.54146 0
M  V30 552 H 52.1924 -0.696156 0.643484 0
M  V30 553 H 51.8984 -2.94742 1.91886 0
M  V30 554 H 51.7724 -3.75423 0.365687 0
M  V30 555 H 54.1594 -2.94379 -0.206106 0
M  V30 556 H 54.2404 -2.1562 1.37629 0
M  V30 557 H 53.8844 -4.42247 2.49761 0
M  V30 558 H 53.8144 -5.19 0.891435 0
M  V30 559 H 56.3054 -3.63484 1.03381 0
M  V30 560 H 56.6184 -7.23777 2.70863 0
M  V30 561 H 54.9634 -6.51155 2.42944 0
M  V30 562 H 58.1544 -4.47865 1.3614 0
M  V30 563 H 58.3274 -6.12169 2.12492 0
M  V30 564 N 51.7335 -0.305618 -1.54608 0
M  V30 565 C 52.9635 0.304333 -2.04346 0
M  V30 566 C 53.3715 1.47715 -1.18224 0
M  V30 567 O 52.7145 1.82591 -0.201577 0
M  V30 568 C 52.7765 0.819031 -3.50046 0
M  V30 569 C 52.4405 -0.22912 -4.56425 0
M  V30 570 C 53.4375 -1.05914 -5.08997 0
M  V30 571 C 51.1225 -0.372148 -5.0092 0
M  V30 572 C 53.1165 -2.01809 -6.04609 0
M  V30 573 C 50.8035 -1.33454 -5.9635 0
M  V30 574 C 51.8015 -2.15599 -6.48079 0
M  V30 575 O 51.4895 -3.10205 -7.41639 0
M  V30 576 H 51.2215 0.0693996 -0.672428 0
M  V30 577 H 53.7755 -0.444548 -2.00532 0
M  V30 578 H 52.0055 1.61852 -3.51199 0
M  V30 579 H 53.6945 1.34537 -3.82955 0
M  V30 580 H 54.4605 -0.959538 -4.75413 0
M  V30 581 H 50.3395 0.257304 -4.60281 0
M  V30 582 H 53.8835 -2.65966 -6.44909 0
M  V30 583 H 49.7805 -1.43485 -6.29351 0
M  V30 584 H 50.5485 -3.05237 -7.59455 0
M  V30 585 N 53.2116 1.57565 -0.0334293 0
M  V30 586 C 54.4576 1.92262 0.645226 0
M  V30 587 C 54.7906 0.910543 1.71531 0
M  V30 588 O 54.0656 -0.066099 1.94388 0
M  V30 589 C 54.3486 3.37422 1.2577 0
M  V30 590 C 54.2016 4.49369 0.196891 0
M  V30 591 C 55.5206 3.82628 2.17449 0
M  V30 592 H 52.6396 0.699171 0.233085 0
M  V30 593 H 55.2816 1.89779 -0.0915694 0
M  V30 594 H 53.4316 3.39669 1.88566 0
M  V30 595 H 55.1036 4.59254 -0.433962 0
M  V30 596 H 53.3466 4.31168 -0.477137 0
M  V30 597 H 54.0176 5.47978 0.665124 0
M  V30 598 H 56.4936 3.82145 1.64634 0
M  V30 599 H 55.3696 4.84883 2.57254 0
M  V30 600 H 55.6306 3.18376 3.0674 0
M  V30 601 N 54.6897 -0.239769 1.55765 0
M  V30 602 C 55.9667 -0.990056 1.68693 0
M  V30 603 C 56.3467 -2.03107 0.5754 0
M  V30 604 O 55.6947 -2.24604 -0.42017 0
M  V30 605 C 55.9047 -1.61696 3.09282 0
M  V30 606 C 57.2527 -2.11613 3.6811 0
M  V30 607 O 58.2767 -1.71624 3.12127 0
M  V30 608 O 57.1357 -2.85057 4.66267 0
M  V30 609 H 54.2297 -0.461299 0.686391 0
M  V30 610 H 56.7757 -0.232991 1.68093 0
M  V30 611 H 55.5477 -0.864357 3.81634 0
M  V30 612 H 55.1707 -2.44005 3.13923 0
M  V30 613 N 56.1678 -1.49265 -0.50573 0
M  V30 614 C 57.1008 -1.60183 -1.62532 0
M  V30 615 C 58.0788 -0.451107 -1.56217 0
M  V30 616 O 59.2628 -0.666016 -1.76342 0
M  V30 617 C 56.3898 -1.55238 -3.01029 0
M  V30 618 C 55.4358 -2.7545 -3.25621 0
M  V30 619 S 56.2688 -4.37174 -3.09256 0
M  V30 620 C 57.4248 -4.34866 -4.50158 0
M  V30 621 H 57.6578 -2.54894 -1.53025 0
M  V30 622 H 55.1908 -1.38098 -0.690535 0
M  V30 623 H 57.1488 -1.53071 -3.80893 0
M  V30 624 H 55.8098 -0.618238 -3.07956 0
M  V30 625 H 55.0028 -2.68197 -4.26716 0
M  V30 626 H 54.6048 -2.75005 -2.53472 0
M  V30 627 H 56.8968 -4.06295 -5.42154 0
M  V30 628 H 57.8398 -5.36223 -4.62462 0
M  V30 629 H 58.2478 -3.65007 -4.30616 0
M  V30 630 N 57.6459 0.756429 -1.3826 0
M  V30 631 C 58.5779 1.87971 -1.31147 0
M  V30 632 C 59.5909 1.61248 -0.224239 0
M  V30 633 O 60.7799 1.71881 -0.481581 0
M  V30 634 C 57.8799 3.23545 -1.00857 0
M  V30 635 C 57.0529 3.77794 -2.20432 0
M  V30 636 C 56.1119 4.91877 -1.86931 0
M  V30 637 O 55.1379 5.06659 -2.59395 0
M  V30 638 N 56.3399 5.74643 -0.822568 0
M  V30 639 H 59.1049 1.94585 -2.2794 0
M  V30 640 H 56.6659 0.936234 -1.32084 0
M  V30 641 H 58.6579 3.97403 -0.765021 0
M  V30 642 H 57.2279 3.12335 -0.128687 0
M  V30 643 H 56.4479 2.95534 -2.6087 0
M  V30 644 H 57.7359 4.10771 -3.00241 0
M  V30 645 H 57.1339 5.65266 -0.221575 0
M  V30 646 H 55.6909 6.48661 -0.638899 0
M  V30 647 N 59.124 1.23083 0.984299 0
M  V30 648 C 60.054 1.03292 2.09411 0
M  V30 649 C 61.035 -0.048923 1.7003 0
M  V30 650 O 62.22 0.114967 1.93859 0
M  V30 651 C 59.35 0.619155 3.41736 0
M  V30 652 C 58.304 1.64791 3.95004 0
M  V30 653 C 57.63 1.0897 5.23478 0
M  V30 654 C 58.93 3.03999 4.24714 0
M  V30 655 H 60.624 1.96119 2.26225 0
M  V30 656 H 58.17 0.944344 1.08711 0
M  V30 657 H 60.123 0.467777 4.18796 0
M  V30 658 H 58.847 -0.344786 3.24775 0
M  V30 659 H 57.506 1.78721 3.20085 0
M  V30 660 H 57.154 0.11686 5.02864 0
M  V30 661 H 56.854 1.77704 5.60085 0
M  V30 662 H 58.378 0.950093 6.03163 0
M  V30 663 H 59.792 2.93393 4.92538 0
M  V30 664 H 58.189 3.69936 4.72512 0
M  V30 665 H 59.259 3.53285 3.32142 0
M  V30 666 N 60.6021 -1.18246 1.0419 0
M  V30 667 C 61.8271 -1.92736 0.765996 0
M  V30 668 C 62.2521 -1.75728 -0.67091 0
M  V30 669 O 61.6101 -1.06825 -1.46486 0
M  V30 670 C 61.6581 -3.42148 1.13875 0
M  V30 671 O 60.7621 -4.11548 0.264954 0
M  V30 672 H 60.1031 -0.601238 0.281797 0
M  V30 673 H 62.6331 -1.49942 1.39207 0
M  V30 674 H 62.6431 -3.92858 1.1012 0
M  V30 675 H 61.3181 -3.53848 2.18551 0
M  V30 676 H 59.8951 -3.71137 0.362226 0
M  V30 677 N 62.0802 -0.821533 -1.34494 0
M  V30 678 C 63.0282 -0.230702 -2.31453 0
M  V30 679 C 64.0222 0.627793 -1.57338 0
M  V30 680 O 65.2282 0.519288 -1.72347 0
M  V30 681 H 61.6032 -0.0558577 -0.749923 0
M  V30 682 H 63.5742 -1.06332 -2.78812 0
M  V30 683 C 62.3232 0.59391 -3.4259 0
M  V30 684 H 61.6462 -0.0573588 -3.99759 0
M  V30 685 H 63.0862 0.973446 -4.12674 0
M  V30 686 C 61.5452 1.76568 -2.86924 0
M  V30 687 O 62.0752 2.8638 -2.81691 0
M  V30 688 N 60.2812 1.58198 -2.43766 0
M  V30 689 H 59.8282 0.68872 -2.48222 0
M  V30 690 H 59.7862 2.36752 -2.06871 0
M  V30 691 N 63.5583 1.46682 -0.576371 0
M  V30 692 C 64.9743 1.57822 -0.237562 0
M  V30 693 C 65.1743 1.57237 1.26011 0
M  V30 694 O 64.2303 1.48596 2.04146 0
M  V30 695 C 65.5433 2.87499 -0.881168 0
M  V30 696 C 67.0913 3.01119 -0.85417 0
M  V30 697 C 67.5663 4.33524 -1.4772 0
M  V30 698 N 69.0573 4.40207 -1.44125 0
M  V30 699 C 69.7923 5.4126 -1.89276 0
M  V30 700 N 69.2883 6.49021 -2.42371 0
M  V30 701 N 71.0813 5.32422 -1.80231 0
M  V30 702 H 63.2323 1.45306 -1.54919 0
M  V30 703 H 65.4953 0.692733 -0.647167 0
M  V30 704 H 65.2013 2.9372 -1.93447 0
M  V30 705 H 65.0753 3.75224 -0.385592 0
M  V30 706 H 67.4623 2.94485 0.190491 0
M  V30 707 H 67.5433 2.14887 -1.3877 0
M  V30 708 H 67.1873 4.40916 -2.52103 0
M  V30 709 H 67.1173 5.1852 -0.918947 0
M  V30 710 H 69.6083 3.62931 -1.05307 0
M  V30 711 H 69.9213 7.2233 -2.74698 0
M  V30 712 H 68.2663 6.49858 -2.46393 0
M  V30 713 H 71.4573 4.47137 -1.38514 0
M  V30 714 H 71.6303 6.11034 -2.15735 0
M  V30 715 N 65.0364 0.313813 1.54444 0
M  V30 716 C 66.4524 -0.0391619 1.59552 0
M  V30 717 C 66.6524 -1.51322 1.33056 0
M  V30 718 O 65.7084 -2.26782 1.11022 0
M  V30 719 C 67.0214 0.370302 2.98411 0
M  V30 720 C 68.5694 0.320139 3.11358 0
M  V30 721 C 69.0444 0.704617 4.52547 0
M  V30 722 N 70.5354 0.657645 4.58508 0
M  V30 723 C 71.2704 0.927453 5.6585 0
M  V30 724 N 70.7664 1.26389 6.81174 0
M  V30 725 N 72.5594 0.853662 5.5558 0
M  V30 726 H 64.7104 1.27433 1.69925 0
M  V30 727 H 66.9734 0.517511 0.794284 0
M  V30 728 H 66.6794 1.39694 3.22767 0
M  V30 729 H 66.5534 -0.269619 3.76235 0
M  V30 730 H 68.9404 -0.697275 2.86744 0
M  V30 731 H 69.0214 0.99486 2.35661 0
M  V30 732 H 68.6654 1.7199 4.77893 0
M  V30 733 H 68.5954 0.00768843 5.26599 0
M  V30 734 H 71.0864 0.409067 3.75679 0
M  V30 735 H 71.3994 1.4554 7.58972 0
M  V30 736 H 69.7444 1.30206 6.82694 0
M  V30 737 H 72.9354 0.590383 4.64362 0
M  V30 738 H 73.1084 1.0673 6.3915 0
M  V30 739 N 66.5145 -1.57545 0.0417849 0
M  V30 740 C 67.4775 -2.09885 -0.92093 0
M  V30 741 C 68.4775 -1.01648 -1.24596 0
M  V30 742 O 69.6675 -1.27759 -1.1842 0
M  V30 743 C 66.7995 -2.57527 -2.23367 0
M  V30 744 H 67.9925 -2.96236 -0.467382 0
M  V30 745 H 65.5455 -1.5493 -0.206467 0
M  V30 746 H 66.2805 -1.74542 -2.73323 0
M  V30 747 H 66.0655 -3.36613 -2.01083 0
M  V30 748 H 67.5555 -2.98201 -2.92346 0
M  V30 749 N 67.9926 0.231505 -1.5589 0
M  V30 750 C 69.2406 0.955461 -1.78088 0
M  V30 751 C 69.5616 1.85262 -0.608533 0
M  V30 752 O 68.8316 1.92277 0.375035 0
M  V30 753 H 67.4116 0.355787 -0.656829 0
M  V30 754 H 70.0736 0.245751 -1.93344 0
M  V30 755 H 69.1696 1.56814 -2.69844 0
M  V30 756 N 69.4707 1.49531 0.497807 0
M  V30 757 C 70.6987 1.62893 1.27567 0
M  V30 758 C 71.1137 0.301585 1.86376 0
M  V30 759 O 70.4707 -0.713335 1.67982 0
M  V30 760 C 70.5217 2.70013 2.40364 0
M  V30 761 O 70.2427 3.976 1.83972 0
M  V30 762 C 71.7437 2.94109 3.31685 0
M  V30 763 H 68.9637 0.548298 0.386794 0
M  V30 764 H 71.5077 1.95584 0.597245 0
M  V30 765 H 69.6627 2.40092 3.04031 0
M  V30 766 H 70.0767 4.56631 2.58047 0
M  V30 767 H 71.5507 3.72788 4.07104 0
M  V30 768 H 72.0277 2.04147 3.88871 0
M  V30 769 H 72.6337 3.2546 2.73781 0
M  V30 770 N 70.9488 -0.749086 1.3866 0
M  V30 771 C 71.9118 -1.84457 1.36045 0
M  V30 772 C 72.9118 -1.58682 0.260122 0
M  V30 773 O 74.1018 -1.66343 0.517261 0
M  V30 774 C 71.2338 -3.22008 1.11911 0
M  V30 775 H 72.4268 -1.88182 2.33512 0
M  V30 776 H 69.9798 -0.951266 1.24019 0
M  V30 777 H 70.7148 -3.2395 0.150686 0
M  V30 778 H 70.4998 -3.42111 1.91579 0
M  V30 779 H 71.9898 -4.0208 1.12788 0
M  V30 780 N 72.4269 -1.23603 -0.977757 0
M  V30 781 C 73.6519 -1.09735 -1.75991 0
M  V30 782 C 74.0769 0.346858 -1.84874 0
M  V30 783 O 73.4349 1.25093 -1.3123 0
M  V30 784 C 73.4829 -1.73051 -3.16363 0
M  V30 785 O 72.5869 -0.994452 -4.0023 0
M  V30 786 H 71.9279 -0.384476 -0.541364 0
M  V30 787 H 74.4579 -1.6371 -1.2272 0
M  V30 788 H 74.4679 -1.78398 -3.66931 0
M  V30 789 H 73.1429 -2.78137 -3.09213 0
M  V30 790 H 71.7199 -1.01812 -3.58732 0
M  V30 791 N 73.905 1.17692 -1.04816 0
M  V30 792 C 75.133 1.91786 -0.776254 0
M  V30 793 C 75.548 1.76604 0.667577 0
M  V30 794 O 74.905 1.10067 1.45573 0
M  V30 795 C 74.956 3.42967 -1.14263 0
M  V30 796 O 74.677 3.57678 -2.52978 0
M  V30 797 C 76.178 4.34144 -0.896311 0
M  V30 798 H 73.398 0.608624 -0.282519 0
M  V30 799 H 75.942 1.49268 -1.39783 0
M  V30 800 H 74.097 3.83245 -0.565874 0
M  V30 801 H 74.511 4.51319 -2.67229 0
M  V30 802 H 75.985 5.38744 -1.20244 0
M  V30 803 H 76.462 4.38876 0.168636 0
M  V30 804 H 77.068 3.99574 -1.45672 0
M  V30 805 N 75.3831 0.828654 1.34056 0
M  V30 806 C 76.3301 0.252567 2.29414 0
M  V30 807 C 77.3001 -0.62588 1.53857 0
M  V30 808 O 78.4851 -0.566312 1.82202 0
M  V30 809 C 75.6251 -0.574831 3.40279 0
M  V30 810 C 74.7381 0.326499 4.30764 0
M  V30 811 C 73.8731 -0.511016 5.28736 0
M  V30 812 C 72.9121 0.389342 6.1086 0
M  V30 813 N 72.0491 -0.409439 7.00905 0
M  V30 814 H 76.8891 1.07108 2.78086 0
M  V30 815 H 74.4261 0.539677 1.36843 0
M  V30 816 H 76.3841 -1.06992 4.03248 0
M  V30 817 H 75.0141 -1.35841 2.92826 0
M  V30 818 H 74.0661 0.939837 3.68607 0
M  V30 819 H 75.3781 1.01857 4.88289 0
M  V30 820 H 74.5321 -1.07035 5.97184 0
M  V30 821 H 73.2711 -1.23657 4.71763 0
M  V30 822 H 72.2761 0.960769 5.4134 0
M  V30 823 H 73.5011 1.1131 6.69916 0
M  V30 824 H 71.4471 -1.11856 6.46393 0
M  V30 825 H 71.3641 0.224126 7.55668 0
M  V30 826 H 72.6321 -0.951336 7.73673 0
M  V30 827 N 76.8612 -1.46375 0.584142 0
M  V30 828 C 78.0892 -2.06761 0.0759296 0
M  V30 829 C 78.5042 -1.43266 -1.22965 0
M  V30 830 O 77.8612 -0.538458 -1.74376 0
M  V30 831 C 77.9122 -3.61375 -0.0950384 0
M  V30 832 O 77.6332 -4.22495 1.15887 0
M  V30 833 C 79.1342 -4.38693 -0.637434 0
M  V30 834 H 76.3542 -0.668479 0.0581075 0
M  V30 835 H 78.8982 -1.8798 0.805218 0
M  V30 836 H 77.0532 -3.79578 -0.774554 0
M  V30 837 H 77.4672 -5.15385 0.973598 0
M  V30 838 H 78.9412 -5.47464 -0.706237 0
M  V30 839 H 79.4182 -4.06836 -1.65472 0
M  V30 840 H 80.0242 -4.25299 0.00725967 0
M  V30 841 N 78.3393 -0.321999 -1.54275 0
M  V30 842 C 79.7553 0.0306999 -1.5957 0
M  V30 843 C 79.9553 1.50614 -1.33857 0
M  V30 844 O 79.0113 2.2619 -1.12223 0
M  V30 845 C 80.3243 -0.386122 -2.98211 0
M  V30 846 C 81.8723 -0.336647 -3.11184 0
M  V30 847 C 82.3473 -0.728607 -4.52167 0
M  V30 848 N 83.8383 -0.681952 -4.58152 0
M  V30 849 C 84.5733 -0.957449 -5.6535 0
M  V30 850 N 84.0693 -1.3 -6.80494 0
M  V30 851 N 85.8623 -0.883113 -5.55119 0
M  V30 852 H 78.0133 -1.28332 -1.69247 0
M  V30 853 H 80.2763 -0.521716 -0.791528 0
M  V30 854 H 79.9823 -1.41404 -3.22022 0
M  V30 855 H 79.8563 0.249662 -3.76373 0
M  V30 856 H 82.2433 0.682058 -2.8711 0
M  V30 857 H 82.3243 -1.00734 -2.3513 0
M  V30 858 H 81.9683 -1.74522 -4.76974 0
M  V30 859 H 81.8983 -0.0356152 -5.26588 0
M  V30 860 H 84.3893 -0.428985 -3.75457 0
M  V30 861 H 84.7023 -1.49563 -7.58189 0
M  V30 862 H 83.0473 -1.33824 -6.81994 0
M  V30 863 H 86.2383 -0.615001 -4.64042 0
M  V30 864 H 86.4113 -1.10118 -6.38575 0
M  V30 865 N 79.8174 1.5752 -0.0501392 0
M  V30 866 C 81.0654 1.9227 0.622642 0
M  V30 867 C 81.3864 0.929083 1.71444 0
M  V30 868 O 80.6564 -0.0262186 1.95882 0
M  V30 869 H 79.2364 0.709739 0.232981 0
M  V30 870 H 81.8984 1.94628 -0.102898 0
M  V30 871 H 80.9944 2.93479 1.06191 0
M  V30 872 N 81.2955 -0.223234 1.56011 0
M  V30 873 C 82.2055 -1.29766 1.95443 0
M  V30 874 C 83.2215 -1.51373 0.858028 0
M  V30 875 O 84.3975 -1.64536 1.16146 0
M  V30 876 C 81.4625 -2.62772 2.26167 0
M  V30 877 C 80.5235 -2.49482 3.49367 0
M  V30 878 C 79.7565 -3.76145 3.78616 0
M  V30 879 O 79.9795 -4.79087 3.09568 0
M  V30 880 O 78.9135 -3.73358 4.72109 0
M  V30 881 H 82.7395 -0.99309 2.87004 0
M  V30 882 H 80.3245 -0.425958 1.43199 0
M  V30 883 H 82.2065 -3.41327 2.47131 0
M  V30 884 H 80.8815 -2.92913 1.37781 0
M  V30 885 H 79.7885 -1.69133 3.33684 0
M  V30 886 H 81.1215 -2.2428 4.38131 0
M  V30 887 N 82.7736 -1.49793 -0.48987 0
M  V30 888 C 84.0196 -1.60078 -1.24511 0
M  V30 889 C 84.3526 -0.291608 -1.91998 0
M  V30 890 O 83.6276 0.705647 -1.81248 0
M  V30 891 C 83.9106 -2.76791 -2.30345 0
M  V30 892 C 83.7636 -4.17535 -1.67286 0
M  V30 893 C 85.0826 -2.89111 -3.31817 0
M  V30 894 H 82.2016 -0.582645 -0.451324 0
M  V30 895 H 84.8436 -1.82117 -0.541612 0
M  V30 896 H 82.9936 -2.5813 -2.90346 0
M  V30 897 H 84.6656 -4.4774 -1.11026 0
M  V30 898 H 82.9086 -4.22665 -0.976577 0
M  V30 899 H 83.5796 -4.95094 -2.44103 0
M  V30 900 H 86.0556 -3.06133 -2.81819 0
M  V30 901 H 84.9316 -3.72433 -4.03219 0
M  V30 902 H 85.1926 -1.9893 -3.94815 0
M  V30 903 N 84.2517 0.741722 -1.39055 0
M  V30 904 C 85.4767 1.53607 -1.39354 0
M  V30 905 C 85.9017 1.88096 0.0116905 0
M  V30 906 O 85.2597 1.5143 0.996924 0
M  V30 907 C 85.3077 2.80441 -2.26682 0
M  V30 908 O 84.4117 3.76088 -1.69208 0
M  V30 909 H 83.7527 0.464142 -0.474835 0
M  V30 910 H 86.2827 0.915665 -1.82967 0
M  V30 911 H 86.2927 3.29246 -2.40959 0
M  V30 912 H 84.9677 2.5467 -3.2881 0
M  V30 913 H 83.5447 3.34833 -1.64138 0
M  V30 914 N 85.7298 1.2412 0.971189 0
M  V30 915 C 86.9778 1.07668 1.71032 0
M  V30 916 C 87.2988 -0.385797 1.91146 0
M  V30 917 O 86.5688 -1.27569 1.4867 0
M  V30 918 H 85.1488 0.395429 0.633755 0
M  V30 919 H 87.8108 1.55984 1.16855 0
M  V30 920 H 86.9068 1.57195 2.69622 0
M  V30 921 N 87.2079 -1.17134 1.05439 0
M  V30 922 C 88.4559 -1.87085 0.764429 0
M  V30 923 C 88.7769 -1.81584 -0.710787 0
M  V30 924 O 88.0469 -1.24349 -1.51374 0
M  V30 925 H 86.6269 -0.692627 0.279779 0
M  V30 926 H 89.2889 -1.42087 1.33406 0
M  V30 927 H 88.3849 -2.92759 1.0816 0
M  V30 928 N 88.686 -0.835752 -1.33615 0
M  V30 929 C 89.934 -0.429109 -1.97492 0
M  V30 930 C 90.255 1.01433 -1.66543 0
M  V30 931 O 89.525 1.70611 -0.962744 0
M  V30 932 H 88.105 -0.155686 -0.730596 0
M  V30 933 H 90.767 -1.06802 -1.63031 0
M  V30 934 H 89.863 -0.55861 -3.0706 0
M  V30 935 N 90.1641 1.46063 -0.591896 0
M  V30 936 C 91.5801 1.57561 -0.254288 0
M  V30 937 C 91.7801 1.58565 1.24336 0
M  V30 938 O 90.8361 1.50753 2.02558 0
M  V30 939 C 92.1491 2.86549 -0.911611 0
M  V30 940 C 93.6971 3.00197 -0.886059 0
M  V30 941 C 94.1721 4.31933 -1.5231 0
M  V30 942 N 95.6631 4.38654 -1.48786 0
M  V30 943 C 96.3981 5.39222 -1.95006 0
M  V30 944 N 95.8941 6.46414 -2.49241 0
M  V30 945 N 97.6871 5.3048 -1.85868 0
M  V30 946 H 89.8381 1.43655 -1.56451 0
M  V30 947 H 92.1011 0.68583 -0.654478 0
M  V30 948 H 91.8071 2.91651 -1.96551 0
M  V30 949 H 91.6811 3.74794 -0.425368 0
M  V30 950 H 94.0681 2.9467 0.159246 0
M  V30 951 H 94.1491 2.13403 -1.41041 0
M  V30 952 H 93.7931 4.38217 -2.56765 0
M  V30 953 H 93.7231 5.17516 -0.973891 0
M  V30 954 H 96.2141 3.61793 -1.09151 0
M  V30 955 H 96.5271 7.19376 -2.82344 0
M  V30 956 H 94.8721 6.47208 -2.53272 0
M  V30 957 H 98.0631 4.45643 -1.43248 0
M  V30 958 H 98.2361 6.08711 -2.22204 0
M  V30 959 N 91.6422 0.330177 1.54103 0
M  V30 960 C 92.5892 -0.532762 2.24567 0
M  V30 961 C 93.5592 -1.10635 1.23892 0
M  V30 962 O 94.7442 -1.14546 1.5259 0
M  V30 963 C 91.8842 -1.6845 3.01195 0
M  V30 964 C 90.9972 -1.13951 4.167 0
M  V30 965 C 90.1322 -2.25746 4.80845 0
M  V30 966 C 89.1712 -1.6853 5.88442 0
M  V30 967 N 88.3082 -2.74014 6.46421 0
M  V30 968 H 93.1482 0.0746905 2.97906 0
M  V30 969 H 90.6852 0.048632 1.4702 0
M  V30 970 H 92.6432 -2.36234 3.43874 0
M  V30 971 H 91.2732 -2.26314 2.30178 0
M  V30 972 H 90.3252 -0.35301 3.78758 0
M  V30 973 H 91.6372 -0.680892 4.94131 0
M  V30 974 H 90.7912 -3.01422 5.26526 0
M  V30 975 H 89.5302 -2.74947 4.0281 0
M  V30 976 H 88.5352 -0.913543 5.42157 0
M  V30 977 H 89.7602 -1.20198 6.68378 0
M  V30 978 H 87.7062 -3.22494 5.71256 0
M  V30 979 H 87.6232 -2.32735 7.19285 0
M  V30 980 H 88.8912 -3.49499 6.96757 0
M  V30 981 N 93.1203 -1.57491 0.0584922 0
M  V30 982 C 94.5313 -1.80526 -0.476138 0
M  V30 983 C 94.8823 -0.971334 -1.70469 0
M  V30 984 O 94.0073 -0.190012 -2.15564 0
M  V30 985 C 94.6023 -3.27424 -0.870587 0
M  V30 986 C 93.1613 -3.51351 -1.35015 0
M  V30 987 C 92.3083 -2.75343 -0.32887 0
M  V30 988 H 95.2593 -1.56133 0.284312 0
M  V30 989 H 95.2803 -3.38745 -1.73299 0
M  V30 990 H 94.7923 -3.88093 0.0237627 0
M  V30 991 H 92.8933 -2.95971 -2.26345 0
M  V30 992 H 93.0063 -4.60059 -1.33726 0
M  V30 993 H 91.3703 -2.417 -0.803321 0
M  V30 994 H 92.1533 -3.38743 0.557521 0
M  V30 995 N 94.5984 0.214957 -1.56127 0
M  V30 996 C 95.8444 0.935325 -1.80619 0
M  V30 997 C 96.1994 1.81706 -0.632507 0
M  V30 998 O 95.4924 1.87931 0.373182 0
M  V30 999 C 95.6864 1.80314 -3.0858 0
M  V30 1000 C 95.5154 1.00691 -4.38282 0
M  V30 1001 C 94.2854 0.699211 -5.00439 0
M  V30 1002 C 96.4834 0.369057 -5.12974 0
M  V30 1003 N 94.4654 -0.117734 -6.13787 0
M  V30 1004 C 95.8364 -0.310981 -6.1922 0
M  V30 1005 C 97.8914 0.282759 -4.97096 0
M  V30 1006 C 96.5944 -1.06907 -7.11311 0
M  V30 1007 C 98.6204 -0.461881 -5.89594 0
M  V30 1008 C 97.9824 -1.13044 -6.9527 0
M  V30 1009 H 94.0814 0.322307 -0.71249 0
M  V30 1010 H 96.6654 0.205649 -1.93611 0
M  V30 1011 H 94.8364 2.50458 -2.96859 0
M  V30 1012 H 96.5684 2.46148 -3.21237 0
M  V30 1013 H 93.3234 1.01884 -4.62511 0
M  V30 1014 H 93.7474 -0.515235 -6.75037 0
M  V30 1015 H 98.3894 0.785292 -4.15443 0
M  V30 1016 H 96.1074 -1.5831 -7.92442 0
M  V30 1017 H 99.6934 -0.529746 -5.79383 0
M  V30 1018 H 98.5734 -1.69742 -7.65609 0
M  V30 1019 N 96.0765 1.50051 0.48192 0
M  V30 1020 C 97.4875 1.5348 1.06305 0
M  V30 1021 C 97.8385 0.331997 1.93371 0
M  V30 1022 O 96.9635 -0.556256 2.09129 0
M  V30 1023 C 97.5585 2.7813 1.93466 0
M  V30 1024 C 96.1175 2.84275 2.46707 0
M  V30 1025 C 95.2645 2.47637 1.24785 0
M  V30 1026 H 98.2155 1.56472 0.264995 0
M  V30 1027 H 98.2365 2.59372 2.78399 0
M  V30 1028 H 97.7485 3.65654 1.30072 0
M  V30 1029 H 95.8495 2.01077 3.13686 0
M  V30 1030 H 95.9625 3.8691 2.82555 0
M  V30 1031 H 94.3265 1.99835 1.57918 0
M  V30 1032 H 95.1095 3.37457 0.630694 0
M  V30 1033 N 97.5546 -0.734337 1.39446 0
M  V30 1034 C 98.4866 -1.85861 1.34121 0
M  V30 1035 C 99.4996 -1.60871 0.249864 0
M  V30 1036 O 100.689 -1.71093 0.508865 0
M  V30 1037 C 97.7886 -3.21899 1.05991 0
M  V30 1038 C 96.9616 -3.74239 2.26415 0
M  V30 1039 C 96.0206 -4.88841 1.94733 0
M  V30 1040 O 95.0466 -5.02468 2.67422 0
M  V30 1041 N 96.2486 -5.73261 0.913884 0
M  V30 1042 H 99.0136 -1.90934 2.31007 0
M  V30 1043 H 96.5746 -0.915102 1.33557 0
M  V30 1044 H 98.5666 -3.96136 0.828147 0
M  V30 1045 H 97.1366 -3.12091 0.178361 0
M  V30 1046 H 96.3566 -2.91347 2.65539 0
M  V30 1047 H 97.6446 -4.05942 3.06738 0
M  V30 1048 H 97.0426 -5.64842 0.311476 0
M  V30 1049 H 95.5996 -6.47563 0.742015 0
M  V30 1050 N 99.0327 -1.24633 -0.964593 0
M  V30 1051 C 99.9797 -1.04144 -2.05968 0
M  V30 1052 C 100.95 0.046262 -1.66036 0
M  V30 1053 O 102.135 -0.108972 -1.90489 0
M  V30 1054 C 99.2747 -0.65563 -3.38815 0
M  V30 1055 C 98.3877 -1.81714 -3.91923 0
M  V30 1056 C 97.5227 -1.37662 -5.13052 0
M  V30 1057 C 96.5617 -2.50788 -5.58365 0
M  V30 1058 N 95.6987 -2.07582 -6.70712 0
M  V30 1059 H 100.539 -1.9787 -2.22827 0
M  V30 1060 H 98.0757 -0.9855 -1.09208 0
M  V30 1061 H 100.034 -0.412954 -4.15151 0
M  V30 1062 H 98.6637 0.244627 -3.21872 0
M  V30 1063 H 97.7157 -2.1734 -3.12198 0
M  V30 1064 H 99.0277 -2.66705 -4.21509 0
M  V30 1065 H 98.1817 -1.093 -5.96773 0
M  V30 1066 H 96.9207 -0.497293 -4.85158 0
M  V30 1067 H 95.9257 -2.79906 -4.73215 0
M  V30 1068 H 97.1507 -3.39283 -5.88272 0
M  V30 1069 H 95.0967 -1.22051 -6.44546 0
M  V30 1070 H 95.0137 -2.86125 -6.99763 0
M  V30 1071 H 96.2817 -1.82369 -7.57867 0
M  V30 1072 N 100.511 1.16574 -1.06058 0
M  V30 1073 C 101.461 2.18854 -0.63929 0
M  V30 1074 C 102.445 1.57505 0.328798 0
M  V30 1075 O 103.637 1.76408 0.144623 0
M  V30 1076 C 100.766 3.43291 -0.0247203 0
M  V30 1077 C 99.8518 4.11722 -1.01716 0
M  V30 1078 N 100.243 4.55841 -2.19186 0
M  V30 1079 C 98.5408 4.37872 -0.847569 0
M  V30 1080 C 99.2418 5.08751 -2.82042 0
M  V30 1081 N 98.2178 5.01489 -2.09784 0
M  V30 1082 H 102.02 2.5068 -1.53417 0
M  V30 1083 H 99.5338 1.32999 -0.931935 0
M  V30 1084 H 101.531 4.15856 0.294915 0
M  V30 1085 H 100.191 3.12954 0.865448 0
M  V30 1086 H 101.202 4.49649 -2.56975 0
M  V30 1087 H 97.8788 4.17499 -0.00918848 0
M  V30 1088 H 99.2688 5.52944 -3.81709 0
M  V30 1089 N 101.989 0.842826 1.3317 0
M  V30 1090 C 103.217 0.454055 2.01856 0
M  V30 1091 C 103.632 -0.94587 1.63397 0
M  V30 1092 O 102.989 -1.61534 0.849302 0
M  V30 1093 C 103.04 0.569715 3.56982 0
M  V30 1094 O 102.761 1.91448 3.94055 0
M  V30 1095 C 104.262 0.178412 4.42941 0
M  V30 1096 H 101.482 0.17979 0.646465 0
M  V30 1097 H 104.026 1.1365 1.70012 0
M  V30 1098 H 102.181 -0.0648587 3.87346 0
M  V30 1099 H 102.595 1.90282 4.88767 0
M  V30 1100 H 104.069 0.310376 5.51127 0
M  V30 1101 H 104.546 -0.880056 4.30293 0
M  V30 1102 H 105.152 0.787579 4.17944 0
M  V30 1103 N 103.467 -1.45747 0.599634 0
M  V30 1104 C 104.715 -2.01893 0.0915472 0
M  V30 1105 C 105.036 -1.47155 -1.27946 0
M  V30 1106 O 104.306 -0.66273 -1.84349 0
M  V30 1107 H 102.886 -0.746363 0.0308524 0
M  V30 1108 H 105.548 -1.78645 0.779237 0
M  V30 1109 H 104.644 -3.1208 0.0353086 0
M  V30 1110 N 104.945 -0.338344 -1.53925 0
M  V30 1111 C 106.361 0.0137736 -1.59594 0
M  V30 1112 C 106.561 1.49186 -1.35447 0
M  V30 1113 O 105.617 2.24987 -1.14616 0
M  V30 1114 C 106.93 -0.41773 -2.97784 0
M  V30 1115 C 108.478 -0.369633 -3.1081 0
M  V30 1116 C 108.953 -0.776524 -4.51369 0
M  V30 1117 N 110.444 -0.730506 -4.57403 0
M  V30 1118 C 111.179 -1.01736 -5.64303 0
M  V30 1119 N 110.675 -1.3721 -6.79077 0
M  V30 1120 N 112.468 -0.941942 -5.54151 0
M  V30 1121 H 104.619 -1.3012 -1.67876 0
M  V30 1122 H 106.882 -0.530082 -0.78595 0
M  V30 1123 H 106.588 -1.44811 -3.20504 0
M  V30 1124 H 106.462 0.209729 -3.76616 0
M  V30 1125 H 108.849 0.651568 -2.87817 0
M  V30 1126 H 108.93 -1.03223 -2.34049 0
M  V30 1127 H 108.574 -1.79571 -4.75096 0
M  V30 1128 H 108.504 -0.0914649 -5.26521 0
M  V30 1129 H 110.995 -0.468783 -3.74981 0
M  V30 1130 H 111.308 -1.57597 -7.5656 0
M  V30 1131 H 109.653 -1.4105 -6.80536 0
M  V30 1132 H 112.844 -0.664184 -4.63364 0
M  V30 1133 H 113.017 -1.16884 -6.37371 0
M  V30 1134 N 106.423 1.57458 -0.0668435 0
M  V30 1135 C 107.386 2.11323 0.887422 0
M  V30 1136 C 108.386 1.03618 1.22964 0
M  V30 1137 O 109.576 1.29626 1.16373 0
M  V30 1138 C 106.708 2.61048 2.19242 0
M  V30 1139 H 107.901 2.96942 0.420194 0
M  V30 1140 H 105.454 1.55239 0.181793 0
M  V30 1141 H 106.189 1.78868 2.70512 0
M  V30 1142 H 105.974 3.39769 1.95702 0
M  V30 1143 H 107.464 3.02814 2.87565 0
M  V30 1144 N 107.901 -0.206675 1.56239 0
M  V30 1145 C 109.317 -0.557025 1.49564 0
M  V30 1146 C 109.517 -1.86424 0.764735 0
M  V30 1147 O 108.573 -2.50584 0.310491 0
M  V30 1148 C 109.886 -0.622478 2.94186 0
M  V30 1149 C 111.434 -0.712099 3.04792 0
M  V30 1150 C 111.909 -0.808767 4.50803 0
M  V30 1151 N 113.4 -0.8726 4.54907 0
M  V30 1152 C 114.135 -0.967365 5.65181 0
M  V30 1153 N 113.631 -1.02515 6.85173 0
M  V30 1154 N 115.424 -1.00366 5.53067 0
M  V30 1155 H 107.575 0.650943 2.02179 0
M  V30 1156 H 109.838 0.230387 0.919579 0
M  V30 1157 H 109.544 0.268727 3.50672 0
M  V30 1158 H 109.418 -1.4811 3.46905 0
M  V30 1159 H 111.805 -1.59374 2.48363 0
M  V30 1160 H 111.886 0.172489 2.55218 0
M  V30 1161 H 111.53 0.0684754 5.07854 0
M  V30 1162 H 111.46 -1.70899 4.98098 0
M  V30 1163 H 113.951 -0.837657 3.68499 0
M  V30 1164 H 114.264 -1.09765 7.64965 0
M  V30 1165 H 112.609 -0.994026 6.87855 0
M  V30 1166 H 115.8 -0.95527 4.58249 0
M  V30 1167 H 115.973 -1.07405 6.39037 0
M  V30 1168 N 109.379 -1.50304 -0.473955 0
M  V30 1169 C 110.329 -1.65347 -1.56985 0
M  V30 1170 C 111.313 -0.508176 -1.52664 0
M  V30 1171 O 112.505 -0.762446 -1.59737 0
M  V30 1172 C 109.634 -1.74832 -2.95447 0
M  V30 1173 C 108.72 -2.95028 -3.04662 0
M  V30 1174 N 109.111 -4.18747 -2.83698 0
M  V30 1175 C 107.409 -2.93527 -3.35795 0
M  V30 1176 C 108.11 -4.99687 -2.97805 0
M  V30 1177 N 107.086 -4.33585 -3.2788 0
M  V30 1178 H 110.888 -2.58698 -1.39472 0
M  V30 1179 H 108.402 -1.47449 -0.680629 0
M  V30 1180 H 110.399 -1.83712 -3.7424 0
M  V30 1181 H 109.059 -0.826376 -3.14008 0
M  V30 1182 H 110.07 -4.48291 -2.59337 0
M  V30 1183 H 106.747 -2.10821 -3.60362 0
M  V30 1184 H 108.137 -6.08057 -2.85861 0
M  V30 1185 N 110.857 0.726932 -1.39834 0
M  V30 1186 C 112.105 1.4837 -1.37225 0
M  V30 1187 C 112.426 1.94979 0.0284857 0
M  V30 1188 O 111.696 1.69555 0.981213 0
M  V30 1189 H 110.276 0.55043 -0.505011 0
M  V30 1190 H 112.938 0.862468 -1.74778 0
M  V30 1191 H 112.034 2.36198 -2.04003 0
M  V30 1192 N 112.336 1.25143 0.95797 0
M  V30 1193 C 113.561 1.12521 1.74223 0
M  V30 1194 C 113.986 -0.317402 1.85403 0
M  V30 1195 O 113.344 -1.2299 1.33204 0
M  V30 1196 C 113.392 1.78062 3.1357 0
M  V30 1197 O 112.496 1.058 3.98598 0
M  V30 1198 H 111.837 0.39304 0.535178 0
M  V30 1199 H 114.367 1.65641 1.201 0
M  V30 1200 H 114.377 1.84213 3.64046 0
M  V30 1201 H 113.052 2.83021 3.04749 0
M  V30 1202 H 111.629 1.07506 3.57067 0
M  V30 1203 N 113.814 -1.1601 1.06675 0
M  V30 1204 C 115.063 -1.85973 0.780818 0
M  V30 1205 C 115.376 -1.82819 -0.695444 0
M  V30 1206 O 116.582 -2.484 -1.09589 0
M  V30 1207 C 115.038 -3.33757 1.34665 0
M  V30 1208 C 114.646 -3.45374 2.85343 0
M  V30 1209 C 116.39 -4.0895 1.13843 0
M  V30 1210 C 114.297 -4.87266 3.35151 0
M  V30 1211 H 113.227 -0.696661 0.288407 0
M  V30 1212 H 115.878 -1.30903 1.28595 0
M  V30 1213 H 114.26 -3.88456 0.769274 0
M  V30 1214 H 115.434 -3.00816 3.49065 0
M  V30 1215 H 113.749 -2.83619 3.04876 0
M  V30 1216 H 116.346 -5.13654 1.4854 0
M  V30 1217 H 116.689 -4.16229 0.0770282 0
M  V30 1218 H 117.222 -3.605 1.68179 0
M  V30 1219 H 113.961 -4.85168 4.40786 0
M  V30 1220 H 113.481 -5.32433 2.76179 0
M  V30 1221 H 115.16 -5.56097 3.30704 0
M  V30 1222 N 115.292 -0.849877 -1.32721 0
M  V30 1223 C 116.708 -0.539102 -1.50219 0
M  V30 1224 C 116.908 0.931271 -1.78689 0
M  V30 1225 O 115.964 1.71455 -1.85363 0
M  V30 1226 C 117.277 -1.42196 -2.64954 0
M  V30 1227 C 118.825 -1.42189 -2.78839 0
M  V30 1228 C 119.3 -2.28985 -3.96648 0
M  V30 1229 N 120.791 -2.26754 -4.03902 0
M  V30 1230 C 121.526 -2.90644 -4.94281 0
M  V30 1231 N 121.022 -3.63629 -5.897 0
M  V30 1232 N 122.815 -2.80057 -4.87365 0
M  V30 1233 H 114.966 -1.80156 -1.12506 0
M  V30 1234 H 117.229 -0.769217 -0.554085 0
M  V30 1235 H 116.935 -2.46733 -2.50631 0
M  V30 1236 H 116.809 -1.10591 -3.60624 0
M  V30 1237 H 119.196 -0.38419 -2.92588 0
M  V30 1238 H 119.277 -1.77807 -1.83898 0
M  V30 1239 H 118.921 -3.32819 -3.83658 0
M  V30 1240 H 118.851 -1.90702 -4.90857 0
M  V30 1241 H 121.342 -1.73688 -3.3562 0
M  V30 1242 H 121.655 -4.09558 -6.55349 0
M  V30 1243 H 120 -3.67737 -5.89741 0
M  V30 1244 H 123.191 -2.22593 -4.11789 0
M  V30 1245 H 123.364 -3.30132 -5.57599 0
M  V30 1246 N 116.77 1.45427 -0.607355 0
M  V30 1247 C 117.995 2.07124 -0.107006 0
M  V30 1248 C 118.42 1.44906 1.19933 0
M  V30 1249 O 117.778 0.541687 1.73019 0
M  V30 1250 C 117.826 3.60595 0.0194119 0
M  V30 1251 O 116.93 3.98285 1.0697 0
M  V30 1252 H 116.271 0.659868 -0.0739597 0
M  V30 1253 H 118.801 1.86683 -0.837297 0
M  V30 1254 H 118.811 4.07419 0.2177 0
M  V30 1255 H 117.486 4.05266 -0.934453 0
M  V30 1256 H 116.063 3.63133 0.847889 0
M  V30 1257 N 118.248 0.346503 1.53744 0
M  V30 1258 C 119.659 -0.136779 1.86198 0
M  V30 1259 C 120.01 -1.49749 1.26766 0
M  V30 1260 O 119.135 -2.08417 0.582355 0
M  V30 1261 C 119.73 -0.254966 3.37839 0
M  V30 1262 C 118.289 -0.682482 3.70161 0
M  V30 1263 C 117.436 0.181981 2.76702 0
M  V30 1264 H 120.387 0.565994 1.48264 0
M  V30 1265 H 120.408 -1.08195 3.64793 0
M  V30 1266 H 119.92 0.735526 3.81066 0
M  V30 1267 H 118.021 -1.68189 3.3248 0
M  V30 1268 H 118.134 -0.470326 4.76786 0
M  V30 1269 H 116.498 -0.34615 2.52337 0
M  V30 1270 H 117.281 1.16966 3.2276 0
M  V30 1271 N 119.726 -1.57421 0.075193 0
M  V30 1272 C 120.975 -1.92794 -0.592731 0
M  V30 1273 C 121.288 -0.957478 -1.70563 0
M  V30 1274 O 122.494 -1.20417 -2.43335 0
M  V30 1275 C 120.95 -3.42495 -1.10569 0
M  V30 1276 C 120.558 -4.47994 -0.0236121 0
M  V30 1277 C 122.302 -3.86864 -1.74748 0
M  V30 1278 C 120.209 -5.88829 -0.550803 0
M  V30 1279 H 119.139 -0.719591 -0.225177 0
M  V30 1280 H 121.79 -1.82902 0.147978 0
M  V30 1281 H 120.172 -3.47471 -1.89947 0
M  V30 1282 H 121.346 -4.54637 0.751099 0
M  V30 1283 H 119.661 -4.13113 0.522159 0
M  V30 1284 H 122.258 -4.8947 -2.15229 0
M  V30 1285 H 122.601 -3.24417 -2.60882 0
M  V30 1286 H 123.134 -3.84504 -1.01986 0
M  V30 1287 H 119.873 -6.54929 0.273457 0
M  V30 1288 H 119.393 -5.85698 -1.29296 0
M  V30 1289 H 121.072 -6.38811 -1.02613 0
M  V30 1290 N 121.204 0.198386 -1.56346 0
M  V30 1291 C 122.45 0.916115 -1.81601 0
M  V30 1292 C 122.805 1.81025 -0.651744 0
M  V30 1293 O 122.098 1.88316 0.353229 0
M  V30 1294 C 122.292 1.77031 -3.10475 0
M  V30 1295 C 122.121 0.960365 -4.39326 0
M  V30 1296 C 120.891 0.646093 -5.01152 0
M  V30 1297 C 123.089 0.314628 -5.13337 0
M  V30 1298 N 121.071 -0.182828 -6.13628 0
M  V30 1299 C 122.442 -0.37664 -6.18855 0
M  V30 1300 C 124.497 0.230019 -4.97368 0
M  V30 1301 C 123.2 -1.14445 -7.10137 0
M  V30 1302 C 125.226 -0.524389 -5.89071 0
M  V30 1303 C 124.588 -1.20412 -6.94032 0
M  V30 1304 H 120.687 0.314732 -0.715868 0
M  V30 1305 H 123.271 0.185102 -1.93818 0
M  V30 1306 H 121.442 2.47295 -2.99499 0
M  V30 1307 H 123.174 2.42727 -3.2383 0
M  V30 1308 H 119.929 0.969724 -4.63566 0
M  V30 1309 H 120.353 -0.586802 -6.74452 0
M  V30 1310 H 124.995 0.741184 -4.16253 0
M  V30 1311 H 122.713 -1.66706 -7.90718 0
M  V30 1312 H 126.299 -0.591167 -5.78789 0
M  V30 1313 H 125.179 -1.77853 -7.63766 0
M  V30 1314 N 122.682 1.50554 0.465978 0
M  V30 1315 C 124.098 1.38093 0.800154 0
M  V30 1316 C 124.298 0.440988 1.96615 0
M  V30 1317 O 123.354 -0.114499 2.5224 0
M  V30 1318 C 124.667 2.79565 1.10742 0
M  V30 1319 C 126.215 2.88516 1.21357 0
M  V30 1320 C 126.69 4.30833 1.55393 0
M  V30 1321 N 128.181 4.33807 1.62375 0
M  V30 1322 C 128.916 5.40927 1.90225 0
M  V30 1323 N 128.412 6.58247 2.16062 0
M  V30 1324 N 130.205 5.28376 1.9177 0
M  V30 1325 H 122.356 2.10237 -0.302366 0
M  V30 1326 H 124.619 0.945203 -0.0727746 0
M  V30 1327 H 124.325 3.50208 0.323661 0
M  V30 1328 H 124.199 3.17125 2.04234 0
M  V30 1329 H 126.586 2.1809 1.98799 0
M  V30 1330 H 126.667 2.54492 0.258321 0
M  V30 1331 H 126.311 5.01799 0.784889 0
M  V30 1332 H 126.241 4.62347 2.52076 0
M  V30 1333 H 128.732 3.49212 1.44427 0
M  V30 1334 H 129.045 7.3569 2.36601 0
M  V30 1335 H 127.39 6.61413 2.13444 0
M  V30 1336 H 130.581 4.35715 1.71085 0
M  V30 1337 H 130.754 6.11944 2.13139 0
M  V30 1338 N 124.16 -0.719506 1.40217 0
M  V30 1339 C 125.11 -1.8251 1.36653 0
M  V30 1340 C 126.094 -1.59028 0.244732 0
M  V30 1341 O 127.286 -1.70268 0.483524 0
M  V30 1342 C 124.415 -3.20599 1.22763 0
M  V30 1343 C 123.501 -3.49858 2.39708 0
M  V30 1344 N 123.892 -3.49957 3.6519 0
M  V30 1345 C 122.19 -3.80297 2.33002 0
M  V30 1346 C 122.891 -3.77449 4.42614 0
M  V30 1347 N 121.867 -3.96002 3.72402 0
M  V30 1348 H 125.669 -1.80914 2.31619 0
M  V30 1349 H 123.183 -0.918455 1.33933 0
M  V30 1350 H 125.18 -3.99766 1.18292 0
M  V30 1351 H 123.84 -3.23424 0.287614 0
M  V30 1352 H 124.851 -3.309 3.98404 0
M  V30 1353 H 121.528 -3.90635 1.47346 0
M  V30 1354 H 122.918 -3.83863 5.51451 0
M  V30 1355 N 125.638 -1.25649 -0.95132 0
M  V30 1356 C 126.886 -1.10375 -1.69298 0
M  V30 1357 C 127.207 0.355339 -1.91735 0
M  V30 1358 O 126.477 1.25188 -1.50681 0
M  V30 1359 H 125.057 -0.405461 -0.627384 0
M  V30 1360 H 127.719 -1.57823 -1.14358 0
M  V30 1361 H 126.815 -1.61465 -2.67087 0
M  V30 1362 N 127.117 1.15442 -1.07289 0
M  V30 1363 C 128.365 1.85845 -0.794096 0
M  V30 1364 C 128.686 1.82692 0.681809 0
M  V30 1365 O 127.956 1.26741 1.49377 0
M  V30 1366 H 126.536 0.688089 -0.290763 0
M  V30 1367 H 129.198 1.39947 -1.3565 0
M  V30 1368 H 128.294 2.91001 -1.12804 0
M  V30 1369 N 128.595 0.856903 1.32268 0
M  V30 1370 C 129.841 0.462069 1.97466 0
M  V30 1371 C 130.174 -0.980298 1.67642 0
M  V30 1372 O 129.449 -1.68824 0.965858 0
M  V30 1373 C 129.732 0.704336 3.53145 0
M  V30 1374 C 129.585 2.19529 3.9259 0
M  V30 1375 C 130.904 0.1622 4.39801 0
M  V30 1376 H 128.023 0.169357 0.717278 0
M  V30 1377 H 130.665 1.07574 1.56614 0
M  V30 1378 H 128.815 0.181999 3.88073 0
M  V30 1379 H 130.487 2.78387 3.67829 0
M  V30 1380 H 128.73 2.67292 3.41668 0
M  V30 1381 H 129.401 2.31549 5.01088 0
M  V30 1382 H 131.877 0.608905 4.11621 0
M  V30 1383 H 130.753 0.361265 5.4771 0
M  V30 1384 H 131.014 -0.935158 4.32096 0
M  V30 1385 N 130.073 -1.45103 0.615059 0
M  V30 1386 C 131.319 -2.02483 0.113347 0
M  V30 1387 C 131.652 -1.48146 -1.25564 0
M  V30 1388 O 130.927 -0.659104 -1.82992 0
M  V30 1389 C 131.21 -3.60005 0.0825278 0
M  V30 1390 C 131.063 -4.2466 1.48271 0
M  V30 1391 C 132.382 -4.35972 -0.601401 0
M  V30 1392 H 129.501 -0.735764 0.0426632 0
M  V30 1393 H 132.143 -1.72868 0.788461 0
M  V30 1394 H 130.293 -3.85367 -0.492378 0
M  V30 1395 H 131.965 -4.10458 2.10527 0
M  V30 1396 H 130.208 -3.82772 2.04127 0
M  V30 1397 H 130.879 -5.336 1.41332 0
M  V30 1398 H 133.355 -4.15947 -0.112666 0
M  V30 1399 H 132.231 -5.45697 -0.592097 0
M  V30 1400 H 132.492 -4.09391 -1.66887 0
M  V30 1401 N 131.551 -0.354651 -1.53558 0
M  V30 1402 C 132.501 0.513179 -2.2215 0
M  V30 1403 C 133.485 1.05734 -1.21281 0
M  V30 1404 O 134.677 0.989202 -1.46778 0
M  V30 1405 C 131.806 1.65798 -3.00609 0
M  V30 1406 C 130.892 1.12722 -4.08845 0
M  V30 1407 N 131.283 0.318563 -5.04796 0
M  V30 1408 C 129.581 1.40307 -4.23356 0
M  V30 1409 C 130.282 0.0292224 -5.81693 0
M  V30 1410 N 129.258 0.623891 -5.40008 0
M  V30 1411 H 133.06 -0.111586 -2.93688 0
M  V30 1412 H 130.574 -0.162091 -1.61589 0
M  V30 1413 H 132.571 2.29176 -3.48258 0
M  V30 1414 H 131.231 2.28591 -2.306 0
M  V30 1415 H 132.242 -0.0413091 -5.17884 0
M  V30 1416 H 128.919 2.03458 -3.6457 0
M  V30 1417 H 130.309 -0.623808 -6.68998 0
M  V30 1418 N 133.029 1.57378 -0.0835403 0
M  V30 1419 C 134.277 1.93547 0.581718 0
M  V30 1420 C 134.598 0.96524 1.69435 0
M  V30 1421 O 133.868 0.0153369 1.95894 0
M  V30 1422 H 132.448 0.714521 0.217874 0
M  V30 1423 H 135.11 1.94366 -0.144158 0
M  V30 1424 H 134.206 2.95665 0.999423 0
M  V30 1425 N 134.507 -0.190092 1.56449 0
M  V30 1426 C 135.918 -0.754312 1.70784 0
M  V30 1427 C 136.269 -1.83631 0.690951 0
M  V30 1428 O 135.394 -2.15868 -0.151604 0
M  V30 1429 C 135.989 -1.37503 3.09642 0
M  V30 1430 C 134.548 -1.88628 3.25725 0
M  V30 1431 C 133.695 -0.758098 2.66736 0
M  V30 1432 H 136.646 0.0350524 1.58661 0
M  V30 1433 H 136.667 -2.2445 3.0725 0
M  V30 1434 H 136.179 -0.587302 3.83631 0
M  V30 1435 H 134.28 -2.70103 2.56661 0
M  V30 1436 H 134.393 -2.04462 4.3328 0
M  V30 1437 H 132.757 -1.17369 2.26046 0
M  V30 1438 H 133.54 0.0174705 3.43296 0
M  V30 1439 N 135.985 -1.50799 -0.457987 0
M  V30 1440 C 136.932 -1.70617 -1.5543 0
M  V30 1441 C 137.902 -0.547562 -1.56815 0
M  V30 1442 O 139.087 -0.779647 -1.74144 0
M  V30 1443 C 136.227 -1.81831 -2.93311 0
M  V30 1444 C 135.34 -3.09278 -3.01615 0
M  V30 1445 C 134.475 -3.11209 -4.30491 0
M  V30 1446 C 133.514 -4.33055 -4.32585 0
M  V30 1447 N 132.651 -4.32652 -5.52952 0
M  V30 1448 H 137.491 -2.64207 -1.37836 0
M  V30 1449 H 135.028 -1.30959 -0.669937 0
M  V30 1450 H 136.986 -1.86314 -3.73287 0
M  V30 1451 H 135.616 -0.916685 -3.0951 0
M  V30 1452 H 134.668 -3.14203 -2.1443 0
M  V30 1453 H 135.98 -3.99233 -2.99022 0
M  V30 1454 H 135.134 -3.14494 -5.18824 0
M  V30 1455 H 133.873 -2.19106 -4.35711 0
M  V30 1456 H 132.878 -4.29969 -3.42647 0
M  V30 1457 H 134.103 -5.264 -4.29046 0
M  V30 1458 H 132.049 -3.43409 -5.58933 0
M  V30 1459 H 131.966 -5.16392 -5.52155 0
M  V30 1460 H 133.234 -4.40101 -6.43375 0
M  V30 1461 N 137.463 0.71206 -1.40597 0
M  V30 1462 C 138.874 1.29135 -1.34837 0
M  V30 1463 C 139.225 1.96186 -0.0235395 0
M  V30 1464 O 138.35 1.97768 0.878444 0
M  V30 1465 C 138.945 2.34827 -2.44217 0
M  V30 1466 C 137.504 2.88371 -2.41907 0
M  V30 1467 C 136.651 1.62202 -2.24913 0
M  V30 1468 H 139.602 0.507944 -1.50352 0
M  V30 1469 H 139.623 3.15749 -2.12327 0
M  V30 1470 H 139.135 1.85996 -3.40627 0
M  V30 1471 H 137.236 3.41422 -1.49204 0
M  V30 1472 H 137.349 3.39925 -3.37621 0
M  V30 1473 H 135.713 1.874 -1.72492 0
M  V30 1474 H 136.496 1.15391 -3.23326 0
M  V30 1475 N 138.941 1.26152 0.944643 0
M  V30 1476 C 140.357 1.03189 1.21754 0
M  V30 1477 C 140.557 -0.245112 2.00004 0
M  V30 1478 O 139.613 -0.955176 2.33736 0
M  V30 1479 C 140.926 2.26119 1.98219 0
M  V30 1480 C 142.474 2.30984 2.11224 0
M  V30 1481 C 142.949 3.53597 2.91089 0
M  V30 1482 N 144.44 3.54053 2.98664 0
M  V30 1483 C 145.175 4.45593 3.60881 0
M  V30 1484 N 144.671 5.47416 4.24626 0
M  V30 1485 N 146.464 4.33252 3.58119 0
M  V30 1486 H 138.615 2.08177 0.421437 0
M  V30 1487 H 140.878 0.914723 0.248969 0
M  V30 1488 H 140.584 3.18984 1.48128 0
M  V30 1489 H 140.458 2.3009 2.98895 0
M  V30 1490 H 142.845 1.38635 2.60508 0
M  V30 1491 H 142.926 2.31026 1.09821 0
M  V30 1492 H 142.57 4.46273 2.42493 0
M  V30 1493 H 142.5 3.50802 3.92741 0
M  V30 1494 H 144.991 2.80403 2.53343 0
M  V30 1495 H 145.304 6.13459 4.69987 0
M  V30 1496 H 143.649 5.51278 4.23223 0
M  V30 1497 H 146.84 3.52924 3.0751 0
M  V30 1498 H 147.013 5.04786 4.06319 0
M  V30 1499 N 140.419 -1.14872 1.07899 0
M  V30 1500 C 141.696 -1.81928 0.71845 0
M  V30 1501 C 142.076 -1.95417 -0.798455 0
M  V30 1502 O 141.424 -1.50997 -1.715 0
M  V30 1503 C 141.634 -3.17937 1.43935 0
M  V30 1504 C 142.982 -3.93501 1.59506 0
M  V30 1505 O 144.006 -3.27509 1.40058 0
M  V30 1506 O 142.865 -5.1183 1.91551 0
M  V30 1507 H 139.959 -0.78628 0.256305 0
M  V30 1508 H 142.505 -1.21934 1.18026 0
M  V30 1509 H 141.277 -3.0325 2.47295 0
M  V30 1510 H 140.9 -3.85619 0.968687 0
M  V30 1511 N 141.898 -0.863906 -1.31812 0
M  V30 1512 C 143.144 -0.481841 -1.9761 0
M  V30 1513 C 143.499 0.954048 -1.6708 0
M  V30 1514 O 142.792 1.66182 -0.953624 0
M  V30 1515 C 142.986 -0.668547 -3.51091 0
M  V30 1516 C 142.815 -2.12103 -3.96538 0
M  V30 1517 C 141.585 -2.76141 -4.23171 0
M  V30 1518 C 143.783 -3.09265 -4.10925 0
M  V30 1519 N 141.765 -4.12205 -4.54929 0
M  V30 1520 C 143.136 -4.30341 -4.46326 0
M  V30 1521 C 145.191 -3.05337 -3.93286 0
M  V30 1522 C 143.894 -5.48 -4.65928 0
M  V30 1523 C 145.92 -4.22248 -4.14078 0
M  V30 1524 C 145.282 -5.42085 -4.49804 0
M  V30 1525 H 141.381 -0.225238 -0.74886 0
M  V30 1526 H 143.965 -1.11723 -1.59455 0
M  V30 1527 H 142.136 -0.0627898 -3.88349 0
M  V30 1528 H 143.868 -0.255467 -4.03893 0
M  V30 1529 H 140.623 -2.27125 -4.15585 0
M  V30 1530 H 141.047 -4.82416 -4.74978 0
M  V30 1531 H 145.689 -2.138 -3.64759 0
M  V30 1532 H 143.407 -6.40059 -4.93305 0
M  V30 1533 H 146.993 -4.20654 -4.01922 0
M  V30 1534 H 145.873 -6.31044 -4.65567 0
M  V30 1535 N 143.376 1.44774 -0.622745 0
M  V30 1536 C 144.601 2.06999 -0.128968 0
M  V30 1537 C 145.026 1.4617 1.1839 0
M  V30 1538 O 144.384 0.560007 1.72434 0
M  V30 1539 C 144.432 3.60595 -0.0188351 0
M  V30 1540 O 143.536 3.99398 1.02739 0
M  V30 1541 H 142.877 0.659047 -0.0809544 0
M  V30 1542 H 145.407 1.85784 -0.85705 0
M  V30 1543 H 145.417 4.07627 0.174476 0
M  V30 1544 H 144.092 4.04252 -0.977384 0
M  V30 1545 H 142.669 3.64011 0.809326 0
M  V30 1546 N 144.854 0.36279 1.53368 0
M  V30 1547 C 145.801 -0.485008 2.25646 0
M  V30 1548 C 146.771 -1.07982 1.2621 0
M  V30 1549 O 147.956 -1.11284 1.54986 0
M  V30 1550 C 145.096 -1.62023 3.04701 0
M  V30 1551 C 144.209 -1.05086 4.19024 0
M  V30 1552 C 143.344 -2.15496 4.85525 0
M  V30 1553 C 142.383 -1.5601 5.91884 0
M  V30 1554 N 141.52 -2.60241 6.52088 0
M  V30 1555 H 146.36 0.137864 2.97681 0
M  V30 1556 H 143.897 0.0798061 1.46883 0
M  V30 1557 H 145.855 -2.28887 3.48807 0
M  V30 1558 H 144.485 -2.2138 2.34927 0
M  V30 1559 H 143.537 -0.27259 3.79422 0
M  V30 1560 H 144.849 -0.575926 4.95464 0
M  V30 1561 H 144.003 -2.90186 5.32801 0
M  V30 1562 H 142.742 -2.66341 4.08551 0
M  V30 1563 H 141.747 -0.798338 5.43973 0
M  V30 1564 H 142.972 -1.05994 6.70777 0
M  V30 1565 H 140.918 -3.10304 5.77968 0
M  V30 1566 H 140.835 -2.17426 7.24059 0
M  V30 1567 H 142.103 -3.34641 7.04014 0
M  V30 1568 N 146.332 -1.57332 0.0918853 0
M  V30 1569 C 147.279 -2.13847 -0.868211 0
M  V30 1570 C 148.249 -1.05618 -1.28196 0
M  V30 1571 O 149.434 -1.33387 -1.36427 0
M  V30 1572 C 146.574 -2.72062 -2.12312 0
M  V30 1573 C 145.687 -3.94514 -1.7602 0
M  V30 1574 C 144.822 -4.40903 -2.96273 0
M  V30 1575 C 143.861 -5.55953 -2.56092 0
M  V30 1576 N 142.998 -5.97209 -3.69169 0
M  V30 1577 H 147.838 -2.95575 -0.379406 0
M  V30 1578 H 145.375 -1.46048 -0.175606 0
M  V30 1579 H 147.333 -3.03931 -2.858 0
M  V30 1580 H 145.963 -1.93068 -2.58698 0
M  V30 1581 H 145.015 -3.68979 -0.925135 0
M  V30 1582 H 146.327 -4.7802 -1.42472 0
M  V30 1583 H 145.481 -4.74539 -3.78018 0
M  V30 1584 H 144.22 -3.56291 -3.33029 0
M  V30 1585 H 143.225 -5.21948 -1.72773 0
M  V30 1586 H 144.45 -6.42311 -2.20484 0
M  V30 1587 H 142.396 -5.15543 -4.05649 0
M  V30 1588 H 142.313 -6.75504 -3.39456 0
M  V30 1589 H 143.581 -6.35475 -4.51434 0
M  V30 1590 N 147.81 0.181792 -1.56548 0
M  V30 1591 C 148.74 1.22765 -1.98623 0
M  V30 1592 C 149.721 1.46747 -0.860189 0
M  V30 1593 O 150.906 1.58259 -1.12551 0
M  V30 1594 C 148.036 2.56894 -2.33715 0
M  V30 1595 C 146.99 2.475 -3.49182 0
M  V30 1596 C 146.316 3.86023 -3.69986 0
M  V30 1597 C 147.616 1.98866 -4.82959 0
M  V30 1598 H 149.31 0.877942 -2.86239 0
M  V30 1599 H 146.856 0.42088 -1.37712 0
M  V30 1600 H 148.809 3.30253 -2.61746 0
M  V30 1601 H 147.533 2.93632 -1.42997 0
M  V30 1602 H 146.192 1.76596 -3.21262 0
M  V30 1603 H 145.84 4.20136 -2.76576 0
M  V30 1604 H 145.54 3.80609 -4.47672 0
M  V30 1605 H 147.064 4.60984 -4.00407 0
M  V30 1606 H 148.478 2.61992 -5.09934 0
M  V30 1607 H 146.875 2.04424 -5.64208 0
M  V30 1608 H 147.945 0.942465 -4.75653 0
M  V30 1609 N 149.288 1.51039 0.449983 0
M  V30 1610 C 150.236 1.71995 1.5659 0
M  V30 1611 C 151.23 0.586029 1.5894 0
M  V30 1612 O 152.436 0.76709 1.62837 0
M  V30 1613 H 148.811 0.543233 0.520001 0
M  V30 1614 H 150.782 2.65562 1.36085 0
M  V30 1615 C 149.531 1.8506 2.9436 0
M  V30 1616 H 148.854 2.71712 2.93279 0
M  V30 1617 H 150.294 2.0374 3.71842 0
M  V30 1618 C 148.753 0.607277 3.31382 0
M  V30 1619 O 149.283 -0.243903 4.00959 0
M  V30 1620 N 147.489 0.455073 2.87015 0
M  V30 1621 H 147.036 1.14879 2.30566 0
M  V30 1622 H 146.994 -0.375611 3.12148 0
M  V30 1623 N 150.766 -0.704594 1.40972 0
M  V30 1624 C 151.713 -1.81862 1.42109 0
M  V30 1625 C 152.683 -1.63781 0.276593 0
M  V30 1626 O 153.868 -1.84759 0.4763 0
M  V30 1627 C 151.008 -3.19669 1.30022 0
M  V30 1628 C 150.121 -3.49246 2.54267 0
M  V30 1629 C 149.256 -4.76618 2.3454 0
M  V30 1630 C 148.295 -4.99133 3.54306 0
M  V30 1631 N 147.432 -6.17726 3.33706 0
M  V30 1632 H 152.272 -1.80226 2.37324 0
M  V30 1633 H 149.809 -0.880238 1.17857 0
M  V30 1634 H 151.767 -3.99263 1.21018 0
M  V30 1635 H 150.397 -3.20506 0.384192 0
M  V30 1636 H 149.449 -2.64125 2.73756 0
M  V30 1637 H 150.761 -3.61788 3.43381 0
M  V30 1638 H 149.915 -5.64249 2.22952 0
M  V30 1639 H 148.654 -4.66305 1.42867 0
M  V30 1640 H 147.659 -4.09953 3.66359 0
M  V30 1641 H 148.884 -5.11311 4.4692 0
M  V30 1642 H 146.83 -6.08642 2.44725 0
M  V30 1643 H 146.747 -6.30995 4.16391 0
M  V30 1644 H 148.015 -7.08115 3.25873 0
M  V30 1645 N 152.244 -1.26651 -0.937939 0
M  V30 1646 C 153.191 -1.0849 -2.03712 0
M  V30 1647 C 154.161 0.011033 -1.66096 0
M  V30 1648 O 155.346 -0.149353 -1.90215 0
M  V30 1649 C 152.486 -0.72735 -3.37348 0
M  V30 1650 C 151.599 -1.89986 -3.87981 0
M  V30 1651 C 150.734 -1.48513 -5.10017 0
M  V30 1652 C 149.773 -2.62575 -5.5292 0
M  V30 1653 N 148.91 -2.21762 -6.66158 0
M  V30 1654 H 153.75 -2.02551 -2.18579 0
M  V30 1655 H 151.287 -1.00844 -1.07093 0
M  V30 1656 H 153.245 -0.50092 -4.14182 0
M  V30 1657 H 151.875 0.176298 -3.22318 0
M  V30 1658 H 150.927 -2.23913 -3.07518 0
M  V30 1659 H 152.239 -2.75586 -4.15757 0
M  V30 1660 H 151.393 -1.21934 -5.94321 0
M  V30 1661 H 150.132 -0.60009 -4.83994 0
M  V30 1662 H 149.137 -2.8988 -4.67172 0
M  V30 1663 H 150.362 -3.51685 -5.80943 0
M  V30 1664 H 148.308 -1.35696 -6.41812 0
M  V30 1665 H 148.225 -3.00903 -6.93537 0
M  V30 1666 H 149.493 -1.98403 -7.53828 0
M  V30 1667 N 153.722 1.14298 -1.08507 0
M  V30 1668 C 154.655 2.18447 -0.660004 0
M  V30 1669 C 155.633 1.59242 0.328749 0
M  V30 1670 O 156.817 1.87062 0.232367 0
M  V30 1671 C 153.944 3.38688 0.0290807 0
M  V30 1672 C 152.99 4.1646 -0.919982 0
M  V30 1673 S 153.823 4.77334 -2.42718 0
M  V30 1674 C 154.979 6.00931 -1.75024 0
M  V30 1675 H 155.212 2.54166 -1.54231 0
M  V30 1676 H 152.745 1.25446 -0.900149 0
M  V30 1677 H 154.703 4.08342 0.420378 0
M  V30 1678 H 153.364 3.01289 0.887895 0
M  V30 1679 H 152.557 5.02529 -0.384751 0
M  V30 1680 H 152.159 3.52414 -1.25223 0
M  V30 1681 H 154.451 6.69017 -1.06877 0
M  V30 1682 H 155.394 6.59044 -2.58971 0
M  V30 1683 H 155.802 5.51089 -1.22317 0
M  V30 1684 N 155.201 0.870884 1.31352 0
M  V30 1685 C 156.148 0.325425 2.28494 0
M  V30 1686 C 157.118 -0.576615 1.5577 0
M  V30 1687 O 158.303 -0.508059 1.83911 0
M  V30 1688 C 155.443 -0.466283 3.41935 0
M  V30 1689 C 154.556 0.463378 4.29508 0
M  V30 1690 C 153.691 -0.342544 5.30094 0
M  V30 1691 C 152.73 0.583486 6.09313 0
M  V30 1692 N 151.867 -0.186244 7.01853 0
M  V30 1693 H 156.707 1.15901 2.74538 0
M  V30 1694 H 154.244 0.58294 1.35056 0
M  V30 1695 H 156.202 -0.941085 4.06447 0
M  V30 1696 H 154.832 -1.26456 2.97 0
M  V30 1697 H 153.884 1.05663 3.65431 0
M  V30 1698 H 155.196 1.1734 4.84802 0
M  V30 1699 H 154.35 -0.879816 6.00287 0
M  V30 1700 H 153.089 -1.08585 4.75458 0
M  V30 1701 H 152.094 1.13251 5.3801 0
M  V30 1702 H 153.319 1.32566 6.66035 0
M  V30 1703 H 151.265 -0.912348 6.49625 0
M  V30 1704 H 151.182 0.464422 7.54572 0
M  V30 1705 H 152.45 -0.704716 7.76308 0
M  V30 1706 N 156.679 -1.44442 0.630414 0
M  V30 1707 C 157.626 -2.30678 -0.0749355 0
M  V30 1708 C 158.596 -1.4344 -0.837502 0
M  V30 1709 O 159.781 -1.72343 -0.818684 0
M  V30 1710 C 156.921 -3.28706 -1.05103 0
M  V30 1711 C 156.034 -4.31046 -0.286954 0
M  V30 1712 C 155.169 -5.16167 -1.2548 0
M  V30 1713 C 154.208 -6.10216 -0.479843 0
M  V30 1714 N 153.345 -6.88039 -1.39811 0
M  V30 1715 H 158.185 -2.90454 0.666386 0
M  V30 1716 H 155.722 -1.43107 0.340404 0
M  V30 1717 H 157.68 -3.84027 -1.63031 0
M  V30 1718 H 156.31 -2.70632 -1.75949 0
M  V30 1719 H 155.362 -3.78203 0.408243 0
M  V30 1720 H 156.674 -4.97794 0.316657 0
M  V30 1721 H 155.828 -5.76002 -1.90544 0
M  V30 1722 H 154.567 -4.49491 -1.89233 0
M  V30 1723 H 153.572 -5.49491 0.184295 0
M  V30 1724 H 154.797 -6.78928 0.152965 0
M  V30 1725 H 152.743 -6.24032 -2.02287 0
M  V30 1726 H 152.66 -7.51223 -0.848508 0
M  V30 1727 H 153.928 -7.52397 -2.03762 0
M  V30 1728 N 158.157 -0.370918 -1.53173 0
M  V30 1729 C 159.087 0.464847 -2.28826 0
M  V30 1730 C 160.068 1.07936 -1.31468 0
M  V30 1731 O 161.253 1.0956 -1.60344 0
M  V30 1732 C 158.383 1.60196 -3.08147 0
M  V30 1733 C 157.337 1.11443 -4.13237 0
M  V30 1734 C 156.663 2.3422 -4.80672 0
M  V30 1735 C 157.963 0.195384 -5.21934 0
M  V30 1736 H 159.657 -0.166329 -2.98938 0
M  V30 1737 H 157.203 -0.0814359 -1.4377 0
M  V30 1738 H 159.156 2.19332 -3.59822 0
M  V30 1739 H 157.88 2.26045 -2.35735 0
M  V30 1740 H 156.539 0.545727 -3.62515 0
M  V30 1741 H 156.187 2.98537 -4.04827 0
M  V30 1742 H 155.887 2.02269 -5.51689 0
M  V30 1743 H 157.411 2.94032 -5.35143 0
M  V30 1744 H 158.825 0.694375 -5.69079 0
M  V30 1745 H 157.222 -0.0335027 -6.00091 0
M  V30 1746 H 158.292 -0.760961 -4.78892 0
M  V30 1747 N 159.635 1.57281 -0.100228 0
M  V30 1748 C 160.598 2.13158 0.842398 0
M  V30 1749 C 161.598 1.06202 1.20738 0
M  V30 1750 O 162.788 1.32066 1.13597 0
M  V30 1751 C 159.92 2.65639 2.13655 0
M  V30 1752 H 161.113 2.97766 0.357114 0
M  V30 1753 H 158.666 1.5559 0.148823 0
M  V30 1754 H 159.401 1.84566 2.66657 0
M  V30 1755 H 159.186 3.43844 1.88451 0
M  V30 1756 H 160.676 3.08846 2.81077 0
M  V30 1757 N 161.113 -0.173488 1.56642 0
M  V30 1758 C 162.043 -1.2171 1.99271 0
M  V30 1759 C 163.024 -1.46289 0.867959 0
M  V30 1760 O 164.209 -1.5766 1.13388 0
M  V30 1761 C 161.339 -2.55651 2.35074 0
M  V30 1762 C 160.293 -2.45645 3.50489 0
M  V30 1763 C 159.619 -3.84056 3.72028 0
M  V30 1764 C 160.919 -1.96302 4.84007 0
M  V30 1765 H 162.613 -0.86275 2.867 0
M  V30 1766 H 160.159 -0.413571 1.37933 0
M  V30 1767 H 162.112 -3.2886 2.63494 0
M  V30 1768 H 160.836 -2.92869 1.44552 0
M  V30 1769 H 159.495 -1.7489 3.22194 0
M  V30 1770 H 159.143 -4.18664 2.788 0
M  V30 1771 H 158.843 -3.7823 4.49684 0
M  V30 1772 H 160.367 -4.58854 4.02846 0
M  V30 1773 H 161.781 -2.59284 5.11317 0
M  V30 1774 H 160.178 -2.01429 5.65284 0
M  V30 1775 H 161.248 -0.917226 4.76146 0
M  V30 1776 N 162.591 -1.51276 -0.441967 0
M  V30 1777 C 164.007 -1.39349 -0.778083 0
M  V30 1778 C 164.207 -0.472212 -1.95889 0
M  V30 1779 O 163.263 0.0743551 -2.5239 0
M  V30 1780 C 164.576 -2.81292 -1.0628 0
M  V30 1781 C 166.124 -2.9041 -1.16751 0
M  V30 1782 C 166.599 -4.33251 -1.48519 0
M  V30 1783 N 168.09 -4.36336 -1.55453 0
M  V30 1784 C 168.825 -5.43885 -1.81596 0
M  V30 1785 N 168.321 -6.61601 -2.05562 0
M  V30 1786 N 170.114 -5.3136 -1.8334 0
M  V30 1787 H 162.265 -2.09729 0.335774 0
M  V30 1788 H 164.528 -0.943925 0.0878028 0
M  V30 1789 H 164.234 -3.50678 -0.267905 0
M  V30 1790 H 164.108 -3.20334 -1.99163 0
M  V30 1791 H 166.495 -2.21225 -1.95304 0
M  V30 1792 H 166.576 -2.54871 -0.217801 0
M  V30 1793 H 166.22 -5.02984 -0.704958 0
M  V30 1794 H 166.15 -4.66299 -2.44689 0
M  V30 1795 H 168.641 -3.51466 -1.38853 0
M  V30 1796 H 168.954 -7.39361 -2.24867 0
M  V30 1797 H 167.299 -6.64725 -2.02894 0
M  V30 1798 H 170.49 -4.38382 -1.64132 0
M  V30 1799 H 170.663 -6.15258 -2.03377 0
M  V30 1800 N 164.069 0.697108 -1.41344 0
M  V30 1801 C 165.294 1.49096 -1.44171 0
M  V30 1802 C 165.719 1.88038 -0.0481568 0
M  V30 1803 O 165.077 1.54525 0.948243 0
M  V30 1804 C 165.125 2.73088 -2.3549 0
M  V30 1805 O 164.229 3.70514 -1.81088 0
M  V30 1806 H 163.57 0.448801 -0.489361 0
M  V30 1807 H 166.1 0.856992 -1.85787 0
M  V30 1808 H 166.11 3.21413 -2.51312 0
M  V30 1809 H 164.785 2.44081 -3.36745 0
M  V30 1810 H 163.362 3.29441 -1.74708 0
M  V30 1811 N 165.547 1.27147 0.931209 0
M  V30 1812 C 166.51 1.09615 2.01289 0
M  V30 1813 C 167.51 0.0412581 1.60747 0
M  V30 1814 O 168.7 0.285545 1.71844 0
M  V30 1815 C 165.832 0.669447 3.34262 0
M  V30 1816 H 167.025 2.05662 2.18273 0
M  V30 1817 H 164.578 1.09885 1.11153 0
M  V30 1818 H 165.313 -0.292572 3.22978 0
M  V30 1819 H 165.098 1.43127 3.65044 0
M  V30 1820 H 166.588 0.568921 4.13706 0
M  V30 1821 N 167.025 -1.13721 1.09112 0
M  V30 1822 C 167.955 -2.21148 0.749385 0
M  V30 1823 C 168.936 -1.6792 -0.271475 0
M  V30 1824 O 170.121 -1.93693 -0.140251 0
M  V30 1825 C 167.251 -3.46905 0.165659 0
M  V30 1826 C 166.205 -4.13203 1.11567 0
M  V30 1827 C 165.531 -5.33248 0.393809 0
M  V30 1828 C 166.831 -4.60912 2.45678 0
M  V30 1829 H 168.525 -2.4999 1.64758 0
M  V30 1830 H 166.071 -1.20156 0.793626 0
M  V30 1831 H 168.024 -4.21313 -0.085466 0
M  V30 1832 H 166.748 -3.17449 -0.767714 0
M  V30 1833 H 165.407 -3.40758 1.35202 0
M  V30 1834 H 165.055 -5.00054 -0.543599 0
M  V30 1835 H 164.755 -5.78552 1.02721 0
M  V30 1836 H 166.279 -6.10413 0.150908 0
M  V30 1837 H 167.693 -5.26759 2.26269 0
M  V30 1838 H 166.09 -5.16944 3.04776 0
M  V30 1839 H 167.16 -3.75603 3.06677 0
M  V30 1840 N 168.503 -0.877838 -1.30888 0
M  V30 1841 C 169.728 -0.506629 -2.01117 0
M  V30 1842 C 170.153 0.895564 -1.65412 0
M  V30 1843 O 169.511 1.5923 -0.866922 0
M  V30 1844 C 169.559 -0.680223 -3.54126 0
M  V30 1845 O 168.663 0.277033 -4.11468 0
M  V30 1846 H 168.004 -0.200518 -0.633 0
M  V30 1847 H 170.534 -1.18342 -1.66902 0
M  V30 1848 H 170.544 -0.5765 -4.03907 0
M  V30 1849 H 169.219 -1.70261 -3.79452 0
M  V30 1850 H 167.796 0.127606 -3.72682 0
M  V30 1851 N 169.982 1.44106 -0.638065 0
M  V30 1852 C 171.228 2.02277 -0.145546 0
M  V30 1853 C 171.561 1.50125 1.23191 0
M  V30 1854 O 170.836 0.688133 1.8192 0
M  V30 1855 C 171.119 3.59829 -0.139791 0
M  V30 1856 C 170.972 4.22247 -1.55008 0
M  V30 1857 C 172.291 4.36873 0.531966 0
M  V30 1858 H 169.41 0.734992 -0.0543632 0
M  V30 1859 H 172.052 1.71592 -0.815863 0
M  V30 1860 H 170.202 3.86102 0.431007 0
M  V30 1861 H 171.874 4.07057 -2.1703 0
M  V30 1862 H 170.117 3.79476 -2.10191 0
M  V30 1863 H 170.788 5.31284 -1.49804 0
M  V30 1864 H 173.264 4.16074 0.0464781 0
M  V30 1865 H 172.14 5.4657 0.505206 0
M  V30 1866 H 172.401 4.11995 1.60352 0
M  V30 1867 N 171.46 0.379036 1.52974 0
M  V30 1868 C 172.407 -0.461048 2.26148 0
M  V30 1869 C 173.377 -1.06637 1.27349 0
M  V30 1870 O 174.562 -1.09633 1.56157 0
M  V30 1871 C 171.702 -1.58782 3.06402 0
M  V30 1872 C 170.815 -1.00636 4.20115 0
M  V30 1873 C 169.95 -2.10334 4.87784 0
M  V30 1874 C 168.989 -1.49724 5.93506 0
M  V30 1875 N 168.126 -2.5331 6.54812 0
M  V30 1876 H 172.966 0.169429 2.97518 0
M  V30 1877 H 170.503 0.0953806 1.4679 0
M  V30 1878 H 172.461 -2.25174 3.51215 0
M  V30 1879 H 171.091 -2.18876 2.37261 0
M  V30 1880 H 170.143 -0.232332 3.7969 0
M  V30 1881 H 171.455 -0.523343 4.96047 0
M  V30 1882 H 170.609 -2.84519 5.35849 0
M  V30 1883 H 169.348 -2.61992 4.11353 0
M  V30 1884 H 168.353 -0.740598 5.44789 0
M  V30 1885 H 169.578 -0.988732 6.71864 0
M  V30 1886 H 167.524 -3.04156 5.81227 0
M  V30 1887 H 167.441 -2.09734 7.26325 0
M  V30 1888 H 168.709 -3.27155 7.07524 0
M  V30 1889 N 172.938 -1.57226 0.108567 0
M  V30 1890 C 174.168 -1.9889 -0.559142 0
M  V30 1891 C 174.576 -0.986889 -1.61422 0
M  V30 1892 O 173.919 0.0298705 -1.83676 0
M  V30 1893 C 173.981 -3.36952 -1.25315 0
M  V30 1894 C 173.645 -4.55679 -0.347248 0
M  V30 1895 C 174.642 -5.18281 0.409996 0
M  V30 1896 C 172.327 -5.0162 -0.261367 0
M  V30 1897 C 174.321 -6.25203 1.24096 0
M  V30 1898 C 172.008 -6.08405 0.573238 0
M  V30 1899 C 173.006 -6.70063 1.32304 0
M  V30 1900 O 172.694 -7.74788 2.14381 0
M  V30 1901 H 172.426 -0.658343 -0.153492 0
M  V30 1902 H 174.98 -2.04532 0.188584 0
M  V30 1903 H 173.21 -3.28032 -2.04773 0
M  V30 1904 H 174.899 -3.62974 -1.81673 0
M  V30 1905 H 175.665 -4.8371 0.353457 0
M  V30 1906 H 171.544 -4.53381 -0.834656 0
M  V30 1907 H 175.088 -6.73259 1.82669 0
M  V30 1908 H 170.985 -6.42406 0.631208 0
M  V30 1909 H 171.753 -7.91837 2.07209 0
M  V30 1910 N 174.416 0.165178 -1.56732 0
M  V30 1911 C 175.832 0.517174 -1.50988 0
M  V30 1912 C 176.032 1.84331 -0.813894 0
M  V30 1913 O 175.088 2.49672 -0.37682 0
M  V30 1914 C 176.401 0.544261 -2.95733 0
M  V30 1915 C 177.949 0.631039 -3.06573 0
M  V30 1916 C 178.424 0.68896 -4.52788 0
M  V30 1917 N 179.915 0.751683 -4.5706 0
M  V30 1918 C 180.65 0.817177 -5.67547 0
M  V30 1919 N 180.146 0.843129 -6.8765 0
M  V30 1920 N 181.939 0.856668 -5.55534 0
M  V30 1921 H 174.09 -0.704318 -2.00382 0
M  V30 1922 H 176.353 -0.254687 -0.913148 0
M  V30 1923 H 176.059 -0.361607 -3.49836 0
M  V30 1924 H 175.933 1.3886 -3.5071 0
M  V30 1925 H 178.32 1.52733 -2.52501 0
M  V30 1926 H 178.401 -0.240095 -2.54671 0
M  V30 1927 H 178.045 -0.2031 -5.07494 0
M  V30 1928 H 177.975 1.57633 -5.02454 0
M  V30 1929 H 180.466 0.739661 -3.70591 0
M  V30 1930 H 180.779 0.894448 -7.67606 0
M  V30 1931 H 179.124 0.811304 -6.90248 0
M  V30 1932 H 182.315 0.833437 -4.60621 0
M  V30 1933 H 182.488 0.904247 -6.4166 0
M  V30 1934 N 175.894 1.51508 0.433938 0
M  V30 1935 C 176.804 1.75917 1.5521 0
M  V30 1936 C 177.82 0.643545 1.61662 0
M  V30 1937 O 178.996 0.926183 1.7884 0
M  V30 1938 C 176.061 1.88213 2.91164 0
M  V30 1939 C 175.122 3.12074 2.94802 0
M  V30 1940 C 174.355 3.23774 4.24271 0
M  V30 1941 O 174.578 2.4133 5.16833 0
M  V30 1942 O 173.512 4.16774 4.34262 0
M  V30 1943 H 177.338 2.70777 1.37527 0
M  V30 1944 H 174.923 1.36051 0.617293 0
M  V30 1945 H 176.805 1.98267 3.71845 0
M  V30 1946 H 175.48 0.965413 3.08968 0
M  V30 1947 H 174.387 3.07497 2.13065 0
M  V30 1948 H 175.72 4.03446 2.81943 0
M  V30 1949 N 177.372 -0.689602 1.41712 0
M  V30 1950 C 178.32 -1.82475 1.44242 0
M  V30 1951 C 179.314 -1.66354 0.319774 0
M  V30 1952 O 180.52 -1.73143 0.492089 0
M  V30 1953 H 176.895 -0.601416 0.451445 0
M  V30 1954 H 178.866 -1.77458 2.39899 0
M  V30 1955 C 177.615 -3.20535 1.3473 0
M  V30 1956 H 176.938 -3.33559 2.20405 0
M  V30 1957 H 178.378 -4.00023 1.40562 0
M  V30 1958 C 176.837 -3.36846 0.0603281 0
M  V30 1959 O 177.367 -3.91656 -0.892663 0
M  V30 1960 N 175.573 -2.90595 -0.0177039 0
M  V30 1961 H 175.12 -2.46178 0.758572 0
M  V30 1962 H 175.078 -3.01886 -0.878201 0
M  V30 1963 N 178.85 -1.27639 -0.924453 0
M  V30 1964 C 179.797 -1.10644 -2.0255 0
M  V30 1965 C 180.767 -0.00658438 -1.66099 0
M  V30 1966 O 181.952 -0.16952 -1.90045 0
M  V30 1967 C 179.092 -0.76309 -3.36557 0
M  V30 1968 C 178.205 -1.94091 -3.85944 0
M  V30 1969 C 177.34 -1.53914 -5.08413 0
M  V30 1970 C 176.379 -2.68425 -5.50104 0
M  V30 1971 N 175.516 -2.28815 -6.63768 0
M  V30 1972 H 180.356 -2.04858 -2.16419 0
M  V30 1973 H 177.893 -1.01974 -1.06017 0
M  V30 1974 H 179.851 -0.544822 -4.13627 0
M  V30 1975 H 178.481 0.142102 -3.22487 0
M  V30 1976 H 177.533 -2.27162 -3.05125 0
M  V30 1977 H 178.845 -2.7998 -4.12811 0
M  V30 1978 H 177.999 -1.28231 -5.92994 0
M  V30 1979 H 176.738 -0.651391 -4.8333 0
M  V30 1980 H 175.743 -2.94819 -4.64071 0
M  V30 1981 H 176.968 -3.57826 -5.7718 0
M  V30 1982 H 174.914 -1.42495 -6.40337 0
M  V30 1983 H 174.831 -3.08242 -6.90306 0
M  V30 1984 H 176.099 -2.06387 -7.51681 0
M  V30 1985 N 180.328 1.1314 -1.09713 0
M  V30 1986 C 181.258 2.20748 -0.761102 0
M  V30 1987 C 182.239 1.68061 0.262566 0
M  V30 1988 O 183.424 1.93765 0.129977 0
M  V30 1989 C 180.554 3.46812 -0.184054 0
M  V30 1990 C 179.508 4.12606 -1.13757 0
M  V30 1991 C 178.834 5.33031 -0.422083 0
M  V30 1992 C 180.134 4.59603 -2.48118 0
M  V30 1993 H 181.828 2.49113 -1.66082 0
M  V30 1994 H 179.374 1.19734 -0.799987 0
M  V30 1995 H 181.327 4.21353 0.0631215 0
M  V30 1996 H 180.051 3.17851 0.750868 0
M  V30 1997 H 178.71 3.40036 -1.37007 0
M  V30 1998 H 178.358 5.00335 0.517072 0
M  V30 1999 H 178.058 5.77999 -1.05788 0
M  V30 2000 H 179.582 6.10325 -0.183277 0
M  V30 2001 H 180.996 5.25552 -2.29059 0
M  V30 2002 H 179.393 5.15321 -3.07514 0
M  V30 2003 H 180.463 3.73971 -3.08665 0
M  V30 2004 N 181.806 0.884767 1.30421 0
M  V30 2005 C 182.736 0.367574 2.30589 0
M  V30 2006 C 183.717 -0.549464 1.60981 0
M  V30 2007 O 184.902 -0.46336 1.88591 0
M  V30 2008 C 182.032 -0.418944 3.44764 0
M  V30 2009 C 180.986 0.406316 4.26067 0
M  V30 2010 C 180.312 -0.506793 5.32293 0
M  V30 2011 C 181.612 1.64832 4.95608 0
M  V30 2012 H 183.306 1.20462 2.74097 0
M  V30 2013 H 180.852 0.580695 1.31772 0
M  V30 2014 H 182.805 -0.791395 4.13902 0
M  V30 2015 H 181.529 -1.28964 3.0006 0
M  V30 2016 H 180.188 0.760903 3.58617 0
M  V30 2017 H 179.836 -1.37519 4.83836 0
M  V30 2018 H 179.536 0.0415828 5.87585 0
M  V30 2019 H 181.06 -0.875764 6.04287 0
M  V30 2020 H 182.474 1.34646 5.57264 0
M  V30 2021 H 180.871 2.13688 5.60765 0
M  V30 2022 H 181.941 2.39284 4.21748 0
M  V30 2023 N 183.284 -1.43765 0.645699 0
M  V30 2024 C 184.53 -2.02197 0.156271 0
M  V30 2025 C 184.863 -1.50776 -1.22393 0
M  V30 2026 O 184.138 -0.697771 -1.81553 0
M  V30 2027 C 184.421 -3.59749 0.158872 0
M  V30 2028 C 184.274 -4.21419 1.57245 0
M  V30 2029 C 185.593 -4.37149 -0.50879 0
M  V30 2030 H 182.712 -0.734694 0.0582602 0
M  V30 2031 H 185.354 -1.71157 0.824951 0
M  V30 2032 H 183.504 -3.86325 -0.410525 0
M  V30 2033 H 185.176 -4.059 2.19186 0
M  V30 2034 H 183.419 -3.78356 2.122 0
M  V30 2035 H 184.09 -5.30482 1.52619 0
M  V30 2036 H 186.566 -4.16093 -0.024412 0
M  V30 2037 H 185.442 -5.4683 -0.476213 0
M  V30 2038 H 185.703 -4.12839 -1.58165 0
M  V30 2039 N 184.763 -0.387143 -1.52771 0
M  V30 2040 C 185.693 0.440551 -2.29306 0
M  V30 2041 C 186.674 1.06535 -1.32606 0
M  V30 2042 O 187.859 1.07853 -1.61497 0
M  V30 2043 C 184.989 1.56919 -3.09829 0
M  V30 2044 C 183.943 1.07054 -4.14395 0
M  V30 2045 C 183.269 2.29109 -4.83129 0
M  V30 2046 C 184.569 0.140015 -5.22112 0
M  V30 2047 H 186.263 -0.198026 -2.98744 0
M  V30 2048 H 183.809 -0.09668 -1.43675 0
M  V30 2049 H 185.762 2.15503 -3.62128 0
M  V30 2050 H 184.486 2.23532 -2.3812 0
M  V30 2051 H 183.145 0.507247 -3.63074 0
M  V30 2052 H 182.793 2.94227 -4.0797 0
M  V30 2053 H 182.493 1.96406 -5.53804 0
M  V30 2054 H 184.017 2.88339 -5.38231 0
M  V30 2055 H 185.431 0.633978 -5.69784 0
M  V30 2056 H 183.828 -0.0971485 -6.00021 0
M  V30 2057 H 184.898 -0.811711 -4.78058 0
M  V30 2058 N 186.241 1.57166 -0.116904 0
M  V30 2059 C 187.518 1.86645 0.585049 0
M  V30 2060 C 187.898 1.0177 1.84949 0
M  V30 2061 O 187.246 0.0960379 2.28298 0
M  V30 2062 C 187.456 3.37736 0.879507 0
M  V30 2063 C 188.804 4.06289 1.23348 0
M  V30 2064 O 189.828 3.42743 0.969836 0
M  V30 2065 O 188.687 5.18455 1.7282 0
M  V30 2066 H 185.781 0.772593 0.295007 0
M  V30 2067 H 188.327 1.69025 -0.151249 0
M  V30 2068 H 187.099 3.91296 -0.0166136 0
M  V30 2069 H 186.722 3.6078 1.67103 0
M  V30 2070 N 187.719 -0.156864 1.56817 0
M  V30 2071 C 188.996 -0.899244 1.73704 0
M  V30 2072 C 189.376 -1.99771 0.682254 0
M  V30 2073 O 188.724 -2.26515 -0.300522 0
M  V30 2074 C 188.934 -1.45075 3.17418 0
M  V30 2075 C 190.282 -1.91802 3.7881 0
M  V30 2076 O 191.306 -1.54838 3.20786 0
M  V30 2077 O 190.165 -2.5994 4.80722 0
M  V30 2078 H 187.259 -0.424267 0.709878 0
M  V30 2079 H 189.805 -0.143561 1.69092 0
M  V30 2080 H 188.577 -0.660846 3.85679 0
M  V30 2081 H 188.2 -2.27021 3.26416 0
M  V30 2082 N 189.197 -1.51736 -0.425897 0
M  V30 2083 C 190.127 -1.76827 -1.52494 0
M  V30 2084 C 191.108 -0.618524 -1.58456 0
M  V30 2085 O 192.293 -0.862416 -1.74 0
M  V30 2086 C 189.423 -1.90374 -2.90474 0
M  V30 2087 C 188.377 -3.0588 -2.99369 0
M  V30 2088 C 187.703 -3.04625 -4.3944 0
M  V30 2089 C 189.003 -4.45644 -2.72394 0
M  V30 2090 H 190.697 -2.68855 -1.31748 0
M  V30 2091 H 188.243 -1.29372 -0.632362 0
M  V30 2092 H 190.196 -2.0651 -3.6733 0
M  V30 2093 H 188.92 -0.95004 -3.12477 0
M  V30 2094 H 187.579 -2.89467 -2.24954 0
M  V30 2095 H 187.227 -2.0701 -4.58428 0
M  V30 2096 H 186.927 -3.82195 -4.46319 0
M  V30 2097 H 188.451 -3.22869 -5.18255 0
M  V30 2098 H 189.865 -4.62348 -3.38979 0
M  V30 2099 H 188.262 -5.25006 -2.9067 0
M  V30 2100 H 189.332 -4.54893 -1.67929 0
M  V30 2101 N 190.675 0.682077 -1.42076 0
M  V30 2102 C 191.622 1.79578 -1.44984 0
M  V30 2103 C 192.592 1.6332 -0.302614 0
M  V30 2104 O 193.777 1.83978 -0.505633 0
M  V30 2105 C 190.917 3.1756 -1.35091 0
M  V30 2106 C 190.03 3.45156 -2.59791 0
M  V30 2107 C 189.165 4.72826 -2.42093 0
M  V30 2108 C 188.204 4.93433 -3.62202 0
M  V30 2109 N 187.341 6.12338 -3.43491 0
M  V30 2110 H 192.181 1.76427 -2.40161 0
M  V30 2111 H 189.718 0.861376 -1.19242 0
M  V30 2112 H 191.676 3.97287 -1.27354 0
M  V30 2113 H 190.306 3.19854 -0.435133 0
M  V30 2114 H 189.358 2.59736 -2.77923 0
M  V30 2115 H 190.67 3.5628 -3.49094 0
M  V30 2116 H 189.824 5.60631 -2.319 0
M  V30 2117 H 188.563 4.63973 -1.50268 0
M  V30 2118 H 187.568 4.04073 -3.72834 0
M  V30 2119 H 188.793 5.04136 -4.54998 0
M  V30 2120 H 186.739 6.04672 -2.54377 0
M  V30 2121 H 186.656 6.2429 -4.26377 0
M  V30 2122 H 187.924 7.02841 -3.37097 0
M  V30 2123 N 192.153 1.28127 0.917671 0
M  V30 2124 C 193.083 1.14248 2.03641 0
M  V30 2125 C 194.064 0.0412748 1.7005 0
M  V30 2126 O 195.249 0.217566 1.92977 0
M  V30 2127 C 192.379 0.799431 3.37974 0
M  V30 2128 C 191.333 1.85497 3.85713 0
M  V30 2129 C 190.659 1.36565 5.16966 0
M  V30 2130 C 191.959 3.26085 4.08002 0
M  V30 2131 H 193.653 2.07835 2.15511 0
M  V30 2132 H 191.199 1.00064 1.03553 0
M  V30 2133 H 193.152 0.689114 4.15727 0
M  V30 2134 H 191.876 -0.172145 3.26146 0
M  V30 2135 H 190.535 1.95437 3.10161 0
M  V30 2136 H 190.183 0.383253 5.01538 0
M  V30 2137 H 189.883 2.07143 5.49878 0
M  V30 2138 H 191.407 1.26848 5.97279 0
M  V30 2139 H 192.821 3.19089 4.76293 0
M  V30 2140 H 191.218 3.94462 4.52238 0
M  V30 2141 H 192.288 3.70394 3.12948 0
M  V30 2142 N 193.631 -1.12557 1.10312 0
M  V30 2143 C 194.541 -2.21841 0.763142 0
M  V30 2144 C 195.557 -1.72354 -0.238801 0
M  V30 2145 O 196.733 -2.01249 -0.0778746 0
M  V30 2146 C 193.798 -3.46131 0.198632 0
M  V30 2147 C 192.859 -4.10464 1.25769 0
M  V30 2148 C 192.092 -5.28821 0.72002 0
M  V30 2149 O 192.315 -5.6859 -0.453993 0
M  V30 2150 O 191.249 -5.83437 1.47935 0
M  V30 2151 H 195.075 -2.53312 1.67532 0
M  V30 2152 H 192.66 -1.20867 0.878157 0
M  V30 2153 H 194.542 -4.2125 -0.112401 0
M  V30 2154 H 193.217 -3.16338 -0.686419 0
M  V30 2155 H 192.124 -3.3713 1.62156 0
M  V30 2156 H 193.457 -4.44408 2.11571 0
M  V30 2157 N 195.109 -0.891671 -1.2995 0
M  V30 2158 C 196.525 -0.58662 -1.48428 0
M  V30 2159 C 196.725 0.873951 -1.81561 0
M  V30 2160 O 195.781 1.65471 -1.90724 0
M  V30 2161 C 197.094 -1.50553 -2.60296 0
M  V30 2162 C 198.642 -1.50988 -2.74175 0
M  V30 2163 C 199.117 -2.41488 -3.89163 0
M  V30 2164 N 200.608 -2.39489 -3.96483 0
M  V30 2165 C 201.343 -3.06223 -4.84784 0
M  V30 2166 N 200.839 -3.82206 -5.77833 0
M  V30 2167 N 202.632 -2.95421 -4.78208 0
M  V30 2168 H 194.783 -1.83644 -1.06718 0
M  V30 2169 H 197.046 -0.786455 -0.529332 0
M  V30 2170 H 196.752 -2.54581 -2.42654 0
M  V30 2171 H 196.626 -1.22008 -3.56923 0
M  V30 2172 H 199.013 -0.47708 -2.91218 0
M  V30 2173 H 199.094 -1.83567 -1.78148 0
M  V30 2174 H 198.738 -3.44857 -3.72876 0
M  V30 2175 H 198.668 -2.06222 -4.84541 0
M  V30 2176 H 201.159 -1.84278 -3.29924 0
M  V30 2177 H 201.472 -4.302 -6.41988 0
M  V30 2178 H 199.817 -3.86313 -5.77743 0
M  V30 2179 H 203.008 -2.35581 -4.04499 0
M  V30 2180 H 203.181 -3.47704 -5.46814 0
M  V30 2181 N 196.587 1.43421 -0.653314 0
M  V30 2182 C 197.998 1.85065 -0.246537 0
M  V30 2183 C 198.349 1.54688 1.2069 0
M  V30 2184 O 197.474 0.995896 1.92122 0
M  V30 2185 C 198.069 3.35922 -0.440666 0
M  V30 2186 C 196.628 3.76297 -0.0882064 0
M  V30 2187 C 195.775 2.67147 -0.743484 0
M  V30 2188 H 198.726 1.33572 -0.856979 0
M  V30 2189 H 198.747 3.79204 0.313798 0
M  V30 2190 H 198.259 3.58 -1.49858 0
M  V30 2191 H 196.36 3.5983 0.96711 0
M  V30 2192 H 196.473 4.76338 -0.513738 0
M  V30 2193 H 194.837 2.54086 -0.176712 0
M  V30 2194 H 195.62 2.92053 -1.80443 0
M  V30 2195 N 198.065 0.39524 1.52563 0
M  V30 2196 C 199.012 -0.437036 2.26624 0
M  V30 2197 C 199.982 -1.05281 1.28472 0
M  V30 2198 O 201.167 -1.07971 1.57311 0
M  V30 2199 C 198.307 -1.55524 3.08069 0
M  V30 2200 C 197.42 -0.961745 4.21158 0
M  V30 2201 C 196.555 -2.05149 4.89987 0
M  V30 2202 C 195.594 -1.4342 5.95061 0
M  V30 2203 N 194.731 -2.46351 6.57462 0
M  V30 2204 H 199.571 0.200976 2.97322 0
M  V30 2205 H 197.108 0.110944 1.46681 0
M  V30 2206 H 199.066 -2.21437 3.53584 0
M  V30 2207 H 197.696 -2.16348 2.3957 0
M  V30 2208 H 196.748 -0.192048 3.79915 0
M  V30 2209 H 198.06 -0.470701 4.96574 0
M  V30 2210 H 197.214 -2.78819 5.38837 0
M  V30 2211 H 195.953 -2.57615 4.14109 0
M  V30 2212 H 194.958 -0.682774 5.45544 0
M  V30 2213 H 196.183 -0.917416 6.72875 0
M  V30 2214 H 194.129 -2.97975 5.8442 0
M  V30 2215 H 194.046 -2.02019 7.28508 0
M  V30 2216 H 195.314 -3.19633 7.10954 0
M  V30 2217 N 199.544 -1.57102 0.125237 0
M  V30 2218 C 200.772 -1.99761 -0.538797 0
M  V30 2219 C 201.187 -1.00503 -1.59827 0
M  V30 2220 O 200.544 0.00119474 -1.825 0
M  V30 2221 C 200.595 -3.42408 -1.15927 0
M  V30 2222 O 200.316 -4.37869 -0.142143 0
M  V30 2223 C 201.817 -4.00232 -1.90602 0
M  V30 2224 H 199.037 -0.655772 -0.14214 0
M  V30 2225 H 201.581 -2.03383 0.213413 0
M  V30 2226 H 199.736 -3.39706 -1.86223 0
M  V30 2227 H 200.15 -5.21128 -0.593775 0
M  V30 2228 H 201.624 -5.02105 -2.29335 0
M  V30 2229 H 202.101 -3.39721 -2.78363 0
M  V30 2230 H 202.707 -4.06499 -1.25055 0
M  V30 2231 N 201.022 0.148545 -1.56898 0
M  V30 2232 C 201.969 1.18345 -1.98149 0
M  V30 2233 C 202.939 1.42772 -0.848848 0
M  V30 2234 O 204.124 1.55132 -1.11079 0
M  V30 2235 C 201.264 2.51231 -2.36594 0
M  V30 2236 C 200.377 2.33991 -3.63142 0
M  V30 2237 C 199.512 3.59902 -3.90697 0
M  V30 2238 C 198.551 3.37692 -5.1052 0
M  V30 2239 N 197.688 4.5573 -5.34092 0
M  V30 2240 H 202.528 0.82467 -2.86362 0
M  V30 2241 H 200.065 0.395756 -1.41676 0
M  V30 2242 H 202.023 3.28713 -2.56912 0
M  V30 2243 H 200.653 2.85059 -1.51463 0
M  V30 2244 H 199.705 1.47572 -3.50609 0
M  V30 2245 H 201.017 2.13539 -4.5078 0
M  V30 2246 H 200.171 4.45813 -4.11505 0
M  V30 2247 H 198.91 3.83357 -3.01477 0
M  V30 2248 H 197.915 2.5017 -4.89587 0
M  V30 2249 H 199.14 3.15637 -6.0129 0
M  V30 2250 H 197.086 4.79361 -4.47827 0
M  V30 2251 H 197.003 4.38274 -6.15996 0
M  V30 2252 H 198.271 5.42858 -5.59397 0
M  V30 2253 N 202.5 1.5196 0.417844 0
M  V30 2254 C 203.725 1.69717 1.1921 0
M  V30 2255 C 204.15 0.402148 1.83751 0
M  V30 2256 O 203.508 -0.639593 1.69643 0
M  V30 2257 C 203.556 2.82794 2.2374 0
M  V30 2258 O 202.66 2.47756 3.29683 0
M  V30 2259 H 202.001 0.565263 0.348387 0
M  V30 2260 H 204.531 1.98621 0.490985 0
M  V30 2261 H 204.541 3.07452 2.68212 0
M  V30 2262 H 203.216 3.76756 1.76146 0
M  V30 2263 H 201.793 2.33739 2.90552 0
M  V30 2264 N 203.978 -0.674533 1.42435 0
M  V30 2265 C 204.908 -1.80009 1.48724 0
M  V30 2266 C 205.889 -1.6659 0.343793 0
M  V30 2267 O 207.074 -1.86007 0.558137 0
M  V30 2268 C 204.204 -3.18306 1.38919 0
M  V30 2269 C 203.158 -3.46461 2.51294 0
M  V30 2270 C 202.484 -4.84335 2.26547 0
M  V30 2271 C 203.784 -3.43328 3.93603 0
M  V30 2272 H 205.478 -1.75004 2.42928 0
M  V30 2273 H 203.024 -0.840533 1.16923 0
M  V30 2274 H 204.977 -3.9678 1.41927 0
M  V30 2275 H 203.701 -3.2399 0.412094 0
M  V30 2276 H 202.36 -2.70348 2.47604 0
M  V30 2277 H 202.008 -4.86669 1.2713 0
M  V30 2278 H 201.708 -5.04136 3.01861 0
M  V30 2279 H 203.232 -5.65094 2.31304 0
M  V30 2280 H 204.646 -4.11772 3.98894 0
M  V30 2281 H 203.043 -3.74664 4.68771 0
M  V30 2282 H 204.113 -2.41897 4.20255 0
M  V30 2283 N 205.456 -1.28612 -0.910864 0
M  V30 2284 C 206.403 -1.12786 -2.01365 0
M  V30 2285 C 207.373 -0.024201 -1.66082 0
M  V30 2286 O 208.558 -0.189667 -1.89855 0
M  V30 2287 C 205.698 -0.798743 -3.35729 0
M  V30 2288 C 204.811 -1.98173 -3.83864 0
M  V30 2289 C 203.946 -1.59298 -5.06752 0
M  V30 2290 C 202.985 -2.74245 -5.47226 0
M  V30 2291 N 202.122 -2.35842 -6.61304 0
M  V30 2292 H 206.962 -2.07142 -2.14234 0
M  V30 2293 H 204.499 -1.03093 -1.0493 0
M  V30 2294 H 206.457 -0.588662 -4.13026 0
M  V30 2295 H 205.087 0.10789 -3.2262 0
M  V30 2296 H 204.139 -2.30386 -3.02699 0
M  V30 2297 H 205.451 -2.84343 -4.09818 0
M  V30 2298 H 204.605 -1.34513 -5.916 0
M  V30 2299 H 203.344 -0.702618 -4.82612 0
M  V30 2300 H 202.349 -2.99725 -4.60918 0
M  V30 2301 H 203.574 -3.63928 -5.73353 0
M  V30 2302 H 201.52 -1.49279 -6.38789 0
M  V30 2303 H 201.437 -3.15546 -6.86998 0
M  V30 2304 H 202.705 -2.14348 -7.4945 0
M  V30 2305 N 206.934 1.1197 -1.10907 0
M  V30 2306 C 207.844 2.21433 -0.774896 0
M  V30 2307 C 208.86 1.72478 0.229657 0
M  V30 2308 O 210.036 2.01288 0.0672008 0
M  V30 2309 C 207.101 3.4602 -0.216986 0
M  V30 2310 C 206.162 4.09791 -1.27944 0
M  V30 2311 C 205.395 5.28431 -0.748055 0
M  V30 2312 O 205.618 5.68823 0.423833 0
M  V30 2313 O 204.552 5.82644 -1.51027 0
M  V30 2314 H 208.378 2.5242 -1.68873 0
M  V30 2315 H 205.963 1.20399 -0.884555 0
M  V30 2316 H 207.845 4.21304 0.090059 0
M  V30 2317 H 206.52 3.16698 0.669633 0
M  V30 2318 H 205.427 3.36265 -1.63941 0
M  V30 2319 H 206.76 4.4328 -2.13925 0
M  V30 2320 N 208.412 0.89855 1.29475 0
M  V30 2321 C 209.661 0.519863 1.94885 0
M  V30 2322 C 209.974 -0.9383 1.71625 0
M  V30 2323 O 211.18 -1.42445 2.31131 0
M  V30 2324 C 209.636 0.878836 3.49005 0
M  V30 2325 C 209.244 2.35569 3.81066 0
M  V30 2326 C 210.988 0.570004 4.20656 0
M  V30 2327 C 208.895 2.65558 5.28425 0
M  V30 2328 H 207.825 0.190692 0.729488 0
M  V30 2329 H 210.476 1.09539 1.47219 0
M  V30 2330 H 208.858 0.232253 3.95318 0
M  V30 2331 H 210.032 3.04773 3.45616 0
M  V30 2332 H 208.347 2.63343 3.22552 0
M  V30 2333 H 210.944 0.770925 5.29113 0
M  V30 2334 H 211.287 -0.491404 4.1339 0
M  V30 2335 H 211.82 1.17438 3.8007 0
M  V30 2336 H 208.559 3.70493 5.40754 0
M  V30 2337 H 208.079 2.00977 5.65127 0
M  V30 2338 H 209.758 2.51765 5.96006 0
M  V30 2339 N 209.89 -1.43072 0.660911 0
M  V30 2340 C 210.82 -2.33497 -0.0122829 0
M  V30 2341 C 211.801 -1.49903 -0.803925 0
M  V30 2342 O 212.986 -1.78546 -0.763864 0
M  V30 2343 C 210.116 -3.33363 -0.973994 0
M  V30 2344 C 209.07 -4.27003 -0.291928 0
M  V30 2345 C 208.396 -5.16967 -1.36562 0
M  V30 2346 C 209.696 -5.15816 0.820462 0
M  V30 2347 H 211.39 -2.90038 0.742873 0
M  V30 2348 H 208.936 -1.39461 0.358688 0
M  V30 2349 H 210.889 -3.95524 -1.45392 0
M  V30 2350 H 209.613 -2.75095 -1.7604 0
M  V30 2351 H 208.272 -3.66217 0.167623 0
M  V30 2352 H 207.92 -4.55034 -2.14366 0
M  V30 2353 H 207.62 -5.80441 -0.914454 0
M  V30 2354 H 209.144 -5.82003 -1.84675 0
M  V30 2355 H 210.558 -5.71742 0.422366 0
M  V30 2356 H 208.955 -5.8805 1.19656 0
M  V30 2357 H 210.025 -4.55045 1.67518 0
M  V30 2358 N 211.368 -0.403325 -1.52352 0
M  V30 2359 C 212.3 0.4603 -2.2453 0
M  V30 2360 C 213.313 1.01505 -1.27282 0
M  V30 2361 O 214.502 0.914982 -1.53266 0
M  V30 2362 C 211.602 1.65208 -2.95905 0
M  V30 2363 C 210.775 1.22224 -4.19976 0
M  V30 2364 C 209.834 2.28028 -4.74226 0
M  V30 2365 O 208.86 1.88857 -5.36956 0
M  V30 2366 N 210.062 3.6012 -4.55295 0
M  V30 2367 H 212.827 -0.158156 -2.99282 0
M  V30 2368 H 210.388 -0.230402 -1.60252 0
M  V30 2369 H 212.38 2.35541 -3.29093 0
M  V30 2370 H 210.95 2.17658 -2.24374 0
M  V30 2371 H 210.17 0.34725 -3.92668 0
M  V30 2372 H 211.458 0.911924 -5.00561 0
M  V30 2373 H 210.856 3.94698 -4.05253 0
M  V30 2374 H 209.413 4.26447 -4.92936 0
M  V30 2375 N 212.846 1.57033 -0.133567 0
M  V30 2376 C 213.794 2.17348 0.828412 0
M  V30 2377 C 214.788 1.12671 1.26498 0
M  V30 2378 O 215.994 1.30947 1.23502 0
M  V30 2379 H 212.369 0.695775 0.285309 0
M  V30 2380 H 214.34 2.96935 0.295372 0
M  V30 2381 C 213.089 2.79893 2.06289 0
M  V30 2382 H 212.412 3.60147 1.73592 0
M  V30 2383 H 213.852 3.25615 2.71572 0
M  V30 2384 C 212.311 1.77713 2.86216 0
M  V30 2385 O 212.841 1.23937 3.82103 0
M  V30 2386 N 211.047 1.47321 2.50489 0
M  V30 2387 H 210.594 1.91243 1.7258 0
M  V30 2388 H 210.552 0.79199 3.04261 0
M  V30 2389 N 214.325 -0.140222 1.56975 0
M  V30 2390 C 215.255 -1.17456 2.01808 0
M  V30 2391 C 216.236 -1.44415 0.898794 0
M  V30 2392 O 217.421 -1.5522 1.16707 0
M  V30 2393 C 214.551 -2.50607 2.40444 0
M  V30 2394 C 213.505 -2.38155 3.55621 0
M  V30 2395 C 212.831 -3.76078 3.80091 0
M  V30 2396 C 214.131 -1.85991 4.88062 0
M  V30 2397 H 215.825 -0.801743 2.88466 0
M  V30 2398 H 213.371 -0.38422 1.38779 0
M  V30 2399 H 215.324 -3.23197 2.7041 0
M  V30 2400 H 214.048 -2.89737 1.50732 0
M  V30 2401 H 212.707 -1.68016 3.25832 0
M  V30 2402 H 212.355 -4.12656 2.87618 0
M  V30 2403 H 212.055 -3.68606 4.57606 0
M  V30 2404 H 213.579 -4.50206 4.12488 0
M  V30 2405 H 214.993 -2.4838 5.16701 0
M  V30 2406 H 213.39 -1.89393 5.6943 0
M  V30 2407 H 214.46 -0.816023 4.77984 0
M  V30 2408 N 215.803 -1.52179 -0.40978 0
M  V30 2409 C 216.735 -1.71703 -1.51825 0
M  V30 2410 C 217.748 -0.597445 -1.51441 0
M  V30 2411 O 218.937 -0.872582 -1.55719 0
M  V30 2412 C 216.037 -1.74171 -2.90719 0
M  V30 2413 C 215.21 -3.03156 -3.15302 0
M  V30 2414 C 214.269 -2.97445 -4.34065 0
M  V30 2415 O 213.295 -3.71352 -4.31377 0
M  V30 2416 N 214.497 -2.15191 -5.39141 0
M  V30 2417 H 217.262 -2.67334 -1.35472 0
M  V30 2418 H 214.823 -1.50409 -0.599069 0
M  V30 2419 H 216.815 -1.67884 -3.68235 0
M  V30 2420 H 215.385 -0.860166 -3.00533 0
M  V30 2421 H 214.605 -3.23097 -2.25836 0
M  V30 2422 H 215.893 -3.88484 -3.28569 0
M  V30 2423 H 215.291 -1.54573 -5.44173 0
M  V30 2424 H 213.848 -2.1476 -6.15403 0
M  V30 2425 N 217.281 0.66697 -1.42791 0
M  V30 2426 C 218.211 1.79218 -1.49677 0
M  V30 2427 C 219.192 1.66405 -0.352623 0
M  V30 2428 O 220.377 1.85708 -0.567993 0
M  V30 2429 C 217.507 3.17565 -1.40605 0
M  V30 2430 C 216.461 3.45124 -2.53127 0
M  V30 2431 C 215.787 4.83127 -2.29112 0
M  V30 2432 C 217.087 3.41236 -3.95418 0
M  V30 2433 H 218.781 1.73713 -2.43853 0
M  V30 2434 H 216.327 0.83432 -1.17367 0
M  V30 2435 H 218.28 3.96022 -1.44029 0
M  V30 2436 H 217.004 3.23767 -0.429271 0
M  V30 2437 H 215.663 2.69031 -2.49034 0
M  V30 2438 H 215.311 4.85988 -1.29709 0
M  V30 2439 H 215.011 5.02528 -3.04531 0
M  V30 2440 H 216.535 5.63859 -2.34297 0
M  V30 2441 H 217.949 4.09651 -4.01073 0
M  V30 2442 H 216.346 3.72173 -4.70752 0
M  V30 2443 H 217.416 2.39665 -4.21532 0
M  V30 2444 N 218.759 1.29093 0.90403 0
M  V30 2445 C 219.984 1.19809 1.69294 0
M  V30 2446 C 220.409 -0.238481 1.86582 0
M  V30 2447 O 219.767 -1.1723 1.383 0
M  V30 2448 C 219.815 1.91202 3.05736 0
M  V30 2449 O 218.919 1.22611 3.93752 0
M  V30 2450 H 218.26 0.415385 0.518027 0
M  V30 2451 H 220.79 1.70586 1.12967 0
M  V30 2452 H 220.8 1.99487 3.55906 0
M  V30 2453 H 219.475 2.95692 2.92471 0
M  V30 2454 H 218.052 1.22554 3.52186 0
M  V30 2455 N 220.237 -1.11381 1.11499 0
M  V30 2456 C 221.514 -1.7955 0.775965 0
M  V30 2457 C 221.894 -1.97859 -0.73588 0
M  V30 2458 O 221.242 -1.56376 -1.66609 0
M  V30 2459 C 221.452 -3.13196 1.53977 0
M  V30 2460 C 222.8 -3.88227 1.71944 0
M  V30 2461 O 223.824 -3.22887 1.50407 0
M  V30 2462 O 222.683 -5.05477 2.07738 0
M  V30 2463 H 219.777 -0.777728 0.28119 0
M  V30 2464 H 222.323 -1.18118 1.21845 0
M  V30 2465 H 221.095 -2.95229 2.56818 0
M  V30 2466 H 220.718 -3.82342 1.09088 0
M  V30 2467 N 221.715 -0.905404 -1.28997 0
M  V30 2468 C 222.662 -0.385892 -2.27551 0
M  V30 2469 C 223.632 0.535113 -1.57244 0
M  V30 2470 O 224.817 0.459119 -1.85194 0
M  V30 2471 C 221.957 0.375461 -3.43051 0
M  V30 2472 C 221.07 -0.577092 -4.28128 0
M  V30 2473 C 220.205 0.201879 -5.30816 0
M  V30 2474 C 219.244 -0.744829 -6.07551 0
M  V30 2475 N 218.381 9.42587e-05 -7.021 0
M  V30 2476 H 223.221 -1.23139 -2.71368 0
M  V30 2477 H 220.758 -0.618542 -1.33463 0
M  V30 2478 H 222.716 0.832992 -4.088 0
M  V30 2479 H 221.346 1.18537 -3.00248 0
M  V30 2480 H 220.398 -1.15315 -3.62501 0
M  V30 2481 H 221.71 -1.30152 -4.8152 0
M  V30 2482 H 220.864 0.720351 -6.02408 0
M  V30 2483 H 219.603 0.959413 -4.7817 0
M  V30 2484 H 218.608 -1.27475 -5.34818 0
M  V30 2485 H 219.833 -1.50178 -6.62286 0
M  V30 2486 H 217.779 0.739791 -6.51815 0
M  V30 2487 H 217.696 -0.664321 -7.53076 0
M  V30 2488 H 218.964 0.498644 -7.77903 0
M  V30 2489 N 223.193 1.4272 -0.668489 0
M  V30 2490 C 224.14 2.30796 0.0137489 0
M  V30 2491 C 225.11 1.4561 0.799177 0
M  V30 2492 O 226.295 1.74453 0.772702 0
M  V30 2493 C 223.435 3.31377 0.963507 0
M  V30 2494 C 222.548 4.31655 0.172569 0
M  V30 2495 C 221.683 5.19312 1.1175 0
M  V30 2496 C 220.722 6.11274 0.317886 0
M  V30 2497 N 219.859 6.91504 1.2152 0
M  V30 2498 H 224.699 2.88585 -0.743161 0
M  V30 2499 H 222.236 1.42154 -0.378226 0
M  V30 2500 H 224.194 3.88214 1.52792 0
M  V30 2501 H 222.824 2.75202 1.68712 0
M  V30 2502 H 221.876 3.76988 -0.508374 0
M  V30 2503 H 223.188 4.96779 -0.448527 0
M  V30 2504 H 222.342 5.80851 1.75206 0
M  V30 2505 H 221.081 4.5435 1.77249 0
M  V30 2506 H 220.086 5.48809 -0.329918 0
M  V30 2507 H 221.311 6.78283 -0.332917 0
M  V30 2508 H 219.257 6.29176 1.85671 0
M  V30 2509 H 219.174 7.53209 0.649036 0
M  V30 2510 H 220.442 7.57535 1.83742 0
M  V30 2511 N 224.671 0.411399 1.52136 0
M  V30 2512 C 225.899 -0.163076 2.06256 0
M  V30 2513 C 226.314 -1.3867 1.28125 0
M  V30 2514 O 225.671 -1.79423 0.333721 0
M  V30 2515 C 225.722 -0.511252 3.57867 0
M  V30 2516 O 225.443 0.66378 4.33042 0
M  V30 2517 C 226.944 -1.13921 4.28412 0
M  V30 2518 H 224.164 -0.0193897 0.67072 0
M  V30 2519 H 226.708 0.583007 1.96013 0
M  V30 2520 H 224.863 -1.20723 3.6811 0
M  V30 2521 H 225.277 0.372601 5.23175 0
M  V30 2522 H 226.751 -1.33302 5.35663 0
M  V30 2523 H 227.228 -2.11296 3.85033 0
M  V30 2524 H 227.834 -0.483373 4.22544 0
M  V30 2525 N 226.149 -1.5696 0.141893 0
M  V30 2526 C 227.079 -2.19516 -0.795936 0
M  V30 2527 C 228.06 -1.14187 -1.26077 0
M  V30 2528 O 229.245 -1.42511 -1.31925 0
M  V30 2529 C 226.375 -2.81272 -2.03723 0
M  V30 2530 C 225.329 -3.92384 -1.70936 0
M  V30 2531 C 224.655 -4.41052 -3.02287 0
M  V30 2532 C 225.955 -5.13403 -0.959954 0
M  V30 2533 H 227.649 -2.98138 -0.274596 0
M  V30 2534 H 225.195 -1.43406 -0.130636 0
M  V30 2535 H 227.148 -3.237 -2.69808 0
M  V30 2536 H 225.872 -1.99973 -2.58221 0
M  V30 2537 H 224.531 -3.50566 -1.07232 0
M  V30 2538 H 224.179 -3.56582 -3.54765 0
M  V30 2539 H 223.879 -5.15993 -2.81114 0
M  V30 2540 H 225.403 -4.86146 -3.69451 0
M  V30 2541 H 226.817 -5.52706 -1.52279 0
M  V30 2542 H 225.214 -5.94073 -0.848357 0
M  V30 2543 H 226.284 -4.84875 0.0492434 0
M  V30 2544 N 227.627 0.131896 -1.57047 0
M  V30 2545 C 228.876 0.84044 -1.83356 0
M  V30 2546 C 229.189 1.81646 -0.725535 0
M  V30 2547 O 230.395 2.57025 -0.874659 0
M  V30 2548 C 228.851 1.54528 -3.25037 0
M  V30 2549 C 228.459 0.610902 -4.43815 0
M  V30 2550 C 230.203 2.23972 -3.60606 0
M  V30 2551 C 228.11 1.31823 -5.76521 0
M  V30 2552 H 227.04 0.317599 -0.683847 0
M  V30 2553 H 229.691 0.0931561 -1.83263 0
M  V30 2554 H 228.073 2.33873 -3.19561 0
M  V30 2555 H 229.247 -0.148407 -4.60561 0
M  V30 2556 H 227.562 0.0241016 -4.16393 0
M  V30 2557 H 230.159 2.77558 -4.57018 0
M  V30 2558 H 230.502 3.01173 -2.87403 0
M  V30 2559 H 231.035 1.51529 -3.6781 0
M  V30 2560 H 227.774 0.587771 -6.52859 0
M  V30 2561 H 227.294 2.04987 -5.63685 0
M  V30 2562 H 228.973 1.855 -6.19838 0
M  V30 2563 N 229.106 1.52395 0.401703 0
M  V30 2564 C 230.352 1.67065 1.14966 0
M  V30 2565 C 230.685 0.403052 1.89971 0
M  V30 2566 O 229.96 -0.598774 1.85054 0
M  V30 2567 C 230.243 2.8975 2.13815 0
M  V30 2568 C 230.096 4.26578 1.42658 0
M  V30 2569 C 231.415 3.07965 3.14397 0
M  V30 2570 H 228.534 0.607968 0.416587 0
M  V30 2571 H 231.176 1.84965 0.434511 0
M  V30 2572 H 229.326 2.74619 2.74803 0
M  V30 2573 H 230.998 4.53451 0.847329 0
M  V30 2574 H 229.241 4.27639 0.72849 0
M  V30 2575 H 229.912 5.08483 2.14823 0
M  V30 2576 H 232.388 3.22043 2.63491 0
M  V30 2577 H 231.264 3.95308 3.80819 0
M  V30 2578 H 231.525 2.21611 3.82545 0
M  V30 2579 N 230.584 -0.659388 1.43143 0
M  V30 2580 C 231.514 -1.78422 1.50625 0
M  V30 2581 C 232.495 -1.66216 0.361443 0
M  V30 2582 O 233.68 -1.85404 0.577834 0
M  V30 2583 C 230.81 -3.16815 1.42287 0
M  V30 2584 C 229.764 -3.43777 2.54954 0
M  V30 2585 C 229.09 -4.81905 2.31671 0
M  V30 2586 C 230.39 -3.39134 3.97222 0
M  V30 2587 H 232.084 -1.72417 2.44771 0
M  V30 2588 H 229.63 -0.828084 1.17808 0
M  V30 2589 H 231.583 -3.95253 1.46127 0
M  V30 2590 H 230.307 -3.23534 0.446435 0
M  V30 2591 H 228.966 -2.67707 2.50457 0
M  V30 2592 H 228.614 -4.85294 1.32284 0
M  V30 2593 H 228.314 -5.00906 3.07192 0
M  V30 2594 H 229.838 -5.62609 2.37284 0
M  V30 2595 H 231.252 -4.07518 4.03239 0
M  V30 2596 H 229.649 -3.69671 4.72719 0
M  V30 2597 H 230.719 -2.37426 4.22797 0
M  V30 2598 N 232.062 -1.29571 -0.897171 0
M  V30 2599 C 233.473 -1.15964 -1.46319 0
M  V30 2600 C 233.824 0.244267 -1.94674 0
M  V30 2601 O 232.949 1.13998 -1.83939 0
M  V30 2602 C 233.544 -2.09906 -2.65942 0
M  V30 2603 C 232.103 -2.00314 -3.18671 0
M  V30 2604 C 231.25 -2.00687 -1.91363 0
M  V30 2605 H 234.201 -1.42019 -0.708268 0
M  V30 2606 H 234.222 -1.67276 -3.41759 0
M  V30 2607 H 233.734 -3.12075 -2.30718 0
M  V30 2608 H 231.835 -1.01242 -3.58582 0
M  V30 2609 H 231.948 -2.88102 -3.82798 0
M  V30 2610 H 230.312 -1.45319 -2.09175 0
M  V30 2611 H 231.095 -3.04566 -1.58413 0
M  V30 2612 N 233.54 1.10788 -1.12088 0
M  V30 2613 C 234.786 1.8313 -0.885148 0
M  V30 2614 C 235.141 1.8336 0.582839 0
M  V30 2615 O 234.434 1.28062 1.42516 0
M  V30 2616 C 234.628 3.29294 -1.38926 0
M  V30 2617 C 234.457 3.43302 -2.90472 0
M  V30 2618 C 233.227 3.55928 -3.58669 0
M  V30 2619 C 235.425 3.37014 -3.88492 0
M  V30 2620 N 233.407 3.58475 -4.98366 0
M  V30 2621 C 234.778 3.46263 -5.14298 0
M  V30 2622 C 236.833 3.20589 -3.80955 0
M  V30 2623 C 235.536 3.4078 -6.33452 0
M  V30 2624 C 237.562 3.16427 -4.99628 0
M  V30 2625 C 236.924 3.26253 -6.2429 0
M  V30 2626 H 233.023 0.685054 -0.377128 0
M  V30 2627 H 235.607 1.3251 -1.4265 0
M  V30 2628 H 233.778 3.78416 -0.874999 0
M  V30 2629 H 235.51 3.89578 -1.09596 0
M  V30 2630 H 232.265 3.58779 -3.09151 0
M  V30 2631 H 232.689 3.6337 -5.71219 0
M  V30 2632 H 237.331 3.11873 -2.85474 0
M  V30 2633 H 235.049 3.48263 -7.29204 0
M  V30 2634 H 238.635 3.04874 -4.95523 0
M  V30 2635 H 237.515 3.2303 -7.14578 0
M  V30 2636 N 235.018 0.912232 1.28515 0
M  V30 2637 C 235.965 0.397954 2.27343 0
M  V30 2638 C 236.935 -0.526766 1.57526 0
M  V30 2639 O 238.12 -0.449292 1.85435 0
M  V30 2640 C 235.26 -0.357263 3.43246 0
M  V30 2641 C 234.373 0.599788 4.27816 0
M  V30 2642 C 233.508 -0.173725 5.30916 0
M  V30 2643 C 232.547 0.777039 6.07148 0
M  V30 2644 N 231.684 0.0371398 7.0209 0
M  V30 2645 H 236.524 1.24577 2.70711 0
M  V30 2646 H 234.061 0.625612 1.33133 0
M  V30 2647 H 236.019 -0.8113 4.09236 0
M  V30 2648 H 234.649 -1.16943 3.00872 0
M  V30 2649 H 233.701 1.17235 3.61884 0
M  V30 2650 H 235.013 1.32704 4.80823 0
M  V30 2651 H 234.167 -0.688394 6.02782 0
M  V30 2652 H 232.906 -0.934041 4.78672 0
M  V30 2653 H 231.911 1.3031 5.34134 0
M  V30 2654 H 233.136 1.53689 6.61481 0
M  V30 2655 H 231.082 -0.705213 6.52198 0
M  V30 2656 H 230.999 0.704249 7.52713 0
M  V30 2657 H 232.267 -0.457383 7.78157 0
M  V30 2658 N 236.496 -1.42363 0.676048 0
M  V30 2659 C 237.406 -2.346 -0.00153389 0
M  V30 2660 C 238.422 -1.5516 -0.787485 0
M  V30 2661 O 239.598 -1.87723 -0.729521 0
M  V30 2662 C 236.663 -3.33705 -0.940298 0
M  V30 2663 C 235.724 -4.29042 -0.148739 0
M  V30 2664 C 234.957 -5.23413 -1.04279 0
M  V30 2665 O 235.18 -5.22749 -2.28232 0
M  V30 2666 O 234.114 -5.99795 -0.502925 0
M  V30 2667 H 237.94 -2.94082 0.758268 0
M  V30 2668 H 235.525 -1.42888 0.436289 0
M  V30 2669 H 237.407 -3.94586 -1.47917 0
M  V30 2670 H 236.082 -2.76695 -1.67993 0
M  V30 2671 H 234.989 -3.71571 0.43427 0
M  V30 2672 H 236.322 -4.89097 0.551805 0
M  V30 2673 N 237.974 -0.419461 -1.51915 0
M  V30 2674 C 238.884 0.407528 -2.31033 0
M  V30 2675 C 239.9 1.04413 -1.3919 0
M  V30 2676 O 241.076 1.0434 -1.72265 0
M  V30 2677 C 238.141 1.50365 -3.12396 0
M  V30 2678 C 237.202 0.889029 -4.19994 0
M  V30 2679 C 236.435 1.93291 -4.97468 0
M  V30 2680 O 236.658 3.15259 -4.75361 0
M  V30 2681 O 235.592 1.53339 -5.8204 0
M  V30 2682 H 239.418 -0.237865 -3.02767 0
M  V30 2683 H 237.003 -0.182413 -1.48282 0
M  V30 2684 H 238.885 2.13975 -3.63032 0
M  V30 2685 H 237.56 2.13345 -2.43445 0
M  V30 2686 H 236.467 0.215353 -3.7348 0
M  V30 2687 H 237.8 0.302991 -4.91267 0
M  V30 2688 N 239.452 1.56882 -0.150215 0
M  V30 2689 C 240.7 1.9584 0.499105 0
M  V30 2690 C 241.021 1.03623 1.65188 0
M  V30 2691 O 240.291 0.0984084 1.95653 0
M  V30 2692 H 238.871 0.723119 0.187373 0
M  V30 2693 H 241.533 1.9358 -0.226466 0
M  V30 2694 H 240.629 2.99638 0.873122 0
M  V30 2695 N 240.93 -0.123565 1.57115 0
M  V30 2696 C 242.16 -0.845233 1.88519 0
M  V30 2697 C 242.568 -1.74168 0.739064 0
M  V30 2698 O 241.911 -1.81244 -0.299355 0
M  V30 2699 C 241.973 -1.73452 3.14888 0
M  V30 2700 C 241.637 -1.01285 4.45635 0
M  V30 2701 C 242.634 -0.355774 5.18681 0
M  V30 2702 C 240.319 -0.99538 4.92339 0
M  V30 2703 C 242.313 0.309114 6.3665 0
M  V30 2704 C 240 -0.32669 6.10226 0
M  V30 2705 C 240.998 0.324406 6.82229 0
M  V30 2706 O 240.686 0.982437 7.97874 0
M  V30 2707 H 240.418 -0.248534 0.628655 0
M  V30 2708 H 242.972 -0.113907 2.05084 0
M  V30 2709 H 241.202 -2.50737 2.94394 0
M  V30 2710 H 242.891 -2.33021 3.32349 0
M  V30 2711 H 243.657 -0.360918 4.83655 0
M  V30 2712 H 239.536 -1.49159 4.36202 0
M  V30 2713 H 243.08 0.8179 6.92789 0
M  V30 2714 H 238.977 -0.319294 6.4471 0
M  V30 2715 H 239.745 0.886454 8.13686 0
M  V30 2716 N 242.408 -1.52605 -0.393616 0
M  V30 2717 C 243.341 -1.71798 -1.50202 0
M  V30 2718 C 244.319 -0.565743 -1.52441 0
M  V30 2719 O 245.503 -0.794987 -1.70916 0
M  V30 2720 C 242.63 -1.7714 -2.88685 0
M  V30 2721 C 241.676 -2.98845 -3.04292 0
M  V30 2722 S 242.509 -4.58909 -2.75976 0
M  V30 2723 C 243.665 -4.6706 -4.1666 0
M  V30 2724 H 243.898 -2.65542 -1.33696 0
M  V30 2725 H 241.431 -1.42839 -0.586195 0
M  V30 2726 H 243.389 -1.80903 -3.68489 0
M  V30 2727 H 242.05 -0.844969 -3.02521 0
M  V30 2728 H 241.243 -2.99111 -4.05646 0
M  V30 2729 H 240.845 -2.9305 -2.32374 0
M  V30 2730 H 243.137 -4.45391 -5.10523 0
M  V30 2731 H 244.08 -5.6905 -4.21412 0
M  V30 2732 H 244.488 -3.95944 -4.02354 0
M  V30 2733 N 243.887 0.651787 -1.4349 0
M  V30 2734 C 244.835 1.78586 -1.49029 0
M  V30 2735 C 245.829 1.65448 -0.363767 0
M  V30 2736 O 247.035 1.71777 -0.537821 0
M  V30 2737 H 243.41 0.589236 -0.467231 0
M  V30 2738 H 245.381 1.71035 -2.44519 0
M  V30 2739 C 244.13 3.16851 -1.43181 0
M  V30 2740 H 243.453 3.27598 -2.29171 0
M  V30 2741 H 244.893 3.96156 -1.51118 0
M  V30 2742 C 243.352 3.36568 -0.149616 0
M  V30 2743 O 243.882 3.93885 0.788509 0
M  V30 2744 N 242.088 2.90539 -0.0593484 0
M  V30 2745 H 241.635 2.4408 -0.823575 0
M  V30 2746 H 241.593 3.04108 0.797853 0
M  V30 2747 N 245.365 1.30045 0.890287 0
M  V30 2748 C 246.611 1.18737 1.64406 0
M  V30 2749 C 246.944 -0.258525 1.92472 0
M  V30 2750 O 246.219 -1.18562 1.54186 0
M  V30 2751 C 246.502 2.01087 2.98724 0
M  V30 2752 C 246.355 3.53867 2.77665 0
M  V30 2753 C 247.674 1.84457 3.9958 0
M  V30 2754 H 244.793 0.432698 0.596608 0
M  V30 2755 H 247.435 1.5962 1.0306 0
M  V30 2756 H 245.585 1.66349 3.51084 0
M  V30 2757 H 247.257 3.98637 2.32133 0
M  V30 2758 H 245.5 3.78318 2.12269 0
M  V30 2759 H 246.171 4.06772 3.7315 0
M  V30 2760 H 248.647 2.14817 3.56361 0
M  V30 2761 H 247.523 2.44411 4.91482 0
M  V30 2762 H 247.784 0.802276 4.3476 0
M  V30 2763 N 246.843 -1.10192 1.12674 0
M  V30 2764 C 247.79 -2.16606 0.796906 0
M  V30 2765 C 248.76 -1.64394 -0.237476 0
M  V30 2766 O 249.945 -1.90474 -0.111484 0
M  V30 2767 C 247.085 -3.44116 0.26043 0
M  V30 2768 C 246.198 -4.10268 1.35293 0
M  V30 2769 C 245.333 -5.25507 0.775621 0
M  V30 2770 C 244.372 -5.83567 1.84706 0
M  V30 2771 N 243.509 -6.90179 1.28829 0
M  V30 2772 H 248.349 -2.44163 1.70846 0
M  V30 2773 H 245.886 -1.19846 0.85295 0
M  V30 2774 H 247.844 -4.17143 -0.0686814 0
M  V30 2775 H 246.474 -3.16901 -0.614274 0
M  V30 2776 H 245.526 -3.35184 1.79877 0
M  V30 2777 H 246.838 -4.4946 2.16303 0
M  V30 2778 H 245.992 -6.05398 0.397327 0
M  V30 2779 H 244.731 -4.87656 -0.0656581 0
M  V30 2780 H 243.736 -5.02344 2.23452 0
M  V30 2781 H 244.961 -6.23482 2.69161 0
M  V30 2782 H 242.907 -6.54322 0.468881 0
M  V30 2783 H 242.824 -7.28097 2.03497 0
M  V30 2784 H 244.092 -7.73844 0.937311 0
M  V30 2785 N 248.321 -0.919034 -1.28029 0
M  V30 2786 C 249.251 -0.428581 -2.29533 0
M  V30 2787 C 250.232 0.50659 -1.62381 0
M  V30 2788 O 251.417 0.413195 -1.89753 0
M  V30 2789 C 248.547 0.327388 -3.45753 0
M  V30 2790 C 247.501 -0.519137 -4.2484 0
M  V30 2791 C 246.827 0.365486 -5.33449 0
M  V30 2792 C 248.127 -1.77914 -4.91064 0
M  V30 2793 H 249.821 -1.27687 -2.70807 0
M  V30 2794 H 247.367 -0.615428 -1.30186 0
M  V30 2795 H 249.32 0.681378 -4.15855 0
M  V30 2796 H 248.044 1.20963 -3.03374 0
M  V30 2797 H 246.703 -0.855717 -3.56473 0
M  V30 2798 H 246.351 1.24642 -4.87312 0
M  V30 2799 H 246.051 -0.197356 -5.87268 0
M  V30 2800 H 247.575 0.715241 -6.06396 0
M  V30 2801 H 248.989 -1.49374 -5.53498 0
M  V30 2802 H 247.386 -2.2848 -5.54903 0
M  V30 2803 H 248.456 -2.50382 -4.15255 0
M  V30 2804 N 249.799 1.42003 -0.683588 0
M  V30 2805 C 251.024 2.06265 -0.216647 0
M  V30 2806 C 251.449 1.51059 1.12083 0
M  V30 2807 O 250.807 0.632638 1.69904 0
M  V30 2808 C 250.855 3.60191 -0.171759 0
M  V30 2809 O 249.959 4.03396 0.857069 0
M  V30 2810 H 249.3 0.65502 -0.108834 0
M  V30 2811 H 251.83 1.81982 -0.935077 0
M  V30 2812 H 251.84 4.08 0.0014303 0
M  V30 2813 H 250.515 3.99743 -1.14796 0
M  V30 2814 H 249.092 3.67117 0.654208 0
M  V30 2815 N 251.277 0.427512 1.51691 0
M  V30 2816 C 252.525 -0.141948 2.01601 0
M  V30 2817 C 252.846 -1.44067 1.31414 0
M  V30 2818 O 252.116 -1.90763 0.445658 0
M  V30 2819 H 250.696 -0.0554468 0.744939 0
M  V30 2820 H 253.358 0.567968 1.86441 0
M  V30 2821 H 252.454 -0.324913 3.10404 0
M  V30 2822 N 252.755 -1.56801 0.158532 0
M  V30 2823 C 254.171 -1.5837 -0.197774 0
M  V30 2824 C 254.371 -1.17334 -1.63814 0
M  V30 2825 O 253.427 -0.878988 -2.36707 0
M  V30 2826 C 254.74 -3.00615 0.0714459 0
M  V30 2827 C 256.288 -3.12999 0.00864533 0
M  V30 2828 C 256.763 -4.57313 0.250685 0
M  V30 2829 N 258.254 -4.62777 0.198014 0
M  V30 2830 C 258.989 -5.72271 0.359642 0
M  V30 2831 N 258.485 -6.90371 0.579625 0
M  V30 2832 N 260.278 -5.61318 0.296438 0
M  V30 2833 H 252.429 -1.81765 1.09887 0
M  V30 2834 H 254.692 -0.841849 0.435884 0
M  V30 2835 H 254.398 -3.35068 1.06874 0
M  V30 2836 H 254.272 -3.71683 -0.642757 0
M  V30 2837 H 256.659 -2.7838 -0.979217 0
M  V30 2838 H 256.74 -2.44393 0.755359 0
M  V30 2839 H 256.384 -4.92639 1.2357 0
M  V30 2840 H 256.314 -5.24061 -0.516489 0
M  V30 2841 H 258.805 -3.77885 0.0331115 0
M  V30 2842 H 259.118 -7.69689 0.69275 0
M  V30 2843 H 257.463 -6.92264 0.616087 0
M  V30 2844 H 260.654 -4.67932 0.125258 0
M  V30 2845 H 260.827 -6.46599 0.425831 0
M  V30 2846 N 254.233 0.115231 -1.57178 0
M  V30 2847 C 255.181 1.16014 -2.01602 0
M  V30 2848 C 256.175 1.42653 -0.913587 0
M  V30 2849 O 257.381 1.42571 -1.09879 0
M  V30 2850 H 253.756 0.391252 -0.642204 0
M  V30 2851 H 255.727 0.758998 -2.88586 0
M  V30 2852 C 254.476 2.47767 -2.4394 0
M  V30 2853 H 253.799 2.28108 -3.28339 0
M  V30 2854 H 255.239 3.19432 -2.78818 0
M  V30 2855 C 253.698 3.10617 -1.30455 0
M  V30 2856 O 254.228 3.96846 -0.622585 0
M  V30 2857 N 252.434 2.70553 -1.06064 0
M  V30 2858 H 251.981 2.00527 -1.61699 0
M  V30 2859 H 251.939 3.12934 -0.303284 0
M  V30 2860 N 255.711 1.52812 0.385517 0
M  V30 2861 C 256.641 1.80808 1.47752 0
M  V30 2862 C 257.622 0.660318 1.5676 0
M  V30 2863 O 258.807 0.908246 1.71652 0
M  V30 2864 C 255.937 1.98008 2.85324 0
M  V30 2865 C 254.891 3.13709 2.91154 0
M  V30 2866 C 254.217 3.16169 4.31209 0
M  V30 2867 C 255.517 4.52709 2.60483 0
M  V30 2868 H 257.211 2.72253 1.24573 0
M  V30 2869 H 254.757 1.31003 0.597839 0
M  V30 2870 H 256.71 2.16176 3.61726 0
M  V30 2871 H 255.434 1.03255 3.09848 0
M  V30 2872 H 254.093 2.95329 2.17201 0
M  V30 2873 H 253.741 2.19092 4.52778 0
M  V30 2874 H 253.441 3.93894 4.36029 0
M  V30 2875 H 254.965 3.36496 5.09512 0
M  V30 2876 H 256.379 4.71173 3.26602 0
M  V30 2877 H 254.776 5.32528 2.76648 0
M  V30 2878 H 255.846 4.59186 1.55809 0
M  V30 2879 N 257.189 -0.644168 1.43834 0
M  V30 2880 C 258.6 -1.22554 1.40845 0
M  V30 2881 C 258.951 -1.9585 0.117115 0
M  V30 2882 O 258.076 -2.01734 -0.783086 0
M  V30 2883 C 258.671 -2.22907 2.55143 0
M  V30 2884 C 257.23 -2.76501 2.5539 0
M  V30 2885 C 256.377 -1.51287 2.32396 0
M  V30 2886 H 259.328 -0.43563 1.52604 0
M  V30 2887 H 259.349 -3.05259 2.2715 0
M  V30 2888 H 258.861 -1.69533 3.49114 0
M  V30 2889 H 256.962 -3.33914 1.65324 0
M  V30 2890 H 257.075 -3.23429 3.53455 0
M  V30 2891 H 255.439 -1.78957 1.81236 0
M  V30 2892 H 256.222 -0.998336 3.28463 0
M  V30 2893 N 258.668 -1.30515 -0.883378 0
M  V30 2894 C 259.945 -1.10086 -1.6168 0
M  V30 2895 C 260.325 0.349269 -2.08191 0
M  V30 2896 O 259.673 1.34105 -1.85008 0
M  V30 2897 C 259.883 -2.10315 -2.78511 0
M  V30 2898 C 261.231 -2.42119 -3.48803 0
M  V30 2899 O 262.255 -2.08638 -2.88702 0
M  V30 2900 O 261.114 -2.99396 -4.57192 0
M  V30 2901 H 258.208 -0.422907 -0.710689 0
M  V30 2902 H 260.754 -1.41947 -0.930015 0
M  V30 2903 H 259.526 -3.07917 -2.41459 0
M  V30 2904 H 259.149 -1.79282 -3.54886 0
M  V30 2905 N 260.146 1.09593 -1.13257 0
M  V30 2906 C 261.392 1.82003 -0.89458 0
M  V30 2907 C 261.725 1.85402 0.577906 0
M  V30 2908 O 261 1.32099 1.42759 0
M  V30 2909 C 261.283 3.28237 -1.48096 0
M  V30 2910 C 261.136 3.3312 -3.02244 0
M  V30 2911 C 262.455 4.24871 -1.14774 0
M  V30 2912 H 259.574 0.66077 -0.326424 0
M  V30 2913 H 262.216 1.28389 -1.40058 0
M  V30 2914 H 260.366 3.74024 -1.05062 0
M  V30 2915 H 262.038 2.95748 -3.54021 0
M  V30 2916 H 260.281 2.72756 -3.37323 0
M  V30 2917 H 260.952 4.3613 -3.38371 0
M  V30 2918 H 263.428 3.87361 -1.51957 0
M  V30 2919 H 262.304 5.25532 -1.58452 0
M  V30 2920 H 262.565 4.42058 -0.0611849 0
M  V30 2921 N 261.624 0.925811 1.2754 0
M  V30 2922 C 262.571 0.422045 2.26908 0
M  V30 2923 C 263.541 -0.510029 1.58076 0
M  V30 2924 O 264.726 -0.429599 1.85901 0
M  V30 2925 C 261.866 -0.320837 3.43605 0
M  V30 2926 C 260.979 0.64513 4.27156 0
M  V30 2927 C 260.114 -0.117405 5.3107 0
M  V30 2928 C 259.153 0.841391 6.0629 0
M  V30 2929 N 258.29 0.111604 7.02011 0
M  V30 2930 H 263.13 1.27441 2.69375 0
M  V30 2931 H 260.667 0.639697 1.32462 0
M  V30 2932 H 262.625 -0.76785 4.10073 0
M  V30 2933 H 261.255 -1.13745 3.02096 0
M  V30 2934 H 260.307 1.21067 3.6062 0
M  V30 2935 H 261.619 1.37797 4.79389 0
M  V30 2936 H 260.773 -0.624422 6.03478 0
M  V30 2937 H 259.512 -0.883219 4.79636 0
M  V30 2938 H 258.517 1.35967 5.32722 0
M  V30 2939 H 259.742 1.60696 6.59813 0
M  V30 2940 H 257.688 -0.635999 6.5291 0
M  V30 2941 H 257.605 0.784044 7.51923 0
M  V30 2942 H 258.873 -0.374823 7.78598 0
M  V30 2943 N 263.102 -1.41638 0.69111 0
M  V30 2944 C 264.348 -2.01598 0.220519 0
M  V30 2945 C 264.681 -1.54594 -1.17535 0
M  V30 2946 O 263.956 -0.755177 -1.79241 0
M  V30 2947 C 264.239 -3.59062 0.273243 0
M  V30 2948 C 264.092 -4.16203 1.70573 0
M  V30 2949 C 265.411 -4.38546 -0.369457 0
M  V30 2950 H 262.53 -0.732468 0.0816045 0
M  V30 2951 H 265.172 -1.68445 0.878986 0
M  V30 2952 H 263.322 -3.87435 -0.287411 0
M  V30 2953 H 264.994 -3.98722 2.31989 0
M  V30 2954 H 263.237 -3.71414 2.2413 0
M  V30 2955 H 263.908 -5.25358 1.69419 0
M  V30 2956 H 266.384 -4.1596 0.107977 0
M  V30 2957 H 265.26 -5.48069 -0.302002 0
M  V30 2958 H 265.521 -4.17662 -1.44951 0
M  V30 2959 N 264.58 -0.43555 -1.51462 0
M  V30 2960 C 265.829 0.133007 -2.01261 0
M  V30 2961 C 266.142 1.43942 -1.32439 0
M  V30 2962 O 267.348 2.09081 -1.73198 0
M  V30 2963 C 265.804 0.287581 -3.58749 0
M  V30 2964 C 265.412 -1.00829 -4.36506 0
M  V30 2965 C 267.156 0.810004 -4.167 0
M  V30 2966 C 265.063 -0.819454 -5.85695 0
M  V30 2967 H 263.993 0.0534822 -0.752101 0
M  V30 2968 H 266.644 -0.565038 -1.74584 0
M  V30 2969 H 265.026 1.04859 -3.81865 0
M  V30 2970 H 266.2 -1.77749 -4.25138 0
M  V30 2971 H 264.515 -1.45911 -3.89999 0
M  V30 2972 H 267.112 0.967743 -5.2587 0
M  V30 2973 H 267.455 1.79196 -3.75758 0
M  V30 2974 H 267.988 0.107357 -3.97655 0
M  V30 2975 H 264.727 -1.77374 -6.31046 0
M  V30 2976 H 264.247 -0.0900208 -5.99732 0
M  V30 2977 H 265.926 -0.471949 -6.45276 0
M  V30 2978 N 266.058 1.56714 -0.166846 0
M  V30 2979 C 267.307 1.95922 0.479318 0
M  V30 2980 C 267.62 1.05529 1.6469 0
M  V30 2981 O 268.826 1.34399 2.35901 0
M  V30 2982 C 267.282 3.48359 0.90412 0
M  V30 2983 C 266.89 4.47369 -0.237621 0
M  V30 2984 C 268.634 3.96394 1.51896 0
M  V30 2985 C 266.541 5.91039 0.206561 0
M  V30 2986 H 265.471 0.731495 0.18284 0
M  V30 2987 H 268.122 1.81728 -0.254363 0
M  V30 2988 H 266.504 3.57955 1.69365 0
M  V30 2989 H 267.678 4.49485 -1.01489 0
M  V30 2990 H 265.993 4.09366 -0.762128 0
M  V30 2991 H 268.59 5.01186 1.86325 0
M  V30 2992 H 268.933 3.39075 2.41524 0
M  V30 2993 H 269.466 3.89796 0.79395 0
M  V30 2994 H 266.205 6.52221 -0.654834 0
M  V30 2995 H 265.725 5.9224 0.949282 0
M  V30 2996 H 267.404 6.43707 0.651939 0
M  V30 2997 N 267.536 -0.106894 1.57237 0
M  V30 2998 C 268.499 -1.11466 2.0027 0
M  V30 2999 C 269.499 -1.33623 0.894519 0
M  V30 3000 O 270.689 -1.29935 1.16028 0
M  V30 3001 C 267.821 -2.46646 2.35327 0
M  V30 3002 H 269.014 -0.744516 2.90512 0
M  V30 3003 H 266.567 -0.351576 1.52295 0
M  V30 3004 H 267.302 -2.88558 1.48003 0
M  V30 3005 H 267.087 -2.31915 3.16161 0
M  V30 3006 H 268.577 -3.19151 2.69318 0
M  V30 3007 N 269.014 -1.53014 -0.377408 0
M  V30 3008 C 270.291 -1.59215 -1.13622 0
M  V30 3009 C 270.671 -0.392407 -2.07421 0
M  V30 3010 O 270.019 0.618342 -2.19975 0
M  V30 3011 C 270.229 -2.93669 -1.88573 0
M  V30 3012 C 271.577 -3.47822 -2.43526 0
M  V30 3013 O 272.601 -2.9562 -1.98715 0
M  V30 3014 O 271.46 -4.39055 -3.25412 0
M  V30 3015 H 268.554 -0.642625 -0.52054 0
M  V30 3016 H 271.1 -1.65353 -0.381625 0
M  V30 3017 H 269.872 -3.7243 -1.20048 0
M  V30 3018 H 269.495 -2.90968 -2.70968 0
M  V30 3019 N 270.492 0.636531 -1.44174 0
M  V30 3020 C 271.44 1.76995 -1.50915 0
M  V30 3021 C 272.434 1.65053 -0.381295 0
M  V30 3022 O 273.64 1.71197 -0.55601 0
M  V30 3023 H 270.015 0.584247 -0.473455 0
M  V30 3024 H 271.986 1.68432 -2.4632 0
M  V30 3025 C 270.735 3.15314 -1.46534 0
M  V30 3026 H 270.058 3.25149 -2.32633 0
M  V30 3027 H 271.498 3.9453 -1.55312 0
M  V30 3028 C 269.957 3.3639 -0.185305 0
M  V30 3029 O 270.487 3.94699 0.746688 0
M  V30 3030 N 268.693 2.9046 -0.0901606 0
M  V30 3031 H 268.24 2.43193 -0.849416 0
M  V30 3032 H 268.198 3.04937 0.765553 0
M  V30 3033 N 271.97 1.30982 0.876444 0
M  V30 3034 C 273.381 1.18277 1.44456 0
M  V30 3035 C 273.732 -0.213265 1.95037 0
M  V30 3036 O 272.857 -1.11057 1.85729 0
M  V30 3037 C 273.452 2.1411 2.62569 0
M  V30 3038 C 272.011 2.05358 3.15444 0
M  V30 3039 C 271.158 2.03706 1.88146 0
M  V30 3040 H 274.109 1.43127 0.685584 0
M  V30 3041 H 274.13 1.72692 3.39054 0
M  V30 3042 H 273.642 3.15706 2.25724 0
M  V30 3043 H 271.743 1.06934 3.56926 0
M  V30 3044 H 271.856 2.94156 3.78166 0
M  V30 3045 H 270.22 1.48629 2.06837 0
M  V30 3046 H 271.003 3.07047 1.53547 0
M  V30 3047 N 273.449 -1.08991 1.13837 0
M  V30 3048 C 274.397 -2.17841 0.815347 0
M  V30 3049 C 275.391 -1.68164 -0.204233 0
M  V30 3050 O 276.597 -1.79897 -0.0609304 0
M  V30 3051 H 272.972 -0.710654 0.245915 0
M  V30 3052 H 274.943 -2.42315 1.74143 0
M  V30 3053 C 273.692 -3.46381 0.302614 0
M  V30 3054 H 273.015 -3.84979 1.0785 0
M  V30 3055 H 274.455 -4.23844 0.115074 0
M  V30 3056 C 272.914 -3.22556 -0.972591 0
M  V30 3057 O 273.444 -3.45599 -2.04754 0
M  V30 3058 N 271.65 -2.76134 -0.905455 0
M  V30 3059 H 271.197 -2.57582 -0.0305421 0
M  V30 3060 H 271.155 -2.60571 -1.75926 0
M  V30 3061 N 274.927 -0.932562 -1.27047 0
M  V30 3062 C 275.875 -0.42603 -2.28665 0
M  V30 3063 C 276.869 0.49219 -1.62092 0
M  V30 3064 O 278.075 0.371355 -1.76128 0
M  V30 3065 H 274.45 -0.119213 -0.742491 0
M  V30 3066 H 276.421 -1.29579 -2.68797 0
M  V30 3067 C 275.17 0.301426 -3.46391 0
M  V30 3068 H 274.493 -0.39595 -3.97834 0
M  V30 3069 H 275.933 0.6202 -4.1944 0
M  V30 3070 C 274.392 1.51616 -3.00856 0
M  V30 3071 O 274.922 2.61476 -3.04948 0
M  V30 3072 N 273.128 1.36969 -2.56296 0
M  V30 3073 H 272.675 0.475873 -2.53166 0
M  V30 3074 H 272.633 2.18368 -2.26192 0
M  V30 3075 N 276.405 1.4127 -0.698611 0
M  V30 3076 C 277.63 2.06024 -0.238512 0
M  V30 3077 C 278.055 1.5224 1.10475 0
M  V30 3078 O 277.413 0.650623 1.69223 0
M  V30 3079 C 277.461 3.59988 -0.209952 0
M  V30 3080 O 276.565 4.04282 0.814235 0
M  V30 3081 H 275.906 0.653829 -0.115775 0
M  V30 3082 H 278.436 1.8098 -0.954326 0
M  V30 3083 H 278.446 4.07979 -0.0418436 0
M  V30 3084 H 277.121 3.98503 -1.1903 0
M  V30 3085 H 275.698 3.6779 0.615234 0
M  V30 3086 N 277.883 0.443576 1.51229 0
M  V30 3087 C 278.83 -0.364716 2.279 0
M  V30 3088 C 279.8 -1.0114 1.31757 0
M  V30 3089 O 280.985 -1.02912 1.60667 0
M  V30 3090 C 278.125 -1.45644 3.12861 0
M  V30 3091 C 277.238 -0.827269 4.24005 0
M  V30 3092 C 276.373 -1.89456 4.96266 0
M  V30 3093 C 275.412 -1.24416 5.99322 0
M  V30 3094 N 274.549 -2.25309 6.64966 0
M  V30 3095 H 279.389 0.295464 2.96532 0
M  V30 3096 H 276.926 0.157554 1.46254 0
M  V30 3097 H 278.884 -2.10076 3.6045 0
M  V30 3098 H 277.514 -2.08616 2.46331 0
M  V30 3099 H 276.566 -0.0710839 3.80334 0
M  V30 3100 H 277.878 -0.312481 4.9782 0
M  V30 3101 H 277.032 -2.61535 5.47434 0
M  V30 3102 H 275.771 -2.4431 4.22095 0
M  V30 3103 H 274.776 -0.508868 5.4744 0
M  V30 3104 H 276.001 -0.702882 6.75453 0
M  V30 3105 H 273.947 -2.79231 5.93604 0
M  V30 3106 H 273.864 -1.78739 7.34567 0
M  V30 3107 H 275.132 -2.96853 7.20763 0
M  V30 3108 N 279.361 -1.56624 0.175154 0
M  V30 3109 C 280.309 -2.19468 -0.770495 0
M  V30 3110 C 281.303 -1.15985 -1.23466 0
M  V30 3111 O 282.509 -1.34176 -1.19987 0
M  V30 3112 H 278.884 -0.703095 -0.266761 0
M  V30 3113 H 280.855 -2.97613 -0.216542 0
M  V30 3114 C 279.604 -2.85264 -1.98796 0
M  V30 3115 H 278.927 -3.64623 -1.63983 0
M  V30 3116 H 280.367 -3.327 -2.62843 0
M  V30 3117 C 278.826 -1.85239 -2.81404 0
M  V30 3118 O 279.356 -1.34024 -3.78682 0
M  V30 3119 N 277.562 -1.53911 -2.46495 0
M  V30 3120 H 277.109 -1.95751 -1.67449 0
M  V30 3121 H 277.067 -0.872382 -3.02054 0
M  V30 3122 N 280.839 0.0985539 -1.57292 0
M  V30 3123 C 282.087 0.801092 -1.85545 0
M  V30 3124 C 282.408 1.79438 -0.763353 0
M  V30 3125 O 281.678 1.94763 0.21073 0
M  V30 3126 H 280.258 0.29884 -0.684619 0
M  V30 3127 H 282.92 0.0810064 -1.94732 0
M  V30 3128 H 282.016 1.3338 -2.82163 0
M  V30 3129 N 282.317 1.53212 0.369288 0
M  V30 3130 C 283.227 1.82342 1.47609 0
M  V30 3131 C 284.243 0.711532 1.58787 0
M  V30 3132 O 285.419 1.0012 1.74751 0
M  V30 3133 C 282.484 2.00393 2.8292 0
M  V30 3134 C 281.545 3.24297 2.81301 0
M  V30 3135 C 280.778 3.41478 4.10157 0
M  V30 3136 O 281.001 2.63033 5.06132 0
M  V30 3137 O 279.935 4.34817 4.16194 0
M  V30 3138 H 283.761 2.76366 1.25918 0
M  V30 3139 H 281.346 1.38547 0.559034 0
M  V30 3140 H 283.228 2.13859 3.63101 0
M  V30 3141 H 281.903 1.09559 3.04596 0
M  V30 3142 H 280.81 3.16257 1.99831 0
M  V30 3143 H 282.143 4.15041 2.64578 0
M  V30 3144 N 283.795 -0.628877 1.44509 0
M  V30 3145 C 284.742 -1.74074 1.51549 0
M  V30 3146 C 285.712 -1.62084 0.363021 0
M  V30 3147 O 286.897 -1.81975 0.573567 0
M  V30 3148 C 284.037 -3.12328 1.46784 0
M  V30 3149 C 283.15 -3.35277 2.72422 0
M  V30 3150 C 282.285 -4.63515 2.59475 0
M  V30 3151 C 281.324 -4.7965 3.80266 0
M  V30 3152 N 280.461 -5.99168 3.65981 0
M  V30 3153 H 285.301 -1.67392 2.46544 0
M  V30 3154 H 282.838 -0.816527 1.22357 0
M  V30 3155 H 284.796 -3.92286 1.42012 0
M  V30 3156 H 283.426 -3.18018 0.553544 0
M  V30 3157 H 282.478 -2.49242 2.87372 0
M  V30 3158 H 283.79 -3.43078 3.62076 0
M  V30 3159 H 282.944 -5.51638 2.52548 0
M  V30 3160 H 281.683 -4.58076 1.67384 0
M  V30 3161 H 280.688 -3.89957 3.87574 0
M  V30 3162 H 281.913 -4.86902 4.73395 0
M  V30 3163 H 279.859 -5.94814 2.76644 0
M  V30 3164 H 279.776 -6.08035 4.49254 0
M  V30 3165 H 281.044 -6.89846 3.6295 0
M  V30 3166 N 285.273 -1.31445 -0.869486 0
M  V30 3167 C 286.236 -1.19094 -1.9583 0
M  V30 3168 C 287.236 -0.117906 -1.60367 0
M  V30 3169 O 288.426 -0.367208 -1.70286 0
M  V30 3170 C 285.558 -0.828165 -3.30688 0
M  V30 3171 H 286.751 -2.15842 -2.08212 0
M  V30 3172 H 284.304 -1.15063 -1.05784 0
M  V30 3173 H 285.039 0.138142 -3.24006 0
M  V30 3174 H 284.824 -1.6038 -3.578 0
M  V30 3175 H 286.314 -0.765658 -4.10521 0
M  V30 3176 N 286.751 1.08385 -1.14413 0
M  V30 3177 C 287.997 1.81044 -0.913834 0
M  V30 3178 C 288.33 1.86004 0.558209 0
M  V30 3179 O 287.605 1.33606 1.4135 0
M  V30 3180 C 287.888 3.26648 -1.51569 0
M  V30 3181 C 287.741 3.29895 -3.0576 0
M  V30 3182 C 289.06 4.23629 -1.19273 0
M  V30 3183 H 286.179 0.65727 -0.333414 0
M  V30 3184 H 288.821 1.26896 -1.41412 0
M  V30 3185 H 286.971 3.72889 -1.09023 0
M  V30 3186 H 288.643 2.91977 -3.57137 0
M  V30 3187 H 286.886 2.69163 -3.40197 0
M  V30 3188 H 287.557 4.32516 -3.42977 0
M  V30 3189 H 290.033 3.85727 -1.56057 0
M  V30 3190 H 288.909 5.23822 -1.64017 0
M  V30 3191 H 289.17 4.41968 -0.108068 0
M  V30 3192 N 288.23 0.939286 1.26551 0
M  V30 3193 C 289.646 0.641304 1.46149 0
M  V30 3194 C 289.846 -0.805964 1.84679 0
M  V30 3195 O 288.902 -1.58278 1.96734 0
M  V30 3196 C 290.215 1.6011 2.54529 0
M  V30 3197 C 291.763 1.6106 2.68382 0
M  V30 3198 C 292.238 2.55765 3.79932 0
M  V30 3199 N 293.729 2.5404 3.87322 0
M  V30 3200 C 294.464 3.24004 4.73085 0
M  V30 3201 N 293.96 4.03388 5.63249 0
M  V30 3202 N 295.753 3.12965 4.66914 0
M  V30 3203 H 287.904 1.87478 0.998285 0
M  V30 3204 H 290.167 0.805559 0.499779 0
M  V30 3205 H 289.873 2.63412 2.33039 0
M  V30 3206 H 289.747 1.35171 3.52149 0
M  V30 3207 H 292.134 0.584835 2.89247 0
M  V30 3208 H 292.215 1.90053 1.71212 0
M  V30 3209 H 291.859 3.58458 3.5982 0
M  V30 3210 H 291.789 2.24063 4.76554 0
M  V30 3211 H 294.28 1.96396 3.22858 0
M  V30 3212 H 294.593 4.5373 6.25579 0
M  V30 3213 H 292.938 4.07489 5.63008 0
M  V30 3214 H 296.129 2.50432 3.95476 0
M  V30 3215 H 296.302 3.67759 5.33533 0
M  V30 3216 N 289.708 -1.40897 0.706093 0
M  V30 3217 C 290.957 -2.00284 0.238574 0
M  V30 3218 C 291.27 -1.56604 -1.17194 0
M  V30 3219 O 292.476 -2.08624 -1.73748 0
M  V30 3220 C 290.932 -3.57934 0.375623 0
M  V30 3221 C 290.54 -4.10591 1.79217 0
M  V30 3222 C 292.284 -4.24488 -0.0315857 0
M  V30 3223 C 290.191 -5.60712 1.88032 0
M  V30 3224 H 289.121 -0.749144 0.0854398 0
M  V30 3225 H 291.772 -1.61251 0.875813 0
M  V30 3226 H 290.154 -3.94622 -0.330042 0
M  V30 3227 H 291.328 -3.85301 2.52745 0
M  V30 3228 H 289.643 -3.56601 2.15 0
M  V30 3229 H 292.24 -5.34698 0.0136842 0
M  V30 3230 H 292.583 -4.02261 -1.072 0
M  V30 3231 H 293.116 -3.92873 0.624181 0
M  V30 3232 H 289.855 -5.87781 2.90161 0
M  V30 3233 H 289.375 -5.87896 1.18903 0
M  V30 3234 H 291.054 -6.25658 1.64805 0
M  V30 3235 N 291.186 -0.45159 -1.50991 0
M  V30 3236 C 292.463 0.170707 -1.94854 0
M  V30 3237 C 292.843 1.58788 -1.39103 0
M  V30 3238 O 292.191 2.20913 -0.583921 0
M  V30 3239 C 292.401 0.133929 -3.48743 0
M  V30 3240 C 293.749 0.33248 -4.23296 0
M  V30 3241 O 294.773 0.211403 -3.55572 0
M  V30 3242 O 293.632 0.57486 -5.43468 0
M  V30 3243 H 290.726 0.122264 -0.817912 0
M  V30 3244 H 293.272 -0.510594 -1.61836 0
M  V30 3245 H 292.044 -0.856283 -3.81816 0
M  V30 3246 H 291.667 0.857529 -3.88242 0
M  V30 3247 N 292.664 1.56529 -0.183458 0
M  V30 3248 C 293.912 1.96855 0.457452 0
M  V30 3249 C 294.233 1.07104 1.62953 0
M  V30 3250 O 293.503 0.139887 1.954 0
M  V30 3251 H 292.083 0.72693 0.171992 0
M  V30 3252 H 294.745 1.93056 -0.267476 0
M  V30 3253 H 293.841 3.01423 0.809368 0
M  V30 3254 N 294.142 -0.090211 1.57342 0
M  V30 3255 C 295.072 -1.10976 2.05443 0
M  V30 3256 C 296.053 -1.41482 0.944284 0
M  V30 3257 O 297.238 -1.51428 1.21586 0
M  V30 3258 C 294.368 -2.42831 2.48295 0
M  V30 3259 C 293.322 -2.26721 3.63018 0
M  V30 3260 C 292.648 -3.63796 3.91863 0
M  V30 3261 C 293.948 -1.7037 4.93732 0
M  V30 3262 H 295.642 -0.709564 2.9087 0
M  V30 3263 H 293.188 -0.339874 1.39932 0
M  V30 3264 H 295.141 -3.14431 2.80555 0
M  V30 3265 H 293.865 -2.84795 1.59873 0
M  V30 3266 H 292.524 -1.57565 3.31012 0
M  V30 3267 H 292.172 -4.03297 3.00601 0
M  V30 3268 H 291.872 -3.53861 4.69101 0
M  V30 3269 H 293.396 -4.36855 4.26603 0
M  V30 3270 H 294.81 -2.31816 5.24342 0
M  V30 3271 H 293.207 -1.71181 5.75167 0
M  V30 3272 H 294.277 -0.663542 4.80339 0
M  V30 3273 N 295.62 -1.53406 -0.361157 0
M  V30 3274 C 296.568 -1.80832 -1.46296 0
M  V30 3275 C 297.562 -0.677699 -1.55253 0
M  V30 3276 O 298.768 -0.860723 -1.58087 0
M  V30 3277 H 295.143 -0.572627 -0.487445 0
M  V30 3278 H 297.114 -2.73045 -1.20371 0
M  V30 3279 C 295.863 -2.01907 -2.8307 0
M  V30 3280 H 295.186 -2.88349 -2.76938 0
M  V30 3281 H 296.626 -2.25072 -3.59331 0
M  V30 3282 C 295.085 -0.799449 -3.27277 0
M  V30 3283 O 295.615 0.00971761 -4.01699 0
M  V30 3284 N 293.821 -0.621637 -2.83873 0
M  V30 3285 H 293.368 -1.28126 -2.23476 0
M  V30 3286 H 293.326 0.19298 -3.13807 0
M  V30 3287 N 297.098 0.621204 -1.44841 0
M  V30 3288 C 298.344 1.3826 -1.48365 0
M  V30 3289 C 298.677 1.93831 -0.119624 0
M  V30 3290 O 297.952 1.74251 0.864111 0
M  V30 3291 C 298.235 2.54058 -2.55199 0
M  V30 3292 C 298.088 2.03772 -4.00995 0
M  V30 3293 C 299.407 3.56225 -2.58442 0
M  V30 3294 H 296.526 0.501374 -0.540179 0
M  V30 3295 H 299.168 0.7015 -1.76576 0
M  V30 3296 H 297.318 3.12162 -2.31274 0
M  V30 3297 H 298.99 1.50423 -4.36086 0
M  V30 3298 H 297.233 1.34876 -4.12299 0
M  V30 3299 H 297.904 2.87185 -4.71411 0
M  V30 3300 H 300.38 3.07939 -2.79844 0
M  V30 3301 H 299.256 4.34756 -3.3508 0
M  V30 3302 H 299.517 4.10949 -1.63013 0
M  V30 3303 N 298.576 1.31904 0.862503 0
M  V30 3304 C 299.823 1.22017 1.61611 0
M  V30 3305 C 300.151 -0.21991 1.93253 0
M  V30 3306 O 299.406 -1.17076 1.56817 0
M  V30 3307 C 299.705 2.01713 2.95037 0
M  V30 3308 C 299.371 3.51145 2.82857 0
M  V30 3309 C 298.033 3.91889 2.79243 0
M  V30 3310 C 300.385 4.46204 2.69353 0
M  V30 3311 C 297.713 5.25947 2.59993 0
M  V30 3312 C 300.065 5.80397 2.5164 0
M  V30 3313 C 298.729 6.20352 2.46413 0
M  V30 3314 H 297.999 0.44649 0.591378 0
M  V30 3315 H 300.646 1.63248 1.00111 0
M  V30 3316 H 298.951 1.53185 3.60613 0
M  V30 3317 H 300.648 1.91437 3.52353 0
M  V30 3318 H 297.238 3.1878 2.86491 0
M  V30 3319 H 301.422 4.15652 2.71196 0
M  V30 3320 H 296.678 5.5597 2.54376 0
M  V30 3321 H 300.852 6.53676 2.40169 0
M  V30 3322 H 298.479 7.24172 2.31256 0
M  V30 3323 N 300.054 -1.07777 1.14986 0
M  V30 3324 C 301.331 -1.7699 0.832695 0
M  V30 3325 C 301.711 -2.001 -0.672561 0
M  V30 3326 O 301.059 -1.61598 -1.6155 0
M  V30 3327 C 301.269 -3.08139 1.63863 0
M  V30 3328 C 302.617 -3.8256 1.84208 0
M  V30 3329 O 303.641 -3.17939 1.60603 0
M  V30 3330 O 302.5 -4.98612 2.23714 0
M  V30 3331 H 299.594 -0.768389 0.305791 0
M  V30 3332 H 302.14 -1.14182 1.25541 0
M  V30 3333 H 300.912 -2.86909 2.6608 0
M  V30 3334 H 300.535 -3.78678 1.21197 0
M  V30 3335 N 301.532 -0.945985 -1.26051 0
M  V30 3336 C 302.465 -0.403619 -2.24602 0
M  V30 3337 C 303.443 0.510241 -1.54387 0
M  V30 3338 O 304.627 0.446593 -1.83133 0
M  V30 3339 C 301.754 0.419564 -3.36091 0
M  V30 3340 C 300.8 -0.433454 -4.24292 0
M  V30 3341 S 301.633 -1.86037 -5.02146 0
M  V30 3342 C 302.789 -1.04538 -6.17108 0
M  V30 3343 H 303.022 -1.23883 -2.7026 0
M  V30 3344 H 300.555 -0.749438 -1.34992 0
M  V30 3345 H 302.513 0.888595 -4.00767 0
M  V30 3346 H 301.174 1.22951 -2.89036 0
M  V30 3347 H 300.367 0.197486 -5.03613 0
M  V30 3348 H 299.969 -0.837357 -3.64506 0
M  V30 3349 H 302.261 -0.289923 -6.76879 0
M  V30 3350 H 303.204 -1.81222 -6.84518 0
M  V30 3351 H 303.612 -0.579319 -5.61519 0
M  V30 3352 N 303.011 1.40521 -0.713556 0
M  V30 3353 C 303.941 2.33381 -0.0743864 0
M  V30 3354 C 304.922 1.52784 0.747735 0
M  V30 3355 O 306.107 1.81258 0.697071 0
M  V30 3356 C 303.237 3.36748 0.849598 0
M  V30 3357 C 302.191 4.27793 0.133247 0
M  V30 3358 C 301.517 5.21679 1.17281 0
M  V30 3359 C 302.817 5.12415 -1.01134 0
M  V30 3360 H 304.511 2.87081 -0.850007 0
M  V30 3361 H 302.057 1.38034 -0.410201 0
M  V30 3362 H 304.01 4.00648 1.30612 0
M  V30 3363 H 302.734 2.81439 1.65709 0
M  V30 3364 H 301.393 3.65342 -0.303426 0
M  V30 3365 H 301.041 4.62677 1.9733 0
M  V30 3366 H 300.741 5.83435 0.698397 0
M  V30 3367 H 302.265 5.88456 1.62947 0
M  V30 3368 H 303.679 5.69781 -0.634274 0
M  V30 3369 H 302.076 5.83203 -1.41399 0
M  V30 3370 H 303.146 4.48514 -1.84292 0
M  V30 3371 N 304.489 0.459591 1.5075 0
M  V30 3372 C 305.436 -0.340524 2.28274 0
M  V30 3373 C 306.406 -0.997371 1.32822 0
M  V30 3374 O 307.591 -1.01202 1.61749 0
M  V30 3375 C 304.731 -1.42317 3.14388 0
M  V30 3376 C 303.844 -0.782251 4.24859 0
M  V30 3377 C 302.979 -1.84182 4.98247 0
M  V30 3378 C 302.018 -1.18053 6.00608 0
M  V30 3379 N 301.155 -2.18244 6.67319 0
M  V30 3380 H 305.995 0.326899 2.96202 0
M  V30 3381 H 303.532 0.173057 1.46078 0
M  V30 3382 H 305.49 -2.06241 3.62658 0
M  V30 3383 H 304.12 -2.05992 2.4853 0
M  V30 3384 H 303.172 -0.0307404 3.80388 0
M  V30 3385 H 304.484 -0.259663 4.98124 0
M  V30 3386 H 303.638 -2.55714 5.50177 0
M  V30 3387 H 302.377 -2.39819 4.24662 0
M  V30 3388 H 301.382 -0.450776 5.47949 0
M  V30 3389 H 302.607 -0.631202 6.7616 0
M  V30 3390 H 300.553 -2.72919 5.96533 0
M  V30 3391 H 300.47 -1.70938 7.36421 0
M  V30 3392 H 301.738 -2.89191 7.23871 0
M  V30 3393 N 305.967 -1.56429 0.191757 0
M  V30 3394 C 307.197 -2.01574 -0.452928 0
M  V30 3395 C 307.605 -1.07107 -1.55964 0
M  V30 3396 O 306.948 -0.067534 -1.83576 0
M  V30 3397 C 307.01 -3.43121 -1.07278 0
M  V30 3398 C 306.674 -4.56879 -0.105214 0
M  V30 3399 C 307.671 -5.15379 0.684149 0
M  V30 3400 C 305.356 -5.023 0.00489824 0
M  V30 3401 C 307.35 -6.17746 1.57062 0
M  V30 3402 C 305.037 -6.04511 0.894935 0
M  V30 3403 C 306.035 -6.62108 1.67637 0
M  V30 3404 O 305.723 -7.62335 2.55149 0
M  V30 3405 H 305.455 -0.665554 -0.118379 0
M  V30 3406 H 308.009 -2.03245 0.296737 0
M  V30 3407 H 306.239 -3.38425 -1.87097 0
M  V30 3408 H 307.928 -3.72093 -1.62177 0
M  V30 3409 H 308.694 -4.81157 0.609365 0
M  V30 3410 H 304.573 -4.57168 -0.593156 0
M  V30 3411 H 308.117 -6.6263 2.181 0
M  V30 3412 H 304.014 -6.38157 0.970847 0
M  V30 3413 H 304.782 -7.79741 2.48892 0
M  V30 3414 N 307.445 0.0818655 -1.57387 0
M  V30 3415 C 308.722 0.815343 -1.77796 0
M  V30 3416 C 309.102 1.96289 -0.77679 0
M  V30 3417 O 308.45 2.27691 0.192106 0
M  V30 3418 C 308.66 1.29765 -3.23978 0
M  V30 3419 C 310.008 1.7351 -3.8753 0
M  V30 3420 O 311.032 1.39356 -3.27808 0
M  V30 3421 O 309.891 2.36708 -4.92576 0
M  V30 3422 H 306.985 0.389914 -0.729312 0
M  V30 3423 H 309.531 0.0627213 -1.69584 0
M  V30 3424 H 308.303 0.47608 -3.88393 0
M  V30 3425 H 307.926 2.11189 -3.36875 0
M  V30 3426 N 308.923 1.53595 0.353017 0
M  V30 3427 C 310.153 1.74058 1.11299 0
M  V30 3428 C 310.561 0.475205 1.83135 0
M  V30 3429 O 309.904 -0.562344 1.74881 0
M  V30 3430 C 309.966 2.85994 2.17825 0
M  V30 3431 C 309.63 4.25923 1.65647 0
M  V30 3432 C 310.627 5.07829 1.11383 0
M  V30 3433 C 308.312 4.72377 1.7078 0
M  V30 3434 C 310.306 6.34285 0.629439 0
M  V30 3435 C 307.993 5.98808 1.21953 0
M  V30 3436 C 308.991 6.79594 0.681265 0
M  V30 3437 O 308.679 8.03651 0.200248 0
M  V30 3438 H 308.411 0.585327 0.338183 0
M  V30 3439 H 310.965 2.01186 0.413927 0
M  V30 3440 H 309.195 2.54368 2.91262 0
M  V30 3441 H 310.884 2.94515 2.79313 0
M  V30 3442 H 311.65 4.73107 1.06746 0
M  V30 3443 H 307.529 4.0956 2.11617 0
M  V30 3444 H 311.073 6.97288 0.208636 0
M  V30 3445 H 306.97 6.33026 1.26287 0
M  V30 3446 H 307.738 8.1788 0.318416 0
M  V30 3447 N 310.401 -0.613514 1.45168 0
M  V30 3448 C 311.331 -1.7354 1.56225 0
M  V30 3449 C 312.312 -1.64981 0.41414 0
M  V30 3450 O 313.497 -1.83472 0.636526 0
M  V30 3451 C 310.627 -3.12128 1.52295 0
M  V30 3452 C 309.581 -3.35491 2.65762 0
M  V30 3453 C 308.907 -4.74291 2.46885 0
M  V30 3454 C 310.207 -3.26325 4.0781 0
M  V30 3455 H 311.901 -1.64543 2.50132 0
M  V30 3456 H 309.447 -0.790185 1.20383 0
M  V30 3457 H 311.4 -3.90404 1.58628 0
M  V30 3458 H 310.124 -3.2195 0.549139 0
M  V30 3459 H 308.783 -2.59603 2.58847 0
M  V30 3460 H 308.431 -4.80839 1.47657 0
M  V30 3461 H 308.131 -4.9088 3.22972 0
M  V30 3462 H 309.655 -5.54775 2.55063 0
M  V30 3463 H 311.069 -3.94483 4.16 0
M  V30 3464 H 309.466 -3.54445 4.8424 0
M  V30 3465 H 310.536 -2.23855 4.30136 0
M  V30 3466 N 311.879 -1.3236 -0.855495 0
M  V30 3467 C 313.125 -1.23054 -1.612 0
M  V30 3468 C 313.458 0.207404 -1.93089 0
M  V30 3469 O 312.733 1.14432 -1.57275 0
M  V30 3470 C 313.016 -2.08937 -2.93287 0
M  V30 3471 C 312.869 -3.61105 -2.68185 0
M  V30 3472 C 314.188 -1.94986 -3.94549 0
M  V30 3473 H 311.307 -0.448364 -0.584926 0
M  V30 3474 H 313.949 -1.62297 -0.987917 0
M  V30 3475 H 312.099 -1.75599 -3.46551 0
M  V30 3476 H 313.771 -4.04652 -2.21483 0
M  V30 3477 H 312.014 -3.83813 -2.02164 0
M  V30 3478 H 312.685 -4.16522 -3.62234 0
M  V30 3479 H 315.161 -2.24189 -3.5054 0
M  V30 3480 H 314.037 -2.57356 -4.84829 0
M  V30 3481 H 314.298 -0.917263 -4.3248 0
M  V30 3482 N 313.357 1.07166 -1.15556 0
M  V30 3483 C 314.287 2.16403 -0.877046 0
M  V30 3484 C 315.268 1.69217 0.173111 0
M  V30 3485 O 316.453 1.94181 0.027084 0
M  V30 3486 C 313.583 3.45349 -0.367632 0
M  V30 3487 C 312.537 4.05995 -1.35468 0
M  V30 3488 C 311.863 5.30045 -0.704038 0
M  V30 3489 C 313.163 4.45804 -2.72132 0
M  V30 3490 H 314.857 2.39959 -1.79053 0
M  V30 3491 H 312.403 1.15325 -0.862331 0
M  V30 3492 H 314.356 4.21095 -0.160317 0
M  V30 3493 H 313.08 3.21385 0.581326 0
M  V30 3494 H 311.739 3.32296 -1.54839 0
M  V30 3495 H 311.387 5.02373 0.251128 0
M  V30 3496 H 311.087 5.71579 -1.36277 0
M  V30 3497 H 312.611 6.08495 -0.50654 0
M  V30 3498 H 314.025 5.12671 -2.56595 0
M  V30 3499 H 312.422 4.98296 -3.34397 0
M  V30 3500 H 313.492 3.57083 -3.28054 0
M  V30 3501 N 314.835 0.952656 1.25548 0
M  V30 3502 C 316.063 0.623496 1.97282 0
M  V30 3503 C 316.478 -0.803987 1.70826 0
M  V30 3504 O 315.835 -1.53755 0.983147 0
M  V30 3505 C 315.886 0.870209 3.5087 0
M  V30 3506 O 315.607 2.24156 3.76412 0
M  V30 3507 C 317.108 0.553164 4.39835 0
M  V30 3508 H 314.328 0.233931 0.628902 0
M  V30 3509 H 316.872 1.27649 1.59768 0
M  V30 3510 H 315.027 0.263652 3.86502 0
M  V30 3511 H 315.441 2.31021 4.70882 0
M  V30 3512 H 316.915 0.776342 5.46513 0
M  V30 3513 H 317.392 -0.512215 4.36203 0
M  V30 3514 H 317.998 1.13896 4.09766 0
M  V30 3515 N 316.313 -1.40141 0.720998 0
M  V30 3516 C 317.729 -1.54632 0.395113 0
M  V30 3517 C 317.929 -1.69115 -1.09555 0
M  V30 3518 O 316.985 -1.68377 -1.88163 0
M  V30 3519 C 318.298 -2.77177 1.1659 0
M  V30 3520 C 319.846 -2.91 1.15274 0
M  V30 3521 C 320.321 -4.16465 1.90579 0
M  V30 3522 N 321.812 -4.23476 1.87675 0
M  V30 3523 C 322.547 -5.19475 2.42762 0
M  V30 3524 N 322.043 -6.21348 3.06428 0
M  V30 3525 N 323.836 -5.11592 2.32874 0
M  V30 3526 H 315.987 -1.28986 1.68749 0
M  V30 3527 H 318.25 -0.62412 0.713567 0
M  V30 3528 H 317.956 -2.72771 2.22011 0
M  V30 3529 H 317.83 -3.69442 0.76108 0
M  V30 3530 H 320.217 -2.94907 0.106702 0
M  V30 3531 H 320.298 -1.99838 1.59682 0
M  V30 3532 H 319.942 -4.1332 2.95176 0
M  V30 3533 H 319.872 -5.06646 1.43587 0
M  V30 3534 H 322.363 -3.50497 1.41281 0
M  V30 3535 H 322.676 -6.91034 3.45965 0
M  V30 3536 H 321.021 -6.21777 3.10514 0
M  V30 3537 H 324.212 -4.30936 1.82789 0
M  V30 3538 H 324.385 -5.86233 2.76106 0
M  V30 3539 N 317.792 -0.46758 -1.50504 0
M  V30 3540 C 319.069 0.15003 -1.95024 0
M  V30 3541 C 319.449 1.57304 -1.40779 0
M  V30 3542 O 318.797 2.20281 -0.607319 0
M  V30 3543 C 319.007 0.0969324 -3.48865 0
M  V30 3544 C 320.355 0.287565 -4.23625 0
M  V30 3545 O 321.379 0.173678 -3.55776 0
M  V30 3546 O 320.238 0.517186 -5.44047 0
M  V30 3547 H 317.332 0.113582 -0.819163 0
M  V30 3548 H 319.878 -0.52773 -1.61286 0
M  V30 3549 H 318.65 -0.896732 -3.80886 0
M  V30 3550 H 318.273 0.816303 -3.8913 0
M  V30 3551 N 319.27 1.56325 -0.20005 0
M  V30 3552 C 320.203 2.15234 0.758267 0
M  V30 3553 C 321.181 1.09046 1.20614 0
M  V30 3554 O 322.365 1.37186 1.29276 0
M  V30 3555 C 319.492 2.71524 2.02466 0
M  V30 3556 C 318.538 3.90345 1.71852 0
M  V30 3557 S 319.371 5.28513 0.862249 0
M  V30 3558 C 320.527 5.88227 2.13868 0
M  V30 3559 H 320.76 2.96183 0.2575 0
M  V30 3560 H 318.293 1.54393 0.0150099 0
M  V30 3561 H 320.251 3.04598 2.75191 0
M  V30 3562 H 318.912 1.90607 2.49655 0
M  V30 3563 H 318.105 4.28158 2.65888 0
M  V30 3564 H 317.707 3.58306 1.07205 0
M  V30 3565 H 319.999 6.02891 3.09076 0
M  V30 3566 H 320.942 6.84714 1.80479 0
M  V30 3567 H 321.35 5.16874 2.2694 0
M  V30 3568 N 320.748 -0.0735177 1.57428 0
M  V30 3569 C 321.994 -0.774145 1.87443 0
M  V30 3570 C 322.327 -1.77311 0.792103 0
M  V30 3571 O 321.602 -1.93492 -0.197793 0
M  V30 3572 C 321.885 -1.48367 3.28115 0
M  V30 3573 C 321.738 -0.501227 4.46999 0
M  V30 3574 C 323.057 -2.429 3.66998 0
M  V30 3575 H 320.176 -0.279971 0.681752 0
M  V30 3576 H 322.818 -0.0373616 1.89963 0
M  V30 3577 H 320.968 -2.11171 3.26097 0
M  V30 3578 H 322.64 0.121468 4.6114 0
M  V30 3579 H 320.883 0.183593 4.33411 0
M  V30 3580 H 321.554 -1.03526 5.42205 0
M  V30 3581 H 324.03 -1.90175 3.70098 0
M  V30 3582 H 322.906 -2.89549 4.66318 0
M  V30 3583 H 323.167 -3.27628 2.96837 0
M  V30 3584 N 322.226 -1.5378 -0.344866 0
M  V30 3585 C 323.451 -1.75211 -1.10977 0
M  V30 3586 C 323.876 -0.48936 -1.81623 0
M  V30 3587 O 323.234 0.557925 -1.72502 0
M  V30 3588 C 323.282 -2.93147 -2.09993 0
M  V30 3589 O 322.386 -2.63203 -3.17487 0
M  V30 3590 H 321.727 -0.581241 -0.321021 0
M  V30 3591 H 324.257 -2.00738 -0.395661 0
M  V30 3592 H 324.267 -3.19898 -2.53237 0
M  V30 3593 H 322.942 -3.84731 -1.5797 0
M  V30 3594 H 321.519 -2.47336 -2.79069 0
M  V30 3595 N 323.704 0.605807 -1.45491 0
M  V30 3596 C 324.651 1.7164 -1.54299 0
M  V30 3597 C 325.621 1.61486 -0.388761 0
M  V30 3598 O 326.806 1.81039 -0.602445 0
M  V30 3599 C 323.946 3.09953 -1.51734 0
M  V30 3600 C 323.059 3.309 -2.77721 0
M  V30 3601 C 322.194 4.59329 -2.66816 0
M  V30 3602 C 321.233 4.7354 -3.87848 0
M  V30 3603 N 320.37 5.9327 -3.75467 0
M  V30 3604 H 325.21 1.63449 -2.49176 0
M  V30 3605 H 322.747 0.796957 -1.23641 0
M  V30 3606 H 324.705 3.89977 -1.48235 0
M  V30 3607 H 323.335 3.17098 -0.604068 0
M  V30 3608 H 322.387 2.44639 -2.913 0
M  V30 3609 H 323.699 3.37274 -3.67488 0
M  V30 3610 H 322.853 5.4755 -2.61292 0
M  V30 3611 H 321.592 4.55355 -1.74651 0
M  V30 3612 H 320.597 3.83741 -3.93729 0
M  V30 3613 H 321.822 4.79309 -4.81082 0
M  V30 3614 H 319.768 5.90338 -2.86072 0
M  V30 3615 H 319.685 6.00811 -4.5887 0
M  V30 3616 H 320.953 6.83984 -3.73879 0
M  V30 3617 N 325.182 1.32811 0.848464 0
M  V30 3618 C 326.431 1.23075 1.59798 0
M  V30 3619 C 326.744 -0.204419 1.94529 0
M  V30 3620 O 327.95 -0.423701 2.68173 0
M  V30 3621 C 326.406 2.15594 2.88179 0
M  V30 3622 C 326.014 3.64228 2.60849 0
M  V30 3623 C 327.758 2.14709 3.66197 0
M  V30 3624 C 325.665 4.48689 3.85269 0
M  V30 3625 H 324.595 0.457091 0.599653 0
M  V30 3626 H 327.246 1.57813 0.936342 0
M  V30 3627 H 325.628 1.73778 3.55833 0
M  V30 3628 H 326.802 4.14424 2.01467 0
M  V30 3629 H 325.117 3.67306 1.96151 0
M  V30 3630 H 327.714 2.75046 4.58534 0
M  V30 3631 H 328.057 1.13966 4.00397 0
M  V30 3632 H 328.59 2.54837 3.05455 0
M  V30 3633 H 325.329 5.5027 3.56207 0
M  V30 3634 H 324.849 4.03241 4.44024 0
M  V30 3635 H 326.528 4.62006 4.52946 0
M  V30 3636 N 326.66 -1.06551 1.16123 0
M  V30 3637 C 327.57 -2.17484 0.879662 0
M  V30 3638 C 328.586 -1.73377 -0.147104 0
M  V30 3639 O 329.762 -2.01379 0.0289128 0
M  V30 3640 C 326.827 -3.44591 0.381829 0
M  V30 3641 C 325.888 -4.0322 1.4735 0
M  V30 3642 C 325.121 -5.24261 0.999324 0
M  V30 3643 O 325.344 -5.70198 -0.151957 0
M  V30 3644 O 324.278 -5.74775 1.78653 0
M  V30 3645 H 328.104 -2.44075 1.80724 0
M  V30 3646 H 325.689 -1.16042 0.940992 0
M  V30 3647 H 327.571 -4.21254 0.111053 0
M  V30 3648 H 326.246 -3.19532 -0.51777 0
M  V30 3649 H 325.153 -3.2806 1.79798 0
M  V30 3650 H 326.486 -4.32568 2.34831 0
M  V30 3651 N 328.138 -0.959301 -1.25041 0
M  V30 3652 C 329.048 -0.489994 -2.29426 0
M  V30 3653 C 330.064 0.444944 -1.68215 0
M  V30 3654 O 331.24 0.320046 -1.98841 0
M  V30 3655 C 328.305 0.220309 -3.45999 0
M  V30 3656 C 327.366 -0.753418 -4.22637 0
M  V30 3657 C 326.599 -0.076918 -5.33645 0
M  V30 3658 O 326.822 1.13649 -5.58963 0
M  V30 3659 O 325.756 -0.764824 -5.97021 0
M  V30 3660 H 329.582 -1.35755 -2.71669 0
M  V30 3661 H 327.167 -0.725961 -1.30576 0
M  V30 3662 H 329.049 0.619677 -4.16819 0
M  V30 3663 H 327.724 1.06296 -3.0575 0
M  V30 3664 H 326.631 -1.20308 -3.54227 0
M  V30 3665 H 327.964 -1.56423 -4.66683 0
M  V30 3666 N 329.616 1.39756 -0.72842 0
M  V30 3667 C 330.862 2.00942 -0.273892 0
M  V30 3668 C 331.195 1.57656 1.13394 0
M  V30 3669 O 330.47 0.802434 1.77176 0
M  V30 3670 C 330.753 3.58211 -0.368346 0
M  V30 3671 C 330.606 4.11534 -1.81548 0
M  V30 3672 C 331.925 4.39372 0.253054 0
M  V30 3673 H 329.044 0.730047 -0.100996 0
M  V30 3674 H 331.686 1.66056 -0.923337 0
M  V30 3675 H 329.836 3.88061 0.184588 0
M  V30 3676 H 331.508 3.92431 -2.42478 0
M  V30 3677 H 329.751 3.65341 -2.33898 0
M  V30 3678 H 330.422 5.20682 -1.83288 0
M  V30 3679 H 332.898 4.15527 -0.218224 0
M  V30 3680 H 331.774 5.48677 0.156585 0
M  V30 3681 H 332.035 4.21358 1.33826 0
M  V30 3682 N 331.094 0.475555 1.50254 0
M  V30 3683 C 332.024 -0.30611 2.31485 0
M  V30 3684 C 333.005 -0.986228 1.38591 0
M  V30 3685 O 334.19 -0.982541 1.67511 0
M  V30 3686 C 331.32 -1.38588 3.1845 0
M  V30 3687 C 330.274 -0.827115 4.19932 0
M  V30 3688 C 329.6 -2.00551 4.95665 0
M  V30 3689 C 330.9 0.16463 5.2204 0
M  V30 3690 H 332.594 0.371866 2.97082 0
M  V30 3691 H 330.14 0.180282 1.42867 0
M  V30 3692 H 332.093 -1.94023 3.74076 0
M  V30 3693 H 330.817 -2.09269 2.50747 0
M  V30 3694 H 329.476 -0.294702 3.65414 0
M  V30 3695 H 329.124 -2.6994 4.2443 0
M  V30 3696 H 328.824 -1.63784 5.64313 0
M  V30 3697 H 330.348 -2.56468 5.54127 0
M  V30 3698 H 331.762 -0.300699 5.72511 0
M  V30 3699 H 330.159 0.446813 5.98434 0
M  V30 3700 H 331.229 1.08905 4.72512 0
M  V30 3701 N 332.573 -1.56217 0.208337 0
M  V30 3702 C 333.821 -1.97558 -0.426076 0
M  V30 3703 C 334.142 -1.09683 -1.61229 0
M  V30 3704 O 333.412 -0.170956 -1.95153 0
M  V30 3705 H 331.992 -0.729575 -0.160405 0
M  V30 3706 H 334.654 -1.92606 0.298155 0
M  V30 3707 H 333.75 -3.02672 -0.761312 0
M  V30 3708 N 334.051 0.0651679 -1.57465 0
M  V30 3709 C 334.999 1.09542 -2.05191 0
M  V30 3710 C 335.993 1.39675 -0.958509 0
M  V30 3711 O 337.199 1.39003 -1.14359 0
M  V30 3712 H 333.574 0.370623 -0.654326 0
M  V30 3713 H 335.545 0.666802 -2.90854 0
M  V30 3714 C 334.294 2.39881 -2.51699 0
M  V30 3715 H 333.617 2.17547 -3.3543 0
M  V30 3716 H 335.057 3.104 -2.88839 0
M  V30 3717 C 333.516 3.0631 -1.40271 0
M  V30 3718 O 334.046 3.94664 -0.748523 0
M  V30 3719 N 332.252 2.67041 -1.14618 0
M  V30 3720 H 331.799 1.95281 -1.67997 0
M  V30 3721 H 331.757 3.1181 -0.402688 0
M  V30 3722 N 335.529 1.53961 0.336706 0
M  V30 3723 C 336.439 1.85432 1.43708 0
M  V30 3724 C 337.455 0.745053 1.57242 0
M  V30 3725 O 338.631 1.03804 1.72588 0
M  V30 3726 C 335.696 2.06349 2.78605 0
M  V30 3727 C 334.757 3.30191 2.74358 0
M  V30 3728 C 333.99 3.50101 4.02822 0
M  V30 3729 O 334.213 2.7371 5.00439 0
M  V30 3730 O 333.147 4.43547 4.06878 0
M  V30 3731 H 336.973 2.78975 1.20028 0
M  V30 3732 H 334.558 1.39701 0.52952 0
M  V30 3733 H 336.44 2.21513 3.58483 0
M  V30 3734 H 335.115 1.15995 3.02203 0
M  V30 3735 H 334.022 3.20425 1.93078 0
M  V30 3736 H 335.355 4.2056 2.55715 0
M  V30 3737 N 337.007 -0.598083 1.45811 0
M  V30 3738 C 337.97 -1.69018 1.54808 0
M  V30 3739 C 338.97 -1.55037 0.426652 0
M  V30 3740 O 340.16 -1.59932 0.690456 0
M  V30 3741 C 337.292 -3.0835 1.45371 0
M  V30 3742 H 338.485 -1.62403 2.52121 0
M  V30 3743 H 336.038 -0.814626 1.33392 0
M  V30 3744 H 336.773 -3.20534 0.492793 0
M  V30 3745 H 336.558 -3.19907 2.26721 0
M  V30 3746 H 338.048 -3.8788 1.54721 0
M  V30 3747 N 338.485 -1.33259 -0.841409 0
M  V30 3748 C 339.733 -1.24326 -1.59334 0
M  V30 3749 C 340.054 0.191564 -1.94057 0
M  V30 3750 O 339.324 1.11967 -1.60749 0
M  V30 3751 H 337.904 -0.457174 -0.590763 0
M  V30 3752 H 340.566 -1.66947 -1.00571 0
M  V30 3753 H 339.662 -1.8352 -2.52442 0
M  V30 3754 N 339.963 1.05934 -1.16686 0
M  V30 3755 C 340.91 2.13499 -0.876748 0
M  V30 3756 C 341.88 1.65162 0.176299 0
M  V30 3757 O 343.065 1.90757 0.0407143 0
M  V30 3758 C 340.205 3.42912 -0.387967 0
M  V30 3759 C 339.318 4.04964 -1.50426 0
M  V30 3760 C 338.453 5.22266 -0.970125 0
M  V30 3761 C 337.492 5.76309 -2.06238 0
M  V30 3762 N 336.629 6.84922 -1.54356 0
M  V30 3763 H 341.469 2.37654 -1.7979 0
M  V30 3764 H 339.006 1.16598 -0.896843 0
M  V30 3765 H 340.964 4.17111 -0.086186 0
M  V30 3766 H 339.594 3.18963 0.496235 0
M  V30 3767 H 338.646 3.28277 -1.92193 0
M  V30 3768 H 339.958 4.41122 -2.32836 0
M  V30 3769 H 339.112 6.03506 -0.621743 0
M  V30 3770 H 337.851 4.87564 -0.115377 0
M  V30 3771 H 336.856 4.93704 -2.41942 0
M  V30 3772 H 338.081 6.13062 -2.92115 0
M  V30 3773 H 336.027 6.52131 -0.711406 0
M  V30 3774 H 335.944 7.20043 -2.30379 0
M  V30 3775 H 337.212 7.69832 -1.22387 0
M  V30 3776 N 341.441 0.965919 1.2453 0
M  V30 3777 C 342.404 0.499547 2.2369 0
M  V30 3778 C 343.404 -0.40294 1.5567 0
M  V30 3779 O 344.594 -0.19865 1.73064 0
M  V30 3780 C 341.726 -0.276792 3.39774 0
M  V30 3781 H 342.919 1.37613 2.66463 0
M  V30 3782 H 340.472 0.750324 1.37112 0
M  V30 3783 H 341.207 -1.17055 3.02438 0
M  V30 3784 H 340.992 0.370826 3.90343 0
M  V30 3785 H 342.482 -0.592175 4.1338 0
M  V30 3786 N 342.919 -1.39368 0.735821 0
M  V30 3787 C 343.849 -2.33234 0.111506 0
M  V30 3788 C 344.83 -1.53954 -0.723334 0
M  V30 3789 O 346.015 -1.82344 -0.668147 0
M  V30 3790 C 343.145 -3.38057 -0.795917 0
M  V30 3791 C 342.099 -4.2795 -0.065172 0
M  V30 3792 C 341.425 -5.23479 -1.08967 0
M  V30 3793 C 342.725 -5.10741 1.09273 0
M  V30 3794 H 344.419 -2.85692 0.895571 0
M  V30 3795 H 341.965 -1.37364 0.432109 0
M  V30 3796 H 343.918 -4.02675 -1.24221 0
M  V30 3797 H 342.642 -2.8404 -1.61211 0
M  V30 3798 H 341.301 -3.64813 0.361511 0
M  V30 3799 H 340.949 -4.65758 -1.89944 0
M  V30 3800 H 340.649 -5.84472 -0.605489 0
M  V30 3801 H 342.173 -5.90974 -1.53565 0
M  V30 3802 H 343.587 -5.68699 0.724841 0
M  V30 3803 H 341.984 -5.8088 1.50659 0
M  V30 3804 H 343.054 -4.45525 1.91404 0
M  V30 3805 N 344.397 -0.483516 -1.5 0
M  V30 3806 C 345.625 0.0644831 -2.06799 0
M  V30 3807 C 346.04 1.32399 -1.34596 0
M  V30 3808 O 345.397 1.77626 -0.418946 0
M  V30 3809 C 345.448 0.339927 -3.59898 0
M  V30 3810 O 345.169 -0.869635 -4.29382 0
M  V30 3811 C 346.67 0.933515 -4.33359 0
M  V30 3812 H 343.89 -0.0126333 -0.670881 0
M  V30 3813 H 346.434 -0.675864 -1.93009 0
M  V30 3814 H 344.589 1.03022 -3.7345 0
M  V30 3815 H 345.003 -0.62179 -5.20801 0
M  V30 3816 H 346.477 1.07593 -5.41413 0
M  V30 3817 H 346.954 1.92685 -3.94676 0
M  V30 3818 H 347.56 0.281221 -4.24369 0
M  V30 3819 N 345.875 1.56104 -0.216619 0
M  V30 3820 C 346.838 2.18819 0.681962 0
M  V30 3821 C 347.838 1.14866 1.12528 0
M  V30 3822 O 349.028 1.40128 1.03488 0
M  V30 3823 C 346.16 2.80756 1.93362 0
M  V30 3824 H 347.353 2.99595 0.135254 0
M  V30 3825 H 344.906 1.56265 0.0330003 0
M  V30 3826 H 345.641 2.03837 2.52232 0
M  V30 3827 H 345.426 3.56876 1.62426 0
M  V30 3828 H 346.916 3.28844 2.57393 0
M  V30 3829 O 347.392 0.0802023 1.61301 0
M  V30 3830 H 348.083 -0.524716 1.86458 0
M  V30 END ATOM
M  V30 BEGIN BOND
M  V30 END BOND
M  V30 END CTAB
M  END
$$$$
