drugbank_target|P06576 ATP synthase subunit beta, mitochondrial (DB04216; DB07384; DB07394; DB08399; DB08629; DB12695)
 OpenBabel12092120423D

  0  0  0     0  0            999 V3000
M  V30 BEGIN CTAB
M  V30 COUNTS 8024 8094 0 0 0
M  V30 BEGIN ATOM
M  V30 1 H -0.908 1.98254 -0.117106 0
M  V30 2 N 0 1.576 0 0
M  V30 3 C 0.933 2.03868 1.02534 0
M  V30 4 C 1.911 0.928543 1.3348 0
M  V30 5 O 3.095 1.19667 1.45644 0
M  V30 6 C 0.222 2.43627 2.35294 0
M  V30 7 C -0.732 3.65373 2.2001 0
M  V30 8 S 0.101 5.13292 1.52614 0
M  V30 9 C 1.257 5.56322 2.86805 0
M  V30 10 H 1.49 2.90518 0.631377 0
M  V30 11 H -0.977 1.52953 0.210867 0
M  V30 12 H 0.981 2.67203 3.11629 0
M  V30 13 H -0.358 1.57376 2.7183 0
M  V30 14 H -1.165 3.90944 3.18086 0
M  V30 15 H -1.563 3.418 1.51819 0
M  V30 16 H 0.729 5.58782 3.83104 0
M  V30 17 H 1.672 6.56266 2.65933 0
M  V30 18 H 2.08 4.83886 2.90714 0
M  V30 19 N 1.4781 -0.272755 1.55222 0
M  V30 20 C 2.4081 -1.34136 1.91127 0
M  V30 21 C 3.3891 -1.51513 0.773168 0
M  V30 22 O 4.5741 -1.64552 1.03132 0
M  V30 23 C 1.7041 -2.70083 2.1834 0
M  V30 24 C 0.6581 -2.67437 3.34158 0
M  V30 25 C -0.0159 -4.06938 3.46851 0
M  V30 26 C 1.2841 -2.26686 4.70543 0
M  V30 27 H 2.9781 -1.04333 2.80633 0
M  V30 28 H 0.5241 -0.500454 1.35024 0
M  V30 29 H 2.4771 -3.44952 2.42046 0
M  V30 30 H 1.2011 -3.01469 1.25634 0
M  V30 31 H -0.1399 -1.95026 3.1042 0
M  V30 32 H -0.4919 -4.35547 2.51611 0
M  V30 33 H -0.7919 -4.06062 4.2472 0
M  V30 34 H 0.7321 -4.83545 3.72849 0
M  V30 35 H 2.1461 -2.91277 4.93792 0
M  V30 36 H 0.5431 -2.36971 5.5133 0
M  V30 37 H 1.6131 -1.21818 4.69349 0
M  V30 38 N 2.9562 -1.48159 -0.537278 0
M  V30 39 C 4.2042 -1.55497 -1.29094 0
M  V30 40 C 4.5252 -0.227454 -1.93669 0
M  V30 41 O 3.7952 0.750386 -1.80959 0
M  V30 42 H 2.3752 -0.572832 -0.47945 0
M  V30 43 H 5.0372 -1.84579 -0.625818 0
M  V30 44 H 4.1332 -2.33216 -2.07405 0
M  V30 45 N 4.4343 0.785586 -1.36625 0
M  V30 46 C 5.6813 1.54362 -1.31067 0
M  V30 47 C 6.0093 1.94195 0.10893 0
M  V30 48 O 5.2643 1.63262 1.07908 0
M  V30 49 C 5.5633 2.83007 -2.1827 0
M  V30 50 C 5.2293 2.62294 -3.6676 0
M  V30 51 C 3.8913 2.56353 -4.0723 0
M  V30 52 C 6.2433 2.43371 -4.6089 0
M  V30 53 C 3.5713 2.29461 -5.39967 0
M  V30 54 C 5.9233 2.18005 -5.93849 0
M  V30 55 C 4.5873 2.105 -6.3344 0
M  V30 56 H 3.8573 0.564851 -0.479609 0
M  V30 57 H 6.5043 0.906028 -1.68711 0
M  V30 58 H 4.8093 3.51253 -1.73576 0
M  V30 59 H 6.5063 3.40817 -2.11292 0
M  V30 60 H 3.0963 2.67774 -3.34656 0
M  V30 61 H 7.2803 2.46959 -4.30494 0
M  V30 62 H 2.5363 2.22135 -5.69619 0
M  V30 63 H 6.7103 2.02359 -6.66351 0
M  V30 64 H 4.3373 1.89425 -7.36222 0
M  V30 65 N 5.9124 1.20967 1.01018 0
M  V30 66 C 7.1584 1.02526 1.74975 0
M  V30 67 C 7.4914 -0.4408 1.89131 0
M  V30 68 O 6.7664 -1.32718 1.42184 0
M  V30 69 C 7.0494 1.71699 3.1653 0
M  V30 70 C 6.9024 3.25791 3.10129 0
M  V30 71 C 8.2214 1.45531 4.15342 0
M  V30 72 H 5.3404 0.373863 0.635134 0
M  V30 73 H 7.9824 1.49071 1.17805 0
M  V30 74 H 6.1324 1.32128 3.65341 0
M  V30 75 H 7.8044 3.74697 2.69072 0
M  V30 76 H 6.0474 3.56363 2.47362 0
M  V30 77 H 6.7184 3.69353 4.10222 0
M  V30 78 H 9.1944 1.79872 3.75213 0
M  V30 79 H 8.0704 1.96453 5.1254 0
M  V30 80 H 8.3314 0.384237 4.40427 0
M  V30 81 N 7.3905 -1.2043 1.01659 0
M  V30 82 C 8.6385 -1.89423 0.704522 0
M  V30 83 C 8.9595 -1.79231 -0.768197 0
M  V30 84 O 8.2295 -1.1947 -1.55254 0
M  V30 85 H 6.8095 -0.701178 0.257602 0
M  V30 86 H 9.4715 -1.4626 1.28818 0
M  V30 87 H 8.5675 -2.96052 0.987916 0
M  V30 88 N 8.8686 -0.792821 -1.36206 0
M  V30 89 C 10.2846 -0.474903 -1.52371 0
M  V30 90 C 10.4846 1.00622 -1.74578 0
M  V30 91 O 9.5406 1.79162 -1.77924 0
M  V30 92 C 10.8536 -1.3083 -2.70747 0
M  V30 93 C 12.4016 -1.30234 -2.84619 0
M  V30 94 C 12.8766 -2.11956 -4.06004 0
M  V30 95 N 14.3676 -2.09419 -4.13156 0
M  V30 96 C 15.1026 -2.69419 -5.06163 0
M  V30 97 N 14.5986 -3.3829 -6.04592 0
M  V30 98 N 16.3916 -2.59134 -4.98804 0
M  V30 99 H 8.5426 -1.75222 -1.20046 0
M  V30 100 H 10.8056 -0.745024 -0.586211 0
M  V30 101 H 10.5116 -2.35881 -2.6087 0
M  V30 102 H 10.3856 -0.95196 -3.6499 0
M  V30 103 H 12.7726 -0.259748 -2.93955 0
M  V30 104 H 12.8536 -1.69847 -1.91274 0
M  V30 105 H 12.4976 -3.16248 -3.97429 0
M  V30 106 H 12.4276 -1.69711 -4.98503 0
M  V30 107 H 14.9186 -1.59297 -3.42685 0
M  V30 108 H 15.2316 -3.81394 -6.7213 0
M  V30 109 H 13.5766 -3.42393 -6.04807 0
M  V30 110 H 16.7676 -2.04927 -4.20859 0
M  V30 111 H 16.9406 -3.06185 -5.711 0
M  V30 112 N 10.3467 1.47872 -0.545128 0
M  V30 113 C 11.5927 2.02793 -0.0166104 0
M  V30 114 C 11.9257 1.41987 1.32489 0
M  V30 115 O 11.2007 0.571045 1.85928 0
M  V30 116 C 11.4837 3.59989 0.0893294 0
M  V30 117 C 11.3367 4.3125 -1.27841 0
M  V30 118 C 12.6557 4.32606 0.808724 0
M  V30 119 H 9.7747 0.736962 -0.00751035 0
M  V30 120 H 12.4167 1.76433 -0.705085 0
M  V30 121 H 10.5667 3.82579 0.675681 0
M  V30 122 H 12.2387 4.20035 -1.90704 0
M  V30 123 H 10.4817 3.92076 -1.85632 0
M  V30 124 H 11.1527 5.39736 -1.15713 0
M  V30 125 H 13.6287 4.14936 0.310992 0
M  V30 126 H 12.5047 5.42251 0.851782 0
M  V30 127 H 12.7657 4.00963 1.86229 0
M  V30 128 N 11.8248 0.280983 1.55075 0
M  V30 129 C 12.7878 -0.590896 2.21452 0
M  V30 130 C 13.7878 -1.07682 1.19421 0
M  V30 131 O 14.9778 -0.97605 1.44288 0
M  V30 132 C 12.1098 -1.81587 2.88511 0
M  V30 133 H 13.3028 -0.0112554 2.99898 0
M  V30 134 H 10.8558 0.0316438 1.56268 0
M  V30 135 H 11.5908 -2.43587 2.14093 0
M  V30 136 H 11.3758 -1.4753 3.63287 0
M  V30 137 H 12.8658 -2.43575 3.39206 0
M  V30 138 N 13.3029 -1.57598 0.00835791 0
M  V30 139 C 14.2659 -2.07884 -0.965242 0
M  V30 140 C 15.2659 -0.989825 -1.26725 0
M  V30 141 O 16.4559 -1.25218 -1.21104 0
M  V30 142 C 13.5879 -2.52731 -2.28779 0
M  V30 143 H 14.7809 -2.95178 -0.530112 0
M  V30 144 H 12.3339 -1.54458 -0.239283 0
M  V30 145 H 13.0689 -1.68705 -2.76964 0
M  V30 146 H 12.8539 -3.32272 -2.08177 0
M  V30 147 H 14.3439 -2.91933 -2.98605 0
M  V30 148 N 14.781 0.264519 -1.55364 0
M  V30 149 C 15.744 1.31046 -1.88042 0
M  V30 150 C 16.744 1.41943 -0.755569 0
M  V30 151 O 17.934 1.40947 -1.02369 0
M  V30 152 C 15.066 2.69067 -2.09323 0
M  V30 153 H 16.259 1.03297 -2.81549 0
M  V30 154 H 13.812 0.502989 -1.47986 0
M  V30 155 H 14.547 3.01982 -1.18226 0
M  V30 156 H 14.332 2.62542 -2.91229 0
M  V30 157 H 15.822 3.44623 -2.35848 0
M  V30 158 N 16.2591 1.48442 0.529413 0
M  V30 159 C 17.6701 1.5002 1.11134 0
M  V30 160 C 18.0211 0.27031 1.94329 0
M  V30 161 O 17.1461 -0.622507 2.07253 0
M  V30 162 C 17.7411 2.71834 2.02217 0
M  V30 163 C 16.3001 2.76283 2.55627 0
M  V30 164 C 15.4471 2.43542 1.326 0
M  V30 165 H 18.3981 1.5555 0.314641 0
M  V30 166 H 18.4191 2.50384 2.8651 0
M  V30 167 H 17.9311 3.61331 1.41639 0
M  V30 168 H 16.0321 1.90995 3.19924 0
M  V30 169 H 16.1451 3.77725 2.94721 0
M  V30 170 H 14.5091 1.94709 1.64196 0
M  V30 171 H 15.2921 3.3528 0.737734 0
M  V30 172 N 17.7372 -0.778329 1.37039 0
M  V30 173 C 18.7002 -1.87301 1.32102 0
M  V30 174 C 19.7002 -1.59198 0.226405 0
M  V30 175 O 20.8902 -1.67403 0.481861 0
M  V30 176 C 18.0222 -3.24309 1.05055 0
M  V30 177 H 19.2152 -1.93093 2.29467 0
M  V30 178 H 16.7682 -0.977358 1.21973 0
M  V30 179 H 17.5032 -3.24196 0.0819373 0
M  V30 180 H 17.2882 -3.46098 1.84279 0
M  V30 181 H 18.7782 -4.04382 1.04234 0
M  V30 182 N 19.2153 -1.21501 -1.00376 0
M  V30 183 C 20.4403 -1.05977 -1.78279 0
M  V30 184 C 20.8653 0.385994 -1.84097 0
M  V30 185 O 20.2233 1.27849 -1.28547 0
M  V30 186 C 20.2713 -1.66302 -3.19963 0
M  V30 187 O 19.3753 -0.909333 -4.0225 0
M  V30 188 H 18.7163 -0.372906 -0.549397 0
M  V30 189 H 21.2463 -1.6107 -1.26165 0
M  V30 190 H 21.2563 -1.70574 -3.70632 0
M  V30 191 H 19.9313 -2.71515 -3.15043 0
M  V30 192 H 18.5083 -0.941795 -3.60811 0
M  V30 193 N 20.6934 1.19889 -1.02296 0
M  V30 194 C 21.9414 1.89046 -0.714558 0
M  V30 195 C 22.2624 1.79636 0.758681 0
M  V30 196 O 21.5324 1.20292 1.54618 0
M  V30 197 H 20.1124 0.699802 -0.261317 0
M  V30 198 H 22.7744 1.45574 -1.29592 0
M  V30 199 H 21.8704 2.95524 -1.0036 0
M  V30 200 N 22.1715 0.800033 1.35784 0
M  V30 201 C 23.1345 0.211565 2.28221 0
M  V30 202 C 24.1345 -0.59728 1.49296 0
M  V30 203 O 25.3245 -0.416721 1.69142 0
M  V30 204 C 22.4565 -0.705846 3.33513 0
M  V30 205 H 23.6495 1.02677 2.81776 0
M  V30 206 H 21.2025 0.570211 1.45528 0
M  V30 207 H 21.9375 -1.54498 2.85133 0
M  V30 208 H 21.7225 -0.127655 3.91892 0
M  V30 209 H 23.2125 -1.11211 4.02519 0
M  V30 210 N 23.6496 -1.47581 0.552962 0
M  V30 211 C 24.5796 -2.32762 -0.185451 0
M  V30 212 C 25.5606 -1.43527 -0.912905 0
M  V30 213 O 26.7456 -1.72388 -0.894201 0
M  V30 214 C 23.8756 -3.25219 -1.21859 0
M  V30 215 C 22.8296 -4.23661 -0.607864 0
M  V30 216 C 22.1556 -5.05413 -1.74533 0
M  V30 217 C 23.4556 -5.20481 0.435582 0
M  V30 218 H 25.1496 -2.94749 0.525684 0
M  V30 219 H 22.6956 -1.41738 0.254251 0
M  V30 220 H 24.6486 -3.8365 -1.7433 0
M  V30 221 H 23.3726 -2.61279 -1.95961 0
M  V30 222 H 22.0316 -3.66451 -0.104489 0
M  V30 223 H 21.6796 -4.3788 -2.47529 0
M  V30 224 H 21.3796 -5.72059 -1.34249 0
M  V30 225 H 22.9036 -5.66701 -2.27338 0
M  V30 226 H 24.3176 -5.733 -0.00290157 0
M  V30 227 H 22.7146 -5.95305 0.757067 0
M  V30 228 H 23.7846 -4.66217 1.33303 0
M  V30 229 N 25.1277 -0.289203 -1.54924 0
M  V30 230 C 26.5437 0.0645403 -1.59469 0
M  V30 231 C 26.7437 1.53419 -1.30632 0
M  V30 232 O 25.7997 2.2852 -1.074 0
M  V30 233 C 27.1127 -0.32278 -2.98963 0
M  V30 234 C 28.6607 -0.270564 -3.11828 0
M  V30 235 C 29.1357 -0.632532 -4.53611 0
M  V30 236 N 30.6267 -0.584617 -4.59496 0
M  V30 237 C 31.3617 -0.837314 -5.67254 0
M  V30 238 N 30.8577 -1.15536 -6.83098 0
M  V30 239 N 32.6507 -0.765166 -5.56868 0
M  V30 240 H 24.8017 -1.24714 -1.71931 0
M  V30 241 H 27.0647 -0.504809 -0.802416 0
M  V30 242 H 26.7707 -1.34541 -3.24948 0
M  V30 243 H 26.6447 0.32944 -3.75759 0
M  V30 244 H 29.0317 0.742805 -2.85598 0
M  V30 245 H 29.1127 -0.957242 -2.37214 0
M  V30 246 H 28.7567 -1.64365 -4.80569 0
M  V30 247 H 28.6867 0.07609 -5.26545 0
M  V30 248 H 31.1777 -0.349248 -3.76283 0
M  V30 249 H 31.4907 -1.33447 -7.61191 0
M  V30 250 H 29.8357 -1.19328 -6.84679 0
M  V30 251 H 33.0267 -0.516432 -4.65243 0
M  V30 252 H 33.1997 -0.965477 -6.40767 0
M  V30 253 N 26.6058 1.57591 -0.0167156 0
M  V30 254 C 28.0218 1.55946 0.339557 0
M  V30 255 C 28.2218 1.02109 1.73713 0
M  V30 256 O 27.2778 0.662303 2.43659 0
M  V30 257 C 28.5908 3.00037 0.199499 0
M  V30 258 C 30.1388 3.11805 0.273193 0
M  V30 259 C 30.6138 4.57713 0.162068 0
M  V30 260 N 32.1048 4.6268 0.219444 0
M  V30 261 C 32.8398 5.73185 0.157054 0
M  V30 262 N 32.3358 6.92786 0.0442936 0
M  V30 263 N 34.1288 5.61707 0.21014 0
M  V30 264 H 26.2798 1.90921 -0.930758 0
M  V30 265 H 28.5428 0.877674 -0.358319 0
M  V30 266 H 28.2488 3.4333 -0.76273 0
M  V30 267 H 28.1228 3.64387 0.974786 0
M  V30 268 H 30.5098 2.68433 1.22587 0
M  V30 269 H 30.5908 2.50201 -0.532256 0
M  V30 270 H 30.2348 5.01763 -0.78714 0
M  V30 271 H 30.1648 5.17283 0.986222 0
M  V30 272 H 32.6558 3.76649 0.307246 0
M  V30 273 H 32.9688 7.728 0.00304069 0
M  V30 274 H 31.3138 6.94999 0.00968457 0
M  V30 275 H 34.5048 4.6716 0.296546 0
M  V30 276 H 34.6778 6.47807 0.158054 0
M  V30 277 N 28.0839 -0.256276 1.55502 0
M  V30 278 C 29.0139 -1.32102 1.92539 0
M  V30 279 C 29.9949 -1.50684 0.789194 0
M  V30 280 O 31.1799 -1.63449 1.04872 0
M  V30 281 C 28.3099 -2.67752 2.21192 0
M  V30 282 C 27.2639 -2.63878 3.36975 0
M  V30 283 C 26.5899 -4.03236 3.51147 0
M  V30 284 C 27.8899 -2.21682 4.72921 0
M  V30 285 H 29.5839 -1.01351 2.81724 0
M  V30 286 H 27.1299 -0.486105 1.35547 0
M  V30 287 H 29.0829 -3.42365 2.45691 0
M  V30 288 H 27.8069 -3.0012 1.28824 0
M  V30 289 H 26.4659 -1.91722 3.12471 0
M  V30 290 H 26.1139 -4.32854 2.56216 0
M  V30 291 H 25.8139 -4.01535 4.29003 0
M  V30 292 H 27.3379 -4.79563 3.77957 0
M  V30 293 H 28.7519 -2.86023 4.96854 0
M  V30 294 H 27.1489 -2.3111 5.53812 0
M  V30 295 H 28.2189 -1.16833 4.70615 0
M  V30 296 N 29.562 -1.4872 -0.521534 0
M  V30 297 C 30.79 -1.60843 -1.30142 0
M  V30 298 C 31.205 -0.271897 -1.86832 0
M  V30 299 O 30.562 0.739969 -1.66825 0
M  V30 300 C 30.613 -2.66155 -2.4463 0
M  V30 301 O 30.334 -3.94623 -1.90275 0
M  V30 302 C 31.835 -2.88795 -3.36322 0
M  V30 303 H 29.055 -0.542075 -0.395468 0
M  V30 304 H 31.599 -1.94609 -0.628285 0
M  V30 305 H 29.754 -2.35224 -3.07812 0
M  V30 306 H 30.168 -4.52468 -2.65279 0
M  V30 307 H 31.642 -3.66264 -4.12983 0
M  V30 308 H 32.119 -1.97934 -3.9207 0
M  V30 309 H 32.725 -3.21063 -2.78924 0
M  V30 310 N 31.0401 0.771051 -1.3745 0
M  V30 311 C 32.4511 1.34737 -1.29239 0
M  V30 312 C 32.8021 1.96109 0.0596908 0
M  V30 313 O 31.9271 1.93865 0.961534 0
M  V30 314 C 32.5221 2.44973 -2.34037 0
M  V30 315 C 31.0811 2.98372 -2.29458 0
M  V30 316 C 30.2281 1.71595 -2.17831 0
M  V30 317 H 33.1791 0.571256 -1.48062 0
M  V30 318 H 33.2001 3.24471 -1.98744 0
M  V30 319 H 32.7121 2.00276 -3.32432 0
M  V30 320 H 30.8131 3.47443 -1.34589 0
M  V30 321 H 30.9261 3.53939 -3.229 0
M  V30 322 H 29.2901 1.94547 -1.64388 0
M  V30 323 H 30.0731 1.29001 -3.18141 0
M  V30 324 N 32.5182 1.22032 0.997298 0
M  V30 325 C 33.7432 1.06921 1.77715 0
M  V30 326 C 34.1682 -0.376226 1.84299 0
M  V30 327 O 33.5262 -1.27165 1.29223 0
M  V30 328 C 33.5742 1.67996 3.19076 0
M  V30 329 O 32.6782 0.930653 4.01762 0
M  V30 330 H 32.0192 0.375814 0.547412 0
M  V30 331 H 34.5492 1.61737 1.25309 0
M  V30 332 H 34.5592 1.72538 3.69723 0
M  V30 333 H 33.2342 2.73182 3.13599 0
M  V30 334 H 31.8112 0.960917 3.60307 0
M  V30 335 N 33.9963 -1.19345 1.0293 0
M  V30 336 C 34.9593 -2.20793 0.615069 0
M  V30 337 C 35.9593 -1.57553 -0.321533 0
M  V30 338 O 37.1493 -1.73862 -0.108483 0
M  V30 339 C 34.2813 -3.40754 -0.0999222 0
M  V30 340 H 35.4743 -2.58955 1.51269 0
M  V30 341 H 33.0273 -1.3303 0.820534 0
M  V30 342 H 33.7623 -3.0811 -1.01187 0
M  V30 343 H 33.5473 -3.87889 0.57309 0
M  V30 344 H 35.0373 -4.15898 -0.376645 0
M  V30 345 N 35.4744 -0.807222 -1.35358 0
M  V30 346 C 36.6994 -0.399309 -2.0352 0
M  V30 347 C 37.1244 0.981986 -1.60433 0
M  V30 348 O 36.4824 1.63601 -0.781299 0
M  V30 349 C 36.5304 -0.491552 -3.57234 0
M  V30 350 O 35.6344 0.494754 -4.09421 0
M  V30 351 H 34.9754 -0.166682 -0.642739 0
M  V30 352 H 37.5054 -1.09328 -1.72941 0
M  V30 353 H 37.5154 -0.361588 -4.06395 0
M  V30 354 H 36.1904 -1.49907 -3.87944 0
M  V30 355 H 34.7674 0.324977 -3.71481 0
M  V30 356 N 36.9525 1.47285 -0.560781 0
M  V30 357 C 37.8825 2.32857 0.173105 0
M  V30 358 C 38.8635 1.44009 0.905281 0
M  V30 359 O 40.0485 1.7286 0.885046 0
M  V30 360 C 37.1785 3.25861 1.20133 0
M  V30 361 C 36.1325 4.23978 0.585388 0
M  V30 362 C 35.4585 5.06332 1.7185 0
M  V30 363 C 36.7585 5.20242 -0.463178 0
M  V30 364 H 38.4525 2.94466 -0.541307 0
M  V30 365 H 35.9985 1.41601 -0.261764 0
M  V30 366 H 37.9515 3.84569 1.72293 0
M  V30 367 H 36.6755 2.62315 1.94573 0
M  V30 368 H 35.3345 3.66501 0.085054 0
M  V30 369 H 34.9825 4.39186 2.45203 0
M  V30 370 H 34.6825 5.72762 1.31213 0
M  V30 371 H 36.2065 5.67899 2.24329 0
M  V30 372 H 37.6205 5.73293 -0.027502 0
M  V30 373 H 36.0175 5.94896 -0.788627 0
M  V30 374 H 37.0875 4.65504 -1.35773 0
M  V30 375 N 38.4306 0.297415 1.54768 0
M  V30 376 C 39.8416 -0.195947 1.85669 0
M  V30 377 C 40.1926 -1.53707 1.21937 0
M  V30 378 O 39.3176 -2.10164 0.515754 0
M  V30 379 C 39.9126 -0.362318 3.36857 0
M  V30 380 C 38.4716 -0.799901 3.67802 0
M  V30 381 C 37.6186 0.0938578 2.77141 0
M  V30 382 H 40.5696 0.518538 1.4999 0
M  V30 383 H 40.5906 -1.19745 3.61167 0
M  V30 384 H 40.1026 0.613921 3.83214 0
M  V30 385 H 38.2036 -1.78682 3.26961 0
M  V30 386 H 38.3166 -0.621773 4.75048 0
M  V30 387 H 36.6806 -0.426254 2.51108 0
M  V30 388 H 37.4636 1.06639 3.26318 0
M  V30 389 N 39.9087 -1.5758 0.0250728 0
M  V30 390 C 41.3197 -1.79476 -0.514323 0
M  V30 391 C 41.6707 -0.934956 -1.72491 0
M  V30 392 O 40.7957 -0.144245 -2.15919 0
M  V30 393 C 41.3907 -3.25503 -0.939842 0
M  V30 394 C 39.9497 -3.48408 -1.42438 0
M  V30 395 C 39.0967 -2.74583 -0.387201 0
M  V30 396 H 42.0477 -1.567 0.25113 0
M  V30 397 H 42.0687 -3.34992 -1.80445 0
M  V30 398 H 41.5807 -3.88056 -0.0585628 0
M  V30 399 H 39.6817 -2.91103 -2.32572 0
M  V30 400 H 39.7947 -4.57119 -1.43455 0
M  V30 401 H 38.1587 -2.39942 -0.854409 0
M  V30 402 H 38.9417 -3.39849 0.485543 0
M  V30 403 N 41.3868 0.248026 -1.55636 0
M  V30 404 C 42.3498 1.29044 -1.89421 0
M  V30 405 C 43.3498 1.41134 -0.770581 0
M  V30 406 O 44.5398 1.39854 -1.03858 0
M  V30 407 C 41.6718 2.66831 -2.12165 0
M  V30 408 H 42.8648 1.00305 -2.82629 0
M  V30 409 H 40.4178 0.487265 -1.48511 0
M  V30 410 H 41.1528 3.00711 -1.21422 0
M  V30 411 H 40.9378 2.59438 -2.93997 0
M  V30 412 H 42.4278 3.42103 -2.3949 0
M  V30 413 N 42.8649 1.48995 0.513639 0
M  V30 414 C 43.7969 1.60836 1.63293 0
M  V30 415 C 44.8099 0.491701 1.55197 0
M  V30 416 O 45.9989 0.763238 1.6136 0
M  V30 417 C 43.0989 1.53731 3.02027 0
M  V30 418 C 42.2719 2.80715 3.35437 0
M  V30 419 C 41.3309 2.66837 4.53525 0
M  V30 420 O 40.3569 3.40753 4.55934 0
M  V30 421 N 41.5589 1.77539 5.52684 0
M  V30 422 H 44.3239 2.57366 1.53566 0
M  V30 423 H 41.8849 1.45925 0.701259 0
M  V30 424 H 43.8769 1.42118 3.78926 0
M  V30 425 H 42.4469 0.651092 3.05744 0
M  V30 426 H 41.6669 3.06772 2.47557 0
M  V30 427 H 42.9549 3.64927 3.54551 0
M  V30 428 H 42.3529 1.16719 5.53528 0
M  V30 429 H 40.9099 1.71856 6.28736 0
M  V30 430 N 44.343 -0.763751 1.37857 0
M  V30 431 C 45.273 -1.89103 1.36975 0
M  V30 432 C 46.254 -1.68439 0.237152 0
M  V30 433 O 47.439 -1.8918 0.438713 0
M  V30 434 C 44.569 -3.26496 1.18395 0
M  V30 435 C 43.523 -3.61741 2.28751 0
M  V30 436 C 42.849 -4.97762 1.95286 0
M  V30 437 C 44.149 -3.67665 3.70972 0
M  V30 438 H 45.843 -1.90099 2.31307 0
M  V30 439 H 43.389 -0.91319 1.11341 0
M  V30 440 H 45.342 -4.05003 1.16406 0
M  V30 441 H 44.066 -3.25955 0.205215 0
M  V30 442 H 42.725 -2.85547 2.29909 0
M  V30 443 H 42.373 -4.93769 0.959221 0
M  V30 444 H 42.073 -5.22313 2.69189 0
M  V30 445 H 43.597 -5.7866 1.94898 0
M  V30 446 H 45.011 -4.36307 3.719 0
M  V30 447 H 43.408 -4.03718 4.43995 0
M  V30 448 H 44.478 -2.68134 4.0402 0
M  V30 449 N 45.8211 -1.22559 -0.990812 0
M  V30 450 C 46.7511 -1.0218 -2.09956 0
M  V30 451 C 47.7321 0.0579394 -1.70001 0
M  V30 452 O 48.9171 -0.104684 -1.93918 0
M  V30 453 C 46.0471 -0.601023 -3.4206 0
M  V30 454 C 45.0011 -1.62694 -3.95872 0
M  V30 455 C 44.3271 -1.06193 -5.24049 0
M  V30 456 C 45.6271 -3.01743 -4.2632 0
M  V30 457 H 47.3211 -1.94916 -2.27262 0
M  V30 458 H 44.8671 -0.938566 -1.09211 0
M  V30 459 H 46.8201 -0.445561 -4.19038 0
M  V30 460 H 45.5441 0.362005 -3.24588 0
M  V30 461 H 44.2031 -1.77021 -3.21028 0
M  V30 462 H 43.8511 -0.0901903 -5.02919 0
M  V30 463 H 43.5511 -1.74732 -5.61019 0
M  V30 464 H 45.0751 -0.918092 -6.03658 0
M  V30 465 H 46.4891 -2.90777 -4.94087 0
M  V30 466 H 44.8861 -3.67425 -4.74467 0
M  V30 467 H 45.9561 -3.51518 -3.34011 0
M  V30 468 N 47.2992 1.18797 -1.03562 0
M  V30 469 C 48.2292 2.24472 -0.643019 0
M  V30 470 C 49.2102 1.66433 0.351283 0
M  V30 471 O 50.3952 1.92803 0.232505 0
M  V30 472 C 47.5252 3.473 4.24935e-05 0
M  V30 473 C 46.4792 4.18055 -0.917257 0
M  V30 474 C 45.8052 5.34519 -0.138941 0
M  V30 475 C 47.1052 4.72109 -2.23407 0
M  V30 476 H 48.7992 2.57566 -1.52643 0
M  V30 477 H 46.3452 1.23806 -0.735394 0
M  V30 478 H 48.2982 4.20426 0.286383 0
M  V30 479 H 47.0222 3.13424 0.918299 0
M  V30 480 H 45.6812 3.46821 -1.1879 0
M  V30 481 H 45.3292 4.96891 0.781562 0
M  V30 482 H 45.0292 5.82794 -0.750005 0
M  V30 483 H 46.5532 6.10438 0.1405 0
M  V30 484 H 47.9672 5.36955 -2.00879 0
M  V30 485 H 46.3642 5.30897 -2.79765 0
M  V30 486 H 47.4342 3.89807 -2.88407 0
M  V30 487 N 48.7773 0.814389 1.34928 0
M  V30 488 C 50.1933 0.499084 1.51596 0
M  V30 489 C 50.3933 -0.978319 1.76157 0
M  V30 490 O 49.4493 -1.76309 1.80752 0
M  V30 491 C 50.7623 1.35121 2.68631 0
M  V30 492 C 52.3103 1.34746 2.82511 0
M  V30 493 C 52.7853 2.18388 4.0258 0
M  V30 494 N 54.2763 2.15966 4.09772 0
M  V30 495 C 55.0113 2.77437 5.01813 0
M  V30 496 N 54.5073 3.47866 5.99134 0
M  V30 497 N 56.3003 2.67037 4.94619 0
M  V30 498 H 48.4513 1.7711 1.17243 0
M  V30 499 H 50.7143 0.754256 0.574284 0
M  V30 500 H 50.4203 2.40001 2.57085 0
M  V30 501 H 50.2943 1.00991 3.63429 0
M  V30 502 H 52.6813 0.30648 2.93504 0
M  V30 503 H 52.7623 1.72869 1.88547 0
M  V30 504 H 52.4063 3.2253 3.92347 0
M  V30 505 H 52.3363 1.77621 4.9574 0
M  V30 506 H 54.8273 1.64729 3.40107 0
M  V30 507 H 55.1403 3.92038 6.65977 0
M  V30 508 H 53.4853 3.51972 5.99284 0
M  V30 509 H 56.6763 2.11597 4.17546 0
M  V30 510 H 56.8493 3.15232 5.66156 0
M  V30 511 N 50.2554 -1.46986 0.568584 0
M  V30 512 C 51.2184 -2.28624 -0.162366 0
M  V30 513 C 52.2184 -1.37596 -0.832103 0
M  V30 514 O 53.4084 -1.60115 -0.68622 0
M  V30 515 C 50.5404 -3.17596 -1.23878 0
M  V30 516 H 51.7334 -2.94722 0.554899 0
M  V30 517 H 49.2864 -1.52863 0.325976 0
M  V30 518 H 50.0214 -2.56214 -1.98808 0
M  V30 519 H 49.8064 -3.846 -0.763219 0
M  V30 520 H 51.2964 -3.79078 -1.75185 0
M  V30 521 N 51.7335 -0.305618 -1.54608 0
M  V30 522 C 52.6965 0.555591 -2.22364 0
M  V30 523 C 53.6965 1.05768 -1.21119 0
M  V30 524 O 54.8865 0.952972 -1.45822 0
M  V30 525 C 52.0185 1.76974 -2.91364 0
M  V30 526 H 53.2115 -0.0364572 -2.99878 0
M  V30 527 H 50.7645 -0.0565007 -1.56198 0
M  V30 528 H 51.4995 2.40151 -2.17941 0
M  V30 529 H 51.2845 1.41732 -3.65588 0
M  V30 530 H 52.7745 2.38148 -3.43038 0
M  V30 531 N 53.2116 1.57565 -0.0334293 0
M  V30 532 C 54.6226 1.79746 0.504798 0
M  V30 533 C 54.9736 0.944091 1.71992 0
M  V30 534 O 54.0986 0.155694 2.15839 0
M  V30 535 C 54.6936 3.25997 0.922567 0
M  V30 536 C 53.2526 3.49159 1.40588 0
M  V30 537 C 52.3996 2.74785 0.372633 0
M  V30 538 H 55.3506 1.56565 -0.259436 0
M  V30 539 H 55.3716 3.35945 1.78666 0
M  V30 540 H 54.8836 3.88081 0.0379825 0
M  V30 541 H 52.9846 2.92332 2.31025 0
M  V30 542 H 53.0976 4.57873 1.41028 0
M  V30 543 H 51.4616 2.40391 0.841672 0
M  V30 544 H 52.2446 3.39587 -0.503559 0
M  V30 545 N 54.6897 -0.239769 1.55765 0
M  V30 546 C 55.9177 -0.98417 1.81994 0
M  V30 547 C 56.3327 -1.7867 0.610124 0
M  V30 548 O 55.6897 -1.77571 -0.421271 0
M  V30 549 C 55.7407 -1.91635 3.06526 0
M  V30 550 O 55.4617 -1.14629 4.22838 0
M  V30 551 C 56.9627 -2.77616 3.45607 0
M  V30 552 H 54.1827 -0.28928 0.605441 0
M  V30 553 H 56.7267 -0.260499 2.02834 0
M  V30 554 H 54.8817 -2.5942 2.87715 0
M  V30 555 H 55.2957 -1.77745 4.93464 0
M  V30 556 H 56.7697 -3.38759 4.35828 0
M  V30 557 H 57.2467 -3.4909 2.6652 0
M  V30 558 H 57.8527 -2.15271 3.66795 0
M  V30 559 N 56.1678 -1.49265 -0.50573 0
M  V30 560 C 57.1308 -1.65075 -1.59006 0
M  V30 561 C 58.1308 -0.522768 -1.52065 0
M  V30 562 O 59.3208 -0.789117 -1.55302 0
M  V30 563 C 56.4528 -1.64369 -2.98656 0
M  V30 564 H 57.6458 -2.61784 -1.46319 0
M  V30 565 H 55.1988 -1.38226 -0.729616 0
M  V30 566 H 55.9338 -0.692272 -3.16825 0
M  V30 567 H 55.7188 -2.46282 -3.05103 0
M  V30 568 H 57.2088 -1.78674 -3.77446 0
M  V30 569 N 57.6459 0.756429 -1.3826 0
M  V30 570 C 58.8919 1.51772 -1.34511 0
M  V30 571 C 59.2249 1.94089 0.0656691 0
M  V30 572 O 58.4999 1.65221 1.02626 0
M  V30 573 C 58.7829 2.77226 -2.29821 0
M  V30 574 C 58.6359 2.41065 -3.79747 0
M  V30 575 C 59.9549 3.79236 -2.23312 0
M  V30 576 H 57.0739 0.550578 -0.489931 0
M  V30 577 H 59.7159 0.866607 -1.69086 0
M  V30 578 H 57.8659 3.32784 -2.00467 0
M  V30 579 H 59.5379 1.91303 -4.19763 0
M  V30 580 H 57.7809 1.7356 -3.97567 0
M  V30 581 H 58.4519 3.3081 -4.41892 0
M  V30 582 H 60.9279 3.3321 -2.49219 0
M  V30 583 H 59.8039 4.64714 -2.92116 0
M  V30 584 H 60.0649 4.24615 -1.23102 0
M  V30 585 N 59.124 1.23083 0.984299 0
M  V30 586 C 60.074 0.975749 2.06066 0
M  V30 587 C 61.058 -0.0768251 1.60716 0
M  V30 588 O 62.25 0.134805 1.76486 0
M  V30 589 C 59.379 0.564673 3.38624 0
M  V30 590 C 58.465 1.65244 3.90583 0
M  V30 591 N 58.856 2.88193 4.15666 0
M  V30 592 C 57.154 1.52612 4.19077 0
M  V30 593 C 57.855 3.58593 4.58024 0
M  V30 594 N 56.831 2.86093 4.62225 0
M  V30 595 H 60.633 1.90957 2.23411 0
M  V30 596 H 58.147 1.12963 1.16675 0
M  V30 597 H 60.144 0.36322 4.15315 0
M  V30 598 H 58.804 -0.362147 3.22674 0
M  V30 599 H 59.815 3.24537 4.03604 0
M  V30 600 H 56.492 0.666121 4.12152 0
M  V30 601 H 57.882 4.63974 4.85982 0
M  V30 602 N 60.6021 -1.18246 1.0419 0
M  V30 603 C 62.0131 -1.69914 0.773698 0
M  V30 604 C 62.3641 -1.83085 -0.705297 0
M  V30 605 O 61.4891 -1.51123 -1.5489 0
M  V30 606 C 62.0841 -3.08619 1.39784 0
M  V30 607 C 60.6431 -3.57494 1.17792 0
M  V30 608 C 59.7901 -2.34013 1.48773 0
M  V30 609 H 62.7411 -1.02904 1.20816 0
M  V30 610 H 62.7621 -3.71958 0.801714 0
M  V30 611 H 62.2741 -2.99001 2.47426 0
M  V30 612 H 60.3751 -3.72406 0.120295 0
M  V30 613 H 60.4881 -4.40852 1.87581 0
M  V30 614 H 58.8521 -2.37986 0.907463 0
M  V30 615 H 59.6351 -2.27013 2.57527 0
M  V30 616 N 62.0802 -0.821533 -1.34494 0
M  V30 617 C 63.3262 -0.409552 -1.98622 0
M  V30 618 C 63.6592 1.0244 -1.64984 0
M  V30 619 O 62.9342 1.71325 -0.920758 0
M  V30 620 C 63.2172 -0.610458 -3.54888 0
M  V30 621 C 63.0702 -2.09043 -3.98273 0
M  V30 622 C 64.3892 -0.0455379 -4.40076 0
M  V30 623 H 61.5082 -0.15028 -0.721516 0
M  V30 624 H 64.1502 -1.03384 -1.59411 0
M  V30 625 H 62.3002 -0.079044 -3.8842 0
M  V30 626 H 63.9722 -2.68537 -3.75081 0
M  V30 627 H 62.2152 -2.58139 -3.48635 0
M  V30 628 H 62.8862 -2.18182 -5.07051 0
M  V30 629 H 65.3622 -0.499557 -4.1309 0
M  V30 630 H 64.2382 -0.215922 -5.48475 0
M  V30 631 H 64.4992 1.04939 -4.29465 0
M  V30 632 N 63.5583 1.46682 -0.576371 0
M  V30 633 C 64.9743 1.57822 -0.237562 0
M  V30 634 C 65.1743 1.57237 1.26011 0
M  V30 635 O 64.2303 1.48596 2.04146 0
M  V30 636 C 65.5433 2.87499 -0.881168 0
M  V30 637 C 67.0913 3.01119 -0.85417 0
M  V30 638 C 67.5663 4.33524 -1.4772 0
M  V30 639 N 69.0573 4.40207 -1.44125 0
M  V30 640 C 69.7923 5.4126 -1.89276 0
M  V30 641 N 69.2883 6.49021 -2.42371 0
M  V30 642 N 71.0813 5.32422 -1.80231 0
M  V30 643 H 63.2323 1.45306 -1.54919 0
M  V30 644 H 65.4953 0.692733 -0.647167 0
M  V30 645 H 65.2013 2.9372 -1.93447 0
M  V30 646 H 65.0753 3.75224 -0.385592 0
M  V30 647 H 67.4623 2.94485 0.190491 0
M  V30 648 H 67.5433 2.14887 -1.3877 0
M  V30 649 H 67.1873 4.40916 -2.52103 0
M  V30 650 H 67.1173 5.1852 -0.918947 0
M  V30 651 H 69.6083 3.62931 -1.05307 0
M  V30 652 H 69.9213 7.2233 -2.74698 0
M  V30 653 H 68.2663 6.49858 -2.46393 0
M  V30 654 H 71.4573 4.47137 -1.38514 0
M  V30 655 H 71.6303 6.11034 -2.15735 0
M  V30 656 N 65.0364 0.313813 1.54444 0
M  V30 657 C 66.3134 -0.345447 1.92525 0
M  V30 658 C 66.6934 -1.70667 1.24242 0
M  V30 659 O 66.0414 -2.25273 0.382654 0
M  V30 660 C 66.2514 -0.44737 3.46121 0
M  V30 661 C 67.5994 -0.712238 4.18584 0
M  V30 662 O 68.6234 -0.530678 3.52225 0
M  V30 663 O 67.4824 -1.06183 5.36085 0
M  V30 664 H 64.5764 -0.195407 0.803583 0
M  V30 665 H 67.1224 0.362813 1.65776 0
M  V30 666 H 65.8944 0.509043 3.87975 0
M  V30 667 H 65.5174 -1.20359 3.78945 0
M  V30 668 N 66.5145 -1.57545 0.0417849 0
M  V30 669 C 67.7445 -1.96339 -0.642995 0
M  V30 670 C 68.1525 -0.917536 -1.65463 0
M  V30 671 O 67.4955 0.107747 -1.83384 0
M  V30 672 C 67.5575 -3.31333 -1.39494 0
M  V30 673 C 67.2215 -4.53796 -0.540204 0
M  V30 674 C 68.2185 -5.19553 0.189806 0
M  V30 675 C 65.9035 -5.0006 -0.473886 0
M  V30 676 C 67.8975 -6.29904 0.974674 0
M  V30 677 C 65.5845 -6.10289 0.314677 0
M  V30 678 C 66.5825 -6.75072 1.03765 0
M  V30 679 O 66.2705 -7.83183 1.81327 0
M  V30 680 H 66.0025 -0.651241 -0.181277 0
M  V30 681 H 68.5565 -2.05148 0.101665 0
M  V30 682 H 66.7865 -3.19052 -2.18502 0
M  V30 683 H 68.4755 -3.54942 -1.96904 0
M  V30 684 H 69.2415 -4.84774 0.147981 0
M  V30 685 H 65.1205 -4.49433 -1.0262 0
M  V30 686 H 68.6645 -6.80401 1.5395 0
M  V30 687 H 64.5615 -6.44506 0.358174 0
M  V30 688 H 65.3295 -7.99913 1.73438 0
M  V30 689 N 67.9926 0.231505 -1.5589 0
M  V30 690 C 68.9556 1.27028 -1.90779 0
M  V30 691 C 69.9556 1.40308 -0.785507 0
M  V30 692 O 71.1456 1.38744 -1.05336 0
M  V30 693 C 68.2776 2.64566 -2.14983 0
M  V30 694 H 69.4706 0.973017 -2.83677 0
M  V30 695 H 67.0236 0.471486 -1.49019 0
M  V30 696 H 67.7586 2.99406 -1.24604 0
M  V30 697 H 67.5436 2.56305 -2.96732 0
M  V30 698 H 69.0336 3.39543 -2.43105 0
M  V30 699 N 69.4707 1.49531 0.497807 0
M  V30 700 C 70.4337 1.65916 1.58128 0
M  V30 701 C 71.4337 0.530825 1.51786 0
M  V30 702 O 72.6237 0.797342 1.54881 0
M  V30 703 C 69.7557 1.65951 2.9778 0
M  V30 704 H 70.9487 2.62556 1.44929 0
M  V30 705 H 68.5017 1.38611 0.722275 0
M  V30 706 H 69.2367 0.709065 3.16453 0
M  V30 707 H 69.0217 2.47897 3.03792 0
M  V30 708 H 70.5117 1.80673 3.76493 0
M  V30 709 N 70.9488 -0.749086 1.3866 0
M  V30 710 C 71.8808 -1.87273 1.32142 0
M  V30 711 C 72.8938 -1.61127 0.232787 0
M  V30 712 O 74.0828 -1.71623 0.49069 0
M  V30 713 C 71.1828 -3.23005 1.02571 0
M  V30 714 C 70.3558 -3.7662 2.22433 0
M  V30 715 C 69.4148 -4.90879 1.89537 0
M  V30 716 O 68.4408 -5.05276 2.62078 0
M  V30 717 N 69.6428 -5.74198 0.853031 0
M  V30 718 H 72.4078 -1.93373 2.28969 0
M  V30 719 H 69.9688 -0.929216 1.32579 0
M  V30 720 H 71.9608 -3.96992 0.786085 0
M  V30 721 H 70.5308 -3.12262 0.145249 0
M  V30 722 H 69.7508 -2.94147 2.62434 0
M  V30 723 H 71.0388 -4.09173 3.02415 0
M  V30 724 H 70.4368 -5.6514 0.25155 0
M  V30 725 H 68.9938 -6.48313 0.67329 0
M  V30 726 N 72.4269 -1.23603 -0.977757 0
M  V30 727 C 73.6549 -1.09646 -1.75458 0
M  V30 728 C 74.0699 0.351859 -1.85492 0
M  V30 729 O 73.4269 1.24327 -1.336 0
M  V30 730 C 73.4779 -1.71895 -3.18016 0
M  V30 731 O 73.1989 -3.11063 -3.08498 0
M  V30 732 C 74.6999 -1.63415 -4.12081 0
M  V30 733 H 71.9199 -0.38359 -0.550545 0
M  V30 734 H 74.4639 -1.63507 -1.22824 0
M  V30 735 H 72.6189 -1.22061 -3.67668 0
M  V30 736 H 73.0329 -3.41305 -3.9826 0
M  V30 737 H 74.5069 -2.11669 -5.09804 0
M  V30 738 H 74.9839 -0.593462 -4.35172 0
M  V30 739 H 75.5899 -2.12628 -3.68334 0
M  V30 740 N 73.905 1.17692 -1.04816 0
M  V30 741 C 75.13 1.92327 -0.776207 0
M  V30 742 C 75.555 1.76082 0.661581 0
M  V30 743 O 74.913 1.076 1.45917 0
M  V30 744 C 74.961 3.41539 -1.15687 0
M  V30 745 O 74.065 4.11402 -0.286775 0
M  V30 746 H 73.406 0.599735 -0.284981 0
M  V30 747 H 75.936 1.49201 -1.4 0
M  V30 748 H 75.946 3.92269 -1.12202 0
M  V30 749 H 74.621 3.52684 -2.20425 0
M  V30 750 H 73.198 3.70939 -0.381903 0
M  V30 751 N 75.3831 0.828654 1.34056 0
M  V30 752 C 76.7941 0.477534 1.8049 0
M  V30 753 C 77.1451 -1.00258 1.6865 0
M  V30 754 O 76.2701 -1.78057 1.22982 0
M  V30 755 C 76.8651 0.860018 3.27703 0
M  V30 756 C 75.4241 0.561185 3.72193 0
M  V30 757 C 74.5711 1.07385 2.55663 0
M  V30 758 H 77.5221 1.0183 1.21722 0
M  V30 759 H 77.5431 0.166038 3.80138 0
M  V30 760 H 77.0551 1.93731 3.36288 0
M  V30 761 H 75.1561 -0.506465 3.69142 0
M  V30 762 H 75.2691 1.10926 4.66082 0
M  V30 763 H 73.6331 0.495149 2.49841 0
M  V30 764 H 74.4161 2.15771 2.67016 0
M  V30 765 N 76.8612 -1.46375 0.584142 0
M  V30 766 C 78.0862 -2.07268 0.0740405 0
M  V30 767 C 78.5112 -1.42979 -1.22223 0
M  V30 768 O 77.8692 -0.514092 -1.73859 0
M  V30 769 C 77.9172 -3.60518 -0.0767769 0
M  V30 770 O 77.0212 -3.96533 -1.13292 0
M  V30 771 H 76.3622 -0.660961 0.0634524 0
M  V30 772 H 78.8922 -1.87991 0.807492 0
M  V30 773 H 78.9022 -4.07021 -0.282489 0
M  V30 774 H 77.5772 -4.06702 0.86986 0
M  V30 775 H 76.1542 -3.61738 -0.905553 0
M  V30 776 N 78.3393 -0.321999 -1.54275 0
M  V30 777 C 79.7503 0.166384 -1.85957 0
M  V30 778 C 80.1013 1.51747 -1.24367 0
M  V30 779 O 79.2263 2.09317 -0.549124 0
M  V30 780 C 79.8213 0.308681 -3.37391 0
M  V30 781 C 78.3803 0.741286 -3.69028 0
M  V30 782 C 77.5273 -0.137937 -2.76957 0
M  V30 783 H 80.4783 -0.542335 -1.49146 0
M  V30 784 H 80.4993 1.13984 -3.63026 0
M  V30 785 H 80.0113 -0.674809 -3.82188 0
M  V30 786 H 78.1123 1.73458 -3.29762 0
M  V30 787 H 78.2253 0.546118 -4.75977 0
M  V30 788 H 76.5893 0.386251 -2.51754 0
M  V30 789 H 77.3723 -1.11816 -3.2458 0
M  V30 790 N 79.8174 1.5752 -0.0501392 0
M  V30 791 C 80.7644 2.1147 0.924603 0
M  V30 792 C 81.7344 1.02182 1.30951 0
M  V30 793 O 82.9194 1.29723 1.39916 0
M  V30 794 C 80.0594 2.66337 2.19451 0
M  V30 795 C 79.1724 3.89708 1.86418 0
M  V30 796 C 78.3074 4.32893 3.07859 0
M  V30 797 C 77.3464 5.48967 2.70742 0
M  V30 798 N 76.4834 5.87211 3.84874 0
M  V30 799 H 81.3234 2.94465 0.457639 0
M  V30 800 H 78.8604 1.45531 0.214266 0
M  V30 801 H 80.8184 2.96247 2.93758 0
M  V30 802 H 79.4484 1.86141 2.63726 0
M  V30 803 H 78.5004 3.66396 1.02264 0
M  V30 804 H 79.8124 4.74074 1.55096 0
M  V30 805 H 78.9664 4.6435 3.90466 0
M  V30 806 H 77.7054 3.47336 3.42358 0
M  V30 807 H 76.7104 5.17183 1.86551 0
M  V30 808 H 77.9354 6.3624 2.37436 0
M  V30 809 H 75.8814 5.04607 4.19175 0
M  V30 810 H 75.7984 6.66266 3.57247 0
M  V30 811 H 77.0664 6.23282 4.68123 0
M  V30 812 N 81.2955 -0.223234 1.56011 0
M  V30 813 C 82.2585 -1.26014 1.9145 0
M  V30 814 C 83.2585 -1.3989 0.792937 0
M  V30 815 O 84.4485 -1.38184 1.0607 0
M  V30 816 C 81.5805 -2.63422 2.16383 0
M  V30 817 H 82.7735 -0.95796 2.84189 0
M  V30 818 H 80.3265 -0.463576 1.49267 0
M  V30 819 H 81.0615 -2.98741 1.2619 0
M  V30 820 H 80.8465 -2.54728 2.98088 0
M  V30 821 H 82.3365 -3.38249 2.44903 0
M  V30 822 N 82.7736 -1.49793 -0.48987 0
M  V30 823 C 84.0216 -1.59525 -1.24081 0
M  V30 824 C 84.3426 -0.288953 -1.92847 0
M  V30 825 O 83.6126 0.692436 -1.83254 0
M  V30 826 H 82.1926 -0.587796 -0.460983 0
M  V30 827 H 84.8546 -1.86477 -0.566778 0
M  V30 828 H 83.9506 -2.39696 -1.99881 0
M  V30 829 N 84.2517 0.741722 -1.39055 0
M  V30 830 C 85.2147 1.83733 -1.37021 0
M  V30 831 C 86.2147 1.58542 -0.268534 0
M  V30 832 O 87.4047 1.66067 -0.526076 0
M  V30 833 C 84.5367 3.2141 -1.13617 0
M  V30 834 H 85.7297 1.86941 -2.34506 0
M  V30 835 H 83.2827 0.944676 -1.24521 0
M  V30 836 H 84.0177 3.23865 -0.167863 0
M  V30 837 H 83.8027 3.4109 -1.93391 0
M  V30 838 H 85.2927 4.01477 -1.14918 0
M  V30 839 N 85.7298 1.2412 0.971189 0
M  V30 840 C 86.6928 1.03156 2.04674 0
M  V30 841 C 87.6928 -0.00990322 1.60797 0
M  V30 842 O 88.8828 0.230729 1.72665 0
M  V30 843 C 86.0148 0.562765 3.36223 0
M  V30 844 H 87.2078 1.98614 2.24705 0
M  V30 845 H 84.7608 1.06293 1.14593 0
M  V30 846 H 85.4958 -0.395176 3.21883 0
M  V30 847 H 85.2808 1.31441 3.69413 0
M  V30 848 H 86.7708 0.437015 4.15307 0
M  V30 849 N 87.2079 -1.17134 1.05439 0
M  V30 850 C 88.4359 -1.91372 0.786414 0
M  V30 851 C 88.8509 -1.76955 -0.658202 0
M  V30 852 O 88.2079 -1.10838 -1.44987 0
M  V30 853 C 88.2589 -3.42356 1.1608 0
M  V30 854 O 87.9799 -3.56332 2.54871 0
M  V30 855 C 89.4809 -4.33663 0.919322 0
M  V30 856 H 86.7009 -0.607118 0.285743 0
M  V30 857 H 89.2449 -1.48525 1.40572 0
M  V30 858 H 87.3999 -3.82939 0.586191 0
M  V30 859 H 87.8139 -4.49896 2.69618 0
M  V30 860 H 89.2879 -5.38099 1.231 0
M  V30 861 H 89.7649 -4.38959 -0.145359 0
M  V30 862 H 90.3709 -3.98796 1.47789 0
M  V30 863 N 88.686 -0.835752 -1.33615 0
M  V30 864 C 89.934 -0.429109 -1.97492 0
M  V30 865 C 90.255 1.01433 -1.66543 0
M  V30 866 O 89.525 1.70611 -0.962744 0
M  V30 867 H 88.105 -0.155686 -0.730596 0
M  V30 868 H 90.767 -1.06802 -1.63031 0
M  V30 869 H 89.863 -0.55861 -3.0706 0
M  V30 870 N 90.1641 1.46063 -0.591896 0
M  V30 871 C 91.5801 1.57561 -0.254288 0
M  V30 872 C 91.7801 1.58565 1.24336 0
M  V30 873 O 90.8361 1.50753 2.02558 0
M  V30 874 C 92.1491 2.86549 -0.911611 0
M  V30 875 C 93.6971 3.00197 -0.886059 0
M  V30 876 C 94.1721 4.31933 -1.5231 0
M  V30 877 N 95.6631 4.38654 -1.48786 0
M  V30 878 C 96.3981 5.39222 -1.95006 0
M  V30 879 N 95.8941 6.46414 -2.49241 0
M  V30 880 N 97.6871 5.3048 -1.85868 0
M  V30 881 H 89.8381 1.43655 -1.56451 0
M  V30 882 H 92.1011 0.68583 -0.654478 0
M  V30 883 H 91.8071 2.91651 -1.96551 0
M  V30 884 H 91.6811 3.74794 -0.425368 0
M  V30 885 H 94.0681 2.9467 0.159246 0
M  V30 886 H 94.1491 2.13403 -1.41041 0
M  V30 887 H 93.7931 4.38217 -2.56765 0
M  V30 888 H 93.7231 5.17516 -0.973891 0
M  V30 889 H 96.2141 3.61793 -1.09151 0
M  V30 890 H 96.5271 7.19376 -2.82344 0
M  V30 891 H 94.8721 6.47208 -2.53272 0
M  V30 892 H 98.0631 4.45643 -1.43248 0
M  V30 893 H 98.2361 6.08711 -2.22204 0
M  V30 894 N 91.6422 0.330177 1.54103 0
M  V30 895 C 92.8912 -0.271336 1.99867 0
M  V30 896 C 93.2042 -1.52723 1.22209 0
M  V30 897 O 94.4102 -2.20515 1.58383 0
M  V30 898 C 92.8662 -0.534032 3.55916 0
M  V30 899 C 92.4742 0.705193 4.42415 0
M  V30 900 C 94.2182 -1.09514 4.1013 0
M  V30 901 C 92.1252 0.414035 5.89949 0
M  V30 902 H 91.0552 -0.105166 0.74663 0
M  V30 903 H 93.7062 0.443429 1.78062 0
M  V30 904 H 92.0882 -1.30915 3.73734 0
M  V30 905 H 93.2622 1.4804 4.36372 0
M  V30 906 H 91.5772 1.18698 3.99124 0
M  V30 907 H 94.1742 -1.3277 5.17954 0
M  V30 908 H 94.5172 -2.04656 3.62521 0
M  V30 909 H 95.0502 -0.381038 3.95971 0
M  V30 910 H 91.7892 1.33481 6.41766 0
M  V30 911 H 91.3092 -0.323336 5.98928 0
M  V30 912 H 92.9882 0.0263105 6.46995 0
M  V30 913 N 93.1203 -1.57491 0.0584922 0
M  V30 914 C 94.3663 -1.93264 -0.614558 0
M  V30 915 C 94.6993 -0.937717 -1.7006 0
M  V30 916 O 93.9743 0.0351652 -1.94468 0
M  V30 917 C 94.2573 -3.3938 -1.20386 0
M  V30 918 C 94.1103 -4.49625 -0.125375 0
M  V30 919 C 95.4293 -3.86039 -2.11334 0
M  V30 920 H 92.5483 -0.702791 -0.221933 0
M  V30 921 H 95.1903 -1.8961 0.12175 0
M  V30 922 H 93.3403 -3.42626 -1.83139 0
M  V30 923 H 95.0123 -4.58506 0.506971 0
M  V30 924 H 93.2553 -4.30354 0.545672 0
M  V30 925 H 93.9263 -5.48967 -0.577861 0
M  V30 926 H 96.4023 -3.84716 -1.58534 0
M  V30 927 H 95.2783 -4.88914 -2.49507 0
M  V30 928 H 95.5393 -3.23215 -3.01636 0
M  V30 929 N 94.5984 0.214957 -1.56127 0
M  V30 930 C 95.5614 1.24997 -1.92116 0
M  V30 931 C 96.5614 1.39467 -0.800344 0
M  V30 932 O 97.7514 1.37619 -1.06802 0
M  V30 933 C 94.8834 2.62271 -2.17777 0
M  V30 934 H 96.0764 0.942875 -2.84693 0
M  V30 935 H 93.6294 0.455654 -1.49511 0
M  V30 936 H 94.3644 2.98068 -1.27773 0
M  V30 937 H 94.1494 2.53143 -2.99434 0
M  V30 938 H 95.6394 3.36946 -2.46693 0
M  V30 939 N 96.0765 1.50051 0.48192 0
M  V30 940 C 97.3225 1.60736 1.2366 0
M  V30 941 C 97.6555 0.301786 1.91841 0
M  V30 942 O 96.9305 -0.696025 1.8162 0
M  V30 943 C 97.2135 2.78009 2.28874 0
M  V30 944 C 97.0665 4.18416 1.65069 0
M  V30 945 C 98.3855 2.90867 3.30279 0
M  V30 946 H 95.5045 0.585031 0.448228 0
M  V30 947 H 98.1465 1.82402 0.531946 0
M  V30 948 H 96.2965 2.59667 2.88973 0
M  V30 949 H 97.9685 4.48322 1.0865 0
M  V30 950 H 96.2115 4.23177 0.954148 0
M  V30 951 H 96.8825 4.96381 2.41474 0
M  V30 952 H 99.3585 3.07623 2.80191 0
M  V30 953 H 98.2345 3.74566 4.01238 0
M  V30 954 H 98.4955 2.01021 3.93755 0
M  V30 955 N 97.5546 -0.734337 1.39446 0
M  V30 956 C 98.8036 -1.48937 1.36017 0
M  V30 957 C 99.1166 -1.95557 -0.0409005 0
M  V30 958 O 100.323 -2.70779 -0.19778 0
M  V30 959 C 98.7786 -2.69125 2.38955 0
M  V30 960 C 98.3866 -2.29452 3.8478 0
M  V30 961 C 100.131 -3.46944 2.44603 0
M  V30 962 C 98.0376 -3.46366 4.79358 0
M  V30 963 H 96.9676 -0.559296 0.505672 0
M  V30 964 H 99.6186 -0.800983 1.65095 0
M  V30 965 H 98.0006 -3.40041 2.02948 0
M  V30 966 H 99.1746 -1.66077 4.29831 0
M  V30 967 H 97.4896 -1.64723 3.82433 0
M  V30 968 H 100.087 -4.33907 3.12456 0
M  V30 969 H 100.43 -3.89454 1.47076 0
M  V30 970 H 100.963 -2.83056 2.79507 0
M  V30 971 H 97.7016 -3.08905 5.78151 0
M  V30 972 H 97.2216 -4.08719 4.38986 0
M  V30 973 H 98.9006 -4.12691 4.98292 0
M  V30 974 N 99.0327 -1.24633 -0.964593 0
M  V30 975 C 100.281 -1.08573 -1.70459 0
M  V30 976 C 100.602 0.375655 -1.91347 0
M  V30 977 O 99.8717 1.26779 -1.49345 0
M  V30 978 H 98.4517 -0.398784 -0.631649 0
M  V30 979 H 101.114 -1.56601 -1.16026 0
M  V30 980 H 100.21 -1.58623 -2.68785 0
M  V30 981 N 100.511 1.16574 -1.06058 0
M  V30 982 C 101.474 2.19085 -0.673392 0
M  V30 983 C 102.474 1.5835 0.279648 0
M  V30 984 O 103.664 1.74088 0.0623488 0
M  V30 985 C 100.796 3.40899 0.00954234 0
M  V30 986 H 101.989 2.54853 -1.58081 0
M  V30 987 H 99.5418 1.30808 -0.855516 0
M  V30 988 H 100.277 3.10684 0.929826 0
M  V30 989 H 100.062 3.86233 -0.67573 0
M  V30 990 H 101.552 4.1675 0.266245 0
M  V30 991 N 101.989 0.842826 1.3317 0
M  V30 992 C 103.235 0.441099 1.97945 0
M  V30 993 C 103.568 -0.998024 1.66593 0
M  V30 994 O 102.843 -1.69839 0.947898 0
M  V30 995 C 103.126 0.666841 3.53872 0
M  V30 996 C 102.979 2.15352 3.94897 0
M  V30 997 C 104.298 0.115544 4.39948 0
M  V30 998 H 101.417 0.161739 0.719034 0
M  V30 999 H 104.059 1.05907 1.57746 0
M  V30 1000 H 102.209 0.140828 3.88245 0
M  V30 1001 H 103.881 2.7447 3.70761 0
M  V30 1002 H 102.124 2.63653 3.44484 0
M  V30 1003 H 102.795 2.26221 5.03516 0
M  V30 1004 H 105.271 0.565213 4.12243 0
M  V30 1005 H 104.147 0.303152 5.48062 0
M  V30 1006 H 104.408 -0.980935 4.3108 0
M  V30 1007 N 103.467 -1.45747 0.599634 0
M  V30 1008 C 104.713 -2.02592 0.0918643 0
M  V30 1009 C 105.046 -1.46806 -1.27128 0
M  V30 1010 O 104.321 -0.639658 -1.83681 0
M  V30 1011 C 104.604 -3.60073 0.0443398 0
M  V30 1012 C 104.457 -4.26208 1.43759 0
M  V30 1013 C 105.776 -4.35309 -0.647608 0
M  V30 1014 H 102.895 -0.736175 0.034857 0
M  V30 1015 H 105.537 -1.73694 0.770081 0
M  V30 1016 H 103.687 -3.84823 -0.533224 0
M  V30 1017 H 105.359 -4.12668 2.06162 0
M  V30 1018 H 103.602 -3.84916 2.00056 0
M  V30 1019 H 104.273 -5.35069 1.35665 0
M  V30 1020 H 106.749 -4.15805 -0.156776 0
M  V30 1021 H 105.625 -5.45038 -0.649942 0
M  V30 1022 H 105.886 -4.07598 -1.71219 0
M  V30 1023 N 104.945 -0.338344 -1.53925 0
M  V30 1024 C 106.222 0.314774 -1.93051 0
M  V30 1025 C 106.602 1.68669 -1.26941 0
M  V30 1026 O 105.95 2.24636 -0.418445 0
M  V30 1027 C 106.16 0.392249 -3.46789 0
M  V30 1028 C 107.508 0.645554 -4.19664 0
M  V30 1029 O 108.532 0.474575 -3.53024 0
M  V30 1030 O 107.391 0.976408 -5.37707 0
M  V30 1031 H 104.485 0.182598 -0.80659 0
M  V30 1032 H 107.031 -0.389141 -1.65178 0
M  V30 1033 H 105.803 -0.570702 -3.87116 0
M  V30 1034 H 105.426 1.14316 -3.80812 0
M  V30 1035 N 106.423 1.57458 -0.0668435 0
M  V30 1036 C 107.669 1.93587 0.6043 0
M  V30 1037 C 108.002 0.946722 1.69561 0
M  V30 1038 O 107.277 -0.0248516 1.94484 0
M  V30 1039 C 107.56 3.40014 1.18585 0
M  V30 1040 C 107.413 4.49685 0.101529 0
M  V30 1041 C 108.732 3.87154 2.09284 0
M  V30 1042 H 105.851 0.703958 0.218202 0
M  V30 1043 H 108.493 1.89542 -0.131804 0
M  V30 1044 H 106.643 3.43592 1.81319 0
M  V30 1045 H 108.315 4.5823 -0.531279 0
M  V30 1046 H 106.558 4.30059 -0.568487 0
M  V30 1047 H 107.229 5.49266 0.54874 0
M  V30 1048 H 109.705 3.85551 1.56491 0
M  V30 1049 H 108.581 4.90231 2.46911 0
M  V30 1050 H 108.842 3.2481 2.99918 0
M  V30 1051 N 107.901 -0.206675 1.56239 0
M  V30 1052 C 108.833 -1.27997 1.9013 0
M  V30 1053 C 109.846 -1.42299 0.790883 0
M  V30 1054 O 111.035 -1.42931 1.06925 0
M  V30 1055 C 108.135 -2.65368 2.10792 0
M  V30 1056 C 107.308 -2.72824 3.41886 0
M  V30 1057 C 106.367 -3.9131 3.51799 0
M  V30 1058 O 105.393 -3.78953 4.24716 0
M  V30 1059 N 106.595 -5.06265 2.84035 0
M  V30 1060 H 109.36 -0.992444 2.82791 0
M  V30 1061 H 106.921 -0.396652 1.56966 0
M  V30 1062 H 108.913 -3.43039 2.14724 0
M  V30 1063 H 107.483 -2.86657 1.24685 0
M  V30 1064 H 106.703 -1.81515 3.49923 0
M  V30 1065 H 107.991 -2.74786 4.28217 0
M  V30 1066 H 107.389 -5.19203 2.246 0
M  V30 1067 H 105.946 -5.81925 2.93609 0
M  V30 1068 N 109.379 -1.50304 -0.473955 0
M  V30 1069 C 110.626 -1.6115 -1.22625 0
M  V30 1070 C 110.954 -0.310517 -1.92005 0
M  V30 1071 O 110.209 0.703419 -1.82621 0
M  V30 1072 C 110.508 -2.73938 -2.29549 0
M  V30 1073 C 110.174 -4.14519 -1.7744 0
M  V30 1074 C 108.836 -4.5277 -1.62949 0
M  V30 1075 C 111.188 -5.02392 -1.3875 0
M  V30 1076 C 108.516 -5.76639 -1.08187 0
M  V30 1077 C 110.868 -6.26805 -0.854309 0
M  V30 1078 C 109.532 -6.63861 -0.696011 0
M  V30 1079 H 108.802 -0.589691 -0.448715 0
M  V30 1080 H 111.449 -1.84228 -0.522705 0
M  V30 1081 H 109.754 -2.44937 -3.05799 0
M  V30 1082 H 111.451 -2.79534 -2.87509 0
M  V30 1083 H 108.041 -3.8434 -1.89685 0
M  V30 1084 H 112.225 -4.73474 -1.4878 0
M  V30 1085 H 107.481 -6.04027 -0.946666 0
M  V30 1086 H 111.655 -6.94258 -0.545843 0
M  V30 1087 H 109.282 -7.59722 -0.26952 0
M  V30 1088 N 110.857 0.726932 -1.39834 0
M  V30 1089 C 112.134 1.47902 -1.28001 0
M  V30 1090 C 112.514 2.1083 0.106789 0
M  V30 1091 O 111.862 1.99242 1.11869 0
M  V30 1092 C 112.072 2.52392 -2.41038 0
M  V30 1093 C 113.42 3.18546 -2.80737 0
M  V30 1094 O 114.444 2.62708 -2.40547 0
M  V30 1095 O 113.303 4.19604 -3.50135 0
M  V30 1096 H 110.397 0.657163 -0.502062 0
M  V30 1097 H 112.943 0.760071 -1.51727 0
M  V30 1098 H 111.715 2.04329 -3.33715 0
M  V30 1099 H 111.338 3.31837 -2.19021 0
M  V30 1100 N 112.336 1.25143 0.95797 0
M  V30 1101 C 113.246 1.06968 2.08794 0
M  V30 1102 C 114.262 0.00773911 1.73998 0
M  V30 1103 O 115.438 0.207972 2.00323 0
M  V30 1104 C 112.503 0.68691 3.39827 0
M  V30 1105 C 111.564 1.82641 3.88511 0
M  V30 1106 C 110.797 1.46181 5.1329 0
M  V30 1107 O 111.02 0.355971 5.69288 0
M  V30 1108 O 109.954 2.29085 5.566 0
M  V30 1109 H 113.78 2.01723 2.27027 0
M  V30 1110 H 111.365 1.04051 1.07209 0
M  V30 1111 H 113.247 0.485417 4.18595 0
M  V30 1112 H 111.922 -0.231417 3.22872 0
M  V30 1113 H 110.829 2.08274 3.10762 0
M  V30 1114 H 112.162 2.72386 4.09959 0
M  V30 1115 N 113.814 -1.1601 1.06675 0
M  V30 1116 C 115.062 -1.86264 0.784229 0
M  V30 1117 C 115.383 -1.82328 -0.691488 0
M  V30 1118 O 114.653 -1.25947 -1.50047 0
M  V30 1119 H 113.233 -0.689621 0.28711 0
M  V30 1120 H 115.895 -1.40664 1.34906 0
M  V30 1121 H 114.991 -2.91595 1.11259 0
M  V30 1122 N 115.292 -0.849877 -1.32721 0
M  V30 1123 C 116.222 -0.306308 -2.31482 0
M  V30 1124 C 117.203 0.591952 -1.59468 0
M  V30 1125 O 118.388 0.513199 -1.87296 0
M  V30 1126 C 115.518 0.510204 -3.43532 0
M  V30 1127 C 114.472 -0.293209 -4.26994 0
M  V30 1128 C 113.798 0.647743 -5.30762 0
M  V30 1129 C 115.098 -1.51634 -4.99804 0
M  V30 1130 H 116.792 -1.13153 -2.77195 0
M  V30 1131 H 114.338 -0.545553 -1.33266 0
M  V30 1132 H 116.291 0.900856 -4.11658 0
M  V30 1133 H 115.015 1.36874 -2.96535 0
M  V30 1134 H 113.674 -0.665555 -3.60508 0
M  V30 1135 H 113.322 1.50299 -4.8002 0
M  V30 1136 H 113.022 0.11422 -5.87489 0
M  V30 1137 H 114.546 1.03567 -6.01753 0
M  V30 1138 H 115.96 -1.19824 -5.60638 0
M  V30 1139 H 114.357 -1.98745 -5.66234 0
M  V30 1140 H 115.427 -2.28018 -4.27943 0
M  V30 1141 N 116.77 1.45427 -0.607355 0
M  V30 1142 C 118.181 1.85756 -0.187535 0
M  V30 1143 C 118.532 1.5077 1.25551 0
M  V30 1144 O 117.657 0.93427 1.95193 0
M  V30 1145 C 118.252 3.37154 -0.333572 0
M  V30 1146 C 116.811 3.76387 0.0315542 0
M  V30 1147 C 115.958 2.69377 -0.658117 0
M  V30 1148 H 118.909 1.36231 -0.81405 0
M  V30 1149 H 118.93 3.78014 0.43428 0
M  V30 1150 H 118.442 3.62586 -1.38393 0
M  V30 1151 H 116.543 3.56571 1.0811 0
M  V30 1152 H 116.656 4.77731 -0.361935 0
M  V30 1153 H 115.02 2.5452 -0.0957873 0
M  V30 1154 H 115.803 2.97646 -1.7106 0
M  V30 1155 N 118.248 0.346503 1.53744 0
M  V30 1156 C 119.659 -0.136779 1.86198 0
M  V30 1157 C 120.01 -1.49749 1.26766 0
M  V30 1158 O 119.135 -2.08417 0.582355 0
M  V30 1159 C 119.73 -0.254966 3.37839 0
M  V30 1160 C 118.289 -0.682482 3.70161 0
M  V30 1161 C 117.436 0.181981 2.76702 0
M  V30 1162 H 120.387 0.565994 1.48264 0
M  V30 1163 H 120.408 -1.08195 3.64793 0
M  V30 1164 H 119.92 0.735526 3.81066 0
M  V30 1165 H 118.021 -1.68189 3.3248 0
M  V30 1166 H 118.134 -0.470326 4.76786 0
M  V30 1167 H 116.498 -0.34615 2.52337 0
M  V30 1168 H 117.281 1.16966 3.2276 0
M  V30 1169 N 119.726 -1.57421 0.075193 0
M  V30 1170 C 120.975 -1.92794 -0.592731 0
M  V30 1171 C 121.288 -0.957478 -1.70563 0
M  V30 1172 O 122.494 -1.20417 -2.43335 0
M  V30 1173 C 120.95 -3.42495 -1.10569 0
M  V30 1174 C 120.558 -4.47994 -0.0236121 0
M  V30 1175 C 122.302 -3.86864 -1.74748 0
M  V30 1176 C 120.209 -5.88829 -0.550803 0
M  V30 1177 H 119.139 -0.719591 -0.225177 0
M  V30 1178 H 121.79 -1.82902 0.147978 0
M  V30 1179 H 120.172 -3.47471 -1.89947 0
M  V30 1180 H 121.346 -4.54637 0.751099 0
M  V30 1181 H 119.661 -4.13113 0.522159 0
M  V30 1182 H 122.258 -4.8947 -2.15229 0
M  V30 1183 H 122.601 -3.24417 -2.60882 0
M  V30 1184 H 123.134 -3.84504 -1.01986 0
M  V30 1185 H 119.873 -6.54929 0.273457 0
M  V30 1186 H 119.393 -5.85698 -1.29296 0
M  V30 1187 H 121.072 -6.38811 -1.02613 0
M  V30 1188 N 121.204 0.198386 -1.56346 0
M  V30 1189 C 122.134 1.24865 -1.9731 0
M  V30 1190 C 123.115 1.47651 -0.844576 0
M  V30 1191 O 124.3 1.59444 -1.10866 0
M  V30 1192 C 121.43 2.59358 -2.30977 0
M  V30 1193 C 120.384 2.5119 -3.46537 0
M  V30 1194 C 119.71 3.89926 -3.65871 0
M  V30 1195 C 121.01 2.03977 -4.80823 0
M  V30 1196 H 122.704 0.908252 -2.85291 0
M  V30 1197 H 120.25 0.435462 -1.37258 0
M  V30 1198 H 122.203 3.33011 -2.58228 0
M  V30 1199 H 120.927 2.95132 -1.39874 0
M  V30 1200 H 119.586 1.79993 -3.19371 0
M  V30 1201 H 119.234 4.23046 -2.72105 0
M  V30 1202 H 118.934 3.85336 -4.4361 0
M  V30 1203 H 120.458 4.65205 -3.95495 0
M  V30 1204 H 121.872 2.67386 -5.07127 0
M  V30 1205 H 120.269 2.10397 -5.62008 0
M  V30 1206 H 121.339 0.992861 -4.74626 0
M  V30 1207 N 122.682 1.50554 0.465978 0
M  V30 1208 C 123.63 1.70324 1.58406 0
M  V30 1209 C 124.624 0.569139 1.59553 0
M  V30 1210 O 125.83 0.749776 1.63641 0
M  V30 1211 H 122.205 0.537688 0.525734 0
M  V30 1212 H 124.176 2.64104 1.38894 0
M  V30 1213 C 122.925 1.81928 2.96307 0
M  V30 1214 H 122.248 2.68586 2.96144 0
M  V30 1215 H 123.688 1.99784 3.73982 0
M  V30 1216 C 122.147 0.572095 3.32007 0
M  V30 1217 O 122.677 -0.286416 4.00678 0
M  V30 1218 N 120.883 0.424606 2.87481 0
M  V30 1219 H 120.43 1.12427 2.31771 0
M  V30 1220 H 120.388 -0.408697 3.11732 0
M  V30 1221 N 124.16 -0.719506 1.40217 0
M  V30 1222 C 125.123 -1.8153 1.39927 0
M  V30 1223 C 126.123 -1.58095 0.293723 0
M  V30 1224 O 127.313 -1.65209 0.552429 0
M  V30 1225 C 124.445 -3.19561 1.18716 0
M  V30 1226 H 125.638 -1.83186 2.37451 0
M  V30 1227 H 123.191 -0.924746 1.26008 0
M  V30 1228 H 123.926 -3.23557 0.219366 0
M  V30 1229 H 123.711 -3.3797 1.98793 0
M  V30 1230 H 125.201 -3.99598 1.21291 0
M  V30 1231 N 125.638 -1.25649 -0.95132 0
M  V30 1232 C 126.568 -1.08808 -2.06599 0
M  V30 1233 C 127.549 0.00382547 -1.701 0
M  V30 1234 O 128.734 -0.166325 -1.93486 0
M  V30 1235 C 125.864 -0.709542 -3.39975 0
M  V30 1236 C 124.818 -1.75206 -3.90496 0
M  V30 1237 C 124.144 -1.22811 -5.20405 0
M  V30 1238 C 125.444 -3.15153 -4.16504 0
M  V30 1239 H 127.138 -2.02048 -2.20946 0
M  V30 1240 H 124.684 -0.972835 -1.06169 0
M  V30 1241 H 126.637 -0.578649 -4.17408 0
M  V30 1242 H 125.361 0.258556 -3.25575 0
M  V30 1243 H 124.02 -1.87145 -3.15234 0
M  V30 1244 H 123.668 -0.250145 -5.02378 0
M  V30 1245 H 123.368 -1.92492 -5.55176 0
M  V30 1246 H 124.892 -1.10968 -6.00432 0
M  V30 1247 H 126.306 -3.06349 -4.84586 0
M  V30 1248 H 124.703 -3.82333 -4.62538 0
M  V30 1249 H 125.773 -3.61966 -3.22658 0
M  V30 1250 N 127.117 1.15442 -1.07289 0
M  V30 1251 C 128.027 2.23786 -0.704057 0
M  V30 1252 C 129.043 1.7166 0.284413 0
M  V30 1253 O 130.219 2.00972 0.131205 0
M  V30 1254 C 127.284 3.46535 -0.106792 0
M  V30 1255 C 126.345 4.13654 -1.14842 0
M  V30 1256 C 125.578 5.30544 -0.57956 0
M  V30 1257 O 125.801 5.67187 0.604585 0
M  V30 1258 O 124.735 5.87154 -1.32414 0
M  V30 1259 H 128.561 2.57664 -1.60757 0
M  V30 1260 H 126.146 1.23152 -0.845803 0
M  V30 1261 H 128.028 4.20804 0.224048 0
M  V30 1262 H 126.703 3.14407 0.770049 0
M  V30 1263 H 125.61 3.4131 -1.5316 0
M  V30 1264 H 126.943 4.49861 -1.99714 0
M  V30 1265 N 128.595 0.856903 1.32268 0
M  V30 1266 C 129.841 0.462069 1.97466 0
M  V30 1267 C 130.174 -0.980298 1.67642 0
M  V30 1268 O 129.449 -1.68824 0.965858 0
M  V30 1269 C 129.732 0.704336 3.53145 0
M  V30 1270 C 129.585 2.19529 3.9259 0
M  V30 1271 C 130.904 0.1622 4.39801 0
M  V30 1272 H 128.023 0.169357 0.717278 0
M  V30 1273 H 130.665 1.07574 1.56614 0
M  V30 1274 H 128.815 0.181999 3.88073 0
M  V30 1275 H 130.487 2.78387 3.67829 0
M  V30 1276 H 128.73 2.67292 3.41668 0
M  V30 1277 H 129.401 2.31549 5.01088 0
M  V30 1278 H 131.877 0.608905 4.11621 0
M  V30 1279 H 130.753 0.361265 5.4771 0
M  V30 1280 H 131.014 -0.935158 4.32096 0
M  V30 1281 N 130.073 -1.45103 0.615059 0
M  V30 1282 C 131.005 -2.28786 -0.13762 0
M  V30 1283 C 132.018 -1.40376 -0.824525 0
M  V30 1284 O 133.207 -1.64681 -0.688662 0
M  V30 1285 C 130.307 -3.16322 -1.21628 0
M  V30 1286 C 129.48 -4.33054 -0.615039 0
M  V30 1287 C 128.539 -5.01743 -1.58556 0
M  V30 1288 O 127.565 -5.58293 -1.10895 0
M  V30 1289 N 128.767 -5.01714 -2.91998 0
M  V30 1290 H 131.532 -2.94025 0.580483 0
M  V30 1291 H 129.093 -1.55373 0.45507 0
M  V30 1292 H 131.085 -3.59139 -1.86552 0
M  V30 1293 H 129.655 -2.52943 -1.83681 0
M  V30 1294 H 128.875 -3.93627 0.21245 0
M  V30 1295 H 130.163 -5.08431 -0.193704 0
M  V30 1296 H 129.561 -4.57075 -3.33316 0
M  V30 1297 H 128.118 -5.48371 -3.52325 0
M  V30 1298 N 131.551 -0.354651 -1.53558 0
M  V30 1299 C 132.799 0.237972 -2.00694 0
M  V30 1300 C 133.12 1.50173 -1.24391 0
M  V30 1301 O 132.39 1.92673 -0.354135 0
M  V30 1302 H 130.97 0.0909256 -0.741446 0
M  V30 1303 H 133.632 -0.478368 -1.88938 0
M  V30 1304 H 132.728 0.47264 -3.085 0
M  V30 1305 N 133.029 1.57378 -0.0835403 0
M  V30 1306 C 134.445 1.57246 0.273109 0
M  V30 1307 C 134.645 1.09385 1.69225 0
M  V30 1308 O 133.701 0.765051 2.40631 0
M  V30 1309 C 135.014 3.00614 0.0720628 0
M  V30 1310 C 136.562 3.12684 0.1407 0
M  V30 1311 C 137.037 4.57989 -0.0322094 0
M  V30 1312 N 138.528 4.63194 0.0230085 0
M  V30 1313 C 139.263 5.73335 -0.0861941 0
M  V30 1314 N 138.759 6.9235 -0.24958 0
M  V30 1315 N 140.552 5.62093 -0.0282886 0
M  V30 1316 H 132.703 1.86801 -1.0109 0
M  V30 1317 H 134.966 0.861687 -0.395222 0
M  V30 1318 H 134.672 3.39786 -0.907662 0
M  V30 1319 H 134.546 3.68193 0.81936 0
M  V30 1320 H 136.933 2.73391 1.11092 0
M  V30 1321 H 137.014 2.47719 -0.637896 0
M  V30 1322 H 136.658 4.97973 -0.999247 0
M  V30 1323 H 136.588 5.21 0.765937 0
M  V30 1324 H 139.079 3.77613 0.14722 0
M  V30 1325 H 139.392 7.72117 -0.324733 0
M  V30 1326 H 137.737 6.94415 -0.285097 0
M  V30 1327 H 140.928 4.67997 0.0981408 0
M  V30 1328 H 141.101 6.47895 -0.116845 0
M  V30 1329 N 134.507 -0.190092 1.56449 0
M  V30 1330 C 135.417 -1.25591 1.98152 0
M  V30 1331 C 136.433 -1.49519 0.889944 0
M  V30 1332 O 137.609 -1.62036 1.19609 0
M  V30 1333 C 134.674 -2.57916 2.3169 0
M  V30 1334 C 133.735 -2.42015 3.5458 0
M  V30 1335 C 132.968 -3.6803 3.8651 0
M  V30 1336 O 133.191 -4.72413 3.1966 0
M  V30 1337 O 132.125 -3.6326 4.79923 0
M  V30 1338 H 135.951 -0.931988 2.89046 0
M  V30 1339 H 133.536 -0.395488 1.4407 0
M  V30 1340 H 135.418 -3.36008 2.54316 0
M  V30 1341 H 134.093 -2.89925 1.43963 0
M  V30 1342 H 133 -1.62017 3.37196 0
M  V30 1343 H 134.333 -2.14937 4.4279 0
M  V30 1344 N 135.985 -1.50799 -0.457987 0
M  V30 1345 C 137.213 -1.66218 -1.23203 0
M  V30 1346 C 137.628 -0.350894 -1.85511 0
M  V30 1347 O 136.985 0.668546 -1.69814 0
M  V30 1348 C 137.036 -2.76291 -2.33121 0
M  V30 1349 O 136.757 -4.02338 -1.73366 0
M  V30 1350 C 138.258 -3.028 -3.2377 0
M  V30 1351 H 135.478 -0.558361 -0.372121 0
M  V30 1352 H 138.022 -1.97099 -0.545179 0
M  V30 1353 H 136.177 -2.48068 -2.97558 0
M  V30 1354 H 136.591 -4.63312 -2.4585 0
M  V30 1355 H 138.065 -3.8345 -3.97077 0
M  V30 1356 H 138.542 -2.14385 -3.83322 0
M  V30 1357 H 139.148 -3.32604 -2.65056 0
M  V30 1358 N 137.463 0.71206 -1.40597 0
M  V30 1359 C 138.879 1.02058 -1.22704 0
M  V30 1360 C 139.079 2.01228 -0.104729 0
M  V30 1361 O 138.135 2.4674 0.53624 0
M  V30 1362 C 139.448 1.56094 -2.57012 0
M  V30 1363 C 140.996 1.6806 -2.64054 0
M  V30 1364 C 141.471 2.25501 -3.9864 0
M  V30 1365 N 142.962 2.32882 -4.004 0
M  V30 1366 C 143.697 2.78317 -5.01325 0
M  V30 1367 N 143.193 3.23478 -6.12645 0
M  V30 1368 N 144.986 2.77733 -4.88693 0
M  V30 1369 H 137.137 0.0547896 -2.12329 0
M  V30 1370 H 139.4 0.0869027 -0.944008 0
M  V30 1371 H 139.106 0.906865 -3.39807 0
M  V30 1372 H 138.98 2.54564 -2.78347 0
M  V30 1373 H 141.367 2.32583 -1.81629 0
M  V30 1374 H 141.448 0.681802 -2.46546 0
M  V30 1375 H 141.092 1.61598 -4.81506 0
M  V30 1376 H 141.022 3.26102 -4.13479 0
M  V30 1377 H 143.513 2.00991 -3.20017 0
M  V30 1378 H 143.826 3.56725 -6.85542 0
M  V30 1379 H 142.171 3.21429 -6.16205 0
M  V30 1380 H 145.362 2.4179 -4.00818 0
M  V30 1381 H 145.535 3.12826 -5.67489 0
M  V30 1382 N 138.941 1.26152 0.944643 0
M  V30 1383 C 139.871 1.09902 2.06019 0
M  V30 1384 C 140.852 0.00519538 1.70099 0
M  V30 1385 O 142.037 0.176583 1.93396 0
M  V30 1386 C 139.167 0.727562 3.39594 0
M  V30 1387 C 138.121 1.77274 3.89561 0
M  V30 1388 C 137.447 1.25569 5.19747 0
M  V30 1389 C 138.747 3.17357 4.14827 0
M  V30 1390 H 140.441 2.03217 2.19871 0
M  V30 1391 H 137.987 0.978452 1.05652 0
M  V30 1392 H 139.94 0.600777 4.17095 0
M  V30 1393 H 138.664 -0.241287 3.25707 0
M  V30 1394 H 137.323 1.88814 3.14237 0
M  V30 1395 H 136.971 0.276783 5.02238 0
M  V30 1396 H 136.671 1.95433 5.54148 0
M  V30 1397 H 138.195 1.1415 5.99835 0
M  V30 1398 H 139.609 3.08914 4.82954 0
M  V30 1399 H 138.006 3.84781 4.60504 0
M  V30 1400 H 139.076 3.63673 3.20734 0
M  V30 1401 N 140.419 -1.14872 1.07899 0
M  V30 1402 C 141.665 -1.86064 0.806725 0
M  V30 1403 C 141.998 -1.82434 -0.665706 0
M  V30 1404 O 141.273 -1.25138 -1.48899 0
M  V30 1405 C 141.556 -3.34929 1.32267 0
M  V30 1406 C 141.409 -3.47161 2.86006 0
M  V30 1407 C 142.728 -4.29863 0.943717 0
M  V30 1408 H 139.847 -0.675591 0.294526 0
M  V30 1409 H 142.489 -1.34925 1.33773 0
M  V30 1410 H 140.639 -3.78611 0.870974 0
M  V30 1411 H 142.311 -3.12302 3.39507 0
M  V30 1412 H 140.554 -2.88539 3.23925 0
M  V30 1413 H 141.225 -4.51777 3.17177 0
M  V30 1414 H 143.701 -3.9417 1.33302 0
M  V30 1415 H 142.577 -5.32494 1.33198 0
M  V30 1416 H 142.838 -4.41846 -0.149796 0
M  V30 1417 N 141.898 -0.863906 -1.31812 0
M  V30 1418 C 142.828 -0.330843 -2.31144 0
M  V30 1419 C 143.809 0.575005 -1.60087 0
M  V30 1420 O 144.994 0.493304 -1.8783 0
M  V30 1421 C 142.124 0.47374 -3.44054 0
M  V30 1422 C 141.078 -0.338481 -4.26659 0
M  V30 1423 C 140.404 0.591412 -5.31419 0
M  V30 1424 C 141.704 -1.56926 -4.98168 0
M  V30 1425 H 143.398 -1.16086 -2.75979 0
M  V30 1426 H 140.944 -0.559657 -1.32679 0
M  V30 1427 H 142.897 0.857143 -4.12591 0
M  V30 1428 H 141.621 1.33721 -2.9797 0
M  V30 1429 H 140.28 -0.703754 -3.59782 0
M  V30 1430 H 139.928 1.45199 -4.81587 0
M  V30 1431 H 139.628 0.0519022 -5.87577 0
M  V30 1432 H 141.152 0.97179 -6.02817 0
M  V30 1433 H 142.566 -1.25764 -5.59336 0
M  V30 1434 H 140.963 -2.04739 -5.64094 0
M  V30 1435 H 142.033 -2.32544 -4.25501 0
M  V30 1436 N 143.376 1.44774 -0.622745 0
M  V30 1437 C 144.286 2.34433 0.0886031 0
M  V30 1438 C 145.302 1.52131 0.844529 0
M  V30 1439 O 146.478 1.84886 0.798691 0
M  V30 1440 C 143.543 3.29986 1.0635 0
M  V30 1441 C 142.604 4.28195 0.307873 0
M  V30 1442 C 141.837 5.19183 1.23633 0
M  V30 1443 O 142.06 5.13918 2.47476 0
M  V30 1444 O 140.994 5.97515 0.725189 0
M  V30 1445 H 144.82 2.96693 -0.648599 0
M  V30 1446 H 142.405 1.44408 -0.382957 0
M  V30 1447 H 144.287 3.88825 1.6246 0
M  V30 1448 H 142.962 2.70269 1.78146 0
M  V30 1449 H 141.869 3.72927 -0.296064 0
M  V30 1450 H 143.202 4.90808 -0.3699 0
M  V30 1451 N 144.854 0.36279 1.53368 0
M  V30 1452 C 146.1 -0.228113 2.01513 0
M  V30 1453 C 146.433 -1.48648 1.2497 0
M  V30 1454 O 145.708 -1.91459 0.342616 0
M  V30 1455 C 145.991 -0.522884 3.56284 0
M  V30 1456 C 145.844 0.74892 4.43521 0
M  V30 1457 C 147.163 -1.32461 4.19693 0
M  V30 1458 H 144.282 -0.0814343 0.732487 0
M  V30 1459 H 146.924 0.48713 1.83649 0
M  V30 1460 H 145.074 -1.1322 3.71636 0
M  V30 1461 H 146.746 1.38648 4.39971 0
M  V30 1462 H 144.989 1.36986 4.11603 0
M  V30 1463 H 145.66 0.497667 5.49752 0
M  V30 1464 H 148.136 -0.809203 4.08156 0
M  V30 1465 H 147.012 -1.49961 5.28018 0
M  V30 1466 H 147.273 -2.33232 3.75573 0
M  V30 1467 N 146.332 -1.57332 0.0918853 0
M  V30 1468 C 147.295 -2.12708 -0.85369 0
M  V30 1469 C 148.295 -1.05561 -1.213 0
M  V30 1470 O 149.485 -1.31461 -1.14296 0
M  V30 1471 C 146.617 -2.64503 -2.15061 0
M  V30 1472 H 147.81 -2.97573 -0.3729 0
M  V30 1473 H 145.363 -1.55509 -0.157072 0
M  V30 1474 H 146.098 -1.83149 -2.67632 0
M  V30 1475 H 145.883 -3.4284 -1.90272 0
M  V30 1476 H 147.373 -3.07351 -2.82711 0
M  V30 1477 N 147.81 0.181792 -1.56548 0
M  V30 1478 C 148.742 1.24956 -1.92142 0
M  V30 1479 C 149.755 1.41022 -0.813422 0
M  V30 1480 O 150.944 1.41212 -1.09186 0
M  V30 1481 C 148.044 2.61981 -2.14987 0
M  V30 1482 C 147.217 2.6735 -3.46183 0
M  V30 1483 C 146.276 3.85664 -3.5798 0
M  V30 1484 O 145.302 3.72148 -4.30691 0
M  V30 1485 N 146.504 5.01683 -2.92053 0
M  V30 1486 H 149.269 0.947329 -2.84334 0
M  V30 1487 H 146.83 0.371629 -1.57577 0
M  V30 1488 H 148.822 3.3958 -2.20154 0
M  V30 1489 H 147.392 2.84637 -1.2923 0
M  V30 1490 H 146.612 1.75925 -3.52766 0
M  V30 1491 H 147.9 2.67939 -4.32534 0
M  V30 1492 H 147.298 5.15564 -2.32832 0
M  V30 1493 H 145.855 5.77181 -3.0283 0
M  V30 1494 N 149.288 1.51039 0.449983 0
M  V30 1495 C 150.238 1.67824 1.54335 0
M  V30 1496 C 151.222 0.5324 1.51836 0
M  V30 1497 O 152.414 0.787762 1.58503 0
M  V30 1498 C 149.543 1.7951 2.92628 0
M  V30 1499 C 148.629 2.99838 2.9993 0
M  V30 1500 N 149.02 4.23207 2.77001 0
M  V30 1501 C 147.318 2.98832 3.31082 0
M  V30 1502 C 148.019 5.04361 2.89818 0
M  V30 1503 N 146.995 4.38746 3.2094 0
M  V30 1504 H 150.797 2.60884 1.35339 0
M  V30 1505 H 148.311 1.48513 0.657085 0
M  V30 1506 H 150.308 1.89642 3.7127 0
M  V30 1507 H 148.968 0.876227 3.12654 0
M  V30 1508 H 149.979 4.5236 2.52172 0
M  V30 1509 H 146.656 2.16527 3.56963 0
M  V30 1510 H 148.046 6.12528 2.76151 0
M  V30 1511 N 150.766 -0.704594 1.40972 0
M  V30 1512 C 151.696 -1.83124 1.44872 0
M  V30 1513 C 152.677 -1.67281 0.30838 0
M  V30 1514 O 153.862 -1.87149 0.518556 0
M  V30 1515 C 150.992 -3.21181 1.32136 0
M  V30 1516 C 149.946 -3.51714 2.43888 0
M  V30 1517 C 149.272 -4.89032 2.16222 0
M  V30 1518 C 150.572 -3.516 3.86232 0
M  V30 1519 H 152.266 -1.80117 2.39161 0
M  V30 1520 H 149.812 -0.865145 1.15114 0
M  V30 1521 H 151.765 -3.99702 1.33479 0
M  V30 1522 H 150.489 -3.24791 0.343279 0
M  V30 1523 H 149.148 -2.75539 2.41813 0
M  V30 1524 H 148.796 -4.89256 1.16778 0
M  V30 1525 H 148.496 -5.10426 2.911 0
M  V30 1526 H 150.02 -5.69873 2.19265 0
M  V30 1527 H 151.434 -4.2014 3.9007 0
M  V30 1528 H 149.831 -3.84523 4.60719 0
M  V30 1529 H 150.901 -2.50757 4.15029 0
M  V30 1530 N 152.244 -1.26651 -0.937939 0
M  V30 1531 C 153.492 -1.12165 -1.68118 0
M  V30 1532 C 153.813 0.334983 -1.92101 0
M  V30 1533 O 153.083 1.23583 -1.52 0
M  V30 1534 H 151.663 -0.412093 -0.623048 0
M  V30 1535 H 154.325 -1.59027 -1.12678 0
M  V30 1536 H 153.421 -1.64289 -2.6536 0
M  V30 1537 N 153.722 1.14298 -1.08507 0
M  V30 1538 C 154.632 2.23027 -0.727753 0
M  V30 1539 C 155.648 1.71952 0.26619 0
M  V30 1540 O 156.824 2.011 0.109882 0
M  V30 1541 C 153.889 3.46403 -0.143541 0
M  V30 1542 C 152.95 4.12413 -1.19223 0
M  V30 1543 C 152.183 5.29899 -0.635798 0
M  V30 1544 O 152.406 5.67796 0.544393 0
M  V30 1545 O 151.34 5.85717 -1.38634 0
M  V30 1546 H 155.166 2.55945 -1.63481 0
M  V30 1547 H 152.751 1.22248 -0.858817 0
M  V30 1548 H 154.633 4.21018 0.179404 0
M  V30 1549 H 153.308 3.15206 0.736659 0
M  V30 1550 H 152.215 3.39667 -1.56772 0
M  V30 1551 H 153.548 4.47718 -2.04474 0
M  V30 1552 N 155.201 0.870884 1.31352 0
M  V30 1553 C 156.426 0.495957 2.01383 0
M  V30 1554 C 156.851 -0.904324 1.64935 0
M  V30 1555 O 156.209 -1.59687 0.858466 0
M  V30 1556 C 156.257 0.661433 3.54482 0
M  V30 1557 O 155.361 -0.298851 4.11316 0
M  V30 1558 H 154.702 0.197158 0.634054 0
M  V30 1559 H 157.232 1.17455 1.67527 0
M  V30 1560 H 157.242 0.555072 4.04207 0
M  V30 1561 H 155.917 1.68246 3.8035 0
M  V30 1562 H 154.494 -0.147368 3.72609 0
M  V30 1563 N 156.679 -1.44442 0.630414 0
M  V30 1564 C 157.907 -2.06414 0.141671 0
M  V30 1565 C 158.322 -1.47105 -1.18345 0
M  V30 1566 O 157.679 -0.593662 -1.72574 0
M  V30 1567 C 157.73 -3.61494 0.0199784 0
M  V30 1568 O 157.451 -4.18594 1.29269 0
M  V30 1569 C 158.952 -4.40499 -0.497544 0
M  V30 1570 H 156.172 -0.666292 0.0793452 0
M  V30 1571 H 158.716 -1.85323 0.864614 0
M  V30 1572 H 156.871 -3.8185 -0.653402 0
M  V30 1573 H 157.285 -5.12026 1.13707 0
M  V30 1574 H 158.759 -5.49433 -0.531708 0
M  V30 1575 H 159.236 -4.11895 -1.52445 0
M  V30 1576 H 159.842 -4.25061 0.142562 0
M  V30 1577 N 158.157 -0.370918 -1.53173 0
M  V30 1578 C 159.403 0.217423 -2.01631 0
M  V30 1579 C 159.736 1.47983 -1.25756 0
M  V30 1580 O 159.011 1.91274 -0.352764 0
M  V30 1581 C 159.294 0.503982 -3.56556 0
M  V30 1582 C 159.147 -0.77243 -4.43118 0
M  V30 1583 C 160.466 1.30234 -4.20389 0
M  V30 1584 H 157.585 0.0775486 -0.732909 0
M  V30 1585 H 160.227 -0.496863 -1.83388 0
M  V30 1586 H 158.377 1.11248 -3.72231 0
M  V30 1587 H 160.049 -1.4098 -4.39229 0
M  V30 1588 H 158.292 -1.39167 -4.10871 0
M  V30 1589 H 158.963 -0.526815 -5.4948 0
M  V30 1590 H 161.439 0.787546 -4.08579 0
M  V30 1591 H 160.315 1.47158 -5.28806 0
M  V30 1592 H 160.576 2.31237 -3.76805 0
M  V30 1593 N 159.635 1.57281 -0.100228 0
M  V30 1594 C 161.051 1.57527 0.256416 0
M  V30 1595 C 161.251 1.11173 1.68056 0
M  V30 1596 O 160.307 0.79053 2.39806 0
M  V30 1597 C 161.62 3.00673 0.0401747 0
M  V30 1598 C 163.168 3.12815 0.107528 0
M  V30 1599 C 163.643 4.57929 -0.0807834 0
M  V30 1600 N 165.134 4.63193 -0.0261207 0
M  V30 1601 C 165.869 5.73212 -0.146999 0
M  V30 1602 N 165.365 6.92047 -0.322999 0
M  V30 1603 N 167.158 5.62031 -0.0879044 0
M  V30 1604 H 159.309 1.85718 -1.03065 0
M  V30 1605 H 161.572 0.857446 -0.404339 0
M  V30 1606 H 161.278 3.38804 -0.943649 0
M  V30 1607 H 161.152 3.69042 0.780262 0
M  V30 1608 H 163.539 2.74554 1.08186 0
M  V30 1609 H 163.62 2.47028 -0.664134 0
M  V30 1610 H 163.264 4.96886 -1.05201 0
M  V30 1611 H 163.194 5.21783 0.710635 0
M  V30 1612 H 165.685 3.77748 0.107161 0
M  V30 1613 H 165.998 7.7173 -0.406608 0
M  V30 1614 H 164.343 6.94074 -0.358733 0
M  V30 1615 H 167.534 4.68075 0.048498 0
M  V30 1616 H 167.707 6.47734 -0.185557 0
M  V30 1617 N 161.113 -0.173488 1.56642 0
M  V30 1618 C 162.341 -0.906095 1.86004 0
M  V30 1619 C 162.756 -1.75921 0.685355 0
M  V30 1620 O 162.113 -1.79198 -0.345578 0
M  V30 1621 C 162.164 -1.78462 3.14378 0
M  V30 1622 O 161.885 -0.965914 4.27319 0
M  V30 1623 C 163.386 -2.62707 3.57071 0
M  V30 1624 H 160.606 -0.263341 0.617165 0
M  V30 1625 H 163.15 -0.174236 2.03756 0
M  V30 1626 H 161.305 -2.46984 2.98459 0
M  V30 1627 H 161.719 -1.56655 5.00559 0
M  V30 1628 H 163.193 -3.19969 4.49804 0
M  V30 1629 H 163.67 -3.37472 2.81086 0
M  V30 1630 H 164.276 -1.99521 3.75595 0
M  V30 1631 N 162.591 -1.51276 -0.441967 0
M  V30 1632 C 163.84 -1.6295 -1.18871 0
M  V30 1633 C 164.153 -0.349312 -1.92456 0
M  V30 1634 O 165.359 -0.345355 -2.69295 0
M  V30 1635 C 163.815 -2.87759 -2.16155 0
M  V30 1636 C 163.423 -4.22764 -1.48239 0
M  V30 1637 C 165.167 -3.08788 -2.91291 0
M  V30 1638 C 163.074 -5.38728 -2.4398 0
M  V30 1639 H 162.004 -0.606913 -0.447406 0
M  V30 1640 H 164.655 -1.77739 -0.456205 0
M  V30 1641 H 163.037 -2.66593 -2.92821 0
M  V30 1642 H 164.211 -4.54293 -0.771635 0
M  V30 1643 H 162.526 -4.07575 -0.852741 0
M  V30 1644 H 165.123 -3.92599 -3.63002 0
M  V30 1645 H 165.466 -2.21679 -3.5237 0
M  V30 1646 H 165.999 -3.30272 -2.21733 0
M  V30 1647 H 162.738 -6.28082 -1.87598 0
M  V30 1648 H 162.258 -5.1158 -3.13123 0
M  V30 1649 H 163.937 -5.70489 -3.05207 0
M  V30 1650 N 164.069 0.697108 -1.41344 0
M  V30 1651 C 165.032 1.79281 -1.42797 0
M  V30 1652 C 166.032 1.57607 -0.318837 0
M  V30 1653 O 167.222 1.64309 -0.578642 0
M  V30 1654 C 164.354 3.17632 -1.23785 0
M  V30 1655 H 165.547 1.79385 -2.40335 0
M  V30 1656 H 163.1 0.904582 -1.27464 0
M  V30 1657 H 163.835 3.23167 -0.270814 0
M  V30 1658 H 163.62 3.34765 -2.04144 0
M  V30 1659 H 165.11 3.97617 -1.27633 0
M  V30 1660 N 165.547 1.27147 0.931209 0
M  V30 1661 C 166.48 1.0389 2.0318 0
M  V30 1662 C 167.458 -0.0395716 1.62552 0
M  V30 1663 O 168.642 0.104867 1.88208 0
M  V30 1664 C 165.769 0.575227 3.3378 0
M  V30 1665 C 164.815 1.64774 3.93385 0
M  V30 1666 S 165.648 3.23933 4.26413 0
M  V30 1667 C 166.804 2.79358 5.60098 0
M  V30 1668 H 167.037 1.97075 2.22596 0
M  V30 1669 H 164.57 1.10938 1.07387 0
M  V30 1670 H 166.528 0.314385 4.09294 0
M  V30 1671 H 165.189 -0.336505 3.12292 0
M  V30 1672 H 164.382 1.27454 4.87618 0
M  V30 1673 H 163.984 1.86048 3.24441 0
M  V30 1674 H 166.276 2.24443 6.39243 0
M  V30 1675 H 167.219 3.72322 6.02314 0
M  V30 1676 H 167.627 2.1861 5.20452 0
M  V30 1677 N 167.025 -1.13721 1.09112 0
M  V30 1678 C 168.302 -1.81155 0.737706 0
M  V30 1679 C 168.682 -1.96253 -0.777683 0
M  V30 1680 O 168.03 -1.52807 -1.69889 0
M  V30 1681 C 168.24 -3.16392 1.47299 0
M  V30 1682 C 169.588 -3.91787 1.63671 0
M  V30 1683 O 170.612 -3.26005 1.43524 0
M  V30 1684 O 169.471 -5.0977 1.96969 0
M  V30 1685 H 166.565 -0.783518 0.26463 0
M  V30 1686 H 169.111 -1.20676 1.19312 0
M  V30 1687 H 167.883 -3.0061 2.50498 0
M  V30 1688 H 167.506 -3.8457 1.00953 0
M  V30 1689 N 168.503 -0.877838 -1.30888 0
M  V30 1690 C 169.751 -0.491723 -1.96027 0
M  V30 1691 C 170.072 0.960827 -1.69685 0
M  V30 1692 O 169.342 1.67462 -1.01654 0
M  V30 1693 H 167.922 -0.17885 -0.725273 0
M  V30 1694 H 170.584 -1.11935 -1.59551 0
M  V30 1695 H 169.68 -0.656016 -3.05128 0
M  V30 1696 N 169.982 1.44106 -0.638065 0
M  V30 1697 C 171.21 2.06336 -0.152615 0
M  V30 1698 C 171.625 1.47731 1.17563 0
M  V30 1699 O 170.982 0.602806 1.72257 0
M  V30 1700 C 171.033 3.61479 -0.0391491 0
M  V30 1701 O 170.754 4.17903 -1.31487 0
M  V30 1702 C 172.255 4.40757 0.474176 0
M  V30 1703 H 169.475 0.665862 -0.0828776 0
M  V30 1704 H 172.019 1.84862 -0.87443 0
M  V30 1705 H 170.174 3.82191 0.633142 0
M  V30 1706 H 170.588 5.11416 -1.16421 0
M  V30 1707 H 172.062 5.49707 0.502562 0
M  V30 1708 H 172.539 4.12697 1.50258 0
M  V30 1709 H 173.145 4.24979 -0.165102 0
M  V30 1710 N 171.46 0.379036 1.52974 0
M  V30 1711 C 172.37 -0.468639 2.29872 0
M  V30 1712 C 173.386 -1.08067 1.36373 0
M  V30 1713 O 174.562 -1.08871 1.69438 0
M  V30 1714 C 171.627 -1.58594 3.083 0
M  V30 1715 C 170.688 -1.00007 4.17489 0
M  V30 1716 C 169.921 -2.06413 4.92168 0
M  V30 1717 O 170.144 -3.27751 4.66835 0
M  V30 1718 O 169.078 -1.68717 5.7777 0
M  V30 1719 H 172.904 0.157508 3.03291 0
M  V30 1720 H 170.489 0.143035 1.48714 0
M  V30 1721 H 172.371 -2.23525 3.57232 0
M  V30 1722 H 171.046 -2.19724 2.37703 0
M  V30 1723 H 169.953 -0.314299 3.72777 0
M  V30 1724 H 171.286 -0.433135 4.90291 0
M  V30 1725 N 172.938 -1.57226 0.108567 0
M  V30 1726 C 174.186 -1.94448 -0.550853 0
M  V30 1727 C 174.507 -0.992074 -1.67878 0
M  V30 1728 O 173.777 -0.0465 -1.95845 0
M  V30 1729 H 172.357 -0.717897 -0.206479 0
M  V30 1730 H 175.019 -1.94112 0.175062 0
M  V30 1731 H 174.115 -2.97218 -0.952259 0
M  V30 1732 N 174.416 0.165178 -1.56732 0
M  V30 1733 C 175.346 1.20651 -1.99914 0
M  V30 1734 C 176.327 1.45827 -0.875705 0
M  V30 1735 O 177.512 1.57057 -1.14223 0
M  V30 1736 C 174.642 2.54401 -2.36427 0
M  V30 1737 C 173.596 2.43782 -3.51787 0
M  V30 1738 C 172.922 3.82078 -3.7406 0
M  V30 1739 C 174.222 1.93732 -4.85041 0
M  V30 1740 H 175.916 0.847534 -2.87154 0
M  V30 1741 H 173.462 0.40625 -1.38151 0
M  V30 1742 H 175.415 3.27458 -2.65234 0
M  V30 1743 H 174.139 2.92098 -1.46103 0
M  V30 1744 H 172.798 1.73178 -3.23117 0
M  V30 1745 H 172.446 4.17179 -2.81017 0
M  V30 1746 H 172.146 3.7584 -4.51684 0
M  V30 1747 H 173.67 4.56712 -4.05274 0
M  V30 1748 H 175.084 2.56569 -5.12684 0
M  V30 1749 H 173.481 1.98428 -5.66345 0
M  V30 1750 H 174.551 0.891962 -4.76626 0
M  V30 1751 N 175.894 1.51508 0.433938 0
M  V30 1752 C 177.14 1.64588 1.18484 0
M  V30 1753 C 177.473 0.362666 1.90784 0
M  V30 1754 O 176.748 -0.637892 1.83742 0
M  V30 1755 C 177.031 2.85149 2.19913 0
M  V30 1756 C 176.884 4.23456 1.51674 0
M  V30 1757 C 178.203 3.01227 3.20858 0
M  V30 1758 H 175.322 0.598994 0.429389 0
M  V30 1759 H 177.964 1.84002 0.473647 0
M  V30 1760 H 176.114 2.68729 2.80566 0
M  V30 1761 H 177.786 4.51552 0.943322 0
M  V30 1762 H 176.029 4.25998 0.819035 0
M  V30 1763 H 176.7 5.03812 2.2556 0
M  V30 1764 H 179.176 3.16382 2.70263 0
M  V30 1765 H 178.052 3.87141 3.89118 0
M  V30 1766 H 178.313 2.13447 3.8716 0
M  V30 1767 N 177.372 -0.689602 1.41712 0
M  V30 1768 C 178.788 -1.00093 1.24312 0
M  V30 1769 C 178.988 -2.01036 0.136729 0
M  V30 1770 O 178.044 -2.47562 -0.496918 0
M  V30 1771 C 179.357 -1.51985 2.59463 0
M  V30 1772 C 180.905 -1.63838 2.66695 0
M  V30 1773 C 181.38 -2.1913 4.02177 0
M  V30 1774 N 182.871 -2.26483 4.04054 0
M  V30 1775 C 183.606 -2.70306 5.0569 0
M  V30 1776 N 183.102 -3.13691 6.17713 0
M  V30 1777 N 184.895 -2.69923 4.9305 0
M  V30 1778 H 177.046 -0.0210029 2.1239 0
M  V30 1779 H 179.309 -0.0718733 0.945272 0
M  V30 1780 H 179.015 -0.85269 3.41207 0
M  V30 1781 H 178.889 -2.50103 2.82362 0
M  V30 1782 H 181.276 -2.29664 1.85306 0
M  V30 1783 H 181.357 -0.642492 2.476 0
M  V30 1784 H 181.001 -1.53918 4.84016 0
M  V30 1785 H 180.931 -3.19482 4.18615 0
M  V30 1786 H 183.422 -1.95874 3.23174 0
M  V30 1787 H 183.735 -3.45773 6.9113 0
M  V30 1788 H 182.08 -3.11585 6.21241 0
M  V30 1789 H 185.271 -2.35382 4.04614 0
M  V30 1790 H 185.444 -3.03758 5.72394 0
M  V30 1791 N 178.85 -1.27639 -0.924453 0
M  V30 1792 C 180.098 -1.13941 -1.66918 0
M  V30 1793 C 180.419 0.314589 -1.92446 0
M  V30 1794 O 179.689 1.21964 -1.53303 0
M  V30 1795 H 178.269 -0.418678 -0.618642 0
M  V30 1796 H 180.931 -1.60213 -1.10985 0
M  V30 1797 H 180.027 -1.67094 -2.63602 0
M  V30 1798 N 180.328 1.1314 -1.09713 0
M  V30 1799 C 181.26 2.18343 -0.697056 0
M  V30 1800 C 182.273 1.60669 0.262551 0
M  V30 1801 O 183.462 1.78435 0.0481527 0
M  V30 1802 C 180.562 3.38899 -0.00684728 0
M  V30 1803 C 179.735 4.26078 -0.988741 0
M  V30 1804 C 178.794 5.25155 -0.331394 0
M  V30 1805 O 177.82 5.60701 -0.979926 0
M  V30 1806 N 179.022 5.73271 0.913261 0
M  V30 1807 H 181.787 2.5328 -1.60216 0
M  V30 1808 H 179.348 1.28491 -0.984971 0
M  V30 1809 H 181.34 4.02255 0.444191 0
M  V30 1810 H 179.91 3.02175 0.800551 0
M  V30 1811 H 179.13 3.59453 -1.61826 0
M  V30 1812 H 180.418 4.81178 -1.65364 0
M  V30 1813 H 179.816 5.46544 1.45966 0
M  V30 1814 H 178.373 6.3855 1.30757 0
M  V30 1815 N 181.806 0.884767 1.30421 0
M  V30 1816 C 182.753 0.349642 2.28136 0
M  V30 1817 C 183.723 -0.560061 1.56373 0
M  V30 1818 O 184.908 -0.488524 1.8444 0
M  V30 1819 C 182.048 -0.42999 3.42411 0
M  V30 1820 C 181.161 0.508907 4.28992 0
M  V30 1821 C 180.296 -0.286301 5.30428 0
M  V30 1822 C 179.335 0.648079 6.08659 0
M  V30 1823 N 178.472 -0.111792 7.02011 0
M  V30 1824 H 183.312 1.18807 2.73293 0
M  V30 1825 H 180.849 0.597231 1.3443 0
M  V30 1826 H 182.807 -0.897923 4.07423 0
M  V30 1827 H 181.437 -1.23299 2.98324 0
M  V30 1828 H 180.489 1.09533 3.64289 0
M  V30 1829 H 181.801 1.22475 4.8353 0
M  V30 1830 H 180.955 -0.816098 6.01186 0
M  V30 1831 H 179.694 -1.03536 4.76583 0
M  V30 1832 H 178.699 1.18951 5.36778 0
M  V30 1833 H 179.924 1.39623 6.64592 0
M  V30 1834 H 177.87 -0.843395 6.50556 0
M  V30 1835 H 177.787 0.544429 7.54037 0
M  V30 1836 H 179.055 -0.622339 7.77012 0
M  V30 1837 N 183.284 -1.43765 0.645699 0
M  V30 1838 C 184.53 -2.02197 0.156271 0
M  V30 1839 C 184.863 -1.50776 -1.22393 0
M  V30 1840 O 184.138 -0.697771 -1.81553 0
M  V30 1841 C 184.421 -3.59749 0.158872 0
M  V30 1842 C 184.274 -4.21419 1.57245 0
M  V30 1843 C 185.593 -4.37149 -0.50879 0
M  V30 1844 H 182.712 -0.734694 0.0582602 0
M  V30 1845 H 185.354 -1.71157 0.824951 0
M  V30 1846 H 183.504 -3.86325 -0.410525 0
M  V30 1847 H 185.176 -4.059 2.19186 0
M  V30 1848 H 183.419 -3.78356 2.122 0
M  V30 1849 H 184.09 -5.30482 1.52619 0
M  V30 1850 H 186.566 -4.16093 -0.024412 0
M  V30 1851 H 185.442 -5.4683 -0.476213 0
M  V30 1852 H 185.703 -4.12839 -1.58165 0
M  V30 1853 N 184.763 -0.387143 -1.52771 0
M  V30 1854 C 185.693 0.440551 -2.29306 0
M  V30 1855 C 186.674 1.06535 -1.32606 0
M  V30 1856 O 187.859 1.07853 -1.61497 0
M  V30 1857 C 184.989 1.56919 -3.09829 0
M  V30 1858 C 183.943 1.07054 -4.14395 0
M  V30 1859 C 183.269 2.29109 -4.83129 0
M  V30 1860 C 184.569 0.140015 -5.22112 0
M  V30 1861 H 186.263 -0.198026 -2.98744 0
M  V30 1862 H 183.809 -0.09668 -1.43675 0
M  V30 1863 H 185.762 2.15503 -3.62128 0
M  V30 1864 H 184.486 2.23532 -2.3812 0
M  V30 1865 H 183.145 0.507247 -3.63074 0
M  V30 1866 H 182.793 2.94227 -4.0797 0
M  V30 1867 H 182.493 1.96406 -5.53804 0
M  V30 1868 H 184.017 2.88339 -5.38231 0
M  V30 1869 H 185.431 0.633978 -5.69784 0
M  V30 1870 H 183.828 -0.0971485 -6.00021 0
M  V30 1871 H 184.898 -0.811711 -4.78058 0
M  V30 1872 N 186.241 1.57166 -0.116904 0
M  V30 1873 C 187.518 1.86645 0.585049 0
M  V30 1874 C 187.898 1.0177 1.84949 0
M  V30 1875 O 187.246 0.0960379 2.28298 0
M  V30 1876 C 187.456 3.37736 0.879507 0
M  V30 1877 C 188.804 4.06289 1.23348 0
M  V30 1878 O 189.828 3.42743 0.969836 0
M  V30 1879 O 188.687 5.18455 1.7282 0
M  V30 1880 H 185.781 0.772593 0.295007 0
M  V30 1881 H 188.327 1.69025 -0.151249 0
M  V30 1882 H 187.099 3.91296 -0.0166136 0
M  V30 1883 H 186.722 3.6078 1.67103 0
M  V30 1884 N 187.719 -0.156864 1.56817 0
M  V30 1885 C 188.944 -0.890331 1.87318 0
M  V30 1886 C 189.369 -1.74394 0.704855 0
M  V30 1887 O 188.727 -1.77972 -0.345786 0
M  V30 1888 C 188.775 -1.73102 3.16336 0
M  V30 1889 O 187.879 -2.83422 2.99576 0
M  V30 1890 H 187.22 -0.24857 0.615718 0
M  V30 1891 H 189.75 -0.150649 2.04045 0
M  V30 1892 H 189.76 -2.12803 3.48107 0
M  V30 1893 H 188.435 -1.10412 4.00976 0
M  V30 1894 H 187.012 -2.47199 2.7919 0
M  V30 1895 N 189.197 -1.51736 -0.425897 0
M  V30 1896 C 190.445 -1.64644 -1.17204 0
M  V30 1897 C 190.766 -0.370486 -1.91448 0
M  V30 1898 O 190.036 0.614088 -1.86026 0
M  V30 1899 H 188.616 -0.606819 -0.435638 0
M  V30 1900 H 191.278 -1.88713 -0.487177 0
M  V30 1901 H 190.374 -2.47958 -1.89534 0
M  V30 1902 N 190.675 0.682077 -1.42076 0
M  V30 1903 C 191.638 1.77756 -1.44691 0
M  V30 1904 C 192.638 1.5726 -0.335535 0
M  V30 1905 O 193.828 1.63686 -0.596037 0
M  V30 1906 C 190.96 3.16301 -1.27146 0
M  V30 1907 H 192.153 1.76826 -2.42224 0
M  V30 1908 H 189.706 0.891012 -1.28416 0
M  V30 1909 H 190.441 3.22862 -0.305075 0
M  V30 1910 H 190.226 3.32581 -2.07683 0
M  V30 1911 H 191.716 3.96241 -1.31843 0
M  V30 1912 N 192.153 1.28127 0.917671 0
M  V30 1913 C 193.564 1.13622 1.48145 0
M  V30 1914 C 193.915 -0.275207 1.9426 0
M  V30 1915 O 193.04 -1.1691 1.82102 0
M  V30 1916 C 193.635 2.05648 2.69248 0
M  V30 1917 C 192.194 1.95219 3.21818 0
M  V30 1918 C 191.341 1.97618 1.94532 0
M  V30 1919 H 194.292 1.40874 0.730772 0
M  V30 1920 H 194.313 1.61818 3.44377 0
M  V30 1921 H 193.825 3.08365 2.35653 0
M  V30 1922 H 191.926 0.955244 3.60147 0
M  V30 1923 H 192.039 2.81976 3.87333 0
M  V30 1924 H 190.403 1.41973 2.11461 0
M  V30 1925 H 191.186 3.02007 1.63238 0
M  V30 1926 N 193.631 -1.12557 1.10312 0
M  V30 1927 C 194.88 -1.83395 0.839588 0
M  V30 1928 C 195.193 -1.84939 -0.636929 0
M  V30 1929 O 196.399 -2.51761 -1.01631 0
M  V30 1930 C 194.855 -3.29303 1.45215 0
M  V30 1931 C 194.463 -3.36122 2.96186 0
M  V30 1932 C 196.207 -4.05121 1.26796 0
M  V30 1933 C 194.114 -4.76357 3.50483 0
M  V30 1934 H 193.044 -0.687133 0.310425 0
M  V30 1935 H 195.695 -1.26746 1.32694 0
M  V30 1936 H 194.077 -3.85812 0.892469 0
M  V30 1937 H 195.251 -2.89559 3.58458 0
M  V30 1938 H 193.566 -2.73776 3.13745 0
M  V30 1939 H 196.163 -5.08668 1.64806 0
M  V30 1940 H 196.506 -4.15773 0.209409 0
M  V30 1941 H 197.039 -3.54967 1.79563 0
M  V30 1942 H 193.778 -4.70899 4.55998 0
M  V30 1943 H 193.298 -5.23377 2.92978 0
M  V30 1944 H 194.977 -5.45294 3.48228 0
M  V30 1945 N 195.109 -0.891671 -1.2995 0
M  V30 1946 C 196.056 -0.361736 -2.27948 0
M  V30 1947 C 197.026 0.551761 -1.56668 0
M  V30 1948 O 198.211 0.478736 -1.84696 0
M  V30 1949 C 195.351 0.411825 -3.42634 0
M  V30 1950 C 194.464 -0.531651 -4.28716 0
M  V30 1951 C 193.599 0.258167 -5.30572 0
M  V30 1952 C 192.638 -0.680349 -6.08307 0
M  V30 1953 N 191.775 0.0745613 -7.0206 0
M  V30 1954 H 196.615 -1.20254 -2.72659 0
M  V30 1955 H 194.152 -0.604352 -1.34112 0
M  V30 1956 H 196.11 0.876304 -4.07893 0
M  V30 1957 H 194.74 1.21715 -2.98974 0
M  V30 1958 H 193.792 -1.11463 -3.63703 0
M  V30 1959 H 195.104 -1.25038 -4.82874 0
M  V30 1960 H 194.258 0.784204 -6.0161 0
M  V30 1961 H 192.997 1.01008 -4.77126 0
M  V30 1962 H 192.002 -1.21796 -5.3614 0
M  V30 1963 H 193.227 -1.43145 -6.63842 0
M  V30 1964 H 191.173 0.808883 -6.50994 0
M  V30 1965 H 191.09 -0.584409 -7.53738 0
M  V30 1966 H 192.358 0.581123 -7.77331 0
M  V30 1967 N 196.587 1.43421 -0.653314 0
M  V30 1968 C 197.836 2.01032 -0.164076 0
M  V30 1969 C 198.149 1.52147 1.22926 0
M  V30 1970 O 199.355 2.02031 1.81371 0
M  V30 1971 C 197.811 3.59082 -0.24252 0
M  V30 1972 C 197.419 4.1696 -1.63855 0
M  V30 1973 C 199.163 4.24079 0.18911 0
M  V30 1974 C 197.07 5.67304 -1.67092 0
M  V30 1975 H 196 0.751798 -0.0575769 0
M  V30 1976 H 198.651 1.6439 -0.815362 0
M  V30 1977 H 197.033 3.93125 0.476276 0
M  V30 1978 H 198.207 3.94416 -2.38271 0
M  V30 1979 H 196.522 3.64335 -2.01616 0
M  V30 1980 H 199.119 5.34381 0.184775 0
M  V30 1981 H 199.462 3.98005 1.22056 0
M  V30 1982 H 199.995 3.94918 -0.477938 0
M  V30 1983 H 196.734 5.98145 -2.68146 0
M  V30 1984 H 196.254 5.91904 -0.970014 0
M  V30 1985 H 197.933 6.31344 -1.4147 0
M  V30 1986 N 198.065 0.39524 1.52563 0
M  V30 1987 C 199.476 -0.0774719 1.86539 0
M  V30 1988 C 199.827 -1.45641 1.31466 0
M  V30 1989 O 198.952 -2.06459 0.648367 0
M  V30 1990 C 199.547 -0.147356 3.38479 0
M  V30 1991 C 198.106 -0.564373 3.72145 0
M  V30 1992 C 197.253 0.269919 2.75983 0
M  V30 1993 H 200.204 0.612876 1.46388 0
M  V30 1994 H 200.225 -0.965343 3.68051 0
M  V30 1995 H 199.737 0.856387 3.78534 0
M  V30 1996 H 197.838 -1.57527 3.37663 0
M  V30 1997 H 197.951 -0.318402 4.78041 0
M  V30 1998 H 196.315 -0.265696 2.5331 0
M  V30 1999 H 197.098 1.27175 3.18875 0
M  V30 2000 N 199.544 -1.57102 0.125237 0
M  V30 2001 C 200.79 -1.95697 -0.532035 0
M  V30 2002 C 201.123 -1.009 -1.6593 0
M  V30 2003 O 200.398 -0.047347 -1.94442 0
M  V30 2004 C 200.681 -3.44181 -1.05884 0
M  V30 2005 C 200.534 -4.49752 0.0654392 0
M  V30 2006 C 201.853 -3.94655 -1.9477 0
M  V30 2007 H 198.972 -0.711571 -0.191925 0
M  V30 2008 H 201.614 -1.88923 0.20206 0
M  V30 2009 H 199.764 -3.50085 -1.68442 0
M  V30 2010 H 201.436 -4.55943 0.700982 0
M  V30 2011 H 199.679 -4.27653 0.727709 0
M  V30 2012 H 200.35 -5.50924 -0.344505 0
M  V30 2013 H 202.826 -3.91094 -1.42074 0
M  V30 2014 H 201.702 -4.99057 -2.28546 0
M  V30 2015 H 201.963 -3.35718 -2.87656 0
M  V30 2016 N 201.022 0.148545 -1.56898 0
M  V30 2017 C 202.27 0.859717 -1.82902 0
M  V30 2018 C 202.591 1.81775 -0.70588 0
M  V30 2019 O 201.861 1.93994 0.272586 0
M  V30 2020 H 200.441 0.320469 -0.674766 0
M  V30 2021 H 203.103 0.142918 -1.94375 0
M  V30 2022 H 202.199 1.4229 -2.77777 0
M  V30 2023 N 202.5 1.5196 0.417844 0
M  V30 2024 C 203.911 1.57851 0.997 0
M  V30 2025 C 204.262 0.413714 1.91789 0
M  V30 2026 O 203.387 -0.467057 2.113 0
M  V30 2027 C 203.982 2.86085 1.81496 0
M  V30 2028 C 202.541 2.94483 2.34428 0
M  V30 2029 C 201.688 2.52707 1.14169 0
M  V30 2030 H 204.639 1.57455 0.198392 0
M  V30 2031 H 204.66 2.70947 2.67148 0
M  V30 2032 H 204.172 3.70842 1.14446 0
M  V30 2033 H 202.273 2.142 3.04875 0
M  V30 2034 H 202.386 3.98546 2.65891 0
M  V30 2035 H 200.75 2.06353 1.49301 0
M  V30 2036 H 201.533 3.39828 0.486999 0
M  V30 2037 N 203.978 -0.674533 1.42435 0
M  V30 2038 C 204.888 -1.81751 1.48337 0
M  V30 2039 C 205.904 -1.69975 0.372099 0
M  V30 2040 O 207.08 -1.91521 0.62304 0
M  V30 2041 C 204.145 -3.17895 1.38361 0
M  V30 2042 C 203.206 -3.41625 2.59982 0
M  V30 2043 C 202.439 -4.71274 2.50473 0
M  V30 2044 O 202.662 -5.49197 1.54075 0
M  V30 2045 O 201.596 -4.96254 3.4061 0
M  V30 2046 H 205.422 -1.79728 2.44809 0
M  V30 2047 H 203.007 -0.830312 1.24202 0
M  V30 2048 H 204.889 -3.99136 1.35161 0
M  V30 2049 H 203.564 -3.20555 0.450144 0
M  V30 2050 H 202.471 -2.60231 2.68757 0
M  V30 2051 H 203.804 -3.43796 3.52229 0
M  V30 2052 N 205.456 -1.28612 -0.910864 0
M  V30 2053 C 206.684 -1.18792 -1.69399 0
M  V30 2054 C 207.099 0.253039 -1.87097 0
M  V30 2055 O 206.456 1.17071 -1.40003 0
M  V30 2056 C 206.507 -1.88511 -3.08457 0
M  V30 2057 O 206.228 -3.26979 -2.91576 0
M  V30 2058 C 207.729 -1.85029 -4.02839 0
M  V30 2059 H 204.949 -0.412233 -0.529438 0
M  V30 2060 H 207.493 -1.69788 -1.13984 0
M  V30 2061 H 205.648 -1.41379 -3.60681 0
M  V30 2062 H 206.062 -3.61936 -3.79608 0
M  V30 2063 H 207.536 -2.38395 -4.97867 0
M  V30 2064 H 208.013 -0.823303 -4.31414 0
M  V30 2065 H 208.619 -2.31853 -3.56545 0
M  V30 2066 N 206.934 1.1197 -1.10907 0
M  V30 2067 C 207.864 2.19928 -0.784473 0
M  V30 2068 C 208.845 1.6833 0.244726 0
M  V30 2069 O 210.03 1.93892 0.109418 0
M  V30 2070 C 207.16 3.46597 -0.220827 0
M  V30 2071 C 206.114 4.11376 -1.18127 0
M  V30 2072 C 205.44 5.32554 -0.478594 0
M  V30 2073 C 206.74 4.56945 -2.52979 0
M  V30 2074 H 208.434 2.47337 -1.68715 0
M  V30 2075 H 205.98 1.18879 -0.812642 0
M  V30 2076 H 207.933 4.21396 0.0184278 0
M  V30 2077 H 206.657 3.1863 0.717113 0
M  V30 2078 H 205.316 3.38564 -1.40606 0
M  V30 2079 H 204.964 5.00856 0.463976 0
M  V30 2080 H 204.664 5.76844 -1.11912 0
M  V30 2081 H 206.188 6.10096 -0.248 0
M  V30 2082 H 207.602 5.23093 -2.3462 0
M  V30 2083 H 205.999 5.1203 -3.12962 0
M  V30 2084 H 207.069 3.70676 -3.12614 0
M  V30 2085 N 208.412 0.89855 1.29475 0
M  V30 2086 C 209.66 0.522847 1.9522 0
M  V30 2087 C 209.981 -0.93371 1.71192 0
M  V30 2088 O 209.251 -1.65823 1.04305 0
M  V30 2089 H 207.831 0.190366 0.722336 0
M  V30 2090 H 210.493 1.14459 1.5775 0
M  V30 2091 H 209.589 0.704476 3.04045 0
M  V30 2092 N 209.89 -1.43072 0.660911 0
M  V30 2093 C 211.306 -1.56169 0.329173 0
M  V30 2094 C 211.506 -1.64317 -1.16629 0
M  V30 2095 O 210.562 -1.60245 -1.95135 0
M  V30 2096 C 211.875 -2.81873 1.04729 0
M  V30 2097 C 213.423 -2.95627 1.02828 0
M  V30 2098 C 213.898 -4.24174 1.72744 0
M  V30 2099 N 215.389 -4.31055 1.69545 0
M  V30 2100 C 216.124 -5.29304 2.20511 0
M  V30 2101 N 215.62 -6.33786 2.79799 0
M  V30 2102 N 217.413 -5.21008 2.10966 0
M  V30 2103 H 209.564 -1.36027 1.63127 0
M  V30 2104 H 211.827 -0.653823 0.686454 0
M  V30 2105 H 211.533 -2.81942 2.10242 0
M  V30 2106 H 211.407 -3.72338 0.603702 0
M  V30 2107 H 213.794 -2.95094 -0.0184742 0
M  V30 2108 H 213.875 -2.06431 1.51063 0
M  V30 2109 H 213.519 -4.25467 2.7738 0
M  V30 2110 H 213.449 -5.1228 1.2197 0
M  V30 2111 H 215.94 -3.56174 1.26288 0
M  V30 2112 H 216.253 -7.05086 3.16344 0
M  V30 2113 H 214.598 -6.34387 2.83863 0
M  V30 2114 H 217.789 -4.38301 1.64347 0
M  V30 2115 H 217.962 -5.97416 2.50993 0
M  V30 2116 N 211.368 -0.403325 -1.52352 0
M  V30 2117 C 212.617 0.175668 -2.00934 0
M  V30 2118 C 212.93 1.46718 -1.29356 0
M  V30 2119 O 214.136 2.12708 -1.68724 0
M  V30 2120 C 212.592 0.363612 -3.58058 0
M  V30 2121 C 212.2 -0.915472 -4.38547 0
M  V30 2122 C 213.944 0.89821 -4.14888 0
M  V30 2123 C 211.851 -0.695035 -5.87302 0
M  V30 2124 H 210.781 0.0694234 -0.750797 0
M  V30 2125 H 213.432 -0.527879 -1.75743 0
M  V30 2126 H 211.814 1.12935 -3.79555 0
M  V30 2127 H 212.988 -1.68691 -4.28812 0
M  V30 2128 H 211.303 -1.37606 -3.93006 0
M  V30 2129 H 213.9 1.07907 -5.23699 0
M  V30 2130 H 214.243 1.87126 -3.71873 0
M  V30 2131 H 214.776 0.191681 -3.97338 0
M  V30 2132 H 211.515 -1.63948 -6.34666 0
M  V30 2133 H 211.035 0.0372116 -5.99788 0
M  V30 2134 H 212.714 -0.33497 -6.46132 0
M  V30 2135 N 212.846 1.57033 -0.133567 0
M  V30 2136 C 213.779 2.11824 0.848872 0
M  V30 2137 C 214.757 1.03833 1.2513 0
M  V30 2138 O 215.941 1.31579 1.34978 0
M  V30 2139 C 213.068 2.62692 2.138 0
M  V30 2140 C 212.114 3.82705 1.88253 0
M  V30 2141 S 212.947 5.2438 1.08563 0
M  V30 2142 C 214.103 5.78627 2.38624 0
M  V30 2143 H 214.336 2.94824 0.38289 0
M  V30 2144 H 211.869 1.5419 0.0804796 0
M  V30 2145 H 213.827 2.92652 2.87863 0
M  V30 2146 H 212.488 1.79847 2.57515 0
M  V30 2147 H 211.681 4.16496 2.83809 0
M  V30 2148 H 211.283 3.53437 1.22305 0
M  V30 2149 H 213.575 5.8924 3.34369 0
M  V30 2150 H 214.518 6.76443 2.09358 0
M  V30 2151 H 214.926 5.06783 2.48658 0
M  V30 2152 N 214.325 -0.140222 1.56975 0
M  V30 2153 C 215.273 -1.19207 1.99731 0
M  V30 2154 C 216.267 -1.44089 0.890777 0
M  V30 2155 O 217.473 -1.44301 1.07597 0
M  V30 2156 H 213.848 -0.40142 0.635898 0
M  V30 2157 H 215.819 -0.804813 2.87342 0
M  V30 2158 C 214.568 -2.51617 2.39967 0
M  V30 2159 H 213.891 -2.33303 3.24669 0
M  V30 2160 H 215.331 -3.23827 2.73701 0
M  V30 2161 C 213.79 -3.12654 1.25496 0
M  V30 2162 O 214.32 -3.97786 0.559371 0
M  V30 2163 N 212.526 -2.72206 1.01746 0
M  V30 2164 H 212.073 -2.03074 1.58489 0
M  V30 2165 H 212.031 -3.13377 0.253461 0
M  V30 2166 N 215.803 -1.52179 -0.40978 0
M  V30 2167 C 217.049 -1.66453 -1.15851 0
M  V30 2168 C 217.382 -0.392972 -1.90182 0
M  V30 2169 O 216.657 0.608579 -1.84734 0
M  V30 2170 C 216.94 -2.88612 -2.15349 0
M  V30 2171 C 216.793 -4.25815 -1.44918 0
M  V30 2172 C 218.112 -3.06294 -3.16026 0
M  V30 2173 H 215.231 -0.60575 -0.419805 0
M  V30 2174 H 217.873 -1.84732 -0.444314 0
M  V30 2175 H 216.023 -2.73158 -2.76255 0
M  V30 2176 H 217.695 -4.52995 -0.871365 0
M  V30 2177 H 215.938 -4.27247 -0.751159 0
M  V30 2178 H 216.609 -5.07337 -2.17516 0
M  V30 2179 H 219.085 -3.20641 -2.65195 0
M  V30 2180 H 217.961 -3.93283 -3.8291 0
M  V30 2181 H 218.222 -2.19579 -3.83715 0
M  V30 2182 N 217.281 0.66697 -1.42791 0
M  V30 2183 C 218.53 1.42278 -1.42968 0
M  V30 2184 C 218.843 1.9553 -0.0524489 0
M  V30 2185 O 220.049 2.71414 0.068363 0
M  V30 2186 C 218.505 2.57418 -2.51524 0
M  V30 2187 C 218.113 2.10832 -3.9529 0
M  V30 2188 C 219.857 3.34878 -2.60877 0
M  V30 2189 C 217.764 3.23101 -4.95338 0
M  V30 2190 H 216.694 0.534533 -0.531781 0
M  V30 2191 H 219.345 0.721302 -1.68729 0
M  V30 2192 H 217.727 3.29971 -2.18941 0
M  V30 2193 H 218.901 1.4538 -4.37266 0
M  V30 2194 H 217.216 1.46289 -3.89857 0
M  V30 2195 H 219.813 4.18505 -3.32802 0
M  V30 2196 H 220.156 3.81993 -1.6549 0
M  V30 2197 H 220.689 2.69398 -2.92693 0
M  V30 2198 H 217.428 2.80969 -5.9223 0
M  V30 2199 H 216.948 3.87309 -4.57987 0
M  V30 2200 H 218.627 3.88447 -5.17415 0
M  V30 2201 N 218.759 1.29093 0.90403 0
M  V30 2202 C 220.007 1.16583 1.65085 0
M  V30 2203 C 220.328 -0.283933 1.92922 0
M  V30 2204 O 219.598 -1.19509 1.55224 0
M  V30 2205 H 218.178 0.428467 0.611903 0
M  V30 2206 H 220.84 1.61959 1.08422 0
M  V30 2207 H 219.936 1.71266 2.6091 0
M  V30 2208 N 220.237 -1.11381 1.11499 0
M  V30 2209 C 221.147 -2.21019 0.786628 0
M  V30 2210 C 222.163 -1.72597 -0.220507 0
M  V30 2211 O 223.339 -2.01321 -0.0565251 0
M  V30 2212 C 220.404 -3.459 0.235333 0
M  V30 2213 C 219.465 -4.09107 1.30115 0
M  V30 2214 C 218.698 -5.28027 0.776068 0
M  V30 2215 O 218.921 -5.6904 -0.393661 0
M  V30 2216 O 217.855 -5.81835 1.54114 0
M  V30 2217 H 221.681 -2.51521 1.70209 0
M  V30 2218 H 219.266 -1.19928 0.890928 0
M  V30 2219 H 221.148 -4.21346 -0.067715 0
M  V30 2220 H 219.823 -3.17049 -0.652828 0
M  V30 2221 H 218.73 -3.35391 1.65722 0
M  V30 2222 H 220.063 -4.42139 2.16273 0
M  V30 2223 N 221.715 -0.905404 -1.28997 0
M  V30 2224 C 223.126 -0.581953 -1.77398 0
M  V30 2225 C 223.477 0.902552 -1.74208 0
M  V30 2226 O 222.602 1.70584 -1.33154 0
M  V30 2227 C 223.197 -1.04961 -3.22131 0
M  V30 2228 C 221.756 -0.777229 -3.68288 0
M  V30 2229 C 220.903 -1.22109 -2.48967 0
M  V30 2230 H 223.854 -1.08754 -1.15578 0
M  V30 2231 H 223.875 -0.387387 -3.78523 0
M  V30 2232 H 223.387 -2.13008 -3.24421 0
M  V30 2233 H 221.488 0.290383 -3.71467 0
M  V30 2234 H 221.601 -1.37911 -4.58822 0
M  V30 2235 H 219.965 -0.639971 -2.46529 0
M  V30 2236 H 220.748 -2.30972 -2.53982 0
M  V30 2237 N 223.193 1.4272 -0.668489 0
M  V30 2238 C 224.442 2.00846 -0.185389 0
M  V30 2239 C 224.755 1.53442 1.21305 0
M  V30 2240 O 225.961 2.03944 1.79218 0
M  V30 2241 C 224.417 3.58805 -0.280591 0
M  V30 2242 C 224.025 4.15198 -1.68268 0
M  V30 2243 C 225.769 4.24255 0.14412 0
M  V30 2244 C 223.676 5.655 -1.73099 0
M  V30 2245 H 222.606 0.751145 -0.0655475 0
M  V30 2246 H 225.257 1.63516 -0.832752 0
M  V30 2247 H 223.639 3.93608 0.434553 0
M  V30 2248 H 224.813 3.91866 -2.42441 0
M  V30 2249 H 223.128 3.62176 -2.05469 0
M  V30 2250 H 225.725 5.34547 0.128086 0
M  V30 2251 H 226.068 3.99277 1.17827 0
M  V30 2252 H 226.601 3.94389 -0.519798 0
M  V30 2253 H 223.34 5.95268 -2.74475 0
M  V30 2254 H 222.86 5.90842 -1.03274 0
M  V30 2255 H 224.539 6.29808 -1.48158 0
M  V30 2256 N 224.671 0.411399 1.52136 0
M  V30 2257 C 225.948 -0.222308 1.94333 0
M  V30 2258 C 226.328 -1.6242 1.34844 0
M  V30 2259 O 225.676 -2.22384 0.525145 0
M  V30 2260 C 225.886 -0.226345 3.48265 0
M  V30 2261 C 227.234 -0.444592 4.22266 0
M  V30 2262 O 228.258 -0.305602 3.54887 0
M  V30 2263 O 227.117 -0.718749 5.41753 0
M  V30 2264 H 224.211 -0.143907 0.814383 0
M  V30 2265 H 226.757 0.467506 1.63133 0
M  V30 2266 H 225.529 0.75475 3.83952 0
M  V30 2267 H 225.152 -0.960163 3.85832 0
M  V30 2268 N 226.149 -1.5696 0.141893 0
M  V30 2269 C 227.059 -2.20066 -0.812905 0
M  V30 2270 C 228.075 -1.18344 -1.27557 0
M  V30 2271 O 229.251 -1.50902 -1.33381 0
M  V30 2272 C 226.316 -2.80583 -2.03652 0
M  V30 2273 C 225.377 -3.97414 -1.62359 0
M  V30 2274 C 224.61 -4.55036 -2.78887 0
M  V30 2275 O 224.833 -4.11538 -3.94959 0
M  V30 2276 O 223.767 -5.45376 -2.54653 0
M  V30 2277 H 227.593 -3.02157 -0.305746 0
M  V30 2278 H 225.178 -1.49159 -0.0848799 0
M  V30 2279 H 227.06 -3.19067 -2.75272 0
M  V30 2280 H 225.735 -2.01508 -2.5333 0
M  V30 2281 H 224.642 -3.63656 -0.877775 0
M  V30 2282 H 225.975 -4.77994 -1.17401 0
M  V30 2283 N 227.627 0.131896 -1.57047 0
M  V30 2284 C 229.043 0.485031 -1.52051 0
M  V30 2285 C 229.243 1.82563 -0.85281 0
M  V30 2286 O 228.299 2.48817 -0.429694 0
M  V30 2287 C 229.612 0.481409 -2.96821 0
M  V30 2288 C 231.16 0.565868 -3.07842 0
M  V30 2289 C 231.635 0.592762 -4.54148 0
M  V30 2290 N 233.126 0.654564 -4.58552 0
M  V30 2291 C 233.861 0.696608 -5.69153 0
M  V30 2292 N 233.357 0.697078 -6.89284 0
M  V30 2293 N 235.15 0.738639 -5.57226 0
M  V30 2294 H 227.301 -0.746664 -1.98843 0
M  V30 2295 H 229.564 -0.273999 -0.90754 0
M  V30 2296 H 229.27 -0.435731 -3.4899 0
M  V30 2297 H 229.144 1.3139 -3.53577 0
M  V30 2298 H 231.531 1.47343 -2.55684 0
M  V30 2299 H 231.612 -0.29406 -2.54104 0
M  V30 2300 H 231.256 -0.310701 -5.06949 0
M  V30 2301 H 231.186 1.46939 -5.05684 0
M  V30 2302 H 233.677 0.660887 -3.72076 0
M  V30 2303 H 233.99 0.731426 -7.69331 0
M  V30 2304 H 232.335 0.66471 -6.91814 0
M  V30 2305 H 235.526 0.735545 -4.62285 0
M  V30 2306 H 235.699 0.767938 -6.43434 0
M  V30 2307 N 229.106 1.52395 0.401703 0
M  V30 2308 C 230.354 1.66488 1.14569 0
M  V30 2309 C 230.675 0.400897 1.90835 0
M  V30 2310 O 229.945 -0.584415 1.8698 0
M  V30 2311 H 228.525 0.613672 0.425929 0
M  V30 2312 H 231.187 1.89464 0.457093 0
M  V30 2313 H 230.283 2.50942 1.85566 0
M  V30 2314 N 230.584 -0.659388 1.43143 0
M  V30 2315 C 231.995 -1.24041 1.39537 0
M  V30 2316 C 232.346 -1.95963 0.0963364 0
M  V30 2317 O 231.471 -2.00892 -0.804438 0
M  V30 2318 C 232.066 -2.25601 2.52764 0
M  V30 2319 C 230.625 -2.79195 2.52443 0
M  V30 2320 C 229.772 -1.53743 2.30778 0
M  V30 2321 H 232.723 -0.451792 1.52133 0
M  V30 2322 H 232.744 -3.07651 2.23899 0
M  V30 2323 H 232.256 -1.73226 3.47296 0
M  V30 2324 H 230.357 -3.35649 1.61773 0
M  V30 2325 H 230.47 -3.2716 3.50004 0
M  V30 2326 H 228.834 -1.80869 1.79328 0
M  V30 2327 H 229.617 -1.03312 3.27386 0
M  V30 2328 N 232.062 -1.29571 -0.897171 0
M  V30 2329 C 233.311 -1.1706 -1.64256 0
M  V30 2330 C 233.624 0.276476 -1.93636 0
M  V30 2331 O 234.83 0.52294 -2.66416 0
M  V30 2332 C 233.286 -2.0475 -2.95982 0
M  V30 2333 C 232.894 -3.54295 -2.74187 0
M  V30 2334 C 234.638 -2.0097 -3.73914 0
M  V30 2335 C 232.545 -4.34081 -4.01656 0
M  V30 2336 H 231.475 -0.43452 -0.616205 0
M  V30 2337 H 234.126 -1.54229 -0.994268 0
M  V30 2338 H 232.508 -1.60452 -3.62038 0
M  V30 2339 H 233.682 -4.06662 -2.1671 0
M  V30 2340 H 231.997 -3.59773 -2.09648 0
M  V30 2341 H 234.594 -2.57838 -4.68427 0
M  V30 2342 H 234.937 -0.990273 -4.0435 0
M  V30 2343 H 235.47 -2.43325 -3.14703 0
M  V30 2344 H 232.209 -5.36671 -3.76384 0
M  V30 2345 H 231.729 -3.86483 -4.58684 0
M  V30 2346 H 233.408 -4.44877 -4.69781 0
M  V30 2347 N 233.54 1.10788 -1.12088 0
M  V30 2348 C 234.487 2.17025 -0.785407 0
M  V30 2349 C 235.457 1.64265 0.246191 0
M  V30 2350 O 236.642 1.90412 0.121584 0
M  V30 2351 C 233.782 3.44249 -0.242177 0
M  V30 2352 C 232.895 4.1098 -1.33115 0
M  V30 2353 C 232.03 5.25911 -0.747741 0
M  V30 2354 C 231.069 5.84538 -1.81609 0
M  V30 2355 N 230.206 6.90853 -1.25167 0
M  V30 2356 H 235.046 2.45066 -1.69548 0
M  V30 2357 H 232.583 1.20297 -0.846582 0
M  V30 2358 H 234.541 4.17101 0.0908026 0
M  V30 2359 H 233.171 3.16571 0.631072 0
M  V30 2360 H 232.223 3.36133 -1.78097 0
M  V30 2361 H 233.535 4.50601 -2.13917 0
M  V30 2362 H 232.689 6.056 -0.365216 0
M  V30 2363 H 231.428 4.87614 0.0915188 0
M  V30 2364 H 230.433 5.03522 -2.20785 0
M  V30 2365 H 231.658 6.249 -2.6585 0
M  V30 2366 H 229.604 6.54562 -0.434174 0
M  V30 2367 H 229.521 7.29166 -1.99633 0
M  V30 2368 H 230.789 7.7433 -0.896259 0
M  V30 2369 N 235.018 0.912232 1.28515 0
M  V30 2370 C 236.246 0.560416 1.99166 0
M  V30 2371 C 236.661 -0.857927 1.68182 0
M  V30 2372 O 236.018 -1.56805 0.933733 0
M  V30 2373 C 236.069 0.758142 3.53461 0
M  V30 2374 O 235.79 2.12067 3.83352 0
M  V30 2375 C 237.291 0.412954 4.41372 0
M  V30 2376 H 234.511 0.213805 0.636026 0
M  V30 2377 H 237.055 1.22502 1.63749 0
M  V30 2378 H 235.21 0.140556 3.87145 0
M  V30 2379 H 235.624 2.15923 4.77993 0
M  V30 2380 H 237.098 0.60208 5.48707 0
M  V30 2381 H 237.575 -0.65073 4.34353 0
M  V30 2382 H 238.181 1.00802 4.13182 0
M  V30 2383 N 236.496 -1.42363 0.676048 0
M  V30 2384 C 237.443 -2.308 -0.00150904 0
M  V30 2385 C 238.413 -1.46032 -0.791444 0
M  V30 2386 O 239.598 -1.74861 -0.76344 0
M  V30 2387 C 236.738 -3.31883 -0.945919 0
M  V30 2388 C 235.851 -4.31741 -0.149675 0
M  V30 2389 C 234.986 -5.19898 -1.08995 0
M  V30 2390 C 234.025 -6.11434 -0.285465 0
M  V30 2391 N 233.162 -6.92138 -1.17851 0
M  V30 2392 H 238.002 -2.88187 0.758455 0
M  V30 2393 H 235.539 -1.41952 0.38576 0
M  V30 2394 H 237.497 -3.89019 -1.50731 0
M  V30 2395 H 236.127 -2.76093 -1.6725 0
M  V30 2396 H 235.179 -3.76713 0.528359 0
M  V30 2397 H 236.491 -4.96534 0.474866 0
M  V30 2398 H 235.645 -5.81772 -1.72123 0
M  V30 2399 H 234.384 -4.55284 -1.74837 0
M  V30 2400 H 233.389 -5.48627 0.359018 0
M  V30 2401 H 234.614 -6.78097 0.368883 0
M  V30 2402 H 232.56 -6.30152 -1.82332 0
M  V30 2403 H 232.477 -7.53542 -0.609082 0
M  V30 2404 H 233.745 -7.58499 -1.79722 0
M  V30 2405 N 237.974 -0.419461 -1.51915 0
M  V30 2406 C 238.906 0.43646 -2.25006 0
M  V30 2407 C 239.919 1.00149 -1.28351 0
M  V30 2408 O 241.108 0.898674 -1.54227 0
M  V30 2409 C 238.208 1.6206 -2.9764 0
M  V30 2410 C 237.381 1.17763 -4.21249 0
M  V30 2411 C 236.44 2.22985 -4.76617 0
M  V30 2412 O 235.466 1.83151 -5.38929 0
M  V30 2413 N 236.668 3.55271 -4.59089 0
M  V30 2414 H 239.433 -0.18989 -2.99098 0
M  V30 2415 H 236.994 -0.247386 -1.59999 0
M  V30 2416 H 238.986 2.32038 -3.31573 0
M  V30 2417 H 237.556 2.15266 -2.2667 0
M  V30 2418 H 236.776 0.305582 -3.93014 0
M  V30 2419 H 238.064 0.858781 -5.015 0
M  V30 2420 H 237.462 3.90377 -4.09417 0
M  V30 2421 H 236.019 4.21195 -4.97432 0
M  V30 2422 N 239.452 1.56882 -0.150215 0
M  V30 2423 C 240.699 1.96228 0.500093 0
M  V30 2424 C 241.027 1.03522 1.64661 0
M  V30 2425 O 240.282 0.0650683 1.95592 0
M  V30 2426 C 240.581 3.41801 1.04437 0
M  V30 2427 C 240.247 4.50897 0.0159671 0
M  V30 2428 C 238.909 4.8046 -0.266731 0
M  V30 2429 C 241.261 5.16703 -0.683192 0
M  V30 2430 C 238.589 5.73135 -1.25434 0
M  V30 2431 C 240.941 6.10441 -1.65964 0
M  V30 2432 C 239.605 6.38382 -1.95 0
M  V30 2433 H 238.875 0.718048 0.182997 0
M  V30 2434 H 241.522 1.90019 -0.237724 0
M  V30 2435 H 239.827 3.44857 1.85959 0
M  V30 2436 H 241.524 3.69573 1.55618 0
M  V30 2437 H 238.114 4.27891 0.246485 0
M  V30 2438 H 242.298 4.93993 -0.477983 0
M  V30 2439 H 237.554 5.93074 -1.48571 0
M  V30 2440 H 241.728 6.60507 -2.20689 0
M  V30 2441 H 239.355 7.09996 -2.71679 0
M  V30 2442 N 240.93 -0.123565 1.57115 0
M  V30 2443 C 241.893 -1.13583 1.99076 0
M  V30 2444 C 242.893 -1.34564 0.880296 0
M  V30 2445 O 244.083 -1.31158 1.14644 0
M  V30 2446 C 241.215 -2.49128 2.32698 0
M  V30 2447 H 242.408 -0.775287 2.89706 0
M  V30 2448 H 239.961 -0.36771 1.51913 0
M  V30 2449 H 240.696 -2.90111 1.44934 0
M  V30 2450 H 240.481 -2.35255 3.13684 0
M  V30 2451 H 241.971 -3.2199 2.65918 0
M  V30 2452 N 242.408 -1.52605 -0.393616 0
M  V30 2453 C 243.819 -1.59417 -0.971761 0
M  V30 2454 C 244.17 -0.444173 -1.91106 0
M  V30 2455 O 243.295 0.433382 -2.12016 0
M  V30 2456 C 243.89 -2.88936 -1.76921 0
M  V30 2457 C 242.449 -2.98175 -2.29714 0
M  V30 2458 C 241.596 -2.54491 -1.10135 0
M  V30 2459 H 244.547 -1.57751 -0.173317 0
M  V30 2460 H 244.568 -2.75163 -2.62804 0
M  V30 2461 H 244.08 -3.72616 -1.08532 0
M  V30 2462 H 242.181 -2.19024 -3.01429 0
M  V30 2463 H 242.294 -4.02726 -2.59517 0
M  V30 2464 H 240.658 -2.08702 -1.45999 0
M  V30 2465 H 241.441 -3.4056 -0.432874 0
M  V30 2466 N 243.887 0.651787 -1.4349 0
M  V30 2467 C 245.136 1.40754 -1.44469 0
M  V30 2468 C 245.449 1.95463 -0.0731845 0
M  V30 2469 O 246.655 2.71471 0.0395721 0
M  V30 2470 C 245.111 2.54735 -2.5424 0
M  V30 2471 C 244.719 2.06628 -3.97504 0
M  V30 2472 C 246.463 3.32092 -2.64414 0
M  V30 2473 C 244.37 3.17829 -4.98737 0
M  V30 2474 H 243.3 0.528862 -0.53742 0
M  V30 2475 H 245.951 0.703365 -1.69485 0
M  V30 2476 H 244.333 3.2763 -2.22428 0
M  V30 2477 H 245.507 1.40734 -4.38783 0
M  V30 2478 H 243.822 1.42146 -3.91387 0
M  V30 2479 H 246.419 4.14952 -3.37223 0
M  V30 2480 H 246.762 3.80217 -1.69532 0
M  V30 2481 H 247.295 2.66279 -2.95534 0
M  V30 2482 H 244.034 2.74671 -5.95177 0
M  V30 2483 H 243.554 3.82429 -4.62069 0
M  V30 2484 H 245.233 3.82937 -5.21505 0
M  V30 2485 N 245.365 1.30045 0.890287 0
M  V30 2486 C 246.315 1.12592 1.9826 0
M  V30 2487 C 247.299 0.0426021 1.60844 0
M  V30 2488 O 248.491 0.265346 1.75 0
M  V30 2489 C 245.62 0.814301 3.33503 0
M  V30 2490 C 244.706 1.93761 3.7725 0
M  V30 2491 N 245.097 3.18232 3.93143 0
M  V30 2492 C 243.395 1.83277 4.06602 0
M  V30 2493 C 244.096 3.9158 4.30163 0
M  V30 2494 N 243.072 3.19591 4.3973 0
M  V30 2495 H 246.874 2.07003 2.08631 0
M  V30 2496 H 244.388 1.21307 1.07974 0
M  V30 2497 H 246.385 0.67029 4.11476 0
M  V30 2498 H 245.045 -0.121797 3.24471 0
M  V30 2499 H 246.056 3.53581 3.78419 0
M  V30 2500 H 242.733 0.97001 4.06075 0
M  V30 2501 H 244.123 4.98744 4.50226 0
M  V30 2502 N 246.843 -1.10192 1.12674 0
M  V30 2503 C 247.806 -2.14786 0.799979 0
M  V30 2504 C 248.806 -1.59711 -0.18685 0
M  V30 2505 O 249.996 -1.74156 0.0392558 0
M  V30 2506 C 247.128 -3.40374 0.189228 0
M  V30 2507 H 248.321 -2.45203 1.72671 0
M  V30 2508 H 245.874 -1.25597 0.930326 0
M  V30 2509 H 246.609 -3.15577 -0.747107 0
M  V30 2510 H 246.394 -3.81637 0.899766 0
M  V30 2511 H 247.884 -4.17594 -0.0228143 0
M  V30 2512 N 248.321 -0.919034 -1.28029 0
M  V30 2513 C 249.231 -0.416756 -2.30869 0
M  V30 2514 C 250.247 0.498235 -1.66714 0
M  V30 2515 O 251.423 0.383144 -1.97722 0
M  V30 2516 C 248.488 0.330274 -3.45123 0
M  V30 2517 C 247.549 -0.618578 -4.2482 0
M  V30 2518 C 246.782 0.0928959 -5.33619 0
M  V30 2519 O 247.005 1.31375 -5.55065 0
M  V30 2520 O 245.939 -0.574499 -5.99152 0
M  V30 2521 H 249.765 -1.27043 -2.75851 0
M  V30 2522 H 247.35 -0.684052 -1.3282 0
M  V30 2523 H 249.232 0.751972 -4.14636 0
M  V30 2524 H 247.907 1.1597 -3.02213 0
M  V30 2525 H 246.814 -1.08978 -3.57875 0
M  V30 2526 H 248.147 -1.41497 -4.71423 0
M  V30 2527 N 249.799 1.42003 -0.683588 0
M  V30 2528 C 250.762 2.29191 -0.0198243 0
M  V30 2529 C 251.762 1.43773 0.72013 0
M  V30 2530 O 252.952 1.65061 0.556815 0
M  V30 2531 C 250.084 3.26435 0.982487 0
M  V30 2532 H 251.277 2.8938 -0.787345 0
M  V30 2533 H 248.83 1.49789 -0.446418 0
M  V30 2534 H 249.565 2.71203 1.77819 0
M  V30 2535 H 249.35 3.89449 0.455182 0
M  V30 2536 H 250.84 3.918 1.44508 0
M  V30 2537 N 251.277 0.427512 1.51691 0
M  V30 2538 C 252.688 -0.0378867 1.86662 0
M  V30 2539 C 253.039 -1.42819 1.34525 0
M  V30 2540 O 252.164 -2.05037 0.692014 0
M  V30 2541 C 252.759 -0.0755266 3.38716 0
M  V30 2542 C 251.318 -0.485309 3.73258 0
M  V30 2543 C 250.465 0.328399 2.75349 0
M  V30 2544 H 253.416 0.64379 1.45055 0
M  V30 2545 H 253.437 -0.887056 3.70016 0
M  V30 2546 H 252.949 0.936487 3.76632 0
M  V30 2547 H 251.05 -1.50329 3.40928 0
M  V30 2548 H 251.163 -0.21693 4.78609 0
M  V30 2549 H 249.527 -0.211905 2.53817 0
M  V30 2550 H 250.31 1.3391 3.16106 0
M  V30 2551 N 252.755 -1.56801 0.158532 0
M  V30 2552 C 253.665 -2.20916 -0.789518 0
M  V30 2553 C 254.681 -1.1969 -1.26294 0
M  V30 2554 O 255.857 -1.52308 -1.31773 0
M  V30 2555 C 252.922 -2.82727 -2.00665 0
M  V30 2556 C 251.983 -3.99114 -1.58134 0
M  V30 2557 C 251.216 -4.57968 -2.74045 0
M  V30 2558 O 251.439 -4.15704 -3.90572 0
M  V30 2559 O 250.373 -5.48047 -2.48855 0
M  V30 2560 H 254.199 -3.02464 -0.273681 0
M  V30 2561 H 251.784 -1.4924 -0.0690548 0
M  V30 2562 H 253.666 -3.21968 -2.71872 0
M  V30 2563 H 252.341 -2.04184 -2.51179 0
M  V30 2564 H 251.248 -3.64567 -0.839155 0
M  V30 2565 H 252.581 -4.79212 -1.12325 0
M  V30 2566 N 254.233 0.115231 -1.57178 0
M  V30 2567 C 255.48 0.822351 -1.8505 0
M  V30 2568 C 255.808 1.79701 -0.744168 0
M  V30 2569 O 255.063 1.93909 0.26414 0
M  V30 2570 C 255.362 1.60324 -3.19423 0
M  V30 2571 C 255.028 0.772536 -4.44233 0
M  V30 2572 C 253.69 0.543468 -4.78121 0
M  V30 2573 C 256.042 0.193746 -5.2084 0
M  V30 2574 C 253.37 -0.274583 -5.86057 0
M  V30 2575 C 255.722 -0.611517 -6.29637 0
M  V30 2576 C 254.386 -0.850867 -6.62055 0
M  V30 2577 H 253.656 0.30092 -0.677147 0
M  V30 2578 H 256.303 0.0845802 -1.91313 0
M  V30 2579 H 254.608 2.41203 -3.08753 0
M  V30 2580 H 256.305 2.1544 -3.38211 0
M  V30 2581 H 252.895 0.96117 -4.17683 0
M  V30 2582 H 257.079 0.357926 -4.95008 0
M  V30 2583 H 252.335 -0.469206 -6.09597 0
M  V30 2584 H 256.509 -1.06697 -6.88178 0
M  V30 2585 H 254.136 -1.48657 -7.45523 0
M  V30 2586 N 255.711 1.52812 0.385517 0
M  V30 2587 C 256.644 1.72592 1.49289 0
M  V30 2588 C 257.622 0.573819 1.52138 0
M  V30 2589 O 258.806 0.80404 1.70492 0
M  V30 2590 C 255.933 1.78669 2.87741 0
M  V30 2591 C 254.979 3.00455 3.02703 0
M  V30 2592 S 255.812 4.60366 2.73538 0
M  V30 2593 C 256.968 4.69263 4.14177 0
M  V30 2594 H 257.201 2.66248 1.32285 0
M  V30 2595 H 254.734 1.43148 0.578611 0
M  V30 2596 H 256.692 1.82855 3.67524 0
M  V30 2597 H 255.353 0.861 3.02069 0
M  V30 2598 H 254.546 3.01258 4.04054 0
M  V30 2599 H 254.148 2.94278 2.30817 0
M  V30 2600 H 256.44 4.48092 5.08153 0
M  V30 2601 H 257.383 5.71276 4.18388 0
M  V30 2602 H 257.791 3.98072 4.00249 0
M  V30 2603 N 257.189 -0.644168 1.43834 0
M  V30 2604 C 258.099 -1.78563 1.52159 0
M  V30 2605 C 259.115 -1.69147 0.408069 0
M  V30 2606 O 260.291 -1.90156 0.663524 0
M  V30 2607 C 257.356 -3.14888 1.45073 0
M  V30 2608 C 256.417 -3.36034 2.6717 0
M  V30 2609 C 255.65 -4.65855 2.60413 0
M  V30 2610 O 255.873 -5.45805 1.65689 0
M  V30 2611 O 254.807 -4.88918 3.5106 0
M  V30 2612 H 258.633 -1.74494 2.48567 0
M  V30 2613 H 256.218 -0.80378 1.25935 0
M  V30 2614 H 258.1 -3.96179 1.43597 0
M  V30 2615 H 256.775 -3.19528 0.518037 0
M  V30 2616 H 255.682 -2.54472 2.74217 0
M  V30 2617 H 257.015 -3.36247 3.59442 0
M  V30 2618 N 258.668 -1.30515 -0.883378 0
M  V30 2619 C 259.601 -1.11359 -1.99184 0
M  V30 2620 C 260.579 -0.0207858 -1.62587 0
M  V30 2621 O 261.763 -0.174646 -1.87689 0
M  V30 2622 C 258.89 -0.69871 -3.31415 0
M  V30 2623 C 257.936 -1.79261 -3.86998 0
M  V30 2624 S 258.769 -3.39536 -4.14096 0
M  V30 2625 C 259.925 -2.99954 -5.49344 0
M  V30 2626 H 260.158 -2.052 -2.15128 0
M  V30 2627 H 257.691 -1.14847 -1.03196 0
M  V30 2628 H 259.649 -0.466075 -4.07846 0
M  V30 2629 H 258.31 0.220368 -3.13326 0
M  V30 2630 H 257.503 -1.45464 -4.82552 0
M  V30 2631 H 257.105 -1.97961 -3.17313 0
M  V30 2632 H 259.397 -2.48013 -6.30473 0
M  V30 2633 H 260.34 -3.9442 -5.8808 0
M  V30 2634 H 260.748 -2.37775 -5.1198 0
M  V30 2635 N 260.146 1.09593 -1.13257 0
M  V30 2636 C 261.371 1.8604 -0.916732 0
M  V30 2637 C 261.796 1.80504 0.529146 0
M  V30 2638 O 261.154 1.18127 1.37534 0
M  V30 2639 C 261.202 3.32017 -1.40703 0
M  V30 2640 O 260.306 4.08141 -0.591153 0
M  V30 2641 H 259.647 0.576943 -0.328683 0
M  V30 2642 H 262.177 1.38405 -1.50682 0
M  V30 2643 H 262.187 3.82865 -1.4099 0
M  V30 2644 H 260.862 3.35361 -2.45979 0
M  V30 2645 H 259.439 3.67084 -0.656005 0
M  V30 2646 N 261.624 0.925811 1.2754 0
M  V30 2647 C 262.87 0.566092 1.94739 0
M  V30 2648 C 263.203 -0.890057 1.72603 0
M  V30 2649 O 262.478 -1.63467 1.05399 0
M  V30 2650 C 262.761 0.89054 3.48915 0
M  V30 2651 C 262.614 2.4003 3.80402 0
M  V30 2652 C 263.933 0.395101 4.38323 0
M  V30 2653 H 261.052 0.20714 0.707292 0
M  V30 2654 H 263.694 1.15725 1.50691 0
M  V30 2655 H 261.844 0.387452 3.86563 0
M  V30 2656 H 263.516 2.97494 3.52555 0
M  V30 2657 H 261.759 2.85028 3.2702 0
M  V30 2658 H 262.43 2.57785 4.8811 0
M  V30 2659 H 264.906 0.826241 4.07814 0
M  V30 2660 H 263.782 0.651086 5.45025 0
M  V30 2661 H 264.043 -0.704798 4.36446 0
M  V30 2662 N 263.102 -1.41638 0.69111 0
M  V30 2663 C 264.012 -2.34588 0.0233487 0
M  V30 2664 C 265.028 -1.55987 -0.770984 0
M  V30 2665 O 266.204 -1.88486 -0.709569 0
M  V30 2666 C 263.269 -3.34684 -0.904851 0
M  V30 2667 C 262.33 -4.29176 -0.103225 0
M  V30 2668 C 261.563 -5.2449 -0.987216 0
M  V30 2669 O 261.786 -5.2514 -2.22674 0
M  V30 2670 O 260.72 -6.00295 -0.439281 0
M  V30 2671 H 264.546 -2.93261 0.789416 0
M  V30 2672 H 262.131 -1.42417 0.45142 0
M  V30 2673 H 264.013 -3.96133 -1.43724 0
M  V30 2674 H 262.688 -2.78461 -1.65049 0
M  V30 2675 H 261.595 -3.71089 0.473655 0
M  V30 2676 H 262.928 -4.88484 0.60365 0
M  V30 2677 N 264.58 -0.43555 -1.51462 0
M  V30 2678 C 265.512 0.41257 -2.25456 0
M  V30 2679 C 266.525 0.987822 -1.29406 0
M  V30 2680 O 267.714 0.882266 -1.55172 0
M  V30 2681 C 264.814 1.58894 -2.99342 0
M  V30 2682 C 263.987 1.13288 -4.22474 0
M  V30 2683 C 263.046 2.17917 -4.78956 0
M  V30 2684 O 262.072 1.77425 -5.40841 0
M  V30 2685 N 263.274 3.50382 -4.62832 0
M  V30 2686 H 266.039 -0.221603 -2.9888 0
M  V30 2687 H 263.6 -0.264342 -1.59727 0
M  V30 2688 H 265.592 2.28508 -3.34015 0
M  V30 2689 H 264.162 2.12849 -2.28941 0
M  V30 2690 H 263.382 0.263881 -3.93316 0
M  V30 2691 H 264.67 0.805542 -5.02383 0
M  V30 2692 H 264.068 3.86013 -4.13534 0
M  V30 2693 H 262.625 4.15895 -5.01871 0
M  V30 2694 N 266.058 1.56714 -0.166846 0
M  V30 2695 C 266.968 2.21331 0.777791 0
M  V30 2696 C 267.984 1.20358 1.25658 0
M  V30 2697 O 269.16 1.53005 1.30964 0
M  V30 2698 C 266.225 2.83787 1.99163 0
M  V30 2699 C 265.286 3.99947 1.56016 0
M  V30 2700 C 264.519 4.59415 2.71613 0
M  V30 2701 O 264.742 4.17769 3.88362 0
M  V30 2702 O 263.676 5.49359 2.45945 0
M  V30 2703 H 267.502 3.02605 0.257636 0
M  V30 2704 H 265.087 1.49275 0.0611393 0
M  V30 2705 H 266.969 3.23405 2.70161 0
M  V30 2706 H 265.644 2.05513 2.50092 0
M  V30 2707 H 264.551 3.65007 0.819809 0
M  V30 2708 H 265.884 4.79801 1.09782 0
M  V30 2709 N 267.536 -0.106894 1.57237 0
M  V30 2710 C 268.785 -0.811163 1.8467 0
M  V30 2711 C 269.098 -1.80469 0.754342 0
M  V30 2712 O 270.304 -2.55601 0.915439 0
M  V30 2713 C 268.76 -1.49337 3.27454 0
M  V30 2714 C 268.368 -0.540217 4.44731 0
M  V30 2715 C 270.112 -2.18206 3.64124 0
M  V30 2716 C 268.019 -1.22634 5.78545 0
M  V30 2717 H 266.949 -0.306679 0.688813 0
M  V30 2718 H 269.6 -0.0639887 1.83388 0
M  V30 2719 H 267.982 -2.2876 3.23241 0
M  V30 2720 H 269.156 0.221659 4.60267 0
M  V30 2721 H 267.471 0.042146 4.16379 0
M  V30 2722 H 270.068 -2.70253 4.61376 0
M  V30 2723 H 270.411 -2.96562 2.92158 0
M  V30 2724 H 270.944 -1.45658 3.70174 0
M  V30 2725 H 267.683 -0.483832 6.53712 0
M  V30 2726 H 267.203 -1.95993 5.66874 0
M  V30 2727 H 268.882 -1.75615 6.2271 0
M  V30 2728 N 269.014 -1.53014 -0.377408 0
M  V30 2729 C 269.944 -1.81589 -1.46791 0
M  V30 2730 C 270.925 -0.668622 -1.56408 0
M  V30 2731 O 272.11 -0.917337 -1.71168 0
M  V30 2732 C 269.24 -1.99519 -2.8427 0
M  V30 2733 C 268.194 -3.15249 -2.89486 0
M  V30 2734 C 267.52 -3.18451 -4.29527 0
M  V30 2735 C 268.82 -4.54084 -2.58079 0
M  V30 2736 H 270.514 -2.7291 -1.23127 0
M  V30 2737 H 268.06 -1.31319 -0.590883 0
M  V30 2738 H 270.013 -2.18092 -3.60575 0
M  V30 2739 H 268.737 -1.04897 -3.09296 0
M  V30 2740 H 267.396 -2.96477 -2.15631 0
M  V30 2741 H 267.044 -2.2149 -4.5161 0
M  V30 2742 H 266.744 -3.962 -4.33934 0
M  V30 2743 H 268.268 -3.39193 -5.07721 0
M  V30 2744 H 269.682 -4.72899 -3.24098 0
M  V30 2745 H 268.079 -5.33987 -2.7382 0
M  V30 2746 H 269.149 -4.60006 -1.53372 0
M  V30 2747 N 270.492 0.636531 -1.44174 0
M  V30 2748 C 271.738 1.39826 -1.4689 0
M  V30 2749 C 272.071 1.93947 -0.0990585 0
M  V30 2750 O 271.346 1.73325 0.882544 0
M  V30 2751 C 271.629 2.56751 -2.5249 0
M  V30 2752 C 271.482 2.08014 -3.98811 0
M  V30 2753 C 272.801 3.58946 -2.54649 0
M  V30 2754 H 269.92 0.507075 -0.53483 0
M  V30 2755 H 272.562 0.720188 -1.75822 0
M  V30 2756 H 270.712 3.14597 -2.2795 0
M  V30 2757 H 272.384 1.5504 -4.34466 0
M  V30 2758 H 270.627 1.39242 -4.10846 0
M  V30 2759 H 271.298 2.92169 -4.68339 0
M  V30 2760 H 273.774 3.1089 -2.76563 0
M  V30 2761 H 272.65 4.38286 -3.3045 0
M  V30 2762 H 272.911 4.12655 -1.58646 0
M  V30 2763 N 271.97 1.30982 0.876444 0
M  V30 2764 C 273.198 1.23242 1.6619 0
M  V30 2765 C 273.613 -0.203345 1.87702 0
M  V30 2766 O 272.97 -1.13317 1.43057 0
M  V30 2767 C 273.021 1.96623 3.03351 0
M  V30 2768 O 272.742 3.34594 2.82804 0
M  V30 2769 C 274.243 1.95644 3.97792 0
M  V30 2770 H 271.463 0.426126 0.518322 0
M  V30 2771 H 274.007 1.7275 1.09442 0
M  V30 2772 H 272.162 1.50892 3.56806 0
M  V30 2773 H 272.576 3.71873 3.69879 0
M  V30 2774 H 274.05 2.51511 4.91372 0
M  V30 2775 H 274.527 0.937395 4.2908 0
M  V30 2776 H 275.133 2.41225 3.50272 0
M  V30 2777 N 273.449 -1.08991 1.13837 0
M  V30 2778 C 274.697 -1.80899 0.901098 0
M  V30 2779 C 275.018 -1.86356 -0.574134 0
M  V30 2780 O 274.288 -1.35235 -1.41733 0
M  V30 2781 H 272.868 -0.669966 0.330386 0
M  V30 2782 H 275.53 -1.318 1.43578 0
M  V30 2783 H 274.626 -2.83929 1.29578 0
M  V30 2784 N 274.927 -0.932562 -1.27047 0
M  V30 2785 C 276.176 -0.571351 -1.93439 0
M  V30 2786 C 276.489 0.892467 -1.74053 0
M  V30 2787 O 277.695 1.36267 -2.34826 0
M  V30 2788 C 276.151 -0.97106 -3.46552 0
M  V30 2789 C 275.759 -2.4559 -3.74686 0
M  V30 2790 C 277.503 -0.681333 -4.18997 0
M  V30 2791 C 275.41 -2.79475 -5.21198 0
M  V30 2792 H 274.34 -0.209966 -0.724176 0
M  V30 2793 H 276.991 -1.13403 -1.44263 0
M  V30 2794 H 275.373 -0.336983 -3.94564 0
M  V30 2795 H 276.547 -3.13829 -3.37414 0
M  V30 2796 H 274.862 -2.71802 -3.15456 0
M  V30 2797 H 277.459 -0.910939 -5.26883 0
M  V30 2798 H 277.802 0.381628 -4.14547 0
M  V30 2799 H 278.335 -1.27473 -3.76823 0
M  V30 2800 H 275.074 -3.847 -5.30741 0
M  V30 2801 H 274.594 -2.1589 -5.596 0
M  V30 2802 H 276.273 -2.67478 -5.89122 0
M  V30 2803 N 276.405 1.4127 -0.698611 0
M  V30 2804 C 277.352 2.30773 -0.0352094 0
M  V30 2805 C 278.322 1.47273 0.768111 0
M  V30 2806 O 279.507 1.76053 0.735524 0
M  V30 2807 C 276.647 3.33346 0.893 0
M  V30 2808 C 275.76 4.31924 0.0809695 0
M  V30 2809 C 274.895 5.21566 1.0071 0
M  V30 2810 C 273.934 6.11811 0.188155 0
M  V30 2811 N 273.071 6.93926 1.06825 0
M  V30 2812 H 277.911 2.86943 -0.804207 0
M  V30 2813 H 275.448 1.4132 -0.408294 0
M  V30 2814 H 277.406 3.91368 1.44523 0
M  V30 2815 H 276.036 2.78719 1.62836 0
M  V30 2816 H 275.088 3.75825 -0.588224 0
M  V30 2817 H 276.4 4.95716 -0.553801 0
M  V30 2818 H 275.554 5.84437 1.62845 0
M  V30 2819 H 274.293 4.58008 1.67572 0
M  V30 2820 H 273.298 5.47986 -0.446254 0
M  V30 2821 H 274.523 6.77425 -0.476716 0
M  V30 2822 H 272.469 6.32973 1.72283 0
M  V30 2823 H 272.386 7.54416 0.489123 0
M  V30 2824 H 273.654 7.61262 1.67632 0
M  V30 2825 N 277.883 0.443576 1.51229 0
M  V30 2826 C 279.129 -0.120975 2.02439 0
M  V30 2827 C 279.462 -1.41815 1.32674 0
M  V30 2828 O 278.737 -1.89373 0.443622 0
M  V30 2829 C 279.02 -0.333291 3.58554 0
M  V30 2830 C 278.873 0.982968 4.38928 0
M  V30 2831 C 280.192 -1.10028 4.26124 0
M  V30 2832 H 277.311 -0.0424923 0.735774 0
M  V30 2833 H 279.953 0.583794 1.80809 0
M  V30 2834 H 278.103 -0.933614 3.77115 0
M  V30 2835 H 279.775 1.61775 4.32003 0
M  V30 2836 H 278.018 1.58611 4.03763 0
M  V30 2837 H 278.689 0.788379 5.46341 0
M  V30 2838 H 281.165 -0.591711 4.11871 0
M  V30 2839 H 280.041 -1.21761 5.35225 0
M  V30 2840 H 280.302 -2.12996 3.87408 0
M  V30 2841 N 279.361 -1.56624 0.175154 0
M  V30 2842 C 280.607 -1.9729 -0.469506 0
M  V30 2843 C 280.94 -1.06128 -1.62636 0
M  V30 2844 O 280.215 -0.109183 -1.94193 0
M  V30 2845 C 280.498 -3.47375 -0.948804 0
M  V30 2846 C 280.351 -4.49317 0.208491 0
M  V30 2847 C 281.67 -4.00652 -1.82116 0
M  V30 2848 H 278.789 -0.717317 -0.16919 0
M  V30 2849 H 281.431 -1.88184 0.262062 0
M  V30 2850 H 279.581 -3.55267 -1.57219 0
M  V30 2851 H 281.253 -4.53482 0.845682 0
M  V30 2852 H 279.496 -4.25121 0.863395 0
M  V30 2853 H 280.167 -5.51741 -0.169059 0
M  V30 2854 H 282.643 -3.95416 -1.2956 0
M  V30 2855 H 281.519 -5.06075 -2.12554 0
M  V30 2856 H 281.78 -3.44699 -2.7683 0
M  V30 2857 N 280.839 0.0985539 -1.57292 0
M  V30 2858 C 282.116 0.834155 -1.76921 0
M  V30 2859 C 282.496 1.97101 -0.755928 0
M  V30 2860 O 281.844 2.27474 0.216245 0
M  V30 2861 C 282.054 1.33194 -3.22584 0
M  V30 2862 C 283.402 1.77611 -3.85668 0
M  V30 2863 O 284.426 1.42825 -3.26312 0
M  V30 2864 O 283.285 2.4192 -4.90038 0
M  V30 2865 H 280.379 0.397628 -0.725135 0
M  V30 2866 H 282.925 0.0807044 -1.69508 0
M  V30 2867 H 281.697 0.517248 -3.87866 0
M  V30 2868 H 281.32 2.1475 -3.34616 0
M  V30 2869 N 282.317 1.53212 0.369288 0
M  V30 2870 C 283.247 1.82365 1.45826 0
M  V30 2871 C 284.228 0.676907 1.56051 0
M  V30 2872 O 285.413 0.926401 1.70679 0
M  V30 2873 C 282.543 2.01023 2.83208 0
M  V30 2874 C 281.497 3.1678 2.8781 0
M  V30 2875 C 280.823 3.20724 4.27832 0
M  V30 2876 C 282.123 4.55447 2.55667 0
M  V30 2877 H 283.817 2.73559 1.21678 0
M  V30 2878 H 281.363 1.3163 0.583911 0
M  V30 2879 H 283.316 2.20001 3.59413 0
M  V30 2880 H 282.04 1.06536 3.08736 0
M  V30 2881 H 280.699 2.97616 2.14056 0
M  V30 2882 H 280.347 2.23882 4.50429 0
M  V30 2883 H 280.047 3.98496 4.31827 0
M  V30 2884 H 281.571 3.41881 5.05915 0
M  V30 2885 H 282.985 4.74611 3.21586 0
M  V30 2886 H 281.382 5.35432 2.70984 0
M  V30 2887 H 282.452 4.60812 1.5093 0
M  V30 2888 N 283.795 -0.628877 1.44509 0
M  V30 2889 C 284.725 -1.75187 1.54376 0
M  V30 2890 C 285.706 -1.65411 0.396618 0
M  V30 2891 O 286.891 -1.84137 0.617031 0
M  V30 2892 C 284.021 -3.13725 1.48976 0
M  V30 2893 C 282.975 -3.38291 2.62189 0
M  V30 2894 C 282.301 -4.76883 2.41841 0
M  V30 2895 C 283.601 -3.30632 4.04326 0
M  V30 2896 H 285.295 -1.67187 2.48373 0
M  V30 2897 H 282.841 -0.802909 1.19538 0
M  V30 2898 H 284.794 -3.92064 1.54478 0
M  V30 2899 H 283.518 -3.22515 0.514961 0
M  V30 2900 H 282.177 -2.62334 2.56079 0
M  V30 2901 H 281.825 -4.82378 1.42548 0
M  V30 2902 H 281.525 -4.94278 3.17747 0
M  V30 2903 H 283.049 -5.57449 2.49165 0
M  V30 2904 H 284.463 -3.98873 4.11793 0
M  V30 2905 H 282.86 -3.59561 4.80454 0
M  V30 2906 H 283.93 -2.28404 4.27738 0
M  V30 2907 N 285.273 -1.31445 -0.869486 0
M  V30 2908 C 286.236 -1.19094 -1.9583 0
M  V30 2909 C 287.236 -0.117906 -1.60367 0
M  V30 2910 O 288.426 -0.367208 -1.70286 0
M  V30 2911 C 285.558 -0.828165 -3.30688 0
M  V30 2912 H 286.751 -2.15842 -2.08212 0
M  V30 2913 H 284.304 -1.15063 -1.05784 0
M  V30 2914 H 285.039 0.138142 -3.24006 0
M  V30 2915 H 284.824 -1.6038 -3.578 0
M  V30 2916 H 286.314 -0.765658 -4.10521 0
M  V30 2917 N 286.751 1.08385 -1.14413 0
M  V30 2918 C 288.162 1.62258 -0.923535 0
M  V30 2919 C 288.513 1.88691 0.537595 0
M  V30 2920 O 287.638 1.64454 1.40655 0
M  V30 2921 C 288.233 2.94781 -1.67002 0
M  V30 2922 C 286.792 3.45437 -1.495 0
M  V30 2923 C 285.939 2.19668 -1.69238 0
M  V30 2924 H 288.89 0.916086 -1.2959 0
M  V30 2925 H 288.911 3.63229 -1.13334 0
M  V30 2926 H 288.423 2.7551 -2.73342 0
M  V30 2927 H 286.524 3.6981 -0.455097 0
M  V30 2928 H 286.637 4.22173 -2.2651 0
M  V30 2929 H 285.001 2.28849 -1.11804 0
M  V30 2930 H 285.784 2.02905 -2.7692 0
M  V30 2931 N 288.23 0.939286 1.26551 0
M  V30 2932 C 289.46 0.601663 1.97645 0
M  V30 2933 C 289.868 -0.827206 1.70159 0
M  V30 2934 O 289.211 -1.56291 0.965338 0
M  V30 2935 C 289.273 0.761725 3.51337 0
M  V30 2936 C 288.937 2.16487 4.0247 0
M  V30 2937 C 289.934 3.14016 4.14355 0
M  V30 2938 C 287.619 2.48494 4.36527 0
M  V30 2939 C 289.613 4.41654 4.59587 0
M  V30 2940 C 287.3 3.76364 4.81449 0
M  V30 2941 C 288.298 4.72758 4.92939 0
M  V30 2942 O 287.986 5.98352 5.36871 0
M  V30 2943 H 287.718 0.225758 0.637189 0
M  V30 2944 H 290.272 1.26178 1.62075 0
M  V30 2945 H 288.502 0.0444808 3.86674 0
M  V30 2946 H 290.191 0.427442 4.03643 0
M  V30 2947 H 290.957 2.90613 3.8829 0
M  V30 2948 H 286.836 1.74202 4.26819 0
M  V30 2949 H 290.38 5.16896 4.68471 0
M  V30 2950 H 286.277 3.99582 5.06956 0
M  V30 2951 H 287.045 6.01507 5.55096 0
M  V30 2952 N 289.708 -1.40897 0.706093 0
M  V30 2953 C 290.671 -2.29131 0.0562841 0
M  V30 2954 C 291.671 -1.44901 -0.697166 0
M  V30 2955 O 292.861 -1.65926 -0.530484 0
M  V30 2956 C 289.993 -3.27957 -0.93043 0
M  V30 2957 H 291.186 -2.88091 0.833284 0
M  V30 2958 H 288.739 -1.4906 0.470192 0
M  V30 2959 H 289.474 -2.73997 -1.73482 0
M  V30 2960 H 289.259 -3.90124 -0.393166 0
M  V30 2961 H 290.749 -3.94049 -1.38256 0
M  V30 2962 N 291.186 -0.45159 -1.50991 0
M  V30 2963 C 292.133 0.352625 -2.2809 0
M  V30 2964 C 293.103 1.0044 -1.32291 0
M  V30 2965 O 294.288 1.02058 -1.6121 0
M  V30 2966 C 291.428 1.43983 -3.13629 0
M  V30 2967 C 290.541 0.804772 -4.24438 0
M  V30 2968 C 289.676 1.86822 -4.97263 0
M  V30 2969 C 288.715 1.21236 -5.99973 0
M  V30 2970 N 287.852 2.2178 -6.66152 0
M  V30 2971 H 292.692 -0.311186 -2.96371 0
M  V30 2972 H 290.229 -0.165308 -1.46168 0
M  V30 2973 H 292.187 2.08161 -3.61559 0
M  V30 2974 H 290.817 2.07307 -2.47434 0
M  V30 2975 H 289.869 0.0509129 -3.80366 0
M  V30 2976 H 291.181 0.286076 -4.97979 0
M  V30 2977 H 290.335 2.58628 -5.48813 0
M  V30 2978 H 289.074 2.42068 -4.23385 0
M  V30 2979 H 288.079 0.479828 -5.47702 0
M  V30 2980 H 289.304 0.667051 -6.75816 0
M  V30 2981 H 287.25 2.76079 -5.95077 0
M  V30 2982 H 287.167 1.74841 -7.35504 0
M  V30 2983 H 288.435 2.93026 -7.22327 0
M  V30 2984 N 292.664 1.56529 -0.183458 0
M  V30 2985 C 293.912 1.96855 0.457452 0
M  V30 2986 C 294.233 1.07104 1.62953 0
M  V30 2987 O 293.503 0.139887 1.954 0
M  V30 2988 H 292.083 0.72693 0.171992 0
M  V30 2989 H 294.745 1.93056 -0.267476 0
M  V30 2990 H 293.841 3.01423 0.809368 0
M  V30 2991 N 294.142 -0.090211 1.57342 0
M  V30 2992 C 295.39 -0.791241 1.85967 0
M  V30 2993 C 295.711 -1.7903 0.772859 0
M  V30 2994 O 294.981 -1.94872 -0.200398 0
M  V30 2995 H 293.561 -0.295205 0.686195 0
M  V30 2996 H 296.223 -0.0706782 1.94772 0
M  V30 2997 H 295.319 -1.31882 2.82867 0
M  V30 2998 N 295.62 -1.53406 -0.361157 0
M  V30 2999 C 296.567 -1.80156 -1.44265 0
M  V30 3000 C 297.537 -0.646183 -1.53015 0
M  V30 3001 O 298.722 -0.888818 -1.68833 0
M  V30 3002 C 295.862 -2.00116 -2.81154 0
M  V30 3003 C 294.975 -3.27833 -2.81335 0
M  V30 3004 C 294.11 -3.37957 -4.09828 0
M  V30 3005 C 293.149 -4.59689 -4.04168 0
M  V30 3006 N 292.286 -4.66942 -5.24318 0
M  V30 3007 H 297.126 -2.72438 -1.20754 0
M  V30 3008 H 294.663 -1.34954 -0.585296 0
M  V30 3009 H 296.621 -2.09677 -3.60682 0
M  V30 3010 H 295.251 -1.11167 -3.03054 0
M  V30 3011 H 294.303 -3.27204 -1.94014 0
M  V30 3012 H 295.615 -4.17442 -2.73027 0
M  V30 3013 H 294.769 -3.46853 -4.97773 0
M  V30 3014 H 293.508 -2.46372 -4.20894 0
M  V30 3015 H 292.513 -4.50889 -3.14609 0
M  V30 3016 H 293.738 -5.5262 -3.947 0
M  V30 3017 H 291.684 -3.7826 -5.35962 0
M  V30 3018 H 291.601 -5.50462 -5.18197 0
M  V30 3019 H 292.869 -4.80127 -6.14084 0
M  V30 3020 N 297.098 0.621204 -1.44841 0
M  V30 3021 C 298.347 1.37658 -1.47422 0
M  V30 3022 C 298.66 1.95264 -0.114629 0
M  V30 3023 O 299.866 2.71494 -0.0180199 0
M  V30 3024 C 298.322 2.49285 -2.59586 0
M  V30 3025 C 297.93 1.98149 -4.01797 0
M  V30 3026 C 299.674 3.26409 -2.71399 0
M  V30 3027 C 297.581 3.07178 -5.05367 0
M  V30 3028 H 296.511 0.517344 -0.548517 0
M  V30 3029 H 299.162 0.667257 -1.70938 0
M  V30 3030 H 297.544 3.22839 -2.29328 0
M  V30 3031 H 298.718 1.31395 -4.41669 0
M  V30 3032 H 297.033 1.33812 -3.94314 0
M  V30 3033 H 299.63 4.07706 -3.45948 0
M  V30 3034 H 299.973 3.76535 -1.77559 0
M  V30 3035 H 300.506 2.5995 -3.01116 0
M  V30 3036 H 297.245 2.61985 -6.00869 0
M  V30 3037 H 296.765 3.72542 -4.70077 0
M  V30 3038 H 298.444 3.71789 -5.29511 0
M  V30 3039 N 298.576 1.31904 0.862503 0
M  V30 3040 C 299.824 1.21776 1.61292 0
M  V30 3041 C 300.145 -0.222413 1.93727 0
M  V30 3042 O 299.415 -1.1451 1.58947 0
M  V30 3043 H 297.995 0.447717 0.597962 0
M  V30 3044 H 300.657 1.65326 1.03215 0
M  V30 3045 H 299.753 1.7948 2.5533 0
M  V30 3046 N 300.054 -1.07777 1.14986 0
M  V30 3047 C 300.984 -2.16865 0.865557 0
M  V30 3048 C 301.965 -1.69123 -0.182083 0
M  V30 3049 O 303.15 -1.94164 -0.0373815 0
M  V30 3050 C 300.28 -3.45539 0.349313 0
M  V30 3051 C 299.234 -4.06708 1.33313 0
M  V30 3052 C 298.56 -5.30411 0.675918 0
M  V30 3053 C 299.86 -4.47241 2.69764 0
M  V30 3054 H 301.554 -2.40905 1.77778 0
M  V30 3055 H 299.1 -1.15781 0.856203 0
M  V30 3056 H 301.053 -4.21174 0.137983 0
M  V30 3057 H 299.777 -3.21072 -0.598362 0
M  V30 3058 H 298.436 -3.33112 1.53075 0
M  V30 3059 H 298.084 -5.02232 -0.277767 0
M  V30 3060 H 297.784 -5.72293 1.33244 0
M  V30 3061 H 299.308 -6.08755 0.474262 0
M  V30 3062 H 300.722 -5.14025 2.53873 0
M  V30 3063 H 299.119 -5.00062 3.3175 0
M  V30 3064 H 300.189 -3.58818 3.26156 0
M  V30 3065 N 301.532 -0.945985 -1.26051 0
M  V30 3066 C 302.779 -0.596118 -1.93527 0
M  V30 3067 C 303.107 0.865559 -1.74179 0
M  V30 3068 O 302.362 1.63524 -1.0751 0
M  V30 3069 C 302.661 -0.890475 -3.46129 0
M  V30 3070 C 302.327 -2.3368 -3.85622 0
M  V30 3071 C 300.989 -2.73216 -3.96114 0
M  V30 3072 C 303.341 -3.27648 -4.05334 0
M  V30 3073 C 300.669 -4.05806 -4.2372 0
M  V30 3074 C 303.021 -4.59841 -4.3443 0
M  V30 3075 C 301.685 -4.99185 -4.43137 0
M  V30 3076 H 300.955 -0.218135 -0.708165 0
M  V30 3077 H 303.602 -1.1934 -1.49768 0
M  V30 3078 H 301.907 -0.210711 -3.91233 0
M  V30 3079 H 303.604 -0.598478 -3.96509 0
M  V30 3080 H 300.194 -2.02015 -3.78005 0
M  V30 3081 H 304.378 -2.98298 -3.96651 0
M  V30 3082 H 299.634 -4.35945 -4.28675 0
M  V30 3083 H 303.808 -5.32641 -4.48628 0
M  V30 3084 H 301.435 -6.01952 -4.64282 0
M  V30 3085 N 303.011 1.40521 -0.713556 0
M  V30 3086 C 304.259 2.00527 -0.251692 0
M  V30 3087 C 304.58 1.56857 1.15848 0
M  V30 3088 O 303.85 0.807127 1.785 0
M  V30 3089 H 302.43 0.741551 -0.0900646 0
M  V30 3090 H 305.092 1.71887 -0.918733 0
M  V30 3091 H 304.188 3.10813 -0.283192 0
M  V30 3092 N 304.489 0.459591 1.5075 0
M  V30 3093 C 305.737 -0.0991532 2.01857 0
M  V30 3094 C 306.058 -1.41247 1.34441 0
M  V30 3095 O 305.328 -1.89775 0.486022 0
M  V30 3096 H 303.908 -0.039633 0.745948 0
M  V30 3097 H 306.57 0.607387 1.85194 0
M  V30 3098 H 305.666 -0.258998 3.11023 0
M  V30 3099 N 305.967 -1.56429 0.191757 0
M  V30 3100 C 306.93 -2.17707 -0.716688 0
M  V30 3101 C 307.93 -1.13061 -1.14341 0
M  V30 3102 O 309.12 -1.38464 -1.05704 0
M  V30 3103 C 306.252 -2.77644 -1.97804 0
M  V30 3104 H 307.445 -2.99342 -0.1829 0
M  V30 3105 H 304.998 -1.56193 -0.0578566 0
M  V30 3106 H 305.733 -1.99799 -2.55443 0
M  V30 3107 H 305.518 -3.54246 -1.68083 0
M  V30 3108 H 307.008 -3.24708 -2.62592 0
M  V30 3109 N 307.445 0.0818655 -1.57387 0
M  V30 3110 C 308.693 0.781368 -1.86384 0
M  V30 3111 C 309.014 1.78618 -0.782342 0
M  V30 3112 O 308.284 1.94976 0.190061 0
M  V30 3113 H 306.864 0.291562 -0.687751 0
M  V30 3114 H 309.526 0.060348 -1.94807 0
M  V30 3115 H 308.622 1.3038 -2.83562 0
M  V30 3116 N 308.923 1.53595 0.353017 0
M  V30 3117 C 310.169 1.70638 1.09593 0
M  V30 3118 C 310.502 0.463286 1.88593 0
M  V30 3119 O 309.777 -0.539597 1.86865 0
M  V30 3120 C 310.06 2.96406 2.04489 0
M  V30 3121 C 309.913 4.30901 1.29014 0
M  V30 3122 C 311.232 3.17812 3.0444 0
M  V30 3123 H 308.351 0.620913 0.397034 0
M  V30 3124 H 310.993 1.86254 0.375446 0
M  V30 3125 H 309.143 2.83223 2.65927 0
M  V30 3126 H 310.815 4.55917 0.702638 0
M  V30 3127 H 309.058 4.29741 0.592071 0
M  V30 3128 H 309.729 5.1506 1.98537 0
M  V30 3129 H 312.205 3.30263 2.53112 0
M  V30 3130 H 311.081 4.07223 3.6805 0
M  V30 3131 H 311.342 2.33669 3.75301 0
M  V30 3132 N 310.401 -0.613514 1.45168 0
M  V30 3133 C 311.649 -1.36997 1.48581 0
M  V30 3134 C 311.97 -1.94589 0.126545 0
M  V30 3135 O 311.24 -1.76816 -0.843372 0
M  V30 3136 H 309.82 -0.508558 0.547154 0
M  V30 3137 H 312.482 -0.720853 1.81079 0
M  V30 3138 H 311.578 -2.1924 2.22127 0
M  V30 3139 N 311.879 -1.3236 -0.855495 0
M  V30 3140 C 312.826 -1.21225 -1.964 0
M  V30 3141 C 313.796 -0.0946204 -1.6583 0
M  V30 3142 O 314.981 -0.27002 -1.8888 0
M  V30 3143 C 312.121 -0.940419 -3.32039 0
M  V30 3144 C 311.234 -2.14276 -3.75113 0
M  V30 3145 C 310.369 -1.80648 -4.9954 0
M  V30 3146 C 309.408 -2.97208 -5.35102 0
M  V30 3147 N 308.545 -2.63678 -6.50706 0
M  V30 3148 H 313.385 -2.16042 -2.05255 0
M  V30 3149 H 310.922 -1.07451 -1.00463 0
M  V30 3150 H 312.88 -0.763311 -4.10158 0
M  V30 3151 H 311.51 -0.0290413 -3.22787 0
M  V30 3152 H 310.562 -2.43017 -2.92655 0
M  V30 3153 H 311.874 -3.01468 -3.97389 0
M  V30 3154 H 311.028 -1.59484 -5.85363 0
M  V30 3155 H 309.767 -0.906678 -4.79198 0
M  V30 3156 H 308.772 -3.19004 -4.47791 0
M  V30 3157 H 309.997 -3.87918 -5.57401 0
M  V30 3158 H 307.943 -1.76238 -6.31883 0
M  V30 3159 H 307.86 -3.444 -6.72997 0
M  V30 3160 H 309.128 -2.45942 -7.39684 0
M  V30 3161 N 313.357 1.07166 -1.15556 0
M  V30 3162 C 314.585 1.83514 -0.955519 0
M  V30 3163 C 315 1.82163 0.49621 0
M  V30 3164 O 314.357 1.23441 1.34419 0
M  V30 3165 C 314.408 3.30515 -1.46432 0
M  V30 3166 O 314.129 3.31937 -2.85918 0
M  V30 3167 C 315.63 4.23625 -1.30603 0
M  V30 3168 H 312.85 0.578926 -0.339244 0
M  V30 3169 H 315.394 1.35265 -1.53374 0
M  V30 3170 H 313.549 3.76106 -0.928584 0
M  V30 3171 H 313.963 4.23794 -3.09029 0
M  V30 3172 H 315.437 5.24831 -1.71047 0
M  V30 3173 H 315.914 4.38485 -0.250441 0
M  V30 3174 H 316.52 3.83871 -1.83094 0
M  V30 3175 N 314.835 0.952656 1.25548 0
M  V30 3176 C 316.081 0.607272 1.93494 0
M  V30 3177 C 316.414 -0.853245 1.74452 0
M  V30 3178 O 315.689 -1.61194 1.08843 0
M  V30 3179 C 315.972 0.96435 3.46947 0
M  V30 3180 C 315.825 2.48045 3.75225 0
M  V30 3181 C 317.144 0.487987 4.37386 0
M  V30 3182 H 314.263 0.222096 0.702739 0
M  V30 3183 H 316.905 1.18895 1.48203 0
M  V30 3184 H 315.055 0.469361 3.85654 0
M  V30 3185 H 316.727 3.04905 3.46166 0
M  V30 3186 H 314.97 2.919 3.209 0
M  V30 3187 H 315.641 2.6808 4.82532 0
M  V30 3188 H 318.117 0.912558 4.0597 0
M  V30 3189 H 316.993 0.766547 5.43521 0
M  V30 3190 H 317.254 -0.612063 4.37843 0
M  V30 3191 N 316.313 -1.40141 0.720998 0
M  V30 3192 C 317.243 -2.33339 0.0867621 0
M  V30 3193 C 318.224 -1.53178 -0.739622 0
M  V30 3194 O 319.409 -1.81625 -0.687449 0
M  V30 3195 C 316.539 -3.37194 -0.831728 0
M  V30 3196 C 315.493 -4.27857 -0.110558 0
M  V30 3197 C 314.819 -5.22294 -1.14513 0
M  V30 3198 C 316.119 -5.11872 1.0385 0
M  V30 3199 H 317.813 -2.86626 0.865219 0
M  V30 3200 H 315.359 -1.37814 0.417516 0
M  V30 3201 H 317.312 -4.01335 -1.28485 0
M  V30 3202 H 316.036 -2.82314 -1.64214 0
M  V30 3203 H 314.695 -3.65176 0.322797 0
M  V30 3204 H 314.343 -4.63717 -1.94874 0
M  V30 3205 H 314.043 -5.83797 -0.667446 0
M  V30 3206 H 315.567 -5.89312 -1.59824 0
M  V30 3207 H 316.981 -5.69436 0.664482 0
M  V30 3208 H 315.378 -5.82445 1.4449 0
M  V30 3209 H 316.448 -4.4753 1.86668 0
M  V30 3210 N 317.792 -0.46758 -1.50504 0
M  V30 3211 C 319.041 0.0902868 -2.01498 0
M  V30 3212 C 319.354 1.411 -1.35463 0
M  V30 3213 O 320.56 2.0536 -1.77594 0
M  V30 3214 C 319.016 0.21142 -3.59278 0
M  V30 3215 C 318.624 -1.10065 -4.34269 0
M  V30 3216 C 320.368 0.721433 -4.18325 0
M  V30 3217 C 318.275 -0.943505 -5.83825 0
M  V30 3218 H 317.205 0.037517 -0.753066 0
M  V30 3219 H 319.856 -0.601943 -1.73346 0
M  V30 3220 H 318.238 0.967352 -3.84003 0
M  V30 3221 H 319.412 -1.86726 -4.21272 0
M  V30 3222 H 317.727 -1.5415 -3.86816 0
M  V30 3223 H 320.324 0.85598 -5.27804 0
M  V30 3224 H 320.667 1.71186 -3.79475 0
M  V30 3225 H 321.2 0.0229843 -3.97793 0
M  V30 3226 H 317.939 -1.90719 -6.27141 0
M  V30 3227 H 317.459 -0.217213 -5.99407 0
M  V30 3228 H 319.138 -0.608715 -6.4413 0
M  V30 3229 N 319.27 1.56325 -0.20005 0
M  V30 3230 C 320.203 2.15234 0.758267 0
M  V30 3231 C 321.181 1.09046 1.20614 0
M  V30 3232 O 322.365 1.37186 1.29276 0
M  V30 3233 C 319.492 2.71524 2.02466 0
M  V30 3234 C 318.538 3.90345 1.71852 0
M  V30 3235 S 319.371 5.28513 0.862249 0
M  V30 3236 C 320.527 5.88227 2.13868 0
M  V30 3237 H 320.76 2.96183 0.2575 0
M  V30 3238 H 318.293 1.54393 0.0150099 0
M  V30 3239 H 320.251 3.04598 2.75191 0
M  V30 3240 H 318.912 1.90607 2.49655 0
M  V30 3241 H 318.105 4.28158 2.65888 0
M  V30 3242 H 317.707 3.58306 1.07205 0
M  V30 3243 H 319.999 6.02891 3.09076 0
M  V30 3244 H 320.942 6.84714 1.80479 0
M  V30 3245 H 321.35 5.16874 2.2694 0
M  V30 3246 N 320.748 -0.0735177 1.57428 0
M  V30 3247 C 321.658 -1.10547 2.06922 0
M  V30 3248 C 322.674 -1.42506 0.998402 0
M  V30 3249 O 323.85 -1.52717 1.31299 0
M  V30 3250 C 320.915 -2.40019 2.50184 0
M  V30 3251 C 319.976 -2.15046 3.71556 0
M  V30 3252 C 319.209 -3.38345 4.12745 0
M  V30 3253 O 319.432 -4.47399 3.53822 0
M  V30 3254 O 318.366 -3.2666 5.05546 0
M  V30 3255 H 322.192 -0.715013 2.95163 0
M  V30 3256 H 319.777 -0.287531 1.46607 0
M  V30 3257 H 321.659 -3.16218 2.78539 0
M  V30 3258 H 320.334 -2.78447 1.65072 0
M  V30 3259 H 319.241 -1.36558 3.48285 0
M  V30 3260 H 320.574 -1.81499 4.57514 0
M  V30 3261 N 322.226 -1.5378 -0.344866 0
M  V30 3262 C 323.156 -1.84662 -1.42906 0
M  V30 3263 C 324.137 -0.701648 -1.54955 0
M  V30 3264 O 325.322 -0.953438 -1.69184 0
M  V30 3265 C 322.452 -2.05503 -2.79974 0
M  V30 3266 C 321.406 -3.21318 -2.82734 0
M  V30 3267 C 320.732 -3.2749 -4.22675 0
M  V30 3268 C 322.032 -4.59456 -2.48389 0
M  V30 3269 H 323.726 -2.75461 -1.17311 0
M  V30 3270 H 321.272 -1.32542 -0.562896 0
M  V30 3271 H 323.225 -2.25691 -3.55867 0
M  V30 3272 H 321.949 -1.11434 -3.07002 0
M  V30 3273 H 320.608 -3.00984 -2.09294 0
M  V30 3274 H 320.256 -2.31019 -4.4681 0
M  V30 3275 H 319.956 -4.05316 -4.25433 0
M  V30 3276 H 321.48 -3.49887 -5.00412 0
M  V30 3277 H 322.894 -4.79667 -3.13995 0
M  V30 3278 H 321.291 -5.39675 -2.62432 0
M  V30 3279 H 322.361 -4.63155 -1.4358 0
M  V30 3280 N 323.704 0.605807 -1.45491 0
M  V30 3281 C 324.953 1.36086 -1.48874 0
M  V30 3282 C 325.266 1.95131 -0.135333 0
M  V30 3283 O 326.472 2.7146 -0.0468144 0
M  V30 3284 C 324.928 2.46518 -2.62215 0
M  V30 3285 C 324.536 1.93877 -4.03876 0
M  V30 3286 C 326.28 3.23512 -2.74846 0
M  V30 3287 C 324.187 3.01801 -5.08596 0
M  V30 3288 H 323.117 0.511497 -0.553974 0
M  V30 3289 H 325.768 0.649089 -1.71636 0
M  V30 3290 H 324.15 3.20388 -2.32739 0
M  V30 3291 H 325.324 1.26704 -4.43038 0
M  V30 3292 H 323.639 1.29622 -3.95711 0
M  V30 3293 H 326.236 4.04013 -3.50253 0
M  V30 3294 H 326.579 3.74631 -1.81542 0
M  V30 3295 H 327.112 2.56742 -3.03856 0
M  V30 3296 H 323.851 2.55597 -6.03614 0
M  V30 3297 H 323.371 3.67535 -4.74002 0
M  V30 3298 H 325.05 3.66152 -5.33424 0
M  V30 3299 N 325.182 1.32811 0.848464 0
M  V30 3300 C 326.13 1.22231 1.97895 0
M  V30 3301 C 327.124 0.125749 1.68933 0
M  V30 3302 O 328.33 0.289083 1.77663 0
M  V30 3303 H 324.705 0.379058 0.649476 0
M  V30 3304 H 326.676 2.17828 2.03945 0
M  V30 3305 C 325.425 0.968572 3.33937 0
M  V30 3306 H 324.748 1.80458 3.56756 0
M  V30 3307 H 326.188 0.934808 4.13567 0
M  V30 3308 C 324.647 -0.328628 3.35293 0
M  V30 3309 O 325.177 -1.33848 3.78745 0
M  V30 3310 N 323.383 -0.352788 2.88451 0
M  V30 3311 H 322.93 0.469541 2.53285 0
M  V30 3312 H 322.888 -1.22057 2.89741 0
M  V30 3313 N 326.66 -1.06551 1.16123 0
M  V30 3314 C 327.608 -2.16063 0.861371 0
M  V30 3315 C 328.602 -1.6856 -0.168517 0
M  V30 3316 O 329.808 -1.79986 -0.0227579 0
M  V30 3317 H 326.183 -0.705278 0.260934 0
M  V30 3318 H 328.154 -2.38567 1.79244 0
M  V30 3319 C 326.903 -3.45661 0.376018 0
M  V30 3320 H 326.226 -3.82604 1.15992 0
M  V30 3321 H 327.666 -4.23504 0.204951 0
M  V30 3322 C 326.125 -3.24546 -0.903954 0
M  V30 3323 O 326.655 -3.49865 -1.97377 0
M  V30 3324 N 324.861 -2.77992 -0.846679 0
M  V30 3325 H 324.408 -2.57589 0.0241017 0
M  V30 3326 H 324.366 -2.64244 -1.70359 0
M  V30 3327 N 328.138 -0.959301 -1.25041 0
M  V30 3328 C 329.384 -0.617525 -1.9317 0
M  V30 3329 C 329.717 0.843981 -1.74902 0
M  V30 3330 O 328.992 1.60615 -1.09696 0
M  V30 3331 C 329.275 -0.982736 -3.46431 0
M  V30 3332 C 329.128 -2.50032 -3.73904 0
M  V30 3333 C 330.447 -0.511176 -4.37121 0
M  V30 3334 H 327.566 -0.22582 -0.701552 0
M  V30 3335 H 330.208 -1.19679 -1.4757 0
M  V30 3336 H 328.358 -0.489806 -3.854 0
M  V30 3337 H 330.03 -3.06737 -3.44544 0
M  V30 3338 H 328.273 -2.93598 -3.19348 0
M  V30 3339 H 328.944 -2.70635 -4.81103 0
M  V30 3340 H 331.42 -0.934075 -4.0548 0
M  V30 3341 H 330.296 -0.795361 -5.43107 0
M  V30 3342 H 330.557 0.588834 -4.38161 0
M  V30 3343 N 329.616 1.39756 -0.72842 0
M  V30 3344 C 330.579 2.29012 -0.0927297 0
M  V30 3345 C 331.579 1.45992 0.674025 0
M  V30 3346 O 332.769 1.66749 0.50402 0
M  V30 3347 C 329.901 3.29396 0.878137 0
M  V30 3348 H 331.094 2.86729 -0.879011 0
M  V30 3349 H 328.647 1.48293 -0.493847 0
M  V30 3350 H 329.382 2.76722 1.69101 0
M  V30 3351 H 329.167 3.907 0.331051 0
M  V30 3352 H 330.657 3.96199 1.3197 0
M  V30 3353 N 331.094 0.475555 1.50254 0
M  V30 3354 C 332.041 -0.316293 2.28622 0
M  V30 3355 C 333.011 -0.983227 1.33873 0
M  V30 3356 O 334.196 -0.994805 1.62814 0
M  V30 3357 C 331.336 -1.38975 3.1588 0
M  V30 3358 C 330.449 -0.737146 4.25664 0
M  V30 3359 C 329.584 -1.78887 5.00173 0
M  V30 3360 C 328.623 -1.11676 6.01826 0
M  V30 3361 N 327.76 -2.11154 6.69596 0
M  V30 3362 H 332.6 0.358297 2.95838 0
M  V30 3363 H 330.137 0.188541 1.45887 0
M  V30 3364 H 332.095 -2.02383 3.64825 0
M  V30 3365 H 330.725 -2.03344 2.50701 0
M  V30 3366 H 329.777 0.0096065 3.80399 0
M  V30 3367 H 331.089 -0.206816 4.98371 0
M  V30 3368 H 330.243 -2.49865 5.52859 0
M  V30 3369 H 328.982 -2.35302 4.27182 0
M  V30 3370 H 327.987 -0.392633 5.48396 0
M  V30 3371 H 329.212 -0.55945 6.76792 0
M  V30 3372 H 327.158 -2.66577 5.99394 0
M  V30 3373 H 327.075 -1.63118 7.38193 0
M  V30 3374 H 328.343 -2.81497 7.26897 0
M  V30 3375 N 332.573 -1.56217 0.208337 0
M  V30 3376 C 333.536 -2.18455 -0.693557 0
M  V30 3377 C 334.536 -1.14268 -1.13135 0
M  V30 3378 O 335.726 -1.39577 -1.0423 0
M  V30 3379 C 332.858 -2.79727 -1.94848 0
M  V30 3380 H 334.051 -2.99519 -0.15114 0
M  V30 3381 H 331.604 -1.56245 -0.041287 0
M  V30 3382 H 332.339 -2.02497 -2.53309 0
M  V30 3383 H 332.124 -3.56009 -1.64316 0
M  V30 3384 H 333.614 -3.27475 -2.59133 0
M  V30 3385 N 334.051 0.0651679 -1.57465 0
M  V30 3386 C 335.001 1.0838 -2.00594 0
M  V30 3387 C 335.985 1.34106 -0.889071 0
M  V30 3388 O 337.177 1.34295 -1.15299 0
M  V30 3389 C 334.306 2.39565 -2.45894 0
M  V30 3390 C 333.392 2.17085 -3.64328 0
M  V30 3391 N 333.783 1.64553 -4.78285 0
M  V30 3392 C 332.081 2.4753 -3.71006 0
M  V30 3393 C 332.782 1.57042 -5.60101 0
M  V30 3394 N 331.758 2.03328 -5.04141 0
M  V30 3395 H 335.56 0.671062 -2.86136 0
M  V30 3396 H 333.074 0.27213 -1.60104 0
M  V30 3397 H 335.071 3.13308 -2.75034 0
M  V30 3398 H 333.731 2.81549 -1.61741 0
M  V30 3399 H 334.742 1.33323 -5.00445 0
M  V30 3400 H 331.419 2.92835 -2.9758 0
M  V30 3401 H 332.809 1.17223 -6.61595 0
M  V30 3402 N 335.529 1.53961 0.336706 0
M  V30 3403 C 336.777 1.71197 1.07405 0
M  V30 3404 C 337.098 0.481475 1.88962 0
M  V30 3405 O 336.368 -0.504585 1.8929 0
M  V30 3406 H 334.948 0.631185 0.399517 0
M  V30 3407 H 337.61 1.91232 0.376323 0
M  V30 3408 H 336.706 2.58587 1.74755 0
M  V30 3409 N 337.007 -0.598083 1.45811 0
M  V30 3410 C 338.255 -1.35413 1.50026 0
M  V30 3411 C 338.576 -1.94444 0.147177 0
M  V30 3412 O 337.846 -1.77701 -0.824571 0
M  V30 3413 H 336.426 -0.502727 0.552517 0
M  V30 3414 H 339.088 -0.701606 1.81834 0
M  V30 3415 H 338.184 -2.16871 2.2444 0
M  V30 3416 N 338.485 -1.33259 -0.841409 0
M  V30 3417 C 339.715 -1.2742 -1.62628 0
M  V30 3418 C 340.123 0.157604 -1.88542 0
M  V30 3419 O 339.466 1.10938 -1.46419 0
M  V30 3420 C 339.528 -1.97797 -3.00194 0
M  V30 3421 C 339.192 -3.47109 -2.97261 0
M  V30 3422 C 340.189 -4.42358 -2.73159 0
M  V30 3423 C 337.874 -3.89247 -3.17478 0
M  V30 3424 C 339.868 -5.77718 -2.69296 0
M  V30 3425 C 337.555 -5.24713 -3.13241 0
M  V30 3426 C 338.553 -6.1876 -2.89181 0
M  V30 3427 O 338.241 -7.51745 -2.84843 0
M  V30 3428 H 337.973 -0.440436 -0.512827 0
M  V30 3429 H 340.527 -1.76153 -1.05638 0
M  V30 3430 H 338.757 -1.43652 -3.59028 0
M  V30 3431 H 340.446 -1.8549 -3.61038 0
M  V30 3432 H 341.212 -4.11127 -2.57294 0
M  V30 3433 H 337.091 -3.16456 -3.35226 0
M  V30 3434 H 340.635 -6.51097 -2.50436 0
M  V30 3435 H 336.532 -5.55569 -3.28654 0
M  V30 3436 H 337.3 -7.61262 -3.00702 0
M  V30 3437 N 339.963 1.05934 -1.16686 0
M  V30 3438 C 341.188 1.83029 -0.975455 0
M  V30 3439 C 341.613 1.82096 0.471452 0
M  V30 3440 O 340.971 1.22443 1.33706 0
M  V30 3441 C 341.019 3.27372 -1.51195 0
M  V30 3442 O 340.123 4.06054 -0.720701 0
M  V30 3443 H 339.464 0.566194 -0.346872 0
M  V30 3444 H 341.994 1.33541 -1.55009 0
M  V30 3445 H 342.004 3.78186 -1.53099 0
M  V30 3446 H 340.679 3.27366 -2.56523 0
M  V30 3447 H 339.256 3.64812 -0.772458 0
M  V30 3448 N 341.441 0.965919 1.2453 0
M  V30 3449 C 342.687 0.62776 1.92839 0
M  V30 3450 C 343.02 -0.834694 1.75347 0
M  V30 3451 O 342.295 -1.60031 1.10546 0
M  V30 3452 C 342.578 1.00109 3.45905 0
M  V30 3453 C 342.431 2.52011 3.72573 0
M  V30 3454 C 343.75 0.53435 4.36844 0
M  V30 3455 H 340.869 0.229537 0.700344 0
M  V30 3456 H 343.511 1.2046 1.46933 0
M  V30 3457 H 341.661 0.510238 3.85135 0
M  V30 3458 H 343.333 3.08559 3.42912 0
M  V30 3459 H 341.576 2.95287 3.17786 0
M  V30 3460 H 342.247 2.73183 4.79661 0
M  V30 3461 H 344.723 0.955565 4.04979 0
M  V30 3462 H 343.599 0.824152 5.42678 0
M  V30 3463 H 343.86 -0.565589 4.38467 0
M  V30 3464 N 342.919 -1.39368 0.735821 0
M  V30 3465 C 344.166 -2.00497 0.284123 0
M  V30 3466 C 344.494 -1.58387 -1.12889 0
M  V30 3467 O 343.749 -0.804359 -1.78406 0
M  V30 3468 C 344.048 -3.5583 0.334651 0
M  V30 3469 C 343.714 -4.17593 1.7008 0
M  V30 3470 C 342.376 -4.34176 2.07472 0
M  V30 3471 C 344.728 -4.51848 2.59775 0
M  V30 3472 C 342.056 -4.82304 3.34065 0
M  V30 3473 C 344.408 -5.01384 3.85741 0
M  V30 3474 C 343.072 -5.16175 4.23225 0
M  V30 3475 H 342.342 -0.73367 0.103968 0
M  V30 3476 H 344.989 -1.66683 0.942825 0
M  V30 3477 H 343.294 -3.89674 -0.407625 0
M  V30 3478 H 344.991 -4.00986 -0.0329927 0
M  V30 3479 H 341.581 -4.05087 1.40008 0
M  V30 3480 H 345.765 -4.38653 2.32157 0
M  V30 3481 H 341.021 -4.91941 3.63049 0
M  V30 3482 H 345.195 -5.26863 4.55399 0
M  V30 3483 H 342.822 -5.5323 5.21384 0
M  V30 3484 N 344.397 -0.483516 -1.5 0
M  V30 3485 C 345.36 0.292965 -2.2732 0
M  V30 3486 C 346.36 0.909499 -1.32608 0
M  V30 3487 O 347.55 0.776745 -1.55924 0
M  V30 3488 C 344.682 1.41854 -3.09984 0
M  V30 3489 H 345.875 -0.385289 -2.97415 0
M  V30 3490 H 343.428 -0.237942 -1.54478 0
M  V30 3491 H 344.163 2.13148 -2.44414 0
M  V30 3492 H 343.948 0.982114 -3.79601 0
M  V30 3493 H 345.438 1.96597 -3.68429 0
M  V30 3494 N 345.875 1.56104 -0.216619 0
M  V30 3495 C 347.123 1.97781 0.415593 0
M  V30 3496 C 347.444 1.10536 1.60645 0
M  V30 3497 O 346.714 0.181303 1.95059 0
M  V30 3498 H 345.294 0.730415 0.156534 0
M  V30 3499 H 347.956 1.92445 -0.308366 0
M  V30 3500 H 347.052 3.03072 0.74525 0
M  V30 3501 N 347.353 -0.0568162 1.57498 0
M  V30 3502 C 348.599 -0.75422 1.88253 0
M  V30 3503 C 348.932 -1.76461 0.810865 0
M  V30 3504 O 348.207 -1.93691 -0.177259 0
M  V30 3505 C 348.49 -1.44878 3.2967 0
M  V30 3506 C 348.343 -0.453789 4.47505 0
M  V30 3507 C 349.662 -2.38994 3.69554 0
M  V30 3508 H 346.781 -0.272724 0.684683 0
M  V30 3509 H 349.423 -0.0172113 1.89992 0
M  V30 3510 H 347.573 -2.077 3.28318 0
M  V30 3511 H 349.245 0.170371 4.60985 0
M  V30 3512 H 347.488 0.229552 4.33192 0
M  V30 3513 H 348.159 -0.977699 5.43273 0
M  V30 3514 H 350.635 -1.86239 3.72095 0
M  V30 3515 H 349.511 -2.84587 4.69363 0
M  V30 3516 H 349.772 -3.24461 3.00296 0
M  V30 3517 N 348.832 -1.54138 -0.328536 0
M  V30 3518 C 350.08 -1.71765 -1.06496 0
M  V30 3519 C 350.401 -0.49149 -1.88704 0
M  V30 3520 O 349.671 0.494539 -1.89555 0
M  V30 3521 H 348.251 -0.633295 -0.396164 0
M  V30 3522 H 350.913 -1.91429 -0.366176 0
M  V30 3523 H 350.009 -2.5951 -1.73381 0
M  V30 3524 N 350.31 0.590341 -1.46126 0
M  V30 3525 C 351.22 1.72793 -1.58681 0
M  V30 3526 C 352.236 1.67516 -0.470566 0
M  V30 3527 O 353.412 1.87562 -0.733642 0
M  V30 3528 C 350.477 3.09287 -1.5666 0
M  V30 3529 C 349.538 3.25886 -2.79458 0
M  V30 3530 C 348.771 4.55869 -2.77524 0
M  V30 3531 O 348.994 5.3928 -1.85832 0
M  V30 3532 O 347.928 4.75552 -3.68964 0
M  V30 3533 H 351.754 1.65149 -2.54872 0
M  V30 3534 H 349.339 0.756486 -1.28832 0
M  V30 3535 H 351.221 3.90577 -1.58202 0
M  V30 3536 H 349.896 3.17385 -0.636271 0
M  V30 3537 H 348.803 2.44119 -2.83472 0
M  V30 3538 H 350.136 3.22675 -3.71674 0
M  V30 3539 N 351.788 1.33704 0.83433 0
M  V30 3540 C 353.204 1.13137 1.12571 0
M  V30 3541 C 353.404 -0.0747261 2.01361 0
M  V30 3542 O 352.46 -0.753647 2.4099 0
M  V30 3543 C 353.773 2.42105 1.78342 0
M  V30 3544 C 355.321 2.48054 1.90888 0
M  V30 3545 C 355.796 3.76995 2.60075 0
M  V30 3546 N 357.287 3.78092 2.67584 0
M  V30 3547 C 358.022 4.74574 3.21818 0
M  V30 3548 N 357.518 5.81434 3.76705 0
M  V30 3549 N 359.311 4.62044 3.20112 0
M  V30 3550 H 351.462 2.11 0.243489 0
M  V30 3551 H 353.725 0.932532 0.17055 0
M  V30 3552 H 353.431 3.30391 1.20561 0
M  V30 3553 H 353.305 2.54594 2.7832 0
M  V30 3554 H 355.692 1.60215 2.47821 0
M  V30 3555 H 355.773 2.39502 0.898459 0
M  V30 3556 H 355.417 4.65219 2.03799 0
M  V30 3557 H 355.347 3.82825 3.61597 0
M  V30 3558 H 357.838 3.00865 2.28667 0
M  V30 3559 H 358.151 6.51084 4.16305 0
M  V30 3560 H 356.496 5.85163 3.7498 0
M  V30 3561 H 359.687 3.77716 2.76493 0
M  V30 3562 H 359.86 5.37406 3.62076 0
M  V30 3563 N 353.266 -1.05314 1.17247 0
M  V30 3564 C 354.494 -1.81971 0.984593 0
M  V30 3565 C 354.909 -1.82929 -0.467166 0
M  V30 3566 O 354.266 -1.25564 -1.32438 0
M  V30 3567 C 354.317 -3.28143 1.51672 0
M  V30 3568 O 354.038 -3.27347 2.91163 0
M  V30 3569 C 355.539 -4.21493 1.37326 0
M  V30 3570 H 352.759 -0.573455 0.348411 0
M  V30 3571 H 355.303 -1.32808 1.55506 0
M  V30 3572 H 353.458 -3.74582 0.988302 0
M  V30 3573 H 353.872 -4.18824 3.15732 0
M  V30 3574 H 355.346 -5.22043 1.79375 0
M  V30 3575 H 355.823 -4.38031 0.320169 0
M  V30 3576 H 356.429 -3.80909 1.89178 0
M  V30 3577 N 354.744 -0.972509 -1.24016 0
M  V30 3578 C 356.16 -0.679827 -1.44397 0
M  V30 3579 C 356.36 0.756716 -1.86751 0
M  V30 3580 O 355.416 1.53007 -2.00861 0
M  V30 3581 C 356.729 -1.66803 -2.50195 0
M  V30 3582 C 358.277 -1.68119 -2.64017 0
M  V30 3583 C 358.752 -2.65748 -3.73017 0
M  V30 3584 N 360.243 -2.64219 -3.8045 0
M  V30 3585 C 360.978 -3.36433 -4.64328 0
M  V30 3586 N 360.474 -4.1818 -5.52356 0
M  V30 3587 N 362.267 -3.25235 -4.58453 0
M  V30 3588 H 354.418 -1.90059 -0.948228 0
M  V30 3589 H 356.681 -0.818527 -0.478245 0
M  V30 3590 H 356.387 -2.69498 -2.25973 0
M  V30 3591 H 356.261 -1.4446 -3.48441 0
M  V30 3592 H 358.648 -0.661319 -2.87594 0
M  V30 3593 H 358.729 -1.94525 -1.66113 0
M  V30 3594 H 358.373 -3.67872 -3.50189 0
M  V30 3595 H 358.303 -2.36619 -4.70446 0
M  V30 3596 H 360.794 -2.04887 -3.17537 0
M  V30 3597 H 361.107 -4.70157 -6.13329 0
M  V30 3598 H 359.452 -4.22273 -5.52006 0
M  V30 3599 H 362.643 -2.60829 -3.88698 0
M  V30 3600 H 362.816 -3.81776 -5.23594 0
M  V30 3601 N 356.222 1.38976 -0.743202 0
M  V30 3602 C 357.132 2.3434 -0.110399 0
M  V30 3603 C 358.148 1.58741 0.712559 0
M  V30 3604 O 359.324 1.9099 0.639125 0
M  V30 3605 C 356.389 3.37812 0.780012 0
M  V30 3606 C 355.45 4.29263 -0.0561319 0
M  V30 3607 C 354.683 5.27793 0.791875 0
M  V30 3608 O 354.906 5.33043 2.03031 0
M  V30 3609 O 353.84 6.01512 0.216183 0
M  V30 3610 H 357.666 2.90129 -0.897714 0
M  V30 3611 H 355.251 1.40643 -0.503966 0
M  V30 3612 H 357.133 4.01194 1.28923 0
M  V30 3613 H 355.808 2.84395 1.546 0
M  V30 3614 H 354.715 3.69076 -0.611056 0
M  V30 3615 H 356.048 4.85907 -0.784531 0
M  V30 3616 N 357.7 0.491464 1.49741 0
M  V30 3617 C 358.948 -0.0563141 2.02022 0
M  V30 3618 C 359.269 -1.38363 1.37407 0
M  V30 3619 O 358.539 -1.88702 0.526166 0
M  V30 3620 H 357.119 -0.0238014 0.746621 0
M  V30 3621 H 359.781 0.646533 1.83864 0
M  V30 3622 H 358.877 -0.192967 3.11503 0
M  V30 3623 N 359.178 -1.55987 0.224894 0
M  V30 3624 C 360.126 -2.21808 -0.700283 0
M  V30 3625 C 361.12 -1.19854 -1.19714 0
M  V30 3626 O 362.326 -1.37925 -1.15658 0
M  V30 3627 H 358.701 -0.711226 -0.244258 0
M  V30 3628 H 360.672 -2.98152 -0.121749 0
M  V30 3629 C 359.421 -2.91444 -1.8962 0
M  V30 3630 H 358.744 -3.69655 -1.52299 0
M  V30 3631 H 360.184 -3.40894 -2.52125 0
M  V30 3632 C 358.643 -1.94098 -2.75368 0
M  V30 3633 O 359.173 -1.46004 -3.74227 0
M  V30 3634 N 357.379 -1.61675 -2.41474 0
M  V30 3635 H 356.926 -2.00979 -1.61137 0
M  V30 3636 H 356.884 -0.968036 -2.99126 0
M  V30 3637 N 360.656 0.0484629 -1.57525 0
M  V30 3638 C 361.933 0.777447 -1.79486 0
M  V30 3639 C 362.313 1.94597 -0.818251 0
M  V30 3640 O 361.661 2.28047 0.143767 0
M  V30 3641 C 361.871 1.22864 -3.26658 0
M  V30 3642 C 363.219 1.65251 -3.91123 0
M  V30 3643 O 364.243 1.32372 -3.3069 0
M  V30 3644 O 363.102 2.26207 -4.97486 0
M  V30 3645 H 360.196 0.374357 -0.737419 0
M  V30 3646 H 362.742 0.0267359 -1.69679 0
M  V30 3647 H 361.514 0.393589 -3.89316 0
M  V30 3648 H 361.137 2.03996 -3.41279 0
M  V30 3649 N 362.134 1.5431 0.320358 0
M  V30 3650 C 363.064 1.86912 1.3995 0
M  V30 3651 C 364.045 0.726211 1.53819 0
M  V30 3652 O 365.23 0.980233 1.67646 0
M  V30 3653 C 362.36 2.09932 2.7667 0
M  V30 3654 C 361.314 3.25776 2.77586 0
M  V30 3655 C 360.64 3.34173 4.17412 0
M  V30 3656 C 361.94 4.6335 2.41048 0
M  V30 3657 H 363.634 2.77292 1.12914 0
M  V30 3658 H 361.18 1.33421 0.541738 0
M  V30 3659 H 363.133 2.31324 3.52232 0
M  V30 3660 H 361.857 1.16304 3.0519 0
M  V30 3661 H 360.516 3.04276 2.04479 0
M  V30 3662 H 360.164 2.38098 4.43078 0
M  V30 3663 H 359.864 4.12033 4.18931 0
M  V30 3664 H 361.388 3.57803 4.94782 0
M  V30 3665 H 362.802 4.84602 3.06324 0
M  V30 3666 H 361.199 5.43782 2.53813 0
M  V30 3667 H 362.269 4.65381 1.36193 0
M  V30 3668 N 363.613 -0.582584 1.46437 0
M  V30 3669 C 364.843 -1.36484 1.55099 0
M  V30 3670 C 365.251 -1.88233 0.191056 0
M  V30 3671 O 364.594 -1.6429 -0.821858 0
M  V30 3672 C 364.656 -2.588 2.49525 0
M  V30 3673 C 364.32 -2.28517 3.95764 0
M  V30 3674 C 365.317 -1.87346 4.84972 0
M  V30 3675 C 363.002 -2.40658 4.40896 0
M  V30 3676 C 364.996 -1.5871 6.17325 0
M  V30 3677 C 362.683 -2.11635 5.73284 0
M  V30 3678 C 363.681 -1.70725 6.61318 0
M  V30 3679 O 363.369 -1.42057 7.91249 0
M  V30 3680 H 363.101 -0.423297 0.527063 0
M  V30 3681 H 365.655 -0.715188 1.92547 0
M  V30 3682 H 363.885 -3.26571 2.07095 0
M  V30 3683 H 365.574 -3.20868 2.48593 0
M  V30 3684 H 366.34 -1.77481 4.5136 0
M  V30 3685 H 362.219 -2.71463 3.72598 0
M  V30 3686 H 365.763 -1.26704 6.85997 0
M  V30 3687 H 361.66 -2.21124 6.06444 0
M  V30 3688 H 362.428 -1.55901 8.03515 0
M  V30 3689 N 365.091 -1.34144 -0.827227 0
M  V30 3690 C 366.041 -1.21923 -1.92663 0
M  V30 3691 C 367.025 -0.119294 -1.60457 0
M  V30 3692 O 368.217 -0.348539 -1.73534 0
M  V30 3693 C 365.346 -0.972492 -3.29238 0
M  V30 3694 C 364.432 -2.1154 -3.67576 0
M  V30 3695 N 364.823 -3.36627 -3.77512 0
M  V30 3696 C 363.121 -2.02468 -3.97395 0
M  V30 3697 C 363.822 -4.11658 -4.1099 0
M  V30 3698 N 362.798 -3.40207 -4.23981 0
M  V30 3699 H 366.6 -2.16721 -1.98517 0
M  V30 3700 H 364.114 -1.2632 -1.02064 0
M  V30 3701 H 366.111 -0.865847 -4.0781 0
M  V30 3702 H 364.771 -0.0331509 -3.24683 0
M  V30 3703 H 365.782 -3.71234 -3.61118 0
M  V30 3704 H 362.459 -1.16265 -4.00985 0
M  V30 3705 H 363.849 -5.19657 -4.25918 0
M  V30 3706 N 366.569 1.04691 -1.17803 0
M  V30 3707 C 367.479 2.16057 -0.914151 0
M  V30 3708 C 368.495 1.73589 0.119503 0
M  V30 3709 O 369.671 2.01308 -0.0609468 0
M  V30 3710 C 366.736 3.4394 -0.436603 0
M  V30 3711 C 365.797 4.00825 -1.53746 0
M  V30 3712 C 365.03 5.22604 -1.0826 0
M  V30 3713 O 365.253 5.70367 0.0612244 0
M  V30 3714 O 364.187 5.7186 -1.87775 0
M  V30 3715 H 368.013 2.41169 -1.84584 0
M  V30 3716 H 365.598 1.1453 -0.959334 0
M  V30 3717 H 367.48 4.21024 -0.178057 0
M  V30 3718 H 366.155 3.20316 0.466869 0
M  V30 3719 H 365.062 3.25158 -1.84995 0
M  V30 3720 H 366.395 4.28778 -2.41683 0
M  V30 3721 N 368.047 0.979072 1.23499 0
M  V30 3722 C 368.98 0.463027 2.23453 0
M  V30 3723 C 369.958 -0.469128 1.55685 0
M  V30 3724 O 371.142 -0.397882 1.84253 0
M  V30 3725 C 368.269 -0.330308 3.37086 0
M  V30 3726 C 367.315 0.545795 4.22993 0
M  V30 3727 S 368.148 1.99285 4.97037 0
M  V30 3728 C 369.304 1.20862 6.1412 0
M  V30 3729 H 369.537 1.31005 2.6688 0
M  V30 3730 H 367.07 0.784965 1.32957 0
M  V30 3731 H 369.028 -0.782027 4.02982 0
M  V30 3732 H 367.689 -1.15244 2.92194 0
M  V30 3733 H 366.882 -0.0638928 5.03959 0
M  V30 3734 H 366.484 0.933705 3.62157 0
M  V30 3735 H 368.776 0.469284 6.75873 0
M  V30 3736 H 369.719 1.99307 6.79472 0
M  V30 3737 H 370.127 0.727992 5.59786 0
M  V30 3738 N 369.525 -1.3858 0.750561 0
M  V30 3739 C 370.774 -1.99424 0.302172 0
M  V30 3740 C 371.087 -1.60254 -1.12152 0
M  V30 3741 O 372.293 -2.14046 -1.67023 0
M  V30 3742 C 370.749 -3.56558 0.489307 0
M  V30 3743 C 370.357 -4.04682 1.92189 0
M  V30 3744 C 372.101 -4.24374 0.103478 0
M  V30 3745 C 370.008 -5.54446 2.05775 0
M  V30 3746 H 368.938 -0.746046 0.10923 0
M  V30 3747 H 371.589 -1.58383 0.92667 0
M  V30 3748 H 369.971 -3.95472 -0.204329 0
M  V30 3749 H 371.145 -3.77065 2.64875 0
M  V30 3750 H 369.46 -3.4958 2.26236 0
M  V30 3751 H 372.057 -5.34384 0.183787 0
M  V30 3752 H 372.4 -4.05468 -0.943481 0
M  V30 3753 H 372.933 -3.90688 0.748854 0
M  V30 3754 H 369.672 -5.78252 3.08714 0
M  V30 3755 H 369.192 -5.83816 1.37546 0
M  V30 3756 H 370.871 -6.20099 1.84626 0
M  V30 3757 N 371.003 -0.499398 -1.49478 0
M  V30 3758 C 371.913 0.284489 -2.32869 0
M  V30 3759 C 372.929 0.968885 -1.44529 0
M  V30 3760 O 374.105 0.95062 -1.77553 0
M  V30 3761 C 371.17 1.33594 -3.19928 0
M  V30 3762 C 370.231 0.665149 -4.24116 0
M  V30 3763 C 369.464 1.6665 -5.07014 0
M  V30 3764 O 369.687 2.89618 -4.91404 0
M  V30 3765 O 368.621 1.22271 -5.8935 0
M  V30 3766 H 372.447 -0.39802 -3.01081 0
M  V30 3767 H 370.032 -0.260758 -1.47107 0
M  V30 3768 H 371.914 1.94431 -3.73864 0
M  V30 3769 H 370.589 2.0014 -2.54412 0
M  V30 3770 H 369.496 0.0170769 -3.74096 0
M  V30 3771 H 370.829 0.0421555 -4.92182 0
M  V30 3772 N 372.481 1.55866 -0.233164 0
M  V30 3773 C 373.706 2.03449 0.402906 0
M  V30 3774 C 374.131 1.11166 1.51736 0
M  V30 3775 O 373.489 0.101996 1.81013 0
M  V30 3776 C 373.537 3.49165 0.9009 0
M  V30 3777 O 372.641 3.60019 2.01147 0
M  V30 3778 H 371.982 0.657913 0.0897025 0
M  V30 3779 H 374.512 2.01493 -0.355201 0
M  V30 3780 H 374.522 3.89716 1.2077 0
M  V30 3781 H 373.197 4.15813 0.0852889 0
M  V30 3782 H 371.774 3.3136 1.71042 0
M  V30 3783 N 373.959 -0.0401083 1.57549 0
M  V30 3784 C 375.207 -0.731677 1.8839 0
M  V30 3785 C 375.528 -1.76481 0.829425 0
M  V30 3786 O 374.798 -1.95411 -0.1383 0
M  V30 3787 H 373.378 -0.273225 0.695239 0
M  V30 3788 H 376.04 -0.00867725 1.94898 0
M  V30 3789 H 375.136 -1.22816 2.86919 0
M  V30 3790 N 375.437 -1.54477 -0.31217 0
M  V30 3791 C 376.683 -1.73483 -1.0503 0
M  V30 3792 C 377.016 -0.513125 -1.87298 0
M  V30 3793 O 376.291 0.489864 -1.8823 0
M  V30 3794 C 376.574 -3.01723 -1.96558 0
M  V30 3795 C 376.427 -4.3417 -1.17545 0
M  V30 3796 C 377.746 -3.25772 -2.95907 0
M  V30 3797 H 374.865 -0.631222 -0.380432 0
M  V30 3798 H 377.507 -1.87184 -0.325932 0
M  V30 3799 H 375.657 -2.90174 -2.58324 0
M  V30 3800 H 377.329 -4.5762 -0.581513 0
M  V30 3801 H 375.572 -4.31159 -0.477925 0
M  V30 3802 H 376.243 -5.20143 -1.84811 0
M  V30 3803 H 378.719 -3.36857 -2.44267 0
M  V30 3804 H 377.595 -4.16838 -3.57123 0
M  V30 3805 H 377.856 -2.43537 -3.68974 0
M  V30 3806 N 376.915 0.57481 -1.46744 0
M  V30 3807 C 378.164 1.32898 -1.51727 0
M  V30 3808 C 378.477 1.948 -0.176692 0
M  V30 3809 O 379.683 2.71299 -0.104385 0
M  V30 3810 C 378.139 2.40901 -2.67385 0
M  V30 3811 C 377.747 1.85266 -4.07898 0
M  V30 3812 C 379.491 3.17609 -2.81646 0
M  V30 3813 C 377.398 2.90945 -5.14883 0
M  V30 3814 H 376.328 0.499631 -0.564699 0
M  V30 3815 H 378.979 0.612536 -1.72975 0
M  V30 3816 H 377.361 3.15379 -2.39483 0
M  V30 3817 H 378.535 1.17278 -4.45626 0
M  V30 3818 H 376.85 1.21199 -3.98371 0
M  V30 3819 H 379.447 3.96493 -3.58744 0
M  V30 3820 H 379.79 3.70696 -1.89448 0
M  V30 3821 H 380.323 2.50239 -3.09233 0
M  V30 3822 H 377.062 2.42736 -6.089 0
M  V30 3823 H 376.582 3.57398 -4.81691 0
M  V30 3824 H 378.261 3.54755 -5.41071 0
M  V30 3825 N 378.394 1.34581 0.820102 0
M  V30 3826 C 379.342 1.26401 1.95258 0
M  V30 3827 C 380.336 0.161553 1.68628 0
M  V30 3828 O 381.542 0.326703 1.7701 0
M  V30 3829 H 377.917 0.392749 0.64129 0
M  V30 3830 H 379.888 2.22105 1.99279 0
M  V30 3831 C 378.637 1.03919 3.31807 0
M  V30 3832 H 377.96 1.87984 3.52848 0
M  V30 3833 H 379.4 1.02232 4.11491 0
M  V30 3834 C 377.859 -0.257433 3.35915 0
M  V30 3835 O 378.389 -1.25784 3.81499 0
M  V30 3836 N 376.595 -0.291524 2.89134 0
M  V30 3837 H 376.142 0.523161 2.52232 0
M  V30 3838 H 376.1 -1.15883 2.92264 0
M  V30 3839 N 379.872 -1.04064 1.18357 0
M  V30 3840 C 380.802 -2.14001 0.934113 0
M  V30 3841 C 381.783 -1.69616 -0.128186 0
M  V30 3842 O 382.968 -1.94185 0.0244093 0
M  V30 3843 C 380.098 -3.44253 0.459066 0
M  V30 3844 C 379.052 -4.02261 1.46185 0
M  V30 3845 C 378.378 -5.27992 0.844322 0
M  V30 3846 C 379.678 -4.38432 2.83856 0
M  V30 3847 H 381.372 -2.35127 1.85352 0
M  V30 3848 H 378.918 -1.12998 0.892604 0
M  V30 3849 H 380.871 -4.20522 0.271907 0
M  V30 3850 H 379.595 -3.22813 -0.495912 0
M  V30 3851 H 378.254 -3.28074 1.63595 0
M  V30 3852 H 377.902 -5.02862 -0.117845 0
M  V30 3853 H 377.602 -5.67765 1.51384 0
M  V30 3854 H 379.126 -6.06938 0.667693 0
M  V30 3855 H 380.54 -5.05688 2.70098 0
M  V30 3856 H 378.937 -4.89254 3.47491 0
M  V30 3857 H 380.007 -3.4826 3.37406 0
M  V30 3858 N 381.35 -0.985608 -1.22978 0
M  V30 3859 C 382.297 -0.529825 -2.24636 0
M  V30 3860 C 383.267 0.434028 -1.60329 0
M  V30 3861 O 384.452 0.340414 -1.87739 0
M  V30 3862 C 381.592 0.156533 -3.44745 0
M  V30 3863 C 380.705 -0.848197 -4.23591 0
M  V30 3864 C 379.84 -0.136109 -5.31026 0
M  V30 3865 C 378.879 -1.1297 -6.01585 0
M  V30 3866 N 378.016 -0.446415 -7.00679 0
M  V30 3867 H 382.856 -1.40148 -2.62988 0
M  V30 3868 H 380.393 -0.702168 -1.29259 0
M  V30 3869 H 382.351 0.571324 -4.1327 0
M  V30 3870 H 380.981 0.992025 -3.07179 0
M  V30 3871 H 380.033 -1.38135 -3.54433 0
M  V30 3872 H 381.345 -1.60512 -4.72268 0
M  V30 3873 H 380.499 0.335784 -6.0577 0
M  V30 3874 H 379.238 0.653373 -4.83304 0
M  V30 3875 H 378.243 -1.6123 -5.25628 0
M  V30 3876 H 379.468 -1.91993 -6.51395 0
M  V30 3877 H 377.414 0.323763 -6.55201 0
M  V30 3878 H 377.331 -1.1419 -7.47326 0
M  V30 3879 H 378.599 0.00291697 -7.795 0
M  V30 3880 N 382.828 1.3818 -0.7579 0
M  V30 3881 C 384.105 1.94106 -0.241306 0
M  V30 3882 C 384.485 1.69282 1.26122 0
M  V30 3883 O 383.833 1.03378 2.03777 0
M  V30 3884 C 384.043 3.43809 -0.59967 0
M  V30 3885 C 385.391 4.20868 -0.561717 0
M  V30 3886 O 386.415 3.5211 -0.538222 0
M  V30 3887 O 385.274 5.43451 -0.576478 0
M  V30 3888 H 382.368 0.825376 -0.0518042 0
M  V30 3889 H 384.914 1.47548 -0.838315 0
M  V30 3890 H 383.686 3.55403 -1.6372 0
M  V30 3891 H 383.309 3.97592 0.0251197 0
M  V30 3892 N 384.306 0.507319 1.49211 0
M  V30 3893 C 385.269 -0.256763 2.27757 0
M  V30 3894 C 386.269 -0.888287 1.34038 0
M  V30 3895 O 387.459 -0.751841 1.5714 0
M  V30 3896 C 384.591 -1.36905 3.12202 0
M  V30 3897 H 385.784 0.432557 2.96764 0
M  V30 3898 H 383.337 0.262488 1.5408 0
M  V30 3899 H 384.072 -2.09233 2.47775 0
M  V30 3900 H 383.857 -0.921599 3.81115 0
M  V30 3901 H 385.347 -1.9071 3.7151 0
M  V30 3902 N 385.784 -1.5574 0.241426 0
M  V30 3903 C 387.012 -2.03208 -0.389134 0
M  V30 3904 C 387.427 -1.12082 -1.51931 0
M  V30 3905 O 386.784 -0.134183 -1.82006 0
M  V30 3906 C 386.835 -3.50064 -0.902087 0
M  V30 3907 O 386.556 -4.37717 0.18305 0
M  V30 3908 C 388.057 -4.13268 -1.60389 0
M  V30 3909 H 385.277 -0.664509 -0.0931053 0
M  V30 3910 H 387.821 -2.0124 0.36369 0
M  V30 3911 H 385.976 -3.52583 -1.60511 0
M  V30 3912 H 386.39 -5.24097 -0.205579 0
M  V30 3913 H 387.864 -5.17733 -1.91458 0
M  V30 3914 H 388.341 -3.59434 -2.52397 0
M  V30 3915 H 388.947 -4.14655 -0.945576 0
M  V30 3916 N 387.262 0.0317525 -1.57568 0
M  V30 3917 C 388.487 0.738664 -1.938 0
M  V30 3918 C 388.912 1.68242 -0.841208 0
M  V30 3919 O 388.27 1.80157 0.203267 0
M  V30 3920 C 388.318 1.47417 -3.29091 0
M  V30 3921 O 387.422 2.5872 -3.2115 0
M  V30 3922 H 386.763 0.198856 -0.633524 0
M  V30 3923 H 389.293 -0.0119713 -2.04596 0
M  V30 3924 H 389.303 1.84468 -3.63917 0
M  V30 3925 H 387.978 0.781988 -4.08482 0
M  V30 3926 H 386.555 2.24231 -2.97951 0
M  V30 3927 N 388.74 1.54641 0.303973 0
M  V30 3928 C 389.687 1.85386 1.37479 0
M  V30 3929 C 390.657 0.702528 1.50512 0
M  V30 3930 O 391.842 0.950867 1.65418 0
M  V30 3931 C 388.982 2.10413 2.73533 0
M  V30 3932 C 388.095 3.38049 2.68974 0
M  V30 3933 C 387.23 3.52934 3.97002 0
M  V30 3934 C 386.269 4.74373 3.86829 0
M  V30 3935 N 385.406 4.8608 5.06627 0
M  V30 3936 H 390.246 2.76732 1.1056 0
M  V30 3937 H 387.783 1.37034 0.534805 0
M  V30 3938 H 389.741 2.22919 3.52652 0
M  V30 3939 H 388.371 1.22338 2.98719 0
M  V30 3940 H 387.423 3.3418 1.81736 0
M  V30 3941 H 388.735 4.27288 2.57346 0
M  V30 3942 H 387.889 3.65088 4.84557 0
M  V30 3943 H 386.628 2.61824 4.1146 0
M  V30 3944 H 385.633 4.62255 2.97658 0
M  V30 3945 H 386.858 5.66888 3.73918 0
M  V30 3946 H 384.804 3.97891 5.21554 0
M  V30 3947 H 384.721 5.69315 4.9741 0
M  V30 3948 H 385.989 5.02587 5.95841 0
M  V30 3949 N 390.218 -0.567019 1.47046 0
M  V30 3950 C 391.464 -1.32658 1.53394 0
M  V30 3951 C 391.797 -1.93254 0.19148 0
M  V30 3952 O 391.072 -1.77338 -0.798844 0
M  V30 3953 C 391.355 -2.44412 2.64452 0
M  V30 3954 C 391.208 -1.88749 4.08282 0
M  V30 3955 C 392.527 -3.46387 2.71485 0
M  V30 3956 H 389.646 -0.48098 0.558415 0
M  V30 3957 H 392.288 -0.635481 1.79058 0
M  V30 3958 H 390.438 -3.03363 2.427 0
M  V30 3959 H 392.11 -1.34134 4.41368 0
M  V30 3960 H 390.353 -1.19481 4.17021 0
M  V30 3961 H 391.024 -2.69491 4.81745 0
M  V30 3962 H 393.5 -2.9734 2.91081 0
M  V30 3963 H 392.376 -4.2202 3.50985 0
M  V30 3964 H 392.637 -4.04616 1.78153 0
M  V30 3965 N 391.696 -1.35014 -0.812953 0
M  V30 3966 C 392.659 -1.27292 -1.90602 0
M  V30 3967 C 393.659 -0.185817 -1.59723 0
M  V30 3968 O 394.849 -0.439102 -1.68575 0
M  V30 3969 C 391.981 -0.967676 -3.26877 0
M  V30 3970 H 393.174 -2.24479 -1.9887 0
M  V30 3971 H 390.727 -1.19446 -1.00808 0
M  V30 3972 H 391.462 0.0005954 -3.243 0
M  V30 3973 H 391.247 -1.75412 -3.50675 0
M  V30 3974 H 392.737 -0.939085 -4.06904 0
M  V30 3975 N 393.175 1.03435 -1.18907 0
M  V30 3976 C 394.105 2.13503 -0.945448 0
M  V30 3977 C 395.086 1.69682 0.119189 0
M  V30 3978 O 396.271 1.94169 -0.034707 0
M  V30 3979 C 393.401 3.44004 -0.477316 0
M  V30 3980 C 392.355 4.0148 -1.48316 0
M  V30 3981 C 391.681 5.27537 -0.872311 0
M  V30 3982 C 392.981 4.36921 -2.86177 0
M  V30 3983 H 394.675 2.34141 -1.86597 0
M  V30 3984 H 392.221 1.12523 -0.898584 0
M  V30 3985 H 394.174 4.20372 -0.294204 0
M  V30 3986 H 392.898 3.23072 0.478786 0
M  V30 3987 H 391.557 3.27201 -1.65332 0
M  V30 3988 H 391.205 5.02917 0.0911752 0
M  V30 3989 H 390.905 5.66954 -1.54393 0
M  V30 3990 H 392.429 6.06576 -0.699871 0
M  V30 3991 H 393.843 5.04248 -2.72776 0
M  V30 3992 H 392.24 4.87405 -3.50081 0
M  V30 3993 H 393.31 3.46466 -3.39248 0
M  V30 3994 N 394.653 0.992116 1.22453 0
M  V30 3995 C 395.899 0.668523 1.91464 0
M  V30 3996 C 396.232 -0.797313 1.77078 0
M  V30 3997 O 395.507 -1.5765 1.13916 0
M  V30 3998 C 395.79 1.07424 3.43703 0
M  V30 3999 C 395.643 2.59857 3.67143 0
M  V30 4000 C 396.962 0.626891 4.35612 0
M  V30 4001 H 394.081 0.244341 0.695318 0
M  V30 4002 H 396.723 1.2355 1.44345 0
M  V30 4003 H 394.873 0.591816 3.83966 0
M  V30 4004 H 396.545 3.15764 3.3629 0
M  V30 4005 H 394.788 3.01961 3.11451 0
M  V30 4006 H 395.459 2.83296 4.73759 0
M  V30 4007 H 397.935 1.04125 4.02861 0
M  V30 4008 H 396.811 0.939076 5.40807 0
M  V30 4009 H 397.072 -0.472457 4.39568 0
M  V30 4010 N 396.131 -1.37776 0.765217 0
M  V30 4011 C 397.361 -2.03828 0.337277 0
M  V30 4012 C 397.769 -1.57841 -1.04321 0
M  V30 4013 O 397.112 -0.752043 -1.67601 0
M  V30 4014 C 397.174 -3.58292 0.294407 0
M  V30 4015 C 396.838 -4.27384 1.61838 0
M  V30 4016 C 397.835 -4.51956 2.56967 0
M  V30 4017 C 395.52 -4.65345 1.89102 0
M  V30 4018 C 397.514 -5.13536 3.77571 0
M  V30 4019 C 395.201 -5.26647 3.09978 0
M  V30 4020 C 396.199 -5.50679 4.04032 0
M  V30 4021 O 395.887 -6.10702 5.2278 0
M  V30 4022 H 395.619 -0.661292 0.140248 0
M  V30 4023 H 398.173 -1.77222 1.03834 0
M  V30 4024 H 396.403 -3.83918 -0.462983 0
M  V30 4025 H 398.092 -4.05763 -0.105581 0
M  V30 4026 H 398.858 -4.23048 2.37183 0
M  V30 4027 H 394.737 -4.45978 1.16725 0
M  V30 4028 H 398.281 -5.3221 4.50997 0
M  V30 4029 H 394.178 -5.54979 3.29649 0
M  V30 4030 H 394.946 -6.29183 5.23517 0
M  V30 4031 N 397.609 -0.515225 -1.4894 0
M  V30 4032 C 398.857 0.0241671 -2.02086 0
M  V30 4033 C 399.178 1.3616 -1.3959 0
M  V30 4034 O 398.448 1.87841 -0.556121 0
M  V30 4035 H 397.028 0.0119203 -0.746905 0
M  V30 4036 H 399.69 -0.675702 -1.82812 0
M  V30 4037 H 398.786 0.143385 -3.1177 0
M  V30 4038 N 399.087 1.5561 -0.249682 0
M  V30 4039 C 400.019 2.18834 0.681496 0
M  V30 4040 C 401.032 1.16546 1.1367 0
M  V30 4041 O 402.221 1.43397 1.06299 0
M  V30 4042 C 399.321 2.77992 1.9384 0
M  V30 4043 C 398.494 4.05725 1.63419 0
M  V30 4044 C 397.553 4.49174 2.74096 0
M  V30 4045 O 396.579 5.15492 2.41364 0
M  V30 4046 N 397.781 4.17191 4.03649 0
M  V30 4047 H 400.546 2.9937 0.140514 0
M  V30 4048 H 398.107 1.6175 -0.0697541 0
M  V30 4049 H 400.099 3.04015 2.67127 0
M  V30 4050 H 398.669 2.01596 2.38909 0
M  V30 4051 H 397.889 3.87261 0.736358 0
M  V30 4052 H 399.177 4.88999 1.40562 0
M  V30 4053 H 398.575 3.63955 4.33074 0
M  V30 4054 H 397.132 4.48043 4.73393 0
M  V30 4055 N 400.565 -0.0233959 1.57583 0
M  V30 4056 C 401.498 -1.05549 2.02323 0
M  V30 4057 C 402.476 -1.34843 0.908626 0
M  V30 4058 O 403.66 -1.47404 1.17491 0
M  V30 4059 C 400.787 -2.38885 2.40108 0
M  V30 4060 C 399.833 -2.2541 3.62067 0
M  V30 4061 S 400.666 -1.60217 5.1097 0
M  V30 4062 C 401.822 -2.95032 5.52003 0
M  V30 4063 H 402.055 -0.674435 2.89549 0
M  V30 4064 H 399.588 -0.23355 1.52623 0
M  V30 4065 H 401.546 -3.15562 2.62547 0
M  V30 4066 H 400.207 -2.74137 1.53323 0
M  V30 4067 H 399.4 -3.23854 3.86179 0
M  V30 4068 H 399.002 -1.56876 3.39508 0
M  V30 4069 H 401.294 -3.91357 5.53033 0
M  V30 4070 H 402.237 -2.75646 6.52246 0
M  V30 4071 H 402.645 -2.97865 4.79517 0
M  V30 4072 N 402.043 -1.548 -0.295768 0
M  V30 4073 C 402.991 -1.86874 -1.38495 0
M  V30 4074 C 403.985 -0.742938 -1.52239 0
M  V30 4075 O 405.191 -0.926999 -1.54294 0
M  V30 4076 H 401.566 -0.592786 -0.462719 0
M  V30 4077 H 403.537 -2.77904 -1.08682 0
M  V30 4078 C 402.286 -2.13732 -2.74252 0
M  V30 4079 H 401.609 -2.99835 -2.64459 0
M  V30 4080 H 403.049 -2.4011 -3.49461 0
M  V30 4081 C 401.508 -0.937539 -3.23592 0
M  V30 4082 O 402.038 -0.160665 -4.01379 0
M  V30 4083 N 400.244 -0.741478 -2.80981 0
M  V30 4084 H 399.791 -1.37489 -2.1784 0
M  V30 4085 H 399.749 0.0597103 -3.14343 0
M  V30 4086 N 403.521 0.559213 -1.47345 0
M  V30 4087 C 404.431 1.69388 -1.62311 0
M  V30 4088 C 405.447 1.6648 -0.505993 0
M  V30 4089 O 406.623 1.85964 -0.773262 0
M  V30 4090 C 403.688 3.05894 -1.63185 0
M  V30 4091 C 402.749 3.19885 -2.86307 0
M  V30 4092 C 401.982 4.49879 -2.87131 0
M  V30 4093 O 402.205 5.35217 -1.97229 0
M  V30 4094 O 401.139 4.67618 -3.78968 0
M  V30 4095 H 404.965 1.59706 -2.58317 0
M  V30 4096 H 402.55 0.728989 -1.30407 0
M  V30 4097 H 404.432 3.87133 -1.66451 0
M  V30 4098 H 403.107 3.15964 -0.70345 0
M  V30 4099 H 402.014 2.38052 -2.88587 0
M  V30 4100 H 403.347 3.14718 -3.78435 0
M  V30 4101 N 404.999 1.35443 0.805782 0
M  V30 4102 C 406.41 1.25768 1.37983 0
M  V30 4103 C 406.761 -0.10958 1.95894 0
M  V30 4104 O 405.886 -1.01056 1.91355 0
M  V30 4105 C 406.481 2.27727 2.5085 0
M  V30 4106 C 405.04 2.2179 3.04115 0
M  V30 4107 C 404.187 2.13393 1.77084 0
M  V30 4108 H 407.138 1.4656 0.608752 0
M  V30 4109 H 407.159 1.90422 3.29424 0
M  V30 4110 H 406.671 3.27227 2.08671 0
M  V30 4111 H 404.772 1.25703 3.50756 0
M  V30 4112 H 404.885 3.13788 3.62042 0
M  V30 4113 H 403.249 1.59384 1.98668 0
M  V30 4114 H 404.032 3.14755 1.37056 0
M  V30 4115 N 406.477 -1.02803 1.19454 0
M  V30 4116 C 407.888 -1.57667 0.999899 0
M  V30 4117 C 408.239 -1.91041 -0.446956 0
M  V30 4118 O 407.364 -1.70978 -1.32648 0
M  V30 4119 C 407.959 -2.86477 1.80877 0
M  V30 4120 C 406.518 -3.37911 1.65811 0
M  V30 4121 C 405.665 -2.11343 1.79526 0
M  V30 4122 H 408.616 -0.853214 1.33813 0
M  V30 4123 H 408.637 -3.57408 1.30536 0
M  V30 4124 H 408.149 -2.62155 2.86175 0
M  V30 4125 H 406.25 -3.67218 0.63102 0
M  V30 4126 H 406.363 -4.10885 2.46395 0
M  V30 4127 H 404.727 -2.23254 1.22596 0
M  V30 4128 H 405.51 -1.89461 2.86285 0
M  V30 4129 N 407.956 -0.998596 -1.21925 0
M  V30 4130 C 409.204 -0.676325 -1.90448 0
M  V30 4131 C 409.525 0.794719 -1.78071 0
M  V30 4132 O 408.795 1.5701 -1.17152 0
M  V30 4133 H 407.375 -0.247165 -0.704925 0
M  V30 4134 H 410.037 -1.26633 -1.48156 0
M  V30 4135 H 409.133 -0.943858 -2.97486 0
M  V30 4136 N 409.434 1.37368 -0.772513 0
M  V30 4137 C 410.397 2.28601 -0.165541 0
M  V30 4138 C 411.397 1.48062 0.627238 0
M  V30 4139 O 412.587 1.68268 0.450715 0
M  V30 4140 C 409.719 3.32023 0.772897 0
M  V30 4141 H 410.912 2.83787 -0.969787 0
M  V30 4142 H 408.465 1.46647 -0.540775 0
M  V30 4143 H 409.2 2.81962 1.60212 0
M  V30 4144 H 408.985 3.91555 0.206585 0
M  V30 4145 H 410.475 4.00197 1.19298 0
M  V30 4146 N 410.912 0.523116 1.48665 0
M  V30 4147 C 412.328 0.180511 1.58576 0
M  V30 4148 C 412.528 -1.31597 1.52592 0
M  V30 4149 O 411.584 -2.0937 1.4114 0
M  V30 4150 C 412.897 0.776949 2.90489 0
M  V30 4151 C 414.445 0.745058 3.04003 0
M  V30 4152 C 414.92 1.31995 4.38567 0
M  V30 4153 N 416.411 1.28162 4.45117 0
M  V30 4154 C 417.146 1.6964 5.47731 0
M  V30 4155 N 416.642 2.18816 6.57337 0
M  V30 4156 N 418.435 1.6092 5.38573 0
M  V30 4157 H 410.586 1.4958 1.50797 0
M  V30 4158 H 412.849 0.621772 0.715614 0
M  V30 4159 H 412.555 1.82732 3.00503 0
M  V30 4160 H 412.429 0.25007 3.7637 0
M  V30 4161 H 414.816 -0.296532 2.93606 0
M  V30 4162 H 414.897 1.30933 2.1975 0
M  V30 4163 H 414.541 2.36043 4.49718 0
M  V30 4164 H 414.471 0.731418 5.21496 0
M  V30 4165 H 416.962 0.92155 3.66491 0
M  V30 4166 H 417.275 2.48478 7.31764 0
M  V30 4167 H 415.62 2.22805 6.58318 0
M  V30 4168 H 418.811 1.22304 4.5184 0
M  V30 4169 H 418.984 1.93567 6.18414 0
M  V30 4170 N 412.39 -1.55475 0.257931 0
M  V30 4171 C 413.353 -2.20551 -0.623706 0
M  V30 4172 C 414.353 -1.17809 -1.09443 0
M  V30 4173 O 415.543 -1.42823 -0.997362 0
M  V30 4174 C 412.675 -2.85784 -1.8585 0
M  V30 4175 H 413.868 -2.99848 -0.0557743 0
M  V30 4176 H 411.421 -1.56298 0.0084422 0
M  V30 4177 H 412.156 -2.10453 -2.46739 0
M  V30 4178 H 411.941 -3.61057 -1.52907 0
M  V30 4179 H 413.431 -3.35553 -2.48584 0
M  V30 4180 N 413.868 0.0150385 -1.57593 0
M  V30 4181 C 415.284 0.370907 -1.5523 0
M  V30 4182 C 415.484 1.75735 -0.985882 0
M  V30 4183 O 414.54 2.44944 -0.613077 0
M  V30 4184 C 415.853 0.259908 -2.99575 0
M  V30 4185 C 417.401 0.335959 -3.11192 0
M  V30 4186 C 417.876 0.254253 -4.57294 0
M  V30 4187 N 419.367 0.312618 -4.62144 0
M  V30 4188 C 420.102 0.272505 -5.72752 0
M  V30 4189 N 419.598 0.183864 -6.92556 0
M  V30 4190 N 421.391 0.323267 -5.6117 0
M  V30 4191 H 413.542 -0.892104 -1.92757 0
M  V30 4192 H 415.805 -0.340563 -0.884715 0
M  V30 4193 H 415.511 -0.693403 -3.44797 0
M  V30 4194 H 415.385 1.048 -3.62349 0
M  V30 4195 H 417.772 1.27971 -2.65909 0
M  V30 4196 H 417.853 -0.481739 -2.51223 0
M  V30 4197 H 417.497 -0.685887 -5.03247 0
M  V30 4198 H 417.427 1.09024 -5.15191 0
M  V30 4199 H 419.918 0.38307 -3.75953 0
M  V30 4200 H 420.231 0.15874 -7.72637 0
M  V30 4201 H 418.576 0.149708 -6.94839 0
M  V30 4202 H 421.767 0.390607 -4.66467 0
M  V30 4203 H 421.94 0.288539 -6.47357 0
M  V30 4204 N 415.346 1.54954 0.287554 0
M  V30 4205 C 416.592 1.75132 1.02257 0
M  V30 4206 C 416.925 0.542858 1.86458 0
M  V30 4207 O 416.2 -0.459856 1.88986 0
M  V30 4208 C 416.483 3.04812 1.91733 0
M  V30 4209 C 416.336 4.35985 1.10622 0
M  V30 4210 C 417.655 3.30438 2.90687 0
M  V30 4211 H 414.774 0.637194 0.370341 0
M  V30 4212 H 417.416 1.87678 0.296111 0
M  V30 4213 H 415.566 2.94247 2.53675 0
M  V30 4214 H 417.238 4.58487 0.508636 0
M  V30 4215 H 415.481 4.31865 0.409271 0
M  V30 4216 H 416.152 5.23017 1.76513 0
M  V30 4217 H 418.628 3.40701 2.38877 0
M  V30 4218 H 417.504 4.22467 3.50447 0
M  V30 4219 H 417.765 2.49377 3.65053 0
M  V30 4220 N 416.824 -0.551391 1.4764 0
M  V30 4221 C 417.787 -1.64007 1.60107 0
M  V30 4222 C 418.787 -1.53601 0.47576 0
M  V30 4223 O 419.977 -1.57655 0.740988 0
M  V30 4224 C 417.109 -3.03569 1.55108 0
M  V30 4225 H 418.302 -1.543 2.57161 0
M  V30 4226 H 415.855 -0.771776 1.35917 0
M  V30 4227 H 416.59 -3.18804 0.594519 0
M  V30 4228 H 416.375 -3.12532 2.36783 0
M  V30 4229 H 417.865 -3.82762 1.66982 0
M  V30 4230 N 418.302 -1.35869 -0.798587 0
M  V30 4231 C 419.232 -1.32118 -1.92528 0
M  V30 4232 C 420.213 -0.194209 -1.68988 0
M  V30 4233 O 421.398 -0.390426 -1.90235 0
M  V30 4234 C 418.528 -1.10047 -3.29404 0
M  V30 4235 C 417.482 -2.19471 -3.67446 0
M  V30 4236 C 416.808 -1.82555 -5.02571 0
M  V30 4237 C 418.108 -3.61495 -3.76987 0
M  V30 4238 H 419.802 -2.26394 -1.95924 0
M  V30 4239 H 417.348 -1.08981 -0.94123 0
M  V30 4240 H 419.301 -1.06061 -4.07835 0
M  V30 4241 H 418.025 -0.122195 -3.26371 0
M  V30 4242 H 416.684 -2.22568 -2.91306 0
M  V30 4243 H 416.332 -0.833249 -4.9605 0
M  V30 4244 H 416.032 -2.5581 -5.28995 0
M  V30 4245 H 417.556 -1.80108 -5.83432 0
M  V30 4246 H 418.97 -3.60676 -4.4563 0
M  V30 4247 H 417.367 -4.33577 -4.14887 0
M  V30 4248 H 418.437 -3.97065 -2.78329 0
M  V30 4249 N 419.78 1.02168 -1.19998 0
M  V30 4250 C 421.008 1.79296 -1.03249 0
M  V30 4251 C 421.423 1.84103 0.418502 0
M  V30 4252 O 420.78 1.29031 1.29063 0
M  V30 4253 C 420.831 3.24007 -1.60319 0
M  V30 4254 O 420.552 3.19512 -2.99739 0
M  V30 4255 C 422.053 4.17704 -1.48453 0
M  V30 4256 H 419.273 0.564016 -0.363493 0
M  V30 4257 H 421.817 1.28639 -1.58973 0
M  V30 4258 H 419.972 3.7183 -1.08727 0
M  V30 4259 H 420.386 4.10306 -3.26725 0
M  V30 4260 H 421.86 5.17104 -1.93153 0
M  V30 4261 H 422.337 4.37029 -0.436193 0
M  V30 4262 H 422.943 3.7576 -1.99211 0
M  V30 4263 N 421.258 1.00505 1.21394 0
M  V30 4264 C 422.506 0.686415 1.90086 0
M  V30 4265 C 422.827 -0.785264 1.7849 0
M  V30 4266 O 422.097 -1.56387 1.17983 0
M  V30 4267 H 420.677 0.2509 0.703604 0
M  V30 4268 H 423.339 1.27417 1.47482 0
M  V30 4269 H 422.435 0.959621 2.96981 0
M  V30 4270 N 422.737 -1.36956 0.779787 0
M  V30 4271 C 423.667 -2.32761 0.185651 0
M  V30 4272 C 424.648 -1.56177 -0.673989 0
M  V30 4273 O 425.833 -1.84378 -0.609797 0
M  V30 4274 C 422.963 -3.40418 -0.687964 0
M  V30 4275 C 421.917 -4.27941 0.0710102 0
M  V30 4276 C 421.243 -5.26681 -0.922573 0
M  V30 4277 C 422.543 -5.07006 1.25467 0
M  V30 4278 H 424.237 -2.82698 0.986008 0
M  V30 4279 H 421.783 -1.3592 0.475592 0
M  V30 4280 H 423.736 -4.06423 -1.11348 0
M  V30 4281 H 422.46 -2.89025 -1.52093 0
M  V30 4282 H 421.119 -3.63478 0.47739 0
M  V30 4283 H 420.767 -4.71565 -1.7503 0
M  V30 4284 H 420.467 -5.86103 -0.419237 0
M  V30 4285 H 421.991 -5.9556 -1.34686 0
M  V30 4286 H 423.405 -5.66105 0.905401 0
M  V30 4287 H 421.802 -5.75793 1.69063 0
M  V30 4288 H 422.872 -4.3921 2.05481 0
M  V30 4289 N 424.215 -0.530993 -1.48385 0
M  V30 4290 C 425.443 -0.00134122 -2.069 0
M  V30 4291 C 425.858 1.2805 -1.3874 0
M  V30 4292 O 425.215 1.76204 -0.475244 0
M  V30 4293 C 425.266 0.225256 -3.60798 0
M  V30 4294 O 424.987 -1.0058 -4.26398 0
M  V30 4295 C 426.488 0.795172 -4.3611 0
M  V30 4296 H 423.708 -0.0339704 -0.67014 0
M  V30 4297 H 426.252 -0.736926 -1.90761 0
M  V30 4298 H 424.407 0.910891 -3.76539 0
M  V30 4299 H 424.821 -0.787165 -5.1856 0
M  V30 4300 H 426.295 0.903143 -5.44562 0
M  V30 4301 H 426.772 1.80031 -4.00606 0
M  V30 4302 H 427.378 0.146069 -4.25049 0
M  V30 4303 N 425.693 1.55336 -0.266172 0
M  V30 4304 C 426.939 1.99692 0.353681 0
M  V30 4305 C 427.272 1.1543 1.56172 0
M  V30 4306 O 426.547 0.222218 1.93226 0
M  V30 4307 C 426.83 3.52316 0.74466 0
M  V30 4308 C 426.683 4.47337 -0.470101 0
M  V30 4309 C 428.002 4.10588 1.58447 0
M  V30 4310 H 425.121 0.725961 0.12708 0
M  V30 4311 H 427.763 1.86336 -0.371333 0
M  V30 4312 H 425.913 3.63829 1.36239 0
M  V30 4313 H 427.585 4.4778 -1.10864 0
M  V30 4314 H 425.828 4.19364 -1.10978 0
M  V30 4315 H 426.499 5.51788 -0.15291 0
M  V30 4316 H 428.975 4.02297 1.06286 0
M  V30 4317 H 427.851 5.17607 1.82686 0
M  V30 4318 H 428.112 3.60253 2.56262 0
M  V30 4319 N 427.171 -0.0066808 1.57599 0
M  V30 4320 C 428.134 -0.985035 2.06953 0
M  V30 4321 C 429.134 -1.27663 0.977687 0
M  V30 4322 O 430.324 -1.22293 1.24057 0
M  V30 4323 C 427.456 -2.3118 2.50536 0
M  V30 4324 H 428.649 -0.558255 2.94658 0
M  V30 4325 H 426.202 -0.254011 1.54222 0
M  V30 4326 H 426.937 -2.78561 1.66054 0
M  V30 4327 H 426.722 -2.11338 3.3027 0
M  V30 4328 H 428.212 -3.01377 2.8907 0
M  V30 4329 N 428.649 -1.55105 -0.279332 0
M  V30 4330 C 429.559 -1.90638 -1.36727 0
M  V30 4331 C 430.575 -0.802899 -1.54368 0
M  V30 4332 O 431.751 -1.10138 -1.68616 0
M  V30 4333 C 428.816 -2.16547 -2.70755 0
M  V30 4334 C 427.877 -3.40146 -2.61915 0
M  V30 4335 C 427.11 -3.6481 -3.8955 0
M  V30 4336 O 427.333 -2.92095 -4.89935 0
M  V30 4337 O 426.267 -4.58343 -3.90135 0
M  V30 4338 H 430.093 -2.83237 -1.09591 0
M  V30 4339 H 427.678 -1.4157 -0.477306 0
M  V30 4340 H 429.56 -2.34665 -3.50014 0
M  V30 4341 H 428.235 -1.27131 -2.9769 0
M  V30 4342 H 427.142 -3.2737 -1.81052 0
M  V30 4343 H 428.475 -4.29761 -2.3993 0
M  V30 4344 N 430.127 0.543554 -1.4793 0
M  V30 4345 C 431.357 1.32324 -1.58663 0
M  V30 4346 C 431.765 1.8766 -0.240896 0
M  V30 4347 O 431.108 1.66411 0.778011 0
M  V30 4348 C 431.17 2.52094 -2.56299 0
M  V30 4349 C 430.834 2.17944 -4.01683 0
M  V30 4350 C 431.831 1.74422 -4.89768 0
M  V30 4351 C 429.516 2.28884 -4.47121 0
M  V30 4352 C 431.51 1.42287 -6.21316 0
M  V30 4353 C 429.197 1.96361 -5.78693 0
M  V30 4354 C 430.195 1.53132 -6.65612 0
M  V30 4355 O 429.883 1.21029 -7.94737 0
M  V30 4356 H 429.615 0.409174 -0.538101 0
M  V30 4357 H 432.169 0.663887 -1.94375 0
M  V30 4358 H 430.399 3.20965 -2.15681 0
M  V30 4359 H 432.088 3.14165 -2.57012 0
M  V30 4360 H 432.854 1.65452 -4.55907 0
M  V30 4361 H 428.733 2.61488 -3.79664 0
M  V30 4362 H 432.277 1.08472 -6.89115 0
M  V30 4363 H 428.174 2.04967 -6.12094 0
M  V30 4364 H 428.942 1.34543 -8.07366 0
M  V30 4365 N 431.605 1.3629 0.791371 0
M  V30 4366 C 432.852 1.30412 1.54916 0
M  V30 4367 C 433.18 -0.117162 1.94147 0
M  V30 4368 O 432.435 -1.08599 1.62803 0
M  V30 4369 C 432.734 2.17068 2.8393 0
M  V30 4370 C 432.4 3.65645 2.63846 0
M  V30 4371 C 431.062 4.0614 2.58077 0
M  V30 4372 C 433.414 4.59855 2.45322 0
M  V30 4373 C 430.742 5.3899 2.31748 0
M  V30 4374 C 433.094 5.9292 2.2052 0
M  V30 4375 C 431.758 6.32542 2.13183 0
M  V30 4376 H 431.028 0.47721 0.566879 0
M  V30 4377 H 433.675 1.68325 0.913172 0
M  V30 4378 H 431.98 1.72085 3.51986 0
M  V30 4379 H 433.677 2.09846 3.4171 0
M  V30 4380 H 430.267 3.33518 2.69191 0
M  V30 4381 H 434.451 4.29443 2.48782 0
M  V30 4382 H 429.707 5.68672 2.24548 0
M  V30 4383 H 433.881 6.65487 2.05182 0
M  V30 4384 H 431.508 7.35412 1.92544 0
M  V30 4385 N 433.083 -1.0153 1.20538 0
M  V30 4386 C 434.499 -1.27461 0.96051 0
M  V30 4387 C 434.699 -1.98273 -0.359193 0
M  V30 4388 O 433.755 -2.27886 -1.0874 0
M  V30 4389 C 435.068 -2.10837 2.14402 0
M  V30 4390 C 436.616 -2.24099 2.18515 0
M  V30 4391 C 437.091 -3.10852 3.36355 0
M  V30 4392 N 438.582 -3.18441 3.36377 0
M  V30 4393 C 439.317 -3.85795 4.24205 0
M  V30 4394 N 438.813 -4.55264 5.22213 0
M  V30 4395 N 440.606 -3.82331 4.12043 0
M  V30 4396 H 432.757 -0.539907 2.05423 0
M  V30 4397 H 435.02 -0.30092 0.898972 0
M  V30 4398 H 434.726 -1.66144 3.09983 0
M  V30 4399 H 434.6 -3.11576 2.12604 0
M  V30 4400 H 436.987 -2.68016 1.23497 0
M  V30 4401 H 437.068 -1.22865 2.24361 0
M  V30 4402 H 436.712 -2.6764 4.31661 0
M  V30 4403 H 436.642 -4.12177 3.27746 0
M  V30 4404 H 439.133 -2.68978 2.65442 0
M  V30 4405 H 439.446 -5.04331 5.85551 0
M  V30 4406 H 437.791 -4.54085 5.26148 0
M  V30 4407 H 440.982 -3.27207 3.34743 0
M  V30 4408 H 441.155 -4.34547 4.807 0
M  V30 4409 N 434.561 -1.01147 -1.20859 0
M  V30 4410 C 435.838 -0.613136 -1.85742 0
M  V30 4411 C 436.218 0.909004 -1.90526 0
M  V30 4412 O 435.566 1.79862 -1.40932 0
M  V30 4413 C 435.776 -1.255 -3.25654 0
M  V30 4414 C 437.124 -1.3672 -4.01986 0
M  V30 4415 O 438.148 -1.21082 -3.34989 0
M  V30 4416 O 437.007 -1.6194 -5.21956 0
M  V30 4417 H 434.101 -0.210878 -0.799662 0
M  V30 4418 H 436.647 -1.10853 -1.2849 0
M  V30 4419 H 435.419 -2.29532 -3.16908 0
M  V30 4420 H 435.042 -0.746369 -3.90532 0
M  V30 4421 N 436.039 1.36541 -0.78704 0
M  V30 4422 C 436.971 2.28761 -0.141773 0
M  V30 4423 C 437.984 1.49365 0.647599 0
M  V30 4424 O 439.173 1.71836 0.483173 0
M  V30 4425 C 436.273 3.28771 0.822368 0
M  V30 4426 C 435.446 4.3732 0.0835594 0
M  V30 4427 C 434.505 5.17307 0.963296 0
M  V30 4428 O 433.531 5.67638 0.421419 0
M  V30 4429 N 434.733 5.33515 2.28784 0
M  V30 4430 H 437.498 2.84777 -0.933919 0
M  V30 4431 H 435.059 1.48682 -0.640735 0
M  V30 4432 H 437.051 3.79169 1.41468 0
M  V30 4433 H 435.621 2.73412 1.5154 0
M  V30 4434 H 434.841 3.88118 -0.689809 0
M  V30 4435 H 436.129 5.0701 -0.426358 0
M  V30 4436 H 435.527 4.94234 2.75226 0
M  V30 4437 H 434.084 5.87165 2.82985 0
M  V30 4438 N 437.518 0.538854 1.48102 0
M  V30 4439 C 438.428 -0.222648 2.33541 0
M  V30 4440 C 439.444 -0.930225 1.47047 0
M  V30 4441 O 440.62 -0.903211 1.80011 0
M  V30 4442 C 437.685 -1.25064 3.23357 0
M  V30 4443 C 436.746 -0.552469 4.2573 0
M  V30 4444 C 435.979 -1.53149 5.11254 0
M  V30 4445 O 436.202 -2.76487 4.9891 0
M  V30 4446 O 435.136 -1.06602 5.92385 0
M  V30 4447 H 438.962 0.477707 2.99919 0
M  V30 4448 H 436.547 0.299669 1.46364 0
M  V30 4449 H 438.429 -1.8445 3.78888 0
M  V30 4450 H 437.104 -1.93325 2.59629 0
M  V30 4451 H 436.011 0.082114 3.7401 0
M  V30 4452 H 437.344 0.0883526 4.92121 0
M  V30 4453 N 438.996 -1.55193 0.274407 0
M  V30 4454 C 440.244 -1.99187 -0.341902 0
M  V30 4455 C 440.565 -1.16422 -1.56431 0
M  V30 4456 O 439.835 -0.253573 -1.94252 0
M  V30 4457 H 438.415 -0.735721 -0.129317 0
M  V30 4458 H 441.077 -1.91168 0.379578 0
M  V30 4459 H 440.173 -3.05629 -0.632253 0
M  V30 4460 N 440.474 -0.00167713 -1.576 0
M  V30 4461 C 441.406 1.0174 -2.05382 0
M  V30 4462 C 442.419 1.30595 -0.972052 0
M  V30 4463 O 443.608 1.27542 -1.24882 0
M  V30 4464 C 440.708 2.35174 -2.44022 0
M  V30 4465 C 439.881 2.25234 -3.74951 0
M  V30 4466 C 438.94 3.4137 -4.00441 0
M  V30 4467 O 437.966 3.19483 -4.71083 0
M  V30 4468 N 439.168 4.64275 -3.48467 0
M  V30 4469 H 441.933 0.609902 -2.93428 0
M  V30 4470 H 439.494 0.185672 -1.60832 0
M  V30 4471 H 441.486 3.11643 -2.58187 0
M  V30 4472 H 440.056 2.67659 -1.61485 0
M  V30 4473 H 439.276 1.33664 -3.70847 0
M  V30 4474 H 440.564 2.15767 -4.60784 0
M  V30 4475 H 439.962 4.84955 -2.91264 0
M  V30 4476 H 438.519 5.38005 -3.67959 0
M  V30 4477 N 441.952 1.55251 0.271103 0
M  V30 4478 C 443.229 1.66664 1.02384 0
M  V30 4479 C 443.609 0.534363 2.04225 0
M  V30 4480 O 442.957 -0.465337 2.23712 0
M  V30 4481 C 443.167 3.05961 1.67895 0
M  V30 4482 C 444.515 3.63772 2.18986 0
M  V30 4483 O 445.539 3.08606 1.77878 0
M  V30 4484 O 444.398 4.60429 2.94393 0
M  V30 4485 H 441.492 0.676957 0.475035 0
M  V30 4486 H 444.038 1.67589 0.26681 0
M  V30 4487 H 442.81 3.79815 0.941071 0
M  V30 4488 H 442.433 3.08943 2.5028 0
M  V30 4489 N 443.43 -0.535701 1.48216 0
M  V30 4490 C 444.676 -1.29375 1.56173 0
M  V30 4491 C 445.009 -1.92804 0.232429 0
M  V30 4492 O 444.284 -1.78992 -0.761048 0
M  V30 4493 C 444.567 -2.38747 2.69577 0
M  V30 4494 C 444.42 -1.80046 4.12193 0
M  V30 4495 C 445.739 -3.40551 2.78771 0
M  V30 4496 H 442.858 -0.469027 0.568491 0
M  V30 4497 H 445.5 -0.597358 1.80365 0
M  V30 4498 H 443.65 -2.98147 2.4908 0
M  V30 4499 H 445.322 -1.24742 4.44114 0
M  V30 4500 H 443.565 -1.10609 4.19462 0
M  V30 4501 H 444.236 -2.59212 4.87353 0
M  V30 4502 H 446.712 -2.91099 2.97322 0
M  V30 4503 H 445.588 -4.1448 3.59857 0
M  V30 4504 H 445.849 -4.00746 1.86696 0
M  V30 4505 N 444.908 -1.36708 -0.784132 0
M  V30 4506 C 445.838 -1.34153 -1.91116 0
M  V30 4507 C 446.819 -0.212121 -1.68772 0
M  V30 4508 O 448.004 -0.410581 -1.8981 0
M  V30 4509 C 445.134 -1.13535 -3.28218 0
M  V30 4510 C 444.088 -2.23356 -3.65097 0
M  V30 4511 C 443.414 -1.87875 -5.00607 0
M  V30 4512 C 444.714 -3.65473 -3.73131 0
M  V30 4513 H 446.408 -2.28459 -1.93512 0
M  V30 4514 H 443.954 -1.09973 -0.929618 0
M  V30 4515 H 445.907 -1.10381 -4.06687 0
M  V30 4516 H 444.631 -0.156804 -3.26223 0
M  V30 4517 H 443.29 -2.25645 -2.88929 0
M  V30 4518 H 442.938 -0.885814 -4.95139 0
M  V30 4519 H 442.638 -2.61406 -5.26252 0
M  V30 4520 H 444.162 -1.86286 -5.81489 0
M  V30 4521 H 445.576 -3.65382 -4.41779 0
M  V30 4522 H 443.973 -4.37953 -4.10265 0
M  V30 4523 H 445.043 -3.99995 -2.74102 0
M  V30 4524 N 446.386 1.0089 -1.21074 0
M  V30 4525 C 447.316 2.1145 -0.990523 0
M  V30 4526 C 448.297 1.69897 0.0831699 0
M  V30 4527 O 449.482 1.94052 -0.0758853 0
M  V30 4528 C 446.612 3.42914 -0.550177 0
M  V30 4529 C 445.566 3.98244 -1.56799 0
M  V30 4530 C 444.892 5.25568 -0.984013 0
M  V30 4531 C 446.192 4.30752 -2.95381 0
M  V30 4532 H 447.886 2.3013 -1.91521 0
M  V30 4533 H 445.432 1.10592 -0.92225 0
M  V30 4534 H 447.385 4.19653 -0.383305 0
M  V30 4535 H 446.109 3.24014 0.41015 0
M  V30 4536 H 444.768 3.23621 -1.72236 0
M  V30 4537 H 444.416 5.02998 -0.0155216 0
M  V30 4538 H 444.116 5.63551 -1.66384 0
M  V30 4539 H 445.64 6.04955 -0.828378 0
M  V30 4540 H 447.054 4.98349 -2.8341 0
M  V30 4541 H 445.451 4.79869 -3.60341 0
M  V30 4542 H 446.521 3.39192 -3.46521 0
M  V30 4543 N 447.864 1.01787 1.20321 0
M  V30 4544 C 449.111 0.707936 1.89722 0
M  V30 4545 C 449.439 -0.762535 1.78929 0
M  V30 4546 O 448.694 -1.56977 1.16861 0
M  V30 4547 C 448.993 1.09076 3.40349 0
M  V30 4548 C 448.659 2.55765 3.71342 0
M  V30 4549 C 447.321 2.95845 3.79511 0
M  V30 4550 C 449.673 3.50723 3.85542 0
M  V30 4551 C 447.001 4.2982 3.99339 0
M  V30 4552 C 449.353 4.84387 4.06881 0
M  V30 4553 C 448.017 5.24172 4.1328 0
M  V30 4554 H 447.287 0.259052 0.694243 0
M  V30 4555 H 449.934 1.27868 1.42555 0
M  V30 4556 H 448.239 0.438453 3.89339 0
M  V30 4557 H 449.936 0.828636 3.92345 0
M  V30 4558 H 446.526 2.2371 3.65584 0
M  V30 4559 H 450.71 3.20916 3.78585 0
M  V30 4560 H 445.966 4.60196 4.02529 0
M  V30 4561 H 450.14 5.57891 4.1681 0
M  V30 4562 H 447.767 6.27997 4.28396 0
M  V30 4563 N 449.342 -1.36122 0.79427 0
M  V30 4564 C 450.591 -1.98361 0.365464 0
M  V30 4565 C 450.904 -1.6374 -1.06997 0
M  V30 4566 O 452.11 -2.19251 -1.60129 0
M  V30 4567 C 450.566 -3.54821 0.602496 0
M  V30 4568 C 450.174 -3.98362 2.04967 0
M  V30 4569 C 451.918 -4.2383 0.238437 0
M  V30 4570 C 449.825 -5.47619 2.2331 0
M  V30 4571 H 448.755 -0.742193 0.13291 0
M  V30 4572 H 451.406 -1.55354 0.976589 0
M  V30 4573 H 449.788 -3.95922 -0.078409 0
M  V30 4574 H 450.962 -3.68447 2.76737 0
M  V30 4575 H 449.277 -3.42206 2.37243 0
M  V30 4576 H 451.874 -5.33529 0.353705 0
M  V30 4577 H 452.217 -4.08264 -0.814006 0
M  V30 4578 H 452.75 -3.88108 0.872769 0
M  V30 4579 H 449.489 -5.68138 3.26955 0
M  V30 4580 H 449.009 -5.79145 1.5605 0
M  V30 4581 H 450.688 -6.13911 2.0426 0
M  V30 4582 N 450.82 -0.546701 -1.47814 0
M  V30 4583 C 452.097 0.0464413 -1.95545 0
M  V30 4584 C 452.477 1.4962 -1.48919 0
M  V30 4585 O 451.825 2.16752 -0.723232 0
M  V30 4586 C 452.035 -0.0881298 -3.48889 0
M  V30 4587 C 453.383 0.0626059 -4.24554 0
M  V30 4588 O 454.407 -0.0151555 -3.56197 0
M  V30 4589 O 453.266 0.228071 -5.46024 0
M  V30 4590 H 450.36 0.0700004 -0.824032 0
M  V30 4591 H 452.906 -0.612482 -1.58262 0
M  V30 4592 H 451.678 -1.09737 -3.75597 0
M  V30 4593 H 451.301 0.608886 -3.9291 0
M  V30 4594 N 452.299 1.55045 -0.282633 0
M  V30 4595 C 453.247 2.24254 0.617478 0
M  V30 4596 C 454.241 1.24215 1.15183 0
M  V30 4597 O 455.447 1.42123 1.10459 0
M  V30 4598 H 451.822 0.719801 0.217693 0
M  V30 4599 H 453.793 2.98398 0.0110076 0
M  V30 4600 C 452.542 2.98281 1.78672 0
M  V30 4601 H 451.865 3.75053 1.38475 0
M  V30 4602 H 453.305 3.50017 2.393 0
M  V30 4603 C 451.764 2.04184 2.67975 0
M  V30 4604 O 452.294 1.59792 3.6855 0
M  V30 4605 N 450.5 1.70526 2.35307 0
M  V30 4606 H 450.047 2.06821 1.53567 0
M  V30 4607 H 450.005 1.07839 2.95327 0
M  V30 4608 N 453.777 0.010035 1.57597 0
M  V30 4609 C 455.026 -0.671945 1.90178 0
M  V30 4610 C 455.339 -1.74376 0.886131 0
M  V30 4611 O 456.545 -2.48107 1.10252 0
M  V30 4612 C 455.001 -1.24636 3.3763 0
M  V30 4613 C 454.609 -0.208838 4.47513 0
M  V30 4614 C 456.353 -1.90595 3.79307 0
M  V30 4615 C 454.26 -0.793814 5.86048 0
M  V30 4616 H 453.19 -0.25474 0.709665 0
M  V30 4617 H 455.841 0.0722206 1.83358 0
M  V30 4618 H 454.223 -2.04152 3.3932 0
M  V30 4619 H 455.397 0.562463 4.57354 0
M  V30 4620 H 453.712 0.350889 4.14919 0
M  V30 4621 H 456.309 -2.35284 4.80151 0
M  V30 4622 H 456.652 -2.74074 3.13352 0
M  V30 4623 H 457.185 -1.17798 3.79958 0
M  V30 4624 H 453.924 0.00240855 6.555 0
M  V30 4625 H 453.444 -1.53404 5.79851 0
M  V30 4626 H 455.123 -1.2894 6.34022 0
M  V30 4627 N 455.255 -1.55392 -0.262866 0
M  V30 4628 C 456.502 -1.76476 -0.993109 0
M  V30 4629 C 456.83 -0.571479 -1.85915 0
M  V30 4630 O 456.085 0.445733 -1.90556 0
M  V30 4631 C 456.384 -3.02889 -1.89718 0
M  V30 4632 C 456.05 -4.34974 -1.18781 0
M  V30 4633 C 454.712 -4.7087 -0.991699 0
M  V30 4634 C 457.064 -5.16695 -0.683798 0
M  V30 4635 C 454.392 -5.86036 -0.279024 0
M  V30 4636 C 456.744 -6.32598 0.0153327 0
M  V30 4637 C 455.408 -6.67127 0.223062 0
M  V30 4638 H 454.678 -0.64577 -0.363404 0
M  V30 4639 H 457.325 -1.89664 -0.264525 0
M  V30 4640 H 455.63 -2.84644 -2.6923 0
M  V30 4641 H 457.327 -3.16399 -2.46359 0
M  V30 4642 H 453.917 -4.06765 -1.35058 0
M  V30 4643 H 458.101 -4.8943 -0.8229 0
M  V30 4644 H 453.357 -6.11306 -0.107456 0
M  V30 4645 H 457.531 -6.95171 0.413584 0
M  V30 4646 H 455.158 -7.56216 0.777265 0
M  V30 4647 N 456.733 0.527833 -1.48498 0
M  V30 4648 C 458.149 0.856571 -1.34666 0
M  V30 4649 C 458.349 1.98271 -0.35931 0
M  V30 4650 O 457.405 2.51551 0.218703 0
M  V30 4651 C 458.718 1.22207 -2.74747 0
M  V30 4652 C 460.266 1.33183 -2.83251 0
M  V30 4653 C 460.741 1.73075 -4.24039 0
M  V30 4654 N 462.232 1.80174 -4.26722 0
M  V30 4655 C 462.967 2.1243 -5.32598 0
M  V30 4656 N 462.463 2.43096 -6.4875 0
M  V30 4657 N 464.256 2.13454 -5.19994 0
M  V30 4658 H 456.407 -0.215174 -2.11307 0
M  V30 4659 H 458.67 -0.0336281 -0.947403 0
M  V30 4660 H 458.376 0.468195 -3.4857 0
M  V30 4661 H 458.25 2.17173 -3.08409 0
M  V30 4662 H 460.637 2.07647 -2.09683 0
M  V30 4663 H 460.718 0.363333 -2.53206 0
M  V30 4664 H 460.362 0.991712 -4.98124 0
M  V30 4665 H 460.292 2.70979 -4.51529 0
M  V30 4666 H 462.783 1.58744 -3.42942 0
M  V30 4667 H 463.096 2.6682 -7.25277 0
M  V30 4668 H 461.441 2.40611 -6.52021 0
M  V30 4669 H 464.632 1.88956 -4.28268 0
M  V30 4670 H 464.805 2.38261 -6.02608 0
M  V30 4671 N 458.211 1.37122 0.776871 0
M  V30 4672 C 459.458 1.32047 1.53524 0
M  V30 4673 C 459.786 -0.0965631 1.9426 0
M  V30 4674 O 459.041 -1.06866 1.63945 0
M  V30 4675 C 459.34 2.20068 2.81611 0
M  V30 4676 C 459.006 3.68423 2.59953 0
M  V30 4677 C 457.668 4.08854 2.53755 0
M  V30 4678 C 460.02 4.62431 2.40431 0
M  V30 4679 C 457.348 5.41417 2.26018 0
M  V30 4680 C 459.7 5.95225 2.14219 0
M  V30 4681 C 458.364 6.34767 2.06462 0
M  V30 4682 H 457.634 0.483196 0.561785 0
M  V30 4683 H 460.281 1.69284 0.895268 0
M  V30 4684 H 458.586 1.75809 3.50141 0
M  V30 4685 H 460.283 2.13458 3.39465 0
M  V30 4686 H 456.873 3.36354 2.65638 0
M  V30 4687 H 461.057 4.32057 2.44213 0
M  V30 4688 H 456.313 5.71022 2.18504 0
M  V30 4689 H 460.487 6.67626 1.98112 0
M  V30 4690 H 458.114 7.37413 1.84733 0
M  V30 4691 N 459.689 -1.00246 1.21608 0
M  V30 4692 C 460.917 -1.77631 1.06089 0
M  V30 4693 C 461.332 -1.84746 -0.38916 0
M  V30 4694 O 460.689 -1.31068 -1.26994 0
M  V30 4695 C 460.74 -3.21415 1.65453 0
M  V30 4696 O 460.461 -3.14703 3.04785 0
M  V30 4697 C 461.962 -4.15289 1.55079 0
M  V30 4698 H 459.182 -0.558162 0.37242 0
M  V30 4699 H 461.726 -1.26093 1.60999 0
M  V30 4700 H 459.881 -3.70053 1.14629 0
M  V30 4701 H 460.295 -4.05056 3.33212 0
M  V30 4702 H 461.769 -5.13965 2.01355 0
M  V30 4703 H 462.246 -4.36279 0.505665 0
M  V30 4704 H 462.852 -3.72543 2.05163 0
M  V30 4705 N 461.167 -1.02423 -1.1978 0
M  V30 4706 C 462.099 -0.559152 -2.22275 0
M  V30 4707 C 463.112 0.36251 -1.58713 0
M  V30 4708 O 464.301 0.159641 -1.77785 0
M  V30 4709 C 461.401 0.205094 -3.38279 0
M  V30 4710 C 460.574 -0.720361 -4.31427 0
M  V30 4711 C 459.633 -0.00234368 -5.262 0
M  V30 4712 O 458.659 -0.627378 -5.65732 0
M  V30 4713 N 459.861 1.26996 -5.66438 0
M  V30 4714 H 462.626 -1.44064 -2.62804 0
M  V30 4715 H 460.187 -0.902692 -1.34399 0
M  V30 4716 H 462.179 0.694868 -3.9869 0
M  V30 4717 H 460.749 0.987947 -2.96578 0
M  V30 4718 H 459.969 -1.39031 -3.68869 0
M  V30 4719 H 461.257 -1.3495 -4.90577 0
M  V30 4720 H 460.655 1.79858 -5.36347 0
M  V30 4721 H 459.212 1.70432 -6.29123 0
M  V30 4722 N 462.645 1.35699 -0.801477 0
M  V30 4723 C 463.608 2.28199 -0.213994 0
M  V30 4724 C 464.608 1.49359 0.595691 0
M  V30 4725 O 465.798 1.69186 0.414921 0
M  V30 4726 C 462.93 3.33587 0.702297 0
M  V30 4727 H 464.123 2.81666 -1.02976 0
M  V30 4728 H 461.676 1.45467 -0.571759 0
M  V30 4729 H 462.411 2.85297 1.54195 0
M  V30 4730 H 462.196 3.91906 0.123484 0
M  V30 4731 H 463.686 4.02638 1.10783 0
M  V30 4732 N 464.123 0.554532 1.47522 0
M  V30 4733 C 465.371 0.0294208 2.02079 0
M  V30 4734 C 465.692 -1.32411 1.43151 0
M  V30 4735 O 464.962 -1.863 0.605728 0
M  V30 4736 H 463.542 0.00788672 0.746958 0
M  V30 4737 H 466.204 0.723934 1.80956 0
M  V30 4738 H 465.3 -0.0606745 3.12041 0
M  V30 4739 N 465.601 -1.54893 0.290851 0
M  V30 4740 C 466.826 -2.04804 -0.32712 0
M  V30 4741 C 467.251 -1.16721 -1.47506 0
M  V30 4742 O 466.609 -0.169107 -1.8051 0
M  V30 4743 C 466.657 -3.52268 -0.770689 0
M  V30 4744 O 465.761 -3.67236 -1.87647 0
M  V30 4745 H 465.102 -0.660789 -0.0652227 0
M  V30 4746 H 467.632 -2.00036 0.429739 0
M  V30 4747 H 467.642 -3.9393 -1.06223 0
M  V30 4748 H 466.317 -4.15843 0.069096 0
M  V30 4749 H 464.894 -3.37479 -1.58626 0
M  V30 4750 N 467.08 -0.0183926 -1.57589 0
M  V30 4751 C 467.99 0.982943 -2.13015 0
M  V30 4752 C 469.006 1.36443 -1.07979 0
M  V30 4753 O 470.182 1.44802 -1.3998 0
M  V30 4754 C 467.247 2.25024 -2.63752 0
M  V30 4755 C 466.308 1.93018 -3.83461 0
M  V30 4756 C 465.541 3.13706 -4.31769 0
M  V30 4757 O 465.764 4.2601 -3.79305 0
M  V30 4758 O 464.698 2.96629 -5.23732 0
M  V30 4759 H 468.524 0.541709 -2.9883 0
M  V30 4760 H 466.109 0.201565 -1.48034 0
M  V30 4761 H 467.991 2.99441 -2.96502 0
M  V30 4762 H 466.666 2.68349 -1.81026 0
M  V30 4763 H 465.573 1.16019 -3.55655 0
M  V30 4764 H 466.906 1.54516 -4.67317 0
M  V30 4765 N 468.558 1.5553 0.254621 0
M  V30 4766 C 469.804 1.77262 0.985193 0
M  V30 4767 C 470.137 0.582286 1.85265 0
M  V30 4768 O 469.412 -0.419666 1.89919 0
M  V30 4769 C 469.695 3.0881 1.85225 0
M  V30 4770 C 469.548 4.38233 1.0135 0
M  V30 4771 C 470.867 3.3653 2.83612 0
M  V30 4772 H 467.986 0.644906 0.356742 0
M  V30 4773 H 470.628 1.88264 0.256236 0
M  V30 4774 H 468.778 2.99562 2.47376 0
M  V30 4775 H 470.45 4.59463 0.411269 0
M  V30 4776 H 468.693 4.32636 0.317574 0
M  V30 4777 H 469.364 5.26644 1.65379 0
M  V30 4778 H 471.84 3.45691 2.31596 0
M  V30 4779 H 470.716 4.29805 3.41407 0
M  V30 4780 H 470.977 2.57064 3.59681 0
M  V30 4781 N 470.036 -0.519951 1.48776 0
M  V30 4782 C 471.261 -1.30447 1.6124 0
M  V30 4783 C 471.686 -1.86055 0.276591 0
M  V30 4784 O 471.044 -1.64915 -0.753183 0
M  V30 4785 C 471.092 -2.42406 2.66967 0
M  V30 4786 O 470.196 -3.45728 2.24824 0
M  V30 4787 H 469.537 -0.385924 0.540332 0
M  V30 4788 H 472.067 -0.624572 1.94834 0
M  V30 4789 H 472.077 -2.88447 2.88552 0
M  V30 4790 H 470.752 -2.01294 3.63941 0
M  V30 4791 H 469.329 -3.05737 2.13494 0
M  V30 4792 N 471.514 -1.37532 -0.769588 0
M  V30 4793 C 472.477 -1.33292 -1.86456 0
M  V30 4794 C 473.477 -0.236537 -1.59051 0
M  V30 4795 O 474.667 -0.492511 -1.67093 0
M  V30 4796 C 471.799 -1.07118 -3.23633 0
M  V30 4797 H 472.992 -2.30692 -1.91628 0
M  V30 4798 H 470.545 -1.22593 -0.969572 0
M  V30 4799 H 471.28 -0.102578 -3.24138 0
M  V30 4800 H 471.065 -1.86479 -3.44917 0
M  V30 4801 H 472.555 -1.06806 -4.03711 0
M  V30 4802 N 472.992 0.995999 -1.22138 0
M  V30 4803 C 473.922 2.10387 -1.01289 0
M  V30 4804 C 474.903 1.69975 0.0651454 0
M  V30 4805 O 476.088 1.9396 -0.0964628 0
M  V30 4806 C 473.218 3.42312 -0.586517 0
M  V30 4807 C 472.172 3.96558 -1.61014 0
M  V30 4808 C 471.498 5.24494 -1.0397 0
M  V30 4809 C 472.798 4.27595 -2.99933 0
M  V30 4810 H 474.492 2.28086 -1.93951 0
M  V30 4811 H 472.038 1.09607 -0.933928 0
M  V30 4812 H 473.991 4.19223 -0.427793 0
M  V30 4813 H 472.715 3.24431 0.375761 0
M  V30 4814 H 471.374 3.21776 -1.75658 0
M  V30 4815 H 471.022 5.02953 -0.0688703 0
M  V30 4816 H 470.722 5.61755 -1.72352 0
M  V30 4817 H 472.246 6.04042 -0.892494 0
M  V30 4818 H 473.66 4.95315 -2.8868 0
M  V30 4819 H 472.057 4.76021 -3.6541 0
M  V30 4820 H 473.127 3.35498 -3.50099 0
M  V30 4821 N 474.47 1.03057 1.19235 0
M  V30 4822 C 475.4 0.633497 2.24742 0
M  V30 4823 C 476.381 -0.358335 1.66283 0
M  V30 4824 O 477.566 -0.240676 1.92703 0
M  V30 4825 C 474.696 -0.0147648 3.47297 0
M  V30 4826 C 473.65 0.899527 4.18441 0
M  V30 4827 C 472.976 0.116281 5.34574 0
M  V30 4828 C 474.276 2.21404 4.73051 0
M  V30 4829 H 475.97 1.5155 2.58211 0
M  V30 4830 H 473.516 0.73014 1.24117 0
M  V30 4831 H 475.469 -0.304202 4.20301 0
M  V30 4832 H 474.193 -0.931577 3.13032 0
M  V30 4833 H 472.852 1.17319 3.47321 0
M  V30 4834 H 472.5 -0.802619 4.96555 0
M  V30 4835 H 472.2 0.725293 5.83107 0
M  V30 4836 H 473.724 -0.166376 6.10373 0
M  V30 4837 H 475.138 1.98601 5.37802 0
M  V30 4838 H 473.535 2.77512 5.32078 0
M  V30 4839 H 474.605 2.86752 3.91026 0
M  V30 4840 N 475.948 -1.35272 0.808662 0
M  V30 4841 C 477.196 -1.98316 0.389233 0
M  V30 4842 C 477.517 -1.64465 -1.04767 0
M  V30 4843 O 476.787 -0.928175 -1.72516 0
M  V30 4844 H 475.367 -0.733585 0.140935 0
M  V30 4845 H 478.029 -1.6515 1.03496 0
M  V30 4846 H 477.125 -3.08123 0.496631 0
M  V30 4847 N 477.426 -0.562348 -1.47226 0
M  V30 4848 C 478.842 -0.222492 -1.58042 0
M  V30 4849 C 479.042 1.27505 -1.56028 0
M  V30 4850 O 478.098 2.05555 -1.46641 0
M  V30 4851 C 479.411 -0.853694 -2.88327 0
M  V30 4852 C 480.959 -0.825397 -3.01921 0
M  V30 4853 C 481.434 -1.43576 -4.34914 0
M  V30 4854 N 482.925 -1.39918 -4.41562 0
M  V30 4855 C 483.66 -1.84103 -5.43041 0
M  V30 4856 N 483.156 -2.36167 -6.51304 0
M  V30 4857 N 484.949 -1.75142 -5.34118 0
M  V30 4858 H 477.1 -1.53525 -1.46778 0
M  V30 4859 H 479.363 -0.640527 -0.698877 0
M  V30 4860 H 479.069 -1.90635 -2.95552 0
M  V30 4861 H 478.943 -0.34977 -3.75575 0
M  V30 4862 H 481.33 0.218583 -2.94289 0
M  V30 4863 H 481.411 -1.36713 -2.16202 0
M  V30 4864 H 481.055 -2.47884 -4.43301 0
M  V30 4865 H 480.985 -0.869427 -5.19373 0
M  V30 4866 H 483.476 -1.0184 -3.63919 0
M  V30 4867 H 483.789 -2.67793 -7.24919 0
M  V30 4868 H 482.134 -2.40181 -6.52179 0
M  V30 4869 H 485.325 -1.34241 -4.48439 0
M  V30 4870 H 485.498 -2.09895 -6.13065 0
M  V30 4871 N 478.904 1.54736 -0.299062 0
M  V30 4872 C 480.153 1.99279 0.311549 0
M  V30 4873 C 480.466 1.19107 1.55154 0
M  V30 4874 O 481.672 1.53908 2.23662 0
M  V30 4875 C 480.128 3.54768 0.605632 0
M  V30 4876 C 479.736 4.43746 -0.615914 0
M  V30 4877 C 481.48 4.07841 1.17754 0
M  V30 4878 C 479.387 5.90663 -0.29509 0
M  V30 4879 H 478.317 0.744359 0.120187 0
M  V30 4880 H 480.968 1.78919 -0.407464 0
M  V30 4881 H 479.35 3.71021 1.38419 0
M  V30 4882 H 480.524 4.39267 -1.39218 0
M  V30 4883 H 478.839 4.01434 -1.10633 0
M  V30 4884 H 481.436 5.15174 1.43179 0
M  V30 4885 H 481.779 3.58324 2.11918 0
M  V30 4886 H 482.312 3.95123 0.460739 0
M  V30 4887 H 479.051 6.44325 -1.20524 0
M  V30 4888 H 478.571 5.98155 0.44394 0
M  V30 4889 H 480.25 6.46916 0.104048 0
M  V30 4890 N 480.382 0.0267497 1.57577 0
M  V30 4891 C 481.793 -0.512413 1.79531 0
M  V30 4892 C 482.144 -1.72391 0.936791 0
M  V30 4893 O 481.269 -2.15903 0.146543 0
M  V30 4894 C 481.864 -0.936378 3.25603 0
M  V30 4895 C 480.423 -1.42067 3.4856 0
M  V30 4896 C 479.57 -0.384278 2.74624 0
M  V30 4897 H 482.521 0.252797 1.56674 0
M  V30 4898 H 482.542 -1.80088 3.35184 0
M  V30 4899 H 482.054 -0.0544332 3.88062 0
M  V30 4900 H 480.155 -2.32262 2.9135 0
M  V30 4901 H 480.268 -1.42968 4.57271 0
M  V30 4902 H 478.632 -0.851855 2.40032 0
M  V30 4903 H 479.415 0.489159 3.39797 0
M  V30 4904 N 481.861 -1.55662 -0.24637 0
M  V30 4905 C 483.086 -1.81914 -0.996093 0
M  V30 4906 C 483.511 -0.603875 -1.78143 0
M  V30 4907 O 482.869 0.447091 -1.75701 0
M  V30 4908 C 482.917 -3.05908 -1.90925 0
M  V30 4909 O 482.021 -2.82861 -3.00105 0
M  V30 4910 H 481.362 -0.600481 -0.283406 0
M  V30 4911 H 483.892 -2.02848 -0.267199 0
M  V30 4912 H 483.902 -3.35356 -2.3238 0
M  V30 4913 H 482.577 -3.93999 -1.33183 0
M  V30 4914 H 481.154 -2.64583 -2.62775 0
M  V30 4915 N 483.339 0.512053 -1.4905 0
M  V30 4916 C 484.302 1.59704 -1.64399 0
M  V30 4917 C 485.302 1.52285 -0.516317 0
M  V30 4918 O 486.492 1.55635 -0.782527 0
M  V30 4919 C 483.624 2.9935 -1.63102 0
M  V30 4920 H 484.817 1.47428 -2.61161 0
M  V30 4921 H 482.37 0.735469 -1.37915 0
M  V30 4922 H 483.105 3.17116 -0.678836 0
M  V30 4923 H 482.89 3.06144 -2.44986 0
M  V30 4924 H 484.38 3.782 -1.77072 0
M  V30 4925 N 484.817 1.37938 0.762283 0
M  V30 4926 C 486.063 1.33866 1.52341 0
M  V30 4927 C 486.396 -0.0738961 1.94059 0
M  V30 4928 O 485.671 -1.03326 1.64785 0
M  V30 4929 C 485.954 2.28644 2.78197 0
M  V30 4930 C 485.807 3.78722 2.42672 0
M  V30 4931 C 487.126 2.21702 3.80179 0
M  V30 4932 H 484.245 0.487593 0.55265 0
M  V30 4933 H 486.887 1.68717 0.873767 0
M  V30 4934 H 485.037 1.99055 3.33631 0
M  V30 4935 H 486.709 4.18948 1.93081 0
M  V30 4936 H 484.952 3.96827 1.75244 0
M  V30 4937 H 485.623 4.40486 3.3268 0
M  V30 4938 H 488.099 2.47805 3.34263 0
M  V30 4939 H 486.975 2.90143 4.65949 0
M  V30 4940 H 487.236 1.21301 4.25133 0
M  V30 4941 N 486.295 -0.989507 1.22664 0
M  V30 4942 C 487.543 -1.72612 1.05117 0
M  V30 4943 C 487.864 -1.90552 -0.414131 0
M  V30 4944 O 487.134 -1.4676 -1.29762 0
M  V30 4945 H 485.714 -0.639555 0.385977 0
M  V30 4946 H 488.376 -1.19158 1.54232 0
M  V30 4947 H 487.472 -2.71926 1.53175 0
M  V30 4948 N 487.773 -1.03688 -1.18687 0
M  V30 4949 C 489.003 -0.756819 -1.92239 0
M  V30 4950 C 489.411 0.689374 -1.76194 0
M  V30 4951 O 488.754 1.48126 -1.08648 0
M  V30 4952 C 488.816 -1.03851 -3.44173 0
M  V30 4953 C 488.48 -2.47785 -3.83994 0
M  V30 4954 C 489.477 -3.4595 -3.88091 0
M  V30 4955 C 487.162 -2.82397 -4.154 0
M  V30 4956 C 489.156 -4.76779 -4.23038 0
M  V30 4957 C 486.843 -4.13433 -4.50018 0
M  V30 4958 C 487.841 -5.10434 -4.53813 0
M  V30 4959 O 487.529 -6.39122 -4.87625 0
M  V30 4960 H 487.261 -0.275678 -0.617234 0
M  V30 4961 H 489.815 -1.38658 -1.51536 0
M  V30 4962 H 488.045 -0.351612 -3.85098 0
M  V30 4963 H 489.734 -0.746846 -3.9897 0
M  V30 4964 H 490.5 -3.20549 -3.63969 0
M  V30 4965 H 486.379 -2.07568 -4.11627 0
M  V30 4966 H 489.923 -5.52488 -4.25914 0
M  V30 4967 H 485.82 -4.38604 -4.736 0
M  V30 4968 H 486.588 -6.43715 -5.05542 0
M  V30 4969 N 489.251 1.34841 -0.815825 0
M  V30 4970 C 490.183 2.28409 -0.190265 0
M  V30 4971 C 491.196 1.50705 0.615771 0
M  V30 4972 O 492.385 1.72822 0.446616 0
M  V30 4973 C 489.485 3.30441 0.752446 0
M  V30 4974 C 488.658 4.37399 -0.00922152 0
M  V30 4975 C 487.717 5.19234 0.853351 0
M  V30 4976 O 486.743 5.68404 0.300919 0
M  V30 4977 N 487.945 5.38248 2.17416 0
M  V30 4978 H 490.71 2.82732 -0.994114 0
M  V30 4979 H 488.271 1.47289 -0.672129 0
M  V30 4980 H 490.263 3.82084 1.33394 0
M  V30 4981 H 488.833 2.76565 1.45707 0
M  V30 4982 H 488.053 3.86567 -0.771979 0
M  V30 4983 H 489.341 5.05992 -0.533807 0
M  V30 4984 H 488.739 4.99961 2.6468 0
M  V30 4985 H 487.296 5.93035 2.70467 0
M  V30 4986 N 490.729 0.570148 1.46925 0
M  V30 4987 C 492.14 0.1402 1.86173 0
M  V30 4988 C 492.491 -1.29347 1.47526 0
M  V30 4989 O 491.616 -1.97508 0.884292 0
M  V30 4990 C 492.211 0.247661 3.37894 0
M  V30 4991 C 490.77 -0.127332 3.76185 0
M  V30 4992 C 489.917 0.589349 2.70965 0
M  V30 4993 H 492.868 0.779117 1.38259 0
M  V30 4994 H 492.889 -0.530341 3.76786 0
M  V30 4995 H 492.401 1.29121 3.65991 0
M  V30 4996 H 490.502 -1.17149 3.53704 0
M  V30 4997 H 490.615 0.240238 4.78497 0
M  V30 4998 H 488.979 0.0309824 2.54681 0
M  V30 4999 H 489.762 1.6343 3.01903 0
M  V30 5000 N 492.207 -1.54576 0.307264 0
M  V30 5001 C 493.435 -2.04675 -0.302597 0
M  V30 5002 C 493.85 -1.18425 -1.47041 0
M  V30 5003 O 493.207 -0.211257 -1.81273 0
M  V30 5004 C 493.258 -3.53575 -0.752801 0
M  V30 5005 O 492.979 -4.36547 0.368536 0
M  V30 5006 C 494.48 -4.19699 -1.42717 0
M  V30 5007 H 491.7 -0.66786 -0.0648374 0
M  V30 5008 H 494.244 -1.99516 0.448716 0
M  V30 5009 H 492.399 -3.59074 -1.45412 0
M  V30 5010 H 492.813 -5.24497 0.0168937 0
M  V30 5011 H 494.287 -5.25388 -1.69327 0
M  V30 5012 H 494.764 -3.69815 -2.36925 0
M  V30 5013 H 495.37 -4.18293 -0.768856 0
M  V30 5014 N 493.685 -0.035106 -1.57561 0
M  V30 5015 C 494.615 0.942993 -2.13612 0
M  V30 5016 C 495.596 1.33531 -1.05373 0
M  V30 5017 O 496.781 1.41287 -1.33235 0
M  V30 5018 C 493.911 2.22332 -2.66807 0
M  V30 5019 C 492.865 1.97156 -3.79886 0
M  V30 5020 C 492.191 3.31506 -4.19533 0
M  V30 5021 C 493.491 1.30596 -5.05709 0
M  V30 5022 H 495.185 0.476179 -2.95589 0
M  V30 5023 H 492.731 0.227602 -1.4219 0
M  V30 5024 H 494.684 2.91142 -3.04654 0
M  V30 5025 H 493.408 2.7119 -1.81999 0
M  V30 5026 H 492.067 1.30763 -3.42486 0
M  V30 5027 H 491.715 3.78134 -3.31698 0
M  V30 5028 H 491.415 3.15465 -4.95738 0
M  V30 5029 H 492.939 4.01574 -4.59968 0
M  V30 5030 H 494.353 1.89416 -5.41105 0
M  V30 5031 H 492.75 1.24934 -5.86951 0
M  V30 5032 H 493.82 0.279742 -4.84092 0
M  V30 5033 N 495.163 1.55791 0.238111 0
M  V30 5034 C 496.126 1.90239 1.27835 0
M  V30 5035 C 497.126 0.779552 1.4064 0
M  V30 5036 O 498.316 1.04747 1.3919 0
M  V30 5037 C 495.448 2.13859 2.65475 0
M  V30 5038 H 496.641 2.83262 0.985034 0
M  V30 5039 H 494.194 1.48818 0.477799 0
M  V30 5040 H 494.929 1.23334 2.99932 0
M  V30 5041 H 494.714 2.95643 2.57561 0
M  V30 5042 H 496.204 2.41664 3.40571 0
M  V30 5043 N 496.642 -0.504142 1.49319 0
M  V30 5044 C 497.87 -1.28256 1.62351 0
M  V30 5045 C 498.285 -1.86502 0.293682 0
M  V30 5046 O 497.642 -1.67678 -0.720449 0
M  V30 5047 C 497.693 -2.41507 2.68992 0
M  V30 5048 O 497.414 -1.85656 3.96817 0
M  V30 5049 C 498.915 -3.32929 2.927 0
M  V30 5050 H 496.135 -0.389115 0.546654 0
M  V30 5051 H 498.679 -0.605531 1.95329 0
M  V30 5052 H 496.834 -3.05046 2.38801 0
M  V30 5053 H 497.248 -2.59981 4.55533 0
M  V30 5054 H 498.722 -4.0868 3.71058 0
M  V30 5055 H 499.199 -3.89733 2.02496 0
M  V30 5056 H 499.805 -2.75158 3.24296 0
M  V30 5057 N 498.12 -1.38341 -0.754957 0
M  V30 5058 C 499.397 -1.24995 -1.50451 0
M  V30 5059 C 499.777 0.149244 -2.10572 0
M  V30 5060 O 499.125 1.15861 -1.96948 0
M  V30 5061 C 499.335 -2.35904 -2.57197 0
M  V30 5062 C 500.683 -2.74262 -3.24138 0
M  V30 5063 O 501.707 -2.35205 -2.67501 0
M  V30 5064 O 500.566 -3.4161 -4.26574 0
M  V30 5065 H 497.66 -0.48872 -0.667144 0
M  V30 5066 H 500.206 -1.50165 -0.790486 0
M  V30 5067 H 498.978 -3.2953 -2.11011 0
M  V30 5068 H 498.601 -2.12291 -3.36182 0
M  V30 5069 N 499.598 0.982988 -1.23187 0
M  V30 5070 C 500.531 2.07302 -0.953993 0
M  V30 5071 C 501.509 1.62249 0.106753 0
M  V30 5072 O 502.693 1.88481 -0.0269525 0
M  V30 5073 C 499.82 3.35873 -0.436716 0
M  V30 5074 C 498.866 3.99862 -1.48367 0
M  V30 5075 S 499.699 4.39443 -3.06023 0
M  V30 5076 C 500.855 5.7117 -2.55959 0
M  V30 5077 H 501.088 2.30554 -1.87702 0
M  V30 5078 H 498.621 1.11883 -1.06403 0
M  V30 5079 H 500.579 4.10244 -0.144872 0
M  V30 5080 H 499.24 3.10634 0.465351 0
M  V30 5081 H 498.433 4.92471 -1.07182 0
M  V30 5082 H 498.035 3.31857 -1.72473 0
M  V30 5083 H 500.327 6.47977 -1.97818 0
M  V30 5084 H 501.27 6.17194 -3.47098 0
M  V30 5085 H 501.678 5.29046 -1.96902 0
M  V30 5086 N 501.076 1.04316 1.18135 0
M  V30 5087 C 502.324 0.746542 1.87806 0
M  V30 5088 C 502.645 -0.728082 1.80898 0
M  V30 5089 O 501.915 -1.52554 1.22899 0
M  V30 5090 H 500.495 0.273157 0.695265 0
M  V30 5091 H 503.157 1.32044 1.43354 0
M  V30 5092 H 502.253 1.05362 2.93778 0
M  V30 5093 N 502.554 -1.34406 0.822964 0
M  V30 5094 C 503.782 -2.02508 0.424039 0
M  V30 5095 C 504.197 -1.61975 -0.970022 0
M  V30 5096 O 503.554 -0.825228 -1.62777 0
M  V30 5097 C 503.605 -3.57789 0.516657 0
M  V30 5098 O 503.326 -3.96853 1.85577 0
M  V30 5099 C 504.827 -4.43157 0.112637 0
M  V30 5100 H 502.047 -0.649063 0.170173 0
M  V30 5101 H 504.591 -1.7168 1.11113 0
M  V30 5102 H 502.746 -3.87207 -0.122353 0
M  V30 5103 H 503.16 -4.91538 1.83005 0
M  V30 5104 H 504.634 -5.51527 0.228526 0
M  V30 5105 H 505.111 -4.28939 -0.943837 0
M  V30 5106 H 505.717 -4.19067 0.725449 0
M  V30 5107 N 504.032 -0.577932 -1.46621 0
M  V30 5108 C 504.965 0.206312 -2.27265 0
M  V30 5109 C 505.943 0.901306 -1.35334 0
M  V30 5110 O 507.127 0.916151 -1.64739 0
M  V30 5111 C 504.254 1.29563 -3.1294 0
M  V30 5112 C 503.3 0.706981 -4.206 0
M  V30 5113 S 504.133 -0.462459 -5.33499 0
M  V30 5114 C 505.289 0.628171 -6.2274 0
M  V30 5115 H 505.522 -0.477961 -2.93433 0
M  V30 5116 H 503.055 -0.364715 -1.50031 0
M  V30 5117 H 505.013 1.91935 -3.62865 0
M  V30 5118 H 503.674 1.95183 -2.46095 0
M  V30 5119 H 502.867 1.52565 -4.80354 0
M  V30 5120 H 502.469 0.159022 -3.73662 0
M  V30 5121 H 504.761 1.51506 -6.60342 0
M  V30 5122 H 505.704 0.0674961 -7.08068 0
M  V30 5123 H 506.112 0.930167 -5.56784 0
M  V30 5124 N 505.51 1.54411 -0.315457 0
M  V30 5125 C 506.442 2.21527 0.588067 0
M  V30 5126 C 507.455 1.21263 1.08624 0
M  V30 5127 O 508.644 1.47777 1.00121 0
M  V30 5128 C 505.744 2.85963 1.81875 0
M  V30 5129 C 504.917 4.12291 1.46063 0
M  V30 5130 C 503.976 4.60396 2.54799 0
M  V30 5131 O 503.002 5.25265 2.19283 0
M  V30 5132 N 504.204 4.33935 3.85591 0
M  V30 5133 H 506.969 2.99697 0.013414 0
M  V30 5134 H 504.53 1.61308 -0.138295 0
M  V30 5135 H 506.522 3.15071 2.53993 0
M  V30 5136 H 505.092 2.11548 2.30144 0
M  V30 5137 H 504.312 3.90036 0.571445 0
M  V30 5138 H 505.6 4.9452 1.19695 0
M  V30 5139 H 504.998 3.81996 4.17248 0
M  V30 5140 H 503.555 4.67718 4.53964 0
M  V30 5141 N 506.988 0.0434614 1.5754 0
M  V30 5142 C 507.898 -0.94893 2.14552 0
M  V30 5143 C 508.914 -1.34707 1.10136 0
M  V30 5144 O 510.09 -1.42557 1.42266 0
M  V30 5145 C 507.155 -2.208 2.67298 0
M  V30 5146 C 506.216 -1.86893 3.86484 0
M  V30 5147 C 505.449 -3.06797 4.36705 0
M  V30 5148 O 505.672 -4.19921 3.86034 0
M  V30 5149 O 504.606 -2.8826 5.28384 0
M  V30 5150 H 508.432 -0.494099 2.99654 0
M  V30 5151 H 506.017 -0.177989 1.48336 0
M  V30 5152 H 507.899 -2.94686 3.01228 0
M  V30 5153 H 506.574 -2.65436 1.85272 0
M  V30 5154 H 505.481 -1.10347 3.57455 0
M  V30 5155 H 506.814 -1.47062 4.69716 0
M  V30 5156 N 508.466 -1.55915 -0.229846 0
M  V30 5157 C 509.882 -1.48721 -0.579166 0
M  V30 5158 C 510.082 -0.736976 -1.87539 0
M  V30 5159 O 509.138 -0.273258 -2.51017 0
M  V30 5160 C 510.451 -2.9323 -0.666082 0
M  V30 5161 C 511.999 -3.03701 -0.757267 0
M  V30 5162 C 512.474 -4.49552 -0.8756 0
M  V30 5163 N 513.965 -4.53561 -0.940035 0
M  V30 5164 C 514.7 -5.63683 -1.05116 0
M  V30 5165 N 514.196 -6.83576 -1.12675 0
M  V30 5166 N 515.989 -5.51516 -1.08565 0
M  V30 5167 H 508.14 -2.03123 0.620857 0
M  V30 5168 H 510.403 -0.922898 0.21671 0
M  V30 5169 H 510.109 -3.51032 0.21664 0
M  V30 5170 H 509.983 -3.44668 -1.53243 0
M  V30 5171 H 512.37 -2.45969 -1.63043 0
M  V30 5172 H 512.451 -2.55446 0.134583 0
M  V30 5173 H 512.095 -5.079 -0.00692351 0
M  V30 5174 H 512.025 -4.95506 -1.78274 0
M  V30 5175 H 514.516 -3.67215 -0.892269 0
M  V30 5176 H 514.829 -7.63251 -1.21109 0
M  V30 5177 H 513.174 -6.86303 -1.09603 0
M  V30 5178 H 516.365 -4.5678 -1.02319 0
M  V30 5179 H 516.538 -6.37372 -1.1688 0
M  V30 5180 N 509.944 0.496216 -1.49584 0
M  V30 5181 C 511.193 1.24668 -1.58558 0
M  V30 5182 C 511.506 1.9359 -0.279703 0
M  V30 5183 O 512.712 2.70365 -0.248048 0
M  V30 5184 C 511.168 2.26388 -2.79779 0
M  V30 5185 C 510.776 1.63384 -4.17145 0
M  V30 5186 C 512.52 3.02233 -2.98086 0
M  V30 5187 C 510.427 2.63243 -5.29582 0
M  V30 5188 H 509.357 0.468995 -0.590389 0
M  V30 5189 H 512.008 0.519985 -1.75978 0
M  V30 5190 H 510.39 3.02241 -2.55863 0
M  V30 5191 H 511.564 0.93491 -4.51216 0
M  V30 5192 H 509.879 0.999121 -4.04236 0
M  V30 5193 H 512.476 3.76919 -3.79257 0
M  V30 5194 H 512.819 3.60132 -2.08831 0
M  V30 5195 H 513.352 2.33495 -3.22063 0
M  V30 5196 H 510.091 2.10119 -6.20911 0
M  V30 5197 H 509.611 3.31363 -4.99959 0
M  V30 5198 H 511.29 3.25575 -5.59115 0
M  V30 5199 N 511.423 1.38739 0.74761 0
M  V30 5200 C 512.651 1.38521 1.53686 0
M  V30 5201 C 513.066 -0.0235129 1.88785 0
M  V30 5202 O 512.423 -0.991662 1.53207 0
M  V30 5203 C 512.474 2.24641 2.83229 0
M  V30 5204 O 512.195 3.60026 2.49625 0
M  V30 5205 C 513.696 2.32669 3.77333 0
M  V30 5206 H 510.916 0.473589 0.475347 0
M  V30 5207 H 513.46 1.82395 0.924786 0
M  V30 5208 H 511.615 1.84213 3.40799 0
M  V30 5209 H 512.029 4.05435 3.3275 0
M  V30 5210 H 513.503 2.97201 4.65162 0
M  V30 5211 H 513.98 1.3421 4.18192 0
M  V30 5212 H 514.586 2.73512 3.25685 0
M  V30 5213 N 512.901 -0.976442 1.23707 0
M  V30 5214 C 514.129 -1.75341 1.09833 0
M  V30 5215 C 514.544 -1.8553 -0.349885 0
M  V30 5216 O 513.901 -1.33732 -1.24185 0
M  V30 5217 C 513.952 -3.17833 1.72233 0
M  V30 5218 O 513.673 -3.08167 3.11391 0
M  V30 5219 C 515.174 -4.11906 1.63853 0
M  V30 5220 H 512.394 -0.550137 0.384175 0
M  V30 5221 H 514.938 -1.2265 1.63638 0
M  V30 5222 H 513.093 -3.67538 1.22452 0
M  V30 5223 H 513.507 -3.97897 3.41729 0
M  V30 5224 H 514.981 -5.09579 2.12211 0
M  V30 5225 H 515.458 -4.35109 0.598092 0
M  V30 5226 H 516.064 -3.68107 2.13019 0
M  V30 5227 N 514.379 -1.04941 -1.1758 0
M  V30 5228 C 515.607 -0.778294 -1.91703 0
M  V30 5229 C 516.022 0.665697 -1.76675 0
M  V30 5230 O 515.379 1.45456 -1.10222 0
M  V30 5231 C 515.43 -1.14628 -3.42845 0
M  V30 5232 O 515.151 -2.53359 -3.57409 0
M  V30 5233 C 516.652 -0.900931 -4.34049 0
M  V30 5234 H 513.872 -0.283167 -0.608323 0
M  V30 5235 H 516.416 -1.39942 -1.49119 0
M  V30 5236 H 514.571 -0.569953 -3.83184 0
M  V30 5237 H 514.985 -2.67709 -4.51035 0
M  V30 5238 H 516.459 -1.20817 -5.38616 0
M  V30 5239 H 516.936 0.163966 -4.38894 0
M  V30 5240 H 517.542 -1.46097 -3.99419 0
M  V30 5241 N 515.857 1.33968 -0.830081 0
M  V30 5242 C 516.804 2.29387 -0.255008 0
M  V30 5243 C 517.774 1.53923 0.624243 0
M  V30 5244 O 518.959 1.82262 0.564372 0
M  V30 5245 C 516.099 3.4034 0.571209 0
M  V30 5246 C 515.212 4.30729 -0.331083 0
M  V30 5247 C 514.347 5.2879 0.505389 0
M  V30 5248 C 513.386 6.10819 -0.395843 0
M  V30 5249 N 512.523 7.00948 0.401979 0
M  V30 5250 H 517.363 2.77972 -1.07404 0
M  V30 5251 H 514.9 1.36785 -0.541133 0
M  V30 5252 H 516.858 4.03361 1.06562 0
M  V30 5253 H 515.488 2.9297 1.35529 0
M  V30 5254 H 514.54 3.68507 -0.943759 0
M  V30 5255 H 515.852 4.88181 -1.02377 0
M  V30 5256 H 515.006 5.97297 1.06399 0
M  V30 5257 H 513.745 4.71894 1.23155 0
M  V30 5258 H 512.75 5.41238 -0.966529 0
M  V30 5259 H 513.975 6.69797 -1.12023 0
M  V30 5260 H 511.921 6.46512 1.11168 0
M  V30 5261 H 511.838 7.55643 -0.232167 0
M  V30 5262 H 513.106 7.73774 0.943102 0
M  V30 5263 N 517.335 0.585699 1.46312 0
M  V30 5264 C 518.282 -0.145835 2.30339 0
M  V30 5265 C 519.252 -0.881215 1.40797 0
M  V30 5266 O 520.437 -0.871293 1.69744 0
M  V30 5267 C 517.577 -1.15161 3.25318 0
M  V30 5268 C 516.69 -0.419367 4.2996 0
M  V30 5269 C 515.825 -1.41293 5.12064 0
M  V30 5270 C 514.864 -0.667261 6.08452 0
M  V30 5271 N 514.001 -1.60903 6.83414 0
M  V30 5272 H 518.841 0.576755 2.92365 0
M  V30 5273 H 516.378 0.296237 1.44086 0
M  V30 5274 H 518.336 -1.74763 3.78832 0
M  V30 5275 H 516.966 -1.84188 2.65094 0
M  V30 5276 H 516.018 0.291751 3.7928 0
M  V30 5277 H 517.33 0.163433 4.98532 0
M  V30 5278 H 516.484 -2.08167 5.6987 0
M  V30 5279 H 515.223 -2.02966 4.43459 0
M  V30 5280 H 514.228 0.0152356 5.49798 0
M  V30 5281 H 515.453 -0.0558817 6.79077 0
M  V30 5282 H 513.399 -2.21381 6.17516 0
M  V30 5283 H 513.316 -1.07911 7.48259 0
M  V30 5284 H 514.584 -2.26802 7.45775 0
M  V30 5285 N 518.813 -1.54241 0.323641 0
M  V30 5286 C 520.061 -2.00174 -0.278359 0
M  V30 5287 C 520.382 -1.2134 -1.52648 0
M  V30 5288 O 519.652 -0.315244 -1.93347 0
M  V30 5289 H 518.232 -0.739463 -0.105845 0
M  V30 5290 H 520.894 -1.89864 0.440204 0
M  V30 5291 H 519.99 -3.07486 -0.5347 0
M  V30 5292 N 520.291 -0.0518155 -1.57515 0
M  V30 5293 C 521.516 0.634896 -1.97443 0
M  V30 5294 C 521.941 1.63546 -0.929207 0
M  V30 5295 O 521.299 1.80981 0.107484 0
M  V30 5296 C 521.347 1.29765 -3.36442 0
M  V30 5297 O 520.451 2.41333 -3.34413 0
M  V30 5298 H 519.792 0.164994 -0.643174 0
M  V30 5299 H 522.322 -0.120407 -2.04245 0
M  V30 5300 H 522.332 1.64918 -3.73184 0
M  V30 5301 H 521.007 0.564361 -4.12053 0
M  V30 5302 H 519.584 2.08122 -3.09418 0
M  V30 5303 N 521.769 1.56035 0.221574 0
M  V30 5304 C 523.018 1.78245 0.944016 0
M  V30 5305 C 523.331 0.620371 1.85501 0
M  V30 5306 O 524.537 0.726103 2.6161 0
M  V30 5307 C 522.993 3.15659 1.7288 0
M  V30 5308 C 522.601 4.39591 0.863942 0
M  V30 5309 C 524.345 3.47195 2.44246 0
M  V30 5310 C 522.252 5.6803 1.64607 0
M  V30 5311 H 521.182 0.664547 0.356222 0
M  V30 5312 H 523.833 1.8243 0.197904 0
M  V30 5313 H 522.215 3.0565 2.51781 0
M  V30 5314 H 523.389 4.60655 0.115464 0
M  V30 5315 H 521.704 4.15572 0.262407 0
M  V30 5316 H 524.301 4.40381 3.03263 0
M  V30 5317 H 524.644 2.69693 3.1713 0
M  V30 5318 H 525.177 3.58533 1.72334 0
M  V30 5319 H 521.916 6.48425 0.960507 0
M  V30 5320 H 521.436 5.51027 2.36917 0
M  V30 5321 H 523.115 6.08203 2.20675 0
M  V30 5322 N 523.247 -0.488276 1.49845 0
M  V30 5323 C 524.475 -1.26527 1.63702 0
M  V30 5324 C 524.89 -1.8618 0.313447 0
M  V30 5325 O 524.247 -1.68432 -0.702624 0
M  V30 5326 C 524.298 -2.3864 2.71538 0
M  V30 5327 O 524.019 -1.81437 3.98763 0
M  V30 5328 C 525.52 -3.29805 2.96215 0
M  V30 5329 H 522.74 -0.383295 0.55075 0
M  V30 5330 H 525.284 -0.584779 1.95961 0
M  V30 5331 H 523.439 -3.02496 2.42023 0
M  V30 5332 H 523.853 -2.55135 4.58265 0
M  V30 5333 H 525.327 -4.04722 3.75372 0
M  V30 5334 H 525.804 -3.87563 2.06619 0
M  V30 5335 H 526.41 -2.71703 3.27196 0
M  V30 5336 N 524.725 -1.39134 -0.740242 0
M  V30 5337 C 525.95 -1.39518 -1.53459 0
M  V30 5338 C 526.375 0.00968883 -1.88098 0
M  V30 5339 O 525.733 0.995312 -1.51536 0
M  V30 5340 C 525.781 -2.26981 -2.802 0
M  V30 5341 O 524.885 -1.69609 -3.75908 0
M  V30 5342 H 524.226 -0.475328 -0.463637 0
M  V30 5343 H 526.756 -1.83064 -0.913717 0
M  V30 5344 H 526.766 -2.41309 -3.28989 0
M  V30 5345 H 525.441 -3.29081 -2.5432 0
M  V30 5346 H 524.018 -1.64495 -3.34658 0
M  V30 5347 N 526.204 0.969867 -1.24223 0
M  V30 5348 C 527.45 1.7151 -1.08223 0
M  V30 5349 C 527.783 1.90478 0.37838 0
M  V30 5350 O 527.058 1.4647 1.27971 0
M  V30 5351 C 527.341 3.10714 -1.82013 0
M  V30 5352 C 527.194 2.9925 -3.35811 0
M  V30 5353 C 528.513 4.10332 -1.59108 0
M  V30 5354 H 525.632 0.622499 -0.394543 0
M  V30 5355 H 528.274 1.1284 -1.52863 0
M  V30 5356 H 526.424 3.608 -1.44068 0
M  V30 5357 H 528.096 2.56608 -3.83341 0
M  V30 5358 H 526.339 2.35512 -3.64303 0
M  V30 5359 H 527.01 3.97857 -3.82641 0
M  V30 5360 H 529.486 3.69097 -1.92111 0
M  V30 5361 H 528.362 5.05804 -2.13198 0
M  V30 5362 H 528.623 4.38926 -0.528832 0
M  V30 5363 N 527.682 1.05563 1.17022 0
M  V30 5364 C 528.614 0.617888 2.20714 0
M  V30 5365 C 529.627 -0.320303 1.59618 0
M  V30 5366 O 530.816 -0.112449 1.78145 0
M  V30 5367 C 527.916 -0.115333 3.38704 0
M  V30 5368 C 527.089 0.834493 4.29366 0
M  V30 5369 C 526.148 0.141855 5.26009 0
M  V30 5370 O 525.174 0.777151 5.6387 0
M  V30 5371 N 526.376 -1.11934 5.69606 0
M  V30 5372 H 529.141 1.50981 2.58892 0
M  V30 5373 H 526.702 0.938008 1.31958 0
M  V30 5374 H 528.694 -0.588918 4.00392 0
M  V30 5375 H 527.264 -0.908967 2.99093 0
M  V30 5376 H 526.484 1.48762 3.65053 0
M  V30 5377 H 527.772 1.4791 4.86827 0
M  V30 5378 H 527.17 -1.65574 5.40927 0
M  V30 5379 H 525.727 -1.53692 6.33421 0
M  V30 5380 N 529.16 -1.33526 0.837174 0
M  V30 5381 C 530.123 -2.27551 0.274421 0
M  V30 5382 C 531.123 -1.50886 -0.555881 0
M  V30 5383 O 532.313 -1.70227 -0.369918 0
M  V30 5384 C 529.445 -3.35332 -0.613605 0
M  V30 5385 H 530.638 -2.78837 1.10408 0
M  V30 5386 H 528.191 -1.439 0.610126 0
M  V30 5387 H 528.926 -2.89285 -1.46577 0
M  V30 5388 H 528.711 -3.92095 -0.0195341 0
M  V30 5389 H 530.201 -4.05433 -1.00068 0
M  V30 5390 N 530.638 -0.59345 -1.46 0
M  V30 5391 C 531.887 -0.0808084 -2.01538 0
M  V30 5392 C 532.2 1.29112 -1.46934 0
M  V30 5393 O 533.406 1.8957 -1.94359 0
M  V30 5394 C 531.862 -0.0938311 -3.59778 0
M  V30 5395 C 531.47 -1.46474 -4.23379 0
M  V30 5396 C 533.214 0.364306 -4.22934 0
M  V30 5397 C 531.121 -1.4349 -5.73729 0
M  V30 5398 H 530.051 -0.0264407 -0.753536 0
M  V30 5399 H 532.702 -0.746689 -1.67621 0
M  V30 5400 H 531.084 0.638427 -3.9082 0
M  V30 5401 H 532.258 -2.21758 -4.03931 0
M  V30 5402 H 530.573 -1.86379 -3.7236 0
M  V30 5403 H 533.17 0.405584 -5.3316 0
M  V30 5404 H 533.513 1.38409 -3.92618 0
M  V30 5405 H 534.046 -0.31423 -3.96557 0
M  V30 5406 H 530.785 -2.43184 -6.08722 0
M  V30 5407 H 530.305 -0.724431 -5.95409 0
M  V30 5408 H 531.984 -1.15243 -6.36654 0
M  V30 5409 N 532.116 1.54067 -0.331816 0
M  V30 5410 C 533.346 2.04833 0.269605 0
M  V30 5411 C 533.754 1.20714 1.45687 0
M  V30 5412 O 533.097 0.232539 1.82222 0
M  V30 5413 C 533.159 3.51386 0.759499 0
M  V30 5414 C 532.823 4.55971 -0.306557 0
M  V30 5415 C 533.82 5.07126 -1.14538 0
M  V30 5416 C 531.505 5.00216 -0.457116 0
M  V30 5417 C 533.499 6.01096 -2.12042 0
M  V30 5418 C 531.186 5.93999 -1.43556 0
M  V30 5419 C 532.184 6.44326 -2.26568 0
M  V30 5420 O 531.872 7.36267 -3.22749 0
M  V30 5421 H 531.604 0.673509 0.0579763 0
M  V30 5422 H 534.158 1.99748 -0.478521 0
M  V30 5423 H 532.388 3.53896 1.55867 0
M  V30 5424 H 534.077 3.85184 1.28017 0
M  V30 5425 H 534.843 4.73716 -1.04009 0
M  V30 5426 H 530.722 4.60652 0.179142 0
M  V30 5427 H 534.266 6.40302 -2.76873 0
M  V30 5428 H 530.163 6.26825 -1.54146 0
M  V30 5429 H 530.931 7.54165 -3.18083 0
M  V30 5430 N 533.594 0.0601682 1.57485 0
M  V30 5431 C 534.84 -0.612501 1.93329 0
M  V30 5432 C 535.173 -1.6996 0.939526 0
M  V30 5433 O 534.448 -1.94472 -0.0330957 0
M  V30 5434 C 534.731 -1.20025 3.39508 0
M  V30 5435 C 534.584 -0.12059 4.49638 0
M  V30 5436 C 535.903 -2.10923 3.86264 0
M  V30 5437 H 533.022 -0.221185 0.703027 0
M  V30 5438 H 535.664 0.123768 1.89596 0
M  V30 5439 H 533.814 -1.82774 3.42821 0
M  V30 5440 H 535.486 0.51185 4.58452 0
M  V30 5441 H 533.729 0.550251 4.30296 0
M  V30 5442 H 534.4 -0.572019 5.49028 0
M  V30 5443 H 536.876 -1.58124 3.84884 0
M  V30 5444 H 535.752 -2.48987 4.8918 0
M  V30 5445 H 536.013 -3.01292 3.23536 0
M  V30 5446 N 535.072 -1.5615 -0.213296 0
M  V30 5447 C 536.483 -1.69645 -0.779582 0
M  V30 5448 C 536.834 -0.663615 -1.84636 0
M  V30 5449 O 535.959 0.183633 -2.15619 0
M  V30 5450 C 536.554 -3.07567 -1.42084 0
M  V30 5451 C 535.113 -3.22889 -1.93442 0
M  V30 5452 C 534.26 -2.65581 -0.797612 0
M  V30 5453 H 537.211 -1.58696 0.0114951 0
M  V30 5454 H 537.232 -3.03884 -2.28986 0
M  V30 5455 H 536.744 -3.82716 -0.644187 0
M  V30 5456 H 534.845 -2.52623 -2.73884 0
M  V30 5457 H 534.958 -4.30197 -2.10872 0
M  V30 5458 H 533.322 -2.24278 -1.20712 0
M  V30 5459 H 534.105 -3.43284 -0.033494 0
M  V30 5460 N 536.55 0.480323 -1.50102 0
M  V30 5461 C 537.513 1.56181 -1.6775 0
M  V30 5462 C 538.513 1.51156 -0.548503 0
M  V30 5463 O 539.703 1.5394 -0.815363 0
M  V30 5464 C 536.835 2.95823 -1.69415 0
M  V30 5465 H 538.028 1.41855 -2.6423 0
M  V30 5466 H 535.581 0.70605 -1.39444 0
M  V30 5467 H 536.316 3.15604 -0.745948 0
M  V30 5468 H 536.101 3.00878 -2.51425 0
M  V30 5469 H 537.591 3.74359 -1.85054 0
M  V30 5470 N 538.028 1.39524 0.732853 0
M  V30 5471 C 539.305 1.27373 1.48444 0
M  V30 5472 C 539.685 -0.115725 2.10783 0
M  V30 5473 O 539.033 -1.12713 1.98766 0
M  V30 5474 C 539.243 2.39966 2.53412 0
M  V30 5475 C 540.591 2.79384 3.19733 0
M  V30 5476 O 541.615 2.39431 2.63725 0
M  V30 5477 O 540.474 3.48353 4.21085 0
M  V30 5478 H 537.568 0.499272 0.659285 0
M  V30 5479 H 540.114 1.51403 0.766496 0
M  V30 5480 H 538.886 3.32845 2.05742 0
M  V30 5481 H 538.509 2.17612 3.32762 0
M  V30 5482 N 539.506 -0.963266 1.24736 0
M  V30 5483 C 540.783 -1.68248 0.9976 0
M  V30 5484 C 541.163 -2.05599 -0.478776 0
M  V30 5485 O 540.511 -1.7626 -1.45412 0
M  V30 5486 C 540.721 -2.91118 1.92487 0
M  V30 5487 C 542.069 -3.63261 2.19833 0
M  V30 5488 O 543.093 -3.01184 1.90176 0
M  V30 5489 O 541.952 -4.75019 2.7022 0
M  V30 5490 H 539.046 -0.735744 0.377637 0
M  V30 5491 H 541.592 -1.01696 1.35853 0
M  V30 5492 H 540.364 -2.60242 2.92215 0
M  V30 5493 H 539.987 -3.65402 1.56738 0
M  V30 5494 N 540.985 -1.06182 -1.16461 0
M  V30 5495 C 541.915 -0.692861 -2.22984 0
M  V30 5496 C 542.896 0.314122 -1.67174 0
M  V30 5497 O 544.081 0.189499 -1.93273 0
M  V30 5498 C 541.211 -0.07732 -3.47214 0
M  V30 5499 C 540.165 -1.01015 -4.15909 0
M  V30 5500 C 539.491 -0.257973 -5.34077 0
M  V30 5501 C 540.791 -2.33868 -4.67015 0
M  V30 5502 H 542.485 -1.58343 -2.54102 0
M  V30 5503 H 540.031 -0.76279 -1.22137 0
M  V30 5504 H 541.984 0.19266 -4.20959 0
M  V30 5505 H 540.708 0.848254 -3.15392 0
M  V30 5506 H 539.367 -1.26486 -3.44088 0
M  V30 5507 H 539.015 0.670684 -4.98509 0
M  V30 5508 H 538.715 -0.879638 -5.80979 0
M  V30 5509 H 540.239 0.00448788 -6.106 0
M  V30 5510 H 541.653 -2.1279 -5.32347 0
M  V30 5511 H 540.05 -2.91522 -5.24533 0
M  V30 5512 H 541.12 -2.97019 -3.83286 0
M  V30 5513 N 542.463 1.3308 -0.844243 0
M  V30 5514 C 543.691 2.01808 -0.456203 0
M  V30 5515 C 544.106 1.63498 0.944131 0
M  V30 5516 O 543.463 0.85102 1.61443 0
M  V30 5517 C 543.514 3.56922 -0.573513 0
M  V30 5518 O 543.235 3.93851 -1.91868 0
M  V30 5519 C 544.736 4.42922 -0.183125 0
M  V30 5520 H 541.956 0.646273 -0.180477 0
M  V30 5521 H 544.5 1.69891 -1.1383 0
M  V30 5522 H 542.655 3.87352 0.0607367 0
M  V30 5523 H 543.069 4.88564 -1.90802 0
M  V30 5524 H 544.543 5.51093 -0.316241 0
M  V30 5525 H 545.02 4.30386 0.875477 0
M  V30 5526 H 545.626 4.1786 -0.792027 0
M  V30 5527 N 543.941 0.601185 1.45683 0
M  V30 5528 C 545.218 0.0261659 1.95582 0
M  V30 5529 C 545.598 -1.4399 1.5437 0
M  V30 5530 O 544.946 -2.13919 0.80318 0
M  V30 5531 C 545.156 0.217557 3.48321 0
M  V30 5532 C 546.504 0.0950076 4.24494 0
M  V30 5533 O 547.528 0.147345 3.55895 0
M  V30 5534 O 546.387 -0.025261 5.46494 0
M  V30 5535 H 543.481 -0.0393688 0.826062 0
M  V30 5536 H 546.027 0.670798 1.55879 0
M  V30 5537 H 544.799 1.23601 3.71266 0
M  V30 5538 H 544.422 -0.46264 3.94899 0
M  V30 5539 N 545.419 -1.53889 0.339982 0
M  V30 5540 C 546.83 -1.86139 -0.144671 0
M  V30 5541 C 547.181 -1.2613 -1.50285 0
M  V30 5542 O 546.306 -0.573515 -2.08662 0
M  V30 5543 C 546.901 -3.37728 -0.269285 0
M  V30 5544 C 545.46 -3.69868 -0.698168 0
M  V30 5545 C 544.607 -2.76777 0.170249 0
M  V30 5546 H 547.558 -1.48503 0.559704 0
M  V30 5547 H 547.579 -3.64331 -1.0974 0
M  V30 5548 H 547.091 -3.81375 0.719366 0
M  V30 5549 H 545.192 -3.31764 -1.69597 0
M  V30 5550 H 545.305 -4.76582 -0.490533 0
M  V30 5551 H 543.669 -2.52188 -0.356844 0
M  V30 5552 H 544.452 -3.23253 1.15597 0
M  V30 5553 N 546.897 -0.0685191 -1.57451 0
M  V30 5554 C 547.86 0.885173 -2.11417 0
M  V30 5555 C 548.86 1.22853 -1.03748 0
M  V30 5556 O 550.05 1.16235 -1.2975 0
M  V30 5557 C 547.182 2.18964 -2.61281 0
M  V30 5558 H 548.375 0.417034 -2.96986 0
M  V30 5559 H 545.928 0.18014 -1.55258 0
M  V30 5560 H 546.663 2.70321 -1.79156 0
M  V30 5561 H 546.448 1.9534 -3.39977 0
M  V30 5562 H 547.938 2.87242 -3.0312 0
M  V30 5563 N 548.375 1.56261 0.205012 0
M  V30 5564 C 549.786 1.70056 0.770574 0
M  V30 5565 C 550.137 0.673398 1.84282 0
M  V30 5566 O 549.262 -0.172196 2.15714 0
M  V30 5567 C 549.857 3.08316 1.40451 0
M  V30 5568 C 548.416 3.2391 1.91727 0
M  V30 5569 C 547.563 2.66001 0.783516 0
M  V30 5570 H 550.514 1.58688 -0.019911 0
M  V30 5571 H 550.535 3.05094 2.27371 0
M  V30 5572 H 550.047 3.83053 0.623882 0
M  V30 5573 H 548.148 2.54072 2.7254 0
M  V30 5574 H 548.261 4.3131 2.08588 0
M  V30 5575 H 546.625 2.24915 1.19521 0
M  V30 5576 H 547.408 3.43297 0.0152883 0
M  V30 5577 N 549.853 -0.472356 1.50355 0
M  V30 5578 C 550.816 -1.5529 1.68576 0
M  V30 5579 C 551.816 -1.50863 0.556511 0
M  V30 5580 O 553.006 -1.53505 0.823516 0
M  V30 5581 C 550.138 -2.94921 1.70981 0
M  V30 5582 H 551.331 -1.40451 2.64978 0
M  V30 5583 H 548.884 -0.698645 1.39816 0
M  V30 5584 H 549.619 -3.15204 0.762675 0
M  V30 5585 H 549.404 -2.99541 2.53017 0
M  V30 5586 H 550.894 -3.73372 1.87037 0
M  V30 5587 N 551.331 -1.39911 -0.725443 0
M  V30 5588 C 552.559 -1.40949 -1.51463 0
M  V30 5589 C 552.974 -0.0065242 -1.88799 0
M  V30 5590 O 552.331 0.967163 -1.54765 0
M  V30 5591 C 552.382 -2.29119 -2.79619 0
M  V30 5592 O 552.103 -3.63952 -2.43866 0
M  V30 5593 C 553.604 -2.38642 -3.73584 0
M  V30 5594 H 550.824 -0.481091 -0.467752 0
M  V30 5595 H 553.368 -1.83843 -0.895651 0
M  V30 5596 H 551.523 -1.89612 -3.37826 0
M  V30 5597 H 551.937 -4.10677 -3.26258 0
M  V30 5598 H 553.411 -3.04563 -4.60375 0
M  V30 5599 H 553.888 -1.40846 -4.16004 0
M  V30 5600 H 554.494 -2.78659 -3.21293 0
M  V30 5601 N 552.809 0.956637 -1.25245 0
M  V30 5602 C 554.037 1.73571 -1.12608 0
M  V30 5603 C 554.452 1.86063 0.320324 0
M  V30 5604 O 553.809 1.35691 1.22042 0
M  V30 5605 C 553.86 3.15053 -1.77268 0
M  V30 5606 O 553.581 3.03174 -3.16255 0
M  V30 5607 C 555.082 4.09248 -1.70386 0
M  V30 5608 H 552.302 0.543955 -0.392879 0
M  V30 5609 H 554.846 1.20031 -1.65568 0
M  V30 5610 H 553.001 3.65543 -1.28284 0
M  V30 5611 H 553.415 3.9241 -3.48015 0
M  V30 5612 H 554.889 5.06138 -2.20291 0
M  V30 5613 H 555.366 4.34102 -0.667239 0
M  V30 5614 H 555.972 3.64672 -2.18849 0
M  V30 5615 N 554.287 1.06798 1.15896 0
M  V30 5616 C 555.534 0.787767 1.86549 0
M  V30 5617 C 555.862 -0.685959 1.82002 0
M  V30 5618 O 555.117 -1.5188 1.23414 0
M  V30 5619 C 555.416 1.23414 3.35416 0
M  V30 5620 C 555.082 2.71285 3.6016 0
M  V30 5621 C 553.744 3.11676 3.66622 0
M  V30 5622 C 556.096 3.6676 3.7032 0
M  V30 5623 C 553.424 4.4637 3.8075 0
M  V30 5624 C 555.776 5.01209 3.8597 0
M  V30 5625 C 554.44 5.41229 3.90676 0
M  V30 5626 H 553.71 0.288264 0.682631 0
M  V30 5627 H 556.357 1.338 1.37003 0
M  V30 5628 H 554.662 0.60319 3.87129 0
M  V30 5629 H 556.359 0.994298 3.88477 0
M  V30 5630 H 552.949 2.39015 3.55767 0
M  V30 5631 H 557.133 3.36685 3.64633 0
M  V30 5632 H 552.389 4.76855 3.82648 0
M  V30 5633 H 556.563 5.75067 3.92773 0
M  V30 5634 H 554.19 6.45602 4.01375 0
M  V30 5635 N 555.766 -1.3263 0.851289 0
M  V30 5636 C 556.729 -2.27247 0.298541 0
M  V30 5637 C 557.729 -1.51467 -0.539847 0
M  V30 5638 O 558.919 -1.7061 -0.351843 0
M  V30 5639 C 556.051 -3.35964 -0.578004 0
M  V30 5640 H 557.244 -2.7765 1.13359 0
M  V30 5641 H 554.797 -1.43245 0.625354 0
M  V30 5642 H 555.532 -2.90823 -1.435 0
M  V30 5643 H 555.317 -3.92094 0.0220539 0
M  V30 5644 H 556.807 -4.06472 -0.957626 0
M  V30 5645 N 557.244 -0.608902 -1.45362 0
M  V30 5646 C 558.194 0.130616 -2.27626 0
M  V30 5647 C 559.178 0.837323 -1.37396 0
M  V30 5648 O 560.37 0.727096 -1.61376 0
M  V30 5649 C 557.499 1.12646 -3.24293 0
M  V30 5650 C 556.585 0.42052 -4.2201 0
M  V30 5651 N 556.976 -0.538569 -5.02925 0
M  V30 5652 C 555.274 0.667901 -4.40971 0
M  V30 5653 C 555.975 -0.953625 -5.7383 0
M  V30 5654 N 554.951 -0.297097 -5.42788 0
M  V30 5655 H 558.753 -0.605996 -2.87585 0
M  V30 5656 H 556.267 -0.432672 -1.5653 0
M  V30 5657 H 558.264 1.67066 -3.81961 0
M  V30 5658 H 556.924 1.86361 -2.65894 0
M  V30 5659 H 557.935 -0.915375 -5.09746 0
M  V30 5660 H 554.612 1.38963 -3.93695 0
M  V30 5661 H 556.002 -1.74473 -6.48852 0
M  V30 5662 N 558.722 1.53707 -0.348139 0
M  V30 5663 C 559.652 2.28111 0.498766 0
M  V30 5664 C 560.633 1.29851 1.09876 0
M  V30 5665 O 561.818 1.587 1.11928 0
M  V30 5666 C 558.948 3.05735 1.64753 0
M  V30 5667 C 557.902 4.11537 1.17565 0
M  V30 5668 C 557.228 4.77142 2.4133 0
M  V30 5669 C 558.528 5.21587 0.272844 0
M  V30 5670 H 560.222 2.99152 -0.121934 0
M  V30 5671 H 557.768 1.43875 -0.0600842 0
M  V30 5672 H 559.721 3.56526 2.24649 0
M  V30 5673 H 558.445 2.32354 2.2952 0
M  V30 5674 H 557.104 3.61665 0.599483 0
M  V30 5675 H 556.752 4.0035 3.04514 0
M  V30 5676 H 556.452 5.48626 2.10436 0
M  V30 5677 H 557.976 5.30719 3.01943 0
M  V30 5678 H 559.39 5.67986 0.778779 0
M  V30 5679 H 557.787 6.00074 0.0555849 0
M  V30 5680 H 558.857 4.79969 -0.689785 0
M  V30 5681 N 560.2 0.0768682 1.57412 0
M  V30 5682 C 561.477 -0.632359 1.85096 0
M  V30 5683 C 561.857 -1.87479 0.9703 0
M  V30 5684 O 561.205 -2.28469 0.0379062 0
M  V30 5685 C 561.415 -0.965174 3.35388 0
M  V30 5686 C 562.763 -1.33648 4.03018 0
M  V30 5687 O 563.787 -1.05675 3.40164 0
M  V30 5688 O 562.646 -1.85959 5.13889 0
M  V30 5689 H 559.74 -0.314574 0.764835 0
M  V30 5690 H 562.286 0.108184 1.69355 0
M  V30 5691 H 561.058 -0.0829745 3.91212 0
M  V30 5692 H 560.681 -1.76231 3.5641 0
M  V30 5693 N 561.678 -1.56367 -0.196722 0
M  V30 5694 C 562.641 -1.93561 -1.22746 0
M  V30 5695 C 563.641 -0.816566 -1.38524 0
M  V30 5696 O 564.831 -1.084 -1.36363 0
M  V30 5697 C 561.963 -2.20823 -2.59712 0
M  V30 5698 H 563.156 -2.85774 -0.909586 0
M  V30 5699 H 560.709 -1.50032 -0.438174 0
M  V30 5700 H 561.444 -1.31243 -2.96557 0
M  V30 5701 H 561.229 -3.02368 -2.49632 0
M  V30 5702 H 562.719 -2.50608 -3.34044 0
M  V30 5703 N 563.156 0.464375 -1.50603 0
M  V30 5704 C 564.384 1.23907 -1.65695 0
M  V30 5705 C 564.799 1.85658 -0.343027 0
M  V30 5706 O 564.156 1.69529 0.675739 0
M  V30 5707 C 564.207 2.3429 -2.75301 0
M  V30 5708 O 563.928 1.7507 -4.01599 0
M  V30 5709 C 565.429 3.25051 -3.01424 0
M  V30 5710 H 562.649 0.374485 -0.556778 0
M  V30 5711 H 565.193 0.55353 -1.96866 0
M  V30 5712 H 563.348 2.98607 -2.46804 0
M  V30 5713 H 563.762 2.47812 -4.62266 0
M  V30 5714 H 565.236 3.98699 -3.81763 0
M  V30 5715 H 565.713 3.84227 -2.12758 0
M  V30 5716 H 566.319 2.66463 -3.31477 0
M  V30 5717 N 564.634 1.40294 0.718013 0
M  V30 5718 C 565.862 1.4175 1.50714 0
M  V30 5719 C 566.277 0.0165366 1.88793 0
M  V30 5720 O 565.634 -0.958942 1.55276 0
M  V30 5721 C 565.685 2.30598 2.784 0
M  V30 5722 O 565.406 3.6524 2.41932 0
M  V30 5723 C 566.907 2.4062 3.72313 0
M  V30 5724 H 564.127 0.483565 0.465194 0
M  V30 5725 H 566.671 1.84316 0.885889 0
M  V30 5726 H 564.826 1.91401 3.36815 0
M  V30 5727 H 565.24 4.12402 3.24076 0
M  V30 5728 H 566.714 3.07001 4.58753 0
M  V30 5729 H 567.191 1.4305 4.15251 0
M  V30 5730 H 567.797 2.80359 3.19811 0
M  V30 5731 N 566.112 -0.949982 1.2575 0
M  V30 5732 C 567.358 -1.69766 1.10938 0
M  V30 5733 C 567.691 -1.91056 -0.348028 0
M  V30 5734 O 566.966 -1.48488 -1.25625 0
M  V30 5735 C 567.249 -3.07779 1.86933 0
M  V30 5736 C 567.102 -2.9387 3.4053 0
M  V30 5737 C 568.421 -4.07749 1.65616 0
M  V30 5738 H 565.54 -0.616144 0.404396 0
M  V30 5739 H 568.182 -1.10394 1.54639 0
M  V30 5740 H 566.332 -3.58462 1.4979 0
M  V30 5741 H 568.004 -2.50476 3.87375 0
M  V30 5742 H 566.247 -2.29686 3.68004 0
M  V30 5743 H 566.918 -3.91719 3.88922 0
M  V30 5744 H 569.394 -3.65994 1.97959 0
M  V30 5745 H 568.27 -5.02348 2.21218 0
M  V30 5746 H 568.531 -4.38029 0.598595 0
M  V30 5747 N 567.59 -1.07411 -1.15328 0
M  V30 5748 C 568.52 -0.716472 -2.22236 0
M  V30 5749 C 569.501 0.296373 -1.67498 0
M  V30 5750 O 570.686 0.168989 -1.93463 0
M  V30 5751 C 567.816 -0.114142 -3.47112 0
M  V30 5752 C 566.77 -1.05421 -4.14814 0
M  V30 5753 C 566.096 -0.314604 -5.33774 0
M  V30 5754 C 567.396 -2.38808 -4.64508 0
M  V30 5755 H 569.09 -1.61029 -2.52408 0
M  V30 5756 H 566.636 -0.775702 -1.21321 0
M  V30 5757 H 568.589 0.148001 -4.2114 0
M  V30 5758 H 567.313 0.814755 -3.16274 0
M  V30 5759 H 565.972 -1.30128 -3.42728 0
M  V30 5760 H 565.62 0.617772 -4.99192 0
M  V30 5761 H 565.32 -0.941209 -5.80013 0
M  V30 5762 H 566.844 -0.0602747 -6.1057 0
M  V30 5763 H 568.258 -2.18424 -5.3006 0
M  V30 5764 H 566.655 -2.97069 -5.21412 0
M  V30 5765 H 567.725 -3.01067 -3.80114 0
M  V30 5766 N 569.068 1.32177 -0.85831 0
M  V30 5767 C 570.293 2.01847 -0.476718 0
M  V30 5768 C 570.718 1.64065 0.920021 0
M  V30 5769 O 570.076 0.843189 1.60499 0
M  V30 5770 C 570.124 3.55097 -0.627578 0
M  V30 5771 O 569.228 4.11012 0.338086 0
M  V30 5772 H 568.569 0.635907 -0.191099 0
M  V30 5773 H 571.099 1.68641 -1.15851 0
M  V30 5774 H 571.109 4.04718 -0.516476 0
M  V30 5775 H 569.784 3.81938 -1.64609 0
M  V30 5776 H 568.361 3.72451 0.182917 0
M  V30 5777 N 570.547 0.616602 1.45037 0
M  V30 5778 C 571.963 0.280994 1.57107 0
M  V30 5779 C 572.163 -1.21627 1.60653 0
M  V30 5780 O 571.219 -1.9997 1.54169 0
M  V30 5781 C 572.532 0.960116 2.8496 0
M  V30 5782 C 574.08 0.936884 2.98649 0
M  V30 5783 C 574.555 1.59619 4.29285 0
M  V30 5784 N 576.046 1.5621 4.36065 0
M  V30 5785 C 576.781 2.04131 5.35834 0
M  V30 5786 N 576.277 2.60177 6.4209 0
M  V30 5787 N 578.07 1.94845 5.27249 0
M  V30 5788 H 570.221 1.58867 1.40979 0
M  V30 5789 H 572.484 0.666024 0.674623 0
M  V30 5790 H 572.19 2.01473 2.88273 0
M  V30 5791 H 572.064 0.488921 3.74018 0
M  V30 5792 H 574.451 -0.109209 2.94898 0
M  V30 5793 H 574.532 1.44643 2.10979 0
M  V30 5794 H 574.176 2.64166 4.33796 0
M  V30 5795 H 574.106 1.06159 5.15789 0
M  V30 5796 H 576.597 1.15276 3.59889 0
M  V30 5797 H 576.91 2.94513 7.1448 0
M  V30 5798 H 575.255 2.64221 6.42816 0
M  V30 5799 H 578.446 1.50792 4.43147 0
M  V30 5800 H 578.619 2.32504 6.04852 0
M  V30 5801 N 572.025 -1.5352 0.356285 0
M  V30 5802 C 572.988 -2.24071 -0.482182 0
M  V30 5803 C 573.988 -1.24531 -1.01729 0
M  V30 5804 O 575.178 -1.48876 -0.904513 0
M  V30 5805 C 572.31 -2.97025 -1.67299 0
M  V30 5806 H 573.503 -2.99596 0.135031 0
M  V30 5807 H 571.056 -1.55928 0.107825 0
M  V30 5808 H 571.791 -2.25719 -2.32855 0
M  V30 5809 H 571.576 -3.7005 -1.29636 0
M  V30 5810 H 573.066 -3.50683 -2.26741 0
M  V30 5811 N 573.503 -0.0852151 -1.57369 0
M  V30 5812 C 574.752 0.580443 -1.93168 0
M  V30 5813 C 575.065 1.6995 -0.968319 0
M  V30 5814 O 576.271 2.42564 -1.21963 0
M  V30 5815 C 574.727 1.08386 -3.43192 0
M  V30 5816 C 574.335 -0.00491388 -4.48 0
M  V30 5817 C 576.079 1.72281 -3.87968 0
M  V30 5818 C 573.986 0.513299 -5.89168 0
M  V30 5819 H 572.916 0.22059 -0.72101 0
M  V30 5820 H 575.567 -0.159621 -1.82804 0
M  V30 5821 H 573.949 1.8773 -3.48674 0
M  V30 5822 H 575.123 -0.780032 -4.5415 0
M  V30 5823 H 573.438 -0.548453 -4.12772 0
M  V30 5824 H 576.035 2.12108 -4.9083 0
M  V30 5825 H 576.378 2.58811 -3.26071 0
M  V30 5826 H 576.911 0.995359 -3.85146 0
M  V30 5827 H 573.65 -0.315153 -6.54742 0
M  V30 5828 H 573.17 1.25564 -5.8651 0
M  V30 5829 H 574.849 0.985433 -6.39451 0
M  V30 5830 N 574.981 1.5647 0.188427 0
M  V30 5831 C 575.944 1.9421 1.21718 0
M  V30 5832 C 576.944 0.823901 1.38089 0
M  V30 5833 O 578.134 1.09122 1.35787 0
M  V30 5834 C 575.266 2.22197 2.58537 0
M  V30 5835 H 576.459 2.86252 0.894418 0
M  V30 5836 H 574.012 1.50263 0.430211 0
M  V30 5837 H 574.747 1.32814 2.95856 0
M  V30 5838 H 574.532 3.03688 2.48025 0
M  V30 5839 H 576.022 2.52376 3.3271 0
M  V30 5840 N 576.459 -0.456382 1.50847 0
M  V30 5841 C 577.369 -1.57805 1.73594 0
M  V30 5842 C 578.385 -1.62599 0.619476 0
M  V30 5843 O 579.561 -1.80195 0.899532 0
M  V30 5844 C 576.626 -2.93926 1.8387 0
M  V30 5845 C 575.687 -2.99402 3.07663 0
M  V30 5846 C 574.92 -4.29031 3.1744 0
M  V30 5847 O 575.143 -5.20358 2.33631 0
M  V30 5848 O 574.077 -4.40401 4.10281 0
M  V30 5849 H 577.903 -1.41531 2.68705 0
M  V30 5850 H 575.488 -0.637422 1.3512 0
M  V30 5851 H 577.37 -3.74747 1.92725 0
M  V30 5852 H 576.045 -3.10368 0.91944 0
M  V30 5853 H 574.952 -2.17606 3.043 0
M  V30 5854 H 576.285 -2.87901 3.99216 0
M  V30 5855 N 577.937 -1.40673 -0.710563 0
M  V30 5856 C 578.867 -1.44095 -1.83736 0
M  V30 5857 C 579.848 -0.301286 -1.67411 0
M  V30 5858 O 581.033 -0.510618 -1.87367 0
M  V30 5859 C 578.163 -1.30773 -3.21738 0
M  V30 5860 C 577.117 -2.42395 -3.52745 0
M  V30 5861 C 576.443 -2.14147 -4.89944 0
M  V30 5862 C 577.743 -3.84738 -3.53234 0
M  V30 5863 H 579.437 -2.38396 -1.81129 0
M  V30 5864 H 576.983 -1.14746 -0.870017 0
M  V30 5865 H 578.936 -1.31783 -4.00264 0
M  V30 5866 H 577.66 -0.329507 -3.24934 0
M  V30 5867 H 576.319 -2.40643 -2.76562 0
M  V30 5868 H 575.967 -1.14703 -4.89747 0
M  V30 5869 H 575.667 -2.88934 -5.11655 0
M  V30 5870 H 577.191 -2.16848 -5.70797 0
M  V30 5871 H 578.605 -3.88286 -4.2179 0
M  V30 5872 H 577.002 -4.59085 -3.86473 0
M  V30 5873 H 578.072 -4.13962 -2.52514 0
M  V30 5874 N 579.415 0.9433 -1.26252 0
M  V30 5875 C 580.663 1.68592 -1.11451 0
M  V30 5876 C 580.984 1.91957 0.343123 0
M  V30 5877 O 580.254 1.51475 1.24226 0
M  V30 5878 H 578.834 0.624789 -0.409448 0
M  V30 5879 H 581.496 1.13351 -1.58548 0
M  V30 5880 H 580.592 2.66054 -1.63162 0
M  V30 5881 N 580.893 1.08022 1.14757 0
M  V30 5882 C 582.142 0.802468 1.8505 0
M  V30 5883 C 582.455 -0.674061 1.83619 0
M  V30 5884 O 583.661 -1.06683 2.49662 0
M  V30 5885 C 582.117 1.38551 3.32162 0
M  V30 5886 C 581.725 2.89354 3.42021 0
M  V30 5887 C 583.469 1.18608 4.07594 0
M  V30 5888 C 581.376 3.40815 4.83321 0
M  V30 5889 H 580.306 0.296518 0.693248 0
M  V30 5890 H 582.957 1.30114 1.29393 0
M  V30 5891 H 581.339 0.814556 3.87532 0
M  V30 5892 H 582.513 3.52552 2.96722 0
M  V30 5893 H 580.828 3.08165 2.80041 0
M  V30 5894 H 583.425 1.54525 5.11885 0
M  V30 5895 H 583.768 0.125599 4.1611 0
M  V30 5896 H 584.301 1.72375 3.58513 0
M  V30 5897 H 581.04 4.46418 4.79991 0
M  V30 5898 H 580.56 2.82374 5.29174 0
M  V30 5899 H 582.239 3.37171 5.522 0
M  V30 5900 N 582.371 -1.3172 0.865308 0
M  V30 5901 C 583.601 -2.00765 0.487543 0
M  V30 5902 C 584.009 -1.65145 -0.92325 0
M  V30 5903 O 583.352 -0.874294 -1.61561 0
M  V30 5904 C 583.414 -3.55122 0.559369 0
M  V30 5905 C 583.078 -4.14202 1.93095 0
M  V30 5906 C 584.075 -4.3165 2.89784 0
M  V30 5907 C 581.76 -4.50036 2.23099 0
M  V30 5908 C 583.754 -4.84114 4.14623 0
M  V30 5909 C 581.441 -5.02203 3.48189 0
M  V30 5910 C 582.439 -5.19192 4.43767 0
M  V30 5911 O 582.127 -5.70241 5.6664 0
M  V30 5912 H 581.859 -0.649066 0.188915 0
M  V30 5913 H 584.413 -1.69032 1.16694 0
M  V30 5914 H 582.643 -3.86295 -0.176926 0
M  V30 5915 H 584.332 -4.05428 0.195694 0
M  V30 5916 H 585.098 -4.04288 2.6791 0
M  V30 5917 H 580.977 -4.36091 1.49485 0
M  V30 5918 H 584.521 -4.9729 4.89233 0
M  V30 5919 H 580.418 -5.28997 3.69908 0
M  V30 5920 H 581.186 -5.88617 5.68746 0
M  V30 5921 N 583.85 -0.624285 -1.44708 0
M  V30 5922 C 585.26 -0.2092 -1.85524 0
M  V30 5923 C 585.611 1.23783 -1.52225 0
M  V30 5924 O 584.736 1.94089 -0.956986 0
M  V30 5925 C 585.332 -0.372897 -3.36742 0
M  V30 5926 C 583.891 -0.012374 -3.76398 0
M  V30 5927 C 583.038 -0.68951 -2.68591 0
M  V30 5928 H 585.989 -0.829894 -1.35272 0
M  V30 5929 H 586.01 0.390134 -3.78495 0
M  V30 5930 H 585.522 -1.42615 -3.60947 0
M  V30 5931 H 583.623 1.03941 -3.57809 0
M  V30 5932 H 583.736 -0.417663 -4.77276 0
M  V30 5933 H 582.1 -0.125484 -2.54391 0
M  V30 5934 H 582.883 -1.74522 -2.9563 0
M  V30 5935 N 585.328 1.53329 -0.364422 0
M  V30 5936 C 586.291 2.24323 0.470292 0
M  V30 5937 C 587.291 1.25068 1.01067 0
M  V30 5938 O 588.481 1.49354 0.896605 0
M  V30 5939 C 585.613 2.97908 1.65722 0
M  V30 5940 H 586.806 2.9952 -0.150917 0
M  V30 5941 H 584.359 1.55868 -0.116092 0
M  V30 5942 H 585.094 2.2695 2.31655 0
M  V30 5943 H 584.879 3.70732 1.27671 0
M  V30 5944 H 586.369 3.5188 2.24878 0
M  V30 5945 N 586.806 0.0935595 1.57322 0
M  V30 5946 C 588.052 -0.571355 1.94585 0
M  V30 5947 C 588.385 -1.67929 0.975366 0
M  V30 5948 O 587.66 -1.94498 0.00816206 0
M  V30 5949 C 587.943 -1.12797 3.41978 0
M  V30 5950 C 587.796 -0.0251881 4.49793 0
M  V30 5951 C 589.115 -2.02682 3.90651 0
M  V30 5952 H 586.234 -0.206223 0.70756 0
M  V30 5953 H 588.876 0.163956 1.89291 0
M  V30 5954 H 587.026 -1.75461 3.4662 0
M  V30 5955 H 588.698 0.608979 4.57263 0
M  V30 5956 H 586.941 0.641399 4.29032 0
M  V30 5957 H 587.612 -0.455433 5.50118 0
M  V30 5958 H 590.088 -1.49925 3.88152 0
M  V30 5959 H 588.964 -2.38555 4.94351 0
M  V30 5960 H 589.225 -2.94362 3.29854 0
M  V30 5961 N 588.284 -1.56567 -0.180126 0
M  V30 5962 C 589.561 -1.7235 -0.924931 0
M  V30 5963 C 589.941 -0.652523 -2.00762 0
M  V30 5964 O 589.289 0.334115 -2.26044 0
M  V30 5965 C 589.499 -3.1523 -1.49771 0
M  V30 5966 C 590.847 -3.75921 -1.97405 0
M  V30 5967 O 591.871 -3.18452 -1.59583 0
M  V30 5968 O 590.73 -4.7681 -2.67048 0
M  V30 5969 H 587.824 -0.703502 -0.434758 0
M  V30 5970 H 590.37 -1.6886 -0.168647 0
M  V30 5971 H 589.142 -3.84656 -0.718027 0
M  V30 5972 H 588.765 -3.23009 -2.31842 0
M  V30 5973 N 589.762 0.448376 -1.51087 0
M  V30 5974 C 591.173 1.0286 -1.5581 0
M  V30 5975 C 591.524 1.92583 -0.374989 0
M  V30 5976 O 590.649 2.10316 0.509533 0
M  V30 5977 C 591.244 1.87223 -2.8237 0
M  V30 5978 C 589.803 2.40314 -2.897 0
M  V30 5979 C 588.95 1.19238 -2.50355 0
M  V30 5980 H 591.901 0.230075 -1.57023 0
M  V30 5981 H 591.922 2.72553 -2.6551 0
M  V30 5982 H 591.434 1.21894 -3.68461 0
M  V30 5983 H 589.535 3.09129 -2.08014 0
M  V30 5984 H 589.648 2.73866 -3.93108 0
M  V30 5985 H 588.012 1.53428 -2.03303 0
M  V30 5986 H 588.795 0.555367 -3.38778 0
M  V30 5987 N 591.24 1.41047 0.703093 0
M  V30 5988 C 592.17 1.45067 1.82969 0
M  V30 5989 C 593.151 0.31016 1.67248 0
M  V30 5990 O 594.336 0.520548 1.87093 0
M  V30 5991 C 591.466 1.32478 3.2104 0
M  V30 5992 C 590.42 2.44262 3.51454 0
M  V30 5993 C 589.746 2.16742 4.88801 0
M  V30 5994 C 591.046 3.86606 3.51189 0
M  V30 5995 H 592.74 2.39353 1.79863 0
M  V30 5996 H 590.286 1.15206 0.863919 0
M  V30 5997 H 592.239 1.33904 3.99559 0
M  V30 5998 H 590.963 0.346735 3.24754 0
M  V30 5999 H 589.622 2.42107 2.75282 0
M  V30 6000 H 589.27 1.17299 4.89132 0
M  V30 6001 H 588.97 2.91643 5.10116 0
M  V30 6002 H 590.494 2.19872 5.69639 0
M  V30 6003 H 591.908 3.90517 4.19725 0
M  V30 6004 H 590.305 4.61128 3.84033 0
M  V30 6005 H 591.375 4.15296 2.50315 0
M  V30 6006 N 592.718 -0.936591 1.26751 0
M  V30 6007 C 593.995 -1.66094 1.03306 0
M  V30 6008 C 594.375 -2.06568 -0.435058 0
M  V30 6009 O 593.723 -1.79305 -1.41641 0
M  V30 6010 C 593.933 -2.86969 1.98619 0
M  V30 6011 C 595.281 -3.58516 2.27489 0
M  V30 6012 O 596.305 -2.97082 1.96522 0
M  V30 6013 O 595.164 -4.69181 2.80235 0
M  V30 6014 H 592.258 -0.727568 0.393158 0
M  V30 6015 H 594.804 -0.987914 1.3798 0
M  V30 6016 H 593.576 -2.53985 2.9767 0
M  V30 6017 H 593.199 -3.61996 1.64454 0
M  V30 6018 N 594.196 -1.08629 -1.14182 0
M  V30 6019 C 595.421 -0.83902 -1.89671 0
M  V30 6020 C 595.846 0.603332 -1.78161 0
M  V30 6021 O 595.204 1.42301 -1.12339 0
M  V30 6022 C 595.252 -1.26854 -3.37551 0
M  V30 6023 O 594.356 -0.42188 -4.10236 0
M  V30 6024 H 593.697 -0.304545 -0.590041 0
M  V30 6025 H 596.227 -1.4483 -1.44518 0
M  V30 6026 H 596.237 -1.25038 -3.88368 0
M  V30 6027 H 594.912 -2.31901 -3.45246 0
M  V30 6028 H 593.489 -0.503654 -3.69483 0
M  V30 6029 N 595.674 1.31259 -0.872281 0
M  V30 6030 C 596.902 2.00795 -0.498907 0
M  V30 6031 C 597.317 1.65464 0.909238 0
M  V30 6032 O 596.674 0.885073 1.59602 0
M  V30 6033 C 596.725 3.55625 -0.649092 0
M  V30 6034 O 596.446 3.89692 -2.00179 0
M  V30 6035 C 597.947 4.42434 -0.277034 0
M  V30 6036 H 595.167 0.642299 -0.194145 0
M  V30 6037 H 597.711 1.67438 -1.17408 0
M  V30 6038 H 595.866 3.87394 -0.0214402 0
M  V30 6039 H 596.28 4.84407 -2.01122 0
M  V30 6040 H 597.754 5.50299 -0.433064 0
M  V30 6041 H 598.231 4.32146 0.783989 0
M  V30 6042 H 598.837 4.16086 -0.880483 0
M  V30 6043 N 597.152 0.631951 1.44375 0
M  V30 6044 C 598.377 0.142146 2.06912 0
M  V30 6045 C 598.802 -1.17456 1.4692 0
M  V30 6046 O 598.16 -1.72074 0.570975 0
M  V30 6047 C 598.208 0.0417952 3.60576 0
M  V30 6048 O 597.312 -1.00194 4.00044 0
M  V30 6049 H 596.653 0.0851491 0.658518 0
M  V30 6050 H 599.183 0.868863 1.85235 0
M  V30 6051 H 599.193 -0.148517 4.0773 0
M  V30 6052 H 597.868 1.0031 4.03622 0
M  V30 6053 H 596.445 -0.786131 3.64519 0
M  V30 6054 N 598.631 -1.53133 0.372548 0
M  V30 6055 C 600.047 -1.59585 0.02178 0
M  V30 6056 C 600.247 -1.38736 -1.46132 0
M  V30 6057 O 599.303 -1.19599 -2.22379 0
M  V30 6058 C 600.616 -2.9678 0.483959 0
M  V30 6059 C 602.164 -3.09909 0.438775 0
M  V30 6060 C 602.639 -4.49527 0.876876 0
M  V30 6061 N 604.13 -4.55663 0.832214 0
M  V30 6062 C 604.865 -5.61896 1.14281 0
M  V30 6063 N 604.361 -6.75852 1.52303 0
M  V30 6064 N 606.154 -5.51916 1.06515 0
M  V30 6065 H 598.305 -1.64936 1.33827 0
M  V30 6066 H 600.568 -0.773947 0.547458 0
M  V30 6067 H 600.274 -3.17198 1.51915 0
M  V30 6068 H 600.148 -3.7699 -0.125784 0
M  V30 6069 H 602.535 -2.89197 -0.587294 0
M  V30 6070 H 602.616 -2.31691 1.0841 0
M  V30 6071 H 602.26 -4.70979 1.90109 0
M  V30 6072 H 602.19 -5.26186 0.208727 0
M  V30 6073 H 604.681 -3.73844 0.552195 0
M  V30 6074 H 604.994 -7.52862 1.7441 0
M  V30 6075 H 603.339 -6.77226 1.56175 0
M  V30 6076 H 606.53 -4.6177 0.767235 0
M  V30 6077 H 606.703 -6.34609 1.31053 0
M  V30 6078 N 600.109 -0.101901 -1.5727 0
M  V30 6079 C 601.358 0.559922 -1.93772 0
M  V30 6080 C 601.671 1.68913 -0.98629 0
M  V30 6081 O 602.877 2.41256 -1.24529 0
M  V30 6082 C 601.333 1.04739 -3.44322 0
M  V30 6083 C 600.941 -0.05243 -4.47969 0
M  V30 6084 C 602.685 1.68157 -3.89774 0
M  V30 6085 C 600.592 0.450781 -5.8968 0
M  V30 6086 H 599.522 0.212931 -0.723309 0
M  V30 6087 H 602.173 -0.179001 -1.82625 0
M  V30 6088 H 600.555 1.84021 -3.50645 0
M  V30 6089 H 601.729 -0.828157 -4.53297 0
M  V30 6090 H 600.044 -0.592202 -4.12167 0
M  V30 6091 H 602.641 2.0689 -4.93052 0
M  V30 6092 H 602.984 2.55338 -3.28798 0
M  V30 6093 H 603.517 0.954453 -3.8618 0
M  V30 6094 H 600.256 -0.38458 -6.54371 0
M  V30 6095 H 599.776 1.19336 -5.87809 0
M  V30 6096 H 601.455 0.917555 -6.40461 0
M  V30 6097 N 601.587 1.56661 0.17182 0
M  V30 6098 C 602.52 1.91474 1.24149 0
M  V30 6099 C 603.498 0.777485 1.42807 0
M  V30 6100 O 604.682 1.03075 1.57822 0
M  V30 6101 C 601.809 2.16523 2.60453 0
M  V30 6102 C 600.855 3.39209 2.58533 0
M  V30 6103 S 601.688 4.93594 2.07665 0
M  V30 6104 C 602.844 5.21737 3.45747 0
M  V30 6105 H 603.077 2.81903 0.944346 0
M  V30 6106 H 600.61 1.49743 0.376364 0
M  V30 6107 H 602.568 2.31635 3.38903 0
M  V30 6108 H 601.229 1.26802 2.87368 0
M  V30 6109 H 600.422 3.53935 3.58812 0
M  V30 6110 H 600.024 3.2321 1.88178 0
M  V30 6111 H 602.316 5.13684 4.41741 0
M  V30 6112 H 603.259 6.23361 3.35896 0
M  V30 6113 H 603.667 4.49307 3.41736 0
M  V30 6114 N 603.065 -0.440357 1.51323 0
M  V30 6115 C 604.342 -1.20109 1.5438 0
M  V30 6116 C 604.722 -2.08866 0.306303 0
M  V30 6117 O 604.07 -2.1723 -0.708773 0
M  V30 6118 C 604.28 -2.00555 2.8562 0
M  V30 6119 C 605.628 -2.577 3.37455 0
M  V30 6120 O 606.652 -2.10769 2.8715 0
M  V30 6121 O 605.511 -3.43289 4.25224 0
M  V30 6122 H 602.605 -0.546668 0.620551 0
M  V30 6123 H 605.151 -0.449672 1.63634 0
M  V30 6124 H 603.923 -1.35346 3.67147 0
M  V30 6125 H 603.546 -2.82768 2.79514 0
M  V30 6126 N 604.543 -1.41418 -0.695603 0
M  V30 6127 C 605.954 -1.36335 -1.27552 0
M  V30 6128 C 606.305 -0.0464336 -1.96145 0
M  V30 6129 O 605.43 0.855304 -1.9878 0
M  V30 6130 C 606.025 -2.46941 -2.3196 0
M  V30 6131 C 604.584 -2.45256 -2.85529 0
M  V30 6132 C 603.731 -2.2679 -1.59566 0
M  V30 6133 H 606.682 -1.50934 -0.490362 0
M  V30 6134 H 606.703 -2.15997 -3.1325 0
M  V30 6135 H 606.215 -3.42775 -1.82008 0
M  V30 6136 H 604.316 -1.53179 -3.39657 0
M  V30 6137 H 604.429 -3.41565 -3.35961 0
M  V30 6138 H 602.793 -1.74667 -1.85374 0
M  V30 6139 H 603.576 -3.24651 -1.1161 0
M  V30 6140 N 606.021 0.929856 -1.27246 0
M  V30 6141 C 606.969 2.05151 -1.09616 0
M  V30 6142 C 607.963 1.69388 -0.0198617 0
M  V30 6143 O 609.169 1.79124 -0.177417 0
M  V30 6144 H 605.544 0.671909 -0.337701 0
M  V30 6145 H 607.515 2.17168 -2.04648 0
M  V30 6146 C 606.264 3.3934 -0.757851 0
M  V30 6147 H 605.587 3.67343 -1.57795 0
M  V30 6148 H 607.027 4.18603 -0.674358 0
M  V30 6149 C 605.486 3.32582 0.537658 0
M  V30 6150 O 606.016 3.69633 1.57271 0
M  V30 6151 N 604.222 2.8568 0.532478 0
M  V30 6152 H 603.769 2.55725 -0.310233 0
M  V30 6153 H 603.727 2.81541 1.39936 0
M  V30 6154 N 607.499 1.09233 1.13605 0
M  V30 6155 C 608.748 0.82205 1.84188 0
M  V30 6156 C 609.061 -0.654548 1.84323 0
M  V30 6157 O 610.267 -1.04029 2.50779 0
M  V30 6158 C 608.723 1.42066 3.30674 0
M  V30 6159 C 608.331 2.92965 3.38933 0
M  V30 6160 C 610.075 1.22924 4.06313 0
M  V30 6161 C 607.982 3.45922 4.79679 0
M  V30 6162 H 606.912 0.303854 0.690064 0
M  V30 6163 H 609.563 1.31479 1.28006 0
M  V30 6164 H 607.945 0.855613 3.86646 0
M  V30 6165 H 609.119 3.55679 2.92966 0
M  V30 6166 H 607.434 3.11118 2.76757 0
M  V30 6167 H 610.031 1.59945 5.10217 0
M  V30 6168 H 610.374 0.169726 4.15954 0
M  V30 6169 H 610.907 1.76168 3.56665 0
M  V30 6170 H 607.646 4.51484 4.75229 0
M  V30 6171 H 607.166 2.87971 5.26149 0
M  V30 6172 H 608.845 3.43009 5.48592 0
M  V30 6173 N 608.977 -1.30795 0.87923 0
M  V30 6174 C 610.223 -1.96653 0.495519 0
M  V30 6175 C 610.556 -1.69282 -0.951703 0
M  V30 6176 O 609.831 -0.994374 -1.6716 0
M  V30 6177 C 610.114 -3.51898 0.764174 0
M  V30 6178 C 609.967 -3.88808 2.2616 0
M  V30 6179 C 611.286 -4.39462 0.236825 0
M  V30 6180 H 608.405 -0.7143 0.181507 0
M  V30 6181 H 611.047 -1.54765 1.10217 0
M  V30 6182 H 609.197 -3.87709 0.247841 0
M  V30 6183 H 610.869 -3.63051 2.8459 0
M  V30 6184 H 609.112 -3.37082 2.73053 0
M  V30 6185 H 609.783 -4.97086 2.4002 0
M  V30 6186 H 612.259 -4.10528 0.678683 0
M  V30 6187 H 611.135 -5.47018 0.454176 0
M  V30 6188 H 611.396 -4.33621 -0.861683 0
M  V30 6189 N 610.455 -0.639598 -1.44038 0
M  V30 6190 C 611.703 -0.147188 -2.01563 0
M  V30 6191 C 612.024 1.2384 -1.50628 0
M  V30 6192 O 611.294 1.82452 -0.713316 0
M  V30 6193 H 609.874 -0.0514231 -0.745228 0
M  V30 6194 H 612.536 -0.828205 -1.76428 0
M  V30 6195 H 611.632 -0.121358 -3.11864 0
M  V30 6196 N 611.933 1.52934 -0.380664 0
M  V30 6197 C 613.158 2.06363 0.207157 0
M  V30 6198 C 613.583 1.25122 1.4045 0
M  V30 6199 O 612.941 0.274062 1.79217 0
M  V30 6200 C 612.989 3.56162 0.563996 0
M  V30 6201 O 612.093 3.77552 1.65917 0
M  V30 6202 H 611.434 0.663468 0.0265859 0
M  V30 6203 H 613.964 1.9719 -0.545635 0
M  V30 6204 H 613.974 3.99453 0.830752 0
M  V30 6205 H 612.649 4.14732 -0.311427 0
M  V30 6206 H 611.226 3.46154 1.3868 0
M  V30 6207 N 613.412 0.11024 1.57214 0
M  V30 6208 C 614.322 -0.857077 2.18383 0
M  V30 6209 C 615.338 -1.29915 1.1575 0
M  V30 6210 O 616.514 -1.36394 1.48184 0
M  V30 6211 C 613.579 -2.09264 2.76423 0
M  V30 6212 C 612.64 -1.70333 3.94063 0
M  V30 6213 C 611.873 -2.87999 4.49324 0
M  V30 6214 O 612.096 -4.0317 4.03497 0
M  V30 6215 O 611.03 -2.6559 5.40135 0
M  V30 6216 H 614.856 -0.366561 3.0148 0
M  V30 6217 H 612.441 -0.114914 1.48957 0
M  V30 6218 H 614.323 -2.81644 3.13456 0
M  V30 6219 H 612.998 -2.57339 1.96363 0
M  V30 6220 H 611.905 -0.950864 3.61814 0
M  V30 6221 H 613.238 -1.27007 4.75531 0
M  V30 6222 N 614.89 -1.56749 -0.16351 0
M  V30 6223 C 615.84 -1.93424 -1.20712 0
M  V30 6224 C 616.824 -0.803469 -1.39403 0
M  V30 6225 O 618.016 -1.06675 -1.41243 0
M  V30 6226 C 615.145 -2.30431 -2.54473 0
M  V30 6227 C 614.231 -3.5004 -2.39443 0
M  V30 6228 N 614.622 -4.67058 -1.9414 0
M  V30 6229 C 612.92 -3.548 -2.70246 0
M  V30 6230 C 613.621 -5.49184 -1.9176 0
M  V30 6231 N 612.597 -4.9044 -2.34457 0
M  V30 6232 H 616.399 -2.8138 -0.848681 0
M  V30 6233 H 613.913 -1.58089 -0.371717 0
M  V30 6234 H 615.91 -2.54903 -3.29894 0
M  V30 6235 H 614.57 -1.43818 -2.91112 0
M  V30 6236 H 615.581 -4.91128 -1.64357 0
M  V30 6237 H 612.258 -2.78685 -3.10871 0
M  V30 6238 H 613.648 -6.5297 -1.58366 0
M  V30 6239 N 616.368 0.432326 -1.51554 0
M  V30 6240 C 617.598 1.2019 -1.68042 0
M  V30 6241 C 618.006 1.85356 -0.379434 0
M  V30 6242 O 617.349 1.71724 0.652427 0
M  V30 6243 C 617.411 2.32387 -2.74292 0
M  V30 6244 C 617.075 1.87548 -4.16743 0
M  V30 6245 C 618.072 1.37611 -5.01357 0
M  V30 6246 C 615.757 1.95087 -4.62868 0
M  V30 6247 C 617.751 0.958069 -6.30159 0
M  V30 6248 C 615.438 1.52894 -5.91664 0
M  V30 6249 C 616.436 1.03336 -6.75137 0
M  V30 6250 O 616.124 0.617435 -8.01525 0
M  V30 6251 H 615.856 0.368132 -0.56697 0
M  V30 6252 H 618.41 0.517875 -1.98764 0
M  V30 6253 H 616.64 3.04082 -2.38895 0
M  V30 6254 H 618.329 2.94235 -2.79608 0
M  V30 6255 H 619.095 1.31178 -4.66923 0
M  V30 6256 H 614.974 2.32606 -3.98015 0
M  V30 6257 H 618.518 0.570562 -6.95263 0
M  V30 6258 H 614.415 1.58999 -6.25611 0
M  V30 6259 H 615.183 0.742835 -8.15122 0
M  V30 6260 N 617.846 1.41785 0.688094 0
M  V30 6261 C 619.123 1.32031 1.44316 0
M  V30 6262 C 619.503 -0.0486079 2.11044 0
M  V30 6263 O 618.851 -1.06332 2.02252 0
M  V30 6264 C 619.061 2.47906 2.45649 0
M  V30 6265 C 620.409 2.89415 3.10683 0
M  V30 6266 O 621.433 2.477 2.55975 0
M  V30 6267 O 620.292 3.61573 4.09789 0
M  V30 6268 H 617.386 0.519994 0.643067 0
M  V30 6269 H 619.932 1.53765 0.71794 0
M  V30 6270 H 618.704 3.39222 1.95048 0
M  V30 6271 H 618.327 2.28089 3.25671 0
M  V30 6272 N 619.324 -0.923095 1.27737 0
M  V30 6273 C 620.57 -1.67375 1.14514 0
M  V30 6274 C 620.903 -1.91751 -0.307424 0
M  V30 6275 O 620.178 -1.51119 -1.22447 0
M  V30 6276 C 620.461 -3.03745 1.9342 0
M  V30 6277 C 620.314 -2.86581 3.46686 0
M  V30 6278 C 621.633 -4.04144 1.74228 0
M  V30 6279 H 618.752 -0.607427 0.417374 0
M  V30 6280 H 621.394 -1.07089 1.56946 0
M  V30 6281 H 619.544 -3.55204 1.5736 0
M  V30 6282 H 621.216 -2.42203 3.92601 0
M  V30 6283 H 619.459 -2.21829 3.72793 0
M  V30 6284 H 620.13 -3.83381 3.97143 0
M  V30 6285 H 622.606 -3.61712 2.05678 0
M  V30 6286 H 621.482 -4.97543 2.31824 0
M  V30 6287 H 621.743 -4.36661 0.691373 0
M  V30 6288 N 620.802 -1.09834 -1.13024 0
M  V30 6289 C 621.765 -0.745058 -2.16752 0
M  V30 6290 C 622.765 0.227435 -1.59183 0
M  V30 6291 O 623.955 0.0050786 -1.74199 0
M  V30 6292 C 621.087 -0.102543 -3.40746 0
M  V30 6293 H 622.28 -1.66375 -2.49518 0
M  V30 6294 H 619.833 -0.898061 -1.27924 0
M  V30 6295 H 620.568 0.827177 -3.13573 0
M  V30 6296 H 620.353 -0.80235 -3.83803 0
M  V30 6297 H 621.843 0.129082 -4.174 0
M  V30 6298 N 622.28 1.30327 -0.886154 0
M  V30 6299 C 623.696 1.48676 -0.580323 0
M  V30 6300 C 623.896 1.81189 0.881639 0
M  V30 6301 O 622.952 1.90021 1.66278 0
M  V30 6302 C 624.265 2.60932 -1.49449 0
M  V30 6303 C 625.813 2.74812 -1.49824 0
M  V30 6304 C 626.288 3.90183 -2.39836 0
M  V30 6305 N 627.779 3.97495 -2.37806 0
M  V30 6306 C 628.514 4.86078 -3.04165 0
M  V30 6307 N 628.01 5.79448 -3.79753 0
M  V30 6308 N 629.803 4.79456 -2.93391 0
M  V30 6309 H 621.954 1.07495 -1.8319 0
M  V30 6310 H 624.217 0.532661 -0.784204 0
M  V30 6311 H 623.923 2.43731 -2.5355 0
M  V30 6312 H 623.797 3.57437 -1.20494 0
M  V30 6313 H 626.184 2.91418 -0.464731 0
M  V30 6314 H 626.265 1.78924 -1.82811 0
M  V30 6315 H 625.909 3.74334 -3.43273 0
M  V30 6316 H 625.839 4.85411 -2.04166 0
M  V30 6317 H 628.33 3.30703 -1.82877 0
M  V30 6318 H 628.643 6.43805 -4.27475 0
M  V30 6319 H 626.988 5.79376 -3.8386 0
M  V30 6320 H 630.179 4.05494 -2.33864 0
M  V30 6321 H 630.352 5.48283 -3.45383 0
M  V30 6322 N 623.758 0.647228 1.43697 0
M  V30 6323 C 625.006 0.157876 2.01482 0
M  V30 6324 C 625.327 -1.23039 1.51282 0
M  V30 6325 O 624.597 -1.82071 0.722982 0
M  V30 6326 H 623.177 0.0553745 0.744945 0
M  V30 6327 H 625.839 0.83755 1.75986 0
M  V30 6328 H 624.935 0.137895 3.11795 0
M  V30 6329 N 625.236 -1.5273 0.388769 0
M  V30 6330 C 626.482 -2.01871 -0.193877 0
M  V30 6331 C 626.815 -1.27475 -1.46505 0
M  V30 6332 O 626.09 -0.375063 -1.90849 0
M  V30 6333 C 626.373 -3.5712 -0.462336 0
M  V30 6334 C 626.226 -4.42186 0.824091 0
M  V30 6335 C 627.545 -4.21881 -1.25319 0
M  V30 6336 H 624.664 -0.733764 -0.0689899 0
M  V30 6337 H 627.306 -1.82796 0.518231 0
M  V30 6338 H 625.456 -3.73504 -1.06896 0
M  V30 6339 H 627.128 -4.37554 1.46096 0
M  V30 6340 H 625.371 -4.09219 1.43952 0
M  V30 6341 H 626.042 -5.48828 0.590905 0
M  V30 6342 H 628.518 -4.0947 -0.73981 0
M  V30 6343 H 627.394 -5.30487 -1.40977 0
M  V30 6344 H 627.655 -3.79478 -2.26824 0
M  V30 6345 N 626.714 -0.118576 -1.57153 0
M  V30 6346 C 627.646 0.862247 -2.12363 0
M  V30 6347 C 628.659 1.23025 -1.06625 0
M  V30 6348 O 629.848 1.17927 -1.33998 0
M  V30 6349 C 626.948 2.16425 -2.60794 0
M  V30 6350 C 626.121 1.96801 -3.90626 0
M  V30 6351 C 625.18 3.10726 -4.2466 0
M  V30 6352 O 624.206 2.83659 -4.93484 0
M  V30 6353 N 625.408 4.37147 -3.81946 0
M  V30 6354 H 628.173 0.390564 -2.97144 0
M  V30 6355 H 625.734 0.0658591 -1.61766 0
M  V30 6356 H 627.726 2.91633 -2.80593 0
M  V30 6357 H 626.296 2.54943 -1.80895 0
M  V30 6358 H 625.516 1.05787 -3.7974 0
M  V30 6359 H 626.804 1.80993 -4.7552 0
M  V30 6360 H 626.202 4.62014 -3.26435 0
M  V30 6361 H 624.759 5.09229 -4.06853 0
M  V30 6362 N 628.193 1.56834 0.155195 0
M  V30 6363 C 629.14 1.97646 1.19184 0
M  V30 6364 C 630.11 0.842788 1.4313 0
M  V30 6365 O 631.295 1.1042 1.55602 0
M  V30 6366 C 628.435 2.35527 2.52232 0
M  V30 6367 C 627.548 3.62147 2.35529 0
M  V30 6368 C 626.683 3.89167 3.61555 0
M  V30 6369 C 625.722 5.09084 3.39853 0
M  V30 6370 N 624.859 5.32156 4.5799 0
M  V30 6371 H 629.699 2.8601 0.836802 0
M  V30 6372 H 627.236 1.41507 0.401758 0
M  V30 6373 H 629.194 2.55516 3.29799 0
M  V30 6374 H 627.824 1.50253 2.85699 0
M  V30 6375 H 626.876 3.4998 1.49057 0
M  V30 6376 H 628.188 4.49871 2.15448 0
M  V30 6377 H 627.342 4.09611 4.47553 0
M  V30 6378 H 626.081 2.9985 3.84632 0
M  V30 6379 H 625.086 4.88522 2.52243 0
M  V30 6380 H 626.311 5.99947 3.18183 0
M  V30 6381 H 624.257 4.45791 4.81255 0
M  V30 6382 H 624.174 6.14133 4.40882 0
M  V30 6383 H 625.442 5.57091 5.45225 0
M  V30 6384 N 629.671 -0.424282 1.51781 0
M  V30 6385 C 630.92 -1.16961 1.64326 0
M  V30 6386 C 631.233 -1.92035 0.371749 0
M  V30 6387 O 632.439 -2.68873 0.37676 0
M  V30 6388 C 630.895 -2.12782 2.90262 0
M  V30 6389 C 630.503 -1.43295 4.24465 0
M  V30 6390 C 632.247 -2.87667 3.12166 0
M  V30 6391 C 630.154 -2.37676 5.41538 0
M  V30 6392 H 629.084 -0.440293 0.612093 0
M  V30 6393 H 631.735 -0.435431 1.78259 0
M  V30 6394 H 630.117 -2.8969 2.69992 0
M  V30 6395 H 631.291 -0.718564 4.55163 0
M  V30 6396 H 629.606 -0.805118 4.08542 0
M  V30 6397 H 632.203 -3.58395 3.96808 0
M  V30 6398 H 632.546 -3.49758 2.25776 0
M  V30 6399 H 633.079 -2.17863 3.32837 0
M  V30 6400 H 629.818 -1.80255 6.30229 0
M  V30 6401 H 629.338 -3.07132 5.15199 0
M  V30 6402 H 631.017 -2.98529 5.74012 0
M  V30 6403 N 631.149 -1.42148 -0.680565 0
M  V30 6404 C 632.079 -1.4796 -1.80638 0
M  V30 6405 C 633.06 -0.336728 -1.66734 0
M  V30 6406 O 634.245 -0.550247 -1.86242 0
M  V30 6407 C 631.375 -1.37569 -3.18892 0
M  V30 6408 C 630.329 -2.49823 -3.47524 0
M  V30 6409 C 629.655 -2.24491 -4.85291 0
M  V30 6410 C 630.955 -3.92144 -3.44994 0
M  V30 6411 H 632.649 -2.42184 -1.76032 0
M  V30 6412 H 630.195 -1.16566 -0.845481 0
M  V30 6413 H 632.148 -1.40243 -3.97379 0
M  V30 6414 H 630.872 -0.398357 -3.24162 0
M  V30 6415 H 629.531 -2.46455 -2.71395 0
M  V30 6416 H 629.179 -1.25066 -4.87204 0
M  V30 6417 H 628.879 -2.99722 -5.05411 0
M  V30 6418 H 630.403 -2.28906 -5.66069 0
M  V30 6419 H 631.817 -3.97145 -4.13459 0
M  V30 6420 H 630.214 -4.67179 -3.76648 0
M  V30 6421 H 631.284 -4.19225 -2.43676 0
M  V30 6422 N 632.627 0.916307 -1.28225 0
M  V30 6423 C 633.559 2.02303 -1.07732 0
M  V30 6424 C 634.572 1.62773 -0.0298421 0
M  V30 6425 O 635.761 1.76406 -0.272626 0
M  V30 6426 C 632.861 3.33282 -0.614504 0
M  V30 6427 C 632.034 4.01439 -1.73682 0
M  V30 6428 C 631.093 5.10698 -1.26781 0
M  V30 6429 O 630.119 5.34038 -1.96958 0
M  V30 6430 N 631.321 5.80355 -0.129624 0
M  V30 6431 H 634.086 2.20442 -2.03041 0
M  V30 6432 H 631.647 1.08744 -1.19943 0
M  V30 6433 H 633.639 4.03699 -0.284397 0
M  V30 6434 H 632.209 3.11633 0.245664 0
M  V30 6435 H 631.429 3.24604 -2.23665 0
M  V30 6436 H 632.717 4.43721 -2.48976 0
M  V30 6437 H 632.115 5.6386 0.455847 0
M  V30 6438 H 630.672 6.51647 0.141224 0
M  V30 6439 N 634.105 1.10431 1.1244 0
M  V30 6440 C 635.382 0.758797 1.80282 0
M  V30 6441 C 635.762 -0.754727 1.97147 0
M  V30 6442 O 635.11 -1.68094 1.54779 0
M  V30 6443 C 635.32 1.50982 3.14651 0
M  V30 6444 C 636.668 1.68232 3.8985 0
M  V30 6445 O 637.692 1.47319 3.24308 0
M  V30 6446 O 636.551 2.02905 5.07437 0
M  V30 6447 H 633.645 0.273756 0.780376 0
M  V30 6448 H 636.191 1.20713 1.19275 0
M  V30 6449 H 634.963 2.53989 2.97666 0
M  V30 6450 H 634.586 1.05435 3.83366 0
M  V30 6451 N 635.583 -1.29855 0.893053 0
M  V30 6452 C 636.813 -1.99686 0.530019 0
M  V30 6453 C 637.221 -1.67066 -0.888012 0
M  V30 6454 O 636.564 -0.908366 -1.5967 0
M  V30 6455 C 636.626 -3.53855 0.63457 0
M  V30 6456 C 636.29 -4.10013 2.01837 0
M  V30 6457 C 637.287 -4.25406 2.98874 0
M  V30 6458 C 634.972 -4.45202 2.32595 0
M  V30 6459 C 636.966 -4.7521 4.24799 0
M  V30 6460 C 634.653 -4.94704 3.58763 0
M  V30 6461 C 635.651 -5.09662 4.5468 0
M  V30 6462 O 635.339 -5.58093 5.78608 0
M  V30 6463 H 635.071 -0.644913 0.20264 0
M  V30 6464 H 637.625 -1.66518 1.20253 0
M  V30 6465 H 635.855 -3.86583 -0.0949477 0
M  V30 6466 H 637.544 -4.04922 0.281648 0
M  V30 6467 H 638.31 -3.98515 2.76425 0
M  V30 6468 H 634.189 -4.32822 1.58701 0
M  V30 6469 H 637.733 -4.86801 4.99671 0
M  V30 6470 H 633.63 -5.21032 3.81046 0
M  V30 6471 H 634.398 -5.7642 5.81104 0
M  V30 6472 N 637.061 -0.65484 -1.43351 0
M  V30 6473 C 638.008 0.0357713 -2.30772 0
M  V30 6474 C 638.978 0.813035 -1.44841 0
M  V30 6475 O 640.163 0.789314 -1.73708 0
M  V30 6476 C 637.303 0.995084 -3.30442 0
M  V30 6477 C 636.416 0.21375 -4.31471 0
M  V30 6478 C 635.551 1.16701 -5.18222 0
M  V30 6479 C 634.59 0.376201 -6.10943 0
M  V30 6480 N 633.727 1.28113 -6.90313 0
M  V30 6481 H 638.567 -0.71559 -2.89281 0
M  V30 6482 H 636.104 -0.364645 -1.42509 0
M  V30 6483 H 638.062 1.5649 -3.86739 0
M  V30 6484 H 636.692 1.7133 -2.7358 0
M  V30 6485 H 635.744 -0.472377 -3.77456 0
M  V30 6486 H 637.056 -0.401103 -4.97185 0
M  V30 6487 H 636.21 1.8074 -5.79153 0
M  V30 6488 H 634.949 1.81577 -4.52638 0
M  V30 6489 H 633.954 -0.277534 -5.49099 0
M  V30 6490 H 635.179 -0.268178 -6.7857 0
M  V30 6491 H 633.125 1.91666 -6.27376 0
M  V30 6492 H 633.042 0.720879 -7.52555 0
M  V30 6493 H 634.31 1.90962 -7.55747 0
M  V30 6494 N 638.539 1.52521 -0.396863 0
M  V30 6495 C 639.764 2.06571 0.185258 0
M  V30 6496 C 640.189 1.26605 1.39115 0
M  V30 6497 O 639.547 0.293055 1.78916 0
M  V30 6498 C 639.595 3.5674 0.526189 0
M  V30 6499 O 638.699 3.7929 1.61903 0
M  V30 6500 H 638.04 0.663712 0.0195474 0
M  V30 6501 H 640.57 1.966 -0.566519 0
M  V30 6502 H 640.58 4.00311 0.788338 0
M  V30 6503 H 639.255 4.14379 -0.355397 0
M  V30 6504 H 637.832 3.47605 1.35 0
M  V30 6505 N 640.017 0.126909 1.57088 0
M  V30 6506 C 640.947 -0.816847 2.18746 0
M  V30 6507 C 641.928 -1.27161 1.12979 0
M  V30 6508 O 643.113 -1.33279 1.41246 0
M  V30 6509 C 640.243 -2.06398 2.79315 0
M  V30 6510 C 639.197 -1.74673 3.90735 0
M  V30 6511 C 638.523 -3.06482 4.38147 0
M  V30 6512 C 639.823 -1.0089 5.12463 0
M  V30 6513 H 641.517 -0.303032 2.97863 0
M  V30 6514 H 639.063 -0.144314 1.43275 0
M  V30 6515 H 641.016 -2.72885 3.2111 0
M  V30 6516 H 639.74 -2.60118 1.975 0
M  V30 6517 H 638.399 -1.10572 3.49527 0
M  V30 6518 H 638.047 -3.58152 3.5318 0
M  V30 6519 H 637.747 -2.86025 5.13287 0
M  V30 6520 H 639.271 -3.74073 4.82599 0
M  V30 6521 H 640.685 -1.57546 5.51228 0
M  V30 6522 H 639.082 -0.905006 5.93237 0
M  V30 6523 H 640.152 0.00297335 4.849 0
M  V30 6524 N 641.495 -1.56914 -0.146875 0
M  V30 6525 C 642.427 -1.94878 -1.20645 0
M  V30 6526 C 643.44 -0.844633 -1.39175 0
M  V30 6527 O 644.629 -1.12304 -1.38744 0
M  V30 6528 C 641.729 -2.20769 -2.57127 0
M  V30 6529 C 640.902 -3.52053 -2.59572 0
M  V30 6530 C 639.961 -3.66482 -3.77594 0
M  V30 6531 O 638.987 -4.38873 -3.62462 0
M  V30 6532 N 640.189 -3.03156 -4.95052 0
M  V30 6533 H 642.954 -2.86374 -0.883757 0
M  V30 6534 H 640.515 -1.58366 -0.336436 0
M  V30 6535 H 642.507 -2.27664 -3.34591 0
M  V30 6536 H 641.077 -1.35538 -2.81688 0
M  V30 6537 H 640.297 -3.56598 -1.68023 0
M  V30 6538 H 641.585 -4.38396 -2.58238 0
M  V30 6539 H 640.983 -2.44258 -5.10249 0
M  V30 6540 H 639.54 -3.15611 -5.70292 0
M  V30 6541 N 642.974 0.416227 -1.52004 0
M  V30 6542 C 644.251 1.17637 -1.56272 0
M  V30 6543 C 644.631 2.08352 -0.339493 0
M  V30 6544 O 643.979 2.1833 0.674124 0
M  V30 6545 C 644.189 1.95986 -2.88774 0
M  V30 6546 C 645.537 2.52299 -3.41512 0
M  V30 6547 O 646.561 2.06174 -2.90467 0
M  V30 6548 O 645.42 3.3648 -4.30631 0
M  V30 6549 H 642.514 0.536726 -0.629169 0
M  V30 6550 H 645.06 0.423583 -1.64329 0
M  V30 6551 H 643.832 1.29487 -3.69254 0
M  V30 6552 H 643.455 2.78285 -2.83978 0
M  V30 6553 N 644.452 1.42507 0.673017 0
M  V30 6554 C 645.701 1.42364 1.42883 0
M  V30 6555 C 646.014 0.0441598 1.9555 0
M  V30 6556 O 647.22 -0.0798679 2.71382 0
M  V30 6557 C 645.676 2.5043 2.58482 0
M  V30 6558 C 645.284 3.94392 2.12506 0
M  V30 6559 C 647.028 2.59455 3.35981 0
M  V30 6560 C 644.935 4.93964 3.25198 0
M  V30 6561 H 643.865 0.52951 0.536782 0
M  V30 6562 H 646.516 1.68422 0.728448 0
M  V30 6563 H 644.898 2.1754 3.30896 0
M  V30 6564 H 646.072 4.36645 1.47233 0
M  V30 6565 H 644.387 3.89233 1.4794 0
M  V30 6566 H 646.984 3.31025 4.19912 0
M  V30 6567 H 647.327 1.63869 3.82691 0
M  V30 6568 H 647.86 2.91549 2.70637 0
M  V30 6569 H 644.599 5.91034 2.83477 0
M  V30 6570 H 644.119 4.56341 3.89247 0
M  V30 6571 H 645.798 5.15763 3.90637 0
M  V30 6572 N 645.93 -0.909495 1.28709 0
M  V30 6573 C 647.179 -1.65365 1.15487 0
M  V30 6574 C 647.492 -1.93364 -0.294941 0
M  V30 6575 O 648.698 -2.65905 -0.548338 0
M  V30 6576 C 647.154 -2.97923 2.01916 0
M  V30 6577 C 646.762 -2.77556 3.51663 0
M  V30 6578 C 648.506 -3.75814 1.97393 0
M  V30 6579 C 646.413 -4.0578 4.30229 0
M  V30 6580 H 645.343 -0.620323 0.42862 0
M  V30 6581 H 647.994 -1.00894 1.53273 0
M  V30 6582 H 646.376 -3.63552 1.5699 0
M  V30 6583 H 647.55 -2.2058 4.04575 0
M  V30 6584 H 645.865 -2.13072 3.57756 0
M  V30 6585 H 648.462 -4.70866 2.53357 0
M  V30 6586 H 648.805 -4.05277 0.951643 0
M  V30 6587 H 649.338 -3.1701 2.40311 0
M  V30 6588 H 646.077 -3.81488 5.33055 0
M  V30 6589 H 645.597 -4.62351 3.82089 0
M  V30 6590 H 647.276 -4.74004 4.40374 0
M  V30 6591 N 647.408 -1.11026 -1.11852 0
M  V30 6592 C 648.371 -0.768006 -2.1595 0
M  V30 6593 C 649.371 0.210538 -1.59416 0
M  V30 6594 O 650.561 -0.0133978 -1.74195 0
M  V30 6595 C 647.693 -0.138678 -3.40618 0
M  V30 6596 H 648.886 -1.69012 -2.4774 0
M  V30 6597 H 646.439 -0.911578 -1.26964 0
M  V30 6598 H 647.174 0.793872 -3.14433 0
M  V30 6599 H 646.959 -0.843012 -3.8293 0
M  V30 6600 H 648.449 0.0848039 -4.17514 0
M  V30 6601 N 648.886 1.2938 -0.899927 0
M  V30 6602 C 650.135 1.9483 -0.521937 0
M  V30 6603 C 650.448 1.71725 0.936473 0
M  V30 6604 O 651.654 2.31282 1.42199 0
M  V30 6605 C 650.11 3.48911 -0.88255 0
M  V30 6606 C 649.718 3.80815 -2.35974 0
M  V30 6607 C 651.462 4.20595 -0.57448 0
M  V30 6608 C 649.369 5.28142 -2.66121 0
M  V30 6609 H 648.299 0.729285 -0.191468 0
M  V30 6610 H 650.95 1.47103 -1.09695 0
M  V30 6611 H 649.332 3.95293 -0.236459 0
M  V30 6612 H 650.506 3.45291 -3.05141 0
M  V30 6613 H 648.821 3.22271 -2.63686 0
M  V30 6614 H 651.418 5.29031 -0.776556 0
M  V30 6615 H 651.761 4.13442 0.487005 0
M  V30 6616 H 652.294 3.79945 -1.17842 0
M  V30 6617 H 649.033 5.4036 -3.71068 0
M  V30 6618 H 648.553 5.64913 -2.01578 0
M  V30 6619 H 650.232 5.95738 -2.52399 0
M  V30 6620 N 650.364 0.662433 1.43002 0
M  V30 6621 C 651.294 -0.00979809 2.33498 0
M  V30 6622 C 652.275 -0.802329 1.49989 0
M  V30 6623 O 653.46 -0.761964 1.78627 0
M  V30 6624 C 650.59 -0.970446 3.33466 0
M  V30 6625 C 649.544 -0.287383 4.27034 0
M  V30 6626 C 648.87 -1.36012 5.17112 0
M  V30 6627 C 650.17 0.82595 5.15728 0
M  V30 6628 H 651.864 0.745959 2.89958 0
M  V30 6629 H 649.41 0.360172 1.39423 0
M  V30 6630 H 651.363 -1.44971 3.95679 0
M  V30 6631 H 650.087 -1.75748 2.75282 0
M  V30 6632 H 648.746 0.17152 3.66199 0
M  V30 6633 H 648.394 -2.13882 4.55262 0
M  V30 6634 H 648.094 -0.908276 5.80538 0
M  V30 6635 H 649.618 -1.84056 5.82199 0
M  V30 6636 H 651.032 0.42845 5.71697 0
M  V30 6637 H 649.429 1.20282 5.87922 0
M  V30 6638 H 650.499 1.68003 4.54866 0
M  V30 6639 N 651.842 -1.52309 0.404946 0
M  V30 6640 C 653.09 -2.01368 -0.17186 0
M  V30 6641 C 653.411 -1.29261 -1.46002 0
M  V30 6642 O 652.681 -0.41729 -1.91404 0
M  V30 6643 H 651.261 -0.744034 -0.0664993 0
M  V30 6644 H 653.923 -1.87263 0.540228 0
M  V30 6645 H 653.019 -3.09888 -0.370957 0
M  V30 6646 N 653.32 -0.135238 -1.57019 0
M  V30 6647 C 654.253 0.846618 -2.11914 0
M  V30 6648 C 655.231 1.25019 -1.03966 0
M  V30 6649 O 656.415 1.34838 -1.31723 0
M  V30 6650 C 653.542 2.1352 -2.6292 0
M  V30 6651 C 652.588 1.87846 -3.82905 0
M  V30 6652 S 653.421 1.08005 -5.24495 0
M  V30 6653 C 654.577 2.38008 -5.78881 0
M  V30 6654 H 654.81 0.379752 -2.94865 0
M  V30 6655 H 652.343 0.0788387 -1.54199 0
M  V30 6656 H 654.301 2.87551 -2.92958 0
M  V30 6657 H 652.962 2.57323 -1.80121 0
M  V30 6658 H 652.155 2.83365 -4.16797 0
M  V30 6659 H 651.757 1.21929 -3.53567 0
M  V30 6660 H 654.049 3.33742 -5.89595 0
M  V30 6661 H 654.992 2.08638 -6.76665 0
M  V30 6662 H 655.4 2.48119 -5.07048 0
M  V30 6663 N 654.798 1.5699 0.138552 0
M  V30 6664 C 656.075 1.74741 0.87891 0
M  V30 6665 C 656.455 0.705522 1.98961 0
M  V30 6666 O 655.803 -0.274066 2.2685 0
M  V30 6667 C 656.013 3.1909 1.4136 0
M  V30 6668 C 657.361 3.81023 1.87368 0
M  V30 6669 O 658.385 3.22571 1.51084 0
M  V30 6670 O 657.244 4.83722 2.54312 0
M  V30 6671 H 654.338 0.714781 0.415953 0
M  V30 6672 H 656.884 1.69248 0.123817 0
M  V30 6673 H 655.656 3.86424 0.61579 0
M  V30 6674 H 655.279 3.29043 2.23196 0
M  V30 6675 N 656.276 -0.40816 1.52223 0
M  V30 6676 C 657.186 -1.52202 1.78526 0
M  V30 6677 C 658.202 -1.60546 0.670892 0
M  V30 6678 O 659.378 -1.77242 0.956404 0
M  V30 6679 C 656.443 -2.87928 1.93128 0
M  V30 6680 C 655.504 -2.89463 3.17033 0
M  V30 6681 C 654.737 -4.18715 3.30929 0
M  V30 6682 O 654.96 -5.12662 2.50067 0
M  V30 6683 O 653.894 -4.27125 4.24084 0
M  V30 6684 H 657.72 -1.32911 2.73072 0
M  V30 6685 H 655.305 -0.594112 1.37079 0
M  V30 6686 H 657.187 -3.68426 2.04549 0
M  V30 6687 H 655.862 -3.07285 1.01772 0
M  V30 6688 H 654.769 -2.07815 3.11069 0
M  V30 6689 H 656.102 -2.75055 4.08174 0
M  V30 6690 N 657.755 -1.42862 -0.66545 0
M  V30 6691 C 658.685 -1.49867 -1.79059 0
M  V30 6692 C 659.666 -0.354394 -1.66367 0
M  V30 6693 O 660.851 -0.569969 -1.85647 0
M  V30 6694 C 657.981 -1.40943 -3.17415 0
M  V30 6695 C 656.935 -2.53495 -3.44854 0
M  V30 6696 C 656.261 -2.29626 -4.82883 0
M  V30 6697 C 657.561 -3.95781 -3.40815 0
M  V30 6698 H 659.255 -2.44037 -1.73453 0
M  V30 6699 H 656.801 -1.17456 -0.833071 0
M  V30 6700 H 658.754 -1.4445 -3.95869 0
M  V30 6701 H 657.478 -0.432716 -3.23721 0
M  V30 6702 H 656.137 -2.4932 -2.68766 0
M  V30 6703 H 655.785 -1.30226 -4.8585 0
M  V30 6704 H 655.485 -3.05065 -5.02204 0
M  V30 6705 H 657.009 -2.34897 -5.63609 0
M  V30 6706 H 658.423 -4.01508 -4.09224 0
M  V30 6707 H 656.82 -4.71148 -3.71672 0
M  V30 6708 H 657.89 -4.21786 -2.39216 0
M  V30 6709 N 659.233 0.902656 -1.29189 0
M  V30 6710 C 660.458 1.69167 -1.19989 0
M  V30 6711 C 660.883 1.86607 0.236495 0
M  V30 6712 O 660.241 1.38425 1.17082 0
M  V30 6713 C 660.289 3.05532 -1.91527 0
M  V30 6714 O 659.393 3.93621 -1.2303 0
M  V30 6715 H 658.734 0.517584 -0.415936 0
M  V30 6716 H 661.264 1.12785 -1.70706 0
M  V30 6717 H 661.274 3.55693 -1.99866 0
M  V30 6718 H 659.949 2.92156 -2.96003 0
M  V30 6719 H 658.526 3.52055 -1.22928 0
M  V30 6720 N 660.711 1.11618 1.11262 0
M  V30 6721 C 661.621 0.78898 2.20935 0
M  V30 6722 C 662.637 -0.21867 1.7262 0
M  V30 6723 O 663.813 -0.0543826 2.01327 0
M  V30 6724 C 660.878 0.239014 3.45875 0
M  V30 6725 C 659.939 1.3055 4.08968 0
M  V30 6726 C 659.172 0.781687 5.27944 0
M  V30 6727 O 659.395 -0.387605 5.69082 0
M  V30 6728 O 658.329 1.54734 5.81671 0
M  V30 6729 H 662.155 1.70477 2.51339 0
M  V30 6730 H 659.74 0.892203 1.19834 0
M  V30 6731 H 661.622 -0.0632312 4.21353 0
M  V30 6732 H 660.297 -0.649454 3.17118 0
M  V30 6733 H 659.204 1.66079 3.35214 0
M  V30 6734 H 660.537 2.16743 4.41909 0
M  V30 6735 N 662.189 -1.289 0.906776 0
M  V30 6736 C 663.099 -2.31256 0.394707 0
M  V30 6737 C 664.115 -1.66231 -0.514121 0
M  V30 6738 O 665.291 -1.97347 -0.401994 0
M  V30 6739 C 662.356 -3.44792 -0.363191 0
M  V30 6740 C 661.417 -4.25391 0.578012 0
M  V30 6741 C 660.65 -5.33506 -0.143811 0
M  V30 6742 O 660.873 -5.53786 -1.36665 0
M  V30 6743 O 659.807 -5.99673 0.5173 0
M  V30 6744 H 663.633 -2.77051 1.24405 0
M  V30 6745 H 661.218 -1.33466 0.671346 0
M  V30 6746 H 663.1 -4.139 -0.791503 0
M  V30 6747 H 661.775 -3.01093 -1.18848 0
M  V30 6748 H 660.682 -3.58899 1.05558 0
M  V30 6749 H 662.015 -4.72752 1.36992 0
M  V30 6750 N 663.667 -0.670007 -1.42649 0
M  V30 6751 C 664.944 -0.119451 -1.95235 0
M  V30 6752 C 665.324 1.36461 -1.61064 0
M  V30 6753 O 664.672 2.09843 -0.904329 0
M  V30 6754 C 664.882 -0.383498 -3.46887 0
M  V30 6755 C 666.23 -0.297431 -4.23557 0
M  V30 6756 O 667.254 -0.31698 -3.54787 0
M  V30 6757 O 666.113 -0.235507 -5.45992 0
M  V30 6758 H 663.207 -8.85474e-05 -0.827 0
M  V30 6759 H 665.753 -0.744406 -1.52501 0
M  V30 6760 H 664.525 -1.41174 -3.64946 0
M  V30 6761 H 664.148 0.273702 -3.96657 0
M  V30 6762 N 665.145 1.52092 -0.413018 0
M  V30 6763 C 666.092 2.27119 0.410558 0
M  V30 6764 C 667.062 1.29692 1.03774 0
M  V30 6765 O 668.247 1.58561 1.06128 0
M  V30 6766 C 665.387 3.09863 1.51918 0
M  V30 6767 C 664.5 4.22252 0.912528 0
M  V30 6768 C 663.635 4.92348 1.99417 0
M  V30 6769 C 662.674 5.96694 1.36466 0
M  V30 6770 N 661.811 6.60292 2.38661 0
M  V30 6771 H 666.651 2.97067 -0.235661 0
M  V30 6772 H 664.188 1.46542 -0.128055 0
M  V30 6773 H 666.146 3.56144 2.17295 0
M  V30 6774 H 664.776 2.42078 2.13537 0
M  V30 6775 H 663.828 3.80113 0.147697 0
M  V30 6776 H 665.14 4.9709 0.412717 0
M  V30 6777 H 664.294 5.42054 2.72512 0
M  V30 6778 H 663.033 4.17087 2.52764 0
M  V30 6779 H 662.038 5.46304 0.61906 0
M  V30 6780 H 663.263 6.73899 0.838827 0
M  V30 6781 H 661.209 5.87858 2.91134 0
M  V30 6782 H 661.126 7.30816 1.93503 0
M  V30 6783 H 662.394 7.14635 3.11314 0
M  V30 6784 N 666.623 0.143563 1.56945 0
M  V30 6785 C 667.553 -0.7936 2.196 0
M  V30 6786 C 668.534 -1.25955 1.14321 0
M  V30 6787 O 669.719 -1.31773 1.42651 0
M  V30 6788 C 666.849 -2.03424 2.81489 0
M  V30 6789 C 665.803 -1.70519 3.92565 0
M  V30 6790 C 665.129 -3.01817 4.41373 0
M  V30 6791 C 666.429 -0.95449 5.13504 0
M  V30 6792 H 668.123 -0.271423 2.98167 0
M  V30 6793 H 665.669 -0.12911 1.4342 0
M  V30 6794 H 667.622 -2.69463 3.23987 0
M  V30 6795 H 666.346 -2.58008 2.00248 0
M  V30 6796 H 665.005 -1.06859 3.5068 0
M  V30 6797 H 664.653 -3.54386 3.56959 0
M  V30 6798 H 664.353 -2.80565 5.16292 0
M  V30 6799 H 665.877 -3.68934 4.86539 0
M  V30 6800 H 667.291 -1.5169 5.52868 0
M  V30 6801 H 665.688 -0.842035 5.94163 0
M  V30 6802 H 666.758 0.0544033 4.84869 0
M  V30 6803 N 668.101 -1.57061 -0.130224 0
M  V30 6804 C 669.329 -1.88432 -0.854456 0
M  V30 6805 C 669.744 -0.733608 -1.73964 0
M  V30 6806 O 669.101 0.296029 -1.80083 0
M  V30 6807 C 669.152 -3.1918 -1.69724 0
M  V30 6808 O 668.873 -4.2982 -0.847705 0
M  V30 6809 C 670.374 -3.6418 -2.5276 0
M  V30 6810 H 667.594 -0.624193 -0.246221 0
M  V30 6811 H 670.138 -2.04159 -0.11798 0
M  V30 6812 H 668.293 -3.05156 -2.3866 0
M  V30 6813 H 668.707 -5.04689 -1.42792 0
M  V30 6814 H 670.181 -4.58457 -3.07443 0
M  V30 6815 H 670.658 -2.90285 -3.29592 0
M  V30 6816 H 671.264 -3.80954 -1.89087 0
M  V30 6817 N 669.579 0.400081 -1.52437 0
M  V30 6818 C 670.825 1.14788 -1.67187 0
M  V30 6819 C 671.158 1.89928 -0.405074 0
M  V30 6820 O 670.433 1.85118 0.596804 0
M  V30 6821 C 670.716 2.13507 -2.89977 0
M  V30 6822 C 670.569 1.42204 -4.2673 0
M  V30 6823 C 671.888 3.14069 -3.083 0
M  V30 6824 H 669.007 0.415939 -0.608411 0
M  V30 6825 H 671.649 0.432542 -1.85011 0
M  V30 6826 H 669.799 2.7451 -2.74912 0
M  V30 6827 H 671.471 0.842503 -4.53541 0
M  V30 6828 H 669.714 0.723939 -4.27717 0
M  V30 6829 H 670.385 2.14281 -5.08712 0
M  V30 6830 H 672.861 2.63148 -3.22323 0
M  V30 6831 H 671.737 3.80398 -3.95713 0
M  V30 6832 H 671.998 3.82309 -2.22018 0
M  V30 6833 N 671.057 1.43213 0.657864 0
M  V30 6834 C 672.282 1.48227 1.45064 0
M  V30 6835 C 672.707 0.0999939 1.87834 0
M  V30 6836 O 672.065 -0.905269 1.57081 0
M  V30 6837 C 672.113 2.42931 2.6649 0
M  V30 6838 O 671.217 1.91237 3.6538 0
M  V30 6839 H 670.558 0.501551 0.435135 0
M  V30 6840 H 673.088 1.8808 0.805431 0
M  V30 6841 H 673.098 2.6008 3.1436 0
M  V30 6842 H 671.773 3.43348 2.34701 0
M  V30 6843 H 670.35 1.83726 3.24498 0
M  V30 6844 N 672.536 -0.895792 1.29666 0
M  V30 6845 C 673.952 -1.17726 1.07763 0
M  V30 6846 C 674.152 -2.00794 -0.168576 0
M  V30 6847 O 673.208 -2.37213 -0.865244 0
M  V30 6848 C 674.521 -1.89441 2.33522 0
M  V30 6849 C 676.069 -2.02251 2.3888 0
M  V30 6850 C 676.544 -2.77378 3.64452 0
M  V30 6851 N 678.035 -2.8493 3.65198 0
M  V30 6852 C 678.77 -3.43606 4.59045 0
M  V30 6853 N 678.266 -4.03417 5.63228 0
M  V30 6854 N 680.059 -3.41317 4.46608 0
M  V30 6855 H 672.21 -0.341652 2.09634 0
M  V30 6856 H 674.473 -0.213865 0.923561 0
M  V30 6857 H 674.179 -1.35842 3.24407 0
M  V30 6858 H 674.053 -2.89893 2.41334 0
M  V30 6859 H 676.44 -2.55025 1.4848 0
M  V30 6860 H 676.521 -1.0092 2.3505 0
M  V30 6861 H 676.165 -2.25279 4.55205 0
M  V30 6862 H 676.095 -3.79062 3.65541 0
M  V30 6863 H 678.586 -2.42453 2.89871 0
M  V30 6864 H 678.899 -4.46224 6.30955 0
M  V30 6865 H 677.244 -4.01868 5.67033 0
M  V30 6866 H 680.435 -2.93812 3.64407 0
M  V30 6867 H 680.608 -3.86751 5.1993 0
M  V30 6868 N 674.014 -1.12206 -1.10668 0
M  V30 6869 C 674.977 -0.790867 -2.15123 0
M  V30 6870 C 675.977 0.193618 -1.5963 0
M  V30 6871 O 677.167 -0.0318728 -1.74171 0
M  V30 6872 C 674.299 -0.174797 -3.40452 0
M  V30 6873 H 675.492 -1.7163 -2.45933 0
M  V30 6874 H 673.045 -0.924993 -1.2599 0
M  V30 6875 H 673.78 0.760478 -3.15257 0
M  V30 6876 H 673.565 -0.88358 -3.82015 0
M  V30 6877 H 675.055 0.0405162 -4.1758 0
M  V30 6878 N 675.492 1.28418 -0.913599 0
M  V30 6879 C 676.908 1.47411 -0.611728 0
M  V30 6880 C 677.108 1.83018 0.843008 0
M  V30 6881 O 676.164 1.93505 1.6221 0
M  V30 6882 C 677.477 2.57703 -1.5495 0
M  V30 6883 C 679.025 2.71572 -1.5562 0
M  V30 6884 C 679.5 3.85008 -2.48058 0
M  V30 6885 N 680.991 3.92361 -2.46184 0
M  V30 6886 C 681.726 4.79516 -3.14407 0
M  V30 6887 N 681.222 5.71262 -3.91958 0
M  V30 6888 N 683.015 4.73125 -3.03495 0
M  V30 6889 H 675.166 1.03585 -1.85429 0
M  V30 6890 H 677.429 0.515907 -0.795326 0
M  V30 6891 H 677.135 2.38298 -2.58663 0
M  V30 6892 H 677.009 3.54801 -1.28048 0
M  V30 6893 H 679.396 2.90366 -0.526441 0
M  V30 6894 H 679.477 1.75006 -1.86565 0
M  V30 6895 H 679.121 3.66969 -3.51136 0
M  V30 6896 H 679.051 4.80971 -2.14416 0
M  V30 6897 H 681.542 3.26749 -1.89851 0
M  V30 6898 H 681.855 6.34593 -4.41034 0
M  V30 6899 H 680.2 5.71103 -3.96063 0
M  V30 6900 H 683.391 4.00442 -2.42413 0
M  V30 6901 H 683.564 5.40834 -3.56935 0
M  V30 6902 N 676.97 0.677563 1.42291 0
M  V30 6903 C 677.917 0.000947061 2.308 0
M  V30 6904 C 678.887 -0.789889 1.46116 0
M  V30 6905 O 680.072 -0.761578 1.74942 0
M  V30 6906 C 677.212 -0.942387 3.31984 0
M  V30 6907 C 676.325 -0.14508 4.31756 0
M  V30 6908 C 675.46 -1.08442 5.20013 0
M  V30 6909 C 674.499 -0.278958 6.11464 0
M  V30 6910 N 673.636 -1.17115 6.92263 0
M  V30 6911 H 678.476 0.761521 2.88106 0
M  V30 6912 H 676.013 0.38727 1.41911 0
M  V30 6913 H 677.971 -1.50317 3.89179 0
M  V30 6914 H 676.601 -1.66956 2.76271 0
M  V30 6915 H 675.653 0.532368 3.76656 0
M  V30 6916 H 676.965 0.48015 4.96484 0
M  V30 6917 H 676.119 -1.71504 5.81955 0
M  V30 6918 H 674.858 -1.74353 4.55469 0
M  V30 6919 H 673.863 0.364856 5.48588 0
M  V30 6920 H 675.088 0.376099 6.78058 0
M  V30 6921 H 673.034 -1.81661 6.30345 0
M  V30 6922 H 672.951 -0.601063 7.53607 0
M  V30 6923 H 674.219 -1.78915 7.58689 0
M  V30 6924 N 678.448 -1.51871 0.421078 0
M  V30 6925 C 679.697 -2.01125 -0.152206 0
M  V30 6926 C 680.01 -1.3106 -1.45199 0
M  V30 6927 O 681.216 -1.71195 -2.10724 0
M  V30 6928 C 679.672 -3.58458 -0.3218 0
M  V30 6929 C 679.28 -4.37448 0.96659 0
M  V30 6930 C 681.024 -4.15908 -0.84973 0
M  V30 6931 C 678.931 -5.86451 0.763529 0
M  V30 6932 H 677.861 -0.751556 -0.0606565 0
M  V30 6933 H 680.512 -1.75115 0.548354 0
M  V30 6934 H 678.894 -3.80847 -1.08498 0
M  V30 6935 H 680.068 -4.26814 1.73684 0
M  V30 6936 H 678.383 -3.91373 1.42183 0
M  V30 6937 H 680.98 -5.24922 -1.01788 0
M  V30 6938 H 681.323 -3.74031 -1.82774 0
M  V30 6939 H 681.856 -3.97535 -0.145297 0
M  V30 6940 H 678.595 -6.3271 1.71344 0
M  V30 6941 H 678.115 -5.99791 0.0327889 0
M  V30 6942 H 679.794 -6.45697 0.410354 0
M  V30 6943 N 679.926 -0.151884 -1.56866 0
M  V30 6944 C 680.858 0.817008 -2.14144 0
M  V30 6945 C 681.871 1.20735 -1.0921 0
M  V30 6946 O 683.06 1.15058 -1.36469 0
M  V30 6947 C 680.16 2.10844 -2.65326 0
M  V30 6948 C 679.333 1.88471 -3.94712 0
M  V30 6949 C 678.392 3.01649 -4.31155 0
M  V30 6950 O 677.418 2.73127 -4.9939 0
M  V30 6951 N 678.62 4.28947 -3.91132 0
M  V30 6952 H 681.385 0.327448 -2.97906 0
M  V30 6953 H 678.946 0.0315313 -1.61869 0
M  V30 6954 H 680.938 2.85616 -2.86715 0
M  V30 6955 H 679.508 2.51049 -1.86262 0
M  V30 6956 H 678.728 0.977088 -3.81899 0
M  V30 6957 H 680.016 1.70866 -4.79252 0
M  V30 6958 H 679.414 4.54986 -3.36161 0
M  V30 6959 H 677.971 5.00484 -4.17563 0
M  V30 6960 N 681.404 1.57128 0.121893 0
M  V30 6961 C 682.82 1.52357 0.47534 0
M  V30 6962 C 683.02 0.864417 1.82017 0
M  V30 6963 O 682.076 0.445529 2.48538 0
M  V30 6964 C 683.389 2.97122 0.4625 0
M  V30 6965 C 684.937 3.08196 0.546255 0
M  V30 6966 C 685.412 4.54516 0.563833 0
M  V30 6967 N 686.903 4.58959 0.625353 0
M  V30 6968 C 687.638 5.69585 0.660354 0
M  V30 6969 N 687.134 6.89714 0.653175 0
M  V30 6970 N 688.927 5.57685 0.703143 0
M  V30 6971 H 681.078 1.98364 -0.75931 0
M  V30 6972 H 683.341 0.905777 -0.279772 0
M  V30 6973 H 683.047 3.48706 -0.457943 0
M  V30 6974 H 682.921 3.54406 1.29136 0
M  V30 6975 H 685.308 2.56617 1.45712 0
M  V30 6976 H 685.389 2.53912 -0.310234 0
M  V30 6977 H 685.033 5.06741 -0.342974 0
M  V30 6978 H 684.963 5.06609 1.43716 0
M  V30 6979 H 687.454 3.72489 0.637182 0
M  V30 6980 H 687.767 7.69781 0.682425 0
M  V30 6981 H 686.112 6.92223 0.620646 0
M  V30 6982 H 689.303 4.62744 0.706095 0
M  V30 6983 H 689.476 6.43909 0.726952 0
M  V30 6984 N 682.882 -0.391992 1.52647 0
M  V30 6985 C 684.129 -1.13732 1.67545 0
M  V30 6986 C 684.457 -1.90045 0.413881 0
M  V30 6987 O 683.712 -1.86157 -0.603646 0
M  V30 6988 C 684.011 -2.14401 2.85949 0
M  V30 6989 C 683.677 -1.54767 4.23507 0
M  V30 6990 C 682.339 -1.38229 4.60919 0
M  V30 6991 C 684.691 -1.11382 5.0916 0
M  V30 6992 C 682.019 -0.7685 5.81645 0
M  V30 6993 C 684.371 -0.514143 6.30507 0
M  V30 6994 C 683.035 -0.33604 6.66654 0
M  V30 6995 H 682.305 -0.416174 0.613091 0
M  V30 6996 H 684.952 -0.422327 1.86785 0
M  V30 6997 H 683.257 -2.92108 2.61114 0
M  V30 6998 H 684.954 -2.71974 2.94671 0
M  V30 6999 H 681.544 -1.68626 3.94035 0
M  V30 7000 H 685.728 -1.22962 4.80826 0
M  V30 7001 H 680.984 -0.618681 6.08262 0
M  V30 7002 H 685.158 -0.169657 6.96193 0
M  V30 7003 H 682.785 0.14166 7.60068 0
M  V30 7004 N 684.36 -1.4356 -0.65026 0
M  V30 7005 C 685.29 -1.51758 -1.77459 0
M  V30 7006 C 686.271 -0.372019 -1.65982 0
M  V30 7007 O 687.456 -0.589627 -1.85033 0
M  V30 7008 C 684.586 -1.44302 -3.15902 0
M  V30 7009 C 683.54 -2.57138 -3.42146 0
M  V30 7010 C 682.866 -2.34735 -4.8042 0
M  V30 7011 C 684.166 -3.99373 -3.36598 0
M  V30 7012 H 685.86 -2.45863 -1.70855 0
M  V30 7013 H 683.406 -1.18333 -0.820566 0
M  V30 7014 H 685.359 -1.48641 -3.94314 0
M  V30 7015 H 684.083 -0.467026 -3.23244 0
M  V30 7016 H 682.742 -2.52157 -2.66106 0
M  V30 7017 H 682.39 -1.35372 -4.84441 0
M  V30 7018 H 682.09 -3.10375 -4.9894 0
M  V30 7019 H 683.614 -2.40862 -5.61086 0
M  V30 7020 H 685.028 -4.05826 -4.04942 0
M  V30 7021 H 683.425 -4.75063 -3.66654 0
M  V30 7022 H 684.495 -4.243 -2.34729 0
M  V30 7023 N 685.838 0.888903 -1.30139 0
M  V30 7024 C 687.063 1.67884 -1.21777 0
M  V30 7025 C 687.488 1.86848 0.216689 0
M  V30 7026 O 686.846 1.39659 1.15608 0
M  V30 7027 C 686.894 3.03483 -1.94757 0
M  V30 7028 O 685.998 3.92294 -1.27198 0
M  V30 7029 H 685.339 0.513144 -0.421402 0
M  V30 7030 H 687.869 1.10968 -1.71893 0
M  V30 7031 H 687.879 3.53553 -2.03627 0
M  V30 7032 H 686.554 2.89 -2.99085 0
M  V30 7033 H 685.131 3.50732 -1.26655 0
M  V30 7034 N 687.317 1.12792 1.10072 0
M  V30 7035 C 688.249 0.757003 2.16338 0
M  V30 7036 C 689.262 -0.218144 1.61332 0
M  V30 7037 O 690.451 0.0010727 1.785 0
M  V30 7038 C 687.551 0.100303 3.38752 0
M  V30 7039 C 686.724 1.10586 4.2319 0
M  V30 7040 C 685.783 0.47609 5.24042 0
M  V30 7041 O 684.809 1.13418 5.57786 0
M  V30 7042 N 686.011 -0.754823 5.75572 0
M  V30 7043 H 688.776 1.6714 2.48766 0
M  V30 7044 H 686.337 1.02003 1.25726 0
M  V30 7045 H 688.329 -0.333092 4.03327 0
M  V30 7046 H 686.899 -0.716915 3.04268 0
M  V30 7047 H 686.119 1.71677 3.54853 0
M  V30 7048 H 687.407 1.78571 4.76435 0
M  V30 7049 H 686.805 -1.30838 5.50362 0
M  V30 7050 H 685.362 -1.13098 6.41913 0
M  V30 7051 N 688.795 -1.27931 0.920396 0
M  V30 7052 C 690.206 -1.76707 0.602616 0
M  V30 7053 C 690.557 -1.75249 -0.882159 0
M  V30 7054 O 689.682 -1.35135 -1.69019 0
M  V30 7055 C 690.277 -3.20884 1.08714 0
M  V30 7056 C 688.836 -3.67356 0.820157 0
M  V30 7057 C 687.983 -2.47525 1.25006 0
M  V30 7058 H 690.934 -1.14301 1.10095 0
M  V30 7059 H 690.955 -3.78045 0.431535 0
M  V30 7060 H 690.467 -3.21913 2.1678 0
M  V30 7061 H 688.568 -3.7178 -0.247012 0
M  V30 7062 H 688.681 -4.57181 1.43257 0
M  V30 7063 H 687.045 -2.45765 0.668698 0
M  V30 7064 H 687.828 -2.51269 2.3392 0
M  V30 7065 N 690.273 -0.685099 -1.4193 0
M  V30 7066 C 691.52 -0.211658 -2.01391 0
M  V30 7067 C 691.848 1.18526 -1.54214 0
M  V30 7068 O 691.103 1.81189 -0.739519 0
M  V30 7069 C 691.402 -0.206154 -3.56805 0
M  V30 7070 C 691.068 -1.54915 -4.23453 0
M  V30 7071 C 689.73 -1.91684 -4.41373 0
M  V30 7072 C 692.082 -2.43317 -4.60919 0
M  V30 7073 C 689.41 -3.16461 -4.94034 0
M  V30 7074 C 691.762 -3.67415 -5.14965 0
M  V30 7075 C 690.426 -4.04341 -5.31098 0
M  V30 7076 H 689.696 -0.0774511 -0.736941 0
M  V30 7077 H 692.343 -0.882121 -1.69973 0
M  V30 7078 H 690.648 0.547841 -3.87951 0
M  V30 7079 H 692.345 0.17753 -4.00607 0
M  V30 7080 H 688.935 -1.25314 -4.09871 0
M  V30 7081 H 693.119 -2.16192 -4.46738 0
M  V30 7082 H 688.375 -3.45078 -5.04709 0
M  V30 7083 H 692.549 -4.3611 -5.42938 0
M  V30 7084 H 690.176 -5.01101 -5.71666 0
M  V30 7085 N 691.751 1.51645 -0.429126 0
M  V30 7086 C 692.683 2.25279 0.422124 0
M  V30 7087 C 693.696 1.28986 0.993299 0
M  V30 7088 O 694.885 1.54797 0.888836 0
M  V30 7089 C 691.985 2.98666 1.60162 0
M  V30 7090 C 691.158 4.2199 1.15078 0
M  V30 7091 C 690.217 4.78028 2.19946 0
M  V30 7092 O 689.243 5.40084 1.79716 0
M  V30 7093 N 690.445 4.61342 3.5234 0
M  V30 7094 H 693.21 2.98971 -0.208931 0
M  V30 7095 H 690.771 1.59838 -0.257568 0
M  V30 7096 H 692.763 3.33044 2.29922 0
M  V30 7097 H 691.333 2.28036 2.13818 0
M  V30 7098 H 690.553 3.932 0.280552 0
M  V30 7099 H 691.841 5.02037 0.826831 0
M  V30 7100 H 691.239 4.11894 3.87763 0
M  V30 7101 H 689.796 5.00104 4.18019 0
M  V30 7102 N 693.229 0.160201 1.56784 0
M  V30 7103 C 694.475 -0.48831 1.96833 0
M  V30 7104 C 694.808 -1.63641 1.04571 0
M  V30 7105 O 694.083 -1.94289 0.0906481 0
M  V30 7106 C 694.366 -0.981908 3.46454 0
M  V30 7107 C 694.219 0.165607 4.49495 0
M  V30 7108 C 695.538 -1.85931 3.98896 0
M  V30 7109 H 692.657 -0.176027 0.71567 0
M  V30 7110 H 695.299 0.244093 1.88426 0
M  V30 7111 H 693.449 -1.60602 3.5375 0
M  V30 7112 H 695.121 0.802372 4.54268 0
M  V30 7113 H 693.364 0.822789 4.25926 0
M  V30 7114 H 694.035 -0.221699 5.51555 0
M  V30 7115 H 696.511 -1.33327 3.94161 0
M  V30 7116 H 695.387 -2.17373 5.04024 0
M  V30 7117 H 695.648 -2.80106 3.42042 0
M  V30 7118 N 694.707 -1.5719 -0.113559 0
M  V30 7119 C 695.67 -1.99796 -1.12314 0
M  V30 7120 C 696.67 -0.888847 -1.34001 0
M  V30 7121 O 697.86 -1.15476 -1.30426 0
M  V30 7122 C 694.992 -2.34279 -2.47641 0
M  V30 7123 H 696.185 -2.90193 -0.756825 0
M  V30 7124 H 693.738 -1.52144 -0.358029 0
M  V30 7125 H 694.473 -1.46778 -2.89183 0
M  V30 7126 H 694.258 -3.15175 -2.33253 0
M  V30 7127 H 695.748 -2.67963 -3.2029 0
M  V30 7128 N 696.185 0.383891 -1.52853 0
M  V30 7129 C 697.095 1.49343 -1.80925 0
M  V30 7130 C 698.111 1.59458 -0.696348 0
M  V30 7131 O 699.287 1.75698 -0.984481 0
M  V30 7132 C 696.352 2.84819 -1.97684 0
M  V30 7133 C 695.413 2.84382 -3.21598 0
M  V30 7134 C 694.646 4.13397 -3.37548 0
M  V30 7135 O 694.869 5.08619 -2.58192 0
M  V30 7136 O 693.803 4.20325 -4.30826 0
M  V30 7137 H 697.629 1.2855 -2.75152 0
M  V30 7138 H 695.214 0.572229 -1.38007 0
M  V30 7139 H 697.096 3.65125 -2.10385 0
M  V30 7140 H 695.771 3.05627 -1.06647 0
M  V30 7141 H 694.678 2.0284 -3.14336 0
M  V30 7142 H 696.011 2.68526 -4.12498 0
M  V30 7143 N 697.663 1.43903 0.642637 0
M  V30 7144 C 698.909 1.46296 1.40447 0
M  V30 7145 C 699.242 0.0908361 1.93987 0
M  V30 7146 O 698.517 -0.889884 1.72949 0
M  V30 7147 C 698.8 2.51399 2.57819 0
M  V30 7148 C 698.653 3.97926 2.09702 0
M  V30 7149 C 699.972 2.53125 3.60022 0
M  V30 7150 H 697.091 0.532676 0.509338 0
M  V30 7151 H 699.733 1.75515 0.727635 0
M  V30 7152 H 697.883 2.26614 3.1556 0
M  V30 7153 H 699.555 4.33804 1.5688 0
M  V30 7154 H 697.798 4.10252 1.40982 0
M  V30 7155 H 698.469 4.67096 2.94152 0
M  V30 7156 H 700.945 2.75242 3.12059 0
M  V30 7157 H 699.821 3.28589 4.39682 0
M  V30 7158 H 700.082 1.56895 4.13324 0
M  V30 7159 N 699.141 -0.881989 1.30609 0
M  V30 7160 C 700.388 -1.63405 1.19604 0
M  V30 7161 C 700.716 -1.92905 -0.248574 0
M  V30 7162 O 699.971 -1.55062 -1.19391 0
M  V30 7163 C 700.27 -2.97999 1.97311 0
M  V30 7164 C 699.936 -2.88039 3.46907 0
M  V30 7165 C 698.598 -2.85029 3.877 0
M  V30 7166 C 700.95 -2.75948 4.42156 0
M  V30 7167 C 698.278 -2.67772 5.2203 0
M  V30 7168 C 700.63 -2.60228 5.76597 0
M  V30 7169 C 699.294 -2.55595 6.16626 0
M  V30 7170 H 698.564 -0.597941 0.437662 0
M  V30 7171 H 701.211 -1.02524 1.61744 0
M  V30 7172 H 699.516 -3.62847 1.47815 0
M  V30 7173 H 701.213 -3.55156 1.86186 0
M  V30 7174 H 697.803 -2.91192 3.14492 0
M  V30 7175 H 701.987 -2.77337 4.1158 0
M  V30 7176 H 697.243 -2.62601 5.52133 0
M  V30 7177 H 701.417 -2.49847 6.50038 0
M  V30 7178 H 699.044 -2.41981 7.20659 0
M  V30 7179 N 700.619 -1.13374 -1.09472 0
M  V30 7180 C 701.847 -0.918351 -1.85402 0
M  V30 7181 C 702.262 0.53281 -1.81126 0
M  V30 7182 O 701.619 1.36879 -1.20708 0
M  V30 7183 C 701.67 -1.39743 -3.33398 0
M  V30 7184 O 701.391 -2.79172 -3.37631 0
M  V30 7185 C 702.892 -1.22042 -4.2617 0
M  V30 7186 H 700.112 -0.327511 -0.585643 0
M  V30 7187 H 702.656 -1.50617 -1.38328 0
M  V30 7188 H 700.811 -0.852619 -3.77901 0
M  V30 7189 H 701.225 -3.00428 -4.29934 0
M  V30 7190 H 702.699 -1.60438 -5.2817 0
M  V30 7191 H 703.176 -0.162047 -4.38901 0
M  V30 7192 H 703.782 -1.75323 -3.87482 0
M  V30 7193 N 702.098 1.27442 -0.927168 0
M  V30 7194 C 703.346 1.94007 -0.566203 0
M  V30 7195 C 703.667 1.7323 0.895345 0
M  V30 7196 O 702.937 1.07973 1.63459 0
M  V30 7197 H 701.517 0.717917 -0.206409 0
M  V30 7198 H 704.179 1.55161 -1.17945 0
M  V30 7199 H 703.275 3.02401 -0.772028 0
M  V30 7200 N 703.576 0.692616 1.41565 0
M  V30 7201 C 704.526 0.00231847 2.28 0
M  V30 7202 C 705.51 -0.755793 1.42044 0
M  V30 7203 O 706.702 -0.631772 1.65341 0
M  V30 7204 C 703.831 -0.935468 3.30309 0
M  V30 7205 C 702.917 -0.173761 4.23744 0
M  V30 7206 N 703.308 0.830872 4.98929 0
M  V30 7207 C 701.606 -0.409666 4.44115 0
M  V30 7208 C 702.307 1.28656 5.67294 0
M  V30 7209 N 701.283 0.613053 5.40132 0
M  V30 7210 H 705.085 0.772635 2.83562 0
M  V30 7211 H 702.599 0.523198 1.53741 0
M  V30 7212 H 704.596 -1.44513 3.91052 0
M  V30 7213 H 703.256 -1.70542 2.76307 0
M  V30 7214 H 704.267 1.21101 5.03542 0
M  V30 7215 H 700.944 -1.15773 4.01127 0
M  V30 7216 H 702.334 2.12006 6.37576 0
M  V30 7217 N 705.054 -1.51416 0.437162 0
M  V30 7218 C 705.987 -2.24309 -0.419602 0
M  V30 7219 C 706.965 -1.26236 -1.02485 0
M  V30 7220 O 708.149 -1.5537 -1.06735 0
M  V30 7221 C 705.276 -2.99335 -1.58482 0
M  V30 7222 C 704.322 -4.12064 -1.10027 0
M  V30 7223 S 705.155 -5.35483 -0.0424476 0
M  V30 7224 C 706.311 -6.14047 -1.21234 0
M  V30 7225 H 706.544 -2.96632 0.199259 0
M  V30 7226 H 704.077 -1.528 0.22168 0
M  V30 7227 H 706.035 -3.43159 -2.25282 0
M  V30 7228 H 704.696 -2.26602 -2.17509 0
M  V30 7229 H 703.889 -4.63836 -1.97161 0
M  V30 7230 H 703.491 -3.70499 -0.510507 0
M  V30 7231 H 705.783 -6.43123 -2.13072 0
M  V30 7232 H 706.726 -7.04279 -0.734582 0
M  V30 7233 H 707.134 -5.45538 -1.45082 0
M  V30 7234 N 706.532 -0.168513 -1.56696 0
M  V30 7235 C 707.78 0.476216 -1.96409 0
M  V30 7236 C 708.101 1.63968 -1.05544 0
M  V30 7237 O 707.371 1.95525 -0.121235 0
M  V30 7238 H 705.951 0.178921 -0.725256 0
M  V30 7239 H 708.613 -0.249042 -1.93302 0
M  V30 7240 H 707.709 0.838094 -3.00637 0
M  V30 7241 N 708.01 1.57248 0.105221 0
M  V30 7242 C 708.957 2.01338 1.12835 0
M  V30 7243 C 709.927 0.887897 1.40377 0
M  V30 7244 O 711.112 1.15315 1.5201 0
M  V30 7245 C 708.252 2.43432 2.44611 0
M  V30 7246 C 707.365 3.69457 2.23888 0
M  V30 7247 C 706.5 4.00473 3.48991 0
M  V30 7248 C 705.539 5.19638 3.23485 0
M  V30 7249 N 704.676 5.46457 4.40828 0
M  V30 7250 H 709.516 2.88527 0.745386 0
M  V30 7251 H 707.053 1.42714 0.356535 0
M  V30 7252 H 709.011 2.65879 3.21503 0
M  V30 7253 H 707.641 1.59266 2.80774 0
M  V30 7254 H 706.693 3.54545 1.37847 0
M  V30 7255 H 708.005 4.56497 2.01026 0
M  V30 7256 H 707.159 4.23642 4.34295 0
M  V30 7257 H 705.898 3.11935 3.74897 0
M  V30 7258 H 704.903 4.96299 2.36574 0
M  V30 7259 H 706.128 6.09766 2.98935 0
M  V30 7260 H 704.074 4.60876 4.66829 0
M  V30 7261 H 703.991 6.27849 4.2112 0
M  V30 7262 H 705.259 5.74155 5.27225 0
M  V30 7263 N 709.488 -0.375779 1.53054 0
M  V30 7264 C 710.418 -1.46598 1.81745 0
M  V30 7265 C 711.399 -1.56337 0.670286 0
M  V30 7266 O 712.584 -1.71071 0.919158 0
M  V30 7267 C 709.714 -2.84058 1.99821 0
M  V30 7268 C 708.668 -2.8915 3.15557 0
M  V30 7269 C 707.994 -4.29187 3.18908 0
M  V30 7270 C 709.294 -2.57595 4.54359 0
M  V30 7271 H 710.988 -1.22837 2.73041 0
M  V30 7272 H 708.534 -0.589485 1.31381 0
M  V30 7273 H 710.487 -3.60342 2.18475 0
M  V30 7274 H 709.211 -3.09184 1.05226 0
M  V30 7275 H 707.87 -2.15316 2.96706 0
M  V30 7276 H 707.518 -4.51374 2.2197 0
M  V30 7277 H 707.218 -4.33512 3.96662 0
M  V30 7278 H 708.742 -5.07359 3.39734 0
M  V30 7279 H 710.156 -3.23595 4.73243 0
M  V30 7280 H 708.553 -2.73252 5.34279 0
M  V30 7281 H 709.623 -1.52882 4.60169 0
M  V30 7282 N 710.966 -1.44241 -0.634997 0
M  V30 7283 C 712.212 -1.47038 -1.39669 0
M  V30 7284 C 712.545 -0.101122 -1.93937 0
M  V30 7285 O 711.82 0.880699 -1.73418 0
M  V30 7286 C 712.103 -2.52763 -2.56482 0
M  V30 7287 C 711.956 -3.99032 -2.07589 0
M  V30 7288 C 713.275 -2.55031 -3.58674 0
M  V30 7289 H 710.394 -0.53537 -0.506506 0
M  V30 7290 H 713.036 -1.75898 -0.718317 0
M  V30 7291 H 711.186 -2.28284 -3.14354 0
M  V30 7292 H 712.858 -4.3463 -1.54577 0
M  V30 7293 H 711.101 -4.10994 -1.38804 0
M  V30 7294 H 711.772 -4.68649 -2.91671 0
M  V30 7295 H 714.248 -2.76893 -3.10595 0
M  V30 7296 H 713.124 -3.30916 -4.37934 0
M  V30 7297 H 713.385 -1.59085 -4.12486 0
M  V30 7298 N 712.444 0.87505 -1.31075 0
M  V30 7299 C 713.855 1.4433 -1.18431 0
M  V30 7300 C 714.206 1.9506 0.211189 0
M  V30 7301 O 713.331 1.85847 1.10859 0
M  V30 7302 C 713.926 2.62341 -2.14389 0
M  V30 7303 C 712.485 3.15225 -2.05694 0
M  V30 7304 C 711.632 1.87929 -2.03907 0
M  V30 7305 H 714.583 0.684061 -1.432 0
M  V30 7306 H 714.604 3.3887 -1.73053 0
M  V30 7307 H 714.116 2.25388 -3.15946 0
M  V30 7308 H 712.217 3.56812 -1.07314 0
M  V30 7309 H 712.33 3.77853 -2.94558 0
M  V30 7310 H 710.694 2.06679 -1.48849 0
M  V30 7311 H 711.477 1.53221 -3.07211 0
M  V30 7312 N 713.922 1.13953 1.08869 0
M  V30 7313 C 714.852 0.844824 2.17681 0
M  V30 7314 C 715.833 -0.198213 1.68941 0
M  V30 7315 O 717.018 -0.0559073 1.9412 0
M  V30 7316 C 714.148 0.316325 3.45856 0
M  V30 7317 C 713.102 1.29426 4.07962 0
M  V30 7318 C 712.428 0.625275 5.31031 0
M  V30 7319 C 713.728 2.65484 4.49795 0
M  V30 7320 H 715.422 1.75471 2.42591 0
M  V30 7321 H 712.968 0.845116 1.16592 0
M  V30 7322 H 714.921 0.0977876 4.21287 0
M  V30 7323 H 713.645 -0.628972 3.20486 0
M  V30 7324 H 712.304 1.49889 3.34558 0
M  V30 7325 H 711.952 -0.325678 5.01945 0
M  V30 7326 H 711.652 1.27777 5.73539 0
M  V30 7327 H 713.176 0.416152 6.0918 0
M  V30 7328 H 714.59 2.48957 5.16424 0
M  V30 7329 H 712.987 3.26963 5.03205 0
M  V30 7330 H 714.057 3.22717 3.61914 0
M  V30 7331 N 715.4 -1.26948 0.933913 0
M  V30 7332 C 716.347 -2.26635 0.436484 0
M  V30 7333 C 717.317 -1.58397 -0.499953 0
M  V30 7334 O 718.502 -1.86171 -0.417753 0
M  V30 7335 C 715.642 -3.43803 -0.298951 0
M  V30 7336 C 714.755 -4.26736 0.672316 0
M  V30 7337 C 713.89 -5.31134 -0.0835872 0
M  V30 7338 C 712.929 -6.05742 0.879979 0
M  V30 7339 N 712.066 -7.01926 0.156301 0
M  V30 7340 H 716.906 -2.68558 1.29154 0
M  V30 7341 H 714.443 -1.32052 0.648118 0
M  V30 7342 H 716.401 -4.10554 -0.741723 0
M  V30 7343 H 715.031 -3.02814 -1.1182 0
M  V30 7344 H 714.083 -3.59842 1.23361 0
M  V30 7345 H 715.395 -4.78502 1.40846 0
M  V30 7346 H 714.549 -6.03863 -0.585984 0
M  V30 7347 H 713.288 -4.80188 -0.852661 0
M  V30 7348 H 712.293 -5.31846 1.39357 0
M  V30 7349 H 713.518 -6.58777 1.64894 0
M  V30 7350 H 711.464 -6.53301 -0.594413 0
M  V30 7351 H 711.381 -7.51409 0.831906 0
M  V30 7352 H 712.649 -7.78821 -0.325239 0
M  V30 7353 N 716.879 -0.700114 -1.41195 0
M  V30 7354 C 717.789 -0.0382854 -2.34569 0
M  V30 7355 C 718.805 0.761036 -1.56474 0
M  V30 7356 O 719.981 0.697553 -1.88934 0
M  V30 7357 C 717.046 0.883522 -3.35253 0
M  V30 7358 C 716.107 0.0758957 -4.29233 0
M  V30 7359 C 715.34 0.9538 -5.25108 0
M  V30 7360 O 715.563 2.19326 -5.26547 0
M  V30 7361 O 714.497 0.401049 -6.00562 0
M  V30 7362 H 718.323 -0.808073 -2.92752 0
M  V30 7363 H 715.908 -0.460479 -1.42127 0
M  V30 7364 H 717.79 1.41199 -3.9704 0
M  V30 7365 H 716.465 1.63272 -2.79506 0
M  V30 7366 H 715.372 -0.497274 -3.7078 0
M  V30 7367 H 716.705 -0.634741 -4.8809 0
M  V30 7368 N 718.357 1.51182 -0.445186 0
M  V30 7369 C 719.585 2.06568 0.117091 0
M  V30 7370 C 720 1.31182 1.35781 0
M  V30 7371 O 719.357 0.373605 1.78635 0
M  V30 7372 C 719.408 3.58917 0.431408 0
M  V30 7373 O 719.129 4.31456 -0.760078 0
M  V30 7374 C 720.63 4.30843 1.0435 0
M  V30 7375 H 717.85 0.670985 0.00444436 0
M  V30 7376 H 720.394 1.94666 -0.626525 0
M  V30 7377 H 718.549 3.70708 1.12493 0
M  V30 7378 H 718.963 5.22215 -0.489048 0
M  V30 7379 H 720.437 5.38499 1.21337 0
M  V30 7380 H 720.914 3.89644 2.02667 0
M  V30 7381 H 721.52 4.23516 0.38913 0
M  V30 7382 N 719.835 0.176821 1.56605 0
M  V30 7383 C 721.084 -0.466833 1.96223 0
M  V30 7384 C 721.397 -1.64015 1.06576 0
M  V30 7385 O 722.603 -2.3504 1.35898 0
M  V30 7386 C 721.059 -0.881921 3.48927 0
M  V30 7387 C 720.667 0.266102 4.47209 0
M  V30 7388 C 722.411 -1.49368 3.97353 0
M  V30 7389 C 720.318 -0.168923 5.91159 0
M  V30 7390 H 719.248 -0.178178 0.732645 0
M  V30 7391 H 721.899 0.265929 1.81563 0
M  V30 7392 H 720.281 -1.67082 3.59026 0
M  V30 7393 H 721.455 1.04349 4.4883 0
M  V30 7394 H 719.77 0.788178 4.08872 0
M  V30 7395 H 722.367 -1.8313 5.02362 0
M  V30 7396 H 722.71 -2.3936 3.40606 0
M  V30 7397 H 723.243 -0.769114 3.90294 0
M  V30 7398 H 719.982 0.696351 6.51791 0
M  V30 7399 H 719.502 -0.911552 5.92833 0
M  V30 7400 H 721.181 -0.610938 6.44109 0
M  V30 7401 N 721.313 -1.57302 -0.09688 0
M  V30 7402 C 722.26 -2.01933 -1.11766 0
M  V30 7403 C 723.23 -0.895329 -1.39904 0
M  V30 7404 O 724.415 -1.16119 -1.51397 0
M  V30 7405 C 721.555 -2.44726 -2.43317 0
M  V30 7406 C 720.668 -3.70639 -2.21925 0
M  V30 7407 C 719.803 -4.02318 -3.46862 0
M  V30 7408 C 718.842 -5.21346 -3.20725 0
M  V30 7409 N 717.979 -5.48787 -4.37924 0
M  V30 7410 H 722.819 -2.88919 -0.730075 0
M  V30 7411 H 720.356 -1.42901 -0.348962 0
M  V30 7412 H 722.314 -2.6758 -3.20088 0
M  V30 7413 H 720.944 -1.60753 -2.79926 0
M  V30 7414 H 719.996 -3.55271 -1.35965 0
M  V30 7415 H 721.308 -4.57557 -1.98603 0
M  V30 7416 H 720.462 -4.25939 -4.32042 0
M  V30 7417 H 719.201 -3.13918 -3.73238 0
M  V30 7418 H 718.206 -4.97547 -2.33938 0
M  V30 7419 H 719.431 -6.11343 -2.95697 0
M  V30 7420 H 717.377 -4.63346 -4.64378 0
M  V30 7421 H 717.294 -6.30073 -4.17785 0
M  V30 7422 H 718.562 -5.76943 -5.24173 0
M  V30 7423 N 722.791 0.367657 -1.53252 0
M  V30 7424 C 724.039 1.10832 -1.68999 0
M  V30 7425 C 724.36 1.89894 -0.443306 0
M  V30 7426 O 723.63 1.88235 0.54262 0
M  V30 7427 H 722.21 0.412153 -0.623008 0
M  V30 7428 H 724.872 0.414775 -1.90435 0
M  V30 7429 H 723.968 1.7993 -2.55013 0
M  V30 7430 N 724.269 1.44576 0.627338 0
M  V30 7431 C 725.516 1.47558 1.38682 0
M  V30 7432 C 725.844 0.109636 1.94191 0
M  V30 7433 O 725.099 -0.889092 1.74338 0
M  V30 7434 C 725.398 2.48644 2.56731 0
M  V30 7435 C 725.064 3.93873 2.19489 0
M  V30 7436 C 723.726 4.33421 2.09045 0
M  V30 7437 C 726.078 4.85286 1.90124 0
M  V30 7438 C 723.406 5.62303 1.6743 0
M  V30 7439 C 725.758 6.14559 1.50001 0
M  V30 7440 C 724.422 6.53058 1.38101 0
M  V30 7441 H 723.692 0.539955 0.507474 0
M  V30 7442 H 726.339 1.77811 0.711021 0
M  V30 7443 H 724.644 2.11889 3.29561 0
M  V30 7444 H 726.341 2.48197 3.14959 0
M  V30 7445 H 722.931 3.62587 2.28537 0
M  V30 7446 H 727.115 4.55483 1.971 0
M  V30 7447 H 722.371 5.90945 1.56823 0
M  V30 7448 H 726.545 6.84848 1.26319 0
M  V30 7449 H 724.172 7.52826 1.05628 0
M  V30 7450 N 725.747 -0.868086 1.31537 0
M  V30 7451 C 726.679 -1.98165 1.15166 0
M  V30 7452 C 727.692 -1.6255 0.0902335 0
M  V30 7453 O 728.881 -1.75272 0.33791 0
M  V30 7454 C 725.981 -3.30772 0.737776 0
M  V30 7455 C 725.154 -3.94716 1.88462 0
M  V30 7456 C 724.213 -5.05641 1.45648 0
M  V30 7457 O 723.239 -5.2636 2.16642 0
M  V30 7458 N 724.441 -5.79474 0.34493 0
M  V30 7459 H 727.206 -2.12754 2.11083 0
M  V30 7460 H 724.767 -1.04217 1.23897 0
M  V30 7461 H 726.759 -4.02366 0.434032 0
M  V30 7462 H 725.329 -3.1233 -0.129834 0
M  V30 7463 H 724.549 -3.16079 2.35558 0
M  V30 7464 H 725.837 -4.34175 2.65273 0
M  V30 7465 H 725.235 -5.65164 -0.246259 0
M  V30 7466 H 723.792 -6.51722 0.100728 0
M  V30 7467 N 727.225 -1.14528 -1.08264 0
M  V30 7468 C 728.157 -0.791325 -2.15106 0
M  V30 7469 C 729.17 0.192449 -1.61659 0
M  V30 7470 O 730.359 -0.0294704 -1.78476 0
M  V30 7471 C 727.459 -0.154183 -3.38549 0
M  V30 7472 C 726.632 -1.17305 -4.21377 0
M  V30 7473 C 725.691 -0.559401 -5.23218 0
M  V30 7474 O 724.717 -1.22277 -5.55911 0
M  V30 7475 N 725.919 0.663159 -5.767 0
M  V30 7476 H 728.684 -1.71076 -2.46075 0
M  V30 7477 H 726.245 -1.0399 -1.24087 0
M  V30 7478 H 728.237 0.268884 -4.03806 0
M  V30 7479 H 726.807 0.668418 -3.0537 0
M  V30 7480 H 726.027 -1.773 -3.52077 0
M  V30 7481 H 727.315 -1.86128 -4.73533 0
M  V30 7482 H 726.713 1.22066 -5.52373 0
M  V30 7483 H 725.27 1.02871 -6.43631 0
M  V30 7484 N 728.703 1.26451 -0.940633 0
M  V30 7485 C 729.952 1.93071 -0.583656 0
M  V30 7486 C 730.265 1.74618 0.881366 0
M  V30 7487 O 731.471 2.35689 1.34769 0
M  V30 7488 C 729.927 3.45927 -0.993106 0
M  V30 7489 C 729.535 3.73115 -2.4797 0
M  V30 7490 C 731.279 4.18554 -0.707998 0
M  V30 7491 C 729.186 5.19408 -2.82788 0
M  V30 7492 H 728.116 0.722824 -0.214572 0
M  V30 7493 H 730.767 1.43538 -1.1432 0
M  V30 7494 H 729.149 3.94341 -0.362099 0
M  V30 7495 H 730.323 3.35408 -3.15971 0
M  V30 7496 H 728.638 3.13719 -2.73805 0
M  V30 7497 H 731.235 5.26293 -0.94447 0
M  V30 7498 H 731.578 4.14782 0.355225 0
M  V30 7499 H 732.111 3.76003 -1.2987 0
M  V30 7500 H 728.85 5.28281 -3.88071 0
M  V30 7501 H 728.37 5.58214 -2.19449 0
M  V30 7502 H 730.049 5.87407 -2.71224 0
M  V30 7503 N 730.181 0.707592 1.40822 0
M  V30 7504 C 731.111 0.0644925 2.33411 0
M  V30 7505 C 732.092 -0.754205 1.52466 0
M  V30 7506 O 733.277 -0.704749 1.80961 0
M  V30 7507 C 730.407 -0.863865 3.36385 0
M  V30 7508 C 729.361 -0.15138 4.27732 0
M  V30 7509 C 728.687 -1.19491 5.21177 0
M  V30 7510 C 729.987 0.989607 5.12839 0
M  V30 7511 H 731.681 0.837829 2.87438 0
M  V30 7512 H 729.227 0.404346 1.38207 0
M  V30 7513 H 731.18 -1.32309 4.0009 0
M  V30 7514 H 729.904 -1.66901 2.80734 0
M  V30 7515 H 728.563 0.287937 3.65467 0
M  V30 7516 H 728.211 -1.9929 4.61836 0
M  V30 7517 H 727.911 -0.723123 5.83134 0
M  V30 7518 H 729.435 -1.6544 5.8776 0
M  V30 7519 H 730.849 0.610114 5.70044 0
M  V30 7520 H 729.246 1.38926 5.83798 0
M  V30 7521 H 730.316 1.82389 4.49291 0
M  V30 7522 N 731.66 -1.50943 0.453197 0
M  V30 7523 C 732.623 -2.26684 -0.338705 0
M  V30 7524 C 733.623 -1.30748 -0.936032 0
M  V30 7525 O 734.813 -1.54327 -0.808002 0
M  V30 7526 C 731.945 -3.07063 -1.48071 0
M  V30 7527 H 733.138 -2.98131 0.325289 0
M  V30 7528 H 730.691 -1.54926 0.206771 0
M  V30 7529 H 731.426 -2.4007 -2.18029 0
M  V30 7530 H 731.211 -3.77545 -1.0584 0
M  V30 7531 H 732.701 -3.64393 -2.0398 0
M  V30 7532 N 733.138 -0.185124 -1.56509 0
M  V30 7533 C 734.386 0.455357 -1.96903 0
M  V30 7534 C 734.707 1.62839 -1.07277 0
M  V30 7535 O 733.977 1.95385 -0.141966 0
M  V30 7536 H 732.557 0.171218 -0.727113 0
M  V30 7537 H 735.219 -0.26953 -1.93027 0
M  V30 7538 H 734.315 0.80616 -3.01509 0
M  V30 7539 N 734.616 1.57351 0.0885366 0
M  V30 7540 C 735.526 2.05858 1.12516 0
M  V30 7541 C 736.542 0.984758 1.43452 0
M  V30 7542 O 737.718 1.29836 1.53963 0
M  V30 7543 C 734.783 2.47882 2.42395 0
M  V30 7544 C 733.844 3.69487 2.18582 0
M  V30 7545 C 733.077 4.09497 3.42268 0
M  V30 7546 O 733.3 3.49536 4.50755 0
M  V30 7547 O 732.234 5.02406 3.31469 0
M  V30 7548 H 736.06 2.94467 0.743146 0
M  V30 7549 H 733.645 1.46326 0.301507 0
M  V30 7550 H 735.527 2.75509 3.18862 0
M  V30 7551 H 734.202 1.62408 2.8001 0
M  V30 7552 H 733.109 3.46967 1.39875 0
M  V30 7553 H 734.442 4.55761 1.85857 0
M  V30 7554 N 736.094 -0.359525 1.53444 0
M  V30 7555 C 737.324 -1.12036 1.73585 0
M  V30 7556 C 737.732 -1.83335 0.467438 0
M  V30 7557 O 737.075 -1.74641 -0.569753 0
M  V30 7558 C 737.137 -2.19036 2.85068 0
M  V30 7559 C 736.801 -1.67451 4.25217 0
M  V30 7560 C 737.798 -1.13534 5.07352 0
M  V30 7561 C 735.483 -1.72781 4.71648 0
M  V30 7562 C 737.477 -0.656321 6.34012 0
M  V30 7563 C 735.164 -1.2449 5.98285 0
M  V30 7564 C 736.162 -0.710068 6.79299 0
M  V30 7565 O 735.85 -0.234314 8.03558 0
M  V30 7566 H 735.582 -0.340662 0.583888 0
M  V30 7567 H 738.136 -0.422452 2.01009 0
M  V30 7568 H 736.366 -2.92338 2.53131 0
M  V30 7569 H 738.055 -2.80559 2.93328 0
M  V30 7570 H 738.821 -1.08751 4.7265 0
M  V30 7571 H 734.7 -2.13351 4.08659 0
M  V30 7572 H 738.244 -0.238193 6.97193 0
M  V30 7573 H 734.141 -1.28969 6.32485 0
M  V30 7574 H 734.909 -0.353084 8.17738 0
M  V30 7575 N 737.572 -1.44907 -0.619662 0
M  V30 7576 C 738.849 -1.38766 -1.37852 0
M  V30 7577 C 739.229 -0.0521393 -2.11036 0
M  V30 7578 O 738.577 0.965613 -2.07095 0
M  V30 7579 C 738.787 -2.59344 -2.33541 0
M  V30 7580 C 740.135 -3.03909 -2.96521 0
M  V30 7581 O 741.159 -2.59631 -2.43865 0
M  V30 7582 O 740.018 -3.80713 -3.92071 0
M  V30 7583 H 737.112 -0.550083 -0.617525 0
M  V30 7584 H 739.658 -1.57015 -0.643759 0
M  V30 7585 H 738.43 -3.48142 -1.78642 0
M  V30 7586 H 738.053 -2.43367 -3.14417 0
M  V30 7587 N 739.05 0.861098 -1.31996 0
M  V30 7588 C 740 1.95703 -1.1698 0
M  V30 7589 C 740.984 1.60709 -0.0784201 0
M  V30 7590 O 742.176 1.74365 -0.304262 0
M  V30 7591 C 739.305 3.31606 -0.888388 0
M  V30 7592 C 738.391 3.7284 -2.02117 0
M  V30 7593 N 738.782 3.85957 -3.26911 0
M  V30 7594 C 737.08 4.02419 -1.92289 0
M  V30 7595 C 737.781 4.21333 -4.01065 0
M  V30 7596 N 736.757 4.32502 -3.29307 0
M  V30 7597 H 740.559 2.03968 -2.11599 0
M  V30 7598 H 738.073 1.05245 -1.23682 0
M  V30 7599 H 740.07 4.09881 -0.761782 0
M  V30 7600 H 738.73 3.24662 0.0494898 0
M  V30 7601 H 739.741 3.70449 -3.61923 0
M  V30 7602 H 736.418 4.03814 -1.06022 0
M  V30 7603 H 737.808 4.39005 -5.08649 0
M  V30 7604 N 740.528 1.15101 1.07655 0
M  V30 7605 C 741.458 0.867864 2.16773 0
M  V30 7606 C 742.439 -0.180283 1.69142 0
M  V30 7607 O 743.624 -0.0353152 1.94168 0
M  V30 7608 C 740.754 0.35299 3.45501 0
M  V30 7609 C 739.708 1.33746 4.06566 0
M  V30 7610 C 739.034 0.681562 5.30338 0
M  V30 7611 C 740.334 2.7024 4.46954 0
M  V30 7612 H 742.028 1.78034 2.40716 0
M  V30 7613 H 739.574 0.857435 1.15689 0
M  V30 7614 H 741.527 0.142465 4.21159 0
M  V30 7615 H 740.251 -0.594945 3.21135 0
M  V30 7616 H 738.91 1.53429 3.32949 0
M  V30 7617 H 738.558 -0.272422 5.02262 0
M  V30 7618 H 738.258 1.33853 5.72151 0
M  V30 7619 H 739.782 0.48074 6.08705 0
M  V30 7620 H 741.196 2.5442 5.13754 0
M  V30 7621 H 739.593 3.32282 4.99709 0
M  V30 7622 H 740.663 3.26537 3.58471 0
M  V30 7623 N 742.006 -1.2595 0.947325 0
M  V30 7624 C 743.417 -1.75389 0.639963 0
M  V30 7625 C 743.768 -1.77081 -0.844788 0
M  V30 7626 O 742.893 -1.3869 -1.66114 0
M  V30 7627 C 743.488 -3.18506 1.15496 0
M  V30 7628 C 742.047 -3.65534 0.897894 0
M  V30 7629 C 741.194 -2.44818 1.30228 0
M  V30 7630 H 744.145 -1.1194 1.12495 0
M  V30 7631 H 744.166 -3.77045 0.511627 0
M  V30 7632 H 743.678 -3.17243 2.23559 0
M  V30 7633 H 741.779 -3.72221 -0.168096 0
M  V30 7634 H 741.892 -4.54039 1.52922 0
M  V30 7635 H 740.256 -2.44291 0.720678 0
M  V30 7636 H 741.039 -2.46251 2.39198 0
M  V30 7637 N 743.484 -0.715051 -1.40445 0
M  V30 7638 C 744.394 -0.0631624 -2.34515 0
M  V30 7639 C 745.41 0.744397 -1.57273 0
M  V30 7640 O 746.586 0.677475 -1.89663 0
M  V30 7641 C 743.651 0.847915 -3.36172 0
M  V30 7642 C 742.712 0.0303655 -4.29289 0
M  V30 7643 C 741.945 0.898051 -5.2609 0
M  V30 7644 O 742.168 2.13729 -5.28844 0
M  V30 7645 O 741.102 0.337328 -6.00954 0
M  V30 7646 H 744.928 -0.839078 -2.91879 0
M  V30 7647 H 742.513 -0.475527 -1.4163 0
M  V30 7648 H 744.395 1.3698 -3.98515 0
M  V30 7649 H 743.07 1.60299 -2.81222 0
M  V30 7650 H 741.977 -0.536573 -3.70232 0
M  V30 7651 H 743.31 -0.686474 -4.87389 0
M  V30 7652 N 744.962 1.50701 -0.461195 0
M  V30 7653 C 745.894 2.26124 0.374244 0
M  V30 7654 C 746.907 1.31064 0.965715 0
M  V30 7655 O 748.096 1.56647 0.855801 0
M  V30 7656 C 745.196 3.01996 1.5379 0
M  V30 7657 C 744.369 4.24336 1.06101 0
M  V30 7658 C 743.428 4.82585 2.09756 0
M  V30 7659 O 742.454 5.43775 1.68219 0
M  V30 7660 N 743.656 4.68712 3.42475 0
M  V30 7661 H 746.421 2.9846 -0.2723 0
M  V30 7662 H 743.982 1.59256 -0.291415 0
M  V30 7663 H 745.974 3.37846 2.22806 0
M  V30 7664 H 744.544 2.32521 2.08933 0
M  V30 7665 H 743.764 3.93707 0.197085 0
M  V30 7666 H 745.052 5.03678 0.720156 0
M  V30 7667 H 744.45 4.20026 3.78938 0
M  V30 7668 H 743.007 5.08858 4.07317 0
M  V30 7669 N 746.441 0.193421 1.56409 0
M  V30 7670 C 747.404 -0.714371 2.17783 0
M  V30 7671 C 748.404 -1.1422 1.13183 0
M  V30 7672 O 749.594 -1.05557 1.38576 0
M  V30 7673 C 746.726 -1.97509 2.77855 0
M  V30 7674 H 747.919 -0.179714 2.99361 0
M  V30 7675 H 745.472 -0.0561944 1.56199 0
M  V30 7676 H 746.207 -2.5523 2.0007 0
M  V30 7677 H 745.992 -1.67706 3.54425 0
M  V30 7678 H 747.482 -2.62246 3.24987 0
M  V30 7679 N 747.919 -1.57396 -0.0801906 0
M  V30 7680 C 749.166 -1.86836 -0.780927 0
M  V30 7681 C 749.494 -0.784012 -1.77999 0
M  V30 7682 O 748.749 0.220881 -1.94449 0
M  V30 7683 C 749.048 -3.22915 -1.53169 0
M  V30 7684 C 748.714 -4.45843 -0.67339 0
M  V30 7685 C 747.376 -4.79213 -0.436829 0
M  V30 7686 C 749.728 -5.21142 -0.0776786 0
M  V30 7687 C 747.056 -5.853 0.405062 0
M  V30 7688 C 749.408 -6.28119 0.751619 0
M  V30 7689 C 748.072 -6.59995 0.998131 0
M  V30 7690 H 747.342 -0.683682 -0.285761 0
M  V30 7691 H 749.989 -1.91454 -0.0419435 0
M  V30 7692 H 748.294 -3.14049 -2.34265 0
M  V30 7693 H 749.991 -3.42926 -2.07853 0
M  V30 7694 H 746.581 -4.19721 -0.867891 0
M  V30 7695 H 750.765 -4.95682 -0.247572 0
M  V30 7696 H 746.021 -6.084 0.60488 0
M  V30 7697 H 750.195 -6.8563 1.22 0
M  V30 7698 H 747.822 -7.42027 1.65227 0
M  V30 7699 N 749.397 0.351382 -1.53633 0
M  V30 7700 C 750.627 1.11113 -1.74176 0
M  V30 7701 C 751.035 1.83084 -0.477154 0
M  V30 7702 O 750.378 1.74941 0.560483 0
M  V30 7703 C 750.44 2.17521 -2.86225 0
M  V30 7704 C 750.104 1.65193 -4.26099 0
M  V30 7705 C 751.101 1.10842 -5.07947 0
M  V30 7706 C 748.786 1.70277 -4.72558 0
M  V30 7707 C 750.78 0.622689 -6.34351 0
M  V30 7708 C 748.467 1.21316 -5.98937 0
M  V30 7709 C 749.465 0.674033 -6.79666 0
M  V30 7710 O 749.153 0.191696 -8.03671 0
M  V30 7711 H 748.885 0.33756 -0.585687 0
M  V30 7712 H 751.439 0.411786 -2.0123 0
M  V30 7713 H 749.669 2.90991 -2.54678 0
M  V30 7714 H 751.358 2.78999 -2.94812 0
M  V30 7715 H 752.124 1.06243 -4.7322 0
M  V30 7716 H 748.003 2.11181 -4.09785 0
M  V30 7717 H 751.547 0.201216 -6.9731 0
M  V30 7718 H 747.444 1.25613 -6.3316 0
M  V30 7719 H 748.212 0.309712 -8.17914 0
M  V30 7720 N 750.875 1.45233 0.611969 0
M  V30 7721 C 751.808 1.48056 1.73651 0
M  V30 7722 C 752.786 0.337373 1.59061 0
M  V30 7723 O 753.97 0.537222 1.80683 0
M  V30 7724 C 751.097 1.33144 3.11433 0
M  V30 7725 C 750.143 2.51272 3.44623 0
M  V30 7726 S 750.976 4.13754 3.39953 0
M  V30 7727 C 752.132 4.013 4.80322 0
M  V30 7728 H 752.365 2.43205 1.70993 0
M  V30 7729 H 749.898 1.32763 0.788246 0
M  V30 7730 H 751.856 1.25228 3.90932 0
M  V30 7731 H 750.517 0.394734 3.1161 0
M  V30 7732 H 749.71 2.36753 4.44932 0
M  V30 7733 H 749.312 2.56027 2.72629 0
M  V30 7734 H 751.604 3.66174 5.7002 0
M  V30 7735 H 752.547 5.01506 4.99897 0
M  V30 7736 H 752.955 3.3303 4.55797 0
M  V30 7737 N 752.353 -0.854086 1.3245 0
M  V30 7738 C 753.599 -1.61069 1.23225 0
M  V30 7739 C 753.932 -1.93111 -0.205349 0
M  V30 7740 O 753.207 -1.57397 -1.14265 0
M  V30 7741 C 753.49 -2.93065 2.09249 0
M  V30 7742 C 753.343 -2.67801 3.6139 0
M  V30 7743 C 754.662 -3.94341 1.95406 0
M  V30 7744 H 751.781 -0.584449 0.448986 0
M  V30 7745 H 754.423 -0.986189 1.62402 0
M  V30 7746 H 752.573 -3.46364 1.75967 0
M  V30 7747 H 754.245 -2.21052 4.04887 0
M  V30 7748 H 752.488 -2.01756 3.84027 0
M  V30 7749 H 753.159 -3.6179 4.16907 0
M  V30 7750 H 755.635 -3.50301 2.24562 0
M  V30 7751 H 754.511 -4.84555 2.57872 0
M  V30 7752 H 754.772 -4.32382 0.921865 0
M  V30 7753 N 753.831 -1.1567 -1.07043 0
M  V30 7754 C 755.079 -0.931673 -1.79344 0
M  V30 7755 C 755.4 0.542421 -1.87304 0
M  V30 7756 O 754.67 1.39418 -1.37621 0
M  V30 7757 H 753.25 -0.34171 -0.664262 0
M  V30 7758 H 755.912 -1.45795 -1.29344 0
M  V30 7759 H 755.008 -1.34379 -2.81689 0
M  V30 7760 N 755.309 1.25446 -0.953992 0
M  V30 7761 C 756.72 1.75047 -0.649255 0
M  V30 7762 C 757.071 1.77527 0.835385 0
M  V30 7763 O 756.196 1.39569 1.65377 0
M  V30 7764 C 756.791 3.17889 -1.17183 0
M  V30 7765 C 755.35 3.65052 -0.917267 0
M  V30 7766 C 754.497 2.44124 -1.31525 0
M  V30 7767 H 757.448 1.11342 -1.13087 0
M  V30 7768 H 757.469 3.76768 -0.531616 0
M  V30 7769 H 756.981 3.16052 -2.25239 0
M  V30 7770 H 755.082 3.72305 0.148354 0
M  V30 7771 H 755.195 4.53222 -1.55328 0
M  V30 7772 H 753.559 2.43906 -0.733624 0
M  V30 7773 H 754.342 2.44979 -2.405 0
M  V30 7774 N 756.787 0.722489 1.40064 0
M  V30 7775 C 758.036 0.261932 1.99992 0
M  V30 7776 C 758.349 -1.15358 1.57961 0
M  V30 7777 O 759.555 -1.71301 2.10637 0
M  V30 7778 C 758.011 0.41737 3.57472 0
M  V30 7779 C 757.619 1.83997 4.08472 0
M  V30 7780 C 759.363 0.0179561 4.24496 0
M  V30 7781 C 757.27 1.94563 5.5848 0
M  V30 7782 H 756.2 0.0941768 0.748095 0
M  V30 7783 H 758.851 0.894572 1.60218 0
M  V30 7784 H 757.233 -0.283965 3.94981 0
M  V30 7785 H 758.407 2.57224 3.82325 0
M  V30 7786 H 756.722 2.19147 3.54067 0
M  V30 7787 H 759.319 0.076085 5.34646 0
M  V30 7788 H 759.662 -1.02498 4.03485 0
M  V30 7789 H 760.195 0.669988 3.92117 0
M  V30 7790 H 756.934 2.97001 5.84355 0
M  V30 7791 H 756.454 1.25756 5.86469 0
M  V30 7792 H 758.133 1.72095 6.23692 0
M  V30 7793 N 758.265 -1.50454 0.469181 0
M  V30 7794 C 759.175 -2.32248 -0.331349 0
M  V30 7795 C 760.191 -1.42548 -0.997807 0
M  V30 7796 O 761.367 -1.75602 -0.9862 0
M  V30 7797 C 758.432 -3.17171 -1.40012 0
M  V30 7798 C 757.493 -4.2269 -0.750463 0
M  V30 7799 C 756.726 -5.03554 -1.76831 0
M  V30 7800 O 756.949 -4.85469 -2.99459 0
M  V30 7801 O 755.883 -5.86767 -1.3412 0
M  V30 7802 H 759.709 -3.01821 0.337279 0
M  V30 7803 H 757.294 -1.47602 0.231066 0
M  V30 7804 H 759.176 -3.69871 -2.01924 0
M  V30 7805 H 757.851 -2.50328 -2.05226 0
M  V30 7806 H 756.758 -3.73986 -0.0924446 0
M  V30 7807 H 758.091 -4.91997 -0.14131 0
M  V30 7808 N 759.743 -0.201713 -1.56304 0
M  V30 7809 C 760.653 0.728296 -2.23009 0
M  V30 7810 C 761.669 1.22945 -1.23128 0
M  V30 7811 O 762.845 1.27523 -1.55884 0
M  V30 7812 C 759.91 1.92792 -2.88153 0
M  V30 7813 C 758.971 1.47068 -4.03323 0
M  V30 7814 C 758.204 2.61312 -4.65351 0
M  V30 7815 O 758.427 3.7896 -4.26317 0
M  V30 7816 O 757.361 2.33646 -5.54701 0
M  V30 7817 H 761.187 0.190166 -3.03104 0
M  V30 7818 H 758.772 0.0278725 -1.49374 0
M  V30 7819 H 760.654 2.6289 -3.29343 0
M  V30 7820 H 759.329 2.45452 -2.11033 0
M  V30 7821 H 758.236 0.738299 -3.66742 0
M  V30 7822 H 759.569 0.990666 -4.82127 0
M  V30 7823 N 761.222 1.57436 0.0718424 0
M  V30 7824 C 762.185 2.02703 1.06977 0
M  V30 7825 C 763.185 0.924062 1.31597 0
M  V30 7826 O 764.375 1.18894 1.27318 0
M  V30 7827 C 761.507 2.40763 2.41342 0
M  V30 7828 H 762.7 2.92098 0.679619 0
M  V30 7829 H 760.253 1.5304 0.317565 0
M  V30 7830 H 760.988 1.54394 2.8519 0
M  V30 7831 H 760.773 3.21249 2.24814 0
M  V30 7832 H 762.263 2.76361 3.13073 0
M  V30 7833 N 762.7 -0.34323 1.53817 0
M  V30 7834 C 763.946 -1.08504 1.71332 0
M  V30 7835 C 764.279 -1.88294 0.475285 0
M  V30 7836 O 763.554 -1.87205 -0.527688 0
M  V30 7837 C 763.837 -2.02597 2.97702 0
M  V30 7838 C 763.69 -1.26268 4.31713 0
M  V30 7839 C 765.009 -3.0241 3.19744 0
M  V30 7840 H 762.128 -0.393072 0.623429 0
M  V30 7841 H 764.77 -0.363579 1.86489 0
M  V30 7842 H 762.92 -2.64118 2.8491 0
M  V30 7843 H 764.592 -0.673594 4.56356 0
M  V30 7844 H 762.835 -0.564696 4.30109 0
M  V30 7845 H 763.506 -1.95253 5.16314 0
M  V30 7846 H 765.982 -2.51004 3.31868 0
M  V30 7847 H 764.858 -3.65449 4.09558 0
M  V30 7848 H 765.119 -3.73806 2.36054 0
M  V30 7849 N 764.178 -1.45556 -0.604258 0
M  V30 7850 C 765.141 -1.54091 -1.69672 0
M  V30 7851 C 766.141 -0.420076 -1.55216 0
M  V30 7852 O 767.331 -0.683671 -1.60224 0
M  V30 7853 C 764.463 -1.44063 -3.08964 0
M  V30 7854 H 765.656 -2.51431 -1.6347 0
M  V30 7855 H 763.209 -1.33046 -0.820273 0
M  V30 7856 H 763.944 -0.479201 -3.2074 0
M  V30 7857 H 763.729 -2.25362 -3.20865 0
M  V30 7858 H 765.219 -1.53075 -3.88533 0
M  V30 7859 N 765.656 0.84705 -1.32902 0
M  V30 7860 C 766.603 1.95624 -1.22473 0
M  V30 7861 C 767.573 1.65767 -0.105178 0
M  V30 7862 O 768.758 1.88704 -0.282042 0
M  V30 7863 C 765.898 3.31434 -0.961542 0
M  V30 7864 C 765.011 3.73741 -2.1666 0
M  V30 7865 C 764.146 4.98379 -1.83825 0
M  V30 7866 C 763.185 5.33199 -3.00609 0
M  V30 7867 N 762.322 6.49014 -2.67816 0
M  V30 7868 H 767.162 2.03875 -2.17345 0
M  V30 7869 H 764.699 0.997764 -1.08088 0
M  V30 7870 H 766.657 4.09663 -0.789411 0
M  V30 7871 H 765.287 3.22762 -0.0495938 0
M  V30 7872 H 764.339 2.91102 -2.44875 0
M  V30 7873 H 765.651 3.95462 -3.03993 0
M  V30 7874 H 764.805 5.84336 -1.63208 0
M  V30 7875 H 763.544 4.78611 -0.937172 0
M  V30 7876 H 762.549 4.4575 -3.21849 0
M  V30 7877 H 763.774 5.5492 -3.9146 0
M  V30 7878 H 761.72 6.30748 -1.80258 0
M  V30 7879 H 761.637 6.7079 -3.48679 0
M  V30 7880 H 762.905 7.38103 -2.50647 0
M  V30 7881 N 767.134 1.16236 1.06428 0
M  V30 7882 C 768.097 0.870163 2.1204 0
M  V30 7883 C 769.097 -0.134239 1.60239 0
M  V30 7884 O 770.287 0.0964932 1.73933 0
M  V30 7885 C 767.419 0.301033 3.39568 0
M  V30 7886 H 768.612 1.8064 2.39394 0
M  V30 7887 H 766.165 0.971116 1.2247 0
M  V30 7888 H 766.9 -0.642948 3.17863 0
M  V30 7889 H 766.685 1.02475 3.78472 0
M  V30 7890 H 768.175 0.114494 4.17443 0
M  V30 7891 N 768.612 -1.24939 0.960631 0
M  V30 7892 C 769.889 -1.88118 0.535807 0
M  V30 7893 C 770.269 -1.86605 -0.987009 0
M  V30 7894 O 769.617 -1.33375 -1.85536 0
M  V30 7895 C 769.827 -3.30565 1.11927 0
M  V30 7896 C 771.175 -4.07296 1.19981 0
M  V30 7897 O 772.199 -3.39709 1.07126 0
M  V30 7898 O 771.058 -5.28206 1.40218 0
M  V30 7899 H 768.152 -0.807698 0.177631 0
M  V30 7900 H 770.698 -1.32964 1.05445 0
M  V30 7901 H 769.47 -3.26128 2.16231 0
M  V30 7902 H 769.093 -3.93284 0.584245 0
M  V30 7903 N 770.09 -0.729906 -1.39679 0
M  V30 7904 C 771.037 -0.0866063 -2.30637 0
M  V30 7905 C 772.007 0.735115 -1.48947 0
M  V30 7906 O 773.192 0.696125 -1.77648 0
M  V30 7907 C 770.332 0.818524 -3.35252 0
M  V30 7908 C 769.445 -0.0152635 -4.31997 0
M  V30 7909 C 768.58 0.890669 -5.2368 0
M  V30 7910 C 767.619 0.0518246 -6.12078 0
M  V30 7911 N 766.756 0.913411 -6.96133 0
M  V30 7912 H 771.596 -0.867925 -2.85081 0
M  V30 7913 H 769.133 -0.439673 -1.40376 0
M  V30 7914 H 771.091 1.3577 -3.9449 0
M  V30 7915 H 769.721 1.56587 -2.82277 0
M  V30 7916 H 768.773 -0.671794 -3.74421 0
M  V30 7917 H 770.085 -0.664086 -4.9436 0
M  V30 7918 H 769.239 1.49787 -5.87919 0
M  V30 7919 H 767.978 1.57328 -4.61627 0
M  V30 7920 H 766.983 -0.568209 -5.46856 0
M  V30 7921 H 768.208 -0.627497 -6.76195 0
M  V30 7922 H 766.154 1.58141 -6.36653 0
M  V30 7923 H 766.071 0.320952 -7.55318 0
M  V30 7924 H 767.339 1.50633 -7.64807 0
M  V30 7925 N 771.568 1.50203 -0.477153 0
M  V30 7926 C 772.498 2.31517 0.303646 0
M  V30 7927 C 773.479 1.38696 0.984753 0
M  V30 7928 O 774.664 1.67615 0.980758 0
M  V30 7929 C 771.794 3.18598 1.38249 0
M  V30 7930 C 770.748 4.2002 0.822645 0
M  V30 7931 C 770.074 4.95878 2.00024 0
M  V30 7932 C 771.374 5.22023 -0.170185 0
M  V30 7933 H 773.068 2.97042 -0.375027 0
M  V30 7934 H 770.614 1.42848 -0.181802 0
M  V30 7935 H 772.567 3.74282 1.93625 0
M  V30 7936 H 771.291 2.5097 2.09002 0
M  V30 7937 H 769.95 3.65445 0.290813 0
M  V30 7938 H 769.598 4.24717 2.69489 0
M  V30 7939 H 769.298 5.64487 1.63183 0
M  V30 7940 H 770.822 5.54399 2.55878 0
M  V30 7941 H 772.236 5.72543 0.294606 0
M  V30 7942 H 770.633 5.98386 -0.453181 0
M  V30 7943 H 771.703 4.72396 -1.09408 0
M  V30 7944 N 773.046 0.209999 1.56195 0
M  V30 7945 C 774.009 -0.691232 2.18528 0
M  V30 7946 C 775.009 -1.13013 1.14388 0
M  V30 7947 O 776.199 -1.04081 1.39688 0
M  V30 7948 C 773.331 -1.94551 2.79934 0
M  V30 7949 H 774.524 -0.147953 2.99535 0
M  V30 7950 H 772.077 -0.0396243 1.5625 0
M  V30 7951 H 772.812 -2.53094 2.02766 0
M  V30 7952 H 772.597 -1.63938 3.56184 0
M  V30 7953 H 774.087 -2.58785 3.2775 0
M  V30 7954 N 774.524 -1.57472 -0.0634922 0
M  V30 7955 C 775.434 -2.07621 -1.09227 0
M  V30 7956 C 776.45 -1.00746 -1.41867 0
M  V30 7957 O 777.626 -1.32269 -1.51878 0
M  V30 7958 C 774.691 -2.51707 -2.38421 0
M  V30 7959 C 773.752 -3.72917 -2.12676 0
M  V30 7960 C 772.985 -4.14891 -3.3571 0
M  V30 7961 O 773.208 -3.56663 -4.45137 0
M  V30 7962 O 772.142 -5.07616 -3.23434 0
M  V30 7963 H 775.968 -2.95612 -0.696205 0
M  V30 7964 H 773.553 -1.46787 -0.27819 0
M  V30 7965 H 775.435 -2.80547 -3.14438 0
M  V30 7966 H 774.11 -1.66842 -2.77391 0
M  V30 7967 H 773.017 -3.49148 -1.34337 0
M  V30 7968 H 774.35 -4.5866 -1.78583 0
M  V30 7969 N 776.003 0.335068 -1.53997 0
M  V30 7970 C 776.913 1.43511 -1.85585 0
M  V30 7971 C 777.929 1.57162 -0.746726 0
M  V30 7972 O 779.105 1.72477 -1.03988 0
M  V30 7973 C 776.17 2.78386 -2.06646 0
M  V30 7974 C 775.231 2.74007 -3.30483 0
M  V30 7975 C 774.464 4.02449 -3.50529 0
M  V30 7976 O 774.687 5.00147 -2.74242 0
M  V30 7977 O 773.621 4.06405 -4.4398 0
M  V30 7978 H 777.447 1.19731 -2.79102 0
M  V30 7979 H 775.032 0.528033 -1.39758 0
M  V30 7980 H 776.914 3.58247 -2.21894 0
M  V30 7981 H 775.589 3.0208 -1.16317 0
M  V30 7982 H 774.496 1.92736 -3.2063 0
M  V30 7983 H 775.829 2.55267 -4.20832 0
M  V30 7984 N 777.481 1.45874 0.596531 0
M  V30 7985 C 778.431 1.5181 1.70111 0
M  V30 7986 C 779.415 0.380293 1.56341 0
M  V30 7987 O 780.607 0.627849 1.6549 0
M  V30 7988 C 777.736 1.49822 3.08883 0
M  V30 7989 C 776.822 2.68845 3.27998 0
M  V30 7990 N 777.213 3.93873 3.17329 0
M  V30 7991 C 775.511 2.64777 3.589 0
M  V30 7992 C 776.212 4.73371 3.38076 0
M  V30 7993 N 775.188 4.0501 3.62585 0
M  V30 7994 H 778.99 2.46289 1.60372 0
M  V30 7995 H 776.504 1.41321 0.800138 0
M  V30 7996 H 778.501 1.5216 3.8814 0
M  V30 7997 H 777.161 0.564086 3.19763 0
M  V30 7998 H 778.172 4.25329 2.95492 0
M  V30 7999 H 774.849 1.80323 3.7655 0
M  V30 8000 H 776.239 5.82357 3.35127 0
M  V30 8001 N 778.959 -0.83999 1.33349 0
M  V30 8002 C 780.184 -1.63249 1.27924 0
M  V30 8003 C 780.609 -1.87523 -0.147193 0
M  V30 8004 O 779.967 -1.43853 -1.10345 0
M  V30 8005 C 780.015 -2.96046 2.05886 0
M  V30 8006 O 779.119 -3.87303 1.4167 0
M  V30 8007 H 778.46 -0.49715 0.440157 0
M  V30 8008 H 780.99 -1.04512 1.75893 0
M  V30 8009 H 781 -3.45752 2.16609 0
M  V30 8010 H 779.675 -2.77701 3.09605 0
M  V30 8011 H 778.252 -3.45789 1.39585 0
M  V30 8012 N 780.437 -1.16799 -1.0581 0
M  V30 8013 C 781.662 -0.977402 -1.82925 0
M  V30 8014 C 782.087 0.469514 -1.82146 0
M  V30 8015 O 781.445 1.33576 -1.22585 0
M  V30 8016 C 781.493 -1.51543 -3.27211 0
M  V30 8017 O 780.597 -0.725021 -4.05977 0
M  V30 8018 H 779.938 -0.347474 -0.565825 0
M  V30 8019 H 782.468 -1.55151 -1.33376 0
M  V30 8020 H 782.478 -1.53502 -3.78023 0
M  V30 8021 H 781.153 -2.56872 -3.27093 0
M  V30 8022 H 779.73 -0.77634 -3.64729 0
M  V30 8023 O 781.954 1.1855 -1.09673 0
M  V30 8024 H 782.645 1.76666 -0.794287 0
M  V30 END ATOM
M  V30 BEGIN BOND
M  V30 END BOND
M  V30 END CTAB
M  END
$$$$
