drugbank_target|Q8I0V4 Endoplasmin homolog, putative (DB11638)
 OpenBabel12092121103D

  0  0  0     0  0            999 V3000
M  V30 BEGIN CTAB
M  V30 COUNTS 13405 13510 0 0 0
M  V30 BEGIN ATOM
M  V30 1 H -0.908 1.98254 -0.117106 0
M  V30 2 N 0 1.576 0 0
M  V30 3 C 0.933 2.03868 1.02534 0
M  V30 4 C 1.911 0.928543 1.3348 0
M  V30 5 O 3.095 1.19667 1.45644 0
M  V30 6 C 0.222 2.43627 2.35294 0
M  V30 7 C -0.732 3.65373 2.2001 0
M  V30 8 S 0.101 5.13292 1.52614 0
M  V30 9 C 1.257 5.56322 2.86805 0
M  V30 10 H 1.49 2.90518 0.631377 0
M  V30 11 H -0.977 1.52953 0.210867 0
M  V30 12 H 0.981 2.67203 3.11629 0
M  V30 13 H -0.358 1.57376 2.7183 0
M  V30 14 H -1.165 3.90944 3.18086 0
M  V30 15 H -1.563 3.418 1.51819 0
M  V30 16 H 0.729 5.58782 3.83104 0
M  V30 17 H 1.672 6.56266 2.65933 0
M  V30 18 H 2.08 4.83886 2.90714 0
M  V30 19 N 1.4781 -0.272755 1.55222 0
M  V30 20 C 2.4251 -1.33716 1.88119 0
M  V30 21 C 3.3951 -1.49066 0.73271 0
M  V30 22 O 4.5801 -1.63469 0.984002 0
M  V30 23 C 1.7201 -2.69238 2.15882 0
M  V30 24 C 0.8331 -2.62108 3.43399 0
M  V30 25 C -0.0319 -3.89811 3.60861 0
M  V30 26 C -0.9929 -3.77193 4.8207 0
M  V30 27 N -1.8559 -4.9673 4.96189 0
M  V30 28 H 2.9841 -1.04962 2.78903 0
M  V30 29 H 0.5211 -0.507088 1.38083 0
M  V30 30 H 2.4791 -3.48089 2.29978 0
M  V30 31 H 1.1091 -2.96194 1.28331 0
M  V30 32 H 0.1611 -1.74967 3.37773 0
M  V30 33 H 1.4731 -2.48685 4.32386 0
M  V30 34 H 0.6271 -4.77103 3.74777 0
M  V30 35 H -0.6339 -4.06102 2.7006 0
M  V30 36 H -1.6289 -2.88284 4.68159 0
M  V30 37 H -0.4039 -3.62421 5.74307 0
M  V30 38 H -2.4579 -5.13431 4.08319 0
M  V30 39 H -2.5409 -4.85839 5.79221 0
M  V30 40 H -1.2729 -5.85594 5.1449 0
M  V30 41 N 2.9562 -1.48159 -0.537278 0
M  V30 42 C 3.8862 -1.65029 -1.6519 0
M  V30 43 C 4.8672 -0.499281 -1.62607 0
M  V30 44 O 6.0522 -0.730972 -1.79918 0
M  V30 45 C 3.1822 -1.68303 -3.03795 0
M  V30 46 C 2.1362 -2.8283 -3.21234 0
M  V30 47 C 1.4622 -2.71189 -4.60826 0
M  V30 48 C 2.7622 -4.24211 -3.04701 0
M  V30 49 H 4.4562 -2.58341 -1.51328 0
M  V30 50 H 2.0022 -1.24325 -0.726585 0
M  V30 51 H 3.9552 -1.78693 -3.81637 0
M  V30 52 H 2.6792 -0.715635 -3.18663 0
M  V30 53 H 1.3382 -2.71983 -2.45807 0
M  V30 54 H 0.9862 -1.72435 -4.7252 0
M  V30 55 H 0.6862 -3.48035 -4.7344 0
M  V30 56 H 2.2102 -2.83537 -5.40777 0
M  V30 57 H 3.6242 -4.3593 -3.72341 0
M  V30 58 H 2.0212 -5.01998 -3.28813 0
M  V30 59 H 3.0912 -4.41184 -2.01209 0
M  V30 60 N 4.4343 0.785586 -1.36625 0
M  V30 61 C 5.3823 1.91978 -1.31329 0
M  V30 62 C 6.3763 1.68162 -0.204416 0
M  V30 63 O 7.5823 1.76122 -0.371645 0
M  V30 64 H 3.9573 0.631087 -0.408942 0
M  V30 65 H 5.9283 1.93562 -2.27104 0
M  V30 66 C 4.6773 3.29055 -1.12329 0
M  V30 67 H 4.0003 3.4795 -1.96903 0
M  V30 68 H 5.4403 4.08756 -1.12671 0
M  V30 69 C 3.8993 3.36461 0.171861 0
M  V30 70 O 4.4293 3.84576 1.16035 0
M  V30 71 N 2.6353 2.89782 0.217846 0
M  V30 72 H 2.1823 2.50819 -0.587183 0
M  V30 73 H 2.1403 2.95119 1.08408 0
M  V30 74 N 5.9124 1.20967 1.01018 0
M  V30 75 C 6.8604 0.961223 2.1181 0
M  V30 76 C 7.8544 -0.0897034 1.69162 0
M  V30 77 O 9.0604 0.0612271 1.79896 0
M  V30 78 H 5.4354 0.29355 0.692338 0
M  V30 79 H 7.4064 1.90178 2.29946 0
M  V30 80 C 6.1554 0.536854 3.4353 0
M  V30 81 H 5.4784 1.33713 3.76777 0
M  V30 82 H 6.9184 0.402286 4.22087 0
M  V30 83 C 5.3774 -0.751574 3.2841 0
M  V30 84 O 5.9074 -1.80841 3.58691 0
M  V30 85 N 4.1134 -0.716079 2.81639 0
M  V30 86 H 3.6604 0.144236 2.57196 0
M  V30 87 H 3.6184 -1.57847 2.71904 0
M  V30 88 N 7.3905 -1.2043 1.01659 0
M  V30 89 C 8.6395 -1.89118 0.701237 0
M  V30 90 C 8.9525 -1.79705 -0.772358 0
M  V30 91 O 10.1585 -2.43528 -1.20026 0
M  V30 92 C 8.6145 -3.39168 1.20388 0
M  V30 93 C 8.2225 -3.57166 2.70438 0
M  V30 94 C 9.9665 -4.1341 0.963953 0
M  V30 95 C 7.8735 -5.01042 3.14183 0
M  V30 96 H 6.8035 -0.708267 0.2586 0
M  V30 97 H 9.4545 -1.36239 1.22927 0
M  V30 98 H 7.8365 -3.91369 0.603824 0
M  V30 99 H 9.0105 -3.15351 3.35992 0
M  V30 100 H 7.3255 -2.96294 2.92572 0
M  V30 101 H 9.9225 -5.19491 1.26621 0
M  V30 102 H 10.2655 -4.16181 -0.099578 0
M  V30 103 H 10.7985 -3.67309 1.52738 0
M  V30 104 H 7.5375 -5.03426 4.19812 0
M  V30 105 H 7.0575 -5.43668 2.53348 0
M  V30 106 H 8.7365 -5.69623 3.0682 0
M  V30 107 N 8.8686 -0.792821 -1.36206 0
M  V30 108 C 10.0986 -0.378275 -2.03107 0
M  V30 109 C 10.5066 1.01119 -1.59911 0
M  V30 110 O 9.8496 1.66052 -0.785658 0
M  V30 111 C 9.9116 -0.366535 -3.57627 0
M  V30 112 C 9.5756 -1.70416 -4.24037 0
M  V30 113 C 10.5726 -2.6602 -4.46687 0
M  V30 114 C 8.2576 -1.98439 -4.6144 0
M  V30 115 C 10.2516 -3.8784 -5.05825 0
M  V30 116 C 7.9386 -3.20525 -5.20295 0
M  V30 117 C 8.9366 -4.15044 -5.42427 0
M  V30 118 O 8.6246 -5.34978 -6.00045 0
M  V30 119 H 8.3566 -0.153543 -0.658332 0
M  V30 120 H 10.9106 -1.07383 -1.75094 0
M  V30 121 H 9.1406 0.385539 -3.84773 0
M  V30 122 H 10.8296 0.0238088 -4.05893 0
M  V30 123 H 11.5956 -2.45658 -4.18183 0
M  V30 124 H 7.4746 -1.25686 -4.43536 0
M  V30 125 H 11.0186 -4.61628 -5.23015 0
M  V30 126 H 6.9156 -3.40764 -5.48225 0
M  V30 127 H 7.6836 -5.36088 -6.18508 0
M  V30 128 N 10.3467 1.47872 -0.545128 0
M  V30 129 C 11.5717 2.07391 -0.0190611 0
M  V30 130 C 11.9967 1.39688 1.25971 0
M  V30 131 O 11.3547 0.467816 1.7516 0
M  V30 132 C 11.4027 3.60188 0.172335 0
M  V30 133 O 10.5067 3.9339 1.23766 0
M  V30 134 H 9.8477 0.662411 -0.0459059 0
M  V30 135 H 12.3777 1.90066 -0.757365 0
M  V30 136 H 12.3877 4.06129 0.390305 0
M  V30 137 H 11.0627 4.08865 -0.761725 0
M  V30 138 H 9.6397 3.5921 1.00114 0
M  V30 139 N 11.8248 0.280983 1.55075 0
M  V30 140 C 13.0718 -0.334115 1.99725 0
M  V30 141 C 13.3998 -1.5542 1.1694 0
M  V30 142 O 12.6548 -1.94361 0.228531 0
M  V30 143 C 12.9538 -0.754656 3.49342 0
M  V30 144 C 12.6198 0.361445 4.49449 0
M  V30 145 C 11.2818 0.667893 4.76542 0
M  V30 146 C 13.6338 1.11322 5.09173 0
M  V30 147 C 10.9618 1.7296 5.60626 0
M  V30 148 C 13.3138 2.1647 5.9441 0
M  V30 149 C 11.9778 2.47742 6.19822 0
M  V30 150 H 11.2478 -0.122261 0.730844 0
M  V30 151 H 13.8948 0.395917 1.87363 0
M  V30 152 H 12.1998 -1.56446 3.5921 0
M  V30 153 H 13.8968 -1.24142 3.813 0
M  V30 154 H 10.4868 0.112481 4.28452 0
M  V30 155 H 14.6708 0.88973 4.8826 0
M  V30 156 H 9.9268 1.97684 5.78559 0
M  V30 157 H 14.1008 2.75193 6.3972 0
M  V30 158 H 11.7278 3.30145 6.84769 0
M  V30 159 N 13.3029 -1.57598 0.00835791 0
M  V30 160 C 14.5499 -1.90928 -0.674732 0
M  V30 161 C 14.8779 -0.88277 -1.73313 0
M  V30 162 O 14.1329 0.111294 -1.95383 0
M  V30 163 C 14.4319 -3.3101 -1.34787 0
M  V30 164 C 14.0979 -4.48922 -0.421861 0
M  V30 165 C 12.7599 -4.8091 -0.166927 0
M  V30 166 C 15.1119 -5.20755 0.215211 0
M  V30 167 C 12.4399 -5.821 0.733232 0
M  V30 168 C 14.7919 -6.22905 1.1033 0
M  V30 169 C 13.4559 -6.53346 1.36733 0
M  V30 170 H 12.7259 -0.698656 -0.246902 0
M  V30 171 H 15.3729 -1.91387 0.0656779 0
M  V30 172 H 13.6779 -3.26714 -2.16253 0
M  V30 173 H 15.3749 -3.54061 -1.8826 0
M  V30 174 H 11.9649 -4.23934 -0.630729 0
M  V30 175 H 16.1489 -4.9629 0.0312829 0
M  V30 176 H 11.4049 -6.04042 0.945712 0
M  V30 177 H 15.5789 -6.77694 1.60325 0
M  V30 178 H 13.2059 -7.31573 2.06652 0
M  V30 179 N 14.781 0.264519 -1.55364 0
M  V30 180 C 16.028 0.994986 -1.7637 0
M  V30 181 C 16.356 1.85976 -0.5695 0
M  V30 182 O 15.611 1.90509 0.44776 0
M  V30 183 C 15.91 1.9004 -3.02687 0
M  V30 184 C 15.576 1.19243 -4.34847 0
M  V30 185 C 14.238 0.996709 -4.70764 0
M  V30 186 C 16.59 0.689296 -5.16622 0
M  V30 187 C 13.918 0.285261 -5.86006 0
M  V30 188 C 16.27 -0.00860079 -6.32599 0
M  V30 189 C 14.934 -0.215963 -6.67151 0
M  V30 190 H 14.204 0.364091 -0.645383 0
M  V30 191 H 16.851 0.266543 -1.89636 0
M  V30 192 H 15.156 2.69533 -2.84357 0
M  V30 193 H 16.853 2.46695 -3.16137 0
M  V30 194 H 13.443 1.3549 -4.06621 0
M  V30 195 H 17.627 0.828108 -4.89342 0
M  V30 196 H 12.883 0.113961 -6.11294 0
M  V30 197 H 17.057 -0.406186 -6.95214 0
M  V30 198 H 14.684 -0.769217 -7.56298 0
M  V30 199 N 16.2591 1.48442 0.529413 0
M  V30 200 C 17.1891 1.65902 1.64313 0
M  V30 201 C 18.1701 0.507897 1.6234 0
M  V30 202 O 19.3551 0.740503 1.79528 0
M  V30 203 C 16.4851 1.69911 3.02898 0
M  V30 204 C 15.4391 2.8453 3.19729 0
M  V30 205 C 14.7651 2.73629 4.59381 0
M  V30 206 C 16.0651 4.25821 3.02447 0
M  V30 207 H 17.7591 2.5914 1.49955 0
M  V30 208 H 15.3051 1.24709 0.719982 0
M  V30 209 H 17.2581 1.80715 3.80684 0
M  V30 210 H 15.9821 0.732524 3.18279 0
M  V30 211 H 14.6411 2.73283 2.44361 0
M  V30 212 H 14.2891 1.74938 4.71599 0
M  V30 213 H 13.9891 3.50541 4.71588 0
M  V30 214 H 15.5131 2.86401 5.39265 0
M  V30 215 H 16.9271 4.37898 3.70024 0
M  V30 216 H 15.3241 5.03735 3.26146 0
M  V30 217 H 16.3941 4.42244 1.98867 0
M  V30 218 N 17.7372 -0.778329 1.37039 0
M  V30 219 C 18.9842 -1.53665 1.31884 0
M  V30 220 C 19.3122 -1.9425 -0.0986303 0
M  V30 221 O 18.5672 -1.63832 -1.07041 0
M  V30 222 C 18.8662 -2.81845 2.19768 0
M  V30 223 C 18.5322 -2.60345 3.68146 0
M  V30 224 C 17.1942 -2.5419 4.08584 0
M  V30 225 C 19.5462 -2.40923 4.62175 0
M  V30 226 C 16.8742 -2.26594 5.41177 0
M  V30 227 C 19.2262 -2.14852 5.94997 0
M  V30 228 C 17.8902 -2.07137 6.34547 0
M  V30 229 H 17.1602 -0.562299 0.482598 0
M  V30 230 H 19.8072 -0.897069 1.69189 0
M  V30 231 H 18.1122 -3.50328 1.75436 0
M  V30 232 H 19.8092 -3.39692 2.13097 0
M  V30 233 H 16.3992 -2.65996 3.36072 0
M  V30 234 H 20.5832 -2.44673 4.31797 0
M  V30 235 H 15.8392 -2.19111 5.70789 0
M  V30 236 H 20.0132 -1.98822 6.67415 0
M  V30 237 H 17.6402 -1.85518 7.37216 0
M  V30 238 N 19.2153 -1.21501 -1.00376 0
M  V30 239 C 20.4623 -1.03299 -1.74171 0
M  V30 240 C 20.7903 0.433326 -1.89612 0
M  V30 241 O 20.0453 1.33779 -1.42834 0
M  V30 242 C 20.3443 -1.67673 -3.15627 0
M  V30 243 C 20.0103 -3.17533 -3.2013 0
M  V30 244 C 18.6723 -3.58427 -3.21067 0
M  V30 245 C 21.0243 -4.13504 -3.17275 0
M  V30 246 C 18.3523 -4.93794 -3.16835 0
M  V30 247 C 20.7043 -5.48834 -3.14585 0
M  V30 248 C 19.3683 -5.89123 -3.13831 0
M  V30 249 H 18.6383 -0.377999 -0.637336 0
M  V30 250 H 21.2853 -1.51111 -1.17634 0
M  V30 251 H 19.5903 -1.12158 -3.75404 0
M  V30 252 H 21.2873 -1.51091 -3.71446 0
M  V30 253 H 17.8773 -2.84965 -3.20145 0
M  V30 254 H 22.0613 -3.82936 -3.15711 0
M  V30 255 H 17.3173 -5.24255 -3.1459 0
M  V30 256 H 21.4913 -6.22934 -3.1133 0
M  V30 257 H 19.1183 -6.93984 -3.10307 0
M  V30 258 N 20.6934 1.19889 -1.02296 0
M  V30 259 C 21.9394 1.89701 -0.717033 0
M  V30 260 C 22.2724 1.7905 0.751989 0
M  V30 261 O 21.5474 1.17891 1.547 0
M  V30 262 C 21.8304 3.40858 -1.16136 0
M  V30 263 C 21.6834 3.60411 -2.69117 0
M  V30 264 C 23.0024 4.33876 -0.737549 0
M  V30 265 H 20.1214 0.688874 -0.261957 0
M  V30 266 H 22.7634 1.41154 -1.27183 0
M  V30 267 H 20.9134 3.82335 -0.689342 0
M  V30 268 H 22.5854 3.28145 -3.2422 0
M  V30 269 H 20.8284 3.03665 -3.0979 0
M  V30 270 H 21.4994 4.66396 -2.95261 0
M  V30 271 H 23.9754 4.00081 -1.14344 0
M  V30 272 H 22.8514 5.38242 -1.0764 0
M  V30 273 H 23.1124 4.40628 0.360436 0
M  V30 274 N 22.1715 0.800033 1.35784 0
M  V30 275 C 23.1015 0.220184 2.3246 0
M  V30 276 C 24.0825 -0.65073 1.57161 0
M  V30 277 O 25.2675 -0.582359 1.85263 0
M  V30 278 C 22.3975 -0.637353 3.41402 0
M  V30 279 C 21.3515 0.134531 4.27789 0
M  V30 280 C 20.6775 -0.844285 5.27992 0
M  V30 281 C 21.9775 1.32979 5.05088 0
M  V30 282 H 23.6715 1.02787 2.81203 0
M  V30 283 H 21.2175 0.495717 1.35199 0
M  V30 284 H 23.1705 -1.05302 4.08031 0
M  V30 285 H 21.8945 -1.47785 2.91251 0
M  V30 286 H 20.5535 0.531296 3.6273 0
M  V30 287 H 20.2015 -1.68011 4.74111 0
M  V30 288 H 19.9015 -0.332184 5.8666 0
M  V30 289 H 21.4255 -1.2583 5.97494 0
M  V30 290 H 22.8395 0.98934 5.64699 0
M  V30 291 H 21.2365 1.77593 5.7322 0
M  V30 292 H 22.3065 2.11978 4.36111 0
M  V30 293 N 23.6496 -1.47581 0.552962 0
M  V30 294 C 24.8896 -2.04379 0.0296245 0
M  V30 295 C 25.2536 -1.4185 -1.29393 0
M  V30 296 O 26.4546 -1.89669 -1.90471 0
M  V30 297 C 24.7256 -3.57339 -0.0661371 0
M  V30 298 S 26.2846 -4.35511 -0.536213 0
M  V30 299 H 23.1026 -0.710625 0.0230991 0
M  V30 300 H 25.7046 -1.81005 0.738734 0
M  V30 301 H 24.4086 -4.00374 0.901596 0
M  V30 302 H 23.9396 -3.85202 -0.798931 0
M  V30 303 H 25.9546 -4.6253 -1.79668 0
M  V30 304 N 25.1277 -0.289203 -1.54924 0
M  V30 305 C 26.3737 0.323998 -2.00195 0
M  V30 306 C 26.7067 1.54441 -1.17735 0
M  V30 307 O 25.9817 1.92875 -0.250878 0
M  V30 308 C 26.2647 0.692276 -3.53383 0
M  V30 309 C 26.1177 -0.536457 -4.46589 0
M  V30 310 C 27.4367 1.52335 -4.12895 0
M  V30 311 H 24.5557 0.116289 -0.727768 0
M  V30 312 H 27.1977 -0.398954 -1.85764 0
M  V30 313 H 25.3477 1.30822 -3.65811 0
M  V30 314 H 27.0197 -1.17499 -4.46085 0
M  V30 315 H 25.2627 -1.17192 -4.1767 0
M  V30 316 H 25.9337 -0.234806 -5.515 0
M  V30 317 H 28.4097 1.00302 -4.0383 0
M  V30 318 H 27.2857 1.74982 -5.20262 0
M  V30 319 H 27.5467 2.50886 -3.64018 0
M  V30 320 N 26.6058 1.57591 -0.0167156 0
M  V30 321 C 27.8548 1.90461 0.663877 0
M  V30 322 C 28.1678 0.893515 1.73999 0
M  V30 323 O 29.3738 1.11302 2.47637 0
M  V30 324 C 27.8298 3.38155 1.23204 0
M  V30 325 C 27.4378 4.47597 0.189866 0
M  V30 326 C 29.1818 3.80111 1.88986 0
M  V30 327 C 27.0888 5.86379 0.768964 0
M  V30 328 H 26.0188 0.710738 0.251729 0
M  V30 329 H 28.6698 1.83326 -0.0799926 0
M  V30 330 H 27.0518 3.40182 2.02712 0
M  V30 331 H 28.2258 4.57112 -0.581846 0
M  V30 332 H 26.5408 4.14766 -0.368475 0
M  V30 333 H 29.1378 4.81145 2.33247 0
M  V30 334 H 29.4808 3.14511 2.72743 0
M  V30 335 H 30.0138 3.80454 1.16187 0
M  V30 336 H 26.7528 6.55493 -0.0301957 0
M  V30 337 H 26.2728 5.80496 1.50945 0
M  V30 338 H 27.9518 6.34563 1.26251 0
M  V30 339 N 28.0839 -0.256276 1.55502 0
M  V30 340 C 29.0159 -1.33981 1.85962 0
M  V30 341 C 30.0289 -1.44743 0.745212 0
M  V30 342 O 31.2179 -1.4626 1.02324 0
M  V30 343 C 28.3179 -2.7194 2.02242 0
M  V30 344 C 27.4909 -2.83562 3.33033 0
M  V30 345 C 26.5499 -4.02304 3.39172 0
M  V30 346 O 25.5759 -3.92273 4.12444 0
M  V30 347 N 26.7779 -5.15045 2.67784 0
M  V30 348 H 29.5429 -1.08191 2.7949 0
M  V30 349 H 27.1039 -0.446388 1.55624 0
M  V30 350 H 29.0959 -3.49697 2.03701 0
M  V30 351 H 27.6659 -2.90479 1.15502 0
M  V30 352 H 26.8859 -1.92555 3.43971 0
M  V30 353 H 28.1739 -2.88271 4.19258 0
M  V30 354 H 27.5719 -5.26085 2.07968 0
M  V30 355 H 26.1289 -5.90972 2.74947 0
M  V30 356 N 29.562 -1.4872 -0.521534 0
M  V30 357 C 30.472 -1.66569 -1.65203 0
M  V30 358 C 31.488 -0.548197 -1.65139 0
M  V30 359 O 32.664 -0.820339 -1.83936 0
M  V30 360 C 29.729 -1.70917 -3.01642 0
M  V30 361 C 28.79 -2.94356 -3.12495 0
M  V30 362 C 28.023 -2.98487 -4.42426 0
M  V30 363 O 28.246 -2.10786 -5.30024 0
M  V30 364 O 27.18 -3.90746 -4.57822 0
M  V30 365 H 31.006 -2.62298 -1.5308 0
M  V30 366 H 28.591 -1.3222 -0.695565 0
M  V30 367 H 30.473 -1.7625 -3.82771 0
M  V30 368 H 29.148 -0.783633 -3.14071 0
M  V30 369 H 28.055 -2.94552 -2.3063 0
M  V30 370 H 29.388 -3.86322 -3.04986 0
M  V30 371 N 31.0401 0.771051 -1.3745 0
M  V30 372 C 31.9881 1.90574 -1.33358 0
M  V30 373 C 32.9821 1.67936 -0.22224 0
M  V30 374 O 34.1881 1.75717 -0.390304 0
M  V30 375 H 30.5631 0.626714 -0.415612 0
M  V30 376 H 32.5341 1.91142 -2.29144 0
M  V30 377 C 31.2831 3.27845 -1.15813 0
M  V30 378 H 30.6061 3.45842 -2.00583 0
M  V30 379 H 32.0461 4.07538 -1.17 0
M  V30 380 C 30.5051 3.36625 0.136165 0
M  V30 381 O 31.0351 3.85785 1.11949 0
M  V30 382 N 29.2411 2.89997 0.187099 0
M  V30 383 H 28.7881 2.50182 -0.613753 0
M  V30 384 H 28.7461 2.96252 1.05272 0
M  V30 385 N 32.5182 1.22032 0.997298 0
M  V30 386 C 33.7642 1.04376 1.73878 0
M  V30 387 C 34.0972 -0.420716 1.89588 0
M  V30 388 O 33.3722 -1.31202 1.43583 0
M  V30 389 C 33.6552 1.75047 3.14691 0
M  V30 390 C 33.5082 3.29062 3.06656 0
M  V30 391 C 34.8272 1.49928 4.13775 0
M  V30 392 H 31.9462 0.380578 0.631133 0
M  V30 393 H 34.5882 1.50312 1.16217 0
M  V30 394 H 32.7382 1.35996 3.63919 0
M  V30 395 H 34.4102 3.7753 2.65083 0
M  V30 396 H 32.6532 3.58967 2.43568 0
M  V30 397 H 33.3242 3.73683 4.06282 0
M  V30 398 H 35.8002 1.83842 3.73285 0
M  V30 399 H 34.6762 2.01878 5.10428 0
M  V30 400 H 34.9372 0.430929 4.39995 0
M  V30 401 N 33.9963 -1.19345 1.0293 0
M  V30 402 C 35.4123 -1.41069 0.746446 0
M  V30 403 C 35.6123 -1.90078 -0.668776 0
M  V30 404 O 34.6683 -2.0778 -1.4347 0
M  V30 405 C 35.9813 -2.42141 1.78292 0
M  V30 406 C 37.5293 -2.55887 1.80252 0
M  V30 407 C 38.0043 -3.60214 2.8286 0
M  V30 408 N 39.4953 -3.67711 2.81679 0
M  V30 409 C 40.2303 -4.48128 3.57727 0
M  V30 410 N 39.7263 -5.32248 4.43491 0
M  V30 411 N 41.5193 -4.42782 3.46267 0
M  V30 412 H 33.6703 -0.858536 1.94275 0
M  V30 413 H 35.9333 -0.439541 0.839945 0
M  V30 414 H 35.6393 -2.13155 2.79746 0
M  V30 415 H 35.5133 -3.41323 1.60557 0
M  V30 416 H 37.9003 -2.84196 0.794757 0
M  V30 417 H 37.9813 -1.56858 2.02062 0
M  V30 418 H 37.6253 -3.32647 3.83807 0
M  V30 419 H 37.5553 -4.58895 2.58307 0
M  V30 420 H 40.0463 -3.07634 2.19476 0
M  V30 421 H 40.3593 -5.90729 4.98256 0
M  V30 422 H 38.7043 -5.31707 4.47564 0
M  V30 423 H 41.8953 -3.76107 2.78677 0
M  V30 424 H 42.0683 -5.05215 4.05785 0
M  V30 425 N 35.4744 -0.807222 -1.35358 0
M  V30 426 C 36.8904 -0.491038 -1.51858 0
M  V30 427 C 37.0904 0.987648 -1.75635 0
M  V30 428 O 36.1464 1.77265 -1.79815 0
M  V30 429 C 37.4594 -1.33695 -2.69344 0
M  V30 430 C 39.0074 -1.33246 -2.83222 0
M  V30 431 C 39.4824 -2.1625 -4.03733 0
M  V30 432 N 40.9734 -2.1379 -4.10911 0
M  V30 433 C 41.7084 -2.74772 -5.03277 0
M  V30 434 N 41.2044 -3.44684 -6.0097 0
M  V30 435 N 42.9974 -2.6441 -4.96028 0
M  V30 436 H 35.1484 -1.76485 -1.18181 0
M  V30 437 H 37.4114 -0.751199 -0.578276 0
M  V30 438 H 37.1174 -2.38634 -2.58354 0
M  V30 439 H 36.9914 -0.990618 -3.6396 0
M  V30 440 H 39.3784 -0.290911 -2.93663 0
M  V30 441 H 39.4594 -1.71866 -1.89461 0
M  V30 442 H 39.1034 -3.20445 -3.94052 0
M  V30 443 H 39.0334 -1.74989 -4.96675 0
M  V30 444 H 41.5244 -1.62923 -3.40976 0
M  V30 445 H 41.8374 -3.88501 -6.68047 0
M  V30 446 H 40.1824 -3.48788 -6.01142 0
M  V30 447 H 43.3734 -2.0938 -4.18662 0
M  V30 448 H 43.5464 -3.12225 -5.6782 0
M  V30 449 N 36.9525 1.47285 -0.560781 0
M  V30 450 C 38.1985 2.02764 -0.0381184 0
M  V30 451 C 38.5315 1.43384 1.30976 0
M  V30 452 O 37.8065 0.590733 1.85312 0
M  V30 453 C 38.0895 3.60064 0.0511427 0
M  V30 454 C 37.9425 4.2987 -1.32408 0
M  V30 455 C 39.2615 4.33439 0.762795 0
M  V30 456 H 36.3805 0.736841 -0.0153264 0
M  V30 457 H 39.0225 1.75675 -0.723759 0
M  V30 458 H 37.1725 3.83274 0.635065 0
M  V30 459 H 38.8445 4.17989 -1.95148 0
M  V30 460 H 37.0875 3.90085 -1.8978 0
M  V30 461 H 37.7585 5.38478 -1.21431 0
M  V30 462 H 40.2345 4.15243 0.266965 0
M  V30 463 H 39.1105 5.43124 0.794221 0
M  V30 464 H 39.3715 4.02915 1.81966 0
M  V30 465 N 38.4306 0.297415 1.54768 0
M  V30 466 C 39.3606 -0.573494 2.26348 0
M  V30 467 C 40.3416 -1.14085 1.26169 0
M  V30 468 O 41.5266 -1.17086 1.54934 0
M  V30 469 C 38.6566 -1.74716 3.00153 0
M  V30 470 C 37.6106 -1.31032 4.07449 0
M  V30 471 C 36.9366 -2.56887 4.68949 0
M  V30 472 C 38.2366 -0.444183 5.20408 0
M  V30 473 H 39.9306 0.0235131 2.99391 0
M  V30 474 H 37.4766 0.0127488 1.43994 0
M  V30 475 H 39.4296 -2.3625 3.48947 0
M  V30 476 H 38.1536 -2.37035 2.24682 0
M  V30 477 H 36.8126 -0.718066 3.59499 0
M  V30 478 H 36.4606 -3.17512 3.90122 0
M  V30 479 H 36.1606 -2.2836 5.41411 0
M  V30 480 H 37.6846 -3.19229 5.20505 0
M  V30 481 H 39.0986 -0.9651 5.65118 0
M  V30 482 H 37.4956 -0.252846 5.99567 0
M  V30 483 H 38.5656 0.531609 4.81977 0
M  V30 484 N 39.9087 -1.5758 0.0250728 0
M  V30 485 C 41.1487 -1.93497 -0.65865 0
M  V30 486 C 41.5127 -0.901409 -1.69525 0
M  V30 487 O 42.7137 -1.14664 -2.43116 0
M  V30 488 C 40.9847 -3.34352 -1.26267 0
M  V30 489 S 42.5437 -3.92191 -1.96803 0
M  V30 490 H 39.3617 -0.67709 -0.216958 0
M  V30 491 H 41.9637 -1.95303 0.0877692 0
M  V30 492 H 40.6677 -4.07395 -0.495741 0
M  V30 493 H 40.1987 -3.3598 -2.04648 0
M  V30 494 H 42.2137 -3.75298 -3.24601 0
M  V30 495 N 41.3868 0.248026 -1.55636 0
M  V30 496 C 42.6638 0.998988 -1.68165 0
M  V30 497 C 43.0438 2.03409 -0.564621 0
M  V30 498 O 42.3918 2.24378 0.432076 0
M  V30 499 C 42.6018 1.63334 -3.0842 0
M  V30 500 C 43.9498 2.13562 -3.66983 0
M  V30 501 O 44.9738 1.73277 -3.11213 0
M  V30 502 O 43.8328 2.87526 -4.64749 0
M  V30 503 H 40.9268 0.464933 -0.683935 0
M  V30 504 H 43.4728 0.241902 -1.67967 0
M  V30 505 H 42.2448 0.884583 -3.8117 0
M  V30 506 H 41.8678 2.45666 -3.12624 0
M  V30 507 N 42.8649 1.48995 0.513639 0
M  V30 508 C 44.0899 1.61792 1.29762 0
M  V30 509 C 44.5149 0.284475 1.85936 0
M  V30 510 O 43.8729 -0.746185 1.65232 0
M  V30 511 C 43.9209 2.67993 2.41272 0
M  V30 512 O 43.0249 2.26287 3.44772 0
M  V30 513 H 42.3659 0.541963 0.38363 0
M  V30 514 H 44.8959 1.95097 0.616307 0
M  V30 515 H 44.9059 2.89772 2.87221 0
M  V30 516 H 43.5809 3.64791 1.9975 0
M  V30 517 H 42.1579 2.14788 3.04829 0
M  V30 518 N 44.343 -0.763751 1.37857 0
M  V30 519 C 45.568 -1.55805 1.36893 0
M  V30 520 C 45.993 -1.88054 -0.0416135 0
M  V30 521 O 45.351 -1.49825 -1.02089 0
M  V30 522 C 45.399 -2.84012 2.22192 0
M  V30 523 O 44.503 -3.78732 1.63204 0
M  V30 524 H 43.844 -0.471638 0.46739 0
M  V30 525 H 46.374 -0.944657 1.81487 0
M  V30 526 H 46.384 -3.33037 2.35691 0
M  V30 527 H 45.059 -2.59869 3.24716 0
M  V30 528 H 43.636 -3.37402 1.58791 0
M  V30 529 N 45.8211 -1.22559 -0.990812 0
M  V30 530 C 47.0671 -1.05297 -1.73322 0
M  V30 531 C 47.4001 0.410655 -1.89808 0
M  V30 532 O 46.6751 1.30439 -1.44277 0
M  V30 533 C 46.9581 -1.76713 -3.13759 0
M  V30 534 C 46.8111 -3.30684 -3.04907 0
M  V30 535 C 48.1301 -1.52121 -4.12974 0
M  V30 536 H 45.2491 -0.38392 -0.629106 0
M  V30 537 H 47.8911 -1.50926 -1.15418 0
M  V30 538 H 46.0411 -1.37924 -3.63193 0
M  V30 539 H 47.7131 -3.7893 -2.63077 0
M  V30 540 H 45.9561 -3.60253 -2.41661 0
M  V30 541 H 46.6271 -3.75833 -4.04294 0
M  V30 542 H 49.1031 -1.85819 -3.72304 0
M  V30 543 H 47.9791 -2.04582 -5.0935 0
M  V30 544 H 48.2401 -0.454257 -4.3976 0
M  V30 545 N 47.2992 1.18797 -1.03562 0
M  V30 546 C 48.2092 2.25913 -0.632505 0
M  V30 547 C 49.2252 1.70668 0.338882 0
M  V30 548 O 50.4012 2.00453 0.195076 0
M  V30 549 C 47.4662 3.467 0.00350942 0
M  V30 550 C 46.5272 4.17098 -1.01624 0
M  V30 551 C 45.7602 5.32119 -0.410478 0
M  V30 552 O 45.9832 5.64976 0.784725 0
M  V30 553 O 44.9172 5.9107 -1.13667 0
M  V30 554 H 48.7432 2.62648 -1.52478 0
M  V30 555 H 46.3282 1.25781 -0.806195 0
M  V30 556 H 48.2102 4.19878 0.35781 0
M  V30 557 H 46.8852 3.11798 0.869686 0
M  V30 558 H 45.7922 3.4601 -1.42224 0
M  V30 559 H 47.1252 4.55987 -1.85301 0
M  V30 560 N 48.7773 0.814389 1.34928 0
M  V30 561 C 50.0253 0.397636 1.9815 0
M  V30 562 C 50.3463 -1.04069 1.64908 0
M  V30 563 O 49.6163 -1.72121 0.93548 0
M  V30 564 H 48.1963 0.144043 0.732981 0
M  V30 565 H 50.8583 1.04195 1.6471 0
M  V30 566 H 49.9543 0.509688 3.0791 0
M  V30 567 N 50.2554 -1.46986 0.568584 0
M  V30 568 C 51.5324 -1.95592 -0.0174074 0
M  V30 569 C 51.9124 -1.51124 -1.47393 0
M  V30 570 O 51.2604 -0.755329 -2.15655 0
M  V30 571 C 51.4704 -3.48719 0.139913 0
M  V30 572 C 52.8184 -4.246 0.000426376 0
M  V30 573 O 53.8424 -3.56135 0.0680316 0
M  V30 574 O 52.7014 -5.46302 -0.146988 0
M  V30 575 H 49.7954 -0.82498 -0.0577599 0
M  V30 576 H 52.3414 -1.57335 0.635909 0
M  V30 577 H 51.1134 -3.73927 1.15301 0
M  V30 578 H 50.7364 -3.93771 -0.550491 0
M  V30 579 N 51.7335 -0.305618 -1.54608 0
M  V30 580 C 52.6805 0.568421 -2.23691 0
M  V30 581 C 53.6505 1.12592 -1.22116 0
M  V30 582 O 54.8355 1.16959 -1.50749 0
M  V30 583 C 51.9755 1.7322 -2.98477 0
M  V30 584 C 51.0885 1.20566 -4.14835 0
M  V30 585 C 50.2235 2.33368 -4.77193 0
M  V30 586 C 49.2625 1.7787 -5.85686 0
M  V30 587 N 48.3995 2.84263 -6.4198 0
M  V30 588 H 53.2395 -0.0272867 -2.97988 0
M  V30 589 H 50.7765 -0.0252363 -1.47078 0
M  V30 590 H 52.7345 2.41675 -3.40072 0
M  V30 591 H 51.3645 2.29947 -2.26548 0
M  V30 592 H 50.4165 0.413223 -3.78149 0
M  V30 593 H 51.7285 0.759417 -4.92985 0
M  V30 594 H 50.8825 3.09761 -5.21664 0
M  V30 595 H 49.6215 2.8132 -3.98385 0
M  V30 596 H 48.6265 0.99968 -5.40635 0
M  V30 597 H 49.8515 1.30816 -6.66381 0
M  V30 598 H 47.7975 3.31541 -5.66053 0
M  V30 599 H 47.7145 2.44149 -7.15491 0
M  V30 600 H 48.9825 3.6054 -6.91109 0
M  V30 601 N 53.2116 1.57565 -0.0334293 0
M  V30 602 C 54.4596 1.91598 0.642999 0
M  V30 603 C 54.7806 0.910847 1.7242 0
M  V30 604 O 54.0506 -0.0469931 1.95844 0
M  V30 605 H 52.6306 0.707228 0.240496 0
M  V30 606 H 55.2926 1.94726 -0.0822488 0
M  V30 607 H 54.3886 2.92336 1.09298 0
M  V30 608 N 54.6897 -0.239769 1.55765 0
M  V30 609 C 56.1007 -0.808263 1.68297 0
M  V30 610 C 56.4517 -1.85736 0.632181 0
M  V30 611 O 55.5767 -2.15277 -0.220204 0
M  V30 612 C 56.1717 -1.47284 3.05111 0
M  V30 613 C 54.7307 -1.98895 3.19559 0
M  V30 614 C 53.8777 -0.842575 2.64189 0
M  V30 615 H 56.8287 -0.0154422 1.58692 0
M  V30 616 H 56.8497 -2.34111 2.99954 0
M  V30 617 H 56.3617 -0.709053 3.81568 0
M  V30 618 H 54.4627 -2.78132 2.47938 0
M  V30 619 H 54.5757 -2.18143 4.26556 0
M  V30 620 H 52.9397 -1.24501 2.22197 0
M  V30 621 H 53.7227 -0.0917552 3.43177 0
M  V30 622 N 56.1678 -1.49265 -0.50573 0
M  V30 623 C 57.3928 -1.62478 -1.28902 0
M  V30 624 C 57.8178 -0.294332 -1.85783 0
M  V30 625 O 57.1758 0.737412 -1.65626 0
M  V30 626 C 57.2238 -2.69268 -2.39848 0
M  V30 627 O 56.3278 -2.28113 -3.43567 0
M  V30 628 H 55.6688 -0.54399 -0.380751 0
M  V30 629 H 58.1988 -1.95421 -0.605952 0
M  V30 630 H 58.2088 -2.91291 -2.85681 0
M  V30 631 H 56.8838 -3.65846 -1.97812 0
M  V30 632 H 55.4608 -2.16401 -3.03685 0
M  V30 633 N 57.6459 0.756429 -1.3826 0
M  V30 634 C 58.9229 1.50584 -1.24835 0
M  V30 635 C 59.3029 2.10556 0.151485 0
M  V30 636 O 58.6509 1.96825 1.1607 0
M  V30 637 C 58.8609 2.57448 -2.3563 0
M  V30 638 C 60.2089 3.24429 -2.73917 0
M  V30 639 O 61.2329 2.67751 -2.34921 0
M  V30 640 O 60.0919 4.26937 -3.41156 0
M  V30 641 H 57.1859 0.667664 -0.48801 0
M  V30 642 H 59.7319 0.792083 -1.5008 0
M  V30 643 H 58.5039 2.11362 -3.29305 0
M  V30 644 H 58.1269 3.36408 -2.11933 0
M  V30 645 N 59.124 1.23083 0.984299 0
M  V30 646 C 60.401 0.9689 1.69917 0
M  V30 647 C 60.781 -0.513604 2.04757 0
M  V30 648 O 60.129 -1.48383 1.73767 0
M  V30 649 C 60.339 1.87518 2.94343 0
M  V30 650 C 61.687 2.13636 3.6694 0
M  V30 651 O 62.711 1.85036 3.04368 0
M  V30 652 O 61.57 2.62119 4.79537 0
M  V30 653 H 58.664 0.365095 0.742048 0
M  V30 654 H 61.21 1.34107 1.03987 0
M  V30 655 H 59.982 2.87756 2.65164 0
M  V30 656 H 59.605 1.50514 3.6801 0
M  V30 657 N 60.6021 -1.18246 1.0419 0
M  V30 658 C 61.8481 -1.88536 0.747122 0
M  V30 659 C 62.1811 -1.80223 -0.723409 0
M  V30 660 O 61.4561 -1.20337 -1.52804 0
M  V30 661 C 61.7391 -3.38968 1.21544 0
M  V30 662 C 61.5921 -3.56084 2.74816 0
M  V30 663 C 62.9111 -4.32648 0.806482 0
M  V30 664 H 60.0301 -0.684619 0.272883 0
M  V30 665 H 62.6721 -1.39113 1.29413 0
M  V30 666 H 60.8221 -3.8119 0.750081 0
M  V30 667 H 62.4941 -3.22946 3.29399 0
M  V30 668 H 60.7371 -2.98699 3.14582 0
M  V30 669 H 61.4081 -4.61639 3.02644 0
M  V30 670 H 63.8841 -3.98211 1.20695 0
M  V30 671 H 62.7601 -5.36462 1.1619 0
M  V30 672 H 63.0211 -4.41146 -0.29029 0
M  V30 673 N 62.0802 -0.821533 -1.34494 0
M  V30 674 C 63.3052 -0.420873 -2.03085 0
M  V30 675 C 63.7302 0.964915 -1.61465 0
M  V30 676 O 63.0882 1.62763 -0.798607 0
M  V30 677 C 63.1362 -0.529414 -3.56693 0
M  V30 678 O 62.2402 0.451302 -4.09923 0
M  V30 679 H 61.5812 -0.173489 -0.640935 0
M  V30 680 H 64.1112 -1.11157 -1.71771 0
M  V30 681 H 64.1212 -0.404671 -4.05988 0
M  V30 682 H 62.7962 -1.54014 -3.86332 0
M  V30 683 H 61.3732 0.285558 -3.71805 0
M  V30 684 N 63.5583 1.46682 -0.576371 0
M  V30 685 C 64.8353 1.95599 0.00703437 0
M  V30 686 C 65.2153 1.51904 1.46589 0
M  V30 687 O 64.5633 0.766755 2.15251 0
M  V30 688 C 64.7733 3.4864 -0.158404 0
M  V30 689 C 66.1213 4.24594 -0.0229439 0
M  V30 690 O 67.1453 3.56094 -0.0869173 0
M  V30 691 O 66.0043 5.46373 0.118015 0
M  V30 692 H 63.0983 0.825275 0.053384 0
M  V30 693 H 65.6443 1.56996 -0.644244 0
M  V30 694 H 64.4163 3.7331 -1.17282 0
M  V30 695 H 64.0393 3.94057 0.5296 0
M  V30 696 N 65.0364 0.313813 1.54444 0
M  V30 697 C 66.2614 -0.296681 2.05267 0
M  V30 698 C 66.6864 -1.45757 1.18897 0
M  V30 699 O 66.0444 -1.80239 0.195886 0
M  V30 700 C 66.0924 -0.71831 3.53373 0
M  V30 701 O 65.1964 -1.82175 3.69981 0
M  V30 702 H 64.5374 -0.0554061 0.661684 0
M  V30 703 H 67.0674 0.459387 1.99376 0
M  V30 704 H 67.0774 -1.00364 3.95463 0
M  V30 705 H 65.7524 0.130821 4.15694 0
M  V30 706 H 64.3294 -1.53598 3.39797 0
M  V30 707 N 66.5145 -1.57545 0.0417849 0
M  V30 708 C 67.7395 -1.97035 -0.647455 0
M  V30 709 C 68.1645 -0.918775 -1.64135 0
M  V30 710 O 67.5225 0.119006 -1.80909 0
M  V30 711 C 67.5705 -3.35609 -1.31905 0
M  V30 712 O 66.6745 -3.3287 -2.43457 0
M  V30 713 H 66.0155 -0.64211 -0.169086 0
M  V30 714 H 68.5455 -2.04318 0.107399 0
M  V30 715 H 68.5555 -3.72126 -1.67291 0
M  V30 716 H 67.2305 -4.11685 -0.590586 0
M  V30 717 H 65.8075 -3.08087 -2.10088 0
M  V30 718 N 67.9926 0.231505 -1.5589 0
M  V30 719 C 69.2406 0.955461 -1.78088 0
M  V30 720 C 69.5616 1.85262 -0.608533 0
M  V30 721 O 68.8316 1.92277 0.375035 0
M  V30 722 H 67.4116 0.355787 -0.656829 0
M  V30 723 H 70.0736 0.245751 -1.93344 0
M  V30 724 H 69.1696 1.56814 -2.69844 0
M  V30 725 N 69.4707 1.49531 0.497807 0
M  V30 726 C 70.3807 1.69176 1.62532 0
M  V30 727 C 71.3967 0.5744 1.64246 0
M  V30 728 O 72.5727 0.849497 1.82608 0
M  V30 729 C 69.6377 1.75695 2.98885 0
M  V30 730 C 68.6987 2.9929 3.07773 0
M  V30 731 C 67.9317 3.05488 4.37622 0
M  V30 732 O 68.1547 2.19192 5.26603 0
M  V30 733 O 67.0887 3.9798 4.51548 0
M  V30 734 H 70.9147 2.647 1.48887 0
M  V30 735 H 68.4997 1.3331 0.674441 0
M  V30 736 H 70.3817 1.82317 3.79919 0
M  V30 737 H 69.0567 0.8335 3.12785 0
M  V30 738 H 67.9637 2.98183 2.25915 0
M  V30 739 H 69.2967 3.91125 2.98801 0
M  V30 740 N 70.9488 -0.749086 1.3866 0
M  V30 741 C 71.8958 -1.86291 1.36251 0
M  V30 742 C 72.8658 -1.64578 0.224347 0
M  V30 743 O 74.0508 -1.86181 0.417279 0
M  V30 744 C 71.1908 -3.23644 1.19786 0
M  V30 745 C 70.3038 -3.57158 2.43027 0
M  V30 746 C 69.4388 -4.83838 2.19258 0
M  V30 747 C 68.4778 -5.10152 3.38247 0
M  V30 748 N 67.6148 -6.28029 3.13884 0
M  V30 749 H 72.4548 -1.87685 2.3147 0
M  V30 750 H 69.9918 -0.917287 1.14997 0
M  V30 751 H 71.9498 -4.0291 1.08254 0
M  V30 752 H 70.5798 -3.21566 0.282031 0
M  V30 753 H 69.6318 -2.72701 2.65214 0
M  V30 754 H 70.9438 -3.7253 3.31697 0
M  V30 755 H 70.0978 -5.71057 2.04888 0
M  V30 756 H 68.8368 -4.70614 1.2796 0
M  V30 757 H 67.8418 -4.21401 3.53131 0
M  V30 758 H 69.0668 -5.25271 4.30427 0
M  V30 759 H 67.0128 -6.1612 2.25238 0
M  V30 760 H 66.9298 -6.43922 3.96106 0
M  V30 761 H 68.1978 -7.18124 3.03179 0
M  V30 762 N 72.4269 -1.23603 -0.977757 0
M  V30 763 C 73.3739 -1.01954 -2.07061 0
M  V30 764 C 74.3439 0.0638697 -1.65977 0
M  V30 765 O 75.5289 -0.0887624 -1.90593 0
M  V30 766 C 72.6689 -0.619658 -3.39491 0
M  V30 767 C 71.7819 -1.77547 -3.93829 0
M  V30 768 C 70.9169 -1.32212 -5.14484 0
M  V30 769 C 69.9559 -2.44852 -5.60994 0
M  V30 770 N 69.0929 -2.00456 -6.72876 0
M  V30 771 H 73.9329 -1.95495 -2.24913 0
M  V30 772 H 71.4699 -0.973861 -1.10247 0
M  V30 773 H 73.4279 -0.368898 -4.15566 0
M  V30 774 H 72.0579 0.278752 -3.21594 0
M  V30 775 H 71.1099 -2.14016 -3.14486 0
M  V30 776 H 72.4219 -2.62219 -4.24314 0
M  V30 777 H 71.5759 -1.02965 -5.97899 0
M  V30 778 H 70.3149 -0.445808 -4.85658 0
M  V30 779 H 69.3199 -2.74871 -4.76157 0
M  V30 780 H 70.5449 -3.33024 -5.91837 0
M  V30 781 H 68.4909 -1.15208 -6.45804 0
M  V30 782 H 68.4079 -2.78687 -7.02759 0
M  V30 783 H 69.6759 -1.7432 -7.59758 0
M  V30 784 N 73.905 1.17692 -1.04816 0
M  V30 785 C 74.815 2.25229 -0.65643 0
M  V30 786 C 75.831 1.71018 0.320761 0
M  V30 787 O 77.007 2.00649 0.173805 0
M  V30 788 C 74.072 3.46684 -0.0332629 0
M  V30 789 C 73.133 4.15997 -1.06042 0
M  V30 790 C 72.366 5.31654 -0.466893 0
M  V30 791 O 72.589 5.65777 0.724758 0
M  V30 792 O 71.523 5.89831 -1.1993 0
M  V30 793 H 75.349 2.61016 -1.55255 0
M  V30 794 H 72.934 1.24919 -0.81949 0
M  V30 795 H 74.816 4.20234 0.313256 0
M  V30 796 H 73.491 3.12703 0.836566 0
M  V30 797 H 72.398 3.44482 -1.45886 0
M  V30 798 H 73.731 4.53996 -1.90127 0
M  V30 799 N 75.3831 0.828654 1.34056 0
M  V30 800 C 76.6291 0.42008 1.98402 0
M  V30 801 C 76.9621 -1.01564 1.65525 0
M  V30 802 O 76.2371 -1.70834 0.929831 0
M  V30 803 C 76.5201 0.62927 3.54559 0
M  V30 804 C 76.3731 2.11152 3.97159 0
M  V30 805 C 77.6921 0.0688756 4.40046 0
M  V30 806 H 74.8111 0.154104 0.720709 0
M  V30 807 H 77.4531 1.04228 1.5886 0
M  V30 808 H 75.6031 0.0996418 3.88372 0
M  V30 809 H 77.2751 2.70522 3.73651 0
M  V30 810 H 75.5181 2.59985 3.47261 0
M  V30 811 H 76.1891 2.20868 5.05887 0
M  V30 812 H 78.6651 0.521458 4.1282 0
M  V30 813 H 77.5411 0.245006 5.48353 0
M  V30 814 H 77.8021 -1.0266 4.30015 0
M  V30 815 N 76.8612 -1.46375 0.584142 0
M  V30 816 C 77.8082 -2.30323 -0.148286 0
M  V30 817 C 78.7782 -1.40703 -0.882713 0
M  V30 818 O 79.9632 -1.69651 -0.873099 0
M  V30 819 C 77.1032 -3.25196 -1.15507 0
M  V30 820 C 76.2162 -4.29915 -0.423943 0
M  V30 821 C 75.3512 -5.11914 -1.41838 0
M  V30 822 C 74.3902 -6.08381 -0.673736 0
M  V30 823 N 73.5272 -6.83242 -1.6163 0
M  V30 824 H 78.3672 -2.92427 0.573644 0
M  V30 825 H 75.9042 -1.44118 0.294703 0
M  V30 826 H 77.8622 -3.78646 -1.75166 0
M  V30 827 H 76.4922 -2.64898 -1.8447 0
M  V30 828 H 75.5442 -3.7931 0.287714 0
M  V30 829 H 76.8562 -4.98549 0.158128 0
M  V30 830 H 76.0102 -5.69648 -2.08773 0
M  V30 831 H 74.7492 -4.43243 -2.03438 0
M  V30 832 H 73.7542 -5.49799 0.00938483 0
M  V30 833 H 74.9792 -6.79071 -0.0631082 0
M  V30 834 H 72.9252 -6.1728 -2.22038 0
M  V30 835 H 72.8422 -7.48144 -1.08707 0
M  V30 836 H 74.1102 -7.45534 -2.27596 0
M  V30 837 N 78.3393 -0.321999 -1.54275 0
M  V30 838 C 79.7553 0.0306999 -1.5957 0
M  V30 839 C 79.9553 1.50614 -1.33857 0
M  V30 840 O 79.0113 2.2619 -1.12223 0
M  V30 841 C 80.3243 -0.386122 -2.98211 0
M  V30 842 C 81.8723 -0.336647 -3.11184 0
M  V30 843 C 82.3473 -0.728607 -4.52167 0
M  V30 844 N 83.8383 -0.681952 -4.58152 0
M  V30 845 C 84.5733 -0.957449 -5.6535 0
M  V30 846 N 84.0693 -1.3 -6.80494 0
M  V30 847 N 85.8623 -0.883113 -5.55119 0
M  V30 848 H 78.0133 -1.28332 -1.69247 0
M  V30 849 H 80.2763 -0.521716 -0.791528 0
M  V30 850 H 79.9823 -1.41404 -3.22022 0
M  V30 851 H 79.8563 0.249662 -3.76373 0
M  V30 852 H 82.2433 0.682058 -2.8711 0
M  V30 853 H 82.3243 -1.00734 -2.3513 0
M  V30 854 H 81.9683 -1.74522 -4.76974 0
M  V30 855 H 81.8983 -0.0356152 -5.26588 0
M  V30 856 H 84.3893 -0.428985 -3.75457 0
M  V30 857 H 84.7023 -1.49563 -7.58189 0
M  V30 858 H 83.0473 -1.33824 -6.81994 0
M  V30 859 H 86.2383 -0.615001 -4.64042 0
M  V30 860 H 86.4113 -1.10118 -6.38575 0
M  V30 861 N 79.8174 1.5752 -0.0501392 0
M  V30 862 C 81.0944 1.83996 0.663685 0
M  V30 863 C 81.4744 0.938339 1.89099 0
M  V30 864 O 80.8224 -0.00087759 2.285 0
M  V30 865 C 81.0324 3.33702 1.02196 0
M  V30 866 C 82.3804 4.00691 1.40469 0
M  V30 867 O 83.4044 3.38321 1.11433 0
M  V30 868 O 82.2634 5.10658 1.94654 0
M  V30 869 H 79.3574 0.759385 0.32751 0
M  V30 870 H 81.9034 1.69514 -0.0794238 0
M  V30 871 H 80.6754 3.91015 0.149364 0
M  V30 872 H 80.2984 3.53368 1.82255 0
M  V30 873 N 81.2955 -0.223234 1.56011 0
M  V30 874 C 82.7115 -0.572856 1.48965 0
M  V30 875 C 82.9115 -1.87225 0.74492 0
M  V30 876 O 81.9675 -2.50899 0.283896 0
M  V30 877 C 83.2805 -0.653646 2.9351 0
M  V30 878 C 84.8285 -0.744386 3.0402 0
M  V30 879 C 85.3035 -0.856535 4.49919 0
M  V30 880 N 86.7945 -0.9208 4.53955 0
M  V30 881 C 87.5295 -1.02726 5.64123 0
M  V30 882 N 87.0255 -1.09777 6.84047 0
M  V30 883 N 88.8185 -1.06226 5.51971 0
M  V30 884 H 80.9695 0.629462 2.02858 0
M  V30 885 H 83.2325 0.220621 0.921971 0
M  V30 886 H 82.9385 0.231518 3.50937 0
M  V30 887 H 82.8125 -1.51781 3.45315 0
M  V30 888 H 85.1995 -1.61999 2.46658 0
M  V30 889 H 85.2805 0.14541 2.55386 0
M  V30 890 H 84.9245 0.0146069 5.07898 0
M  V30 891 H 84.8545 -1.76172 4.96257 0
M  V30 892 H 87.3455 -0.876694 3.6759 0
M  V30 893 H 87.6585 -1.17872 7.63758 0
M  V30 894 H 86.0035 -1.06693 6.86762 0
M  V30 895 H 89.1945 -1.00382 4.5721 0
M  V30 896 H 89.3675 -1.14177 6.37862 0
M  V30 897 N 82.7736 -1.49793 -0.48987 0
M  V30 898 C 84.0506 -1.50348 -1.25119 0
M  V30 899 C 84.4306 -0.237466 -2.0976 0
M  V30 900 O 83.7786 0.77981 -2.14782 0
M  V30 901 C 83.9886 -2.78872 -2.09837 0
M  V30 902 C 85.3366 -3.288 -2.68655 0
M  V30 903 O 86.3606 -2.80065 -2.20096 0
M  V30 904 O 85.2196 -4.13707 -3.57083 0
M  V30 905 H 82.3136 -0.602242 -0.566775 0
M  V30 906 H 84.8596 -1.62067 -0.503229 0
M  V30 907 H 83.6316 -3.62499 -1.47343 0
M  V30 908 H 83.2546 -2.70066 -2.91805 0
M  V30 909 N 84.2517 0.741722 -1.39055 0
M  V30 910 C 85.4797 1.53098 -1.39171 0
M  V30 911 C 85.8947 1.88794 0.0155099 0
M  V30 912 O 85.2517 1.53626 0.985159 0
M  V30 913 C 85.3027 2.82274 -2.2584 0
M  V30 914 O 85.0237 2.48097 -3.61081 0
M  V30 915 C 86.5247 3.76343 -2.34266 0
M  V30 916 H 83.7447 0.473335 -0.4756 0
M  V30 917 H 86.2887 0.917045 -1.82785 0
M  V30 918 H 84.4437 3.40015 -1.85656 0
M  V30 919 H 84.8577 3.31029 -4.06842 0
M  V30 920 H 86.3317 4.63898 -2.9917 0
M  V30 921 H 86.8087 4.17619 -1.35982 0
M  V30 922 H 87.4147 3.24523 -2.74891 0
M  V30 923 N 85.7298 1.2412 0.971189 0
M  V30 924 C 86.6598 1.05508 2.08304 0
M  V30 925 C 87.6408 -0.0308864 1.70072 0
M  V30 926 O 88.8258 0.135521 1.93727 0
M  V30 927 C 85.9558 0.655365 3.4106 0
M  V30 928 C 84.9098 1.68971 3.93234 0
M  V30 929 C 84.2358 1.14516 5.22293 0
M  V30 930 C 85.5358 3.08487 4.21465 0
M  V30 931 H 87.2298 1.98507 2.24132 0
M  V30 932 H 84.7758 0.955821 1.07704 0
M  V30 933 H 86.7288 0.51217 4.18276 0
M  V30 934 H 85.4528 -0.31032 3.25122 0
M  V30 935 H 84.1118 1.82106 3.18171 0
M  V30 936 H 83.7598 0.170189 5.02712 0
M  V30 937 H 83.4598 1.83635 5.58168 0
M  V30 938 H 84.9838 1.01401 6.02121 0
M  V30 939 H 86.3978 2.98601 4.89398 0
M  V30 940 H 84.7948 3.74926 4.68562 0
M  V30 941 H 85.8648 3.56787 3.28376 0
M  V30 942 N 87.2079 -1.17134 1.05439 0
M  V30 943 C 88.1179 -2.24878 0.668365 0
M  V30 944 C 89.1339 -1.71186 -0.311687 0
M  V30 945 O 90.3099 -2.00738 -0.163161 0
M  V30 946 C 87.3749 -3.46662 0.051648 0
M  V30 947 C 86.4359 -4.15429 1.08246 0
M  V30 948 C 85.6689 -5.31399 0.495082 0
M  V30 949 O 85.8919 -5.66153 -0.694743 0
M  V30 950 O 84.8259 -5.89187 1.23056 0
M  V30 951 H 88.6519 -2.60189 1.56637 0
M  V30 952 H 86.2369 -1.24482 0.826104 0
M  V30 953 H 88.1189 -4.20394 -0.290966 0
M  V30 954 H 86.7939 -3.13142 -0.819971 0
M  V30 955 H 85.7009 -3.43704 1.47711 0
M  V30 956 H 87.0339 -4.52982 1.92532 0
M  V30 957 N 88.686 -0.835752 -1.33615 0
M  V30 958 C 89.596 -0.269088 -2.33052 0
M  V30 959 C 90.612 0.603251 -1.63208 0
M  V30 960 O 91.788 0.508112 -1.94885 0
M  V30 961 C 88.853 0.549091 -3.42324 0
M  V30 962 C 87.914 -0.347156 -4.27894 0
M  V30 963 C 87.147 0.43207 -5.31948 0
M  V30 964 O 87.37 1.66409 -5.45586 0
M  V30 965 O 86.304 -0.192298 -6.01593 0
M  V30 966 H 90.13 -1.09243 -2.83372 0
M  V30 967 H 87.715 -0.598198 -1.36901 0
M  V30 968 H 89.597 1.01414 -4.09015 0
M  V30 969 H 88.272 1.34955 -2.94226 0
M  V30 970 H 87.179 -0.859979 -3.64081 0
M  V30 971 H 88.512 -1.1123 -4.79467 0
M  V30 972 N 90.1641 1.46063 -0.591896 0
M  V30 973 C 91.4131 2.01547 -0.0786637 0
M  V30 974 C 91.7261 1.46796 1.29268 0
M  V30 975 O 92.9321 1.94157 1.89777 0
M  V30 976 C 91.3881 3.59787 -0.0900024 0
M  V30 977 C 90.9961 4.23534 -1.46023 0
M  V30 978 C 92.7401 4.22895 0.368806 0
M  V30 979 C 90.6471 5.73881 -1.4288 0
M  V30 980 H 89.5771 0.753564 -0.0256388 0
M  V30 981 H 92.2281 1.677 -0.744905 0
M  V30 982 H 90.6101 3.90752 0.642586 0
M  V30 983 H 91.7841 4.04167 -2.21328 0
M  V30 984 H 90.0991 3.72558 -1.85982 0
M  V30 985 H 92.6961 5.33116 0.411258 0
M  V30 986 H 93.0391 3.9247 1.38827 0
M  V30 987 H 93.5721 3.9659 -0.31001 0
M  V30 988 H 90.3111 6.0898 -2.42536 0
M  V30 989 H 89.8311 5.95486 -0.718095 0
M  V30 990 H 91.5101 6.36776 -1.14565 0
M  V30 991 N 91.6422 0.330177 1.54103 0
M  V30 992 C 92.5522 -0.541534 2.28264 0
M  V30 993 C 93.5682 -1.12351 1.32866 0
M  V30 994 O 94.7442 -1.14206 1.65888 0
M  V30 995 C 91.8092 -1.68322 3.03098 0
M  V30 996 C 90.8702 -1.13238 4.14096 0
M  V30 997 C 90.1032 -2.21966 4.85352 0
M  V30 998 O 90.3262 -3.42437 4.56172 0
M  V30 999 O 89.2602 -1.87013 5.7211 0
M  V30 1000 H 93.0862 0.060938 3.03639 0
M  V30 1001 H 90.6712 0.09565 1.49093 0
M  V30 1002 H 92.5532 -2.34777 3.49939 0
M  V30 1003 H 91.2282 -2.27176 2.30593 0
M  V30 1004 H 90.1352 -0.432736 3.71589 0
M  V30 1005 H 91.4682 -0.588898 4.88664 0
M  V30 1006 N 93.1203 -1.57491 0.0584922 0
M  V30 1007 C 94.0303 -2.15448 -0.928414 0
M  V30 1008 C 95.0463 -1.11416 -1.3365 0
M  V30 1009 O 96.2223 -1.4362 -1.41193 0
M  V30 1010 C 93.2873 -2.69393 -2.18239 0
M  V30 1011 C 92.3483 -3.88249 -1.83196 0
M  V30 1012 C 91.5813 -4.39613 -3.02616 0
M  V30 1013 O 91.8043 -3.90023 -4.16219 0
M  V30 1014 O 90.7383 -5.31111 -2.83204 0
M  V30 1015 H 94.5643 -3.00112 -0.465483 0
M  V30 1016 H 92.1493 -1.48499 -0.163826 0
M  V30 1017 H 94.0313 -3.04026 -2.91798 0
M  V30 1018 H 92.7063 -1.87796 -2.63656 0
M  V30 1019 H 91.6133 -3.58492 -1.06931 0
M  V30 1020 H 92.9463 -4.71098 -1.42573 0
M  V30 1021 N 94.5984 0.214957 -1.56127 0
M  V30 1022 C 95.8464 0.936518 -1.79091 0
M  V30 1023 C 96.1674 1.84606 -0.628148 0
M  V30 1024 O 95.4374 1.92664 0.35462 0
M  V30 1025 H 94.0174 0.3488 -0.660566 0
M  V30 1026 H 96.6794 0.22523 -1.93594 0
M  V30 1027 H 95.7754 1.53943 -2.71492 0
M  V30 1028 N 96.0765 1.50051 0.48192 0
M  V30 1029 C 96.9865 1.7089 1.60728 0
M  V30 1030 C 98.0025 0.591788 1.63627 0
M  V30 1031 O 99.1785 0.868817 1.81696 0
M  V30 1032 C 96.2435 1.78855 2.97005 0
M  V30 1033 C 95.3045 3.02537 3.04581 0
M  V30 1034 C 94.5375 3.10112 4.34357 0
M  V30 1035 O 94.7605 2.24765 5.24249 0
M  V30 1036 O 93.6945 4.02747 4.47301 0
M  V30 1037 H 97.5205 2.66264 1.46072 0
M  V30 1038 H 95.1055 1.34018 0.660264 0
M  V30 1039 H 96.9875 1.86336 3.77964 0
M  V30 1040 H 95.6625 0.866628 3.11883 0
M  V30 1041 H 94.5695 3.00563 2.22739 0
M  V30 1042 H 95.9025 3.94272 2.94636 0
M  V30 1043 N 97.5546 -0.734337 1.39446 0
M  V30 1044 C 98.5016 -1.84835 1.38219 0
M  V30 1045 C 99.4716 -1.64331 0.24179 0
M  V30 1046 O 100.657 -1.85728 0.437002 0
M  V30 1047 C 97.7966 -3.22355 1.23212 0
M  V30 1048 C 96.9096 -3.5456 2.46801 0
M  V30 1049 C 96.0446 -4.81485 2.24377 0
M  V30 1050 C 95.0836 -5.06536 3.43639 0
M  V30 1051 N 94.2206 -6.24665 3.20528 0
M  V30 1052 H 99.0606 -1.85219 2.33448 0
M  V30 1053 H 96.5976 -0.905039 1.15963 0
M  V30 1054 H 98.5556 -4.0174 1.12522 0
M  V30 1055 H 97.1856 -3.21248 0.316121 0
M  V30 1056 H 96.2376 -2.69872 2.68092 0
M  V30 1057 H 97.5496 -3.6899 3.3563 0
M  V30 1058 H 96.7036 -5.68852 2.10933 0
M  V30 1059 H 95.4426 -4.6923 1.32944 0
M  V30 1060 H 94.4476 -4.17632 3.5758 0
M  V30 1061 H 95.6726 -5.20676 4.35974 0
M  V30 1062 H 93.6186 -6.13696 2.3176 0
M  V30 1063 H 93.5356 -6.39685 4.02913 0
M  V30 1064 H 94.8036 -7.14868 3.10779 0
M  V30 1065 N 99.0327 -1.24633 -0.964593 0
M  V30 1066 C 100.444 -1.08045 -1.5226 0
M  V30 1067 C 100.795 0.347116 -1.93105 0
M  V30 1068 O 99.9197 1.23588 -1.77637 0
M  V30 1069 C 100.515 -1.95514 -2.76695 0
M  V30 1070 C 99.0737 -1.8314 -3.28841 0
M  V30 1071 C 98.2207 -1.90262 -2.01732 0
M  V30 1072 H 101.172 -1.38064 -0.782553 0
M  V30 1073 H 101.193 -1.48925 -3.50145 0
M  V30 1074 H 100.705 -2.99407 -2.46936 0
M  V30 1075 H 98.8057 -0.82092 -3.63444 0
M  V30 1076 H 98.9187 -2.67406 -3.97531 0
M  V30 1077 H 97.2827 -1.34027 -2.16584 0
M  V30 1078 H 98.0657 -2.9574 -1.74334 0
M  V30 1079 N 100.511 1.16574 -1.06058 0
M  V30 1080 C 101.739 1.90952 -0.796552 0
M  V30 1081 C 102.154 1.77302 0.648808 0
M  V30 1082 O 101.511 1.11605 1.44397 0
M  V30 1083 C 101.562 3.41736 -1.17894 0
M  V30 1084 O 101.283 3.54975 -2.56758 0
M  V30 1085 C 102.784 4.33169 -0.942308 0
M  V30 1086 H 100.004 0.605594 -0.288959 0
M  V30 1087 H 102.548 1.47777 -1.41358 0
M  V30 1088 H 100.703 3.82623 -0.606491 0
M  V30 1089 H 101.117 4.4846 -2.72 0
M  V30 1090 H 102.591 5.37439 -1.25952 0
M  V30 1091 H 103.068 4.3903 0.122078 0
M  V30 1092 H 103.674 3.98007 -1.49902 0
M  V30 1093 N 101.989 0.842826 1.3317 0
M  V30 1094 C 102.899 0.281444 2.32906 0
M  V30 1095 C 103.915 -0.594587 1.63526 0
M  V30 1096 O 105.091 -0.49777 1.95152 0
M  V30 1097 C 102.156 -0.530929 3.42611 0
M  V30 1098 C 101.217 0.369843 4.27704 0
M  V30 1099 C 100.45 -0.403853 5.3217 0
M  V30 1100 O 100.673 -1.63513 5.46461 0
M  V30 1101 O 99.6069 0.224199 6.01482 0
M  V30 1102 H 103.433 1.10744 2.82789 0
M  V30 1103 H 101.018 0.60545 1.36582 0
M  V30 1104 H 102.9 -0.992437 4.09547 0
M  V30 1105 H 101.575 -1.33392 2.94938 0
M  V30 1106 H 100.482 0.879275 3.6362 0
M  V30 1107 H 101.815 1.13771 4.78871 0
M  V30 1108 N 103.467 -1.45747 0.599634 0
M  V30 1109 C 104.692 -2.07178 0.0960198 0
M  V30 1110 C 105.117 -1.44268 -1.207 0
M  V30 1111 O 104.475 -0.532503 -1.73303 0
M  V30 1112 C 104.523 -3.60579 -0.0385348 0
M  V30 1113 O 103.627 -3.97713 -1.0908 0
M  V30 1114 H 102.968 -0.660251 0.0704593 0
M  V30 1115 H 105.498 -1.87124 0.827385 0
M  V30 1116 H 105.508 -4.07298 -0.239304 0
M  V30 1117 H 104.183 -4.05756 0.912947 0
M  V30 1118 H 102.76 -3.62678 -0.867135 0
M  V30 1119 N 104.945 -0.338344 -1.53925 0
M  V30 1120 C 105.878 0.563758 -2.21127 0
M  V30 1121 C 106.856 1.10433 -1.19345 0
M  V30 1122 O 108.04 1.16557 -1.48144 0
M  V30 1123 C 105.167 1.77505 -2.88461 0
M  V30 1124 C 104.213 1.3644 -4.04087 0
M  V30 1125 S 105.046 0.388593 -5.34088 0
M  V30 1126 C 106.202 1.60683 -6.04923 0
M  V30 1127 H 106.435 -0.00704546 -2.97299 0
M  V30 1128 H 103.968 -0.122418 -1.53914 0
M  V30 1129 H 105.926 2.46999 -3.27875 0
M  V30 1130 H 104.587 2.31706 -2.12064 0
M  V30 1131 H 103.78 2.26739 -4.50117 0
M  V30 1132 H 103.382 0.748998 -3.66423 0
M  V30 1133 H 105.674 2.54209 -6.28 0
M  V30 1134 H 106.617 1.18842 -6.98056 0
M  V30 1135 H 107.025 1.80052 -5.35015 0
M  V30 1136 N 106.423 1.57458 -0.0668435 0
M  V30 1137 C 107.333 2.15937 0.916975 0
M  V30 1138 C 108.349 1.12123 1.33058 0
M  V30 1139 O 109.525 1.44366 1.40429 0
M  V30 1140 C 106.59 2.70547 2.16807 0
M  V30 1141 C 105.651 3.89215 1.81135 0
M  V30 1142 C 104.884 4.41211 3.0028 0
M  V30 1143 O 105.107 3.92225 4.14144 0
M  V30 1144 O 104.041 5.32605 2.80384 0
M  V30 1145 H 107.867 3.00354 0.449561 0
M  V30 1146 H 105.452 1.48584 0.155949 0
M  V30 1147 H 107.334 3.0557 2.90181 0
M  V30 1148 H 106.009 1.89192 2.62656 0
M  V30 1149 H 104.916 3.59054 1.05028 0
M  V30 1150 H 106.249 4.71848 1.40073 0
M  V30 1151 N 107.901 -0.206675 1.56239 0
M  V30 1152 C 109.126 -0.949474 1.8439 0
M  V30 1153 C 109.551 -1.76549 0.649016 0
M  V30 1154 O 108.909 -1.76782 -0.402231 0
M  V30 1155 C 108.957 -1.83078 3.10668 0
M  V30 1156 O 108.061 -2.9281 2.90407 0
M  V30 1157 H 107.402 -0.268033 0.607499 0
M  V30 1158 H 109.932 -0.215488 2.03462 0
M  V30 1159 H 109.942 -2.2377 3.41161 0
M  V30 1160 H 108.617 -1.23112 3.97261 0
M  V30 1161 H 107.194 -2.55956 2.71184 0
M  V30 1162 N 109.379 -1.50304 -0.473955 0
M  V30 1163 C 110.329 -1.65347 -1.56985 0
M  V30 1164 C 111.313 -0.508176 -1.52664 0
M  V30 1165 O 112.505 -0.762446 -1.59737 0
M  V30 1166 C 109.634 -1.74832 -2.95447 0
M  V30 1167 C 108.72 -2.95028 -3.04662 0
M  V30 1168 N 109.111 -4.18747 -2.83698 0
M  V30 1169 C 107.409 -2.93527 -3.35795 0
M  V30 1170 C 108.11 -4.99687 -2.97805 0
M  V30 1171 N 107.086 -4.33585 -3.2788 0
M  V30 1172 H 110.888 -2.58698 -1.39472 0
M  V30 1173 H 108.402 -1.47449 -0.680629 0
M  V30 1174 H 110.399 -1.83712 -3.7424 0
M  V30 1175 H 109.059 -0.826376 -3.14008 0
M  V30 1176 H 110.07 -4.48291 -2.59337 0
M  V30 1177 H 106.747 -2.10821 -3.60362 0
M  V30 1178 H 108.137 -6.08057 -2.85861 0
M  V30 1179 N 110.857 0.726932 -1.39834 0
M  V30 1180 C 111.789 1.85147 -1.35104 0
M  V30 1181 C 112.802 1.60736 -0.258392 0
M  V30 1182 O 113.991 1.70821 -0.517931 0
M  V30 1183 C 111.091 3.21332 -1.07697 0
M  V30 1184 C 110.264 3.73033 -2.28396 0
M  V30 1185 C 109.323 4.87802 -1.97322 0
M  V30 1186 O 108.349 5.01043 -2.70083 0
M  V30 1187 N 109.551 5.72768 -0.944273 0
M  V30 1188 H 112.316 1.89706 -2.32017 0
M  V30 1189 H 109.877 0.908006 -1.3404 0
M  V30 1190 H 111.869 3.95691 -0.849144 0
M  V30 1191 H 110.439 3.11992 -0.194909 0
M  V30 1192 H 109.659 2.89934 -2.6708 0
M  V30 1193 H 110.947 4.0431 -3.08887 0
M  V30 1194 H 110.345 5.64669 -0.341427 0
M  V30 1195 H 108.902 6.4716 -0.776346 0
M  V30 1196 N 112.336 1.25143 0.95797 0
M  V30 1197 C 113.566 1.12261 1.73439 0
M  V30 1198 C 113.974 -0.326715 1.86358 0
M  V30 1199 O 113.317 -1.2367 1.35836 0
M  V30 1200 C 113.379 1.69966 3.16784 0
M  V30 1201 C 113.043 3.18936 3.27305 0
M  V30 1202 C 114.04 4.15968 3.11877 0
M  V30 1203 C 111.725 3.59083 3.51234 0
M  V30 1204 C 113.719 5.51126 3.20217 0
M  V30 1205 C 111.406 4.9438 3.5921 0
M  V30 1206 C 112.404 5.90211 3.43716 0
M  V30 1207 O 112.092 7.23046 3.51368 0
M  V30 1208 H 111.824 0.392476 0.550399 0
M  V30 1209 H 114.378 1.65927 1.21068 0
M  V30 1210 H 112.608 1.10744 3.70503 0
M  V30 1211 H 114.297 1.52232 3.76272 0
M  V30 1212 H 115.063 3.86292 2.93264 0
M  V30 1213 H 110.942 2.84989 3.62356 0
M  V30 1214 H 114.486 6.25905 3.0804 0
M  V30 1215 H 110.383 5.23723 3.77339 0
M  V30 1216 H 111.151 7.31097 3.6802 0
M  V30 1217 N 113.814 -1.1601 1.06675 0
M  V30 1218 C 114.746 -2.20115 0.638921 0
M  V30 1219 C 115.759 -1.59916 -0.305057 0
M  V30 1220 O 116.948 -1.78245 -0.0954446 0
M  V30 1221 C 114.048 -3.38798 -0.0830083 0
M  V30 1222 C 113.221 -4.2855 0.875426 0
M  V30 1223 C 112.28 -5.25849 0.192042 0
M  V30 1224 O 111.306 -5.63102 0.830921 0
M  V30 1225 N 112.508 -5.70648 -1.06493 0
M  V30 1226 H 115.273 -2.57439 1.53444 0
M  V30 1227 H 112.834 -1.31057 0.950557 0
M  V30 1228 H 114.826 -4.00936 -0.550685 0
M  V30 1229 H 113.396 -2.99947 -0.880386 0
M  V30 1230 H 112.616 -3.63617 1.52238 0
M  V30 1231 H 113.904 -4.85393 1.52548 0
M  V30 1232 H 113.302 -5.42482 -1.60405 0
M  V30 1233 H 111.859 -6.34859 -1.47641 0
M  V30 1234 N 115.292 -0.849877 -1.32721 0
M  V30 1235 C 116.52 -0.464754 -2.01613 0
M  V30 1236 C 116.935 0.937191 -1.63897 0
M  V30 1237 O 116.292 1.61081 -0.857856 0
M  V30 1238 C 116.343 -0.588638 -3.56675 0
M  V30 1239 O 116.064 -1.93535 -3.93034 0
M  V30 1240 C 117.565 -0.2019 -4.4284 0
M  V30 1241 H 114.785 -0.183215 -0.645502 0
M  V30 1242 H 117.329 -1.1455 -1.69407 0
M  V30 1243 H 115.484 0.0443159 -3.87375 0
M  V30 1244 H 115.898 -1.92871 -4.87751 0
M  V30 1245 H 117.372 -0.339599 -5.50954 0
M  V30 1246 H 117.849 0.857224 -4.30753 0
M  V30 1247 H 118.455 -0.809733 -4.17521 0
M  V30 1248 N 116.77 1.45427 -0.607355 0
M  V30 1249 C 117.68 2.34325 0.113463 0
M  V30 1250 C 118.696 1.51226 0.860617 0
M  V30 1251 O 119.872 1.84029 0.818255 0
M  V30 1252 C 116.937 3.28839 1.09844 0
M  V30 1253 C 115.998 4.27844 0.353271 0
M  V30 1254 C 115.231 5.17842 1.29133 0
M  V30 1255 O 115.454 5.11264 2.52913 0
M  V30 1256 O 114.388 5.96713 0.788523 0
M  V30 1257 H 118.214 2.97364 -0.617094 0
M  V30 1258 H 115.799 1.44807 -0.367619 0
M  V30 1259 H 117.681 3.8708 1.66575 0
M  V30 1260 H 116.356 2.68365 1.81003 0
M  V30 1261 H 115.263 3.7322 -0.256494 0
M  V30 1262 H 116.596 4.91173 -0.317822 0
M  V30 1263 N 118.248 0.346503 1.53744 0
M  V30 1264 C 119.494 -0.249473 2.0126 0
M  V30 1265 C 119.827 -1.49965 1.23386 0
M  V30 1266 O 119.102 -1.91811 0.32229 0
M  V30 1267 C 119.385 -0.560643 3.55709 0
M  V30 1268 C 119.238 0.701836 4.44291 0
M  V30 1269 C 120.557 -1.36905 4.18264 0
M  V30 1270 H 117.676 -0.0891987 0.731582 0
M  V30 1271 H 120.318 0.467624 1.84156 0
M  V30 1272 H 118.468 -1.17156 3.70414 0
M  V30 1273 H 120.14 1.33974 4.41417 0
M  V30 1274 H 118.383 1.32612 4.13033 0
M  V30 1275 H 119.054 0.43933 5.50249 0
M  V30 1276 H 121.53 -0.852448 4.07275 0
M  V30 1277 H 120.406 -1.55553 5.26398 0
M  V30 1278 H 120.667 -2.37203 3.73078 0
M  V30 1279 N 119.726 -1.57421 0.075193 0
M  V30 1280 C 120.954 -1.97946 -0.602076 0
M  V30 1281 C 121.369 -0.953674 -1.62943 0
M  V30 1282 O 120.726 0.0592551 -1.82404 0
M  V30 1283 C 120.777 -3.38546 -1.26762 0
M  V30 1284 O 120.498 -4.37195 -0.281376 0
M  V30 1285 C 121.999 -3.93966 -2.03239 0
M  V30 1286 H 119.219 -0.650918 -0.162931 0
M  V30 1287 H 121.763 -2.03959 0.148601 0
M  V30 1288 H 119.918 -3.33609 -1.96936 0
M  V30 1289 H 120.332 -5.18975 -0.759267 0
M  V30 1290 H 121.806 -4.94555 -2.45193 0
M  V30 1291 H 122.283 -3.30693 -2.8903 0
M  V30 1292 H 122.889 -4.02315 -1.37924 0
M  V30 1293 N 121.204 0.198386 -1.56346 0
M  V30 1294 C 122.62 0.549085 -1.49857 0
M  V30 1295 C 122.82 1.86016 -0.774611 0
M  V30 1296 O 121.876 2.50416 -0.323776 0
M  V30 1297 C 123.189 0.606868 -2.94512 0
M  V30 1298 C 124.737 0.695925 -3.05165 0
M  V30 1299 C 125.212 0.784848 -4.51225 0
M  V30 1300 N 126.703 0.848463 -4.55363 0
M  V30 1301 C 127.438 0.937378 -5.65686 0
M  V30 1302 N 126.934 0.9888 -6.85707 0
M  V30 1303 N 128.727 0.974312 -5.53592 0
M  V30 1304 H 120.878 -0.661655 -2.01831 0
M  V30 1305 H 123.141 -0.235261 -0.918344 0
M  V30 1306 H 122.847 -0.28732 -3.50524 0
M  V30 1307 H 122.721 1.46268 -3.47686 0
M  V30 1308 H 125.108 1.58055 -2.49204 0
M  V30 1309 H 125.189 -0.186022 -2.55123 0
M  V30 1310 H 124.833 -0.0954072 -5.0781 0
M  V30 1311 H 124.763 1.68255 -4.98997 0
M  V30 1312 H 127.254 0.818103 -3.68938 0
M  V30 1313 H 127.567 1.05707 -7.65536 0
M  V30 1314 H 125.912 0.957534 -6.88372 0
M  V30 1315 H 129.103 0.930954 -4.58749 0
M  V30 1316 H 129.276 1.04015 -6.39597 0
M  V30 1317 N 122.682 1.50554 0.465978 0
M  V30 1318 C 123.612 1.72722 1.57128 0
M  V30 1319 C 124.593 0.576294 1.6004 0
M  V30 1320 O 125.778 0.81598 1.76225 0
M  V30 1321 C 122.908 1.82605 2.95419 0
M  V30 1322 C 121.862 2.97835 3.07373 0
M  V30 1323 C 121.188 2.92867 4.47363 0
M  V30 1324 C 122.488 4.38265 2.84114 0
M  V30 1325 H 124.182 2.65267 1.38829 0
M  V30 1326 H 121.728 1.2765 0.666441 0
M  V30 1327 H 123.681 1.96698 3.72677 0
M  V30 1328 H 122.405 0.866858 3.14886 0
M  V30 1329 H 121.064 2.83401 2.3255 0
M  V30 1330 H 120.712 1.94783 4.63755 0
M  V30 1331 H 120.412 3.70227 4.56296 0
M  V30 1332 H 121.936 3.09015 5.26633 0
M  V30 1333 H 123.35 4.53198 3.51118 0
M  V30 1334 H 121.747 5.17115 3.04487 0
M  V30 1335 H 122.817 4.50281 1.7993 0
M  V30 1336 N 124.16 -0.719506 1.40217 0
M  V30 1337 C 125.093 -1.84298 1.34571 0
M  V30 1338 C 126.071 -1.61149 0.216741 0
M  V30 1339 O 127.255 -1.84212 0.399756 0
M  V30 1340 C 124.382 -3.20568 1.09335 0
M  V30 1341 C 123.428 -3.62551 2.24631 0
M  V30 1342 S 124.261 -3.7012 3.87004 0
M  V30 1343 C 125.417 -5.09154 3.64024 0
M  V30 1344 H 125.65 -1.88807 2.2965 0
M  V30 1345 H 123.183 -0.885901 1.26456 0
M  V30 1346 H 125.141 -3.99246 0.954602 0
M  V30 1347 H 123.802 -3.13696 0.159164 0
M  V30 1348 H 122.995 -4.61483 2.02606 0
M  V30 1349 H 122.597 -2.91119 2.34789 0
M  V30 1350 H 124.889 -5.95955 3.22248 0
M  V30 1351 H 125.832 -5.36213 4.62473 0
M  V30 1352 H 126.24 -4.79562 2.97793 0
M  V30 1353 N 125.638 -1.25649 -0.95132 0
M  V30 1354 C 126.915 -1.01361 -1.67288 0
M  V30 1355 C 127.295 0.459135 -2.06046 0
M  V30 1356 O 126.643 1.43723 -1.7764 0
M  V30 1357 C 126.853 -1.95256 -2.89268 0
M  V30 1358 C 128.201 -2.23289 -3.61147 0
M  V30 1359 O 129.225 -1.93041 -2.99355 0
M  V30 1360 O 128.084 -2.74741 -4.72419 0
M  V30 1361 H 125.178 -0.38464 -0.732107 0
M  V30 1362 H 127.724 -1.36817 -1.00395 0
M  V30 1363 H 126.496 -2.94685 -2.57442 0
M  V30 1364 H 126.119 -1.60218 -3.6389 0
M  V30 1365 N 127.117 1.15442 -1.07289 0
M  V30 1366 C 128.366 1.85557 -0.790669 0
M  V30 1367 C 128.679 1.83186 0.685739 0
M  V30 1368 O 129.885 2.48977 1.0827 0
M  V30 1369 C 128.341 3.33038 -1.36433 0
M  V30 1370 C 127.949 3.43856 -2.8717 0
M  V30 1371 C 129.693 4.0834 -1.1601 0
M  V30 1372 C 127.6 4.85482 -3.3773 0
M  V30 1373 H 126.53 0.695122 -0.292098 0
M  V30 1374 H 129.181 1.30219 -1.29287 0
M  V30 1375 H 127.563 3.88043 -0.789864 0
M  V30 1376 H 128.737 2.98961 -3.50655 0
M  V30 1377 H 127.052 2.81998 -3.06376 0
M  V30 1378 H 129.649 5.12859 -1.51262 0
M  V30 1379 H 129.992 4.16182 -0.0991007 0
M  V30 1380 H 130.525 3.59603 -1.70089 0
M  V30 1381 H 127.264 4.82823 -4.43353 0
M  V30 1382 H 126.784 5.30961 -2.78999 0
M  V30 1383 H 128.463 5.54335 -3.33648 0
M  V30 1384 N 128.595 0.856903 1.32268 0
M  V30 1385 C 129.844 0.457599 1.96441 0
M  V30 1386 C 130.157 -0.992426 1.68553 0
M  V30 1387 O 131.363 -1.49727 2.26482 0
M  V30 1388 C 129.819 0.767358 3.51624 0
M  V30 1389 C 129.427 2.23326 3.88367 0
M  V30 1390 C 131.171 0.435887 4.22256 0
M  V30 1391 C 129.078 2.48613 5.36606 0
M  V30 1392 H 128.008 0.167387 0.735185 0
M  V30 1393 H 130.659 1.048 1.5063 0
M  V30 1394 H 129.041 0.106367 3.95857 0
M  V30 1395 H 130.215 2.93623 3.55137 0
M  V30 1396 H 128.53 2.52948 3.30766 0
M  V30 1397 H 131.127 0.602202 5.31298 0
M  V30 1398 H 131.47 -0.622672 4.11617 0
M  V30 1399 H 132.003 1.05286 3.83614 0
M  V30 1400 H 128.742 3.53101 5.52268 0
M  V30 1401 H 128.262 1.82896 5.71235 0
M  V30 1402 H 129.941 2.32676 6.03714 0
M  V30 1403 N 130.073 -1.45103 0.615059 0
M  V30 1404 C 131.319 -2.02483 0.113347 0
M  V30 1405 C 131.652 -1.48146 -1.25564 0
M  V30 1406 O 130.927 -0.659104 -1.82992 0
M  V30 1407 C 131.21 -3.60005 0.0825278 0
M  V30 1408 C 131.063 -4.2466 1.48271 0
M  V30 1409 C 132.382 -4.35972 -0.601401 0
M  V30 1410 H 129.501 -0.735764 0.0426632 0
M  V30 1411 H 132.143 -1.72868 0.788461 0
M  V30 1412 H 130.293 -3.85367 -0.492378 0
M  V30 1413 H 131.965 -4.10458 2.10527 0
M  V30 1414 H 130.208 -3.82772 2.04127 0
M  V30 1415 H 130.879 -5.336 1.41332 0
M  V30 1416 H 133.355 -4.15947 -0.112666 0
M  V30 1417 H 132.231 -5.45697 -0.592097 0
M  V30 1418 H 132.492 -4.09391 -1.66887 0
M  V30 1419 N 131.551 -0.354651 -1.53558 0
M  V30 1420 C 132.499 0.512195 -2.26891 0
M  V30 1421 C 133.493 1.09263 -1.29452 0
M  V30 1422 O 134.699 1.03709 -1.47121 0
M  V30 1423 H 131.074 0.183878 -0.729173 0
M  V30 1424 H 133.045 -0.128202 -2.98124 0
M  V30 1425 C 131.794 1.64563 -3.06291 0
M  V30 1426 H 131.117 1.20829 -3.81104 0
M  V30 1427 H 132.557 2.22711 -3.60799 0
M  V30 1428 C 131.016 2.58158 -2.16462 0
M  V30 1429 O 131.546 3.60695 -1.76811 0
M  V30 1430 N 129.752 2.27096 -1.81317 0
M  V30 1431 H 129.299 1.43751 -2.1376 0
M  V30 1432 H 129.257 2.89975 -1.21498 0
M  V30 1433 N 133.029 1.57378 -0.0835403 0
M  V30 1434 C 134.254 1.98682 0.594987 0
M  V30 1435 C 134.679 0.961969 1.61641 0
M  V30 1436 O 134.037 -0.0709989 1.81161 0
M  V30 1437 C 134.085 3.38988 1.2296 0
M  V30 1438 O 133.189 3.39208 2.34546 0
M  V30 1439 H 132.53 0.646368 0.152002 0
M  V30 1440 H 135.06 2.03961 -0.161533 0
M  V30 1441 H 135.07 3.76431 1.57366 0
M  V30 1442 H 133.745 4.13107 0.481228 0
M  V30 1443 H 132.322 3.13548 2.01846 0
M  V30 1444 N 134.507 -0.190092 1.56449 0
M  V30 1445 C 135.437 -1.23816 1.97969 0
M  V30 1446 C 136.418 -1.47201 0.852395 0
M  V30 1447 O 137.603 -1.58854 1.1171 0
M  V30 1448 C 134.733 -2.5813 2.3235 0
M  V30 1449 C 133.687 -2.49348 3.47864 0
M  V30 1450 C 133.013 -3.8798 3.67934 0
M  V30 1451 C 134.313 -2.01424 4.81898 0
M  V30 1452 H 136.007 -0.89311 2.85769 0
M  V30 1453 H 133.553 -0.428177 1.37487 0
M  V30 1454 H 135.506 -3.31637 2.59991 0
M  V30 1455 H 134.23 -2.94386 1.41438 0
M  V30 1456 H 132.889 -1.78297 3.20321 0
M  V30 1457 H 132.537 -4.21597 2.74344 0
M  V30 1458 H 132.237 -3.82978 4.45648 0
M  V30 1459 H 133.761 -4.63101 3.97957 0
M  V30 1460 H 135.175 -2.64693 5.08538 0
M  V30 1461 H 133.572 -2.07413 5.63116 0
M  V30 1462 H 134.642 -0.967677 4.75146 0
M  V30 1463 N 135.985 -1.50799 -0.457987 0
M  V30 1464 C 137.215 -1.65977 -1.23025 0
M  V30 1465 C 137.623 -0.347918 -1.85974 0
M  V30 1466 O 136.966 0.68148 -1.70592 0
M  V30 1467 C 137.028 -2.70309 -2.3701 0
M  V30 1468 C 136.692 -4.135 -1.94594 0
M  V30 1469 C 137.689 -4.98949 -1.46101 0
M  V30 1470 C 135.374 -4.5949 -2.02915 0
M  V30 1471 C 137.368 -6.28442 -1.06489 0
M  V30 1472 C 135.055 -5.88984 -1.62914 0
M  V30 1473 C 136.053 -6.73286 -1.1478 0
M  V30 1474 O 135.741 -8.00362 -0.75339 0
M  V30 1475 H 135.473 -0.56064 -0.377702 0
M  V30 1476 H 138.027 -1.97857 -0.551537 0
M  V30 1477 H 136.257 -2.337 -3.08093 0
M  V30 1478 H 137.946 -2.74574 -2.98938 0
M  V30 1479 H 138.712 -4.6463 -1.39084 0
M  V30 1480 H 134.591 -3.94009 -2.39328 0
M  V30 1481 H 138.135 -6.94194 -0.688488 0
M  V30 1482 H 134.032 -6.22822 -1.69595 0
M  V30 1483 H 134.8 -8.13744 -0.88108 0
M  V30 1484 N 137.463 0.71206 -1.40597 0
M  V30 1485 C 138.691 1.50111 -1.42388 0
M  V30 1486 C 139.106 1.88784 -0.0245395 0
M  V30 1487 O 138.463 1.55681 0.952351 0
M  V30 1488 C 138.514 2.7742 -2.31776 0
M  V30 1489 O 138.235 2.40382 -3.66262 0
M  V30 1490 C 139.736 3.7129 -2.42196 0
M  V30 1491 H 136.956 0.46314 -0.485533 0
M  V30 1492 H 139.5 0.878068 -1.8469 0
M  V30 1493 H 137.655 3.36001 -1.92827 0
M  V30 1494 H 138.069 3.22324 -4.13772 0
M  V30 1495 H 139.543 4.57448 -3.08943 0
M  V30 1496 H 140.02 4.14641 -1.44809 0
M  V30 1497 H 140.626 3.18619 -2.81712 0
M  V30 1498 N 138.941 1.26152 0.944643 0
M  V30 1499 C 139.873 1.03199 2.04652 0
M  V30 1500 C 140.886 -0.00642356 1.62799 0
M  V30 1501 O 142.075 0.233263 1.76969 0
M  V30 1502 C 139.175 0.540111 3.34568 0
M  V30 1503 C 138.348 1.64697 4.05208 0
M  V30 1504 C 137.407 1.15374 5.13396 0
M  V30 1505 O 136.433 1.85013 5.38293 0
M  V30 1506 N 137.635 0.00031529 5.805 0
M  V30 1507 H 140.4 1.9808 2.2491 0
M  V30 1508 H 137.961 1.17491 1.11389 0
M  V30 1509 H 139.953 0.194401 4.04233 0
M  V30 1510 H 138.523 -0.315021 3.11009 0
M  V30 1511 H 137.743 2.16379 3.29506 0
M  V30 1512 H 139.031 2.3903 4.49157 0
M  V30 1513 H 138.429 -0.581336 5.62705 0
M  V30 1514 H 136.986 -0.286346 6.51171 0
M  V30 1515 N 140.419 -1.14872 1.07899 0
M  V30 1516 C 141.366 -2.19791 0.704319 0
M  V30 1517 C 142.336 -1.63238 -0.306987 0
M  V30 1518 O 143.521 -1.8983 -0.192171 0
M  V30 1519 C 140.661 -3.44911 0.114244 0
M  V30 1520 C 139.774 -4.15637 1.1777 0
M  V30 1521 C 138.909 -5.28324 0.552037 0
M  V30 1522 C 137.948 -5.90875 1.59789 0
M  V30 1523 N 137.085 -6.95022 0.994404 0
M  V30 1524 H 141.925 -2.5119 1.60336 0
M  V30 1525 H 139.462 -1.23356 0.801352 0
M  V30 1526 H 141.42 -4.16477 -0.245544 0
M  V30 1527 H 140.05 -3.14011 -0.74813 0
M  V30 1528 H 139.102 -3.42512 1.65499 0
M  V30 1529 H 140.414 -4.5823 1.97046 0
M  V30 1530 H 139.568 -6.06538 0.1402 0
M  V30 1531 H 138.307 -4.86939 -0.272431 0
M  V30 1532 H 137.312 -5.11369 2.01945 0
M  V30 1533 H 138.537 -6.34337 2.42474 0
M  V30 1534 H 136.483 -6.55722 0.190939 0
M  V30 1535 H 136.4 -7.36073 1.72432 0
M  V30 1536 H 137.668 -7.77123 0.608253 0
M  V30 1537 N 141.898 -0.863906 -1.31812 0
M  V30 1538 C 142.808 -0.318461 -2.32428 0
M  V30 1539 C 143.824 0.568496 -1.64451 0
M  V30 1540 O 145 0.46666 -1.95919 0
M  V30 1541 C 142.065 0.476355 -3.43412 0
M  V30 1542 C 141.126 -0.43784 -4.27061 0
M  V30 1543 C 140.359 0.319138 -5.32745 0
M  V30 1544 O 140.582 1.54799 -5.48993 0
M  V30 1545 O 139.516 -0.319861 -6.01049 0
M  V30 1546 H 143.342 -1.15229 -2.80991 0
M  V30 1547 H 140.927 -0.627103 -1.35602 0
M  V30 1548 H 142.809 0.927156 -4.11074 0
M  V30 1549 H 141.484 1.28683 -2.97022 0
M  V30 1550 H 140.391 -0.937013 -3.62175 0
M  V30 1551 H 141.724 -1.21375 -4.77 0
M  V30 1552 N 143.376 1.44774 -0.622745 0
M  V30 1553 C 144.622 2.0242 -0.124083 0
M  V30 1554 C 144.955 1.4881 1.24777 0
M  V30 1555 O 144.23 0.668799 1.8264 0
M  V30 1556 C 144.513 3.59957 -0.101619 0
M  V30 1557 C 144.366 4.23867 -1.50521 0
M  V30 1558 C 145.685 4.36284 0.578272 0
M  V30 1559 H 142.804 0.735528 -0.0465645 0
M  V30 1560 H 145.446 1.72447 -0.797617 0
M  V30 1561 H 143.596 3.85623 0.471934 0
M  V30 1562 H 145.268 4.09336 -2.12701 0
M  V30 1563 H 143.511 3.81684 -2.06154 0
M  V30 1564 H 144.182 5.32843 -1.4416 0
M  V30 1565 H 146.658 4.16001 0.0906057 0
M  V30 1566 H 145.534 5.46004 0.563149 0
M  V30 1567 H 145.795 4.10271 1.64713 0
M  V30 1568 N 144.854 0.36279 1.53368 0
M  V30 1569 C 146.101 -0.227776 2.01215 0
M  V30 1570 C 146.429 -1.49003 1.25014 0
M  V30 1571 O 145.684 -1.92876 0.331236 0
M  V30 1572 C 145.983 -0.568417 3.52851 0
M  V30 1573 C 145.649 0.59918 4.46901 0
M  V30 1574 C 144.311 0.919559 4.72332 0
M  V30 1575 C 146.663 1.38156 5.02556 0
M  V30 1576 C 143.991 2.02434 5.5067 0
M  V30 1577 C 146.343 2.47674 5.821 0
M  V30 1578 C 145.007 2.8025 6.05819 0
M  V30 1579 H 144.277 -0.083349 0.736297 0
M  V30 1580 H 146.924 0.494677 1.85001 0
M  V30 1581 H 145.229 -1.37185 3.66998 0
M  V30 1582 H 146.926 -1.03756 3.87344 0
M  V30 1583 H 143.516 0.339437 4.27254 0
M  V30 1584 H 147.7 1.14729 4.82857 0
M  V30 1585 H 142.956 2.28075 5.67267 0
M  V30 1586 H 147.13 3.08716 6.24234 0
M  V30 1587 H 144.757 3.65979 6.66306 0
M  V30 1588 N 146.332 -1.57332 0.0918853 0
M  V30 1589 C 147.262 -2.16872 -0.865371 0
M  V30 1590 C 148.243 -1.10118 -1.29646 0
M  V30 1591 O 149.428 -1.38242 -1.36392 0
M  V30 1592 C 146.558 -2.74649 -2.12569 0
M  V30 1593 C 145.512 -3.86747 -1.83333 0
M  V30 1594 C 144.838 -4.31212 -3.16166 0
M  V30 1595 C 146.138 -5.10089 -1.1228 0
M  V30 1596 H 147.832 -2.97114 -0.369307 0
M  V30 1597 H 145.378 -1.42918 -0.176194 0
M  V30 1598 H 147.331 -3.14952 -2.7997 0
M  V30 1599 H 146.055 -1.91657 -2.64452 0
M  V30 1600 H 144.714 -3.46978 -1.18331 0
M  V30 1601 H 144.362 -3.45115 -3.6593 0
M  V30 1602 H 144.062 -5.06788 -2.97388 0
M  V30 1603 H 145.586 -4.74146 -3.84731 0
M  V30 1604 H 147 -5.47582 -1.69785 0
M  V30 1605 H 145.397 -5.91073 -1.03693 0
M  V30 1606 H 146.467 -4.84786 -0.105041 0
M  V30 1607 N 147.81 0.181792 -1.56548 0
M  V30 1608 C 149.226 0.53316 -1.50431 0
M  V30 1609 C 149.426 1.85184 -0.794297 0
M  V30 1610 O 148.482 2.50058 -0.350318 0
M  V30 1611 C 149.795 0.575597 -2.9514 0
M  V30 1612 C 151.343 0.663519 -3.05886 0
M  V30 1613 C 151.818 0.736946 -4.52032 0
M  V30 1614 N 153.309 0.800118 -4.56237 0
M  V30 1615 C 154.044 0.877327 -5.66649 0
M  V30 1616 N 153.54 0.916016 -6.86718 0
M  V30 1617 N 155.333 0.915542 -5.54594 0
M  V30 1618 H 147.484 -0.683025 -2.01118 0
M  V30 1619 H 149.747 -0.244988 -0.915797 0
M  V30 1620 H 149.453 -0.324482 -3.502 0
M  V30 1621 H 149.327 1.42572 -3.49218 0
M  V30 1622 H 151.714 1.55403 -2.50867 0
M  V30 1623 H 151.795 -0.21307 -2.54911 0
M  V30 1624 H 151.439 -0.149262 -5.07681 0
M  V30 1625 H 151.369 1.62953 -5.00753 0
M  V30 1626 H 153.86 0.778926 -3.69785 0
M  V30 1627 H 154.173 0.975813 -7.66614 0
M  V30 1628 H 152.518 0.884469 -6.89349 0
M  V30 1629 H 155.709 0.882245 -4.59711 0
M  V30 1630 H 155.882 0.972253 -6.40665 0
M  V30 1631 N 149.288 1.51039 0.449983 0
M  V30 1632 C 150.198 1.74261 1.57067 0
M  V30 1633 C 151.214 0.626363 1.62335 0
M  V30 1634 O 152.39 0.907162 1.79812 0
M  V30 1635 C 149.455 1.85114 2.93144 0
M  V30 1636 C 148.516 3.0893 2.98095 0
M  V30 1637 C 147.749 3.19256 4.27681 0
M  V30 1638 O 147.972 2.35835 5.19363 0
M  V30 1639 O 146.906 4.12144 4.38658 0
M  V30 1640 H 150.732 2.69303 1.40391 0
M  V30 1641 H 148.317 1.35389 0.631688 0
M  V30 1642 H 150.199 1.94311 3.73926 0
M  V30 1643 H 148.874 0.932588 3.09975 0
M  V30 1644 H 147.781 3.0522 2.16314 0
M  V30 1645 H 149.114 4.00433 2.86206 0
M  V30 1646 N 150.766 -0.704594 1.40972 0
M  V30 1647 C 151.696 -1.83124 1.44872 0
M  V30 1648 C 152.677 -1.67281 0.30838 0
M  V30 1649 O 153.862 -1.87149 0.518556 0
M  V30 1650 C 150.992 -3.21181 1.32136 0
M  V30 1651 C 149.946 -3.51714 2.43888 0
M  V30 1652 C 149.272 -4.89032 2.16222 0
M  V30 1653 C 150.572 -3.516 3.86232 0
M  V30 1654 H 152.266 -1.80117 2.39161 0
M  V30 1655 H 149.812 -0.865145 1.15114 0
M  V30 1656 H 151.765 -3.99702 1.33479 0
M  V30 1657 H 150.489 -3.24791 0.343279 0
M  V30 1658 H 149.148 -2.75539 2.41813 0
M  V30 1659 H 148.796 -4.89256 1.16778 0
M  V30 1660 H 148.496 -5.10426 2.911 0
M  V30 1661 H 150.02 -5.69873 2.19265 0
M  V30 1662 H 151.434 -4.2014 3.9007 0
M  V30 1663 H 149.831 -3.84523 4.60719 0
M  V30 1664 H 150.901 -2.50757 4.15029 0
M  V30 1665 N 152.244 -1.26651 -0.937939 0
M  V30 1666 C 153.493 -1.11775 -1.67897 0
M  V30 1667 C 153.806 0.33794 -1.92659 0
M  V30 1668 O 155.012 0.607434 -2.64618 0
M  V30 1669 C 153.468 -1.9523 -3.02346 0
M  V30 1670 C 153.076 -3.45393 -2.8532 0
M  V30 1671 C 154.82 -1.88972 -3.80118 0
M  V30 1672 C 152.727 -4.21083 -4.15263 0
M  V30 1673 H 151.657 -0.414696 -0.629717 0
M  V30 1674 H 154.308 -1.50988 -1.04283 0
M  V30 1675 H 152.69 -1.48853 -3.66959 0
M  V30 1676 H 153.864 -3.99561 -2.29537 0
M  V30 1677 H 152.179 -3.52921 -2.20988 0
M  V30 1678 H 154.776 -2.42805 -4.76392 0
M  V30 1679 H 155.119 -0.86113 -4.07296 0
M  V30 1680 H 155.652 -2.33189 -3.22285 0
M  V30 1681 H 152.391 -5.24425 -3.93267 0
M  V30 1682 H 151.911 -3.71695 -4.70747 0
M  V30 1683 H 153.59 -4.29706 -4.83696 0
M  V30 1684 N 153.722 1.14298 -1.08507 0
M  V30 1685 C 154.947 1.8976 -0.837001 0
M  V30 1686 C 155.372 1.78097 0.605228 0
M  V30 1687 O 154.73 1.12188 1.4242 0
M  V30 1688 C 154.778 3.37685 -1.26495 0
M  V30 1689 O 153.882 4.10281 -0.417514 0
M  V30 1690 H 153.223 0.590365 -0.303917 0
M  V30 1691 H 155.753 1.44672 -1.44676 0
M  V30 1692 H 155.763 3.88501 -1.24625 0
M  V30 1693 H 154.438 3.45492 -2.31534 0
M  V30 1694 H 153.015 3.69536 -0.499722 0
M  V30 1695 N 155.201 0.870884 1.31352 0
M  V30 1696 C 156.149 0.316445 2.30437 0
M  V30 1697 C 157.143 -0.568965 1.59559 0
M  V30 1698 O 158.349 -0.454964 1.74155 0
M  V30 1699 H 154.724 0.0836521 0.747333 0
M  V30 1700 H 156.695 1.16606 2.74673 0
M  V30 1701 C 155.444 -0.46635 3.44558 0
M  V30 1702 H 154.767 0.205687 3.99271 0
M  V30 1703 H 156.207 -0.819614 4.16003 0
M  V30 1704 C 154.666 -1.65797 2.9328 0
M  V30 1705 O 155.196 -2.75728 2.92125 0
M  V30 1706 N 153.402 -1.49041 2.4947 0
M  V30 1707 H 152.949 -0.59612 2.50608 0
M  V30 1708 H 152.907 -2.28911 2.15516 0
M  V30 1709 N 156.679 -1.44442 0.630414 0
M  V30 1710 C 157.642 -2.29107 -0.0652523 0
M  V30 1711 C 158.642 -1.41002 -0.772995 0
M  V30 1712 O 159.832 -1.62881 -0.617692 0
M  V30 1713 C 156.964 -3.22564 -1.10296 0
M  V30 1714 H 158.157 -2.92103 0.679401 0
M  V30 1715 H 155.71 -1.51343 0.390517 0
M  V30 1716 H 156.445 -2.64416 -1.87762 0
M  V30 1717 H 156.23 -3.87491 -0.59941 0
M  V30 1718 H 157.72 -3.86167 -1.5895 0
M  V30 1719 N 158.157 -0.370918 -1.53173 0
M  V30 1720 C 159.12 0.460778 -2.24521 0
M  V30 1721 C 160.12 1.00536 -1.25496 0
M  V30 1722 O 161.31 0.890266 -1.49733 0
M  V30 1723 C 158.442 1.64457 -2.98608 0
M  V30 1724 H 159.635 -0.163613 -2.99453 0
M  V30 1725 H 157.188 -0.122699 -1.55818 0
M  V30 1726 H 157.923 2.30691 -2.2793 0
M  V30 1727 H 157.708 1.26099 -3.7127 0
M  V30 1728 H 159.198 2.23384 -3.5283 0
M  V30 1729 N 159.635 1.57281 -0.100228 0
M  V30 1730 C 160.912 1.86014 0.604812 0
M  V30 1731 C 161.292 0.998025 1.86018 0
M  V30 1732 O 160.64 0.0718184 2.28387 0
M  V30 1733 C 160.85 3.36784 0.915278 0
M  V30 1734 C 162.198 4.04957 1.27651 0
M  V30 1735 O 163.222 3.41695 1.00613 0
M  V30 1736 O 162.081 5.16593 1.7831 0
M  V30 1737 H 159.175 0.76942 0.303185 0
M  V30 1738 H 161.721 1.69176 -0.133313 0
M  V30 1739 H 160.493 3.91292 0.0248896 0
M  V30 1740 H 160.116 3.58987 1.70921 0
M  V30 1741 N 161.113 -0.173488 1.56642 0
M  V30 1742 C 162.076 -1.19859 1.95362 0
M  V30 1743 C 163.076 -1.37296 0.83704 0
M  V30 1744 O 164.266 -1.34739 1.10413 0
M  V30 1745 C 161.398 -2.56405 2.24654 0
M  V30 1746 H 162.591 -0.867062 2.87092 0
M  V30 1747 H 160.144 -0.415853 1.50666 0
M  V30 1748 H 160.879 -2.94576 1.35631 0
M  V30 1749 H 160.664 -2.45115 3.06041 0
M  V30 1750 H 162.154 -3.30287 2.5554 0
M  V30 1751 N 162.591 -1.51276 -0.441967 0
M  V30 1752 C 163.521 -1.752 -1.54361 0
M  V30 1753 C 164.502 -0.601682 -1.59103 0
M  V30 1754 O 165.687 -0.843913 -1.74905 0
M  V30 1755 C 162.817 -1.87282 -2.92477 0
M  V30 1756 C 161.771 -3.02687 -3.02596 0
M  V30 1757 C 161.097 -2.99947 -4.42647 0
M  V30 1758 C 162.397 -4.4273 -2.77106 0
M  V30 1759 H 164.091 -2.67442 -1.34592 0
M  V30 1760 H 161.637 -1.28694 -0.646048 0
M  V30 1761 H 163.59 -2.02602 -3.695 0
M  V30 1762 H 162.314 -0.916844 -3.13467 0
M  V30 1763 H 160.973 -2.87065 -2.28012 0
M  V30 1764 H 160.621 -2.02136 -4.60597 0
M  V30 1765 H 160.321 -3.77439 -4.50348 0
M  V30 1766 H 161.845 -3.17354 -5.2165 0
M  V30 1767 H 163.259 -4.58727 -3.43864 0
M  V30 1768 H 161.656 -5.21893 -2.96222 0
M  V30 1769 H 162.726 -4.53087 -1.72744 0
M  V30 1770 N 164.069 0.697108 -1.41344 0
M  V30 1771 C 164.979 1.84088 -1.45427 0
M  V30 1772 C 165.995 1.70545 -0.34501 0
M  V30 1773 O 167.171 1.92488 -0.592492 0
M  V30 1774 C 164.236 3.20056 -1.33286 0
M  V30 1775 C 163.297 3.45718 -2.54514 0
M  V30 1776 C 162.53 4.75199 -2.42944 0
M  V30 1777 O 162.753 5.51579 -1.45318 0
M  V30 1778 O 161.687 5.0161 -3.32672 0
M  V30 1779 H 165.513 1.836 -2.41919 0
M  V30 1780 H 163.098 0.849966 -1.22866 0
M  V30 1781 H 164.98 4.01236 -1.28794 0
M  V30 1782 H 163.655 3.2123 -0.39909 0
M  V30 1783 H 162.562 2.64474 -2.64583 0
M  V30 1784 H 163.895 3.49356 -3.46715 0
M  V30 1785 N 165.547 1.27147 0.931209 0
M  V30 1786 C 166.494 1.09568 2.03134 0
M  V30 1787 C 167.464 -0.00222433 1.661 0
M  V30 1788 O 168.649 0.159439 1.90133 0
M  V30 1789 C 165.789 0.745231 3.36957 0
M  V30 1790 C 164.902 1.92041 3.86968 0
M  V30 1791 C 164.037 1.51216 5.09222 0
M  V30 1792 C 163.076 2.65504 5.5152 0
M  V30 1793 N 162.213 2.25291 6.64972 0
M  V30 1794 H 167.053 2.03708 2.17502 0
M  V30 1795 H 164.59 1.01411 1.06556 0
M  V30 1796 H 166.548 0.522878 4.1391 0
M  V30 1797 H 165.178 -0.159202 3.22407 0
M  V30 1798 H 164.23 2.25541 3.06326 0
M  V30 1799 H 165.542 2.77787 4.1429 0
M  V30 1800 H 164.696 1.25084 5.93666 0
M  V30 1801 H 163.435 0.625749 4.83669 0
M  V30 1802 H 162.44 2.92354 4.65628 0
M  V30 1803 H 163.665 3.54761 5.7907 0
M  V30 1804 H 161.611 1.39098 6.41083 0
M  V30 1805 H 161.528 3.04577 6.91931 0
M  V30 1806 H 162.796 2.02398 7.52765 0
M  V30 1807 N 167.025 -1.13721 1.09112 0
M  V30 1808 C 168.274 -1.84275 0.82009 0
M  V30 1809 C 168.587 -1.84253 -0.656509 0
M  V30 1810 O 169.793 -2.50668 -1.04296 0
M  V30 1811 C 168.249 -3.30825 1.41714 0
M  V30 1812 C 167.857 -3.39244 2.92605 0
M  V30 1813 C 169.601 -4.06443 1.22492 0
M  V30 1814 C 167.508 -4.80047 3.45411 0
M  V30 1815 H 166.438 -0.690387 0.30312 0
M  V30 1816 H 169.089 -1.28146 1.31343 0
M  V30 1817 H 167.471 -3.86737 0.851498 0
M  V30 1818 H 168.645 -2.93344 3.55367 0
M  V30 1819 H 166.96 -2.77088 3.10823 0
M  V30 1820 H 169.557 -5.10387 1.59402 0
M  V30 1821 H 169.9 -4.15972 0.165299 0
M  V30 1822 H 170.433 -3.56852 1.75788 0
M  V30 1823 H 167.172 -4.75709 4.50978 0
M  V30 1824 H 166.692 -5.26455 2.87411 0
M  V30 1825 H 168.371 -5.48957 3.42425 0
M  V30 1826 N 168.503 -0.877838 -1.30888 0
M  V30 1827 C 169.919 -0.570844 -1.49042 0
M  V30 1828 C 170.119 0.893159 -1.80624 0
M  V30 1829 O 169.175 1.67485 -1.88958 0
M  V30 1830 C 170.488 -1.47784 -2.61878 0
M  V30 1831 C 172.036 -1.48071 -2.75761 0
M  V30 1832 C 172.511 -2.37347 -3.91702 0
M  V30 1833 N 174.002 -2.35271 -3.99001 0
M  V30 1834 C 174.737 -3.01063 -4.88004 0
M  V30 1835 N 174.233 -3.76055 -5.81854 0
M  V30 1836 N 176.026 -2.90332 -4.81315 0
M  V30 1837 H 168.177 -1.82502 -1.0866 0
M  V30 1838 H 170.44 -0.780797 -0.537644 0
M  V30 1839 H 170.146 -2.51993 -2.45341 0
M  V30 1840 H 170.02 -1.18215 -3.58197 0
M  V30 1841 H 172.407 -0.446166 -2.91708 0
M  V30 1842 H 172.488 -1.81668 -1.80085 0
M  V30 1843 H 172.132 -3.40883 -3.76512 0
M  V30 1844 H 172.062 -2.01071 -4.86701 0
M  V30 1845 H 174.553 -1.80768 -3.3186 0
M  V30 1846 H 174.866 -4.23366 -6.46514 0
M  V30 1847 H 173.211 -3.80163 -5.81808 0
M  V30 1848 H 176.402 -2.31278 -4.06974 0
M  V30 1849 H 176.575 -3.41885 -5.50471 0
M  V30 1850 N 169.982 1.44106 -0.638065 0
M  V30 1851 C 171.229 2.01978 -0.14533 0
M  V30 1852 C 171.557 1.50234 1.23532 0
M  V30 1853 O 170.812 0.679548 1.83523 0
M  V30 1854 C 171.111 3.5729 -0.0887327 0
M  V30 1855 C 170.777 4.28317 -1.40909 0
M  V30 1856 C 169.439 4.47437 -1.77069 0
M  V30 1857 C 171.791 4.6867 -2.28031 0
M  V30 1858 C 169.119 5.04171 -3.00047 0
M  V30 1859 C 171.471 5.26766 -3.50286 0
M  V30 1860 C 170.135 5.44104 -3.86661 0
M  V30 1861 H 169.405 0.739089 -0.0531801 0
M  V30 1862 H 172.052 1.72781 -0.825761 0
M  V30 1863 H 170.357 3.8594 0.675095 0
M  V30 1864 H 172.054 3.99807 0.309145 0
M  V30 1865 H 168.644 4.1377 -1.1177 0
M  V30 1866 H 172.828 4.53604 -2.01388 0
M  V30 1867 H 168.084 5.15782 -3.28298 0
M  V30 1868 H 172.258 5.56983 -4.18023 0
M  V30 1869 H 169.885 5.87832 -4.82034 0
M  V30 1870 N 171.46 0.379036 1.52974 0
M  V30 1871 C 172.39 -0.452706 2.29069 0
M  V30 1872 C 173.371 -1.07237 1.32039 0
M  V30 1873 O 174.556 -1.08708 1.60923 0
M  V30 1874 C 171.686 -1.5856 3.08992 0
M  V30 1875 C 170.64 -1.0925 4.13822 0
M  V30 1876 C 169.966 -2.31668 4.81907 0
M  V30 1877 C 171.266 -0.167702 5.22031 0
M  V30 1878 H 172.96 0.182181 2.98845 0
M  V30 1879 H 170.506 0.0890592 1.43724 0
M  V30 1880 H 172.459 -2.1742 3.6098 0
M  V30 1881 H 171.183 -2.24792 2.36931 0
M  V30 1882 H 169.842 -0.526494 3.628 0
M  V30 1883 H 169.49 -2.96386 4.06404 0
M  V30 1884 H 169.19 -1.9934 5.52754 0
M  V30 1885 H 170.714 -2.91189 5.36695 0
M  V30 1886 H 172.128 -0.664186 5.6944 0
M  V30 1887 H 170.525 0.0653265 6.00064 0
M  V30 1888 H 171.595 0.786347 4.78482 0
M  V30 1889 N 172.938 -1.57226 0.108567 0
M  V30 1890 C 174.163 -1.99604 -0.563303 0
M  V30 1891 C 174.588 -0.987563 -1.6009 0
M  V30 1892 O 173.946 0.0421687 -1.81251 0
M  V30 1893 C 173.994 -3.40902 -1.17552 0
M  V30 1894 O 173.098 -3.42896 -2.2912 0
M  V30 1895 H 172.439 -0.648704 -0.1417 0
M  V30 1896 H 174.969 -2.03679 0.193961 0
M  V30 1897 H 174.979 -3.78886 -1.51357 0
M  V30 1898 H 173.654 -4.1382 -0.415445 0
M  V30 1899 H 172.231 -3.1672 -1.96832 0
M  V30 1900 N 174.416 0.165178 -1.56732 0
M  V30 1901 C 175.346 1.20651 -1.99914 0
M  V30 1902 C 176.327 1.45827 -0.875705 0
M  V30 1903 O 177.512 1.57057 -1.14223 0
M  V30 1904 C 174.642 2.54401 -2.36427 0
M  V30 1905 C 173.596 2.43782 -3.51787 0
M  V30 1906 C 172.922 3.82078 -3.7406 0
M  V30 1907 C 174.222 1.93732 -4.85041 0
M  V30 1908 H 175.916 0.847534 -2.87154 0
M  V30 1909 H 173.462 0.40625 -1.38151 0
M  V30 1910 H 175.415 3.27458 -2.65234 0
M  V30 1911 H 174.139 2.92098 -1.46103 0
M  V30 1912 H 172.798 1.73178 -3.23117 0
M  V30 1913 H 172.446 4.17179 -2.81017 0
M  V30 1914 H 172.146 3.7584 -4.51684 0
M  V30 1915 H 173.67 4.56712 -4.05274 0
M  V30 1916 H 175.084 2.56569 -5.12684 0
M  V30 1917 H 173.481 1.98428 -5.66345 0
M  V30 1918 H 174.551 0.891962 -4.76626 0
M  V30 1919 N 175.894 1.51508 0.433938 0
M  V30 1920 C 177.119 1.68443 1.21003 0
M  V30 1921 C 177.544 0.382636 1.84167 0
M  V30 1922 O 176.902 -0.65755 1.68956 0
M  V30 1923 C 176.95 2.80405 2.26727 0
M  V30 1924 O 176.054 2.44245 3.32292 0
M  V30 1925 H 175.395 0.561536 0.354363 0
M  V30 1926 H 177.925 1.9809 0.512024 0
M  V30 1927 H 177.935 3.0459 2.71457 0
M  V30 1928 H 176.61 3.74867 1.80132 0
M  V30 1929 H 175.187 2.30644 2.93015 0
M  V30 1930 N 177.372 -0.689602 1.41712 0
M  V30 1931 C 178.649 -1.44457 1.31877 0
M  V30 1932 C 179.029 -2.11039 -0.0508537 0
M  V30 1933 O 178.377 -2.02138 -1.06547 0
M  V30 1934 C 178.587 -2.45913 2.47645 0
M  V30 1935 C 179.935 -3.10991 2.89084 0
M  V30 1936 O 180.959 -2.56238 2.47428 0
M  V30 1937 O 179.818 -4.10174 3.61137 0
M  V30 1938 H 176.912 -0.64362 0.519309 0
M  V30 1939 H 179.458 -0.719576 1.53689 0
M  V30 1940 H 178.23 -1.95409 3.39015 0
M  V30 1941 H 177.853 -3.25913 2.27742 0
M  V30 1942 N 178.85 -1.27639 -0.924453 0
M  V30 1943 C 179.76 -1.12466 -2.05885 0
M  V30 1944 C 180.776 -0.053869 -1.73917 0
M  V30 1945 O 181.952 -0.261012 -1.99702 0
M  V30 1946 C 179.017 -0.776768 -3.37886 0
M  V30 1947 C 178.078 -1.92878 -3.83532 0
M  V30 1948 C 177.311 -1.59739 -5.09234 0
M  V30 1949 O 177.534 -0.506782 -5.68144 0
M  V30 1950 O 176.468 -2.43761 -5.50331 0
M  V30 1951 H 180.294 -2.07671 -2.21599 0
M  V30 1952 H 177.879 -1.06857 -1.04413 0
M  V30 1953 H 179.761 -0.596229 -4.17161 0
M  V30 1954 H 178.436 0.145732 -3.23372 0
M  V30 1955 H 177.343 -2.1644 -3.0513 0
M  V30 1956 H 178.676 -2.8316 -4.02593 0
M  V30 1957 N 180.328 1.1314 -1.09713 0
M  V30 1958 C 181.553 1.88862 -0.857081 0
M  V30 1959 C 181.978 1.78729 0.586304 0
M  V30 1960 O 181.336 1.13692 1.41222 0
M  V30 1961 C 181.384 3.36325 -1.30069 0
M  V30 1962 O 180.488 4.09815 -0.461007 0
M  V30 1963 H 179.829 0.587108 -0.310162 0
M  V30 1964 H 182.359 1.43129 -1.46203 0
M  V30 1965 H 182.369 3.87157 -1.28738 0
M  V30 1966 H 181.044 3.43017 -2.35185 0
M  V30 1967 H 179.621 3.68986 -0.538888 0
M  V30 1968 N 181.806 0.884767 1.30421 0
M  V30 1969 C 183.052 0.503851 1.96441 0
M  V30 1970 C 183.385 -0.944518 1.69684 0
M  V30 1971 O 182.66 -1.66737 1.00145 0
M  V30 1972 C 182.943 0.779085 3.51571 0
M  V30 1973 C 182.796 2.27807 3.87846 0
M  V30 1974 C 184.115 0.255452 4.39358 0
M  V30 1975 H 181.234 0.184533 0.713524 0
M  V30 1976 H 183.876 1.10872 1.54297 0
M  V30 1977 H 182.026 0.264274 3.876 0
M  V30 1978 H 183.698 2.86127 3.61841 0
M  V30 1979 H 181.941 2.74479 3.35922 0
M  V30 1980 H 182.612 2.42125 4.96064 0
M  V30 1981 H 185.088 0.696079 4.10236 0
M  V30 1982 H 183.964 0.477361 5.4682 0
M  V30 1983 H 184.225 -0.843293 4.33983 0
M  V30 1984 N 183.284 -1.43765 0.645699 0
M  V30 1985 C 184.214 -2.33471 -0.0370477 0
M  V30 1986 C 185.195 -1.49042 -0.819779 0
M  V30 1987 O 186.38 -1.77726 -0.782758 0
M  V30 1988 C 183.51 -3.32311 -1.0093 0
M  V30 1989 C 182.464 -4.2667 -0.337201 0
M  V30 1990 C 181.79 -5.1549 -1.42037 0
M  V30 1991 C 183.09 -5.16657 0.765706 0
M  V30 1992 H 184.784 -2.90809 0.712069 0
M  V30 1993 H 182.33 -1.39834 0.343876 0
M  V30 1994 H 184.283 -3.9396 -1.49578 0
M  V30 1995 H 183.007 -2.73213 -1.78948 0
M  V30 1996 H 181.666 -3.66374 0.128771 0
M  V30 1997 H 181.314 -4.52735 -2.1918 0
M  V30 1998 H 181.014 -5.79438 -0.975966 0
M  V30 1999 H 182.538 -5.80012 -1.90838 0
M  V30 2000 H 183.952 -5.72158 0.361702 0
M  V30 2001 H 182.349 -5.89286 1.13413 0
M  V30 2002 H 183.419 -4.56796 1.62683 0
M  V30 2003 N 184.763 -0.387143 -1.52771 0
M  V30 2004 C 186.011 0.195349 -2.01154 0
M  V30 2005 C 186.332 1.475 -1.27549 0
M  V30 2006 O 185.602 1.91878 -0.394924 0
M  V30 2007 H 184.182 0.075178 -0.743207 0
M  V30 2008 H 186.844 -0.518337 -1.87881 0
M  V30 2009 H 185.94 0.407096 -3.09434 0
M  V30 2010 N 186.241 1.57166 -0.116904 0
M  V30 2011 C 187.151 2.18745 0.847812 0
M  V30 2012 C 188.167 1.163 1.29423 0
M  V30 2013 O 189.343 1.48761 1.35765 0
M  V30 2014 C 186.408 2.77307 2.0809 0
M  V30 2015 C 185.469 3.94781 1.68661 0
M  V30 2016 C 184.702 4.50541 2.86091 0
M  V30 2017 O 184.925 4.05202 4.01456 0
M  V30 2018 O 183.859 5.41256 2.63298 0
M  V30 2019 H 187.685 3.01632 0.353778 0
M  V30 2020 H 185.27 1.49005 0.108599 0
M  V30 2021 H 187.152 3.14647 2.80313 0
M  V30 2022 H 185.827 1.97452 2.56504 0
M  V30 2023 H 184.734 3.62214 0.935518 0
M  V30 2024 H 186.067 4.76065 1.24991 0
M  V30 2025 N 187.719 -0.156864 1.56817 0
M  V30 2026 C 188.629 -1.2136 2.00771 0
M  V30 2027 C 189.645 -1.47598 0.921459 0
M  V30 2028 O 190.821 -1.59462 1.2302 0
M  V30 2029 C 187.886 -2.52943 2.37109 0
M  V30 2030 C 186.947 -2.34439 3.59634 0
M  V30 2031 C 186.18 -3.59748 3.94229 0
M  V30 2032 O 186.403 -4.65526 3.29609 0
M  V30 2033 O 185.337 -3.52998 4.8752 0
M  V30 2034 H 189.163 -0.870468 2.90958 0
M  V30 2035 H 186.748 -0.36484 1.44877 0
M  V30 2036 H 188.63 -3.30538 2.61386 0
M  V30 2037 H 187.305 -2.86806 1.5008 0
M  V30 2038 H 186.212 -1.54828 3.40557 0
M  V30 2039 H 187.545 -2.05496 4.4725 0
M  V30 2040 N 189.197 -1.51736 -0.425897 0
M  V30 2041 C 190.144 -1.73875 -1.51776 0
M  V30 2042 C 191.114 -0.580702 -1.55618 0
M  V30 2043 O 192.299 -0.81641 -1.72451 0
M  V30 2044 C 189.439 -1.88012 -2.89388 0
M  V30 2045 C 188.552 -3.15606 -2.94986 0
M  V30 2046 C 187.687 -3.20271 -4.23793 0
M  V30 2047 C 186.726 -4.42134 -4.23302 0
M  V30 2048 N 185.863 -4.44284 -5.43651 0
M  V30 2049 H 190.703 -2.67071 -1.32201 0
M  V30 2050 H 188.24 -1.32351 -0.642008 0
M  V30 2051 H 190.198 -1.9419 -3.69251 0
M  V30 2052 H 188.828 -0.98213 -3.07496 0
M  V30 2053 H 187.88 -3.18681 -2.07717 0
M  V30 2054 H 189.192 -4.05486 -2.90486 0
M  V30 2055 H 188.346 -3.25428 -5.12036 0
M  V30 2056 H 187.085 -2.28299 -4.30965 0
M  V30 2057 H 186.09 -4.3714 -3.3345 0
M  V30 2058 H 187.315 -5.35382 -4.17783 0
M  V30 2059 H 185.261 -3.55188 -5.51523 0
M  V30 2060 H 185.178 -5.27988 -5.41078 0
M  V30 2061 H 186.446 -4.53649 -6.33895 0
M  V30 2062 N 190.675 0.682077 -1.42076 0
M  V30 2063 C 191.622 1.79578 -1.44984 0
M  V30 2064 C 192.592 1.6332 -0.302614 0
M  V30 2065 O 193.777 1.83978 -0.505633 0
M  V30 2066 C 190.917 3.1756 -1.35091 0
M  V30 2067 C 190.03 3.45156 -2.59791 0
M  V30 2068 C 189.165 4.72826 -2.42093 0
M  V30 2069 C 188.204 4.93433 -3.62202 0
M  V30 2070 N 187.341 6.12338 -3.43491 0
M  V30 2071 H 192.181 1.76427 -2.40161 0
M  V30 2072 H 189.718 0.861376 -1.19242 0
M  V30 2073 H 191.676 3.97287 -1.27354 0
M  V30 2074 H 190.306 3.19854 -0.435133 0
M  V30 2075 H 189.358 2.59736 -2.77923 0
M  V30 2076 H 190.67 3.5628 -3.49094 0
M  V30 2077 H 189.824 5.60631 -2.319 0
M  V30 2078 H 188.563 4.63973 -1.50268 0
M  V30 2079 H 187.568 4.04073 -3.72834 0
M  V30 2080 H 188.793 5.04136 -4.54998 0
M  V30 2081 H 186.739 6.04672 -2.54377 0
M  V30 2082 H 186.656 6.2429 -4.26377 0
M  V30 2083 H 187.924 7.02841 -3.37097 0
M  V30 2084 N 192.153 1.28127 0.917671 0
M  V30 2085 C 193.083 1.14248 2.03641 0
M  V30 2086 C 194.064 0.0412748 1.7005 0
M  V30 2087 O 195.249 0.217566 1.92977 0
M  V30 2088 C 192.379 0.799431 3.37974 0
M  V30 2089 C 191.333 1.85497 3.85713 0
M  V30 2090 C 190.659 1.36565 5.16966 0
M  V30 2091 C 191.959 3.26085 4.08002 0
M  V30 2092 H 193.653 2.07835 2.15511 0
M  V30 2093 H 191.199 1.00064 1.03553 0
M  V30 2094 H 193.152 0.689114 4.15727 0
M  V30 2095 H 191.876 -0.172145 3.26146 0
M  V30 2096 H 190.535 1.95437 3.10161 0
M  V30 2097 H 190.183 0.383253 5.01538 0
M  V30 2098 H 189.883 2.07143 5.49878 0
M  V30 2099 H 191.407 1.26848 5.97279 0
M  V30 2100 H 192.821 3.19089 4.76293 0
M  V30 2101 H 191.218 3.94462 4.52238 0
M  V30 2102 H 192.288 3.70394 3.12948 0
M  V30 2103 N 193.631 -1.12557 1.10312 0
M  V30 2104 C 194.541 -2.21841 0.763142 0
M  V30 2105 C 195.557 -1.72354 -0.238801 0
M  V30 2106 O 196.733 -2.01249 -0.0778746 0
M  V30 2107 C 193.798 -3.46131 0.198632 0
M  V30 2108 C 192.859 -4.10464 1.25769 0
M  V30 2109 C 192.092 -5.28821 0.72002 0
M  V30 2110 O 192.315 -5.6859 -0.453993 0
M  V30 2111 O 191.249 -5.83437 1.47935 0
M  V30 2112 H 195.075 -2.53312 1.67532 0
M  V30 2113 H 192.66 -1.20867 0.878157 0
M  V30 2114 H 194.542 -4.2125 -0.112401 0
M  V30 2115 H 193.217 -3.16338 -0.686419 0
M  V30 2116 H 192.124 -3.3713 1.62156 0
M  V30 2117 H 193.457 -4.44408 2.11571 0
M  V30 2118 N 195.109 -0.891671 -1.2995 0
M  V30 2119 C 196.358 -0.509521 -1.95158 0
M  V30 2120 C 196.671 0.947388 -1.71125 0
M  V30 2121 O 197.877 1.43669 -2.30372 0
M  V30 2122 C 196.333 -0.860315 -3.49466 0
M  V30 2123 C 195.941 -2.33545 -3.8231 0
M  V30 2124 C 197.685 -0.547687 -4.20952 0
M  V30 2125 C 195.592 -2.62752 -5.29826 0
M  V30 2126 H 194.522 -0.18682 -0.730489 0
M  V30 2127 H 197.173 -1.08756 -1.47798 0
M  V30 2128 H 195.555 -0.211285 -3.95436 0
M  V30 2129 H 196.729 -3.02936 -3.47227 0
M  V30 2130 H 195.044 -2.61629 -3.23944 0
M  V30 2131 H 197.641 -0.742854 -5.29515 0
M  V30 2132 H 197.984 0.51332 -4.13123 0
M  V30 2133 H 198.517 -1.1542 -3.80688 0
M  V30 2134 H 195.256 -3.6762 -5.42712 0
M  V30 2135 H 194.776 -1.97977 -5.66185 0
M  V30 2136 H 196.455 -2.48601 -5.97333 0
M  V30 2137 N 196.587 1.43421 -0.653314 0
M  V30 2138 C 198.003 1.56341 -0.320886 0
M  V30 2139 C 198.203 1.63696 1.17499 0
M  V30 2140 O 197.259 1.59208 1.95982 0
M  V30 2141 C 198.572 2.82424 -1.03233 0
M  V30 2142 C 200.12 2.96168 -1.01259 0
M  V30 2143 C 200.595 4.25084 -1.70492 0
M  V30 2144 N 202.086 4.31948 -1.67257 0
M  V30 2145 C 202.821 5.30466 -2.17701 0
M  V30 2146 N 202.317 6.35261 -2.76434 0
M  V30 2147 N 204.11 5.2212 -2.082 0
M  V30 2148 H 196.261 1.3689 -1.62403 0
M  V30 2149 H 198.524 0.657455 -0.682977 0
M  V30 2150 H 198.23 2.83053 -2.08744 0
M  V30 2151 H 198.104 3.72653 -0.583948 0
M  V30 2152 H 200.491 2.9508 0.0341235 0
M  V30 2153 H 200.572 2.07229 -1.49966 0
M  V30 2154 H 200.216 4.26932 -2.7512 0
M  V30 2155 H 200.146 5.1292 -1.19251 0
M  V30 2156 H 202.637 3.56838 -1.24398 0
M  V30 2157 H 202.95 7.06754 -3.12601 0
M  V30 2158 H 201.295 6.35884 -2.80495 0
M  V30 2159 H 204.486 4.39166 -1.62021 0
M  V30 2160 H 204.659 5.98739 -2.47822 0
M  V30 2161 N 198.065 0.39524 1.52563 0
M  V30 2162 C 199.314 -0.186321 2.00838 0
M  V30 2163 C 199.627 -1.47402 1.28577 0
M  V30 2164 O 200.833 -2.13599 1.67593 0
M  V30 2165 C 199.289 -0.382595 3.57861 0
M  V30 2166 C 198.897 0.892202 4.39026 0
M  V30 2167 C 200.641 -0.9202 4.14406 0
M  V30 2168 C 198.548 0.66388 5.87662 0
M  V30 2169 H 197.478 -0.0734041 0.750418 0
M  V30 2170 H 200.129 0.518552 1.76021 0
M  V30 2171 H 198.511 -1.14946 3.7895 0
M  V30 2172 H 199.685 1.66414 4.29701 0
M  V30 2173 H 198 1.35519 3.9373 0
M  V30 2174 H 200.597 -1.10683 5.23119 0
M  V30 2175 H 200.94 -1.89096 3.70875 0
M  V30 2176 H 201.473 -0.212751 3.97231 0
M  V30 2177 H 198.212 1.6058 6.35527 0
M  V30 2178 H 197.732 -0.0690193 5.9976 0
M  V30 2179 H 199.411 0.300699 6.46301 0
M  V30 2180 N 199.544 -1.57102 0.125237 0
M  V30 2181 C 200.769 -2.0019 -0.542101 0
M  V30 2182 C 201.194 -1.00449 -1.59034 0
M  V30 2183 O 200.552 0.0229423 -1.81285 0
M  V30 2184 C 200.6 -3.42129 -1.13929 0
M  V30 2185 O 199.704 -3.45307 -2.2547 0
M  V30 2186 H 199.045 -0.650171 -0.134812 0
M  V30 2187 H 201.575 -2.03461 0.215553 0
M  V30 2188 H 201.585 -3.80471 -1.4733 0
M  V30 2189 H 200.26 -4.14237 -0.371531 0
M  V30 2190 H 198.837 -3.1879 -1.93462 0
M  V30 2191 N 201.022 0.148545 -1.56898 0
M  V30 2192 C 201.985 1.16736 -1.97244 0
M  V30 2193 C 202.985 1.35947 -0.858777 0
M  V30 2194 O 204.175 1.32966 -1.12542 0
M  V30 2195 C 201.307 2.52798 -2.28705 0
M  V30 2196 H 202.5 0.821279 -2.88435 0
M  V30 2197 H 200.053 0.391831 -1.51309 0
M  V30 2198 H 200.788 2.92381 -1.403 0
M  V30 2199 H 200.573 2.40216 -3.09901 0
M  V30 2200 H 202.063 3.26179 -2.60762 0
M  V30 2201 N 202.5 1.5196 0.417844 0
M  V30 2202 C 203.448 1.75278 1.52907 0
M  V30 2203 C 204.442 0.619611 1.57662 0
M  V30 2204 O 205.648 0.801457 1.61173 0
M  V30 2205 H 202.023 0.554141 0.508362 0
M  V30 2206 H 203.994 2.68389 1.30422 0
M  V30 2207 C 202.743 1.91262 2.90369 0
M  V30 2208 H 202.066 2.77872 2.8745 0
M  V30 2209 H 203.506 2.11581 3.67436 0
M  V30 2210 C 201.965 0.677431 3.30019 0
M  V30 2211 O 202.495 -0.158799 4.01386 0
M  V30 2212 N 200.701 0.515851 2.85985 0
M  V30 2213 H 200.248 1.19744 2.28077 0
M  V30 2214 H 200.206 -0.309315 3.12875 0
M  V30 2215 N 203.978 -0.674533 1.42435 0
M  V30 2216 C 204.925 -1.78807 1.45934 0
M  V30 2217 C 205.895 -1.63157 0.311271 0
M  V30 2218 O 207.08 -1.83707 0.515383 0
M  V30 2219 C 204.22 -3.16839 1.36773 0
M  V30 2220 C 203.333 -3.43774 2.61617 0
M  V30 2221 C 202.468 -4.71536 2.44597 0
M  V30 2222 C 201.507 -4.91505 3.64814 0
M  V30 2223 N 200.644 -6.10508 3.46734 0
M  V30 2224 H 205.484 -1.75151 2.41093 0
M  V30 2225 H 203.021 -0.85504 1.19697 0
M  V30 2226 H 204.979 -3.96606 1.29459 0
M  V30 2227 H 203.609 -3.19619 0.452089 0
M  V30 2228 H 202.661 -2.58259 2.79297 0
M  V30 2229 H 203.973 -3.54423 3.50978 0
M  V30 2230 H 203.127 -5.59393 2.3487 0
M  V30 2231 H 201.866 -4.6317 1.52726 0
M  V30 2232 H 200.871 -4.0209 3.74972 0
M  V30 2233 H 202.096 -5.01716 4.57665 0
M  V30 2234 H 200.042 -6.03315 2.5758 0
M  V30 2235 H 199.959 -6.2202 4.29682 0
M  V30 2236 H 201.227 -7.01044 3.40819 0
M  V30 2237 N 205.456 -1.28612 -0.910864 0
M  V30 2238 C 206.366 -1.14643 -2.0468 0
M  V30 2239 C 207.382 -0.0723121 -1.7385 0
M  V30 2240 O 208.558 -0.282178 -1.99413 0
M  V30 2241 C 205.623 -0.812561 -3.37044 0
M  V30 2242 C 204.684 -1.96935 -3.81465 0
M  V30 2243 C 203.917 -1.65131 -5.07511 0
M  V30 2244 O 204.14 -0.567013 -5.67575 0
M  V30 2245 O 203.074 -2.49585 -5.47714 0
M  V30 2246 H 206.9 -2.1001 -2.19384 0
M  V30 2247 H 204.485 -1.07958 -1.03274 0
M  V30 2248 H 206.367 -0.640441 -4.16505 0
M  V30 2249 H 205.042 0.111426 -3.23508 0
M  V30 2250 H 203.949 -2.19664 -3.02818 0
M  V30 2251 H 205.282 -2.87414 -3.99567 0
M  V30 2252 N 206.934 1.1197 -1.10907 0
M  V30 2253 C 207.881 2.17846 -0.762345 0
M  V30 2254 C 208.851 1.63995 0.263599 0
M  V30 2255 O 210.036 1.90273 0.141773 0
M  V30 2256 C 207.176 3.44487 -0.205651 0
M  V30 2257 C 206.289 4.12369 -1.28748 0
M  V30 2258 C 205.424 5.26674 -0.691919 0
M  V30 2259 C 204.463 5.86431 -1.75399 0
M  V30 2260 N 203.6 6.92142 -1.17833 0
M  V30 2261 H 208.44 2.46851 -1.6694 0
M  V30 2262 H 205.977 1.21188 -0.833776 0
M  V30 2263 H 207.935 4.16981 0.135037 0
M  V30 2264 H 206.565 3.15884 0.664613 0
M  V30 2265 H 205.617 3.38003 -1.74522 0
M  V30 2266 H 206.929 4.52844 -2.09125 0
M  V30 2267 H 206.083 6.05953 -0.300963 0
M  V30 2268 H 204.822 4.8749 0.143232 0
M  V30 2269 H 203.827 5.05835 -2.15432 0
M  V30 2270 H 205.052 6.27685 -2.59208 0
M  V30 2271 H 202.998 6.54985 -0.364725 0
M  V30 2272 H 202.915 7.31242 -1.91887 0
M  V30 2273 H 204.183 7.75237 -0.81408 0
M  V30 2274 N 208.412 0.89855 1.29475 0
M  V30 2275 C 209.36 0.365253 2.29714 0
M  V30 2276 C 210.354 -0.534993 1.6073 0
M  V30 2277 O 211.56 -0.417921 1.75081 0
M  V30 2278 H 207.935 0.0994853 0.74539 0
M  V30 2279 H 209.906 1.22406 2.72138 0
M  V30 2280 C 208.655 -0.393159 3.4547 0
M  V30 2281 H 207.978 0.290332 3.98744 0
M  V30 2282 H 209.418 -0.731189 4.17648 0
M  V30 2283 C 207.877 -1.59539 2.9673 0
M  V30 2284 O 208.407 -2.69469 2.97908 0
M  V30 2285 N 206.613 -1.43716 2.52575 0
M  V30 2286 H 206.16 -0.542828 2.51816 0
M  V30 2287 H 206.118 -2.24288 2.20323 0
M  V30 2288 N 209.89 -1.43072 0.660911 0
M  V30 2289 C 211.139 -2.00942 0.174735 0
M  V30 2290 C 211.452 -1.52797 -1.22117 0
M  V30 2291 O 212.658 -2.02991 -1.80297 0
M  V30 2292 C 211.114 -3.58948 0.261559 0
M  V30 2293 C 210.722 -4.16085 1.66064 0
M  V30 2294 C 212.466 -4.24173 -0.166617 0
M  V30 2295 C 210.373 -5.6641 1.70098 0
M  V30 2296 H 209.303 -0.751483 0.0615631 0
M  V30 2297 H 211.954 -1.63955 0.824069 0
M  V30 2298 H 210.336 -3.93372 -0.455421 0
M  V30 2299 H 211.51 -3.93147 2.40359 0
M  V30 2300 H 209.825 -3.6326 2.03546 0
M  V30 2301 H 212.422 -5.34471 -0.156433 0
M  V30 2302 H 212.765 -3.98647 -1.19943 0
M  V30 2303 H 213.298 -3.94659 0.498875 0
M  V30 2304 H 210.037 -5.96715 2.71315 0
M  V30 2305 H 209.557 -5.91382 1.00139 0
M  V30 2306 H 211.236 -6.30585 1.44816 0
M  V30 2307 N 211.368 -0.403325 -1.52352 0
M  V30 2308 C 212.298 0.416205 -2.29761 0
M  V30 2309 C 213.279 1.05123 -1.33728 0
M  V30 2310 O 214.464 1.06134 -1.62632 0
M  V30 2311 C 211.594 1.53624 -3.11475 0
M  V30 2312 C 210.548 1.02653 -4.15507 0
M  V30 2313 C 209.874 2.23971 -4.85532 0
M  V30 2314 C 211.174 0.08463 -5.22231 0
M  V30 2315 H 212.868 -0.229701 -2.98518 0
M  V30 2316 H 210.414 -0.111913 -1.43564 0
M  V30 2317 H 212.367 2.1165 -3.64393 0
M  V30 2318 H 211.091 2.20994 -2.40477 0
M  V30 2319 H 209.75 0.46871 -3.63591 0
M  V30 2320 H 209.398 2.89883 -4.11068 0
M  V30 2321 H 209.098 1.90521 -5.55856 0
M  V30 2322 H 210.622 2.82614 -5.41259 0
M  V30 2323 H 212.036 0.573509 -5.70424 0
M  V30 2324 H 210.433 -0.160783 -5.99885 0
M  V30 2325 H 211.503 -0.86237 -4.7717 0
M  V30 2326 N 212.846 1.57033 -0.133567 0
M  V30 2327 C 214.071 2.00475 0.531477 0
M  V30 2328 C 214.496 1.01291 1.58499 0
M  V30 2329 O 213.854 -0.0133279 1.81295 0
M  V30 2330 C 213.902 3.42729 1.12113 0
M  V30 2331 O 213.006 3.46498 2.23636 0
M  V30 2332 H 212.347 0.650876 0.131362 0
M  V30 2333 H 214.877 2.03344 -0.22634 0
M  V30 2334 H 214.887 3.81246 1.4531 0
M  V30 2335 H 213.562 4.14428 0.349557 0
M  V30 2336 H 212.139 3.19811 1.91769 0
M  V30 2337 N 214.325 -0.140222 1.56975 0
M  V30 2338 C 215.574 -0.850152 1.82908 0
M  V30 2339 C 215.887 -1.82028 0.715892 0
M  V30 2340 O 217.093 -2.57485 0.861016 0
M  V30 2341 C 215.549 -1.5625 3.24213 0
M  V30 2342 C 215.157 -0.63443 4.43485 0
M  V30 2343 C 216.901 -2.25881 3.59413 0
M  V30 2344 C 214.808 -1.34879 5.75814 0
M  V30 2345 H 213.738 -0.321221 0.682153 0
M  V30 2346 H 216.389 -0.102874 1.83211 0
M  V30 2347 H 214.771 -2.35565 3.18316 0
M  V30 2348 H 215.945 0.12398 4.60633 0
M  V30 2349 H 214.26 -0.0461836 4.16374 0
M  V30 2350 H 216.857 -2.79978 4.5554 0
M  V30 2351 H 217.2 -3.02693 2.85802 0
M  V30 2352 H 217.733 -1.53477 3.67001 0
M  V30 2353 H 214.472 -0.622385 6.52539 0
M  V30 2354 H 213.992 -2.07974 5.6259 0
M  V30 2355 H 215.671 -1.88784 6.18845 0
M  V30 2356 N 215.803 -1.52179 -0.40978 0
M  V30 2357 C 217.031 -1.70054 -1.17853 0
M  V30 2358 C 217.446 -0.409735 -1.843 0
M  V30 2359 O 216.803 0.614183 -1.71855 0
M  V30 2360 C 216.854 -2.83568 -2.24213 0
M  V30 2361 O 216.575 -4.0765 -1.60478 0
M  V30 2362 C 218.076 -3.12947 -3.13973 0
M  V30 2363 H 215.296 -0.569917 -0.354169 0
M  V30 2364 H 217.84 -1.98734 -0.482198 0
M  V30 2365 H 215.995 -2.57409 -2.89516 0
M  V30 2366 H 216.409 -4.70899 -2.30986 0
M  V30 2367 H 217.883 -3.95889 -3.84677 0
M  V30 2368 H 218.36 -2.26472 -3.76307 0
M  V30 2369 H 218.966 -3.40868 -2.5434 0
M  V30 2370 N 217.281 0.66697 -1.42791 0
M  V30 2371 C 218.558 1.4234 -1.34159 0
M  V30 2372 C 218.938 2.11093 0.0172729 0
M  V30 2373 O 218.286 2.03808 1.03318 0
M  V30 2374 C 218.496 2.41942 -2.51526 0
M  V30 2375 C 219.844 3.06353 -2.93995 0
M  V30 2376 O 220.868 2.52269 -2.51473 0
M  V30 2377 O 219.727 4.04376 -3.67617 0
M  V30 2378 H 216.821 0.635277 -0.529483 0
M  V30 2379 H 219.367 0.695034 -1.54814 0
M  V30 2380 H 218.139 1.89991 -3.42081 0
M  V30 2381 H 217.762 3.22249 -2.32898 0
M  V30 2382 N 218.759 1.29093 0.90403 0
M  V30 2383 C 219.987 1.19689 1.68766 0
M  V30 2384 C 220.402 -0.243113 1.87228 0
M  V30 2385 O 219.759 -1.16326 1.40621 0
M  V30 2386 C 219.81 1.90144 3.07453 0
M  V30 2387 O 219.531 3.2852 2.89838 0
M  V30 2388 C 221.032 1.87162 4.01852 0
M  V30 2389 H 218.252 0.415035 0.527244 0
M  V30 2390 H 220.796 1.7039 1.13082 0
M  V30 2391 H 218.951 1.43289 3.59926 0
M  V30 2392 H 219.365 3.63944 3.77684 0
M  V30 2393 H 220.839 2.41032 4.96596 0
M  V30 2394 H 221.316 0.84617 4.30972 0
M  V30 2395 H 221.922 2.33741 3.5531 0
M  V30 2396 N 220.237 -1.11381 1.11499 0
M  V30 2397 C 221.485 -1.8277 0.862524 0
M  V30 2398 C 221.806 -1.85097 -0.613534 0
M  V30 2399 O 221.076 -1.32198 -1.4457 0
M  V30 2400 H 219.656 -0.676823 0.316101 0
M  V30 2401 H 222.318 -1.34816 1.4075 0
M  V30 2402 H 221.414 -2.86614 1.23527 0
M  V30 2403 N 221.715 -0.905404 -1.28997 0
M  V30 2404 C 222.964 -0.530191 -1.94607 0
M  V30 2405 C 223.277 0.929185 -1.72121 0
M  V30 2406 O 224.483 1.41218 -2.31883 0
M  V30 2407 C 222.939 -0.897333 -3.48534 0
M  V30 2408 C 222.547 -2.37587 -3.79811 0
M  V30 2409 C 224.291 -0.592304 -4.20347 0
M  V30 2410 C 222.198 -2.68357 -5.27009 0
M  V30 2411 H 221.128 -0.194558 -0.728466 0
M  V30 2412 H 223.779 -1.10318 -1.46636 0
M  V30 2413 H 222.161 -0.253214 -3.9519 0
M  V30 2414 H 223.335 -3.06602 -3.43994 0
M  V30 2415 H 221.65 -2.6505 -3.2115 0
M  V30 2416 H 224.247 -0.798975 -5.28697 0
M  V30 2417 H 224.59 0.469474 -4.13644 0
M  V30 2418 H 225.123 -1.19452 -3.79442 0
M  V30 2419 H 221.862 -3.73355 -5.38782 0
M  V30 2420 H 221.382 -2.03971 -5.64053 0
M  V30 2421 H 223.061 -2.54922 -5.94663 0
M  V30 2422 N 223.193 1.4272 -0.668489 0
M  V30 2423 C 224.441 2.01226 -0.187769 0
M  V30 2424 C 224.762 1.53092 1.2078 0
M  V30 2425 O 224.032 0.74993 1.80977 0
M  V30 2426 H 222.612 0.744041 -0.0664272 0
M  V30 2427 H 225.274 1.74723 -0.863583 0
M  V30 2428 H 224.37 3.11556 -0.184166 0
M  V30 2429 N 224.671 0.411399 1.52136 0
M  V30 2430 C 225.604 -0.457614 2.23565 0
M  V30 2431 C 226.582 -1.04613 1.24478 0
M  V30 2432 O 227.766 -1.09356 1.53536 0
M  V30 2433 C 224.893 -1.6354 2.96602 0
M  V30 2434 C 223.939 -1.17005 4.10137 0
M  V30 2435 S 224.772 -0.13333 5.35334 0
M  V30 2436 C 225.928 -1.31638 6.119 0
M  V30 2437 H 226.161 0.148883 2.96927 0
M  V30 2438 H 223.694 0.195713 1.53155 0
M  V30 2439 H 225.652 -2.31074 3.39286 0
M  V30 2440 H 224.313 -2.21324 2.22878 0
M  V30 2441 H 223.506 -2.05005 4.60422 0
M  V30 2442 H 223.108 -0.573319 3.6958 0
M  V30 2443 H 225.4 -2.23957 6.39413 0
M  V30 2444 H 226.343 -0.854014 7.02931 0
M  V30 2445 H 226.751 -1.54321 5.42997 0
M  V30 2446 N 226.149 -1.5696 0.141893 0
M  V30 2447 C 227.377 -2.00322 -0.517579 0
M  V30 2448 C 227.792 -1.02193 -1.58752 0
M  V30 2449 O 227.149 -0.0181619 -1.82491 0
M  V30 2450 C 227.2 -3.43618 -1.12289 0
M  V30 2451 O 226.921 -4.37995 -0.0956929 0
M  V30 2452 C 228.422 -4.02231 -1.86347 0
M  V30 2453 H 225.642 -0.657243 -0.135177 0
M  V30 2454 H 228.186 -2.03146 0.234973 0
M  V30 2455 H 226.341 -3.41662 -1.82609 0
M  V30 2456 H 226.755 -5.21729 -0.538469 0
M  V30 2457 H 228.229 -5.04509 -2.23997 0
M  V30 2458 H 228.706 -3.42655 -2.74744 0
M  V30 2459 H 229.312 -4.07802 -1.20737 0
M  V30 2460 N 227.627 0.131896 -1.57047 0
M  V30 2461 C 228.574 1.16236 -1.99393 0
M  V30 2462 C 229.544 1.41863 -0.863943 0
M  V30 2463 O 230.729 1.53946 -1.12718 0
M  V30 2464 C 227.869 2.48708 -2.39245 0
M  V30 2465 C 226.982 2.30127 -3.65603 0
M  V30 2466 C 226.117 3.55738 -3.94492 0
M  V30 2467 C 225.156 3.32259 -5.14073 0
M  V30 2468 N 224.293 4.50039 -5.38896 0
M  V30 2469 H 229.133 0.794251 -2.87221 0
M  V30 2470 H 226.67 0.380707 -1.42088 0
M  V30 2471 H 228.628 3.25969 -2.60384 0
M  V30 2472 H 227.258 2.83437 -1.54478 0
M  V30 2473 H 226.31 1.43845 -3.52154 0
M  V30 2474 H 227.622 2.08746 -4.5302 0
M  V30 2475 H 226.776 4.41423 -4.1621 0
M  V30 2476 H 225.515 3.80138 -3.05526 0
M  V30 2477 H 224.52 2.44963 -4.92212 0
M  V30 2478 H 225.745 3.09242 -6.04604 0
M  V30 2479 H 223.691 4.74584 -4.52886 0
M  V30 2480 H 223.608 4.31716 -6.2061 0
M  V30 2481 H 224.876 5.36895 -5.65123 0
M  V30 2482 N 229.106 1.52395 0.401703 0
M  V30 2483 C 230.352 1.67065 1.14966 0
M  V30 2484 C 230.685 0.403052 1.89971 0
M  V30 2485 O 229.96 -0.598774 1.85054 0
M  V30 2486 C 230.243 2.8975 2.13815 0
M  V30 2487 C 230.096 4.26578 1.42658 0
M  V30 2488 C 231.415 3.07965 3.14397 0
M  V30 2489 H 228.534 0.607968 0.416587 0
M  V30 2490 H 231.176 1.84965 0.434511 0
M  V30 2491 H 229.326 2.74619 2.74803 0
M  V30 2492 H 230.998 4.53451 0.847329 0
M  V30 2493 H 229.241 4.27639 0.72849 0
M  V30 2494 H 229.912 5.08483 2.14823 0
M  V30 2495 H 232.388 3.22043 2.63491 0
M  V30 2496 H 231.264 3.95308 3.80819 0
M  V30 2497 H 231.525 2.21611 3.82545 0
M  V30 2498 N 230.584 -0.659388 1.43143 0
M  V30 2499 C 231.861 -1.41627 1.34912 0
M  V30 2500 C 232.241 -2.11099 -0.00607785 0
M  V30 2501 O 231.589 -2.04353 -1.02236 0
M  V30 2502 C 231.799 -2.40604 2.52805 0
M  V30 2503 C 233.147 -3.04789 2.95616 0
M  V30 2504 O 234.171 -2.50932 2.52807 0
M  V30 2505 O 233.03 -4.02421 3.69756 0
M  V30 2506 H 230.124 -0.63246 0.532844 0
M  V30 2507 H 232.67 -0.686814 1.5518 0
M  V30 2508 H 231.442 -1.88174 3.43083 0
M  V30 2509 H 231.065 -3.21009 2.34604 0
M  V30 2510 N 232.062 -1.29571 -0.897171 0
M  V30 2511 C 232.992 -1.17473 -2.01798 0
M  V30 2512 C 233.973 -0.068323 -1.69963 0
M  V30 2513 O 235.158 -0.248239 -1.92607 0
M  V30 2514 C 232.288 -0.853099 -3.36659 0
M  V30 2515 C 231.242 -1.9161 -3.82713 0
M  V30 2516 C 230.568 -1.44773 -5.14728 0
M  V30 2517 C 231.868 -3.32535 -4.02763 0
M  V30 2518 H 233.562 -2.11237 -2.12177 0
M  V30 2519 H 231.108 -1.01699 -1.01948 0
M  V30 2520 H 233.061 -0.755165 -4.14578 0
M  V30 2521 H 231.785 0.120236 -3.26379 0
M  V30 2522 H 230.444 -2.00346 -3.07013 0
M  V30 2523 H 230.092 -0.462995 -5.00865 0
M  V30 2524 H 229.792 -2.15865 -5.46513 0
M  V30 2525 H 231.316 -1.36334 -5.95185 0
M  V30 2526 H 232.73 -3.26626 -4.71156 0
M  V30 2527 H 231.127 -4.01607 -4.45905 0
M  V30 2528 H 232.197 -3.75326 -3.07016 0
M  V30 2529 N 233.54 1.10788 -1.12088 0
M  V30 2530 C 234.789 1.82036 -0.868659 0
M  V30 2531 C 235.102 1.85929 0.607426 0
M  V30 2532 O 236.308 2.53346 0.97613 0
M  V30 2533 C 234.764 3.26951 -1.50435 0
M  V30 2534 C 234.372 3.31367 -3.01496 0
M  V30 2535 C 236.116 4.03053 -1.33225 0
M  V30 2536 C 234.023 4.7072 -3.58017 0
M  V30 2537 H 232.953 0.682108 -0.321318 0
M  V30 2538 H 235.604 1.24618 -1.34694 0
M  V30 2539 H 233.986 3.84343 -0.953735 0
M  V30 2540 H 235.16 2.83819 -3.6302 0
M  V30 2541 H 233.475 2.6875 -3.18061 0
M  V30 2542 H 236.072 5.05981 -1.72878 0
M  V30 2543 H 236.415 4.15387 -0.275529 0
M  V30 2544 H 236.948 3.52066 -1.85188 0
M  V30 2545 H 233.687 4.63585 -4.63432 0
M  V30 2546 H 233.207 5.1865 -3.01268 0
M  V30 2547 H 234.886 5.39685 -3.56859 0
M  V30 2548 N 235.018 0.912232 1.28515 0
M  V30 2549 C 235.966 0.389597 2.29314 0
M  V30 2550 C 236.96 -0.517915 1.61289 0
M  V30 2551 O 238.166 -0.399328 1.75515 0
M  V30 2552 H 234.541 0.107386 0.744293 0
M  V30 2553 H 236.512 1.25286 2.70825 0
M  V30 2554 C 235.261 -0.356496 3.45868 0
M  V30 2555 H 234.584 0.332608 3.98414 0
M  V30 2556 H 236.024 -0.686851 4.184 0
M  V30 2557 C 234.483 -1.56383 2.98406 0
M  V30 2558 O 235.013 -2.66294 3.00749 0
M  V30 2559 N 233.219 -1.41029 2.54085 0
M  V30 2560 H 232.766 -0.516089 2.52377 0
M  V30 2561 H 232.724 -2.21939 2.22689 0
M  V30 2562 N 236.496 -1.42363 0.676048 0
M  V30 2563 C 237.444 -2.32596 -0.0131507 0
M  V30 2564 C 238.438 -1.49891 -0.789238 0
M  V30 2565 O 239.644 -1.65955 -0.697061 0
M  V30 2566 H 236.019 -0.751647 -0.0230481 0
M  V30 2567 H 237.99 -2.88421 0.765243 0
M  V30 2568 C 236.739 -3.34479 -0.949702 0
M  V30 2569 H 236.062 -3.98158 -0.361938 0
M  V30 2570 H 237.502 -4.00199 -1.4006 0
M  V30 2571 C 235.961 -2.66838 -2.05667 0
M  V30 2572 O 236.491 -2.50124 -3.14326 0
M  V30 2573 N 234.697 -2.25843 -1.82875 0
M  V30 2574 H 234.244 -2.39637 -0.945085 0
M  V30 2575 H 234.202 -1.80918 -2.5713 0
M  V30 2576 N 237.974 -0.419461 -1.51915 0
M  V30 2577 C 238.904 0.391813 -2.30189 0
M  V30 2578 C 239.885 1.03699 -1.34836 0
M  V30 2579 O 241.07 1.04403 -1.63748 0
M  V30 2580 C 238.2 1.50312 -3.13087 0
M  V30 2581 C 237.154 0.9824 -4.16573 0
M  V30 2582 C 236.48 2.18809 -4.8788 0
M  V30 2583 C 237.78 0.0292356 -5.22292 0
M  V30 2584 H 239.474 -0.26135 -2.98257 0
M  V30 2585 H 237.02 -0.127134 -1.43438 0
M  V30 2586 H 238.973 2.07773 -3.66617 0
M  V30 2587 H 237.697 2.18431 -2.42807 0
M  V30 2588 H 236.356 0.430119 -3.64068 0
M  V30 2589 H 236.004 2.85507 -4.14119 0
M  V30 2590 H 235.704 1.84615 -5.57845 0
M  V30 2591 H 237.228 2.76858 -5.44226 0
M  V30 2592 H 238.642 0.512976 -5.71 0
M  V30 2593 H 237.039 -0.2244 -5.9968 0
M  V30 2594 H 238.109 -0.912931 -4.76228 0
M  V30 2595 N 239.452 1.56882 -0.150215 0
M  V30 2596 C 240.7 1.9584 0.499105 0
M  V30 2597 C 241.021 1.03623 1.65188 0
M  V30 2598 O 240.291 0.0984084 1.95653 0
M  V30 2599 H 238.871 0.723119 0.187373 0
M  V30 2600 H 241.533 1.9358 -0.226466 0
M  V30 2601 H 240.629 2.99638 0.873122 0
M  V30 2602 N 240.93 -0.123565 1.57115 0
M  V30 2603 C 242.158 -0.846461 1.88793 0
M  V30 2604 C 242.573 -1.73652 0.740976 0
M  V30 2605 O 241.93 -1.80207 -0.288393 0
M  V30 2606 C 241.981 -1.6837 3.19897 0
M  V30 2607 O 241.702 -0.829477 4.30176 0
M  V30 2608 C 243.203 -2.51214 3.65248 0
M  V30 2609 H 240.423 -0.243573 0.625231 0
M  V30 2610 H 242.967 -0.109324 2.04208 0
M  V30 2611 H 241.122 -2.37364 3.06165 0
M  V30 2612 H 241.536 -1.40651 5.0529 0
M  V30 2613 H 243.01 -3.05497 4.59756 0
M  V30 2614 H 243.487 -3.28359 2.9168 0
M  V30 2615 H 244.093 -1.8747 3.81752 0
M  V30 2616 N 242.408 -1.52605 -0.393616 0
M  V30 2617 C 243.657 -1.66649 -1.13627 0
M  V30 2618 C 243.97 -0.410364 -1.91247 0
M  V30 2619 O 245.176 -0.430854 -2.68059 0
M  V30 2620 C 243.632 -2.9449 -2.06891 0
M  V30 2621 C 243.24 -4.27266 -1.34714 0
M  V30 2622 C 244.984 -3.17899 -2.81319 0
M  V30 2623 C 242.891 -5.46217 -2.26717 0
M  V30 2624 H 241.821 -0.62084 -0.427871 0
M  V30 2625 H 244.472 -1.791 -0.399428 0
M  V30 2626 H 242.854 -2.75774 -2.84191 0
M  V30 2627 H 244.028 -4.56518 -0.626714 0
M  V30 2628 H 242.343 -4.10081 -0.722643 0
M  V30 2629 H 244.94 -4.03949 -3.50328 0
M  V30 2630 H 245.283 -2.32777 -3.45139 0
M  V30 2631 H 245.816 -3.37159 -2.11113 0
M  V30 2632 H 242.555 -6.33733 -1.67521 0
M  V30 2633 H 242.075 -5.21283 -2.96689 0
M  V30 2634 H 243.754 -5.7991 -2.86903 0
M  V30 2635 N 243.887 0.651787 -1.4349 0
M  V30 2636 C 244.85 1.74647 -1.48429 0
M  V30 2637 C 245.85 1.56513 -0.368817 0
M  V30 2638 O 247.04 1.62385 -0.630623 0
M  V30 2639 C 244.172 3.13533 -1.33827 0
M  V30 2640 H 245.365 1.71649 -2.4592 0
M  V30 2641 H 242.918 0.863573 -1.30277 0
M  V30 2642 H 243.653 3.22142 -0.37349 0
M  V30 2643 H 243.438 3.28101 -2.14691 0
M  V30 2644 H 244.928 3.93356 -1.40218 0
M  V30 2645 N 245.365 1.30045 0.890287 0
M  V30 2646 C 246.312 1.15976 1.99545 0
M  V30 2647 C 247.282 0.0506202 1.66023 0
M  V30 2648 O 248.467 0.219847 1.89529 0
M  V30 2649 C 245.607 0.852054 3.34416 0
M  V30 2650 C 244.72 2.04255 3.80662 0
M  V30 2651 C 243.855 1.6734 5.04154 0
M  V30 2652 C 242.894 2.82916 5.42794 0
M  V30 2653 N 242.031 2.46333 6.57468 0
M  V30 2654 H 246.871 2.10524 2.10911 0
M  V30 2655 H 244.408 1.04749 1.03276 0
M  V30 2656 H 246.366 0.654296 4.12037 0
M  V30 2657 H 244.996 -0.0565502 3.2275 0
M  V30 2658 H 244.048 2.35172 2.98995 0
M  V30 2659 H 245.36 2.90826 4.05242 0
M  V30 2660 H 244.514 1.43908 5.89386 0
M  V30 2661 H 243.253 0.779308 4.81433 0
M  V30 2662 H 242.258 3.0702 4.56091 0
M  V30 2663 H 243.483 3.73004 5.6749 0
M  V30 2664 H 241.429 1.59423 6.36334 0
M  V30 2665 H 241.346 3.26436 6.81891 0
M  V30 2666 H 242.614 2.26244 7.45945 0
M  V30 2667 N 246.843 -1.10192 1.12674 0
M  V30 2668 C 248.068 -1.86523 0.906853 0
M  V30 2669 C 248.493 -1.80221 -0.538711 0
M  V30 2670 O 247.851 -1.17396 -1.38158 0
M  V30 2671 C 247.899 -3.32758 1.3894 0
M  V30 2672 O 247.003 -4.08449 0.5695 0
M  V30 2673 H 246.344 -0.578678 0.325619 0
M  V30 2674 H 248.874 -1.39203 1.49946 0
M  V30 2675 H 248.884 -3.83608 1.38958 0
M  V30 2676 H 247.559 -3.36661 2.44197 0
M  V30 2677 H 246.136 -3.67427 0.636528 0
M  V30 2678 N 248.321 -0.919034 -1.28029 0
M  V30 2679 C 249.569 -0.553838 -1.94363 0
M  V30 2680 C 249.89 0.906357 -1.72656 0
M  V30 2681 O 249.16 1.64143 -1.0693 0
M  V30 2682 H 247.74 -0.201834 -0.719216 0
M  V30 2683 H 250.402 -1.16954 -1.55909 0
M  V30 2684 H 249.498 -0.752758 -3.02886 0
M  V30 2685 N 249.799 1.42003 -0.683588 0
M  V30 2686 C 251.027 2.05746 -0.218182 0
M  V30 2687 C 251.442 1.51396 1.12804 0
M  V30 2688 O 250.799 0.657303 1.70252 0
M  V30 2689 C 250.85 3.61171 -0.154131 0
M  V30 2690 O 250.571 4.13508 -1.44716 0
M  V30 2691 C 252.072 4.42042 0.333713 0
M  V30 2692 H 249.292 0.662888 -0.10402 0
M  V30 2693 H 251.836 1.81987 -0.9328 0
M  V30 2694 H 249.991 3.84012 0.511231 0
M  V30 2695 H 250.405 5.07453 -1.32632 0
M  V30 2696 H 251.879 5.51028 0.327423 0
M  V30 2697 H 252.356 4.17269 1.37053 0
M  V30 2698 H 252.962 4.24239 -0.300222 0
M  V30 2699 N 251.277 0.427512 1.51691 0
M  V30 2700 C 252.502 -0.143601 2.06902 0
M  V30 2701 C 252.927 -1.36536 1.29382 0
M  V30 2702 O 252.285 -1.78289 0.329043 0
M  V30 2703 C 252.333 -0.454207 3.57728 0
M  V30 2704 O 251.437 -1.54228 3.82475 0
M  V30 2705 H 250.778 -0.00617128 0.663971 0
M  V30 2706 H 253.308 0.606014 1.95419 0
M  V30 2707 H 253.318 -0.707525 4.01818 0
M  V30 2708 H 251.993 0.438812 4.13579 0
M  V30 2709 H 250.57 -1.2797 3.50254 0
M  V30 2710 N 252.755 -1.56801 0.158532 0
M  V30 2711 C 253.703 -2.18638 -0.793729 0
M  V30 2712 C 254.697 -1.14669 -1.24689 0
M  V30 2713 O 255.903 -1.32895 -1.21403 0
M  V30 2714 H 252.278 -0.700226 -0.274204 0
M  V30 2715 H 254.249 -2.97367 -0.248095 0
M  V30 2716 C 252.998 -2.83139 -2.0181 0
M  V30 2717 H 252.321 -3.62863 -1.67841 0
M  V30 2718 H 253.761 -3.29894 -2.66357 0
M  V30 2719 C 252.22 -1.82244 -2.83353 0
M  V30 2720 O 252.75 -1.3 -3.80083 0
M  V30 2721 N 250.956 -1.51288 -2.48114 0
M  V30 2722 H 250.503 -1.93964 -1.69516 0
M  V30 2723 H 250.461 -0.840296 -3.02963 0
M  V30 2724 N 254.233 0.115231 -1.57178 0
M  V30 2725 C 255.48 0.822351 -1.8505 0
M  V30 2726 C 255.808 1.79701 -0.744168 0
M  V30 2727 O 255.063 1.93909 0.26414 0
M  V30 2728 C 255.362 1.60324 -3.19423 0
M  V30 2729 C 255.028 0.772536 -4.44233 0
M  V30 2730 C 253.69 0.543468 -4.78121 0
M  V30 2731 C 256.042 0.193746 -5.2084 0
M  V30 2732 C 253.37 -0.274583 -5.86057 0
M  V30 2733 C 255.722 -0.611517 -6.29637 0
M  V30 2734 C 254.386 -0.850867 -6.62055 0
M  V30 2735 H 253.656 0.30092 -0.677147 0
M  V30 2736 H 256.303 0.0845802 -1.91313 0
M  V30 2737 H 254.608 2.41203 -3.08753 0
M  V30 2738 H 256.305 2.1544 -3.38211 0
M  V30 2739 H 252.895 0.96117 -4.17683 0
M  V30 2740 H 257.079 0.357926 -4.95008 0
M  V30 2741 H 252.335 -0.469206 -6.09597 0
M  V30 2742 H 256.509 -1.06697 -6.88178 0
M  V30 2743 H 254.136 -1.48657 -7.45523 0
M  V30 2744 N 255.711 1.52812 0.385517 0
M  V30 2745 C 256.641 1.80808 1.47752 0
M  V30 2746 C 257.622 0.660318 1.5676 0
M  V30 2747 O 258.807 0.908246 1.71652 0
M  V30 2748 C 255.937 1.98008 2.85324 0
M  V30 2749 C 254.891 3.13709 2.91154 0
M  V30 2750 C 254.217 3.16169 4.31209 0
M  V30 2751 C 255.517 4.52709 2.60483 0
M  V30 2752 H 257.211 2.72253 1.24573 0
M  V30 2753 H 254.757 1.31003 0.597839 0
M  V30 2754 H 256.71 2.16176 3.61726 0
M  V30 2755 H 255.434 1.03255 3.09848 0
M  V30 2756 H 254.093 2.95329 2.17201 0
M  V30 2757 H 253.741 2.19092 4.52778 0
M  V30 2758 H 253.441 3.93894 4.36029 0
M  V30 2759 H 254.965 3.36496 5.09512 0
M  V30 2760 H 256.379 4.71173 3.26602 0
M  V30 2761 H 254.776 5.32528 2.76648 0
M  V30 2762 H 255.846 4.59186 1.55809 0
M  V30 2763 N 257.189 -0.644168 1.43834 0
M  V30 2764 C 258.099 -1.78563 1.52159 0
M  V30 2765 C 259.115 -1.69147 0.408069 0
M  V30 2766 O 260.291 -1.90156 0.663524 0
M  V30 2767 C 257.356 -3.14888 1.45073 0
M  V30 2768 C 256.417 -3.36034 2.6717 0
M  V30 2769 C 255.65 -4.65855 2.60413 0
M  V30 2770 O 255.873 -5.45805 1.65689 0
M  V30 2771 O 254.807 -4.88918 3.5106 0
M  V30 2772 H 258.633 -1.74494 2.48567 0
M  V30 2773 H 256.218 -0.80378 1.25935 0
M  V30 2774 H 258.1 -3.96179 1.43597 0
M  V30 2775 H 256.775 -3.19528 0.518037 0
M  V30 2776 H 255.682 -2.54472 2.74217 0
M  V30 2777 H 257.015 -3.36247 3.59442 0
M  V30 2778 N 258.668 -1.30515 -0.883378 0
M  V30 2779 C 259.631 -1.1701 -1.97082 0
M  V30 2780 C 260.631 -0.10089 -1.60483 0
M  V30 2781 O 261.821 -0.349127 -1.70666 0
M  V30 2782 C 258.953 -0.793045 -3.31547 0
M  V30 2783 H 260.146 -2.13622 -2.10489 0
M  V30 2784 H 257.699 -1.13935 -1.06998 0
M  V30 2785 H 258.434 0.172499 -3.23841 0
M  V30 2786 H 258.219 -1.56576 -3.5948 0
M  V30 2787 H 259.709 -0.722073 -4.1131 0
M  V30 2788 N 260.146 1.09593 -1.13257 0
M  V30 2789 C 261.395 1.81105 -0.887917 0
M  V30 2790 C 261.708 1.86563 0.587672 0
M  V30 2791 O 262.914 2.54367 0.949204 0
M  V30 2792 C 261.37 3.25338 -1.53895 0
M  V30 2793 C 260.978 3.28151 -3.04994 0
M  V30 2794 C 262.722 4.01617 -1.37492 0
M  V30 2795 C 260.629 4.66897 -3.6299 0
M  V30 2796 H 259.559 0.678661 -0.328534 0
M  V30 2797 H 262.21 1.23183 -1.36008 0
M  V30 2798 H 260.592 3.8331 -0.994446 0
M  V30 2799 H 261.766 2.79953 -3.66009 0
M  V30 2800 H 260.081 2.65361 -3.20893 0
M  V30 2801 H 262.678 5.04119 -1.78235 0
M  V30 2802 H 263.021 4.15072 -0.31957 0
M  V30 2803 H 263.554 3.50082 -1.88912 0
M  V30 2804 H 260.293 4.58643 -4.68323 0
M  V30 2805 H 259.813 5.15426 -3.06752 0
M  V30 2806 H 261.492 5.3587 -3.62563 0
M  V30 2807 N 261.624 0.925811 1.2754 0
M  V30 2808 C 262.849 0.580924 1.99098 0
M  V30 2809 C 263.274 -0.833555 1.68622 0
M  V30 2810 O 262.632 -1.55903 0.925422 0
M  V30 2811 C 262.68 0.811186 3.51358 0
M  V30 2812 O 261.784 -0.124129 4.12213 0
M  V30 2813 H 261.125 0.223873 0.625122 0
M  V30 2814 H 263.655 1.24455 1.62395 0
M  V30 2815 H 263.665 0.72601 4.01489 0
M  V30 2816 H 262.34 1.84227 3.72872 0
M  V30 2817 H 260.917 0.0108006 3.72898 0
M  V30 2818 N 263.102 -1.41638 0.69111 0
M  V30 2819 C 264.049 -2.30789 0.0229705 0
M  V30 2820 C 265.019 -1.46863 -0.775911 0
M  V30 2821 O 266.204 -1.75661 -0.74485 0
M  V30 2822 C 263.344 -3.32868 -0.910666 0
M  V30 2823 C 262.457 -4.31875 -0.103874 0
M  V30 2824 C 261.592 -5.21024 -1.03475 0
M  V30 2825 C 260.631 -6.11702 -0.220598 0
M  V30 2826 N 259.768 -6.93349 -1.10504 0
M  V30 2827 H 264.608 -2.87366 0.788978 0
M  V30 2828 H 262.145 -1.41535 0.400794 0
M  V30 2829 H 264.103 -3.90596 -1.46597 0
M  V30 2830 H 262.733 -2.77851 -1.64312 0
M  V30 2831 H 261.785 -3.76131 0.568285 0
M  V30 2832 H 263.097 -4.96003 0.527504 0
M  V30 2833 H 262.251 -5.83565 -1.65943 0
M  V30 2834 H 260.99 -4.57112 -1.69999 0
M  V30 2835 H 259.995 -5.48215 0.417187 0
M  V30 2836 H 261.22 -6.77668 0.440784 0
M  V30 2837 H 259.166 -6.3205 -1.75638 0
M  V30 2838 H 259.083 -7.54146 -0.529125 0
M  V30 2839 H 260.351 -7.60362 -1.71667 0
M  V30 2840 N 264.58 -0.43555 -1.51462 0
M  V30 2841 C 265.805 0.132627 -2.06976 0
M  V30 2842 C 266.23 1.35848 -1.30104 0
M  V30 2843 O 265.588 1.78112 -0.338493 0
M  V30 2844 C 265.636 0.43523 -3.57964 0
M  V30 2845 O 264.74 1.52198 -3.83288 0
M  V30 2846 H 264.081 0.00265 -0.663995 0
M  V30 2847 H 266.611 -0.616369 -1.95095 0
M  V30 2848 H 266.621 0.686206 -4.02188 0
M  V30 2849 H 265.296 -0.460739 -4.1334 0
M  V30 2850 H 263.873 1.2611 -3.50928 0
M  V30 2851 N 266.058 1.56714 -0.166846 0
M  V30 2852 C 267.306 1.96358 0.478305 0
M  V30 2853 C 267.627 1.0537 1.6408 0
M  V30 2854 O 266.897 0.119154 1.95537 0
M  V30 2855 H 265.477 0.725065 0.179692 0
M  V30 2856 H 268.139 1.93329 -0.246985 0
M  V30 2857 H 267.235 3.00547 0.841292 0
M  V30 2858 N 267.536 -0.106894 1.57237 0
M  V30 2859 C 268.784 -0.810921 1.85117 0
M  V30 2860 C 269.105 -1.7984 0.753827 0
M  V30 2861 O 268.375 -1.94649 -0.221056 0
M  V30 2862 H 266.955 -0.302466 0.683025 0
M  V30 2863 H 269.617 -0.0913324 1.94686 0
M  V30 2864 H 268.713 -1.34875 2.81452 0
M  V30 2865 N 269.014 -1.53014 -0.377408 0
M  V30 2866 C 270.291 -1.59215 -1.13622 0
M  V30 2867 C 270.671 -0.392407 -2.07421 0
M  V30 2868 O 270.019 0.618342 -2.19975 0
M  V30 2869 C 270.229 -2.93669 -1.88573 0
M  V30 2870 C 271.577 -3.47822 -2.43526 0
M  V30 2871 O 272.601 -2.9562 -1.98715 0
M  V30 2872 O 271.46 -4.39055 -3.25412 0
M  V30 2873 H 268.554 -0.642625 -0.52054 0
M  V30 2874 H 271.1 -1.65353 -0.381625 0
M  V30 2875 H 269.872 -3.7243 -1.20048 0
M  V30 2876 H 269.495 -2.90968 -2.70968 0
M  V30 2877 N 270.492 0.636531 -1.44174 0
M  V30 2878 C 271.425 1.76139 -1.45087 0
M  V30 2879 C 272.403 1.59611 -0.310326 0
M  V30 2880 O 273.587 1.81568 -0.506477 0
M  V30 2881 C 270.714 3.13648 -1.27839 0
M  V30 2882 C 269.76 3.48838 -2.45386 0
M  V30 2883 S 270.593 3.46927 -4.07924 0
M  V30 2884 C 271.749 4.87064 -3.9309 0
M  V30 2885 H 271.982 1.75096 -2.40268 0
M  V30 2886 H 269.515 0.810666 -1.31406 0
M  V30 2887 H 271.473 3.93002 -1.18575 0
M  V30 2888 H 270.134 3.12235 -0.341787 0
M  V30 2889 H 269.327 4.48886 -2.29167 0
M  V30 2890 H 268.929 2.76935 -2.51362 0
M  V30 2891 H 271.221 5.76153 -3.56446 0
M  V30 2892 H 272.164 5.08337 -4.92949 0
M  V30 2893 H 272.572 4.61384 -3.25246 0
M  V30 2894 N 271.97 1.30982 0.876444 0
M  V30 2895 C 273.195 1.23373 1.66715 0
M  V30 2896 C 273.62 -0.19885 1.87046 0
M  V30 2897 O 272.978 -1.1427 1.40756 0
M  V30 2898 C 273.026 1.97644 3.01611 0
M  V30 2899 O 272.13 1.30935 3.91062 0
M  V30 2900 H 271.471 0.426279 0.509099 0
M  V30 2901 H 274.001 1.72944 1.09323 0
M  V30 2902 H 274.011 2.06992 3.51594 0
M  V30 2903 H 272.686 3.01829 2.86133 0
M  V30 2904 H 271.263 1.29996 3.49507 0
M  V30 2905 N 273.449 -1.08991 1.13837 0
M  V30 2906 C 274.379 -2.17771 0.842507 0
M  V30 2907 C 275.36 -1.6892 -0.20001 0
M  V30 2908 O 276.545 -1.94113 -0.0579731 0
M  V30 2909 C 273.675 -3.4589 0.312644 0
M  V30 2910 C 272.629 -4.08099 1.28992 0
M  V30 2911 C 271.955 -5.31098 0.619623 0
M  V30 2912 C 273.255 -4.50077 2.65005 0
M  V30 2913 H 274.949 -2.42777 1.75213 0
M  V30 2914 H 272.495 -1.16682 0.843875 0
M  V30 2915 H 274.448 -4.21297 0.0933043 0
M  V30 2916 H 273.172 -3.20419 -0.632382 0
M  V30 2917 H 271.831 -3.34717 1.49533 0
M  V30 2918 H 271.479 -5.0191 -0.33102 0
M  V30 2919 H 271.179 -5.73674 1.27167 0
M  V30 2920 H 272.703 -6.09224 0.409669 0
M  V30 2921 H 274.117 -5.16688 2.48407 0
M  V30 2922 H 272.514 -5.03553 3.26427 0
M  V30 2923 H 273.584 -3.62257 3.22332 0
M  V30 2924 N 274.927 -0.932562 -1.27047 0
M  V30 2925 C 276.176 -0.571351 -1.93439 0
M  V30 2926 C 276.489 0.892467 -1.74053 0
M  V30 2927 O 277.695 1.36267 -2.34826 0
M  V30 2928 C 276.151 -0.97106 -3.46552 0
M  V30 2929 C 275.759 -2.4559 -3.74686 0
M  V30 2930 C 277.503 -0.681333 -4.18997 0
M  V30 2931 C 275.41 -2.79475 -5.21198 0
M  V30 2932 H 274.34 -0.209966 -0.724176 0
M  V30 2933 H 276.991 -1.13403 -1.44263 0
M  V30 2934 H 275.373 -0.336983 -3.94564 0
M  V30 2935 H 276.547 -3.13829 -3.37414 0
M  V30 2936 H 274.862 -2.71802 -3.15456 0
M  V30 2937 H 277.459 -0.910939 -5.26883 0
M  V30 2938 H 277.802 0.381628 -4.14547 0
M  V30 2939 H 278.335 -1.27473 -3.76823 0
M  V30 2940 H 275.074 -3.847 -5.30741 0
M  V30 2941 H 274.594 -2.1589 -5.596 0
M  V30 2942 H 276.273 -2.67478 -5.89122 0
M  V30 2943 N 276.405 1.4127 -0.698611 0
M  V30 2944 C 277.653 2.00782 -0.230409 0
M  V30 2945 C 277.974 1.5562 1.17505 0
M  V30 2946 O 277.244 0.78815 1.79346 0
M  V30 2947 H 275.824 0.742464 -0.0821944 0
M  V30 2948 H 278.486 1.72852 -0.90045 0
M  V30 2949 H 277.582 3.11095 -0.25021 0
M  V30 2950 N 277.883 0.443576 1.51229 0
M  V30 2951 C 278.815 -0.400608 2.25672 0
M  V30 2952 C 279.828 -0.980945 1.29928 0
M  V30 2953 O 281.017 -0.874024 1.55638 0
M  V30 2954 C 278.117 -1.57304 3.00181 0
M  V30 2955 C 277.29 -1.11046 4.23069 0
M  V30 2956 C 276.349 -2.15374 4.80105 0
M  V30 2957 O 275.375 -1.74554 5.41774 0
M  V30 2958 N 276.577 -3.47922 4.64683 0
M  V30 2959 H 279.342 0.23745 2.98758 0
M  V30 2960 H 276.903 0.272809 1.59585 0
M  V30 2961 H 278.895 -2.26733 3.35223 0
M  V30 2962 H 277.465 -2.11632 2.30066 0
M  V30 2963 H 276.685 -0.243019 3.9345 0
M  V30 2964 H 277.973 -0.778888 5.02803 0
M  V30 2965 H 277.371 -3.83815 4.15575 0
M  V30 2966 H 275.928 -4.13228 5.0407 0
M  V30 2967 N 279.361 -1.56624 0.175154 0
M  V30 2968 C 280.608 -1.96999 -0.468811 0
M  V30 2969 C 280.936 -1.06129 -1.62994 0
M  V30 2970 O 280.191 -0.0961771 -1.95464 0
M  V30 2971 C 280.49 -3.43419 -0.989864 0
M  V30 2972 C 280.156 -4.50866 0.0557687 0
M  V30 2973 C 278.818 -4.79975 0.343134 0
M  V30 2974 C 281.17 -5.15551 0.765308 0
M  V30 2975 C 278.498 -5.71066 1.34536 0
M  V30 2976 C 280.85 -6.07724 1.75654 0
M  V30 2977 C 279.514 -6.35199 2.05132 0
M  V30 2978 H 278.784 -0.720869 -0.17155 0
M  V30 2979 H 281.431 -1.89616 0.267924 0
M  V30 2980 H 279.736 -3.47772 -1.80449 0
M  V30 2981 H 281.433 -3.72002 -1.49719 0
M  V30 2982 H 278.023 -4.28229 -0.178381 0
M  V30 2983 H 282.207 -4.9317 0.556513 0
M  V30 2984 H 277.463 -5.90635 1.57988 0
M  V30 2985 H 281.637 -6.56912 2.31169 0
M  V30 2986 H 279.264 -7.05584 2.8294 0
M  V30 2987 N 280.839 0.0985539 -1.57292 0
M  V30 2988 C 282.087 0.801092 -1.85545 0
M  V30 2989 C 282.408 1.79438 -0.763353 0
M  V30 2990 O 281.678 1.94763 0.21073 0
M  V30 2991 H 280.258 0.29884 -0.684619 0
M  V30 2992 H 282.92 0.0810064 -1.94732 0
M  V30 2993 H 282.016 1.3338 -2.82163 0
M  V30 2994 N 282.317 1.53212 0.369288 0
M  V30 2995 C 283.563 1.69466 1.11397 0
M  V30 2996 C 283.896 0.443257 1.89074 0
M  V30 2997 O 283.171 -0.559386 1.86282 0
M  V30 2998 C 283.454 2.9422 2.07621 0
M  V30 2999 C 283.307 4.29508 1.33577 0
M  V30 3000 C 284.626 3.14565 3.07794 0
M  V30 3001 H 281.745 0.616667 0.403597 0
M  V30 3002 H 284.387 1.85845 0.395179 0
M  V30 3003 H 282.537 2.80387 2.68916 0
M  V30 3004 H 284.209 4.55147 0.750955 0
M  V30 3005 H 282.452 4.29088 0.637618 0
M  V30 3006 H 283.123 5.12926 2.03989 0
M  V30 3007 H 285.599 3.2756 2.56601 0
M  V30 3008 H 284.475 4.03297 3.72348 0
M  V30 3009 H 284.736 2.29675 3.77759 0
M  V30 3010 N 283.795 -0.628877 1.44509 0
M  V30 3011 C 285.043 -1.38565 1.4712 0
M  V30 3012 C 285.364 -1.94712 0.105899 0
M  V30 3013 O 284.634 -1.75912 -0.862079 0
M  V30 3014 H 283.214 -0.514333 0.541729 0
M  V30 3015 H 285.876 -0.740018 1.80305 0
M  V30 3016 H 284.972 -2.21583 2.19789 0
M  V30 3017 N 285.273 -1.31445 -0.869486 0
M  V30 3018 C 286.52 -1.21158 -1.62256 0
M  V30 3019 C 286.848 0.230155 -1.93133 0
M  V30 3020 O 286.103 1.17906 -1.56194 0
M  V30 3021 C 286.402 -2.00145 -2.96102 0
M  V30 3022 C 286.068 -3.4964 -2.84715 0
M  V30 3023 C 284.73 -3.90403 -2.81317 0
M  V30 3024 C 287.082 -4.44769 -2.71716 0
M  V30 3025 C 284.41 -5.24561 -2.62778 0
M  V30 3026 C 286.762 -5.79054 -2.54714 0
M  V30 3027 C 285.426 -6.19037 -2.49699 0
M  V30 3028 H 284.696 -0.443348 -0.593737 0
M  V30 3029 H 287.343 -1.62715 -1.00976 0
M  V30 3030 H 285.648 -1.5127 -3.6142 0
M  V30 3031 H 287.345 -1.89566 -3.53363 0
M  V30 3032 H 283.935 -3.17256 -2.88178 0
M  V30 3033 H 288.119 -4.14208 -2.73397 0
M  V30 3034 H 283.375 -5.54613 -2.57321 0
M  V30 3035 H 287.549 -6.52393 -2.43632 0
M  V30 3036 H 285.176 -7.22935 -2.35093 0
M  V30 3037 N 286.751 1.08385 -1.14413 0
M  V30 3038 C 287.981 1.8425 -0.934644 0
M  V30 3039 C 288.389 1.81907 0.520234 0
M  V30 3040 O 287.732 1.22126 1.37226 0
M  V30 3041 C 287.794 3.32853 -1.35828 0
M  V30 3042 C 287.458 3.5893 -2.82875 0
M  V30 3043 C 288.455 3.53756 -3.80989 0
M  V30 3044 C 286.14 3.86934 -3.20293 0
M  V30 3045 C 288.134 3.76216 -5.14529 0
M  V30 3046 C 285.821 4.09047 -4.54008 0
M  V30 3047 C 286.819 4.03682 -5.50936 0
M  V30 3048 O 286.507 4.25214 -6.82238 0
M  V30 3049 H 286.239 0.588502 -0.332628 0
M  V30 3050 H 288.793 1.37792 -1.52324 0
M  V30 3051 H 287.023 3.8007 -0.713019 0
M  V30 3052 H 288.712 3.90154 -1.11957 0
M  V30 3053 H 289.478 3.32135 -3.53428 0
M  V30 3054 H 285.357 3.9023 -2.45442 0
M  V30 3055 H 288.901 3.71943 -5.90173 0
M  V30 3056 H 284.798 4.30151 -4.8129 0
M  V30 3057 H 285.566 4.42619 -6.88499 0
M  V30 3058 N 288.23 0.939286 1.26551 0
M  V30 3059 C 289.455 0.602008 1.98471 0
M  V30 3060 C 289.88 -0.815624 1.69497 0
M  V30 3061 O 289.238 -1.54912 0.941905 0
M  V30 3062 C 289.286 0.848407 3.50477 0
M  V30 3063 O 288.39 -0.0804009 4.12322 0
M  V30 3064 H 287.731 0.23049 0.622712 0
M  V30 3065 H 290.261 1.2617 1.61066 0
M  V30 3066 H 290.271 0.768553 4.00696 0
M  V30 3067 H 288.946 1.88171 3.70897 0
M  V30 3068 H 287.523 0.0503508 3.72866 0
M  V30 3069 N 289.708 -1.40897 0.706093 0
M  V30 3070 C 290.671 -2.29131 0.0562841 0
M  V30 3071 C 291.671 -1.44901 -0.697166 0
M  V30 3072 O 292.861 -1.65926 -0.530484 0
M  V30 3073 C 289.993 -3.27957 -0.93043 0
M  V30 3074 H 291.186 -2.88091 0.833284 0
M  V30 3075 H 288.739 -1.4906 0.470192 0
M  V30 3076 H 289.474 -2.73997 -1.73482 0
M  V30 3077 H 289.259 -3.90124 -0.393166 0
M  V30 3078 H 290.749 -3.94049 -1.38256 0
M  V30 3079 N 291.186 -0.45159 -1.50991 0
M  V30 3080 C 292.433 0.110074 -2.02201 0
M  V30 3081 C 292.761 1.4146 -1.33489 0
M  V30 3082 O 292.016 1.90617 -0.443125 0
M  V30 3083 C 292.315 0.361728 -3.55565 0
M  V30 3084 C 291.981 -0.858717 -4.42648 0
M  V30 3085 C 290.643 -1.19338 -4.66167 0
M  V30 3086 C 292.995 -1.67221 -4.93646 0
M  V30 3087 C 290.323 -2.34195 -5.37931 0
M  V30 3088 C 292.675 -2.8119 -5.6667 0
M  V30 3089 C 291.339 -3.15094 -5.88449 0
M  V30 3090 H 290.609 0.040279 -0.739904 0
M  V30 3091 H 293.256 -0.601696 -1.81802 0
M  V30 3092 H 291.561 1.15554 -3.74372 0
M  V30 3093 H 293.258 0.80996 -3.92735 0
M  V30 3094 H 289.848 -0.58796 -4.24548 0
M  V30 3095 H 294.032 -1.42686 -4.75347 0
M  V30 3096 H 289.288 -2.6076 -5.53005 0
M  V30 3097 H 293.462 -3.44585 -6.05173 0
M  V30 3098 H 291.089 -4.04204 -6.43835 0
M  V30 3099 N 292.664 1.56529 -0.183458 0
M  V30 3100 C 293.594 2.21549 0.737456 0
M  V30 3101 C 294.575 1.17489 1.23005 0
M  V30 3102 O 295.76 1.45959 1.281 0
M  V30 3103 C 292.89 2.86575 1.96194 0
M  V30 3104 C 291.844 3.96778 1.60473 0
M  V30 3105 C 291.17 4.48911 2.90487 0
M  V30 3106 C 292.47 5.15767 0.823497 0
M  V30 3107 H 294.164 2.98761 0.195453 0
M  V30 3108 H 291.71 1.43702 0.0925686 0
M  V30 3109 H 293.663 3.30739 2.61131 0
M  V30 3110 H 292.387 2.06749 2.52828 0
M  V30 3111 H 291.046 3.53286 0.978997 0
M  V30 3112 H 290.694 3.65862 3.45186 0
M  V30 3113 H 290.394 5.23265 2.67335 0
M  V30 3114 H 291.918 4.95771 3.56432 0
M  V30 3115 H 293.332 5.56549 1.37571 0
M  V30 3116 H 291.729 5.96114 0.690551 0
M  V30 3117 H 292.799 4.84574 -0.177782 0
M  V30 3118 N 294.142 -0.090211 1.57342 0
M  V30 3119 C 295.388 -0.793982 1.86611 0
M  V30 3120 C 295.721 -1.78142 0.773252 0
M  V30 3121 O 294.996 -1.93271 -0.218304 0
M  V30 3122 C 295.279 -1.51839 3.26523 0
M  V30 3123 C 295.132 -0.548609 4.46442 0
M  V30 3124 C 296.451 -2.46779 3.64401 0
M  V30 3125 H 293.57 -0.287186 0.678744 0
M  V30 3126 H 296.212 -0.0575076 1.89913 0
M  V30 3127 H 294.362 -2.14617 3.23839 0
M  V30 3128 H 296.034 0.0725513 4.61243 0
M  V30 3129 H 294.277 0.137614 4.33582 0
M  V30 3130 H 294.948 -1.09271 5.41076 0
M  V30 3131 H 297.424 -1.94089 3.68061 0
M  V30 3132 H 296.3 -2.94479 4.63221 0
M  V30 3133 H 296.561 -3.30758 2.93346 0
M  V30 3134 N 295.62 -1.53406 -0.361157 0
M  V30 3135 C 296.583 -1.79479 -1.42548 0
M  V30 3136 C 297.583 -0.665327 -1.4639 0
M  V30 3137 O 298.773 -0.933549 -1.47073 0
M  V30 3138 C 295.905 -1.92087 -2.8163 0
M  V30 3139 H 297.098 -2.74538 -1.20701 0
M  V30 3140 H 294.651 -1.4455 -0.594546 0
M  V30 3141 H 295.386 -0.991099 -3.08784 0
M  V30 3142 H 295.171 -2.74241 -2.80239 0
M  V30 3143 H 296.661 -2.13836 -3.58697 0
M  V30 3144 N 297.098 0.621204 -1.44841 0
M  V30 3145 C 298.375 1.38 -1.38619 0
M  V30 3146 C 298.755 2.11041 -0.0498935 0
M  V30 3147 O 298.103 2.06992 0.967816 0
M  V30 3148 C 298.313 2.33817 -2.59096 0
M  V30 3149 C 299.661 2.96844 -3.03593 0
M  V30 3150 O 300.685 2.44141 -2.59371 0
M  V30 3151 O 299.544 3.92476 -3.80296 0
M  V30 3152 H 296.638 0.61811 -0.549426 0
M  V30 3153 H 299.184 0.645429 -1.56947 0
M  V30 3154 H 297.956 1.79012 -3.47952 0
M  V30 3155 H 297.579 3.14676 -2.43032 0
M  V30 3156 N 298.576 1.31904 0.862503 0
M  V30 3157 C 299.523 1.20182 1.9704 0
M  V30 3158 C 300.493 0.0858247 1.65878 0
M  V30 3159 O 301.678 0.26 1.8902 0
M  V30 3160 C 298.818 0.922797 3.32533 0
M  V30 3161 C 297.931 2.12284 3.76244 0
M  V30 3162 C 297.066 1.77996 5.00491 0
M  V30 3163 C 296.105 2.94366 5.36671 0
M  V30 3164 N 295.242 2.60223 6.52095 0
M  V30 3165 H 300.082 2.14951 2.06398 0
M  V30 3166 H 297.619 1.06917 1.01031 0
M  V30 3167 H 299.577 0.741548 4.10557 0
M  V30 3168 H 298.207 0.0119227 3.22798 0
M  V30 3169 H 297.259 2.41461 2.9394 0
M  V30 3170 H 298.571 2.99357 3.98982 0
M  V30 3171 H 297.725 1.56377 5.862 0
M  V30 3172 H 296.464 0.881252 4.79672 0
M  V30 3173 H 295.469 3.16625 4.49476 0
M  V30 3174 H 296.694 3.84957 5.59451 0
M  V30 3175 H 294.64 1.72884 6.32809 0
M  V30 3176 H 294.557 3.40827 6.74814 0
M  V30 3177 H 295.825 2.42016 7.40978 0
M  V30 3178 N 300.054 -1.07777 1.14986 0
M  V30 3179 C 301.3 -1.80557 0.923422 0
M  V30 3180 C 301.633 -1.86298 -0.548337 0
M  V30 3181 O 300.908 -1.34354 -1.40639 0
M  V30 3182 C 301.191 -3.25839 1.53299 0
M  V30 3183 C 301.044 -3.28269 3.07505 0
M  V30 3184 C 302.363 -4.22991 1.21518 0
M  V30 3185 H 299.482 -0.655493 0.336894 0
M  V30 3186 H 302.124 -1.26144 1.42083 0
M  V30 3187 H 300.274 -3.72306 1.10999 0
M  V30 3188 H 301.946 -2.90079 3.58681 0
M  V30 3189 H 300.189 -2.67355 3.4162 0
M  V30 3190 H 300.86 -4.30691 3.45266 0
M  V30 3191 H 303.336 -3.84894 1.581 0
M  V30 3192 H 302.212 -5.22945 1.66793 0
M  V30 3193 H 302.473 -4.41904 0.131505 0
M  V30 3194 N 301.532 -0.945985 -1.26051 0
M  V30 3195 C 302.781 -0.591836 -1.92822 0
M  V30 3196 C 303.094 0.873956 -1.7499 0
M  V30 3197 O 304.3 1.33769 -2.36259 0
M  V30 3198 C 302.756 -1.00776 -3.45503 0
M  V30 3199 C 302.364 -2.4955 -3.7206 0
M  V30 3200 C 304.108 -0.725735 -4.1825 0
M  V30 3201 C 302.015 -2.84988 -5.18205 0
M  V30 3202 H 300.945 -0.217635 -0.721908 0
M  V30 3203 H 303.596 -1.14927 -1.43052 0
M  V30 3204 H 301.978 -0.378812 -3.94184 0
M  V30 3205 H 303.152 -3.1739 -3.34066 0
M  V30 3206 H 301.467 -2.75133 -3.12555 0
M  V30 3207 H 304.064 -0.966771 -5.25887 0
M  V30 3208 H 304.407 0.337639 -4.14929 0
M  V30 3209 H 304.94 -1.31463 -3.7545 0
M  V30 3210 H 301.679 -3.90307 -5.26631 0
M  V30 3211 H 301.199 -2.21813 -5.57278 0
M  V30 3212 H 302.878 -2.73712 -5.86252 0
M  V30 3213 N 303.011 1.40521 -0.713556 0
M  V30 3214 C 304.257 2.01221 -0.252564 0
M  V30 3215 C 304.59 1.56444 1.1506 0
M  V30 3216 O 303.865 0.783597 1.78017 0
M  V30 3217 C 304.148 3.58582 -0.330332 0
M  V30 3218 C 304.001 4.13437 -1.77173 0
M  V30 3219 C 305.32 4.39079 0.299641 0
M  V30 3220 H 302.439 0.731077 -0.0932471 0
M  V30 3221 H 305.081 1.67026 -0.905673 0
M  V30 3222 H 303.231 3.87844 0.225737 0
M  V30 3223 H 304.903 3.9498 -2.38303 0
M  V30 3224 H 303.146 3.67801 -2.3001 0
M  V30 3225 H 303.817 5.22597 -1.77755 0
M  V30 3226 H 306.293 4.15735 -0.174139 0
M  V30 3227 H 305.169 5.4848 0.214771 0
M  V30 3228 H 305.43 4.19915 1.38288 0
M  V30 3229 N 304.489 0.459591 1.5075 0
M  V30 3230 C 305.719 -0.0972338 2.06371 0
M  V30 3231 C 306.127 -1.35074 1.32483 0
M  V30 3232 O 305.47 -1.79637 0.384226 0
M  V30 3233 C 305.532 -0.462759 3.56509 0
M  V30 3234 C 305.196 0.687084 4.51805 0
M  V30 3235 C 306.193 1.56578 4.95761 0
M  V30 3236 C 303.878 0.874144 4.94635 0
M  V30 3237 C 305.872 2.61604 5.81242 0
M  V30 3238 C 303.559 1.92765 5.79901 0
M  V30 3239 C 304.557 2.79697 6.23104 0
M  V30 3240 O 304.245 3.83235 7.06673 0
M  V30 3241 H 303.977 -0.00140687 0.675999 0
M  V30 3242 H 306.531 0.644011 1.95043 0
M  V30 3243 H 304.761 -1.25703 3.65699 0
M  V30 3244 H 306.45 -0.953323 3.94546 0
M  V30 3245 H 307.216 1.4329 4.6335 0
M  V30 3246 H 303.095 0.207006 4.60535 0
M  V30 3247 H 306.639 3.29489 6.14884 0
M  V30 3248 H 302.536 2.06064 6.11725 0
M  V30 3249 H 303.304 3.80084 7.24899 0
M  V30 3250 N 305.967 -1.56429 0.191757 0
M  V30 3251 C 307.195 -2.01867 -0.453586 0
M  V30 3252 C 307.61 -1.07191 -1.5542 0
M  V30 3253 O 306.967 -0.0762108 -1.82341 0
M  V30 3254 C 307.018 -3.47017 -1.013 0
M  V30 3255 O 306.739 -4.38078 0.0437005 0
M  V30 3256 C 308.24 -4.07956 -1.73456 0
M  V30 3257 H 305.46 -0.661211 -0.114199 0
M  V30 3258 H 308.004 -2.02295 0.299483 0
M  V30 3259 H 306.159 -3.47298 -1.71647 0
M  V30 3260 H 306.573 -5.23178 -0.372212 0
M  V30 3261 H 308.047 -5.1138 -2.07833 0
M  V30 3262 H 308.524 -3.51222 -2.63704 0
M  V30 3263 H 309.13 -4.11437 -1.07702 0
M  V30 3264 N 307.445 0.0818655 -1.57387 0
M  V30 3265 C 308.392 1.09834 -2.0299 0
M  V30 3266 C 309.362 1.39043 -0.908639 0
M  V30 3267 O 310.547 1.50282 -1.17559 0
M  V30 3268 C 307.687 2.40971 -2.47037 0
M  V30 3269 C 306.8 2.18379 -3.7274 0
M  V30 3270 C 305.935 3.43008 -4.0561 0
M  V30 3271 C 304.974 3.15736 -5.24383 0
M  V30 3272 N 304.111 4.32667 -5.52941 0
M  V30 3273 H 308.951 0.702472 -2.89602 0
M  V30 3274 H 306.488 0.33531 -1.43227 0
M  V30 3275 H 308.446 3.1752 -2.70623 0
M  V30 3276 H 307.076 2.78379 -1.63417 0
M  V30 3277 H 306.128 1.32569 -3.56552 0
M  V30 3278 H 307.44 1.94227 -4.59431 0
M  V30 3279 H 306.594 4.27958 -4.30043 0
M  V30 3280 H 305.333 3.70225 -3.17466 0
M  V30 3281 H 304.338 2.2918 -4.99757 0
M  V30 3282 H 305.563 2.8985 -6.14136 0
M  V30 3283 H 303.509 4.59935 -4.67756 0
M  V30 3284 H 303.426 4.11753 -6.34031 0
M  V30 3285 H 304.694 5.18644 -5.81918 0
M  V30 3286 N 308.923 1.53595 0.353017 0
M  V30 3287 C 309.871 1.81605 1.45335 0
M  V30 3288 C 310.865 0.685923 1.54892 0
M  V30 3289 O 312.071 0.869095 1.57628 0
M  V30 3290 H 308.446 0.575204 0.484401 0
M  V30 3291 H 310.417 2.73679 1.18921 0
M  V30 3292 C 309.166 2.03406 2.81995 0
M  V30 3293 H 308.489 2.89814 2.75405 0
M  V30 3294 H 309.929 2.26975 3.58132 0
M  V30 3295 C 308.388 0.816794 3.26849 0
M  V30 3296 O 308.918 0.0115856 4.01698 0
M  V30 3297 N 307.124 0.636682 2.8354 0
M  V30 3298 H 306.671 1.2931 2.22793 0
M  V30 3299 H 306.629 -0.176336 3.13905 0
M  V30 3300 N 310.401 -0.613514 1.45168 0
M  V30 3301 C 311.349 -1.74572 1.53712 0
M  V30 3302 C 312.343 -1.64426 0.407505 0
M  V30 3303 O 313.549 -1.70291 0.583176 0
M  V30 3304 H 309.924 -0.576641 0.48269 0
M  V30 3305 H 311.895 -1.64492 2.48968 0
M  V30 3306 C 310.644 -3.12943 1.51532 0
M  V30 3307 H 309.967 -3.21407 2.37776 0
M  V30 3308 H 311.407 -3.9201 1.61569 0
M  V30 3309 C 309.866 -3.36053 0.238798 0
M  V30 3310 O 310.396 -3.95837 -0.6838 0
M  V30 3311 N 308.602 -2.9028 0.136359 0
M  V30 3312 H 308.149 -2.41811 0.887999 0
M  V30 3313 H 308.107 -3.06116 -0.716944 0
M  V30 3314 N 311.879 -1.3236 -0.855495 0
M  V30 3315 C 313.156 -1.13491 -1.59309 0
M  V30 3316 C 313.536 0.30503 -2.08885 0
M  V30 3317 O 312.884 1.30151 -1.87811 0
M  V30 3318 C 313.094 -2.16176 -2.73987 0
M  V30 3319 C 314.442 -2.49463 -3.43589 0
M  V30 3320 O 315.466 -2.14715 -2.84211 0
M  V30 3321 O 314.325 -3.09027 -4.50738 0
M  V30 3322 H 311.419 -0.437887 -0.701559 0
M  V30 3323 H 313.965 -1.43887 -0.899696 0
M  V30 3324 H 312.737 -3.1297 -2.34873 0
M  V30 3325 H 312.36 -1.86769 -3.51003 0
M  V30 3326 N 313.357 1.07166 -1.15556 0
M  V30 3327 C 314.634 1.76546 -0.842069 0
M  V30 3328 C 315.014 2.00453 0.661939 0
M  V30 3329 O 314.362 1.62452 1.60691 0
M  V30 3330 C 314.572 3.07266 -1.65495 0
M  V30 3331 C 315.92 3.81578 -1.86234 0
M  V30 3332 O 316.944 3.17083 -1.62287 0
M  V30 3333 O 315.803 4.97419 -2.26355 0
M  V30 3334 H 312.897 0.766756 -0.309862 0
M  V30 3335 H 315.443 1.13514 -1.26145 0
M  V30 3336 H 314.215 2.85494 -2.67598 0
M  V30 3337 H 313.838 3.7803 -1.23203 0
M  V30 3338 N 314.835 0.952656 1.25548 0
M  V30 3339 C 315.745 0.47782 2.29682 0
M  V30 3340 C 316.761 -0.453859 1.67977 0
M  V30 3341 O 317.937 -0.330587 1.98668 0
M  V30 3342 C 315.002 -0.238655 3.45878 0
M  V30 3343 C 314.063 0.730994 4.23031 0
M  V30 3344 C 313.296 0.0486165 5.33678 0
M  V30 3345 O 313.519 -1.16612 5.58353 0
M  V30 3346 O 312.453 0.733152 5.97418 0
M  V30 3347 H 316.279 1.34312 2.72386 0
M  V30 3348 H 313.864 0.719026 1.30959 0
M  V30 3349 H 315.746 -0.641774 4.16484 0
M  V30 3350 H 314.421 -1.07916 3.05181 0
M  V30 3351 H 313.328 1.18428 3.5486 0
M  V30 3352 H 314.661 1.53946 4.67506 0
M  V30 3353 N 316.313 -1.40141 0.720998 0
M  V30 3354 C 317.245 -2.29177 0.0324669 0
M  V30 3355 C 318.258 -1.46105 -0.718126 0
M  V30 3356 O 319.447 -1.69335 -0.564608 0
M  V30 3357 C 316.547 -3.24473 -0.978292 0
M  V30 3358 C 315.72 -4.36423 -0.292115 0
M  V30 3359 C 314.779 -5.12122 -1.20901 0
M  V30 3360 O 313.805 -5.64981 -0.691766 0
M  V30 3361 N 315.007 -5.21992 -2.53978 0
M  V30 3362 H 317.772 -2.88909 0.796984 0
M  V30 3363 H 315.333 -1.51569 0.569068 0
M  V30 3364 H 317.325 -3.71987 -1.59398 0
M  V30 3365 H 315.895 -2.65871 -1.64413 0
M  V30 3366 H 315.115 -3.90967 0.503847 0
M  V30 3367 H 316.403 -5.08467 0.183971 0
M  V30 3368 H 315.801 -4.8054 -2.98493 0
M  V30 3369 H 314.358 -5.72995 -3.10677 0
M  V30 3370 N 317.792 -0.46758 -1.50504 0
M  V30 3371 C 319.022 0.086288 -2.0642 0
M  V30 3372 C 319.43 1.34369 -1.33197 0
M  V30 3373 O 318.773 1.79431 -0.393747 0
M  V30 3374 C 318.835 0.443846 -3.5675 0
M  V30 3375 C 318.499 -0.711035 -4.51435 0
M  V30 3376 C 319.496 -1.59205 -4.94924 0
M  V30 3377 C 317.181 -0.900363 -4.94165 0
M  V30 3378 C 319.175 -2.64683 -5.79846 0
M  V30 3379 C 316.862 -1.95837 -5.7887 0
M  V30 3380 C 317.86 -2.82997 -6.21612 0
M  V30 3381 O 317.548 -3.86977 -7.0463 0
M  V30 3382 H 317.28 -0.00217814 -0.675996 0
M  V30 3383 H 319.834 -0.654346 -1.94698 0
M  V30 3384 H 318.064 1.23762 -3.6636 0
M  V30 3385 H 319.753 0.932386 -3.95046 0
M  V30 3386 H 320.519 -1.45745 -4.62583 0
M  V30 3387 H 316.398 -0.231427 -4.60419 0
M  V30 3388 H 319.942 -3.32745 -6.13128 0
M  V30 3389 H 315.839 -2.09305 -6.10624 0
M  V30 3390 H 316.607 -3.83923 -7.22873 0
M  V30 3391 N 319.27 1.56325 -0.20005 0
M  V30 3392 C 320.519 1.96895 0.437652 0
M  V30 3393 C 320.832 1.08999 1.62415 0
M  V30 3394 O 322.038 1.39372 2.32997 0
M  V30 3395 C 320.494 3.50198 0.830025 0
M  V30 3396 C 320.102 4.46765 -0.332461 0
M  V30 3397 C 321.846 3.99526 1.43453 0
M  V30 3398 C 319.753 5.91344 0.0811468 0
M  V30 3399 H 318.683 0.735209 0.167282 0
M  V30 3400 H 321.334 1.81148 -0.292853 0
M  V30 3401 H 319.716 3.61467 1.61734 0
M  V30 3402 H 320.89 4.47231 -1.11 0
M  V30 3403 H 319.205 4.07657 -0.848789 0
M  V30 3404 H 321.802 5.05025 1.75652 0
M  V30 3405 H 322.145 3.44122 2.34277 0
M  V30 3406 H 322.678 3.91393 0.71109 0
M  V30 3407 H 319.417 6.50685 -0.793033 0
M  V30 3408 H 318.937 5.94121 0.823445 0
M  V30 3409 H 320.616 6.44945 0.515252 0
M  V30 3410 N 320.748 -0.0735177 1.57428 0
M  V30 3411 C 321.994 -0.768909 1.88307 0
M  V30 3412 C 322.349 -1.75273 0.793535 0
M  V30 3413 O 321.642 -1.90527 -0.202466 0
M  V30 3414 C 321.836 -1.51799 3.23561 0
M  V30 3415 C 321.665 -0.608217 4.45568 0
M  V30 3416 C 320.435 -0.245808 5.04702 0
M  V30 3417 C 322.633 0.0942904 5.14214 0
M  V30 3418 N 320.615 0.66987 6.10234 0
M  V30 3419 C 321.986 0.867222 6.13905 0
M  V30 3420 C 324.041 0.165943 4.97623 0
M  V30 3421 C 322.744 1.70515 6.98797 0
M  V30 3422 C 324.77 0.990837 5.83041 0
M  V30 3423 C 324.132 1.75182 6.82269 0
M  V30 3424 H 320.231 -0.25685 0.738615 0
M  V30 3425 H 322.815 -0.030499 1.94676 0
M  V30 3426 H 320.986 -2.22713 3.18203 0
M  V30 3427 H 322.718 -2.16226 3.42094 0
M  V30 3428 H 319.473 -0.598284 4.69806 0
M  V30 3429 H 319.897 1.1209 6.67656 0
M  V30 3430 H 324.539 -0.408064 4.20826 0
M  V30 3431 H 322.257 2.29013 7.7497 0
M  V30 3432 H 325.843 1.04923 5.72261 0
M  V30 3433 H 324.723 2.37983 7.47217 0
M  V30 3434 N 322.226 -1.5378 -0.344866 0
M  V30 3435 C 323.136 -1.84667 -1.4469 0
M  V30 3436 C 324.152 -0.736704 -1.57635 0
M  V30 3437 O 325.328 -1.02888 -1.73136 0
M  V30 3438 C 322.393 -2.04869 -2.79696 0
M  V30 3439 C 321.454 -3.28731 -2.76106 0
M  V30 3440 C 320.687 -3.4796 -4.04673 0
M  V30 3441 O 320.91 -2.71052 -5.01883 0
M  V30 3442 O 319.844 -4.41383 -4.09224 0
M  V30 3443 H 323.67 -2.78334 -1.21506 0
M  V30 3444 H 321.255 -1.39418 -0.536921 0
M  V30 3445 H 323.137 -2.19609 -3.59652 0
M  V30 3446 H 321.812 -1.14391 -3.02814 0
M  V30 3447 H 320.719 -3.19396 -1.94774 0
M  V30 3448 H 322.052 -4.19198 -2.57941 0
M  V30 3449 N 323.704 0.605807 -1.45491 0
M  V30 3450 C 324.929 1.39625 -1.53361 0
M  V30 3451 C 325.354 1.87351 -0.167645 0
M  V30 3452 O 324.712 1.60243 0.848051 0
M  V30 3453 C 324.76 2.57559 -2.5238 0
M  V30 3454 O 323.864 3.58248 -2.04285 0
M  V30 3455 H 323.205 0.416771 -0.516912 0
M  V30 3456 H 325.735 0.737103 -1.90861 0
M  V30 3457 H 325.745 3.0478 -2.71244 0
M  V30 3458 H 324.42 2.22171 -3.51586 0
M  V30 3459 H 322.997 3.17664 -1.95305 0
M  V30 3460 N 325.182 1.32811 0.848464 0
M  V30 3461 C 326.41 1.26739 1.63538 0
M  V30 3462 C 326.825 -0.163484 1.88091 0
M  V30 3463 O 326.182 -1.10258 1.45429 0
M  V30 3464 C 326.233 2.03013 2.99112 0
M  V30 3465 O 325.954 3.40518 2.75643 0
M  V30 3466 C 327.455 2.04038 3.93552 0
M  V30 3467 H 324.675 0.437024 0.509167 0
M  V30 3468 H 327.219 1.75033 1.05753 0
M  V30 3469 H 325.374 1.58426 3.53525 0
M  V30 3470 H 325.788 3.79635 3.61908 0
M  V30 3471 H 327.262 2.61877 4.85926 0
M  V30 3472 H 327.739 1.0282 4.26995 0
M  V30 3473 H 328.345 2.486 3.45077 0
M  V30 3474 N 326.66 -1.06551 1.16123 0
M  V30 3475 C 327.623 -2.12132 0.867906 0
M  V30 3476 C 328.623 -1.60224 -0.135944 0
M  V30 3477 O 329.813 -1.73943 0.0946422 0
M  V30 3478 C 326.945 -3.396 0.297419 0
M  V30 3479 H 328.138 -2.39586 1.80385 0
M  V30 3480 H 325.691 -1.22574 0.969812 0
M  V30 3481 H 326.426 -3.17794 -0.64633 0
M  V30 3482 H 326.211 -3.78581 1.02073 0
M  V30 3483 H 327.701 -4.17455 0.110052 0
M  V30 3484 N 328.138 -0.959301 -1.25041 0
M  V30 3485 C 329.415 -0.533805 -1.88175 0
M  V30 3486 C 329.795 0.988994 -1.865 0
M  V30 3487 O 329.143 1.85677 -1.33177 0
M  V30 3488 C 329.353 -1.11575 -3.30684 0
M  V30 3489 C 330.701 -1.19548 -4.07423 0
M  V30 3490 O 331.725 -1.06765 -3.39823 0
M  V30 3491 O 330.584 -1.39656 -5.28354 0
M  V30 3492 H 327.678 -0.176772 -0.807887 0
M  V30 3493 H 330.224 -1.05303 -1.33076 0
M  V30 3494 H 328.996 -2.15884 -3.26358 0
M  V30 3495 H 328.619 -0.580059 -3.93346 0
M  V30 3496 N 329.616 1.39756 -0.72842 0
M  V30 3497 C 330.579 2.29012 -0.0927297 0
M  V30 3498 C 331.579 1.45992 0.674025 0
M  V30 3499 O 332.769 1.66749 0.50402 0
M  V30 3500 C 329.901 3.29396 0.878137 0
M  V30 3501 H 331.094 2.86729 -0.879011 0
M  V30 3502 H 328.647 1.48293 -0.493847 0
M  V30 3503 H 329.382 2.76722 1.69101 0
M  V30 3504 H 329.167 3.907 0.331051 0
M  V30 3505 H 330.657 3.96199 1.3197 0
M  V30 3506 N 331.094 0.475555 1.50254 0
M  V30 3507 C 332.041 -0.316293 2.28622 0
M  V30 3508 C 333.011 -0.983227 1.33873 0
M  V30 3509 O 334.196 -0.994805 1.62814 0
M  V30 3510 C 331.336 -1.38975 3.1588 0
M  V30 3511 C 330.449 -0.737146 4.25664 0
M  V30 3512 C 329.584 -1.78887 5.00173 0
M  V30 3513 C 328.623 -1.11676 6.01826 0
M  V30 3514 N 327.76 -2.11154 6.69596 0
M  V30 3515 H 332.6 0.358297 2.95838 0
M  V30 3516 H 330.137 0.188541 1.45887 0
M  V30 3517 H 332.095 -2.02383 3.64825 0
M  V30 3518 H 330.725 -2.03344 2.50701 0
M  V30 3519 H 329.777 0.0096065 3.80399 0
M  V30 3520 H 331.089 -0.206816 4.98371 0
M  V30 3521 H 330.243 -2.49865 5.52859 0
M  V30 3522 H 328.982 -2.35302 4.27182 0
M  V30 3523 H 327.987 -0.392633 5.48396 0
M  V30 3524 H 329.212 -0.55945 6.76792 0
M  V30 3525 H 327.158 -2.66577 5.99394 0
M  V30 3526 H 327.075 -1.63118 7.38193 0
M  V30 3527 H 328.343 -2.81497 7.26897 0
M  V30 3528 N 332.573 -1.56217 0.208337 0
M  V30 3529 C 333.82 -1.97949 -0.42692 0
M  V30 3530 C 334.148 -1.09562 -1.60706 0
M  V30 3531 O 333.403 -0.137616 -1.95216 0
M  V30 3532 C 333.702 -3.45441 -0.916797 0
M  V30 3533 C 333.368 -4.50646 0.151391 0
M  V30 3534 C 332.03 -4.79139 0.444867 0
M  V30 3535 C 334.382 -5.13811 0.874492 0
M  V30 3536 C 331.71 -5.68084 1.46619 0
M  V30 3537 C 334.062 -6.03861 1.88506 0
M  V30 3538 C 332.726 -6.30704 2.18559 0
M  V30 3539 H 331.996 -0.724345 -0.156221 0
M  V30 3540 H 334.643 -1.89006 0.308084 0
M  V30 3541 H 332.948 -3.51521 -1.73032 0
M  V30 3542 H 334.645 -3.75094 -1.41794 0
M  V30 3543 H 331.235 -4.28511 -0.0875068 0
M  V30 3544 H 335.419 -4.91879 0.660996 0
M  V30 3545 H 330.675 -5.87151 1.7048 0
M  V30 3546 H 334.849 -6.51861 2.45051 0
M  V30 3547 H 332.476 -6.99424 2.97843 0
M  V30 3548 N 334.051 0.0651679 -1.57465 0
M  V30 3549 C 335.279 0.775808 -1.91804 0
M  V30 3550 C 335.694 1.70782 -0.804916 0
M  V30 3551 O 335.051 1.81153 0.221311 0
M  V30 3552 C 335.102 1.56381 -3.25925 0
M  V30 3553 O 334.823 0.669248 -4.32958 0
M  V30 3554 C 336.324 2.37485 -3.7432 0
M  V30 3555 H 333.544 0.2202 -0.63384 0
M  V30 3556 H 336.088 0.0334587 -2.04473 0
M  V30 3557 H 334.243 2.25837 -3.14764 0
M  V30 3558 H 334.657 1.21801 -5.10162 0
M  V30 3559 H 336.131 2.88223 -4.70778 0
M  V30 3560 H 336.608 3.17307 -3.03666 0
M  V30 3561 H 337.214 1.73173 -3.88447 0
M  V30 3562 N 335.529 1.53961 0.336706 0
M  V30 3563 C 336.778 1.70751 1.07363 0
M  V30 3564 C 337.091 0.481061 1.89592 0
M  V30 3565 O 338.297 0.530046 2.66276 0
M  V30 3566 C 336.753 3.01965 1.95818 0
M  V30 3567 C 336.361 4.31971 1.18764 0
M  V30 3568 C 338.105 3.28121 2.69327 0
M  V30 3569 C 336.012 5.54255 2.06289 0
M  V30 3570 H 334.942 0.636292 0.404535 0
M  V30 3571 H 337.593 1.80459 0.332681 0
M  V30 3572 H 335.975 2.86132 2.7376 0
M  V30 3573 H 337.149 4.5853 0.456849 0
M  V30 3574 H 335.464 4.12481 0.569946 0
M  V30 3575 H 338.061 4.16673 3.35094 0
M  V30 3576 H 338.404 2.45426 3.36261 0
M  V30 3577 H 338.937 3.44762 1.98454 0
M  V30 3578 H 335.676 6.39513 1.43885 0
M  V30 3579 H 335.196 5.31935 2.77138 0
M  V30 3580 H 336.875 5.90159 2.65182 0
M  V30 3581 N 337.007 -0.598083 1.45811 0
M  V30 3582 C 338.237 -1.38121 1.53643 0
M  V30 3583 C 338.645 -1.88425 0.171081 0
M  V30 3584 O 337.988 -1.63409 -0.839237 0
M  V30 3585 C 338.05 -2.61432 2.46766 0
M  V30 3586 C 337.714 -2.32702 3.93318 0
M  V30 3587 C 338.711 -1.92479 4.82957 0
M  V30 3588 C 336.396 -2.45321 4.38318 0
M  V30 3589 C 338.39 -1.65248 6.15607 0
M  V30 3590 C 336.077 -2.17703 5.71007 0
M  V30 3591 C 337.075 -1.7773 6.5947 0
M  V30 3592 O 336.763 -1.50441 7.89698 0
M  V30 3593 H 336.495 -0.428863 0.522544 0
M  V30 3594 H 339.049 -0.73557 1.91777 0
M  V30 3595 H 337.279 -3.28749 2.0362 0
M  V30 3596 H 338.968 -3.23487 2.45175 0
M  V30 3597 H 339.734 -1.82258 4.49452 0
M  V30 3598 H 335.613 -2.75399 3.69697 0
M  V30 3599 H 339.157 -1.33973 6.84614 0
M  V30 3600 H 335.054 -2.27544 6.04065 0
M  V30 3601 H 335.822 -1.64415 8.01817 0
M  V30 3602 N 338.485 -1.33259 -0.841409 0
M  V30 3603 C 339.432 -1.23302 -1.95103 0
M  V30 3604 C 340.402 -0.112204 -1.65721 0
M  V30 3605 O 341.587 -0.290038 -1.88583 0
M  V30 3606 C 338.727 -0.975583 -3.31023 0
M  V30 3607 C 337.84 -2.18243 -3.72819 0
M  V30 3608 C 336.975 -1.85936 -4.97595 0
M  V30 3609 C 336.014 -3.02866 -5.3192 0
M  V30 3610 N 335.151 -2.70565 -6.47873 0
M  V30 3611 H 339.991 -2.18207 -2.02952 0
M  V30 3612 H 337.528 -1.0851 -0.993173 0
M  V30 3613 H 339.486 -0.80677 -4.09325 0
M  V30 3614 H 338.116 -0.0632755 -3.22738 0
M  V30 3615 H 337.168 -2.46107 -2.90061 0
M  V30 3616 H 338.48 -3.05666 -3.94169 0
M  V30 3617 H 337.634 -1.65684 -5.83638 0
M  V30 3618 H 336.373 -0.957452 -4.78209 0
M  V30 3619 H 335.378 -3.23736 -4.44382 0
M  V30 3620 H 336.603 -3.93809 -5.53255 0
M  V30 3621 H 334.549 -1.8293 -6.29978 0
M  V30 3622 H 334.466 -3.51519 -6.69306 0
M  V30 3623 H 335.734 -2.53774 -7.37034 0
M  V30 3624 N 339.963 1.05934 -1.16686 0
M  V30 3625 C 341.24 1.75643 -0.860747 0
M  V30 3626 C 341.62 2.01144 0.640641 0
M  V30 3627 O 340.968 1.64147 1.58959 0
M  V30 3628 C 341.178 3.05493 -1.68745 0
M  V30 3629 C 342.526 3.79581 -1.90271 0
M  V30 3630 O 343.55 3.15344 -1.65641 0
M  V30 3631 O 342.409 4.9499 -2.31618 0
M  V30 3632 H 339.503 0.763426 -0.317977 0
M  V30 3633 H 342.049 1.1217 -1.27342 0
M  V30 3634 H 340.821 2.8264 -2.70611 0
M  V30 3635 H 340.444 3.76702 -1.27206 0
M  V30 3636 N 341.441 0.965919 1.2453 0
M  V30 3637 C 342.852 0.665929 1.7442 0
M  V30 3638 C 343.203 -0.818407 1.78316 0
M  V30 3639 O 342.328 -1.64037 1.41141 0
M  V30 3640 C 342.923 1.20211 3.16757 0
M  V30 3641 C 341.482 0.952059 3.6416 0
M  V30 3642 C 340.629 1.33848 2.42858 0
M  V30 3643 H 343.58 1.14144 1.10258 0
M  V30 3644 H 343.601 0.567544 3.76244 0
M  V30 3645 H 343.113 2.28244 3.13889 0
M  V30 3646 H 341.214 -0.112821 3.72429 0
M  V30 3647 H 341.327 1.59645 4.51719 0
M  V30 3648 H 339.691 0.756864 2.43195 0
M  V30 3649 H 340.474 2.42827 2.42673 0
M  V30 3650 N 342.919 -1.39368 0.735821 0
M  V30 3651 C 344.335 -1.54204 0.411492 0
M  V30 3652 C 344.535 -1.70268 -1.07755 0
M  V30 3653 O 343.591 -1.70364 -1.86366 0
M  V30 3654 C 344.904 -2.75925 1.19523 0
M  V30 3655 C 346.452 -2.89761 1.18354 0
M  V30 3656 C 346.927 -4.14421 1.94986 0
M  V30 3657 N 348.418 -4.21462 1.92156 0
M  V30 3658 C 349.153 -5.16871 2.48258 0
M  V30 3659 N 348.649 -6.18063 3.13001 0
M  V30 3660 N 350.442 -5.09093 2.38287 0
M  V30 3661 H 342.593 -1.27189 1.70108 0
M  V30 3662 H 344.856 -0.616517 0.720147 0
M  V30 3663 H 344.562 -2.70401 2.24892 0
M  V30 3664 H 344.436 -3.68614 0.800222 0
M  V30 3665 H 346.823 -2.94777 0.137975 0
M  V30 3666 H 346.904 -1.98133 1.61793 0
M  V30 3667 H 346.548 -4.10166 2.99543 0
M  V30 3668 H 346.478 -5.05095 1.48953 0
M  V30 3669 H 348.969 -3.48979 1.44991 0
M  V30 3670 H 349.282 -6.87326 3.53275 0
M  V30 3671 H 347.627 -6.18448 3.17091 0
M  V30 3672 H 350.818 -4.28973 1.8735 0
M  V30 3673 H 350.991 -5.83272 2.82308 0
M  V30 3674 N 344.397 -0.483516 -1.5 0
M  V30 3675 C 345.645 0.067027 -2.01989 0
M  V30 3676 C 345.966 1.3909 -1.36671 0
M  V30 3677 O 345.236 1.88978 -0.516152 0
M  V30 3678 H 343.816 0.0277606 -0.746484 0
M  V30 3679 H 346.478 -0.636773 -1.84204 0
M  V30 3680 H 345.574 0.209484 -3.11396 0
M  V30 3681 N 345.875 1.56104 -0.216619 0
M  V30 3682 C 346.838 2.18819 0.681962 0
M  V30 3683 C 347.838 1.14866 1.12528 0
M  V30 3684 O 349.028 1.40128 1.03488 0
M  V30 3685 C 346.16 2.80756 1.93362 0
M  V30 3686 H 347.353 2.99595 0.135254 0
M  V30 3687 H 344.906 1.56265 0.0330003 0
M  V30 3688 H 345.641 2.03837 2.52232 0
M  V30 3689 H 345.426 3.56876 1.62426 0
M  V30 3690 H 346.916 3.28844 2.57393 0
M  V30 3691 N 347.353 -0.0568162 1.57498 0
M  V30 3692 C 348.581 -0.765626 1.92213 0
M  V30 3693 C 348.996 -1.70353 0.813961 0
M  V30 3694 O 348.353 -1.81268 -0.211701 0
M  V30 3695 C 348.404 -1.5465 3.2675 0
M  V30 3696 O 348.125 -0.646278 4.33307 0
M  V30 3697 C 349.626 -2.35497 3.75574 0
M  V30 3698 H 346.846 -0.216835 0.634999 0
M  V30 3699 H 349.39 -0.0226146 2.04487 0
M  V30 3700 H 347.545 -2.24165 3.15957 0
M  V30 3701 H 347.959 -1.19093 5.108 0
M  V30 3702 H 349.433 -2.85722 4.72299 0
M  V30 3703 H 349.91 -3.15692 3.05344 0
M  V30 3704 H 350.516 -1.7111 3.8936 0
M  V30 3705 N 348.832 -1.54138 -0.328536 0
M  V30 3706 C 349.762 -1.86167 -1.40939 0
M  V30 3707 C 350.743 -0.718044 -1.54202 0
M  V30 3708 O 351.928 -0.971328 -1.68163 0
M  V30 3709 C 349.058 -2.08461 -2.77779 0
M  V30 3710 C 348.012 -3.24299 -2.7931 0
M  V30 3711 C 347.338 -3.31955 -4.19178 0
M  V30 3712 C 348.638 -4.62065 -2.43502 0
M  V30 3713 H 350.332 -2.76689 -1.14383 0
M  V30 3714 H 347.878 -1.33132 -0.548806 0
M  V30 3715 H 349.831 -2.29453 -3.53454 0
M  V30 3716 H 348.555 -1.14684 -3.05802 0
M  V30 3717 H 347.214 -3.03187 -2.0609 0
M  V30 3718 H 346.862 -2.35745 -4.44335 0
M  V30 3719 H 346.562 -4.09805 -4.2111 0
M  V30 3720 H 348.086 -3.55175 -4.96672 0
M  V30 3721 H 349.5 -4.8297 -3.08889 0
M  V30 3722 H 347.897 -5.42429 -2.56693 0
M  V30 3723 H 348.967 -4.64652 -1.38659 0
M  V30 3724 N 350.31 0.590341 -1.46126 0
M  V30 3725 C 351.257 1.69994 -1.56111 0
M  V30 3726 C 352.227 1.61065 -0.405867 0
M  V30 3727 O 353.412 1.8039 -0.621613 0
M  V30 3728 C 350.552 3.08326 -1.55013 0
M  V30 3729 C 349.665 3.27936 -2.81215 0
M  V30 3730 C 348.8 4.56473 -2.71673 0
M  V30 3731 C 347.839 4.694 -3.92849 0
M  V30 3732 N 346.976 5.89254 -3.81738 0
M  V30 3733 H 351.816 1.60797 -2.50895 0
M  V30 3734 H 349.353 0.783799 -1.24479 0
M  V30 3735 H 351.311 3.88383 -1.52362 0
M  V30 3736 H 349.941 3.16439 -0.637667 0
M  V30 3737 H 348.993 2.41536 -2.93879 0
M  V30 3738 H 350.305 3.33357 -3.71045 0
M  V30 3739 H 349.459 5.44748 -2.67085 0
M  V30 3740 H 348.198 4.53477 -1.7947 0
M  V30 3741 H 347.203 3.79544 -3.97777 0
M  V30 3742 H 348.428 4.7418 -4.86138 0
M  V30 3743 H 346.374 5.87271 -2.92317 0
M  V30 3744 H 346.291 5.95911 -4.65217 0
M  V30 3745 H 347.559 6.79981 -3.81112 0
M  V30 3746 N 351.788 1.33704 0.83433 0
M  V30 3747 C 353.204 1.13137 1.12571 0
M  V30 3748 C 353.404 -0.0747261 2.01361 0
M  V30 3749 O 352.46 -0.753647 2.4099 0
M  V30 3750 C 353.773 2.42105 1.78342 0
M  V30 3751 C 355.321 2.48054 1.90888 0
M  V30 3752 C 355.796 3.76995 2.60075 0
M  V30 3753 N 357.287 3.78092 2.67584 0
M  V30 3754 C 358.022 4.74574 3.21818 0
M  V30 3755 N 357.518 5.81434 3.76705 0
M  V30 3756 N 359.311 4.62044 3.20112 0
M  V30 3757 H 351.462 2.11 0.243489 0
M  V30 3758 H 353.725 0.932532 0.17055 0
M  V30 3759 H 353.431 3.30391 1.20561 0
M  V30 3760 H 353.305 2.54594 2.7832 0
M  V30 3761 H 355.692 1.60215 2.47821 0
M  V30 3762 H 355.773 2.39502 0.898459 0
M  V30 3763 H 355.417 4.65219 2.03799 0
M  V30 3764 H 355.347 3.82825 3.61597 0
M  V30 3765 H 357.838 3.00865 2.28667 0
M  V30 3766 H 358.151 6.51084 4.16305 0
M  V30 3767 H 356.496 5.85163 3.7498 0
M  V30 3768 H 359.687 3.77716 2.76493 0
M  V30 3769 H 359.86 5.37406 3.62076 0
M  V30 3770 N 353.266 -1.05314 1.17247 0
M  V30 3771 C 354.514 -1.77941 0.958194 0
M  V30 3772 C 354.835 -1.88089 -0.514556 0
M  V30 3773 O 354.105 -1.39676 -1.37359 0
M  V30 3774 H 352.685 -0.659116 0.351533 0
M  V30 3775 H 355.347 -1.27166 1.47699 0
M  V30 3776 H 354.443 -2.79663 1.38546 0
M  V30 3777 N 354.744 -0.972509 -1.24016 0
M  V30 3778 C 355.972 -0.654803 -1.96265 0
M  V30 3779 C 356.387 0.776708 -1.72083 0
M  V30 3780 O 355.744 1.52171 -1.00748 0
M  V30 3781 C 355.795 -0.92592 -3.49441 0
M  V30 3782 O 355.516 -2.30116 -3.72798 0
M  V30 3783 C 357.017 -0.623068 -4.38899 0
M  V30 3784 H 354.237 -0.243907 -0.6251 0
M  V30 3785 H 356.781 -1.30175 -1.57717 0
M  V30 3786 H 354.936 -0.325108 -3.86033 0
M  V30 3787 H 355.35 -2.38483 -4.67147 0
M  V30 3788 H 356.824 -0.863189 -5.45209 0
M  V30 3789 H 357.301 0.442754 -4.36963 0
M  V30 3790 H 357.907 -1.204 -4.07902 0
M  V30 3791 N 356.222 1.38976 -0.743202 0
M  V30 3792 C 357.638 1.53984 -0.419664 0
M  V30 3793 C 357.838 1.70837 1.0685 0
M  V30 3794 O 356.894 1.7135 1.8546 0
M  V30 3795 C 358.207 2.75287 -1.20985 0
M  V30 3796 C 359.755 2.89129 -1.19889 0
M  V30 3797 C 360.23 4.13381 -1.97181 0
M  V30 3798 N 361.721 4.20437 -1.94389 0
M  V30 3799 C 362.456 5.15547 -2.50996 0
M  V30 3800 N 361.952 6.16395 -3.16274 0
M  V30 3801 N 363.745 5.07822 -2.40984 0
M  V30 3802 H 355.896 1.26285 -1.7078 0
M  V30 3803 H 358.159 0.612689 -0.723406 0
M  V30 3804 H 357.865 2.69204 -2.26323 0
M  V30 3805 H 357.739 3.68184 -0.819759 0
M  V30 3806 H 360.126 2.947 -0.153606 0
M  V30 3807 H 360.207 1.97272 -1.62841 0
M  V30 3808 H 359.851 4.08572 -3.01714 0
M  V30 3809 H 359.781 5.04298 -1.51629 0
M  V30 3810 H 362.272 3.48205 -1.46839 0
M  V30 3811 H 362.585 6.85443 -3.56915 0
M  V30 3812 H 360.93 6.16758 -3.20367 0
M  V30 3813 H 364.121 4.27973 -1.89622 0
M  V30 3814 H 364.294 5.81767 -2.85397 0
M  V30 3815 N 357.7 0.491464 1.49741 0
M  V30 3816 C 358.949 -0.0582189 2.01616 0
M  V30 3817 C 359.262 -1.38927 1.3769 0
M  V30 3818 O 360.468 -2.02509 1.80838 0
M  V30 3819 C 358.924 -0.154235 3.59569 0
M  V30 3820 C 358.532 1.1696 4.32463 0
M  V30 3821 C 360.276 -0.65479 4.1942 0
M  V30 3822 C 358.183 1.03627 5.8225 0
M  V30 3823 H 357.113 -0.0255317 0.753568 0
M  V30 3824 H 359.764 0.629445 1.72367 0
M  V30 3825 H 358.146 -0.906138 3.85493 0
M  V30 3826 H 359.32 1.93405 4.18248 0
M  V30 3827 H 357.635 1.60285 3.84315 0
M  V30 3828 H 360.232 -0.771903 5.29099 0
M  V30 3829 H 360.575 -1.65127 3.8215 0
M  V30 3830 H 361.108 0.040304 3.9778 0
M  V30 3831 H 357.847 2.00672 6.24028 0
M  V30 3832 H 357.367 0.312546 5.98985 0
M  V30 3833 H 359.046 0.711114 6.4308 0
M  V30 3834 N 359.178 -1.55987 0.224894 0
M  V30 3835 C 360.403 -2.03232 -0.41369 0
M  V30 3836 C 360.828 -1.10359 -1.52323 0
M  V30 3837 O 360.186 -0.092395 -1.81064 0
M  V30 3838 C 360.234 -3.48682 -0.919405 0
M  V30 3839 O 359.338 -3.58947 -2.03054 0
M  V30 3840 H 358.679 -0.657428 -0.0931903 0
M  V30 3841 H 361.209 -2.01679 0.34451 0
M  V30 3842 H 361.219 -3.8907 -1.22835 0
M  V30 3843 H 359.894 -4.15761 -0.107339 0
M  V30 3844 H 358.471 -3.30448 -1.72796 0
M  V30 3845 N 360.656 0.0484629 -1.57525 0
M  V30 3846 C 361.586 1.0549 -2.08313 0
M  V30 3847 C 362.567 1.38929 -0.981463 0
M  V30 3848 O 363.752 1.48151 -1.25558 0
M  V30 3849 C 360.882 2.36162 -2.54646 0
M  V30 3850 C 359.836 2.17016 -3.68901 0
M  V30 3851 C 359.162 3.53278 -4.01371 0
M  V30 3852 C 360.462 1.57219 -4.98076 0
M  V30 3853 H 362.156 0.632195 -2.92649 0
M  V30 3854 H 359.702 0.302654 -1.40784 0
M  V30 3855 H 361.655 3.06882 -2.88793 0
M  V30 3856 H 360.379 2.80456 -1.67368 0
M  V30 3857 H 359.038 1.48733 -3.35073 0
M  V30 3858 H 358.686 3.95185 -3.11188 0
M  V30 3859 H 358.386 3.41299 -4.78318 0
M  V30 3860 H 359.91 4.25391 -4.38035 0
M  V30 3861 H 361.324 2.17832 -5.30304 0
M  V30 3862 H 359.721 1.55871 -5.79503 0
M  V30 3863 H 360.791 0.535956 -4.81929 0
M  V30 3864 N 362.134 1.5431 0.320358 0
M  V30 3865 C 363.084 1.803 1.39556 0
M  V30 3866 C 364.068 0.659166 1.46778 0
M  V30 3867 O 365.26 0.91926 1.51257 0
M  V30 3868 C 362.389 2.03665 2.76361 0
M  V30 3869 C 361.475 3.24178 2.73439 0
M  V30 3870 N 361.866 4.4516 2.40137 0
M  V30 3871 C 360.164 3.25816 3.04565 0
M  V30 3872 C 360.865 5.27109 2.4603 0
M  V30 3873 N 359.841 4.64368 2.82601 0
M  V30 3874 H 363.643 2.71416 1.12742 0
M  V30 3875 H 361.157 1.53548 0.528856 0
M  V30 3876 H 363.154 2.20425 3.53862 0
M  V30 3877 H 361.814 1.13805 3.04103 0
M  V30 3878 H 362.825 4.72104 2.12927 0
M  V30 3879 H 359.502 2.46001 3.37328 0
M  V30 3880 H 360.892 6.33728 2.23246 0
M  V30 3881 N 363.613 -0.582584 1.46437 0
M  V30 3882 C 364.543 -1.70187 1.59871 0
M  V30 3883 C 365.524 -1.64066 0.449042 0
M  V30 3884 O 366.709 -1.82081 0.6753 0
M  V30 3885 C 363.839 -3.08827 1.58881 0
M  V30 3886 C 362.793 -3.29779 2.72819 0
M  V30 3887 C 362.119 -4.68947 2.5689 0
M  V30 3888 C 363.419 -3.17601 4.1464 0
M  V30 3889 H 365.113 -1.592 2.53566 0
M  V30 3890 H 362.659 -0.764472 1.22032 0
M  V30 3891 H 364.612 -3.86951 1.66873 0
M  V30 3892 H 363.336 -3.20713 0.617306 0
M  V30 3893 H 361.995 -2.54054 2.64296 0
M  V30 3894 H 361.643 -4.77599 1.57823 0
M  V30 3895 H 361.343 -4.83919 3.33312 0
M  V30 3896 H 362.867 -5.4924 2.66773 0
M  V30 3897 H 364.281 -3.8557 4.24274 0
M  V30 3898 H 362.678 -3.44094 4.9165 0
M  V30 3899 H 363.748 -2.14681 4.34788 0
M  V30 3900 N 365.091 -1.34144 -0.827227 0
M  V30 3901 C 366.038 -1.25364 -1.93785 0
M  V30 3902 C 367.008 -0.129774 -1.65592 0
M  V30 3903 O 368.193 -0.310024 -1.88264 0
M  V30 3904 C 365.333 -1.01064 -3.2997 0
M  V30 3905 C 364.446 -2.22185 -3.70484 0
M  V30 3906 C 363.581 -1.91203 -4.95595 0
M  V30 3907 C 362.62 -3.08491 -5.28677 0
M  V30 3908 N 361.757 -2.77421 -6.44967 0
M  V30 3909 H 366.597 -2.20347 -2.00627 0
M  V30 3910 H 364.134 -1.09558 -0.981608 0
M  V30 3911 H 366.092 -0.850139 -4.08446 0
M  V30 3912 H 364.722 -0.0975026 -3.22653 0
M  V30 3913 H 363.774 -2.4917 -2.87434 0
M  V30 3914 H 365.086 -3.0983 -3.90905 0
M  V30 3915 H 364.24 -1.71864 -5.81848 0
M  V30 3916 H 362.979 -1.00812 -4.77167 0
M  V30 3917 H 361.984 -3.28431 -4.40923 0
M  V30 3918 H 363.209 -3.99655 -5.49047 0
M  V30 3919 H 361.155 -1.89601 -6.28003 0
M  V30 3920 H 361.072 -3.58598 -6.6554 0
M  V30 3921 H 362.34 -2.61577 -7.34301 0
M  V30 3922 N 366.569 1.04691 -1.17803 0
M  V30 3923 C 367.479 2.16057 -0.914151 0
M  V30 3924 C 368.495 1.73589 0.119503 0
M  V30 3925 O 369.671 2.01308 -0.0609468 0
M  V30 3926 C 366.736 3.4394 -0.436603 0
M  V30 3927 C 365.797 4.00825 -1.53746 0
M  V30 3928 C 365.03 5.22604 -1.0826 0
M  V30 3929 O 365.253 5.70367 0.0612244 0
M  V30 3930 O 364.187 5.7186 -1.87775 0
M  V30 3931 H 368.013 2.41169 -1.84584 0
M  V30 3932 H 365.598 1.1453 -0.959334 0
M  V30 3933 H 367.48 4.21024 -0.178057 0
M  V30 3934 H 366.155 3.20316 0.466869 0
M  V30 3935 H 365.062 3.25158 -1.84995 0
M  V30 3936 H 366.395 4.28778 -2.41683 0
M  V30 3937 N 368.047 0.979072 1.23499 0
M  V30 3938 C 369.324 0.563674 1.87302 0
M  V30 3939 C 369.704 -0.959199 1.88049 0
M  V30 3940 O 369.052 -1.83535 1.36114 0
M  V30 3941 C 369.262 1.16822 3.28867 0
M  V30 3942 C 370.61 1.26014 4.0547 0
M  V30 3943 O 371.634 1.12158 3.38082 0
M  V30 3944 O 370.493 1.48044 5.26066 0
M  V30 3945 H 367.587 0.189602 0.804972 0
M  V30 3946 H 370.133 1.07407 1.31384 0
M  V30 3947 H 368.905 2.21049 3.22883 0
M  V30 3948 H 368.528 0.642564 3.92373 0
M  V30 3949 N 369.525 -1.3858 0.750561 0
M  V30 3950 C 370.488 -2.28836 0.129152 0
M  V30 3951 C 371.488 -1.47045 -0.650714 0
M  V30 3952 O 372.678 -1.6753 -0.477428 0
M  V30 3953 C 369.81 -3.30751 -0.825622 0
M  V30 3954 H 371.003 -2.85294 0.924516 0
M  V30 3955 H 368.556 -1.47489 0.517376 0
M  V30 3956 H 369.291 -2.79378 -1.64677 0
M  V30 3957 H 369.076 -3.91177 -0.268852 0
M  V30 3958 H 370.566 -3.98249 -1.2565 0
M  V30 3959 N 371.003 -0.499398 -1.49478 0
M  V30 3960 C 372.231 0.0425456 -2.06856 0
M  V30 3961 C 372.646 1.30964 -1.35992 0
M  V30 3962 O 372.003 1.77172 -0.437762 0
M  V30 3963 C 372.054 0.301735 -3.60239 0
M  V30 3964 O 371.775 -0.915127 -4.28436 0
M  V30 3965 C 373.276 0.887499 -4.34325 0
M  V30 3966 H 370.496 -0.0197482 -0.670709 0
M  V30 3967 H 373.04 -0.696297 -1.92281 0
M  V30 3968 H 371.195 0.990556 -3.74522 0
M  V30 3969 H 371.609 -0.676993 -5.20113 0
M  V30 3970 H 373.083 1.01845 -5.42523 0
M  V30 3971 H 373.56 1.88488 -3.96698 0
M  V30 3972 H 374.166 0.236196 -4.24644 0
M  V30 3973 N 372.481 1.55866 -0.233164 0
M  V30 3974 C 373.429 2.22176 0.68851 0
M  V30 3975 C 374.423 1.20487 1.19076 0
M  V30 3976 O 375.629 1.38536 1.14925 0
M  V30 3977 H 372.004 0.712511 0.240483 0
M  V30 3978 H 373.975 2.98212 0.105935 0
M  V30 3979 C 372.724 2.92446 1.88071 0
M  V30 3980 H 372.047 3.70458 1.50337 0
M  V30 3981 H 373.487 3.42226 2.50314 0
M  V30 3982 C 371.946 1.95555 2.74335 0
M  V30 3983 O 372.476 1.47986 3.73447 0
M  V30 3984 N 370.682 1.62953 2.40613 0
M  V30 3985 H 370.229 2.01831 1.60069 0
M  V30 3986 H 370.187 0.983886 2.98609 0
M  V30 3987 N 373.959 -0.0401083 1.57549 0
M  V30 3988 C 374.889 -1.04384 2.08869 0
M  V30 3989 C 375.87 -1.38407 0.988817 0
M  V30 3990 O 377.055 -1.47483 1.26342 0
M  V30 3991 C 374.185 -2.34808 2.55895 0
M  V30 3992 C 373.139 -2.15057 3.70047 0
M  V30 3993 C 372.465 -3.51145 4.03239 0
M  V30 3994 C 373.765 -1.54576 4.98902 0
M  V30 3995 H 375.459 -0.616666 2.92981 0
M  V30 3996 H 373.005 -0.295184 1.40942 0
M  V30 3997 H 374.958 -3.05346 2.90417 0
M  V30 3998 H 373.682 -2.79565 1.68853 0
M  V30 3999 H 372.341 -1.46954 3.35857 0
M  V30 4000 H 371.989 -3.93529 3.13279 0
M  V30 4001 H 371.689 -3.38758 4.80122 0
M  V30 4002 H 373.213 -4.23062 4.40285 0
M  V30 4003 H 374.627 -2.15017 5.31451 0
M  V30 4004 H 373.024 -1.52796 5.80322 0
M  V30 4005 H 374.094 -0.51039 4.82206 0
M  V30 4006 N 375.437 -1.54477 -0.31217 0
M  V30 4007 C 376.367 -1.87652 -1.38957 0
M  V30 4008 C 377.348 -0.734358 -1.53431 0
M  V30 4009 O 378.533 -0.98911 -1.67123 0
M  V30 4010 C 375.663 -2.11396 -2.75552 0
M  V30 4011 C 374.617 -3.27243 -2.75855 0
M  V30 4012 C 373.943 -3.36382 -4.15633 0
M  V30 4013 C 375.243 -4.64622 -2.38587 0
M  V30 4014 H 376.937 -2.77887 -1.11442 0
M  V30 4015 H 374.483 -1.33707 -0.534655 0
M  V30 4016 H 376.436 -2.33189 -3.51 0
M  V30 4017 H 375.16 -1.17921 -3.04569 0
M  V30 4018 H 373.819 -3.05356 -2.02863 0
M  V30 4019 H 373.467 -2.40445 -4.41809 0
M  V30 4020 H 373.167 -4.14249 -4.1674 0
M  V30 4021 H 374.691 -3.60422 -4.92877 0
M  V30 4022 H 376.105 -4.86219 -3.03749 0
M  V30 4023 H 374.502 -5.45121 -2.50925 0
M  V30 4024 H 375.572 -4.66097 -1.33723 0
M  V30 4025 N 376.915 0.57481 -1.46744 0
M  V30 4026 C 377.863 1.70435 -1.58286 0
M  V30 4027 C 378.857 1.63287 -0.450956 0
M  V30 4028 O 380.063 1.68685 -0.628121 0
M  V30 4029 H 376.438 0.56364 -0.497809 0
M  V30 4030 H 378.409 1.57833 -2.53242 0
M  V30 4031 C 377.158 3.08815 -1.59776 0
M  V30 4032 H 376.481 3.1499 -2.46214 0
M  V30 4033 H 377.921 3.87588 -1.71905 0
M  V30 4034 C 376.38 3.35301 -0.327812 0
M  V30 4035 O 376.91 3.97511 0.57861 0
M  V30 4036 N 375.116 2.89816 -0.213274 0
M  V30 4037 H 374.663 2.39371 -0.951798 0
M  V30 4038 H 374.621 3.0791 0.63553 0
M  V30 4039 N 378.394 1.34581 0.820102 0
M  V30 4040 C 379.671 1.17675 1.56244 0
M  V30 4041 C 380.051 -0.249541 2.0962 0
M  V30 4042 O 379.399 -1.25125 1.91196 0
M  V30 4043 C 379.609 2.23364 2.6816 0
M  V30 4044 C 380.957 2.58485 3.36854 0
M  V30 4045 O 381.981 2.22175 2.78418 0
M  V30 4046 O 380.84 3.20868 4.42386 0
M  V30 4047 H 377.934 0.456333 0.689702 0
M  V30 4048 H 380.48 1.46222 0.861231 0
M  V30 4049 H 379.252 3.19087 2.26493 0
M  V30 4050 H 378.875 1.96009 3.45928 0
M  V30 4051 N 379.872 -1.04064 1.18357 0
M  V30 4052 C 380.819 -2.12077 0.910603 0
M  V30 4053 C 381.789 -1.65421 -0.15 0
M  V30 4054 O 382.974 -1.90797 -0.0103614 0
M  V30 4055 C 380.114 -3.42252 0.442472 0
M  V30 4056 C 379.227 -4.0252 1.5685 0
M  V30 4057 C 378.362 -5.20657 1.05309 0
M  V30 4058 C 377.401 -5.72955 2.1538 0
M  V30 4059 N 376.538 -6.8238 1.65233 0
M  V30 4060 H 381.378 -2.34764 1.83548 0
M  V30 4061 H 378.915 -1.15157 0.915279 0
M  V30 4062 H 380.873 -4.16921 0.152534 0
M  V30 4063 H 379.503 -3.19712 -0.445428 0
M  V30 4064 H 378.555 -3.25178 1.97391 0
M  V30 4065 H 379.867 -4.37362 2.39824 0
M  V30 4066 H 379.021 -6.0244 0.717677 0
M  V30 4067 H 377.76 -4.87318 0.19293 0
M  V30 4068 H 376.765 -4.89793 2.49766 0
M  V30 4069 H 377.99 -6.08337 3.01832 0
M  V30 4070 H 375.936 -6.50917 0.815064 0
M  V30 4071 H 375.853 -7.16286 2.41805 0
M  V30 4072 H 377.121 -7.67788 1.34619 0
M  V30 4073 N 381.35 -0.985608 -1.22978 0
M  V30 4074 C 382.297 -0.529825 -2.24636 0
M  V30 4075 C 383.267 0.434028 -1.60329 0
M  V30 4076 O 384.452 0.340414 -1.87739 0
M  V30 4077 C 381.592 0.156533 -3.44745 0
M  V30 4078 C 380.705 -0.848197 -4.23591 0
M  V30 4079 C 379.84 -0.136109 -5.31026 0
M  V30 4080 C 378.879 -1.1297 -6.01585 0
M  V30 4081 N 378.016 -0.446415 -7.00679 0
M  V30 4082 H 382.856 -1.40148 -2.62988 0
M  V30 4083 H 380.393 -0.702168 -1.29259 0
M  V30 4084 H 382.351 0.571324 -4.1327 0
M  V30 4085 H 380.981 0.992025 -3.07179 0
M  V30 4086 H 380.033 -1.38135 -3.54433 0
M  V30 4087 H 381.345 -1.60512 -4.72268 0
M  V30 4088 H 380.499 0.335784 -6.0577 0
M  V30 4089 H 379.238 0.653373 -4.83304 0
M  V30 4090 H 378.243 -1.6123 -5.25628 0
M  V30 4091 H 379.468 -1.91993 -6.51395 0
M  V30 4092 H 377.414 0.323763 -6.55201 0
M  V30 4093 H 377.331 -1.1419 -7.47326 0
M  V30 4094 H 378.599 0.00291697 -7.795 0
M  V30 4095 N 382.828 1.3818 -0.7579 0
M  V30 4096 C 383.758 2.33027 -0.148597 0
M  V30 4097 C 384.739 1.55085 0.69875 0
M  V30 4098 O 385.924 1.83384 0.639053 0
M  V30 4099 C 383.054 3.3928 0.742034 0
M  V30 4100 C 382.008 4.28 -0.00291946 0
M  V30 4101 C 381.334 5.25146 1.00625 0
M  V30 4102 C 382.634 5.08938 -1.17385 0
M  V30 4103 H 384.328 2.84231 -0.940909 0
M  V30 4104 H 381.874 1.36659 -0.453908 0
M  V30 4105 H 383.827 4.046 1.17799 0
M  V30 4106 H 382.551 2.86569 1.56671 0
M  V30 4107 H 381.21 3.64192 -0.419504 0
M  V30 4108 H 380.858 4.68721 1.8251 0
M  V30 4109 H 380.558 5.85361 0.512428 0
M  V30 4110 H 382.082 5.93342 1.44143 0
M  V30 4111 H 383.496 5.67474 -0.815224 0
M  V30 4112 H 381.893 5.7841 -1.59882 0
M  V30 4113 H 382.963 4.42424 -1.98468 0
M  V30 4114 N 384.306 0.507319 1.49211 0
M  V30 4115 C 385.239 -0.314509 2.26022 0
M  V30 4116 C 386.217 -0.964849 1.30879 0
M  V30 4117 O 387.401 -0.993707 1.6018 0
M  V30 4118 C 384.528 -1.44346 3.06402 0
M  V30 4119 C 383.574 -0.90685 4.16748 0
M  V30 4120 S 384.407 0.207392 5.35098 0
M  V30 4121 C 385.563 -0.924573 6.19033 0
M  V30 4122 H 385.796 0.337416 2.95379 0
M  V30 4123 H 383.329 0.292718 1.516 0
M  V30 4124 H 385.287 -2.09029 3.53295 0
M  V30 4125 H 383.948 -2.06702 2.36502 0
M  V30 4126 H 383.141 -1.75309 4.72528 0
M  V30 4127 H 382.743 -0.33712 3.72478 0
M  V30 4128 H 385.035 -1.82839 6.52362 0
M  V30 4129 H 385.978 -0.405248 7.06939 0
M  V30 4130 H 386.386 -1.19476 5.51712 0
M  V30 4131 N 385.784 -1.5574 0.241426 0
M  V30 4132 C 387.061 -1.90704 -0.434881 0
M  V30 4133 C 387.441 -1.16145 -1.76277 0
M  V30 4134 O 386.789 -0.277152 -2.26813 0
M  V30 4135 C 386.999 -3.43657 -0.608343 0
M  V30 4136 C 388.347 -4.14806 -0.906725 0
M  V30 4137 O 389.371 -3.49366 -0.694408 0
M  V30 4138 O 388.23 -5.30548 -1.31075 0
M  V30 4139 H 385.324 -0.793592 -0.23268 0
M  V30 4140 H 387.87 -1.67288 0.285086 0
M  V30 4141 H 386.642 -3.89927 0.327505 0
M  V30 4142 H 386.265 -3.72918 -1.37906 0
M  V30 4143 N 387.262 0.0317525 -1.57568 0
M  V30 4144 C 388.192 1.03274 -2.0942 0
M  V30 4145 C 389.173 1.3788 -0.996143 0
M  V30 4146 O 390.358 1.46811 -1.27122 0
M  V30 4147 C 387.488 2.33448 -2.57137 0
M  V30 4148 C 386.442 2.13091 -3.71182 0
M  V30 4149 C 385.768 3.49001 -4.05095 0
M  V30 4150 C 387.068 1.51928 -4.99715 0
M  V30 4151 H 388.762 0.60112 -2.93303 0
M  V30 4152 H 386.308 0.287705 -1.41097 0
M  V30 4153 H 388.261 3.03802 -2.92032 0
M  V30 4154 H 386.985 2.78665 -1.70333 0
M  V30 4155 H 385.644 1.45171 -3.36632 0
M  V30 4156 H 385.292 3.91862 -3.15362 0
M  V30 4157 H 384.992 3.36207 -4.81911 0
M  V30 4158 H 386.516 4.20721 -4.42522 0
M  V30 4159 H 387.93 2.12196 -5.32584 0
M  V30 4160 H 386.327 1.49716 -5.81124 0
M  V30 4161 H 387.397 0.484811 -4.8247 0
M  V30 4162 N 388.74 1.54641 0.303973 0
M  V30 4163 C 389.989 1.7299 1.03717 0
M  V30 4164 C 390.302 0.521168 1.88529 0
M  V30 4165 O 391.508 0.586408 2.65092 0
M  V30 4166 C 389.964 3.06051 1.89369 0
M  V30 4167 C 389.572 4.34393 1.09574 0
M  V30 4168 C 391.316 3.3376 2.62306 0
M  V30 4169 C 389.223 5.58506 1.94486 0
M  V30 4170 H 388.153 0.64473 0.390947 0
M  V30 4171 H 390.804 1.81124 0.294328 0
M  V30 4172 H 389.186 2.91874 2.67629 0
M  V30 4173 H 390.36 4.59396 0.359485 0
M  V30 4174 H 388.675 4.13597 0.482324 0
M  V30 4175 H 391.272 4.23687 3.26181 0
M  V30 4176 H 391.615 2.52503 3.3098 0
M  V30 4177 H 392.148 3.48894 1.91097 0
M  V30 4178 H 388.887 6.42422 1.30287 0
M  V30 4179 H 388.407 5.37694 2.65792 0
M  V30 4180 H 390.086 5.95651 2.52605 0
M  V30 4181 N 390.218 -0.567019 1.47046 0
M  V30 4182 C 391.443 -1.3551 1.57009 0
M  V30 4183 C 391.868 -1.86841 0.217259 0
M  V30 4184 O 391.226 -1.62435 -0.805268 0
M  V30 4185 C 391.274 -2.50777 2.5912 0
M  V30 4186 O 390.378 -3.52706 2.13711 0
M  V30 4187 H 389.719 -0.402919 0.52778 0
M  V30 4188 H 392.249 -0.686241 1.92748 0
M  V30 4189 H 392.259 -2.97481 2.79229 0
M  V30 4190 H 390.934 -2.12771 3.57353 0
M  V30 4191 H 389.511 -3.12374 2.03659 0
M  V30 4192 N 391.696 -1.35014 -0.812953 0
M  V30 4193 C 392.643 -1.27412 -1.92444 0
M  V30 4194 C 393.613 -0.14733 -1.65445 0
M  V30 4195 O 394.798 -0.329974 -1.87925 0
M  V30 4196 C 391.938 -1.04558 -3.28879 0
M  V30 4197 C 391.051 -2.26101 -3.68106 0
M  V30 4198 C 390.186 -1.96449 -4.9354 0
M  V30 4199 C 389.225 -3.14081 -5.25376 0
M  V30 4200 N 388.362 -2.84246 -6.41988 0
M  V30 4201 H 393.202 -2.22463 -1.98278 0
M  V30 4202 H 390.739 -1.10593 -0.969933 0
M  V30 4203 H 392.697 -0.893413 -4.07522 0
M  V30 4204 H 391.327 -0.131719 -3.22531 0
M  V30 4205 H 390.379 -2.52204 -2.84775 0
M  V30 4206 H 391.691 -3.13959 -3.87597 0
M  V30 4207 H 390.845 -1.78026 -5.79993 0
M  V30 4208 H 389.584 -1.05867 -4.76071 0
M  V30 4209 H 388.589 -3.33089 -4.37415 0
M  V30 4210 H 389.814 -4.05455 -5.44778 0
M  V30 4211 H 387.76 -1.96252 -6.25956 0
M  V30 4212 H 387.677 -3.65637 -6.61699 0
M  V30 4213 H 388.945 -2.6935 -7.31485 0
M  V30 4214 N 393.175 1.03435 -1.18907 0
M  V30 4215 C 394.405 1.8012 -1.01195 0
M  V30 4216 C 394.813 1.8395 0.442613 0
M  V30 4217 O 394.156 1.27836 1.31923 0
M  V30 4218 C 394.218 3.26792 -1.49823 0
M  V30 4219 C 393.882 3.46609 -2.97844 0
M  V30 4220 C 394.879 3.37278 -3.95651 0
M  V30 4221 C 392.564 3.73001 -3.36416 0
M  V30 4222 C 394.558 3.54054 -5.30023 0
M  V30 4223 C 392.245 3.89423 -4.70949 0
M  V30 4224 C 393.243 3.79951 -5.67562 0
M  V30 4225 O 392.931 3.95895 -6.99659 0
M  V30 4226 H 392.663 0.573865 -0.357289 0
M  V30 4227 H 395.217 1.31207 -1.58031 0
M  V30 4228 H 393.447 3.76703 -0.873578 0
M  V30 4229 H 395.136 3.85055 -1.28404 0
M  V30 4230 H 395.902 3.16846 -3.67197 0
M  V30 4231 H 391.781 3.79469 -2.61772 0
M  V30 4232 H 395.325 3.46577 -6.05417 0
M  V30 4233 H 391.222 4.09351 -4.99101 0
M  V30 4234 H 391.99 4.13019 -7.06653 0
M  V30 4235 N 394.653 0.992116 1.22453 0
M  V30 4236 C 395.878 0.685644 1.95739 0
M  V30 4237 C 396.303 -0.743 1.72804 0
M  V30 4238 O 395.661 -1.50778 1.00676 0
M  V30 4239 C 395.709 0.996293 3.46564 0
M  V30 4240 O 394.813 0.0945512 4.12292 0
M  V30 4241 H 394.154 0.256694 0.612376 0
M  V30 4242 H 396.684 1.32888 1.5557 0
M  V30 4243 H 396.694 0.93781 3.97076 0
M  V30 4244 H 395.369 2.03733 3.62582 0
M  V30 4245 H 393.946 0.208451 3.72317 0
M  V30 4246 N 396.131 -1.37776 0.765217 0
M  V30 4247 C 397.063 -2.28958 0.105361 0
M  V30 4248 C 398.076 -1.48316 -0.67128 0
M  V30 4249 O 399.265 -1.71046 -0.51045 0
M  V30 4250 C 396.365 -3.27421 -0.874569 0
M  V30 4251 C 395.538 -4.37132 -0.153123 0
M  V30 4252 C 394.597 -5.1571 -1.04547 0
M  V30 4253 O 393.623 -5.66896 -0.511672 0
M  V30 4254 N 394.825 -5.29808 -2.37243 0
M  V30 4255 H 397.59 -2.86227 0.888495 0
M  V30 4256 H 395.151 -1.49682 0.617 0
M  V30 4257 H 397.143 -3.7687 -1.47483 0
M  V30 4258 H 395.713 -2.70967 -1.55871 0
M  V30 4259 H 394.933 -3.89166 0.627975 0
M  V30 4260 H 396.221 -5.07625 0.345643 0
M  V30 4261 H 395.619 -4.89793 -2.83054 0
M  V30 4262 H 394.176 -5.82589 -2.9229 0
M  V30 4263 N 397.609 -0.515225 -1.4894 0
M  V30 4264 C 398.856 0.024215 -2.02486 0
M  V30 4265 C 399.184 1.35671 -1.39368 0
M  V30 4266 O 398.439 1.88566 -0.523574 0
M  V30 4267 C 398.738 0.210595 -3.56779 0
M  V30 4268 C 398.404 -1.04569 -4.38607 0
M  V30 4269 C 397.066 -1.39002 -4.60686 0
M  V30 4270 C 399.418 -1.88008 -4.86109 0
M  V30 4271 C 396.746 -2.568 -5.27514 0
M  V30 4272 C 399.098 -3.04972 -5.54234 0
M  V30 4273 C 397.762 -3.39768 -5.74555 0
M  V30 4274 H 397.032 0.00886088 -0.740947 0
M  V30 4275 H 399.679 -0.678263 -1.79086 0
M  V30 4276 H 397.984 0.99572 -3.78936 0
M  V30 4277 H 399.681 0.642659 -3.95817 0
M  V30 4278 H 396.271 -0.767497 -4.21672 0
M  V30 4279 H 400.455 -1.62719 -4.68867 0
M  V30 4280 H 395.711 -2.8398 -5.41447 0
M  V30 4281 H 399.885 -3.69943 -5.90013 0
M  V30 4282 H 397.512 -4.31148 -6.26112 0
M  V30 4283 N 399.087 1.5561 -0.249682 0
M  V30 4284 C 400.336 1.98187 0.37479 0
M  V30 4285 C 400.649 1.14111 1.58865 0
M  V30 4286 O 401.855 1.46714 2.28445 0
M  V30 4287 C 400.311 3.52661 0.718192 0
M  V30 4288 C 399.919 4.45481 -0.474428 0
M  V30 4289 C 401.663 4.03888 1.3067 0
M  V30 4290 C 399.57 5.91303 -0.107026 0
M  V30 4291 H 398.5 0.740159 0.143808 0
M  V30 4292 H 401.151 1.80125 -0.350336 0
M  V30 4293 H 399.533 3.66429 1.50152 0
M  V30 4294 H 400.707 4.43473 -1.25172 0
M  V30 4295 H 399.022 4.04751 -0.978052 0
M  V30 4296 H 401.619 5.10358 1.59496 0
M  V30 4297 H 401.962 3.51401 2.23211 0
M  V30 4298 H 402.495 3.93457 0.586211 0
M  V30 4299 H 399.234 6.47833 -0.999642 0
M  V30 4300 H 398.754 5.9644 0.634013 0
M  V30 4301 H 400.433 6.46258 0.309807 0
M  V30 4302 N 400.565 -0.0233959 1.57583 0
M  V30 4303 C 401.497 -1.04994 2.03737 0
M  V30 4304 C 402.51 -1.32125 0.951152 0
M  V30 4305 O 403.699 -1.29512 1.22837 0
M  V30 4306 C 400.799 -2.39026 2.40249 0
M  V30 4307 C 399.972 -2.31171 3.7132 0
M  V30 4308 C 399.031 -3.47698 3.94959 0
M  V30 4309 O 398.057 -3.26937 4.65941 0
M  V30 4310 N 399.259 -4.6976 3.41037 0
M  V30 4311 H 402.024 -0.656507 2.92421 0
M  V30 4312 H 399.585 -0.211235 1.60516 0
M  V30 4313 H 401.577 -3.15712 2.53196 0
M  V30 4314 H 400.147 -2.70194 1.57207 0
M  V30 4315 H 399.367 -1.39547 3.68674 0
M  V30 4316 H 400.655 -2.23071 4.57293 0
M  V30 4317 H 400.053 -4.89528 2.83512 0
M  V30 4318 H 398.61 -5.43791 3.59353 0
M  V30 4319 N 402.043 -1.548 -0.295768 0
M  V30 4320 C 403.29 -1.74329 -1.03032 0
M  V30 4321 C 403.618 -0.531915 -1.87085 0
M  V30 4322 O 402.873 0.486052 -1.89568 0
M  V30 4323 C 403.172 -2.98797 -1.961 0
M  V30 4324 C 402.838 -4.32356 -1.2798 0
M  V30 4325 C 401.5 -4.68661 -1.09135 0
M  V30 4326 C 403.852 -5.15128 -0.793243 0
M  V30 4327 C 401.18 -5.85312 -0.403269 0
M  V30 4328 C 403.532 -6.32488 -0.118854 0
M  V30 4329 C 402.196 -6.6745 0.0815043 0
M  V30 4330 H 401.466 -0.637916 -0.37702 0
M  V30 4331 H 404.113 -1.8906 -0.304696 0
M  V30 4332 H 402.418 -2.78869 -2.75207 0
M  V30 4333 H 404.115 -3.11102 -2.53015 0
M  V30 4334 H 400.705 -4.03808 -1.43655 0
M  V30 4335 H 404.889 -4.87575 -0.92653 0
M  V30 4336 H 400.145 -6.1094 -0.237098 0
M  V30 4337 H 404.319 -6.95892 0.266035 0
M  V30 4338 H 401.946 -7.57695 0.616685 0
M  V30 4339 N 403.521 0.559213 -1.47345 0
M  V30 4340 C 404.932 1.14134 -1.47751 0
M  V30 4341 C 405.283 1.94834 -0.231103 0
M  V30 4342 O 404.408 2.05957 0.664137 0
M  V30 4343 C 405.003 2.07653 -2.67705 0
M  V30 4344 C 403.562 2.61141 -2.71076 0
M  V30 4345 C 402.709 1.3748 -2.40821 0
M  V30 4346 H 405.66 0.345917 -1.54884 0
M  V30 4347 H 405.681 2.91497 -2.44561 0
M  V30 4348 H 405.193 1.4889 -3.58404 0
M  V30 4349 H 403.294 3.23707 -1.84511 0
M  V30 4350 H 403.407 3.02272 -3.7171 0
M  V30 4351 H 401.771 1.68086 -1.91362 0
M  V30 4352 H 402.554 0.805135 -3.33725 0
M  V30 4353 N 404.999 1.35443 0.805782 0
M  V30 4354 C 406.248 1.28097 1.55801 0
M  V30 4355 C 406.561 -0.142428 1.95081 0
M  V30 4356 O 407.767 -0.33817 2.69386 0
M  V30 4357 C 406.223 2.24653 2.81174 0
M  V30 4358 C 405.831 3.72342 2.49129 0
M  V30 4359 C 407.575 2.2625 3.59181 0
M  V30 4360 C 405.482 4.60719 3.70799 0
M  V30 4361 H 404.412 0.475937 0.584808 0
M  V30 4362 H 407.063 1.60712 0.885661 0
M  V30 4363 H 405.445 1.85011 3.50124 0
M  V30 4364 H 406.619 4.20624 1.88181 0
M  V30 4365 H 404.934 3.73361 1.84366 0
M  V30 4366 H 407.531 2.89495 4.49552 0
M  V30 4367 H 407.874 1.26647 3.96568 0
M  V30 4368 H 408.407 2.64426 2.97193 0
M  V30 4369 H 405.146 5.61324 3.3852 0
M  V30 4370 H 404.666 4.17163 4.3097 0
M  V30 4371 H 406.345 4.76182 4.38018 0
M  V30 4372 N 406.477 -1.02803 1.19454 0
M  V30 4373 C 407.707 -1.79581 1.02149 0
M  V30 4374 C 408.115 -1.84182 -0.432851 0
M  V30 4375 O 407.458 -1.28534 -1.31243 0
M  V30 4376 C 407.52 -3.25993 1.51554 0
M  V30 4377 C 407.184 -3.45025 2.99678 0
M  V30 4378 C 408.181 -3.35175 3.97434 0
M  V30 4379 C 405.866 -3.71212 3.38389 0
M  V30 4380 C 407.86 -3.51238 5.31893 0
M  V30 4381 C 405.547 -3.8692 4.73008 0
M  V30 4382 C 406.545 -3.76936 5.69569 0
M  V30 4383 O 406.233 -3.92179 7.01748 0
M  V30 4384 H 405.965 -0.571962 0.360327 0
M  V30 4385 H 408.519 -1.30367 1.58725 0
M  V30 4386 H 406.749 -3.76235 0.893543 0
M  V30 4387 H 408.438 -3.84368 1.30444 0
M  V30 4388 H 409.204 -3.14895 3.68872 0
M  V30 4389 H 405.083 -3.78075 2.6378 0
M  V30 4390 H 408.627 -3.43362 6.07247 0
M  V30 4391 H 404.524 -4.06699 5.01265 0
M  V30 4392 H 405.292 -4.09265 7.08833 0
M  V30 4393 N 407.956 -0.998596 -1.21925 0
M  V30 4394 C 408.886 -0.573688 -2.26343 0
M  V30 4395 C 409.867 0.402296 -1.65274 0
M  V30 4396 O 411.052 0.291683 -1.91997 0
M  V30 4397 C 408.182 0.106839 -3.47136 0
M  V30 4398 C 407.136 -0.788269 -4.20678 0
M  V30 4399 C 406.462 0.0254927 -5.34694 0
M  V30 4400 C 407.762 -2.08784 -4.78755 0
M  V30 4401 H 409.456 -1.44651 -2.62138 0
M  V30 4402 H 407.002 -0.696975 -1.26009 0
M  V30 4403 H 408.955 0.415531 -4.19346 0
M  V30 4404 H 407.679 1.01424 -3.10452 0
M  V30 4405 H 406.338 -1.08069 -3.50309 0
M  V30 4406 H 405.986 0.933989 -4.94253 0
M  V30 4407 H 405.686 -0.570437 -5.84825 0
M  V30 4408 H 407.21 0.328147 -6.09718 0
M  V30 4409 H 408.624 -1.84272 -5.42878 0
M  V30 4410 H 407.021 -2.63307 -5.39249 0
M  V30 4411 H 408.091 -2.76284 -3.98491 0
M  V30 4412 N 409.434 1.37368 -0.772513 0
M  V30 4413 C 410.364 2.32856 -0.173304 0
M  V30 4414 C 411.345 1.55818 0.682262 0
M  V30 4415 O 412.53 1.84052 0.619566 0
M  V30 4416 C 409.66 3.40048 0.706007 0
M  V30 4417 C 408.614 4.27973 -0.0483144 0
M  V30 4418 C 407.94 5.26184 0.950491 0
M  V30 4419 C 409.24 5.07665 -1.22776 0
M  V30 4420 H 410.934 2.83217 -0.971002 0
M  V30 4421 H 408.48 1.3617 -0.468377 0
M  V30 4422 H 410.433 4.05827 1.13501 0
M  V30 4423 H 409.157 2.88214 1.53623 0
M  V30 4424 H 407.816 3.63726 -0.458107 0
M  V30 4425 H 407.464 4.7063 1.77529 0
M  V30 4426 H 407.164 5.85872 0.450314 0
M  V30 4427 H 408.688 5.94838 1.37842 0
M  V30 4428 H 410.102 5.66578 -0.875366 0
M  V30 4429 H 408.499 5.76681 -1.66007 0
M  V30 4430 H 409.569 4.40294 -2.03149 0
M  V30 4431 N 410.912 0.523116 1.48665 0
M  V30 4432 C 411.862 -0.263106 2.26477 0
M  V30 4433 C 412.846 -0.916005 1.32281 0
M  V30 4434 O 414.038 -0.819946 1.56863 0
M  V30 4435 C 411.167 -1.31361 3.17174 0
M  V30 4436 C 410.253 -0.665849 4.1884 0
M  V30 4437 N 410.644 0.244434 5.05209 0
M  V30 4438 C 408.942 -0.923863 4.36326 0
M  V30 4439 C 409.643 0.617443 5.78414 0
M  V30 4440 N 408.619 -0.0198686 5.43596 0
M  V30 4441 H 412.421 0.437295 2.90629 0
M  V30 4442 H 409.935 0.340675 1.58787 0
M  V30 4443 H 411.932 -1.89052 3.71571 0
M  V30 4444 H 410.592 -2.01546 2.54576 0
M  V30 4445 H 411.603 0.616621 5.14216 0
M  V30 4446 H 408.28 -1.6168 3.84923 0
M  V30 4447 H 409.67 1.36346 6.57921 0
M  V30 4448 N 412.39 -1.55475 0.257931 0
M  V30 4449 C 413.3 -2.2549 -0.647425 0
M  V30 4450 C 414.316 -1.2748 -1.18427 0
M  V30 4451 O 415.492 -1.6038 -1.2182 0
M  V30 4452 C 412.557 -2.94916 -1.82278 0
M  V30 4453 C 411.618 -4.08363 -1.32432 0
M  V30 4454 C 410.851 -4.74469 -2.44366 0
M  V30 4455 O 411.074 -4.39701 -3.63344 0
M  V30 4456 O 410.008 -5.62763 -2.13497 0
M  V30 4457 H 413.834 -3.03593 -0.0807707 0
M  V30 4458 H 411.419 -1.49377 0.0259962 0
M  V30 4459 H 413.301 -3.38606 -2.50846 0
M  V30 4460 H 411.976 -2.19744 -2.37685 0
M  V30 4461 H 410.883 -3.69166 -0.605605 0
M  V30 4462 H 412.216 -4.85385 -0.816211 0
M  V30 4463 N 413.868 0.0150385 -1.57593 0
M  V30 4464 C 414.816 1.02958 -2.08572 0
M  V30 4465 C 415.81 1.36554 -1.00246 0
M  V30 4466 O 417.016 1.35295 -1.18724 0
M  V30 4467 H 413.391 0.349619 -0.665786 0
M  V30 4468 H 415.362 0.573932 -2.92829 0
M  V30 4469 C 414.111 2.31752 -2.59203 0
M  V30 4470 H 413.434 2.06765 -3.42182 0
M  V30 4471 H 414.874 3.01053 -2.98568 0
M  V30 4472 C 413.333 3.01692 -1.49945 0
M  V30 4473 O 413.863 3.92083 -0.873704 0
M  V30 4474 N 412.069 2.6326 -1.23056 0
M  V30 4475 H 411.616 1.89838 -1.74125 0
M  V30 4476 H 411.574 3.10372 -0.501685 0
M  V30 4477 N 415.346 1.54954 0.287554 0
M  V30 4478 C 416.592 1.75132 1.02257 0
M  V30 4479 C 416.925 0.542858 1.86458 0
M  V30 4480 O 416.2 -0.459856 1.88986 0
M  V30 4481 C 416.483 3.04812 1.91733 0
M  V30 4482 C 416.336 4.35985 1.10622 0
M  V30 4483 C 417.655 3.30438 2.90687 0
M  V30 4484 H 414.774 0.637194 0.370341 0
M  V30 4485 H 417.416 1.87678 0.296111 0
M  V30 4486 H 415.566 2.94247 2.53675 0
M  V30 4487 H 417.238 4.58487 0.508636 0
M  V30 4488 H 415.481 4.31865 0.409271 0
M  V30 4489 H 416.152 5.23017 1.76513 0
M  V30 4490 H 418.628 3.40701 2.38877 0
M  V30 4491 H 417.504 4.22467 3.50447 0
M  V30 4492 H 417.765 2.49377 3.65053 0
M  V30 4493 N 416.824 -0.551391 1.4764 0
M  V30 4494 C 418.054 -1.33163 1.57959 0
M  V30 4495 C 418.462 -1.87785 0.23094 0
M  V30 4496 O 417.805 -1.65996 -0.786825 0
M  V30 4497 C 417.867 -2.53449 2.54958 0
M  V30 4498 C 417.531 -2.20071 4.00522 0
M  V30 4499 C 418.528 -1.77017 4.88836 0
M  V30 4500 C 416.213 -2.31252 4.45901 0
M  V30 4501 C 418.207 -1.4558 6.20552 0
M  V30 4502 C 415.894 -1.99427 5.77644 0
M  V30 4503 C 416.892 -1.56659 6.64791 0
M  V30 4504 O 416.58 -1.25242 7.94084 0
M  V30 4505 H 416.312 -0.412022 0.535923 0
M  V30 4506 H 418.866 -0.674186 1.9402 0
M  V30 4507 H 417.096 -3.22104 2.13976 0
M  V30 4508 H 418.785 -3.15523 2.55343 0
M  V30 4509 H 419.551 -1.67867 4.55023 0
M  V30 4510 H 415.43 -2.63498 3.78272 0
M  V30 4511 H 418.974 -1.12125 6.8853 0
M  V30 4512 H 414.871 -2.08211 6.10998 0
M  V30 4513 H 415.639 -1.38822 8.06642 0
M  V30 4514 N 418.302 -1.35869 -0.798587 0
M  V30 4515 C 419.53 -1.32722 -1.58722 0
M  V30 4516 C 419.945 0.0935631 -1.88568 0
M  V30 4517 O 419.302 1.04784 -1.49421 0
M  V30 4518 C 419.353 -2.13974 -2.91371 0
M  V30 4519 O 419.074 -3.50514 -2.62815 0
M  V30 4520 C 420.575 -2.18504 -3.85708 0
M  V30 4521 H 417.795 -0.45562 -0.492596 0
M  V30 4522 H 420.339 -1.78837 -0.991843 0
M  V30 4523 H 418.494 -1.71438 -3.47402 0
M  V30 4524 H 418.908 -3.92806 -3.47568 0
M  V30 4525 H 420.382 -2.79732 -4.75872 0
M  V30 4526 H 420.859 -1.18597 -4.22885 0
M  V30 4527 H 421.465 -2.61236 -3.35612 0
M  V30 4528 N 419.78 1.02168 -1.19998 0
M  V30 4529 C 420.69 2.14069 -0.959774 0
M  V30 4530 C 421.706 1.73804 0.082655 0
M  V30 4531 O 422.882 2.01133 -0.103633 0
M  V30 4532 C 419.947 3.42936 -0.509459 0
M  V30 4533 C 419.008 3.97474 -1.62213 0
M  V30 4534 C 418.241 5.2019 -1.19321 0
M  V30 4535 O 418.464 5.70369 -0.0597726 0
M  V30 4536 O 417.398 5.67749 -1.99863 0
M  V30 4537 H 421.224 2.37199 -1.89658 0
M  V30 4538 H 418.809 1.12469 -0.983411 0
M  V30 4539 H 420.691 4.20551 -0.267322 0
M  V30 4540 H 419.366 3.21234 0.398821 0
M  V30 4541 H 418.273 3.21161 -1.9185 0
M  V30 4542 H 419.606 4.23555 -2.50723 0
M  V30 4543 N 421.258 1.00505 1.21394 0
M  V30 4544 C 422.168 0.574806 2.27449 0
M  V30 4545 C 423.184 -0.382206 1.6975 0
M  V30 4546 O 424.36 -0.246027 1.99892 0
M  V30 4547 C 421.425 -0.0917414 3.46579 0
M  V30 4548 C 420.486 0.909758 4.1955 0
M  V30 4549 C 419.719 0.274924 5.32991 0
M  V30 4550 O 419.942 -0.928254 5.62796 0
M  V30 4551 O 418.876 0.985877 5.93771 0
M  V30 4552 H 422.702 1.45744 2.66444 0
M  V30 4553 H 420.287 0.773923 1.27792 0
M  V30 4554 H 422.169 -0.464551 4.18832 0
M  V30 4555 H 420.844 -0.948755 3.09484 0
M  V30 4556 H 419.751 1.33372 3.49518 0
M  V30 4557 H 421.084 1.73636 4.60555 0
M  V30 4558 N 422.737 -1.36956 0.779787 0
M  V30 4559 C 423.983 -1.99787 0.348281 0
M  V30 4560 C 424.316 -1.61756 -1.07465 0
M  V30 4561 O 423.591 -0.867639 -1.74075 0
M  V30 4562 C 423.874 -3.56597 0.50104 0
M  V30 4563 C 423.727 -4.04513 1.96697 0
M  V30 4564 C 425.046 -4.40008 -0.0898097 0
M  V30 4565 H 422.165 -0.725796 0.128022 0
M  V30 4566 H 424.807 -1.62514 0.984331 0
M  V30 4567 H 422.957 -3.88479 -0.0404347 0
M  V30 4568 H 424.629 -3.83161 2.56876 0
M  V30 4569 H 422.872 -3.56408 2.47297 0
M  V30 4570 H 423.543 -5.1352 2.02486 0
M  V30 4571 H 426.019 -4.14431 0.372293 0
M  V30 4572 H 424.895 -5.4888 0.0471605 0
M  V30 4573 H 425.156 -4.26035 -1.18096 0
M  V30 4574 N 424.215 -0.530993 -1.48385 0
M  V30 4575 C 425.145 0.219985 -2.32461 0
M  V30 4576 C 426.126 0.934111 -1.42156 0
M  V30 4577 O 427.311 0.919694 -1.71042 0
M  V30 4578 C 424.441 1.26674 -3.23375 0
M  V30 4579 C 423.395 0.67069 -4.22712 0
M  V30 4580 C 422.721 1.82017 -5.02766 0
M  V30 4581 C 424.021 -0.358268 -5.2107 0
M  V30 4582 H 425.715 -0.48187 -2.95497 0
M  V30 4583 H 423.261 -0.233182 -1.42099 0
M  V30 4584 H 425.214 1.80006 -3.81019 0
M  V30 4585 H 423.938 1.99818 -2.58341 0
M  V30 4586 H 422.597 0.158878 -3.66256 0
M  V30 4587 H 422.245 2.54002 -4.34157 0
M  V30 4588 H 421.945 1.42727 -5.70003 0
M  V30 4589 H 423.469 2.35725 -5.63264 0
M  V30 4590 H 424.883 0.0880081 -5.73232 0
M  V30 4591 H 423.28 -0.66861 -5.96364 0
M  V30 4592 H 424.35 -1.26367 -4.68145 0
M  V30 4593 N 425.693 1.55336 -0.266172 0
M  V30 4594 C 426.656 2.20878 0.612001 0
M  V30 4595 C 427.656 1.18388 1.08816 0
M  V30 4596 O 428.846 1.4335 0.989774 0
M  V30 4597 C 425.978 2.86765 1.84332 0
M  V30 4598 H 427.171 2.99873 0.0398718 0
M  V30 4599 H 424.724 1.56291 -0.0167309 0
M  V30 4600 H 425.459 2.11759 2.45619 0
M  V30 4601 H 425.244 3.61862 1.5099 0
M  V30 4602 H 426.734 3.36867 2.46801 0
M  V30 4603 N 427.171 -0.0066808 1.57599 0
M  V30 4604 C 428.448 -0.729586 1.81484 0
M  V30 4605 C 428.828 -1.92359 0.869558 0
M  V30 4606 O 428.176 -2.28348 -0.0832533 0
M  V30 4607 C 428.386 -1.1416 3.29801 0
M  V30 4608 C 429.734 -1.54823 3.95367 0
M  V30 4609 O 430.758 -1.23558 3.34084 0
M  V30 4610 O 429.617 -2.12937 5.03309 0
M  V30 4611 H 426.711 -0.354674 0.747085 0
M  V30 4612 H 429.257 0.0182609 1.6969 0
M  V30 4613 H 428.029 -0.290231 3.90222 0
M  V30 4614 H 427.652 -1.94876 3.46568 0
M  V30 4615 N 428.649 -1.55105 -0.279332 0
M  V30 4616 C 429.898 -1.74618 -1.00952 0
M  V30 4617 C 430.211 -0.551096 -1.87676 0
M  V30 4618 O 431.417 -0.628507 -2.64125 0
M  V30 4619 C 429.873 -3.09025 -1.84476 0
M  V30 4620 C 429.481 -4.36081 -1.0265 0
M  V30 4621 C 431.225 -3.37891 -2.56963 0
M  V30 4622 C 429.132 -5.6153 -1.85576 0
M  V30 4623 H 428.062 -0.650868 -0.38064 0
M  V30 4624 H 430.713 -1.81569 -0.265475 0
M  V30 4625 H 429.095 -2.96095 -2.62952 0
M  V30 4626 H 430.269 -4.59909 -0.286354 0
M  V30 4627 H 428.584 -4.14312 -0.416464 0
M  V30 4628 H 431.181 -4.28822 -3.19399 0
M  V30 4629 H 431.524 -2.57737 -3.26921 0
M  V30 4630 H 432.057 -3.5189 -1.85522 0
M  V30 4631 H 428.796 -6.44413 -1.2005 0
M  V30 4632 H 428.316 -5.41854 -2.57204 0
M  V30 4633 H 429.995 -5.99594 -2.43096 0
M  V30 4634 N 430.127 0.543554 -1.4793 0
M  V30 4635 C 431.09 1.63156 -1.60975 0
M  V30 4636 C 432.09 1.53346 -0.483899 0
M  V30 4637 O 433.28 1.5726 -0.749339 0
M  V30 4638 C 430.412 3.02743 -1.56716 0
M  V30 4639 H 431.605 1.52934 -2.57975 0
M  V30 4640 H 429.158 0.764557 -1.36324 0
M  V30 4641 H 429.893 3.18484 -0.611418 0
M  V30 4642 H 429.678 3.11272 -2.38438 0
M  V30 4643 H 431.168 3.81871 -1.6901 0
M  V30 4644 N 431.605 1.3629 0.791371 0
M  V30 4645 C 432.552 1.30458 1.90393 0
M  V30 4646 C 433.522 0.173632 1.6519 0
M  V30 4647 O 434.707 0.35983 1.87376 0
M  V30 4648 C 431.847 1.09777 3.27174 0
M  V30 4649 C 430.96 2.31929 3.64462 0
M  V30 4650 C 430.095 2.04276 4.90352 0
M  V30 4651 C 429.134 3.224 5.20312 0
M  V30 4652 N 428.271 2.94424 6.37385 0
M  V30 4653 H 433.111 2.25589 1.94714 0
M  V30 4654 H 430.648 1.12122 0.952216 0
M  V30 4655 H 432.606 0.958133 4.06049 0
M  V30 4656 H 431.236 0.183014 3.22281 0
M  V30 4657 H 430.288 2.56703 2.80727 0
M  V30 4658 H 431.6 3.20085 3.82553 0
M  V30 4659 H 430.754 1.87231 5.77087 0
M  V30 4660 H 429.493 1.13428 4.74326 0
M  V30 4661 H 428.498 3.40005 4.32061 0
M  V30 4662 H 429.723 4.14071 5.38258 0
M  V30 4663 H 427.669 2.06185 6.22755 0
M  V30 4664 H 427.586 3.76118 6.55798 0
M  V30 4665 H 428.854 2.80953 7.27108 0
M  V30 4666 N 433.083 -1.0153 1.20538 0
M  V30 4667 C 434.36 -1.72327 0.925343 0
M  V30 4668 C 434.74 -2.03383 -0.565547 0
M  V30 4669 O 434.088 -1.69934 -1.52757 0
M  V30 4670 C 434.298 -2.9902 1.79967 0
M  V30 4671 C 435.646 -3.72258 2.04228 0
M  V30 4672 O 436.67 -3.08979 1.77231 0
M  V30 4673 O 435.529 -4.86053 2.4983 0
M  V30 4674 H 432.623 -0.751099 0.346092 0
M  V30 4675 H 435.169 -1.07366 1.31417 0
M  V30 4676 H 433.941 -2.72402 2.80915 0
M  V30 4677 H 433.564 -3.71721 1.41099 0
M  V30 4678 N 434.561 -1.01147 -1.20859 0
M  V30 4679 C 435.494 -0.522108 -2.22147 0
M  V30 4680 C 436.472 0.427686 -1.56874 0
M  V30 4681 O 437.656 0.34889 -1.85243 0
M  V30 4682 C 434.783 0.240819 -3.37843 0
M  V30 4683 C 433.829 -0.657752 -4.21398 0
M  V30 4684 S 434.662 -2.12393 -4.91578 0
M  V30 4685 C 435.818 -1.37102 -6.10699 0
M  V30 4686 H 436.051 -1.38035 -2.63313 0
M  V30 4687 H 433.584 -0.819941 -1.30829 0
M  V30 4688 H 435.542 0.674908 -4.04914 0
M  V30 4689 H 434.203 1.07457 -2.95147 0
M  V30 4690 H 433.396 -0.0697456 -5.03952 0
M  V30 4691 H 432.998 -1.0294 -3.59555 0
M  V30 4692 H 435.29 -0.648315 -6.74391 0
M  V30 4693 H 436.233 -2.17252 -6.73949 0
M  V30 4694 H 436.641 -0.876154 -5.57659 0
M  V30 4695 N 436.039 1.36541 -0.78704 0
M  V30 4696 C 437.285 1.99599 -0.358872 0
M  V30 4697 C 437.618 1.62323 1.06606 0
M  V30 4698 O 436.893 0.876858 1.73613 0
M  V30 4699 C 437.176 3.56327 -0.519944 0
M  V30 4700 C 437.029 4.03464 -1.98839 0
M  V30 4701 C 438.348 4.4005 0.0664737 0
M  V30 4702 H 435.467 0.725107 -0.131869 0
M  V30 4703 H 438.109 1.6199 -0.992936 0
M  V30 4704 H 436.259 3.88495 0.0198321 0
M  V30 4705 H 437.931 3.81793 -2.58905 0
M  V30 4706 H 436.174 3.55092 -2.49183 0
M  V30 4707 H 436.845 5.12439 -2.05207 0
M  V30 4708 H 439.321 4.14228 -0.394267 0
M  V30 4709 H 438.197 5.48847 -0.0762682 0
M  V30 4710 H 438.458 4.26655 1.15835 0
M  V30 4711 N 437.518 0.538854 1.48102 0
M  V30 4712 C 438.466 -0.232325 2.31437 0
M  V30 4713 C 439.46 -0.927004 1.41785 0
M  V30 4714 O 440.666 -0.850378 1.58646 0
M  V30 4715 H 437.041 -0.0937916 0.746128 0
M  V30 4716 H 439.012 0.489986 2.9435 0
M  V30 4717 C 437.761 -1.26074 3.24038 0
M  V30 4718 H 437.084 -0.735609 3.92974 0
M  V30 4719 H 438.524 -1.77157 3.85216 0
M  V30 4720 C 436.983 -2.29902 2.46265 0
M  V30 4721 O 437.513 -3.36502 2.19384 0
M  V30 4722 N 435.719 -2.03348 2.07601 0
M  V30 4723 H 435.266 -1.16675 2.29662 0
M  V30 4724 H 435.224 -2.73038 1.55877 0
M  V30 4725 N 438.996 -1.55193 0.274407 0
M  V30 4726 C 440.273 -1.91584 -0.394331 0
M  V30 4727 C 440.653 -1.19858 -1.73774 0
M  V30 4728 O 440.001 -0.3252 -2.26174 0
M  V30 4729 C 440.211 -3.4487 -0.535311 0
M  V30 4730 C 441.559 -4.16636 -0.818534 0
M  V30 4731 O 442.583 -3.5076 -0.620146 0
M  V30 4732 O 441.442 -5.33209 -1.19792 0
M  V30 4733 H 438.536 -0.798349 -0.215794 0
M  V30 4734 H 441.082 -1.66646 0.320507 0
M  V30 4735 H 439.854 -3.89145 0.410141 0
M  V30 4736 H 439.477 -3.75759 -1.29964 0
M  V30 4737 N 440.474 -0.00167713 -1.576 0
M  V30 4738 C 441.885 0.54091 -1.78693 0
M  V30 4739 C 442.236 1.7386 -0.909247 0
M  V30 4740 O 441.361 2.16109 -0.112176 0
M  V30 4741 C 441.956 0.98806 -3.24072 0
M  V30 4742 C 440.515 1.47594 -3.46256 0
M  V30 4743 C 439.662 0.42792 -2.73978 0
M  V30 4744 H 442.613 -0.22784 -1.57056 0
M  V30 4745 H 442.634 1.85398 -3.32277 0
M  V30 4746 H 442.146 0.116164 -3.87926 0
M  V30 4747 H 440.247 2.36868 -2.87618 0
M  V30 4748 H 440.36 1.50225 -4.54939 0
M  V30 4749 H 438.724 0.889934 -2.38647 0
M  V30 4750 H 439.507 -0.435038 -3.40532 0
M  V30 4751 N 441.952 1.55251 0.271103 0
M  V30 4752 C 442.9 1.89054 1.35504 0
M  V30 4753 C 443.894 0.767064 1.51038 0
M  V30 4754 O 445.1 0.951429 1.528 0
M  V30 4755 H 441.475 0.600072 0.45323 0
M  V30 4756 H 443.446 2.79598 1.04247 0
M  V30 4757 C 442.195 2.18068 2.70817 0
M  V30 4758 H 441.518 3.04005 2.59656 0
M  V30 4759 H 442.958 2.4564 3.45597 0
M  V30 4760 C 441.417 0.988901 3.2206 0
M  V30 4761 O 441.947 0.224501 4.01072 0
M  V30 4762 N 440.153 0.786085 2.79766 0
M  V30 4763 H 439.7 1.40937 2.15626 0
M  V30 4764 H 439.658 -0.00969349 3.14399 0
M  V30 4765 N 443.43 -0.535701 1.48216 0
M  V30 4766 C 444.66 -1.3148 1.59363 0
M  V30 4767 C 445.068 -1.8753 0.250844 0
M  V30 4768 O 444.411 -1.66821 -0.769174 0
M  V30 4769 C 444.473 -2.50731 2.57632 0
M  V30 4770 C 444.137 -2.15811 4.02833 0
M  V30 4771 C 445.134 -1.71822 4.90686 0
M  V30 4772 C 442.819 -2.26509 4.48329 0
M  V30 4773 C 444.813 -1.3899 6.22062 0
M  V30 4774 C 442.5 -1.93289 5.79726 0
M  V30 4775 C 443.498 -1.49599 6.66415 0
M  V30 4776 O 443.186 -1.16812 7.95368 0
M  V30 4777 H 442.918 -0.406315 0.540263 0
M  V30 4778 H 445.472 -0.653569 1.94725 0
M  V30 4779 H 443.702 -3.19817 2.1738 0
M  V30 4780 H 445.391 -3.12797 2.58675 0
M  V30 4781 H 446.157 -1.63031 4.56778 0
M  V30 4782 H 442.036 -2.59471 3.81045 0
M  V30 4783 H 445.58 -1.04816 6.89681 0
M  V30 4784 H 441.477 -2.01718 6.13172 0
M  V30 4785 H 442.245 -1.30259 8.08069 0
M  V30 4786 N 444.908 -1.36708 -0.784132 0
M  V30 4787 C 446.185 -1.21776 -1.53069 0
M  V30 4788 C 446.565 0.193876 -2.10208 0
M  V30 4789 O 445.913 1.20012 -1.94446 0
M  V30 4790 C 446.123 -2.30395 -2.62143 0
M  V30 4791 C 447.471 -2.67325 -3.29882 0
M  V30 4792 O 448.495 -2.29478 -2.7243 0
M  V30 4793 O 447.354 -3.32485 -4.33724 0
M  V30 4794 H 444.448 -0.474459 -0.677361 0
M  V30 4795 H 446.994 -1.48454 -0.82216 0
M  V30 4796 H 445.766 -3.2498 -2.17953 0
M  V30 4797 H 445.389 -2.05112 -3.40609 0
M  V30 4798 N 446.386 1.0089 -1.21074 0
M  V30 4799 C 447.611 1.78727 -1.05221 0
M  V30 4800 C 448.036 1.83932 0.393795 0
M  V30 4801 O 447.394 1.28004 1.28393 0
M  V30 4802 C 447.442 3.20665 -1.64944 0
M  V30 4803 O 446.546 4.02632 -0.892273 0
M  V30 4804 H 445.887 0.550973 -0.370574 0
M  V30 4805 H 448.417 1.26847 -1.60534 0
M  V30 4806 H 448.427 3.71352 -1.69002 0
M  V30 4807 H 447.102 3.16191 -2.70177 0
M  V30 4808 H 445.679 3.61207 -0.926492 0
M  V30 4809 N 447.864 1.01787 1.20321 0
M  V30 4810 C 449.11 0.708985 1.90003 0
M  V30 4811 C 449.443 -0.759572 1.78729 0
M  V30 4812 O 448.718 -1.55198 1.17234 0
M  V30 4813 C 449.001 1.1469 3.41348 0
M  V30 4814 C 448.854 2.67586 3.61549 0
M  V30 4815 C 450.173 0.71915 4.34185 0
M  V30 4816 H 447.292 0.259034 0.689978 0
M  V30 4817 H 449.934 1.26584 1.41692 0
M  V30 4818 H 448.084 0.673128 3.82624 0
M  V30 4819 H 449.756 3.22826 3.29517 0
M  V30 4820 H 447.999 3.085 3.04976 0
M  V30 4821 H 448.67 2.93281 4.67643 0
M  V30 4822 H 451.146 1.12647 4.00562 0
M  V30 4823 H 450.022 1.05358 5.38694 0
M  V30 4824 H 450.283 -0.379111 4.40472 0
M  V30 4825 N 449.342 -1.36122 0.79427 0
M  V30 4826 C 450.289 -2.29982 0.194101 0
M  V30 4827 C 451.259 -1.52214 -0.664833 0
M  V30 4828 O 452.444 -1.80702 -0.612498 0
M  V30 4829 C 449.584 -3.38706 -0.661244 0
M  V30 4830 C 448.697 -4.31456 0.216766 0
M  V30 4831 C 447.832 -5.27265 -0.645411 0
M  V30 4832 C 446.871 -6.11653 0.233756 0
M  V30 4833 N 446.008 -6.99636 -0.587682 0
M  V30 4834 H 450.848 -2.80722 0.999965 0
M  V30 4835 H 448.385 -1.38172 0.504677 0
M  V30 4836 H 450.343 -4.00394 -1.17219 0
M  V30 4837 H 448.973 -2.89274 -1.43249 0
M  V30 4838 H 448.025 -3.7088 0.845724 0
M  V30 4839 H 449.337 -4.90724 0.893973 0
M  V30 4840 H 448.491 -5.94266 -1.22198 0
M  V30 4841 H 447.23 -4.68463 -1.35623 0
M  V30 4842 H 446.235 -5.4361 0.82269 0
M  V30 4843 H 447.46 -6.72531 0.942247 0
M  V30 4844 H 445.406 -6.43337 -1.2827 0
M  V30 4845 H 445.323 -7.55993 0.0317402 0
M  V30 4846 H 446.591 -7.71001 -1.14792 0
M  V30 4847 N 450.82 -0.546701 -1.47814 0
M  V30 4848 C 452.066 -0.0187684 -2.02791 0
M  V30 4849 C 452.399 1.32338 -1.42128 0
M  V30 4850 O 451.674 1.85867 -0.573023 0
M  V30 4851 C 451.957 0.0854985 -3.59998 0
M  V30 4852 C 451.81 -1.283 -4.31114 0
M  V30 4853 C 453.129 0.80412 -4.32691 0
M  V30 4854 H 450.248 -0.0082946 -0.736953 0
M  V30 4855 H 452.89 -0.706962 -1.76358 0
M  V30 4856 H 451.04 0.671609 -3.82651 0
M  V30 4857 H 452.712 -1.91151 -4.19832 0
M  V30 4858 H 450.955 -1.86049 -3.91878 0
M  V30 4859 H 451.626 -1.16287 -5.39612 0
M  V30 4860 H 454.102 0.306576 -4.14969 0
M  V30 4861 H 452.978 0.846011 -5.42341 0
M  V30 4862 H 453.239 1.85802 -4.01161 0
M  V30 4863 N 452.299 1.55045 -0.282633 0
M  V30 4864 C 453.209 2.26491 0.61147 0
M  V30 4865 C 454.225 1.29348 1.16384 0
M  V30 4866 O 455.401 1.62298 1.19253 0
M  V30 4867 C 452.466 2.97779 1.77563 0
M  V30 4868 C 451.527 4.10418 1.25919 0
M  V30 4869 C 450.76 4.78297 2.36786 0
M  V30 4870 O 450.983 4.45426 3.56303 0
M  V30 4871 O 449.917 5.66089 2.04517 0
M  V30 4872 H 453.743 3.03683 0.0324615 0
M  V30 4873 H 451.328 1.49317 -0.0497576 0
M  V30 4874 H 453.21 3.42554 2.45427 0
M  V30 4875 H 451.885 2.23498 2.34159 0
M  V30 4876 H 450.792 3.70082 0.546797 0
M  V30 4877 H 452.125 4.86622 0.738887 0
M  V30 4878 N 453.777 0.010035 1.57597 0
M  V30 4879 C 454.687 -0.994226 2.12491 0
M  V30 4880 C 455.703 -1.37013 1.07254 0
M  V30 4881 O 456.879 -1.45542 1.3921 0
M  V30 4882 C 453.944 -2.2642 2.62555 0
M  V30 4883 C 453.005 -1.95049 3.82432 0
M  V30 4884 C 452.238 -3.15991 4.30099 0
M  V30 4885 O 452.461 -4.28015 3.7704 0
M  V30 4886 O 451.395 -2.99403 5.22151 0
M  V30 4887 H 455.221 -0.557549 2.98538 0
M  V30 4888 H 452.806 -0.209413 1.47925 0
M  V30 4889 H 454.688 -3.01009 2.9491 0
M  V30 4890 H 453.363 -2.69306 1.796 0
M  V30 4891 H 452.27 -1.17904 3.55034 0
M  V30 4892 H 453.603 -1.56992 4.66491 0
M  V30 4893 N 455.255 -1.55392 -0.262866 0
M  V30 4894 C 456.483 -1.80513 -1.01108 0
M  V30 4895 C 456.898 -0.583533 -1.79556 0
M  V30 4896 O 456.255 0.447585 -1.76926 0
M  V30 4897 C 456.306 -3.03648 -1.96164 0
M  V30 4898 O 456.027 -4.2109 -1.20893 0
M  V30 4899 C 457.528 -3.41448 -2.82715 0
M  V30 4900 H 454.748 -0.601079 -0.298236 0
M  V30 4901 H 457.292 -2.02425 -0.290582 0
M  V30 4902 H 455.447 -2.83832 -2.63663 0
M  V30 4903 H 455.861 -4.90771 -1.85051 0
M  V30 4904 H 457.335 -4.30751 -3.45192 0
M  V30 4905 H 457.812 -2.61308 -3.53008 0
M  V30 4906 H 458.418 -3.63559 -2.20693 0
M  V30 4907 N 456.733 0.527833 -1.48498 0
M  V30 4908 C 458.01 1.28905 -1.47115 0
M  V30 4909 C 458.39 2.10297 -0.184007 0
M  V30 4910 O 457.738 2.12728 0.834218 0
M  V30 4911 C 457.948 2.16866 -2.73441 0
M  V30 4912 C 459.296 2.76936 -3.21857 0
M  V30 4913 O 460.32 2.27152 -2.74373 0
M  V30 4914 O 459.179 3.67496 -4.04486 0
M  V30 4915 H 456.273 0.581918 -0.587623 0
M  V30 4916 H 458.819 0.544311 -1.60734 0
M  V30 4917 H 457.591 1.56521 -3.58632 0
M  V30 4918 H 457.214 2.98583 -2.62553 0
M  V30 4919 N 458.211 1.37122 0.776871 0
M  V30 4920 C 459.488 1.22586 1.52421 0
M  V30 4921 C 459.868 -0.182726 2.10308 0
M  V30 4922 O 459.216 -1.18979 1.9508 0
M  V30 4923 C 459.426 2.31782 2.60918 0
M  V30 4924 C 460.774 2.69071 3.2846 0
M  V30 4925 O 461.798 2.3092 2.71209 0
M  V30 4926 O 460.657 3.3478 4.31954 0
M  V30 4927 H 457.751 0.478045 0.674835 0
M  V30 4928 H 460.297 1.48888 0.814275 0
M  V30 4929 H 459.069 3.26131 2.16227 0
M  V30 4930 H 458.692 2.06916 3.39517 0
M  V30 4931 N 459.689 -1.00246 1.21608 0
M  V30 4932 C 461.1 -1.55511 1.03312 0
M  V30 4933 C 461.451 -1.91946 -0.406332 0
M  V30 4934 O 460.576 -1.73753 -1.28992 0
M  V30 4935 C 461.171 -2.82576 1.86913 0
M  V30 4936 C 459.73 -3.34318 1.72941 0
M  V30 4937 C 458.877 -2.07487 1.83968 0
M  V30 4938 H 461.828 -0.824638 1.35593 0
M  V30 4939 H 461.849 -3.54559 1.38087 0
M  V30 4940 H 461.361 -2.56026 2.91672 0
M  V30 4941 H 459.462 -3.65797 0.70877 0
M  V30 4942 H 459.575 -4.05566 2.55055 0
M  V30 4943 H 457.939 -2.20603 1.27304 0
M  V30 4944 H 458.722 -1.83346 2.9024 0
M  V30 4945 N 461.167 -1.02423 -1.1978 0
M  V30 4946 C 462.115 -0.594474 -2.24875 0
M  V30 4947 C 463.109 0.370598 -1.65296 0
M  V30 4948 O 464.315 0.239684 -1.78397 0
M  V30 4949 H 460.69 -0.173961 -0.731602 0
M  V30 4950 H 462.661 -1.4916 -2.58445 0
M  V30 4951 C 461.41 0.0436512 -3.47673 0
M  V30 4952 H 460.733 -0.689963 -3.93801 0
M  V30 4953 H 462.173 0.307362 -4.22884 0
M  V30 4954 C 460.632 1.28881 -3.11274 0
M  V30 4955 O 461.162 2.38135 -3.23503 0
M  V30 4956 N 459.368 1.1758 -2.6575 0
M  V30 4957 H 458.915 0.286769 -2.55999 0
M  V30 4958 H 458.873 2.00988 -2.41767 0
M  V30 4959 N 462.645 1.35699 -0.801477 0
M  V30 4960 C 463.592 2.29876 -0.206294 0
M  V30 4961 C 464.562 1.52565 0.656752 0
M  V30 4962 O 465.747 1.81024 0.602906 0
M  V30 4963 C 462.887 3.39052 0.643272 0
M  V30 4964 C 462 4.31335 -0.239644 0
M  V30 4965 C 461.135 5.27599 0.61744 0
M  V30 4966 C 460.174 6.11521 -0.26619 0
M  V30 4967 N 459.311 6.99938 0.550571 0
M  V30 4968 H 464.151 2.80187 -1.01484 0
M  V30 4969 H 461.688 1.37902 -0.511997 0
M  V30 4970 H 463.646 4.0101 1.15094 0
M  V30 4971 H 462.276 2.9003 1.41713 0
M  V30 4972 H 461.328 3.70426 -0.865381 0
M  V30 4973 H 462.64 4.90243 -0.919985 0
M  V30 4974 H 461.794 5.94906 1.19045 0
M  V30 4975 H 460.533 4.69176 1.33137 0
M  V30 4976 H 459.538 5.43166 -0.851507 0
M  V30 4977 H 460.763 6.72022 -0.9779 0
M  V30 4978 H 458.709 6.44008 1.24856 0
M  V30 4979 H 458.626 7.55966 -0.071832 0
M  V30 4980 H 459.894 7.71599 1.10702 0
M  V30 4981 N 464.123 0.554532 1.47522 0
M  V30 4982 C 465.07 -0.19466 2.29978 0
M  V30 4983 C 466.04 -0.910882 1.38896 0
M  V30 4984 O 467.225 -0.907102 1.67858 0
M  V30 4985 C 464.365 -1.22035 3.22802 0
M  V30 4986 C 463.478 -0.510474 4.28973 0
M  V30 4987 C 462.613 -1.52123 5.08952 0
M  V30 4988 C 461.652 -0.796173 6.069 0
M  V30 4989 N 460.789 -1.75363 6.79847 0
M  V30 4990 H 465.629 0.51461 2.93523 0
M  V30 4991 H 463.166 0.265607 1.44682 0
M  V30 4992 H 465.124 -1.8276 3.7504 0
M  V30 4993 H 463.754 -1.89769 2.61127 0
M  V30 4994 H 462.806 0.211234 3.79813 0
M  V30 4995 H 464.118 0.0576503 4.98767 0
M  V30 4996 H 463.272 -2.20207 5.65326 0
M  V30 4997 H 462.011 -2.12327 4.39054 0
M  V30 4998 H 461.016 -0.101388 5.49707 0
M  V30 4999 H 462.241 -0.199911 6.78806 0
M  V30 5000 H 460.187 -2.3443 6.12682 0
M  V30 5001 H 460.104 -1.23759 7.45801 0
M  V30 5002 H 461.372 -2.4257 7.40797 0
M  V30 5003 N 465.601 -1.54893 0.290851 0
M  V30 5004 C 466.829 -2.04343 -0.324288 0
M  V30 5005 C 467.244 -1.16859 -1.48289 0
M  V30 5006 O 466.601 -0.192018 -1.81487 0
M  V30 5007 C 466.652 -3.52756 -0.79026 0
M  V30 5008 O 466.373 -4.36913 0.322213 0
M  V30 5009 C 467.874 -4.18161 -1.4716 0
M  V30 5010 H 465.094 -0.667135 -0.0719173 0
M  V30 5011 H 467.638 -1.99981 0.427529 0
M  V30 5012 H 465.793 -3.57511 -1.49213 0
M  V30 5013 H 466.207 -5.24486 -0.0387372 0
M  V30 5014 H 467.681 -5.23562 -1.7489 0
M  V30 5015 H 468.158 -3.67282 -2.40834 0
M  V30 5016 H 468.764 -4.17454 -0.813178 0
M  V30 5017 N 467.08 -0.0183926 -1.57589 0
M  V30 5018 C 468.496 0.337897 -1.55982 0
M  V30 5019 C 468.696 1.73604 -1.02294 0
M  V30 5020 O 467.752 2.43589 -0.664895 0
M  V30 5021 C 469.065 0.196305 -3.00059 0
M  V30 5022 C 470.613 0.269875 -3.11834 0
M  V30 5023 C 471.088 0.157197 -4.5773 0
M  V30 5024 N 472.579 0.214521 -4.62703 0
M  V30 5025 C 473.314 0.150955 -5.73201 0
M  V30 5026 N 472.81 0.0369212 -6.9279 0
M  V30 5027 N 474.603 0.204162 -5.61729 0
M  V30 5028 H 466.754 -0.93279 -1.90821 0
M  V30 5029 H 469.017 -0.359253 -0.877292 0
M  V30 5030 H 468.723 -0.766383 -3.43248 0
M  V30 5031 H 468.597 0.970908 -3.6449 0
M  V30 5032 H 470.984 1.22302 -2.68563 0
M  V30 5033 H 471.065 -0.534918 -2.50144 0
M  V30 5034 H 470.709 -0.792479 -5.01679 0
M  V30 5035 H 470.639 0.980717 -5.17387 0
M  V30 5036 H 473.13 0.303238 -3.76681 0
M  V30 5037 H 473.443 -0.00518321 -7.728 0
M  V30 5038 H 471.788 0.0022886 -6.95 0
M  V30 5039 H 474.979 0.291575 -4.67191 0
M  V30 5040 H 475.152 0.15116 -6.47824 0
M  V30 5041 N 468.558 1.5553 0.254621 0
M  V30 5042 C 469.786 1.81046 1.00149 0
M  V30 5043 C 470.201 0.593047 1.79244 0
M  V30 5044 O 469.558 -0.438196 1.77161 0
M  V30 5045 C 469.609 3.04684 1.94551 0
M  V30 5046 O 469.33 4.21725 1.18658 0
M  V30 5047 C 470.831 3.42943 2.80901 0
M  V30 5048 H 468.051 0.602653 0.295044 0
M  V30 5049 H 470.595 2.02576 0.279842 0
M  V30 5050 H 468.75 2.85226 2.62154 0
M  V30 5051 H 469.164 4.91746 1.82445 0
M  V30 5052 H 470.638 4.32576 3.42902 0
M  V30 5053 H 471.115 2.63176 3.51617 0
M  V30 5054 H 471.721 3.64724 2.18762 0
M  V30 5055 N 470.036 -0.519951 1.48776 0
M  V30 5056 C 471.282 -1.27711 1.57536 0
M  V30 5057 C 471.615 -1.92547 0.252866 0
M  V30 5058 O 470.89 -1.7979 -0.742021 0
M  V30 5059 C 471.173 -2.35875 2.72094 0
M  V30 5060 C 471.026 -1.75664 4.1408 0
M  V30 5061 C 472.345 -3.37575 2.82367 0
M  V30 5062 H 469.464 -0.462971 0.573434 0
M  V30 5063 H 472.106 -0.578194 1.80989 0
M  V30 5064 H 470.256 -2.95488 2.52228 0
M  V30 5065 H 471.928 -1.20025 4.45412 0
M  V30 5066 H 470.171 -1.06154 4.20611 0
M  V30 5067 H 470.842 -2.54029 4.90075 0
M  V30 5068 H 473.318 -2.87929 3.00393 0
M  V30 5069 H 472.194 -4.1064 3.64233 0
M  V30 5070 H 472.455 -3.98743 1.90936 0
M  V30 5071 N 471.514 -1.37532 -0.769588 0
M  V30 5072 C 472.424 -1.35668 -1.91393 0
M  V30 5073 C 473.44 -0.255954 -1.72107 0
M  V30 5074 O 474.616 -0.491704 -1.95305 0
M  V30 5075 C 471.681 -1.16481 -3.26547 0
M  V30 5076 C 470.742 -2.36212 -3.58472 0
M  V30 5077 C 469.975 -2.17932 -4.87177 0
M  V30 5078 O 470.198 -1.1647 -5.58382 0
M  V30 5079 O 469.132 -3.06167 -5.18214 0
M  V30 5080 H 472.958 -2.32055 -1.95918 0
M  V30 5081 H 470.543 -1.18284 -0.912641 0
M  V30 5082 H 472.425 -1.07778 -4.07384 0
M  V30 5083 H 471.1 -0.231687 -3.2287 0
M  V30 5084 H 470.007 -2.50488 -2.77861 0
M  V30 5085 H 471.34 -3.281 -3.66894 0
M  V30 5086 N 472.992 0.995999 -1.22138 0
M  V30 5087 C 473.939 2.08551 -0.988687 0
M  V30 5088 C 474.909 1.65864 0.0885021 0
M  V30 5089 O 476.094 1.90704 -0.0604589 0
M  V30 5090 C 473.234 3.40374 -0.569191 0
M  V30 5091 C 472.347 3.96421 -1.71681 0
M  V30 5092 C 471.482 5.1639 -1.2456 0
M  V30 5093 C 470.521 5.64567 -2.36497 0
M  V30 5094 N 469.658 6.75777 -1.90445 0
M  V30 5095 H 474.498 2.2779 -1.92135 0
M  V30 5096 H 472.035 1.1168 -0.957388 0
M  V30 5097 H 473.993 4.16068 -0.307166 0
M  V30 5098 H 472.623 3.21145 0.326462 0
M  V30 5099 H 471.675 3.17628 -2.09324 0
M  V30 5100 H 472.987 4.2816 -2.55891 0
M  V30 5101 H 472.141 5.99362 -0.940774 0
M  V30 5102 H 470.88 4.86266 -0.373662 0
M  V30 5103 H 469.885 4.80185 -2.67772 0
M  V30 5104 H 471.11 5.96716 -3.24202 0
M  V30 5105 H 469.056 6.47443 -1.05609 0
M  V30 5106 H 468.973 7.06818 -2.68223 0
M  V30 5107 H 470.241 7.62262 -1.63022 0
M  V30 5108 N 474.47 1.03057 1.19235 0
M  V30 5109 C 475.417 0.612832 2.22515 0
M  V30 5110 C 476.387 -0.374224 1.61829 0
M  V30 5111 O 477.572 -0.270501 1.88873 0
M  V30 5112 C 474.712 -0.028475 3.45088 0
M  V30 5113 C 473.825 1.00483 4.20151 0
M  V30 5114 C 472.96 0.333102 5.30155 0
M  V30 5115 C 471.999 1.3522 5.96977 0
M  V30 5116 N 471.136 0.70616 6.9854 0
M  V30 5117 H 475.976 1.49812 2.57605 0
M  V30 5118 H 473.513 0.749658 1.26564 0
M  V30 5119 H 475.471 -0.417548 4.15105 0
M  V30 5120 H 474.101 -0.877334 3.10649 0
M  V30 5121 H 473.153 1.51194 3.49062 0
M  V30 5122 H 474.465 1.77929 4.65986 0
M  V30 5123 H 473.619 -0.110725 6.06599 0
M  V30 5124 H 472.358 -0.473547 4.85396 0
M  V30 5125 H 471.363 1.80627 5.19282 0
M  V30 5126 H 472.588 2.16037 6.4382 0
M  V30 5127 H 470.534 -0.0803667 6.55951 0
M  V30 5128 H 470.451 1.41848 7.42573 0
M  V30 5129 H 471.719 0.286391 7.78974 0
M  V30 5130 N 475.948 -1.35272 0.808662 0
M  V30 5131 C 477.194 -1.99003 0.390581 0
M  V30 5132 C 477.527 -1.63999 -1.0401 0
M  V30 5133 O 476.802 -0.904368 -1.72196 0
M  V30 5134 C 477.085 -3.55454 0.576566 0
M  V30 5135 C 476.938 -4.00249 2.05233 0
M  V30 5136 C 478.257 -4.401 0.00354277 0
M  V30 5137 H 475.376 -0.722917 0.143388 0
M  V30 5138 H 478.018 -1.6039 1.01858 0
M  V30 5139 H 476.168 -3.88477 0.0419766 0
M  V30 5140 H 477.84 -3.77626 2.64946 0
M  V30 5141 H 476.083 -3.51082 2.54801 0
M  V30 5142 H 476.754 -5.0911 2.13333 0
M  V30 5143 H 479.23 -4.13548 0.460117 0
M  V30 5144 H 478.106 -5.48656 0.163575 0
M  V30 5145 H 478.367 -4.28444 -1.09032 0
M  V30 5146 N 477.426 -0.562348 -1.47226 0
M  V30 5147 C 478.373 0.182461 -2.30078 0
M  V30 5148 C 479.343 0.903503 -1.39377 0
M  V30 5149 O 480.528 0.898188 -1.68337 0
M  V30 5150 C 477.668 1.20322 -3.23445 0
M  V30 5151 C 476.781 0.487717 -4.29238 0
M  V30 5152 C 475.916 1.49422 -5.09752 0
M  V30 5153 C 474.955 0.763976 -6.07314 0
M  V30 5154 N 474.092 1.71755 -6.80768 0
M  V30 5155 H 478.932 -0.530169 -2.93246 0
M  V30 5156 H 476.469 -0.273276 -1.44539 0
M  V30 5157 H 478.427 1.80768 -3.76004 0
M  V30 5158 H 477.057 1.88382 -2.6213 0
M  V30 5159 H 476.109 -0.231374 -3.79696 0
M  V30 5160 H 477.421 -0.0841003 -4.98729 0
M  V30 5161 H 476.575 2.17206 -5.66486 0
M  V30 5162 H 475.314 2.09995 -4.40174 0
M  V30 5163 H 474.319 0.0722344 -5.49753 0
M  V30 5164 H 475.544 0.16391 -6.78902 0
M  V30 5165 H 473.49 2.31177 -6.13916 0
M  V30 5166 H 473.407 1.19802 -7.46447 0
M  V30 5167 H 474.675 2.38638 -7.42073 0
M  V30 5168 N 478.904 1.54736 -0.299062 0
M  V30 5169 C 479.851 2.23448 0.577899 0
M  V30 5170 C 480.821 1.21637 1.13109 0
M  V30 5171 O 482.006 1.50252 1.17597 0
M  V30 5172 C 479.146 2.9774 1.74484 0
M  V30 5173 C 478.259 4.1432 1.22323 0
M  V30 5174 C 477.394 4.76199 2.35388 0
M  V30 5175 C 476.433 5.84927 1.80351 0
M  V30 5176 N 475.57 6.4077 2.86982 0
M  V30 5177 H 480.41 2.97996 -0.0146545 0
M  V30 5178 H 477.947 1.47088 -0.0190013 0
M  V30 5179 H 479.905 3.39045 2.43114 0
M  V30 5180 H 478.535 2.25572 2.30905 0
M  V30 5181 H 477.587 3.7797 0.429249 0
M  V30 5182 H 478.899 4.92659 0.780309 0
M  V30 5183 H 478.053 5.20346 3.11969 0
M  V30 5184 H 476.792 3.97188 2.83006 0
M  V30 5185 H 475.797 5.40207 1.02259 0
M  V30 5186 H 477.022 6.65821 1.3364 0
M  V30 5187 H 474.968 5.64643 3.33938 0
M  V30 5188 H 474.885 7.1445 2.4718 0
M  V30 5189 H 476.153 6.89574 3.63466 0
M  V30 5190 N 480.382 0.0267497 1.57577 0
M  V30 5191 C 481.628 -0.647596 1.92815 0
M  V30 5192 C 481.983 -1.69872 0.903396 0
M  V30 5193 O 481.276 -1.91429 -0.0808881 0
M  V30 5194 C 481.47 -1.30914 3.3256 0
M  V30 5195 C 481.299 -0.323621 4.48534 0
M  V30 5196 C 480.069 0.0756607 5.05243 0
M  V30 5197 C 482.267 0.42112 5.12573 0
M  V30 5198 N 480.249 1.0566 6.04739 0
M  V30 5199 C 481.62 1.25589 6.07147 0
M  V30 5200 C 483.675 0.482077 4.95561 0
M  V30 5201 C 482.378 2.1461 6.86538 0
M  V30 5202 C 484.404 1.35962 5.75559 0
M  V30 5203 C 483.766 2.18217 6.69747 0
M  V30 5204 H 479.865 -0.209357 0.753454 0
M  V30 5205 H 482.449 0.0933695 1.94476 0
M  V30 5206 H 480.62 -2.02026 3.31723 0
M  V30 5207 H 482.352 -1.94033 3.55153 0
M  V30 5208 H 479.107 -0.298294 4.7266 0
M  V30 5209 H 479.531 1.54324 6.59176 0
M  V30 5210 H 484.173 -0.139609 4.22569 0
M  V30 5211 H 481.891 2.77835 7.58837 0
M  V30 5212 H 485.477 1.41105 5.6443 0
M  V30 5213 H 484.357 2.85022 7.3057 0
M  V30 5214 N 481.861 -1.55662 -0.24637 0
M  V30 5215 C 483.089 -1.81575 -0.991876 0
M  V30 5216 C 483.504 -0.602545 -1.78927 0
M  V30 5217 O 482.861 0.428795 -1.77391 0
M  V30 5218 C 482.912 -3.05711 -1.92933 0
M  V30 5219 O 482.633 -4.22348 -1.1642 0
M  V30 5220 C 484.134 -3.44428 -2.79078 0
M  V30 5221 H 481.354 -0.604209 -0.291844 0
M  V30 5222 H 483.898 -2.02722 -0.269095 0
M  V30 5223 H 482.053 -2.86612 -2.60638 0
M  V30 5224 H 482.467 -4.92706 -1.79835 0
M  V30 5225 H 483.941 -4.34388 -3.40603 0
M  V30 5226 H 484.418 -2.65037 -3.50217 0
M  V30 5227 H 485.024 -3.65879 -2.16824 0
M  V30 5228 N 483.339 0.512053 -1.4905 0
M  V30 5229 C 484.269 1.62365 -1.67809 0
M  V30 5230 C 485.25 1.61737 -0.526809 0
M  V30 5231 O 486.435 1.78651 -0.761404 0
M  V30 5232 C 483.565 3.00895 -1.73435 0
M  V30 5233 C 482.519 3.16387 -2.88242 0
M  V30 5234 C 481.845 4.56157 -2.78971 0
M  V30 5235 C 483.145 2.97457 -4.29321 0
M  V30 5236 H 484.839 1.46921 -2.60873 0
M  V30 5237 H 482.385 0.705379 -1.2554 0
M  V30 5238 H 484.338 3.78549 -1.85145 0
M  V30 5239 H 483.062 3.17403 -0.769619 0
M  V30 5240 H 481.721 2.41155 -2.76116 0
M  V30 5241 H 481.369 4.69525 -1.8043 0
M  V30 5242 H 481.069 4.67465 -3.5602 0
M  V30 5243 H 482.593 5.35886 -2.92675 0
M  V30 5244 H 484.007 3.64888 -4.42187 0
M  V30 5245 H 482.404 3.20245 -5.07507 0
M  V30 5246 H 483.474 1.93692 -4.44535 0
M  V30 5247 N 484.817 1.37938 0.762283 0
M  V30 5248 C 485.75 1.2884 1.88349 0
M  V30 5249 C 486.728 0.167084 1.61739 0
M  V30 5250 O 487.912 0.34292 1.85355 0
M  V30 5251 C 485.039 0.994257 3.23778 0
M  V30 5252 C 484.085 2.13376 3.69287 0
M  V30 5253 S 484.918 3.75439 3.81845 0
M  V30 5254 C 486.074 3.48195 5.20107 0
M  V30 5255 H 486.307 2.23736 1.95779 0
M  V30 5256 H 483.84 1.23672 0.924368 0
M  V30 5257 H 485.798 0.83138 4.01993 0
M  V30 5258 H 484.459 0.0626251 3.14038 0
M  V30 5259 H 483.652 1.88319 4.67495 0
M  V30 5260 H 483.254 2.25726 2.98201 0
M  V30 5261 H 485.546 3.0377 6.05583 0
M  V30 5262 H 486.489 4.45765 5.50181 0
M  V30 5263 H 486.897 2.82905 4.88493 0
M  V30 5264 N 486.295 -0.989507 1.22664 0
M  V30 5265 C 487.243 -2.10148 0.997035 0
M  V30 5266 C 488.237 -1.6929 -0.0609783 0
M  V30 5267 O 489.443 -1.79766 0.0917523 0
M  V30 5268 H 485.818 -0.687256 0.305259 0
M  V30 5269 H 487.789 -2.26685 1.94053 0
M  V30 5270 C 486.538 -3.4257 0.595085 0
M  V30 5271 H 485.861 -3.74453 1.40089 0
M  V30 5272 H 487.301 -4.21344 0.473869 0
M  V30 5273 C 485.76 -3.29638 -0.695725 0
M  V30 5274 O 486.29 -3.61709 -1.74727 0
M  V30 5275 N 484.496 -2.82814 -0.668173 0
M  V30 5276 H 484.043 -2.56914 0.18787 0
M  V30 5277 H 484.001 -2.74544 -1.5321 0
M  V30 5278 N 487.773 -1.03688 -1.18687 0
M  V30 5279 C 488.683 -0.634908 -2.25845 0
M  V30 5280 C 489.699 0.337065 -1.70704 0
M  V30 5281 O 490.875 0.192943 -2.00474 0
M  V30 5282 C 487.94 -0.000180054 -3.467 0
M  V30 5283 C 487.001 -1.02067 -4.1699 0
M  V30 5284 C 486.234 -0.41614 -5.32075 0
M  V30 5285 O 486.457 0.778712 -5.65059 0
M  V30 5286 O 485.391 -1.14296 -5.90948 0
M  V30 5287 H 489.217 -1.52757 -2.62486 0
M  V30 5288 H 486.802 -0.807533 -1.25695 0
M  V30 5289 H 488.684 0.353342 -4.19916 0
M  V30 5290 H 487.359 0.866367 -3.11891 0
M  V30 5291 H 486.266 -1.42592 -3.45859 0
M  V30 5292 H 487.599 -1.85786 -4.5579 0
M  V30 5293 N 489.251 1.34841 -0.815825 0
M  V30 5294 C 490.183 2.28409 -0.190265 0
M  V30 5295 C 491.196 1.50705 0.615771 0
M  V30 5296 O 492.385 1.72822 0.446616 0
M  V30 5297 C 489.485 3.30441 0.752446 0
M  V30 5298 C 488.658 4.37399 -0.00922152 0
M  V30 5299 C 487.717 5.19234 0.853351 0
M  V30 5300 O 486.743 5.68404 0.300919 0
M  V30 5301 N 487.945 5.38248 2.17416 0
M  V30 5302 H 490.71 2.82732 -0.994114 0
M  V30 5303 H 488.271 1.47289 -0.672129 0
M  V30 5304 H 490.263 3.82084 1.33394 0
M  V30 5305 H 488.833 2.76565 1.45707 0
M  V30 5306 H 488.053 3.86567 -0.771979 0
M  V30 5307 H 489.341 5.05992 -0.533807 0
M  V30 5308 H 488.739 4.99961 2.6468 0
M  V30 5309 H 487.296 5.93035 2.70467 0
M  V30 5310 N 490.729 0.570148 1.46925 0
M  V30 5311 C 492.145 0.23087 1.57921 0
M  V30 5312 C 492.345 -1.26676 1.56702 0
M  V30 5313 O 491.401 -2.04774 1.47729 0
M  V30 5314 C 492.714 0.868973 2.8787 0
M  V30 5315 C 494.262 0.841397 3.01479 0
M  V30 5316 C 494.737 1.45881 4.34146 0
M  V30 5317 N 496.228 1.42258 4.40814 0
M  V30 5318 C 496.963 1.8698 5.42057 0
M  V30 5319 N 496.459 2.39618 6.50042 0
M  V30 5320 N 498.252 1.77972 5.33181 0
M  V30 5321 H 490.403 1.54301 1.45962 0
M  V30 5322 H 492.666 0.644224 0.69547 0
M  V30 5323 H 492.372 1.922 2.94537 0
M  V30 5324 H 492.246 0.369682 3.75384 0
M  V30 5325 H 494.633 -0.202973 2.94401 0
M  V30 5326 H 494.714 1.37858 2.15474 0
M  V30 5327 H 494.358 2.50231 4.4198 0
M  V30 5328 H 494.288 0.896958 5.18905 0
M  V30 5329 H 496.779 1.03768 3.63374 0
M  V30 5330 H 497.092 2.71633 7.23488 0
M  V30 5331 H 495.437 2.43636 6.50897 0
M  V30 5332 H 498.628 1.36617 4.4772 0
M  V30 5333 H 498.801 2.13143 6.11943 0
M  V30 5334 N 492.207 -1.54576 0.307264 0
M  V30 5335 C 493.618 -1.8579 -0.184121 0
M  V30 5336 C 493.969 -1.22914 -1.52927 0
M  V30 5337 O 493.094 -0.529126 -2.09831 0
M  V30 5338 C 493.689 -3.37081 -0.340862 0
M  V30 5339 C 492.248 -3.68304 -0.776465 0
M  V30 5340 C 491.395 -2.77076 0.111503 0
M  V30 5341 H 494.346 -1.49656 0.528078 0
M  V30 5342 H 494.367 -3.61922 -1.17443 0
M  V30 5343 H 493.879 -3.82815 0.638309 0
M  V30 5344 H 491.98 -3.28092 -1.76596 0
M  V30 5345 H 492.093 -4.75434 -0.591512 0
M  V30 5346 H 490.457 -2.51374 -0.410256 0
M  V30 5347 H 491.24 -3.25632 1.08714 0
M  V30 5348 N 493.685 -0.035106 -1.57561 0
M  V30 5349 C 494.934 0.641604 -1.91223 0
M  V30 5350 C 495.247 1.72944 -0.913761 0
M  V30 5351 O 496.453 2.46321 -1.14185 0
M  V30 5352 C 494.909 1.19249 -3.3957 0
M  V30 5353 C 494.517 0.137616 -4.47789 0
M  V30 5354 C 496.261 1.84537 -3.82291 0
M  V30 5355 C 494.168 0.700478 -5.87237 0
M  V30 5356 H 493.098 0.243417 -0.713627 0
M  V30 5357 H 495.749 -0.101382 -1.8322 0
M  V30 5358 H 494.131 1.98728 -3.42525 0
M  V30 5359 H 495.305 -0.635153 -4.56402 0
M  V30 5360 H 493.62 -0.416855 -4.14308 0
M  V30 5361 H 496.217 2.27616 -4.83834 0
M  V30 5362 H 496.56 2.69054 -3.17672 0
M  V30 5363 H 497.093 1.11739 -3.81784 0
M  V30 5364 H 493.832 -0.106693 -6.55413 0
M  V30 5365 H 493.352 1.4416 -5.82218 0
M  V30 5366 H 495.031 1.18837 -6.35993 0
M  V30 5367 N 495.163 1.55791 0.238111 0
M  V30 5368 C 496.409 1.79211 0.962035 0
M  V30 5369 C 496.764 0.605463 1.82625 0
M  V30 5370 O 496.057 -0.40104 1.87356 0
M  V30 5371 C 496.251 3.05869 1.84875 0
M  V30 5372 C 496.08 4.36739 1.07186 0
M  V30 5373 C 494.85 4.99346 0.773424 0
M  V30 5374 C 497.048 5.1237 0.445168 0
M  V30 5375 N 495.03 6.13894 -0.0266037 0
M  V30 5376 C 496.401 6.19613 -0.219023 0
M  V30 5377 C 498.456 4.96622 0.356522 0
M  V30 5378 C 497.159 7.1282 -0.963358 0
M  V30 5379 C 499.185 5.90214 -0.374304 0
M  V30 5380 C 498.547 6.96872 -1.0271 0
M  V30 5381 H 494.646 0.707627 0.332849 0
M  V30 5382 H 497.23 1.93284 0.234368 0
M  V30 5383 H 495.401 2.93108 2.54837 0
M  V30 5384 H 497.133 3.17547 2.5089 0
M  V30 5385 H 493.888 4.60948 1.08738 0
M  V30 5386 H 494.312 6.75727 -0.414968 0
M  V30 5387 H 498.954 4.14232 0.846878 0
M  V30 5388 H 496.672 7.94704 -1.46529 0
M  V30 5389 H 500.258 5.80106 -0.443678 0
M  V30 5390 H 499.138 7.68045 -1.58358 0
M  V30 5391 N 496.642 -0.504142 1.49319 0
M  V30 5392 C 497.572 -1.61473 1.68667 0
M  V30 5393 C 498.553 -1.61455 0.535378 0
M  V30 5394 O 499.738 -1.78245 0.770868 0
M  V30 5395 C 496.868 -2.99971 1.75028 0
M  V30 5396 C 495.822 -3.14854 2.89916 0
M  V30 5397 C 495.148 -4.54671 2.81387 0
M  V30 5398 C 496.448 -2.95176 4.30893 0
M  V30 5399 H 498.142 -1.45535 2.61648 0
M  V30 5400 H 495.688 -0.698711 1.25913 0
M  V30 5401 H 497.641 -3.77562 1.8715 0
M  V30 5402 H 496.365 -3.1699 0.786441 0
M  V30 5403 H 495.024 -2.39687 2.77391 0
M  V30 5404 H 494.672 -4.68562 1.82917 0
M  V30 5405 H 494.372 -4.6557 3.58494 0
M  V30 5406 H 495.896 -5.34327 2.95512 0
M  V30 5407 H 497.31 -3.62538 4.44116 0
M  V30 5408 H 495.707 -3.17549 5.09198 0
M  V30 5409 H 496.777 -1.91332 4.45556 0
M  V30 5410 N 498.12 -1.38341 -0.754957 0
M  V30 5411 C 499.536 -1.19508 -1.05783 0
M  V30 5412 C 499.736 -0.0428005 -2.01455 0
M  V30 5413 O 498.792 0.611861 -2.44975 0
M  V30 5414 C 500.105 -2.52091 -1.63923 0
M  V30 5415 C 501.653 -2.58762 -1.76101 0
M  V30 5416 C 502.128 -3.91517 -2.37652 0
M  V30 5417 N 503.619 -3.93049 -2.45085 0
M  V30 5418 C 504.354 -4.9253 -2.93602 0
M  V30 5419 N 503.85 -6.02408 -3.42165 0
M  V30 5420 N 505.643 -4.79921 -2.92629 0
M  V30 5421 H 497.794 -2.1206 -0.120056 0
M  V30 5422 H 500.057 -0.94089 -0.11589 0
M  V30 5423 H 499.763 -3.36858 -1.01093 0
M  V30 5424 H 499.637 -2.70388 -2.63003 0
M  V30 5425 H 502.024 -1.74391 -2.38058 0
M  V30 5426 H 502.105 -2.44333 -0.757294 0
M  V30 5427 H 501.749 -4.76309 -1.76329 0
M  V30 5428 H 501.679 -4.03256 -3.38662 0
M  V30 5429 H 504.17 -3.13685 -2.10736 0
M  V30 5430 H 504.483 -6.74248 -3.77637 0
M  V30 5431 H 502.828 -6.0603 -3.40225 0
M  V30 5432 H 506.019 -3.93194 -2.54001 0
M  V30 5433 H 506.192 -5.57601 -3.30128 0
M  V30 5434 N 499.598 0.982988 -1.23187 0
M  V30 5435 C 500.823 1.76455 -1.08988 0
M  V30 5436 C 501.248 1.84726 0.354691 0
M  V30 5437 O 500.606 1.30699 1.25649 0
M  V30 5438 C 500.654 3.17094 -1.71708 0
M  V30 5439 O 499.758 4.00648 -0.977477 0
M  V30 5440 H 499.099 0.542988 -0.382177 0
M  V30 5441 H 501.629 1.23413 -1.63188 0
M  V30 5442 H 501.639 3.67684 -1.76841 0
M  V30 5443 H 500.314 3.10389 -2.76823 0
M  V30 5444 H 498.891 3.59161 -1.0029 0
M  V30 5445 N 501.076 1.04316 1.18135 0
M  V30 5446 C 502.487 0.775505 1.69832 0
M  V30 5447 C 502.838 -0.703348 1.8316 0
M  V30 5448 O 501.963 -1.54729 1.51287 0
M  V30 5449 C 502.558 1.40112 3.0847 0
M  V30 5450 C 501.117 1.18172 3.57368 0
M  V30 5451 C 500.264 1.49022 2.33854 0
M  V30 5452 H 503.215 1.20925 1.02775 0
M  V30 5453 H 503.236 0.805672 3.71873 0
M  V30 5454 H 502.748 2.47744 2.98738 0
M  V30 5455 H 500.849 0.124258 3.72393 0
M  V30 5456 H 500.962 1.8805 4.40652 0
M  V30 5457 H 499.326 0.909995 2.37889 0
M  V30 5458 H 500.109 2.57768 2.26738 0
M  V30 5459 N 502.554 -1.34406 0.822964 0
M  V30 5460 C 503.501 -2.29519 0.24284 0
M  V30 5461 C 504.471 -1.5359 -0.632397 0
M  V30 5462 O 505.656 -1.8196 -0.57403 0
M  V30 5463 C 502.796 -3.40032 -0.58925 0
M  V30 5464 C 501.909 -4.30899 0.308236 0
M  V30 5465 C 501.044 -5.28515 -0.533425 0
M  V30 5466 C 500.083 -6.1102 0.363444 0
M  V30 5467 N 499.22 -7.00725 -0.439147 0
M  V30 5468 H 504.06 -2.78537 1.05929 0
M  V30 5469 H 501.597 -1.3707 0.533872 0
M  V30 5470 H 503.555 -4.0279 -1.087 0
M  V30 5471 H 502.185 -2.92248 -1.37081 0
M  V30 5472 H 501.237 -3.69002 0.924203 0
M  V30 5473 H 502.549 -4.88717 0.997862 0
M  V30 5474 H 501.703 -5.96725 -1.09565 0
M  V30 5475 H 500.442 -4.71235 -1.25656 0
M  V30 5476 H 499.447 -5.41743 0.937812 0
M  V30 5477 H 500.672 -6.70381 1.08469 0
M  V30 5478 H 498.618 -6.45913 -1.14595 0
M  V30 5479 H 498.535 -7.55756 0.19209 0
M  V30 5480 H 499.803 -7.73263 -0.984124 0
M  V30 5481 N 504.032 -0.577932 -1.46621 0
M  V30 5482 C 504.942 0.160651 -2.34049 0
M  V30 5483 C 505.958 0.890911 -1.49462 0
M  V30 5484 O 507.134 0.855166 -1.82343 0
M  V30 5485 C 504.199 1.16447 -3.26559 0
M  V30 5486 C 503.26 0.4394 -4.27045 0
M  V30 5487 C 502.493 1.3954 -5.15135 0
M  V30 5488 O 502.716 2.63162 -5.06065 0
M  V30 5489 O 501.65 0.908585 -5.95003 0
M  V30 5490 H 505.476 -0.557057 -2.98547 0
M  V30 5491 H 503.061 -0.338369 -1.45518 0
M  V30 5492 H 504.943 1.7434 -3.83645 0
M  V30 5493 H 503.618 1.86373 -2.64663 0
M  V30 5494 H 502.525 -0.181247 -3.73661 0
M  V30 5495 H 503.858 -0.218799 -4.91713 0
M  V30 5496 N 505.51 1.54411 -0.315457 0
M  V30 5497 C 506.44 2.27002 0.547039 0
M  V30 5498 C 507.421 1.27492 1.12605 0
M  V30 5499 O 508.606 1.5629 1.15269 0
M  V30 5500 C 505.736 3.02171 1.71201 0
M  V30 5501 C 504.69 4.0895 1.26268 0
M  V30 5502 C 504.016 4.71915 2.51396 0
M  V30 5503 C 505.316 5.20891 0.383419 0
M  V30 5504 H 507.01 2.99343 -0.0584517 0
M  V30 5505 H 504.556 1.4397 -0.0295527 0
M  V30 5506 H 506.509 3.51681 2.32161 0
M  V30 5507 H 505.233 2.27433 2.34397 0
M  V30 5508 H 503.892 3.60312 0.676062 0
M  V30 5509 H 503.54 3.93801 3.12937 0
M  V30 5510 H 503.24 5.44039 2.22026 0
M  V30 5511 H 504.764 5.24195 3.13133 0
M  V30 5512 H 506.178 5.66206 0.899082 0
M  V30 5513 H 504.575 5.99821 0.182857 0
M  V30 5514 H 505.645 4.81324 -0.587821 0
M  V30 5515 N 506.988 0.0434614 1.5754 0
M  V30 5516 C 507.935 -0.93356 2.11077 0
M  V30 5517 C 508.905 -1.31383 1.01626 0
M  V30 5518 O 510.09 -1.40465 1.29129 0
M  V30 5519 C 507.23 -2.20578 2.65404 0
M  V30 5520 C 506.343 -1.88068 3.88914 0
M  V30 5521 C 505.478 -3.09691 4.31584 0
M  V30 5522 C 504.517 -2.73067 5.47815 0
M  V30 5523 N 503.654 -3.87359 5.85574 0
M  V30 5524 H 508.494 -0.470118 2.94268 0
M  V30 5525 H 506.031 -0.220434 1.45439 0
M  V30 5526 H 507.989 -2.95011 2.94999 0
M  V30 5527 H 506.619 -2.64513 1.85021 0
M  V30 5528 H 505.671 -1.03816 3.6596 0
M  V30 5529 H 506.983 -1.57104 4.73413 0
M  V30 5530 H 506.137 -3.92431 4.62691 0
M  V30 5531 H 504.876 -3.43827 3.45882 0
M  V30 5532 H 503.881 -1.88742 5.16388 0
M  V30 5533 H 505.106 -2.40131 6.35227 0
M  V30 5534 H 503.052 -4.21311 5.02825 0
M  V30 5535 H 502.969 -3.60068 6.64746 0
M  V30 5536 H 504.237 -4.70761 6.21292 0
M  V30 5537 N 508.466 -1.55915 -0.229846 0
M  V30 5538 C 509.743 -1.6932 -0.979295 0
M  V30 5539 C 510.123 -0.588321 -2.02736 0
M  V30 5540 O 509.471 0.40586 -2.24867 0
M  V30 5541 C 509.681 -3.10305 -1.59724 0
M  V30 5542 C 511.029 -3.6945 -2.09264 0
M  V30 5543 O 512.053 -3.13214 -1.69633 0
M  V30 5544 O 510.912 -4.68072 -2.82082 0
M  V30 5545 H 508.006 -0.689314 -0.456919 0
M  V30 5546 H 510.552 -1.68238 -0.222283 0
M  V30 5547 H 509.324 -3.82177 -0.840039 0
M  V30 5548 H 508.947 -3.1547 -2.42001 0
M  V30 5549 N 509.944 0.496216 -1.49584 0
M  V30 5550 C 510.854 1.62352 -1.69349 0
M  V30 5551 C 511.87 1.64184 -0.576147 0
M  V30 5552 O 513.046 1.82517 -0.85144 0
M  V30 5553 C 510.111 2.98698 -1.76013 0
M  V30 5554 C 509.172 3.07454 -2.99617 0
M  V30 5555 C 508.405 4.37296 -3.05953 0
M  V30 5556 O 508.628 5.2637 -2.19752 0
M  V30 5557 O 507.562 4.51124 -3.9846 0
M  V30 5558 H 511.388 1.48606 -2.64859 0
M  V30 5559 H 508.973 0.673022 -1.33382 0
M  V30 5560 H 510.855 3.79725 -1.82721 0
M  V30 5561 H 509.53 3.12696 -0.836828 0
M  V30 5562 H 508.437 2.25597 -2.98424 0
M  V30 5563 H 509.77 2.98385 -3.91443 0
M  V30 5564 N 511.423 1.38739 0.74761 0
M  V30 5565 C 512.7 1.25791 1.49786 0
M  V30 5566 C 513.08 -0.138075 2.10648 0
M  V30 5567 O 512.428 -1.14815 1.9756 0
M  V30 5568 C 512.638 2.37265 2.55942 0
M  V30 5569 C 513.986 2.75978 3.22679 0
M  V30 5570 O 515.01 2.36621 2.6625 0
M  V30 5571 O 513.869 3.43867 4.24756 0
M  V30 5572 H 510.963 0.492251 0.664543 0
M  V30 5573 H 513.509 1.50582 0.782511 0
M  V30 5574 H 512.281 3.30644 2.0926 0
M  V30 5575 H 511.904 2.14071 3.35051 0
M  V30 5576 N 512.901 -0.976442 1.23707 0
M  V30 5577 C 514.131 -1.75087 1.09673 0
M  V30 5578 C 514.539 -1.85852 -0.354344 0
M  V30 5579 O 513.882 -1.33985 -1.25673 0
M  V30 5580 C 513.944 -3.19272 1.65245 0
M  V30 5581 C 513.608 -3.32004 3.14042 0
M  V30 5582 C 514.605 -3.18017 4.11292 0
M  V30 5583 C 512.29 -3.56525 3.53829 0
M  V30 5584 C 514.284 -3.28363 5.46312 0
M  V30 5585 C 511.971 -3.6651 4.88993 0
M  V30 5586 C 512.969 -3.52439 5.85043 0
M  V30 5587 O 512.657 -3.62063 7.1775 0
M  V30 5588 H 512.389 -0.556164 0.384262 0
M  V30 5589 H 514.943 -1.23518 1.64111 0
M  V30 5590 H 513.173 -3.72107 1.05231 0
M  V30 5591 H 514.862 -3.7849 1.46629 0
M  V30 5592 H 515.628 -2.98966 3.81896 0
M  V30 5593 H 511.507 -3.66547 2.79579 0
M  V30 5594 H 515.051 -3.17297 6.21263 0
M  V30 5595 H 510.948 -3.85072 5.18063 0
M  V30 5596 H 511.716 -3.78833 7.25553 0
M  V30 5597 N 514.379 -1.04941 -1.1758 0
M  V30 5598 C 515.326 -0.648155 -2.21512 0
M  V30 5599 C 516.296 0.348431 -1.62404 0
M  V30 5600 O 517.481 0.240419 -1.89279 0
M  V30 5601 C 514.621 -0.0264291 -3.4509 0
M  V30 5602 C 513.734 -1.07154 -4.185 0
M  V30 5603 C 512.869 -0.417403 -5.29558 0
M  V30 5604 C 511.908 -1.447 -5.94751 0
M  V30 5605 N 511.045 -0.817203 -6.97328 0
M  V30 5606 H 515.885 -1.53891 -2.55189 0
M  V30 5607 H 513.422 -0.769699 -1.25356 0
M  V30 5608 H 515.38 0.351456 -4.15717 0
M  V30 5609 H 514.01 0.827802 -3.12005 0
M  V30 5610 H 513.062 -1.56728 -3.46613 0
M  V30 5611 H 514.374 -1.8532 -4.63096 0
M  V30 5612 H 513.528 0.0142061 -6.06698 0
M  V30 5613 H 512.267 0.396265 -4.86087 0
M  V30 5614 H 511.272 -1.88865 -5.16343 0
M  V30 5615 H 512.497 -2.26252 -6.40302 0
M  V30 5616 H 510.443 -0.0239995 -6.55996 0
M  V30 5617 H 510.36 -1.53644 -7.40223 0
M  V30 5618 H 511.628 -0.410283 -7.7842 0
M  V30 5619 N 515.857 1.33968 -0.830081 0
M  V30 5620 C 516.789 2.28194 -0.21448 0
M  V30 5621 C 517.802 1.5135 0.599752 0
M  V30 5622 O 518.991 1.73286 0.42826 0
M  V30 5623 C 516.091 3.31221 0.717356 0
M  V30 5624 C 515.264 4.37365 -0.055613 0
M  V30 5625 C 514.323 5.2011 0.798231 0
M  V30 5626 O 513.349 5.68691 0.240616 0
M  V30 5627 N 514.551 5.40523 2.11695 0
M  V30 5628 H 517.316 2.81662 -1.02405 0
M  V30 5629 H 514.877 1.46568 -0.687713 0
M  V30 5630 H 516.869 3.83477 1.29334 0
M  V30 5631 H 515.439 2.78095 1.42765 0
M  V30 5632 H 514.659 3.85727 -0.812936 0
M  V30 5633 H 515.947 5.05397 -0.587444 0
M  V30 5634 H 515.345 5.0274 2.59363 0
M  V30 5635 H 513.902 5.95871 2.64162 0
M  V30 5636 N 517.335 0.585699 1.46312 0
M  V30 5637 C 518.582 0.0724211 2.0237 0
M  V30 5638 C 518.91 -1.28868 1.45683 0
M  V30 5639 O 518.165 -1.85853 0.612945 0
M  V30 5640 C 518.464 -0.0401312 3.57377 0
M  V30 5641 C 518.13 1.25376 4.33119 0
M  V30 5642 C 516.792 1.60824 4.5353 0
M  V30 5643 C 519.144 2.10987 4.76586 0
M  V30 5644 C 516.472 2.81676 5.14661 0
M  V30 5645 C 518.824 3.31068 5.39052 0
M  V30 5646 C 517.488 3.66794 5.5769 0
M  V30 5647 H 516.758 0.0265007 0.740526 0
M  V30 5648 H 519.405 0.762935 1.75646 0
M  V30 5649 H 517.71 -0.813791 3.83255 0
M  V30 5650 H 519.407 -0.453078 3.98432 0
M  V30 5651 H 515.997 0.967808 4.1753 0
M  V30 5652 H 520.181 1.84904 4.60569 0
M  V30 5653 H 515.437 3.0949 5.27282 0
M  V30 5654 H 519.611 3.97672 5.71691 0
M  V30 5655 H 517.238 4.60529 6.04828 0
M  V30 5656 N 518.813 -1.54241 0.323641 0
M  V30 5657 C 520.06 -2.0057 -0.27891 0
M  V30 5658 C 520.388 -1.21181 -1.52136 0
M  V30 5659 O 519.643 -0.282043 -1.93657 0
M  V30 5660 C 519.942 -3.5129 -0.658031 0
M  V30 5661 C 519.608 -4.48281 0.485252 0
M  V30 5662 C 518.27 -4.74519 0.799055 0
M  V30 5663 C 520.622 -5.05909 1.25322 0
M  V30 5664 C 517.95 -5.55643 1.88354 0
M  V30 5665 C 520.302 -5.88215 2.32779 0
M  V30 5666 C 518.966 -6.12755 2.64741 0
M  V30 5667 H 518.236 -0.733938 -0.10206 0
M  V30 5668 H 520.883 -1.862 0.447435 0
M  V30 5669 H 519.188 -3.63388 -1.4648 0
M  V30 5670 H 520.885 -3.84578 -1.1358 0
M  V30 5671 H 517.475 -4.27979 0.230593 0
M  V30 5672 H 521.659 -4.8562 1.02404 0
M  V30 5673 H 516.915 -5.72888 2.13564 0
M  V30 5674 H 521.089 -6.31888 2.92729 0
M  V30 5675 H 518.716 -6.75404 3.48904 0
M  V30 5676 N 520.291 -0.0518155 -1.57515 0
M  V30 5677 C 521.516 0.634896 -1.97443 0
M  V30 5678 C 521.941 1.63546 -0.929207 0
M  V30 5679 O 521.299 1.80981 0.107484 0
M  V30 5680 C 521.347 1.29765 -3.36442 0
M  V30 5681 O 520.451 2.41333 -3.34413 0
M  V30 5682 H 519.792 0.164994 -0.643174 0
M  V30 5683 H 522.322 -0.120407 -2.04245 0
M  V30 5684 H 522.332 1.64918 -3.73184 0
M  V30 5685 H 521.007 0.564361 -4.12053 0
M  V30 5686 H 519.584 2.08122 -3.09418 0
M  V30 5687 N 521.769 1.56035 0.221574 0
M  V30 5688 C 523.015 1.79312 0.947372 0
M  V30 5689 C 523.348 0.621453 1.83988 0
M  V30 5690 O 522.623 -0.379287 1.90766 0
M  V30 5691 C 522.906 3.1267 1.78633 0
M  V30 5692 C 522.759 4.40284 0.920312 0
M  V30 5693 C 524.078 3.4247 2.7641 0
M  V30 5694 H 521.197 0.652328 0.342982 0
M  V30 5695 H 523.839 1.88765 0.216244 0
M  V30 5696 H 521.989 3.04741 2.40967 0
M  V30 5697 H 523.661 4.60232 0.313718 0
M  V30 5698 H 521.904 4.33212 0.225734 0
M  V30 5699 H 522.575 5.30033 1.54171 0
M  V30 5700 H 525.051 3.50526 2.24211 0
M  V30 5701 H 523.927 4.3695 3.32213 0
M  V30 5702 H 524.188 2.64635 3.54148 0
M  V30 5703 N 523.247 -0.488276 1.49845 0
M  V30 5704 C 524.177 -1.59675 1.70371 0
M  V30 5705 C 525.158 -1.60878 0.552473 0
M  V30 5706 O 526.343 -1.77417 0.78973 0
M  V30 5707 C 523.473 -2.98098 1.782 0
M  V30 5708 C 522.427 -3.11761 2.93239 0
M  V30 5709 C 521.753 -4.51661 2.86193 0
M  V30 5710 C 523.053 -2.90589 4.33999 0
M  V30 5711 H 524.747 -1.42752 2.63177 0
M  V30 5712 H 522.293 -0.685317 1.26647 0
M  V30 5713 H 524.246 -3.75555 1.91144 0
M  V30 5714 H 522.97 -3.16138 0.820018 0
M  V30 5715 H 521.629 -2.36732 2.79917 0
M  V30 5716 H 521.277 -4.66595 1.87877 0
M  V30 5717 H 520.977 -4.61742 3.63412 0
M  V30 5718 H 522.501 -5.31162 3.01163 0
M  V30 5719 H 523.915 -3.57807 4.47936 0
M  V30 5720 H 522.312 -3.1213 5.12538 0
M  V30 5721 H 523.382 -1.86595 4.4756 0
M  V30 5722 N 524.725 -1.39134 -0.740242 0
M  V30 5723 C 525.95 -1.39518 -1.53459 0
M  V30 5724 C 526.375 0.00968883 -1.88098 0
M  V30 5725 O 525.733 0.995312 -1.51536 0
M  V30 5726 C 525.781 -2.26981 -2.802 0
M  V30 5727 O 524.885 -1.69609 -3.75908 0
M  V30 5728 H 524.226 -0.475328 -0.463637 0
M  V30 5729 H 526.756 -1.83064 -0.913717 0
M  V30 5730 H 526.766 -2.41309 -3.28989 0
M  V30 5731 H 525.441 -3.29081 -2.5432 0
M  V30 5732 H 524.018 -1.64495 -3.34658 0
M  V30 5733 N 526.204 0.969867 -1.24223 0
M  V30 5734 C 527.452 1.70918 -1.0785 0
M  V30 5735 C 527.773 1.91186 0.383763 0
M  V30 5736 O 527.043 1.48806 1.27411 0
M  V30 5737 H 525.623 0.633334 -0.396103 0
M  V30 5738 H 528.285 1.16689 -1.56108 0
M  V30 5739 H 527.381 2.69455 -1.57482 0
M  V30 5740 N 527.682 1.05563 1.17022 0
M  V30 5741 C 528.912 0.787307 1.91011 0
M  V30 5742 C 529.32 -0.661256 1.77268 0
M  V30 5743 O 528.663 -1.46379 1.10991 0
M  V30 5744 C 528.725 1.09313 3.42478 0
M  V30 5745 C 528.389 2.53863 3.80004 0
M  V30 5746 C 529.386 3.52081 3.82538 0
M  V30 5747 C 527.071 2.88969 4.10855 0
M  V30 5748 C 529.065 4.83449 4.15399 0
M  V30 5749 C 526.752 4.2054 4.43384 0
M  V30 5750 C 527.75 5.17589 4.45635 0
M  V30 5751 O 527.438 6.46799 4.77395 0
M  V30 5752 H 527.17 0.285463 0.61277 0
M  V30 5753 H 529.724 1.41051 1.49311 0
M  V30 5754 H 527.954 0.412833 3.8449 0
M  V30 5755 H 529.643 0.810224 3.97731 0
M  V30 5756 H 530.409 3.26299 3.58823 0
M  V30 5757 H 526.288 2.1409 4.08272 0
M  V30 5758 H 529.832 5.59194 4.1707 0
M  V30 5759 H 525.729 4.46083 4.66563 0
M  V30 5760 H 526.497 6.51677 4.95237 0
M  V30 5761 N 529.16 -1.33526 0.837174 0
M  V30 5762 C 530.108 -2.31168 0.257698 0
M  V30 5763 C 531.102 -1.5806 -0.609388 0
M  V30 5764 O 532.308 -1.72941 -0.499139 0
M  V30 5765 H 528.683 -0.74922 0.0646058 0
M  V30 5766 H 530.654 -2.77552 1.09578 0
M  V30 5767 C 529.403 -3.4326 -0.553887 0
M  V30 5768 H 528.726 -3.99665 0.104008 0
M  V30 5769 H 530.166 -4.13782 -0.925219 0
M  V30 5770 C 528.625 -2.88965 -1.73207 0
M  V30 5771 O 529.155 -2.85013 -2.83073 0
M  V30 5772 N 527.361 -2.45596 -1.55342 0
M  V30 5773 H 526.908 -2.49009 -0.659705 0
M  V30 5774 H 526.866 -2.0962 -2.34322 0
M  V30 5775 N 530.638 -0.59345 -1.46 0
M  V30 5776 C 531.915 -0.0157933 -1.95594 0
M  V30 5777 C 532.295 1.44807 -1.53604 0
M  V30 5778 O 531.643 2.14342 -0.791824 0
M  V30 5779 C 531.853 -0.199081 -3.48432 0
M  V30 5780 C 533.201 -0.0724943 -4.24538 0
M  V30 5781 O 534.225 -0.128469 -3.55968 0
M  V30 5782 O 533.084 0.0542426 -5.46473 0
M  V30 5783 H 530.178 0.043749 -0.825842 0
M  V30 5784 H 532.724 -0.662522 -1.56233 0
M  V30 5785 H 531.496 -1.21631 -3.71916 0
M  V30 5786 H 531.119 0.483576 -3.94648 0
M  V30 5787 N 532.116 1.54067 -0.331816 0
M  V30 5788 C 533.048 2.22139 0.564538 0
M  V30 5789 C 534.061 1.22408 1.07332 0
M  V30 5790 O 535.25 1.4883 0.985481 0
M  V30 5791 C 532.35 2.87876 1.78831 0
M  V30 5792 C 531.523 4.13817 1.41682 0
M  V30 5793 C 530.582 4.63072 2.49901 0
M  V30 5794 O 529.608 5.27562 2.13699 0
M  V30 5795 N 530.81 4.38001 3.80967 0
M  V30 5796 H 533.575 2.99694 -0.0183736 0
M  V30 5797 H 531.136 1.61153 -0.155396 0
M  V30 5798 H 533.128 3.17747 2.50637 0
M  V30 5799 H 531.698 2.13977 2.27887 0
M  V30 5800 H 530.918 3.9062 0.530044 0
M  V30 5801 H 532.206 4.95762 1.14443 0
M  V30 5802 H 531.604 3.864 4.13173 0
M  V30 5803 H 530.161 4.72507 4.48977 0
M  V30 5804 N 533.594 0.0601682 1.57485 0
M  V30 5805 C 535.005 -0.474217 1.80577 0
M  V30 5806 C 535.356 -1.70365 0.973147 0
M  V30 5807 O 534.481 -2.15544 0.192306 0
M  V30 5808 C 535.076 -0.867102 3.27516 0
M  V30 5809 C 533.635 -1.34642 3.51495 0
M  V30 5810 C 532.782 -0.32594 2.75378 0
M  V30 5811 H 535.733 0.285973 1.56102 0
M  V30 5812 H 535.754 -1.72938 3.38929 0
M  V30 5813 H 535.266 0.0278927 3.8809 0
M  V30 5814 H 533.367 -2.2603 2.96212 0
M  V30 5815 H 533.48 -1.33237 4.60201 0
M  V30 5816 H 531.844 -0.800749 2.41785 0
M  V30 5817 H 532.627 0.561125 3.38683 0
M  V30 5818 N 535.072 -1.5615 -0.213296 0
M  V30 5819 C 536.002 -1.96109 -1.26742 0
M  V30 5820 C 536.983 -0.830448 -1.48451 0
M  V30 5821 O 538.168 -1.09339 -1.60495 0
M  V30 5822 C 535.298 -2.28492 -2.61551 0
M  V30 5823 C 534.252 -3.44124 -2.54485 0
M  V30 5824 C 533.578 -3.62134 -3.93399 0
M  V30 5825 C 534.878 -4.78855 -2.08556 0
M  V30 5826 H 536.572 -2.84412 -0.935434 0
M  V30 5827 H 534.118 -1.36836 -0.44854 0
M  V30 5828 H 536.071 -2.55039 -3.3546 0
M  V30 5829 H 534.795 -1.37052 -2.96453 0
M  V30 5830 H 533.454 -3.17639 -1.83033 0
M  V30 5831 H 533.102 -2.68055 -4.25623 0
M  V30 5832 H 532.802 -4.39913 -3.89551 0
M  V30 5833 H 534.326 -3.91038 -4.68958 0
M  V30 5834 H 535.74 -5.04552 -2.72213 0
M  V30 5835 H 534.137 -5.59975 -2.1575 0
M  V30 5836 H 535.207 -4.73657 -1.03811 0
M  V30 5837 N 536.55 0.480323 -1.50102 0
M  V30 5838 C 537.78 1.25475 -1.64133 0
M  V30 5839 C 538.188 1.8647 -0.320272 0
M  V30 5840 O 537.531 1.69561 0.70673 0
M  V30 5841 C 537.593 2.40996 -2.6676 0
M  V30 5842 C 537.257 2.00711 -4.10565 0
M  V30 5843 C 538.254 1.53492 -4.96725 0
M  V30 5844 C 535.939 2.09714 -4.56427 0
M  V30 5845 C 537.933 1.15806 -6.26792 0
M  V30 5846 C 535.62 1.7164 -5.86501 0
M  V30 5847 C 536.618 1.24763 -6.71508 0
M  V30 5848 O 536.306 0.872122 -7.99155 0
M  V30 5849 H 536.038 0.385983 -0.554971 0
M  V30 5850 H 538.592 0.580848 -1.97016 0
M  V30 5851 H 536.822 3.11528 -2.291 0
M  V30 5852 H 538.511 3.02981 -2.70106 0
M  V30 5853 H 539.277 1.45966 -4.62514 0
M  V30 5854 H 535.156 2.4515 -3.90413 0
M  V30 5855 H 538.7 0.791465 -6.93096 0
M  V30 5856 H 534.597 1.78822 -6.20236 0
M  V30 5857 H 535.365 1.00178 -8.12346 0
M  V30 5858 N 538.028 1.39524 0.732853 0
M  V30 5859 C 538.978 1.34905 1.83806 0
M  V30 5860 C 539.962 0.229546 1.59254 0
M  V30 5861 O 541.154 0.467255 1.70721 0
M  V30 5862 C 538.283 1.19699 3.21756 0
M  V30 5863 C 537.369 2.36359 3.5213 0
M  V30 5864 N 537.76 3.61834 3.53426 0
M  V30 5865 C 536.058 2.29363 3.82503 0
M  V30 5866 C 536.759 4.38992 3.81655 0
M  V30 5867 N 535.735 3.68606 3.99538 0
M  V30 5868 H 539.537 2.29882 1.83116 0
M  V30 5869 H 537.051 1.33051 0.931194 0
M  V30 5870 H 539.048 1.14472 4.00876 0
M  V30 5871 H 537.708 0.256739 3.23683 0
M  V30 5872 H 538.719 3.95228 3.34686 0
M  V30 5873 H 535.396 1.43612 3.92023 0
M  V30 5874 H 536.786 5.47763 3.89108 0
M  V30 5875 N 539.506 -0.963266 1.24736 0
M  V30 5876 C 540.755 -1.70115 1.08369 0
M  V30 5877 C 541.068 -1.91939 -0.376688 0
M  V30 5878 O 542.274 -2.6334 -0.660624 0
M  V30 5879 C 540.73 -3.06218 1.89099 0
M  V30 5880 C 540.338 -2.92221 3.39574 0
M  V30 5881 C 542.082 -3.83848 1.81275 0
M  V30 5882 C 539.989 -4.23662 4.12631 0
M  V30 5883 H 538.919 -0.637944 0.401924 0
M  V30 5884 H 541.57 -1.07304 1.48856 0
M  V30 5885 H 539.952 -3.69884 1.41429 0
M  V30 5886 H 541.126 -2.37541 3.94856 0
M  V30 5887 H 539.441 -2.28054 3.48397 0
M  V30 5888 H 542.038 -4.81188 2.33158 0
M  V30 5889 H 542.381 -4.08949 0.778895 0
M  V30 5890 H 542.914 -3.26918 2.26649 0
M  V30 5891 H 539.653 -4.03753 5.16395 0
M  V30 5892 H 539.173 -4.78141 3.62135 0
M  V30 5893 H 540.852 -4.92256 4.19873 0
M  V30 5894 N 540.985 -1.06182 -1.16461 0
M  V30 5895 C 541.935 -0.641619 -2.18786 0
M  V30 5896 C 542.919 0.327122 -1.5754 0
M  V30 5897 O 544.111 0.142746 -1.76423 0
M  V30 5898 C 541.24 -0.0283734 -3.43288 0
M  V30 5899 C 540.326 -1.02154 -4.11613 0
M  V30 5900 N 540.717 -2.19671 -4.55608 0
M  V30 5901 C 539.015 -0.852229 -4.37782 0
M  V30 5902 C 539.716 -2.82583 -5.0845 0
M  V30 5903 N 538.692 -2.10318 -5.01266 0
M  V30 5904 H 542.494 -1.53684 -2.50516 0
M  V30 5905 H 540.008 -0.933349 -1.329 0
M  V30 5906 H 542.005 0.29049 -4.15887 0
M  V30 5907 H 540.665 0.862118 -3.13046 0
M  V30 5908 H 541.676 -2.57453 -4.49375 0
M  V30 5909 H 538.353 -0.0136314 -4.17498 0
M  V30 5910 H 539.743 -3.82298 -5.52538 0
M  V30 5911 N 542.463 1.3308 -0.844243 0
M  V30 5912 C 543.71 1.97605 -0.44255 0
M  V30 5913 C 544.038 1.66856 0.999458 0
M  V30 5914 O 543.293 0.943586 1.7145 0
M  V30 5915 C 543.592 3.52045 -0.616354 0
M  V30 5916 C 543.258 4.02757 -2.02726 0
M  V30 5917 C 541.92 4.16316 -2.41317 0
M  V30 5918 C 544.272 4.29776 -2.9486 0
M  V30 5919 C 541.6 4.54232 -3.71335 0
M  V30 5920 C 543.952 4.69146 -4.24364 0
M  V30 5921 C 542.616 4.80911 -4.62904 0
M  V30 5922 H 541.886 0.723088 -0.161941 0
M  V30 5923 H 544.533 1.58663 -1.0723 0
M  V30 5924 H 542.838 3.91681 0.0966812 0
M  V30 5925 H 544.535 3.99981 -0.285756 0
M  V30 5926 H 541.125 3.9268 -1.71756 0
M  V30 5927 H 545.309 4.18818 -2.6628 0
M  V30 5928 H 540.565 4.61535 -4.00993 0
M  V30 5929 H 544.739 4.89008 -4.95827 0
M  V30 5930 H 542.366 5.10048 -5.63698 0
M  V30 5931 N 543.941 0.601185 1.45683 0
M  V30 5932 C 545.188 0.0938811 2.02282 0
M  V30 5933 C 545.516 -1.27315 1.47041 0
M  V30 5934 O 544.771 -1.85193 0.632623 0
M  V30 5935 C 545.07 -0.00222425 3.574 0
M  V30 5936 C 544.736 1.29963 4.31764 0
M  V30 5937 C 543.398 1.65625 4.51798 0
M  V30 5938 C 545.75 2.1603 4.74321 0
M  V30 5939 C 543.078 2.87119 5.11644 0
M  V30 5940 C 545.43 3.36766 5.3551 0
M  V30 5941 C 544.094 3.72689 5.53768 0
M  V30 5942 H 543.364 0.0343535 0.740203 0
M  V30 5943 H 546.011 0.781522 1.74827 0
M  V30 5944 H 544.316 -0.773096 3.84097 0
M  V30 5945 H 546.013 -0.410794 3.9889 0
M  V30 5946 H 542.603 1.01204 4.1648 0
M  V30 5947 H 546.787 1.89778 4.58582 0
M  V30 5948 H 542.043 3.15065 5.2397 0
M  V30 5949 H 546.217 4.03713 5.67441 0
M  V30 5950 H 543.844 4.66918 5.99909 0
M  V30 5951 N 545.419 -1.53889 0.339982 0
M  V30 5952 C 546.382 -2.23547 -0.50592 0
M  V30 5953 C 547.382 -1.23445 -1.03044 0
M  V30 5954 O 548.572 -1.47909 -0.920253 0
M  V30 5955 C 545.704 -2.95234 -1.7044 0
M  V30 5956 H 546.897 -2.99722 0.103247 0
M  V30 5957 H 544.45 -1.56033 0.0912804 0
M  V30 5958 H 545.185 -2.23236 -2.35236 0
M  V30 5959 H 544.97 -3.68654 -1.33553 0
M  V30 5960 H 546.46 -3.48258 -2.30447 0
M  V30 5961 N 546.897 -0.0685191 -1.57451 0
M  V30 5962 C 547.807 0.914677 -2.16034 0
M  V30 5963 C 548.823 1.32938 -1.12265 0
M  V30 5964 O 549.999 1.40275 -1.44516 0
M  V30 5965 C 547.064 2.16519 -2.70777 0
M  V30 5966 C 546.125 1.80721 -3.89408 0
M  V30 5967 C 545.358 2.9981 -4.41531 0
M  V30 5968 O 545.581 4.13727 -3.92666 0
M  V30 5969 O 544.515 2.79817 -5.32903 0
M  V30 5970 H 548.341 0.446364 -3.00402 0
M  V30 5971 H 545.926 0.154367 -1.486 0
M  V30 5972 H 547.808 2.89856 -3.05878 0
M  V30 5973 H 546.483 2.62454 -1.89471 0
M  V30 5974 H 545.39 1.04646 -3.59166 0
M  V30 5975 H 546.723 1.39571 -4.71997 0
M  V30 5976 N 548.375 1.56261 0.205012 0
M  V30 5977 C 549.623 1.79684 0.925096 0
M  V30 5978 C 549.944 0.63989 1.84202 0
M  V30 5979 O 549.214 -0.342345 1.92885 0
M  V30 5980 H 547.794 0.662774 0.344587 0
M  V30 5981 H 550.456 1.93734 0.212899 0
M  V30 5982 H 549.552 2.72467 1.52211 0
M  V30 5983 N 549.853 -0.472356 1.50355 0
M  V30 5984 C 550.763 -1.59637 1.7191 0
M  V30 5985 C 551.779 -1.63247 0.602195 0
M  V30 5986 O 552.955 -1.81139 0.880369 0
M  V30 5987 C 550.02 -2.9586 1.80742 0
M  V30 5988 C 549.081 -3.02649 3.04471 0
M  V30 5989 C 548.314 -4.32374 3.12872 0
M  V30 5990 O 548.537 -5.22807 2.28099 0
M  V30 5991 O 547.471 -4.44728 4.05587 0
M  V30 5992 H 551.297 -1.44373 2.67189 0
M  V30 5993 H 548.882 -0.651717 1.34436 0
M  V30 5994 H 550.764 -3.7677 1.88739 0
M  V30 5995 H 549.439 -3.11325 0.88647 0
M  V30 5996 H 548.346 -2.20821 3.01975 0
M  V30 5997 H 549.679 -2.92119 3.9614 0
M  V30 5998 N 551.331 -1.39911 -0.725443 0
M  V30 5999 C 552.58 -1.36963 -1.48068 0
M  V30 6000 C 552.893 0.0284478 -1.95579 0
M  V30 6001 O 554.099 0.180535 -2.70899 0
M  V30 6002 C 552.555 -2.40664 -2.67598 0
M  V30 6003 C 552.163 -3.86234 -2.26997 0
M  V30 6004 C 553.907 -2.46807 -3.45379 0
M  V30 6005 C 551.814 -4.81554 -3.43307 0
M  V30 6006 H 550.744 -0.509223 -0.556065 0
M  V30 6007 H 553.395 -1.65602 -0.790454 0
M  V30 6008 H 551.777 -2.05109 -3.38742 0
M  V30 6009 H 552.951 -4.3088 -1.63337 0
M  V30 6010 H 551.266 -3.83475 -1.62284 0
M  V30 6011 H 553.863 -3.15213 -4.31909 0
M  V30 6012 H 554.206 -1.49552 -3.8851 0
M  V30 6013 H 554.739 -2.81303 -2.81271 0
M  V30 6014 H 551.478 -5.80106 -3.05217 0
M  V30 6015 H 550.998 -4.4158 -4.05915 0
M  V30 6016 H 552.677 -5.0091 -4.0951 0
M  V30 6017 N 552.809 0.956637 -1.25245 0
M  V30 6018 C 553.719 2.0868 -1.0719 0
M  V30 6019 C 554.735 1.73997 -0.00959074 0
M  V30 6020 O 555.911 2.00301 -0.210104 0
M  V30 6021 C 552.976 3.39754 -0.690526 0
M  V30 6022 C 552.037 3.88316 -1.83055 0
M  V30 6023 C 551.27 5.13134 -1.46728 0
M  V30 6024 O 551.493 5.6925 -0.362029 0
M  V30 6025 O 550.427 5.56356 -2.29677 0
M  V30 6026 H 554.253 2.26813 -2.01965 0
M  V30 6027 H 551.838 1.07098 -1.04165 0
M  V30 6028 H 553.72 4.18543 -0.489871 0
M  V30 6029 H 552.395 3.22896 0.227981 0
M  V30 6030 H 551.302 3.1054 -2.08604 0
M  V30 6031 H 552.635 4.09669 -2.72822 0
M  V30 6032 N 554.287 1.06798 1.15896 0
M  V30 6033 C 555.534 0.787767 1.86549 0
M  V30 6034 C 555.862 -0.685959 1.82002 0
M  V30 6035 O 555.117 -1.5188 1.23414 0
M  V30 6036 C 555.416 1.23414 3.35416 0
M  V30 6037 C 555.082 2.71285 3.6016 0
M  V30 6038 C 553.744 3.11676 3.66622 0
M  V30 6039 C 556.096 3.6676 3.7032 0
M  V30 6040 C 553.424 4.4637 3.8075 0
M  V30 6041 C 555.776 5.01209 3.8597 0
M  V30 6042 C 554.44 5.41229 3.90676 0
M  V30 6043 H 553.71 0.288264 0.682631 0
M  V30 6044 H 556.357 1.338 1.37003 0
M  V30 6045 H 554.662 0.60319 3.87129 0
M  V30 6046 H 556.359 0.994298 3.88477 0
M  V30 6047 H 552.949 2.39015 3.55767 0
M  V30 6048 H 557.133 3.36685 3.64633 0
M  V30 6049 H 552.389 4.76855 3.82648 0
M  V30 6050 H 556.563 5.75067 3.92773 0
M  V30 6051 H 554.19 6.45602 4.01375 0
M  V30 6052 N 555.766 -1.3263 0.851289 0
M  V30 6053 C 556.713 -2.28952 0.291469 0
M  V30 6054 C 557.683 -1.54897 -0.599676 0
M  V30 6055 O 558.868 -1.83137 -0.535305 0
M  V30 6056 C 556.008 -3.41206 -0.516992 0
M  V30 6057 C 555.121 -4.30148 0.399566 0
M  V30 6058 C 554.256 -5.29527 -0.4212 0
M  V30 6059 C 553.295 -6.10112 0.492969 0
M  V30 6060 N 552.432 -7.01499 -0.290414 0
M  V30 6061 H 557.272 -2.76228 1.11813 0
M  V30 6062 H 554.809 -1.35907 0.562826 0
M  V30 6063 H 556.767 -4.05005 -1.00132 0
M  V30 6064 H 555.397 -2.9509 -1.30851 0
M  V30 6065 H 554.449 -3.66959 1.00227 0
M  V30 6066 H 555.761 -4.8649 1.1013 0
M  V30 6067 H 554.915 -5.98914 -0.968832 0
M  V30 6068 H 553.654 -4.73794 -1.15632 0
M  V30 6069 H 552.659 -5.39632 1.05251 0
M  V30 6070 H 553.884 -6.6793 1.22664 0
M  V30 6071 H 551.83 -6.48199 -1.00868 0
M  V30 6072 H 551.747 -7.55178 0.352354 0
M  V30 6073 H 553.015 -7.75176 -0.819882 0
M  V30 6074 N 557.244 -0.608902 -1.45362 0
M  V30 6075 C 558.484 -0.10763 -2.04116 0
M  V30 6076 C 558.848 1.23883 -1.46686 0
M  V30 6077 O 560.049 1.83091 -1.96803 0
M  V30 6078 C 558.32 -0.0703351 -3.57331 0
M  V30 6079 S 559.879 0.369554 -4.37241 0
M  V30 6080 H 556.697 -0.0502123 -0.709225 0
M  V30 6081 H 559.299 -0.8073 -1.78053 0
M  V30 6082 H 558.003 -1.05379 -3.9664 0
M  V30 6083 H 557.534 0.651287 -3.87971 0
M  V30 6084 H 559.549 1.61878 -4.69052 0
M  V30 6085 N 558.722 1.53707 -0.348139 0
M  V30 6086 C 559.652 2.28111 0.498766 0
M  V30 6087 C 560.633 1.29851 1.09876 0
M  V30 6088 O 561.818 1.587 1.11928 0
M  V30 6089 C 558.948 3.05735 1.64753 0
M  V30 6090 C 557.902 4.11537 1.17565 0
M  V30 6091 C 557.228 4.77142 2.4133 0
M  V30 6092 C 558.528 5.21587 0.272844 0
M  V30 6093 H 560.222 2.99152 -0.121934 0
M  V30 6094 H 557.768 1.43875 -0.0600842 0
M  V30 6095 H 559.721 3.56526 2.24649 0
M  V30 6096 H 558.445 2.32354 2.2952 0
M  V30 6097 H 557.104 3.61665 0.599483 0
M  V30 6098 H 556.752 4.0035 3.04514 0
M  V30 6099 H 556.452 5.48626 2.10436 0
M  V30 6100 H 557.976 5.30719 3.01943 0
M  V30 6101 H 559.39 5.67986 0.778779 0
M  V30 6102 H 557.787 6.00074 0.0555849 0
M  V30 6103 H 558.857 4.79969 -0.689785 0
M  V30 6104 N 560.2 0.0768682 1.57412 0
M  V30 6105 C 561.449 -0.590679 1.92857 0
M  V30 6106 C 561.762 -1.70461 0.959293 0
M  V30 6107 O 562.968 -2.43207 1.20675 0
M  V30 6108 C 561.424 -1.10204 3.42612 0
M  V30 6109 C 561.032 -0.0188447 4.47996 0
M  V30 6110 C 562.776 -1.74336 3.87049 0
M  V30 6111 C 560.683 -0.544536 5.88888 0
M  V30 6112 H 559.613 -0.224411 0.71983 0
M  V30 6113 H 562.264 0.149924 1.82887 0
M  V30 6114 H 560.646 -1.89577 3.47673 0
M  V30 6115 H 561.82 0.755936 4.54557 0
M  V30 6116 H 560.135 0.526555 4.13057 0
M  V30 6117 H 562.732 -2.14708 4.89699 0
M  V30 6118 H 563.075 -2.60537 3.24694 0
M  V30 6119 H 563.608 -1.01577 3.84613 0
M  V30 6120 H 560.347 0.280426 6.549 0
M  V30 6121 H 559.867 -1.28673 5.85836 0
M  V30 6122 H 561.546 -1.01933 6.3892 0
M  V30 6123 N 561.678 -1.56367 -0.196722 0
M  V30 6124 C 562.908 -1.84371 -0.932254 0
M  V30 6125 C 563.316 -0.657013 -1.77426 0
M  V30 6126 O 562.659 0.383576 -1.79651 0
M  V30 6127 C 562.721 -3.06454 -1.87952 0
M  V30 6128 C 562.385 -4.40425 -1.21962 0
M  V30 6129 C 563.382 -5.16457 -0.597343 0
M  V30 6130 C 561.067 -4.8716 -1.22396 0
M  V30 6131 C 563.061 -6.37399 0.0117913 0
M  V30 6132 C 560.748 -6.08038 -0.610995 0
M  V30 6133 C 561.746 -6.83 0.00580487 0
M  V30 6134 O 561.434 -8.01589 0.609173 0
M  V30 6135 H 561.166 -0.616377 -0.277589 0
M  V30 6136 H 563.72 -2.04329 -0.209452 0
M  V30 6137 H 561.95 -2.82377 -2.64197 0
M  V30 6138 H 563.639 -3.21118 -2.48271 0
M  V30 6139 H 564.405 -4.81445 -0.586142 0
M  V30 6140 H 560.284 -4.2877 -1.69345 0
M  V30 6141 H 563.828 -6.9585 0.493836 0
M  V30 6142 H 559.725 -6.42519 -0.619693 0
M  V30 6143 H 560.493 -8.16935 0.505919 0
M  V30 6144 N 563.156 0.464375 -1.50603 0
M  V30 6145 C 564.405 1.21277 -1.61167 0
M  V30 6146 C 564.718 1.92953 -0.320704 0
M  V30 6147 O 565.924 2.69778 -0.30534 0
M  V30 6148 C 564.38 2.20403 -2.84518 0
M  V30 6149 C 563.988 1.54499 -4.20516 0
M  V30 6150 C 565.732 2.95843 -3.0443 0
M  V30 6151 C 563.639 2.51951 -5.35047 0
M  V30 6152 H 562.569 0.456367 -0.600204 0
M  V30 6153 H 565.22 0.48254 -1.77042 0
M  V30 6154 H 563.602 2.96746 -2.62217 0
M  V30 6155 H 564.776 0.83899 -4.53098 0
M  V30 6156 H 563.091 0.913152 -4.06264 0
M  V30 6157 H 565.688 3.6879 -3.87167 0
M  V30 6158 H 566.031 3.55622 -2.16423 0
M  V30 6159 H 566.564 2.26611 -3.26944 0
M  V30 6160 H 563.303 1.96901 -6.25228 0
M  V30 6161 H 562.823 3.20683 -5.06875 0
M  V30 6162 H 564.502 3.13643 -5.65895 0
M  V30 6163 N 564.634 1.40294 0.718013 0
M  V30 6164 C 566.045 1.34289 1.29705 0
M  V30 6165 C 566.396 0.0152228 1.96194 0
M  V30 6166 O 565.521 -0.88682 1.97394 0
M  V30 6167 C 566.116 2.43219 2.3586 0
M  V30 6168 C 564.675 2.40682 2.89394 0
M  V30 6169 C 563.822 2.24223 1.63154 0
M  V30 6170 H 566.773 1.50135 0.514312 0
M  V30 6171 H 566.794 2.10986 3.16647 0
M  V30 6172 H 566.306 3.39836 1.87439 0
M  V30 6173 H 564.407 1.47756 3.42051 0
M  V30 6174 H 564.52 3.36177 3.41353 0
M  V30 6175 H 562.884 1.71696 1.88129 0
M  V30 6176 H 563.667 3.22834 1.16761 0
M  V30 6177 N 566.112 -0.949982 1.2575 0
M  V30 6178 C 567.337 -1.73503 1.13628 0
M  V30 6179 C 567.762 -1.85601 -0.30559 0
M  V30 6180 O 567.12 -1.33984 -1.22139 0
M  V30 6181 C 567.168 -3.1243 1.80055 0
M  V30 6182 O 566.272 -3.97916 1.08336 0
M  V30 6183 H 565.613 -0.532665 0.396439 0
M  V30 6184 H 568.143 -1.19043 1.66403 0
M  V30 6185 H 568.153 -3.62866 1.86527 0
M  V30 6186 H 566.828 -3.02941 2.84956 0
M  V30 6187 H 565.405 -3.56375 1.09777 0
M  V30 6188 N 567.59 -1.07411 -1.15328 0
M  V30 6189 C 568.537 -0.694995 -2.20087 0
M  V30 6190 C 569.507 0.313904 -1.63107 0
M  V30 6191 O 570.692 0.200216 -1.89747 0
M  V30 6192 C 567.832 -0.0996218 -3.44956 0
M  V30 6193 C 566.945 -1.16007 -4.16133 0
M  V30 6194 C 566.08 -0.529636 -5.28553 0
M  V30 6195 C 565.119 -1.57283 -5.91548 0
M  V30 6196 N 564.256 -0.964932 -6.95438 0
M  V30 6197 H 569.096 -1.5927 -2.51867 0
M  V30 6198 H 566.633 -0.796115 -1.23695 0
M  V30 6199 H 568.591 0.263197 -4.16369 0
M  V30 6200 H 567.221 0.761435 -3.13691 0
M  V30 6201 H 566.273 -1.64045 -3.4321 0
M  V30 6202 H 567.585 -1.95101 -4.59061 0
M  V30 6203 H 566.739 -0.114487 -6.06592 0
M  V30 6204 H 565.478 0.29307 -4.86819 0
M  V30 6205 H 564.483 -1.99775 -5.12221 0
M  V30 6206 H 565.708 -2.39783 -6.35359 0
M  V30 6207 H 563.654 -0.16314 -6.55797 0
M  V30 6208 H 563.571 -1.69311 -7.36797 0
M  V30 6209 H 564.839 -0.575305 -7.77374 0
M  V30 6210 N 569.068 1.32177 -0.85831 0
M  V30 6211 C 570.031 2.27086 -0.310588 0
M  V30 6212 C 571.031 1.51751 0.531806 0
M  V30 6213 O 572.221 1.70794 0.34279 0
M  V30 6214 C 569.353 3.36266 0.560179 0
M  V30 6215 H 570.546 2.77045 -1.1483 0
M  V30 6216 H 568.099 1.42911 -0.632942 0
M  V30 6217 H 568.834 2.9158 1.41956 0
M  V30 6218 H 568.619 3.92077 -0.0428473 0
M  V30 6219 H 570.109 4.06974 0.936056 0
M  V30 6220 N 570.547 0.616602 1.45037 0
M  V30 6221 C 571.958 0.199359 1.85633 0
M  V30 6222 C 572.309 -1.24588 1.51566 0
M  V30 6223 O 571.434 -1.94594 0.94668 0
M  V30 6224 C 572.029 0.355033 3.36935 0
M  V30 6225 C 570.588 -0.00758748 3.76399 0
M  V30 6226 C 569.735 0.675256 2.68953 0
M  V30 6227 H 572.686 0.822708 1.3571 0
M  V30 6228 H 572.707 -0.410201 3.78282 0
M  V30 6229 H 572.219 1.40699 3.61698 0
M  V30 6230 H 570.32 -1.05837 3.57252 0
M  V30 6231 H 570.433 0.392346 4.77491 0
M  V30 6232 H 568.797 0.111992 2.54454 0
M  V30 6233 H 569.58 1.72952 2.96551 0
M  V30 6234 N 572.025 -1.5352 0.356285 0
M  V30 6235 C 573.25 -2.06007 -0.239961 0
M  V30 6236 C 573.675 -1.22872 -1.42422 0
M  V30 6237 O 573.033 -0.245516 -1.7963 0
M  V30 6238 C 573.081 -3.5522 -0.620587 0
M  V30 6239 O 572.185 -3.74864 -1.71902 0
M  V30 6240 H 571.526 -0.662961 -0.0371377 0
M  V30 6241 H 574.056 -1.98033 0.514194 0
M  V30 6242 H 574.066 -3.98081 -0.894197 0
M  V30 6243 H 572.741 -4.15175 0.245407 0
M  V30 6244 H 571.318 -3.43904 -1.44169 0
M  V30 6245 N 573.503 -0.0852151 -1.57369 0
M  V30 6246 C 574.436 0.913608 -2.09113 0
M  V30 6247 C 575.414 1.28264 -0.999358 0
M  V30 6248 O 576.598 1.3896 -1.27367 0
M  V30 6249 C 573.725 2.21777 -2.55993 0
M  V30 6250 C 572.771 1.99932 -3.76735 0
M  V30 6251 S 573.604 1.24637 -5.20794 0
M  V30 6252 C 574.76 2.56304 -5.71016 0
M  V30 6253 H 574.993 0.473369 -2.93507 0
M  V30 6254 H 572.526 0.127856 -1.5387 0
M  V30 6255 H 574.484 2.96726 -2.83662 0
M  V30 6256 H 573.145 2.62923 -1.71843 0
M  V30 6257 H 572.338 2.96482 -4.07571 0
M  V30 6258 H 571.94 1.33116 -3.49509 0
M  V30 6259 H 574.232 3.5233 -5.78679 0
M  V30 6260 H 575.175 2.3006 -6.69685 0
M  V30 6261 H 575.583 2.64125 -4.98897 0
M  V30 6262 N 574.981 1.5647 0.188427 0
M  V30 6263 C 575.929 1.95971 1.25293 0
M  V30 6264 C 576.923 0.846047 1.4676 0
M  V30 6265 O 578.129 1.03109 1.47542 0
M  V30 6266 H 574.504 0.623253 0.420784 0
M  V30 6267 H 576.475 2.84731 0.892792 0
M  V30 6268 C 575.224 2.32116 2.58877 0
M  V30 6269 H 574.547 3.17341 2.43176 0
M  V30 6270 H 575.987 2.63613 3.3209 0
M  V30 6271 C 574.446 1.15823 3.16365 0
M  V30 6272 O 574.976 0.436785 3.99318 0
M  V30 6273 N 573.182 0.933278 2.75206 0
M  V30 6274 H 572.729 1.52169 2.07852 0
M  V30 6275 H 572.687 0.156976 3.14008 0
M  V30 6276 N 576.459 -0.456382 1.50847 0
M  V30 6277 C 577.736 -1.21739 1.53098 0
M  V30 6278 C 578.116 -2.09179 0.284132 0
M  V30 6279 O 577.464 -2.16466 -0.731773 0
M  V30 6280 C 577.674 -2.03573 2.83477 0
M  V30 6281 C 579.022 -2.61264 3.34703 0
M  V30 6282 O 580.046 -2.13802 2.84898 0
M  V30 6283 O 578.905 -3.47779 4.21559 0
M  V30 6284 H 575.999 -0.553219 0.614718 0
M  V30 6285 H 578.545 -0.467003 1.63148 0
M  V30 6286 H 577.317 -1.39232 3.65691 0
M  V30 6287 H 576.94 -2.85716 2.76499 0
M  V30 6288 N 577.937 -1.40673 -0.710563 0
M  V30 6289 C 578.869 -1.37256 -1.83558 0
M  V30 6290 C 579.882 -0.277133 -1.60424 0
M  V30 6291 O 581.071 -0.537831 -1.70205 0
M  V30 6292 C 578.171 -1.1144 -3.20054 0
M  V30 6293 C 577.344 -2.32734 -3.70342 0
M  V30 6294 C 576.403 -2.03002 -4.85465 0
M  V30 6295 O 575.429 -2.75912 -4.97857 0
M  V30 6296 N 576.631 -1.01105 -5.71627 0
M  V30 6297 H 579.396 -2.34215 -1.86985 0
M  V30 6298 H 576.957 -1.35091 -0.892301 0
M  V30 6299 H 578.949 -0.895265 -3.94673 0
M  V30 6300 H 577.519 -0.231307 -3.11743 0
M  V30 6301 H 576.739 -2.70446 -2.86798 0
M  V30 6302 H 578.027 -3.13584 -4.00678 0
M  V30 6303 H 577.425 -0.407303 -5.64232 0
M  V30 6304 H 575.982 -0.85182 -6.4621 0
M  V30 6305 N 579.415 0.9433 -1.26252 0
M  V30 6306 C 580.345 2.05902 -1.10122 0
M  V30 6307 C 581.326 1.70099 -0.00700552 0
M  V30 6308 O 582.511 1.93377 -0.178641 0
M  V30 6309 C 579.641 3.39516 -0.731175 0
M  V30 6310 C 578.595 3.89372 -1.77688 0
M  V30 6311 C 577.921 5.19613 -1.26122 0
M  V30 6312 C 579.221 4.14489 -3.17799 0
M  V30 6313 H 580.915 2.19655 -2.03451 0
M  V30 6314 H 578.461 1.05548 -0.979576 0
M  V30 6315 H 580.414 4.17031 -0.605215 0
M  V30 6316 H 579.138 3.25733 0.23782 0
M  V30 6317 H 577.797 3.14036 -1.89148 0
M  V30 6318 H 577.445 5.02208 -0.282128 0
M  V30 6319 H 577.145 5.53939 -1.96023 0
M  V30 6320 H 578.669 5.99713 -1.14789 0
M  V30 6321 H 580.083 4.82625 -3.09428 0
M  V30 6322 H 578.48 4.60094 -3.85271 0
M  V30 6323 H 579.55 3.20347 -3.64014 0
M  V30 6324 N 580.893 1.08022 1.14757 0
M  V30 6325 C 582.123 0.827646 1.89298 0
M  V30 6326 C 582.531 -0.623506 1.78631 0
M  V30 6327 O 581.874 -1.43991 1.14071 0
M  V30 6328 C 581.936 1.16553 3.40082 0
M  V30 6329 C 581.6 2.61866 3.74533 0
M  V30 6330 C 582.597 3.60116 3.74984 0
M  V30 6331 C 580.282 2.97619 4.04633 0
M  V30 6332 C 582.276 4.92151 4.05051 0
M  V30 6333 C 579.963 4.2985 4.34364 0
M  V30 6334 C 580.961 5.26926 4.34555 0
M  V30 6335 O 580.649 6.5678 4.63568 0
M  V30 6336 H 580.381 0.298396 0.606577 0
M  V30 6337 H 582.935 1.44187 1.46285 0
M  V30 6338 H 581.165 0.494296 3.83528 0
M  V30 6339 H 582.854 0.894407 3.95923 0
M  V30 6340 H 583.62 3.33837 3.51821 0
M  V30 6341 H 579.499 2.22702 4.03639 0
M  V30 6342 H 583.043 5.67915 4.05115 0
M  V30 6343 H 578.94 4.55879 4.56995 0
M  V30 6344 H 579.708 6.62035 4.81303 0
M  V30 6345 N 582.371 -1.3172 0.865308 0
M  V30 6346 C 583.596 -2.01591 0.487415 0
M  V30 6347 C 584.021 -1.6455 -0.911307 0
M  V30 6348 O 583.379 -0.851689 -1.6005 0
M  V30 6349 C 583.427 -3.54759 0.646401 0
M  V30 6350 O 582.531 -4.11185 -0.316284 0
M  V30 6351 H 581.872 -0.634884 0.194468 0
M  V30 6352 H 584.402 -1.68024 1.16744 0
M  V30 6353 H 584.412 -4.04438 0.537932 0
M  V30 6354 H 583.087 -3.8106 1.66632 0
M  V30 6355 H 581.664 -3.72543 -0.163162 0
M  V30 6356 N 583.85 -0.624285 -1.44708 0
M  V30 6357 C 584.797 0.0847135 -2.30644 0
M  V30 6358 C 585.767 0.843575 -1.43084 0
M  V30 6359 O 586.952 0.825982 -1.71995 0
M  V30 6360 C 584.091 1.06495 -3.28257 0
M  V30 6361 C 583.205 0.305224 -4.3092 0
M  V30 6362 C 582.34 1.27667 -5.1563 0
M  V30 6363 C 581.379 0.505706 -6.10007 0
M  V30 6364 N 580.516 1.42727 -6.8744 0
M  V30 6365 H 585.356 -0.654068 -2.90733 0
M  V30 6366 H 582.893 -0.334334 -1.4325 0
M  V30 6367 H 584.851 1.64658 -3.83332 0
M  V30 6368 H 583.481 1.77094 -2.69884 0
M  V30 6369 H 582.533 -0.392207 -3.78373 0
M  V30 6370 H 583.845 -0.295553 -4.97924 0
M  V30 6371 H 582.999 1.92984 -5.75189 0
M  V30 6372 H 581.738 1.91137 -4.48685 0
M  V30 6373 H 580.743 -0.160999 -5.49564 0
M  V30 6374 H 581.968 -0.124183 -6.78986 0
M  V30 6375 H 579.913 2.04931 -6.23169 0
M  V30 6376 H 579.831 0.880345 -7.50857 0
M  V30 6377 H 581.099 2.0695 -7.51526 0
M  V30 6378 N 585.328 1.53329 -0.364422 0
M  V30 6379 C 586.26 2.23286 0.517293 0
M  V30 6380 C 587.273 1.24657 1.04711 0
M  V30 6381 O 588.462 1.50887 0.95369 0
M  V30 6382 C 585.562 2.91604 1.72685 0
M  V30 6383 C 584.735 4.1673 1.32873 0
M  V30 6384 C 583.794 4.68269 2.40022 0
M  V30 6385 O 582.82 5.31976 2.02461 0
M  V30 6386 N 584.022 4.45983 3.7159 0
M  V30 6387 H 586.787 2.99588 -0.0819391 0
M  V30 6388 H 584.348 1.60787 -0.189544 0
M  V30 6389 H 586.34 3.22992 2.4384 0
M  V30 6390 H 584.91 2.18763 2.23297 0
M  V30 6391 H 584.13 3.91657 0.447069 0
M  V30 6392 H 585.418 4.98078 1.03902 0
M  V30 6393 H 584.816 3.95077 4.04883 0
M  V30 6394 H 583.373 4.81924 4.38854 0
M  V30 6395 N 586.806 0.0935595 1.57322 0
M  V30 6396 C 587.754 -0.883457 2.15169 0
M  V30 6397 C 588.748 -1.29324 1.09415 0
M  V30 6398 O 589.954 -1.26795 1.27762 0
M  V30 6399 H 586.329 -0.302923 0.688289 0
M  V30 6400 H 588.3 -0.370845 2.96087 0
M  V30 6401 C 587.049 -2.13345 2.74552 0
M  V30 6402 H 586.372 -1.82702 3.55612 0
M  V30 6403 H 587.812 -2.7977 3.18598 0
M  V30 6404 C 586.271 -2.90646 1.70371 0
M  V30 6405 O 586.801 -3.85133 1.14173 0
M  V30 6406 N 585.007 -2.54157 1.40899 0
M  V30 6407 H 584.554 -1.77391 1.86789 0
M  V30 6408 H 584.512 -3.06178 0.714301 0
M  V30 6409 N 588.284 -1.56567 -0.180126 0
M  V30 6410 C 589.509 -1.85975 -0.918041 0
M  V30 6411 C 589.934 -0.678888 -1.75422 0
M  V30 6412 O 589.292 0.372168 -1.77439 0
M  V30 6413 C 589.34 -3.13731 -1.77779 0
M  V30 6414 O 588.444 -2.95335 -2.87838 0
M  V30 6415 H 587.785 -0.61196 -0.257683 0
M  V30 6416 H 590.315 -2.03798 -0.180923 0
M  V30 6417 H 590.325 -3.4491 -2.17948 0
M  V30 6418 H 589 -3.99293 -1.16352 0
M  V30 6419 H 587.577 -2.7549 -2.51316 0
M  V30 6420 N 589.762 0.448376 -1.51087 0
M  V30 6421 C 590.692 1.55102 -1.74544 0
M  V30 6422 C 591.673 1.59357 -0.594932 0
M  V30 6423 O 592.858 1.75261 -0.836491 0
M  V30 6424 C 589.988 2.93268 -1.86041 0
M  V30 6425 C 588.942 3.03877 -3.01402 0
M  V30 6426 C 588.268 4.43914 -2.98068 0
M  V30 6427 C 589.568 2.7898 -4.41551 0
M  V30 6428 H 591.262 1.35724 -2.66869 0
M  V30 6429 H 588.808 0.651498 -1.28419 0
M  V30 6430 H 590.761 3.70356 -2.01034 0
M  V30 6431 H 589.485 3.13853 -0.903548 0
M  V30 6432 H 588.144 2.29227 -2.86096 0
M  V30 6433 H 587.792 4.6145 -2.00182 0
M  V30 6434 H 587.492 4.51944 -3.75527 0
M  V30 6435 H 589.016 5.22991 -3.1514 0
M  V30 6436 H 590.43 3.45805 -4.57265 0
M  V30 6437 H 588.827 2.98431 -5.20633 0
M  V30 6438 H 589.897 1.74663 -4.5235 0
M  V30 6439 N 591.24 1.41047 0.703093 0
M  V30 6440 C 592.187 1.42302 1.81711 0
M  V30 6441 C 593.157 0.278336 1.63751 0
M  V30 6442 O 594.342 0.478266 1.84709 0
M  V30 6443 C 591.482 1.30362 3.19531 0
M  V30 6444 C 590.595 2.54638 3.48975 0
M  V30 6445 C 589.73 2.35047 4.76368 0
M  V30 6446 C 588.769 3.54837 4.98756 0
M  V30 6447 N 587.906 3.34363 6.1737 0
M  V30 6448 H 592.746 2.37516 1.79973 0
M  V30 6449 H 590.283 1.1795 0.878983 0
M  V30 6450 H 592.241 1.21443 3.99134 0
M  V30 6451 H 590.871 0.387602 3.20464 0
M  V30 6452 H 589.923 2.74037 2.63833 0
M  V30 6453 H 591.235 3.43766 3.61423 0
M  V30 6454 H 590.389 2.23552 5.64012 0
M  V30 6455 H 589.128 1.43363 4.66153 0
M  V30 6456 H 588.133 3.66795 4.09563 0
M  V30 6457 H 589.358 4.47464 5.10835 0
M  V30 6458 H 587.304 2.45373 6.08382 0
M  V30 6459 H 587.221 4.17063 6.30551 0
M  V30 6460 H 588.489 3.26626 7.07768 0
M  V30 6461 N 592.718 -0.936591 1.26751 0
M  V30 6462 C 593.648 -2.05315 1.11212 0
M  V30 6463 C 594.629 -1.70092 0.0160262 0
M  V30 6464 O 595.814 -1.93279 0.188894 0
M  V30 6465 C 592.944 -3.39123 0.749171 0
M  V30 6466 C 591.898 -3.88425 1.79751 0
M  V30 6467 C 591.224 -5.18936 1.28876 0
M  V30 6468 C 592.524 -4.12798 3.19992 0
M  V30 6469 H 594.218 -2.18573 2.04613 0
M  V30 6470 H 591.764 -1.05027 0.985159 0
M  V30 6471 H 593.717 -4.16704 0.627323 0
M  V30 6472 H 592.441 -3.25855 -0.220543 0
M  V30 6473 H 591.1 -3.13028 1.90811 0
M  V30 6474 H 590.748 -5.02051 0.308757 0
M  V30 6475 H 590.448 -5.52892 1.98958 0
M  V30 6476 H 591.972 -5.99096 1.17967 0
M  V30 6477 H 593.386 -4.80977 3.11983 0
M  V30 6478 H 591.783 -4.58044 3.87705 0
M  V30 6479 H 592.853 -3.18412 3.65707 0
M  V30 6480 N 594.196 -1.08629 -1.14182 0
M  V30 6481 C 595.426 -0.837673 -1.88856 0
M  V30 6482 C 595.834 0.614024 -1.78959 0
M  V30 6483 O 595.177 1.43384 -1.14833 0
M  V30 6484 C 595.239 -1.18355 -3.39459 0
M  V30 6485 C 594.903 -2.63848 -3.73139 0
M  V30 6486 C 595.9 -3.62099 -3.73069 0
M  V30 6487 C 593.585 -2.99761 -4.03049 0
M  V30 6488 C 595.579 -4.94292 -4.02435 0
M  V30 6489 C 593.266 -4.32147 -4.32078 0
M  V30 6490 C 594.264 -5.29223 -4.31755 0
M  V30 6491 O 593.952 -6.59229 -4.60079 0
M  V30 6492 H 593.684 -0.301609 -0.604986 0
M  V30 6493 H 596.238 -1.44961 -1.45518 0
M  V30 6494 H 594.468 -0.514628 -3.8326 0
M  V30 6495 H 596.157 -0.915391 -3.95443 0
M  V30 6496 H 596.923 -3.35698 -3.50046 0
M  V30 6497 H 592.802 -2.2484 -4.02453 0
M  V30 6498 H 596.346 -5.70055 -4.02098 0
M  V30 6499 H 592.243 -4.58296 -4.54571 0
M  V30 6500 H 593.011 -6.64578 -4.77785 0
M  V30 6501 N 595.674 1.31259 -0.872281 0
M  V30 6502 C 596.92 1.96913 -0.485083 0
M  V30 6503 C 597.253 1.68774 0.960667 0
M  V30 6504 O 596.528 0.985495 1.67685 0
M  V30 6505 C 596.811 3.52299 -0.745502 0
M  V30 6506 C 596.664 3.90002 -2.24095 0
M  V30 6507 C 597.983 4.39582 -0.213516 0
M  V30 6508 H 595.102 0.715252 -0.177716 0
M  V30 6509 H 597.744 1.55347 -1.09395 0
M  V30 6510 H 595.894 3.87835 -0.227276 0
M  V30 6511 H 597.566 3.64555 -2.82661 0
M  V30 6512 H 595.809 3.38526 -2.71261 0
M  V30 6513 H 596.48 4.98352 -2.37381 0
M  V30 6514 H 598.956 4.10882 -0.656902 0
M  V30 6515 H 597.832 5.47251 -0.42516 0
M  V30 6516 H 598.093 4.33158 0.884666 0
M  V30 6517 N 597.152 0.631951 1.44375 0
M  V30 6518 C 598.568 0.297642 1.568 0
M  V30 6519 C 598.768 -1.19916 1.61934 0
M  V30 6520 O 597.824 -1.98324 1.56281 0
M  V30 6521 C 599.137 0.990286 2.83926 0
M  V30 6522 C 600.685 0.968507 2.97639 0
M  V30 6523 C 601.16 1.64163 4.27568 0
M  V30 6524 N 602.651 1.60826 4.34384 0
M  V30 6525 C 603.386 2.09802 5.33639 0
M  V30 6526 N 602.882 2.66973 6.39294 0
M  V30 6527 N 604.675 2.00426 5.25153 0
M  V30 6528 H 596.826 1.60353 1.39286 0
M  V30 6529 H 599.089 0.673142 0.667521 0
M  V30 6530 H 598.795 2.04519 2.8612 0
M  V30 6531 H 598.669 0.528563 3.73478 0
M  V30 6532 H 601.056 -0.0779247 2.94997 0
M  V30 6533 H 601.137 1.46873 2.09433 0
M  V30 6534 H 600.781 2.68752 4.3097 0
M  V30 6535 H 600.711 1.11624 5.14634 0
M  V30 6536 H 603.202 1.19087 3.58646 0
M  V30 6537 H 603.515 3.02074 7.11316 0
M  V30 6538 H 601.86 2.71024 6.39977 0
M  V30 6539 H 605.051 1.55483 4.41523 0
M  V30 6540 H 605.224 2.38906 6.02352 0
M  V30 6541 N 598.631 -1.53133 0.372548 0
M  V30 6542 C 600.047 -1.59585 0.02178 0
M  V30 6543 C 600.247 -1.38736 -1.46132 0
M  V30 6544 O 599.303 -1.19599 -2.22379 0
M  V30 6545 C 600.616 -2.9678 0.483959 0
M  V30 6546 C 602.164 -3.09909 0.438775 0
M  V30 6547 C 602.639 -4.49527 0.876876 0
M  V30 6548 N 604.13 -4.55663 0.832214 0
M  V30 6549 C 604.865 -5.61896 1.14281 0
M  V30 6550 N 604.361 -6.75852 1.52303 0
M  V30 6551 N 606.154 -5.51916 1.06515 0
M  V30 6552 H 598.305 -1.64936 1.33827 0
M  V30 6553 H 600.568 -0.773947 0.547458 0
M  V30 6554 H 600.274 -3.17198 1.51915 0
M  V30 6555 H 600.148 -3.7699 -0.125784 0
M  V30 6556 H 602.535 -2.89197 -0.587294 0
M  V30 6557 H 602.616 -2.31691 1.0841 0
M  V30 6558 H 602.26 -4.70979 1.90109 0
M  V30 6559 H 602.19 -5.26186 0.208727 0
M  V30 6560 H 604.681 -3.73844 0.552195 0
M  V30 6561 H 604.994 -7.52862 1.7441 0
M  V30 6562 H 603.339 -6.77226 1.56175 0
M  V30 6563 H 606.53 -4.6177 0.767235 0
M  V30 6564 H 606.703 -6.34609 1.31053 0
M  V30 6565 N 600.109 -0.101901 -1.5727 0
M  V30 6566 C 601.355 0.561027 -1.94885 0
M  V30 6567 C 601.688 1.6741 -0.984258 0
M  V30 6568 O 600.963 1.94491 -0.0184767 0
M  V30 6569 C 601.246 1.10982 -3.42571 0
M  V30 6570 C 601.099 0.00133418 -4.498 0
M  V30 6571 C 602.418 2.00608 -3.9172 0
M  V30 6572 H 599.537 0.202467 -0.708644 0
M  V30 6573 H 602.179 -0.173992 -1.89202 0
M  V30 6574 H 600.329 1.73621 -3.47546 0
M  V30 6575 H 602.001 -0.63322 -4.56933 0
M  V30 6576 H 600.244 -0.664143 -4.28686 0
M  V30 6577 H 600.915 0.426253 -5.50352 0
M  V30 6578 H 603.391 1.47864 -3.88941 0
M  V30 6579 H 602.267 2.3593 -4.95609 0
M  V30 6580 H 602.528 2.92608 -3.3141 0
M  V30 6581 N 601.587 1.56661 0.17182 0
M  V30 6582 C 602.517 1.99401 1.21498 0
M  V30 6583 C 603.498 0.869516 1.46197 0
M  V30 6584 O 604.683 1.13556 1.57539 0
M  V30 6585 C 601.813 2.35346 2.55401 0
M  V30 6586 C 600.767 3.5075 2.45272 0
M  V30 6587 C 600.093 3.72437 3.8366 0
M  V30 6588 C 601.393 4.84216 1.95787 0
M  V30 6589 H 603.087 2.86792 0.859699 0
M  V30 6590 H 600.633 1.37977 0.412103 0
M  V30 6591 H 602.586 2.63843 3.2858 0
M  V30 6592 H 601.31 1.44864 2.92715 0
M  V30 6593 H 599.969 3.2238 1.74547 0
M  V30 6594 H 599.617 2.79246 4.18367 0
M  V30 6595 H 599.317 4.50087 3.77751 0
M  V30 6596 H 600.841 4.03334 4.58426 0
M  V30 6597 H 602.255 5.11592 2.5874 0
M  V30 6598 H 600.652 5.65498 2.00827 0
M  V30 6599 H 601.722 4.76243 0.912159 0
M  V30 6600 N 603.065 -0.440357 1.51323 0
M  V30 6601 C 604.311 -1.19181 1.64085 0
M  V30 6602 C 604.644 -1.90936 0.354575 0
M  V30 6603 O 603.919 -1.8347 -0.645675 0
M  V30 6604 C 604.202 -2.2112 2.84215 0
M  V30 6605 C 604.055 -1.53468 4.22809 0
M  V30 6606 C 605.374 -3.22133 2.99864 0
M  V30 6607 H 602.493 -0.431924 0.597169 0
M  V30 6608 H 605.135 -0.481443 1.83799 0
M  V30 6609 H 603.285 -2.81703 2.67537 0
M  V30 6610 H 604.957 -0.962455 4.51148 0
M  V30 6611 H 603.2 -0.837086 4.25647 0
M  V30 6612 H 603.871 -2.27694 5.02852 0
M  V30 6613 H 606.347 -2.71601 3.15233 0
M  V30 6614 H 605.223 -3.90756 3.85488 0
M  V30 6615 H 605.484 -3.88061 2.11804 0
M  V30 6616 N 604.543 -1.41418 -0.695603 0
M  V30 6617 C 605.506 -1.42988 -1.79129 0
M  V30 6618 C 606.506 -0.320514 -1.57573 0
M  V30 6619 O 607.696 -0.58039 -1.64247 0
M  V30 6620 C 604.828 -1.24122 -3.175 0
M  V30 6621 H 606.021 -2.40526 -1.7913 0
M  V30 6622 H 603.574 -1.2756 -0.903225 0
M  V30 6623 H 604.309 -0.274253 -3.23138 0
M  V30 6624 H 604.094 -2.045 -3.34547 0
M  V30 6625 H 605.584 -1.28056 -3.97481 0
M  V30 6626 N 606.021 0.929856 -1.27246 0
M  V30 6627 C 607.298 1.65544 -1.04186 0
M  V30 6628 C 607.678 2.06796 0.424097 0
M  V30 6629 O 607.026 1.80053 1.40688 0
M  V30 6630 C 607.236 2.85912 -2.00138 0
M  V30 6631 C 608.584 3.57305 -2.29387 0
M  V30 6632 O 609.608 2.96036 -1.98094 0
M  V30 6633 O 608.467 4.67688 -2.82719 0
M  V30 6634 H 605.561 0.725473 -0.397011 0
M  V30 6635 H 608.107 0.980583 -1.38501 0
M  V30 6636 H 606.879 2.52403 -2.99013 0
M  V30 6637 H 606.502 3.61118 -1.66371 0
M  V30 6638 N 607.499 1.09233 1.13605 0
M  V30 6639 C 608.409 0.741939 2.22559 0
M  V30 6640 C 609.425 -0.255236 1.72118 0
M  V30 6641 O 610.601 -0.0970747 2.01166 0
M  V30 6642 C 607.666 0.165595 3.46304 0
M  V30 6643 C 606.727 1.21846 4.11645 0
M  V30 6644 C 605.96 0.669526 5.29484 0
M  V30 6645 O 606.183 -0.508228 5.68131 0
M  V30 6646 O 605.117 1.42361 5.84822 0
M  V30 6647 H 608.943 1.65107 2.54899 0
M  V30 6648 H 606.528 0.866584 1.21699 0
M  V30 6649 H 608.41 -0.152592 4.21124 0
M  V30 6650 H 607.085 -0.716573 3.15669 0
M  V30 6651 H 605.992 1.58931 3.38662 0
M  V30 6652 H 607.325 2.07321 4.46407 0
M  V30 6653 N 608.977 -1.30795 0.87923 0
M  V30 6654 C 610.224 -1.96362 0.494786 0
M  V30 6655 C 610.552 -1.69448 -0.954868 0
M  V30 6656 O 609.807 -0.988711 -1.68888 0
M  V30 6657 C 610.106 -3.50287 0.709476 0
M  V30 6658 C 609.772 -3.9724 2.13333 0
M  V30 6659 C 608.434 -4.09772 2.52271 0
M  V30 6660 C 610.786 -4.21807 3.06151 0
M  V30 6661 C 608.114 -4.44227 3.83248 0
M  V30 6662 C 610.466 -4.5773 4.36654 0
M  V30 6663 C 609.13 -4.68469 4.75492 0
M  V30 6664 H 608.4 -0.71854 0.181055 0
M  V30 6665 H 611.047 -1.55764 1.11399 0
M  V30 6666 H 609.352 -3.91799 0.0072 0
M  V30 6667 H 611.049 -3.99082 0.391703 0
M  V30 6668 H 607.639 -3.87988 1.82107 0
M  V30 6669 H 611.823 -4.11611 2.77291 0
M  V30 6670 H 607.079 -4.50741 4.13089 0
M  V30 6671 H 611.253 -4.7569 5.08617 0
M  V30 6672 H 608.88 -4.94923 5.77022 0
M  V30 6673 N 610.455 -0.639598 -1.44038 0
M  V30 6674 C 611.701 -0.147698 -2.02261 0
M  V30 6675 C 612.034 1.23031 -1.50256 0
M  V30 6676 O 611.309 1.81847 -0.690068 0
M  V30 6677 C 611.592 -0.14362 -3.59813 0
M  V30 6678 C 611.445 -1.55458 -4.22082 0
M  V30 6679 C 612.764 0.527317 -4.36929 0
M  V30 6680 H 609.883 -0.0551453 -0.734934 0
M  V30 6681 H 612.525 -0.817688 -1.71505 0
M  V30 6682 H 610.675 0.426898 -3.86147 0
M  V30 6683 H 612.347 -2.17464 -4.06826 0
M  V30 6684 H 610.59 -2.10594 -3.79253 0
M  V30 6685 H 611.261 -1.50369 -5.31124 0
M  V30 6686 H 613.737 0.0420504 -4.16079 0
M  V30 6687 H 612.613 0.499389 -5.46624 0
M  V30 6688 H 612.874 1.59914 -4.12165 0
M  V30 6689 N 611.933 1.52934 -0.380664 0
M  V30 6690 C 612.843 2.29921 0.466192 0
M  V30 6691 C 613.859 1.36488 1.07922 0
M  V30 6692 O 615.035 1.69553 1.0869 0
M  V30 6693 C 612.1 3.08468 1.58266 0
M  V30 6694 C 611.161 4.17595 0.995627 0
M  V30 6695 C 610.394 4.92387 2.05889 0
M  V30 6696 O 610.617 4.67184 3.27254 0
M  V30 6697 O 609.551 5.77949 1.68102 0
M  V30 6698 H 613.377 3.03274 -0.160735 0
M  V30 6699 H 610.962 1.48698 -0.144617 0
M  V30 6700 H 612.844 3.57469 2.23145 0
M  V30 6701 H 611.519 2.37937 2.19471 0
M  V30 6702 H 610.426 3.72811 0.310332 0
M  V30 6703 H 611.759 4.90336 0.427918 0
M  V30 6704 N 613.412 0.11024 1.57214 0
M  V30 6705 C 614.659 -0.54987 1.94891 0
M  V30 6706 C 614.987 -1.67243 0.992984 0
M  V30 6707 O 614.242 -1.95694 0.0152703 0
M  V30 6708 C 614.541 -1.13102 3.39032 0
M  V30 6709 C 614.207 -0.130713 4.5071 0
M  V30 6710 C 612.869 0.14437 4.80983 0
M  V30 6711 C 615.221 0.551472 5.18274 0
M  V30 6712 C 612.549 1.10807 5.76141 0
M  V30 6713 C 614.901 1.50375 6.14467 0
M  V30 6714 C 613.565 1.78691 6.43138 0
M  V30 6715 H 612.835 -0.201212 0.713158 0
M  V30 6716 H 615.482 0.189288 1.90562 0
M  V30 6717 H 613.787 -1.94675 3.40013 0
M  V30 6718 H 615.484 -1.64973 3.65493 0
M  V30 6719 H 612.074 -0.355301 4.27125 0
M  V30 6720 H 616.258 0.35211 4.95049 0
M  V30 6721 H 611.514 1.3343 5.96663 0
M  V30 6722 H 615.688 2.03808 6.65909 0
M  V30 6723 H 613.315 2.53522 7.1668 0
M  V30 6724 N 614.89 -1.56749 -0.16351 0
M  V30 6725 C 615.82 -2.00042 -1.20438 0
M  V30 6726 C 616.801 -0.877256 -1.45733 0
M  V30 6727 O 617.986 -1.1439 -1.56935 0
M  V30 6728 C 615.116 -2.36697 -2.54149 0
M  V30 6729 C 614.07 -3.52046 -2.43408 0
M  V30 6730 C 613.396 -3.74466 -3.81679 0
M  V30 6731 C 614.696 -4.85247 -1.93216 0
M  V30 6732 H 616.39 -2.87244 -0.844477 0
M  V30 6733 H 613.936 -1.38194 -0.40478 0
M  V30 6734 H 615.889 -2.65582 -3.27176 0
M  V30 6735 H 614.613 -1.46414 -2.91943 0
M  V30 6736 H 613.272 -3.23301 -1.72834 0
M  V30 6737 H 612.92 -2.81461 -4.1688 0
M  V30 6738 H 612.62 -4.52084 -3.75359 0
M  V30 6739 H 614.144 -4.0576 -4.5628 0
M  V30 6740 H 615.558 -5.12957 -2.56023 0
M  V30 6741 H 613.955 -5.66556 -1.97825 0
M  V30 6742 H 615.025 -4.7672 -0.88689 0
M  V30 6743 N 616.368 0.432326 -1.51554 0
M  V30 6744 C 617.779 1.01202 -1.56892 0
M  V30 6745 C 618.13 1.92175 -0.395394 0
M  V30 6746 O 617.255 2.10844 0.487198 0
M  V30 6747 C 617.85 1.84217 -2.8434 0
M  V30 6748 C 616.409 2.37228 -2.92233 0
M  V30 6749 C 615.556 1.16576 -2.51606 0
M  V30 6750 H 618.507 0.213407 -1.57259 0
M  V30 6751 H 618.528 2.69721 -2.68385 0
M  V30 6752 H 618.04 1.17979 -3.69733 0
M  V30 6753 H 616.141 3.06905 -2.11282 0
M  V30 6754 H 616.254 2.69682 -3.95991 0
M  V30 6755 H 614.618 1.51263 -2.04919 0
M  V30 6756 H 615.401 0.519404 -3.39348 0
M  V30 6757 N 617.846 1.41785 0.688094 0
M  V30 6758 C 619.262 1.24419 0.999608 0
M  V30 6759 C 619.462 0.138868 2.01021 0
M  V30 6760 O 618.518 -0.494283 2.47615 0
M  V30 6761 C 619.831 2.59625 1.51709 0
M  V30 6762 C 621.379 2.66869 1.63554 0
M  V30 6763 C 621.854 4.0241 2.18702 0
M  V30 6764 N 623.345 4.04295 2.26053 0
M  V30 6765 C 624.08 5.05977 2.69768 0
M  V30 6766 N 623.576 6.18047 3.13033 0
M  V30 6767 N 625.369 4.93336 2.69398 0
M  V30 6768 H 617.52 2.12392 0.0187427 0
M  V30 6769 H 619.783 0.945347 0.0708673 0
M  V30 6770 H 619.489 3.41297 0.849059 0
M  V30 6771 H 619.363 2.82628 2.49803 0
M  V30 6772 H 621.75 1.8555 2.29467 0
M  V30 6773 H 621.831 2.47668 0.639857 0
M  V30 6774 H 621.475 4.8418 1.53402 0
M  V30 6775 H 621.405 4.18955 3.19037 0
M  V30 6776 H 623.896 3.23383 1.9553 0
M  V30 6777 H 624.209 6.91498 3.45038 0
M  V30 6778 H 622.554 6.21572 3.10923 0
M  V30 6779 H 625.745 4.04865 2.34952 0
M  V30 6780 H 625.918 5.72717 3.03148 0
M  V30 6781 N 619.324 -0.923095 1.27737 0
M  V30 6782 C 620.554 -1.70277 1.17001 0
M  V30 6783 C 620.962 -1.87188 -0.275199 0
M  V30 6784 O 620.305 -1.39195 -1.19877 0
M  V30 6785 C 620.367 -3.11976 1.78637 0
M  V30 6786 C 620.031 -3.18386 3.27841 0
M  V30 6787 C 621.028 -3.00287 4.2441 0
M  V30 6788 C 618.713 -3.41198 3.68632 0
M  V30 6789 C 620.707 -3.04896 5.59747 0
M  V30 6790 C 618.394 -3.4544 5.04097 0
M  V30 6791 C 619.392 -3.27309 5.99465 0
M  V30 6792 O 619.08 -3.31295 7.32461 0
M  V30 6793 H 618.812 -0.539366 0.407505 0
M  V30 6794 H 621.366 -1.16446 1.69202 0
M  V30 6795 H 619.596 -3.67308 1.20919 0
M  V30 6796 H 621.285 -3.7193 1.6255 0
M  V30 6797 H 622.051 -2.825 3.94232 0
M  V30 6798 H 617.93 -3.54359 2.94873 0
M  V30 6799 H 621.474 -2.90662 6.34162 0
M  V30 6800 H 617.371 -3.62753 5.33929 0
M  V30 6801 H 618.139 -3.47719 7.40968 0
M  V30 6802 N 620.802 -1.09834 -1.13024 0
M  V30 6803 C 621.735 -0.685453 -2.17662 0
M  V30 6804 C 622.713 0.310142 -1.59615 0
M  V30 6805 O 623.897 0.21052 -1.87321 0
M  V30 6806 C 621.024 -0.0104476 -3.38698 0
M  V30 6807 C 620.07 -0.968522 -4.15358 0
M  V30 6808 S 620.903 -2.48272 -4.74469 0
M  V30 6809 C 622.059 -1.82025 -5.98847 0
M  V30 6810 H 622.292 -1.57187 -2.52348 0
M  V30 6811 H 619.825 -0.914728 -1.24387 0
M  V30 6812 H 621.783 0.372694 -4.08805 0
M  V30 6813 H 620.444 0.852673 -3.02305 0
M  V30 6814 H 619.637 -0.443373 -5.02046 0
M  V30 6815 H 619.239 -1.29327 -3.50928 0
M  V30 6816 H 621.531 -1.14678 -6.67724 0
M  V30 6817 H 622.474 -2.66645 -6.55977 0
M  V30 6818 H 622.882 -1.2874 -5.49624 0
M  V30 6819 N 622.28 1.30327 -0.886154 0
M  V30 6820 C 623.505 2.0079 -0.519425 0
M  V30 6821 C 623.93 1.65979 0.885013 0
M  V30 6822 O 623.288 0.877043 1.58675 0
M  V30 6823 C 623.336 3.53686 -0.702758 0
M  V30 6824 O 622.44 4.11637 0.250828 0
M  V30 6825 H 621.781 0.63171 -0.204544 0
M  V30 6826 H 624.311 1.66145 -1.19402 0
M  V30 6827 H 624.321 4.03531 -0.602207 0
M  V30 6828 H 622.996 3.78361 -1.72673 0
M  V30 6829 H 621.573 3.72755 0.103873 0
M  V30 6830 N 623.758 0.647228 1.43697 0
M  V30 6831 C 625.005 0.158188 2.01881 0
M  V30 6832 C 625.333 -1.22573 1.51017 0
M  V30 6833 O 624.588 -1.83086 0.69122 0
M  V30 6834 C 624.887 0.111481 3.57226 0
M  V30 6835 C 624.553 1.43633 4.27411 0
M  V30 6836 C 623.215 1.79915 4.463 0
M  V30 6837 C 625.567 2.31011 4.67208 0
M  V30 6838 C 622.895 3.03251 5.02251 0
M  V30 6839 C 625.247 3.53633 5.24525 0
M  V30 6840 C 623.911 3.90118 5.41631 0
M  V30 6841 H 623.181 0.0578851 0.738736 0
M  V30 6842 H 625.828 0.836746 1.72252 0
M  V30 6843 H 624.133 -0.650507 3.86362 0
M  V30 6844 H 625.83 -0.283682 3.99995 0
M  V30 6845 H 622.42 1.14403 4.1305 0
M  V30 6846 H 626.604 2.04272 4.52313 0
M  V30 6847 H 621.86 3.31575 5.13681 0
M  V30 6848 H 626.034 4.21561 5.5431 0
M  V30 6849 H 623.661 4.85768 5.84751 0
M  V30 6850 N 625.236 -1.5273 0.388769 0
M  V30 6851 C 626.482 -2.01871 -0.193877 0
M  V30 6852 C 626.815 -1.27475 -1.46505 0
M  V30 6853 O 626.09 -0.375063 -1.90849 0
M  V30 6854 C 626.373 -3.5712 -0.462336 0
M  V30 6855 C 626.226 -4.42186 0.824091 0
M  V30 6856 C 627.545 -4.21881 -1.25319 0
M  V30 6857 H 624.664 -0.733764 -0.0689899 0
M  V30 6858 H 627.306 -1.82796 0.518231 0
M  V30 6859 H 625.456 -3.73504 -1.06896 0
M  V30 6860 H 627.128 -4.37554 1.46096 0
M  V30 6861 H 625.371 -4.09219 1.43952 0
M  V30 6862 H 626.042 -5.48828 0.590905 0
M  V30 6863 H 628.518 -4.0947 -0.73981 0
M  V30 6864 H 627.394 -5.30487 -1.40977 0
M  V30 6865 H 627.655 -3.79478 -2.26824 0
M  V30 6866 N 626.714 -0.118576 -1.57153 0
M  V30 6867 C 627.661 0.831789 -2.1529 0
M  V30 6868 C 628.631 1.26385 -1.07778 0
M  V30 6869 O 629.816 1.34144 -1.35684 0
M  V30 6870 C 626.956 2.07664 -2.75626 0
M  V30 6871 C 626.069 1.69298 -3.97444 0
M  V30 6872 C 625.204 2.88747 -4.45868 0
M  V30 6873 C 624.243 2.46619 -5.60219 0
M  V30 6874 N 623.38 3.5898 -6.03389 0
M  V30 6875 H 628.22 0.329183 -2.96176 0
M  V30 6876 H 625.757 0.150792 -1.46325 0
M  V30 6877 H 627.715 2.80601 -3.08738 0
M  V30 6878 H 626.345 2.55384 -1.97431 0
M  V30 6879 H 625.397 0.862374 -3.70496 0
M  V30 6880 H 626.709 1.34338 -4.80369 0
M  V30 6881 H 625.863 3.69909 -4.80887 0
M  V30 6882 H 624.602 3.26933 -3.61892 0
M  V30 6883 H 623.607 1.63889 -5.24805 0
M  V30 6884 H 624.832 2.0955 -6.45961 0
M  V30 6885 H 622.778 3.9684 -5.22354 0
M  V30 6886 H 622.695 3.27942 -6.81168 0
M  V30 6887 H 623.963 4.40583 -6.43045 0
M  V30 6888 N 628.193 1.56834 0.155195 0
M  V30 6889 C 629.441 1.82536 0.867462 0
M  V30 6890 C 629.762 0.698168 1.82073 0
M  V30 6891 O 629.032 -0.280807 1.93877 0
M  V30 6892 H 627.612 0.673401 0.323327 0
M  V30 6893 H 630.274 1.94313 0.151156 0
M  V30 6894 H 629.37 2.77171 1.43466 0
M  V30 6895 N 629.671 -0.424282 1.51781 0
M  V30 6896 C 630.917 -1.17434 1.6534 0
M  V30 6897 C 631.25 -1.90549 0.374806 0
M  V30 6898 O 630.525 -1.84145 -0.626179 0
M  V30 6899 C 630.808 -2.18093 2.86544 0
M  V30 6900 C 630.661 -1.48975 4.24413 0
M  V30 6901 C 631.98 -3.18934 3.03264 0
M  V30 6902 H 629.099 -0.425566 0.601716 0
M  V30 6903 H 631.741 -0.461921 1.84299 0
M  V30 6904 H 629.891 -2.78849 2.7051 0
M  V30 6905 H 631.563 -0.914551 4.52143 0
M  V30 6906 H 629.806 -0.791893 4.26511 0
M  V30 6907 H 630.477 -2.22347 5.05238 0
M  V30 6908 H 632.953 -2.68243 3.18096 0
M  V30 6909 H 631.829 -3.86645 3.89611 0
M  V30 6910 H 632.09 -3.85793 2.15908 0
M  V30 6911 N 631.149 -1.42148 -0.680565 0
M  V30 6912 C 632.395 -1.42521 -1.44277 0
M  V30 6913 C 632.728 -0.0393718 -1.9416 0
M  V30 6914 O 632.003 0.935425 -1.70529 0
M  V30 6915 C 632.286 -2.44475 -2.64394 0
M  V30 6916 C 632.139 -3.92226 -2.20179 0
M  V30 6917 C 633.458 -2.43491 -3.66606 0
M  V30 6918 H 630.577 -0.518985 -0.523282 0
M  V30 6919 H 633.219 -1.73524 -0.773914 0
M  V30 6920 H 631.369 -2.18168 -3.21458 0
M  V30 6921 H 633.041 -4.29493 -1.68327 0
M  V30 6922 H 631.284 -4.0637 -1.5181 0
M  V30 6923 H 631.955 -4.59133 -3.06433 0
M  V30 6924 H 634.431 -2.66872 -3.19247 0
M  V30 6925 H 633.307 -3.16816 -4.4824 0
M  V30 6926 H 633.568 -1.45881 -4.17338 0
M  V30 6927 N 632.627 0.916307 -1.28225 0
M  V30 6928 C 633.904 1.64429 -1.05936 0
M  V30 6929 C 634.284 2.07234 0.402139 0
M  V30 6930 O 633.632 1.81535 1.3877 0
M  V30 6931 C 633.842 2.83773 -2.03159 0
M  V30 6932 C 635.19 3.54852 -2.33164 0
M  V30 6933 O 636.214 2.93918 -2.01223 0
M  V30 6934 O 635.073 4.64663 -2.87664 0
M  V30 6935 H 632.167 0.721221 -0.404683 0
M  V30 6936 H 634.713 0.965838 -1.39534 0
M  V30 6937 H 633.485 2.49217 -3.01673 0
M  V30 6938 H 633.108 3.59333 -1.70192 0
M  V30 6939 N 634.105 1.10431 1.1244 0
M  V30 6940 C 635.33 0.869089 1.88313 0
M  V30 6941 C 635.755 -0.574912 1.79099 0
M  V30 6942 O 635.113 -1.40496 1.14589 0
M  V30 6943 C 635.161 1.32208 3.3549 0
M  V30 6944 O 634.265 0.487092 4.09513 0
M  V30 6945 H 633.606 0.313894 0.585121 0
M  V30 6946 H 636.136 1.47111 1.42195 0
M  V30 6947 H 636.146 1.31201 3.86329 0
M  V30 6948 H 634.821 2.37364 3.41513 0
M  V30 6949 H 633.398 0.562372 3.68635 0
M  V30 6950 N 635.583 -1.29855 0.893053 0
M  V30 6951 C 636.86 -1.90694 0.435336 0
M  V30 6952 C 637.24 -1.8111 -1.08454 0
M  V30 6953 O 636.588 -1.23352 -1.92345 0
M  V30 6954 C 636.798 -3.36033 0.942472 0
M  V30 6955 C 638.146 -4.13083 0.982226 0
M  V30 6956 O 639.17 -3.4491 0.889686 0
M  V30 6957 O 638.029 -5.34896 1.12022 0
M  V30 6958 H 635.123 -0.815978 0.134567 0
M  V30 6959 H 637.669 -1.38367 0.982484 0
M  V30 6960 H 636.441 -3.37132 1.9864 0
M  V30 6961 H 636.064 -3.95828 0.374952 0
M  V30 6962 N 637.061 -0.65484 -1.43351 0
M  V30 6963 C 638.338 -0.0987371 -1.95351 0
M  V30 6964 C 638.718 1.38161 -1.59608 0
M  V30 6965 O 638.066 2.10791 -0.882021 0
M  V30 6966 C 638.276 -0.346684 -3.47274 0
M  V30 6967 C 639.624 -0.25249 -4.23849 0
M  V30 6968 O 640.648 -0.279332 -3.55103 0
M  V30 6969 O 639.507 -0.177584 -5.46211 0
M  V30 6970 H 636.601 0.0086829 -0.826954 0
M  V30 6971 H 639.147 -0.728189 -1.53282 0
M  V30 6972 H 637.919 -1.37296 -3.66423 0
M  V30 6973 H 637.542 0.315757 -3.96344 0
M  V30 6974 N 638.539 1.52521 -0.396863 0
M  V30 6975 C 639.469 2.29582 0.425941 0
M  V30 6976 C 640.45 1.33281 1.05689 0
M  V30 6977 O 641.635 1.62181 1.06823 0
M  V30 6978 C 638.765 3.10821 1.54943 0
M  V30 6979 C 637.719 4.15069 1.04413 0
M  V30 6980 C 637.045 4.84578 2.26028 0
M  V30 6981 C 638.345 5.22191 0.106767 0
M  V30 6982 H 640.039 2.98612 -0.217045 0
M  V30 6983 H 637.585 1.43611 -0.105826 0
M  V30 6984 H 639.538 3.63492 2.13193 0
M  V30 6985 H 638.262 2.39538 2.22011 0
M  V30 6986 H 636.921 3.63389 0.484118 0
M  V30 6987 H 636.569 4.09835 2.91623 0
M  V30 6988 H 636.269 5.55043 1.92876 0
M  V30 6989 H 637.793 5.40056 2.84906 0
M  V30 6990 H 639.207 5.70176 0.597685 0
M  V30 6991 H 637.604 5.99947 -0.135352 0
M  V30 6992 H 638.674 4.77531 -0.842134 0
M  V30 6993 N 640.017 0.126909 1.57088 0
M  V30 6994 C 641.428 -0.397201 1.82426 0
M  V30 6995 C 641.779 -1.66084 1.04453 0
M  V30 6996 O 640.904 -2.14534 0.283552 0
M  V30 6997 C 641.499 -0.727411 3.30899 0
M  V30 6998 C 640.058 -1.19612 3.56889 0
M  V30 6999 C 639.205 -0.20885 2.76512 0
M  V30 7000 H 642.156 0.351924 1.54749 0
M  V30 7001 H 642.177 -1.58407 3.45959 0
M  V30 7002 H 641.689 0.19247 3.87622 0
M  V30 7003 H 639.79 -2.13263 3.05532 0
M  V30 7004 H 639.903 -1.13598 4.65438 0
M  V30 7005 H 638.267 -0.697479 2.44964 0
M  V30 7006 H 639.05 0.704267 3.35998 0
M  V30 7007 N 641.495 -1.56914 -0.146875 0
M  V30 7008 C 642.425 -2.01308 -1.1831 0
M  V30 7009 C 643.406 -0.892664 -1.44795 0
M  V30 7010 O 644.591 -1.16048 -1.55713 0
M  V30 7011 C 641.721 -2.3938 -2.51624 0
M  V30 7012 C 640.675 -3.54608 -2.3966 0
M  V30 7013 C 640.001 -3.78493 -3.77686 0
M  V30 7014 C 641.301 -4.87269 -1.88058 0
M  V30 7015 H 642.995 -2.88123 -0.813964 0
M  V30 7016 H 640.541 -1.38615 -0.3901 0
M  V30 7017 H 642.494 -2.69037 -3.24341 0
M  V30 7018 H 641.218 -1.49502 -2.90373 0
M  V30 7019 H 639.877 -3.25116 -1.69396 0
M  V30 7020 H 639.525 -2.85866 -4.13871 0
M  V30 7021 H 639.225 -4.56039 -3.70543 0
M  V30 7022 H 640.749 -4.10576 -4.51951 0
M  V30 7023 H 642.163 -5.15644 -2.50568 0
M  V30 7024 H 640.56 -5.68622 -1.91805 0
M  V30 7025 H 641.63 -4.77634 -0.836277 0
M  V30 7026 N 642.974 0.416227 -1.52004 0
M  V30 7027 C 643.922 1.5272 -1.7544 0
M  V30 7028 C 644.916 1.57596 -0.621289 0
M  V30 7029 O 646.122 1.61087 -0.803172 0
M  V30 7030 H 642.497 0.507772 -0.554682 0
M  V30 7031 H 644.468 1.30136 -2.68528 0
M  V30 7032 C 643.217 2.90165 -1.91571 0
M  V30 7033 H 642.54 2.87154 -2.78178 0
M  V30 7034 H 643.98 3.67211 -2.11972 0
M  V30 7035 C 642.439 3.29947 -0.680942 0
M  V30 7036 O 642.969 4.01403 0.154527 0
M  V30 7037 N 641.175 2.8593 -0.518894 0
M  V30 7038 H 640.722 2.2795 -1.19986 0
M  V30 7039 H 640.68 3.12907 0.305985 0
M  V30 7040 N 644.452 1.42507 0.673017 0
M  V30 7041 C 645.698 1.43284 1.43519 0
M  V30 7042 C 646.031 0.049668 1.94136 0
M  V30 7043 O 645.306 -0.926369 1.71022 0
M  V30 7044 C 645.589 2.45874 2.63093 0
M  V30 7045 C 645.442 3.93388 2.18096 0
M  V30 7046 C 646.761 2.45431 3.6531 0
M  V30 7047 H 643.88 0.521752 0.520522 0
M  V30 7048 H 646.522 1.73932 0.764701 0
M  V30 7049 H 644.672 2.19869 3.20296 0
M  V30 7050 H 646.344 4.30379 1.66046 0
M  V30 7051 H 644.587 4.07169 1.49652 0
M  V30 7052 H 645.258 4.60752 3.03993 0
M  V30 7053 H 647.734 2.68561 3.17827 0
M  V30 7054 H 646.61 3.19189 4.46553 0
M  V30 7055 H 646.871 1.48092 4.16559 0
M  V30 7056 N 645.93 -0.909495 1.28709 0
M  V30 7057 C 647.155 -1.69801 1.1909 0
M  V30 7058 C 647.58 -1.86479 -0.246388 0
M  V30 7059 O 646.938 -1.37802 -1.17815 0
M  V30 7060 C 646.986 -3.06543 1.89904 0
M  V30 7061 O 646.09 -3.94268 1.2094 0
M  V30 7062 H 645.431 -0.519783 0.413185 0
M  V30 7063 H 647.961 -1.13689 1.70106 0
M  V30 7064 H 647.971 -3.56748 1.97977 0
M  V30 7065 H 646.646 -2.93722 2.94449 0
M  V30 7066 H 645.223 -3.52702 1.2106 0
M  V30 7067 N 647.408 -1.11026 -1.11852 0
M  V30 7068 C 648.824 -0.843294 -1.35502 0
M  V30 7069 C 649.024 0.534179 -1.9429 0
M  V30 7070 O 648.08 1.28585 -2.17307 0
M  V30 7071 C 649.393 -1.94793 -2.29077 0
M  V30 7072 C 650.941 -1.97709 -2.42652 0
M  V30 7073 C 651.416 -3.07364 -3.39546 0
M  V30 7074 N 652.907 -3.0671 -3.47107 0
M  V30 7075 C 653.642 -3.88197 -4.22008 0
M  V30 7076 N 653.138 -4.79635 -4.99922 0
M  V30 7077 N 654.931 -3.76391 -4.17476 0
M  V30 7078 H 647.082 -1.99805 -0.720538 0
M  V30 7079 H 649.345 -0.868633 -0.379711 0
M  V30 7080 H 649.051 -2.93971 -1.93065 0
M  V30 7081 H 648.925 -1.84039 -3.29256 0
M  V30 7082 H 651.312 -0.991604 -2.77941 0
M  V30 7083 H 651.393 -2.1254 -1.4234 0
M  V30 7084 H 651.037 -4.06136 -3.04985 0
M  V30 7085 H 650.967 -2.89774 -4.39703 0
M  V30 7086 H 653.458 -2.40457 -2.91528 0
M  V30 7087 H 653.771 -5.38357 -5.54429 0
M  V30 7088 H 652.116 -4.8366 -4.99097 0
M  V30 7089 H 655.307 -3.04303 -3.55693 0
M  V30 7090 H 655.48 -4.40131 -4.75593 0
M  V30 7091 N 648.886 1.2938 -0.899927 0
M  V30 7092 C 649.796 2.31462 -0.382437 0
M  V30 7093 C 650.812 1.65956 0.522929 0
M  V30 7094 O 651.988 1.97131 0.412454 0
M  V30 7095 C 649.053 3.44595 0.381472 0
M  V30 7096 C 648.114 4.25692 -0.555444 0
M  V30 7097 C 647.347 5.33422 0.172102 0
M  V30 7098 O 647.57 5.53053 1.396 0
M  V30 7099 O 646.504 5.99939 -0.485491 0
M  V30 7100 H 650.33 2.77706 -1.22934 0
M  V30 7101 H 647.915 1.33821 -0.664259 0
M  V30 7102 H 649.797 4.13474 0.813442 0
M  V30 7103 H 648.472 3.00458 1.20443 0
M  V30 7104 H 647.379 3.59453 -1.03653 0
M  V30 7105 H 648.712 4.73471 -1.34483 0
M  V30 7106 N 650.364 0.662433 1.43002 0
M  V30 7107 C 651.296 -0.062326 2.29115 0
M  V30 7108 C 652.309 -0.777926 1.43011 0
M  V30 7109 O 653.498 -0.634146 1.66856 0
M  V30 7110 C 650.598 -1.11163 3.2015 0
M  V30 7111 C 649.771 -0.472327 4.34842 0
M  V30 7112 C 648.83 -1.41974 5.06685 0
M  V30 7113 O 647.856 -0.924795 5.61637 0
M  V30 7114 N 649.058 -2.75345 5.11043 0
M  V30 7115 H 651.823 0.676838 2.91957 0
M  V30 7116 H 649.384 0.505907 1.53793 0
M  V30 7117 H 651.376 -1.74643 3.65078 0
M  V30 7118 H 649.946 -1.75266 2.58845 0
M  V30 7119 H 649.166 0.341751 3.92716 0
M  V30 7120 H 650.454 -0.0264381 5.08793 0
M  V30 7121 H 649.852 -3.18108 4.67786 0
M  V30 7122 H 648.409 -3.34105 5.59658 0
M  V30 7123 N 651.842 -1.52309 0.404946 0
M  V30 7124 C 652.772 -2.29805 -0.41376 0
M  V30 7125 C 653.753 -1.3384 -1.0498 0
M  V30 7126 O 654.938 -1.62745 -1.05961 0
M  V30 7127 C 652.068 -3.11639 -1.53292 0
M  V30 7128 C 651.022 -4.15616 -1.02211 0
M  V30 7129 C 650.348 -4.8577 -2.23455 0
M  V30 7130 C 651.648 -5.2224 -0.0790725 0
M  V30 7131 H 653.342 -2.98493 0.232878 0
M  V30 7132 H 650.888 -1.43552 0.113441 0
M  V30 7133 H 652.841 -3.64618 -2.11262 0
M  V30 7134 H 651.565 -2.40712 -2.20738 0
M  V30 7135 H 650.224 -3.63641 -0.46484 0
M  V30 7136 H 649.872 -4.11376 -2.89445 0
M  V30 7137 H 649.572 -5.56058 -1.89929 0
M  V30 7138 H 651.096 -5.4156 -2.82038 0
M  V30 7139 H 652.51 -5.70485 -0.567438 0
M  V30 7140 H 650.907 -5.99867 0.167167 0
M  V30 7141 H 651.977 -4.77078 0.867447 0
M  V30 7142 N 653.32 -0.135238 -1.57019 0
M  V30 7143 C 654.252 0.839675 -2.13265 0
M  V30 7144 C 655.265 1.21887 -1.07923 0
M  V30 7145 O 656.454 1.16499 -1.35241 0
M  V30 7146 C 653.554 2.13647 -2.63075 0
M  V30 7147 C 652.727 1.92646 -3.92691 0
M  V30 7148 C 651.786 3.06205 -4.27931 0
M  V30 7149 O 650.812 2.78409 -4.96465 0
M  V30 7150 N 652.014 4.33072 -3.86561 0
M  V30 7151 H 654.779 0.359026 -2.97542 0
M  V30 7152 H 652.34 0.0486979 -1.61827 0
M  V30 7153 H 654.332 2.88641 -2.8367 0
M  V30 7154 H 652.902 2.5301 -1.83588 0
M  V30 7155 H 652.122 1.01754 -3.80841 0
M  V30 7156 H 653.41 1.75939 -4.77413 0
M  V30 7157 H 652.808 4.58526 -3.31316 0
M  V30 7158 H 651.365 5.04885 -4.12231 0
M  V30 7159 N 654.798 1.5699 0.138552 0
M  V30 7160 C 655.73 1.95515 1.1961 0
M  V30 7161 C 656.743 0.852002 1.38726 0
M  V30 7162 O 657.932 1.13038 1.38147 0
M  V30 7163 C 655.032 2.2213 2.55952 0
M  V30 7164 C 654.205 3.53424 2.57702 0
M  V30 7165 C 653.264 3.6848 3.75645 0
M  V30 7166 O 652.29 4.4079 3.60129 0
M  V30 7167 N 653.492 3.05777 4.93438 0
M  V30 7168 H 656.257 2.86838 0.868557 0
M  V30 7169 H 653.818 1.58542 0.328033 0
M  V30 7170 H 655.81 2.29435 3.33379 0
M  V30 7171 H 654.38 1.3703 2.80965 0
M  V30 7172 H 653.6 3.57484 1.6613 0
M  V30 7173 H 654.888 4.39759 2.55909 0
M  V30 7174 H 654.286 2.46961 5.08947 0
M  V30 7175 H 652.843 3.18631 5.6861 0
M  V30 7176 N 656.276 -0.40816 1.52223 0
M  V30 7177 C 657.224 -1.51788 1.76248 0
M  V30 7178 C 658.218 -1.57264 0.629638 0
M  V30 7179 O 659.424 -1.60659 0.811704 0
M  V30 7180 H 655.799 -0.504823 0.557367 0
M  V30 7181 H 657.77 -1.2871 2.69214 0
M  V30 7182 C 656.519 -2.89145 1.93107 0
M  V30 7183 H 655.842 -2.85674 2.79697 0
M  V30 7184 H 657.282 -3.66082 2.13916 0
M  V30 7185 C 655.741 -3.29581 0.698431 0
M  V30 7186 O 656.271 -4.01479 -0.133238 0
M  V30 7187 N 654.477 -2.85651 0.53405 0
M  V30 7188 H 654.024 -2.2731 1.21194 0
M  V30 7189 H 653.982 -3.13065 -0.289387 0
M  V30 7190 N 657.755 -1.42862 -0.66545 0
M  V30 7191 C 658.702 -1.4707 -1.77874 0
M  V30 7192 C 659.672 -0.321654 -1.62956 0
M  V30 7193 O 660.857 -0.52707 -1.83376 0
M  V30 7194 C 657.997 -1.38788 -3.15962 0
M  V30 7195 C 657.11 -2.63801 -3.42101 0
M  V30 7196 C 656.245 -2.47594 -4.69969 0
M  V30 7197 C 655.284 -3.67936 -4.89172 0
M  V30 7198 N 654.421 -3.50614 -6.08288 0
M  V30 7199 H 659.261 -2.42204 -1.73613 0
M  V30 7200 H 656.798 -1.20239 -0.847401 0
M  V30 7201 H 658.756 -1.31982 -3.95773 0
M  V30 7202 H 657.386 -0.472431 -3.19324 0
M  V30 7203 H 656.438 -2.80935 -2.56475 0
M  V30 7204 H 657.75 -3.53228 -3.52181 0
M  V30 7205 H 656.904 -2.38427 -5.57886 0
M  V30 7206 H 655.643 -1.55672 -4.62188 0
M  V30 7207 H 654.648 -3.77525 -3.99694 0
M  V30 7208 H 655.873 -4.60851 -4.98792 0
M  V30 7209 H 653.819 -2.61417 -6.01662 0
M  V30 7210 H 653.736 -4.33634 -6.19272 0
M  V30 7211 H 655.004 -3.45276 -6.98859 0
M  V30 7212 N 659.233 0.902656 -1.29189 0
M  V30 7213 C 660.482 1.6475 -1.16362 0
M  V30 7214 C 660.795 1.93517 0.284682 0
M  V30 7215 O 662.001 2.66192 0.534229 0
M  V30 7216 C 660.457 2.96848 -2.03493 0
M  V30 7217 C 660.065 2.75687 -3.5313 0
M  V30 7218 C 661.809 3.74762 -1.99383 0
M  V30 7219 C 659.716 4.03492 -4.32375 0
M  V30 7220 H 658.646 0.618041 -0.431904 0
M  V30 7221 H 661.297 1.0008 -1.53806 0
M  V30 7222 H 659.679 3.62715 -1.58916 0
M  V30 7223 H 660.853 2.18431 -4.05739 0
M  V30 7224 H 659.168 2.11171 -3.58881 0
M  V30 7225 H 661.765 4.69515 -2.5585 0
M  V30 7226 H 662.108 4.04767 -0.973123 0
M  V30 7227 H 662.641 3.15732 -2.41988 0
M  V30 7228 H 659.38 3.78656 -5.3507 0
M  V30 7229 H 658.9 4.60318 -3.84535 0
M  V30 7230 H 660.579 4.71662 -4.42881 0
M  V30 7231 N 660.711 1.11618 1.11262 0
M  V30 7232 C 661.641 0.79846 2.19424 0
M  V30 7233 C 662.622 -0.234003 1.68483 0
M  V30 7234 O 663.807 -0.0970704 1.93957 0
M  V30 7235 C 660.937 0.242892 3.4645 0
M  V30 7236 C 659.891 1.20744 4.10615 0
M  V30 7237 C 659.217 0.512494 5.32238 0
M  V30 7238 C 660.517 2.55884 4.55325 0
M  V30 7239 H 662.211 1.70286 2.46258 0
M  V30 7240 H 659.757 0.820195 1.18359 0
M  V30 7241 H 661.71 0.00840447 4.21399 0
M  V30 7242 H 660.434 -0.696811 3.1908 0
M  V30 7243 H 659.093 1.42759 3.37662 0
M  V30 7244 H 658.741 -0.432075 5.01141 0
M  V30 7245 H 658.441 1.15583 5.7612 0
M  V30 7246 H 659.965 0.286842 6.09926 0
M  V30 7247 H 661.379 2.37946 5.21588 0
M  V30 7248 H 659.776 3.16216 5.10027 0
M  V30 7249 H 660.846 3.14968 3.68678 0
M  V30 7250 N 662.189 -1.289 0.906776 0
M  V30 7251 C 663.136 -2.2751 0.388313 0
M  V30 7252 C 664.106 -1.57301 -0.533439 0
M  V30 7253 O 665.291 -1.85243 -0.457148 0
M  V30 7254 C 662.431 -3.43091 -0.37181 0
M  V30 7255 C 661.544 -4.28066 0.581647 0
M  V30 7256 C 660.679 -5.30837 -0.19623 0
M  V30 7257 C 659.718 -6.07472 0.751294 0
M  V30 7258 N 658.855 -7.021 0.00737727 0
M  V30 7259 H 663.695 -2.71237 1.23428 0
M  V30 7260 H 661.232 -1.33397 0.619962 0
M  V30 7261 H 663.19 -4.08888 -0.828641 0
M  V30 7262 H 661.82 -3.00374 -1.18218 0
M  V30 7263 H 660.872 -3.62378 1.157 0
M  V30 7264 H 662.184 -4.81382 1.30665 0
M  V30 7265 H 661.338 -6.02485 -0.71394 0
M  V30 7266 H 660.077 -4.78272 -0.954324 0
M  V30 7267 H 659.082 -5.34682 1.28044 0
M  V30 7268 H 660.307 -6.62126 1.50883 0
M  V30 7269 H 658.253 -6.51894 -0.732854 0
M  V30 7270 H 658.17 -7.53004 0.672334 0
M  V30 7271 H 659.438 -7.77956 -0.490365 0
M  V30 7272 N 663.667 -0.670007 -1.42649 0
M  V30 7273 C 664.63 0.00204659 -2.292 0
M  V30 7274 C 665.63 0.733817 -1.4308 0
M  V30 7275 O 666.82 0.57254 -1.64522 0
M  V30 7276 C 663.952 1.01359 -3.25483 0
M  V30 7277 H 665.145 -0.759696 -2.90118 0
M  V30 7278 H 662.698 -0.432105 -1.50208 0
M  V30 7279 H 663.433 1.80399 -2.69493 0
M  V30 7280 H 663.218 0.492323 -3.88997 0
M  V30 7281 H 664.708 1.4824 -3.90403 0
M  V30 7282 N 665.145 1.52092 -0.413018 0
M  V30 7283 C 666.391 2.02154 0.161737 0
M  V30 7284 C 666.724 1.29789 1.44459 0
M  V30 7285 O 665.999 0.405378 1.90229 0
M  V30 7286 C 666.282 3.5781 0.405463 0
M  V30 7287 C 666.135 4.40819 -0.894335 0
M  V30 7288 C 667.454 4.23821 1.18591 0
M  V30 7289 H 664.573 0.734769 0.0573077 0
M  V30 7290 H 667.215 1.81948 -0.547247 0
M  V30 7291 H 665.365 3.75158 1.0094 0
M  V30 7292 H 667.037 4.35175 -1.53039 0
M  V30 7293 H 665.28 4.06877 -1.50444 0
M  V30 7294 H 665.951 5.47819 -0.678144 0
M  V30 7295 H 668.427 4.10596 0.674573 0
M  V30 7296 H 667.303 5.32663 1.3252 0
M  V30 7297 H 667.564 3.83038 2.20758 0
M  V30 7298 N 666.623 0.143563 1.56945 0
M  V30 7299 C 667.848 -0.518701 2.00809 0
M  V30 7300 C 668.273 -1.5785 1.02298 0
M  V30 7301 O 667.631 -1.813 -0.0017839 0
M  V30 7302 C 667.679 -1.09929 3.43436 0
M  V30 7303 O 666.783 -2.21425 3.47915 0
M  V30 7304 H 666.124 -0.127215 0.6517 0
M  V30 7305 H 668.654 0.239283 2.03196 0
M  V30 7306 H 668.664 -1.4288 3.82164 0
M  V30 7307 H 667.339 -0.323162 4.14643 0
M  V30 7308 H 665.916 -1.89728 3.21026 0
M  V30 7309 N 668.101 -1.57061 -0.130224 0
M  V30 7310 C 669.048 -1.99517 -1.16024 0
M  V30 7311 C 670.018 -0.865452 -1.41771 0
M  V30 7312 O 671.203 -1.12882 -1.53826 0
M  V30 7313 C 668.343 -2.3951 -2.48453 0
M  V30 7314 C 667.456 -3.65848 -2.29737 0
M  V30 7315 C 666.591 -3.9487 -3.55318 0
M  V30 7316 C 665.63 -5.14426 -3.31711 0
M  V30 7317 N 664.767 -5.39375 -4.49466 0
M  V30 7318 H 669.607 -2.87305 -0.791194 0
M  V30 7319 H 667.144 -1.42129 -0.379195 0
M  V30 7320 H 669.102 -2.60731 -3.25692 0
M  V30 7321 H 667.732 -1.54779 -2.83272 0
M  V30 7322 H 666.784 -3.52307 -1.4347 0
M  V30 7323 H 668.096 -4.53241 -2.08263 0
M  V30 7324 H 667.25 -4.16679 -4.4098 0
M  V30 7325 H 665.989 -3.05931 -3.79813 0
M  V30 7326 H 664.994 -4.92473 -2.44439 0
M  V30 7327 H 666.219 -6.04933 -3.08598 0
M  V30 7328 H 664.165 -4.53391 -4.74102 0
M  V30 7329 H 664.082 -6.21069 -4.31055 0
M  V30 7330 H 665.35 -5.65694 -5.36293 0
M  V30 7331 N 669.579 0.400081 -1.52437 0
M  V30 7332 C 670.995 0.739359 -1.41441 0
M  V30 7333 C 671.195 1.94512 -0.526053 0
M  V30 7334 O 670.251 2.525 0.00472502 0
M  V30 7335 C 671.564 0.984824 -2.84116 0
M  V30 7336 C 673.112 1.08698 -2.93519 0
M  V30 7337 C 673.587 1.36515 -4.37181 0
M  V30 7338 N 675.078 1.43361 -4.40457 0
M  V30 7339 C 675.813 1.66528 -5.48686 0
M  V30 7340 N 675.309 1.87239 -6.67018 0
M  V30 7341 N 677.102 1.68617 -5.36213 0
M  V30 7342 H 669.253 -0.393484 -2.08723 0
M  V30 7343 H 671.516 -0.1138 -0.941145 0
M  V30 7344 H 671.222 0.171096 -3.51284 0
M  V30 7345 H 671.096 1.90253 -3.25705 0
M  V30 7346 H 673.483 1.89129 -2.26526 0
M  V30 7347 H 673.564 0.147432 -2.55375 0
M  V30 7348 H 673.208 0.565982 -5.04737 0
M  V30 7349 H 673.138 2.31737 -4.7287 0
M  V30 7350 H 675.629 1.29108 -3.55161 0
M  V30 7351 H 675.942 2.04392 -7.45281 0
M  V30 7352 H 674.287 1.84486 -6.70067 0
M  V30 7353 H 677.478 1.5198 -4.42741 0
M  V30 7354 H 677.651 1.86332 -6.20632 0
M  V30 7355 N 671.057 1.43213 0.657864 0
M  V30 7356 C 672.306 1.43871 1.41365 0
M  V30 7357 C 672.619 0.064898 1.95492 0
M  V30 7358 O 673.825 -0.0510796 2.71452 0
M  V30 7359 C 672.281 2.53158 2.55811 0
M  V30 7360 C 671.889 3.96624 2.08311 0
M  V30 7361 C 673.633 2.63004 3.3321 0
M  V30 7362 C 671.54 4.97385 3.1994 0
M  V30 7363 H 670.47 0.535174 0.531136 0
M  V30 7364 H 673.121 1.69185 0.710543 0
M  V30 7365 H 671.503 2.21037 3.2857 0
M  V30 7366 H 672.677 4.38182 1.42593 0
M  V30 7367 H 670.992 3.90781 1.43804 0
M  V30 7368 H 673.589 3.3546 4.16378 0
M  V30 7369 H 673.932 1.67918 3.80932 0
M  V30 7370 H 674.465 2.94403 2.67529 0
M  V30 7371 H 671.204 5.94007 2.77192 0
M  V30 7372 H 670.724 4.60444 3.84385 0
M  V30 7373 H 672.403 5.19877 3.85145 0
M  V30 7374 N 672.536 -0.895792 1.29666 0
M  V30 7375 C 673.782 -1.64908 1.18039 0
M  V30 7376 C 674.115 -1.9236 -0.266682 0
M  V30 7377 O 673.39 -1.53682 -1.19214 0
M  V30 7378 C 673.673 -2.99574 1.99819 0
M  V30 7379 C 673.526 -2.79163 3.52687 0
M  V30 7380 C 674.845 -4.00358 1.82761 0
M  V30 7381 H 671.964 -0.598437 0.430165 0
M  V30 7382 H 674.606 -1.03736 1.59182 0
M  V30 7383 H 672.756 -3.51786 1.64859 0
M  V30 7384 H 674.428 -2.33821 3.9765 0
M  V30 7385 H 672.671 -2.13871 3.77414 0
M  V30 7386 H 673.342 -3.74871 4.05186 0
M  V30 7387 H 675.818 -3.57268 2.13304 0
M  V30 7388 H 674.694 -4.92514 2.42325 0
M  V30 7389 H 674.955 -4.35096 0.783839 0
M  V30 7390 N 674.014 -1.12206 -1.10668 0
M  V30 7391 C 675.43 -0.857619 -1.346 0
M  V30 7392 C 675.63 0.513542 -1.94846 0
M  V30 7393 O 674.686 1.26273 -2.18658 0
M  V30 7394 C 675.999 -1.97212 -2.26998 0
M  V30 7395 C 677.547 -2.00272 -2.40542 0
M  V30 7396 C 678.022 -3.10948 -3.36267 0
M  V30 7397 N 679.513 -3.10375 -3.43834 0
M  V30 7398 C 680.248 -3.92651 -4.17867 0
M  V30 7399 N 679.744 -4.84911 -4.94807 0
M  V30 7400 N 681.537 -3.80798 -4.1346 0
M  V30 7401 H 673.688 -2.00558 -0.699306 0
M  V30 7402 H 675.951 -0.872612 -0.370477 0
M  V30 7403 H 675.657 -2.96002 -1.89936 0
M  V30 7404 H 675.531 -1.87521 -3.27286 0
M  V30 7405 H 677.918 -1.02103 -2.76874 0
M  V30 7406 H 677.999 -2.14037 -1.40077 0
M  V30 7407 H 677.643 -4.09348 -3.00661 0
M  V30 7408 H 677.573 -2.94421 -4.36605 0
M  V30 7409 H 680.064 -2.43536 -2.88961 0
M  V30 7410 H 680.377 -5.44207 -5.48688 0
M  V30 7411 H 678.722 -4.88926 -4.93939 0
M  V30 7412 H 681.913 -3.08058 -3.52445 0
M  V30 7413 H 682.086 -4.4515 -4.70898 0
M  V30 7414 N 675.492 1.28418 -0.913599 0
M  V30 7415 C 676.439 2.27301 -0.400373 0
M  V30 7416 C 677.409 1.57582 0.52509 0
M  V30 7417 O 678.594 1.85482 0.447318 0
M  V30 7418 C 675.734 3.43284 0.35361 0
M  V30 7419 C 674.847 4.27752 -0.604341 0
M  V30 7420 C 673.982 5.30934 0.168075 0
M  V30 7421 C 673.021 6.07065 -0.783499 0
M  V30 7422 N 672.158 7.02086 -0.0446112 0
M  V30 7423 H 676.998 2.70579 -1.24865 0
M  V30 7424 H 674.535 1.33067 -0.627028 0
M  V30 7425 H 676.493 4.09322 0.806945 0
M  V30 7426 H 675.123 3.00997 1.16623 0
M  V30 7427 H 674.175 3.61759 -1.17621 0
M  V30 7428 H 675.487 4.80682 -1.33216 0
M  V30 7429 H 674.641 6.02855 0.681979 0
M  V30 7430 H 673.38 4.78771 0.928947 0
M  V30 7431 H 672.385 5.33995 -1.30878 0
M  V30 7432 H 673.61 6.61317 -1.54392 0
M  V30 7433 H 671.556 6.52273 0.698272 0
M  V30 7434 H 671.473 7.52637 -0.712258 0
M  V30 7435 H 672.741 7.78205 0.449102 0
M  V30 7436 N 676.97 0.677563 1.42291 0
M  V30 7437 C 678.219 0.198173 2.00724 0
M  V30 7438 C 678.532 -1.20325 1.54211 0
M  V30 7439 O 679.738 -1.77916 2.05081 0
M  V30 7440 C 678.194 0.303432 3.58619 0
M  V30 7441 C 677.802 1.70909 4.14119 0
M  V30 7442 C 679.546 -0.117103 4.24338 0
M  V30 7443 C 677.453 1.76696 5.64387 0
M  V30 7444 H 676.383 0.070329 0.750713 0
M  V30 7445 H 679.034 0.843147 1.62982 0
M  V30 7446 H 677.416 -0.409482 3.93877 0
M  V30 7447 H 678.59 2.44931 3.90315 0
M  V30 7448 H 676.905 2.07771 3.6086 0
M  V30 7449 H 679.502 -0.0940471 5.34617 0
M  V30 7450 H 679.845 -1.15283 4.00019 0
M  V30 7451 H 680.378 0.5449 3.9405 0
M  V30 7452 H 677.117 2.7826 5.93508 0
M  V30 7453 H 676.637 1.07034 5.90173 0
M  V30 7454 H 678.316 1.52166 6.28852 0
M  V30 7455 N 678.448 -1.51871 0.421078 0
M  V30 7456 C 679.378 -2.30231 -0.389363 0
M  V30 7457 C 680.359 -1.34946 -1.03555 0
M  V30 7458 O 681.544 -1.63859 -1.04229 0
M  V30 7459 C 678.674 -3.13247 -1.49979 0
M  V30 7460 C 677.628 -4.16677 -0.977966 0
M  V30 7461 C 676.954 -4.88112 -2.1829 0
M  V30 7462 C 678.254 -5.22295 -0.0236775 0
M  V30 7463 H 679.948 -2.98229 0.264524 0
M  V30 7464 H 677.494 -1.43424 0.12866 0
M  V30 7465 H 679.447 -3.66838 -2.07383 0
M  V30 7466 H 678.171 -2.4304 -2.18173 0
M  V30 7467 H 676.83 -3.64114 -0.426245 0
M  V30 7468 H 676.478 -4.14423 -2.85066 0
M  V30 7469 H 676.178 -5.58041 -1.84021 0
M  V30 7470 H 677.702 -5.44521 -2.76278 0
M  V30 7471 H 679.116 -5.71055 -0.506899 0
M  V30 7472 H 677.513 -5.99656 0.230782 0
M  V30 7473 H 678.583 -4.76131 0.917999 0
M  V30 7474 N 679.926 -0.151884 -1.56866 0
M  V30 7475 C 681.203 0.543328 -1.87902 0
M  V30 7476 C 681.583 1.82636 -1.05864 0
M  V30 7477 O 680.931 2.28028 -0.146868 0
M  V30 7478 C 681.141 0.804056 -3.39611 0
M  V30 7479 C 682.489 1.14267 -4.08935 0
M  V30 7480 O 683.513 0.893248 -3.44818 0
M  V30 7481 O 682.372 1.61229 -5.22176 0
M  V30 7482 H 679.466 0.277724 -0.778973 0
M  V30 7483 H 682.012 -0.188862 -1.68646 0
M  V30 7484 H 680.784 -0.103772 -3.91162 0
M  V30 7485 H 680.407 1.59025 -3.64413 0
M  V30 7486 N 681.404 1.57128 0.121893 0
M  V30 7487 C 682.632 1.88883 0.844451 0
M  V30 7488 C 683.047 0.742824 1.73573 0
M  V30 7489 O 682.404 -0.286475 1.80238 0
M  V30 7490 C 682.455 3.20076 1.68029 0
M  V30 7491 O 682.176 4.30264 0.824898 0
M  V30 7492 C 683.677 3.65515 2.50826 0
M  V30 7493 H 680.897 0.62549 0.242907 0
M  V30 7494 H 683.441 2.04219 0.107151 0
M  V30 7495 H 681.596 3.06418 2.37038 0
M  V30 7496 H 682.01 5.05439 1.40113 0
M  V30 7497 H 683.484 4.60081 3.05008 0
M  V30 7498 H 683.961 2.92029 3.28048 0
M  V30 7499 H 684.567 3.81952 1.87064 0
M  V30 7500 N 682.882 -0.391992 1.52647 0
M  V30 7501 C 684.129 -1.13732 1.67545 0
M  V30 7502 C 684.457 -1.90045 0.413881 0
M  V30 7503 O 683.712 -1.86157 -0.603646 0
M  V30 7504 C 684.011 -2.14401 2.85949 0
M  V30 7505 C 683.677 -1.54767 4.23507 0
M  V30 7506 C 682.339 -1.38229 4.60919 0
M  V30 7507 C 684.691 -1.11382 5.0916 0
M  V30 7508 C 682.019 -0.7685 5.81645 0
M  V30 7509 C 684.371 -0.514143 6.30507 0
M  V30 7510 C 683.035 -0.33604 6.66654 0
M  V30 7511 H 682.305 -0.416174 0.613091 0
M  V30 7512 H 684.952 -0.422327 1.86785 0
M  V30 7513 H 683.257 -2.92108 2.61114 0
M  V30 7514 H 684.954 -2.71974 2.94671 0
M  V30 7515 H 681.544 -1.68626 3.94035 0
M  V30 7516 H 685.728 -1.22962 4.80826 0
M  V30 7517 H 680.984 -0.618681 6.08262 0
M  V30 7518 H 685.158 -0.169657 6.96193 0
M  V30 7519 H 682.785 0.14166 7.60068 0
M  V30 7520 N 684.36 -1.4356 -0.65026 0
M  V30 7521 C 685.31 -1.45392 -1.75628 0
M  V30 7522 C 686.294 -0.322006 -1.57645 0
M  V30 7523 O 687.486 -0.565996 -1.67707 0
M  V30 7524 C 684.615 -1.38254 -3.1423 0
M  V30 7525 C 683.701 -2.56487 -3.3775 0
M  V30 7526 N 684.092 -3.81824 -3.31729 0
M  V30 7527 C 682.39 -2.51274 -3.6848 0
M  V30 7528 C 683.091 -4.60497 -3.55412 0
M  V30 7529 N 682.067 -3.91274 -3.77367 0
M  V30 7530 H 685.869 -2.40167 -1.69402 0
M  V30 7531 H 683.383 -1.38254 -0.852037 0
M  V30 7532 H 685.38 -1.3765 -3.9352 0
M  V30 7533 H 684.04 -0.445019 -3.21636 0
M  V30 7534 H 685.051 -4.14069 -3.11074 0
M  V30 7535 H 681.728 -1.66223 -3.82983 0
M  V30 7536 H 683.118 -5.69518 -3.5651 0
M  V30 7537 N 685.838 0.888903 -1.30139 0
M  V30 7538 C 686.785 1.99422 -1.16188 0
M  V30 7539 C 687.755 1.66017 -0.0523869 0
M  V30 7540 O 688.94 1.89506 -0.221864 0
M  V30 7541 C 686.08 3.34325 -0.855612 0
M  V30 7542 C 685.193 3.80445 -2.0466 0
M  V30 7543 C 684.328 5.03975 -1.67876 0
M  V30 7544 C 683.367 5.42492 -2.83493 0
M  V30 7545 N 682.504 6.57206 -2.47032 0
M  V30 7546 H 687.344 2.10687 -2.10749 0
M  V30 7547 H 684.881 1.03165 -1.04859 0
M  V30 7548 H 686.839 4.11968 -0.658681 0
M  V30 7549 H 685.469 3.22756 0.0531155 0
M  V30 7550 H 684.521 2.98745 -2.3549 0
M  V30 7551 H 685.833 4.04933 -2.91257 0
M  V30 7552 H 684.987 5.89232 -1.44535 0
M  V30 7553 H 683.726 4.8135 -0.784431 0
M  V30 7554 H 682.731 4.55764 -3.07505 0
M  V30 7555 H 683.956 5.67093 -3.73607 0
M  V30 7556 H 681.902 6.36164 -1.601 0
M  V30 7557 H 681.819 6.81543 -3.27161 0
M  V30 7558 H 683.087 7.45704 -2.27038 0
M  V30 7559 N 687.317 1.12792 1.10072 0
M  V30 7560 C 688.247 0.821688 2.18565 0
M  V30 7561 C 689.228 -0.21612 1.68721 0
M  V30 7562 O 690.413 -0.0764932 1.94049 0
M  V30 7563 C 687.543 0.279624 3.46172 0
M  V30 7564 C 686.497 1.25092 4.09312 0
M  V30 7565 C 685.823 0.568916 5.31665 0
M  V30 7566 C 687.123 2.60699 4.52585 0
M  V30 7567 H 688.817 1.72888 2.44438 0
M  V30 7568 H 686.363 0.832702 1.17482 0
M  V30 7569 H 688.316 0.053099 4.21367 0
M  V30 7570 H 687.04 -0.662929 3.19801 0
M  V30 7571 H 685.699 1.46332 3.36129 0
M  V30 7572 H 685.347 -0.378898 5.01571 0
M  V30 7573 H 685.047 1.21687 5.74862 0
M  V30 7574 H 686.571 0.351517 6.09587 0
M  V30 7575 H 687.985 2.43465 5.19035 0
M  V30 7576 H 686.382 3.21608 5.06644 0
M  V30 7577 H 687.452 3.1886 3.65317 0
M  V30 7578 N 688.795 -1.27931 0.920396 0
M  V30 7579 C 690.025 -1.98516 0.572256 0
M  V30 7580 C 690.433 -1.68912 -0.852375 0
M  V30 7581 O 689.776 -0.94203 -1.57707 0
M  V30 7582 C 689.838 -3.5243 0.709485 0
M  V30 7583 C 689.502 -4.0564 2.10489 0
M  V30 7584 C 690.499 -4.1897 3.07831 0
M  V30 7585 C 688.184 -4.40168 2.41986 0
M  V30 7586 C 690.178 -4.66093 4.34783 0
M  V30 7587 C 687.865 -4.86983 3.69176 0
M  V30 7588 C 688.863 -4.99903 4.65388 0
M  V30 7589 O 688.551 -5.45694 5.90316 0
M  V30 7590 H 688.283 -0.64047 0.216274 0
M  V30 7591 H 690.837 -1.6393 1.23758 0
M  V30 7592 H 689.067 -3.86698 -0.0129263 0
M  V30 7593 H 690.756 -4.04233 0.367474 0
M  V30 7594 H 691.522 -3.92562 2.84816 0
M  V30 7595 H 687.401 -4.29358 1.67846 0
M  V30 7596 H 690.945 -4.76092 5.09884 0
M  V30 7597 H 686.842 -5.12832 3.92012 0
M  V30 7598 H 687.61 -5.63965 5.932 0
M  V30 7599 N 690.273 -0.685099 -1.4193 0
M  V30 7600 C 691.22 -0.0131869 -2.30796 0
M  V30 7601 C 692.19 0.782129 -1.46533 0
M  V30 7602 O 693.375 0.75229 -1.75343 0
M  V30 7603 C 690.515 0.924768 -3.32479 0
M  V30 7604 C 689.628 0.122181 -4.31827 0
M  V30 7605 C 688.763 1.05682 -5.20581 0
M  V30 7606 C 687.802 0.246526 -6.11603 0
M  V30 7607 N 686.939 1.13442 -6.92875 0
M  V30 7608 H 691.779 -0.776789 -2.87698 0
M  V30 7609 H 689.316 -0.394791 -1.41703 0
M  V30 7610 H 691.274 1.48251 -3.89971 0
M  V30 7611 H 689.904 1.65488 -2.77152 0
M  V30 7612 H 688.956 -0.552335 -3.76369 0
M  V30 7613 H 690.268 -0.506473 -4.96222 0
M  V30 7614 H 689.422 1.68415 -5.82856 0
M  V30 7615 H 688.161 1.71935 -4.56388 0
M  V30 7616 H 687.166 -0.393944 -5.48387 0
M  V30 7617 H 688.391 -0.412053 -6.77849 0
M  V30 7618 H 686.337 1.78316 -6.313 0
M  V30 7619 H 686.254 0.561089 -7.53915 0
M  V30 7620 H 687.522 1.74889 -7.59628 0
M  V30 7621 N 691.751 1.51645 -0.429126 0
M  V30 7622 C 692.661 2.31288 0.392809 0
M  V30 7623 C 693.677 1.39852 1.03525 0
M  V30 7624 O 694.853 1.72926 1.03241 0
M  V30 7625 C 691.918 3.13347 1.48372 0
M  V30 7626 C 690.979 4.20551 0.862268 0
M  V30 7627 C 690.212 4.98688 1.9012 0
M  V30 7628 O 690.435 4.77359 3.12225 0
M  V30 7629 O 689.369 5.83005 1.4963 0
M  V30 7630 H 693.195 3.02609 -0.257138 0
M  V30 7631 H 690.78 1.48163 -0.191851 0
M  V30 7632 H 692.662 3.64387 2.1166 0
M  V30 7633 H 691.337 2.44799 2.1179 0
M  V30 7634 H 690.244 3.73609 0.191568 0
M  V30 7635 H 691.577 4.91449 0.271704 0
M  V30 7636 N 693.229 0.160201 1.56784 0
M  V30 7637 C 694.477 -0.486625 1.96154 0
M  V30 7638 C 694.798 -1.64525 1.04673 0
M  V30 7639 O 694.068 -1.95586 0.110864 0
M  V30 7640 H 692.648 -0.182764 0.724297 0
M  V30 7641 H 695.31 0.238787 1.93432 0
M  V30 7642 H 694.406 -0.854025 3.00188 0
M  V30 7643 N 694.707 -1.5719 -0.113559 0
M  V30 7644 C 695.654 -2.00736 -1.13901 0
M  V30 7645 C 696.624 -0.88044 -1.40846 0
M  V30 7646 O 697.809 -1.14507 -1.5262 0
M  V30 7647 C 694.949 -2.42132 -2.45899 0
M  V30 7648 C 694.062 -3.68264 -2.25844 0
M  V30 7649 C 693.197 -3.98617 -3.5111 0
M  V30 7650 C 692.236 -5.17915 -3.26236 0
M  V30 7651 N 691.373 -5.44111 -4.4372 0
M  V30 7652 H 696.213 -2.88128 -0.760677 0
M  V30 7653 H 693.75 -1.42523 -0.364099 0
M  V30 7654 H 695.708 -2.6417 -3.22908 0
M  V30 7655 H 694.338 -1.57775 -2.81615 0
M  V30 7656 H 693.39 -3.53809 -1.39726 0
M  V30 7657 H 694.702 -4.55425 -2.03444 0
M  V30 7658 H 693.856 -4.21333 -4.36536 0
M  V30 7659 H 692.595 -3.09942 -3.76546 0
M  V30 7660 H 691.6 -4.95038 -2.39202 0
M  V30 7661 H 692.825 -6.08172 -3.02165 0
M  V30 7662 H 690.771 -4.58394 -4.69266 0
M  V30 7663 H 690.688 -6.25606 -4.24444 0
M  V30 7664 H 691.956 -5.71351 -5.30263 0
M  V30 7665 N 696.185 0.383891 -1.52853 0
M  V30 7666 C 697.132 1.46924 -1.77995 0
M  V30 7667 C 698.102 1.53958 -0.623396 0
M  V30 7668 O 699.287 1.70134 -0.863657 0
M  V30 7669 C 696.427 2.84093 -1.95921 0
M  V30 7670 C 695.54 2.86171 -3.23621 0
M  V30 7671 C 694.675 4.14799 -3.31836 0
M  V30 7672 C 693.714 4.10948 -4.53639 0
M  V30 7673 N 692.851 5.31192 -4.59107 0
M  V30 7674 H 697.691 1.24786 -2.70615 0
M  V30 7675 H 695.228 0.605265 -1.34071 0
M  V30 7676 H 697.186 3.63755 -2.04299 0
M  V30 7677 H 695.816 3.04671 -1.06656 0
M  V30 7678 H 694.868 1.9885 -3.24288 0
M  V30 7679 H 696.18 2.79194 -4.13343 0
M  V30 7680 H 695.334 5.02867 -3.39425 0
M  V30 7681 H 694.073 4.24505 -2.40097 0
M  V30 7682 H 693.078 3.21268 -4.46169 0
M  V30 7683 H 694.303 4.0286 -5.467 0
M  V30 7684 H 692.249 5.41518 -3.70262 0
M  V30 7685 H 692.166 5.26311 -5.42708 0
M  V30 7686 H 693.434 6.21143 -4.70958 0
M  V30 7687 N 697.663 1.43903 0.642637 0
M  V30 7688 C 698.611 1.50164 1.77634 0
M  V30 7689 C 699.605 0.374294 1.65213 0
M  V30 7690 O 700.811 0.548748 1.71431 0
M  V30 7691 H 697.186 0.470974 0.586249 0
M  V30 7692 H 699.157 2.45603 1.69474 0
M  V30 7693 C 697.906 1.45196 3.15933 0
M  V30 7694 H 697.229 2.31253 3.26132 0
M  V30 7695 H 698.669 1.53638 3.95185 0
M  V30 7696 C 697.128 0.171043 3.36466 0
M  V30 7697 O 697.658 -0.763413 3.94379 0
M  V30 7698 N 695.864 0.077847 2.90496 0
M  V30 7699 H 695.411 0.8391 2.43551 0
M  V30 7700 H 695.369 -0.778473 3.0461 0
M  V30 7701 N 699.141 -0.881989 1.30609 0
M  V30 7702 C 700.088 -1.98803 1.17244 0
M  V30 7703 C 701.058 -1.65987 0.0611905 0
M  V30 7704 O 702.243 -1.89385 0.231911 0
M  V30 7705 C 699.383 -3.33867 0.87333 0
M  V30 7706 C 698.496 -3.79354 2.06675 0
M  V30 7707 C 697.631 -5.03078 1.70547 0
M  V30 7708 C 696.67 -5.40981 2.86366 0
M  V30 7709 N 695.807 -6.55886 2.50514 0
M  V30 7710 H 700.647 -2.09566 2.11863 0
M  V30 7711 H 698.184 -1.02607 1.05405 0
M  V30 7712 H 700.142 -4.11612 0.680519 0
M  V30 7713 H 698.772 -3.2278 -0.0359983 0
M  V30 7714 H 697.824 -2.97492 2.37071 0
M  V30 7715 H 699.136 -4.03382 2.93401 0
M  V30 7716 H 698.29 -5.88457 1.47658 0
M  V30 7717 H 697.029 -4.80927 0.809947 0
M  V30 7718 H 696.034 -4.54127 3.09917 0
M  V30 7719 H 697.259 -5.65104 3.76609 0
M  V30 7720 H 695.205 -6.35306 1.63471 0
M  V30 7721 H 695.122 -6.79799 3.30771 0
M  V30 7722 H 696.39 -7.44489 2.30989 0
M  V30 7723 N 700.619 -1.13374 -1.09472 0
M  V30 7724 C 701.529 -0.824029 -2.19652 0
M  V30 7725 C 702.545 0.19118 -1.72947 0
M  V30 7726 O 703.721 0.0223464 -2.01388 0
M  V30 7727 C 700.786 -0.294009 -3.45451 0
M  V30 7728 C 699.847 -1.3704 -4.0684 0
M  V30 7729 C 699.08 -0.86558 -5.26634 0
M  V30 7730 O 699.303 0.29702 -5.69626 0
M  V30 7731 O 698.237 -1.63968 -5.79136 0
M  V30 7732 H 702.063 -1.74454 -2.48595 0
M  V30 7733 H 699.648 -0.911155 -1.18399 0
M  V30 7734 H 701.53 -0.00381039 -4.214 0
M  V30 7735 H 700.205 0.598921 -3.18111 0
M  V30 7736 H 699.112 -1.71391 -3.3253 0
M  V30 7737 H 700.445 -2.23746 -4.38405 0
M  V30 7738 N 702.098 1.27442 -0.927168 0
M  V30 7739 C 703.326 1.98498 -0.583622 0
M  V30 7740 C 703.741 1.69171 0.838241 0
M  V30 7741 O 703.098 0.951969 1.55704 0
M  V30 7742 C 703.149 3.52552 -0.799341 0
M  V30 7743 O 702.87 3.80851 -2.16527 0
M  V30 7744 C 704.371 4.4086 -0.464436 0
M  V30 7745 H 701.591 0.633487 -0.221213 0
M  V30 7746 H 704.135 1.62308 -1.24404 0
M  V30 7747 H 702.29 3.86955 -0.185728 0
M  V30 7748 H 702.704 4.75441 -2.21487 0
M  V30 7749 H 704.178 5.47967 -0.666075 0
M  V30 7750 H 704.655 4.35082 0.599995 0
M  V30 7751 H 705.261 4.11977 -1.05617 0
M  V30 7752 N 703.576 0.692616 1.41565 0
M  V30 7753 C 704.506 0.0397325 2.33466 0
M  V30 7754 C 705.487 -0.770334 1.51657 0
M  V30 7755 O 706.672 -0.723903 1.80203 0
M  V30 7756 C 703.802 -0.899495 3.3545 0
M  V30 7757 C 702.756 -0.196738 4.27548 0
M  V30 7758 C 702.082 -1.25012 5.19881 0
M  V30 7759 C 703.382 0.935158 5.1386 0
M  V30 7760 H 705.076 0.807296 2.88311 0
M  V30 7761 H 702.622 0.389665 1.38628 0
M  V30 7762 H 704.575 -1.36545 3.98665 0
M  V30 7763 H 703.299 -1.69869 2.78948 0
M  V30 7764 H 701.958 0.249158 3.65752 0
M  V30 7765 H 701.606 -2.04177 4.59696 0
M  V30 7766 H 701.306 -0.784931 5.82334 0
M  V30 7767 H 702.83 -1.71665 5.85972 0
M  V30 7768 H 704.244 0.549619 5.70659 0
M  V30 7769 H 702.641 1.32726 5.85238 0
M  V30 7770 H 703.711 1.77613 4.512 0
M  V30 7771 N 705.054 -1.51416 0.437162 0
M  V30 7772 C 706.47 -1.59349 0.0894459 0
M  V30 7773 C 706.67 -1.44809 -1.40116 0
M  V30 7774 O 705.726 -1.28924 -2.17106 0
M  V30 7775 C 707.039 -2.9446 0.609398 0
M  V30 7776 C 708.587 -3.07769 0.569824 0
M  V30 7777 C 709.062 -4.45404 1.06675 0
M  V30 7778 N 710.553 -4.51723 1.02473 0
M  V30 7779 C 711.288 -5.56544 1.3801 0
M  V30 7780 N 710.784 -6.68784 1.80831 0
M  V30 7781 N 712.577 -5.46901 1.29828 0
M  V30 7782 H 704.728 -1.59112 1.40703 0
M  V30 7783 H 706.991 -0.750031 0.579791 0
M  V30 7784 H 706.697 -3.1047 1.65231 0
M  V30 7785 H 706.571 -3.77184 0.0342236 0
M  V30 7786 H 708.958 -2.91428 -0.464107 0
M  V30 7787 H 709.039 -2.26885 1.1814 0
M  V30 7788 H 708.683 -4.62492 2.09914 0
M  V30 7789 H 708.613 -5.24827 0.431712 0
M  V30 7790 H 711.104 -3.71165 0.710258 0
M  V30 7791 H 711.417 -7.44787 2.06185 0
M  V30 7792 H 709.762 -6.69992 1.84757 0
M  V30 7793 H 712.953 -4.581 0.962397 0
M  V30 7794 H 713.126 -6.2848 1.57851 0
M  V30 7795 N 706.532 -0.168513 -1.56696 0
M  V30 7796 C 707.757 0.486688 -2.01609 0
M  V30 7797 C 708.182 1.56203 -1.04796 0
M  V30 7798 O 707.54 1.8128 -0.0270596 0
M  V30 7799 C 707.588 1.04451 -3.45141 0
M  V30 7800 O 706.692 2.15862 -3.51393 0
M  V30 7801 H 706.033 0.116831 -0.653641 0
M  V30 7802 H 708.563 -0.271579 -2.0279 0
M  V30 7803 H 708.573 1.36782 -3.84389 0
M  V30 7804 H 707.248 0.257155 -4.15104 0
M  V30 7805 H 705.825 1.84597 -3.24004 0
M  V30 7806 N 708.01 1.57248 0.105221 0
M  V30 7807 C 708.92 2.04653 1.14693 0
M  V30 7808 C 709.936 0.969488 1.44489 0
M  V30 7809 O 711.112 1.28196 1.55331 0
M  V30 7810 C 708.177 2.45297 2.45011 0
M  V30 7811 C 707.238 3.67148 2.22489 0
M  V30 7812 C 706.471 4.05844 3.46592 0
M  V30 7813 O 706.694 3.44736 4.54437 0
M  V30 7814 O 705.628 4.98862 3.36779 0
M  V30 7815 H 709.454 2.93663 0.774336 0
M  V30 7816 H 707.039 1.45998 0.31701 0
M  V30 7817 H 708.921 2.72112 3.21766 0
M  V30 7818 H 707.596 1.59429 2.81717 0
M  V30 7819 H 706.503 3.45463 1.43547 0
M  V30 7820 H 707.836 4.53764 1.9068 0
M  V30 7821 N 709.488 -0.375779 1.53054 0
M  V30 7822 C 710.418 -1.46598 1.81745 0
M  V30 7823 C 711.399 -1.56337 0.670286 0
M  V30 7824 O 712.584 -1.71071 0.919158 0
M  V30 7825 C 709.714 -2.84058 1.99821 0
M  V30 7826 C 708.668 -2.8915 3.15557 0
M  V30 7827 C 707.994 -4.29187 3.18908 0
M  V30 7828 C 709.294 -2.57595 4.54359 0
M  V30 7829 H 710.988 -1.22837 2.73041 0
M  V30 7830 H 708.534 -0.589485 1.31381 0
M  V30 7831 H 710.487 -3.60342 2.18475 0
M  V30 7832 H 709.211 -3.09184 1.05226 0
M  V30 7833 H 707.87 -2.15316 2.96706 0
M  V30 7834 H 707.518 -4.51374 2.2197 0
M  V30 7835 H 707.218 -4.33512 3.96662 0
M  V30 7836 H 708.742 -5.07359 3.39734 0
M  V30 7837 H 710.156 -3.23595 4.73243 0
M  V30 7838 H 708.553 -2.73252 5.34279 0
M  V30 7839 H 709.623 -1.52882 4.60169 0
M  V30 7840 N 710.966 -1.44241 -0.634997 0
M  V30 7841 C 711.876 -1.53293 -1.77591 0
M  V30 7842 C 712.892 -0.418831 -1.68884 0
M  V30 7843 O 714.068 -0.675619 -1.8973 0
M  V30 7844 C 711.133 -1.47075 -3.13958 0
M  V30 7845 C 710.194 -2.69304 -3.34326 0
M  V30 7846 C 709.427 -2.63374 -4.64187 0
M  V30 7847 O 709.65 -1.69161 -5.44739 0
M  V30 7848 O 708.584 -3.54166 -4.86673 0
M  V30 7849 H 712.41 -2.49673 -1.72908 0
M  V30 7850 H 709.995 -1.26445 -0.795745 0
M  V30 7851 H 711.877 -1.46117 -3.95257 0
M  V30 7852 H 710.552 -0.538373 -3.19192 0
M  V30 7853 H 709.459 -2.75831 -2.52721 0
M  V30 7854 H 710.792 -3.61576 -3.33951 0
M  V30 7855 N 712.444 0.87505 -1.31075 0
M  V30 7856 C 713.392 2.00317 -1.18219 0
M  V30 7857 C 714.386 1.69152 -0.0916872 0
M  V30 7858 O 715.592 1.7821 -0.253229 0
M  V30 7859 H 711.967 0.656981 -0.365895 0
M  V30 7860 H 713.938 2.08293 -2.13674 0
M  V30 7861 C 712.687 3.35821 -0.901095 0
M  V30 7862 H 712.01 3.6032 -1.73233 0
M  V30 7863 H 713.45 4.15366 -0.851295 0
M  V30 7864 C 711.909 3.34563 0.396114 0
M  V30 7865 O 712.439 3.75971 1.41452 0
M  V30 7866 N 710.645 2.87681 0.410832 0
M  V30 7867 H 710.192 2.54179 -0.418415 0
M  V30 7868 H 710.15 2.87223 1.27869 0
M  V30 7869 N 713.922 1.13953 1.08869 0
M  V30 7870 C 714.832 0.835666 2.19212 0
M  V30 7871 C 715.848 -0.182005 1.73045 0
M  V30 7872 O 717.024 -0.0116661 2.01397 0
M  V30 7873 C 714.089 0.312325 3.4529 0
M  V30 7874 C 713.15 1.39196 4.06107 0
M  V30 7875 C 712.383 0.893496 5.26168 0
M  V30 7876 O 712.606 -0.266807 5.69776 0
M  V30 7877 O 711.54 1.67037 5.78258 0
M  V30 7878 H 715.366 1.75769 2.47667 0
M  V30 7879 H 712.951 0.917421 1.17914 0
M  V30 7880 H 714.833 0.0261582 4.21392 0
M  V30 7881 H 713.508 -0.582042 3.18424 0
M  V30 7882 H 712.415 1.73152 3.31616 0
M  V30 7883 H 713.748 2.26068 4.37212 0
M  V30 7884 N 715.4 -1.26948 0.933913 0
M  V30 7885 C 716.628 -1.98186 0.59414 0
M  V30 7886 C 717.043 -1.69614 -0.829257 0
M  V30 7887 O 716.4 -0.960213 -1.55197 0
M  V30 7888 C 716.451 -3.52123 0.818026 0
M  V30 7889 O 716.172 -3.79698 2.18543 0
M  V30 7890 C 717.673 -4.40608 0.48781 0
M  V30 7891 H 714.893 -0.632305 0.224569 0
M  V30 7892 H 717.437 -1.61646 1.25263 0
M  V30 7893 H 715.592 -3.86851 0.206246 0
M  V30 7894 H 716.006 -4.7426 2.24005 0
M  V30 7895 H 717.48 -5.47606 0.695126 0
M  V30 7896 H 717.957 -4.35394 -0.576913 0
M  V30 7897 H 718.563 -4.11411 1.078 0
M  V30 7898 N 716.879 -0.700114 -1.41195 0
M  V30 7899 C 718.156 -0.160836 -1.94938 0
M  V30 7900 C 718.536 1.33014 -1.63922 0
M  V30 7901 O 717.884 2.07878 -0.948636 0
M  V30 7902 C 718.094 -0.456991 -3.45995 0
M  V30 7903 C 719.442 -0.387207 -4.22831 0
M  V30 7904 O 720.466 -0.392164 -3.54035 0
M  V30 7905 O 719.325 -0.351267 -5.4537 0
M  V30 7906 H 716.419 -0.0176304 -0.826812 0
M  V30 7907 H 718.965 -0.776586 -1.50888 0
M  V30 7908 H 717.737 -1.48884 -3.61869 0
M  V30 7909 H 717.36 0.189503 -3.97148 0
M  V30 7910 N 718.357 1.51182 -0.445186 0
M  V30 7911 C 719.267 2.31692 0.368255 0
M  V30 7912 C 720.283 1.40942 1.02036 0
M  V30 7913 O 721.459 1.74011 1.01401 0
M  V30 7914 C 718.524 3.14903 1.45041 0
M  V30 7915 C 717.585 4.21442 0.817615 0
M  V30 7916 C 716.818 5.00677 1.8482 0
M  V30 7917 O 717.041 4.80644 3.07145 0
M  V30 7918 O 715.975 5.84559 1.43438 0
M  V30 7919 H 719.801 3.0232 -0.289219 0
M  V30 7920 H 717.386 1.47951 -0.207555 0
M  V30 7921 H 719.268 3.66612 2.07783 0
M  V30 7922 H 717.943 2.47031 2.09182 0
M  V30 7923 H 716.85 3.73791 0.151931 0
M  V30 7924 H 718.183 4.9171 0.219564 0
M  V30 7925 N 719.835 0.176821 1.56605 0
M  V30 7926 C 720.745 -0.763682 2.21822 0
M  V30 7927 C 721.761 -1.24889 1.21156 0
M  V30 7928 O 722.937 -1.29987 1.53836 0
M  V30 7929 C 720.002 -1.97352 2.8505 0
M  V30 7930 C 719.063 -1.53466 4.00932 0
M  V30 7931 C 718.296 -2.68682 4.61135 0
M  V30 7932 O 718.519 -3.85694 4.20234 0
M  V30 7933 O 717.453 -2.42442 5.50913 0
M  V30 7934 H 721.279 -0.238363 3.02763 0
M  V30 7935 H 718.864 -0.0516331 1.49311 0
M  V30 7936 H 720.746 -2.68096 3.25119 0
M  V30 7937 H 719.421 -2.48779 2.07101 0
M  V30 7938 H 718.328 -0.796551 3.65521 0
M  V30 7939 H 719.661 -1.06724 4.8049 0
M  V30 7940 N 721.313 -1.57302 -0.09688 0
M  V30 7941 C 722.26 -2.01933 -1.11766 0
M  V30 7942 C 723.23 -0.895329 -1.39904 0
M  V30 7943 O 724.415 -1.16119 -1.51397 0
M  V30 7944 C 721.555 -2.44726 -2.43317 0
M  V30 7945 C 720.668 -3.70639 -2.21925 0
M  V30 7946 C 719.803 -4.02318 -3.46862 0
M  V30 7947 C 718.842 -5.21346 -3.20725 0
M  V30 7948 N 717.979 -5.48787 -4.37924 0
M  V30 7949 H 722.819 -2.88919 -0.730075 0
M  V30 7950 H 720.356 -1.42901 -0.348962 0
M  V30 7951 H 722.314 -2.6758 -3.20088 0
M  V30 7952 H 720.944 -1.60753 -2.79926 0
M  V30 7953 H 719.996 -3.55271 -1.35965 0
M  V30 7954 H 721.308 -4.57557 -1.98603 0
M  V30 7955 H 720.462 -4.25939 -4.32042 0
M  V30 7956 H 719.201 -3.13918 -3.73238 0
M  V30 7957 H 718.206 -4.97547 -2.33938 0
M  V30 7958 H 719.431 -6.11343 -2.95697 0
M  V30 7959 H 717.377 -4.63346 -4.64378 0
M  V30 7960 H 717.294 -6.30073 -4.17785 0
M  V30 7961 H 718.562 -5.76943 -5.24173 0
M  V30 7962 N 722.791 0.367657 -1.53252 0
M  V30 7963 C 723.738 1.45028 -1.79543 0
M  V30 7964 C 724.708 1.53288 -0.63969 0
M  V30 7965 O 725.893 1.69209 -0.881653 0
M  V30 7966 C 723.033 2.82 -1.98923 0
M  V30 7967 C 722.146 2.82722 -3.26638 0
M  V30 7968 C 721.281 4.11257 -3.36216 0
M  V30 7969 C 720.32 4.06113 -4.57972 0
M  V30 7970 N 719.457 5.26293 -4.64715 0
M  V30 7971 H 724.297 1.21908 -2.71923 0
M  V30 7972 H 721.834 0.591011 -1.34705 0
M  V30 7973 H 723.792 3.61568 -2.08146 0
M  V30 7974 H 722.422 3.03523 -1.09881 0
M  V30 7975 H 721.474 1.95399 -3.26379 0
M  V30 7976 H 722.786 2.74794 -4.16281 0
M  V30 7977 H 721.94 4.99239 -3.44739 0
M  V30 7978 H 720.679 4.21935 -2.44586 0
M  V30 7979 H 719.684 3.16517 -4.49552 0
M  V30 7980 H 720.909 3.97039 -5.50942 0
M  V30 7981 H 718.855 5.37561 -3.75985 0
M  V30 7982 H 718.772 5.20526 -5.4826 0
M  V30 7983 H 720.04 6.16113 -4.77519 0
M  V30 7984 N 724.269 1.44576 0.627338 0
M  V30 7985 C 725.216 1.51734 1.73912 0
M  V30 7986 C 726.186 0.364745 1.62046 0
M  V30 7987 O 727.371 0.575503 1.81914 0
M  V30 7988 C 724.511 1.47116 3.12171 0
M  V30 7989 C 723.624 2.72778 3.34986 0
M  V30 7990 C 722.759 2.59968 4.63239 0
M  V30 7991 C 721.798 3.80776 4.79245 0
M  V30 7992 N 720.935 3.66618 5.98778 0
M  V30 7993 H 725.775 2.46722 1.6713 0
M  V30 7994 H 723.312 1.22444 0.815224 0
M  V30 7995 H 725.27 1.42429 3.92135 0
M  V30 7996 H 723.9 0.556928 3.17959 0
M  V30 7997 H 722.952 2.87637 2.48936 0
M  V30 7998 H 724.264 3.62441 3.42692 0
M  V30 7999 H 723.418 2.53135 5.51369 0
M  V30 8000 H 722.157 1.67872 4.57898 0
M  V30 8001 H 721.162 3.87989 3.89544 0
M  V30 8002 H 722.387 4.73913 4.86398 0
M  V30 8003 H 720.333 2.77277 5.9452 0
M  V30 8004 H 720.25 4.499 6.07557 0
M  V30 8005 H 721.518 3.63684 6.89459 0
M  V30 8006 N 725.747 -0.868086 1.31537 0
M  V30 8007 C 726.657 -2.00801 1.21311 0
M  V30 8008 C 727.673 -1.73518 0.129431 0
M  V30 8009 O 728.849 -1.98378 0.347588 0
M  V30 8010 C 725.914 -3.3419 0.922935 0
M  V30 8011 C 724.975 -3.74783 2.0937 0
M  V30 8012 C 724.208 -5.01807 1.81728 0
M  V30 8013 O 724.431 -5.65404 0.753313 0
M  V30 8014 O 723.365 -5.39213 2.67457 0
M  V30 8015 H 727.191 -2.12361 2.17109 0
M  V30 8016 H 724.776 -0.996684 1.11295 0
M  V30 8017 H 726.658 -4.14174 0.777033 0
M  V30 8018 H 725.333 -3.237 -0.00500301 0
M  V30 8019 H 724.24 -2.95432 2.29501 0
M  V30 8020 H 725.573 -3.89902 3.00396 0
M  V30 8021 N 727.225 -1.14528 -1.08264 0
M  V30 8022 C 728.474 -0.908992 -1.80056 0
M  V30 8023 C 728.787 0.565859 -1.87236 0
M  V30 8024 O 729.993 0.919454 -2.55457 0
M  V30 8025 C 728.449 -1.57681 -3.23519 0
M  V30 8026 C 728.057 -3.08803 -3.24569 0
M  V30 8027 C 729.801 -1.4217 -3.99985 0
M  V30 8028 C 727.708 -3.68414 -4.62629 0
M  V30 8029 H 726.638 -0.336432 -0.674781 0
M  V30 8030 H 729.289 -1.37437 -1.21587 0
M  V30 8031 H 727.671 -1.03911 -3.82124 0
M  V30 8032 H 728.845 -3.69252 -2.75663 0
M  V30 8033 H 727.16 -3.23968 -2.61598 0
M  V30 8034 H 729.757 -1.84106 -5.02005 0
M  V30 8035 H 730.1 -0.367989 -4.1467 0
M  V30 8036 H 730.633 -1.92984 -3.47853 0
M  V30 8037 H 727.372 -4.73644 -4.53147 0
M  V30 8038 H 726.892 -3.12746 -5.11811 0
M  V30 8039 H 728.571 -3.68793 -5.31602 0
M  V30 8040 N 728.703 1.26451 -0.940633 0
M  V30 8041 C 729.931 1.97868 -0.604642 0
M  V30 8042 C 730.346 1.70051 0.820251 0
M  V30 8043 O 729.703 0.96843 1.54686 0
M  V30 8044 C 729.754 3.51684 -0.836689 0
M  V30 8045 O 729.475 3.78533 -2.20554 0
M  V30 8046 C 730.976 4.40343 -0.511169 0
M  V30 8047 H 728.196 0.631105 -0.227919 0
M  V30 8048 H 730.74 1.60979 -1.26119 0
M  V30 8049 H 728.895 3.86736 -0.226759 0
M  V30 8050 H 729.309 4.73065 -2.26517 0
M  V30 8051 H 730.783 5.47229 -0.724157 0
M  V30 8052 H 731.26 4.35694 0.553815 0
M  V30 8053 H 731.866 4.10834 -1.0998 0
M  V30 8054 N 730.181 0.707592 1.40822 0
M  V30 8055 C 731.128 0.0499029 2.30746 0
M  V30 8056 C 732.098 -0.758718 1.47759 0
M  V30 8057 O 733.283 -0.724299 1.76518 0
M  V30 8058 C 730.423 -0.871756 3.33908 0
M  V30 8059 C 729.536 -0.0534655 4.31967 0
M  V30 8060 C 728.671 -0.973869 5.22197 0
M  V30 8061 C 727.71 -0.149194 6.11918 0
M  V30 8062 N 726.847 -1.02404 6.94592 0
M  V30 8063 H 731.687 0.822461 2.86426 0
M  V30 8064 H 729.224 0.417285 1.41057 0
M  V30 8065 H 731.182 -1.42028 3.9228 0
M  V30 8066 H 729.812 -1.61058 2.7975 0
M  V30 8067 H 728.864 0.612142 3.75442 0
M  V30 8068 H 730.176 0.585354 4.95353 0
M  V30 8069 H 729.33 -1.59121 5.85462 0
M  V30 8070 H 728.069 -1.64652 4.59065 0
M  V30 8071 H 727.074 0.481137 5.47691 0
M  V30 8072 H 728.299 0.519841 6.77107 0
M  V30 8073 H 726.245 -1.6825 6.34057 0
M  V30 8074 H 726.162 -0.441076 7.54712 0
M  V30 8075 H 727.43 -1.62782 7.62314 0
M  V30 8076 N 731.66 -1.50943 0.453197 0
M  V30 8077 C 732.607 -2.28128 -0.350197 0
M  V30 8078 C 733.577 -1.32398 -1.00299 0
M  V30 8079 O 734.762 -1.61319 -1.01887 0
M  V30 8080 C 731.902 -3.13782 -1.43649 0
M  V30 8081 C 731.015 -4.24523 -0.800255 0
M  V30 8082 C 730.15 -4.97462 -1.86293 0
M  V30 8083 C 729.189 -6.00102 -1.20598 0
M  V30 8084 N 728.326 -6.66387 -2.21071 0
M  V30 8085 H 733.166 -2.96337 0.31434 0
M  V30 8086 H 730.703 -1.46151 0.166863 0
M  V30 8087 H 732.661 -3.6178 -2.07776 0
M  V30 8088 H 731.291 -2.47655 -2.07044 0
M  V30 8089 H 730.343 -3.80371 -0.0468651 0
M  V30 8090 H 731.655 -4.98009 -0.280777 0
M  V30 8091 H 730.809 -5.49088 -2.58044 0
M  V30 8092 H 729.548 -4.23642 -2.41617 0
M  V30 8093 H 728.553 -5.47753 -0.474 0
M  V30 8094 H 729.778 -6.75887 -0.659859 0
M  V30 8095 H 727.724 -5.9537 -2.75446 0
M  V30 8096 H 727.641 -7.3569 -1.74058 0
M  V30 8097 H 728.909 -7.22638 -2.92257 0
M  V30 8098 N 733.138 -0.185124 -1.56509 0
M  V30 8099 C 734.068 0.735098 -2.21627 0
M  V30 8100 C 735.049 1.2288 -1.1762 0
M  V30 8101 O 736.234 1.27945 -1.46095 0
M  V30 8102 C 733.364 1.95889 -2.86783 0
M  V30 8103 C 732.318 1.6005 -3.96948 0
M  V30 8104 C 731.644 2.90009 -4.4922 0
M  V30 8105 C 732.944 0.818008 -5.15855 0
M  V30 8106 H 734.638 0.192274 -2.98782 0
M  V30 8107 H 732.184 0.0910393 -1.43712 0
M  V30 8108 H 734.137 2.60779 -3.31017 0
M  V30 8109 H 732.861 2.52608 -2.07018 0
M  V30 8110 H 731.52 0.975237 -3.5339 0
M  V30 8111 H 731.168 3.44797 -3.6623 0
M  V30 8112 H 730.868 2.66778 -5.23549 0
M  V30 8113 H 732.392 3.55904 -4.9615 0
M  V30 8114 H 733.806 1.36979 -5.56695 0
M  V30 8115 H 732.203 0.684207 -5.96187 0
M  V30 8116 H 733.273 -0.182939 -4.84555 0
M  V30 8117 N 734.616 1.57351 0.0885366 0
M  V30 8118 C 735.841 1.91011 0.80805 0
M  V30 8119 C 736.266 0.780009 1.71165 0
M  V30 8120 O 735.624 -0.268083 1.79307 0
M  V30 8121 C 735.672 3.23562 1.59185 0
M  V30 8122 O 734.776 3.11615 2.7013 0
M  V30 8123 H 734.117 0.625943 0.221565 0
M  V30 8124 H 736.647 2.04507 0.0617954 0
M  V30 8125 H 736.657 3.5703 1.97468 0
M  V30 8126 H 735.332 4.05398 0.928741 0
M  V30 8127 H 733.909 2.89673 2.34827 0
M  V30 8128 N 736.094 -0.359525 1.53444 0
M  V30 8129 C 737.004 -1.46445 1.83278 0
M  V30 8130 C 738.02 -1.5833 0.721629 0
M  V30 8131 O 739.196 -1.7411 1.01231 0
M  V30 8132 C 736.261 -2.81638 2.02191 0
M  V30 8133 C 735.322 -2.7923 3.26082 0
M  V30 8134 C 734.555 -4.07974 3.44082 0
M  V30 8135 O 734.778 -5.04447 2.66251 0
M  V30 8136 O 733.712 -4.13417 4.37458 0
M  V30 8137 H 737.538 -1.24156 2.77162 0
M  V30 8138 H 735.123 -0.550201 1.389 0
M  V30 8139 H 737.005 -3.61732 2.16167 0
M  V30 8140 H 735.68 -3.03892 1.11496 0
M  V30 8141 H 734.587 -1.97813 3.17523 0
M  V30 8142 H 735.92 -2.6193 4.16718 0
M  V30 8143 N 737.572 -1.44907 -0.619662 0
M  V30 8144 C 738.983 -1.42905 -1.20146 0
M  V30 8145 C 739.334 -0.150341 -1.95623 0
M  V30 8146 O 738.459 0.748732 -2.03034 0
M  V30 8147 C 739.054 -2.58889 -2.18545 0
M  V30 8148 C 737.613 -2.60046 -2.72127 0
M  V30 8149 C 736.76 -2.3493 -1.4732 0
M  V30 8150 H 739.711 -1.53321 -0.409666 0
M  V30 8151 H 739.732 -2.32298 -3.0136 0
M  V30 8152 H 739.244 -3.51941 -1.63583 0
M  V30 8153 H 737.345 -1.70968 -3.3106 0
M  V30 8154 H 737.458 -3.58893 -3.17384 0
M  V30 8155 H 735.822 -1.84248 -1.75855 0
M  V30 8156 H 736.605 -3.3011 -0.942442 0
M  V30 8157 N 739.05 0.861098 -1.31996 0
M  V30 8158 C 740.275 1.65264 -1.2531 0
M  V30 8159 C 740.7 1.87265 0.177007 0
M  V30 8160 O 740.058 1.4208 1.12619 0
M  V30 8161 C 740.106 2.99284 -2.0115 0
M  V30 8162 O 739.21 3.89508 -1.3549 0
M  V30 8163 H 738.551 0.50409 -0.432192 0
M  V30 8164 H 741.081 1.07297 -1.74208 0
M  V30 8165 H 741.091 3.49154 -2.11081 0
M  V30 8166 H 739.766 2.82591 -3.05148 0
M  V30 8167 H 738.343 3.47966 -1.34066 0
M  V30 8168 N 740.528 1.15101 1.07655 0
M  V30 8169 C 741.756 0.947731 1.83918 0
M  V30 8170 C 742.171 -0.503927 1.81951 0
M  V30 8171 O 741.528 -1.34941 1.2287 0
M  V30 8172 C 741.579 1.4503 3.31132 0
M  V30 8173 O 741.3 2.84508 3.33146 0
M  V30 8174 C 742.801 1.28806 4.24174 0
M  V30 8175 H 740.021 0.336786 0.580358 0
M  V30 8176 H 742.565 1.52799 1.35914 0
M  V30 8177 H 740.72 0.912632 3.76497 0
M  V30 8178 H 741.134 3.0723 4.251 0
M  V30 8179 H 742.608 1.6882 5.25551 0
M  V30 8180 H 743.085 0.231851 4.38588 0
M  V30 8181 H 743.691 1.81465 3.84643 0
M  V30 8182 N 742.006 -1.2595 0.947325 0
M  V30 8183 C 743.236 -1.97258 0.614235 0
M  V30 8184 C 743.644 -1.70682 -0.816355 0
M  V30 8185 O 742.987 -0.97527 -1.55673 0
M  V30 8186 C 743.049 -3.50845 0.784081 0
M  V30 8187 C 742.713 -4.01084 2.19045 0
M  V30 8188 C 743.71 -4.12347 3.16648 0
M  V30 8189 C 741.395 -4.34936 2.51268 0
M  V30 8190 C 743.389 -4.56766 4.44572 0
M  V30 8191 C 741.076 -4.79043 3.79422 0
M  V30 8192 C 742.074 -4.89919 4.75887 0
M  V30 8193 O 741.762 -5.3305 6.01758 0
M  V30 8194 H 741.494 -0.635738 0.22981 0
M  V30 8195 H 744.048 -1.61268 1.27207 0
M  V30 8196 H 742.278 -3.86638 0.069101 0
M  V30 8197 H 743.967 -4.03363 0.453135 0
M  V30 8198 H 744.733 -3.86432 2.93079 0
M  V30 8199 H 740.612 -4.25702 1.76916 0
M  V30 8200 H 744.156 -4.6517 5.19868 0
M  V30 8201 H 740.053 -5.04402 4.02802 0
M  V30 8202 H 740.821 -5.51255 6.05029 0
M  V30 8203 N 743.484 -0.715051 -1.40445 0
M  V30 8204 C 744.431 -0.0621393 -2.30716 0
M  V30 8205 C 745.401 0.750871 -1.48159 0
M  V30 8206 O 746.586 0.714928 -1.76899 0
M  V30 8207 C 743.726 0.854036 -3.34365 0
M  V30 8208 C 742.839 0.0305565 -4.31989 0
M  V30 8209 C 741.974 0.946162 -5.22706 0
M  V30 8210 C 741.013 0.116741 -6.11989 0
M  V30 8211 N 740.15 0.987194 -6.95125 0
M  V30 8212 H 744.99 -0.83764 -2.85985 0
M  V30 8213 H 742.527 -0.424759 -1.40834 0
M  V30 8214 H 744.485 1.39946 -3.93028 0
M  V30 8215 H 743.115 1.59572 -2.806 0
M  V30 8216 H 742.167 -0.632044 -3.75112 0
M  V30 8217 H 743.479 -0.611615 -4.95036 0
M  V30 8218 H 742.633 1.56014 -5.86297 0
M  V30 8219 H 741.372 1.62216 -4.59932 0
M  V30 8220 H 740.377 -0.510176 -5.47428 0
M  V30 8221 H 741.602 -0.555742 -6.76822 0
M  V30 8222 H 739.548 1.64885 -6.3494 0
M  V30 8223 H 739.465 0.401046 -7.54936 0
M  V30 8224 H 740.733 1.58737 -7.63166 0
M  V30 8225 N 744.962 1.50701 -0.461195 0
M  V30 8226 C 745.892 2.31182 0.328184 0
M  V30 8227 C 746.873 1.37644 0.999408 0
M  V30 8228 O 748.058 1.66565 0.99848 0
M  V30 8229 C 745.188 3.17113 1.41621 0
M  V30 8230 C 744.142 4.19124 0.867148 0
M  V30 8231 C 743.468 4.93728 2.05272 0
M  V30 8232 C 744.768 5.22174 -0.114808 0
M  V30 8233 H 746.462 2.97423 -0.343501 0
M  V30 8234 H 744.008 1.43033 -0.166641 0
M  V30 8235 H 745.961 3.72208 1.97584 0
M  V30 8236 H 744.685 2.48739 2.11652 0
M  V30 8237 H 743.344 3.65116 0.329557 0
M  V30 8238 H 742.992 4.21835 2.73978 0
M  V30 8239 H 742.692 5.62724 1.69161 0
M  V30 8240 H 744.216 5.51654 2.61744 0
M  V30 8241 H 745.63 5.72198 0.355316 0
M  V30 8242 H 744.027 5.98833 -0.389689 0
M  V30 8243 H 745.097 4.7353 -1.04391 0
M  V30 8244 N 746.441 0.193421 1.56409 0
M  V30 8245 C 747.69 -0.445995 1.96707 0
M  V30 8246 C 748.003 -1.62876 1.08309 0
M  V30 8247 O 749.209 -2.33586 1.38383 0
M  V30 8248 C 747.665 -0.844863 3.49843 0
M  V30 8249 C 747.273 0.31352 4.46902 0
M  V30 8250 C 749.017 -1.45146 3.98915 0
M  V30 8251 C 746.924 -0.106214 5.91305 0
M  V30 8252 H 745.854 -0.170398 0.734493 0
M  V30 8253 H 748.505 0.285172 1.81271 0
M  V30 8254 H 746.887 -1.63265 3.60778 0
M  V30 8255 H 748.061 1.09103 4.47698 0
M  V30 8256 H 746.376 0.8315 4.08014 0
M  V30 8257 H 748.973 -1.77792 5.04276 0
M  V30 8258 H 749.316 -2.35734 3.43126 0
M  V30 8259 H 749.849 -0.727675 3.91088 0
M  V30 8260 H 746.588 0.765442 6.51016 0
M  V30 8261 H 746.108 -0.848623 5.93766 0
M  V30 8262 H 747.787 -0.542588 6.44721 0
M  V30 8263 N 747.919 -1.57396 -0.0801906 0
M  V30 8264 C 749.149 -1.90778 -0.792924 0
M  V30 8265 C 749.557 -0.786814 -1.72064 0
M  V30 8266 O 748.9 0.249259 -1.82001 0
M  V30 8267 C 748.962 -3.19552 -1.64702 0
M  V30 8268 C 748.626 -4.48259 -0.889567 0
M  V30 8269 C 749.623 -5.19465 -0.212602 0
M  V30 8270 C 747.308 -4.94896 -0.859229 0
M  V30 8271 C 749.302 -6.35555 0.484566 0
M  V30 8272 C 746.989 -6.10895 -0.158284 0
M  V30 8273 C 747.987 -6.81075 0.512421 0
M  V30 8274 O 747.675 -7.94862 1.20209 0
M  V30 8275 H 747.407 -0.63527 -0.231103 0
M  V30 8276 H 749.961 -2.0532 -0.0573081 0
M  V30 8277 H 748.191 -3.01196 -2.42524 0
M  V30 8278 H 749.88 -3.38649 -2.23767 0
M  V30 8279 H 750.646 -4.84467 -0.227403 0
M  V30 8280 H 746.525 -4.4015 -1.37073 0
M  V30 8281 H 750.069 -6.9027 1.00864 0
M  V30 8282 H 745.966 -6.45345 -0.141381 0
M  V30 8283 H 746.734 -8.10932 1.11051 0
M  V30 8284 N 749.397 0.351382 -1.53633 0
M  V30 8285 C 750.344 1.43115 -1.81071 0
M  V30 8286 C 751.314 1.52601 -0.655913 0
M  V30 8287 O 752.499 1.68264 -0.89955 0
M  V30 8288 C 749.639 2.79874 -2.01903 0
M  V30 8289 C 748.752 2.79242 -3.29618 0
M  V30 8290 C 747.887 4.07667 -3.40559 0
M  V30 8291 C 746.926 4.01233 -4.62254 0
M  V30 8292 N 746.063 5.21334 -4.70271 0
M  V30 8293 H 750.903 1.19017 -2.73201 0
M  V30 8294 H 748.44 0.576691 -1.35324 0
M  V30 8295 H 750.398 3.5934 -2.11969 0
M  V30 8296 H 749.028 3.0234 -1.13094 0
M  V30 8297 H 748.08 1.91927 -3.28433 0
M  V30 8298 H 749.392 2.70363 -4.19172 0
M  V30 8299 H 748.546 4.95555 -3.50015 0
M  V30 8300 H 747.285 4.19317 -2.49047 0
M  V30 8301 H 746.29 3.11732 -4.52884 0
M  V30 8302 H 747.515 3.91173 -5.55122 0
M  V30 8303 H 745.461 5.33543 -3.81665 0
M  V30 8304 H 745.378 5.14681 -5.5375 0
M  V30 8305 H 746.646 6.11014 -4.84027 0
M  V30 8306 N 750.875 1.45233 0.611969 0
M  V30 8307 C 751.785 1.56098 1.7513 0
M  V30 8308 C 752.801 0.445646 1.68196 0
M  V30 8309 O 753.977 0.705718 1.88631 0
M  V30 8310 C 751.042 1.52052 3.11579 0
M  V30 8311 C 750.103 2.74589 3.29999 0
M  V30 8312 C 749.336 2.70726 4.59938 0
M  V30 8313 O 749.559 1.77806 5.41979 0
M  V30 8314 O 748.493 3.61864 4.80976 0
M  V30 8315 H 752.319 2.52392 1.68914 0
M  V30 8316 H 749.904 1.27695 0.775528 0
M  V30 8317 H 751.786 1.52387 3.92882 0
M  V30 8318 H 750.461 0.589085 3.18295 0
M  V30 8319 H 749.368 2.79817 2.48301 0
M  V30 8320 H 750.701 3.66843 3.28157 0
M  V30 8321 N 752.353 -0.854086 1.3245 0
M  V30 8322 C 753.583 -1.63836 1.25862 0
M  V30 8323 C 753.991 -1.88383 -0.175588 0
M  V30 8324 O 753.334 -1.45353 -1.1233 0
M  V30 8325 C 753.396 -3.02068 1.94923 0
M  V30 8326 C 753.06 -3.0056 3.44257 0
M  V30 8327 C 754.057 -2.77368 4.39731 0
M  V30 8328 C 751.742 -3.21177 3.862 0
M  V30 8329 C 753.736 -2.74797 5.75122 0
M  V30 8330 C 751.423 -3.18234 5.217 0
M  V30 8331 C 752.421 -2.95072 6.15972 0
M  V30 8332 O 752.109 -2.92003 7.48992 0
M  V30 8333 H 751.841 -0.517007 0.435523 0
M  V30 8334 H 754.395 -1.07314 1.75137 0
M  V30 8335 H 752.625 -3.60382 1.40219 0
M  V30 8336 H 754.314 -3.62791 1.82037 0
M  V30 8337 H 755.08 -2.61205 4.08653 0
M  V30 8338 H 750.959 -3.38231 3.13243 0
M  V30 8339 H 754.503 -2.56638 6.48678 0
M  V30 8340 H 750.4 -3.33941 5.52407 0
M  V30 8341 H 751.168 -3.07953 7.58358 0
M  V30 8342 N 753.831 -1.1567 -1.07043 0
M  V30 8343 C 755.247 -0.900006 -1.31803 0
M  V30 8344 C 755.447 0.451293 -1.96381 0
M  V30 8345 O 754.503 1.19252 -2.22565 0
M  V30 8346 C 755.816 -2.04334 -2.20609 0
M  V30 8347 C 757.364 -2.07823 -2.34048 0
M  V30 8348 C 757.839 -3.21488 -3.26204 0
M  V30 8349 N 759.33 -3.21156 -3.33786 0
M  V30 8350 C 760.065 -4.05746 -4.05163 0
M  V30 8351 N 759.561 -5.00407 -4.79129 0
M  V30 8352 N 761.354 -3.93759 -4.01136 0
M  V30 8353 H 753.505 -2.02681 -0.635146 0
M  V30 8354 H 755.768 -0.883956 -0.342528 0
M  V30 8355 H 755.474 -3.01895 -1.80423 0
M  V30 8356 H 755.348 -1.97838 -3.21154 0
M  V30 8357 H 757.735 -1.1086 -2.73485 0
M  V30 8358 H 757.816 -2.18386 -1.33197 0
M  V30 8359 H 757.46 -4.18706 -2.87485 0
M  V30 8360 H 757.39 -3.08162 -4.27017 0
M  V30 8361 H 759.881 -2.52606 -2.81067 0
M  V30 8362 H 760.194 -5.61387 -5.31097 0
M  V30 8363 H 758.539 -5.04393 -4.78135 0
M  V30 8364 H 761.73 -3.19115 -3.42466 0
M  V30 8365 H 761.903 -4.59906 -4.56498 0
M  V30 8366 N 755.309 1.25446 -0.953992 0
M  V30 8367 C 756.256 2.25912 -0.472485 0
M  V30 8368 C 757.226 1.59173 0.47469 0
M  V30 8369 O 758.411 1.86812 0.388082 0
M  V30 8370 C 755.551 3.44235 0.244218 0
M  V30 8371 C 754.664 4.25613 -0.740121 0
M  V30 8372 C 753.799 5.312 -0.000922267 0
M  V30 8373 C 752.838 6.04265 -0.976236 0
M  V30 8374 N 751.975 7.01589 -0.267952 0
M  V30 8375 H 756.815 2.66469 -1.3341 0
M  V30 8376 H 754.352 1.31005 -0.669045 0
M  V30 8377 H 756.31 4.11682 0.676314 0
M  V30 8378 H 754.94 3.04554 1.06988 0
M  V30 8379 H 753.992 3.57834 -1.2907 0
M  V30 8380 H 755.304 4.762 -1.48441 0
M  V30 8381 H 754.458 6.04719 0.48984 0
M  V30 8382 H 753.197 4.81484 0.776159 0
M  V30 8383 H 752.202 5.29561 -1.478 0
M  V30 8384 H 753.427 6.5607 -1.75354 0
M  V30 8385 H 751.373 6.54164 0.490403 0
M  V30 8386 H 751.29 7.4999 -0.951344 0
M  V30 8387 H 752.558 7.7924 0.201294 0
M  V30 8388 N 756.787 0.722489 1.40064 0
M  V30 8389 C 758.034 0.264979 2.00759 0
M  V30 8390 C 758.362 -1.14395 1.57302 0
M  V30 8391 O 757.617 -1.79165 0.787298 0
M  V30 8392 C 757.916 0.300682 3.56133 0
M  V30 8393 C 757.582 1.66087 4.19197 0
M  V30 8394 C 756.244 2.03319 4.36136 0
M  V30 8395 C 758.596 2.55452 4.54306 0
M  V30 8396 C 755.924 3.29448 4.8547 0
M  V30 8397 C 758.276 3.8094 5.05042 0
M  V30 8398 C 756.94 4.1828 5.2019 0
M  V30 8399 H 756.21 0.0969625 0.734629 0
M  V30 8400 H 758.857 0.926877 1.67575 0
M  V30 8401 H 757.162 -0.44479 3.89267 0
M  V30 8402 H 758.859 -0.0712542 4.00937 0
M  V30 8403 H 755.449 1.36137 4.06405 0
M  V30 8404 H 759.633 2.27961 4.40849 0
M  V30 8405 H 754.889 3.58338 4.95382 0
M  V30 8406 H 759.063 4.50351 5.31184 0
M  V30 8407 H 756.69 5.16081 5.58179 0
M  V30 8408 N 758.265 -1.50454 0.469181 0
M  V30 8409 C 759.195 -2.31353 -0.31592 0
M  V30 8410 C 760.176 -1.38172 -0.992094 0
M  V30 8411 O 761.361 -1.67093 -0.989633 0
M  V30 8412 C 758.491 -3.1786 -1.39937 0
M  V30 8413 C 757.445 -4.19578 -0.844909 0
M  V30 8414 C 756.771 -4.9481 -2.0265 0
M  V30 8415 C 758.071 -5.22106 0.142499 0
M  V30 8416 H 759.765 -2.97237 0.359269 0
M  V30 8417 H 757.311 -1.42942 0.174224 0
M  V30 8418 H 759.264 -3.7325 -1.95607 0
M  V30 8419 H 757.988 -2.49858 -2.1033 0
M  V30 8420 H 756.647 -3.65285 -0.310189 0
M  V30 8421 H 756.295 -4.23282 -2.71737 0
M  V30 8422 H 755.995 -5.63613 -1.66174 0
M  V30 8423 H 757.519 -5.53035 -2.58815 0
M  V30 8424 H 758.933 -5.72378 -0.324966 0
M  V30 8425 H 757.33 -5.98618 0.421441 0
M  V30 8426 H 758.4 -4.7297 1.06901 0
M  V30 8427 N 759.743 -0.201713 -1.56304 0
M  V30 8428 C 760.69 0.716499 -2.19397 0
M  V30 8429 C 761.66 1.20494 -1.14326 0
M  V30 8430 O 762.845 1.26763 -1.42604 0
M  V30 8431 C 759.985 1.92762 -2.86246 0
M  V30 8432 C 759.098 1.47993 -4.0586 0
M  V30 8433 C 758.233 2.64706 -4.60547 0
M  V30 8434 C 757.272 2.16576 -5.72504 0
M  V30 8435 N 756.409 3.26491 -6.21569 0
M  V30 8436 H 761.249 0.171724 -2.97505 0
M  V30 8437 H 758.786 0.073016 -1.46919 0
M  V30 8438 H 760.744 2.6384 -3.23178 0
M  V30 8439 H 759.374 2.44559 -2.10691 0
M  V30 8440 H 758.426 0.66477 -3.74546 0
M  V30 8441 H 759.738 1.08686 -4.86815 0
M  V30 8442 H 758.892 3.43898 -4.99819 0
M  V30 8443 H 757.631 3.0729 -3.78713 0
M  V30 8444 H 756.636 1.3584 -5.32755 0
M  V30 8445 H 757.861 1.75015 -6.56161 0
M  V30 8446 H 755.807 3.68594 -5.42655 0
M  V30 8447 H 755.724 2.91374 -6.97594 0
M  V30 8448 H 756.992 4.05877 -6.65495 0
M  V30 8449 N 761.222 1.57436 0.0718424 0
M  V30 8450 C 762.447 1.91858 0.787745 0
M  V30 8451 C 762.872 0.798119 1.70328 0
M  V30 8452 O 762.23 -0.24905 1.79581 0
M  V30 8453 C 762.278 3.25232 1.55744 0
M  V30 8454 O 761.382 3.14462 2.6681 0
M  V30 8455 H 760.723 0.628258 0.214914 0
M  V30 8456 H 763.253 2.04561 0.0401012 0
M  V30 8457 H 763.263 3.59105 1.9367 0
M  V30 8458 H 761.938 4.0636 0.885691 0
M  V30 8459 H 760.515 2.92148 2.31741 0
M  V30 8460 N 762.7 -0.34323 1.53817 0
M  V30 8461 C 763.948 -1.0813 1.70741 0
M  V30 8462 C 764.269 -1.89165 0.473461 0
M  V30 8463 O 763.539 -1.89075 -0.512605 0
M  V30 8464 H 762.119 -0.40219 0.629486 0
M  V30 8465 H 764.781 -0.384426 1.91071 0
M  V30 8466 H 763.877 -1.7585 2.57843 0
M  V30 8467 N 764.178 -1.45556 -0.604258 0
M  V30 8468 C 765.418 -1.51289 -1.37445 0
M  V30 8469 C 765.782 -0.152112 -1.91397 0
M  V30 8470 O 766.983 -0.0841419 -2.68668 0
M  V30 8471 C 765.254 -2.5646 -2.48924 0
M  V30 8472 S 766.813 -2.81442 -3.36654 0
M  V30 8473 H 763.631 -0.534774 -0.468549 0
M  V30 8474 H 766.233 -1.82657 -0.696902 0
M  V30 8475 H 764.937 -3.53995 -2.07644 0
M  V30 8476 H 764.468 -2.26753 -3.21476 0
M  V30 8477 H 766.483 -2.15074 -4.47166 0
M  V30 8478 N 765.656 0.84705 -1.32902 0
M  V30 8479 C 766.886 1.63166 -1.26729 0
M  V30 8480 C 767.294 1.88474 0.165595 0
M  V30 8481 O 766.637 1.45947 1.11558 0
M  V30 8482 C 766.699 3.0103 -1.96522 0
M  V30 8483 C 766.363 2.9873 -3.45846 0
M  V30 8484 C 767.36 2.75032 -4.41196 0
M  V30 8485 C 765.045 3.19125 -3.87898 0
M  V30 8486 C 767.039 2.71743 -5.76571 0
M  V30 8487 C 764.726 3.15462 -5.2338 0
M  V30 8488 C 765.724 2.91801 -6.17528 0
M  V30 8489 O 765.412 2.88027 -7.5053 0
M  V30 8490 H 765.144 0.51469 -0.438258 0
M  V30 8491 H 767.698 1.06383 -1.75704 0
M  V30 8492 H 765.928 3.59634 -1.42128 0
M  V30 8493 H 767.617 3.61821 -1.83958 0
M  V30 8494 H 768.383 2.59034 -4.10032 0
M  V30 8495 H 764.262 3.36565 -3.15032 0
M  V30 8496 H 767.806 2.53194 -6.5003 0
M  V30 8497 H 763.703 3.31006 -5.54171 0
M  V30 8498 H 764.471 3.03927 -7.59981 0
M  V30 8499 N 767.134 1.16236 1.06428 0
M  V30 8500 C 768.044 0.881976 2.1739 0
M  V30 8501 C 769.06 -0.145259 1.73393 0
M  V30 8502 O 770.236 0.0310558 2.01376 0
M  V30 8503 C 767.301 0.385496 3.4455 0
M  V30 8504 C 766.362 1.47779 4.03063 0
M  V30 8505 C 765.595 1.0049 5.24154 0
M  V30 8506 O 765.818 -0.145889 5.70213 0
M  V30 8507 O 764.752 1.79265 5.74585 0
M  V30 8508 H 768.578 1.80983 2.43883 0
M  V30 8509 H 766.163 0.942226 1.15942 0
M  V30 8510 H 768.045 0.115536 4.21242 0
M  V30 8511 H 766.72 -0.514369 3.19587 0
M  V30 8512 H 765.627 1.80147 3.27869 0
M  V30 8513 H 766.96 2.35291 4.32318 0
M  V30 8514 N 768.612 -1.24939 0.960631 0
M  V30 8515 C 769.889 -1.88118 0.535807 0
M  V30 8516 C 770.269 -1.86605 -0.987009 0
M  V30 8517 O 769.617 -1.33375 -1.85536 0
M  V30 8518 C 769.827 -3.30565 1.11927 0
M  V30 8519 C 771.175 -4.07296 1.19981 0
M  V30 8520 O 772.199 -3.39709 1.07126 0
M  V30 8521 O 771.058 -5.28206 1.40218 0
M  V30 8522 H 768.152 -0.807698 0.177631 0
M  V30 8523 H 770.698 -1.32964 1.05445 0
M  V30 8524 H 769.47 -3.26128 2.16231 0
M  V30 8525 H 769.093 -3.93284 0.584245 0
M  V30 8526 N 770.09 -0.729906 -1.39679 0
M  V30 8527 C 771.367 -0.202149 -1.94553 0
M  V30 8528 C 771.747 1.29507 -1.66707 0
M  V30 8529 O 771.095 2.05819 -0.992517 0
M  V30 8530 C 771.305 -0.530279 -3.44948 0
M  V30 8531 C 772.653 -0.476808 -4.21914 0
M  V30 8532 O 773.677 -0.467171 -3.53123 0
M  V30 8533 O 772.536 -0.466869 -5.44502 0
M  V30 8534 H 769.63 -0.0351644 -0.826252 0
M  V30 8535 H 772.176 -0.808417 -1.49207 0
M  V30 8536 H 770.948 -1.56526 -3.5863 0
M  V30 8537 H 770.571 0.10522 -3.97461 0
M  V30 8538 N 771.568 1.50203 -0.477153 0
M  V30 8539 C 772.817 2.01551 0.0774548 0
M  V30 8540 C 773.13 1.36359 1.40234 0
M  V30 8541 O 774.336 1.78898 2.04225 0
M  V30 8542 C 772.792 3.59406 0.188539 0
M  V30 8543 C 772.4 4.3356 -1.12828 0
M  V30 8544 C 774.144 4.18776 0.694782 0
M  V30 8545 C 772.051 5.83213 -0.98066 0
M  V30 8546 H 770.981 0.75329 0.0327212 0
M  V30 8547 H 773.632 1.72959 -0.612969 0
M  V30 8548 H 772.014 3.84611 0.942881 0
M  V30 8549 H 773.188 4.20074 -1.89405 0
M  V30 8550 H 771.503 3.85827 -1.5661 0
M  V30 8551 H 774.1 5.28338 0.822356 0
M  V30 8552 H 774.443 3.80557 1.68766 0
M  V30 8553 H 774.976 3.978 -0.00234519 0
M  V30 8554 H 771.715 6.25914 -1.94709 0
M  V30 8555 H 771.235 5.99256 -0.255375 0
M  V30 8556 H 772.914 6.4373 -0.649717 0
M  V30 8557 N 773.046 0.209999 1.56195 0
M  V30 8558 C 773.994 -0.721416 2.2113 0
M  V30 8559 C 774.988 -1.20852 1.18706 0
M  V30 8560 O 776.194 -1.16968 1.36815 0
M  V30 8561 H 772.569 -0.251033 0.708863 0
M  V30 8562 H 774.54 -0.150193 2.98022 0
M  V30 8563 C 773.289 -1.92392 2.89621 0
M  V30 8564 H 772.612 -1.5582 3.68185 0
M  V30 8565 H 774.052 -2.55367 3.38473 0
M  V30 8566 C 772.511 -2.77208 1.91461 0
M  V30 8567 O 773.041 -3.75603 1.42426 0
M  V30 8568 N 771.247 -2.43006 1.59363 0
M  V30 8569 H 770.794 -1.63047 1.99433 0
M  V30 8570 H 770.752 -3.00036 0.939449 0
M  V30 8571 N 774.524 -1.57472 -0.0634922 0
M  V30 8572 C 775.94 -1.54016 -0.418466 0
M  V30 8573 C 776.14 -0.931376 -1.78683 0
M  V30 8574 O 775.196 -0.537465 -2.46714 0
M  V30 8575 C 776.509 -2.98634 -0.351906 0
M  V30 8576 C 778.057 -3.10012 -0.431494 0
M  V30 8577 C 778.532 -4.56296 -0.394754 0
M  V30 8578 N 780.023 -4.60964 -0.454583 0
M  V30 8579 C 780.758 -5.71643 -0.448501 0
M  V30 8580 N 780.254 -6.91663 -0.396742 0
M  V30 8581 N 782.047 -5.5991 -0.495677 0
M  V30 8582 H 774.198 -1.95409 0.832408 0
M  V30 8583 H 776.461 -0.894769 0.313197 0
M  V30 8584 H 776.167 -3.46766 0.587048 0
M  V30 8585 H 776.041 -3.58955 -1.15893 0
M  V30 8586 H 778.428 -2.61848 -1.36087 0
M  V30 8587 H 778.509 -2.52585 0.404258 0
M  V30 8588 H 778.153 -5.05119 0.530811 0
M  V30 8589 H 778.083 -5.11594 -1.24815 0
M  V30 8590 H 780.574 -3.74598 -0.498496 0
M  V30 8591 H 780.887 -7.71783 -0.396256 0
M  V30 8592 H 779.232 -6.9405 -0.363304 0
M  V30 8593 H 782.423 -4.65046 -0.533864 0
M  V30 8594 H 782.596 -6.46164 -0.487469 0
M  V30 8595 N 776.003 0.335068 -1.53997 0
M  V30 8596 C 776.951 1.43206 -1.83289 0
M  V30 8597 C 777.945 1.54081 -0.703953 0
M  V30 8598 O 779.151 1.56603 -0.887432 0
M  V30 8599 H 775.526 0.477655 -0.580818 0
M  V30 8600 H 777.497 1.15719 -2.75049 0
M  V30 8601 C 776.246 2.79602 -2.06683 0
M  V30 8602 H 775.569 2.72004 -2.93008 0
M  V30 8603 H 777.009 3.55459 -2.31139 0
M  V30 8604 C 775.468 3.25873 -0.854883 0
M  V30 8605 O 775.998 4.01657 -0.0584648 0
M  V30 8606 N 774.204 2.82777 -0.669729 0
M  V30 8607 H 773.751 2.21269 -1.31901 0
M  V30 8608 H 773.709 3.1409 0.13969 0
M  V30 8609 N 777.481 1.45874 0.596531 0
M  V30 8610 C 778.428 1.55389 1.70655 0
M  V30 8611 C 779.398 0.399036 1.61236 0
M  V30 8612 O 780.583 0.61396 1.80652 0
M  V30 8613 C 777.723 1.53705 3.0898 0
M  V30 8614 C 776.836 2.79823 3.29125 0
M  V30 8615 C 775.971 2.69735 4.5762 0
M  V30 8616 C 775.01 3.90856 4.71061 0
M  V30 8617 N 774.147 3.79237 5.90867 0
M  V30 8618 H 778.987 2.50211 1.61859 0
M  V30 8619 H 776.524 1.24146 0.789069 0
M  V30 8620 H 778.482 1.50715 3.89026 0
M  V30 8621 H 777.112 0.624247 3.16706 0
M  V30 8622 H 776.164 2.92852 2.42779 0
M  V30 8623 H 777.476 3.69628 3.34927 0
M  V30 8624 H 776.63 2.64773 5.45875 0
M  V30 8625 H 775.369 1.77547 4.54234 0
M  V30 8626 H 774.374 3.96164 3.81227 0
M  V30 8627 H 775.599 4.84124 4.76236 0
M  V30 8628 H 773.545 2.89825 5.88504 0
M  V30 8629 H 773.462 4.62686 5.97877 0
M  V30 8630 H 774.73 3.78227 6.8159 0
M  V30 8631 N 778.959 -0.83999 1.33349 0
M  V30 8632 C 780.208 -1.59011 1.2409 0
M  V30 8633 C 780.521 -1.94655 -0.192029 0
M  V30 8634 O 781.727 -2.68438 -0.406617 0
M  V30 8635 C 780.183 -2.86801 2.17425 0
M  V30 8636 C 779.791 -2.58525 3.65881 0
M  V30 8637 C 781.535 -3.64823 2.17036 0
M  V30 8638 C 779.442 -3.82404 4.51133 0
M  V30 8639 H 778.372 -0.596731 0.460899 0
M  V30 8640 H 781.023 -0.926274 1.58406 0
M  V30 8641 H 779.405 -3.54719 1.7604 0
M  V30 8642 H 780.579 -1.98824 4.15699 0
M  V30 8643 H 778.894 -1.93808 3.68548 0
M  V30 8644 H 781.491 -4.56774 2.7796 0
M  V30 8645 H 781.834 -3.99663 1.16513 0
M  V30 8646 H 782.367 -3.03826 2.56777 0
M  V30 8647 H 779.106 -3.52696 5.52527 0
M  V30 8648 H 778.626 -4.41447 4.0606 0
M  V30 8649 H 780.305 -4.49995 4.6488 0
M  V30 8650 N 780.437 -1.16799 -1.0581 0
M  V30 8651 C 781.4 -0.881396 -2.11575 0
M  V30 8652 C 782.4 0.12574 -1.60308 0
M  V30 8653 O 783.59 -0.105716 -1.73879 0
M  V30 8654 C 780.722 -0.319037 -3.39404 0
M  V30 8655 H 781.915 -1.81907 -2.38432 0
M  V30 8656 H 779.468 -0.977597 -1.21954 0
M  V30 8657 H 780.203 0.626082 -3.18199 0
M  V30 8658 H 779.988 -1.04481 -3.77923 0
M  V30 8659 H 781.478 -0.13663 -4.17376 0
M  V30 8660 N 781.915 1.24427 -0.967243 0
M  V30 8661 C 782.862 2.25398 -0.496419 0
M  V30 8662 C 783.832 1.59667 0.457781 0
M  V30 8663 O 785.017 1.87213 0.368246 0
M  V30 8664 C 782.157 3.44474 0.207693 0
M  V30 8665 C 781.27 4.24804 -0.785221 0
M  V30 8666 C 780.405 5.31169 -0.0572631 0
M  V30 8667 C 779.444 6.03195 -1.04027 0
M  V30 8668 N 778.581 7.01265 -0.34235 0
M  V30 8669 H 783.421 2.65039 -1.36229 0
M  V30 8670 H 780.958 1.30288 -0.682902 0
M  V30 8671 H 782.916 4.12376 0.632612 0
M  V30 8672 H 781.546 3.05672 1.03752 0
M  V30 8673 H 780.598 3.56445 -1.32858 0
M  V30 8674 H 781.91 4.74599 -1.53483 0
M  V30 8675 H 781.064 6.05205 0.425674 0
M  V30 8676 H 779.803 4.8228 0.725047 0
M  V30 8677 H 778.808 5.27964 -1.53409 0
M  V30 8678 H 780.033 6.54173 -1.82302 0
M  V30 8679 H 777.979 6.54648 0.420993 0
M  V30 8680 H 777.896 7.48939 -1.03084 0
M  V30 8681 H 779.164 7.7941 0.118634 0
M  V30 8682 N 783.393 0.737304 1.3929 0
M  V30 8683 C 784.323 0.113988 2.33222 0
M  V30 8684 C 785.304 -0.721695 1.54031 0
M  V30 8685 O 786.489 -0.666206 1.82415 0
M  V30 8686 C 783.619 -0.792319 3.38141 0
M  V30 8687 C 782.573 -0.0606178 4.27957 0
M  V30 8688 C 781.899 -1.08409 5.23595 0
M  V30 8689 C 783.199 1.09817 5.10625 0
M  V30 8690 H 784.893 0.898611 2.85596 0
M  V30 8691 H 782.439 0.433571 1.37318 0
M  V30 8692 H 784.392 -1.23793 4.02807 0
M  V30 8693 H 783.116 -1.60908 2.84211 0
M  V30 8694 H 781.775 0.365393 3.64775 0
M  V30 8695 H 781.423 -1.89449 4.6596 0
M  V30 8696 H 781.123 -0.599269 5.84536 0
M  V30 8697 H 782.647 -1.52936 5.91137 0
M  V30 8698 H 784.061 0.730892 5.68622 0
M  V30 8699 H 782.458 1.51278 5.80719 0
M  V30 8700 H 783.528 1.91878 4.45321 0
M  V30 8701 N 784.871 -1.49948 0.485112 0
M  V30 8702 C 785.801 -2.31675 -0.291364 0
M  V30 8703 C 786.782 -1.39216 -0.977383 0
M  V30 8704 O 787.967 -1.68133 -0.971855 0
M  V30 8705 C 785.097 -3.19326 -1.36558 0
M  V30 8706 C 784.051 -4.2045 -0.800359 0
M  V30 8707 C 783.377 -4.96931 -1.97391 0
M  V30 8708 C 784.677 -5.21925 0.197867 0
M  V30 8709 H 786.371 -2.96839 0.390775 0
M  V30 8710 H 783.917 -1.42749 0.189375 0
M  V30 8711 H 785.87 -3.75304 -1.91638 0
M  V30 8712 H 784.594 -2.52074 -2.07668 0
M  V30 8713 H 783.253 -3.65594 -0.271428 0
M  V30 8714 H 782.901 -4.26141 -2.67232 0
M  V30 8715 H 782.601 -5.65344 -1.60187 0
M  V30 8716 H 784.125 -5.55749 -2.52935 0
M  V30 8717 H 785.539 -5.72691 -0.264239 0
M  V30 8718 H 783.936 -5.98138 0.484908 0
M  V30 8719 H 785.006 -4.71809 1.11912 0
M  V30 8720 N 786.349 -0.21828 -1.56081 0
M  V30 8721 C 787.279 0.687922 -2.23136 0
M  V30 8722 C 788.26 1.20357 -1.202 0
M  V30 8723 O 789.445 1.24817 -1.48776 0
M  V30 8724 C 786.575 1.89762 -2.90874 0
M  V30 8725 C 785.529 1.51595 -4.00254 0
M  V30 8726 C 784.855 2.80415 -4.55271 0
M  V30 8727 C 786.155 0.708404 -5.17474 0
M  V30 8728 H 787.849 0.128854 -2.99123 0
M  V30 8729 H 785.395 0.0605354 -1.43873 0
M  V30 8730 H 787.348 2.53699 -3.36474 0
M  V30 8731 H 786.072 2.4816 -2.1233 0
M  V30 8732 H 784.731 0.900058 -3.55379 0
M  V30 8733 H 784.379 3.36951 -3.73461 0
M  V30 8734 H 784.079 2.55613 -5.2909 0
M  V30 8735 H 785.603 3.453 -5.03587 0
M  V30 8736 H 787.017 1.2514 -5.59476 0
M  V30 8737 H 785.414 0.557593 -5.97504 0
M  V30 8738 H 786.484 -0.285679 -4.84058 0
M  V30 8739 N 787.827 1.57504 0.0551401 0
M  V30 8740 C 789.074 1.88055 0.751104 0
M  V30 8741 C 789.402 0.812231 1.76729 0
M  V30 8742 O 788.657 -0.189918 1.94776 0
M  V30 8743 C 788.956 3.25311 1.48013 0
M  V30 8744 C 788.622 4.46858 0.602375 0
M  V30 8745 C 787.284 4.79847 0.360536 0
M  V30 8746 C 789.636 5.212 -0.00524047 0
M  V30 8747 C 786.964 5.84582 -0.498127 0
M  V30 8748 C 789.316 6.26844 -0.851453 0
M  V30 8749 C 787.98 6.58324 -1.103 0
M  V30 8750 H 787.25 0.688142 0.274848 0
M  V30 8751 H 789.897 1.91497 0.0114795 0
M  V30 8752 H 788.202 3.17737 2.29239 0
M  V30 8753 H 789.899 3.46189 2.02371 0
M  V30 8754 H 786.489 4.21049 0.801007 0
M  V30 8755 H 790.673 4.96013 0.168682 0
M  V30 8756 H 785.929 6.07361 -0.701594 0
M  V30 8757 H 790.103 6.83603 -1.32893 0
M  V30 8758 H 787.73 7.39304 -1.77011 0
M  V30 8759 N 789.305 -0.326896 1.54172 0
M  V30 8760 C 790.252 -1.40216 1.83325 0
M  V30 8761 C 791.222 -1.51538 0.680107 0
M  V30 8762 O 792.407 -1.66811 0.926206 0
M  V30 8763 C 789.547 -2.76626 2.0633 0
M  V30 8764 C 788.66 -2.73963 3.34019 0
M  V30 8765 C 787.795 -4.02198 3.47002 0
M  V30 8766 C 786.834 -3.93828 4.68578 0
M  V30 8767 N 785.971 -5.13787 4.78506 0
M  V30 8768 H 790.811 -1.14656 2.7506 0
M  V30 8769 H 788.348 -0.555089 1.36225 0
M  V30 8770 H 790.306 -3.55922 2.17659 0
M  V30 8771 H 788.936 -3.00503 1.1789 0
M  V30 8772 H 787.988 -1.86677 3.31445 0
M  V30 8773 H 789.3 -2.6366 4.2342 0
M  V30 8774 H 788.454 -4.89923 3.57855 0
M  V30 8775 H 787.193 -4.15302 2.55687 0
M  V30 8776 H 786.198 -3.04487 4.57786 0
M  V30 8777 H 787.423 -3.82292 5.61275 0
M  V30 8778 H 785.369 -5.27403 3.90105 0
M  V30 8779 H 785.286 -5.05807 5.61868 0
M  V30 8780 H 786.554 -6.03236 4.93686 0
M  V30 8781 N 790.784 -1.46188 -0.588786 0
M  V30 8782 C 792.012 -1.54743 -1.37339 0
M  V30 8783 C 792.427 -0.186446 -1.87877 0
M  V30 8784 O 791.784 0.815247 -1.63279 0
M  V30 8785 C 791.835 -2.54727 -2.56508 0
M  V30 8786 O 791.556 -3.85539 -2.08066 0
M  V30 8787 C 793.057 -2.73163 -3.49137 0
M  V30 8788 H 790.277 -0.523484 -0.419768 0
M  V30 8789 H 792.821 -1.91543 -0.716345 0
M  V30 8790 H 790.976 -2.20948 -3.18215 0
M  V30 8791 H 791.39 -4.39905 -2.85629 0
M  V30 8792 H 792.864 -3.47057 -4.2925 0
M  V30 8793 H 793.341 -1.79856 -4.00685 0
M  V30 8794 H 793.947 -3.08014 -2.9327 0
M  V30 8795 N 792.262 0.832906 -1.33792 0
M  V30 8796 C 793.195 1.94788 -1.18882 0
M  V30 8797 C 794.173 1.62389 -0.0828426 0
M  V30 8798 O 795.357 1.86886 -0.246175 0
M  V30 8799 C 792.484 3.28506 -0.824728 0
M  V30 8800 C 791.53 3.79872 -1.93905 0
M  V30 8801 S 792.363 4.00832 -3.55097 0
M  V30 8802 C 793.519 5.37492 -3.20708 0
M  V30 8803 H 793.752 2.07137 -2.13264 0
M  V30 8804 H 791.285 0.987362 -1.18704 0
M  V30 8805 H 793.243 4.05769 -0.621442 0
M  V30 8806 H 791.904 3.13939 0.100587 0
M  V30 8807 H 791.097 4.76647 -1.6378 0
M  V30 8808 H 790.699 3.09524 -2.09931 0
M  V30 8809 H 792.991 6.20544 -2.71903 0
M  V30 8810 H 793.934 5.72593 -4.16584 0
M  V30 8811 H 794.342 5.02529 -2.57148 0
M  V30 8812 N 793.74 1.17359 1.05189 0
M  V30 8813 C 794.672 0.848078 2.12933 0
M  V30 8814 C 795.685 -0.149521 1.62112 0
M  V30 8815 O 796.874 0.0767797 1.78335 0
M  V30 8816 C 793.974 0.243889 3.38021 0
M  V30 8817 C 793.147 1.28436 4.18118 0
M  V30 8818 C 792.206 0.697926 5.21551 0
M  V30 8819 O 791.232 1.36973 5.52473 0
M  V30 8820 N 792.434 -0.510024 5.78255 0
M  V30 8821 H 795.199 1.7754 2.41453 0
M  V30 8822 H 792.76 1.07244 1.21286 0
M  V30 8823 H 794.752 -0.161727 4.04377 0
M  V30 8824 H 793.322 -0.58722 3.07035 0
M  V30 8825 H 792.542 1.86573 3.47252 0
M  V30 8826 H 793.83 1.98617 4.68432 0
M  V30 8827 H 793.228 -1.07378 5.55416 0
M  V30 8828 H 791.785 -0.857705 6.46132 0
M  V30 8829 N 795.218 -1.23913 0.973828 0
M  V30 8830 C 796.448 -1.95911 0.655938 0
M  V30 8831 C 796.856 -1.72375 -0.779967 0
M  V30 8832 O 796.199 -1.00807 -1.5357 0
M  V30 8833 C 796.261 -3.49103 0.858324 0
M  V30 8834 C 795.925 -3.96347 2.27504 0
M  V30 8835 C 796.922 -4.05537 3.25324 0
M  V30 8836 C 794.607 -4.29509 2.60437 0
M  V30 8837 C 796.601 -4.47233 4.5416 0
M  V30 8838 C 794.288 -4.70887 3.89498 0
M  V30 8839 C 795.286 -4.79714 4.86172 0
M  V30 8840 O 794.974 -5.20166 6.1293 0
M  V30 8841 H 794.706 -0.630721 0.243244 0
M  V30 8842 H 797.26 -1.58534 1.30599 0
M  V30 8843 H 795.49 -3.86405 0.151097 0
M  V30 8844 H 797.179 -4.02311 0.538592 0
M  V30 8845 H 797.945 -3.80128 3.0121 0
M  V30 8846 H 793.824 -4.21853 1.85906 0
M  V30 8847 H 797.368 -4.54038 5.29618 0
M  V30 8848 H 793.265 -4.95744 4.1341 0
M  V30 8849 H 794.033 -5.38298 6.16586 0
M  V30 8850 N 796.696 -0.74468 -1.38897 0
M  V30 8851 C 798.107 -0.36568 -1.83084 0
M  V30 8852 C 798.458 1.10436 -1.62168 0
M  V30 8853 O 797.583 1.85281 -1.11804 0
M  V30 8854 C 798.178 -0.656946 -3.3237 0
M  V30 8855 C 796.737 -0.331329 -3.74939 0
M  V30 8856 C 795.884 -0.914661 -2.61781 0
M  V30 8857 H 798.835 -0.941551 -1.27752 0
M  V30 8858 H 798.856 0.0679546 -3.80439 0
M  V30 8859 H 798.368 -1.72693 -3.47561 0
M  V30 8860 H 796.469 0.732426 -3.6533 0
M  V30 8861 H 796.582 -0.820655 -4.72019 0
M  V30 8862 H 794.946 -0.34063 -2.52412 0
M  V30 8863 H 795.729 -1.98949 -2.79775 0
M  V30 8864 N 798.174 1.49689 -0.493057 0
M  V30 8865 C 799.121 2.28976 0.28959 0
M  V30 8866 C 800.091 1.35011 0.967536 0
M  V30 8867 O 801.276 1.63964 0.975736 0
M  V30 8868 C 798.416 3.1748 1.35279 0
M  V30 8869 C 797.529 4.26496 0.687418 0
M  V30 8870 C 796.664 5.02226 1.73038 0
M  V30 8871 C 795.703 6.03089 1.04645 0
M  V30 8872 N 794.84 6.72014 2.03325 0
M  V30 8873 H 799.68 2.954 -0.392798 0
M  V30 8874 H 797.217 1.45657 -0.205554 0
M  V30 8875 H 799.175 3.67162 1.98111 0
M  V30 8876 H 797.805 2.53057 2.00405 0
M  V30 8877 H 796.857 3.80362 -0.0540001 0
M  V30 8878 H 798.169 4.98578 0.14864 0
M  V30 8879 H 797.323 5.55737 2.43395 0
M  V30 8880 H 796.062 4.29899 2.303 0
M  V30 8881 H 795.067 5.48817 0.328606 0
M  V30 8882 H 796.292 6.77398 0.480428 0
M  V30 8883 H 794.238 6.02464 2.59564 0
M  V30 8884 H 794.155 7.40046 1.54492 0
M  V30 8885 H 795.423 7.30133 2.72995 0
M  V30 8886 N 799.652 0.226554 1.55963 0
M  V30 8887 C 800.877 -0.411527 2.03276 0
M  V30 8888 C 801.302 -1.52206 1.10521 0
M  V30 8889 O 800.66 -1.81054 0.0943217 0
M  V30 8890 C 800.708 -0.915694 3.4878 0
M  V30 8891 O 799.812 -2.02672 3.59163 0
M  V30 8892 H 799.153 -0.0924907 0.657527 0
M  V30 8893 H 801.683 0.346656 2.01642 0
M  V30 8894 H 801.693 -1.22421 3.892 0
M  V30 8895 H 800.368 -0.102915 4.15773 0
M  V30 8896 H 798.945 -1.72445 3.30632 0
M  V30 8897 N 801.13 -1.57531 -0.0467866 0
M  V30 8898 C 802.379 -1.87632 -0.740069 0
M  V30 8899 C 802.692 -0.822691 -1.77457 0
M  V30 8900 O 803.898 -1.01235 -2.5192 0
M  V30 8901 C 802.354 -3.32917 -1.36727 0
M  V30 8902 C 801.962 -4.46469 -0.370035 0
M  V30 8903 C 803.706 -3.72189 -2.04146 0
M  V30 8904 C 801.613 -5.82806 -1.00457 0
M  V30 8905 H 800.543 -0.70002 -0.280158 0
M  V30 8906 H 803.194 -1.83499 0.00607151 0
M  V30 8907 H 801.576 -3.31739 -2.16252 0
M  V30 8908 H 802.75 -4.59085 0.397217 0
M  V30 8909 H 801.065 -4.15914 0.201079 0
M  V30 8910 H 803.662 -4.71357 -2.52441 0
M  V30 8911 H 804.005 -3.03268 -2.85192 0
M  V30 8912 H 804.538 -3.75465 -1.3142 0
M  V30 8913 H 801.277 -6.55083 -0.233907 0
M  V30 8914 H 800.797 -5.73944 -1.74209 0
M  V30 8915 H 802.476 -6.28961 -1.51713 0
M  V30 8916 N 802.608 0.318715 -1.54344 0
M  V30 8917 C 803.833 1.07987 -1.77069 0
M  V30 8918 C 804.258 1.80766 -0.520117 0
M  V30 8919 O 803.616 1.73424 0.528566 0
M  V30 8920 C 803.664 2.04987 -2.96669 0
M  V30 8921 O 802.768 3.12974 -2.68554 0
M  V30 8922 H 802.109 0.311109 -0.586606 0
M  V30 8923 H 804.639 0.361533 -2.0138 0
M  V30 8924 H 804.649 2.47771 -3.2415 0
M  V30 8925 H 803.324 1.51417 -3.87357 0
M  V30 8926 H 801.901 2.74831 -2.52037 0
M  V30 8927 N 804.086 1.46499 0.581025 0
M  V30 8928 C 805.016 1.60052 1.70017 0
M  V30 8929 C 805.997 0.450788 1.64018 0
M  V30 8930 O 807.182 0.677237 1.82009 0
M  V30 8931 C 804.312 1.5921 3.08658 0
M  V30 8932 C 803.266 2.73169 3.29488 0
M  V30 8933 C 802.592 2.57389 4.68674 0
M  V30 8934 C 803.892 4.14978 3.1716 0
M  V30 8935 H 805.586 2.53735 1.5893 0
M  V30 8936 H 803.132 1.22113 0.763173 0
M  V30 8937 H 805.085 1.67285 3.86773 0
M  V30 8938 H 803.809 0.620718 3.20647 0
M  V30 8939 H 802.468 2.64566 2.53773 0
M  V30 8940 H 802.116 1.58331 4.77431 0
M  V30 8941 H 801.816 3.33826 4.83564 0
M  V30 8942 H 803.34 2.67358 5.48956 0
M  V30 8943 H 804.754 4.24684 3.85119 0
M  V30 8944 H 803.151 4.92016 3.4357 0
M  V30 8945 H 804.221 4.35016 2.14218 0
M  V30 8946 N 805.565 -0.825799 1.34232 0
M  V30 8947 C 806.842 -1.56741 1.17011 0
M  V30 8948 C 807.222 -2.09512 -0.258425 0
M  V30 8949 O 806.57 -1.90664 -1.25935 0
M  V30 8950 C 806.78 -2.69104 2.22225 0
M  V30 8951 C 808.128 -3.37947 2.57055 0
M  V30 8952 O 809.152 -2.79358 2.20992 0
M  V30 8953 O 808.011 -4.43743 3.1899 0
M  V30 8954 H 805.105 -0.69163 0.453405 0
M  V30 8955 H 807.651 -0.867422 1.45856 0
M  V30 8956 H 806.423 -2.27844 3.18124 0
M  V30 8957 H 806.046 -3.46756 1.94541 0
M  V30 8958 N 807.043 -1.17915 -1.04565 0
M  V30 8959 C 808.271 -0.99616 -1.8134 0
M  V30 8960 C 808.686 0.455509 -1.83223 0
M  V30 8961 O 808.043 1.31636 -1.26405 0
M  V30 8962 C 808.094 -1.53758 -3.27171 0
M  V30 8963 O 807.815 -2.93241 -3.25486 0
M  V30 8964 C 809.316 -1.40007 -4.2061 0
M  V30 8965 H 806.536 -0.352055 -0.571225 0
M  V30 8966 H 809.08 -1.56349 -1.31815 0
M  V30 8967 H 807.235 -1.01213 -3.73945 0
M  V30 8968 H 807.649 -3.18392 -4.16805 0
M  V30 8969 H 809.123 -1.82695 -5.2089 0
M  V30 8970 H 809.6 -0.348054 -4.37819 0
M  V30 8971 H 810.206 -1.916 -3.79697 0
M  V30 8972 N 808.521 1.23394 -0.980386 0
M  V30 8973 C 809.751 1.9556 -0.666319 0
M  V30 8974 C 810.159 1.72786 0.770815 0
M  V30 8975 O 809.502 1.0162 1.53033 0
M  V30 8976 C 809.564 3.48643 -0.876825 0
M  V30 8977 C 809.228 3.95135 -2.29602 0
M  V30 8978 C 810.225 4.03806 -3.2747 0
M  V30 8979 C 807.91 4.28122 -2.62711 0
M  V30 8980 C 809.904 4.44818 -4.56526 0
M  V30 8981 C 807.591 4.68814 -3.9199 0
M  V30 8982 C 808.589 4.77129 -4.88709 0
M  V30 8983 O 808.277 5.16908 -6.15679 0
M  V30 8984 H 808.009 0.629422 -0.246585 0
M  V30 8985 H 810.563 1.57839 -1.31438 0
M  V30 8986 H 808.793 3.86319 -0.171587 0
M  V30 8987 H 810.482 4.0202 -0.55992 0
M  V30 8988 H 811.248 3.78526 -3.03222 0
M  V30 8989 H 807.127 4.20861 -1.8814 0
M  V30 8990 H 810.671 4.51223 -5.32018 0
M  V30 8991 H 806.568 4.93545 -4.16033 0
M  V30 8992 H 807.336 5.3502 -6.19432 0
M  V30 8993 N 809.999 0.752036 1.385 0
M  V30 8994 C 811.248 0.304294 1.99391 0
M  V30 8995 C 811.561 -1.11982 1.60373 0
M  V30 8996 O 812.767 -1.66795 2.14223 0
M  V30 8997 C 811.223 0.493101 3.56506 0
M  V30 8998 C 810.831 1.9262 4.04477 0
M  V30 8999 C 812.575 0.107994 4.24363 0
M  V30 9000 C 810.482 2.06365 5.54227 0
M  V30 9001 H 809.412 0.110024 0.745929 0
M  V30 9002 H 812.063 0.928355 1.58284 0
M  V30 9003 H 810.445 -0.20012 3.95494 0
M  V30 9004 H 811.619 2.65276 3.76783 0
M  V30 9005 H 809.934 2.26608 3.49339 0
M  V30 9006 H 812.531 0.189474 5.34364 0
M  V30 9007 H 812.874 -0.939165 4.05568 0
M  V30 9008 H 813.407 0.753011 3.90608 0
M  V30 9009 H 810.146 3.0933 5.77923 0
M  V30 9010 H 809.666 1.38167 5.83669 0
M  V30 9011 H 811.345 1.85286 6.19902 0
M  V30 9012 N 811.477 -1.49425 0.500989 0
M  V30 9013 C 812.387 -2.32899 -0.282011 0
M  V30 9014 C 813.403 -1.44632 -0.967346 0
M  V30 9015 O 814.579 -1.77654 -0.94873 0
M  V30 9016 C 811.644 -3.20069 -1.33253 0
M  V30 9017 C 810.705 -4.24186 -0.660636 0
M  V30 9018 C 809.938 -5.07191 -1.6611 0
M  V30 9019 O 810.161 -4.91712 -2.89094 0
M  V30 9020 O 809.095 -5.8948 -1.21643 0
M  V30 9021 H 812.921 -3.01038 0.401224 0
M  V30 9022 H 810.506 -1.47079 0.262323 0
M  V30 9023 H 812.388 -3.74071 -1.94033 0
M  V30 9024 H 811.063 -2.54625 -1.9987 0
M  V30 9025 H 809.97 -3.74098 -0.0130959 0
M  V30 9026 H 811.303 -4.92186 -0.0369179 0
M  V30 9027 N 812.955 -0.234822 -1.55841 0
M  V30 9028 C 813.905 0.68346 -2.17515 0
M  V30 9029 C 814.889 1.14798 -1.1274 0
M  V30 9030 O 816.081 1.09976 -1.38688 0
M  V30 9031 C 813.21 1.88551 -2.86886 0
M  V30 9032 C 812.296 1.44006 -3.98903 0
M  V30 9033 N 812.687 0.708034 -5.0082 0
M  V30 9034 C 810.985 1.7263 -4.11236 0
M  V30 9035 C 811.686 0.479036 -5.79724 0
M  V30 9036 N 810.662 1.03968 -5.33565 0
M  V30 9037 H 814.464 0.115897 -2.93671 0
M  V30 9038 H 811.978 -0.0366273 -1.62359 0
M  V30 9039 H 813.975 2.55425 -3.2949 0
M  V30 9040 H 812.635 2.45742 -2.12229 0
M  V30 9041 H 813.646 0.359363 -5.16652 0
M  V30 9042 H 810.323 2.31046 -3.47741 0
M  V30 9043 H 811.713 -0.104514 -6.71819 0
M  V30 9044 N 814.433 1.57553 0.0384317 0
M  V30 9045 C 815.366 2.01307 1.07475 0
M  V30 9046 C 816.344 0.895717 1.35704 0
M  V30 9047 O 817.528 1.16079 1.48519 0
M  V30 9048 C 814.655 2.37817 2.41165 0
M  V30 9049 C 813.701 3.599 2.28855 0
M  V30 9050 S 814.534 5.09418 1.65086 0
M  V30 9051 C 815.69 5.49162 3.00286 0
M  V30 9052 H 815.923 2.88892 0.702034 0
M  V30 9053 H 813.456 1.52394 0.248103 0
M  V30 9054 H 815.414 2.59524 3.18053 0
M  V30 9055 H 814.075 1.507 2.75587 0
M  V30 9056 H 813.268 3.83071 3.27525 0
M  V30 9057 H 812.87 3.37996 1.60109 0
M  V30 9058 H 815.162 5.49274 3.96617 0
M  V30 9059 H 816.105 6.49586 2.81858 0
M  V30 9060 H 816.513 4.76653 3.02427 0
M  V30 9061 N 815.911 -0.310526 1.54511 0
M  V30 9062 C 816.858 -1.38264 1.84802 0
M  V30 9063 C 817.828 -1.50808 0.696141 0
M  V30 9064 O 819.013 -1.6582 0.943846 0
M  V30 9065 C 816.153 -2.74422 2.09252 0
M  V30 9066 C 815.266 -2.70405 3.36906 0
M  V30 9067 C 814.401 -3.98495 3.51248 0
M  V30 9068 C 813.44 -3.88836 4.72729 0
M  V30 9069 N 812.577 -5.08683 4.83928 0
M  V30 9070 H 817.417 -1.11732 2.76261 0
M  V30 9071 H 814.954 -0.540609 1.36806 0
M  V30 9072 H 816.912 -3.53593 2.21422 0
M  V30 9073 H 815.542 -2.99235 1.2107 0
M  V30 9074 H 814.594 -1.83151 3.33406 0
M  V30 9075 H 815.906 -2.59155 4.26193 0
M  V30 9076 H 815.06 -4.861 3.63031 0
M  V30 9077 H 813.799 -4.12567 2.60077 0
M  V30 9078 H 812.804 -2.99615 4.60989 0
M  V30 9079 H 814.029 -3.76318 5.65298 0
M  V30 9080 H 811.975 -5.23236 3.95677 0
M  V30 9081 H 811.892 -4.99819 5.67201 0
M  V30 9082 H 813.16 -5.97966 5.00057 0
M  V30 9083 N 817.389 -1.46805 -0.573248 0
M  V30 9084 C 818.8 -1.46655 -1.15539 0
M  V30 9085 C 819.151 -0.2125 -1.95046 0
M  V30 9086 O 818.276 0.683759 -2.05314 0
M  V30 9087 C 818.871 -2.65711 -2.10198 0
M  V30 9088 C 817.43 -2.68572 -2.63716 0
M  V30 9089 C 816.577 -2.39498 -1.39772 0
M  V30 9090 H 819.528 -1.54547 -0.36068 0
M  V30 9091 H 819.549 -2.41768 -2.93817 0
M  V30 9092 H 819.061 -3.56967 -1.52303 0
M  V30 9093 H 817.162 -1.81414 -3.25453 0
M  V30 9094 H 817.275 -3.68809 -3.05805 0
M  V30 9095 H 815.639 -1.89749 -1.69904 0
M  V30 9096 H 816.422 -3.32942 -0.836943 0
M  V30 9097 N 818.867 0.818669 -1.34668 0
M  V30 9098 C 820.144 1.56118 -1.17841 0
M  V30 9099 C 820.524 2.09646 0.24731 0
M  V30 9100 O 819.872 1.91329 1.24922 0
M  V30 9101 C 820.082 2.67922 -2.23649 0
M  V30 9102 C 821.43 3.36579 -2.58843 0
M  V30 9103 O 822.454 2.78182 -2.22471 0
M  V30 9104 O 821.313 4.42045 -3.21339 0
M  V30 9105 H 818.407 0.689216 -0.457067 0
M  V30 9106 H 820.953 0.859674 -1.46314 0
M  V30 9107 H 819.725 2.26153 -3.19328 0
M  V30 9108 H 819.348 3.45719 -1.96377 0
M  V30 9109 N 820.346 1.18468 1.03938 0
M  V30 9110 C 821.278 0.870615 2.12021 0
M  V30 9111 C 822.291 -0.132318 1.62261 0
M  V30 9112 O 823.48 0.0956901 1.78243 0
M  V30 9113 C 820.58 0.279727 3.37744 0
M  V30 9114 C 819.753 1.32863 4.16733 0
M  V30 9115 C 818.812 0.753204 5.20781 0
M  V30 9116 O 817.838 1.42825 5.5099 0
M  V30 9117 N 819.04 -0.448664 5.78764 0
M  V30 9118 H 821.805 1.80091 2.39556 0
M  V30 9119 H 819.366 1.08524 1.20142 0
M  V30 9120 H 821.358 -0.118829 4.04526 0
M  V30 9121 H 819.928 -0.554621 3.07641 0
M  V30 9122 H 819.148 1.90245 3.45254 0
M  V30 9123 H 820.436 2.03574 4.66299 0
M  V30 9124 H 819.834 -1.01481 5.56523 0
M  V30 9125 H 818.391 -0.789125 6.47005 0
M  V30 9126 N 821.824 -1.22873 0.986916 0
M  V30 9127 C 822.771 -2.2458 0.532215 0
M  V30 9128 C 823.741 -1.60375 -0.432322 0
M  V30 9129 O 824.926 -1.87775 -0.338416 0
M  V30 9130 C 822.066 -3.44761 -0.152864 0
M  V30 9131 C 821.179 -4.23501 0.852704 0
M  V30 9132 C 820.314 -5.31011 0.14176 0
M  V30 9133 C 819.353 -6.01464 1.1361 0
M  V30 9134 N 818.49 -7.00631 0.453871 0
M  V30 9135 H 823.33 -2.62838 1.40428 0
M  V30 9136 H 820.867 -1.29185 0.703543 0
M  V30 9137 H 822.825 -4.1333 -0.566926 0
M  V30 9138 H 821.455 -3.07284 -0.988756 0
M  V30 9139 H 820.507 -3.54286 1.38512 0
M  V30 9140 H 821.819 -4.72097 1.61014 0
M  V30 9141 H 820.973 -6.05805 -0.329337 0
M  V30 9142 H 819.712 -4.83373 -0.648229 0
M  V30 9143 H 818.717 -5.25456 1.61789 0
M  V30 9144 H 819.942 -6.5119 1.92686 0
M  V30 9145 H 817.888 -6.55235 -0.316791 0
M  V30 9146 H 817.805 -7.47204 1.14986 0
M  V30 9147 H 819.073 -7.795 0.00537823 0
M  V30 9148 N 823.302 -0.75937 -1.38099 0
M  V30 9149 C 824.549 -0.318113 -1.99986 0
M  V30 9150 C 824.877 1.10184 -1.6028 0
M  V30 9151 O 824.132 1.77015 -0.834524 0
M  V30 9152 C 824.431 -0.394999 -3.55211 0
M  V30 9153 C 824.097 -1.77143 -4.14646 0
M  V30 9154 C 822.759 -2.14811 -4.30592 0
M  V30 9155 C 825.111 -2.67407 -4.47373 0
M  V30 9156 C 822.439 -3.42203 -4.76565 0
M  V30 9157 C 824.791 -3.94196 -4.94765 0
M  V30 9158 C 823.455 -4.31925 -5.08918 0
M  V30 9159 H 822.725 -0.116406 -0.7318 0
M  V30 9160 H 825.372 -0.97098 -1.65058 0
M  V30 9161 H 823.677 0.341426 -3.9031 0
M  V30 9162 H 825.374 -0.0350722 -4.00985 0
M  V30 9163 H 821.964 -1.46864 -4.02652 0
M  V30 9164 H 826.148 -2.39569 -4.3465 0
M  V30 9165 H 821.404 -3.71346 -4.85708 0
M  V30 9166 H 825.578 -4.64276 -5.19057 0
M  V30 9167 H 823.205 -5.30699 -5.443 0
M  V30 9168 N 824.78 1.49157 -0.508906 0
M  V30 9169 C 826.029 2.0167 0.0346854 0
M  V30 9170 C 826.342 1.39302 1.37311 0
M  V30 9171 O 827.548 1.83189 2.00385 0
M  V30 9172 C 826.004 3.59725 0.112261 0
M  V30 9173 C 825.612 4.31069 -1.21999 0
M  V30 9174 C 827.356 4.20155 0.605798 0
M  V30 9175 C 825.263 5.81001 -1.10415 0
M  V30 9176 H 824.193 0.753814 0.0167355 0
M  V30 9177 H 826.844 1.7162 -0.649518 0
M  V30 9178 H 825.226 3.86525 0.861087 0
M  V30 9179 H 826.4 4.15962 -1.98273 0
M  V30 9180 H 824.715 3.82418 -1.64759 0
M  V30 9181 H 827.312 5.29964 0.710102 0
M  V30 9182 H 827.655 3.84051 1.60656 0
M  V30 9183 H 828.188 3.97705 -0.0867239 0
M  V30 9184 H 824.927 6.21643 -2.07941 0
M  V30 9185 H 824.447 5.9858 -0.382428 0
M  V30 9186 H 826.126 6.42207 -0.786116 0
M  V30 9187 N 826.258 0.243083 1.55714 0
M  V30 9188 C 827.488 -0.38641 2.02954 0
M  V30 9189 C 827.896 -1.52358 1.12177 0
M  V30 9190 O 827.239 -1.83255 0.127853 0
M  V30 9191 C 827.301 -0.959388 3.46462 0
M  V30 9192 C 826.965 0.0450546 4.56978 0
M  V30 9193 C 827.962 0.853224 5.12851 0
M  V30 9194 C 825.647 0.170041 5.02012 0
M  V30 9195 C 827.641 1.77288 6.12248 0
M  V30 9196 C 825.328 1.0932 6.01242 0
M  V30 9197 C 826.326 1.89315 6.56238 0
M  V30 9198 O 826.014 2.80075 7.53534 0
M  V30 9199 H 825.746 -0.0964333 0.669086 0
M  V30 9200 H 828.3 0.363399 2.0216 0
M  V30 9201 H 826.53 -1.75869 3.44394 0
M  V30 9202 H 828.219 -1.49856 3.77224 0
M  V30 9203 H 828.985 0.767229 4.78893 0
M  V30 9204 H 824.864 -0.442528 4.58871 0
M  V30 9205 H 828.408 2.39768 6.55101 0
M  V30 9206 H 824.305 1.18013 6.3462 0
M  V30 9207 H 825.073 2.74393 7.71136 0
M  V30 9208 N 827.736 -1.57571 -0.0300757 0
M  V30 9209 C 828.966 -1.93204 -0.731828 0
M  V30 9210 C 829.374 -0.841156 -1.69473 0
M  V30 9211 O 828.717 0.191231 -1.82702 0
M  V30 9212 C 828.779 -3.2463 -1.54453 0
M  V30 9213 C 828.443 -4.50862 -0.746507 0
M  V30 9214 C 829.44 -5.19879 -0.0472309 0
M  V30 9215 C 827.125 -4.9738 -0.701347 0
M  V30 9216 C 829.119 -6.33692 0.686518 0
M  V30 9217 C 826.806 -6.11089 0.036148 0
M  V30 9218 C 827.804 -6.791 0.728841 0
M  V30 9219 O 827.492 -7.90635 1.45436 0
M  V30 9220 H 827.224 -0.6423 -0.210775 0
M  V30 9221 H 829.778 -2.05398 0.00804194 0
M  V30 9222 H 828.008 -3.0876 -2.32818 0
M  V30 9223 H 829.697 -3.45597 -2.1288 0
M  V30 9224 H 830.463 -4.84945 -0.0731582 0
M  V30 9225 H 826.342 -4.44288 -1.23001 0
M  V30 9226 H 829.886 -6.86711 1.22773 0
M  V30 9227 H 825.783 -6.45468 0.064002 0
M  V30 9228 H 826.551 -8.06988 1.36794 0
M  V30 9229 N 829.214 0.302327 -1.54673 0
M  V30 9230 C 830.177 1.35592 -1.8479 0
M  V30 9231 C 831.177 1.43743 -0.72073 0
M  V30 9232 O 832.367 1.43402 -0.989017 0
M  V30 9233 C 829.499 2.74091 -2.02699 0
M  V30 9234 H 830.692 1.10132 -2.78946 0
M  V30 9235 H 828.245 0.538926 -1.46715 0
M  V30 9236 H 828.98 3.04775 -1.10826 0
M  V30 9237 H 828.765 2.69565 -2.8474 0
M  V30 9238 H 830.255 3.50272 -2.27374 0
M  V30 9239 N 830.692 1.47107 0.565454 0
M  V30 9240 C 831.917 1.57153 1.35343 0
M  V30 9241 C 832.342 0.219247 1.86818 0
M  V30 9242 O 831.7 -0.803539 1.62521 0
M  V30 9243 C 831.748 2.59387 2.50501 0
M  V30 9244 O 830.852 2.14086 3.52478 0
M  V30 9245 H 830.193 0.528209 0.402357 0
M  V30 9246 H 832.723 1.92821 0.684189 0
M  V30 9247 H 832.733 2.79546 2.97184 0
M  V30 9248 H 831.408 3.57579 2.12391 0
M  V30 9249 H 829.985 2.03991 3.12157 0
M  V30 9250 N 832.17 -0.811516 1.35101 0
M  V30 9251 C 833.418 -1.56525 1.27845 0
M  V30 9252 C 833.739 -1.94435 -0.14829 0
M  V30 9253 O 833.009 -1.63203 -1.08359 0
M  V30 9254 H 831.589 -0.580433 0.47022 0
M  V30 9255 H 834.251 -0.968277 1.69146 0
M  V30 9256 H 833.347 -2.48291 1.89097 0
M  V30 9257 N 833.648 -1.19017 -1.03309 0
M  V30 9258 C 834.925 -0.899659 -1.73682 0
M  V30 9259 C 835.305 0.595677 -2.02521 0
M  V30 9260 O 834.653 1.55263 -1.67648 0
M  V30 9261 C 834.863 -1.75508 -3.01659 0
M  V30 9262 C 836.211 -1.98679 -3.75249 0
M  V30 9263 O 837.235 -1.72624 -3.11576 0
M  V30 9264 O 836.094 -2.42587 -4.89708 0
M  V30 9265 H 833.188 -0.334903 -0.756154 0
M  V30 9266 H 835.734 -1.29809 -1.09305 0
M  V30 9267 H 834.506 -2.7684 -2.76542 0
M  V30 9268 H 834.129 -1.35565 -3.73775 0
M  V30 9269 N 835.127 1.22348 -0.993418 0
M  V30 9270 C 836.352 1.95666 -0.687727 0
M  V30 9271 C 836.777 1.72883 0.741161 0
M  V30 9272 O 836.135 1.00837 1.50671 0
M  V30 9273 C 836.183 3.46457 -0.99998 0
M  V30 9274 O 835.287 4.12281 -0.0989386 0
M  V30 9275 H 834.628 0.612102 -0.257346 0
M  V30 9276 H 837.158 1.55428 -1.33054 0
M  V30 9277 H 837.168 3.96976 -0.942035 0
M  V30 9278 H 835.843 3.62365 -2.04118 0
M  V30 9279 H 834.42 3.72295 -0.212413 0
M  V30 9280 N 836.605 0.766683 1.37694 0
M  V30 9281 C 837.835 0.339446 2.03792 0
M  V30 9282 C 838.243 -1.04153 1.57952 0
M  V30 9283 O 837.586 -1.67521 0.753826 0
M  V30 9284 C 837.648 0.29822 3.58261 0
M  V30 9285 C 837.312 1.62293 4.27212 0
M  V30 9286 C 838.309 2.57447 4.51682 0
M  V30 9287 C 835.994 1.89597 4.65143 0
M  V30 9288 C 837.988 3.78117 5.13134 0
M  V30 9289 C 835.675 3.10538 5.26317 0
M  V30 9290 C 836.673 4.04617 5.50249 0
M  V30 9291 O 836.361 5.23429 6.10145 0
M  V30 9292 H 836.093 0.140952 0.661142 0
M  V30 9293 H 838.647 1.04022 1.77111 0
M  V30 9294 H 836.877 -0.458897 3.83967 0
M  V30 9295 H 838.566 -0.101263 4.05774 0
M  V30 9296 H 839.332 2.37633 4.22795 0
M  V30 9297 H 835.211 1.17199 4.45854 0
M  V30 9298 H 838.755 4.51563 5.3173 0
M  V30 9299 H 834.652 3.3024 5.54628 0
M  V30 9300 H 835.42 5.24187 6.28626 0
M  V30 9301 N 838.083 -1.48885 0.516809 0
M  V30 9302 C 838.993 -2.33185 -0.257293 0
M  V30 9303 C 840.009 -1.4565 -0.951952 0
M  V30 9304 O 841.185 -1.78651 -0.929834 0
M  V30 9305 C 838.25 -3.21465 -1.29851 0
M  V30 9306 C 837.311 -4.24863 -0.615608 0
M  V30 9307 C 836.544 -5.08925 -1.60722 0
M  V30 9308 O 836.767 -4.9475 -2.83863 0
M  V30 9309 O 835.701 -5.90737 -1.15384 0
M  V30 9310 H 839.527 -3.00596 0.433131 0
M  V30 9311 H 837.112 -1.46792 0.277908 0
M  V30 9312 H 838.994 -3.76108 -1.90055 0
M  V30 9313 H 837.669 -2.5673 -1.97158 0
M  V30 9314 H 836.576 -3.74091 0.0265829 0
M  V30 9315 H 837.909 -4.92198 0.0152871 0
M  V30 9316 N 839.561 -0.251338 -1.55583 0
M  V30 9317 C 840.791 0.375642 -2.03156 0
M  V30 9318 C 841.199 1.51761 -1.12983 0
M  V30 9319 O 840.542 1.83184 -0.13757 0
M  V30 9320 C 840.604 0.941001 -3.46966 0
M  V30 9321 C 840.268 -0.0692886 -4.56947 0
M  V30 9322 C 841.265 -0.88041 -5.12391 0
M  V30 9323 C 838.95 -0.196661 -5.01915 0
M  V30 9324 C 840.944 -1.80532 -6.11299 0
M  V30 9325 C 838.631 -1.12507 -6.00654 0
M  V30 9326 C 839.629 -1.92792 -6.55225 0
M  V30 9327 O 839.317 -2.84067 -7.52038 0
M  V30 9328 H 839.049 0.0928836 -0.669588 0
M  V30 9329 H 841.603 -0.374115 -2.01964 0
M  V30 9330 H 839.833 1.7404 -3.45322 0
M  V30 9331 H 841.522 1.47853 -3.78014 0
M  V30 9332 H 842.288 -0.792615 -4.78479 0
M  V30 9333 H 838.167 0.418187 -4.59099 0
M  V30 9334 H 841.711 -2.43239 -6.5382 0
M  V30 9335 H 837.608 -1.21377 -6.33986 0
M  V30 9336 H 838.376 -2.78479 -7.6967 0
M  V30 9337 N 841.039 1.57585 0.0217189 0
M  V30 9338 C 841.969 2.10073 1.01939 0
M  V30 9339 C 842.95 1.0049 1.37243 0
M  V30 9340 O 844.135 1.28055 1.45999 0
M  V30 9341 C 841.265 2.58618 2.31806 0
M  V30 9342 C 840.219 3.72531 2.10724 0
M  V30 9343 C 839.545 4.07309 3.46415 0
M  V30 9344 C 840.845 5.00672 1.48743 0
M  V30 9345 H 842.539 2.9368 0.582432 0
M  V30 9346 H 840.085 1.41277 0.278715 0
M  V30 9347 H 842.038 2.9396 3.01936 0
M  V30 9348 H 840.762 1.72104 2.77575 0
M  V30 9349 H 839.421 3.37549 1.43025 0
M  V30 9350 H 839.069 3.17851 3.89846 0
M  V30 9351 H 838.769 4.84042 3.33132 0
M  V30 9352 H 840.293 4.45192 4.17895 0
M  V30 9353 H 841.707 5.33925 2.088 0
M  V30 9354 H 840.104 5.82065 1.46013 0
M  V30 9355 H 841.174 4.82769 0.45408 0
M  V30 9356 N 842.517 -0.29412 1.54831 0
M  V30 9357 C 843.48 -1.3461 1.85507 0
M  V30 9358 C 844.48 -1.43359 0.728343 0
M  V30 9359 O 845.67 -1.42875 0.996609 0
M  V30 9360 C 842.802 -2.73012 2.0415 0
M  V30 9361 H 843.995 -1.08651 2.79526 0
M  V30 9362 H 841.548 -0.531138 1.46999 0
M  V30 9363 H 842.283 -3.04183 1.12441 0
M  V30 9364 H 842.068 -2.68051 2.86166 0
M  V30 9365 H 843.558 -3.49061 2.29229 0
M  V30 9366 N 843.995 -1.47404 -0.557645 0
M  V30 9367 C 844.942 -1.59859 -1.66475 0
M  V30 9368 C 845.912 -0.441644 -1.60121 0
M  V30 9369 O 847.097 -0.661641 -1.78961 0
M  V30 9370 C 844.237 -1.61843 -3.04797 0
M  V30 9371 C 843.35 -2.8845 -3.2159 0
M  V30 9372 C 842.485 -2.81773 -4.50308 0
M  V30 9373 C 841.524 -4.03208 -4.60532 0
M  V30 9374 N 840.661 -3.94769 -5.80604 0
M  V30 9375 H 845.501 -2.54415 -1.55168 0
M  V30 9376 H 843.038 -1.26194 -0.755876 0
M  V30 9377 H 844.996 -1.60976 -3.84893 0
M  V30 9378 H 843.626 -0.707997 -3.1494 0
M  V30 9379 H 842.678 -2.99186 -2.34929 0
M  V30 9380 H 843.99 -3.78379 -3.25009 0
M  V30 9381 H 843.144 -2.79153 -5.38663 0
M  V30 9382 H 841.883 -1.89527 -4.49367 0
M  V30 9383 H 840.888 -4.06133 -3.70589 0
M  V30 9384 H 842.113 -4.9658 -4.63233 0
M  V30 9385 H 840.059 -3.05326 -5.80613 0
M  V30 9386 H 839.976 -4.78375 -5.854 0
M  V30 9387 H 841.244 -3.96165 -6.71322 0
M  V30 9388 N 845.473 0.80434 -1.35529 0
M  V30 9389 C 846.722 1.55665 -1.28263 0
M  V30 9390 C 847.035 1.95096 0.140352 0
M  V30 9391 O 848.241 2.69422 0.335303 0
M  V30 9392 C 846.697 2.80935 -2.24952 0
M  V30 9393 C 846.305 2.48733 -3.72607 0
M  V30 9394 C 848.049 3.5894 -2.26632 0
M  V30 9395 C 845.956 3.70308 -4.61114 0
M  V30 9396 H 844.886 0.584301 -0.476559 0
M  V30 9397 H 847.537 0.88395 -1.60806 0
M  V30 9398 H 845.919 3.49927 -1.85383 0
M  V30 9399 H 847.093 1.87733 -4.20824 0
M  V30 9400 H 845.408 1.83969 -3.73557 0
M  V30 9401 H 848.005 4.49244 -2.89973 0
M  V30 9402 H 848.348 3.96433 -1.27069 0
M  V30 9403 H 848.881 2.96912 -2.64742 0
M  V30 9404 H 845.62 3.37922 -5.61684 0
M  V30 9405 H 845.14 4.30526 -4.17621 0
M  V30 9406 H 846.819 4.37511 -4.76648 0
M  V30 9407 N 846.951 1.19563 1.02676 0
M  V30 9408 C 848.362 1.00158 1.57561 0
M  V30 9409 C 848.713 -0.444922 1.91089 0
M  V30 9410 O 847.838 -1.32466 1.71119 0
M  V30 9411 C 848.433 1.81181 2.86284 0
M  V30 9412 C 846.992 1.66171 3.37734 0
M  V30 9413 C 846.139 1.7975 2.11152 0
M  V30 9414 H 849.09 1.33904 0.85179 0
M  V30 9415 H 849.111 1.30916 3.57269 0
M  V30 9416 H 848.623 2.86454 2.6185 0
M  V30 9417 H 846.724 0.634927 3.6715 0
M  V30 9418 H 846.837 2.46832 4.10622 0
M  V30 9419 H 845.201 1.22833 2.23123 0
M  V30 9420 H 845.984 2.86487 1.89157 0
M  V30 9421 N 848.429 -1.21819 0.999893 0
M  V30 9422 C 849.361 -2.23356 0.514256 0
M  V30 9423 C 850.374 -1.5795 -0.394413 0
M  V30 9424 O 851.563 -1.77427 -0.195428 0
M  V30 9425 C 848.663 -3.37797 -0.273207 0
M  V30 9426 C 847.836 -4.32791 0.633293 0
M  V30 9427 C 846.895 -5.26098 -0.103673 0
M  V30 9428 O 845.921 -5.66881 0.513269 0
M  V30 9429 N 847.123 -5.63764 -1.38383 0
M  V30 9430 H 849.888 -2.65653 1.3874 0
M  V30 9431 H 847.449 -1.3619 0.875431 0
M  V30 9432 H 849.441 -3.97209 -0.775053 0
M  V30 9433 H 848.011 -2.94527 -1.0475 0
M  V30 9434 H 847.231 -3.71595 1.31571 0
M  V30 9435 H 848.519 -4.93196 1.25039 0
M  V30 9436 H 847.917 -5.32614 -1.90627 0
M  V30 9437 H 846.474 -6.25562 -1.83073 0
M  V30 9438 N 849.908 -0.773975 -1.37286 0
M  V30 9439 C 850.838 -0.175782 -2.32837 0
M  V30 9440 C 851.819 0.680603 -1.5589 0
M  V30 9441 O 853.004 0.617607 -1.84117 0
M  V30 9442 C 850.134 0.702388 -3.40123 0
M  V30 9443 C 849.088 -0.0528687 -4.27967 0
M  V30 9444 C 848.414 0.944891 -5.26285 0
M  V30 9445 C 849.714 -1.23316 -5.07534 0
M  V30 9446 H 851.408 -0.974016 -2.83114 0
M  V30 9447 H 848.954 -0.469826 -1.3612 0
M  V30 9448 H 850.907 1.13069 -4.05947 0
M  V30 9449 H 849.631 1.53316 -2.88378 0
M  V30 9450 H 848.29 -0.461978 -3.63678 0
M  V30 9451 H 847.938 1.77028 -4.70819 0
M  V30 9452 H 847.638 0.444079 -5.8592 0
M  V30 9453 H 849.162 1.37209 -5.94984 0
M  V30 9454 H 850.576 -0.881395 -5.66484 0
M  V30 9455 H 848.973 -1.66621 -5.76504 0
M  V30 9456 H 850.043 -2.03617 -4.40077 0
M  V30 9457 N 851.386 1.48609 -0.524698 0
M  V30 9458 C 852.318 2.27508 0.278 0
M  V30 9459 C 853.331 1.35042 0.909258 0
M  V30 9460 O 854.52 1.60136 0.788592 0
M  V30 9461 C 851.62 3.08247 1.40843 0
M  V30 9462 C 850.793 4.28455 0.880083 0
M  V30 9463 C 849.852 4.91048 1.891 0
M  V30 9464 O 848.878 5.5042 1.45005 0
M  V30 9465 N 850.08 4.82816 3.22288 0
M  V30 9466 H 852.845 2.97037 -0.398642 0
M  V30 9467 H 850.406 1.57876 -0.358698 0
M  V30 9468 H 852.398 3.46992 2.08276 0
M  V30 9469 H 850.968 2.41173 1.98883 0
M  V30 9470 H 850.188 3.94189 0.0299228 0
M  V30 9471 H 851.476 5.06279 0.505881 0
M  V30 9472 H 850.874 4.3572 3.60783 0
M  V30 9473 H 849.431 5.25676 3.85368 0
M  V30 9474 N 852.864 0.259585 1.55447 0
M  V30 9475 C 854.113 -0.362163 1.98422 0
M  V30 9476 C 854.426 -1.58135 1.1512 0
M  V30 9477 O 855.632 -2.27506 1.48166 0
M  V30 9478 C 854.088 -0.695722 3.53111 0
M  V30 9479 C 853.696 0.502784 4.4517 0
M  V30 9480 C 855.44 -1.28096 4.04712 0
M  V30 9481 C 853.347 0.144674 5.91223 0
M  V30 9482 H 852.277 -0.139092 0.74106 0
M  V30 9483 H 854.928 0.361798 1.79898 0
M  V30 9484 H 853.31 -1.47816 3.67378 0
M  V30 9485 H 854.484 1.27994 4.42667 0
M  V30 9486 H 852.799 1.0038 4.0412 0
M  V30 9487 H 855.396 -1.56243 5.11363 0
M  V30 9488 H 855.739 -2.20969 3.52815 0
M  V30 9489 H 856.272 -0.561146 3.93822 0
M  V30 9490 H 853.011 1.04087 6.47183 0
M  V30 9491 H 852.531 -0.596023 5.96831 0
M  V30 9492 H 854.21 -0.268651 6.46442 0
M  V30 9493 N 854.342 -1.57594 -0.0133615 0
M  V30 9494 C 855.589 -1.8998 -0.70098 0
M  V30 9495 C 855.917 -0.858802 -1.74513 0
M  V30 9496 O 855.172 0.138209 -1.95211 0
M  V30 9497 C 855.471 -3.29121 -1.39336 0
M  V30 9498 C 855.137 -4.48298 -0.483687 0
M  V30 9499 C 853.799 -4.80635 -0.233186 0
M  V30 9500 C 856.151 -5.21003 0.143426 0
M  V30 9501 C 853.479 -5.83055 0.652943 0
M  V30 9502 C 855.831 -6.24366 1.01735 0
M  V30 9503 C 854.495 -6.55168 1.27716 0
M  V30 9504 H 853.765 -0.695187 -0.256507 0
M  V30 9505 H 856.412 -1.9146 0.0392965 0
M  V30 9506 H 854.717 -3.23703 -2.20735 0
M  V30 9507 H 856.414 -3.51433 -1.93121 0
M  V30 9508 H 853.004 -4.23024 -0.689092 0
M  V30 9509 H 857.188 -4.96286 -0.0371139 0
M  V30 9510 H 852.444 -6.05288 0.862379 0
M  V30 9511 H 856.618 -6.79839 1.5097 0
M  V30 9512 H 854.245 -7.34351 1.9655 0
M  V30 9513 N 855.82 0.285905 -1.54985 0
M  V30 9514 C 856.767 1.35306 -1.86978 0
M  V30 9515 C 857.737 1.49682 -0.720046 0
M  V30 9516 O 858.922 1.64297 -0.970107 0
M  V30 9517 C 856.062 2.71059 -2.13591 0
M  V30 9518 C 855.175 2.6501 -3.41165 0
M  V30 9519 C 854.31 3.92856 -3.57544 0
M  V30 9520 C 853.349 3.81266 -4.78855 0
M  V30 9521 N 852.486 5.00919 -4.9196 0
M  V30 9522 H 857.326 1.07323 -2.78003 0
M  V30 9523 H 854.863 0.518776 -1.37649 0
M  V30 9524 H 856.821 3.50026 -2.27019 0
M  V30 9525 H 855.451 2.97271 -1.25816 0
M  V30 9526 H 854.503 1.77824 -3.36278 0
M  V30 9527 H 855.815 2.52342 -4.30262 0
M  V30 9528 H 854.969 4.80263 -3.70718 0
M  V30 9529 H 853.708 4.08377 -2.66608 0
M  V30 9530 H 852.713 2.92243 -4.65698 0
M  V30 9531 H 853.938 3.67277 -5.71213 0
M  V30 9532 H 851.884 5.16875 -4.03951 0
M  V30 9533 H 851.801 4.90732 -5.75081 0
M  V30 9534 H 853.069 5.89935 -5.09507 0
M  V30 9535 N 857.298 1.47698 0.54982 0
M  V30 9536 C 858.245 1.60739 1.65625 0
M  V30 9537 C 859.215 0.450129 1.59884 0
M  V30 9538 O 860.4 0.671123 1.78607 0
M  V30 9539 C 857.54 1.63457 3.03934 0
M  V30 9540 C 856.653 2.90152 3.20056 0
M  V30 9541 C 855.788 2.84157 4.48807 0
M  V30 9542 C 854.827 4.05644 4.58387 0
M  V30 9543 N 853.964 3.97843 5.78503 0
M  V30 9544 H 858.804 2.55234 1.53817 0
M  V30 9545 H 856.341 1.26593 0.749173 0
M  V30 9546 H 858.299 1.63015 3.84034 0
M  V30 9547 H 856.929 0.724689 3.1456 0
M  V30 9548 H 855.981 3.00428 2.33339 0
M  V30 9549 H 857.293 3.80097 3.22998 0
M  V30 9550 H 856.447 2.82006 5.37175 0
M  V30 9551 H 855.186 1.91908 4.48356 0
M  V30 9552 H 854.191 4.08092 3.6843 0
M  V30 9553 H 855.416 4.9903 4.60593 0
M  V30 9554 H 853.362 3.08401 5.78986 0
M  V30 9555 H 853.279 4.81473 5.82855 0
M  V30 9556 H 854.547 3.99719 6.69212 0
M  V30 9557 N 858.776 -0.797141 1.35954 0
M  V30 9558 C 859.723 -1.90944 1.2965 0
M  V30 9559 C 860.693 -1.65262 0.166628 0
M  V30 9560 O 861.878 -1.87527 0.351883 0
M  V30 9561 C 859.018 -3.27637 1.08389 0
M  V30 9562 C 858.131 -3.65442 2.30382 0
M  V30 9563 C 857.266 -4.91213 2.02195 0
M  V30 9564 C 856.305 -5.21674 3.20191 0
M  V30 9565 N 855.442 -6.38627 2.91719 0
M  V30 9566 H 860.282 -1.95668 2.24762 0
M  V30 9567 H 857.819 -0.95696 1.11717 0
M  V30 9568 H 859.777 -4.06451 0.940912 0
M  V30 9569 H 858.407 -3.22355 0.169351 0
M  V30 9570 H 857.459 -2.81813 2.55511 0
M  V30 9571 H 858.771 -3.83907 3.18461 0
M  V30 9572 H 857.925 -5.77876 1.84783 0
M  V30 9573 H 856.664 -4.74803 1.11416 0
M  V30 9574 H 855.669 -4.33498 3.38171 0
M  V30 9575 H 856.894 -5.40009 4.11786 0
M  V30 9576 H 854.84 -6.23623 2.03543 0
M  V30 9577 H 854.757 -6.57387 3.73334 0
M  V30 9578 H 856.025 -7.28292 2.77868 0
M  V30 9579 N 860.254 -1.20106 -1.0204 0
M  V30 9580 C 861.202 -0.943231 -2.12617 0
M  V30 9581 C 862.196 0.104042 -1.6908 0
M  V30 9582 O 863.402 -0.0459732 -1.79941 0
M  V30 9583 H 859.777 -0.28767 -0.694802 0
M  V30 9584 H 861.748 -1.88221 -2.3155 0
M  V30 9585 C 860.497 -0.50771 -3.43973 0
M  V30 9586 H 859.82 -1.30514 -3.77897 0
M  V30 9587 H 861.26 -0.366486 -4.22413 0
M  V30 9588 C 859.719 0.77939 -3.27761 0
M  V30 9589 O 860.249 1.83876 -3.57145 0
M  V30 9590 N 858.455 0.739931 -2.81022 0
M  V30 9591 H 858.002 -0.122426 -2.57309 0
M  V30 9592 H 857.96 1.60147 -2.70556 0
M  V30 9593 N 861.732 1.21287 -1.00634 0
M  V30 9594 C 862.981 1.89706 -0.685178 0
M  V30 9595 C 863.294 1.79044 0.787566 0
M  V30 9596 O 864.5 2.42502 1.22086 0
M  V30 9597 C 862.956 3.40176 -1.17508 0
M  V30 9598 C 862.564 3.59446 -2.674 0
M  V30 9599 C 864.308 4.14213 -0.928869 0
M  V30 9600 C 862.215 5.03688 -3.09923 0
M  V30 9601 H 861.145 0.710434 -0.252586 0
M  V30 9602 H 863.796 1.37277 -1.21768 0
M  V30 9603 H 862.178 3.91867 -0.570622 0
M  V30 9604 H 863.352 3.18188 -3.33306 0
M  V30 9605 H 861.667 2.98764 -2.9005 0
M  V30 9606 H 864.264 5.20546 -1.22212 0
M  V30 9607 H 864.607 4.16082 0.134859 0
M  V30 9608 H 865.14 3.68591 -1.49619 0
M  V30 9609 H 861.879 5.06968 -4.15529 0
M  V30 9610 H 861.399 5.45796 -2.4873 0
M  V30 9611 H 863.078 5.72204 -3.0198 0
M  V30 9612 N 863.21 0.781244 1.36873 0
M  V30 9613 C 864.487 0.274217 1.93668 0
M  V30 9614 C 864.867 -1.2323 1.71399 0
M  V30 9615 O 864.215 -2.01993 1.06822 0
M  V30 9616 C 864.425 0.657939 3.42742 0
M  V30 9617 C 865.773 0.63307 4.19854 0
M  V30 9618 O 866.797 0.597909 3.51146 0
M  V30 9619 O 865.656 0.668636 5.42394 0
M  V30 9620 H 862.75 0.0658059 0.824378 0
M  V30 9621 H 865.296 0.863238 1.46104 0
M  V30 9622 H 864.068 1.69728 3.52573 0
M  V30 9623 H 863.691 0.0423678 3.97577 0
M  V30 9624 N 864.689 -1.48329 0.532571 0
M  V30 9625 C 865.935 -2.028 -0.000583219 0
M  V30 9626 C 866.268 -1.40858 -1.33688 0
M  V30 9627 O 865.543 -0.555261 -1.86406 0
M  V30 9628 C 865.826 -3.59901 -0.119846 0
M  V30 9629 C 865.679 -4.32318 1.2418 0
M  V30 9630 C 866.998 -4.31904 -0.845372 0
M  V30 9631 H 864.117 -0.736999 0.00126205 0
M  V30 9632 H 866.759 -1.77024 0.690102 0
M  V30 9633 H 864.909 -3.81993 -0.708092 0
M  V30 9634 H 866.581 -4.21637 1.87136 0
M  V30 9635 H 864.824 -3.93635 1.82301 0
M  V30 9636 H 865.495 -5.40697 1.11132 0
M  V30 9637 H 867.971 -4.14658 -0.346159 0
M  V30 9638 H 866.847 -5.41509 -0.897723 0
M  V30 9639 H 867.108 -3.99369 -1.89622 0
M  V30 9640 N 866.167 -0.267825 -1.55308 0
M  V30 9641 C 867.097 0.616585 -2.25212 0
M  V30 9642 C 868.078 1.16472 -1.23969 0
M  V30 9643 O 869.263 1.20021 -1.52672 0
M  V30 9644 C 866.393 1.80412 -2.96764 0
M  V30 9645 C 865.347 1.38784 -4.04874 0
M  V30 9646 C 864.673 2.65789 -4.63961 0
M  V30 9647 C 865.973 0.543415 -5.19465 0
M  V30 9648 H 867.667 0.0336257 -2.99381 0
M  V30 9649 H 865.213 0.0147328 -1.43992 0
M  V30 9650 H 867.166 2.42866 -3.44375 0
M  V30 9651 H 865.89 2.4128 -2.20118 0
M  V30 9652 H 864.549 0.786541 -3.58063 0
M  V30 9653 H 864.197 3.24899 -3.83992 0
M  V30 9654 H 863.897 2.38651 -5.36954 0
M  V30 9655 H 865.421 3.29104 -5.14318 0
M  V30 9656 H 866.835 1.07277 -5.63174 0
M  V30 9657 H 865.232 0.367219 -5.98975 0
M  V30 9658 H 866.302 -0.439534 -4.82904 0
M  V30 9659 N 867.645 1.57599 0.00500368 0
M  V30 9660 C 868.892 1.90349 0.690895 0
M  V30 9661 C 869.22 0.868045 1.74055 0
M  V30 9662 O 868.475 -0.127855 1.95282 0
M  V30 9663 C 868.774 3.29855 1.37588 0
M  V30 9664 C 868.44 4.48548 0.459906 0
M  V30 9665 C 867.102 4.80752 0.207693 0
M  V30 9666 C 869.454 5.20919 -0.171054 0
M  V30 9667 C 866.782 5.82701 -0.683855 0
M  V30 9668 C 869.134 6.23818 -1.05045 0
M  V30 9669 C 867.798 6.54481 -1.31189 0
M  V30 9670 H 867.068 0.696538 0.252816 0
M  V30 9671 H 869.715 1.91436 -0.0494495 0
M  V30 9672 H 868.02 3.24869 2.19015 0
M  V30 9673 H 869.717 3.52452 1.91255 0
M  V30 9674 H 866.307 4.23384 0.666648 0
M  V30 9675 H 870.491 4.96299 0.0107942 0
M  V30 9676 H 865.747 6.04822 -0.894467 0
M  V30 9677 H 869.921 6.79029 -1.54574 0
M  V30 9678 H 867.548 7.33299 -2.00442 0
M  V30 9679 N 869.123 -0.277682 1.55134 0
M  V30 9680 C 870.053 -1.34742 1.90701 0
M  V30 9681 C 871.034 -1.51757 0.768354 0
M  V30 9682 O 872.219 -1.64879 1.02609 0
M  V30 9683 C 869.349 -2.70775 2.17481 0
M  V30 9684 C 868.303 -2.68497 3.33307 0
M  V30 9685 C 867.629 -4.08037 3.45557 0
M  V30 9686 C 868.929 -2.28178 4.69821 0
M  V30 9687 H 870.623 -1.05224 2.803 0
M  V30 9688 H 868.169 -0.504738 1.34864 0
M  V30 9689 H 870.122 -3.45719 2.40949 0
M  V30 9690 H 868.846 -3.01867 1.24676 0
M  V30 9691 H 867.505 -1.9601 3.09799 0
M  V30 9692 H 867.153 -4.36344 2.50226 0
M  V30 9693 H 866.853 -4.07409 4.23429 0
M  V30 9694 H 868.377 -4.84726 3.71312 0
M  V30 9695 H 869.791 -2.92843 4.92865 0
M  V30 9696 H 868.188 -2.3872 5.50575 0
M  V30 9697 H 869.258 -1.23308 4.6896 0
M  V30 9698 N 870.601 -1.47988 -0.541979 0
M  V30 9699 C 871.829 -1.59034 -1.32347 0
M  V30 9700 C 872.244 -0.246123 -1.87189 0
M  V30 9701 O 871.601 0.762889 -1.6579 0
M  V30 9702 C 871.652 -2.62759 -2.48274 0
M  V30 9703 O 871.373 -3.91963 -1.95695 0
M  V30 9704 C 872.874 -2.84133 -3.4027 0
M  V30 9705 H 870.094 -0.536574 -0.402901 0
M  V30 9706 H 872.638 -1.93725 -0.655045 0
M  V30 9707 H 870.793 -2.3096 -3.11025 0
M  V30 9708 H 871.207 -4.48769 -2.7149 0
M  V30 9709 H 872.681 -3.60538 -4.17991 0
M  V30 9710 H 873.158 -1.92512 -3.9476 0
M  V30 9711 H 873.764 -3.17188 -2.83322 0
M  V30 9712 N 872.079 0.78992 -1.36375 0
M  V30 9713 C 872.989 1.93386 -1.32812 0
M  V30 9714 C 874.005 1.72468 -0.230377 0
M  V30 9715 O 875.181 1.96014 -0.462657 0
M  V30 9716 C 872.246 3.2824 -1.11621 0
M  V30 9717 C 871.307 3.61939 -2.30865 0
M  V30 9718 C 870.54 4.90359 -2.10675 0
M  V30 9719 O 870.763 5.6005 -1.08168 0
M  V30 9720 O 869.697 5.22702 -2.9844 0
M  V30 9721 H 873.523 1.99342 -2.29121 0
M  V30 9722 H 871.108 0.9301 -1.16917 0
M  V30 9723 H 872.99 4.08939 -1.01719 0
M  V30 9724 H 871.665 3.23178 -0.183732 0
M  V30 9725 H 870.572 2.81549 -2.46335 0
M  V30 9726 H 871.905 3.71725 -3.22617 0
M  V30 9727 N 873.557 1.20646 1.01402 0
M  V30 9728 C 874.782 1.04462 1.79172 0
M  V30 9729 C 875.207 -0.401588 1.83763 0
M  V30 9730 O 874.565 -1.28934 1.27459 0
M  V30 9731 C 874.613 1.63583 3.21361 0
M  V30 9732 O 873.717 0.875198 4.03006 0
M  V30 9733 H 873.058 0.368235 0.552539 0
M  V30 9734 H 875.588 1.59994 1.27526 0
M  V30 9735 H 875.598 1.67426 3.72065 0
M  V30 9736 H 874.273 2.68835 3.17334 0
M  V30 9737 H 872.85 0.911172 3.61597 0
M  V30 9738 N 875.035 -1.20752 1.01276 0
M  V30 9739 C 876.281 -1.90302 0.700924 0
M  V30 9740 C 876.614 -1.78406 -0.767142 0
M  V30 9741 O 875.889 -1.16575 -1.55694 0
M  V30 9742 C 876.172 -3.41831 1.13242 0
M  V30 9743 C 876.025 -3.6268 2.66051 0
M  V30 9744 C 877.344 -4.34486 0.700738 0
M  V30 9745 H 874.463 -0.69107 0.256107 0
M  V30 9746 H 877.105 -1.42227 1.25982 0
M  V30 9747 H 875.255 -3.82906 0.656902 0
M  V30 9748 H 876.927 -3.30882 3.21426 0
M  V30 9749 H 875.17 -3.06281 3.07204 0
M  V30 9750 H 875.841 -4.68882 2.91296 0
M  V30 9751 H 878.317 -4.01036 1.10948 0
M  V30 9752 H 877.193 -5.39136 1.03073 0
M  V30 9753 H 877.454 -4.40307 -0.39778 0
M  V30 9754 N 876.513 -0.788492 -1.36457 0
M  V30 9755 C 877.79 -0.284484 -1.9352 0
M  V30 9756 C 878.17 1.2232 -1.7205 0
M  V30 9757 O 877.518 2.01424 -1.07892 0
M  V30 9758 C 877.728 -0.676106 -3.42388 0
M  V30 9759 C 879.076 -0.655327 -4.19512 0
M  V30 9760 O 880.1 -0.616523 -3.50824 0
M  V30 9761 O 878.959 -0.697391 -5.42032 0
M  V30 9762 H 876.053 -0.0701769 -0.824017 0
M  V30 9763 H 878.599 -0.870974 -1.45644 0
M  V30 9764 H 877.371 -1.71596 -3.51668 0
M  V30 9765 H 876.994 -0.0634517 -3.97549 0
M  V30 9766 N 877.991 1.48044 -0.54043 0
M  V30 9767 C 878.901 2.33565 0.220163 0
M  V30 9768 C 879.917 1.47146 0.928659 0
M  V30 9769 O 881.093 1.80107 0.901295 0
M  V30 9770 C 878.158 3.2349 1.2472 0
M  V30 9771 C 877.219 4.25789 0.547938 0
M  V30 9772 C 876.452 5.11417 1.52605 0
M  V30 9773 O 876.675 4.99204 2.75956 0
M  V30 9774 O 875.609 5.92498 1.05972 0
M  V30 9775 H 879.435 2.99868 -0.480898 0
M  V30 9776 H 877.02 1.46332 -0.301226 0
M  V30 9777 H 878.902 3.79084 1.84047 0
M  V30 9778 H 877.577 2.59835 1.93048 0
M  V30 9779 H 876.484 3.74001 -0.0860941 0
M  V30 9780 H 877.817 4.92111 -0.0935896 0
M  V30 9781 N 879.47 0.276058 1.55163 0
M  V30 9782 C 880.695 -0.346648 2.04483 0
M  V30 9783 C 881.12 -1.48613 1.15308 0
M  V30 9784 O 880.478 -1.80663 0.151875 0
M  V30 9785 C 880.526 -0.804268 3.51517 0
M  V30 9786 O 879.63 -1.91143 3.65429 0
M  V30 9787 H 878.971 -0.0715251 0.660136 0
M  V30 9788 H 881.501 0.410631 2.00437 0
M  V30 9789 H 881.511 -1.09977 3.92898 0
M  V30 9790 H 880.186 0.0294123 4.1589 0
M  V30 9791 H 878.763 -1.61839 3.3595 0
M  V30 9792 N 880.948 -1.576 0.00335426 0
M  V30 9793 C 882.188 -1.92571 -0.685253 0
M  V30 9794 C 882.552 -0.877961 -1.70751 0
M  V30 9795 O 883.753 -1.11303 -2.44673 0
M  V30 9796 C 882.024 -3.3258 -1.30863 0
M  V30 9797 S 883.583 -3.89442 -2.02189 0
M  V30 9798 H 880.401 -0.674035 -0.226268 0
M  V30 9799 H 883.003 -1.95405 0.0608461 0
M  V30 9800 H 881.707 -4.06673 -0.551837 0
M  V30 9801 H 881.238 -3.33128 -2.09259 0
M  V30 9802 H 883.253 -3.70789 -3.29742 0
M  V30 9803 N 882.426 0.269451 -1.5528 0
M  V30 9804 C 883.675 0.998381 -1.75258 0
M  V30 9805 C 883.988 1.87321 -0.563034 0
M  V30 9806 O 885.194 2.63719 -0.645313 0
M  V30 9807 C 883.65 1.82505 -3.10193 0
M  V30 9808 C 883.258 0.99871 -4.36726 0
M  V30 9809 C 885.002 2.54807 -3.3952 0
M  V30 9810 C 882.909 1.81997 -5.627 0
M  V30 9811 H 881.839 0.376488 -0.653278 0
M  V30 9812 H 884.49 0.253909 -1.81735 0
M  V30 9813 H 882.872 2.61061 -2.97763 0
M  V30 9814 H 884.046 0.257064 -4.60082 0
M  V30 9815 H 882.361 0.390074 -4.14569 0
M  V30 9816 H 884.958 3.16662 -4.30847 0
M  V30 9817 H 885.301 3.25273 -2.59813 0
M  V30 9818 H 885.834 1.83278 -3.53064 0
M  V30 9819 H 882.573 1.15945 -6.45164 0
M  V30 9820 H 882.093 2.53749 -5.43481 0
M  V30 9821 H 883.772 2.39274 -6.0113 0
M  V30 9822 N 883.904 1.48273 0.534124 0
M  V30 9823 C 884.836 1.5857 1.65494 0
M  V30 9824 C 885.849 0.470266 1.5586 0
M  V30 9825 O 887.038 0.740928 1.62396 0
M  V30 9826 C 884.138 1.49554 3.04117 0
M  V30 9827 C 883.311 2.76066 3.39273 0
M  V30 9828 C 882.37 2.60562 4.57159 0
M  V30 9829 O 881.396 3.34438 4.60587 0
M  V30 9830 N 882.598 1.69906 5.55079 0
M  V30 9831 H 885.363 2.55226 1.57099 0
M  V30 9832 H 882.924 1.44944 0.721303 0
M  V30 9833 H 884.916 1.36882 3.80848 0
M  V30 9834 H 883.486 0.608895 3.06613 0
M  V30 9835 H 882.706 3.03332 2.51761 0
M  V30 9836 H 883.994 3.60006 3.59546 0
M  V30 9837 H 883.392 1.09079 5.55084 0
M  V30 9838 H 881.949 1.63175 6.31044 0
M  V30 9839 N 885.382 -0.782676 1.36792 0
M  V30 9840 C 886.798 -1.08169 1.17352 0
M  V30 9841 C 886.998 -2.015 0.0022037 0
M  V30 9842 O 886.054 -2.43692 -0.661093 0
M  V30 9843 C 887.367 -1.68969 2.48737 0
M  V30 9844 C 888.915 -1.81278 2.55161 0
M  V30 9845 C 889.39 -2.45492 3.86649 0
M  V30 9846 N 890.881 -2.52954 3.88032 0
M  V30 9847 C 891.616 -3.03465 4.86515 0
M  V30 9848 N 891.112 -3.54232 5.95392 0
M  V30 9849 N 892.905 -3.02239 4.73928 0
M  V30 9850 H 885.056 -0.162757 2.11775 0
M  V30 9851 H 887.319 -0.134823 0.938364 0
M  V30 9852 H 887.025 -1.07859 3.34753 0
M  V30 9853 H 886.899 -2.68397 2.65034 0
M  V30 9854 H 889.286 -2.41524 1.69559 0
M  V30 9855 H 889.367 -0.806367 2.42758 0
M  V30 9856 H 889.011 -1.85889 4.7266 0
M  V30 9857 H 888.941 -3.46718 3.96351 0
M  V30 9858 H 891.432 -2.17014 3.09376 0
M  V30 9859 H 891.745 -3.91145 6.66503 0
M  V30 9860 H 890.09 -3.52366 5.99052 0
M  V30 9861 H 893.281 -2.61871 3.87996 0
M  V30 9862 H 893.454 -3.41295 5.50837 0
M  V30 9863 N 886.86 -1.21182 -1.00761 0
M  V30 9864 C 888.106 -1.02898 -1.74756 0
M  V30 9865 C 888.439 0.436774 -1.89225 0
M  V30 9866 O 887.714 1.32415 -1.42466 0
M  V30 9867 C 887.997 -1.72372 -3.16164 0
M  V30 9868 C 887.85 -3.2645 -3.09435 0
M  V30 9869 C 889.169 -1.46415 -4.15031 0
M  V30 9870 H 886.288 -0.375214 -0.634337 0
M  V30 9871 H 888.93 -1.49321 -1.17487 0
M  V30 9872 H 887.08 -1.32906 -3.65059 0
M  V30 9873 H 888.752 -3.75269 -2.68274 0
M  V30 9874 H 886.995 -3.56889 -2.46603 0
M  V30 9875 H 887.666 -3.70226 -4.09435 0
M  V30 9876 H 890.142 -1.80671 -3.7483 0
M  V30 9877 H 889.018 -1.97544 -5.12121 0
M  V30 9878 H 889.279 -0.39361 -4.40344 0
M  V30 9879 N 888.338 1.20213 -1.01915 0
M  V30 9880 C 889.27 2.2251 -0.549725 0
M  V30 9881 C 890.283 1.58558 0.369235 0
M  V30 9882 O 891.472 1.77715 0.167176 0
M  V30 9883 C 888.572 3.38189 0.219432 0
M  V30 9884 C 887.745 4.31729 -0.702066 0
M  V30 9885 C 886.804 5.26196 0.0199624 0
M  V30 9886 O 885.83 5.65993 -0.60339 0
M  V30 9887 N 887.032 5.65895 1.29397 0
M  V30 9888 H 889.797 2.63412 -1.42948 0
M  V30 9889 H 887.358 1.3478 -0.896987 0
M  V30 9890 H 889.35 3.98392 0.711763 0
M  V30 9891 H 887.92 2.96156 1.00051 0
M  V30 9892 H 887.14 3.69455 -1.37466 0
M  V30 9893 H 888.428 4.91145 -1.3287 0
M  V30 9894 H 887.826 5.35579 1.8213 0
M  V30 9895 H 886.383 6.28395 1.73098 0
M  V30 9896 N 889.816 0.795718 1.36037 0
M  V30 9897 C 890.726 0.199784 2.33748 0
M  V30 9898 C 891.742 -0.651436 1.61345 0
M  V30 9899 O 892.918 -0.565743 1.93291 0
M  V30 9900 C 889.983 -0.650475 3.40543 0
M  V30 9901 C 889.044 0.219974 4.28736 0
M  V30 9902 C 888.277 -0.589798 5.30431 0
M  V30 9903 O 888.5 -1.82532 5.40406 0
M  V30 9904 O 887.434 0.0136187 6.01898 0
M  V30 9905 H 891.26 1.00782 2.8649 0
M  V30 9906 H 888.845 0.557293 1.38617 0
M  V30 9907 H 890.727 -1.13512 4.05824 0
M  V30 9908 H 889.402 -1.4363 2.9009 0
M  V30 9909 H 888.309 0.751516 3.66474 0
M  V30 9910 H 889.642 0.969468 4.82558 0
M  V30 9911 N 891.294 -1.47756 0.548274 0
M  V30 9912 C 892.524 -2.06584 0.0254503 0
M  V30 9913 C 892.932 -1.40268 -1.26971 0
M  V30 9914 O 892.275 -0.49019 -1.77039 0
M  V30 9915 C 892.337 -3.58628 -0.250301 0
M  V30 9916 C 892.001 -4.4693 0.954087 0
M  V30 9917 C 892.998 -4.85592 1.85733 0
M  V30 9918 C 890.683 -4.88573 1.16624 0
M  V30 9919 C 892.677 -5.64686 2.95648 0
M  V30 9920 C 890.364 -5.67435 2.2685 0
M  V30 9921 C 891.362 -6.05401 3.16194 0
M  V30 9922 O 891.05 -6.82676 4.24511 0
M  V30 9923 H 890.782 -0.67489 0.0387264 0
M  V30 9924 H 893.336 -1.90876 0.758663 0
M  V30 9925 H 891.566 -3.72516 -1.03771 0
M  V30 9926 H 893.255 -3.9951 -0.717419 0
M  V30 9927 H 894.021 -4.54026 1.70544 0
M  V30 9928 H 889.9 -4.58494 0.480039 0
M  V30 9929 H 893.444 -5.9424 3.65411 0
M  V30 9930 H 889.341 -5.98413 2.42016 0
M  V30 9931 H 890.109 -7.01057 4.22447 0
M  V30 9932 N 892.772 -0.284283 -1.55015 0
M  V30 9933 C 893.682 0.60906 -2.26556 0
M  V30 9934 C 894.698 1.16246 -1.29472 0
M  V30 9935 O 895.874 1.1908 -1.62425 0
M  V30 9936 C 892.939 1.77246 -2.97968 0
M  V30 9937 C 892 1.25482 -4.10552 0
M  V30 9938 C 891.233 2.36277 -4.78549 0
M  V30 9939 O 891.456 3.55829 -4.45805 0
M  V30 9940 O 890.39 2.03914 -5.66306 0
M  V30 9941 H 894.216 0.0292298 -3.03686 0
M  V30 9942 H 891.801 -0.0513466 -1.49312 0
M  V30 9943 H 893.683 2.45062 -3.42815 0
M  V30 9944 H 892.358 2.33921 -2.23747 0
M  V30 9945 H 891.265 0.542859 -3.7014 0
M  V30 9946 H 892.598 0.733708 -4.86701 0
M  V30 9947 N 894.251 1.57596 -0.0117121 0
M  V30 9948 C 895.499 1.90694 0.669342 0
M  V30 9949 C 895.82 0.886999 1.73659 0
M  V30 9950 O 895.09 -0.0739779 1.9576 0
M  V30 9951 H 893.67 0.703846 0.250219 0
M  V30 9952 H 896.332 1.94821 -0.0554057 0
M  V30 9953 H 895.428 2.90802 1.13316 0
M  V30 9954 N 895.729 -0.261212 1.5542 0
M  V30 9955 C 896.676 -1.32315 1.89107 0
M  V30 9956 C 897.646 -1.48517 0.743767 0
M  V30 9957 O 898.831 -1.62733 0.996123 0
M  V30 9958 C 895.971 -2.67626 2.17877 0
M  V30 9959 C 895.084 -2.59549 3.45338 0
M  V30 9960 C 894.219 -3.87118 3.63748 0
M  V30 9961 C 893.258 -3.736 4.8486 0
M  V30 9962 N 892.395 -4.93029 4.99867 0
M  V30 9963 H 897.235 -1.02886 2.79675 0
M  V30 9964 H 894.772 -0.496812 1.38456 0
M  V30 9965 H 896.73 -3.4637 2.32559 0
M  V30 9966 H 895.36 -2.95232 1.30529 0
M  V30 9967 H 894.412 -1.72452 3.39064 0
M  V30 9968 H 895.724 -2.45465 4.34222 0
M  V30 9969 H 894.878 -4.74305 3.78312 0
M  V30 9970 H 893.617 -4.04084 2.73071 0
M  V30 9971 H 892.622 -2.84797 4.70288 0
M  V30 9972 H 893.847 -3.58143 5.76984 0
M  V30 9973 H 891.793 -5.10383 4.12123 0
M  V30 9974 H 891.71 -4.81521 5.82815 0
M  V30 9975 H 892.978 -5.81754 5.18828 0
M  V30 9976 N 897.207 -1.48554 -0.526253 0
M  V30 9977 C 898.154 -1.63354 -1.63046 0
M  V30 9978 C 899.124 -0.475509 -1.59148 0
M  V30 9979 O 900.309 -0.699453 -1.77517 0
M  V30 9980 C 897.449 -1.68271 -3.01295 0
M  V30 9981 C 896.562 -2.95207 -3.15399 0
M  V30 9982 C 895.697 -2.91262 -4.4423 0
M  V30 9983 C 894.736 -4.12886 -4.51876 0
M  V30 9984 N 893.873 -4.06996 -5.721 0
M  V30 9985 H 898.713 -2.57649 -1.49737 0
M  V30 9986 H 896.25 -1.27769 -0.728938 0
M  V30 9987 H 898.208 -1.69104 -3.81392 0
M  V30 9988 H 896.838 -0.774641 -3.13367 0
M  V30 9989 H 895.89 -3.04102 -2.2853 0
M  V30 9990 H 897.202 -3.85187 -3.1691 0
M  V30 9991 H 896.356 -2.90516 -5.32621 0
M  V30 9992 H 895.095 -1.99016 -4.45246 0
M  V30 9993 H 894.1 -4.13902 -3.61891 0
M  V30 9994 H 895.325 -5.06294 -4.52596 0
M  V30 9995 H 893.271 -3.17573 -5.74006 0
M  V30 9996 H 893.188 -4.90685 -5.75121 0
M  V30 9997 H 894.456 -4.10315 -6.62768 0
M  V30 9998 N 898.685 0.775411 -1.37205 0
M  V30 9999 C 899.932 1.53384 -1.32211 0
M  V30 10000 C 900.26 1.9427 0.0944958 0
M  V30 10001 O 899.515 1.64059 1.06692 0
M  V30 10002 C 899.814 2.81377 -2.20367 0
M  V30 10003 C 899.48 2.59561 -3.68699 0
M  V30 10004 C 898.142 2.53319 -4.09124 0
M  V30 10005 C 900.494 2.39939 -4.62686 0
M  V30 10006 C 897.822 2.25442 -5.41658 0
M  V30 10007 C 900.174 2.13586 -5.95453 0
M  V30 10008 C 898.838 2.05786 -6.34987 0
M  V30 10009 H 898.108 0.561271 -0.483793 0
M  V30 10010 H 900.755 0.893466 -1.6938 0
M  V30 10011 H 899.06 3.49954 -1.76181 0
M  V30 10012 H 900.757 3.39238 -2.13819 0
M  V30 10013 H 897.347 2.6528 -3.36637 0
M  V30 10014 H 901.531 2.43753 -4.32317 0
M  V30 10015 H 896.787 2.17896 -5.71254 0
M  V30 10016 H 900.961 1.97401 -6.67837 0
M  V30 10017 H 898.588 1.83948 -7.37609 0
M  V30 10018 N 900.163 1.21714 1.00117 0
M  V30 10019 C 901.11 0.979837 2.08968 0
M  V30 10020 C 902.08 -0.0955324 1.65825 0
M  V30 10021 O 903.265 0.0523742 1.90728 0
M  V30 10022 C 900.405 0.554758 3.40612 0
M  V30 10023 C 899.518 1.69999 3.97145 0
M  V30 10024 C 898.653 1.2237 5.16913 0
M  V30 10025 C 897.692 2.34101 5.65564 0
M  V30 10026 N 896.829 1.87579 6.76579 0
M  V30 10027 H 901.669 1.91167 2.28602 0
M  V30 10028 H 899.206 0.952645 1.12085 0
M  V30 10029 H 901.164 0.289526 4.16194 0
M  V30 10030 H 899.794 -0.340073 3.21004 0
M  V30 10031 H 898.846 2.07976 3.18512 0
M  V30 10032 H 900.158 2.54074 4.29241 0
M  V30 10033 H 899.312 0.915358 5.99755 0
M  V30 10034 H 898.051 0.353045 4.8642 0
M  V30 10035 H 897.056 2.65734 4.81316 0
M  V30 10036 H 898.281 3.21669 5.98085 0
M  V30 10037 H 896.227 1.02863 6.47885 0
M  V30 10038 H 896.144 2.65225 7.07949 0
M  V30 10039 H 897.412 1.5979 7.62947 0
M  V30 10040 N 901.641 -1.19671 1.02551 0
M  V30 10041 C 902.866 -1.93774 0.739363 0
M  V30 10042 C 903.291 -1.74787 -0.695064 0
M  V30 10043 O 902.649 -1.04796 -1.47944 0
M  V30 10044 C 902.697 -3.43684 1.09149 0
M  V30 10045 O 901.801 -4.11874 0.208213 0
M  V30 10046 H 901.142 -0.605064 0.273484 0
M  V30 10047 H 903.672 -1.51846 1.37128 0
M  V30 10048 H 903.682 -3.94339 1.04695 0
M  V30 10049 H 902.357 -3.56826 2.13654 0
M  V30 10050 H 900.934 -3.716 0.311045 0
M  V30 10051 N 903.119 -0.802921 -1.35613 0
M  V30 10052 C 904.368 -0.378087 -1.98125 0
M  V30 10053 C 904.681 1.05953 -1.64418 0
M  V30 10054 O 905.887 1.58729 -2.20266 0
M  V30 10055 C 904.343 -0.625077 -3.5443 0
M  V30 10056 C 903.951 -2.07499 -3.97049 0
M  V30 10057 C 905.695 -0.265419 -4.23669 0
M  V30 10058 C 903.602 -2.26793 -5.46186 0
M  V30 10059 H 902.532 -0.137633 -0.741332 0
M  V30 10060 H 905.183 -0.986461 -1.54729 0
M  V30 10061 H 903.565 0.0531975 -3.95964 0
M  V30 10062 H 904.739 -2.79077 -3.66678 0
M  V30 10063 H 903.054 -2.39417 -3.40688 0
M  V30 10064 H 905.651 -0.387669 -5.33293 0
M  V30 10065 H 905.994 0.787994 -4.08774 0
M  V30 10066 H 906.527 -0.897464 -3.87544 0
M  V30 10067 H 903.266 -3.30566 -5.66045 0
M  V30 10068 H 902.786 -1.59735 -5.78139 0
M  V30 10069 H 904.465 -2.08165 -6.12598 0
M  V30 10070 N 904.597 1.47463 -0.556102 0
M  V30 10071 C 905.529 2.28046 0.22968 0
M  V30 10072 C 906.542 1.3694 0.880409 0
M  V30 10073 O 907.731 1.61773 0.754447 0
M  V30 10074 C 904.831 3.11165 1.34273 0
M  V30 10075 C 904.004 4.30225 0.789004 0
M  V30 10076 C 903.063 4.94948 1.78641 0
M  V30 10077 O 902.089 5.53372 1.33297 0
M  V30 10078 N 903.291 4.89543 3.11974 0
M  V30 10079 H 906.056 2.96125 -0.461558 0
M  V30 10080 H 903.617 1.5708 -0.392105 0
M  V30 10081 H 905.609 3.51331 2.00869 0
M  V30 10082 H 904.179 2.45337 1.93722 0
M  V30 10083 H 903.399 3.94163 -0.0536971 0
M  V30 10084 H 904.687 5.07238 0.398378 0
M  V30 10085 H 904.085 4.43275 3.51459 0
M  V30 10086 H 902.642 5.33732 3.74131 0
M  V30 10087 N 906.075 0.2925 1.54862 0
M  V30 10088 C 907.022 -0.587365 2.23201 0
M  V30 10089 C 907.992 -1.13623 1.21157 0
M  V30 10090 O 909.177 -1.18233 1.49752 0
M  V30 10091 C 906.317 -1.75745 2.96998 0
M  V30 10092 C 905.43 -1.24078 4.13798 0
M  V30 10093 C 904.565 -2.37405 4.75197 0
M  V30 10094 C 903.604 -1.82829 5.84157 0
M  V30 10095 N 902.741 -2.89696 6.39547 0
M  V30 10096 H 907.581 0.00202207 2.98 0
M  V30 10097 H 905.118 0.012766 1.47094 0
M  V30 10098 H 907.076 -2.44549 3.38011 0
M  V30 10099 H 905.706 -2.3186 2.24591 0
M  V30 10100 H 904.758 -0.445268 3.77785 0
M  V30 10101 H 906.07 -0.801186 4.92324 0
M  V30 10102 H 905.224 -3.14172 5.19019 0
M  V30 10103 H 903.963 -2.84688 3.95985 0
M  V30 10104 H 902.968 -1.04548 5.39768 0
M  V30 10105 H 904.193 -1.36461 6.65248 0
M  V30 10106 H 902.139 -3.36328 5.63222 0
M  V30 10107 H 902.056 -2.50206 7.13395 0
M  V30 10108 H 903.324 -3.66386 6.88027 0
M  V30 10109 N 907.553 -1.57587 0.0200696 0
M  V30 10110 C 908.801 -1.91046 -0.65922 0
M  V30 10111 C 909.122 -0.896197 -1.73186 0
M  V30 10112 O 908.392 0.0635952 -1.95797 0
M  V30 10113 H 906.972 -0.705163 -0.246483 0
M  V30 10114 H 909.634 -1.94789 0.0657368 0
M  V30 10115 H 908.73 -2.91399 -1.11773 0
M  V30 10116 N 909.032 0.252966 -1.55557 0
M  V30 10117 C 909.942 1.33472 -1.92931 0
M  V30 10118 C 910.958 1.52983 -0.828985 0
M  V30 10119 O 912.134 1.66723 -1.12984 0
M  V30 10120 C 909.199 2.6704 -2.21112 0
M  V30 10121 C 908.26 2.56103 -3.44542 0
M  V30 10122 C 907.493 3.83302 -3.71369 0
M  V30 10123 O 907.716 4.84907 -3.00368 0
M  V30 10124 O 906.65 3.823 -4.64898 0
M  V30 10125 H 910.476 1.04768 -2.85057 0
M  V30 10126 H 908.061 0.453208 -1.4236 0
M  V30 10127 H 909.943 3.45981 -2.40572 0
M  V30 10128 H 908.618 2.95489 -1.32166 0
M  V30 10129 H 907.525 1.7547 -3.30396 0
M  V30 10130 H 908.858 2.32601 -4.33772 0
M  V30 10131 N 910.51 1.48831 0.518367 0
M  V30 10132 C 911.759 1.5669 1.27008 0
M  V30 10133 C 912.072 0.250934 1.93984 0
M  V30 10134 O 913.278 0.207884 2.70703 0
M  V30 10135 C 911.734 2.76387 2.30517 0
M  V30 10136 C 911.342 4.14673 1.69559 0
M  V30 10137 C 913.086 2.93566 3.06625 0
M  V30 10138 C 910.993 5.25616 2.71076 0
M  V30 10139 H 909.923 0.583362 0.477708 0
M  V30 10140 H 912.574 1.75187 0.546052 0
M  V30 10141 H 910.956 2.51348 3.06006 0
M  V30 10142 H 912.13 4.49779 1.00179 0
M  V30 10143 H 910.445 4.02708 1.05902 0
M  V30 10144 H 913.042 3.7362 3.82508 0
M  V30 10145 H 913.385 2.03462 3.63193 0
M  V30 10146 H 913.918 3.18562 2.38251 0
M  V30 10147 H 910.657 6.17723 2.19313 0
M  V30 10148 H 910.177 4.94985 3.38748 0
M  V30 10149 H 911.856 5.5422 3.3384 0
M  V30 10150 N 911.988 -0.768124 1.37614 0
M  V30 10151 C 913.213 -1.56239 1.36397 0
M  V30 10152 C 913.638 -1.8804 -0.0475839 0
M  V30 10153 O 912.996 -1.495 -1.02564 0
M  V30 10154 C 913.044 -2.84716 2.21289 0
M  V30 10155 O 912.148 -3.79249 1.62001 0
M  V30 10156 H 911.489 -0.473119 0.465891 0
M  V30 10157 H 914.019 -0.950415 1.81186 0
M  V30 10158 H 914.029 -3.33784 2.34632 0
M  V30 10159 H 912.704 -2.60899 3.2389 0
M  V30 10160 H 911.281 -3.37904 1.57719 0
M  V30 10161 N 913.466 -1.22244 -0.994698 0
M  V30 10162 C 914.713 -1.04591 -1.73398 0
M  V30 10163 C 915.041 0.419223 -1.89928 0
M  V30 10164 O 914.296 1.32714 -1.43824 0
M  V30 10165 C 914.595 -1.70014 -3.14372 0
M  V30 10166 C 914.261 -3.19903 -3.17762 0
M  V30 10167 C 912.923 -3.60803 -3.18394 0
M  V30 10168 C 915.275 -4.15851 -3.14194 0
M  V30 10169 C 912.603 -4.96135 -3.13157 0
M  V30 10170 C 914.955 -5.51157 -3.10498 0
M  V30 10171 C 913.619 -5.91439 -3.09445 0
M  V30 10172 H 912.889 -0.382725 -0.63451 0
M  V30 10173 H 915.536 -1.51981 -1.16508 0
M  V30 10174 H 913.841 -1.14945 -3.7456 0
M  V30 10175 H 915.538 -1.53848 -3.70313 0
M  V30 10176 H 912.128 -2.87336 -3.18019 0
M  V30 10177 H 916.312 -3.85272 -3.12857 0
M  V30 10178 H 911.568 -5.26578 -3.10685 0
M  V30 10179 H 915.742 -6.2523 -3.06692 0
M  V30 10180 H 913.369 -6.96271 -3.05141 0
M  V30 10181 N 914.944 1.19125 -1.03184 0
M  V30 10182 C 915.854 2.26112 -0.625329 0
M  V30 10183 C 916.87 1.7056 0.344298 0
M  V30 10184 O 918.046 2.0039 0.20144 0
M  V30 10185 C 915.111 3.46697 0.0145169 0
M  V30 10186 C 914.172 4.17419 -1.00299 0
M  V30 10187 C 913.405 5.32247 -0.393581 0
M  V30 10188 O 913.628 5.64724 0.802659 0
M  V30 10189 O 912.562 5.91428 -1.1179 0
M  V30 10190 H 916.388 2.63131 -1.51643 0
M  V30 10191 H 913.973 1.26036 -0.802197 0
M  V30 10192 H 915.855 4.19762 0.371139 0
M  V30 10193 H 914.53 3.11521 0.879581 0
M  V30 10194 H 913.437 3.4646 -1.41125 0
M  V30 10195 H 914.77 4.56573 -1.83852 0
M  V30 10196 N 916.422 0.810101 1.35185 0
M  V30 10197 C 917.352 0.237453 2.32289 0
M  V30 10198 C 918.333 -0.639032 1.5764 0
M  V30 10199 O 919.518 -0.568575 1.8569 0
M  V30 10200 C 916.648 -0.611964 3.41866 0
M  V30 10201 C 915.602 0.166318 4.27677 0
M  V30 10202 C 914.928 -0.805024 5.28605 0
M  V30 10203 C 916.228 1.36729 5.04086 0
M  V30 10204 H 917.922 1.04874 2.80432 0
M  V30 10205 H 915.468 0.505751 1.34826 0
M  V30 10206 H 917.421 -1.02267 4.08802 0
M  V30 10207 H 916.145 -1.45617 2.92341 0
M  V30 10208 H 914.804 0.558238 3.62325 0
M  V30 10209 H 914.452 -1.64483 4.75347 0
M  V30 10210 H 914.152 -0.288577 5.86891 0
M  V30 10211 H 915.676 -1.21386 5.98413 0
M  V30 10212 H 917.09 1.03128 5.63948 0
M  V30 10213 H 915.487 1.81848 5.71884 0
M  V30 10214 H 916.557 2.15214 4.34524 0
M  V30 10215 N 917.9 -1.47166 0.563914 0
M  V30 10216 C 919.128 -2.06846 0.0474287 0
M  V30 10217 C 919.543 -1.41557 -1.24928 0
M  V30 10218 O 918.9 -0.514376 -1.75101 0
M  V30 10219 C 918.951 -3.6121 -0.144831 0
M  V30 10220 O 918.672 -4.24052 1.10053 0
M  V30 10221 C 920.173 -4.37773 -0.69783 0
M  V30 10222 H 917.393 -0.669217 0.0488896 0
M  V30 10223 H 919.937 -1.89072 0.779235 0
M  V30 10224 H 918.092 -3.78474 -0.82679 0
M  V30 10225 H 918.506 -5.16677 0.902481 0
M  V30 10226 H 919.98 -5.46438 -0.781616 0
M  V30 10227 H 920.457 -4.04517 -1.71063 0
M  V30 10228 H 921.063 -4.25269 -0.0513516 0
M  V30 10229 N 919.378 -0.300708 -1.54705 0
M  V30 10230 C 920.288 0.584996 -2.27189 0
M  V30 10231 C 921.304 1.14866 -1.30697 0
M  V30 10232 O 922.48 1.17351 -1.63679 0
M  V30 10233 C 919.545 1.74076 -2.99831 0
M  V30 10234 C 918.606 1.2112 -4.1186 0
M  V30 10235 C 917.839 2.31188 -4.81028 0
M  V30 10236 O 918.062 3.5108 -4.49554 0
M  V30 10237 O 916.996 1.97897 -5.68437 0
M  V30 10238 H 920.822 -0.00298177 -3.037 0
M  V30 10239 H 918.407 -0.0671802 -1.49249 0
M  V30 10240 H 920.289 2.41413 -3.45395 0
M  V30 10241 H 918.964 2.31535 -2.26215 0
M  V30 10242 H 917.871 0.50357 -3.70695 0
M  V30 10243 H 919.204 0.682046 -4.87452 0
M  V30 10244 N 920.856 1.57574 -0.0284266 0
M  V30 10245 C 921.766 2.13637 0.96936 0
M  V30 10246 C 922.782 1.08845 1.35752 0
M  V30 10247 O 923.958 1.40899 1.43908 0
M  V30 10248 C 921.023 2.65179 2.2334 0
M  V30 10249 C 920.084 3.84683 1.90572 0
M  V30 10250 C 919.317 4.33758 3.1095 0
M  V30 10251 O 919.54 3.82009 4.23586 0
M  V30 10252 O 918.474 5.2561 2.93288 0
M  V30 10253 H 922.3 2.99169 0.52267 0
M  V30 10254 H 919.885 1.48159 0.192135 0
M  V30 10255 H 921.767 2.98402 2.97547 0
M  V30 10256 H 920.442 1.82731 2.67191 0
M  V30 10257 H 919.349 3.56386 1.13753 0
M  V30 10258 H 920.682 4.68292 1.51538 0
M  V30 10259 N 922.334 -0.244713 1.55689 0
M  V30 10260 C 923.244 -1.32447 1.93636 0
M  V30 10261 C 924.26 -1.52541 0.837086 0
M  V30 10262 O 925.436 -1.66121 1.13867 0
M  V30 10263 C 922.501 -2.65864 2.22525 0
M  V30 10264 C 921.562 -2.54273 3.45896 0
M  V30 10265 C 920.795 -3.81327 3.73397 0
M  V30 10266 O 921.018 -4.83307 3.02936 0
M  V30 10267 O 919.952 -3.79829 4.66919 0
M  V30 10268 H 923.778 -1.03255 2.85608 0
M  V30 10269 H 921.363 -0.445652 1.42598 0
M  V30 10270 H 923.245 -3.447 2.42404 0
M  V30 10271 H 921.92 -2.94784 1.33731 0
M  V30 10272 H 920.827 -1.73715 3.31321 0
M  V30 10273 H 922.16 -2.30297 4.34999 0
M  V30 10274 N 923.813 -1.49104 -0.510467 0
M  V30 10275 C 924.76 -1.65074 -1.61305 0
M  V30 10276 C 925.73 -0.492362 -1.58635 0
M  V30 10277 O 926.915 -0.718241 -1.76765 0
M  V30 10278 C 924.055 -1.71457 -2.99493 0
M  V30 10279 C 923.168 -2.98536 -3.12251 0
M  V30 10280 C 922.303 -2.95957 -4.41116 0
M  V30 10281 C 921.342 -4.17655 -4.47471 0
M  V30 10282 N 920.479 -4.13041 -5.67751 0
M  V30 10283 H 925.319 -2.59222 -1.46996 0
M  V30 10284 H 922.856 -1.28535 -0.715346 0
M  V30 10285 H 924.814 -1.7314 -3.79577 0
M  V30 10286 H 923.444 -0.807834 -3.12528 0
M  V30 10287 H 922.496 -3.06509 -2.25292 0
M  V30 10288 H 923.808 -3.88527 -3.12807 0
M  V30 10289 H 922.962 -2.96149 -5.2951 0
M  V30 10290 H 921.701 -2.03728 -4.4311 0
M  V30 10291 H 920.706 -4.17717 -3.57481 0
M  V30 10292 H 921.931 -5.11066 -4.472 0
M  V30 10293 H 919.877 -3.23643 -5.70606 0
M  V30 10294 H 919.794 -4.96757 -5.69884 0
M  V30 10295 H 921.062 -4.17322 -6.58379 0
M  V30 10296 N 925.291 0.760815 -1.38019 0
M  V30 10297 C 926.238 1.8744 -1.34666 0
M  V30 10298 C 927.208 1.64762 -0.210386 0
M  V30 10299 O 928.393 1.86528 -0.401479 0
M  V30 10300 C 925.533 3.24648 -1.17037 0
M  V30 10301 C 924.646 3.59206 -2.3999 0
M  V30 10302 C 923.781 4.8568 -2.15148 0
M  V30 10303 C 922.82 5.13002 -3.3391 0
M  V30 10304 N 921.957 6.30668 -3.08549 0
M  V30 10305 H 926.797 1.8964 -2.29871 0
M  V30 10306 H 924.334 0.927004 -1.14215 0
M  V30 10307 H 926.292 4.03814 -1.04834 0
M  V30 10308 H 924.922 3.21793 -0.254758 0
M  V30 10309 H 923.974 2.74939 -2.62893 0
M  V30 10310 H 925.286 3.75328 -3.28527 0
M  V30 10311 H 924.44 5.72773 -2.00039 0
M  V30 10312 H 923.179 4.71682 -1.23965 0
M  V30 10313 H 922.184 4.2438 -3.49545 0
M  V30 10314 H 923.409 5.28901 -4.25958 0
M  V30 10315 H 921.355 6.18008 -2.20006 0
M  V30 10316 H 921.272 6.47257 -3.90633 0
M  V30 10317 H 922.54 7.20669 -2.9708 0
M  V30 10318 N 926.769 1.22769 0.988202 0
M  V30 10319 C 927.716 1.00195 2.07917 0
M  V30 10320 C 928.686 -0.0779391 1.65917 0
M  V30 10321 O 929.871 0.0726005 1.90662 0
M  V30 10322 C 927.011 0.590853 3.40004 0
M  V30 10323 C 926.124 1.74202 3.9532 0
M  V30 10324 C 925.259 1.27846 5.15586 0
M  V30 10325 C 924.298 2.40087 5.63049 0
M  V30 10326 N 923.435 1.94744 6.74551 0
M  V30 10327 H 928.275 1.93581 2.26562 0
M  V30 10328 H 925.812 0.96448 1.11068 0
M  V30 10329 H 927.77 0.333653 4.15864 0
M  V30 10330 H 926.4 -0.306007 3.21346 0
M  V30 10331 H 925.452 2.11342 3.16289 0
M  V30 10332 H 926.764 2.58612 4.26522 0
M  V30 10333 H 925.918 0.978919 5.9875 0
M  V30 10334 H 924.657 0.404617 4.86019 0
M  V30 10335 H 923.662 2.70824 4.78471 0
M  V30 10336 H 924.887 3.27995 5.9464 0
M  V30 10337 H 922.833 1.09729 6.46758 0
M  V30 10338 H 922.75 2.72718 7.05096 0
M  V30 10339 H 924.018 1.67873 7.61209 0
M  V30 10340 N 928.247 -1.18576 1.03814 0
M  V30 10341 C 929.157 -2.25778 0.637311 0
M  V30 10342 C 930.173 -1.7074 -0.335248 0
M  V30 10343 O 931.349 -2.00494 -0.19081 0
M  V30 10344 C 928.414 -3.467 0.00386953 0
M  V30 10345 C 927.475 -4.16881 1.02511 0
M  V30 10346 C 926.708 -5.32031 0.421802 0
M  V30 10347 O 926.931 -5.65142 -0.772699 0
M  V30 10348 O 925.865 -5.90826 1.14925 0
M  V30 10349 H 929.691 -2.62323 1.53037 0
M  V30 10350 H 927.276 -1.25609 0.80887 0
M  V30 10351 H 929.158 -4.19953 -0.348873 0
M  V30 10352 H 927.833 -3.11983 -0.863047 0
M  V30 10353 H 926.74 -3.45707 1.4296 0
M  V30 10354 H 928.073 -4.55592 1.86271 0
M  V30 10355 N 929.725 -0.817259 -1.34754 0
M  V30 10356 C 930.657 -0.192695 -2.28389 0
M  V30 10357 C 931.67 0.614167 -1.50771 0
M  V30 10358 O 932.859 0.444776 -1.7287 0
M  V30 10359 C 929.959 0.748929 -3.30521 0
M  V30 10360 C 929.132 -0.0138762 -4.37398 0
M  V30 10361 C 928.191 0.847825 -5.19325 0
M  V30 10362 O 927.217 0.29487 -5.68436 0
M  V30 10363 N 928.419 2.16843 -5.38479 0
M  V30 10364 H 931.184 -0.997122 -2.82626 0
M  V30 10365 H 928.745 -0.673696 -1.47217 0
M  V30 10366 H 930.737 1.32987 -3.82226 0
M  V30 10367 H 929.307 1.45412 -2.7672 0
M  V30 10368 H 928.527 -0.776093 -3.86485 0
M  V30 10369 H 929.815 -0.539191 -5.05935 0
M  V30 10370 H 929.213 2.64148 -5.00242 0
M  V30 10371 H 927.77 2.69835 -5.93323 0
M  V30 10372 N 931.203 1.46865 -0.571711 0
M  V30 10373 C 932.135 2.28277 0.205479 0
M  V30 10374 C 933.148 1.37866 0.865835 0
M  V30 10375 O 934.337 1.62564 0.737247 0
M  V30 10376 C 931.437 3.12572 1.30965 0
M  V30 10377 C 930.61 4.31038 0.743328 0
M  V30 10378 C 929.669 4.96815 1.73382 0
M  V30 10379 O 928.695 5.54755 1.2742 0
M  V30 10380 N 929.897 4.92825 3.06764 0
M  V30 10381 H 932.662 2.95618 -0.49294 0
M  V30 10382 H 930.223 1.56655 -0.408744 0
M  V30 10383 H 932.215 3.53442 1.97131 0
M  V30 10384 H 930.785 2.47378 1.91109 0
M  V30 10385 H 930.005 3.94084 -0.0955004 0
M  V30 10386 H 931.293 5.07632 0.344556 0
M  V30 10387 H 930.691 4.46978 3.46738 0
M  V30 10388 H 929.248 5.3767 3.68449 0
M  V30 10389 N 932.681 0.308908 1.54543 0
M  V30 10390 C 933.614 -0.605854 2.20011 0
M  V30 10391 C 934.592 -1.1269 1.17216 0
M  V30 10392 O 935.776 -1.19363 1.45893 0
M  V30 10393 C 932.903 -1.82977 2.85021 0
M  V30 10394 C 931.949 -1.44126 4.0141 0
M  V30 10395 S 932.782 -0.490445 5.33249 0
M  V30 10396 C 933.938 -1.72198 6.01746 0
M  V30 10397 H 934.171 -0.0496911 2.97258 0
M  V30 10398 H 931.704 0.0930238 1.5412 0
M  V30 10399 H 933.662 -2.53211 3.23102 0
M  V30 10400 H 932.323 -2.35711 2.07604 0
M  V30 10401 H 931.516 -2.35288 4.45708 0
M  V30 10402 H 931.118 -0.818788 3.64927 0
M  V30 10403 H 933.41 -2.66147 6.23034 0
M  V30 10404 H 934.353 -1.32142 6.95661 0
M  V30 10405 H 934.761 -1.90229 5.31482 0
M  V30 10406 N 934.159 -1.57557 0.0367827 0
M  V30 10407 C 935.091 -2.07597 -0.971395 0
M  V30 10408 C 936.104 -1.0009 -1.28397 0
M  V30 10409 O 937.293 -1.27692 -1.24728 0
M  V30 10410 C 934.393 -2.492 -2.2968 0
M  V30 10411 C 933.566 -3.79875 -2.16826 0
M  V30 10412 C 932.625 -4.07946 -3.32366 0
M  V30 10413 O 931.651 -4.78083 -3.0891 0
M  V30 10414 N 932.853 -3.58722 -4.56397 0
M  V30 10415 H 935.618 -2.94714 -0.544389 0
M  V30 10416 H 933.179 -1.61205 -0.1498 0
M  V30 10417 H 935.171 -2.65065 -3.05815 0
M  V30 10418 H 933.741 -1.67407 -2.63995 0
M  V30 10419 H 932.961 -3.73732 -1.2537 0
M  V30 10420 H 934.249 -4.65476 -2.0545 0
M  V30 10421 H 933.647 -3.01994 -4.78347 0
M  V30 10422 H 932.204 -3.79852 -5.29675 0
M  V30 10423 N 935.637 0.236453 -1.55816 0
M  V30 10424 C 936.584 1.29289 -1.91188 0
M  V30 10425 C 937.554 1.47315 -0.767301 0
M  V30 10426 O 938.739 1.61128 -1.02189 0
M  V30 10427 C 935.879 2.64126 -2.22107 0
M  V30 10428 C 934.992 2.54022 -3.49423 0
M  V30 10429 C 934.127 3.81282 -3.69861 0
M  V30 10430 C 933.166 3.65839 -4.90743 0
M  V30 10431 N 932.303 4.85014 -5.07647 0
M  V30 10432 H 937.143 0.98424 -2.81277 0
M  V30 10433 H 934.68 0.474722 -1.39229 0
M  V30 10434 H 936.638 3.42626 -2.3804 0
M  V30 10435 H 935.268 2.93118 -1.35209 0
M  V30 10436 H 934.32 1.67036 -3.41765 0
M  V30 10437 H 935.632 2.38525 -4.38072 0
M  V30 10438 H 934.786 4.68226 -3.8581 0
M  V30 10439 H 933.525 3.99688 -2.79465 0
M  V30 10440 H 932.53 2.77279 -4.74759 0
M  V30 10441 H 933.755 3.48918 -5.82609 0
M  V30 10442 H 931.701 5.03762 -4.20191 0
M  V30 10443 H 931.618 4.72188 -5.90402 0
M  V30 10444 H 932.886 5.73427 -5.28017 0
M  V30 10445 N 937.115 1.49373 0.502552 0
M  V30 10446 C 938.048 1.60529 1.6219 0
M  V30 10447 C 939.026 0.454431 1.56121 0
M  V30 10448 O 940.21 0.669768 1.762 0
M  V30 10449 C 937.337 1.55879 3.00698 0
M  V30 10450 C 936.383 2.76143 3.25034 0
M  V30 10451 S 937.216 4.37831 3.08325 0
M  V30 10452 C 938.372 4.35824 4.49231 0
M  V30 10453 H 938.605 2.55219 1.52482 0
M  V30 10454 H 936.138 1.38244 0.687594 0
M  V30 10455 H 938.096 1.53882 3.80566 0
M  V30 10456 H 936.757 0.624791 3.07823 0
M  V30 10457 H 935.95 2.69104 4.26144 0
M  V30 10458 H 935.552 2.75544 2.52886 0
M  V30 10459 H 937.844 4.07447 5.41288 0
M  V30 10460 H 938.787 5.37206 4.6132 0
M  V30 10461 H 939.195 3.65923 4.29838 0
M  V30 10462 N 938.594 -0.753485 1.38421 0
M  V30 10463 C 939.824 -1.54049 1.37669 0
M  V30 10464 C 940.232 -1.89167 -0.0353656 0
M  V30 10465 O 939.575 -1.53285 -1.01239 0
M  V30 10466 C 939.637 -2.86777 2.16793 0
M  V30 10467 C 939.301 -2.74196 3.65603 0
M  V30 10468 C 940.298 -2.43985 4.59094 0
M  V30 10469 C 937.983 -2.91645 4.0896 0
M  V30 10470 C 939.977 -2.31379 5.93921 0
M  V30 10471 C 937.664 -2.78658 5.43868 0
M  V30 10472 C 938.662 -2.48568 6.36163 0
M  V30 10473 O 938.35 -2.3564 7.68589 0
M  V30 10474 H 938.082 -0.483276 0.472673 0
M  V30 10475 H 940.636 -0.940267 1.82615 0
M  V30 10476 H 938.866 -3.48988 1.66565 0
M  V30 10477 H 940.555 -3.48289 2.08446 0
M  V30 10478 H 941.321 -2.30172 4.26902 0
M  V30 10479 H 937.2 -3.14063 3.37469 0
M  V30 10480 H 940.744 -2.07813 6.65927 0
M  V30 10481 H 936.641 -2.92044 5.75656 0
M  V30 10482 H 937.409 -2.50851 7.79112 0
M  V30 10483 N 940.072 -1.23292 -0.981677 0
M  V30 10484 C 941.019 -1.01296 -2.07383 0
M  V30 10485 C 941.989 0.069139 -1.65956 0
M  V30 10486 O 943.174 -0.0827108 -1.90621 0
M  V30 10487 C 940.314 -0.608876 -3.39686 0
M  V30 10488 C 939.427 -1.76296 -3.9439 0
M  V30 10489 C 938.562 -1.30578 -5.14901 0
M  V30 10490 C 937.601 -2.4307 -5.61768 0
M  V30 10491 N 936.738 -1.98319 -6.73509 0
M  V30 10492 H 941.578 -1.9478 -2.25532 0
M  V30 10493 H 939.115 -0.970356 -1.10555 0
M  V30 10494 H 941.073 -0.355702 -4.15681 0
M  V30 10495 H 939.703 0.288961 -3.21504 0
M  V30 10496 H 938.755 -2.13017 -3.15163 0
M  V30 10497 H 940.067 -2.60871 -4.25145 0
M  V30 10498 H 939.221 -1.01066 -5.98223 0
M  V30 10499 H 937.96 -0.430386 -4.85797 0
M  V30 10500 H 936.965 -2.73358 -4.77028 0
M  V30 10501 H 938.19 -3.31144 -5.92892 0
M  V30 10502 H 936.136 -1.13157 -6.46167 0
M  V30 10503 H 936.053 -2.76454 -7.0364 0
M  V30 10504 H 937.321 -1.71907 -7.60308 0
M  V30 10505 N 941.55 1.18024 -1.04442 0
M  V30 10506 C 942.513 2.19992 -0.643136 0
M  V30 10507 C 943.513 1.57949 0.301444 0
M  V30 10508 O 944.703 1.73986 0.0863341 0
M  V30 10509 C 941.835 3.40853 0.0565208 0
M  V30 10510 H 943.028 2.57008 -1.54554 0
M  V30 10511 H 940.581 1.31974 -0.837408 0
M  V30 10512 H 941.316 3.09373 0.972553 0
M  V30 10513 H 941.101 3.87128 -0.622439 0
M  V30 10514 H 942.591 4.16344 0.323652 0
M  V30 10515 N 943.028 0.824394 1.34319 0
M  V30 10516 C 943.958 0.262077 2.32025 0
M  V30 10517 C 944.939 -0.622277 1.58309 0
M  V30 10518 O 946.124 -0.548848 1.86283 0
M  V30 10519 C 943.254 -0.57567 3.42496 0
M  V30 10520 C 942.208 0.21167 4.27476 0
M  V30 10521 C 941.534 -0.748913 5.29429 0
M  V30 10522 C 942.834 1.42068 5.02607 0
M  V30 10523 H 944.528 1.07842 2.79304 0
M  V30 10524 H 942.074 0.520022 1.34282 0
M  V30 10525 H 944.027 -0.979251 4.09864 0
M  V30 10526 H 942.751 -1.42508 2.93869 0
M  V30 10527 H 941.41 0.596636 3.61712 0
M  V30 10528 H 941.058 -1.59432 4.77064 0
M  V30 10529 H 940.758 -0.226313 5.87164 0
M  V30 10530 H 942.282 -1.15032 5.99667 0
M  V30 10531 H 943.696 1.09103 5.62823 0
M  V30 10532 H 942.093 1.87903 5.69923 0
M  V30 10533 H 943.163 2.1981 4.32217 0
M  V30 10534 N 944.506 -1.46559 0.579492 0
M  V30 10535 C 945.755 -2.01606 0.0615735 0
M  V30 10536 C 946.068 -1.45695 -1.30508 0
M  V30 10537 O 947.274 -1.92541 -1.91416 0
M  V30 10538 C 945.73 -3.59851 0.059496 0
M  V30 10539 C 945.338 -4.24757 1.42427 0
M  V30 10540 C 947.082 -4.22567 -0.404646 0
M  V30 10541 C 944.989 -5.75072 1.38009 0
M  V30 10542 H 943.919 -0.753754 0.0192491 0
M  V30 10543 H 946.57 -1.68326 0.73066 0
M  V30 10544 H 944.952 -3.90193 -0.675691 0
M  V30 10545 H 946.126 -4.06029 2.17893 0
M  V30 10546 H 944.441 -3.74121 1.82817 0
M  V30 10547 H 947.038 -5.32748 -0.456441 0
M  V30 10548 H 947.381 -3.91279 -1.42149 0
M  V30 10549 H 947.914 -3.96839 0.276376 0
M  V30 10550 H 944.653 -6.11014 2.37364 0
M  V30 10551 H 944.173 -5.96073 0.667583 0
M  V30 10552 H 945.852 -6.37724 1.09163 0
M  V30 10553 N 945.984 -0.3171 -1.54377 0
M  V30 10554 C 947.261 0.341348 -1.92598 0
M  V30 10555 C 947.641 1.70402 -1.24605 0
M  V30 10556 O 946.989 2.25191 -0.387448 0
M  V30 10557 C 947.199 0.440003 -3.46215 0
M  V30 10558 C 948.547 0.703327 -4.18734 0
M  V30 10559 O 949.571 0.523181 -3.52337 0
M  V30 10560 O 948.43 1.05042 -5.3631 0
M  V30 10561 H 945.524 0.193696 -0.803997 0
M  V30 10562 H 948.07 -0.366341 -1.65699 0
M  V30 10563 H 946.842 -0.517299 -3.87866 0
M  V30 10564 H 946.465 1.19553 -3.792 0
M  V30 10565 N 947.462 1.57535 -0.0451378 0
M  V30 10566 C 948.708 1.92736 0.630921 0
M  V30 10567 C 949.041 0.923265 1.70849 0
M  V30 10568 O 948.316 -0.0516512 1.94431 0
M  V30 10569 C 948.599 3.38348 1.23259 0
M  V30 10570 C 948.452 4.49503 0.16349 0
M  V30 10571 C 949.771 3.84233 2.14599 0
M  V30 10572 H 946.89 0.700884 0.227883 0
M  V30 10573 H 949.532 1.89706 -0.10567 0
M  V30 10574 H 947.682 3.41061 1.86037 0
M  V30 10575 H 949.354 4.58919 -0.46808 0
M  V30 10576 H 947.597 4.30802 -0.509166 0
M  V30 10577 H 948.268 5.48457 0.624382 0
M  V30 10578 H 950.744 3.83358 1.6179 0
M  V30 10579 H 949.62 4.86781 2.53644 0
M  V30 10580 H 949.881 3.20646 3.04366 0
M  V30 10581 N 948.94 -0.228186 1.55939 0
M  V30 10582 C 950.189 -0.951563 1.77843 0
M  V30 10583 C 950.502 -1.85763 0.612501 0
M  V30 10584 O 951.708 -2.61916 0.715006 0
M  V30 10585 C 950.164 -1.74216 3.14923 0
M  V30 10586 C 949.772 -0.882569 4.39221 0
M  V30 10587 C 951.516 -2.45715 3.46156 0
M  V30 10588 C 949.423 -1.67014 5.67327 0
M  V30 10589 H 948.353 -0.359035 0.663031 0
M  V30 10590 H 951.004 -0.205636 1.82344 0
M  V30 10591 H 949.386 -2.53075 3.0458 0
M  V30 10592 H 950.56 -0.13499 4.60602 0
M  V30 10593 H 948.875 -0.280022 4.15457 0
M  V30 10594 H 951.472 -3.05127 4.39092 0
M  V30 10595 H 951.815 -3.1827 2.68346 0
M  V30 10596 H 952.348 -1.73852 3.57799 0
M  V30 10597 H 949.087 -0.987985 6.48012 0
M  V30 10598 H 948.607 -2.3925 5.50018 0
M  V30 10599 H 950.286 -2.23252 6.07262 0
M  V30 10600 N 950.418 -1.49637 -0.494624 0
M  V30 10601 C 951.643 -1.63431 -1.27691 0
M  V30 10602 C 952.068 -0.30813 -1.85559 0
M  V30 10603 O 951.426 0.725083 -1.66169 0
M  V30 10604 C 951.474 -2.71043 -2.3784 0
M  V30 10605 O 950.578 -2.3066 -3.41862 0
M  V30 10606 H 949.919 -0.546804 -0.376698 0
M  V30 10607 H 952.449 -1.95866 -0.591413 0
M  V30 10608 H 952.459 -2.93406 -2.83508 0
M  V30 10609 H 951.134 -3.67306 -1.95088 0
M  V30 10610 H 949.711 -2.18652 -3.02069 0
M  V30 10611 N 951.896 0.746133 -1.38819 0
M  V30 10612 C 953.173 1.49652 -1.25951 0
M  V30 10613 C 953.553 2.10663 0.135833 0
M  V30 10614 O 952.901 1.97682 1.14604 0
M  V30 10615 C 953.111 2.5569 -2.37537 0
M  V30 10616 C 954.459 3.22385 -2.76321 0
M  V30 10617 O 955.483 2.65998 -2.36904 0
M  V30 10618 O 954.342 4.2439 -3.44319 0
M  V30 10619 H 951.436 0.664019 -0.492958 0
M  V30 10620 H 953.982 0.780908 -1.50665 0
M  V30 10621 H 952.754 2.08908 -3.30867 0
M  V30 10622 H 952.377 3.34823 -2.14427 0
M  V30 10623 N 953.375 1.23811 0.975125 0
M  V30 10624 C 954.603 1.10019 1.75224 0
M  V30 10625 C 955.018 -0.34791 1.85567 0
M  V30 10626 O 954.375 -1.24043 1.33864 0
M  V30 10627 C 954.426 1.72572 3.1765 0
M  V30 10628 O 954.147 3.11719 3.07836 0
M  V30 10629 C 955.648 1.64292 4.11732 0
M  V30 10630 H 952.868 0.38476 0.549728 0
M  V30 10631 H 955.412 1.63768 1.22476 0
M  V30 10632 H 953.567 1.22843 3.67408 0
M  V30 10633 H 953.981 3.42152 3.97533 0
M  V30 10634 H 955.455 2.12754 5.09352 0
M  V30 10635 H 955.932 0.602722 4.35045 0
M  V30 10636 H 956.538 2.13411 3.6788 0
M  V30 10637 N 954.853 -1.17469 1.05066 0
M  V30 10638 C 955.783 -2.23635 0.671552 0
M  V30 10639 C 956.764 -1.66867 -0.33006 0
M  V30 10640 O 957.949 -1.93084 -0.207933 0
M  V30 10641 C 955.079 -3.47272 0.0441845 0
M  V30 10642 C 954.033 -4.16854 0.97042 0
M  V30 10643 C 953.359 -5.34299 0.206998 0
M  V30 10644 C 954.659 -4.69225 2.29401 0
M  V30 10645 H 956.353 -2.55602 1.55911 0
M  V30 10646 H 953.899 -1.2286 0.751101 0
M  V30 10647 H 955.852 -4.20756 -0.23282 0
M  V30 10648 H 954.576 -3.14568 -0.878311 0
M  V30 10649 H 953.235 -3.4528 1.23197 0
M  V30 10650 H 952.883 -4.97846 -0.718222 0
M  V30 10651 H 952.583 -5.81792 0.82416 0
M  V30 10652 H 954.107 -6.10568 -0.0627525 0
M  V30 10653 H 955.521 -5.34353 2.077 0
M  V30 10654 H 953.918 -5.27291 2.86503 0
M  V30 10655 H 954.988 -3.86102 2.93348 0
M  V30 10656 N 956.331 -0.831506 -1.3388 0
M  V30 10657 C 957.278 -0.257449 -2.2936 0
M  V30 10658 C 958.248 0.622604 -1.5399 0
M  V30 10659 O 959.433 0.562432 -1.82322 0
M  V30 10660 C 956.573 0.567587 -3.404 0
M  V30 10661 C 955.686 -0.335666 -4.30694 0
M  V30 10662 C 954.821 0.499762 -5.28844 0
M  V30 10663 C 953.86 -0.402343 -6.10776 0
M  V30 10664 N 952.997 0.39452 -7.00991 0
M  V30 10665 H 957.837 -1.077 -2.77857 0
M  V30 10666 H 955.374 -0.542589 -1.36727 0
M  V30 10667 H 957.332 1.06133 -4.03474 0
M  V30 10668 H 955.962 1.35217 -2.93115 0
M  V30 10669 H 955.014 -0.94768 -3.68406 0
M  V30 10670 H 956.326 -1.02896 -4.88072 0
M  V30 10671 H 955.48 1.05763 -5.9741 0
M  V30 10672 H 954.219 1.22652 -4.72025 0
M  V30 10673 H 953.224 -0.972288 -5.41135 0
M  V30 10674 H 954.449 -1.12735 -6.69677 0
M  V30 10675 H 952.395 1.1048 -6.4663 0
M  V30 10676 H 952.312 -0.240209 -7.55618 0
M  V30 10677 H 953.58 0.934867 -7.73874 0
M  V30 10678 N 957.809 1.4625 -0.587256 0
M  V30 10679 C 958.757 2.32076 0.156108 0
M  V30 10680 C 959.751 1.44756 0.879887 0
M  V30 10681 O 960.957 1.61356 0.797759 0
M  V30 10682 H 957.332 0.748808 0.0692098 0
M  V30 10683 H 959.303 2.9258 -0.586497 0
M  V30 10684 C 958.052 3.28008 1.15352 0
M  V30 10685 H 957.375 3.9518 0.60601 0
M  V30 10686 H 958.815 3.90832 1.64396 0
M  V30 10687 C 957.274 2.53691 2.21681 0
M  V30 10688 O 957.804 2.30329 3.29107 0
M  V30 10689 N 956.01 2.14174 1.96412 0
M  V30 10690 H 955.557 2.33374 1.09061 0
M  V30 10691 H 955.515 1.6477 2.67765 0
M  V30 10692 N 959.287 0.325282 1.54207 0
M  V30 10693 C 960.219 -0.57395 2.21897 0
M  V30 10694 C 961.232 -1.0785 1.21952 0
M  V30 10695 O 962.421 -0.991782 1.48411 0
M  V30 10696 C 959.521 -1.8005 2.87115 0
M  V30 10697 C 958.694 -1.43435 4.13213 0
M  V30 10698 C 957.753 -2.51862 4.62009 0
M  V30 10699 O 956.779 -2.15934 5.26651 0
M  V30 10700 N 957.981 -3.8282 4.36382 0
M  V30 10701 H 960.746 0.00566918 2.99699 0
M  V30 10702 H 958.307 0.148563 1.61217 0
M  V30 10703 H 960.299 -2.51981 3.16682 0
M  V30 10704 H 958.869 -2.28792 2.13009 0
M  V30 10705 H 958.089 -0.546598 3.90392 0
M  V30 10706 H 959.377 -1.16544 4.95273 0
M  V30 10707 H 958.775 -4.14807 3.84645 0
M  V30 10708 H 957.332 -4.50976 4.70599 0
M  V30 10709 N 960.765 -1.57509 0.0534917 0
M  V30 10710 C 962.014 -1.91959 -0.619244 0
M  V30 10711 C 962.327 -0.933882 -1.71866 0
M  V30 10712 O 963.533 -1.17052 -2.44972 0
M  V30 10713 C 961.989 -3.40938 -1.15278 0
M  V30 10714 C 961.597 -4.47919 -0.085348 0
M  V30 10715 C 963.341 -3.84419 -1.80063 0
M  V30 10716 C 961.248 -5.88014 -0.631897 0
M  V30 10717 H 960.178 -0.71642 -0.235072 0
M  V30 10718 H 962.829 -1.83089 0.122758 0
M  V30 10719 H 961.211 -3.44821 -1.94717 0
M  V30 10720 H 962.385 -4.55629 0.688374 0
M  V30 10721 H 960.7 -4.13793 0.465178 0
M  V30 10722 H 963.297 -4.86457 -2.21954 0
M  V30 10723 H 963.64 -3.20791 -2.65328 0
M  V30 10724 H 964.173 -3.83062 -1.07275 0
M  V30 10725 H 960.912 -6.55244 0.183175 0
M  V30 10726 H 960.432 -5.83861 -1.37355 0
M  V30 10727 H 962.111 -6.37336 -1.11407 0
M  V30 10728 N 962.243 0.219913 -1.56058 0
M  V30 10729 C 963.49 0.944064 -1.79147 0
M  V30 10730 C 963.818 1.84268 -0.622531 0
M  V30 10731 O 963.073 1.91713 0.393013 0
M  V30 10732 C 963.372 1.81293 -3.08006 0
M  V30 10733 C 963.038 1.0674 -4.38084 0
M  V30 10734 C 961.7 0.86147 -4.73426 0
M  V30 10735 C 964.052 0.541049 -5.18384 0
M  V30 10736 C 961.38 0.117307 -5.86583 0
M  V30 10737 C 963.732 -0.189779 -6.32315 0
M  V30 10738 C 962.396 -0.406951 -6.66258 0
M  V30 10739 H 961.666 0.345458 -0.655546 0
M  V30 10740 H 964.313 0.212121 -1.90322 0
M  V30 10741 H 962.618 2.61278 -2.9196 0
M  V30 10742 H 964.315 2.3754 -3.23072 0
M  V30 10743 H 960.905 1.23789 -4.10334 0
M  V30 10744 H 965.089 0.687617 -4.91514 0
M  V30 10745 H 960.345 -0.0611651 -6.11369 0
M  V30 10746 H 964.519 -0.605134 -6.93766 0
M  V30 10747 H 962.146 -0.985511 -7.53785 0
M  V30 10748 N 963.721 1.49897 0.486681 0
M  V30 10749 C 964.668 1.67619 1.58658 0
M  V30 10750 C 965.638 0.517537 1.57831 0
M  V30 10751 O 966.823 0.746272 1.756 0
M  V30 10752 C 963.963 1.762 2.96728 0
M  V30 10753 C 963.076 3.03465 3.07462 0
M  V30 10754 C 962.211 3.02937 4.36351 0
M  V30 10755 C 961.25 4.24721 4.4077 0
M  V30 10756 N 960.387 4.22021 5.61108 0
M  V30 10757 H 965.227 2.61528 1.42853 0
M  V30 10758 H 962.764 1.29657 0.694807 0
M  V30 10759 H 964.722 1.79156 3.76774 0
M  V30 10760 H 963.352 0.857452 3.11203 0
M  V30 10761 H 962.404 3.10054 2.20387 0
M  V30 10762 H 963.716 3.93454 3.06586 0
M  V30 10763 H 962.87 3.04536 5.24731 0
M  V30 10764 H 961.609 2.10751 4.39813 0
M  V30 10765 H 960.614 4.23352 3.5079 0
M  V30 10766 H 961.839 5.18116 4.39013 0
M  V30 10767 H 959.785 3.3268 5.65385 0
M  V30 10768 H 959.702 5.05761 5.61909 0
M  V30 10769 H 960.97 4.27743 6.51656 0
M  V30 10770 N 965.199 -0.738761 1.39212 0
M  V30 10771 C 966.445 -1.50046 1.36433 0
M  V30 10772 C 966.778 -1.94157 -0.0409474 0
M  V30 10773 O 966.053 -1.66515 -1.00514 0
M  V30 10774 C 966.336 -2.74277 2.33333 0
M  V30 10775 C 966.189 -2.36209 3.82786 0
M  V30 10776 C 967.508 -3.76361 2.28123 0
M  V30 10777 H 964.627 -0.544294 0.496903 0
M  V30 10778 H 967.269 -0.845005 1.70175 0
M  V30 10779 H 965.419 -3.30204 2.04689 0
M  V30 10780 H 967.091 -1.85942 4.22165 0
M  V30 10781 H 965.334 -1.68483 3.99745 0
M  V30 10782 H 966.005 -3.25156 4.46069 0
M  V30 10783 H 968.481 -3.30009 2.53443 0
M  V30 10784 H 967.357 -4.60957 2.9801 0
M  V30 10785 H 967.618 -4.23013 1.28499 0
M  V30 10786 N 966.677 -1.24326 -0.968545 0
M  V30 10787 C 967.587 -1.05194 -2.09694 0
M  V30 10788 C 968.603 0.00701291 -1.73999 0
M  V30 10789 O 969.779 -0.190981 -2.00492 0
M  V30 10790 C 966.844 -0.658075 -3.40397 0
M  V30 10791 C 965.905 -1.79341 -3.90045 0
M  V30 10792 C 965.138 -1.41824 -5.14511 0
M  V30 10793 O 965.361 -0.307693 -5.69569 0
M  V30 10794 O 964.295 -2.24358 -5.58522 0
M  V30 10795 H 968.121 -1.99791 -2.2873 0
M  V30 10796 H 965.706 -1.03138 -1.08088 0
M  V30 10797 H 967.588 -0.449911 -4.18991 0
M  V30 10798 H 966.263 0.258782 -3.22664 0
M  V30 10799 H 965.17 -2.05632 -3.12516 0
M  V30 10800 H 966.503 -2.68901 -4.12254 0
M  V30 10801 N 968.156 1.1691 -1.05688 0
M  V30 10802 C 969.405 1.86629 -0.765022 0
M  V30 10803 C 969.718 1.82223 0.710918 0
M  V30 10804 O 970.924 2.47462 1.11691 0
M  V30 10805 C 969.38 3.34886 -1.3183 0
M  V30 10806 C 968.988 3.47781 -2.82404 0
M  V30 10807 C 970.732 4.099 -1.10372 0
M  V30 10808 C 968.639 4.9009 -3.31008 0
M  V30 10809 H 967.569 0.699082 -0.282491 0
M  V30 10810 H 970.22 1.31989 -1.27481 0
M  V30 10811 H 968.602 3.89094 -0.736312 0
M  V30 10812 H 969.776 3.03765 -3.46502 0
M  V30 10813 H 968.091 2.86193 -3.02461 0
M  V30 10814 H 970.688 5.14894 -1.4418 0
M  V30 10815 H 971.031 4.16279 -0.0417372 0
M  V30 10816 H 971.564 3.61913 -1.65117 0
M  V30 10817 H 968.303 4.88887 -4.36657 0
M  V30 10818 H 967.823 5.34756 -2.71655 0
M  V30 10819 H 969.502 5.58881 -3.25977 0
M  V30 10820 N 969.634 0.838594 1.33437 0
M  V30 10821 C 970.859 0.446701 2.02532 0
M  V30 10822 C 971.284 -0.944275 1.62681 0
M  V30 10823 O 970.642 -1.61733 0.81927 0
M  V30 10824 C 970.69 0.574794 3.55989 0
M  V30 10825 O 969.794 -0.399063 4.10465 0
M  V30 10826 H 969.135 0.181637 0.638674 0
M  V30 10827 H 971.665 1.13335 1.70342 0
M  V30 10828 H 971.675 0.456339 4.0544 0
M  V30 10829 H 970.35 1.58921 3.8434 0
M  V30 10830 H 968.927 -0.238187 3.72139 0
M  V30 10831 N 971.112 -1.45937 0.595003 0
M  V30 10832 C 972.528 -1.57507 0.257641 0
M  V30 10833 C 972.728 -1.58829 -1.23998 0
M  V30 10834 O 971.784 -1.51183 -2.02237 0
M  V30 10835 C 973.097 -2.86354 0.917708 0
M  V30 10836 C 974.645 -3.00007 0.892446 0
M  V30 10837 C 975.12 -4.31607 1.53229 0
M  V30 10838 N 976.611 -4.38336 1.49719 0
M  V30 10839 C 977.346 -5.38805 1.96154 0
M  V30 10840 N 976.842 -6.45882 2.50617 0
M  V30 10841 N 978.635 -5.30084 1.86997 0
M  V30 10842 H 970.786 -1.43322 1.56756 0
M  V30 10843 H 973.049 -0.684436 0.655936 0
M  V30 10844 H 972.755 -2.91233 1.97171 0
M  V30 10845 H 972.629 -3.74703 0.433344 0
M  V30 10846 H 975.016 -2.94703 -0.152975 0
M  V30 10847 H 975.097 -2.13103 1.41495 0
M  V30 10848 H 974.741 -4.3767 2.57697 0
M  V30 10849 H 974.671 -5.17308 0.984903 0
M  V30 10850 H 977.162 -3.6156 1.09921 0
M  V30 10851 H 977.475 -7.18774 2.83874 0
M  V30 10852 H 975.82 -6.46668 2.54649 0
M  V30 10853 H 979.011 -4.45337 1.44196 0
M  V30 10854 H 979.184 -6.08237 2.23499 0
M  V30 10855 N 972.59 -0.333456 -1.54032 0
M  V30 10856 C 974.006 0.0188405 -1.59589 0
M  V30 10857 C 974.206 1.49615 -1.34972 0
M  V30 10858 O 973.262 2.2535 -1.13901 0
M  V30 10859 C 974.575 -0.408273 -2.97915 0
M  V30 10860 C 976.123 -0.359763 -3.10926 0
M  V30 10861 C 976.598 -0.76219 -4.51613 0
M  V30 10862 N 978.089 -0.715981 -4.57633 0
M  V30 10863 C 978.824 -0.999436 -5.64623 0
M  V30 10864 N 978.32 -1.35053 -6.79509 0
M  V30 10865 N 980.113 -0.924343 -5.54448 0
M  V30 10866 H 972.264 -1.29587 -1.68289 0
M  V30 10867 H 974.527 -0.527584 -0.787629 0
M  V30 10868 H 974.233 -1.43793 -3.20962 0
M  V30 10869 H 974.107 0.221685 -3.76548 0
M  V30 10870 H 976.494 0.660703 -2.87609 0
M  V30 10871 H 976.575 -1.02479 -2.34375 0
M  V30 10872 H 976.219 -1.78062 -4.75664 0
M  V30 10873 H 976.149 -0.0747478 -5.26547 0
M  V30 10874 H 978.64 -0.456875 -3.75128 0
M  V30 10875 H 978.953 -1.55194 -7.57057 0
M  V30 10876 H 977.298 -1.38889 -6.80981 0
M  V30 10877 H 980.489 -0.649469 -4.63573 0
M  V30 10878 H 980.662 -1.1486 -6.37739 0
M  V30 10879 N 974.068 1.57479 -0.061844 0
M  V30 10880 C 974.998 2.15181 0.9066 0
M  V30 10881 C 975.979 1.07624 1.31724 0
M  V30 10882 O 977.164 1.35614 1.39006 0
M  V30 10883 C 974.294 2.70542 2.17771 0
M  V30 10884 C 973.248 3.83178 1.9068 0
M  V30 10885 C 972.574 4.25099 3.24337 0
M  V30 10886 C 973.874 5.07853 1.21994 0
M  V30 10887 H 975.568 2.96355 0.42594 0
M  V30 10888 H 973.114 1.42556 0.203435 0
M  V30 10889 H 975.067 3.09552 2.85929 0
M  V30 10890 H 973.791 1.86575 2.68062 0
M  V30 10891 H 972.45 3.44656 1.24931 0
M  V30 10892 H 972.098 3.38069 3.72449 0
M  V30 10893 H 971.798 5.01021 3.07005 0
M  V30 10894 H 973.322 4.66718 3.93709 0
M  V30 10895 H 974.736 5.44242 1.80204 0
M  V30 10896 H 973.133 5.88987 1.14954 0
M  V30 10897 H 974.203 4.84497 0.197536 0
M  V30 10898 N 975.546 -0.211634 1.56173 0
M  V30 10899 C 976.792 -0.935935 1.79911 0
M  V30 10900 C 977.125 -1.83589 0.633155 0
M  V30 10901 O 976.4 -1.91004 -0.367132 0
M  V30 10902 C 976.683 -1.76638 3.13801 0
M  V30 10903 C 976.536 -0.892259 4.40861 0
M  V30 10904 C 977.855 -2.74224 3.44223 0
M  V30 10905 H 974.974 -0.338822 0.654499 0
M  V30 10906 H 977.616 -0.20422 1.88899 0
M  V30 10907 H 975.766 -2.39021 3.0627 0
M  V30 10908 H 977.438 -0.284407 4.60422 0
M  V30 10909 H 975.681 -0.198145 4.33347 0
M  V30 10910 H 976.352 -1.50793 5.31004 0
M  V30 10911 H 978.828 -2.21975 3.51946 0
M  V30 10912 H 977.704 -3.29424 4.39057 0
M  V30 10913 H 977.965 -3.52455 2.66885 0
M  V30 10914 N 977.024 -1.50153 -0.478725 0
M  V30 10915 C 978.301 -1.51274 -1.23999 0
M  V30 10916 C 978.681 -0.253048 -2.09578 0
M  V30 10917 O 978.029 0.763827 -2.15355 0
M  V30 10918 C 978.239 -2.80423 -2.07759 0
M  V30 10919 C 979.587 -3.30788 -2.66204 0
M  V30 10920 O 980.611 -2.81693 -2.18008 0
M  V30 10921 O 979.47 -4.1635 -3.53999 0
M  V30 10922 H 976.564 -0.606438 -0.562283 0
M  V30 10923 H 979.11 -1.62436 -0.491171 0
M  V30 10924 H 977.882 -3.63584 -1.44645 0
M  V30 10925 H 977.505 -2.72228 -2.89789 0
M  V30 10926 N 978.502 0.731368 -1.39602 0
M  V30 10927 C 979.465 1.8271 -1.38383 0
M  V30 10928 C 980.465 1.58338 -0.280309 0
M  V30 10929 O 981.655 1.65671 -0.538402 0
M  V30 10930 C 978.787 3.20556 -1.16002 0
M  V30 10931 H 979.98 1.85193 -2.35889 0
M  V30 10932 H 977.533 0.935396 -1.2522 0
M  V30 10933 H 978.268 3.23732 -0.191927 0
M  V30 10934 H 978.053 3.39643 -1.9592 0
M  V30 10935 H 979.543 4.00612 -1.17899 0
M  V30 10936 N 979.98 1.24838 0.961938 0
M  V30 10937 C 981.391 1.08369 1.5203 0
M  V30 10938 C 981.742 -0.343005 1.93178 0
M  V30 10939 O 980.867 -1.2321 1.779 0
M  V30 10940 C 981.462 1.96102 2.76278 0
M  V30 10941 C 980.021 1.8384 3.28451 0
M  V30 10942 C 979.168 1.9069 2.01327 0
M  V30 10943 H 982.119 1.38231 0.779613 0
M  V30 10944 H 982.14 1.4967 3.49827 0
M  V30 10945 H 981.652 2.99931 2.46298 0
M  V30 10946 H 979.753 0.828653 3.63269 0
M  V30 10947 H 979.866 2.68251 3.96961 0
M  V30 10948 H 978.23 1.34488 2.16299 0
M  V30 10949 H 979.013 2.96111 1.73705 0
M  V30 10950 N 981.458 -1.16348 1.06306 0
M  V30 10951 C 982.698 -1.88556 0.789055 0
M  V30 10952 C 983.062 -1.79849 -0.672179 0
M  V30 10953 O 984.263 -2.46984 -1.06078 0
M  V30 10954 C 982.534 -3.34069 1.27016 0
M  V30 10955 S 984.093 -4.24128 1.12522 0
M  V30 10956 H 980.911 -0.65084 0.286232 0
M  V30 10957 H 983.513 -1.40443 1.36 0
M  V30 10958 H 982.217 -3.37944 2.32856 0
M  V30 10959 H 981.748 -3.87231 0.693963 0
M  V30 10960 H 983.763 -4.96168 0.0562142 0
M  V30 10961 N 982.937 -0.845659 -1.3299 0
M  V30 10962 C 983.9 -0.288905 -2.27372 0
M  V30 10963 C 984.9 0.546263 -1.51237 0
M  V30 10964 O 986.09 0.359072 -1.70459 0
M  V30 10965 C 983.222 0.59224 -3.35716 0
M  V30 10966 H 984.415 -1.12181 -2.78128 0
M  V30 10967 H 981.968 -0.619276 -1.43508 0
M  V30 10968 H 982.703 1.44732 -2.90212 0
M  V30 10969 H 982.488 -0.00543255 -3.921 0
M  V30 10970 H 983.978 0.974848 -4.06062 0
M  V30 10971 N 984.415 1.45619 -0.602734 0
M  V30 10972 C 985.661 2.02572 -0.0961759 0
M  V30 10973 C 985.994 1.47076 1.26815 0
M  V30 10974 O 985.269 0.643566 1.83544 0
M  V30 10975 C 985.552 3.60062 -0.0520032 0
M  V30 10976 C 985.405 4.25901 -1.44665 0
M  V30 10977 C 986.724 4.35446 0.638342 0
M  V30 10978 H 983.843 0.736099 -0.0364238 0
M  V30 10979 H 986.485 1.7353 -0.773776 0
M  V30 10980 H 984.635 3.84936 0.525032 0
M  V30 10981 H 986.307 4.12228 -2.0704 0
M  V30 10982 H 984.55 3.84489 -2.00874 0
M  V30 10983 H 985.221 5.34779 -1.36803 0
M  V30 10984 H 987.697 4.15837 0.147926 0
M  V30 10985 H 986.573 5.45176 0.63834 0
M  V30 10986 H 986.834 4.07962 1.70351 0
M  V30 10987 N 985.893 0.34162 1.53853 0
M  V30 10988 C 987.139 -0.255862 2.01179 0
M  V30 10989 C 987.472 -1.50356 1.22909 0
M  V30 10990 O 986.747 -1.91913 0.316198 0
M  V30 10991 C 987.03 -0.571934 3.55529 0
M  V30 10992 C 986.883 0.687727 4.44511 0
M  V30 10993 C 988.202 -1.38233 4.17827 0
M  V30 10994 H 985.321 -0.091521 0.731295 0
M  V30 10995 H 987.963 0.461775 1.84303 0
M  V30 10996 H 986.113 -1.18331 3.70041 0
M  V30 10997 H 987.785 1.32572 4.4184 0
M  V30 10998 H 986.028 1.313 4.13452 0
M  V30 10999 H 986.699 0.421858 5.50386 0
M  V30 11000 H 989.175 -0.865374 4.07002 0
M  V30 11001 H 988.051 -1.57223 5.25901 0
M  V30 11002 H 988.312 -2.38386 3.72323 0
M  V30 11003 N 987.371 -1.57444 0.0701946 0
M  V30 11004 C 988.596 -1.98171 -0.61181 0
M  V30 11005 C 989.021 -0.94823 -1.62451 0
M  V30 11006 O 988.379 0.0863553 -1.81094 0
M  V30 11007 C 988.427 -3.37934 -1.2583 0
M  V30 11008 O 987.531 -3.37207 -2.37414 0
M  V30 11009 H 986.872 -0.645056 -0.157477 0
M  V30 11010 H 989.402 -2.04091 0.144235 0
M  V30 11011 H 989.412 -3.75083 -1.60552 0
M  V30 11012 H 988.087 -4.12684 -0.516234 0
M  V30 11013 H 986.664 -3.11826 -2.04497 0
M  V30 11014 N 988.849 0.203349 -1.56283 0
M  V30 11015 C 990.077 0.941426 -1.84241 0
M  V30 11016 C 990.492 1.77197 -0.651658 0
M  V30 11017 O 989.849 1.78506 0.379713 0
M  V30 11018 C 989.9 1.84429 -3.10915 0
M  V30 11019 O 989.621 1.04729 -4.25398 0
M  V30 11020 C 991.122 2.69474 -3.51993 0
M  V30 11021 H 988.342 0.27507 -0.612027 0
M  V30 11022 H 990.886 0.213088 -2.03387 0
M  V30 11023 H 989.041 2.52635 -2.93691 0
M  V30 11024 H 989.455 1.66179 -4.97478 0
M  V30 11025 H 990.929 3.28495 -4.43616 0
M  V30 11026 H 991.406 3.42775 -2.74594 0
M  V30 11027 H 992.012 2.06652 -3.71719 0
M  V30 11028 N 990.327 1.50405 0.470755 0
M  V30 11029 C 991.237 1.7208 1.59454 0
M  V30 11030 C 992.253 0.603932 1.63183 0
M  V30 11031 O 993.429 0.882296 1.81046 0
M  V30 11032 C 990.494 1.81057 2.95667 0
M  V30 11033 C 989.555 3.04792 3.02324 0
M  V30 11034 C 988.788 3.13332 4.3204 0
M  V30 11035 O 989.011 2.28655 5.22564 0
M  V30 11036 O 987.945 4.0606 4.44296 0
M  V30 11037 H 991.771 2.67343 1.44089 0
M  V30 11038 H 989.356 1.34505 0.650286 0
M  V30 11039 H 991.238 1.8914 3.76569 0
M  V30 11040 H 989.913 0.889782 3.11231 0
M  V30 11041 H 988.82 3.0221 2.205 0
M  V30 11042 H 990.153 3.96451 2.91698 0
M  V30 11043 N 991.805 -0.723954 1.39988 0
M  V30 11044 C 993.051 -1.48476 1.3902 0
M  V30 11045 C 993.406 -1.92397 -0.0105439 0
M  V30 11046 O 992.699 -1.64683 -0.979294 0
M  V30 11047 C 992.893 -2.73004 2.30659 0
M  V30 11048 C 992.722 -2.41261 3.79504 0
M  V30 11049 C 991.492 -2.33013 4.48367 0
M  V30 11050 C 993.69 -2.06078 4.71207 0
M  V30 11051 N 991.672 -1.93856 5.82489 0
M  V30 11052 C 993.043 -1.77455 5.94062 0
M  V30 11053 C 995.098 -1.92642 4.59123 0
M  V30 11054 C 993.801 -1.36748 7.06182 0
M  V30 11055 C 995.827 -1.53338 5.71175 0
M  V30 11056 C 995.189 -1.25607 6.93111 0
M  V30 11057 H 991.288 -0.54172 0.563971 0
M  V30 11058 H 993.872 -0.840344 1.75631 0
M  V30 11059 H 992.043 -3.35209 1.96188 0
M  V30 11060 H 993.775 -3.39286 2.20606 0
M  V30 11061 H 990.53 -2.50476 4.01944 0
M  V30 11062 H 990.954 -1.7684 6.53496 0
M  V30 11063 H 995.596 -2.12745 3.65376 0
M  V30 11064 H 993.314 -1.15386 7.9982 0
M  V30 11065 H 996.9 -1.43532 5.63817 0
M  V30 11066 H 995.78 -0.956505 7.78345 0
M  V30 11067 N 993.283 -1.25346 -0.955304 0
M  V30 11068 C 994.531 -1.09837 -1.69647 0
M  V30 11069 C 994.852 0.361425 -1.91621 0
M  V30 11070 O 994.122 1.25666 -1.50283 0
M  V30 11071 H 992.702 -0.403467 -0.628668 0
M  V30 11072 H 995.364 -1.57459 -1.14859 0
M  V30 11073 H 994.46 -1.60616 -2.67598 0
M  V30 11074 N 994.761 1.15782 -1.06922 0
M  V30 11075 C 995.691 2.22538 -0.707045 0
M  V30 11076 C 996.672 1.67371 0.303471 0
M  V30 11077 O 997.857 1.9339 0.177189 0
M  V30 11078 C 994.987 3.47158 -0.0994269 0
M  V30 11079 C 993.941 4.15257 -1.03661 0
M  V30 11080 C 993.267 5.33902 -0.291974 0
M  V30 11081 C 994.567 4.65516 -2.36837 0
M  V30 11082 H 996.261 2.53089 -1.59958 0
M  V30 11083 H 993.807 1.21649 -0.770552 0
M  V30 11084 H 995.76 4.21073 0.165852 0
M  V30 11085 H 994.484 3.15926 0.828155 0
M  V30 11086 H 993.143 3.43276 -1.28674 0
M  V30 11087 H 992.791 4.98926 0.638928 0
M  V30 11088 H 992.491 5.80407 -0.916613 0
M  V30 11089 H 994.015 6.1059 -0.0343915 0
M  V30 11090 H 995.429 5.30981 -2.16175 0
M  V30 11091 H 993.826 5.22666 -2.94856 0
M  V30 11092 H 994.896 3.81387 -2.99453 0
M  V30 11093 N 996.239 0.8527 1.3254 0
M  V30 11094 C 997.464 0.468157 2.02047 0
M  V30 11095 C 997.889 -0.926967 1.63673 0
M  V30 11096 O 997.247 -1.60855 0.836378 0
M  V30 11097 C 997.295 0.612519 3.5536 0
M  V30 11098 O 996.399 -0.355506 4.10865 0
M  V30 11099 H 995.74 0.188401 0.636711 0
M  V30 11100 H 998.27 1.15135 1.6913 0
M  V30 11101 H 998.28 0.499315 4.04933 0
M  V30 11102 H 996.955 1.62988 3.82632 0
M  V30 11103 H 995.532 -0.198703 3.7237 0
M  V30 11104 N 997.718 -1.45297 0.610449 0
M  V30 11105 C 998.966 -2.01819 0.106548 0
M  V30 11106 C 999.287 -1.48102 -1.26849 0
M  V30 11107 O 998.557 -0.676411 -1.83852 0
M  V30 11108 H 997.137 -0.746113 0.0363982 0
M  V30 11109 H 999.799 -1.78061 0.792491 0
M  V30 11110 H 998.895 -3.12045 0.0585 0
M  V30 11111 N 999.196 -0.349774 -1.5367 0
M  V30 11112 C 1000.13 0.538575 -2.22782 0
M  V30 11113 C 1001.14 1.05896 -1.23652 0
M  V30 11114 O 1002.33 0.968045 -1.4997 0
M  V30 11115 C 999.43 1.7546 -2.89943 0
M  V30 11116 C 998.603 1.36843 -4.15443 0
M  V30 11117 C 997.662 2.4448 -4.65957 0
M  V30 11118 O 996.688 2.07528 -5.3002 0
M  V30 11119 N 997.89 3.75829 -4.42417 0
M  V30 11120 H 1000.65 -0.053348 -2.99653 0
M  V30 11121 H 998.216 -0.174193 -1.6096 0
M  V30 11122 H 1000.21 2.46911 -3.20651 0
M  V30 11123 H 998.778 2.25375 -2.16622 0
M  V30 11124 H 997.998 0.484421 -3.91212 0
M  V30 11125 H 999.286 1.0865 -4.97064 0
M  V30 11126 H 998.684 4.08635 -3.91196 0
M  V30 11127 H 997.241 4.43432 -4.77714 0
M  V30 11128 N 1000.67 1.57404 -0.0785433 0
M  V30 11129 C 1001.61 2.08724 0.922464 0
M  V30 11130 C 1002.58 0.993912 1.28686 0
M  V30 11131 O 1003.77 1.26776 1.39499 0
M  V30 11132 C 1000.9 2.55051 2.2286 0
M  V30 11133 C 999.942 3.75884 2.01528 0
M  V30 11134 S 1000.77 5.2026 1.26844 0
M  V30 11135 C 1001.93 5.69924 2.58723 0
M  V30 11136 H 1002.16 2.93304 0.485807 0
M  V30 11137 H 999.697 1.53814 0.134377 0
M  V30 11138 H 1001.65 2.82402 2.97926 0
M  V30 11139 H 1000.32 1.70727 2.63649 0
M  V30 11140 H 999.509 4.06311 2.98207 0
M  V30 11141 H 999.111 3.48941 1.34596 0
M  V30 11142 H 1001.4 5.7718 3.5478 0
M  V30 11143 H 1002.35 6.68704 2.32897 0
M  V30 11144 H 1002.75 4.97773 2.66237 0
M  V30 11145 N 1002.15 -0.195058 1.56388 0
M  V30 11146 C 1003.06 -1.26219 1.97752 0
M  V30 11147 C 1004.08 -1.49801 0.885192 0
M  V30 11148 O 1005.25 -1.62415 1.19094 0
M  V30 11149 C 1002.32 -2.5865 2.3087 0
M  V30 11150 C 1001.38 -2.4314 3.5381 0
M  V30 11151 C 1000.61 -3.69255 3.85339 0
M  V30 11152 O 1000.84 -4.73425 3.18159 0
M  V30 11153 O 999.77 -3.64782 4.78767 0
M  V30 11154 H 1003.6 -0.941161 2.88749 0
M  V30 11155 H 1001.18 -0.40006 1.43944 0
M  V30 11156 H 1003.06 -3.36814 2.53247 0
M  V30 11157 H 1001.74 -2.9038 1.43042 0
M  V30 11158 H 1000.64 -1.63086 3.3668 0
M  V30 11159 H 1001.98 -2.16341 4.42105 0
M  V30 11160 N 1003.63 -1.50653 -0.462772 0
M  V30 11161 C 1004.58 -1.70122 -1.55971 0
M  V30 11162 C 1005.55 -0.542581 -1.56988 0
M  V30 11163 O 1006.73 -0.774114 -1.74391 0
M  V30 11164 C 1003.87 -1.80899 -2.93887 0
M  V30 11165 C 1002.98 -3.08318 -3.02595 0
M  V30 11166 C 1002.12 -3.09841 -4.31477 0
M  V30 11167 C 1001.16 -4.3168 -4.33957 0
M  V30 11168 N 1000.3 -4.30894 -5.54323 0
M  V30 11169 H 1005.14 -2.63768 -1.38674 0
M  V30 11170 H 1002.67 -1.30746 -0.674091 0
M  V30 11171 H 1004.63 -1.85128 -3.73876 0
M  V30 11172 H 1003.26 -0.906854 -3.098 0
M  V30 11173 H 1002.31 -3.13521 -2.15427 0
M  V30 11174 H 1003.62 -3.98282 -3.00288 0
M  V30 11175 H 1002.78 -3.12845 -5.1982 0
M  V30 11176 H 1001.52 -2.17722 -4.36404 0
M  V30 11177 H 1000.52 -4.28879 -3.4401 0
M  V30 11178 H 1001.75 -5.25035 -4.30715 0
M  V30 11179 H 999.694 -3.41633 -5.6002 0
M  V30 11180 H 999.611 -5.14636 -5.53792 0
M  V30 11181 H 1000.88 -4.38056 -6.44769 0
M  V30 11182 N 1005.11 0.71652 -1.4037 0
M  V30 11183 C 1006.04 1.84345 -1.43315 0
M  V30 11184 C 1007.02 1.67537 -0.294186 0
M  V30 11185 O 1008.2 1.87582 -0.502671 0
M  V30 11186 C 1005.33 3.2229 -1.29408 0
M  V30 11187 C 1004.29 3.53769 -2.40897 0
M  V30 11188 C 1003.61 4.90847 -2.12068 0
M  V30 11189 C 1004.91 3.54862 -3.83237 0
M  V30 11190 H 1006.61 1.82138 -2.37626 0
M  V30 11191 H 1004.15 0.874873 -1.14376 0
M  V30 11192 H 1006.11 4.00819 -1.30085 0
M  V30 11193 H 1004.83 3.2507 -0.31573 0
M  V30 11194 H 1003.49 2.77579 -2.39469 0
M  V30 11195 H 1003.14 4.90229 -1.12626 0
M  V30 11196 H 1002.84 5.12875 -2.86762 0
M  V30 11197 H 1004.36 5.71711 -2.14426 0
M  V30 11198 H 1005.78 4.23432 -3.86494 0
M  V30 11199 H 1004.17 3.88416 -4.57442 0
M  V30 11200 H 1005.24 2.54266 -4.12888 0
M  V30 11201 N 1006.59 1.25851 0.948643 0
M  V30 11202 C 1007.52 1.0108 2.04593 0
M  V30 11203 C 1008.5 -0.0619691 1.62482 0
M  V30 11204 O 1009.68 0.0789196 1.88335 0
M  V30 11205 C 1006.81 0.529174 3.34541 0
M  V30 11206 C 1005.85 1.59337 3.95618 0
M  V30 11207 S 1006.69 3.18026 4.30836 0
M  V30 11208 C 1007.84 2.71613 5.63895 0
M  V30 11209 H 1008.08 1.93988 2.2529 0
M  V30 11210 H 1005.61 1.09448 1.08906 0
M  V30 11211 H 1007.57 0.25795 4.09689 0
M  V30 11212 H 1006.23 -0.37951 3.11799 0
M  V30 11213 H 1005.42 1.20722 4.89328 0
M  V30 11214 H 1005.02 1.81559 3.26975 0
M  V30 11215 H 1007.32 2.15612 6.42275 0
M  V30 11216 H 1008.26 3.63986 6.07387 0
M  V30 11217 H 1008.67 2.11417 5.23415 0
M  V30 11218 N 1008.06 -1.15214 1.07534 0
M  V30 11219 C 1009.01 -2.20013 0.697337 0
M  V30 11220 C 1009.98 -1.6314 -0.312168 0
M  V30 11221 O 1011.17 -1.89768 -0.198196 0
M  V30 11222 C 1008.31 -3.44945 0.103293 0
M  V30 11223 C 1007.42 -4.16009 1.1645 0
M  V30 11224 C 1006.55 -5.28496 0.535261 0
M  V30 11225 C 1005.59 -5.9138 1.57912 0
M  V30 11226 N 1004.73 -6.95335 0.972332 0
M  V30 11227 H 1009.57 -2.51698 1.59538 0
M  V30 11228 H 1007.11 -1.2361 0.797431 0
M  V30 11229 H 1009.07 -4.16397 -0.258766 0
M  V30 11230 H 1007.7 -3.13772 -0.758096 0
M  V30 11231 H 1006.75 -3.43035 1.64411 0
M  V30 11232 H 1008.06 -4.58853 1.9559 0
M  V30 11233 H 1007.21 -6.06579 0.120942 0
M  V30 11234 H 1005.95 -4.8685 -0.287889 0
M  V30 11235 H 1004.96 -5.12008 2.0032 0
M  V30 11236 H 1006.18 -6.35103 2.40459 0
M  V30 11237 H 1004.13 -6.55779 0.170119 0
M  V30 11238 H 1004.05 -7.36616 1.70095 0
M  V30 11239 H 1005.31 -7.77312 0.583577 0
M  V30 11240 N 1009.54 -0.859717 -1.32086 0
M  V30 11241 C 1010.48 -0.252764 -2.26796 0
M  V30 11242 C 1011.45 0.612178 -1.50636 0
M  V30 11243 O 1012.64 0.567865 -1.79743 0
M  V30 11244 C 1009.76 0.643017 -3.3254 0
M  V30 11245 C 1008.81 -0.149211 -4.26239 0
M  V30 11246 S 1009.64 -1.52097 -5.13446 0
M  V30 11247 C 1010.8 -0.631035 -6.22711 0
M  V30 11248 H 1011.03 -1.05563 -2.77928 0
M  V30 11249 H 1008.57 -0.657639 -1.39694 0
M  V30 11250 H 1010.52 1.15418 -3.9394 0
M  V30 11251 H 1009.18 1.41974 -2.80183 0
M  V30 11252 H 1008.38 0.53328 -5.01171 0
M  V30 11253 H 1007.98 -0.592128 -3.69283 0
M  V30 11254 H 1010.27 0.162638 -6.77305 0
M  V30 11255 H 1011.21 -1.35116 -6.95089 0
M  V30 11256 H 1011.62 -0.203131 -5.64134 0
M  V30 11257 N 1011.02 1.44971 -0.618145 0
M  V30 11258 C 1011.97 2.32354 0.106846 0
M  V30 11259 C 1012.96 1.4659 0.848984 0
M  V30 11260 O 1014.17 1.63012 0.763354 0
M  V30 11261 H 1010.54 0.750108 0.0533109 0
M  V30 11262 H 1012.51 2.9127 -0.648426 0
M  V30 11263 C 1011.26 3.30381 1.08368 0
M  V30 11264 H 1010.59 3.96377 0.52205 0
M  V30 11265 H 1012.03 3.94231 1.56069 0
M  V30 11266 C 1010.49 2.58336 2.1625 0
M  V30 11267 O 1011.02 2.37258 3.24148 0
M  V30 11268 N 1009.22 2.18292 1.91825 0
M  V30 11269 H 1008.77 2.35635 1.04086 0
M  V30 11270 H 1008.73 1.70413 2.6421 0
M  V30 11271 N 1012.5 0.357919 1.53482 0
M  V30 11272 C 1013.74 -0.23451 2.0144 0
M  V30 11273 C 1014.08 -1.49044 1.24497 0
M  V30 11274 O 1013.35 -1.91566 0.336535 0
M  V30 11275 C 1013.64 -0.534193 3.56116 0
M  V30 11276 C 1013.49 0.734834 4.43757 0
M  V30 11277 C 1014.81 -1.33793 4.1927 0
M  V30 11278 H 1011.93 -0.0837595 0.732225 0
M  V30 11279 H 1014.57 0.481297 1.83803 0
M  V30 11280 H 1012.72 -1.144 3.71275 0
M  V30 11281 H 1014.39 1.37251 4.40409 0
M  V30 11282 H 1012.63 1.35678 4.12036 0
M  V30 11283 H 1013.3 0.48021 5.49907 0
M  V30 11284 H 1015.78 -0.822158 4.07897 0
M  V30 11285 H 1014.66 -1.51636 5.27539 0
M  V30 11286 H 1014.92 -2.34423 3.74831 0
M  V30 11287 N 1013.98 -1.5736 0.0868897 0
M  V30 11288 C 1015.2 -1.98809 -0.590757 0
M  V30 11289 C 1015.63 -0.965407 -1.61436 0
M  V30 11290 O 1014.98 0.067143 -1.81176 0
M  V30 11291 C 1015.03 -3.39249 -1.22238 0
M  V30 11292 O 1014.14 -3.39706 -2.33824 0
M  V30 11293 H 1013.48 -0.64669 -0.150626 0
M  V30 11294 H 1016.01 -2.03927 0.165873 0
M  V30 11295 H 1016.02 -3.76765 -1.56564 0
M  V30 11296 H 1014.69 -4.13208 -0.472434 0
M  V30 11297 H 1013.27 -3.13977 -2.01178 0
M  V30 11298 N 1015.45 0.186762 -1.56489 0
M  V30 11299 C 1016.4 1.25084 -1.96104 0
M  V30 11300 C 1017.4 1.4667 -0.847609 0
M  V30 11301 O 1018.6 1.47432 -1.03266 0
M  V30 11302 H 1014.98 0.420121 -0.623701 0
M  V30 11303 H 1016.95 0.889761 -2.84826 0
M  V30 11304 C 1015.7 2.5863 -2.32392 0
M  V30 11305 H 1015.02 2.42838 -3.176 0
M  V30 11306 H 1016.46 3.3181 -2.63967 0
M  V30 11307 C 1014.92 3.16241 -1.16159 0
M  V30 11308 O 1015.45 3.99272 -0.441034 0
M  V30 11309 N 1013.66 2.75106 -0.936206 0
M  V30 11310 H 1013.2 2.0769 -1.5239 0
M  V30 11311 H 1013.16 3.13991 -0.160317 0
M  V30 11312 N 1016.93 1.50896 0.454776 0
M  V30 11313 C 1018.16 1.66759 1.23313 0
M  V30 11314 C 1018.58 0.35722 1.84677 0
M  V30 11315 O 1017.94 -0.680771 1.68033 0
M  V30 11316 C 1017.99 2.77254 2.3057 0
M  V30 11317 O 1017.09 2.39642 3.35627 0
M  V30 11318 H 1016.43 0.556599 0.362068 0
M  V30 11319 H 1018.96 1.97365 0.539274 0
M  V30 11320 H 1018.97 3.0082 2.75629 0
M  V30 11321 H 1017.65 3.72349 1.85281 0
M  V30 11322 H 1016.23 2.26584 2.96165 0
M  V30 11323 N 1018.41 -0.709066 1.40748 0
M  V30 11324 C 1019.69 -1.4626 1.29874 0
M  V30 11325 C 1020.07 -2.10949 -0.0799322 0
M  V30 11326 O 1019.42 -2.00651 -1.09323 0
M  V30 11327 C 1019.63 -2.49302 2.44232 0
M  V30 11328 C 1020.97 -3.14945 2.84771 0
M  V30 11329 O 1022 -2.59623 2.43873 0
M  V30 11330 O 1020.86 -4.15111 3.5545 0
M  V30 11331 H 1017.95 -0.650716 0.51039 0
M  V30 11332 H 1020.5 -0.740687 1.52682 0
M  V30 11333 H 1019.27 -2.00063 3.36289 0
M  V30 11334 H 1018.89 -3.29021 2.23229 0
M  V30 11335 N 1019.89 -1.26353 -0.941956 0
M  V30 11336 C 1020.82 -1.03634 -2.04432 0
M  V30 11337 C 1021.83 0.00295864 -1.628 0
M  V30 11338 O 1023.02 -0.237029 -1.76919 0
M  V30 11339 C 1020.12 -0.547231 -3.34453 0
M  V30 11340 C 1019.3 -1.65559 -4.04857 0
M  V30 11341 C 1018.36 -1.16466 -5.13149 0
M  V30 11342 O 1017.38 -1.86158 -5.37898 0
M  V30 11343 N 1018.58 -0.0126703 -5.80499 0
M  V30 11344 H 1021.35 -1.98558 -2.24488 0
M  V30 11345 H 1018.91 -1.17728 -1.11138 0
M  V30 11346 H 1020.9 -0.203004 -4.04191 0
M  V30 11347 H 1019.47 0.308401 -3.11075 0
M  V30 11348 H 1018.69 -2.17079 -3.29044 0
M  V30 11349 H 1019.98 -2.39985 -4.48647 0
M  V30 11350 H 1019.38 0.569358 -5.62828 0
M  V30 11351 H 1017.93 0.272486 -6.5123 0
M  V30 11352 N 1021.37 1.14642 -1.08144 0
M  V30 11353 C 1022.62 1.84964 -0.804437 0
M  V30 11354 C 1022.93 1.8369 0.672106 0
M  V30 11355 O 1024.14 2.49775 1.06417 0
M  V30 11356 C 1022.59 3.32015 -1.38904 0
M  V30 11357 C 1022.2 3.41713 -2.89718 0
M  V30 11358 C 1023.94 4.07467 -1.19041 0
M  V30 11359 C 1021.85 4.82958 -3.41329 0
M  V30 11360 H 1020.78 0.692932 -0.297256 0
M  V30 11361 H 1023.43 1.29255 -1.30251 0
M  V30 11362 H 1021.81 3.87445 -0.818679 0
M  V30 11363 H 1022.99 2.96347 -3.52867 0
M  V30 11364 H 1021.3 2.79713 -3.08463 0
M  V30 11365 H 1023.9 5.1172 -1.55069 0
M  V30 11366 H 1024.24 4.16097 -0.130027 0
M  V30 11367 H 1024.78 3.58329 -1.72757 0
M  V30 11368 H 1021.51 4.79515 -4.46929 0
M  V30 11369 H 1021.03 5.28873 -2.82937 0
M  V30 11370 H 1022.71 5.51841 -3.37759 0
M  V30 11371 N 1022.85 0.866709 1.31628 0
M  V30 11372 C 1023.79 0.318169 2.28596 0
M  V30 11373 C 1024.76 -0.581558 1.55586 0
M  V30 11374 O 1025.95 -0.513895 1.83749 0
M  V30 11375 C 1023.09 -0.477137 3.41786 0
M  V30 11376 C 1022.2 0.449739 4.29653 0
M  V30 11377 C 1021.34 -0.359373 5.29983 0
M  V30 11378 C 1020.37 0.564138 6.09495 0
M  V30 11379 N 1019.51 -0.208526 7.0179 0
M  V30 11380 H 1024.35 1.15029 2.74904 0
M  V30 11381 H 1021.89 0.578649 1.35241 0
M  V30 11382 H 1023.85 -0.953985 4.06146 0
M  V30 11383 H 1022.48 -1.27398 2.96597 0
M  V30 11384 H 1021.53 1.04502 3.65764 0
M  V30 11385 H 1022.84 1.158 4.85172 0
M  V30 11386 H 1021.99 -0.89887 6.00004 0
M  V30 11387 H 1020.73 -1.10094 4.75111 0
M  V30 11388 H 1019.74 1.11542 5.38366 0
M  V30 11389 H 1020.96 1.30451 6.66453 0
M  V30 11390 H 1018.91 -0.932969 6.49332 0
M  V30 11391 H 1018.83 0.440463 7.54716 0
M  V30 11392 H 1020.09 -0.72936 7.7608 0
M  V30 11393 N 1024.32 -1.44642 0.625825 0
M  V30 11394 C 1025.29 -2.29085 -0.072526 0
M  V30 11395 C 1026.29 -1.40755 -0.777467 0
M  V30 11396 O 1027.48 -1.62684 -0.622861 0
M  V30 11397 C 1024.61 -3.22212 -1.1132 0
M  V30 11398 H 1025.8 -2.92317 0.670124 0
M  V30 11399 H 1023.35 -1.51466 0.38571 0
M  V30 11400 H 1024.09 -2.63819 -1.88601 0
M  V30 11401 H 1023.87 -3.87299 -0.611709 0
M  V30 11402 H 1025.36 -3.8566 -1.60175 0
M  V30 11403 N 1025.8 -0.366053 -1.5329 0
M  V30 11404 C 1026.73 0.523781 -2.22108 0
M  V30 11405 C 1027.71 1.08262 -1.21318 0
M  V30 11406 O 1028.9 1.13866 -1.50222 0
M  V30 11407 C 1026.02 1.72273 -2.91616 0
M  V30 11408 C 1025.07 1.29129 -4.06482 0
M  V30 11409 S 1025.9 0.292195 -5.34702 0
M  V30 11410 C 1027.06 1.49746 -6.07723 0
M  V30 11411 H 1027.29 -0.0606687 -2.97238 0
M  V30 11412 H 1024.82 -0.15016 -1.53668 0
M  V30 11413 H 1026.78 2.41045 -3.32277 0
M  V30 11414 H 1025.44 2.27843 -2.16209 0
M  V30 11415 H 1024.64 2.18583 -4.54134 0
M  V30 11416 H 1024.24 0.682783 -3.67715 0
M  V30 11417 H 1026.53 2.4284 -6.32483 0
M  V30 11418 H 1027.47 1.06232 -7.00086 0
M  V30 11419 H 1027.88 1.70373 -5.38176 0
M  V30 11420 N 1027.28 1.57312 -0.0952337 0
M  V30 11421 C 1028.5 1.99119 0.580206 0
M  V30 11422 C 1028.93 0.973955 1.60922 0
M  V30 11423 O 1028.29 -0.0575338 1.81209 0
M  V30 11424 C 1028.34 3.39893 1.20438 0
M  V30 11425 O 1027.44 3.40941 2.32019 0
M  V30 11426 H 1026.78 0.64748 0.147195 0
M  V30 11427 H 1029.31 2.03836 -0.176686 0
M  V30 11428 H 1029.32 3.7759 1.54564 0
M  V30 11429 H 1028 4.13453 0.450514 0
M  V30 11430 H 1026.57 3.1504 1.9951 0
M  V30 11431 N 1028.76 -0.17846 1.56586 0
M  V30 11432 C 1030.01 -0.894464 1.81228 0
M  V30 11433 C 1030.33 -1.83089 0.671062 0
M  V30 11434 O 1029.6 -1.93439 -0.309557 0
M  V30 11435 H 1028.18 -0.333288 0.668527 0
M  V30 11436 H 1030.84 -0.179986 1.94067 0
M  V30 11437 H 1029.93 -1.47565 2.75011 0
M  V30 11438 N 1030.24 -1.51135 -0.446768 0
M  V30 11439 C 1031.17 -1.67949 -1.55967 0
M  V30 11440 C 1032.18 -0.560337 -1.52853 0
M  V30 11441 O 1033.37 -0.83435 -1.578 0
M  V30 11442 C 1030.47 -1.6703 -2.9488 0
M  V30 11443 C 1029.64 -2.95377 -3.22601 0
M  V30 11444 C 1028.7 -2.86772 -4.4119 0
M  V30 11445 O 1027.73 -3.60722 -4.40304 0
M  V30 11446 N 1028.93 -2.01979 -5.44228 0
M  V30 11447 H 1031.69 -2.63951 -1.41951 0
M  V30 11448 H 1029.26 -1.48903 -0.635569 0
M  V30 11449 H 1031.25 -1.58854 -3.7222 0
M  V30 11450 H 1029.82 -0.786623 -3.02541 0
M  V30 11451 H 1029.04 -3.17494 -2.33647 0
M  V30 11452 H 1030.33 -3.80356 -3.37945 0
M  V30 11453 H 1029.72 -1.41257 -5.4778 0
M  V30 11454 H 1028.28 -1.99689 -6.20457 0
M  V30 11455 N 1031.71 0.701592 -1.41122 0
M  V30 11456 C 1032.66 1.81559 -1.42495 0
M  V30 11457 C 1033.63 1.63722 -0.280078 0
M  V30 11458 O 1034.82 1.84658 -0.480231 0
M  V30 11459 C 1031.96 3.19392 -1.30702 0
M  V30 11460 C 1031.07 3.48704 -2.55009 0
M  V30 11461 C 1030.2 4.76118 -2.35554 0
M  V30 11462 C 1029.24 4.98378 -3.55367 0
M  V30 11463 N 1028.38 6.17014 -3.3502 0
M  V30 11464 H 1033.22 1.7972 -2.37707 0
M  V30 11465 H 1030.76 0.877727 -1.18044 0
M  V30 11466 H 1032.71 3.99004 -1.21867 0
M  V30 11467 H 1031.34 3.20423 -0.391012 0
M  V30 11468 H 1030.4 2.63542 -2.74317 0
M  V30 11469 H 1031.71 3.61057 -3.44151 0
M  V30 11470 H 1030.86 5.63774 -2.24152 0
M  V30 11471 H 1029.6 4.66 -1.43859 0
M  V30 11472 H 1028.61 4.09172 -3.6723 0
M  V30 11473 H 1029.83 5.10359 -4.48007 0
M  V30 11474 H 1027.78 6.0812 -2.4602 0
M  V30 11475 H 1027.69 6.30107 -4.17733 0
M  V30 11476 H 1028.96 7.0742 -3.27379 0
M  V30 11477 N 1033.19 1.2685 0.935242 0
M  V30 11478 C 1034.44 1.12132 1.67658 0
M  V30 11479 C 1034.75 -0.333839 1.9273 0
M  V30 11480 O 1035.96 -0.601801 2.64746 0
M  V30 11481 C 1034.42 1.95873 3.0193 0
M  V30 11482 C 1034.02 3.46 2.84584 0
M  V30 11483 C 1035.77 1.89781 3.79715 0
M  V30 11484 C 1033.67 4.21966 4.14365 0
M  V30 11485 H 1032.6 0.416035 0.628833 0
M  V30 11486 H 1035.26 1.51209 1.03962 0
M  V30 11487 H 1033.64 1.49633 3.66641 0
M  V30 11488 H 1034.81 4.00049 2.28687 0
M  V30 11489 H 1033.13 3.53391 2.20236 0
M  V30 11490 H 1035.72 2.43819 4.75875 0
M  V30 11491 H 1036.07 0.869797 4.07112 0
M  V30 11492 H 1036.6 2.33875 3.21788 0
M  V30 11493 H 1033.34 5.2526 3.9215 0
M  V30 11494 H 1032.86 3.72696 4.69955 0
M  V30 11495 H 1034.54 4.30734 4.82781 0
M  V30 11496 N 1034.67 -1.14067 1.0875 0
M  V30 11497 C 1035.6 -2.21385 0.74236 0
M  V30 11498 C 1036.58 -1.67833 -0.276805 0
M  V30 11499 O 1037.77 -1.93647 -0.1464 0
M  V30 11500 C 1034.9 -3.46956 0.154644 0
M  V30 11501 C 1033.85 -4.13555 1.10255 0
M  V30 11502 C 1033.18 -5.3337 0.376877 0
M  V30 11503 C 1034.48 -4.6169 2.44213 0
M  V30 11504 H 1036.17 -2.50512 1.63964 0
M  V30 11505 H 1033.72 -1.20408 0.789807 0
M  V30 11506 H 1035.67 -4.21284 -0.0988419 0
M  V30 11507 H 1034.39 -3.17203 -0.777789 0
M  V30 11508 H 1033.05 -3.41186 1.34119 0
M  V30 11509 H 1032.7 -4.99879 -0.559472 0
M  V30 11510 H 1032.4 -5.78875 1.00884 0
M  V30 11511 H 1033.92 -6.10458 0.131527 0
M  V30 11512 H 1035.34 -5.27475 2.24595 0
M  V30 11513 H 1033.74 -5.17909 3.03134 0
M  V30 11514 H 1034.81 -3.76574 3.05483 0
M  V30 11515 N 1036.15 -0.873678 -1.31166 0
M  V30 11516 C 1037.06 -0.335726 -2.32185 0
M  V30 11517 C 1038.07 0.556259 -1.64869 0
M  V30 11518 O 1039.25 0.452087 -1.9626 0
M  V30 11519 C 1036.32 0.450822 -3.43756 0
M  V30 11520 C 1035.38 -0.469565 -4.26724 0
M  V30 11521 C 1034.61 0.279538 -5.32967 0
M  V30 11522 O 1034.83 1.50715 -5.50128 0
M  V30 11523 O 1033.77 -0.36452 -6.00795 0
M  V30 11524 H 1037.59 -1.17314 -2.80127 0
M  V30 11525 H 1035.18 -0.637163 -1.35132 0
M  V30 11526 H 1037.06 0.896582 -4.11752 0
M  V30 11527 H 1035.73 1.26472 -2.9797 0
M  V30 11528 H 1034.64 -0.963902 -3.61469 0
M  V30 11529 H 1035.97 -1.24916 -4.76085 0
M  V30 11530 N 1037.63 1.44308 -0.633487 0
M  V30 11531 C 1038.88 2.01239 -0.136356 0
M  V30 11532 C 1039.19 1.50438 1.25011 0
M  V30 11533 O 1040.39 1.99513 1.84138 0
M  V30 11534 C 1038.85 3.59382 -0.193011 0
M  V30 11535 C 1038.46 4.19178 -1.58093 0
M  V30 11536 C 1040.2 4.23778 0.247534 0
M  V30 11537 C 1038.11 5.69553 -1.59258 0
M  V30 11538 H 1037.04 0.752521 -0.0472109 0
M  V30 11539 H 1039.69 1.65498 -0.79263 0
M  V30 11540 H 1038.07 3.92432 0.530408 0
M  V30 11541 H 1039.25 3.97662 -2.32813 0
M  V30 11542 H 1037.56 3.67079 -1.96576 0
M  V30 11543 H 1040.16 5.34075 0.258401 0
M  V30 11544 H 1040.5 3.96285 1.27529 0
M  V30 11545 H 1041.03 3.9554 -0.423469 0
M  V30 11546 H 1037.77 6.01784 -2.59878 0
M  V30 11547 H 1037.29 5.93185 -0.888352 0
M  V30 11548 H 1038.97 6.33234 -1.32756 0
M  V30 11549 N 1039.1 0.374177 1.53094 0
M  V30 11550 C 1040.05 -0.48326 2.27524 0
M  V30 11551 C 1041.05 -1.07606 1.30833 0
M  V30 11552 O 1042.25 -1.01827 1.48429 0
M  V30 11553 H 1038.63 -0.174578 0.731455 0
M  V30 11554 H 1040.6 0.166156 2.97937 0
M  V30 11555 C 1039.35 -1.6065 3.08362 0
M  V30 11556 H 1038.67 -1.15966 3.82612 0
M  V30 11557 H 1040.11 -2.18099 3.63606 0
M  V30 11558 C 1038.57 -2.55381 2.19732 0
M  V30 11559 O 1039.1 -3.58414 1.8139 0
M  V30 11560 N 1037.31 -2.24769 1.84194 0
M  V30 11561 H 1036.85 -1.41018 2.15573 0
M  V30 11562 H 1036.81 -2.88404 1.25181 0
M  V30 11563 N 1040.58 -1.57259 0.103575 0
M  V30 11564 C 1041.99 -1.81816 -0.424239 0
M  V30 11565 C 1042.34 -1.01976 -1.67617 0
M  V30 11566 O 1041.47 -0.251673 -2.14932 0
M  V30 11567 C 1042.06 -3.29783 -0.776453 0
M  V30 11568 C 1040.62 -3.55074 -1.24897 0
M  V30 11569 C 1039.77 -2.76172 -0.249875 0
M  V30 11570 H 1042.72 -1.55254 0.328913 0
M  V30 11571 H 1042.74 -3.43569 -1.63526 0
M  V30 11572 H 1042.25 -3.87865 0.134906 0
M  V30 11573 H 1040.36 -3.02332 -2.17775 0
M  V30 11574 H 1040.47 -4.637 -1.20495 0
M  V30 11575 H 1038.83 -2.43902 -0.733767 0
M  V30 11576 H 1039.62 -3.37007 0.65431 0
M  V30 11577 N 1042.06 0.170153 -1.56679 0
M  V30 11578 C 1043.01 1.22997 -1.9742 0
M  V30 11579 C 1044 1.45762 -0.863117 0
M  V30 11580 O 1045.21 1.46328 -1.04824 0
M  V30 11581 H 1041.58 0.413482 -0.628122 0
M  V30 11582 H 1043.55 0.859502 -2.85754 0
M  V30 11583 C 1042.3 2.5615 -2.35122 0
M  V30 11584 H 1041.63 2.39456 -3.20158 0
M  V30 11585 H 1043.07 3.28991 -2.67471 0
M  V30 11586 C 1041.53 3.14992 -1.19507 0
M  V30 11587 O 1042.06 3.98781 -0.483357 0
M  V30 11588 N 1040.26 2.74098 -0.965332 0
M  V30 11589 H 1039.81 2.06062 -1.54585 0
M  V30 11590 H 1039.77 3.13803 -0.193611 0
M  V30 11591 N 1043.54 1.5137 0.438746 0
M  V30 11592 C 1044.49 1.68966 1.53083 0
M  V30 11593 C 1045.47 0.543669 1.51437 0
M  V30 11594 O 1046.66 0.799519 1.57914 0
M  V30 11595 C 1043.79 1.8168 2.91286 0
M  V30 11596 C 1042.88 3.02059 2.97693 0
M  V30 11597 N 1043.27 4.25254 2.73848 0
M  V30 11598 C 1041.57 3.01284 3.28852 0
M  V30 11599 C 1042.27 5.06501 2.86062 0
M  V30 11600 N 1041.25 4.41119 3.17671 0
M  V30 11601 H 1045.05 2.61883 1.33397 0
M  V30 11602 H 1042.56 1.48997 0.64603 0
M  V30 11603 H 1044.56 1.92396 3.6985 0
M  V30 11604 H 1043.22 0.899438 3.11994 0
M  V30 11605 H 1044.23 4.54222 2.48803 0
M  V30 11606 H 1040.91 2.19174 3.55344 0
M  V30 11607 H 1042.3 6.14563 2.71592 0
M  V30 11608 N 1045.02 -0.694098 1.41492 0
M  V30 11609 C 1046.43 -1.27407 1.36471 0
M  V30 11610 C 1046.78 -1.9614 0.0485209 0
M  V30 11611 O 1045.9 -1.98871 -0.853188 0
M  V30 11612 C 1046.5 -2.31698 2.47188 0
M  V30 11613 C 1045.06 -2.85268 2.45559 0
M  V30 11614 C 1044.2 -1.59325 2.2696 0
M  V30 11615 H 1047.16 -0.488756 1.50986 0
M  V30 11616 H 1047.18 -3.1302 2.1633 0
M  V30 11617 H 1046.69 -1.81644 3.42968 0
M  V30 11618 H 1044.79 -3.39494 1.5354 0
M  V30 11619 H 1044.9 -3.35598 3.41922 0
M  V30 11620 H 1043.27 -1.85188 1.74864 0
M  V30 11621 H 1044.05 -1.11265 3.24769 0
M  V30 11622 N 1046.49 -1.27344 -0.928501 0
M  V30 11623 C 1047.74 -1.13019 -1.67061 0
M  V30 11624 C 1048.06 0.323614 -1.92904 0
M  V30 11625 O 1049.26 0.587752 -2.65062 0
M  V30 11626 C 1047.72 -1.97471 -3.00887 0
M  V30 11627 C 1047.33 -3.47504 -2.82746 0
M  V30 11628 C 1049.07 -1.91792 -3.78703 0
M  V30 11629 C 1046.98 -4.24158 -4.12122 0
M  V30 11630 H 1045.91 -0.419364 -0.626618 0
M  V30 11631 H 1048.56 -1.51759 -1.03158 0
M  V30 11632 H 1046.94 -1.51576 -3.65843 0
M  V30 11633 H 1048.11 -4.01256 -2.26562 0
M  V30 11634 H 1046.43 -3.54554 -2.18359 0
M  V30 11635 H 1049.03 -2.46339 -4.74575 0
M  V30 11636 H 1049.37 -0.891375 -4.06645 0
M  V30 11637 H 1049.9 -2.35578 -3.20543 0
M  V30 11638 H 1046.64 -5.27333 -3.89359 0
M  V30 11639 H 1046.16 -3.75183 -4.67972 0
M  V30 11640 H 1047.84 -4.33288 -4.80489 0
M  V30 11641 N 1047.97 1.13488 -1.09353 0
M  V30 11642 C 1048.91 2.17951 -0.67622 0
M  V30 11643 C 1049.88 1.59482 0.316906 0
M  V30 11644 O 1051.07 1.8723 0.218459 0
M  V30 11645 C 1048.19 3.387 0.00391024 0
M  V30 11646 C 1047.24 4.15764 -0.950906 0
M  V30 11647 S 1048.07 4.75517 -2.46259 0
M  V30 11648 C 1049.23 5.99613 -1.79485 0
M  V30 11649 H 1049.46 2.53012 -1.56115 0
M  V30 11650 H 1047 1.24773 -0.909447 0
M  V30 11651 H 1048.95 4.08643 0.39002 0
M  V30 11652 H 1047.61 3.01941 0.86548 0
M  V30 11653 H 1046.81 5.02229 -0.422086 0
M  V30 11654 H 1046.41 3.51473 -1.27838 0
M  V30 11655 H 1048.7 6.68204 -1.11846 0
M  V30 11656 H 1049.64 6.57102 -2.63862 0
M  V30 11657 H 1050.05 5.50165 -1.26409 0
M  V30 11658 N 1049.45 0.880621 1.30701 0
M  V30 11659 C 1050.7 0.492957 1.95583 0
M  V30 11660 C 1051.01 -0.961863 1.70316 0
M  V30 11661 O 1052.22 -1.45617 2.29146 0
M  V30 11662 C 1050.68 0.830656 3.50183 0
M  V30 11663 C 1050.28 2.30295 3.84276 0
M  V30 11664 C 1052.03 0.511979 4.21401 0
M  V30 11665 C 1049.93 2.58251 5.32034 0
M  V30 11666 H 1048.86 0.18062 0.732047 0
M  V30 11667 H 1051.52 1.075 1.48715 0
M  V30 11668 H 1049.9 0.177752 3.95601 0
M  V30 11669 H 1051.07 2.99981 3.49783 0
M  V30 11670 H 1049.39 2.58873 3.2615 0
M  V30 11671 H 1051.98 0.697935 5.30125 0
M  V30 11672 H 1052.33 -0.548327 4.12673 0
M  V30 11673 H 1052.86 1.12189 3.81652 0
M  V30 11674 H 1049.6 3.63005 5.45809 0
M  V30 11675 H 1049.12 1.9317 5.67843 0
M  V30 11676 H 1050.8 2.43527 5.99419 0
M  V30 11677 N 1050.93 -1.4397 0.641131 0
M  V30 11678 C 1052.21 -1.95436 0.0800918 0
M  V30 11679 C 1052.59 -1.58282 -1.39678 0
M  V30 11680 O 1051.93 -0.861867 -2.11623 0
M  V30 11681 C 1052.14 -3.47589 0.313531 0
M  V30 11682 C 1053.49 -4.2407 0.212034 0
M  V30 11683 O 1054.52 -3.55353 0.245434 0
M  V30 11684 O 1053.38 -5.46356 0.125455 0
M  V30 11685 H 1050.47 -0.826834 -0.0165735 0
M  V30 11686 H 1053.02 -1.5397 0.71353 0
M  V30 11687 H 1051.79 -3.67716 1.33793 0
M  V30 11688 H 1051.41 -3.96025 -0.353563 0
M  V30 11689 N 1052.41 -0.382291 -1.52893 0
M  V30 11690 C 1053.34 0.447829 -2.29165 0
M  V30 11691 C 1054.32 1.06956 -1.32267 0
M  V30 11692 O 1055.5 1.08365 -1.61154 0
M  V30 11693 C 1052.63 1.57902 -3.09329 0
M  V30 11694 C 1051.59 1.08369 -4.14053 0
M  V30 11695 C 1050.91 2.30641 -4.82399 0
M  V30 11696 C 1052.21 0.156591 -5.22065 0
M  V30 11697 H 1053.91 -0.188541 -2.98806 0
M  V30 11698 H 1051.45 -0.0921179 -1.43705 0
M  V30 11699 H 1053.41 2.16652 -3.61442 0
M  V30 11700 H 1052.13 2.24287 -2.37409 0
M  V30 11701 H 1050.79 0.518772 -3.62911 0
M  V30 11702 H 1050.44 2.9552 -4.07034 0
M  V30 11703 H 1050.14 1.98163 -5.53177 0
M  V30 11704 H 1051.66 2.90047 -5.37313 0
M  V30 11705 H 1053.08 0.652065 -5.6958 0
M  V30 11706 H 1051.47 -0.0780978 -6.00049 0
M  V30 11707 H 1052.54 -0.796529 -4.78313 0
M  V30 11708 N 1053.89 1.57202 -0.111913 0
M  V30 11709 C 1054.82 2.17957 0.837683 0
M  V30 11710 C 1055.8 1.1176 1.28233 0
M  V30 11711 O 1056.98 1.39967 1.34621 0
M  V30 11712 C 1054.11 2.77333 2.09054 0
M  V30 11713 C 1053.07 3.8905 1.78393 0
M  V30 11714 C 1052.39 4.35203 3.10649 0
M  V30 11715 C 1053.69 5.11477 1.05775 0
M  V30 11716 H 1055.39 2.9756 0.331441 0
M  V30 11717 H 1052.93 1.43131 0.157979 0
M  V30 11718 H 1054.88 3.18492 2.75936 0
M  V30 11719 H 1053.61 1.95009 2.6199 0
M  V30 11720 H 1052.27 3.48456 1.13903 0
M  V30 11721 H 1051.92 3.49747 3.61506 0
M  V30 11722 H 1051.62 5.10534 2.9091 0
M  V30 11723 H 1053.14 4.79007 3.78661 0
M  V30 11724 H 1054.55 5.497 1.62798 0
M  V30 11725 H 1052.95 5.92346 0.961573 0
M  V30 11726 H 1054.02 4.84881 0.043297 0
M  V30 11727 N 1055.36 -0.161842 1.56767 0
M  V30 11728 C 1056.31 -1.2002 1.97139 0
M  V30 11729 C 1057.28 -1.43486 0.836713 0
M  V30 11730 O 1058.47 -1.56069 1.0976 0
M  V30 11731 C 1055.61 -2.53228 2.34456 0
M  V30 11732 C 1054.72 -2.37062 3.61145 0
M  V30 11733 C 1053.85 -3.63202 3.87631 0
M  V30 11734 C 1052.89 -3.42008 5.07638 0
M  V30 11735 N 1052.03 -4.60242 5.30209 0
M  V30 11736 H 1056.87 -0.848918 2.85653 0
M  V30 11737 H 1054.41 -0.407753 1.41336 0
M  V30 11738 H 1056.36 -3.30879 2.54116 0
M  V30 11739 H 1054.99 -2.86333 1.4904 0
M  V30 11740 H 1054.05 -1.50539 3.49345 0
M  V30 11741 H 1055.36 -2.17353 4.48953 0
M  V30 11742 H 1054.51 -4.49285 4.0771 0
M  V30 11743 H 1053.25 -3.85899 2.98216 0
M  V30 11744 H 1052.26 -2.54312 4.87448 0
M  V30 11745 H 1053.48 -3.20724 5.98593 0
M  V30 11746 H 1051.43 -4.8314 4.43747 0
M  V30 11747 H 1051.34 -4.43481 6.12259 0
M  V30 11748 H 1052.61 -5.47581 5.54775 0
M  V30 11749 N 1056.84 -1.516 -0.430713 0
M  V30 11750 C 1058.26 -1.39923 -0.767706 0
M  V30 11751 C 1058.46 -0.486756 -1.95532 0
M  V30 11752 O 1057.51 0.0555965 -2.52439 0
M  V30 11753 C 1058.83 -2.82074 -1.04187 0
M  V30 11754 C 1060.37 -2.9127 -1.1459 0
M  V30 11755 C 1060.85 -4.34342 -1.45295 0
M  V30 11756 N 1062.34 -4.37479 -1.52206 0
M  V30 11757 C 1063.08 -5.45219 -1.77549 0
M  V30 11758 N 1062.57 -6.6311 -2.0064 0
M  V30 11759 N 1064.36 -5.32707 -1.79386 0
M  V30 11760 H 1056.52 -2.09474 0.351351 0
M  V30 11761 H 1058.78 -0.943247 0.0948151 0
M  V30 11762 H 1058.48 -3.50868 -0.241837 0
M  V30 11763 H 1058.36 -3.21805 -1.96777 0
M  V30 11764 H 1060.75 -2.2267 -1.93655 0
M  V30 11765 H 1060.83 -2.55026 -0.198854 0
M  V30 11766 H 1060.47 -5.03494 -0.667559 0
M  V30 11767 H 1060.4 -4.68105 -2.41217 0
M  V30 11768 H 1062.89 -3.52488 -1.36237 0
M  V30 11769 H 1063.2 -7.41012 -2.19366 0
M  V30 11770 H 1061.55 -6.66214 -1.97948 0
M  V30 11771 H 1064.74 -4.39589 -1.60869 0
M  V30 11772 H 1064.91 -6.16752 -1.98799 0
M  V30 11773 N 1058.32 0.686584 -1.41858 0
M  V30 11774 C 1059.54 1.4802 -1.45275 0
M  V30 11775 C 1059.97 1.87997 -0.0621297 0
M  V30 11776 O 1059.33 1.55226 0.936733 0
M  V30 11777 C 1059.38 2.7133 -2.37513 0
M  V30 11778 O 1058.48 3.69159 -1.83836 0
M  V30 11779 H 1057.82 0.445152 -0.492682 0
M  V30 11780 H 1060.35 0.843161 -1.86419 0
M  V30 11781 H 1060.36 3.19537 -2.53693 0
M  V30 11782 H 1059.04 2.41571 -3.3855 0
M  V30 11783 H 1057.61 3.28134 -1.77151 0
M  V30 11784 N 1059.8 1.27835 0.921735 0
M  V30 11785 C 1061.04 1.14692 1.67253 0
M  V30 11786 C 1061.38 -0.305384 1.91784 0
M  V30 11787 O 1060.65 -1.22286 1.51249 0
M  V30 11788 C 1060.93 1.93743 3.03539 0
M  V30 11789 C 1060.79 3.46991 2.86212 0
M  V30 11790 C 1062.11 1.74658 4.03959 0
M  V30 11791 H 1059.23 0.418021 0.606983 0
M  V30 11792 H 1061.87 1.5706 1.06922 0
M  V30 11793 H 1060.02 1.57738 3.55037 0
M  V30 11794 H 1061.69 3.92858 2.41785 0
M  V30 11795 H 1059.93 3.73029 2.21432 0
M  V30 11796 H 1060.6 3.97551 3.82958 0
M  V30 11797 H 1063.08 2.06063 3.61493 0
M  V30 11798 H 1061.96 2.32353 4.97296 0
M  V30 11799 H 1062.22 0.696019 4.36587 0
M  V30 11800 N 1061.28 -1.12907 1.09954 0
M  V30 11801 C 1062.5 -1.88138 0.860905 0
M  V30 11802 C 1062.92 -1.79402 -0.588256 0
M  V30 11803 O 1062.28 -1.16442 -1.40526 0
M  V30 11804 C 1062.33 -3.37537 1.29425 0
M  V30 11805 O 1062.05 -3.46056 2.68658 0
M  V30 11806 C 1063.55 -4.29721 1.08879 0
M  V30 11807 H 1060.77 -0.595437 0.309347 0
M  V30 11808 H 1063.31 -1.42894 1.46292 0
M  V30 11809 H 1061.47 -3.80344 0.736009 0
M  V30 11810 H 1061.88 -4.38969 2.87065 0
M  V30 11811 H 1063.36 -5.32854 1.4412 0
M  V30 11812 H 1063.83 -4.39192 0.0270053 0
M  V30 11813 H 1064.44 -3.9269 1.63325 0
M  V30 11814 N 1062.75 -0.88754 -1.30232 0
M  V30 11815 C 1063.7 -0.345765 -2.30016 0
M  V30 11816 C 1064.7 0.5486 -1.60271 0
M  V30 11817 O 1065.9 0.43275 -1.74721 0
M  V30 11818 H 1062.28 -0.0931623 -0.746207 0
M  V30 11819 H 1064.25 -1.20095 -2.73166 0
M  V30 11820 C 1063 0.422435 -3.45124 0
M  V30 11821 H 1062.32 -0.256516 -3.98976 0
M  V30 11822 H 1063.76 0.766572 -4.17013 0
M  V30 11823 C 1062.22 1.62049 -2.95367 0
M  V30 11824 O 1062.75 2.71985 -2.95613 0
M  V30 11825 N 1060.95 1.45852 -2.51347 0
M  V30 11826 H 1060.5 0.564158 -2.51346 0
M  V30 11827 H 1060.46 2.26148 -2.18413 0
M  V30 11828 N 1064.23 1.43628 -0.648757 0
M  V30 11829 C 1065.64 1.85142 -0.24066 0
M  V30 11830 C 1065.99 1.54304 1.21181 0
M  V30 11831 O 1065.12 0.989792 1.92437 0
M  V30 11832 C 1065.71 3.3606 -0.429999 0
M  V30 11833 C 1064.27 3.76323 -0.0762588 0
M  V30 11834 C 1063.42 2.67382 -0.734999 0
M  V30 11835 H 1066.37 1.33844 -0.852734 0
M  V30 11836 H 1066.39 3.79102 0.325836 0
M  V30 11837 H 1065.9 3.58474 -1.48721 0
M  V30 11838 H 1064.01 3.59521 0.978529 0
M  V30 11839 H 1064.12 4.76498 -0.498612 0
M  V30 11840 H 1062.48 2.54141 -0.168644 0
M  V30 11841 H 1063.27 2.92625 -1.79515 0
M  V30 11842 N 1065.71 0.390394 1.52688 0
M  V30 11843 C 1066.66 -0.444229 2.26485 0
M  V30 11844 C 1067.63 -1.05688 1.28138 0
M  V30 11845 O 1068.81 -1.0847 1.56968 0
M  V30 11846 C 1065.95 -1.56501 3.07574 0
M  V30 11847 C 1065.07 -0.975111 4.20851 0
M  V30 11848 C 1064.2 -2.06704 4.89333 0
M  V30 11849 C 1063.24 -1.45309 5.94602 0
M  V30 11850 N 1062.38 -2.48437 6.56676 0
M  V30 11851 H 1067.22 0.191535 2.97384 0
M  V30 11852 H 1064.75 0.106287 1.46716 0
M  V30 11853 H 1066.71 -2.22558 3.52879 0
M  V30 11854 H 1065.34 -2.17107 2.38881 0
M  V30 11855 H 1064.39 -0.204109 3.79852 0
M  V30 11856 H 1065.71 -0.486465 4.96422 0
M  V30 11857 H 1064.86 -2.80528 5.37949 0
M  V30 11858 H 1063.6 -2.58928 4.13289 0
M  V30 11859 H 1062.6 -0.700091 5.45324 0
M  V30 11860 H 1063.83 -0.938775 6.7258 0
M  V30 11861 H 1061.77 -2.99829 5.83471 0
M  V30 11862 H 1061.69 -2.04331 7.27863 0
M  V30 11863 H 1062.96 -3.21888 7.09935 0
M  V30 11864 N 1067.19 -1.57141 0.120249 0
M  V30 11865 C 1068.47 -1.8677 -0.581075 0
M  V30 11866 C 1068.85 -1.02163 -1.84732 0
M  V30 11867 O 1068.19 -0.100897 -2.28277 0
M  V30 11868 C 1068.4 -3.37923 -0.872316 0
M  V30 11869 C 1069.75 -4.0655 -1.22483 0
M  V30 11870 O 1070.78 -3.42948 -0.962539 0
M  V30 11871 O 1069.63 -5.18821 -1.71717 0
M  V30 11872 H 1066.73 -0.773219 -0.293362 0
M  V30 11873 H 1069.27 -1.68992 0.154846 0
M  V30 11874 H 1068.05 -3.91292 0.0249416 0
M  V30 11875 H 1067.67 -3.61135 -1.66335 0
M  V30 11876 N 1068.67 0.153526 -1.5685 0
M  V30 11877 C 1069.6 1.19162 -2.00805 0
M  V30 11878 C 1070.58 1.45172 -0.886518 0
M  V30 11879 O 1071.76 1.56203 -1.15387 0
M  V30 11880 C 1068.89 2.52637 -2.38311 0
M  V30 11881 C 1067.85 2.41161 -3.53589 0
M  V30 11882 C 1067.17 3.79287 -3.76889 0
M  V30 11883 C 1068.47 1.90122 -4.86468 0
M  V30 11884 H 1070.17 0.82617 -2.87776 0
M  V30 11885 H 1067.71 0.395972 -1.38449 0
M  V30 11886 H 1069.67 3.25478 -2.6766 0
M  V30 11887 H 1068.39 2.91005 -1.4827 0
M  V30 11888 H 1067.05 1.70772 -3.24395 0
M  V30 11889 H 1066.7 4.15079 -2.84109 0
M  V30 11890 H 1066.4 3.72472 -4.54465 0
M  V30 11891 H 1067.92 4.53687 -4.08657 0
M  V30 11892 H 1069.33 2.52752 -5.14577 0
M  V30 11893 H 1067.73 1.94214 -5.67804 0
M  V30 11894 H 1068.8 0.856517 -4.77275 0
M  V30 11895 N 1070.14 1.51827 0.422667 0
M  V30 11896 C 1071.05 1.77066 1.53899 0
M  V30 11897 C 1072.07 0.655541 1.61179 0
M  V30 11898 O 1073.25 0.939448 1.78147 0
M  V30 11899 C 1070.31 1.90372 2.89758 0
M  V30 11900 C 1069.37 3.14256 2.92475 0
M  V30 11901 C 1068.61 3.26918 4.21853 0
M  V30 11902 O 1068.83 2.45164 5.15025 0
M  V30 11903 O 1067.76 4.19989 4.31153 0
M  V30 11904 H 1071.59 2.71791 1.35511 0
M  V30 11905 H 1069.17 1.36506 0.607165 0
M  V30 11906 H 1071.06 2.01024 3.70361 0
M  V30 11907 H 1069.73 0.988347 3.08242 0
M  V30 11908 H 1068.64 3.09072 2.10773 0
M  V30 11909 H 1069.97 4.0553 2.78937 0
M  V30 11910 N 1071.62 -0.679052 1.4222 0
M  V30 11911 C 1072.55 -1.80481 1.48152 0
M  V30 11912 C 1073.53 -1.66698 0.338502 0
M  V30 11913 O 1074.72 -1.86183 0.552228 0
M  V30 11914 C 1071.85 -3.18746 1.37908 0
M  V30 11915 C 1070.8 -3.47258 2.50192 0
M  V30 11916 C 1070.13 -4.85052 2.25008 0
M  V30 11917 C 1071.43 -3.44576 3.92511 0
M  V30 11918 H 1073.12 -1.75774 2.42371 0
M  V30 11919 H 1070.67 -0.844241 1.16656 0
M  V30 11920 H 1072.62 -3.97229 1.40666 0
M  V30 11921 H 1071.35 -3.24119 0.401806 0
M  V30 11922 H 1070 -2.71133 2.46744 0
M  V30 11923 H 1069.65 -4.8707 1.25584 0
M  V30 11924 H 1069.35 -5.05092 3.00259 0
M  V30 11925 H 1070.88 -5.65825 2.29508 0
M  V30 11926 H 1072.29 -4.13036 3.97585 0
M  V30 11927 H 1070.69 -3.76151 4.67579 0
M  V30 11928 H 1071.76 -2.4323 4.19484 0
M  V30 11929 N 1073.1 -1.28322 -0.914942 0
M  V30 11930 C 1074.33 -1.18254 -1.69775 0
M  V30 11931 C 1074.74 0.258978 -1.87015 0
M  V30 11932 O 1074.1 1.17514 -1.3963 0
M  V30 11933 C 1074.15 -1.8753 -3.09054 0
M  V30 11934 O 1073.87 -3.26051 -2.92613 0
M  V30 11935 C 1075.37 -1.83749 -4.03424 0
M  V30 11936 H 1072.59 -0.41055 -0.530744 0
M  V30 11937 H 1075.14 -1.69425 -1.14523 0
M  V30 11938 H 1073.29 -1.40233 -3.61128 0
M  V30 11939 H 1073.71 -3.60729 -3.80756 0
M  V30 11940 H 1075.18 -2.36813 -4.98622 0
M  V30 11941 H 1075.66 -0.809601 -4.31674 0
M  V30 11942 H 1076.26 -2.3072 -3.57279 0
M  V30 11943 N 1074.58 1.12322 -1.10551 0
M  V30 11944 C 1075.53 2.20166 -0.750317 0
M  V30 11945 C 1076.52 1.67484 0.254066 0
M  V30 11946 O 1077.73 1.79637 0.114309 0
M  V30 11947 H 1074.1 0.717642 -0.22471 0
M  V30 11948 H 1076.07 2.47378 -1.66873 0
M  V30 11949 C 1074.82 3.47126 -0.199651 0
M  V30 11950 H 1074.14 3.88011 -0.963735 0
M  V30 11951 H 1075.58 4.23999 0.0108033 0
M  V30 11952 C 1074.04 3.19526 1.06792 0
M  V30 11953 O 1074.57 3.39368 2.14923 0
M  V30 11954 N 1072.78 2.73324 0.987032 0
M  V30 11955 H 1072.33 2.57378 0.106997 0
M  V30 11956 H 1072.28 2.55234 1.83584 0
M  V30 11957 N 1076.06 0.894434 1.2976 0
M  V30 11958 C 1077.28 0.5322 2.00455 0
M  V30 11959 C 1077.71 -0.874427 1.66539 0
M  V30 11960 O 1077.06 -1.58113 0.887129 0
M  V30 11961 C 1077.11 0.725264 3.53231 0
M  V30 11962 O 1076.22 -0.224612 4.11788 0
M  V30 11963 H 1075.56 0.208562 0.630395 0
M  V30 11964 H 1078.09 1.20458 1.65382 0
M  V30 11965 H 1078.1 0.627889 4.0314 0
M  V30 11966 H 1076.77 1.75079 3.77253 0
M  V30 11967 H 1075.35 -0.0801361 3.72814 0
M  V30 11968 N 1077.53 -1.43282 0.656365 0
M  V30 11969 C 1078.78 -2.00996 0.168354 0
M  V30 11970 C 1079.1 -1.52408 -1.22601 0
M  V30 11971 O 1080.3 -2.02417 -1.80941 0
M  V30 11972 C 1078.76 -3.5903 0.250161 0
M  V30 11973 C 1078.37 -4.1661 1.64742 0
M  V30 11974 C 1080.11 -4.24118 -0.180084 0
M  V30 11975 C 1078.02 -5.66948 1.68299 0
M  V30 11976 H 1076.95 -0.751674 0.0591769 0
M  V30 11977 H 1079.6 -1.64216 0.818859 0
M  V30 11978 H 1077.98 -3.93226 -0.467908 0
M  V30 11979 H 1079.15 -3.93908 2.3911 0
M  V30 11980 H 1077.47 -3.63905 2.02391 0
M  V30 11981 H 1080.07 -5.34419 -0.173401 0
M  V30 11982 H 1080.41 -3.98264 -1.21208 0
M  V30 11983 H 1080.94 -3.94816 0.486343 0
M  V30 11984 H 1077.68 -5.97573 2.69419 0
M  V30 11985 H 1077.2 -5.91697 0.98261 0
M  V30 11986 H 1078.88 -6.31041 1.42813 0
M  V30 11987 N 1079.01 -0.398486 -1.52479 0
M  V30 11988 C 1079.96 0.432212 -2.26717 0
M  V30 11989 C 1080.93 1.05007 -1.28696 0
M  V30 11990 O 1082.12 1.07636 -1.57541 0
M  V30 11991 C 1079.26 1.54868 -3.08399 0
M  V30 11992 C 1078.37 0.952779 -4.21362 0
M  V30 11993 C 1077.5 2.04106 -4.90423 0
M  V30 11994 C 1076.54 1.42153 -5.95364 0
M  V30 11995 N 1075.68 2.44951 -6.57984 0
M  V30 11996 H 1080.52 -0.207303 -2.97278 0
M  V30 11997 H 1078.06 -0.114066 -1.46657 0
M  V30 11998 H 1080.01 2.20684 -3.54054 0
M  V30 11999 H 1078.64 2.15837 -2.4003 0
M  V30 12000 H 1077.7 0.183962 -3.79955 0
M  V30 12001 H 1079.01 0.460131 -4.96673 0
M  V30 12002 H 1078.16 2.77672 -5.39429 0
M  V30 12003 H 1076.9 2.56733 -4.14656 0
M  V30 12004 H 1075.91 0.671161 -5.45688 0
M  V30 12005 H 1077.13 0.903093 -6.73068 0
M  V30 12006 H 1075.08 2.9673 -5.85053 0
M  V30 12007 H 1074.99 2.00468 -7.28937 0
M  V30 12008 H 1076.26 3.18119 -7.11632 0
M  V30 12009 N 1080.49 1.57075 -0.12858 0
M  V30 12010 C 1081.74 1.94695 0.526952 0
M  V30 12011 C 1082.05 1.01482 1.67215 0
M  V30 12012 O 1083.26 1.28606 2.39108 0
M  V30 12013 C 1081.72 3.4605 0.988801 0
M  V30 12014 C 1081.32 4.47816 -0.128457 0
M  V30 12015 C 1083.07 3.92572 1.61517 0
M  V30 12016 C 1080.97 5.9036 0.350628 0
M  V30 12017 H 1079.9 0.726819 0.200623 0
M  V30 12018 H 1082.56 1.82295 -0.209972 0
M  V30 12019 H 1080.94 3.53718 1.78043 0
M  V30 12020 H 1082.11 4.51826 -0.904976 0
M  V30 12021 H 1080.43 4.11103 -0.662075 0
M  V30 12022 H 1083.02 4.96493 1.98491 0
M  V30 12023 H 1083.37 3.33085 2.49721 0
M  V30 12024 H 1083.9 3.87744 0.888768 0
M  V30 12025 H 1080.64 6.53624 -0.495592 0
M  V30 12026 H 1080.16 5.89749 1.09342 0
M  V30 12027 H 1081.84 6.41926 0.808717 0
M  V30 12028 N 1081.97 -0.145205 1.5693 0
M  V30 12029 C 1082.9 -1.20881 1.93553 0
M  V30 12030 C 1083.88 -1.41467 0.801612 0
M  V30 12031 O 1085.06 -1.5605 1.05739 0
M  V30 12032 C 1082.19 -2.5674 2.20912 0
M  V30 12033 C 1081.24 -2.52738 3.43549 0
M  V30 12034 S 1082.07 -1.99257 4.97048 0
M  V30 12035 C 1083.23 -3.36842 5.27531 0
M  V30 12036 H 1083.46 -0.896362 2.83465 0
M  V30 12037 H 1080.99 -0.350894 1.5036 0
M  V30 12038 H 1082.95 -3.34923 2.37354 0
M  V30 12039 H 1081.61 -2.85174 1.31661 0
M  V30 12040 H 1080.8 -3.52753 3.59974 0
M  V30 12041 H 1080.41 -1.82665 3.26358 0
M  V30 12042 H 1082.7 -4.32958 5.21108 0
M  V30 12043 H 1083.64 -3.25268 6.28973 0
M  V30 12044 H 1084.05 -3.3406 4.55043 0
M  V30 12045 N 1083.45 -1.52049 -0.414609 0
M  V30 12046 C 1084.68 -1.69433 -1.18221 0
M  V30 12047 C 1085.09 -0.40104 -1.84901 0
M  V30 12048 O 1084.43 0.632342 -1.72474 0
M  V30 12049 C 1084.49 -2.76986 -2.2917 0
M  V30 12050 C 1084.15 -4.18903 -1.82671 0
M  V30 12051 C 1085.15 -5.02929 -1.31751 0
M  V30 12052 C 1082.84 -4.65113 -1.89672 0
M  V30 12053 C 1084.83 -6.31234 -0.884461 0
M  V30 12054 C 1082.52 -5.93408 -1.45978 0
M  V30 12055 C 1083.52 -6.76297 -0.9545 0
M  V30 12056 O 1083.2 -8.02191 -0.523852 0
M  V30 12057 H 1082.94 -0.571228 -0.36149 0
M  V30 12058 H 1085.49 -1.99355 -0.494643 0
M  V30 12059 H 1083.72 -2.42428 -3.01273 0
M  V30 12060 H 1085.41 -2.83023 -2.90951 0
M  V30 12061 H 1086.17 -4.68422 -1.2572 0
M  V30 12062 H 1082.05 -4.00702 -2.27945 0
M  V30 12063 H 1085.6 -6.95881 -0.489383 0
M  V30 12064 H 1081.49 -6.27424 -1.51687 0
M  V30 12065 H 1082.26 -8.15934 -0.647656 0
M  V30 12066 N 1084.93 0.6715 -1.42579 0
M  V30 12067 C 1085.86 1.79703 -1.42266 0
M  V30 12068 C 1086.87 1.59599 -0.321268 0
M  V30 12069 O 1088.06 1.68657 -0.584564 0
M  V30 12070 C 1085.16 3.16859 -1.20224 0
M  V30 12071 C 1084.33 3.63783 -2.42859 0
M  V30 12072 C 1083.39 4.79683 -2.16312 0
M  V30 12073 O 1082.42 4.90058 -2.89537 0
M  V30 12074 N 1083.62 5.68622 -1.16831 0
M  V30 12075 H 1086.38 1.80455 -2.39282 0
M  V30 12076 H 1083.95 0.854708 -1.375 0
M  V30 12077 H 1085.94 3.92054 -1.00376 0
M  V30 12078 H 1084.51 3.10987 -0.317188 0
M  V30 12079 H 1083.73 2.7923 -2.78252 0
M  V30 12080 H 1085.02 3.91877 -3.24514 0
M  V30 12081 H 1084.41 5.62894 -0.562746 0
M  V30 12082 H 1082.97 6.43615 -1.0297 0
M  V30 12083 N 1086.4 1.28806 0.908124 0
M  V30 12084 C 1087.63 1.19271 1.69674 0
M  V30 12085 C 1088.05 -0.244403 1.86505 0
M  V30 12086 O 1087.41 -1.17668 1.37927 0
M  V30 12087 C 1087.46 1.9023 3.06341 0
M  V30 12088 O 1086.56 1.2136 3.94139 0
M  V30 12089 H 1085.9 0.413738 0.519343 0
M  V30 12090 H 1088.43 1.70227 1.13508 0
M  V30 12091 H 1088.44 1.98356 3.56537 0
M  V30 12092 H 1087.12 2.94762 2.93408 0
M  V30 12093 H 1085.7 1.21435 3.52573 0
M  V30 12094 N 1087.88 -1.11734 1.11145 0
M  V30 12095 C 1088.84 -2.15868 0.770303 0
M  V30 12096 C 1089.84 -1.59438 -0.208842 0
M  V30 12097 O 1091.03 -1.74193 0.0152516 0
M  V30 12098 C 1088.17 -3.40603 0.142303 0
M  V30 12099 H 1089.36 -2.4756 1.69276 0
M  V30 12100 H 1086.91 -1.26867 0.912929 0
M  V30 12101 H 1087.65 -3.14517 -0.790526 0
M  V30 12102 H 1087.43 -3.8284 0.847087 0
M  V30 12103 H 1088.92 -4.17523 -0.0803608 0
M  V30 12104 N 1089.36 -0.901303 -1.29284 0
M  V30 12105 C 1090.31 -0.378666 -2.27672 0
M  V30 12106 C 1091.28 0.540102 -1.57074 0
M  V30 12107 O 1092.46 0.464997 -1.85047 0
M  V30 12108 C 1089.6 0.38635 -3.42931 0
M  V30 12109 C 1088.71 -0.563496 -4.28309 0
M  V30 12110 C 1087.85 0.218731 -5.30749 0
M  V30 12111 C 1086.89 -0.725536 -6.07785 0
M  V30 12112 N 1086.03 0.0223854 -7.02096 0
M  V30 12113 H 1090.87 -1.22277 -2.71758 0
M  V30 12114 H 1088.4 -0.614302 -1.33659 0
M  V30 12115 H 1090.36 0.845967 -4.08533 0
M  V30 12116 H 1088.99 1.1949 -2.9987 0
M  V30 12117 H 1088.04 -1.14163 -3.62865 0
M  V30 12118 H 1089.35 -1.28623 -4.81931 0
M  V30 12119 H 1088.51 0.739473 -6.02177 0
M  V30 12120 H 1087.25 0.97459 -4.77863 0
M  V30 12121 H 1086.25 -1.25776 -5.3522 0
M  V30 12122 H 1087.48 -1.48075 -6.6276 0
M  V30 12123 H 1085.42 0.760482 -6.51577 0
M  V30 12124 H 1085.34 -0.640408 -7.53283 0
M  V30 12125 H 1086.61 0.523339 -7.77741 0
M  V30 12126 N 1090.84 1.42931 -0.663954 0
M  V30 12127 C 1091.77 2.33499 0.00731327 0
M  V30 12128 C 1092.75 1.50074 0.800733 0
M  V30 12129 O 1093.93 1.78708 0.760062 0
M  V30 12130 C 1091.06 3.33569 0.966897 0
M  V30 12131 C 1090.02 4.27064 0.282839 0
M  V30 12132 C 1089.34 5.17257 1.35461 0
M  V30 12133 C 1090.64 5.1564 -0.831438 0
M  V30 12134 H 1092.34 2.89879 -0.749044 0
M  V30 12135 H 1089.88 1.39385 -0.361656 0
M  V30 12136 H 1091.84 3.95833 1.44549 0
M  V30 12137 H 1090.56 2.75469 1.75455 0
M  V30 12138 H 1089.22 3.6618 -0.175417 0
M  V30 12139 H 1088.87 4.5549 2.13397 0
M  V30 12140 H 1088.57 5.80634 0.902098 0
M  V30 12141 H 1090.09 5.82395 1.83436 0
M  V30 12142 H 1091.51 5.71651 -0.434534 0
M  V30 12143 H 1089.9 5.87794 -1.20908 0
M  V30 12144 H 1090.97 4.54687 -1.68487 0
M  V30 12145 N 1092.32 0.406567 1.52266 0
M  V30 12146 C 1093.28 -0.408251 2.25535 0
M  V30 12147 C 1094.28 -0.975795 1.27808 0
M  V30 12148 O 1095.47 -0.855077 1.5177 0
M  V30 12149 C 1092.6 -1.57443 3.02365 0
M  V30 12150 H 1093.79 0.233459 2.9899 0
M  V30 12151 H 1091.35 0.159032 1.55489 0
M  V30 12152 H 1092.08 -2.25308 2.33252 0
M  V30 12153 H 1091.87 -1.17399 3.74112 0
M  V30 12154 H 1093.36 -2.15088 3.57948 0
M  V30 12155 N 1093.79 -1.57004 0.136909 0
M  V30 12156 C 1095.02 -2.00587 -0.527209 0
M  V30 12157 C 1095.44 -1.01628 -1.58283 0
M  V30 12158 O 1094.8 0.00946934 -1.81298 0
M  V30 12159 C 1094.85 -3.42967 -1.11384 0
M  V30 12160 O 1093.95 -3.46973 -2.22898 0
M  V30 12161 H 1093.3 -0.651155 -0.129976 0
M  V30 12162 H 1095.83 -2.03296 0.230667 0
M  V30 12163 H 1095.84 -3.81555 -1.44499 0
M  V30 12164 H 1094.51 -4.14502 -0.340736 0
M  V30 12165 H 1093.09 -3.20219 -1.91087 0
M  V30 12166 N 1095.27 0.136881 -1.57004 0
M  V30 12167 C 1096.52 0.8461 -1.83536 0
M  V30 12168 C 1096.84 1.81246 -0.71937 0
M  V30 12169 O 1096.11 1.94191 0.258161 0
M  V30 12170 H 1094.69 0.315446 -0.677128 0
M  V30 12171 H 1097.35 0.128469 -1.94476 0
M  V30 12172 H 1096.45 1.40221 -2.78827 0
M  V30 12173 N 1096.75 1.52266 0.40654 0
M  V30 12174 C 1098 1.66452 1.15325 0
M  V30 12175 C 1098.33 0.395728 1.90432 0
M  V30 12176 O 1097.58 -0.621382 1.85573 0
M  V30 12177 C 1097.88 2.8389 2.1712 0
M  V30 12178 C 1097.55 4.22011 1.58801 0
M  V30 12179 C 1096.21 4.59579 1.42621 0
M  V30 12180 C 1098.56 5.08074 1.16236 0
M  V30 12181 C 1095.89 5.80885 0.823967 0
M  V30 12182 C 1098.24 6.29988 0.574284 0
M  V30 12183 C 1096.9 6.66303 0.399638 0
M  V30 12184 H 1096.17 0.609092 0.422005 0
M  V30 12185 H 1098.82 1.86374 0.440131 0
M  V30 12186 H 1097.13 2.58314 2.94586 0
M  V30 12187 H 1098.82 2.92063 2.74774 0
M  V30 12188 H 1095.41 3.92408 1.72378 0
M  V30 12189 H 1099.6 4.79631 1.27544 0
M  V30 12190 H 1094.85 6.07644 0.676694 0
M  V30 12191 H 1099.03 6.96 0.236081 0
M  V30 12192 H 1096.65 7.60169 -0.0691262 0
M  V30 12193 N 1098.23 -0.663929 1.42933 0
M  V30 12194 C 1099.51 -1.42054 1.34462 0
M  V30 12195 C 1099.89 -2.11096 -0.0127801 0
M  V30 12196 O 1099.23 -2.04027 -1.02884 0
M  V30 12197 C 1099.44 -2.41406 2.5204 0
M  V30 12198 C 1100.79 -3.05726 2.94647 0
M  V30 12199 O 1101.82 -2.51733 2.52009 0
M  V30 12200 O 1100.67 -4.03593 3.68477 0
M  V30 12201 H 1097.77 -0.634149 0.530834 0
M  V30 12202 H 1100.31 -0.691738 1.54962 0
M  V30 12203 H 1099.09 -1.89263 3.42484 0
M  V30 12204 H 1098.71 -3.21752 2.33584 0
M  V30 12205 N 1099.71 -1.29285 -0.901281 0
M  V30 12206 C 1100.64 -1.16832 -2.0217 0
M  V30 12207 C 1101.62 -0.0629265 -1.69984 0
M  V30 12208 O 1102.8 -0.242123 -1.92685 0
M  V30 12209 C 1099.93 -0.842406 -3.36929 0
M  V30 12210 C 1098.89 -1.90394 -3.8332 0
M  V30 12211 C 1098.21 -1.43138 -5.15185 0
M  V30 12212 C 1099.51 -3.31254 -4.03817 0
M  V30 12213 H 1101.21 -2.10562 -2.12847 0
M  V30 12214 H 1098.75 -1.01375 -1.0227 0
M  V30 12215 H 1100.71 -0.741999 -4.14816 0
M  V30 12216 H 1099.43 0.130598 -3.26339 0
M  V30 12217 H 1098.09 -1.99371 -3.07647 0
M  V30 12218 H 1097.74 -0.447091 -5.01009 0
M  V30 12219 H 1097.44 -2.14129 -5.47195 0
M  V30 12220 H 1098.96 -1.34444 -5.95615 0
M  V30 12221 H 1100.37 -3.25129 -4.72191 0
M  V30 12222 H 1098.77 -4.00189 -4.47178 0
M  V30 12223 H 1099.84 -3.74349 -3.08206 0
M  V30 12224 N 1101.18 1.11143 -1.11736 0
M  V30 12225 C 1102.09 2.20851 -0.791331 0
M  V30 12226 C 1103.11 1.72644 0.216833 0
M  V30 12227 O 1104.29 2.01332 0.0522401 0
M  V30 12228 C 1101.35 3.4585 -0.242694 0
M  V30 12229 C 1100.41 4.08829 -1.30986 0
M  V30 12230 C 1099.65 5.27861 -0.787305 0
M  V30 12231 O 1099.87 5.69122 0.381549 0
M  V30 12232 O 1098.8 5.81506 -1.55352 0
M  V30 12233 H 1102.63 2.51158 -1.70744 0
M  V30 12234 H 1100.21 1.19739 -0.893478 0
M  V30 12235 H 1102.1 4.21359 0.0587472 0
M  V30 12236 H 1100.77 3.17187 0.646079 0
M  V30 12237 H 1099.68 3.35037 -1.66436 0
M  V30 12238 H 1101.01 4.41678 -2.17213 0
M  V30 12239 N 1102.66 0.908147 1.28804 0
M  V30 12240 C 1103.94 0.457561 1.90173 0
M  V30 12241 C 1104.32 -1.06333 1.82364 0
M  V30 12242 O 1103.67 -1.90892 1.25589 0
M  V30 12243 C 1103.88 0.981624 3.34911 0
M  V30 12244 C 1105.23 1.03037 4.11908 0
M  V30 12245 O 1106.25 0.929878 3.43848 0
M  V30 12246 O 1105.11 1.18257 5.33552 0
M  V30 12247 H 1102.2 0.144081 0.814352 0
M  V30 12248 H 1104.75 0.998565 1.37211 0
M  V30 12249 H 1103.52 2.02561 3.34791 0
M  V30 12250 H 1103.14 0.421122 3.95364 0
M  V30 12251 N 1104.14 -1.42577 0.671525 0
M  V30 12252 C 1105.37 -2.05924 0.200731 0
M  V30 12253 C 1105.78 -1.50434 -1.14083 0
M  V30 12254 O 1105.14 -0.642845 -1.70803 0
M  V30 12255 C 1105.19 -3.61289 0.123505 0
M  V30 12256 O 1104.91 -4.1472 1.41205 0
M  V30 12257 C 1106.41 -4.41743 -0.371178 0
M  V30 12258 H 1103.63 -0.663746 0.0983958 0
M  V30 12259 H 1106.18 -1.82771 0.917338 0
M  V30 12260 H 1104.33 -3.83565 -0.543769 0
M  V30 12261 H 1104.75 -5.0856 1.28325 0
M  V30 12262 H 1106.22 -5.50731 -0.374128 0
M  V30 12263 H 1106.7 -4.16092 -1.40585 0
M  V30 12264 H 1107.3 -4.24478 0.264244 0
M  V30 12265 N 1105.62 -0.414636 -1.52048 0
M  V30 12266 C 1106.58 0.396285 -2.25748 0
M  V30 12267 C 1107.58 0.969003 -1.28324 0
M  V30 12268 O 1108.77 0.847016 -1.52221 0
M  V30 12269 C 1105.9 1.55838 -3.03195 0
M  V30 12270 H 1107.1 -0.249311 -2.98862 0
M  V30 12271 H 1104.65 -0.167276 -1.55402 0
M  V30 12272 H 1105.38 2.24068 -2.34444 0
M  V30 12273 H 1105.17 1.15414 -3.74729 0
M  V30 12274 H 1106.66 2.13187 -3.59084 0
M  V30 12275 N 1107.1 1.56929 -0.145233 0
M  V30 12276 C 1108.37 1.8767 0.551288 0
M  V30 12277 C 1108.75 1.05089 1.83083 0
M  V30 12278 O 1108.1 0.137201 2.28088 0
M  V30 12279 C 1108.31 3.39268 0.818445 0
M  V30 12280 C 1109.66 4.08447 1.16 0
M  V30 12281 O 1110.68 3.44436 0.907857 0
M  V30 12282 O 1109.54 5.21488 1.63441 0
M  V30 12283 H 1106.64 0.777788 0.281024 0
M  V30 12284 H 1109.18 1.68724 -0.181712 0
M  V30 12285 H 1107.95 3.91203 -0.0871897 0
M  V30 12286 H 1107.58 3.63735 1.60569 0
M  V30 12287 N 1108.58 -0.128553 1.57075 0
M  V30 12288 C 1109.51 -1.15953 2.02675 0
M  V30 12289 C 1110.49 -1.43743 0.909501 0
M  V30 12290 O 1111.67 -1.54348 1.17857 0
M  V30 12291 C 1108.8 -2.48813 2.423 0
M  V30 12292 C 1107.76 -2.35506 3.57381 0
M  V30 12293 C 1107.08 -3.73243 3.82875 0
M  V30 12294 C 1108.38 -1.82359 4.89431 0
M  V30 12295 H 1110.08 -0.780283 2.89054 0
M  V30 12296 H 1107.62 -0.373896 1.39061 0
M  V30 12297 H 1109.57 -3.21179 2.72804 0
M  V30 12298 H 1108.3 -2.88609 1.52881 0
M  V30 12299 H 1106.96 -1.6559 3.27071 0
M  V30 12300 H 1106.61 -4.10507 2.90677 0
M  V30 12301 H 1106.31 -3.65195 4.60333 0
M  V30 12302 H 1107.83 -4.47128 4.15823 0
M  V30 12303 H 1109.24 -2.44533 5.18533 0
M  V30 12304 H 1107.64 -1.85156 5.70822 0
M  V30 12305 H 1108.71 -0.780478 4.78578 0
M  V30 12306 N 1110.05 -1.5248 -0.398459 0
M  V30 12307 C 1111.02 -1.75949 -1.46883 0
M  V30 12308 C 1112.02 -0.629431 -1.47969 0
M  V30 12309 O 1113.21 -0.897407 -1.49306 0
M  V30 12310 C 1110.34 -1.85162 -2.8623 0
M  V30 12311 H 1111.53 -2.71513 -1.2736 0
M  V30 12312 H 1109.08 -1.43058 -0.629619 0
M  V30 12313 H 1109.82 -0.915505 -3.11109 0
M  V30 12314 H 1109.6 -2.67326 -2.86844 0
M  V30 12315 H 1111.09 -2.05025 -3.63805 0
M  V30 12316 N 1111.53 0.65634 -1.43283 0
M  V30 12317 C 1112.46 1.78184 -1.44164 0
M  V30 12318 C 1113.48 1.59249 -0.338177 0
M  V30 12319 O 1114.67 1.68027 -0.60242 0
M  V30 12320 C 1111.77 3.15566 -1.23577 0
M  V30 12321 C 1110.94 3.61187 -2.46704 0
M  V30 12322 C 1110 4.77361 -2.21388 0
M  V30 12323 O 1109.02 4.8696 -2.94718 0
M  V30 12324 N 1110.23 5.67351 -1.22855 0
M  V30 12325 H 1112.99 1.77907 -2.41183 0
M  V30 12326 H 1110.55 0.840076 -1.38399 0
M  V30 12327 H 1112.54 3.90968 -1.04529 0
M  V30 12328 H 1111.11 3.10633 -0.350155 0
M  V30 12329 H 1110.33 2.76263 -2.81198 0
M  V30 12330 H 1111.62 3.88413 -3.28652 0
M  V30 12331 H 1111.02 5.62265 -0.622417 0
M  V30 12332 H 1109.58 6.42487 -1.09791 0
M  V30 12333 N 1113.01 1.29761 0.894412 0
M  V30 12334 C 1114.26 1.17409 1.64006 0
M  V30 12335 C 1114.57 -0.272355 1.93695 0
M  V30 12336 O 1115.78 -0.517269 2.66527 0
M  V30 12337 C 1114.23 2.05379 2.95546 0
M  V30 12338 C 1113.84 3.54878 2.73433 0
M  V30 12339 C 1115.59 2.01765 3.73485 0
M  V30 12340 C 1113.49 4.34935 4.00731 0
M  V30 12341 H 1112.42 0.43583 0.615279 0
M  V30 12342 H 1115.07 1.5444 0.990983 0
M  V30 12343 H 1113.46 1.61222 3.61695 0
M  V30 12344 H 1114.63 4.07122 2.15844 0
M  V30 12345 H 1112.94 3.60218 2.08882 0
M  V30 12346 H 1115.54 2.58835 4.67877 0
M  V30 12347 H 1115.88 0.998876 4.04139 0
M  V30 12348 H 1116.42 2.43994 3.14184 0
M  V30 12349 H 1113.16 5.3747 3.75241 0
M  V30 12350 H 1112.68 3.87458 4.5786 0
M  V30 12351 H 1114.36 4.45875 4.68833 0
M  V30 12352 N 1114.49 -1.10549 1.12324 0
M  V30 12353 C 1115.73 -1.82755 0.879117 0
M  V30 12354 C 1116.07 -1.84905 -0.593604 0
M  V30 12355 O 1115.34 -1.30884 -1.43873 0
M  V30 12356 C 1115.62 -3.29481 1.45308 0
M  V30 12357 C 1115.48 -3.3567 2.99408 0
M  V30 12358 C 1116.8 -4.25828 1.11167 0
M  V30 12359 H 1113.92 -0.663513 0.32081 0
M  V30 12360 H 1116.56 -1.29572 1.38965 0
M  V30 12361 H 1114.71 -3.74902 1.01887 0
M  V30 12362 H 1116.38 -2.98739 3.515 0
M  V30 12363 H 1114.62 -2.75606 3.34998 0
M  V30 12364 H 1115.29 -4.38983 3.34661 0
M  V30 12365 H 1117.77 -3.88635 1.48667 0
M  V30 12366 H 1116.65 -5.26857 1.53991 0
M  V30 12367 H 1116.91 -4.42094 0.0237046 0
M  V30 12368 N 1115.97 -0.914965 -1.28321 0
M  V30 12369 C 1117.2 -0.563835 -1.98757 0
M  V30 12370 C 1117.6 0.859528 -1.68549 0
M  V30 12371 O 1116.95 1.58105 -0.935336 0
M  V30 12372 C 1117.01 -0.694539 -3.52727 0
M  V30 12373 C 1116.67 -2.08767 -4.06528 0
M  V30 12374 C 1117.67 -3.06052 -4.20272 0
M  V30 12375 C 1115.35 -2.40118 -4.4119 0
M  V30 12376 C 1117.35 -4.32803 -4.67932 0
M  V30 12377 C 1115.04 -3.67108 -4.88544 0
M  V30 12378 C 1116.03 -4.63265 -5.01871 0
M  V30 12379 O 1115.72 -5.87997 -5.48192 0
M  V30 12380 H 1115.45 -0.213557 -0.641381 0
M  V30 12381 H 1118.01 -1.23062 -1.64453 0
M  V30 12382 H 1116.24 0.0293186 -3.86689 0
M  V30 12383 H 1117.93 -0.350335 -4.04385 0
M  V30 12384 H 1118.69 -2.8315 -3.93765 0
M  V30 12385 H 1114.57 -1.66025 -4.30066 0
M  V30 12386 H 1118.12 -5.07861 -4.78249 0
M  V30 12387 H 1114.01 -3.89834 -5.14489 0
M  V30 12388 H 1114.78 -5.90804 -5.66474 0
M  V30 12389 N 1117.44 1.42219 -0.679077 0
M  V30 12390 C 1118.72 1.95155 -0.13188 0
M  V30 12391 C 1119.1 1.6193 1.35433 0
M  V30 12392 O 1118.45 0.917672 2.09263 0
M  V30 12393 C 1118.66 3.46635 -0.405578 0
M  V30 12394 C 1120.01 4.23359 -0.324394 0
M  V30 12395 O 1121.03 3.54578 -0.339564 0
M  V30 12396 O 1119.89 5.45831 -0.270268 0
M  V30 12397 H 1116.98 0.826983 -0.00535438 0
M  V30 12398 H 1119.53 1.52024 -0.754101 0
M  V30 12399 H 1118.3 3.6404 -1.43495 0
M  V30 12400 H 1117.92 3.96823 0.248439 0
M  V30 12401 N 1118.92 0.422693 1.51826 0
M  V30 12402 C 1119.87 -0.413725 2.24215 0
M  V30 12403 C 1120.86 -1.00228 1.2587 0
M  V30 12404 O 1122.05 -0.922845 1.51038 0
M  V30 12405 C 1119.18 -1.52244 3.07696 0
M  V30 12406 C 1118.26 -0.943999 4.1346 0
M  V30 12407 N 1118.65 -0.0934117 5.05714 0
M  V30 12408 C 1116.95 -1.21311 4.29185 0
M  V30 12409 C 1117.65 0.229891 5.81246 0
M  V30 12410 N 1116.63 -0.382753 5.42251 0
M  V30 12411 H 1120.43 0.242283 2.929 0
M  V30 12412 H 1117.94 0.233902 1.60707 0
M  V30 12413 H 1119.94 -2.13438 3.5812 0
M  V30 12414 H 1118.6 -2.18093 2.40552 0
M  V30 12415 H 1119.61 0.271932 5.17186 0
M  V30 12416 H 1116.29 -1.87018 3.7327 0
M  V30 12417 H 1117.68 0.921159 6.65556 0
M  V30 12418 N 1120.4 -1.5685 0.153553 0
M  V30 12419 C 1121.65 -1.95509 -0.495911 0
M  V30 12420 C 1121.96 -1.04129 -1.65579 0
M  V30 12421 O 1123.17 -1.32394 -2.37032 0
M  V30 12422 C 1121.62 -3.47579 -0.933622 0
M  V30 12423 C 1121.23 -4.47555 0.199684 0
M  V30 12424 C 1122.98 -3.95092 -1.55251 0
M  V30 12425 C 1120.88 -5.90843 -0.256663 0
M  V30 12426 H 1119.81 -0.729919 -0.189035 0
M  V30 12427 H 1122.46 -1.81938 0.238947 0
M  V30 12428 H 1120.85 -3.56506 -1.72394 0
M  V30 12429 H 1122.02 -4.50329 0.976744 0
M  V30 12430 H 1120.33 -4.09997 0.727394 0
M  V30 12431 H 1122.93 -4.99588 -1.90567 0
M  V30 12432 H 1123.27 -3.37015 -2.4439 0
M  V30 12433 H 1123.81 -3.89109 -0.826969 0
M  V30 12434 H 1120.55 -6.52753 0.599515 0
M  V30 12435 H 1120.07 -5.91414 -0.999458 0
M  V30 12436 H 1121.75 -6.43131 -0.70649 0
M  V30 12437 N 1121.88 0.120221 -1.57141 0
M  V30 12438 C 1122.83 1.16654 -2.01233 0
M  V30 12439 C 1123.82 1.42943 -0.909053 0
M  V30 12440 O 1125.03 1.4292 -1.09426 0
M  V30 12441 H 1121.4 0.393289 -0.640958 0
M  V30 12442 H 1123.37 0.768156 -2.88343 0
M  V30 12443 C 1122.12 2.4854 -2.43152 0
M  V30 12444 H 1121.44 2.29149 -3.27614 0
M  V30 12445 H 1122.88 3.20315 -2.77802 0
M  V30 12446 C 1121.34 3.1103 -1.29468 0
M  V30 12447 O 1121.87 3.97042 -0.609982 0
M  V30 12448 N 1120.08 2.70888 -1.05205 0
M  V30 12449 H 1119.63 2.01039 -1.61062 0
M  V30 12450 H 1119.58 3.13028 -0.293347 0
M  V30 12451 N 1123.36 1.52689 0.390367 0
M  V30 12452 C 1124.29 1.73622 1.49626 0
M  V30 12453 C 1125.3 0.616682 1.50668 0
M  V30 12454 O 1126.49 0.892341 1.54595 0
M  V30 12455 C 1123.59 1.77859 2.88477 0
M  V30 12456 C 1122.76 3.07146 3.11416 0
M  V30 12457 C 1121.82 3.02949 4.30242 0
M  V30 12458 O 1120.85 3.76816 4.26613 0
M  V30 12459 N 1122.05 2.22039 5.36357 0
M  V30 12460 H 1124.82 2.69037 1.32057 0
M  V30 12461 H 1122.38 1.51159 0.579867 0
M  V30 12462 H 1124.37 1.72559 3.66067 0
M  V30 12463 H 1122.94 0.898367 2.99413 0
M  V30 12464 H 1122.16 3.25947 2.21703 0
M  V30 12465 H 1123.45 3.92637 3.23595 0
M  V30 12466 H 1122.84 1.6149 5.4216 0
M  V30 12467 H 1121.4 2.2258 6.12619 0
M  V30 12468 N 1124.83 -0.648732 1.43629 0
M  V30 12469 C 1125.78 -1.76145 1.49136 0
M  V30 12470 C 1126.75 -1.62569 0.340649 0
M  V30 12471 O 1127.94 -1.82748 0.548435 0
M  V30 12472 C 1125.08 -3.14321 1.42466 0
M  V30 12473 C 1124.19 -3.38999 2.67776 0
M  V30 12474 C 1123.32 -4.67047 2.53062 0
M  V30 12475 C 1122.36 -4.84845 3.7362 0
M  V30 12476 N 1121.5 -6.04155 3.57689 0
M  V30 12477 H 1126.34 -1.70774 2.44213 0
M  V30 12478 H 1123.88 -0.833311 1.2122 0
M  V30 12479 H 1125.84 -3.94206 1.36592 0
M  V30 12480 H 1124.47 -3.18751 0.509666 0
M  V30 12481 H 1123.52 -2.53179 2.83909 0
M  V30 12482 H 1124.83 -3.48035 3.57314 0
M  V30 12483 H 1123.98 -5.55066 2.44922 0
M  V30 12484 H 1122.72 -4.60339 1.61056 0
M  V30 12485 H 1121.73 -3.95261 3.82163 0
M  V30 12486 H 1122.95 -4.9338 4.6664 0
M  V30 12487 H 1120.9 -5.9857 2.6842 0
M  V30 12488 H 1120.82 -6.14169 4.40832 0
M  V30 12489 H 1122.08 -6.94782 3.53409 0
M  V30 12490 N 1126.31 -1.30234 -0.887518 0
M  V30 12491 C 1127.24 -1.18969 -2.00919 0
M  V30 12492 C 1128.22 -0.080952 -1.69907 0
M  V30 12493 O 1129.41 -0.262546 -1.92417 0
M  V30 12494 C 1126.54 -0.878094 -3.36016 0
M  V30 12495 C 1125.49 -1.94449 -3.81279 0
M  V30 12496 C 1124.82 -1.48594 -5.13638 0
M  V30 12497 C 1126.12 -3.35519 -4.00281 0
M  V30 12498 H 1127.81 -2.12808 -2.10602 0
M  V30 12499 H 1125.36 -1.02454 -1.01189 0
M  V30 12500 H 1127.31 -0.785954 -4.14006 0
M  V30 12501 H 1126.04 0.0959779 -3.26459 0
M  V30 12502 H 1124.69 -2.02622 -3.05516 0
M  V30 12503 H 1124.34 -0.500204 -5.00507 0
M  V30 12504 H 1124.04 -2.19921 -5.44893 0
M  V30 12505 H 1125.57 -1.40754 -5.94156 0
M  V30 12506 H 1126.98 -3.30119 -4.68716 0
M  V30 12507 H 1125.38 -4.0491 -4.42909 0
M  V30 12508 H 1126.45 -3.77597 -3.04218 0
M  V30 12509 N 1127.79 1.09952 -1.12909 0
M  V30 12510 C 1129.04 1.81657 -0.885729 0
M  V30 12511 C 1129.36 1.85863 0.589913 0
M  V30 12512 O 1128.63 1.34028 1.42875 0
M  V30 12513 H 1127.21 0.672743 -0.324694 0
M  V30 12514 H 1129.87 1.33013 -1.42456 0
M  V30 12515 H 1128.97 2.85018 -1.27167 0
M  V30 12516 N 1129.27 0.921757 1.27833 0
M  V30 12517 C 1130.51 0.559906 1.94918 0
M  V30 12518 C 1130.85 -0.895532 1.72319 0
M  V30 12519 O 1130.12 -1.638 1.04879 0
M  V30 12520 C 1130.41 0.879458 3.49196 0
M  V30 12521 C 1130.26 2.38821 3.81162 0
M  V30 12522 C 1131.58 0.381183 4.38446 0
M  V30 12523 H 1128.7 0.204893 0.707946 0
M  V30 12524 H 1131.34 1.15246 1.51058 0
M  V30 12525 H 1129.49 0.375177 3.86684 0
M  V30 12526 H 1131.16 2.96373 3.53498 0
M  V30 12527 H 1129.4 2.83988 3.27923 0
M  V30 12528 H 1130.07 2.56234 4.88926 0
M  V30 12529 H 1132.55 0.813289 4.08075 0
M  V30 12530 H 1131.43 0.633778 5.45229 0
M  V30 12531 H 1131.69 -0.718651 4.3622 0
M  V30 12532 N 1130.75 -1.41857 0.686609 0
M  V30 12533 C 1132.02 -1.95082 0.142228 0
M  V30 12534 C 1132.4 -1.62646 -1.34572 0
M  V30 12535 O 1131.75 -0.928757 -2.08773 0
M  V30 12536 C 1131.96 -3.46415 0.423955 0
M  V30 12537 C 1133.31 -4.23181 0.346842 0
M  V30 12538 O 1134.33 -3.54393 0.358363 0
M  V30 12539 O 1133.19 -5.4568 0.299211 0
M  V30 12540 H 1130.29 -0.826943 0.00974 0
M  V30 12541 H 1132.83 -1.51622 0.762153 0
M  V30 12542 H 1131.6 -3.63273 1.45424 0
M  V30 12543 H 1131.23 -3.96949 -0.227391 0
M  V30 12544 N 1132.22 -0.430739 -1.51599 0
M  V30 12545 C 1133.17 0.398482 -2.29161 0
M  V30 12546 C 1134.17 1.02676 -1.34737 0
M  V30 12547 O 1135.37 0.96248 -1.52106 0
M  V30 12548 H 1131.75 0.14731 -0.737431 0
M  V30 12549 H 1133.72 -0.276619 -2.97115 0
M  V30 12550 C 1132.47 1.49094 -3.14112 0
M  V30 12551 H 1131.79 1.01685 -3.86652 0
M  V30 12552 H 1133.23 2.04453 -3.7145 0
M  V30 12553 C 1131.69 2.47049 -2.29059 0
M  V30 12554 O 1132.22 3.51435 -1.94567 0
M  V30 12555 N 1130.43 2.17778 -1.92409 0
M  V30 12556 H 1129.97 1.3292 -2.20658 0
M  V30 12557 H 1129.93 2.8356 -1.35798 0
M  V30 12558 N 1133.7 1.56767 -0.161869 0
M  V30 12559 C 1134.65 2.18807 0.789074 0
M  V30 12560 C 1135.64 1.14934 1.24445 0
M  V30 12561 O 1136.85 1.33154 1.2112 0
M  V30 12562 H 1133.23 0.700808 0.272713 0
M  V30 12563 H 1135.2 2.97419 0.241766 0
M  V30 12564 C 1133.95 2.83568 2.01207 0
M  V30 12565 H 1133.27 3.63219 1.67068 0
M  V30 12566 H 1134.71 3.3046 2.65654 0
M  V30 12567 C 1133.17 1.82846 2.82964 0
M  V30 12568 O 1133.7 1.30809 3.79805 0
M  V30 12569 N 1131.9 1.51815 2.47791 0
M  V30 12570 H 1131.45 1.94325 1.69103 0
M  V30 12571 H 1131.41 0.846742 3.02783 0
M  V30 12572 N 1135.18 -0.111886 1.57202 0
M  V30 12573 C 1136.11 -1.13796 2.03894 0
M  V30 12574 C 1137.09 -1.4277 0.924696 0
M  V30 12575 O 1138.28 -1.53089 1.19488 0
M  V30 12576 C 1135.41 -2.46229 2.44925 0
M  V30 12577 C 1134.36 -2.31702 3.59859 0
M  V30 12578 C 1133.69 -3.69161 3.86813 0
M  V30 12579 C 1134.99 -1.77158 4.91337 0
M  V30 12580 H 1136.68 -0.749581 2.89865 0
M  V30 12581 H 1134.23 -0.359126 1.3945 0
M  V30 12582 H 1136.18 -3.18267 2.76195 0
M  V30 12583 H 1134.9 -2.86971 1.55933 0
M  V30 12584 H 1133.56 -1.62112 3.28809 0
M  V30 12585 H 1133.21 -4.07401 2.95015 0
M  V30 12586 H 1132.91 -3.60292 4.6418 0
M  V30 12587 H 1134.43 -4.42693 4.20542 0
M  V30 12588 H 1135.85 -2.3902 5.21097 0
M  V30 12589 H 1134.25 -1.79091 5.72753 0
M  V30 12590 H 1135.32 -0.729675 4.79379 0
M  V30 12591 N 1136.66 -1.52894 -0.382264 0
M  V30 12592 C 1137.61 -1.78151 -1.46734 0
M  V30 12593 C 1138.58 -0.625034 -1.53891 0
M  V30 12594 O 1139.76 -0.865467 -1.70042 0
M  V30 12595 C 1136.9 -1.96223 -2.83885 0
M  V30 12596 C 1136.01 -3.23925 -2.85826 0
M  V30 12597 C 1135.15 -3.32277 -4.14446 0
M  V30 12598 C 1134.19 -4.54076 -4.10465 0
M  V30 12599 N 1133.32 -4.59672 -5.30703 0
M  V30 12600 H 1138.16 -2.70748 -1.24497 0
M  V30 12601 H 1135.7 -1.34135 -0.603838 0
M  V30 12602 H 1137.66 -2.04686 -3.63537 0
M  V30 12603 H 1136.29 -1.0698 -3.04557 0
M  V30 12604 H 1135.34 -3.245 -1.98505 0
M  V30 12605 H 1136.65 -4.1364 -2.78754 0
M  V30 12606 H 1135.81 -3.3996 -5.02506 0
M  V30 12607 H 1134.55 -2.40548 -4.2425 0
M  V30 12608 H 1133.55 -4.46511 -3.20793 0
M  V30 12609 H 1134.78 -5.47128 -4.02278 0
M  V30 12610 H 1132.72 -3.70838 -5.41124 0
M  V30 12611 H 1132.64 -5.43268 -5.25734 0
M  V30 12612 H 1133.91 -4.71618 -6.20642 0
M  V30 12613 N 1138.14 0.641106 -1.43971 0
M  V30 12614 C 1139.39 1.39676 -1.45511 0
M  V30 12615 C 1139.7 1.95403 -0.0877084 0
M  V30 12616 O 1140.91 2.71493 0.0193965 0
M  V30 12617 C 1139.36 2.52839 -2.56126 0
M  V30 12618 C 1138.97 2.03668 -3.99028 0
M  V30 12619 C 1140.71 3.30118 -2.66875 0
M  V30 12620 C 1138.62 3.14114 -5.01085 0
M  V30 12621 H 1137.55 0.524854 -0.541336 0
M  V30 12622 H 1140.2 0.69075 -1.70003 0
M  V30 12623 H 1138.58 3.25968 -2.24857 0
M  V30 12624 H 1139.76 1.3747 -4.39817 0
M  V30 12625 H 1138.07 1.39233 -3.92432 0
M  V30 12626 H 1140.67 4.12434 -3.40297 0
M  V30 12627 H 1141.01 3.78946 -1.72353 0
M  V30 12628 H 1141.55 2.64075 -2.97505 0
M  V30 12629 H 1138.28 2.70241 -5.97202 0
M  V30 12630 H 1137.8 3.78985 -4.64898 0
M  V30 12631 H 1139.48 3.79051 -5.24337 0
M  V30 12632 N 1139.62 1.30703 0.880598 0
M  V30 12633 C 1140.89 1.1043 1.61445 0
M  V30 12634 C 1141.27 -0.344837 2.08264 0
M  V30 12635 O 1140.62 -1.33711 1.85293 0
M  V30 12636 C 1140.83 2.10908 2.78063 0
M  V30 12637 C 1142.18 2.42861 3.48287 0
M  V30 12638 O 1143.2 2.09252 2.88257 0
M  V30 12639 O 1142.06 3.00369 4.56553 0
M  V30 12640 H 1139.16 0.424419 0.709787 0
M  V30 12641 H 1141.7 1.42144 0.926991 0
M  V30 12642 H 1140.47 3.08431 2.40803 0
M  V30 12643 H 1140.1 1.80036 3.54503 0
M  V30 12644 N 1141.09 -1.09351 1.1349 0
M  V30 12645 C 1142.37 -1.78121 0.808225 0
M  V30 12646 C 1142.75 -1.99154 -0.700072 0
M  V30 12647 O 1142.1 -1.59356 -1.63762 0
M  V30 12648 C 1142.31 -3.10368 1.59601 0
M  V30 12649 C 1143.66 -3.85063 1.78919 0
M  V30 12650 O 1144.68 -3.20122 1.56206 0
M  V30 12651 O 1143.54 -5.01648 2.16821 0
M  V30 12652 H 1140.63 -0.77253 0.295173 0
M  V30 12653 H 1143.18 -1.15901 1.23956 0
M  V30 12654 H 1141.95 -2.90549 2.62101 0
M  V30 12655 H 1141.57 -3.80312 1.15967 0
M  V30 12656 N 1142.57 -0.928524 -1.27343 0
M  V30 12657 C 1143.5 -0.445627 -2.29208 0
M  V30 12658 C 1144.48 0.494508 -1.62753 0
M  V30 12659 O 1145.67 0.399082 -1.90055 0
M  V30 12660 C 1142.8 0.301684 -3.45987 0
M  V30 12661 C 1141.75 -0.550695 -4.24442 0
M  V30 12662 C 1141.08 0.325833 -5.33706 0
M  V30 12663 C 1142.38 -1.81559 -4.89728 0
M  V30 12664 H 1144.07 -1.29696 -2.69851 0
M  V30 12665 H 1141.62 -0.625085 -1.29725 0
M  V30 12666 H 1143.57 0.650455 -4.1635 0
M  V30 12667 H 1142.29 1.18705 -3.04264 0
M  V30 12668 H 1140.95 -0.882185 -3.55827 0
M  V30 12669 H 1140.6 1.21018 -4.88225 0
M  V30 12670 H 1140.3 -0.240994 -5.87106 0
M  V30 12671 H 1141.83 0.670156 -6.06911 0
M  V30 12672 H 1143.24 -1.53483 -5.52373 0
M  V30 12673 H 1141.64 -2.32598 -5.53189 0
M  V30 12674 H 1142.71 -2.53461 -4.13383 0
M  V30 12675 N 1144.05 1.41491 -0.694123 0
M  V30 12676 C 1145.33 1.95004 -0.152571 0
M  V30 12677 C 1145.71 1.63357 1.33707 0
M  V30 12678 O 1145.05 0.939815 2.08278 0
M  V30 12679 C 1145.26 3.46186 -0.44232 0
M  V30 12680 C 1146.61 4.22991 -0.369279 0
M  V30 12681 O 1147.64 3.54198 -0.377152 0
M  V30 12682 O 1146.5 5.45514 -0.328145 0
M  V30 12683 H 1143.59 0.826879 -0.0141253 0
M  V30 12684 H 1146.14 1.51216 -0.770183 0
M  V30 12685 H 1144.91 3.62497 -1.47348 0
M  V30 12686 H 1144.53 3.97064 0.206337 0
M  V30 12687 N 1145.53 0.438773 1.51369 0
M  V30 12688 C 1146.94 -0.0240139 1.86685 0
M  V30 12689 C 1147.29 -1.41816 1.35583 0
M  V30 12690 O 1146.41 -2.04517 0.707232 0
M  V30 12691 C 1147.01 -0.0503527 3.38763 0
M  V30 12692 C 1145.57 -0.457556 3.73609 0
M  V30 12693 C 1144.72 0.348852 2.75097 0
M  V30 12694 H 1147.67 0.654552 1.44573 0
M  V30 12695 H 1147.69 -0.859534 3.70665 0
M  V30 12696 H 1147.2 0.964451 3.75925 0
M  V30 12697 H 1145.3 -1.47791 3.42036 0
M  V30 12698 H 1145.41 -0.181357 4.78757 0
M  V30 12699 H 1143.78 -0.193037 2.53967 0
M  V30 12700 H 1144.56 1.36256 3.15102 0
M  V30 12701 N 1147.01 -1.56678 0.170181 0
M  V30 12702 C 1148.23 -2.0166 -0.484543 0
M  V30 12703 C 1148.66 -1.04962 -1.56091 0
M  V30 12704 O 1148.01 -0.0289887 -1.81277 0
M  V30 12705 C 1148.06 -3.45252 -1.04084 0
M  V30 12706 O 1147.17 -3.51623 -2.15488 0
M  V30 12707 H 1146.51 -0.653765 -0.116135 0
M  V30 12708 H 1149.04 -2.02761 0.273737 0
M  V30 12709 H 1149.05 -3.84534 -1.36373 0
M  V30 12710 H 1147.72 -4.15131 -0.252738 0
M  V30 12711 H 1146.3 -3.242 -1.84252 0
M  V30 12712 N 1148.48 0.103547 -1.57259 0
M  V30 12713 C 1149.73 0.807231 -1.84842 0
M  V30 12714 C 1150.05 1.80308 -0.758181 0
M  V30 12715 O 1151.25 2.55406 -0.920877 0
M  V30 12716 C 1149.71 1.4864 -3.27771 0
M  V30 12717 C 1149.32 0.53075 -4.44845 0
M  V30 12718 C 1151.06 2.17431 -3.64587 0
M  V30 12719 C 1148.97 1.21403 -5.78805 0
M  V30 12720 H 1147.9 0.305212 -0.689465 0
M  V30 12721 H 1150.55 0.0600855 -1.83402 0
M  V30 12722 H 1148.93 2.28071 -3.23728 0
M  V30 12723 H 1150.1 -0.231455 -4.60218 0
M  V30 12724 H 1148.42 -0.0510078 -4.16369 0
M  V30 12725 H 1151.02 2.6927 -4.6195 0
M  V30 12726 H 1151.36 2.9594 -2.92789 0
M  V30 12727 H 1151.89 1.4487 -3.70483 0
M  V30 12728 H 1148.63 0.469918 -6.53813 0
M  V30 12729 H 1148.15 1.94787 -5.6729 0
M  V30 12730 H 1149.83 1.74289 -6.23083 0
M  V30 12731 N 1149.96 1.53094 0.37415 0
M  V30 12732 C 1151.21 1.68861 1.11769 0
M  V30 12733 C 1151.54 0.436032 1.89549 0
M  V30 12734 O 1150.79 -0.581879 1.86849 0
M  V30 12735 C 1151.09 2.88432 2.11049 0
M  V30 12736 C 1150.76 4.25284 1.49814 0
M  V30 12737 C 1149.42 4.62501 1.32841 0
M  V30 12738 C 1151.77 5.10425 1.05433 0
M  V30 12739 C 1149.1 5.82502 0.700567 0
M  V30 12740 C 1151.45 6.31064 0.440525 0
M  V30 12741 C 1150.11 6.67 0.258216 0
M  V30 12742 H 1149.38 0.617906 0.40899 0
M  V30 12743 H 1152.03 1.87265 0.4005 0
M  V30 12744 H 1150.34 2.64505 2.8904 0
M  V30 12745 H 1152.03 2.97825 2.68517 0
M  V30 12746 H 1148.62 3.95976 1.64016 0
M  V30 12747 H 1152.81 4.82229 1.17342 0
M  V30 12748 H 1148.06 6.08942 0.547652 0
M  V30 12749 H 1152.24 6.96344 0.0883962 0
M  V30 12750 H 1149.86 7.59851 -0.230354 0
M  V30 12751 N 1151.44 -0.633461 1.44309 0
M  V30 12752 C 1152.35 -1.77428 1.53481 0
M  V30 12753 C 1153.37 -1.68839 0.420628 0
M  V30 12754 O 1154.54 -1.89658 0.677638 0
M  V30 12755 C 1151.61 -3.13801 1.47409 0
M  V30 12756 C 1150.67 -3.34039 2.6966 0
M  V30 12757 C 1149.9 -4.63907 2.63868 0
M  V30 12758 O 1150.12 -5.44559 1.69741 0
M  V30 12759 O 1149.06 -4.86295 3.54684 0
M  V30 12760 H 1152.88 -1.72642 2.49857 0
M  V30 12761 H 1150.47 -0.794399 1.26529 0
M  V30 12762 H 1152.35 -3.95101 1.46537 0
M  V30 12763 H 1151.03 -3.19134 0.541769 0
M  V30 12764 H 1149.93 -2.52427 2.761 0
M  V30 12765 H 1151.27 -3.33566 3.61931 0
M  V30 12766 N 1152.92 -1.31168 -0.873655 0
M  V30 12767 C 1154.15 -1.23595 -1.65927 0
M  V30 12768 C 1154.56 0.199349 -1.87745 0
M  V30 12769 O 1153.92 1.13013 -1.43298 0
M  V30 12770 C 1153.97 -1.97268 -3.02932 0
M  V30 12771 O 1153.69 -3.35196 -2.82091 0
M  V30 12772 C 1155.19 -1.9649 -3.97374 0
M  V30 12773 H 1152.41 -0.427228 -0.517414 0
M  V30 12774 H 1154.96 -1.72983 -1.09074 0
M  V30 12775 H 1153.11 -1.51651 -3.56484 0
M  V30 12776 H 1153.52 -3.7266 -3.69087 0
M  V30 12777 H 1155 -2.52557 -4.90835 0
M  V30 12778 H 1155.48 -0.946525 -4.28879 0
M  V30 12779 H 1156.08 -2.4197 -3.49758 0
M  V30 12780 N 1154.4 1.08748 -1.14068 0
M  V30 12781 C 1155.34 2.15573 -0.824425 0
M  V30 12782 C 1156.31 1.64683 0.216522 0
M  V30 12783 O 1157.5 1.90601 0.0872193 0
M  V30 12784 C 1154.64 3.43756 -0.30423 0
M  V30 12785 C 1153.75 4.08512 -1.40506 0
M  V30 12786 C 1152.89 5.24477 -0.842479 0
M  V30 12787 C 1151.93 5.81167 -1.92123 0
M  V30 12788 N 1151.06 6.88483 -1.37608 0
M  V30 12789 H 1155.9 2.41968 -1.73941 0
M  V30 12790 H 1153.44 1.18751 -0.868143 0
M  V30 12791 H 1155.4 4.17197 0.0155546 0
M  V30 12792 H 1154.03 3.17658 0.573868 0
M  V30 12793 H 1153.08 3.32866 -1.84131 0
M  V30 12794 H 1154.39 4.46669 -2.2201 0
M  V30 12795 H 1153.55 6.04842 -0.474389 0
M  V30 12796 H 1152.28 4.877 0.00355212 0
M  V30 12797 H 1151.29 4.99458 -2.29831 0
M  V30 12798 H 1152.51 6.20003 -2.77079 0
M  V30 12799 H 1150.46 6.53672 -0.552168 0
M  V30 12800 H 1150.38 7.25446 -2.12752 0
M  V30 12801 H 1151.65 7.72588 -1.03578 0
M  V30 12802 N 1155.87 0.935264 1.26849 0
M  V30 12803 C 1156.82 0.438896 2.26588 0
M  V30 12804 C 1157.79 -0.498267 1.5845 0
M  V30 12805 O 1158.98 -0.415771 1.86215 0
M  V30 12806 C 1156.12 -0.295293 3.43834 0
M  V30 12807 C 1155.23 0.676857 4.26665 0
M  V30 12808 C 1154.36 -0.0779349 5.31143 0
M  V30 12809 C 1153.4 0.886425 6.05648 0
M  V30 12810 N 1152.54 0.163771 7.01909 0
M  V30 12811 H 1157.38 1.29439 2.6842 0
M  V30 12812 H 1154.92 0.649523 1.31983 0
M  V30 12813 H 1156.88 -0.737354 4.10632 0
M  V30 12814 H 1155.51 -1.11497 3.02933 0
M  V30 12815 H 1154.56 1.23744 3.5971 0
M  V30 12816 H 1155.87 1.41355 4.78351 0
M  V30 12817 H 1155.02 -0.579557 6.03926 0
M  V30 12818 H 1153.76 -0.84755 4.80279 0
M  V30 12819 H 1152.77 1.39923 5.31697 0
M  V30 12820 H 1153.99 1.65595 6.58601 0
M  V30 12821 H 1151.94 -0.58746 6.53364 0
M  V30 12822 H 1151.86 0.839902 7.5132 0
M  V30 12823 H 1153.12 -0.316951 7.78855 0
M  V30 12824 N 1157.35 -1.41121 0.701616 0
M  V30 12825 C 1158.6 -2.00359 0.232214 0
M  V30 12826 C 1158.91 -1.56231 -1.17691 0
M  V30 12827 O 1160.12 -2.08071 -1.74409 0
M  V30 12828 C 1158.58 -3.58052 0.364257 0
M  V30 12829 C 1158.18 -4.11158 1.77913 0
M  V30 12830 C 1159.93 -4.24476 -0.0450628 0
M  V30 12831 C 1157.84 -5.61306 1.8625 0
M  V30 12832 H 1156.77 -0.749411 0.0830609 0
M  V30 12833 H 1159.42 -1.61528 0.870689 0
M  V30 12834 H 1157.8 -3.94515 -0.342569 0
M  V30 12835 H 1158.97 -3.86101 2.5152 0
M  V30 12836 H 1157.29 -3.57282 2.13866 0
M  V30 12837 H 1159.88 -5.347 -0.00329209 0
M  V30 12838 H 1160.23 -4.01919 -1.08477 0
M  V30 12839 H 1160.76 -3.93069 0.611704 0
M  V30 12840 H 1157.5 -5.88699 2.88294 0
M  V30 12841 H 1157.02 -5.88271 1.17036 0
M  V30 12842 H 1158.7 -6.26179 1.62817 0
M  V30 12843 N 1158.83 -0.446794 -1.51134 0
M  V30 12844 C 1159.74 0.36579 -2.31731 0
M  V30 12845 C 1160.76 1.01886 -1.41051 0
M  V30 12846 O 1161.93 1.01216 -1.74119 0
M  V30 12847 C 1159 1.44705 -3.15058 0
M  V30 12848 C 1158.06 0.813129 -4.21529 0
M  V30 12849 C 1157.29 1.84287 -5.00873 0
M  V30 12850 O 1157.51 3.06633 -4.8097 0
M  V30 12851 O 1156.45 1.42816 -5.84711 0
M  V30 12852 H 1160.27 -0.292436 -3.02289 0
M  V30 12853 H 1157.86 -0.209129 -1.47929 0
M  V30 12854 H 1159.74 2.07393 -3.66833 0
M  V30 12855 H 1158.42 2.08919 -2.47254 0
M  V30 12856 H 1157.32 0.147953 -3.73807 0
M  V30 12857 H 1158.66 0.214331 -4.91733 0
M  V30 12858 N 1160.31 1.56586 -0.178487 0
M  V30 12859 C 1161.59 1.88798 0.511356 0
M  V30 12860 C 1161.97 1.08949 1.80813 0
M  V30 12861 O 1161.31 0.185551 2.27745 0
M  V30 12862 C 1161.52 3.40927 0.746298 0
M  V30 12863 C 1162.87 4.10816 1.0731 0
M  V30 12864 O 1163.9 3.46285 0.834592 0
M  V30 12865 O 1162.75 5.24837 1.52343 0
M  V30 12866 H 1159.85 0.783574 0.264463 0
M  V30 12867 H 1162.39 1.68301 -0.21746 0
M  V30 12868 H 1161.17 3.9093 -0.17015 0
M  V30 12869 H 1160.79 3.67059 1.52817 0
M  V30 12870 N 1161.79 -0.095206 1.57312 0
M  V30 12871 C 1162.7 -1.13388 2.05379 0
M  V30 12872 C 1163.71 -1.43868 0.978668 0
M  V30 12873 O 1164.89 -1.54512 1.29182 0
M  V30 12874 C 1161.95 -2.43444 2.46852 0
M  V30 12875 C 1161.01 -2.20146 3.68557 0
M  V30 12876 C 1160.25 -3.44001 4.08043 0
M  V30 12877 O 1160.47 -4.52233 3.47623 0
M  V30 12878 O 1159.4 -3.33596 5.00997 0
M  V30 12879 H 1163.23 -0.755622 2.9415 0
M  V30 12880 H 1160.82 -0.307707 1.46197 0
M  V30 12881 H 1162.7 -3.20027 2.74155 0
M  V30 12882 H 1161.37 -2.80696 1.61219 0
M  V30 12883 H 1160.28 -1.41345 3.46371 0
M  V30 12884 H 1161.61 -1.87787 4.54969 0
M  V30 12885 N 1163.26 -1.53291 -0.366026 0
M  V30 12886 C 1164.21 -1.80367 -1.4687 0
M  V30 12887 C 1165.21 -0.672767 -1.55468 0
M  V30 12888 O 1166.41 -0.8557 -1.5836 0
M  V30 12889 H 1162.79 -0.571076 -0.48926 0
M  V30 12890 H 1164.76 -2.72661 -1.21237 0
M  V30 12891 C 1163.51 -2.01008 -2.8371 0
M  V30 12892 H 1162.83 -2.87468 -2.77853 0
M  V30 12893 H 1164.27 -2.2393 -3.60043 0
M  V30 12894 C 1162.73 -0.789054 -3.27529 0
M  V30 12895 O 1163.26 0.0224712 -4.01694 0
M  V30 12896 N 1161.47 -0.612621 -2.84069 0
M  V30 12897 H 1161.01 -1.27416 -2.23881 0
M  V30 12898 H 1160.97 0.202943 -3.13744 0
M  V30 12899 N 1164.74 0.6258 -1.44643 0
M  V30 12900 C 1166.02 1.38439 -1.38181 0
M  V30 12901 C 1166.4 2.11056 -0.0431928 0
M  V30 12902 O 1165.75 2.06683 0.974383 0
M  V30 12903 C 1165.96 2.34639 -2.58352 0
M  V30 12904 C 1167.31 2.97807 -3.02649 0
M  V30 12905 O 1168.33 2.44963 -2.58595 0
M  V30 12906 O 1167.19 3.93682 -3.79048 0
M  V30 12907 H 1164.28 0.619852 -0.54746 0
M  V30 12908 H 1166.83 0.650409 -1.56741 0
M  V30 12909 H 1165.6 1.80116 -3.47382 0
M  V30 12910 H 1165.22 3.15446 -2.42032 0
M  V30 12911 N 1166.22 1.31629 0.866686 0
M  V30 12912 C 1167.45 1.24609 1.65793 0
M  V30 12913 C 1167.87 -0.184944 1.87189 0
M  V30 12914 O 1167.23 -1.1322 1.41601 0
M  V30 12915 C 1167.28 1.9988 3.00134 0
M  V30 12916 O 1166.38 1.33838 3.90079 0
M  V30 12917 H 1165.72 0.430051 0.505917 0
M  V30 12918 H 1168.25 1.73752 1.08035 0
M  V30 12919 H 1168.26 2.09599 3.50046 0
M  V30 12920 H 1166.94 3.03947 2.83882 0
M  V30 12921 H 1165.51 1.3259 3.48532 0
M  V30 12922 N 1167.7 -1.08142 1.14644 0
M  V30 12923 C 1168.92 -1.84857 0.940349 0
M  V30 12924 C 1169.35 -1.81163 -0.506117 0
M  V30 12925 O 1168.71 -1.19869 -1.36019 0
M  V30 12926 C 1168.76 -3.30198 1.4492 0
M  V30 12927 O 1167.86 -4.07355 0.64308 0
M  V30 12928 H 1167.2 -0.572711 0.336003 0
M  V30 12929 H 1169.73 -1.36475 1.52432 0
M  V30 12930 H 1169.74 -3.81039 1.45854 0
M  V30 12931 H 1168.42 -3.32202 2.50229 0
M  V30 12932 H 1166.99 -3.66219 0.702698 0
M  V30 12933 N 1169.18 -0.941978 -1.26351 0
M  V30 12934 C 1170.12 -0.450906 -2.26353 0
M  V30 12935 C 1171.09 0.489857 -1.58712 0
M  V30 12936 O 1172.28 0.40589 -1.86433 0
M  V30 12937 C 1169.42 0.277054 -3.43986 0
M  V30 12938 C 1168.53 -0.699474 -4.263 0
M  V30 12939 C 1167.67 0.0497661 -5.31177 0
M  V30 12940 C 1166.71 -0.918531 -6.05169 0
M  V30 12941 N 1165.84 -0.200993 -7.01812 0
M  V30 12942 H 1170.68 -1.30861 -2.6773 0
M  V30 12943 H 1168.22 -0.656514 -1.31637 0
M  V30 12944 H 1170.18 0.715567 -4.11018 0
M  V30 12945 H 1168.81 1.09889 -3.0352 0
M  V30 12946 H 1167.86 -1.2565 -3.59049 0
M  V30 12947 H 1169.17 -1.4389 -4.77595 0
M  V30 12948 H 1168.33 0.547521 -6.04224 0
M  V30 12949 H 1167.07 0.822068 -4.80722 0
M  V30 12950 H 1166.07 -1.4274 -5.30947 0
M  V30 12951 H 1167.3 -1.69085 -6.57713 0
M  V30 12952 H 1165.24 0.552803 -6.53667 0
M  V30 12953 H 1165.16 -0.879735 -7.50864 0
M  V30 12954 H 1166.43 0.275642 -7.79012 0
M  V30 12955 N 1170.66 1.40747 -0.709091 0
M  V30 12956 C 1171.9 2.01003 -0.24581 0
M  V30 12957 C 1172.23 1.56203 1.15891 0
M  V30 12958 O 1171.49 0.770166 1.79908 0
M  V30 12959 C 1171.78 3.56404 -0.266685 0
M  V30 12960 C 1171.45 4.20762 -1.6208 0
M  V30 12961 C 1170.11 4.38056 -1.99148 0
M  V30 12962 C 1172.46 4.56723 -2.51105 0
M  V30 12963 C 1169.79 4.88591 -3.248 0
M  V30 12964 C 1172.14 5.08654 -3.76103 0
M  V30 12965 C 1170.81 5.24158 -4.13297 0
M  V30 12966 H 1170.08 0.73552 -0.0899481 0
M  V30 12967 H 1172.73 1.68451 -0.910844 0
M  V30 12968 H 1171.03 3.88825 0.481915 0
M  V30 12969 H 1172.73 4.0085 0.109509 0
M  V30 12970 H 1169.32 4.07685 -1.32252 0
M  V30 12971 H 1173.5 4.43004 -2.23744 0
M  V30 12972 H 1168.76 4.98779 -3.53595 0
M  V30 12973 H 1172.93 5.35457 -4.45262 0
M  V30 12974 H 1170.56 5.63079 -5.10731 0
M  V30 12975 N 1172.13 0.454803 1.50895 0
M  V30 12976 C 1173.04 -0.353495 2.31921 0
M  V30 12977 C 1174.06 -1.01136 1.41589 0
M  V30 12978 O 1175.24 -1.00291 1.74653 0
M  V30 12979 C 1172.3 -1.43032 3.15821 0
M  V30 12980 C 1171.36 -0.790763 4.21954 0
M  V30 12981 C 1170.59 -1.81628 5.01843 0
M  V30 12982 O 1170.82 -3.04078 4.8259 0
M  V30 12983 O 1169.75 -1.39713 5.8546 0
M  V30 12984 H 1173.58 0.308463 3.02129 0
M  V30 12985 H 1171.16 0.216971 1.47816 0
M  V30 12986 H 1173.04 -2.05444 3.67927 0
M  V30 12987 H 1171.72 -2.07605 2.48358 0
M  V30 12988 H 1170.63 -0.128127 3.73881 0
M  V30 12989 H 1171.96 -0.188251 4.9184 0
M  V30 12990 N 1173.61 -1.56489 0.186789 0
M  V30 12991 C 1174.52 -2.22304 -0.749543 0
M  V30 12992 C 1175.54 -1.21949 -1.24115 0
M  V30 12993 O 1176.71 -1.5466 -1.29005 0
M  V30 12994 C 1173.78 -2.863 -1.95533 0
M  V30 12995 C 1172.84 -4.01901 -1.5091 0
M  V30 12996 C 1172.07 -4.62837 -2.6574 0
M  V30 12997 O 1172.3 -4.22681 -3.8301 0
M  V30 12998 O 1171.23 -5.52446 -2.38929 0
M  V30 12999 H 1175.06 -3.02909 -0.21908 0
M  V30 13000 H 1172.64 -1.49341 -0.0421249 0
M  V30 13001 H 1174.52 -3.2682 -2.6602 0
M  V30 13002 H 1173.2 -2.08681 -2.47455 0
M  V30 13003 H 1172.1 -3.66021 -0.773261 0
M  V30 13004 H 1173.44 -4.8116 -1.03663 0
M  V30 13005 N 1175.09 0.086862 -1.5736 0
M  V30 13006 C 1176 1.12297 -2.05977 0
M  V30 13007 C 1177.02 1.43347 -0.986284 0
M  V30 13008 O 1178.19 1.53825 -1.3 0
M  V30 13009 C 1175.26 2.42131 -2.4814 0
M  V30 13010 C 1174.32 2.18189 -3.69719 0
M  V30 13011 C 1173.55 3.41833 -4.09861 0
M  V30 13012 O 1173.77 4.50383 -3.50016 0
M  V30 13013 O 1172.71 3.30934 -5.02759 0
M  V30 13014 H 1176.53 0.740012 -2.94546 0
M  V30 13015 H 1174.12 0.29995 -1.46358 0
M  V30 13016 H 1176 3.18568 -2.75848 0
M  V30 13017 H 1174.68 2.79837 -1.62705 0
M  V30 13018 H 1173.58 1.39506 -3.47115 0
M  V30 13019 H 1174.92 1.85372 -4.55959 0
M  V30 13020 N 1176.57 1.53483 0.357892 0
M  V30 13021 C 1177.82 1.69256 1.09706 0
M  V30 13022 C 1178.13 0.454888 1.90237 0
M  V30 13023 O 1179.34 0.4933 2.66981 0
M  V30 13024 C 1177.79 2.99238 1.99961 0
M  V30 13025 C 1177.4 4.30293 1.24706 0
M  V30 13026 C 1179.14 3.24378 2.73823 0
M  V30 13027 C 1177.05 5.5136 2.13907 0
M  V30 13028 H 1175.98 0.630657 0.413265 0
M  V30 13029 H 1178.63 1.79983 0.357518 0
M  V30 13030 H 1177.01 2.82332 2.77677 0
M  V30 13031 H 1178.19 4.57857 0.519995 0
M  V30 13032 H 1176.5 4.11656 0.626736 0
M  V30 13033 H 1179.1 4.12015 3.40805 0
M  V30 13034 H 1179.44 2.40769 3.39612 0
M  V30 13035 H 1179.98 3.41994 2.03187 0
M  V30 13036 H 1176.71 6.3747 1.52684 0
M  V30 13037 H 1176.23 5.28065 2.84442 0
M  V30 13038 H 1177.91 5.86448 2.7329 0
M  V30 13039 N 1178.05 -0.61812 1.44973 0
M  V30 13040 C 1178.99 -1.75059 1.53157 0
M  V30 13041 C 1179.99 -1.64554 0.402282 0
M  V30 13042 O 1181.19 -1.70475 0.577767 0
M  V30 13043 H 1177.57 -0.57817 0.480856 0
M  V30 13044 H 1179.54 -1.65281 2.48445 0
M  V30 13045 C 1178.29 -3.13423 1.50538 0
M  V30 13046 H 1177.61 -3.2216 2.36755 0
M  V30 13047 H 1179.05 -3.92521 1.60323 0
M  V30 13048 C 1177.51 -3.36127 0.228127 0
M  V30 13049 O 1178.04 -3.95618 -0.696364 0
M  V30 13050 N 1176.25 -2.90322 0.127142 0
M  V30 13051 H 1175.79 -2.42091 0.880317 0
M  V30 13052 H 1175.75 -3.05887 -0.726659 0
M  V30 13053 N 1179.52 -1.32087 -0.859693 0
M  V30 13054 C 1180.77 -1.21716 -1.60836 0
M  V30 13055 C 1181.09 0.220904 -1.94349 0
M  V30 13056 O 1182.29 0.446422 -2.67805 0
M  V30 13057 C 1180.75 -2.13143 -2.89997 0
M  V30 13058 C 1180.36 -3.62003 -2.63928 0
M  V30 13059 C 1182.1 -2.11596 -3.68004 0
M  V30 13060 C 1180.01 -4.45407 -3.89059 0
M  V30 13061 H 1178.94 -0.45199 -0.603507 0
M  V30 13062 H 1181.59 -1.57013 -0.949687 0
M  V30 13063 H 1179.97 -1.70755 -3.57294 0
M  V30 13064 H 1181.14 -4.12701 -2.04974 0
M  V30 13065 H 1179.46 -3.6563 -1.99258 0
M  V30 13066 H 1182.06 -2.71149 -4.6085 0
M  V30 13067 H 1182.4 -1.10568 -4.01348 0
M  V30 13068 H 1182.93 -2.52238 -3.07605 0
M  V30 13069 H 1179.67 -5.4723 -3.60859 0
M  V30 13070 H 1179.19 -3.99462 -4.47427 0
M  V30 13071 H 1180.87 -4.58149 -4.56846 0
M  V30 13072 N 1181 1.07532 -1.15215 0
M  V30 13073 C 1182.28 1.76813 -0.83646 0
M  V30 13074 C 1182.66 2.00242 0.6683 0
M  V30 13075 O 1182.01 1.61941 1.61206 0
M  V30 13076 C 1182.22 3.0779 -1.64519 0
M  V30 13077 C 1183.56 3.82168 -1.85022 0
M  V30 13078 O 1184.59 3.17596 -1.61279 0
M  V30 13079 O 1183.45 4.98135 -2.24775 0
M  V30 13080 H 1180.54 0.767736 -0.307426 0
M  V30 13081 H 1183.09 1.13914 -1.25784 0
M  V30 13082 H 1181.86 2.86342 -2.6669 0
M  V30 13083 H 1181.48 3.78419 -1.22002 0
M  V30 13084 N 1182.48 0.948665 1.2585 0
M  V30 13085 C 1183.76 0.517832 1.88621 0
M  V30 13086 C 1184.14 -1.00477 1.85654 0
M  V30 13087 O 1183.49 -1.868 1.31598 0
M  V30 13088 C 1183.7 1.08768 3.31618 0
M  V30 13089 C 1185.04 1.16089 4.08422 0
M  V30 13090 O 1186.07 1.0388 3.40716 0
M  V30 13091 O 1184.93 1.35172 5.29519 0
M  V30 13092 H 1182.02 0.169916 0.809356 0
M  V30 13093 H 1184.57 1.04171 1.33964 0
M  V30 13094 H 1183.34 2.13109 3.28177 0
M  V30 13095 H 1182.96 0.54669 3.93824 0
M  V30 13096 N 1183.96 -1.40369 0.716545 0
M  V30 13097 C 1184.87 -2.34508 0.065658 0
M  V30 13098 C 1185.88 -1.57352 -0.742723 0
M  V30 13099 O 1187.06 -1.89735 -0.675456 0
M  V30 13100 C 1184.13 -3.36262 -0.844337 0
M  V30 13101 C 1183.19 -4.29292 -0.0257971 0
M  V30 13102 C 1182.42 -5.26185 -0.892452 0
M  V30 13103 O 1182.64 -5.29071 -2.13166 0
M  V30 13104 O 1181.58 -6.0099 -0.330933 0
M  V30 13105 H 1185.4 -2.91789 0.842184 0
M  V30 13106 H 1182.99 -1.41579 0.477034 0
M  V30 13107 H 1184.87 -3.98661 -1.36555 0
M  V30 13108 H 1183.54 -2.81393 -1.59999 0
M  V30 13109 H 1182.45 -3.70175 0.540512 0
M  V30 13110 H 1183.78 -4.87316 0.69166 0
M  V30 13111 N 1185.44 -0.462799 -1.50652 0
M  V30 13112 C 1186.69 0.0966838 -2.01468 0
M  V30 13113 C 1187 1.41529 -1.35014 0
M  V30 13114 O 1188.2 2.05923 -1.76941 0
M  V30 13115 C 1186.66 0.222826 -3.5921 0
M  V30 13116 C 1186.27 -1.08686 -4.34616 0
M  V30 13117 C 1188.01 0.734711 -4.18094 0
M  V30 13118 C 1185.92 -0.924964 -5.84122 0
M  V30 13119 H 1184.85 0.0399078 -0.752943 0
M  V30 13120 H 1187.5 -0.596437 -1.73536 0
M  V30 13121 H 1185.88 0.979539 -3.83694 0
M  V30 13122 H 1187.06 -1.85388 -4.21862 0
M  V30 13123 H 1185.37 -1.52922 -3.87303 0
M  V30 13124 H 1187.97 0.872734 -5.2753 0
M  V30 13125 H 1188.31 1.72389 -3.7893 0
M  V30 13126 H 1188.84 0.0356139 -3.97784 0
M  V30 13127 H 1185.58 -1.88727 -6.27744 0
M  V30 13128 H 1185.1 -0.198181 -5.99473 0
M  V30 13129 H 1186.78 -0.588262 -6.4432 0
M  V30 13130 N 1186.91 1.56388 -0.195085 0
M  V30 13131 C 1187.85 2.16316 0.757643 0
M  V30 13132 C 1188.86 1.12498 1.17678 0
M  V30 13133 O 1190.05 1.39591 1.11251 0
M  V30 13134 C 1187.15 2.7104 2.03447 0
M  V30 13135 C 1186.32 3.99759 1.77514 0
M  V30 13136 C 1185.38 4.3931 2.89644 0
M  V30 13137 O 1184.41 5.06732 2.59252 0
M  V30 13138 N 1185.61 4.02813 4.17998 0
M  V30 13139 H 1188.37 2.98696 0.24517 0
M  V30 13140 H 1185.93 1.61895 -0.0131194 0
M  V30 13141 H 1187.93 2.94483 2.776 0
M  V30 13142 H 1186.5 1.93114 2.45817 0
M  V30 13143 H 1185.72 3.84448 0.8714 0
M  V30 13144 H 1187 4.83782 1.57585 0
M  V30 13145 H 1186.4 3.4858 4.45543 0
M  V30 13146 H 1184.96 4.31206 4.88779 0
M  V30 13147 N 1188.39 -0.0785156 1.57404 0
M  V30 13148 C 1189.34 -1.09402 2.03224 0
M  V30 13149 C 1190.31 -1.38849 0.911596 0
M  V30 13150 O 1191.49 -1.50031 1.17878 0
M  V30 13151 C 1188.63 -2.40444 2.47549 0
M  V30 13152 C 1187.75 -2.17585 3.73203 0
M  V30 13153 C 1186.88 -3.42143 4.06339 0
M  V30 13154 C 1185.92 -3.14619 5.25054 0
M  V30 13155 N 1185.06 -4.31489 5.5386 0
M  V30 13156 H 1189.9 -0.696307 2.89751 0
M  V30 13157 H 1187.44 -0.332261 1.43298 0
M  V30 13158 H 1189.39 -3.16944 2.71298 0
M  V30 13159 H 1188.02 -2.78031 1.64009 0
M  V30 13160 H 1187.08 -1.3181 3.56834 0
M  V30 13161 H 1188.39 -1.93249 4.59844 0
M  V30 13162 H 1187.54 -4.27042 4.30953 0
M  V30 13163 H 1186.28 -3.69549 3.18253 0
M  V30 13164 H 1185.29 -2.28116 5.00243 0
M  V30 13165 H 1186.51 -2.88543 6.14752 0
M  V30 13166 H 1184.46 -4.58939 4.68734 0
M  V30 13167 H 1184.37 -4.10403 6.34906 0
M  V30 13168 H 1185.64 -5.17404 5.83021 0
M  V30 13169 N 1189.87 -1.5367 -0.349747 0
M  V30 13170 C 1190.82 -1.81223 -1.42922 0
M  V30 13171 C 1191.79 -0.657536 -1.52531 0
M  V30 13172 O 1192.97 -0.90134 -1.68168 0
M  V30 13173 C 1190.11 -2.022 -2.79659 0
M  V30 13174 C 1189.23 -3.29915 -2.78891 0
M  V30 13175 C 1188.36 -3.40993 -4.07305 0
M  V30 13176 C 1187.4 -4.6268 -4.00741 0
M  V30 13177 N 1186.54 -4.70826 -5.20833 0
M  V30 13178 H 1191.38 -2.73328 -1.18727 0
M  V30 13179 H 1188.91 -1.35386 -0.57525 0
M  V30 13180 H 1190.87 -2.12351 -3.59114 0
M  V30 13181 H 1189.5 -1.13416 -3.0222 0
M  V30 13182 H 1188.55 -3.28637 -1.91577 0
M  V30 13183 H 1189.87 -4.19459 -2.69917 0
M  V30 13184 H 1189.02 -3.50542 -4.95182 0
M  V30 13185 H 1187.76 -2.49493 -4.19052 0
M  V30 13186 H 1186.76 -4.53215 -3.11249 0
M  V30 13187 H 1187.99 -5.55538 -3.90582 0
M  V30 13188 H 1185.93 -3.82233 -5.33136 0
M  V30 13189 H 1185.85 -5.54297 -5.14092 0
M  V30 13190 H 1187.12 -4.84677 -6.10499 0
M  V30 13191 N 1191.35 0.610423 -1.45298 0
M  V30 13192 C 1192.63 1.36966 -1.39641 0
M  V30 13193 C 1193.01 2.10998 -0.0655757 0
M  V30 13194 O 1192.35 2.07705 0.952407 0
M  V30 13195 C 1192.56 2.31885 -2.60826 0
M  V30 13196 C 1193.91 2.9458 -3.05791 0
M  V30 13197 O 1194.94 2.42207 -2.61179 0
M  V30 13198 O 1193.79 3.89639 -3.83202 0
M  V30 13199 H 1190.89 0.61401 -0.554004 0
M  V30 13200 H 1193.43 0.633748 -1.57422 0
M  V30 13201 H 1192.21 1.76421 -3.49272 0
M  V30 13202 H 1191.83 3.12861 -2.45364 0
M  V30 13203 N 1192.83 1.32541 0.852676 0
M  V30 13204 C 1193.77 1.21602 1.98282 0
M  V30 13205 C 1194.77 0.120384 1.68972 0
M  V30 13206 O 1195.97 0.283441 1.77754 0
M  V30 13207 H 1192.35 0.376994 0.650676 0
M  V30 13208 H 1194.32 2.17179 2.04636 0
M  V30 13209 C 1193.07 0.957965 3.34243 0
M  V30 13210 H 1192.39 1.79324 3.57327 0
M  V30 13211 H 1193.83 0.921673 4.13861 0
M  V30 13212 C 1192.29 -0.339271 3.35187 0
M  V30 13213 O 1192.82 -1.3505 3.78318 0
M  V30 13214 N 1191.03 -0.361944 2.88337 0
M  V30 13215 H 1190.57 0.461497 2.53432 0
M  V30 13216 H 1190.53 -1.22976 2.89352 0
M  V30 13217 N 1194.3 -1.0692 1.15784 0
M  V30 13218 C 1195.25 -2.16335 0.854506 0
M  V30 13219 C 1196.25 -1.68505 -0.173868 0
M  V30 13220 O 1197.45 -1.79977 -0.0284722 0
M  V30 13221 H 1193.83 -0.706103 0.258694 0
M  V30 13222 H 1195.8 -2.39135 1.78486 0
M  V30 13223 C 1194.55 -3.45778 0.365042 0
M  V30 13224 H 1193.87 -3.82971 1.14776 0
M  V30 13225 H 1195.31 -4.23567 0.191504 0
M  V30 13226 C 1193.77 -3.24258 -0.914253 0
M  V30 13227 O 1194.3 -3.49236 -1.98487 0
M  V30 13228 N 1192.51 -2.77722 -0.855501 0
M  V30 13229 H 1192.05 -2.57595 0.0159233 0
M  V30 13230 H 1192.01 -2.63702 -1.71198 0
M  V30 13231 N 1195.78 -0.955326 -1.25345 0
M  V30 13232 C 1197.03 -0.611388 -1.93365 0
M  V30 13233 C 1197.36 0.84953 -1.74633 0
M  V30 13234 O 1196.64 1.60962 -1.09185 0
M  V30 13235 C 1196.92 -0.971732 -3.46741 0
M  V30 13236 C 1196.77 -2.48843 -3.74696 0
M  V30 13237 C 1198.09 -0.497295 -4.37281 0
M  V30 13238 H 1195.21 -0.223591 -0.702265 0
M  V30 13239 H 1197.85 -1.1921 -1.47949 0
M  V30 13240 H 1196 -0.477568 -3.85554 0
M  V30 13241 H 1197.67 -3.05641 -3.45516 0
M  V30 13242 H 1195.92 -2.92582 -3.20278 0
M  V30 13243 H 1196.59 -2.69107 -4.8196 0
M  V30 13244 H 1199.06 -0.921196 -4.05775 0
M  V30 13245 H 1197.94 -0.778113 -5.43357 0
M  V30 13246 H 1198.2 0.602743 -4.37972 0
M  V30 13247 N 1197.26 1.39987 -0.723979 0
M  V30 13248 C 1198.54 1.94637 -0.1939 0
M  V30 13249 C 1198.92 1.66156 1.30212 0
M  V30 13250 O 1198.27 0.983783 2.06238 0
M  V30 13251 C 1198.48 3.4517 -0.515652 0
M  V30 13252 C 1199.82 4.22113 -0.458919 0
M  V30 13253 O 1200.85 3.53318 -0.452198 0
M  V30 13254 O 1199.71 5.44695 -0.443783 0
M  V30 13255 H 1196.8 0.826394 -0.0316615 0
M  V30 13256 H 1199.35 1.49548 -0.802085 0
M  V30 13257 H 1198.12 3.5929 -1.55004 0
M  V30 13258 H 1197.74 3.97413 0.122067 0
M  V30 13259 N 1198.74 0.470782 1.50404 0
M  V30 13260 C 1199.69 -0.337584 2.30137 0
M  V30 13261 C 1200.68 -0.990673 1.37412 0
M  V30 13262 O 1201.89 -0.921813 1.54605 0
M  V30 13263 H 1198.26 -0.127707 0.741077 0
M  V30 13264 H 1200.23 0.355297 2.96277 0
M  V30 13265 C 1198.98 -1.40714 3.17954 0
M  V30 13266 H 1198.31 -0.913982 3.89213 0
M  V30 13267 H 1199.75 -1.94533 3.7674 0
M  V30 13268 C 1198.2 -2.40889 2.35529 0
M  V30 13269 O 1198.73 -3.46153 2.03816 0
M  V30 13270 N 1196.94 -2.126 1.98115 0
M  V30 13271 H 1196.49 -1.27023 2.24105 0
M  V30 13272 H 1196.45 -2.7986 1.43269 0
M  V30 13273 N 1200.22 -1.56282 0.203376 0
M  V30 13274 C 1201.13 -2.23086 -0.725922 0
M  V30 13275 C 1202.14 -1.23258 -1.22814 0
M  V30 13276 O 1203.32 -1.5602 -1.27357 0
M  V30 13277 C 1200.38 -2.88358 -1.92485 0
M  V30 13278 C 1199.45 -4.03479 -1.46639 0
M  V30 13279 C 1198.68 -4.65629 -2.60816 0
M  V30 13280 O 1198.9 -4.2672 -3.78506 0
M  V30 13281 O 1197.84 -5.54949 -2.33056 0
M  V30 13282 H 1201.66 -3.03124 -0.18694 0
M  V30 13283 H 1199.25 -1.49377 -0.0262829 0
M  V30 13284 H 1201.13 -3.29623 -2.62539 0
M  V30 13285 H 1199.8 -2.11294 -2.45228 0
M  V30 13286 H 1198.71 -3.66821 -0.734396 0
M  V30 13287 H 1200.04 -4.82232 -0.985535 0
M  V30 13288 N 1201.7 0.070167 -1.57444 0
M  V30 13289 C 1202.92 0.785703 -1.91941 0
M  V30 13290 C 1203.35 1.70243 -0.799932 0
M  V30 13291 O 1202.7 1.79608 0.247139 0
M  V30 13292 C 1202.75 1.55398 -3.25398 0
M  V30 13293 O 1201.86 2.66475 -3.14746 0
M  V30 13294 H 1201.2 0.214245 -0.628486 0
M  V30 13295 H 1203.73 0.0379243 -2.04565 0
M  V30 13296 H 1203.74 1.93287 -3.5931 0
M  V30 13297 H 1202.41 0.881366 -4.06454 0
M  V30 13298 H 1200.99 2.3143 -2.92394 0
M  V30 13299 N 1203.17 1.53854 0.341593 0
M  V30 13300 C 1204.12 1.8268 1.43982 0
M  V30 13301 C 1205.12 0.697415 1.54378 0
M  V30 13302 O 1206.32 0.880785 1.56978 0
M  V30 13303 H 1202.7 0.578788 0.480113 0
M  V30 13304 H 1204.67 2.74556 1.16884 0
M  V30 13305 C 1203.42 2.05496 2.80476 0
M  V30 13306 H 1202.74 2.91852 2.73244 0
M  V30 13307 H 1204.18 2.2963 3.56435 0
M  V30 13308 C 1202.64 0.841061 3.26233 0
M  V30 13309 O 1203.17 0.0414376 4.01679 0
M  V30 13310 N 1201.37 0.657736 2.83059 0
M  V30 13311 H 1200.92 1.30962 2.21826 0
M  V30 13312 H 1200.88 -0.153003 3.14027 0
M  V30 13313 N 1204.65 -0.602709 1.4562 0
M  V30 13314 C 1205.93 -1.36224 1.40366 0
M  V30 13315 C 1206.31 -2.1096 0.0767645 0
M  V30 13316 O 1205.66 -2.08207 -0.941378 0
M  V30 13317 C 1205.87 -2.30499 2.62052 0
M  V30 13318 C 1207.21 -2.92954 3.07348 0
M  V30 13319 O 1208.24 -2.40818 2.62459 0
M  V30 13320 O 1207.1 -3.87601 3.85263 0
M  V30 13321 H 1204.19 -0.611064 0.557253 0
M  V30 13322 H 1206.74 -0.625391 1.57756 0
M  V30 13323 H 1205.51 -1.74566 3.50203 0
M  V30 13324 H 1205.13 -3.11556 2.4702 0
M  V30 13325 N 1206.13 -1.32992 -0.845635 0
M  V30 13326 C 1207.08 -1.22682 -1.95494 0
M  V30 13327 C 1208.05 -0.106942 -1.65755 0
M  V30 13328 O 1209.23 -0.28405 -1.88674 0
M  V30 13329 C 1206.37 -0.965068 -3.31331 0
M  V30 13330 C 1205.48 -2.17058 -3.7351 0
M  V30 13331 C 1204.62 -1.84355 -4.98183 0
M  V30 13332 C 1203.66 -3.01176 -5.32878 0
M  V30 13333 N 1202.8 -2.68506 -6.48729 0
M  V30 13334 H 1207.64 -2.17562 -2.03644 0
M  V30 13335 H 1205.17 -1.08194 -0.996613 0
M  V30 13336 H 1207.13 -0.793771 -4.09579 0
M  V30 13337 H 1205.76 -0.0530285 -3.22756 0
M  V30 13338 H 1204.81 -2.45185 -2.90841 0
M  V30 13339 H 1206.12 -3.04413 -3.95138 0
M  V30 13340 H 1205.28 -1.6383 -5.84162 0
M  V30 13341 H 1204.02 -0.942264 -4.78511 0
M  V30 13342 H 1203.02 -3.22323 -4.45408 0
M  V30 13343 H 1204.25 -3.9205 -5.54503 0
M  V30 13344 H 1202.19 -1.80929 -6.30556 0
M  V30 13345 H 1202.11 -3.49392 -6.70419 0
M  V30 13346 H 1203.38 -2.51432 -7.37836 0
M  V30 13347 N 1207.61 1.06304 -1.1635 0
M  V30 13348 C 1208.83 1.83338 -0.969639 0
M  V30 13349 C 1209.26 1.81945 0.477231 0
M  V30 13350 O 1208.62 1.22018 1.34094 0
M  V30 13351 C 1208.66 3.2785 -1.50155 0
M  V30 13352 O 1207.77 4.06281 -0.707805 0
M  V30 13353 H 1207.11 0.567293 -0.345072 0
M  V30 13354 H 1209.64 1.34033 -1.54584 0
M  V30 13355 H 1209.65 3.7867 -1.51898 0
M  V30 13356 H 1208.32 3.28179 -2.55483 0
M  V30 13357 H 1206.9 3.65055 -0.760872 0
M  V30 13358 N 1209.09 0.96196 1.24836 0
M  V30 13359 C 1210.36 0.537809 1.88061 0
M  V30 13360 C 1210.74 -0.985023 1.8671 0
M  V30 13361 O 1210.09 -1.85394 1.33572 0
M  V30 13362 C 1210.3 1.12279 3.30446 0
M  V30 13363 C 1211.65 1.20414 4.07168 0
M  V30 13364 O 1212.67 1.07488 3.39595 0
M  V30 13365 O 1211.53 1.4078 5.28056 0
M  V30 13366 H 1208.63 0.178491 0.807509 0
M  V30 13367 H 1211.17 1.05586 1.32852 0
M  V30 13368 H 1209.94 2.16578 3.25898 0
M  V30 13369 H 1209.57 0.58843 3.93222 0
M  V30 13370 N 1210.56 -1.39601 0.731392 0
M  V30 13371 C 1211.47 -2.34425 0.090527 0
M  V30 13372 C 1212.49 -1.58131 -0.725992 0
M  V30 13373 O 1213.67 -1.90441 -0.655294 0
M  V30 13374 C 1210.73 -3.37138 -0.808624 0
M  V30 13375 C 1209.79 -4.29295 0.0197365 0
M  V30 13376 C 1209.02 -5.27102 -0.836593 0
M  V30 13377 O 1209.25 -5.31302 -2.07543 0
M  V30 13378 O 1208.18 -6.01307 -0.267172 0
M  V30 13379 H 1212.01 -2.9088 0.873084 0
M  V30 13380 H 1209.59 -1.41066 0.492024 0
M  V30 13381 H 1211.47 -4.00087 -1.32319 0
M  V30 13382 H 1210.15 -2.83074 -1.57006 0
M  V30 13383 H 1209.06 -3.69581 0.579744 0
M  V30 13384 H 1210.39 -4.86555 0.743308 0
M  V30 13385 N 1212.04 -0.478751 -1.50152 0
M  V30 13386 C 1212.97 0.301182 -2.31549 0
M  V30 13387 C 1213.95 0.983276 -1.38801 0
M  V30 13388 O 1215.14 0.978973 -1.67719 0
M  V30 13389 C 1212.27 1.3791 -3.18745 0
M  V30 13390 C 1211.22 0.818175 -4.20107 0
M  V30 13391 C 1210.55 1.99496 -4.9609 0
M  V30 13392 C 1211.85 -0.17574 -5.22004 0
M  V30 13393 H 1213.54 -0.378188 -2.97002 0
M  V30 13394 H 1211.09 -0.183323 -1.42828 0
M  V30 13395 H 1213.04 1.93227 -3.74488 0
M  V30 13396 H 1211.77 2.08735 -2.51192 0
M  V30 13397 H 1210.42 0.286924 -3.65475 0
M  V30 13398 H 1210.07 2.69036 -4.25004 0
M  V30 13399 H 1209.77 1.62582 -5.6466 0
M  V30 13400 H 1211.3 2.55288 -5.54671 0
M  V30 13401 H 1212.71 0.288513 -5.72574 0
M  V30 13402 H 1211.11 -0.459549 -5.98338 0
M  V30 13403 H 1212.18 -1.09911 -4.72279 0
M  V30 13404 O 1213.56 1.57592 -0.35315 0
M  V30 13405 H 1214.25 1.92662 0.200218 0
M  V30 END ATOM
M  V30 BEGIN BOND
M  V30 END BOND
M  V30 END CTAB
M  END
$$$$
