drugbank_target|Q2LU76 Hypothetical cytosolic protein (DB02580)
 OpenBabel12092120513D

  0  0  0     0  0            999 V3000
M  V30 BEGIN CTAB
M  V30 COUNTS 2426 2452 0 0 0
M  V30 BEGIN ATOM
M  V30 1 H -0.908 1.98254 -0.117106 0
M  V30 2 N 0 1.576 0 0
M  V30 3 C 0.933 2.03868 1.02534 0
M  V30 4 C 1.911 0.928543 1.3348 0
M  V30 5 O 3.095 1.19667 1.45644 0
M  V30 6 C 0.222 2.43627 2.35294 0
M  V30 7 C -0.732 3.65373 2.2001 0
M  V30 8 S 0.101 5.13292 1.52614 0
M  V30 9 C 1.257 5.56322 2.86805 0
M  V30 10 H 1.49 2.90518 0.631377 0
M  V30 11 H -0.977 1.52953 0.210867 0
M  V30 12 H 0.981 2.67203 3.11629 0
M  V30 13 H -0.358 1.57376 2.7183 0
M  V30 14 H -1.165 3.90944 3.18086 0
M  V30 15 H -1.563 3.418 1.51819 0
M  V30 16 H 0.729 5.58782 3.83104 0
M  V30 17 H 1.672 6.56266 2.65933 0
M  V30 18 H 2.08 4.83886 2.90714 0
M  V30 19 N 1.4781 -0.272755 1.55222 0
M  V30 20 C 2.7551 -1.02562 1.66555 0
M  V30 21 C 3.1351 -2.04282 0.532189 0
M  V30 22 O 2.4831 -2.23662 -0.467717 0
M  V30 23 C 2.6931 -1.6822 3.05782 0
M  V30 24 C 4.0411 -2.19373 3.63539 0
M  V30 25 O 5.0651 -1.78206 3.08417 0
M  V30 26 O 3.9241 -2.94883 4.60115 0
M  V30 27 H 1.0181 -0.475755 0.676451 0
M  V30 28 H 3.5641 -0.268593 1.67561 0
M  V30 29 H 2.3361 -0.945112 3.79715 0
M  V30 30 H 1.9591 -2.50609 3.08676 0
M  V30 31 N 2.9562 -1.48159 -0.537278 0
M  V30 32 C 3.8662 -1.64807 -1.6696 0
M  V30 33 C 4.8822 -0.530651 -1.65711 0
M  V30 34 O 6.0582 -0.800784 -1.84796 0
M  V30 35 C 3.1232 -1.67708 -3.03438 0
M  V30 36 C 2.1842 -2.91025 -3.156 0
M  V30 37 C 1.4172 -2.93778 -4.45567 0
M  V30 38 O 1.6402 -2.05153 -5.3223 0
M  V30 39 O 0.5742 -3.85868 -4.61941 0
M  V30 40 H 4.4002 -2.6066 -1.55853 0
M  V30 41 H 1.9852 -1.31475 -0.709549 0
M  V30 42 H 3.8672 -1.7218 -3.84619 0
M  V30 43 H 2.5422 -0.750278 -3.14885 0
M  V30 44 H 1.4492 -2.92089 -2.33741 0
M  V30 45 H 2.7822 -3.83065 -3.09066 0
M  V30 46 N 4.4343 0.785586 -1.36625 0
M  V30 47 C 5.3813 1.89838 -1.31264 0
M  V30 48 C 6.3513 1.65115 -0.180633 0
M  V30 49 O 7.5363 1.87222 -0.36777 0
M  V30 50 C 4.6763 3.26706 -1.11163 0
M  V30 51 C 3.7893 3.63476 -2.33472 0
M  V30 52 C 2.9243 4.89481 -2.06353 0
M  V30 53 C 1.9633 5.18941 -3.24602 0
M  V30 54 N 1.1003 6.36131 -2.97123 0
M  V30 55 H 5.9403 1.93756 -2.26413 0
M  V30 56 H 3.4773 0.947454 -1.12524 0
M  V30 57 H 5.4353 4.05639 -0.975337 0
M  V30 58 H 4.0653 3.222 -0.196674 0
M  V30 59 H 3.1173 2.79636 -2.57891 0
M  V30 60 H 4.4293 3.81193 -3.21704 0
M  V30 61 H 3.5833 5.76288 -1.89675 0
M  V30 62 H 2.3223 4.73841 -1.15437 0
M  V30 63 H 1.3273 4.30615 -3.41834 0
M  V30 64 H 2.5523 5.36498 -4.16349 0
M  V30 65 H 0.4983 6.21875 -2.08823 0
M  V30 66 H 0.4153 6.54198 -3.78894 0
M  V30 67 H 1.6833 7.2591 -2.84033 0
M  V30 68 N 5.9124 1.20967 1.01018 0
M  V30 69 C 7.3234 1.02319 1.56165 0
M  V30 70 C 7.6744 -0.418546 1.91684 0
M  V30 71 O 6.7994 -1.30096 1.72928 0
M  V30 72 C 7.3944 1.85109 2.8376 0
M  V30 73 C 5.9534 1.70809 3.35412 0
M  V30 74 C 5.1004 1.82643 2.08655 0
M  V30 75 H 8.0514 1.35065 0.833255 0
M  V30 76 H 8.0724 1.35827 3.55431 0
M  V30 77 H 7.5844 2.90035 2.57878 0
M  V30 78 H 5.6854 0.685464 3.66241 0
M  V30 79 H 5.7984 2.52467 4.07182 0
M  V30 80 H 4.1624 1.25896 2.21409 0
M  V30 81 H 4.9454 2.89066 1.85191 0
M  V30 82 N 7.3905 -1.2043 1.01659 0
M  V30 83 C 8.3535 -2.21433 0.591616 0
M  V30 84 C 9.3535 -1.57203 -0.338226 0
M  V30 85 O 10.5435 -1.73737 -0.126918 0
M  V30 86 C 7.6755 -3.40628 -0.136058 0
M  V30 87 H 8.8685 -2.60545 1.48514 0
M  V30 88 H 6.4215 -1.33893 0.806379 0
M  V30 89 H 7.1565 -3.07019 -1.04449 0
M  V30 90 H 6.9415 -3.88475 0.531917 0
M  V30 91 H 8.4315 -4.15475 -0.420735 0
M  V30 92 N 8.8686 -0.792821 -1.36206 0
M  V30 93 C 10.1176 -0.363353 -1.984 0
M  V30 94 C 10.4306 1.07172 -1.63626 0
M  V30 95 O 11.6366 1.60362 -2.19081 0
M  V30 96 C 10.0926 -0.59872 -3.54885 0
M  V30 97 C 9.7006 -2.04543 -3.9858 0
M  V30 98 C 11.4446 -0.233926 -4.23855 0
M  V30 99 C 9.3516 -2.22727 -5.47856 0
M  V30 100 H 8.2816 -0.13212 -0.742334 0
M  V30 101 H 10.9326 -0.974935 -1.55458 0
M  V30 102 H 9.3146 0.0826222 -3.95914 0
M  V30 103 H 10.4886 -2.76345 -3.68741 0
M  V30 104 H 8.8036 -2.36879 -3.42458 0
M  V30 105 H 11.4006 -0.348027 -5.33566 0
M  V30 106 H 11.7436 0.818351 -4.08177 0
M  V30 107 H 12.2766 -0.868639 -3.882 0
M  V30 108 H 9.0156 -3.2635 -5.68486 0
M  V30 109 H 8.5356 -1.55434 -5.7931 0
M  V30 110 H 10.2146 -2.03607 -6.14128 0
M  V30 111 N 10.3467 1.47872 -0.545128 0
M  V30 112 C 11.5747 2.06889 -0.021084 0
M  V30 113 C 11.9897 1.39955 1.2672 0
M  V30 114 O 11.3467 0.492036 1.75742 0
M  V30 115 C 11.3977 3.60996 0.190817 0
M  V30 116 O 11.1187 4.25419 -1.04644 0
M  V30 117 C 12.6197 4.36849 0.753521 0
M  V30 118 H 9.8397 0.669785 -0.0403635 0
M  V30 119 H 12.3837 1.90049 -0.755095 0
M  V30 120 H 10.5387 3.77391 0.87492 0
M  V30 121 H 10.9527 5.17785 -0.836611 0
M  V30 122 H 12.4267 5.45399 0.851139 0
M  V30 123 H 12.9037 4.02306 1.762 0
M  V30 124 H 13.5097 4.25169 0.105503 0
M  V30 125 N 11.8248 0.280983 1.55075 0
M  V30 126 C 12.7718 -0.603937 2.22758 0
M  V30 127 C 13.7418 -1.1452 1.20309 0
M  V30 128 O 14.9268 -1.19343 1.48869 0
M  V30 129 C 12.0668 -1.77947 2.95684 0
M  V30 130 C 11.1798 -1.2715 4.12864 0
M  V30 131 C 10.3148 -2.4093 4.7342 0
M  V30 132 C 9.3538 -1.87165 5.82783 0
M  V30 133 N 8.4908 -2.94441 6.37377 0
M  V30 134 H 13.3308 -0.020124 2.97993 0
M  V30 135 H 10.8678 0.00183425 1.471 0
M  V30 136 H 12.8258 -2.47055 3.36184 0
M  V30 137 H 11.4558 -2.33522 2.22861 0
M  V30 138 H 10.5078 -0.473331 3.77444 0
M  V30 139 H 11.8198 -0.837751 4.91715 0
M  V30 140 H 10.9738 -3.18021 5.1667 0
M  V30 141 H 9.7128 -2.87623 3.93859 0
M  V30 142 H 8.7178 -1.08556 5.38976 0
M  V30 143 H 9.9428 -1.41401 6.64216 0
M  V30 144 H 7.8888 -3.40505 5.60707 0
M  V30 145 H 7.8058 -2.55501 7.11516 0
M  V30 146 H 9.0738 -3.71489 6.85285 0
M  V30 147 N 13.3029 -1.57598 0.00835791 0
M  V30 148 C 14.5519 -1.90107 -0.673968 0
M  V30 149 C 14.8649 -0.884275 -1.7447 0
M  V30 150 O 16.0709 -1.09987 -2.48224 0
M  V30 151 C 14.5269 -3.37497 -1.24995 0
M  V30 152 C 14.1349 -4.47491 -0.2136 0
M  V30 153 C 15.8789 -3.79104 -1.90999 0
M  V30 154 C 13.7859 -5.85963 -0.80005 0
M  V30 155 H 12.7159 -0.709393 -0.255495 0
M  V30 156 H 15.3669 -1.83365 0.0702693 0
M  V30 157 H 13.7489 -3.39102 -2.04513 0
M  V30 158 H 14.9229 -4.57414 0.557596 0
M  V30 159 H 13.2379 -4.14956 0.346474 0
M  V30 160 H 15.8349 -4.79901 -2.35795 0
M  V30 161 H 16.1779 -3.1306 -2.74407 0
M  V30 162 H 16.7109 -3.79833 -1.18203 0
M  V30 163 H 13.4499 -6.555 -0.00456708 0
M  V30 164 H 12.9699 -5.79687 -1.54021 0
M  V30 165 H 14.6489 -6.33884 -1.29615 0
M  V30 166 N 14.781 0.264519 -1.55364 0
M  V30 167 C 16.03 0.992812 -1.75574 0
M  V30 168 C 16.343 1.87142 -0.568979 0
M  V30 169 O 17.549 2.63513 -0.653682 0
M  V30 170 C 16.005 1.81519 -3.10771 0
M  V30 171 C 15.613 0.984839 -4.37041 0
M  V30 172 C 17.357 2.53727 -3.40327 0
M  V30 173 C 15.264 1.80209 -5.63275 0
M  V30 174 H 14.194 0.374412 -0.65447 0
M  V30 175 H 16.845 0.248138 -1.81815 0
M  V30 176 H 15.227 2.60115 -2.98591 0
M  V30 177 H 16.401 0.242455 -4.60162 0
M  V30 178 H 14.716 0.37691 -4.14691 0
M  V30 179 H 17.313 3.15292 -4.3185 0
M  V30 180 H 17.656 3.24447 -2.60845 0
M  V30 181 H 18.189 1.82156 -3.53644 0
M  V30 182 H 14.928 1.13896 -6.45529 0
M  V30 183 H 14.448 2.52022 -5.44284 0
M  V30 184 H 16.127 2.37364 -6.01887 0
M  V30 185 N 16.2591 1.48442 0.529413 0
M  V30 186 C 17.4841 1.60406 1.31471 0
M  V30 187 C 17.9091 0.264738 1.86228 0
M  V30 188 O 17.2671 -0.763668 1.64432 0
M  V30 189 C 17.3151 2.65419 2.44101 0
M  V30 190 O 16.4191 2.22618 3.47153 0
M  V30 191 H 15.7601 0.537863 0.389357 0
M  V30 192 H 18.2901 1.94432 0.636965 0
M  V30 193 H 18.3001 2.86709 2.90279 0
M  V30 194 H 16.9751 3.62652 2.03608 0
M  V30 195 H 15.5521 2.11543 3.0709 0
M  V30 196 N 17.7372 -0.778329 1.37039 0
M  V30 197 C 18.9852 -1.53361 1.31623 0
M  V30 198 C 19.3062 -1.94739 -0.100831 0
M  V30 199 O 18.5762 -1.65797 -1.04347 0
M  V30 200 H 17.1562 -0.568794 0.484234 0
M  V30 201 H 19.8182 -0.926742 1.71457 0
M  V30 202 H 18.9142 -2.43606 1.95096 0
M  V30 203 N 19.2153 -1.21501 -1.00376 0
M  V30 204 C 20.4633 -1.03095 -1.73827 0
M  V30 205 C 20.7843 0.436341 -1.90055 0
M  V30 206 O 20.0543 1.31466 -1.45236 0
M  V30 207 H 18.6343 -0.378487 -0.644016 0
M  V30 208 H 21.2963 -1.52831 -1.20949 0
M  V30 209 H 20.3923 -1.49991 -2.73695 0
M  V30 210 N 20.6934 1.19889 -1.02296 0
M  V30 211 C 21.6254 2.22334 -0.556787 0
M  V30 212 C 22.6384 1.58674 0.364199 0
M  V30 213 O 23.8274 1.77768 0.161533 0
M  V30 214 C 20.9274 3.38257 0.208694 0
M  V30 215 C 20.1004 4.31504 -0.71577 0
M  V30 216 C 19.1594 5.262 0.00325597 0
M  V30 217 O 18.1854 5.65798 -0.621357 0
M  V30 218 N 19.3874 5.66303 1.27599 0
M  V30 219 H 22.1524 2.62957 -1.43784 0
M  V30 220 H 19.7134 1.34495 -0.901261 0
M  V30 221 H 21.7054 3.98616 0.699111 0
M  V30 222 H 20.2754 2.96472 0.991102 0
M  V30 223 H 19.4954 3.69016 -1.38638 0
M  V30 224 H 20.7834 4.9072 -1.34428 0
M  V30 225 H 20.1814 5.36155 1.80429 0
M  V30 226 H 18.7384 6.28942 1.71102 0
M  V30 227 N 22.1715 0.800033 1.35784 0
M  V30 228 C 23.3995 0.389606 2.03199 0
M  V30 229 C 23.8145 -0.997375 1.60306 0
M  V30 230 O 23.1715 -1.64154 0.797481 0
M  V30 231 C 23.2225 0.455855 3.58614 0
M  V30 232 O 22.9435 1.78815 3.99946 0
M  V30 233 C 24.4445 0.0374032 4.43284 0
M  V30 234 H 21.6645 0.159132 0.651857 0
M  V30 235 H 24.2085 1.08183 1.73541 0
M  V30 236 H 22.3635 -0.188057 3.86943 0
M  V30 237 H 22.7775 1.74636 4.94573 0
M  V30 238 H 24.2515 0.134882 5.51835 0
M  V30 239 H 24.7285 -1.01651 4.27275 0
M  V30 240 H 25.3345 0.654215 4.20238 0
M  V30 241 N 23.6496 -1.47581 0.552962 0
M  V30 242 C 24.8976 -2.02082 0.0272703 0
M  V30 243 C 25.2186 -1.4301 -1.32563 0
M  V30 244 O 24.4886 -0.603745 -1.86365 0
M  V30 245 H 23.0686 -0.746966 0.00709182 0
M  V30 246 H 25.7306 -1.81033 0.722008 0
M  V30 247 H 24.8266 -3.12034 -0.0639951 0
M  V30 248 N 25.1277 -0.289203 -1.54924 0
M  V30 249 C 26.0907 0.579144 -2.21762 0
M  V30 250 C 27.0907 1.07047 -1.1999 0
M  V30 251 O 28.2807 0.968384 -1.44803 0
M  V30 252 C 25.4127 1.80055 -2.8947 0
M  V30 253 H 26.6057 -0.00464908 -2.999 0
M  V30 254 H 24.1587 -0.0399306 -1.56249 0
M  V30 255 H 24.8937 2.42449 -2.15381 0
M  V30 256 H 24.6787 1.45602 -3.64064 0
M  V30 257 H 26.1687 2.41773 -3.40493 0
M  V30 258 N 26.6058 1.57591 -0.0167156 0
M  V30 259 C 27.8828 1.82547 0.702564 0
M  V30 260 C 28.2628 0.898018 1.91047 0
M  V30 261 O 27.6108 -0.0493456 2.28447 0
M  V30 262 C 27.8208 3.31459 1.09251 0
M  V30 263 C 29.1688 3.97622 1.48937 0
M  V30 264 O 30.1928 3.35881 1.18584 0
M  V30 265 O 29.0518 5.06415 2.05442 0
M  V30 266 H 26.1458 0.752268 0.343544 0
M  V30 267 H 28.6918 1.69644 -0.0434495 0
M  V30 268 H 27.4638 3.9061 0.23227 0
M  V30 269 H 27.0868 3.49422 1.89709 0
M  V30 270 N 28.0839 -0.256276 1.55502 0
M  V30 271 C 29.4999 -0.604325 1.47716 0
M  V30 272 C 29.6999 -1.88763 0.705039 0
M  V30 273 O 28.7559 -2.51445 0.230613 0
M  V30 274 C 30.0689 -0.715756 2.92057 0
M  V30 275 C 31.6169 -0.808706 3.02372 0
M  V30 276 C 32.0919 -0.951777 4.48001 0
M  V30 277 N 33.5829 -1.01688 4.519 0
M  V30 278 C 34.3179 -1.14668 5.61817 0
M  V30 279 N 33.8139 -1.24261 6.81565 0
M  V30 280 N 35.6069 -1.1791 5.49594 0
M  V30 281 H 27.7579 0.586291 2.04148 0
M  V30 282 H 30.0209 0.201015 0.926443 0
M  V30 283 H 29.7269 0.157027 3.51349 0
M  V30 284 H 29.6009 -1.59071 3.42018 0
M  V30 285 H 31.9879 -1.67195 2.43166 0
M  V30 286 H 32.0689 0.0912063 2.55637 0
M  V30 287 H 31.7129 -0.0931291 5.07815 0
M  V30 288 H 31.6429 -1.86659 4.92408 0
M  V30 289 H 34.1339 -0.954468 3.65648 0
M  V30 290 H 34.4469 -1.34046 7.61086 0
M  V30 291 H 32.7919 -1.21236 6.84344 0
M  V30 292 H 35.9829 -1.10057 4.54978 0
M  V30 293 H 36.1559 -1.27681 6.35296 0
M  V30 294 N 29.562 -1.4872 -0.521534 0
M  V30 295 C 30.525 -1.63379 -1.60748 0
M  V30 296 C 31.525 -0.50661 -1.52611 0
M  V30 297 O 32.715 -0.772601 -1.5613 0
M  V30 298 C 29.847 -1.61192 -3.00383 0
M  V30 299 H 31.04 -2.60217 -1.49087 0
M  V30 300 H 28.593 -1.37444 -0.744235 0
M  V30 301 H 29.328 -0.65863 -3.17541 0
M  V30 302 H 29.113 -2.43032 -3.07698 0
M  V30 303 H 30.603 -1.7466 -3.7932 0
M  V30 304 N 31.0401 0.771051 -1.3745 0
M  V30 305 C 32.0031 1.86598 -1.33093 0
M  V30 306 C 33.0031 1.59076 -0.234845 0
M  V30 307 O 34.1931 1.67145 -0.490732 0
M  V30 308 C 31.3251 3.23747 -1.06773 0
M  V30 309 H 32.5181 1.91873 -2.30488 0
M  V30 310 H 30.0711 0.970876 -1.2249 0
M  V30 311 H 30.8061 3.24148 -0.099129 0
M  V30 312 H 30.5911 3.45115 -1.86112 0
M  V30 313 H 32.0811 4.03824 -1.06377 0
M  V30 314 N 32.5182 1.22032 0.997298 0
M  V30 315 C 33.4482 1.01065 2.10495 0
M  V30 316 C 34.4292 -0.0669542 1.69968 0
M  V30 317 O 35.6142 0.0943987 1.9397 0
M  V30 318 C 32.7442 0.582874 3.42374 0
M  V30 319 C 31.6982 1.60592 3.96729 0
M  V30 320 C 31.0242 1.03412 5.24605 0
M  V30 321 C 32.3242 2.99478 4.27914 0
M  V30 322 H 34.0182 1.93708 2.28292 0
M  V30 323 H 31.5642 0.932761 1.09707 0
M  V30 324 H 33.5172 0.423332 4.19268 0
M  V30 325 H 32.2412 -0.379213 3.24391 0
M  V30 326 H 30.9002 1.75316 3.21963 0
M  V30 327 H 30.5482 0.063518 5.0296 0
M  V30 328 H 30.2482 1.71754 5.61938 0
M  V30 329 H 31.7722 0.886066 6.04137 0
M  V30 330 H 33.1862 2.88153 4.95622 0
M  V30 331 H 31.5832 3.64903 4.76409 0
M  V30 332 H 32.6532 3.49742 3.3587 0
M  V30 333 N 33.9963 -1.19345 1.0293 0
M  V30 334 C 35.2733 -1.84811 0.640642 0
M  V30 335 C 35.6533 -1.91855 -0.88062 0
M  V30 336 O 35.0013 -1.43587 -1.7775 0
M  V30 337 C 35.2113 -3.23755 1.30321 0
M  V30 338 C 36.5593 -3.99912 1.42673 0
M  V30 339 O 37.5833 -3.33155 1.26041 0
M  V30 340 O 36.4423 -5.19494 1.6967 0
M  V30 341 H 33.5363 -0.796443 0.222726 0
M  V30 342 H 36.0823 -1.26831 1.12748 0
M  V30 343 H 34.8543 -3.13466 2.34211 0
M  V30 344 H 34.4773 -3.89381 0.804261 0
M  V30 345 N 35.4744 -0.807222 -1.35358 0
M  V30 346 C 36.7214 -0.387888 -1.9875 0
M  V30 347 C 37.0494 1.04509 -1.64037 0
M  V30 348 O 36.3044 1.73986 -0.895946 0
M  V30 349 C 36.6034 -0.519036 -3.53611 0
M  V30 350 C 36.2694 -1.91542 -4.08194 0
M  V30 351 C 34.9314 -2.29745 -4.22813 0
M  V30 352 C 37.2834 -2.82896 -4.37744 0
M  V30 353 C 34.6114 -3.58668 -4.643 0
M  V30 354 C 36.9634 -4.11265 -4.8067 0
M  V30 355 C 35.6274 -4.49466 -4.93494 0
M  V30 356 H 34.8974 -0.141938 -0.727279 0
M  V30 357 H 37.5444 -1.02814 -1.6156 0
M  V30 358 H 35.8494 0.204658 -3.91265 0
M  V30 359 H 37.5464 -0.175345 -4.00616 0
M  V30 360 H 34.1364 -1.60862 -3.97268 0
M  V30 361 H 38.3204 -2.54629 -4.26002 0
M  V30 362 H 33.5764 -3.88113 -4.72418 0
M  V30 363 H 37.7504 -4.82153 -5.02496 0
M  V30 364 H 35.3774 -5.49418 -5.25399 0
M  V30 365 N 36.9525 1.47285 -0.560781 0
M  V30 366 C 37.9155 2.28535 0.174488 0
M  V30 367 C 38.9155 1.37153 0.839388 0
M  V30 368 O 40.1055 1.59748 0.694702 0
M  V30 369 C 37.2375 3.16934 1.25561 0
M  V30 370 H 38.4305 2.95012 -0.539262 0
M  V30 371 H 35.9835 1.53034 -0.317865 0
M  V30 372 H 36.7185 2.55157 2.00164 0
M  V30 373 H 36.5035 3.8419 0.783604 0
M  V30 374 H 37.9935 3.78143 1.77193 0
M  V30 375 N 38.4306 0.297415 1.54768 0
M  V30 376 C 39.6796 -0.313669 1.99246 0
M  V30 377 C 39.9926 -1.55281 1.18942 0
M  V30 378 O 41.1986 -2.23825 1.5367 0
M  V30 379 C 39.6546 -0.609407 3.54703 0
M  V30 380 C 39.2626 0.611192 4.43811 0
M  V30 381 C 41.0066 -1.18188 4.07715 0
M  V30 382 C 38.9136 0.288805 5.90694 0
M  V30 383 H 37.8436 -0.120979 0.744231 0
M  V30 384 H 40.4946 0.40556 1.78962 0
M  V30 385 H 38.8766 -1.38813 3.70873 0
M  V30 386 H 40.0506 1.3875 4.39414 0
M  V30 387 H 38.3656 1.10205 4.01552 0
M  V30 388 H 40.9626 -1.43727 5.15021 0
M  V30 389 H 41.3056 -2.12299 3.58099 0
M  V30 390 H 41.8386 -0.464944 3.95074 0
M  V30 391 H 38.5776 1.19838 6.44453 0
M  V30 392 H 38.0976 -0.450305 5.98107 0
M  V30 393 H 39.7766 -0.110933 6.46905 0
M  V30 394 N 39.9087 -1.5758 0.0250728 0
M  V30 395 C 40.8557 -2.09973 -0.958129 0
M  V30 396 C 41.8257 -1.00085 -1.3256 0
M  V30 397 O 43.0107 -1.27481 -1.41962 0
M  V30 398 C 40.1507 -2.62812 -2.2366 0
M  V30 399 C 39.2637 -3.86693 -1.92594 0
M  V30 400 C 38.3987 -4.27941 -3.14707 0
M  V30 401 C 37.4377 -5.44591 -2.79442 0
M  V30 402 N 36.5747 -5.81014 -3.94167 0
M  V30 403 H 41.4147 -2.937 -0.504428 0
M  V30 404 H 38.9517 -1.45172 -0.237392 0
M  V30 405 H 40.9097 -2.91536 -2.98434 0
M  V30 406 H 39.5397 -1.81922 -2.66654 0
M  V30 407 H 38.5917 -3.64723 -1.0808 0
M  V30 408 H 39.9037 -4.71547 -1.62619 0
M  V30 409 H 39.0577 -4.58079 -3.97804 0
M  V30 410 H 37.7967 -3.41845 -3.4784 0
M  V30 411 H 36.8017 -5.1415 -1.94755 0
M  V30 412 H 38.0267 -6.32382 -2.47528 0
M  V30 413 H 35.9727 -4.97874 -4.2715 0
M  V30 414 H 35.8897 -6.60498 -3.67801 0
M  V30 415 H 37.1577 -6.15756 -4.7798 0
M  V30 416 N 41.3868 0.248026 -1.55636 0
M  V30 417 C 42.3368 1.30994 -1.86614 0
M  V30 418 C 43.3208 1.43543 -0.726918 0
M  V30 419 O 44.5128 1.46804 -0.988818 0
M  V30 420 C 41.6418 2.6656 -2.16335 0
M  V30 421 C 40.7278 2.58019 -3.36581 0
M  V30 422 N 41.1188 2.1911 -4.55878 0
M  V30 423 C 39.4168 2.89035 -3.39669 0
M  V30 424 C 40.1178 2.21174 -5.38012 0
M  V30 425 N 39.0938 2.60632 -4.77045 0
M  V30 426 H 42.8958 0.999583 -2.76379 0
M  V30 427 H 40.4098 0.456652 -1.55848 0
M  V30 428 H 42.4068 3.43194 -2.36692 0
M  V30 429 H 41.0668 2.98463 -1.27867 0
M  V30 430 H 42.0778 1.90672 -4.81523 0
M  V30 431 H 38.7548 3.25485 -2.61469 0
M  V30 432 H 40.1448 1.9344 -6.43452 0
M  V30 433 N 42.8649 1.48995 0.513639 0
M  V30 434 C 43.8149 1.61127 1.61314 0
M  V30 435 C 44.7989 0.467521 1.53958 0
M  V30 436 O 45.9909 0.719826 1.61702 0
M  V30 437 C 43.1199 1.66937 2.99978 0
M  V30 438 C 42.2059 2.86847 3.12377 0
M  V30 439 N 42.5969 4.11078 2.94701 0
M  V30 440 C 40.8949 2.84521 3.43459 0
M  V30 441 C 41.5959 4.91615 3.10949 0
M  V30 442 N 40.5719 4.24739 3.3926 0
M  V30 443 H 44.3739 2.54909 1.46282 0
M  V30 444 H 41.8879 1.45593 0.719483 0
M  V30 445 H 43.8849 1.73725 3.78979 0
M  V30 446 H 42.5449 0.742831 3.16089 0
M  V30 447 H 43.5559 4.41258 2.71131 0
M  V30 448 H 40.2329 2.01192 3.65825 0
M  V30 449 H 41.6229 6.00264 3.01882 0
M  V30 450 N 44.343 -0.763751 1.37857 0
M  V30 451 C 45.592 -1.51789 1.32827 0
M  V30 452 C 45.905 -1.95426 -0.0823719 0
M  V30 453 O 47.111 -2.70298 -0.255172 0
M  V30 454 C 45.567 -2.74133 2.33193 0
M  V30 455 C 45.175 -2.37562 3.79827 0
M  V30 456 C 46.919 -3.52054 2.37188 0
M  V30 457 C 44.826 -3.56456 4.71904 0
M  V30 458 H 43.756 -0.569896 0.493695 0
M  V30 459 H 46.407 -0.835822 1.63359 0
M  V30 460 H 44.789 -3.4427 1.9569 0
M  V30 461 H 45.963 -1.75157 4.26212 0
M  V30 462 H 44.278 -1.72798 3.78853 0
M  V30 463 H 46.875 -4.40437 3.03182 0
M  V30 464 H 47.218 -3.92486 1.38782 0
M  V30 465 H 47.751 -2.88921 2.7344 0
M  V30 466 H 44.49 -3.21099 5.71468 0
M  V30 467 H 44.01 -4.17938 4.30218 0
M  V30 468 H 45.689 -4.23168 4.89426 0
M  V30 469 N 45.8211 -1.22559 -0.990812 0
M  V30 470 C 47.2321 -1.04791 -1.54518 0
M  V30 471 C 47.5831 0.387998 -1.92325 0
M  V30 472 O 46.7081 1.27328 -1.74976 0
M  V30 473 C 47.3031 -1.896 -2.80779 0
M  V30 474 C 45.8621 -1.76124 -3.32652 0
M  V30 475 C 45.0091 -1.8594 -2.05722 0
M  V30 476 H 47.9601 -1.36374 -0.811662 0
M  V30 477 H 47.9811 -1.41464 -3.53225 0
M  V30 478 H 47.4931 -2.94101 -2.53231 0
M  V30 479 H 45.5941 -0.743643 -3.65104 0
M  V30 480 H 45.7071 -2.58913 -4.03114 0
M  V30 481 H 44.0711 -1.29403 -2.19379 0
M  V30 482 H 44.8541 -2.91976 -1.80568 0
M  V30 483 N 47.2992 1.18797 -1.03562 0
M  V30 484 C 48.5292 1.92319 -0.754773 0
M  V30 485 C 48.9372 1.7612 0.691248 0
M  V30 486 O 48.2802 1.08491 1.48241 0
M  V30 487 C 48.3422 3.44284 -1.03484 0
M  V30 488 C 48.0062 3.84258 -2.47376 0
M  V30 489 C 49.0032 3.88459 -3.45537 0
M  V30 490 C 46.6882 4.15701 -2.81954 0
M  V30 491 C 48.6822 4.23545 -4.76328 0
M  V30 492 C 46.3692 4.50458 -4.12954 0
M  V30 493 C 47.3672 4.54356 -5.09951 0
M  V30 494 O 47.0552 4.88305 -6.38603 0
M  V30 495 H 46.7872 0.617527 -0.275021 0
M  V30 496 H 49.3412 1.51683 -1.38497 0
M  V30 497 H 47.5712 3.85135 -0.347513 0
M  V30 498 H 49.2602 3.99049 -0.7426 0
M  V30 499 H 50.0262 3.6431 -3.20162 0
M  V30 500 H 45.9052 4.11847 -2.0713 0
M  V30 501 H 49.4492 4.26502 -5.52035 0
M  V30 502 H 45.3462 4.74067 -4.38099 0
M  V30 503 H 46.1142 5.06227 -6.43177 0
M  V30 504 N 48.7773 0.814389 1.34928 0
M  V30 505 C 50.0253 0.397636 1.9815 0
M  V30 506 C 50.3463 -1.04069 1.64908 0
M  V30 507 O 49.6163 -1.72121 0.93548 0
M  V30 508 H 48.1963 0.144043 0.732981 0
M  V30 509 H 50.8583 1.04195 1.6471 0
M  V30 510 H 49.9543 0.509688 3.0791 0
M  V30 511 N 50.2554 -1.46986 0.568584 0
M  V30 512 C 51.5034 -2.02041 0.0487022 0
M  V30 513 C 51.8244 -1.44408 -1.31039 0
M  V30 514 O 51.0944 -0.623477 -1.85714 0
M  V30 515 H 49.6744 -0.746849 0.015014 0
M  V30 516 H 52.3364 -1.80257 0.741168 0
M  V30 517 H 51.4324 -3.12085 -0.0308961 0
M  V30 518 N 51.7335 -0.305618 -1.54608 0
M  V30 519 C 52.9795 0.295595 -2.01241 0
M  V30 520 C 53.3345 1.51171 -1.19018 0
M  V30 521 O 52.6275 1.89832 -0.259684 0
M  V30 522 C 52.8215 0.698983 -3.50498 0
M  V30 523 C 52.6505 -0.476491 -4.47168 0
M  V30 524 C 51.4205 -0.969963 -4.95903 0
M  V30 525 C 53.6185 -1.32294 -4.96994 0
M  V30 526 N 51.6005 -2.11172 -5.76437 0
M  V30 527 C 52.9715 -2.31212 -5.75275 0
M  V30 528 C 55.0265 -1.35278 -4.7917 0
M  V30 529 C 53.7295 -3.32896 -6.37631 0
M  V30 530 C 55.7555 -2.35823 -5.42348 0
M  V30 531 C 55.1175 -3.33469 -6.20466 0
M  V30 532 H 51.2165 0.0724992 -0.778632 0
M  V30 533 H 53.8005 -0.436583 -1.89742 0
M  V30 534 H 51.9715 1.40032 -3.62278 0
M  V30 535 H 53.7035 1.28013 -3.8392 0
M  V30 536 H 50.4585 -0.544178 -4.70463 0
M  V30 537 H 50.8825 -2.68714 -6.21387 0
M  V30 538 H 55.5245 -0.61157 -4.18354 0
M  V30 539 H 53.2425 -4.07933 -6.97579 0
M  V30 540 H 56.8285 -2.38911 -5.30484 0
M  V30 541 H 55.7085 -4.09996 -6.68485 0
M  V30 542 N 53.2116 1.57565 -0.0334293 0
M  V30 543 C 54.4576 1.92262 0.645226 0
M  V30 544 C 54.7906 0.910543 1.71531 0
M  V30 545 O 54.0656 -0.066099 1.94388 0
M  V30 546 C 54.3486 3.37422 1.2577 0
M  V30 547 C 54.2016 4.49369 0.196891 0
M  V30 548 C 55.5206 3.82628 2.17449 0
M  V30 549 H 52.6396 0.699171 0.233085 0
M  V30 550 H 55.2816 1.89779 -0.0915694 0
M  V30 551 H 53.4316 3.39669 1.88566 0
M  V30 552 H 55.1036 4.59254 -0.433962 0
M  V30 553 H 53.3466 4.31168 -0.477137 0
M  V30 554 H 54.0176 5.47978 0.665124 0
M  V30 555 H 56.4936 3.82145 1.64634 0
M  V30 556 H 55.3696 4.84883 2.57254 0
M  V30 557 H 55.6306 3.18376 3.0674 0
M  V30 558 N 54.6897 -0.239769 1.55765 0
M  V30 559 C 56.1007 -0.808263 1.68297 0
M  V30 560 C 56.4517 -1.85736 0.632181 0
M  V30 561 O 55.5767 -2.15277 -0.220204 0
M  V30 562 C 56.1717 -1.47284 3.05111 0
M  V30 563 C 54.7307 -1.98895 3.19559 0
M  V30 564 C 53.8777 -0.842575 2.64189 0
M  V30 565 H 56.8287 -0.0154422 1.58692 0
M  V30 566 H 56.8497 -2.34111 2.99954 0
M  V30 567 H 56.3617 -0.709053 3.81568 0
M  V30 568 H 54.4627 -2.78132 2.47938 0
M  V30 569 H 54.5757 -2.18143 4.26556 0
M  V30 570 H 52.9397 -1.24501 2.22197 0
M  V30 571 H 53.7227 -0.0917552 3.43177 0
M  V30 572 N 56.1678 -1.49265 -0.50573 0
M  V30 573 C 57.1148 -1.65585 -1.6078 0
M  V30 574 C 58.0848 -0.497396 -1.58478 0
M  V30 575 O 59.2698 -0.72385 -1.76536 0
M  V30 576 C 56.4098 -1.72408 -2.98948 0
M  V30 577 C 55.5228 -2.99525 -3.11301 0
M  V30 578 C 54.6578 -2.97356 -4.40174 0
M  V30 579 C 53.6968 -4.19074 -4.46143 0
M  V30 580 N 52.8338 -4.14841 -5.66437 0
M  V30 581 H 57.6738 -2.59688 -1.46172 0
M  V30 582 H 55.2108 -1.28761 -0.711261 0
M  V30 583 H 57.1688 -1.74344 -3.79025 0
M  V30 584 H 55.7988 -0.817753 -3.1227 0
M  V30 585 H 54.8508 -3.07222 -2.24318 0
M  V30 586 H 56.1628 -3.89518 -3.11572 0
M  V30 587 H 55.3168 -2.97829 -5.28567 0
M  V30 588 H 54.0558 -2.05133 -4.42461 0
M  V30 589 H 53.0608 -4.1885 -3.56153 0
M  V30 590 H 54.2858 -5.12483 -4.45575 0
M  V30 591 H 52.2318 -3.25453 -5.69575 0
M  V30 592 H 52.1488 -4.98564 -5.68304 0
M  V30 593 H 53.4168 -4.1941 -6.57051 0
M  V30 594 N 57.6459 0.756429 -1.3826 0
M  V30 595 C 58.8939 1.51248 -1.34047 0
M  V30 596 C 59.2149 1.94875 0.0698372 0
M  V30 597 O 58.4849 1.67436 1.01696 0
M  V30 598 H 57.0649 0.561018 -0.493222 0
M  V30 599 H 59.7269 0.899347 -1.7291 0
M  V30 600 H 58.8229 2.40472 -1.98947 0
M  V30 601 N 59.124 1.23083 0.984299 0
M  V30 602 C 60.54 0.992637 1.24975 0
M  V30 603 C 60.74 -0.308618 1.99123 0
M  V30 604 O 59.796 -1.02905 2.30579 0
M  V30 605 C 61.109 2.19698 2.05312 0
M  V30 606 C 62.657 2.24147 2.18465 0
M  V30 607 C 63.132 3.44157 3.02192 0
M  V30 608 N 64.623 3.44372 3.09777 0
M  V30 609 C 65.358 4.33886 3.74874 0
M  V30 610 N 64.854 5.3363 4.41827 0
M  V30 611 N 66.647 4.21639 3.71721 0
M  V30 612 H 58.798 2.06731 0.487453 0
M  V30 613 H 61.061 0.906339 0.277944 0
M  V30 614 H 60.767 3.1411 1.58201 0
M  V30 615 H 60.641 2.20465 3.06064 0
M  V30 616 H 63.028 1.30277 2.64786 0
M  V30 617 H 63.109 2.27415 1.17115 0
M  V30 618 H 62.753 4.38332 2.56568 0
M  V30 619 H 62.683 3.3813 4.03702 0
M  V30 620 H 65.174 2.72201 2.62135 0
M  V30 621 H 65.487 5.98196 4.89266 0
M  V30 622 H 63.832 5.37534 4.40548 0
M  V30 623 H 67.023 3.42962 3.18582 0
M  V30 624 H 67.196 4.91604 4.22173 0
M  V30 625 N 60.6021 -1.18246 1.0419 0
M  V30 626 C 61.5321 -2.24127 0.654914 0
M  V30 627 C 62.5131 -1.66617 -0.342451 0
M  V30 628 O 63.6981 -1.92924 -0.222277 0
M  V30 629 C 60.8281 -3.47295 0.0183757 0
M  V30 630 C 59.7821 -4.17563 0.939414 0
M  V30 631 C 59.1081 -5.34438 0.167286 0
M  V30 632 C 60.4081 -4.70917 2.25908 0
M  V30 633 H 62.1021 -2.56753 1.54007 0
M  V30 634 H 59.6481 -1.23414 0.74195 0
M  V30 635 H 61.6011 -4.20572 -0.264082 0
M  V30 636 H 60.3251 -3.13907 -0.901664 0
M  V30 637 H 58.9841 -3.46186 1.20628 0
M  V30 638 H 58.6321 -4.97298 -0.7552 0
M  V30 639 H 58.3321 -5.82388 0.780901 0
M  V30 640 H 59.8561 -6.10504 -0.108125 0
M  V30 641 H 61.2701 -5.35882 2.03724 0
M  V30 642 H 59.6671 -5.29406 2.82577 0
M  V30 643 H 60.7371 -3.88272 2.9047 0
M  V30 644 N 62.0802 -0.821533 -1.34494 0
M  V30 645 C 63.0432 -0.247847 -2.27856 0
M  V30 646 C 64.0432 0.573453 -1.50227 0
M  V30 647 O 65.2332 0.389759 -1.69784 0
M  V30 648 C 62.3652 0.652698 -3.34593 0
M  V30 649 H 63.5582 -1.07146 -2.80107 0
M  V30 650 H 61.1112 -0.593291 -1.44602 0
M  V30 651 H 61.8462 1.49943 -2.87555 0
M  V30 652 H 61.6312 0.065292 -3.92046 0
M  V30 653 H 63.1212 1.04793 -4.04238 0
M  V30 654 N 63.5583 1.46682 -0.576371 0
M  V30 655 C 64.4683 2.34032 0.163141 0
M  V30 656 C 65.4843 1.49367 0.892501 0
M  V30 657 O 66.6603 1.82252 0.857106 0
M  V30 658 C 63.7253 3.26435 1.16795 0
M  V30 659 C 62.7863 4.26998 0.443944 0
M  V30 660 C 62.0193 5.14986 1.40088 0
M  V30 661 O 62.2423 5.05785 2.637 0
M  V30 662 O 61.1763 5.94906 0.914917 0
M  V30 663 H 65.0023 2.98607 -0.55388 0
M  V30 664 H 62.5873 1.45554 -0.336821 0
M  V30 665 H 64.4693 3.83459 1.74748 0
M  V30 666 H 63.1443 2.64465 1.86655 0
M  V30 667 H 62.0513 3.7368 -0.177271 0
M  V30 668 H 63.3843 4.91736 -0.213566 0
M  V30 669 N 65.0364 0.313813 1.54444 0
M  V30 670 C 66.2844 -0.291099 1.99993 0
M  V30 671 C 66.6054 -1.53418 1.20366 0
M  V30 672 O 65.8754 -1.93544 0.302927 0
M  V30 673 H 64.4554 -0.110552 0.738774 0
M  V30 674 H 67.1174 0.428106 1.9014 0
M  V30 675 H 66.2134 -0.554268 3.07139 0
M  V30 676 N 66.5145 -1.57545 0.0417849 0
M  V30 677 C 67.7625 -1.91937 -0.632829 0
M  V30 678 C 68.0835 -0.919978 -1.71934 0
M  V30 679 O 67.3535 0.0366064 -1.95866 0
M  V30 680 H 65.9335 -0.708493 -0.236742 0
M  V30 681 H 68.5955 -1.9468 0.0925745 0
M  V30 682 H 67.6915 -2.92912 -1.07746 0
M  V30 683 N 67.9926 0.231505 -1.5589 0
M  V30 684 C 69.4086 0.580748 -1.48659 0
M  V30 685 C 69.6086 1.87617 -0.73498 0
M  V30 686 O 68.6646 2.51046 -0.270586 0
M  V30 687 C 69.9776 0.669202 -2.93159 0
M  V30 688 C 71.5256 0.760499 -3.03621 0
M  V30 689 C 72.0006 0.880383 -4.49459 0
M  V30 690 N 73.4916 0.944861 -4.53461 0
M  V30 691 C 74.2266 1.05716 -5.63571 0
M  V30 692 N 73.7226 1.13403 -6.83456 0
M  V30 693 N 75.5156 1.09152 -5.514 0
M  V30 694 H 67.6666 -0.618695 -2.03189 0
M  V30 695 H 69.9296 -0.215728 -0.923128 0
M  V30 696 H 69.6356 -0.212904 -3.51055 0
M  V30 697 H 69.5096 1.5361 -3.44505 0
M  V30 698 H 71.8966 1.63305 -2.45796 0
M  V30 699 H 71.9776 -0.131864 -2.5546 0
M  V30 700 H 71.6216 0.0123284 -5.07899 0
M  V30 701 H 71.5516 1.78802 -4.95316 0
M  V30 702 H 74.0426 0.896176 -3.6712 0
M  V30 703 H 74.3556 1.21921 -7.63122 0
M  V30 704 H 72.7006 1.10333 -6.86186 0
M  V30 705 H 75.8916 1.02805 -4.56671 0
M  V30 706 H 76.0646 1.17558 -6.37247 0
M  V30 707 N 69.4707 1.49531 0.497807 0
M  V30 708 C 70.7167 1.59415 1.25358 0
M  V30 709 C 71.0497 0.281422 1.9215 0
M  V30 710 O 70.3247 -0.715249 1.80871 0
M  V30 711 C 70.6077 2.75566 2.3181 0
M  V30 712 C 70.4607 4.16642 1.69498 0
M  V30 713 C 71.7797 2.87347 3.33346 0
M  V30 714 H 68.8987 0.580244 0.454408 0
M  V30 715 H 71.5407 1.81827 0.551262 0
M  V30 716 H 69.6907 2.56587 2.91711 0
M  V30 717 H 71.3627 4.47145 1.13399 0
M  V30 718 H 69.6057 4.22141 0.998978 0
M  V30 719 H 70.2767 4.93792 2.46725 0
M  V30 720 H 72.7527 3.04634 2.83438 0
M  V30 721 H 71.6287 3.70289 4.05188 0
M  V30 722 H 71.8897 1.96834 3.95865 0
M  V30 723 N 70.9488 -0.749086 1.3866 0
M  V30 724 C 72.3598 -1.32664 1.31366 0
M  V30 725 C 72.7108 -1.96179 -0.028484 0
M  V30 726 O 71.8358 -1.9537 -0.93057 0
M  V30 727 C 72.4308 -2.41219 2.37905 0
M  V30 728 C 70.9898 -2.94684 2.34176 0
M  V30 729 C 70.1368 -1.68108 2.20533 0
M  V30 730 H 73.0878 -0.547628 1.48952 0
M  V30 731 H 73.1088 -3.21268 2.0388 0
M  V30 732 H 72.6208 -1.94962 3.35576 0
M  V30 733 H 70.7218 -3.45258 1.401 0
M  V30 734 H 70.8348 -3.48757 3.2849 0
M  V30 735 H 69.1988 -1.91907 1.67463 0
M  V30 736 H 69.9818 -1.23923 3.20153 0
M  V30 737 N 72.4269 -1.23603 -0.977757 0
M  V30 738 C 73.3369 -1.03632 -2.1047 0
M  V30 739 C 74.3529 0.0199435 -1.73989 0
M  V30 740 O 75.5289 -0.176076 -2.00629 0
M  V30 741 C 72.5939 -0.63276 -3.40877 0
M  V30 742 C 71.6549 -1.76437 -3.91367 0
M  V30 743 C 70.8879 -1.37997 -5.15551 0
M  V30 744 O 71.1109 -0.265357 -5.69782 0
M  V30 745 O 70.0449 -2.20201 -5.60174 0
M  V30 746 H 73.8709 -1.98086 -2.30208 0
M  V30 747 H 71.4559 -1.02332 -1.08851 0
M  V30 748 H 73.3379 -0.418761 -4.19314 0
M  V30 749 H 72.0129 0.282754 -3.22463 0
M  V30 750 H 70.9199 -2.03304 -3.14036 0
M  V30 751 H 72.2529 -2.6583 -4.14241 0
M  V30 752 N 73.905 1.17692 -1.04816 0
M  V30 753 C 75.133 1.91786 -0.776254 0
M  V30 754 C 75.548 1.76604 0.667577 0
M  V30 755 O 74.905 1.10067 1.45573 0
M  V30 756 C 74.956 3.42967 -1.14263 0
M  V30 757 O 74.677 3.57678 -2.52978 0
M  V30 758 C 76.178 4.34144 -0.896311 0
M  V30 759 H 73.398 0.608624 -0.282519 0
M  V30 760 H 75.942 1.49268 -1.39783 0
M  V30 761 H 74.097 3.83245 -0.565874 0
M  V30 762 H 74.511 4.51319 -2.67229 0
M  V30 763 H 75.985 5.38744 -1.20244 0
M  V30 764 H 76.462 4.38876 0.168636 0
M  V30 765 H 77.068 3.99574 -1.45672 0
M  V30 766 N 75.3831 0.828654 1.34056 0
M  V30 767 C 76.6131 0.431993 2.02033 0
M  V30 768 C 77.0211 -0.96844 1.62536 0
M  V30 769 O 76.3641 -1.6391 0.829408 0
M  V30 770 C 76.4261 0.461224 3.56529 0
M  V30 771 C 76.0901 1.81599 4.1937 0
M  V30 772 C 77.0871 2.7777 4.39477 0
M  V30 773 C 74.7721 2.10604 4.56017 0
M  V30 774 C 76.7661 4.01115 4.95364 0
M  V30 775 C 74.4531 3.34207 5.11614 0
M  V30 776 C 75.4511 4.2928 5.31232 0
M  V30 777 O 75.1391 5.50699 5.8565 0
M  V30 778 H 74.8711 0.170943 0.654029 0
M  V30 779 H 77.4251 1.11988 1.72185 0
M  V30 780 H 75.6551 -0.283388 3.8566 0
M  V30 781 H 77.3441 0.0838149 4.05813 0
M  V30 782 H 78.1101 2.56659 4.11523 0
M  V30 783 H 73.9891 1.37402 4.40047 0
M  V30 784 H 77.5331 4.75333 5.10592 0
M  V30 785 H 73.4301 3.55179 5.38997 0
M  V30 786 H 74.1981 5.52298 6.04077 0
M  V30 787 N 76.8612 -1.46375 0.584142 0
M  V30 788 C 77.7932 -2.28443 -0.186119 0
M  V30 789 C 78.8062 -1.38596 -0.854115 0
M  V30 790 O 79.9952 -1.63183 -0.723438 0
M  V30 791 C 77.0952 -3.13671 -1.28311 0
M  V30 792 C 76.2682 -4.31652 -0.706758 0
M  V30 793 C 75.3272 -4.98267 -1.69163 0
M  V30 794 O 74.3532 -5.55815 -1.22712 0
M  V30 795 N 75.5552 -4.95408 -3.02575 0
M  V30 796 H 78.3202 -2.9519 0.517986 0
M  V30 797 H 75.8812 -1.56303 0.42201 0
M  V30 798 H 77.8732 -3.55101 -1.94128 0
M  V30 799 H 76.4432 -2.48989 -1.89005 0
M  V30 800 H 75.6632 -3.93989 0.128908 0
M  V30 801 H 76.9512 -5.07906 -0.301506 0
M  V30 802 H 76.3492 -4.49902 -3.42936 0
M  V30 803 H 74.9062 -5.40774 -3.63877 0
M  V30 804 N 78.3393 -0.321999 -1.54275 0
M  V30 805 C 79.2693 0.537411 -2.27231 0
M  V30 806 C 80.2503 1.12064 -1.27968 0
M  V30 807 O 81.4353 1.14606 -1.56777 0
M  V30 808 C 78.5653 1.69919 -3.02894 0
M  V30 809 C 77.5193 1.24534 -4.09482 0
M  V30 810 C 76.8453 2.49394 -4.72977 0
M  V30 811 C 78.1453 0.361335 -5.21049 0
M  V30 812 H 79.8393 -0.0711406 -2.99315 0
M  V30 813 H 77.3853 -0.0356555 -1.43956 0
M  V30 814 H 79.3383 2.30668 -3.52662 0
M  V30 815 H 78.0623 2.33431 -2.28424 0
M  V30 816 H 76.7213 0.660782 -3.60596 0
M  V30 817 H 76.3693 3.11265 -3.95124 0
M  V30 818 H 76.0693 2.19718 -5.44975 0
M  V30 819 H 77.5933 3.10908 -5.25517 0
M  V30 820 H 79.0073 0.875072 -5.66582 0
M  V30 821 H 77.4043 0.157428 -5.99893 0
M  V30 822 H 78.4743 -0.60822 -4.8107 0
M  V30 823 N 79.8174 1.5752 -0.0501392 0
M  V30 824 C 80.7494 2.08413 0.95376 0
M  V30 825 C 81.7624 1.01175 1.27544 0
M  V30 826 O 82.9514 1.28744 1.23641 0
M  V30 827 C 80.0514 2.51138 2.27559 0
M  V30 828 C 79.2244 3.817 2.13598 0
M  V30 829 C 78.2834 4.10749 3.28895 0
M  V30 830 O 77.3094 4.80685 3.04845 0
M  V30 831 N 78.5114 3.62579 4.5334 0
M  V30 832 H 81.2764 2.95165 0.519383 0
M  V30 833 H 78.8374 1.61327 0.136127 0
M  V30 834 H 80.8294 2.67648 3.03557 0
M  V30 835 H 79.3994 1.6964 2.62567 0
M  V30 836 H 78.6194 3.74782 1.22197 0
M  V30 837 H 79.9074 4.67201 2.01496 0
M  V30 838 H 79.3054 3.06039 4.75769 0
M  V30 839 H 77.8624 3.84329 5.26436 0
M  V30 840 N 81.2955 -0.223234 1.56011 0
M  V30 841 C 82.2055 -1.29766 1.95443 0
M  V30 842 C 83.2215 -1.51373 0.858028 0
M  V30 843 O 84.3975 -1.64536 1.16146 0
M  V30 844 C 81.4625 -2.62772 2.26167 0
M  V30 845 C 80.5235 -2.49482 3.49367 0
M  V30 846 C 79.7565 -3.76145 3.78616 0
M  V30 847 O 79.9795 -4.79087 3.09568 0
M  V30 848 O 78.9135 -3.73358 4.72109 0
M  V30 849 H 82.7395 -0.99309 2.87004 0
M  V30 850 H 80.3245 -0.425958 1.43199 0
M  V30 851 H 82.2065 -3.41327 2.47131 0
M  V30 852 H 80.8815 -2.92913 1.37781 0
M  V30 853 H 79.7885 -1.69133 3.33684 0
M  V30 854 H 81.1215 -2.2428 4.38131 0
M  V30 855 N 82.7736 -1.49793 -0.48987 0
M  V30 856 C 83.7066 -1.61898 -1.60823 0
M  V30 857 C 84.6846 -0.467651 -1.5573 0
M  V30 858 O 85.8686 -0.684682 -1.75626 0
M  V30 859 C 82.9956 -1.58422 -2.99366 0
M  V30 860 C 82.0416 -2.78889 -3.22682 0
M  V30 861 S 82.8746 -4.40429 -3.04602 0
M  V30 862 C 84.0306 -4.39617 -4.4552 0
M  V30 863 H 84.2636 -2.56502 -1.50312 0
M  V30 864 H 81.7966 -1.38822 -0.675849 0
M  V30 865 H 83.7546 -1.57103 -3.79248 0
M  V30 866 H 82.4156 -0.650866 -3.07283 0
M  V30 867 H 81.6086 -2.72708 -4.23847 0
M  V30 868 H 81.2106 -2.77678 -2.50541 0
M  V30 869 H 83.5026 -4.12022 -5.37814 0
M  V30 870 H 84.4456 -5.41097 -4.56749 0
M  V30 871 H 84.8536 -3.69554 -4.2672 0
M  V30 872 N 84.2517 0.741722 -1.39055 0
M  V30 873 C 85.6627 1.31966 -1.32068 0
M  V30 874 C 86.0137 1.96192 0.0180797 0
M  V30 875 O 85.1387 1.95861 0.920196 0
M  V30 876 C 85.7337 2.39954 -2.39181 0
M  V30 877 C 84.2927 2.93438 -2.35735 0
M  V30 878 C 83.4397 1.66936 -2.21422 0
M  V30 879 H 86.3907 0.539721 -1.4924 0
M  V30 880 H 86.4117 3.20182 -2.05581 0
M  V30 881 H 85.9237 1.9318 -3.36605 0
M  V30 882 H 84.0247 3.4451 -1.41929 0
M  V30 883 H 84.1377 3.4701 -3.30335 0
M  V30 884 H 82.5017 1.91016 -1.68478 0
M  V30 885 H 83.2847 1.22224 -3.20806 0
M  V30 886 N 85.7298 1.2412 0.971189 0
M  V30 887 C 86.9578 1.10575 1.74874 0
M  V30 888 C 87.3728 -0.342017 1.85676 0
M  V30 889 O 86.7298 -1.23617 1.34258 0
M  V30 890 C 86.7808 1.73579 3.171 0
M  V30 891 O 86.5018 3.12695 3.06844 0
M  V30 892 C 88.0028 1.65598 4.11208 0
M  V30 893 H 85.2228 0.386504 0.548503 0
M  V30 894 H 87.7668 1.64156 1.21955 0
M  V30 895 H 85.9218 1.24009 3.67016 0
M  V30 896 H 86.3358 3.43412 3.96445 0
M  V30 897 H 87.8098 2.1437 5.08674 0
M  V30 898 H 88.2868 0.616532 4.34851 0
M  V30 899 H 88.8928 2.14578 3.67201 0
M  V30 900 N 87.2079 -1.17134 1.05439 0
M  V30 901 C 88.4329 -1.91913 0.786396 0
M  V30 902 C 88.8579 -1.7643 -0.652234 0
M  V30 903 O 88.2159 -1.08372 -1.45345 0
M  V30 904 C 88.2639 -3.40921 1.17497 0
M  V30 905 O 87.3679 -4.11244 0.308589 0
M  V30 906 H 86.7089 -0.598215 0.288158 0
M  V30 907 H 89.2389 -1.48457 1.4079 0
M  V30 908 H 89.2489 -3.91668 1.14281 0
M  V30 909 H 87.9239 -3.5151 2.22292 0
M  V30 910 H 86.5009 -3.70731 0.40157 0
M  V30 911 N 88.686 -0.835752 -1.33615 0
M  V30 912 C 89.963 -0.352017 -1.92406 0
M  V30 913 C 90.343 1.16225 -1.76224 0
M  V30 914 O 89.691 1.97526 -1.14873 0
M  V30 915 C 89.901 -0.795485 -3.39813 0
M  V30 916 C 91.249 -0.801703 -4.16963 0
M  V30 917 O 92.273 -0.738889 -3.48452 0
M  V30 918 O 91.132 -0.886607 -5.3926 0
M  V30 919 H 88.226 -0.0989641 -0.821057 0
M  V30 920 H 90.772 -0.921397 -1.42507 0
M  V30 921 H 89.544 -1.83795 -3.45449 0
M  V30 922 H 89.167 -0.202505 -3.97084 0
M  V30 923 N 90.1641 1.46063 -0.591896 0
M  V30 924 C 91.3941 2.06418 -0.0867676 0
M  V30 925 C 91.8021 1.43975 1.22751 0
M  V30 926 O 91.1451 0.542531 1.75506 0
M  V30 927 C 91.2071 3.59213 0.143725 0
M  V30 928 C 90.8711 4.439 -1.08635 0
M  V30 929 C 91.8681 4.79864 -2.00067 0
M  V30 930 C 89.5531 4.84896 -1.31077 0
M  V30 931 C 91.5471 5.55661 -3.12282 0
M  V30 932 C 89.2341 5.6045 -2.43596 0
M  V30 933 C 90.2321 5.95747 -3.34027 0
M  V30 934 O 89.9201 6.69772 -4.4459 0
M  V30 935 H 89.6521 0.673443 -0.0587447 0
M  V30 936 H 92.2061 1.88539 -0.814994 0
M  V30 937 H 90.4361 3.75433 0.926668 0
M  V30 938 H 92.1251 4.01463 0.5985 0
M  V30 939 H 92.8911 4.48763 -1.83947 0
M  V30 940 H 88.7701 4.56867 -0.61594 0
M  V30 941 H 92.3141 5.8313 -3.82891 0
M  V30 942 H 88.2111 5.90965 -2.59674 0
M  V30 943 H 88.9791 6.88207 -4.43073 0
M  V30 944 N 91.6422 0.330177 1.54103 0
M  V30 945 C 92.8672 -0.274893 2.0557 0
M  V30 946 C 93.2922 -1.44487 1.20437 0
M  V30 947 O 92.6502 -1.80021 0.214991 0
M  V30 948 C 92.6982 -0.68079 3.54115 0
M  V30 949 O 91.8022 -1.7824 3.71893 0
M  V30 950 H 91.1432 -0.0483849 0.662235 0
M  V30 951 H 93.6732 0.480508 1.98878 0
M  V30 952 H 93.6832 -0.961635 3.96505 0
M  V30 953 H 92.3582 0.174903 4.15532 0
M  V30 954 H 90.9352 -1.49985 3.41407 0
M  V30 955 N 93.1203 -1.57491 0.0584922 0
M  V30 956 C 94.0673 -2.11958 -0.913376 0
M  V30 957 C 95.0373 -1.02875 -1.30407 0
M  V30 958 O 96.2223 -1.30464 -1.39226 0
M  V30 959 C 93.3623 -2.67497 -2.18035 0
M  V30 960 C 92.4753 -3.90691 -1.84349 0
M  V30 961 C 91.6103 -4.3452 -3.05559 0
M  V30 962 C 90.6493 -5.50395 -2.67827 0
M  V30 963 N 89.7863 -5.89244 -3.81754 0
M  V30 964 H 94.6263 -2.94704 -0.442017 0
M  V30 965 H 92.1633 -1.45643 -0.206545 0
M  V30 966 H 94.1213 -2.978 -2.92183 0
M  V30 967 H 92.7513 -1.87537 -2.62735 0
M  V30 968 H 91.8033 -3.66934 -1.00319 0
M  V30 969 H 93.1153 -4.7489 -1.5258 0
M  V30 970 H 92.2693 -4.66414 -3.87998 0
M  V30 971 H 91.0083 -3.49147 -3.40511 0
M  V30 972 H 90.0133 -5.18165 -1.83806 0
M  V30 973 H 91.2383 -6.3749 -2.34059 0
M  V30 974 H 89.1843 -5.06823 -4.16493 0
M  V30 975 H 89.1013 -6.68151 -3.53708 0
M  V30 976 H 90.3693 -6.25756 -4.64811 0
M  V30 977 N 94.5984 0.214957 -1.56127 0
M  V30 978 C 96.0144 0.564948 -1.49267 0
M  V30 979 C 96.2144 1.86827 -0.754838 0
M  V30 980 O 95.2704 2.50745 -0.297198 0
M  V30 981 C 96.5834 0.638071 -2.93852 0
M  V30 982 C 98.1314 0.728253 -3.0441 0
M  V30 983 C 98.6064 0.832663 -4.50367 0
M  V30 984 N 100.097 0.896712 -4.54437 0
M  V30 985 C 100.832 0.997324 -5.6466 0
M  V30 986 N 100.328 1.06147 -6.8462 0
M  V30 987 N 102.121 1.03297 -5.52527 0
M  V30 988 H 94.2724 -0.640211 -2.02522 0
M  V30 989 H 96.5354 -0.225507 -0.920788 0
M  V30 990 H 96.2414 -0.250126 -3.50809 0
M  V30 991 H 96.1154 1.49947 -3.46115 0
M  V30 992 H 98.5024 1.60689 -2.47514 0
M  V30 993 H 98.5834 -0.158952 -2.55306 0
M  V30 994 H 98.2274 -0.0415417 -5.07883 0
M  V30 995 H 98.1574 1.73538 -4.97184 0
M  V30 996 H 100.648 0.857188 -3.6805 0
M  V30 997 H 100.961 1.1382 -7.64372 0
M  V30 998 H 99.3064 1.03049 -6.87318 0
M  V30 999 H 102.497 0.979558 -4.57736 0
M  V30 1000 H 102.67 1.10793 -6.38458 0
M  V30 1001 N 96.0765 1.50051 0.48192 0
M  V30 1002 C 97.3045 1.64237 1.25832 0
M  V30 1003 C 97.7195 0.321336 1.86045 0
M  V30 1004 O 97.0765 -0.695478 1.68729 0
M  V30 1005 C 97.1275 2.72548 2.37487 0
M  V30 1006 O 96.8485 3.99529 1.79745 0
M  V30 1007 C 98.3495 2.9761 3.28547 0
M  V30 1008 H 95.5695 0.55237 0.380957 0
M  V30 1009 H 98.1135 1.96207 0.576467 0
M  V30 1010 H 96.2685 2.43303 3.01467 0
M  V30 1011 H 96.6825 4.59342 2.5319 0
M  V30 1012 H 98.1565 3.77084 4.03127 0
M  V30 1013 H 98.6335 2.0826 3.86684 0
M  V30 1014 H 99.2395 3.28345 2.70314 0
M  V30 1015 N 97.5546 -0.734337 1.39446 0
M  V30 1016 C 98.4646 -1.87879 1.40495 0
M  V30 1017 C 99.4806 -1.714 0.299672 0
M  V30 1018 O 100.657 -1.93991 0.541249 0
M  V30 1019 C 97.7216 -3.23477 1.24754 0
M  V30 1020 C 96.7826 -3.52344 2.45259 0
M  V30 1021 C 96.0156 -4.81473 2.30259 0
M  V30 1022 O 96.2386 -5.55237 1.30643 0
M  V30 1023 O 95.1726 -5.10254 3.19256 0
M  V30 1024 H 98.9986 -1.89949 2.36966 0
M  V30 1025 H 96.5836 -0.882243 1.20569 0
M  V30 1026 H 98.4656 -4.04509 1.18111 0
M  V30 1027 H 97.1406 -3.22176 0.313781 0
M  V30 1028 H 96.0476 -2.71396 2.57478 0
M  V30 1029 H 97.3806 -3.58426 3.37331 0
M  V30 1030 N 99.0327 -1.24633 -0.964593 0
M  V30 1031 C 99.9797 -1.04144 -2.05968 0
M  V30 1032 C 100.95 0.046262 -1.66036 0
M  V30 1033 O 102.135 -0.108972 -1.90489 0
M  V30 1034 C 99.2747 -0.65563 -3.38815 0
M  V30 1035 C 98.3877 -1.81714 -3.91923 0
M  V30 1036 C 97.5227 -1.37662 -5.13052 0
M  V30 1037 C 96.5617 -2.50788 -5.58365 0
M  V30 1038 N 95.6987 -2.07582 -6.70712 0
M  V30 1039 H 100.539 -1.9787 -2.22827 0
M  V30 1040 H 98.0757 -0.9855 -1.09208 0
M  V30 1041 H 100.034 -0.412954 -4.15151 0
M  V30 1042 H 98.6637 0.244627 -3.21872 0
M  V30 1043 H 97.7157 -2.1734 -3.12198 0
M  V30 1044 H 99.0277 -2.66705 -4.21509 0
M  V30 1045 H 98.1817 -1.093 -5.96773 0
M  V30 1046 H 96.9207 -0.497293 -4.85158 0
M  V30 1047 H 95.9257 -2.79906 -4.73215 0
M  V30 1048 H 97.1507 -3.39283 -5.88272 0
M  V30 1049 H 95.0967 -1.22051 -6.44546 0
M  V30 1050 H 95.0137 -2.86125 -6.99763 0
M  V30 1051 H 96.2817 -1.82369 -7.57867 0
M  V30 1052 N 100.511 1.16574 -1.06058 0
M  V30 1053 C 101.459 2.22941 -0.663343 0
M  V30 1054 C 102.453 1.66358 0.319593 0
M  V30 1055 O 103.659 1.7905 0.184713 0
M  V30 1056 H 100.034 0.725907 -0.196376 0
M  V30 1057 H 102.005 2.53736 -1.57037 0
M  V30 1058 C 100.754 3.47642 -0.0632808 0
M  V30 1059 H 100.077 3.91493 -0.810733 0
M  V30 1060 H 101.517 4.2363 0.177177 0
M  V30 1061 C 99.9758 3.1509 1.19248 0
M  V30 1062 O 100.506 3.30673 2.28075 0
M  V30 1063 N 98.7118 2.6924 1.09353 0
M  V30 1064 H 98.2588 2.5676 0.207912 0
M  V30 1065 H 98.2168 2.47833 1.93458 0
M  V30 1066 N 101.989 0.842826 1.3317 0
M  V30 1067 C 103.235 0.441099 1.97945 0
M  V30 1068 C 103.568 -0.998024 1.66593 0
M  V30 1069 O 102.843 -1.69839 0.947898 0
M  V30 1070 C 103.126 0.666841 3.53872 0
M  V30 1071 C 102.979 2.15352 3.94897 0
M  V30 1072 C 104.298 0.115544 4.39948 0
M  V30 1073 H 101.417 0.161739 0.719034 0
M  V30 1074 H 104.059 1.05907 1.57746 0
M  V30 1075 H 102.209 0.140828 3.88245 0
M  V30 1076 H 103.881 2.7447 3.70761 0
M  V30 1077 H 102.124 2.63653 3.44484 0
M  V30 1078 H 102.795 2.26221 5.03516 0
M  V30 1079 H 105.271 0.565213 4.12243 0
M  V30 1080 H 104.147 0.303152 5.48062 0
M  V30 1081 H 104.408 -0.980935 4.3108 0
M  V30 1082 N 103.467 -1.45747 0.599634 0
M  V30 1083 C 104.397 -2.33235 -0.111306 0
M  V30 1084 C 105.378 -1.46359 -0.866781 0
M  V30 1085 O 106.563 -1.75146 -0.838904 0
M  V30 1086 C 103.693 -3.28932 -1.11451 0
M  V30 1087 C 102.647 -4.25381 -0.472772 0
M  V30 1088 C 101.973 -5.1071 -1.58365 0
M  V30 1089 C 103.273 -5.18831 0.600948 0
M  V30 1090 H 104.967 -2.92927 0.61919 0
M  V30 1091 H 102.513 -1.40857 0.299215 0
M  V30 1092 H 104.466 -3.89002 -1.62036 0
M  V30 1093 H 103.19 -2.67381 -1.8755 0
M  V30 1094 H 101.849 -3.66598 0.0121472 0
M  V30 1095 H 101.497 -4.45533 -2.33473 0
M  V30 1096 H 101.197 -5.7604 -1.15982 0
M  V30 1097 H 102.721 -5.73647 -2.09194 0
M  V30 1098 H 104.135 -5.73019 0.179491 0
M  V30 1099 H 102.532 -5.92595 0.946076 0
M  V30 1100 H 103.602 -4.6174 1.48068 0
M  V30 1101 N 104.945 -0.338344 -1.53925 0
M  V30 1102 C 106.222 0.314774 -1.93051 0
M  V30 1103 C 106.602 1.68669 -1.26941 0
M  V30 1104 O 105.95 2.24636 -0.418445 0
M  V30 1105 C 106.16 0.392249 -3.46789 0
M  V30 1106 C 107.508 0.645554 -4.19664 0
M  V30 1107 O 108.532 0.474575 -3.53024 0
M  V30 1108 O 107.391 0.976408 -5.37707 0
M  V30 1109 H 104.485 0.182598 -0.80659 0
M  V30 1110 H 107.031 -0.389141 -1.65178 0
M  V30 1111 H 105.803 -0.570702 -3.87116 0
M  V30 1112 H 105.426 1.14316 -3.80812 0
M  V30 1113 N 106.423 1.57458 -0.0668435 0
M  V30 1114 C 107.648 1.9804 0.616027 0
M  V30 1115 C 108.073 0.944771 1.62652 0
M  V30 1116 O 107.431 -0.0902094 1.81075 0
M  V30 1117 C 107.479 3.37665 1.26549 0
M  V30 1118 O 106.583 3.36701 2.38131 0
M  V30 1119 H 105.924 0.644719 0.158849 0
M  V30 1120 H 108.454 2.04121 -0.139891 0
M  V30 1121 H 108.464 3.7474 1.6135 0
M  V30 1122 H 107.139 4.12573 0.525016 0
M  V30 1123 H 105.716 3.1139 2.0516 0
M  V30 1124 N 107.901 -0.206675 1.56239 0
M  V30 1125 C 109.178 -0.954051 1.70755 0
M  V30 1126 C 109.558 -2.01841 0.618353 0
M  V30 1127 O 108.906 -2.25444 -0.372434 0
M  V30 1128 C 109.116 -1.551 3.12642 0
M  V30 1129 C 110.464 -2.03757 3.72516 0
M  V30 1130 O 111.488 -1.64965 3.15698 0
M  V30 1131 O 110.347 -2.75103 4.72208 0
M  V30 1132 H 107.441 -0.446636 0.696021 0
M  V30 1133 H 109.987 -0.197283 1.68549 0
M  V30 1134 H 108.759 -0.783212 3.83382 0
M  V30 1135 H 108.382 -2.37291 3.19028 0
M  V30 1136 N 109.379 -1.50304 -0.473955 0
M  V30 1137 C 110.627 -1.60832 -1.22382 0
M  V30 1138 C 110.948 -0.30939 -1.9253 0
M  V30 1139 O 110.218 0.67296 -1.83978 0
M  V30 1140 H 108.798 -0.592652 -0.454723 0
M  V30 1141 H 111.46 -1.87068 -0.546968 0
M  V30 1142 H 110.556 -2.41803 -1.97327 0
M  V30 1143 N 110.857 0.726932 -1.39834 0
M  V30 1144 C 112.085 1.51613 -1.40787 0
M  V30 1145 C 112.5 1.88799 -0.00451505 0
M  V30 1146 O 111.857 1.54662 0.968809 0
M  V30 1147 C 111.908 2.79863 -2.28821 0
M  V30 1148 O 111.629 2.44253 -3.63692 0
M  V30 1149 C 113.13 3.73837 -2.38245 0
M  V30 1150 H 110.35 0.468264 -0.480593 0
M  V30 1151 H 112.894 0.897607 -1.83748 0
M  V30 1152 H 111.049 3.38027 -1.89252 0
M  V30 1153 H 111.463 3.26695 -4.1033 0
M  V30 1154 H 112.937 4.60699 -3.04073 0
M  V30 1155 H 113.414 4.16153 -1.40403 0
M  V30 1156 H 114.02 3.21589 -2.78317 0
M  V30 1157 N 112.336 1.25143 0.95797 0
M  V30 1158 C 113.266 1.07711 2.07173 0
M  V30 1159 C 114.247 -0.0128462 1.70095 0
M  V30 1160 O 115.432 0.156061 1.93572 0
M  V30 1161 C 112.562 0.691503 3.40346 0
M  V30 1162 C 111.516 1.73132 3.9142 0
M  V30 1163 C 110.842 1.20049 5.21049 0
M  V30 1164 C 112.142 3.1294 4.1817 0
M  V30 1165 H 113.836 2.00873 2.22014 0
M  V30 1166 H 111.382 0.967191 1.06684 0
M  V30 1167 H 113.335 0.556505 4.17709 0
M  V30 1168 H 112.059 -0.275819 3.25433 0
M  V30 1169 H 110.718 1.8547 3.16222 0
M  V30 1170 H 110.366 0.223499 5.02503 0
M  V30 1171 H 110.066 1.89545 5.56189 0
M  V30 1172 H 111.59 1.07782 6.01012 0
M  V30 1173 H 113.004 3.03775 4.86203 0
M  V30 1174 H 111.401 3.79875 4.64559 0
M  V30 1175 H 112.471 3.6025 3.24573 0
M  V30 1176 N 113.814 -1.1601 1.06675 0
M  V30 1177 C 115.063 -1.85973 0.780818 0
M  V30 1178 C 115.376 -1.82819 -0.695444 0
M  V30 1179 O 116.582 -2.484 -1.09589 0
M  V30 1180 C 115.038 -3.33757 1.34665 0
M  V30 1181 C 114.646 -3.45374 2.85343 0
M  V30 1182 C 116.39 -4.0895 1.13843 0
M  V30 1183 C 114.297 -4.87266 3.35151 0
M  V30 1184 H 113.227 -0.696661 0.288407 0
M  V30 1185 H 115.878 -1.30903 1.28595 0
M  V30 1186 H 114.26 -3.88456 0.769274 0
M  V30 1187 H 115.434 -3.00816 3.49065 0
M  V30 1188 H 113.749 -2.83619 3.04876 0
M  V30 1189 H 116.346 -5.13654 1.4854 0
M  V30 1190 H 116.689 -4.16229 0.0770282 0
M  V30 1191 H 117.222 -3.605 1.68179 0
M  V30 1192 H 113.961 -4.85168 4.40786 0
M  V30 1193 H 113.481 -5.32433 2.76179 0
M  V30 1194 H 115.16 -5.56097 3.30704 0
M  V30 1195 N 115.292 -0.849877 -1.32721 0
M  V30 1196 C 116.541 -0.447175 -1.96681 0
M  V30 1197 C 116.854 1.00135 -1.68025 0
M  V30 1198 O 118.06 1.50926 -2.25685 0
M  V30 1199 C 116.516 -0.7487 -3.52026 0
M  V30 1200 C 116.124 -2.21264 -3.89546 0
M  V30 1201 C 117.868 -0.413487 -4.22481 0
M  V30 1202 C 115.775 -2.45763 -5.37917 0
M  V30 1203 H 114.705 -0.163486 -0.736063 0
M  V30 1204 H 117.356 -1.03999 -1.51183 0
M  V30 1205 H 115.738 -0.0853727 -3.95908 0
M  V30 1206 H 116.912 -2.91736 -3.56689 0
M  V30 1207 H 115.227 -2.5119 -3.32103 0
M  V30 1208 H 117.824 -0.574017 -5.3161 0
M  V30 1209 H 118.167 0.644492 -4.11281 0
M  V30 1210 H 118.7 -1.03251 -3.84167 0
M  V30 1211 H 115.439 -3.50168 -5.54132 0
M  V30 1212 H 114.959 -1.79864 -5.72197 0
M  V30 1213 H 116.638 -2.29471 -6.0494 0
M  V30 1214 N 116.77 1.45427 -0.607355 0
M  V30 1215 C 117.995 2.07124 -0.107006 0
M  V30 1216 C 118.42 1.44906 1.19933 0
M  V30 1217 O 117.778 0.541687 1.73019 0
M  V30 1218 C 117.826 3.60595 0.0194119 0
M  V30 1219 O 116.93 3.98285 1.0697 0
M  V30 1220 H 116.271 0.659868 -0.0739597 0
M  V30 1221 H 118.801 1.86683 -0.837297 0
M  V30 1222 H 118.811 4.07419 0.2177 0
M  V30 1223 H 117.486 4.05266 -0.934453 0
M  V30 1224 H 116.063 3.63133 0.847889 0
M  V30 1225 N 118.248 0.346503 1.53744 0
M  V30 1226 C 119.198 -0.524953 2.21874 0
M  V30 1227 C 120.182 -1.06376 1.20718 0
M  V30 1228 O 121.374 -0.996972 1.46251 0
M  V30 1229 C 118.503 -1.6739 2.99726 0
M  V30 1230 C 117.589 -1.14888 4.08242 0
M  V30 1231 N 117.98 -0.345329 5.0462 0
M  V30 1232 C 116.278 -1.4255 4.22606 0
M  V30 1233 C 116.979 -0.0600706 5.81669 0
M  V30 1234 N 115.955 -0.65252 5.39669 0
M  V30 1235 H 119.757 0.0960091 2.93743 0
M  V30 1236 H 117.271 0.15352 1.61673 0
M  V30 1237 H 119.268 -2.3102 3.47038 0
M  V30 1238 H 117.928 -2.29811 2.29384 0
M  V30 1239 H 118.939 0.0138439 5.17898 0
M  V30 1240 H 115.616 -2.05389 3.63486 0
M  V30 1241 H 117.006 0.588321 6.69319 0
M  V30 1242 N 119.726 -1.57421 0.075193 0
M  V30 1243 C 120.974 -1.93236 -0.591974 0
M  V30 1244 C 121.295 -0.956241 -1.69944 0
M  V30 1245 O 120.565 -0.00494792 -1.95899 0
M  V30 1246 H 119.145 -0.713355 -0.22166 0
M  V30 1247 H 121.807 -1.9444 0.133848 0
M  V30 1248 H 120.903 -2.95131 -1.01509 0
M  V30 1249 N 121.204 0.198386 -1.56346 0
M  V30 1250 C 122.453 0.917451 -1.79627 0
M  V30 1251 C 122.766 1.8456 -0.64784 0
M  V30 1252 O 123.972 2.60504 -0.764859 0
M  V30 1253 C 122.428 1.68175 -3.18191 0
M  V30 1254 C 122.036 0.798589 -4.40825 0
M  V30 1255 C 123.78 2.39065 -3.50782 0
M  V30 1256 C 121.687 1.56157 -5.70411 0
M  V30 1257 H 120.617 0.346317 -0.669762 0
M  V30 1258 H 123.268 0.170801 -1.82703 0
M  V30 1259 H 121.65 2.47216 -3.09354 0
M  V30 1260 H 122.824 0.0470665 -4.60776 0
M  V30 1261 H 121.139 0.200686 -4.15916 0
M  V30 1262 H 123.736 2.96692 -4.44835 0
M  V30 1263 H 124.079 3.13091 -2.74371 0
M  V30 1264 H 124.612 1.66993 -3.61052 0
M  V30 1265 H 121.351 0.864142 -6.49779 0
M  V30 1266 H 120.871 2.2871 -5.54483 0
M  V30 1267 H 122.55 2.11622 -6.11412 0
M  V30 1268 N 122.682 1.50554 0.465978 0
M  V30 1269 C 123.612 1.72722 1.57128 0
M  V30 1270 C 124.593 0.576294 1.6004 0
M  V30 1271 O 125.778 0.81598 1.76225 0
M  V30 1272 C 122.908 1.82605 2.95419 0
M  V30 1273 C 121.862 2.97835 3.07373 0
M  V30 1274 C 121.188 2.92867 4.47363 0
M  V30 1275 C 122.488 4.38265 2.84114 0
M  V30 1276 H 124.182 2.65267 1.38829 0
M  V30 1277 H 121.728 1.2765 0.666441 0
M  V30 1278 H 123.681 1.96698 3.72677 0
M  V30 1279 H 122.405 0.866858 3.14886 0
M  V30 1280 H 121.064 2.83401 2.3255 0
M  V30 1281 H 120.712 1.94783 4.63755 0
M  V30 1282 H 120.412 3.70227 4.56296 0
M  V30 1283 H 121.936 3.09015 5.26633 0
M  V30 1284 H 123.35 4.53198 3.51118 0
M  V30 1285 H 121.747 5.17115 3.04487 0
M  V30 1286 H 122.817 4.50281 1.7993 0
M  V30 1287 N 124.16 -0.719506 1.40217 0
M  V30 1288 C 125.107 -1.83359 1.40172 0
M  V30 1289 C 126.077 -1.64065 0.259206 0
M  V30 1290 O 127.262 -1.85254 0.456677 0
M  V30 1291 C 124.402 -3.2103 1.26624 0
M  V30 1292 C 123.515 -3.51923 2.50548 0
M  V30 1293 C 122.65 -4.79079 2.29471 0
M  V30 1294 C 121.689 -5.02863 3.48992 0
M  V30 1295 N 120.826 -6.2123 3.27135 0
M  V30 1296 H 125.666 -1.82733 2.35399 0
M  V30 1297 H 123.203 -0.892688 1.16917 0
M  V30 1298 H 125.161 -4.00524 1.16776 0
M  V30 1299 H 123.791 -3.20895 0.350176 0
M  V30 1300 H 122.843 -2.67014 2.70939 0
M  V30 1301 H 124.155 -3.6541 3.39525 0
M  V30 1302 H 123.309 -5.66582 2.16955 0
M  V30 1303 H 122.048 -4.67794 1.37913 0
M  V30 1304 H 121.053 -4.13816 3.6199 0
M  V30 1305 H 122.278 -5.16023 4.41472 0
M  V30 1306 H 120.224 -6.11204 2.38256 0
M  V30 1307 H 120.141 -6.35375 4.09675 0
M  V30 1308 H 121.409 -7.11532 3.18344 0
M  V30 1309 N 125.638 -1.25649 -0.95132 0
M  V30 1310 C 126.886 -1.10375 -1.69298 0
M  V30 1311 C 127.207 0.355339 -1.91735 0
M  V30 1312 O 126.477 1.25188 -1.50681 0
M  V30 1313 H 125.057 -0.405461 -0.627384 0
M  V30 1314 H 127.719 -1.57823 -1.14358 0
M  V30 1315 H 126.815 -1.61465 -2.67087 0
M  V30 1316 N 127.117 1.15442 -1.07289 0
M  V30 1317 C 128.365 1.85845 -0.794096 0
M  V30 1318 C 128.686 1.82692 0.681809 0
M  V30 1319 O 127.956 1.26741 1.49377 0
M  V30 1320 H 126.536 0.688089 -0.290763 0
M  V30 1321 H 129.198 1.39947 -1.3565 0
M  V30 1322 H 128.294 2.91001 -1.12804 0
M  V30 1323 N 128.595 0.856903 1.32268 0
M  V30 1324 C 129.82 0.474569 2.01897 0
M  V30 1325 C 130.245 -0.921766 1.63967 0
M  V30 1326 O 129.603 -1.60589 0.84148 0
M  V30 1327 C 129.651 0.623799 3.55164 0
M  V30 1328 O 128.755 -0.342459 4.10976 0
M  V30 1329 H 128.096 0.190422 0.63611 0
M  V30 1330 H 130.626 1.15672 1.68764 0
M  V30 1331 H 130.636 0.512169 4.04773 0
M  V30 1332 H 129.311 1.64202 3.82113 0
M  V30 1333 H 127.888 -0.18688 3.72431 0
M  V30 1334 N 130.073 -1.45103 0.615059 0
M  V30 1335 C 131.036 -2.29025 -0.0895485 0
M  V30 1336 C 132.036 -1.40174 -0.787906 0
M  V30 1337 O 133.226 -1.62217 -0.634933 0
M  V30 1338 C 130.358 -3.21376 -1.13711 0
M  V30 1339 H 131.551 -2.92807 0.648382 0
M  V30 1340 H 129.104 -1.51749 0.374444 0
M  V30 1341 H 129.839 -2.6241 -1.90556 0
M  V30 1342 H 129.624 -3.86834 -0.640475 0
M  V30 1343 H 131.114 -3.84459 -1.63036 0
M  V30 1344 N 131.551 -0.354651 -1.53558 0
M  V30 1345 C 132.481 0.489091 -2.2832 0
M  V30 1346 C 133.462 1.09324 -1.30316 0
M  V30 1347 O 134.647 1.11255 -1.59173 0
M  V30 1348 C 131.777 1.63456 -3.0643 0
M  V30 1349 C 130.731 1.1582 -4.12031 0
M  V30 1350 C 130.057 2.39305 -4.7816 0
M  V30 1351 C 131.357 0.250731 -5.21698 0
M  V30 1352 H 133.051 -0.134614 -2.99097 0
M  V30 1353 H 130.597 -0.0661826 -1.43848 0
M  V30 1354 H 132.55 2.23136 -3.57475 0
M  V30 1355 H 131.274 2.28533 -2.33325 0
M  V30 1356 H 129.933 0.584146 -3.61916 0
M  V30 1357 H 129.581 3.02814 -4.01637 0
M  V30 1358 H 129.281 2.08109 -5.49513 0
M  V30 1359 H 130.805 2.99691 -5.31994 0
M  V30 1360 H 132.219 0.754695 -5.68311 0
M  V30 1361 H 130.616 0.0301468 -6.00092 0
M  V30 1362 H 131.686 -0.710125 -4.79672 0
M  V30 1363 N 133.029 1.57378 -0.0835403 0
M  V30 1364 C 134.257 1.98263 0.59157 0
M  V30 1365 C 134.672 0.962302 1.62435 0
M  V30 1366 O 134.029 -0.049581 1.82433 0
M  V30 1367 C 134.08 3.39214 1.24965 0
M  V30 1368 O 133.801 4.37339 0.258186 0
M  V30 1369 C 135.302 3.95038 2.01147 0
M  V30 1370 H 132.522 0.651773 0.159477 0
M  V30 1371 H 135.066 2.03878 -0.159415 0
M  V30 1372 H 133.221 3.34649 1.95164 0
M  V30 1373 H 133.635 5.19371 0.731734 0
M  V30 1374 H 135.109 4.95848 2.42567 0
M  V30 1375 H 135.586 3.32222 2.87272 0
M  V30 1376 H 136.192 4.0304 1.35789 0
M  V30 1377 N 134.507 -0.190092 1.56449 0
M  V30 1378 C 135.417 -1.25591 1.98152 0
M  V30 1379 C 136.433 -1.49519 0.889944 0
M  V30 1380 O 137.609 -1.62036 1.19609 0
M  V30 1381 C 134.674 -2.57916 2.3169 0
M  V30 1382 C 133.735 -2.42015 3.5458 0
M  V30 1383 C 132.968 -3.6803 3.8651 0
M  V30 1384 O 133.191 -4.72413 3.1966 0
M  V30 1385 O 132.125 -3.6326 4.79923 0
M  V30 1386 H 135.951 -0.931988 2.89046 0
M  V30 1387 H 133.536 -0.395488 1.4407 0
M  V30 1388 H 135.418 -3.36008 2.54316 0
M  V30 1389 H 134.093 -2.89925 1.43963 0
M  V30 1390 H 133 -1.62017 3.37196 0
M  V30 1391 H 134.333 -2.14937 4.4279 0
M  V30 1392 N 135.985 -1.50799 -0.457987 0
M  V30 1393 C 137.232 -1.62442 -1.20908 0
M  V30 1394 C 137.56 -0.330865 -1.91665 0
M  V30 1395 O 136.815 0.68401 -1.83357 0
M  V30 1396 C 137.114 -2.76358 -2.2663 0
M  V30 1397 C 136.78 -4.16378 -1.73033 0
M  V30 1398 C 135.442 -4.54473 -1.58138 0
M  V30 1399 C 137.794 -5.03836 -1.33413 0
M  V30 1400 C 135.122 -5.77754 -1.02065 0
M  V30 1401 C 137.474 -6.27676 -0.78778 0
M  V30 1402 C 136.138 -6.64562 -0.625561 0
M  V30 1403 H 135.408 -0.594417 -0.442435 0
M  V30 1404 H 138.055 -1.84772 -0.503136 0
M  V30 1405 H 136.36 -2.48167 -3.03184 0
M  V30 1406 H 138.057 -2.82568 -2.84528 0
M  V30 1407 H 134.647 -3.86331 -1.85598 0
M  V30 1408 H 138.831 -4.75026 -1.4375 0
M  V30 1409 H 134.087 -6.04997 -0.882547 0
M  V30 1410 H 138.261 -6.94797 -0.472177 0
M  V30 1411 H 135.888 -7.59965 -0.188926 0
M  V30 1412 N 137.463 0.71206 -1.40597 0
M  V30 1413 C 138.71 1.47197 -1.39065 0
M  V30 1414 C 139.038 1.94499 0.00583891 0
M  V30 1415 O 138.293 1.68752 0.99102 0
M  V30 1416 C 138.592 2.71039 -2.32965 0
M  V30 1417 C 138.258 2.42484 -3.80148 0
M  V30 1418 C 136.92 2.34406 -4.20247 0
M  V30 1419 C 139.272 2.18598 -4.73143 0
M  V30 1420 C 136.6 2.00516 -5.51371 0
M  V30 1421 C 138.952 1.8622 -6.0457 0
M  V30 1422 C 137.616 1.76626 -6.43708 0
M  V30 1423 H 136.886 0.538634 -0.508876 0
M  V30 1424 H 139.533 0.815325 -1.73276 0
M  V30 1425 H 137.838 3.41558 -1.91951 0
M  V30 1426 H 139.535 3.29138 -2.29061 0
M  V30 1427 H 136.125 2.49659 -3.4838 0
M  V30 1428 H 140.309 2.23793 -4.42979 0
M  V30 1429 H 135.565 1.91628 -5.80593 0
M  V30 1430 H 139.739 1.66752 -6.76141 0
M  V30 1431 H 137.366 1.50133 -7.45228 0
M  V30 1432 N 138.941 1.26152 0.944643 0
M  V30 1433 C 139.904 1.07474 2.0244 0
M  V30 1434 C 140.904 0.0242064 1.60782 0
M  V30 1435 O 142.094 0.267302 1.72137 0
M  V30 1436 C 139.226 0.633956 3.34953 0
M  V30 1437 H 140.419 2.03336 2.20442 0
M  V30 1438 H 137.972 1.087 1.12312 0
M  V30 1439 H 138.707 -0.326811 3.22649 0
M  V30 1440 H 138.492 1.39247 3.66542 0
M  V30 1441 H 139.982 0.52501 4.14287 0
M  V30 1442 N 140.419 -1.14872 1.07899 0
M  V30 1443 C 141.329 -2.2341 0.715915 0
M  V30 1444 C 142.345 -1.71808 -0.275306 0
M  V30 1445 O 143.521 -2.01039 -0.120545 0
M  V30 1446 C 140.586 -3.46474 0.125168 0
M  V30 1447 C 139.647 -4.13039 1.17034 0
M  V30 1448 C 138.88 -5.30229 0.607688 0
M  V30 1449 O 139.103 -5.675 -0.574497 0
M  V30 1450 O 138.037 -5.86444 1.35526 0
M  V30 1451 H 141.863 -2.56808 1.62121 0
M  V30 1452 H 139.448 -1.22702 0.852322 0
M  V30 1453 H 141.33 -4.20917 -0.201729 0
M  V30 1454 H 140.005 -3.14811 -0.753364 0
M  V30 1455 H 138.912 -3.40493 1.54968 0
M  V30 1456 H 140.245 -4.48796 2.02097 0
M  V30 1457 N 141.898 -0.863906 -1.31812 0
M  V30 1458 C 142.83 -0.272485 -2.27575 0
M  V30 1459 C 143.843 0.56104 -1.52827 0
M  V30 1460 O 145.032 0.384021 -1.7432 0
M  V30 1461 C 142.132 0.63283 -3.32939 0
M  V30 1462 C 141.305 -0.166902 -4.37081 0
M  V30 1463 C 140.364 0.665608 -5.21973 0
M  V30 1464 O 139.39 0.0958091 -5.69119 0
M  V30 1465 N 140.592 1.9787 -5.45736 0
M  V30 1466 H 143.357 -1.0954 -2.78964 0
M  V30 1467 H 140.918 -0.724791 -1.4477 0
M  V30 1468 H 142.91 1.19532 -3.86645 0
M  V30 1469 H 141.48 1.35642 -2.81638 0
M  V30 1470 H 140.7 -0.910838 -3.83533 0
M  V30 1471 H 141.988 -0.715874 -5.03739 0
M  V30 1472 H 141.386 2.46484 -5.09178 0
M  V30 1473 H 139.943 2.48911 -6.024 0
M  V30 1474 N 143.376 1.44774 -0.622745 0
M  V30 1475 C 144.606 2.06187 -0.130532 0
M  V30 1476 C 145.014 1.46547 1.19669 0
M  V30 1477 O 144.357 0.579636 1.74316 0
M  V30 1478 C 144.419 3.59437 0.0674983 0
M  V30 1479 C 144.083 4.41496 -1.18026 0
M  V30 1480 C 145.08 4.75512 -2.102 0
M  V30 1481 C 142.765 4.82007 -1.41333 0
M  V30 1482 C 144.759 5.48912 -3.23998 0
M  V30 1483 C 142.446 5.55157 -2.55429 0
M  V30 1484 C 143.444 5.88528 -3.46589 0
M  V30 1485 O 143.132 6.60191 -4.58697 0
M  V30 1486 H 142.864 0.672045 -0.0730162 0
M  V30 1487 H 145.418 1.86768 -0.854802 0
M  V30 1488 H 143.648 3.77314 0.846825 0
M  V30 1489 H 145.337 4.02642 0.513209 0
M  V30 1490 H 146.103 4.4476 -1.93425 0
M  V30 1491 H 141.982 4.55457 -0.712709 0
M  V30 1492 H 145.526 5.74877 -3.95174 0
M  V30 1493 H 141.423 5.85324 -2.72151 0
M  V30 1494 H 142.191 6.78654 -4.57571 0
M  V30 1495 N 144.854 0.36279 1.53368 0
M  V30 1496 C 145.801 -0.485008 2.25646 0
M  V30 1497 C 146.771 -1.07982 1.2621 0
M  V30 1498 O 147.956 -1.11284 1.54986 0
M  V30 1499 C 145.096 -1.62023 3.04701 0
M  V30 1500 C 144.209 -1.05086 4.19024 0
M  V30 1501 C 143.344 -2.15496 4.85525 0
M  V30 1502 C 142.383 -1.5601 5.91884 0
M  V30 1503 N 141.52 -2.60241 6.52088 0
M  V30 1504 H 146.36 0.137864 2.97681 0
M  V30 1505 H 143.897 0.0798061 1.46883 0
M  V30 1506 H 145.855 -2.28887 3.48807 0
M  V30 1507 H 144.485 -2.2138 2.34927 0
M  V30 1508 H 143.537 -0.27259 3.79422 0
M  V30 1509 H 144.849 -0.575926 4.95464 0
M  V30 1510 H 144.003 -2.90186 5.32801 0
M  V30 1511 H 142.742 -2.66341 4.08551 0
M  V30 1512 H 141.747 -0.798338 5.43973 0
M  V30 1513 H 142.972 -1.05994 6.70777 0
M  V30 1514 H 140.918 -3.10304 5.77968 0
M  V30 1515 H 140.835 -2.17426 7.24059 0
M  V30 1516 H 142.103 -3.34641 7.04014 0
M  V30 1517 N 146.332 -1.57332 0.0918853 0
M  V30 1518 C 147.279 -2.13847 -0.868211 0
M  V30 1519 C 148.249 -1.05618 -1.28196 0
M  V30 1520 O 149.434 -1.33387 -1.36427 0
M  V30 1521 C 146.574 -2.72062 -2.12312 0
M  V30 1522 C 145.687 -3.94514 -1.7602 0
M  V30 1523 C 144.822 -4.40903 -2.96273 0
M  V30 1524 C 143.861 -5.55953 -2.56092 0
M  V30 1525 N 142.998 -5.97209 -3.69169 0
M  V30 1526 H 147.838 -2.95575 -0.379406 0
M  V30 1527 H 145.375 -1.46048 -0.175606 0
M  V30 1528 H 147.333 -3.03931 -2.858 0
M  V30 1529 H 145.963 -1.93068 -2.58698 0
M  V30 1530 H 145.015 -3.68979 -0.925135 0
M  V30 1531 H 146.327 -4.7802 -1.42472 0
M  V30 1532 H 145.481 -4.74539 -3.78018 0
M  V30 1533 H 144.22 -3.56291 -3.33029 0
M  V30 1534 H 143.225 -5.21948 -1.72773 0
M  V30 1535 H 144.45 -6.42311 -2.20484 0
M  V30 1536 H 142.396 -5.15543 -4.05649 0
M  V30 1537 H 142.313 -6.75504 -3.39456 0
M  V30 1538 H 143.581 -6.35475 -4.51434 0
M  V30 1539 N 147.81 0.181792 -1.56548 0
M  V30 1540 C 149.221 0.745244 -1.71181 0
M  V30 1541 C 149.572 1.83262 -0.70068 0
M  V30 1542 O 148.697 2.15946 0.140154 0
M  V30 1543 C 149.292 1.35859 -3.10367 0
M  V30 1544 C 147.851 1.86898 -3.2672 0
M  V30 1545 C 146.998 0.743942 -2.67134 0
M  V30 1546 H 149.949 -0.0434661 -1.5864 0
M  V30 1547 H 149.97 2.22817 -3.08436 0
M  V30 1548 H 149.482 0.566948 -3.83937 0
M  V30 1549 H 147.583 2.68738 -2.5809 0
M  V30 1550 H 147.696 2.02162 -4.34359 0
M  V30 1551 H 146.06 1.16169 -2.26665 0
M  V30 1552 H 146.843 -0.035676 -3.43281 0
M  V30 1553 N 149.288 1.51039 0.449983 0
M  V30 1554 C 150.528 1.64732 1.21007 0
M  V30 1555 C 150.892 0.349865 1.88785 0
M  V30 1556 O 152.093 0.362431 2.66345 0
M  V30 1557 C 150.364 2.80902 2.20973 0
M  V30 1558 S 151.923 3.14851 3.05638 0
M  V30 1559 H 148.741 0.5805 0.410538 0
M  V30 1560 H 151.343 1.88901 0.503634 0
M  V30 1561 H 150.047 3.73627 1.69796 0
M  V30 1562 H 149.578 2.58882 2.96215 0
M  V30 1563 H 151.593 2.60306 4.22439 0
M  V30 1564 N 150.766 -0.704594 1.40972 0
M  V30 1565 C 151.696 -1.83124 1.44872 0
M  V30 1566 C 152.677 -1.67281 0.30838 0
M  V30 1567 O 153.862 -1.87149 0.518556 0
M  V30 1568 C 150.992 -3.21181 1.32136 0
M  V30 1569 C 149.946 -3.51714 2.43888 0
M  V30 1570 C 149.272 -4.89032 2.16222 0
M  V30 1571 C 150.572 -3.516 3.86232 0
M  V30 1572 H 152.266 -1.80117 2.39161 0
M  V30 1573 H 149.812 -0.865145 1.15114 0
M  V30 1574 H 151.765 -3.99702 1.33479 0
M  V30 1575 H 150.489 -3.24791 0.343279 0
M  V30 1576 H 149.148 -2.75539 2.41813 0
M  V30 1577 H 148.796 -4.89256 1.16778 0
M  V30 1578 H 148.496 -5.10426 2.911 0
M  V30 1579 H 150.02 -5.69873 2.19265 0
M  V30 1580 H 151.434 -4.2014 3.9007 0
M  V30 1581 H 149.831 -3.84523 4.60719 0
M  V30 1582 H 150.901 -2.50757 4.15029 0
M  V30 1583 N 152.244 -1.26651 -0.937939 0
M  V30 1584 C 153.194 -1.05156 -2.02302 0
M  V30 1585 C 154.178 0.0171233 -1.60891 0
M  V30 1586 O 155.37 -0.200213 -1.75864 0
M  V30 1587 C 152.499 -0.689962 -3.36295 0
M  V30 1588 C 151.585 -1.79626 -3.84181 0
M  V30 1589 N 151.976 -3.03422 -4.04684 0
M  V30 1590 C 150.274 -1.6806 -4.13124 0
M  V30 1591 C 150.975 -3.75345 -4.444 0
M  V30 1592 N 149.951 -3.03051 -4.51288 0
M  V30 1593 H 153.753 -1.99117 -2.1617 0
M  V30 1594 H 151.267 -1.17216 -1.12402 0
M  V30 1595 H 153.264 -0.517112 -4.13681 0
M  V30 1596 H 151.924 0.242139 -3.23796 0
M  V30 1597 H 152.935 -3.39293 -3.91281 0
M  V30 1598 H 149.612 -0.818629 -4.09396 0
M  V30 1599 H 151.002 -4.81691 -4.68427 0
M  V30 1600 N 153.722 1.14298 -1.08507 0
M  V30 1601 C 154.971 1.84708 -0.810305 0
M  V30 1602 C 155.284 1.83903 0.666271 0
M  V30 1603 O 156.49 2.50112 1.05624 0
M  V30 1604 C 154.946 3.31572 -1.39957 0
M  V30 1605 C 154.554 3.40791 -2.90801 0
M  V30 1606 C 156.298 4.07087 -1.20334 0
M  V30 1607 C 154.205 4.81872 -3.4286 0
M  V30 1608 H 153.135 0.691985 -0.299454 0
M  V30 1609 H 155.786 1.28841 -1.30661 0
M  V30 1610 H 154.168 3.87183 -0.830976 0
M  V30 1611 H 155.342 2.95225 -3.53806 0
M  V30 1612 H 153.657 2.78732 -3.0935 0
M  V30 1613 H 156.254 5.11225 -1.56693 0
M  V30 1614 H 156.597 4.16054 -0.143237 0
M  V30 1615 H 157.13 3.57779 -1.73893 0
M  V30 1616 H 153.869 4.78094 -4.48449 0
M  V30 1617 H 153.389 5.27972 -2.84615 0
M  V30 1618 H 155.068 5.50765 -3.39509 0
M  V30 1619 N 155.201 0.870884 1.31352 0
M  V30 1620 C 156.478 0.402907 1.91405 0
M  V30 1621 C 156.858 -1.11512 1.79244 0
M  V30 1622 O 156.206 -1.94411 1.2007 0
M  V30 1623 C 156.416 0.885301 3.37585 0
M  V30 1624 C 157.764 0.911971 4.14691 0
M  V30 1625 O 158.788 0.831016 3.46371 0
M  V30 1626 O 157.647 1.02927 5.3672 0
M  V30 1627 H 154.741 0.120698 0.818145 0
M  V30 1628 H 157.287 0.958857 1.40014 0
M  V30 1629 H 156.059 1.92889 3.40455 0
M  V30 1630 H 155.682 0.307714 3.96407 0
M  V30 1631 N 156.679 -1.44442 0.630414 0
M  V30 1632 C 157.609 -2.33418 -0.0618083 0
M  V30 1633 C 158.59 -1.48165 -0.835541 0
M  V30 1634 O 159.775 -1.76886 -0.801564 0
M  V30 1635 C 156.905 -3.31222 -1.04449 0
M  V30 1636 C 155.859 -4.26288 -0.382436 0
M  V30 1637 C 155.185 -5.13954 -1.47497 0
M  V30 1638 C 156.485 -5.1744 0.710865 0
M  V30 1639 H 158.179 -2.91548 0.681184 0
M  V30 1640 H 155.725 -1.40191 0.329026 0
M  V30 1641 H 157.678 -3.92351 -1.53748 0
M  V30 1642 H 156.402 -2.71299 -1.81836 0
M  V30 1643 H 155.061 -3.6649 0.0899054 0
M  V30 1644 H 154.709 -4.50385 -2.2397 0
M  V30 1645 H 154.409 -5.7837 -1.03737 0
M  V30 1646 H 155.933 -5.77955 -1.96979 0
M  V30 1647 H 157.347 -5.72509 0.300996 0
M  V30 1648 H 155.744 -5.90455 1.07156 0
M  V30 1649 H 156.814 -4.58496 1.57829 0
M  V30 1650 N 158.157 -0.370918 -1.53173 0
M  V30 1651 C 159.434 0.273754 -1.93675 0
M  V30 1652 C 159.814 1.65938 -1.3049 0
M  V30 1653 O 159.162 2.23698 -0.465999 0
M  V30 1654 C 159.372 0.318602 -3.47543 0
M  V30 1655 C 160.72 0.556392 -4.20939 0
M  V30 1656 O 161.744 0.399587 -3.53952 0
M  V30 1657 O 160.603 0.862133 -5.39657 0
M  V30 1658 H 157.697 0.165448 -0.810281 0
M  V30 1659 H 160.243 -0.42409 -1.64315 0
M  V30 1660 H 159.015 -0.652687 -3.85818 0
M  V30 1661 H 158.638 1.06212 -3.83151 0
M  V30 1662 N 159.635 1.57281 -0.100228 0
M  V30 1663 C 161.051 1.57527 0.256416 0
M  V30 1664 C 161.251 1.11173 1.68056 0
M  V30 1665 O 160.307 0.79053 2.39806 0
M  V30 1666 C 161.62 3.00673 0.0401747 0
M  V30 1667 C 163.168 3.12815 0.107528 0
M  V30 1668 C 163.643 4.57929 -0.0807834 0
M  V30 1669 N 165.134 4.63193 -0.0261207 0
M  V30 1670 C 165.869 5.73212 -0.146999 0
M  V30 1671 N 165.365 6.92047 -0.322999 0
M  V30 1672 N 167.158 5.62031 -0.0879044 0
M  V30 1673 H 159.309 1.85718 -1.03065 0
M  V30 1674 H 161.572 0.857446 -0.404339 0
M  V30 1675 H 161.278 3.38804 -0.943649 0
M  V30 1676 H 161.152 3.69042 0.780262 0
M  V30 1677 H 163.539 2.74554 1.08186 0
M  V30 1678 H 163.62 2.47028 -0.664134 0
M  V30 1679 H 163.264 4.96886 -1.05201 0
M  V30 1680 H 163.194 5.21783 0.710635 0
M  V30 1681 H 165.685 3.77748 0.107161 0
M  V30 1682 H 165.998 7.7173 -0.406608 0
M  V30 1683 H 164.343 6.94074 -0.358733 0
M  V30 1684 H 167.534 4.68075 0.048498 0
M  V30 1685 H 167.707 6.47734 -0.185557 0
M  V30 1686 N 161.113 -0.173488 1.56642 0
M  V30 1687 C 162.362 -0.888758 1.81063 0
M  V30 1688 C 162.675 -1.83506 0.67712 0
M  V30 1689 O 163.881 -2.59254 0.806206 0
M  V30 1690 C 162.337 -1.63091 3.20826 0
M  V30 1691 C 161.945 -0.728357 4.4204 0
M  V30 1692 C 163.689 -2.33454 3.54541 0
M  V30 1693 C 161.596 -1.47062 5.72823 0
M  V30 1694 H 160.526 -0.335618 0.675186 0
M  V30 1695 H 163.177 -0.141712 1.82952 0
M  V30 1696 H 161.559 -2.42263 3.13248 0
M  V30 1697 H 162.733 0.0262449 4.60793 0
M  V30 1698 H 161.048 -0.134492 4.16183 0
M  V30 1699 H 163.645 -2.89578 4.49498 0
M  V30 1700 H 163.988 -3.08687 2.79317 0
M  V30 1701 H 164.521 -1.61227 3.63663 0
M  V30 1702 H 161.26 -0.760658 6.51072 0
M  V30 1703 H 160.78 -2.1986 5.58052 0
M  V30 1704 H 162.459 -2.01868 6.14702 0
M  V30 1705 N 162.591 -1.51276 -0.441967 0
M  V30 1706 C 163.816 -1.67799 -1.21895 0
M  V30 1707 C 164.241 -0.372864 -1.84367 0
M  V30 1708 O 163.599 0.666501 -1.68604 0
M  V30 1709 C 163.647 -2.79199 -2.28211 0
M  V30 1710 O 162.751 -2.42479 -3.33583 0
M  V30 1711 H 162.092 -0.559649 -0.357336 0
M  V30 1712 H 164.622 -1.97815 -0.522522 0
M  V30 1713 H 164.632 -3.03146 -2.73069 0
M  V30 1714 H 163.307 -3.73906 -1.82118 0
M  V30 1715 H 161.884 -2.29087 -2.94234 0
M  V30 1716 N 164.069 0.697108 -1.41344 0
M  V30 1717 C 165.318 1.45279 -1.39918 0
M  V30 1718 C 165.631 1.95597 -0.0109624 0
M  V30 1719 O 166.837 2.71208 0.125919 0
M  V30 1720 C 165.293 2.62695 -2.46007 0
M  V30 1721 C 164.901 2.19169 -3.90729 0
M  V30 1722 C 166.645 3.40336 -2.53715 0
M  V30 1723 C 164.552 3.33535 -4.88373 0
M  V30 1724 H 163.482 0.545692 -0.520323 0
M  V30 1725 H 166.133 0.756929 -1.67161 0
M  V30 1726 H 164.515 3.34541 -2.11892 0
M  V30 1727 H 165.689 1.54623 -4.34083 0
M  V30 1728 H 164.004 1.54525 -3.86666 0
M  V30 1729 H 166.601 4.2547 -3.2385 0
M  V30 1730 H 166.944 3.85418 -1.5735 0
M  V30 1731 H 167.477 2.75546 -2.86913 0
M  V30 1732 H 164.216 2.93468 -5.86137 0
M  V30 1733 H 163.736 3.96936 -4.49668 0
M  V30 1734 H 165.415 3.99335 -5.09059 0
M  V30 1735 N 165.547 1.27147 0.931209 0
M  V30 1736 C 166.457 1.11372 2.06478 0
M  V30 1737 C 167.473 0.044645 1.73943 0
M  V30 1738 O 168.649 0.250417 1.99837 0
M  V30 1739 C 165.714 0.758838 3.38294 0
M  V30 1740 C 164.775 1.90841 3.84549 0
M  V30 1741 C 164.008 1.57036 5.10074 0
M  V30 1742 O 164.231 0.476645 5.68405 0
M  V30 1743 O 163.165 2.40839 5.51616 0
M  V30 1744 H 166.991 2.06493 2.22698 0
M  V30 1745 H 164.576 1.06301 1.04978 0
M  V30 1746 H 166.458 0.574098 4.17471 0
M  V30 1747 H 165.133 -0.162879 3.2329 0
M  V30 1748 H 164.04 2.14819 3.06274 0
M  V30 1749 H 165.373 2.81021 4.04089 0
M  V30 1750 N 167.025 -1.13721 1.09112 0
M  V30 1751 C 168.302 -1.81155 0.737706 0
M  V30 1752 C 168.682 -1.96253 -0.777683 0
M  V30 1753 O 168.03 -1.52807 -1.69889 0
M  V30 1754 C 168.24 -3.16392 1.47299 0
M  V30 1755 C 169.588 -3.91787 1.63671 0
M  V30 1756 O 170.612 -3.26005 1.43524 0
M  V30 1757 O 169.471 -5.0977 1.96969 0
M  V30 1758 H 166.565 -0.783518 0.26463 0
M  V30 1759 H 169.111 -1.20676 1.19312 0
M  V30 1760 H 167.883 -3.0061 2.50498 0
M  V30 1761 H 167.506 -3.8457 1.00953 0
M  V30 1762 N 168.503 -0.877838 -1.30888 0
M  V30 1763 C 169.466 -0.344265 -2.266 0
M  V30 1764 C 170.466 0.50922 -1.52524 0
M  V30 1765 O 171.656 0.317398 -1.71284 0
M  V30 1766 C 168.788 0.510198 -3.37061 0
M  V30 1767 H 169.981 -1.1893 -2.7531 0
M  V30 1768 H 167.534 -0.654088 -1.41956 0
M  V30 1769 H 168.269 1.37612 -2.93655 0
M  V30 1770 H 168.054 -0.101047 -3.9197 0
M  V30 1771 H 169.544 0.875537 -4.08319 0
M  V30 1772 N 169.982 1.44106 -0.638065 0
M  V30 1773 C 170.945 2.29138 0.0531013 0
M  V30 1774 C 171.945 1.41409 0.765506 0
M  V30 1775 O 173.135 1.63206 0.609046 0
M  V30 1776 C 170.267 3.23144 1.08584 0
M  V30 1777 H 171.46 2.91739 -0.694883 0
M  V30 1778 H 169.013 1.51134 -0.398538 0
M  V30 1779 H 169.748 2.65408 1.86357 0
M  V30 1780 H 169.533 3.87804 0.578852 0
M  V30 1781 H 171.023 3.87004 1.56899 0
M  V30 1782 N 171.46 0.379036 1.52974 0
M  V30 1783 C 172.688 -0.20679 2.05864 0
M  V30 1784 C 173.103 -1.41356 1.25155 0
M  V30 1785 O 172.46 -1.8009 0.295588 0
M  V30 1786 C 172.511 -0.587045 3.56702 0
M  V30 1787 O 172.232 0.571776 4.34353 0
M  V30 1788 C 173.733 -1.22983 4.25899 0
M  V30 1789 H 170.953 -0.0336123 0.670158 0
M  V30 1790 H 173.497 0.541298 1.97206 0
M  V30 1791 H 171.652 -1.28504 3.65466 0
M  V30 1792 H 172.066 0.261544 5.23847 0
M  V30 1793 H 173.54 -1.44635 5.32715 0
M  V30 1794 H 174.017 -2.19416 3.80465 0
M  V30 1795 H 174.623 -0.572892 4.21424 0
M  V30 1796 N 172.938 -1.57226 0.108567 0
M  V30 1797 C 173.868 -2.17778 -0.84232 0
M  V30 1798 C 174.849 -1.11487 -1.2847 0
M  V30 1799 O 176.034 -1.39681 -1.34918 0
M  V30 1800 C 173.164 -2.76888 -2.09644 0
M  V30 1801 C 172.118 -3.88669 -1.79221 0
M  V30 1802 C 171.444 -4.34541 -3.11574 0
M  V30 1803 C 172.744 -5.11251 -1.06864 0
M  V30 1804 H 174.438 -2.97489 -0.337774 0
M  V30 1805 H 171.984 -1.43097 -0.161025 0
M  V30 1806 H 173.937 -3.17904 -2.76614 0
M  V30 1807 H 172.661 -1.94451 -2.62405 0
M  V30 1808 H 171.32 -3.48213 -1.14644 0
M  V30 1809 H 170.968 -3.48977 -3.62249 0
M  V30 1810 H 170.668 -5.09914 -2.91996 0
M  V30 1811 H 172.192 -4.782 -3.7968 0
M  V30 1812 H 173.606 -5.49352 -1.63968 0
M  V30 1813 H 172.003 -5.9214 -0.974178 0
M  V30 1814 H 173.073 -4.8487 -0.0536168 0
M  V30 1815 N 174.416 0.165178 -1.56732 0
M  V30 1816 C 175.665 0.879143 -1.81532 0
M  V30 1817 C 175.978 1.83144 -0.686842 0
M  V30 1818 O 177.184 2.58823 -0.819944 0
M  V30 1819 C 175.64 1.61388 -3.21686 0
M  V30 1820 C 175.248 0.704904 -4.4242 0
M  V30 1821 C 176.992 2.3157 -3.55774 0
M  V30 1822 C 174.899 1.44022 -5.73595 0
M  V30 1823 H 173.829 0.332033 -0.676957 0
M  V30 1824 H 176.48 0.132008 -1.83025 0
M  V30 1825 H 174.862 2.40599 -3.14529 0
M  V30 1826 H 176.036 -0.0506815 -4.60772 0
M  V30 1827 H 174.351 0.112419 -4.16248 0
M  V30 1828 H 176.948 2.8719 -4.51028 0
M  V30 1829 H 177.291 3.07201 -2.8095 0
M  V30 1830 H 177.824 1.59297 -3.64513 0
M  V30 1831 H 174.563 0.72612 -6.51466 0
M  V30 1832 H 174.083 2.16898 -5.5921 0
M  V30 1833 H 175.762 1.98606 -6.15764 0
M  V30 1834 N 175.894 1.51508 0.433938 0
M  V30 1835 C 176.842 1.73646 1.54757 0
M  V30 1836 C 177.836 0.602854 1.5831 0
M  V30 1837 O 179.042 0.784318 1.62014 0
M  V30 1838 H 175.417 0.548718 0.51421 0
M  V30 1839 H 177.388 2.66991 1.33261 0
M  V30 1840 C 176.137 1.88172 2.92381 0
M  V30 1841 H 175.46 2.74808 2.90381 0
M  V30 1842 H 176.9 2.07672 3.6966 0
M  V30 1843 C 175.359 0.64239 3.30719 0
M  V30 1844 O 175.889 -0.201362 4.01195 0
M  V30 1845 N 174.095 0.485489 2.86516 0
M  V30 1846 H 173.642 1.17318 2.29334 0
M  V30 1847 H 173.6 -0.342482 3.12529 0
M  V30 1848 N 177.372 -0.689602 1.41712 0
M  V30 1849 C 178.597 -1.48329 1.44959 0
M  V30 1850 C 179.022 -1.8801 0.0581283 0
M  V30 1851 O 178.38 -1.55026 -0.940035 0
M  V30 1852 C 178.428 -2.71835 2.36935 0
M  V30 1853 O 177.532 -3.69549 1.8305 0
M  V30 1854 H 176.873 -0.446199 0.491734 0
M  V30 1855 H 179.403 -0.847127 1.86239 0
M  V30 1856 H 179.413 -3.20076 2.53013 0
M  V30 1857 H 178.088 -2.42291 3.38035 0
M  V30 1858 H 176.665 -3.2851 1.76452 0
M  V30 1859 N 178.85 -1.27639 -0.924453 0
M  V30 1860 C 180.096 -1.15345 -1.67532 0
M  V30 1861 C 180.451 0.297096 -1.90092 0
M  V30 1862 O 179.744 1.21374 -1.48253 0
M  V30 1863 C 179.938 -1.87407 -3.04325 0
M  V30 1864 C 179.767 -3.3932 -2.95114 0
M  V30 1865 C 178.537 -4.08644 -2.97218 0
M  V30 1866 C 180.735 -4.35242 -2.73987 0
M  V30 1867 N 178.717 -5.47102 -2.78482 0
M  V30 1868 C 180.088 -5.6099 -2.63988 0
M  V30 1869 C 182.143 -4.25294 -2.589 0
M  V30 1870 C 180.846 -6.77924 -2.40442 0
M  V30 1871 C 182.872 -5.41952 -2.36731 0
M  V30 1872 C 182.234 -6.66658 -2.27478 0
M  V30 1873 H 178.333 -0.47696 -0.619704 0
M  V30 1874 H 180.917 -1.6115 -1.09265 0
M  V30 1875 H 179.088 -1.44053 -3.60699 0
M  V30 1876 H 180.82 -1.6759 -3.68369 0
M  V30 1877 H 177.575 -3.60136 -3.07569 0
M  V30 1878 H 177.999 -6.19852 -2.72236 0
M  V30 1879 H 182.641 -3.29598 -2.64811 0
M  V30 1880 H 180.359 -7.73699 -2.3327 0
M  V30 1881 H 183.945 -5.36137 -2.25938 0
M  V30 1882 H 182.825 -7.55405 -2.10555 0
M  V30 1883 N 180.328 1.1314 -1.09713 0
M  V30 1884 C 181.556 1.88321 -0.856898 0
M  V30 1885 C 181.971 1.79276 0.592073 0
M  V30 1886 O 181.328 1.16142 1.40774 0
M  V30 1887 C 181.379 3.37812 -1.28706 0
M  V30 1888 O 181.1 3.46627 -2.67921 0
M  V30 1889 C 182.601 4.29952 -1.07964 0
M  V30 1890 H 179.821 0.596094 -0.308079 0
M  V30 1891 H 182.365 1.43205 -1.45988 0
M  V30 1892 H 180.52 3.805 -0.727912 0
M  V30 1893 H 180.934 4.39579 -2.8613 0
M  V30 1894 H 182.408 5.33159 -1.42986 0
M  V30 1895 H 182.885 4.39196 -0.0176577 0
M  V30 1896 H 183.491 3.93036 -1.62489 0
M  V30 1897 N 181.806 0.884767 1.30421 0
M  V30 1898 C 183.052 0.503851 1.96441 0
M  V30 1899 C 183.385 -0.944518 1.69684 0
M  V30 1900 O 182.66 -1.66737 1.00145 0
M  V30 1901 C 182.943 0.779085 3.51571 0
M  V30 1902 C 182.796 2.27807 3.87846 0
M  V30 1903 C 184.115 0.255452 4.39358 0
M  V30 1904 H 181.234 0.184533 0.713524 0
M  V30 1905 H 183.876 1.10872 1.54297 0
M  V30 1906 H 182.026 0.264274 3.876 0
M  V30 1907 H 183.698 2.86127 3.61841 0
M  V30 1908 H 181.941 2.74479 3.35922 0
M  V30 1909 H 182.612 2.42125 4.96064 0
M  V30 1910 H 185.088 0.696079 4.10236 0
M  V30 1911 H 183.964 0.477361 5.4682 0
M  V30 1912 H 184.225 -0.843293 4.33983 0
M  V30 1913 N 183.284 -1.43765 0.645699 0
M  V30 1914 C 184.509 -2.06767 0.161883 0
M  V30 1915 C 184.934 -1.48034 -1.16049 0
M  V30 1916 O 184.292 -0.587369 -1.71522 0
M  V30 1917 C 184.34 -3.60519 0.0762003 0
M  V30 1918 O 183.444 -4.00982 -0.963721 0
M  V30 1919 H 182.785 -0.657675 0.091429 0
M  V30 1920 H 185.315 -1.84397 0.886499 0
M  V30 1921 H 185.325 -4.07853 -0.109604 0
M  V30 1922 H 184 -4.02646 1.04157 0
M  V30 1923 H 182.577 -3.65253 -0.751312 0
M  V30 1924 N 184.763 -0.387143 -1.52771 0
M  V30 1925 C 185.713 0.465942 -2.23188 0
M  V30 1926 C 186.697 1.03138 -1.23496 0
M  V30 1927 O 187.889 0.957845 -1.48843 0
M  V30 1928 C 185.018 1.59384 -3.04059 0
M  V30 1929 C 184.104 1.04024 -4.11144 0
M  V30 1930 N 184.495 0.211416 -5.05358 0
M  V30 1931 C 182.793 1.31295 -4.26237 0
M  V30 1932 C 183.494 -0.0941698 -5.81624 0
M  V30 1933 N 182.47 0.509207 -5.4121 0
M  V30 1934 H 186.272 -0.173856 -2.93385 0
M  V30 1935 H 183.786 -0.19633 -1.61209 0
M  V30 1936 H 185.783 2.21738 -3.53041 0
M  V30 1937 H 184.443 2.23648 -2.35397 0
M  V30 1938 H 185.454 -0.151151 -5.17679 0
M  V30 1939 H 182.131 1.95679 -3.68803 0
M  V30 1940 H 183.521 -0.765572 -6.67524 0
M  V30 1941 N 186.241 1.57166 -0.116904 0
M  V30 1942 C 187.191 2.11756 0.845178 0
M  V30 1943 C 188.175 1.03783 1.22955 0
M  V30 1944 O 189.367 1.3002 1.20099 0
M  V30 1945 C 186.496 2.71886 2.09602 0
M  V30 1946 C 185.582 3.86937 1.7361 0
M  V30 1947 N 185.973 4.94073 1.08284 0
M  V30 1948 C 184.271 3.97082 2.03082 0
M  V30 1949 C 184.972 5.74477 0.913855 0
M  V30 1950 N 183.948 5.2423 1.43818 0
M  V30 1951 H 187.75 2.91967 0.336523 0
M  V30 1952 H 185.264 1.62174 0.0856332 0
M  V30 1953 H 187.261 3.09338 2.79492 0
M  V30 1954 H 185.921 1.93138 2.61013 0
M  V30 1955 H 186.932 5.12483 0.747067 0
M  V30 1956 H 183.609 3.29372 2.56554 0
M  V30 1957 H 184.999 6.70701 0.40125 0
M  V30 1958 N 187.719 -0.156864 1.56817 0
M  V30 1959 C 188.968 -0.869504 1.81996 0
M  V30 1960 C 189.281 -1.82777 0.696545 0
M  V30 1961 O 190.487 -2.58384 0.833658 0
M  V30 1962 C 188.943 -1.59679 3.22538 0
M  V30 1963 C 188.551 -0.681431 4.42787 0
M  V30 1964 C 190.295 -2.2968 3.56997 0
M  V30 1965 C 188.202 -1.40978 5.74351 0
M  V30 1966 H 187.132 -0.328438 0.678708 0
M  V30 1967 H 189.783 -0.1223 1.83092 0
M  V30 1968 H 188.165 -2.38927 3.158 0
M  V30 1969 H 189.339 0.0751166 4.60739 0
M  V30 1970 H 187.654 -0.0903431 4.16302 0
M  V30 1971 H 190.251 -2.84794 4.52544 0
M  V30 1972 H 190.594 -3.05707 2.82576 0
M  V30 1973 H 191.127 -1.57361 3.65352 0
M  V30 1974 H 187.866 -0.691561 6.51842 0
M  V30 1975 H 187.386 -2.13929 5.60352 0
M  V30 1976 H 189.065 -1.95337 6.16808 0
M  V30 1977 N 189.197 -1.51736 -0.425897 0
M  V30 1978 C 190.129 -1.70083 -1.53638 0
M  V30 1979 C 191.142 -0.581349 -1.52066 0
M  V30 1980 O 192.331 -0.856017 -1.56635 0
M  V30 1981 C 189.431 -1.71078 -2.9255 0
M  V30 1982 C 188.604 -2.99795 -3.185 0
M  V30 1983 C 187.663 -2.92825 -4.37196 0
M  V30 1984 O 186.689 -3.66756 -4.35291 0
M  V30 1985 N 187.891 -2.0946 -5.41393 0
M  V30 1986 H 190.656 -2.65882 -1.383 0
M  V30 1987 H 188.217 -1.49765 -0.614988 0
M  V30 1988 H 190.209 -1.63969 -3.69995 0
M  V30 1989 H 188.779 -0.828242 -3.01428 0
M  V30 1990 H 187.999 -3.20684 -2.2925 0
M  V30 1991 H 189.287 -3.84977 -3.32671 0
M  V30 1992 H 188.685 -1.48792 -5.45781 0
M  V30 1993 H 187.242 -2.08221 -6.17647 0
M  V30 1994 N 190.675 0.682077 -1.42076 0
M  V30 1995 C 191.921 1.44428 -1.42367 0
M  V30 1996 C 192.254 1.94164 -0.0373056 0
M  V30 1997 O 191.529 1.70429 0.937239 0
M  V30 1998 C 191.812 2.64654 -2.44194 0
M  V30 1999 C 191.665 2.20596 -3.91991 0
M  V30 2000 C 192.984 3.66865 -2.431 0
M  V30 2001 H 190.103 0.523834 -0.518428 0
M  V30 2002 H 192.745 0.77576 -1.73442 0
M  V30 2003 H 190.895 3.2169 -2.17826 0
M  V30 2004 H 192.567 1.68783 -4.29313 0
M  V30 2005 H 190.81 1.52242 -4.06208 0
M  V30 2006 H 191.481 3.06921 -4.58807 0
M  V30 2007 H 193.957 3.19531 -2.66532 0
M  V30 2008 H 192.833 4.48577 -3.16339 0
M  V30 2009 H 193.094 4.17493 -1.45437 0
M  V30 2010 N 192.153 1.28127 0.917671 0
M  V30 2011 C 193.083 1.14248 2.03641 0
M  V30 2012 C 194.064 0.0412748 1.7005 0
M  V30 2013 O 195.249 0.217566 1.92977 0
M  V30 2014 C 192.379 0.799431 3.37974 0
M  V30 2015 C 191.333 1.85497 3.85713 0
M  V30 2016 C 190.659 1.36565 5.16966 0
M  V30 2017 C 191.959 3.26085 4.08002 0
M  V30 2018 H 193.653 2.07835 2.15511 0
M  V30 2019 H 191.199 1.00064 1.03553 0
M  V30 2020 H 193.152 0.689114 4.15727 0
M  V30 2021 H 191.876 -0.172145 3.26146 0
M  V30 2022 H 190.535 1.95437 3.10161 0
M  V30 2023 H 190.183 0.383253 5.01538 0
M  V30 2024 H 189.883 2.07143 5.49878 0
M  V30 2025 H 191.407 1.26848 5.97279 0
M  V30 2026 H 192.821 3.19089 4.76293 0
M  V30 2027 H 191.218 3.94462 4.52238 0
M  V30 2028 H 192.288 3.70394 3.12948 0
M  V30 2029 N 193.631 -1.12557 1.10312 0
M  V30 2030 C 194.579 -2.20325 0.745629 0
M  V30 2031 C 195.573 -1.67429 -0.25763 0
M  V30 2032 O 196.779 -1.79612 -0.118132 0
M  V30 2033 H 193.154 -0.718118 0.223182 0
M  V30 2034 H 195.125 -2.47733 1.66346 0
M  V30 2035 C 193.874 -3.47168 0.192262 0
M  V30 2036 H 193.197 -3.88215 0.955475 0
M  V30 2037 H 194.637 -4.23995 -0.0198274 0
M  V30 2038 C 193.096 -3.19298 -1.07472 0
M  V30 2039 O 193.626 -3.3891 -2.15645 0
M  V30 2040 N 191.832 -2.73113 -0.992847 0
M  V30 2041 H 191.379 -2.57354 -0.112474 0
M  V30 2042 H 191.337 -2.54842 -1.84127 0
M  V30 2043 N 195.109 -0.891671 -1.2995 0
M  V30 2044 C 196.358 -0.509521 -1.95158 0
M  V30 2045 C 196.671 0.947388 -1.71125 0
M  V30 2046 O 197.877 1.43669 -2.30372 0
M  V30 2047 C 196.333 -0.860315 -3.49466 0
M  V30 2048 C 195.941 -2.33545 -3.8231 0
M  V30 2049 C 197.685 -0.547687 -4.20952 0
M  V30 2050 C 195.592 -2.62752 -5.29826 0
M  V30 2051 H 194.522 -0.18682 -0.730489 0
M  V30 2052 H 197.173 -1.08756 -1.47798 0
M  V30 2053 H 195.555 -0.211285 -3.95436 0
M  V30 2054 H 196.729 -3.02936 -3.47227 0
M  V30 2055 H 195.044 -2.61629 -3.23944 0
M  V30 2056 H 197.641 -0.742854 -5.29515 0
M  V30 2057 H 197.984 0.51332 -4.13123 0
M  V30 2058 H 198.517 -1.1542 -3.80688 0
M  V30 2059 H 195.256 -3.6762 -5.42712 0
M  V30 2060 H 194.776 -1.97977 -5.66185 0
M  V30 2061 H 196.455 -2.48601 -5.97333 0
M  V30 2062 N 196.587 1.43421 -0.653314 0
M  V30 2063 C 197.55 2.29182 0.0287951 0
M  V30 2064 C 198.55 1.42213 0.750465 0
M  V30 2065 O 199.74 1.63843 0.591701 0
M  V30 2066 C 196.872 3.24278 1.05151 0
M  V30 2067 H 198.065 2.90985 -0.725786 0
M  V30 2068 H 195.618 1.50702 -0.414545 0
M  V30 2069 H 196.353 2.6737 1.83532 0
M  V30 2070 H 196.138 3.88396 0.537687 0
M  V30 2071 H 197.628 3.88647 1.52786 0
M  V30 2072 N 198.065 0.39524 1.52563 0
M  V30 2073 C 199.313 -0.184678 2.01254 0
M  V30 2074 C 199.634 -1.46822 1.28329 0
M  V30 2075 O 198.904 -1.91666 0.405094 0
M  V30 2076 H 197.484 -0.0712355 0.743596 0
M  V30 2077 H 200.146 0.528293 1.87603 0
M  V30 2078 H 199.242 -0.390681 3.09645 0
M  V30 2079 N 199.544 -1.57102 0.125237 0
M  V30 2080 C 200.955 -1.82384 -0.399142 0
M  V30 2081 C 201.306 -1.04276 -1.66195 0
M  V30 2082 O 200.431 -0.281269 -2.14564 0
M  V30 2083 C 201.026 -3.30821 -0.730932 0
M  V30 2084 C 199.585 -3.56762 -1.19992 0
M  V30 2085 C 198.732 -2.7649 -0.211792 0
M  V30 2086 H 201.683 -1.54786 0.350277 0
M  V30 2087 H 201.704 -3.4579 -1.58775 0
M  V30 2088 H 201.216 -3.87643 0.188345 0
M  V30 2089 H 199.317 -3.05305 -2.13588 0
M  V30 2090 H 199.43 -4.65317 -1.14093 0
M  V30 2091 H 197.794 -2.4489 -0.700085 0
M  V30 2092 H 198.577 -3.36073 0.700691 0
M  V30 2093 N 201.022 0.148545 -1.56898 0
M  V30 2094 C 202.438 0.501131 -1.51528 0
M  V30 2095 C 202.638 1.83458 -0.833399 0
M  V30 2096 O 201.694 2.49259 -0.40328 0
M  V30 2097 C 203.007 0.512864 -2.96294 0
M  V30 2098 C 204.555 0.598487 -3.07225 0
M  V30 2099 C 205.03 0.640897 -4.53494 0
M  V30 2100 N 206.521 0.703163 -4.57832 0
M  V30 2101 C 207.256 0.756935 -5.68382 0
M  V30 2102 N 206.752 0.770147 -6.88506 0
M  V30 2103 N 208.545 0.797698 -5.56411 0
M  V30 2104 H 200.696 -0.725532 -1.99624 0
M  V30 2105 H 202.959 -0.264358 -0.910395 0
M  V30 2106 H 202.665 -0.398691 -3.49433 0
M  V30 2107 H 202.539 1.35133 -3.52163 0
M  V30 2108 H 204.926 1.50046 -2.54106 0
M  V30 2109 H 205.007 -0.267093 -2.54402 0
M  V30 2110 H 204.651 -0.256915 -5.0725 0
M  V30 2111 H 204.581 1.52295 -5.04097 0
M  V30 2112 H 207.072 0.700314 -3.71354 0
M  V30 2113 H 207.385 0.812983 -7.68512 0
M  V30 2114 H 205.73 0.738049 -6.9107 0
M  V30 2115 H 208.921 0.784535 -4.61479 0
M  V30 2116 H 209.094 0.83614 -6.42583 0
M  V30 2117 N 202.5 1.5196 0.417844 0
M  V30 2118 C 203.463 1.74065 1.49111 0
M  V30 2119 C 204.463 0.610537 1.48758 0
M  V30 2120 O 205.653 0.87832 1.50437 0
M  V30 2121 C 202.785 1.81502 2.88565 0
M  V30 2122 H 203.978 2.69869 1.30807 0
M  V30 2123 H 201.531 1.42244 0.647785 0
M  V30 2124 H 202.266 0.875813 3.1225 0
M  V30 2125 H 202.051 2.63651 2.90225 0
M  V30 2126 H 203.541 2.00376 3.66387 0
M  V30 2127 N 203.978 -0.674533 1.42435 0
M  V30 2128 C 205.226 -1.43175 1.42637 0
M  V30 2129 C 205.547 -1.94951 0.0438992 0
M  V30 2130 O 204.817 -1.7308 -0.917607 0
M  V30 2131 H 203.397 -0.531307 0.525092 0
M  V30 2132 H 206.059 -0.797006 1.77859 0
M  V30 2133 H 205.155 -2.28463 2.12629 0
M  V30 2134 N 205.456 -1.28612 -0.910864 0
M  V30 2135 C 206.403 -1.12786 -2.01365 0
M  V30 2136 C 207.373 -0.024201 -1.66082 0
M  V30 2137 O 208.558 -0.189667 -1.89855 0
M  V30 2138 C 205.698 -0.798743 -3.35729 0
M  V30 2139 C 204.811 -1.98173 -3.83864 0
M  V30 2140 C 203.946 -1.59298 -5.06752 0
M  V30 2141 C 202.985 -2.74245 -5.47226 0
M  V30 2142 N 202.122 -2.35842 -6.61304 0
M  V30 2143 H 206.962 -2.07142 -2.14234 0
M  V30 2144 H 204.499 -1.03093 -1.0493 0
M  V30 2145 H 206.457 -0.588662 -4.13026 0
M  V30 2146 H 205.087 0.10789 -3.2262 0
M  V30 2147 H 204.139 -2.30386 -3.02699 0
M  V30 2148 H 205.451 -2.84343 -4.09818 0
M  V30 2149 H 204.605 -1.34513 -5.916 0
M  V30 2150 H 203.344 -0.702618 -4.82612 0
M  V30 2151 H 202.349 -2.99725 -4.60918 0
M  V30 2152 H 203.574 -3.63928 -5.73353 0
M  V30 2153 H 201.52 -1.49279 -6.38789 0
M  V30 2154 H 201.437 -3.15546 -6.86998 0
M  V30 2155 H 202.705 -2.14348 -7.4945 0
M  V30 2156 N 206.934 1.1197 -1.10907 0
M  V30 2157 C 208.211 1.79959 -0.766432 0
M  V30 2158 C 208.591 1.97466 0.746363 0
M  V30 2159 O 207.939 1.55491 1.67436 0
M  V30 2160 C 208.149 3.14009 -1.52314 0
M  V30 2161 C 209.497 3.89134 -1.69883 0
M  V30 2162 O 210.521 3.2368 -1.48692 0
M  V30 2163 O 209.38 5.06572 -2.05054 0
M  V30 2164 H 206.474 0.779208 -0.277062 0
M  V30 2165 H 209.02 1.18762 -1.21217 0
M  V30 2166 H 207.792 2.96587 -2.55249 0
M  V30 2167 H 207.415 3.82915 -1.07059 0
M  V30 2168 N 208.412 0.89855 1.29475 0
M  V30 2169 C 209.823 0.572537 1.77705 0
M  V30 2170 C 210.174 -0.911778 1.73727 0
M  V30 2171 O 209.299 -1.71288 1.32247 0
M  V30 2172 C 209.894 1.03252 3.22683 0
M  V30 2173 C 208.453 0.757687 3.68695 0
M  V30 2174 C 207.6 1.20787 2.49612 0
M  V30 2175 H 210.551 1.08139 1.16153 0
M  V30 2176 H 210.572 0.367307 3.78723 0
M  V30 2177 H 210.084 2.11285 3.25546 0
M  V30 2178 H 208.185 -0.310079 3.71308 0
M  V30 2179 H 208.298 1.35476 4.59547 0
M  V30 2180 H 206.662 0.626888 2.46865 0
M  V30 2181 H 207.445 2.29622 2.55203 0
M  V30 2182 N 209.89 -1.43072 0.660911 0
M  V30 2183 C 210.8 -2.34585 -0.0264163 0
M  V30 2184 C 211.816 -1.54316 -0.803898 0
M  V30 2185 O 212.992 -1.86939 -0.749391 0
M  V30 2186 C 210.057 -3.32689 -0.975639 0
M  V30 2187 C 209.118 -4.2886 -0.194236 0
M  V30 2188 C 208.351 -5.22278 -1.09825 0
M  V30 2189 O 208.574 -5.20299 -2.33763 0
M  V30 2190 O 207.508 -5.99228 -0.566513 0
M  V30 2191 H 211.334 -2.94869 0.727034 0
M  V30 2192 H 208.919 -1.43342 0.42111 0
M  V30 2193 H 210.801 -3.92995 -1.52094 0
M  V30 2194 H 209.476 -2.74898 -1.70918 0
M  V30 2195 H 208.383 -3.72011 0.394835 0
M  V30 2196 H 209.716 -4.89655 0.499899 0
M  V30 2197 N 211.368 -0.403325 -1.52352 0
M  V30 2198 C 212.617 0.175668 -2.00934 0
M  V30 2199 C 212.93 1.46718 -1.29356 0
M  V30 2200 O 214.136 2.12708 -1.68724 0
M  V30 2201 C 212.592 0.363612 -3.58058 0
M  V30 2202 C 212.2 -0.915472 -4.38547 0
M  V30 2203 C 213.944 0.89821 -4.14888 0
M  V30 2204 C 211.851 -0.695035 -5.87302 0
M  V30 2205 H 210.781 0.0694234 -0.750797 0
M  V30 2206 H 213.432 -0.527879 -1.75743 0
M  V30 2207 H 211.814 1.12935 -3.79555 0
M  V30 2208 H 212.988 -1.68691 -4.28812 0
M  V30 2209 H 211.303 -1.37606 -3.93006 0
M  V30 2210 H 213.9 1.07907 -5.23699 0
M  V30 2211 H 214.243 1.87126 -3.71873 0
M  V30 2212 H 214.776 0.191681 -3.97338 0
M  V30 2213 H 211.515 -1.63948 -6.34666 0
M  V30 2214 H 211.035 0.0372116 -5.99788 0
M  V30 2215 H 212.714 -0.33497 -6.46132 0
M  V30 2216 N 212.846 1.57033 -0.133567 0
M  V30 2217 C 214.076 1.99754 0.527429 0
M  V30 2218 C 214.484 1.01245 1.59832 0
M  V30 2219 O 213.827 -0.000645496 1.837 0
M  V30 2220 C 213.889 3.38903 1.19939 0
M  V30 2221 C 213.553 4.56174 0.274709 0
M  V30 2222 C 214.55 5.17563 -0.492398 0
M  V30 2223 C 212.235 5.01972 0.18153 0
M  V30 2224 C 214.229 6.2315 -1.34027 0
M  V30 2225 C 211.916 6.07416 -0.669958 0
M  V30 2226 C 212.914 6.67874 -1.42947 0
M  V30 2227 O 212.602 7.71279 -2.2668 0
M  V30 2228 H 212.334 0.660702 0.142999 0
M  V30 2229 H 214.888 2.04207 -0.221099 0
M  V30 2230 H 213.118 3.31248 1.99528 0
M  V30 2231 H 214.807 3.65818 1.75875 0
M  V30 2232 H 215.573 4.83087 -0.430367 0
M  V30 2233 H 211.452 4.54652 0.762422 0
M  V30 2234 H 214.996 6.70268 -1.93357 0
M  V30 2235 H 210.893 6.41321 -0.73333 0
M  V30 2236 H 211.661 7.88441 -2.1978 0
M  V30 2237 N 214.325 -0.140222 1.56975 0
M  V30 2238 C 215.257 -1.19818 1.95388 0
M  V30 2239 C 216.27 -1.38816 0.850525 0
M  V30 2240 O 217.459 -1.38267 1.12891 0
M  V30 2241 C 214.559 -2.56189 2.21857 0
M  V30 2242 C 213.732 -2.58077 3.5315 0
M  V30 2243 C 212.791 -3.76037 3.6808 0
M  V30 2244 O 211.817 -3.60598 4.40406 0
M  V30 2245 N 213.019 -4.93763 3.05251 0
M  V30 2246 H 215.784 -0.871609 2.86746 0
M  V30 2247 H 213.345 -0.32972 1.58507 0
M  V30 2248 H 215.337 -3.33623 2.2908 0
M  V30 2249 H 213.907 -2.81111 1.36731 0
M  V30 2250 H 213.127 -1.6651 3.57307 0
M  V30 2251 H 214.415 -2.56377 4.39486 0
M  V30 2252 H 213.813 -5.09209 2.46419 0
M  V30 2253 H 212.37 -5.68949 3.18026 0
M  V30 2254 N 215.803 -1.52179 -0.40978 0
M  V30 2255 C 216.766 -1.74853 -1.48186 0
M  V30 2256 C 217.766 -0.618417 -1.48433 0
M  V30 2257 O 218.956 -0.886286 -1.49969 0
M  V30 2258 C 216.088 -1.8303 -2.87598 0
M  V30 2259 H 217.281 -2.70559 -1.29374 0
M  V30 2260 H 214.834 -1.42586 -0.640233 0
M  V30 2261 H 215.569 -0.89236 -3.11781 0
M  V30 2262 H 215.354 -2.65187 -2.88822 0
M  V30 2263 H 216.844 -2.02316 -3.65319 0
M  V30 2264 N 217.281 0.66697 -1.42791 0
M  V30 2265 C 218.509 1.45505 -1.47091 0
M  V30 2266 C 218.924 1.8861 -0.0845873 0
M  V30 2267 O 218.281 1.58632 0.90234 0
M  V30 2268 C 218.332 2.69906 -2.40485 0
M  V30 2269 O 218.053 2.28608 -3.73725 0
M  V30 2270 C 219.554 3.63396 -2.53886 0
M  V30 2271 H 216.774 0.447459 -0.500022 0
M  V30 2272 H 219.318 0.818866 -1.8739 0
M  V30 2273 H 217.473 3.29696 -2.03419 0
M  V30 2274 H 217.887 3.08997 -4.23817 0
M  V30 2275 H 219.361 4.47387 -3.2334 0
M  V30 2276 H 219.838 4.09824 -1.57927 0
M  V30 2277 H 220.444 3.09495 -2.91706 0
M  V30 2278 N 218.759 1.29093 0.90403 0
M  V30 2279 C 219.692 1.08176 2.00931 0
M  V30 2280 C 220.67 -0.005083 1.62599 0
M  V30 2281 O 221.854 0.144765 1.87943 0
M  V30 2282 C 218.981 0.645897 3.32484 0
M  V30 2283 C 218.027 1.73081 3.89801 0
M  V30 2284 S 218.86 3.32905 4.19446 0
M  V30 2285 C 220.016 2.91176 5.54046 0
M  V30 2286 H 220.249 2.01752 2.18365 0
M  V30 2287 H 217.782 1.13191 1.0501 0
M  V30 2288 H 219.74 0.401131 4.08535 0
M  V30 2289 H 218.401 -0.270188 3.12936 0
M  V30 2290 H 217.594 1.37768 4.84805 0
M  V30 2291 H 217.196 1.92888 3.20422 0
M  V30 2292 H 219.488 2.37952 6.34338 0
M  V30 2293 H 220.431 3.85014 5.94281 0
M  V30 2294 H 220.839 2.296 5.15698 0
M  V30 2295 N 220.237 -1.11381 1.11499 0
M  V30 2296 C 221.514 -1.7955 0.775965 0
M  V30 2297 C 221.894 -1.97859 -0.73588 0
M  V30 2298 O 221.242 -1.56376 -1.66609 0
M  V30 2299 C 221.452 -3.13196 1.53977 0
M  V30 2300 C 222.8 -3.88227 1.71944 0
M  V30 2301 O 223.824 -3.22887 1.50407 0
M  V30 2302 O 222.683 -5.05477 2.07738 0
M  V30 2303 H 219.777 -0.777728 0.28119 0
M  V30 2304 H 222.323 -1.18118 1.21845 0
M  V30 2305 H 221.095 -2.95229 2.56818 0
M  V30 2306 H 220.718 -3.82342 1.09088 0
M  V30 2307 N 221.715 -0.905404 -1.28997 0
M  V30 2308 C 222.645 -0.404212 -2.29975 0
M  V30 2309 C 223.626 0.523784 -1.61835 0
M  V30 2310 O 224.811 0.433298 -1.89304 0
M  V30 2311 C 221.941 0.364042 -3.45387 0
M  V30 2312 C 220.895 -0.474048 -4.25367 0
M  V30 2313 C 220.221 0.422045 -5.33032 0
M  V30 2314 C 221.521 -1.72696 -4.92923 0
M  V30 2315 H 223.215 -1.24807 -2.72146 0
M  V30 2316 H 220.761 -0.601585 -1.30832 0
M  V30 2317 H 222.714 0.725447 -4.15109 0
M  V30 2318 H 221.438 1.24174 -3.02074 0
M  V30 2319 H 220.097 -0.81786 -3.57361 0
M  V30 2320 H 219.745 1.29804 -4.85963 0
M  V30 2321 H 219.445 -0.135057 -5.87445 0
M  V30 2322 H 220.969 0.779517 -6.05604 0
M  V30 2323 H 222.383 -1.43495 -5.55051 0
M  V30 2324 H 220.78 -2.22582 -5.57295 0
M  V30 2325 H 221.85 -2.45964 -4.17887 0
M  V30 2326 N 223.193 1.4272 -0.668489 0
M  V30 2327 C 224.123 2.335 -0.000100175 0
M  V30 2328 C 225.104 1.50328 0.795964 0
M  V30 2329 O 226.289 1.78949 0.754385 0
M  V30 2330 C 223.419 3.33874 0.956302 0
M  V30 2331 C 222.373 4.27152 0.269278 0
M  V30 2332 C 221.699 5.17684 1.33818 0
M  V30 2333 C 222.999 5.15373 -0.847805 0
M  V30 2334 H 224.693 2.89639 -0.758244 0
M  V30 2335 H 222.239 1.39269 -0.366079 0
M  V30 2336 H 224.192 3.9629 1.43292 0
M  V30 2337 H 222.916 2.76025 1.74579 0
M  V30 2338 H 221.575 3.66123 -0.187042 0
M  V30 2339 H 221.223 4.56165 2.1195 0
M  V30 2340 H 220.923 5.80918 0.883659 0
M  V30 2341 H 222.447 5.82974 1.81586 0
M  V30 2342 H 223.861 5.7151 -0.452681 0
M  V30 2343 H 222.258 5.87407 -1.22773 0
M  V30 2344 H 223.328 4.5415 -1.69929 0
M  V30 2345 N 224.671 0.411399 1.52136 0
M  V30 2346 C 225.581 -0.419774 2.30814 0
M  V30 2347 C 226.597 -1.0515 1.38634 0
M  V30 2348 O 227.773 -1.05252 1.71709 0
M  V30 2349 C 224.838 -1.52019 3.11594 0
M  V30 2350 C 223.899 -0.91129 4.19516 0
M  V30 2351 C 223.132 -1.95927 4.96436 0
M  V30 2352 O 223.355 -3.17775 4.73683 0
M  V30 2353 O 222.289 -1.56423 5.81219 0
M  V30 2354 H 226.115 0.221805 3.02889 0
M  V30 2355 H 223.7 0.174547 1.48377 0
M  V30 2356 H 225.582 -2.15898 3.61892 0
M  V30 2357 H 224.257 -2.14633 2.42311 0
M  V30 2358 H 223.164 -0.235157 3.7336 0
M  V30 2359 H 224.497 -0.32904 4.91099 0
M  V30 2360 N 226.149 -1.5696 0.141893 0
M  V30 2361 C 227.395 -1.9625 -0.511248 0
M  V30 2362 C 227.728 -1.02654 -1.64851 0
M  V30 2363 O 227.003 -0.0679676 -1.94381 0
M  V30 2364 C 227.286 -3.45285 -1.02227 0
M  V30 2365 C 227.139 -4.49658 0.113138 0
M  V30 2366 C 228.458 -3.96698 -1.90574 0
M  V30 2367 H 225.577 -0.713567 -0.184367 0
M  V30 2368 H 228.219 -1.88698 0.222087 0
M  V30 2369 H 226.369 -3.51852 -1.64719 0
M  V30 2370 H 228.041 -4.55174 0.749302 0
M  V30 2371 H 226.284 -4.26857 0.773026 0
M  V30 2372 H 226.955 -5.51258 -0.286053 0
M  V30 2373 H 229.431 -3.92578 -1.37918 0
M  V30 2374 H 228.307 -5.01453 -2.2324 0
M  V30 2375 H 228.568 -3.3875 -2.84079 0
M  V30 2376 N 227.627 0.131896 -1.57047 0
M  V30 2377 C 228.874 0.841932 -1.84168 0
M  V30 2378 C 229.202 1.8048 -0.725066 0
M  V30 2379 O 228.457 1.93618 0.284692 0
M  V30 2380 C 228.756 1.63703 -3.17704 0
M  V30 2381 C 228.422 0.81961 -4.43388 0
M  V30 2382 C 227.084 0.594148 -4.77518 0
M  V30 2383 C 229.436 0.248977 -5.20605 0
M  V30 2384 C 226.764 -0.212409 -5.86315 0
M  V30 2385 C 229.116 -0.544701 -6.30251 0
M  V30 2386 C 227.78 -0.780599 -6.6292 0
M  V30 2387 H 227.05 0.308085 -0.673917 0
M  V30 2388 H 229.697 0.104867 -1.91213 0
M  V30 2389 H 228.002 2.44464 -3.06177 0
M  V30 2390 H 229.699 2.19015 -3.35907 0
M  V30 2391 H 226.289 1.00542 -4.16641 0
M  V30 2392 H 230.473 0.410408 -4.946 0
M  V30 2393 H 225.729 -0.404524 -6.1006 0
M  V30 2394 H 229.903 -0.993922 -6.89271 0
M  V30 2395 H 227.53 -1.40742 -7.47058 0
M  V30 2396 N 229.106 1.52395 0.401703 0
M  V30 2397 C 230.036 1.79231 1.49661 0
M  V30 2398 C 231.017 0.643654 1.57452 0
M  V30 2399 O 232.202 0.889989 1.72606 0
M  V30 2400 C 229.332 1.94971 2.87409 0
M  V30 2401 C 228.286 3.10604 2.94465 0
M  V30 2402 C 227.612 3.11577 4.34538 0
M  V30 2403 C 228.912 4.49921 2.6527 0
M  V30 2404 H 230.606 2.70917 1.27454 0
M  V30 2405 H 228.152 1.30362 0.6117 0
M  V30 2406 H 230.105 2.12328 3.63999 0
M  V30 2407 H 228.829 0.999632 3.10926 0
M  V30 2408 H 227.488 2.93009 2.20321 0
M  V30 2409 H 227.136 2.14277 4.55076 0
M  V30 2410 H 226.836 3.89247 4.40183 0
M  V30 2411 H 228.36 3.31073 5.13053 0
M  V30 2412 H 229.774 4.67683 3.31581 0
M  V30 2413 H 228.171 5.29564 2.82281 0
M  V30 2414 H 229.241 4.57507 1.60671 0
M  V30 2415 N 230.584 -0.659388 1.43143 0
M  V30 2416 C 231.547 -1.75432 1.47501 0
M  V30 2417 C 232.547 -1.56707 0.360512 0
M  V30 2418 O 233.737 -1.62717 0.622002 0
M  V30 2419 C 230.869 -3.14239 1.32162 0
M  V30 2420 H 232.062 -1.7295 2.45006 0
M  V30 2421 H 229.615 -0.870469 1.29817 0
M  V30 2422 H 230.35 -3.22336 0.356401 0
M  V30 2423 H 230.135 -3.29235 2.12948 0
M  V30 2424 H 231.625 -3.94094 1.3813 0
M  V30 2425 O 232.101 -1.40162 -0.802292 0
M  V30 2426 H 232.792 -1.28727 -1.44738 0
M  V30 END ATOM
M  V30 BEGIN BOND
M  V30 END BOND
M  V30 END CTAB
M  END
$$$$
