drugbank_target|P04424 Argininosuccinate lyase (DB00125; DB02267; DB03814)
 OpenBabel12092119333D

  0  0  0     0  0            999 V3000
M  V30 BEGIN CTAB
M  V30 COUNTS 7248 7314 0 0 0
M  V30 BEGIN ATOM
M  V30 1 H -0.908 1.98254 -0.117106 0
M  V30 2 N 0 1.576 0 0
M  V30 3 C 0.933 2.03868 1.02534 0
M  V30 4 C 1.911 0.928543 1.3348 0
M  V30 5 O 3.095 1.19667 1.45644 0
M  V30 6 C 0.222 2.43627 2.35294 0
M  V30 7 C -0.732 3.65373 2.2001 0
M  V30 8 S 0.101 5.13292 1.52614 0
M  V30 9 C 1.257 5.56322 2.86805 0
M  V30 10 H 1.49 2.90518 0.631377 0
M  V30 11 H -0.977 1.52953 0.210867 0
M  V30 12 H 0.981 2.67203 3.11629 0
M  V30 13 H -0.358 1.57376 2.7183 0
M  V30 14 H -1.165 3.90944 3.18086 0
M  V30 15 H -1.563 3.418 1.51819 0
M  V30 16 H 0.729 5.58782 3.83104 0
M  V30 17 H 1.672 6.56266 2.65933 0
M  V30 18 H 2.08 4.83886 2.90714 0
M  V30 19 N 1.4781 -0.272755 1.55222 0
M  V30 20 C 2.4411 -1.32041 1.87344 0
M  V30 21 C 3.4411 -1.42342 0.74803 0
M  V30 22 O 4.6311 -1.41488 1.0162 0
M  V30 23 C 1.7631 -2.70173 2.07893 0
M  V30 24 H 2.9561 -1.04789 2.80997 0
M  V30 25 H 0.5091 -0.51083 1.47717 0
M  V30 26 H 1.2441 -3.02605 1.16622 0
M  V30 27 H 1.0291 -2.64082 2.89833 0
M  V30 28 H 2.5191 -3.45869 2.34017 0
M  V30 29 N 2.9562 -1.48159 -0.537278 0
M  V30 30 C 4.1812 -1.59707 -1.32319 0
M  V30 31 C 4.6062 -0.254859 -1.86365 0
M  V30 32 O 3.9642 0.772378 -1.64024 0
M  V30 33 C 4.0122 -2.6412 -2.45505 0
M  V30 34 O 3.1162 -2.20774 -3.48328 0
M  V30 35 H 2.4572 -0.535791 -0.392204 0
M  V30 36 H 4.9872 -1.94092 -0.647268 0
M  V30 37 H 4.9972 -2.85166 -2.91795 0
M  V30 38 H 3.6722 -3.61567 -2.05528 0
M  V30 39 H 2.2492 -2.09911 -3.08207 0
M  V30 40 N 4.4343 0.785586 -1.36625 0
M  V30 41 C 5.3443 1.92964 -1.33425 0
M  V30 42 C 6.3603 1.72394 -0.235851 0
M  V30 43 O 7.5363 1.95866 -0.468878 0
M  V30 44 C 4.6013 3.27884 -1.12662 0
M  V30 45 C 3.6623 3.61204 -2.32013 0
M  V30 46 C 2.8953 4.89687 -2.12231 0
M  V30 47 O 3.1183 5.59704 -1.09945 0
M  V30 48 O 2.0523 5.21752 -3.00098 0
M  V30 49 H 5.8783 1.98613 -2.29753 0
M  V30 50 H 3.4633 0.926384 -1.17211 0
M  V30 51 H 5.3453 4.08614 -1.03016 0
M  V30 52 H 4.0203 3.23118 -0.193991 0
M  V30 53 H 2.9273 2.80765 -2.47228 0
M  V30 54 H 4.2603 3.70698 -3.23796 0
M  V30 55 N 5.9124 1.20967 1.01018 0
M  V30 56 C 7.1374 1.0503 1.78839 0
M  V30 57 C 7.5624 -0.395752 1.8389 0
M  V30 58 O 6.9204 -1.28529 1.27867 0
M  V30 59 C 6.9684 1.64602 3.2084 0
M  V30 60 O 6.0724 0.887988 4.02726 0
M  V30 61 H 5.4134 0.369987 0.551367 0
M  V30 62 H 7.9434 1.60399 1.27018 0
M  V30 63 H 7.9534 1.68607 3.71532 0
M  V30 64 H 6.6284 2.69841 3.16479 0
M  V30 65 H 5.2054 0.922648 3.61305 0
M  V30 66 N 7.3905 -1.2043 1.01659 0
M  V30 67 C 8.6385 -1.89423 0.704522 0
M  V30 68 C 8.9595 -1.79231 -0.768197 0
M  V30 69 O 8.2295 -1.1947 -1.55254 0
M  V30 70 H 6.8095 -0.701178 0.257602 0
M  V30 71 H 9.4715 -1.4626 1.28818 0
M  V30 72 H 8.5675 -2.96052 0.987916 0
M  V30 73 N 8.8686 -0.792821 -1.36206 0
M  V30 74 C 9.8156 -0.191653 -2.30003 0
M  V30 75 C 10.7856 0.666453 -1.52143 0
M  V30 76 O 11.9706 0.61442 -1.80636 0
M  V30 77 C 9.1106 0.664848 -3.38635 0
M  V30 78 C 8.2236 -0.212175 -4.31479 0
M  V30 79 C 7.3586 0.651022 -5.27196 0
M  V30 80 C 6.3976 -0.227247 -6.11678 0
M  V30 81 N 5.5346 0.595127 -6.99573 0
M  V30 82 H 10.3746 -0.996978 -2.80828 0
M  V30 83 H 7.9116 -0.503206 -1.38225 0
M  V30 84 H 9.8696 1.17645 -4.00269 0
M  V30 85 H 8.4996 1.43557 -2.89122 0
M  V30 86 H 7.5516 -0.841777 -3.70969 0
M  V30 87 H 8.8636 -0.888751 -4.90818 0
M  V30 88 H 8.0176 1.2283 -5.94136 0
M  V30 89 H 6.7566 1.36121 -4.68319 0
M  V30 90 H 5.7616 -0.816904 -5.43697 0
M  V30 91 H 6.9866 -0.93509 -6.72631 0
M  V30 92 H 4.9326 1.28955 -6.432 0
M  V30 93 H 4.8496 -0.0236952 -7.55996 0
M  V30 94 H 6.1176 1.15613 -7.70879 0
M  V30 95 N 10.3467 1.47872 -0.545128 0
M  V30 96 C 11.2767 2.32661 0.197793 0
M  V30 97 C 12.2577 1.43041 0.920504 0
M  V30 98 O 13.4427 1.71912 0.90333 0
M  V30 99 C 10.5727 3.24569 1.23582 0
M  V30 100 C 9.5267 4.23333 0.630323 0
M  V30 101 C 8.8527 5.0448 1.77211 0
M  V30 102 C 10.1527 5.20704 -0.407974 0
M  V30 103 H 11.8467 2.95024 -0.510045 0
M  V30 104 H 9.3927 1.4187 -0.246731 0
M  V30 105 H 11.3457 3.8272 1.76362 0
M  V30 106 H 10.0697 2.60236 1.97344 0
M  V30 107 H 8.7287 3.6639 0.123922 0
M  V30 108 H 8.3767 4.36561 2.49847 0
M  V30 109 H 8.0767 5.71339 1.37281 0
M  V30 110 H 9.6007 5.65487 2.3034 0
M  V30 111 H 11.0147 5.7329 0.033305 0
M  V30 112 H 9.4117 5.95699 -0.725486 0
M  V30 113 H 10.4817 4.66917 -1.30828 0
M  V30 114 N 11.8248 0.280983 1.55075 0
M  V30 115 C 13.0708 -0.327573 2.00745 0
M  V30 116 C 13.4258 -1.53045 1.16598 0
M  V30 117 O 12.7188 -1.90221 0.229451 0
M  V30 118 C 12.9128 -0.754656 3.49342 0
M  V30 119 C 12.7418 0.40529 4.4787 0
M  V30 120 C 11.5118 0.890947 4.97383 0
M  V30 121 C 13.7098 1.24371 4.99035 0
M  V30 122 N 11.6918 2.01975 5.79724 0
M  V30 123 C 13.0628 2.22031 5.7888 0
M  V30 124 C 15.1178 1.27638 4.81262 0
M  V30 125 C 13.8208 3.22709 6.42846 0
M  V30 126 C 15.8468 2.27164 5.46031 0
M  V30 127 C 15.2088 3.23556 6.25692 0
M  V30 128 H 11.3078 -0.0848774 0.77738 0
M  V30 129 H 13.8918 0.406342 1.90413 0
M  V30 130 H 12.0628 -1.45778 3.60005 0
M  V30 131 H 13.7948 -1.34105 3.81835 0
M  V30 132 H 10.5498 0.469262 4.71269 0
M  V30 133 H 10.9738 2.58794 6.25584 0
M  V30 134 H 15.6158 0.544936 4.19274 0
M  V30 135 H 13.3338 3.96784 7.0398 0
M  V30 136 H 16.9198 2.30441 5.34217 0
M  V30 137 H 15.7998 3.99309 6.74924 0
M  V30 138 N 13.3029 -1.57598 0.00835791 0
M  V30 139 C 14.5509 -1.90551 -0.6734 0
M  V30 140 C 14.8719 -0.883301 -1.73847 0
M  V30 141 O 14.1419 0.0781442 -1.95744 0
M  V30 142 H 12.7219 -0.703312 -0.251717 0
M  V30 143 H 15.3839 -1.94833 0.0512592 0
M  V30 144 H 14.4799 -2.9056 -1.13935 0
M  V30 145 N 14.781 0.264519 -1.55364 0
M  V30 146 C 16.029 0.993021 -1.76021 0
M  V30 147 C 16.35 1.86511 -0.569099 0
M  V30 148 O 15.62 1.91438 0.415735 0
M  V30 149 H 14.2 0.369639 -0.649135 0
M  V30 150 H 16.862 0.286707 -1.9278 0
M  V30 151 H 15.958 1.62502 -2.66457 0
M  V30 152 N 16.2591 1.48442 0.529413 0
M  V30 153 C 17.6751 1.34575 0.858004 0
M  V30 154 C 17.8751 0.3572 1.98309 0
M  V30 155 O 16.9311 -0.221379 2.51528 0
M  V30 156 C 18.2441 2.74617 1.22499 0
M  V30 157 C 19.7921 2.83109 1.33484 0
M  V30 158 C 20.2671 4.23854 1.73526 0
M  V30 159 N 21.7581 4.2653 1.80628 0
M  V30 160 C 22.4931 5.32372 2.12997 0
M  V30 161 N 21.9891 6.48491 2.43786 0
M  V30 162 N 23.7821 5.19766 2.14008 0
M  V30 163 H 15.9331 2.1133 -0.212925 0
M  V30 164 H 18.1961 0.947439 -0.0326199 0
M  V30 165 H 17.9021 3.4852 0.471905 0
M  V30 166 H 17.7761 3.08177 2.17501 0
M  V30 167 H 20.1631 2.09462 2.0787 0
M  V30 168 H 20.2441 2.53168 0.366027 0
M  V30 169 H 19.8881 4.98018 0.997013 0
M  V30 170 H 19.8181 4.5124 2.71459 0
M  V30 171 H 22.3091 3.42772 1.59108 0
M  V30 172 H 22.6221 7.24993 2.67592 0
M  V30 173 H 20.9671 6.51765 2.41304 0
M  V30 174 H 24.1581 4.28066 1.89412 0
M  V30 175 H 24.3311 6.02354 2.38902 0
M  V30 176 N 17.7372 -0.778329 1.37039 0
M  V30 177 C 18.9842 -1.53665 1.31884 0
M  V30 178 C 19.3122 -1.9425 -0.0986303 0
M  V30 179 O 18.5672 -1.63832 -1.07041 0
M  V30 180 C 18.8662 -2.81845 2.19768 0
M  V30 181 C 18.5322 -2.60345 3.68146 0
M  V30 182 C 17.1942 -2.5419 4.08584 0
M  V30 183 C 19.5462 -2.40923 4.62175 0
M  V30 184 C 16.8742 -2.26594 5.41177 0
M  V30 185 C 19.2262 -2.14852 5.94997 0
M  V30 186 C 17.8902 -2.07137 6.34547 0
M  V30 187 H 17.1602 -0.562299 0.482598 0
M  V30 188 H 19.8072 -0.897069 1.69189 0
M  V30 189 H 18.1122 -3.50328 1.75436 0
M  V30 190 H 19.8092 -3.39692 2.13097 0
M  V30 191 H 16.3992 -2.65996 3.36072 0
M  V30 192 H 20.5832 -2.44673 4.31797 0
M  V30 193 H 15.8392 -2.19111 5.70789 0
M  V30 194 H 20.0132 -1.98822 6.67415 0
M  V30 195 H 17.6402 -1.85518 7.37216 0
M  V30 196 N 19.2153 -1.21501 -1.00376 0
M  V30 197 C 20.4613 -1.03452 -1.74429 0
M  V30 198 C 20.7943 0.430764 -1.89362 0
M  V30 199 O 20.0693 1.31962 -1.42886 0
M  V30 200 C 20.3523 -1.73375 -3.15615 0
M  V30 201 C 20.2053 -3.27431 -3.08397 0
M  V30 202 C 21.5243 -1.47732 -4.14564 0
M  V30 203 H 18.6433 -0.377226 -0.633143 0
M  V30 204 H 21.2853 -1.49693 -1.17013 0
M  V30 205 H 19.4353 -1.34064 -3.64636 0
M  V30 206 H 21.1073 -3.76119 -2.67081 0
M  V30 207 H 19.3503 -3.5767 -2.45468 0
M  V30 208 H 20.0213 -3.71524 -4.08258 0
M  V30 209 H 22.4973 -1.8186 -3.74254 0
M  V30 210 H 21.3733 -1.99169 -5.11491 0
M  V30 211 H 21.6343 -0.407589 -4.40217 0
M  V30 212 N 20.6934 1.19889 -1.02296 0
M  V30 213 C 21.9414 1.89046 -0.714558 0
M  V30 214 C 22.2624 1.79636 0.758681 0
M  V30 215 O 21.5324 1.20292 1.54618 0
M  V30 216 H 20.1124 0.699802 -0.261317 0
M  V30 217 H 22.7744 1.45574 -1.29592 0
M  V30 218 H 21.8704 2.95524 -1.0036 0
M  V30 219 N 22.1715 0.800033 1.35784 0
M  V30 220 C 23.1345 0.211565 2.28221 0
M  V30 221 C 24.1345 -0.59728 1.49296 0
M  V30 222 O 25.3245 -0.416721 1.69142 0
M  V30 223 C 22.4565 -0.705846 3.33513 0
M  V30 224 H 23.6495 1.02677 2.81776 0
M  V30 225 H 21.2025 0.570211 1.45528 0
M  V30 226 H 21.9375 -1.54498 2.85133 0
M  V30 227 H 21.7225 -0.127655 3.91892 0
M  V30 228 H 23.2125 -1.11211 4.02519 0
M  V30 229 N 23.6496 -1.47581 0.552962 0
M  V30 230 C 24.8956 -2.02782 0.0273648 0
M  V30 231 C 25.2286 -1.42687 -1.31734 0
M  V30 232 O 24.5036 -0.580897 -1.85623 0
M  V30 233 C 24.7866 -3.60031 -0.0702371 0
M  V30 234 C 24.6396 -4.30566 1.30126 0
M  V30 235 C 25.9586 -4.33028 -0.785771 0
M  V30 236 H 23.0776 -0.736912 0.0114185 0
M  V30 237 H 25.7196 -1.76056 0.714432 0
M  V30 238 H 23.8696 -3.82932 -0.655382 0
M  V30 239 H 25.5416 -4.19018 1.92929 0
M  V30 240 H 23.7846 -3.91086 1.87709 0
M  V30 241 H 24.4556 -5.39114 1.18573 0
M  V30 242 H 26.9316 -4.15095 -0.288982 0
M  V30 243 H 25.8076 -5.42695 -0.823013 0
M  V30 244 H 26.0686 -4.01945 -1.841 0
M  V30 245 N 25.1277 -0.289203 -1.54924 0
M  V30 246 C 26.4047 0.376032 -1.91951 0
M  V30 247 C 26.7847 1.72622 -1.21511 0
M  V30 248 O 26.1327 2.25853 -0.346767 0
M  V30 249 C 26.3427 0.502378 -3.45365 0
M  V30 250 C 27.6907 0.778741 -4.17398 0
M  V30 251 O 28.7147 0.586647 -3.51336 0
M  V30 252 O 27.5737 1.14698 -5.34328 0
M  V30 253 H 24.6677 0.208167 -0.800372 0
M  V30 254 H 27.2137 -0.336394 -1.66332 0
M  V30 255 H 25.9857 -0.447255 -3.88736 0
M  V30 256 H 25.6087 1.26373 -3.76982 0
M  V30 257 N 26.6058 1.57591 -0.0167156 0
M  V30 258 C 28.0168 1.79201 0.523834 0
M  V30 259 C 28.3678 0.925796 1.72984 0
M  V30 260 O 27.4928 0.132792 2.15992 0
M  V30 261 C 28.0878 3.25 0.957091 0
M  V30 262 C 26.6468 3.47648 1.44283 0
M  V30 263 C 25.7938 2.74374 0.401757 0
M  V30 264 H 28.7448 1.56831 -0.242816 0
M  V30 265 H 28.7658 3.34031 1.82219 0
M  V30 266 H 28.2778 3.88019 0.0791415 0
M  V30 267 H 26.3788 2.89866 2.34113 0
M  V30 268 H 26.4918 4.56352 1.45877 0
M  V30 269 H 24.8558 2.39485 0.867121 0
M  V30 270 H 25.6388 3.40102 -0.467513 0
M  V30 271 N 28.0839 -0.256276 1.55502 0
M  V30 272 C 29.3329 -0.983486 1.76098 0
M  V30 273 C 29.6459 -1.86837 0.578896 0
M  V30 274 O 30.8519 -2.63163 0.667648 0
M  V30 275 C 29.3079 -1.79868 3.1173 0
M  V30 276 C 28.9159 -0.961648 4.37557 0
M  V30 277 C 30.6599 -2.51919 3.41668 0
M  V30 278 C 28.5669 -1.77219 5.64223 0
M  V30 279 H 27.4969 -0.370936 0.656447 0
M  V30 280 H 30.1479 -0.238492 1.81944 0
M  V30 281 H 28.5299 -2.58527 2.99966 0
M  V30 282 H 29.7039 -0.218048 4.60284 0
M  V30 283 H 28.0189 -0.354913 4.14885 0
M  V30 284 H 30.6159 -3.12998 4.33516 0
M  V30 285 H 30.9589 -3.23059 2.62562 0
M  V30 286 H 31.4919 -1.80278 3.54605 0
M  V30 287 H 28.2309 -1.10471 6.46124 0
M  V30 288 H 27.7509 -2.49132 5.45613 0
M  V30 289 H 29.4299 -2.34169 6.03137 0
M  V30 290 N 29.562 -1.4872 -0.521534 0
M  V30 291 C 30.495 -1.58451 -1.64221 0
M  V30 292 C 31.473 -0.434513 -1.56687 0
M  V30 293 O 32.657 -0.647275 -1.77038 0
M  V30 294 C 29.784 -1.52037 -3.02659 0
M  V30 295 C 28.83 -2.71981 -3.28525 0
M  V30 296 S 29.663 -4.33869 -3.13876 0
M  V30 297 C 30.819 -4.30067 -4.54745 0
M  V30 298 H 31.052 -2.53256 -1.55719 0
M  V30 299 H 28.585 -1.37358 -0.705143 0
M  V30 300 H 30.543 -1.49023 -3.82495 0
M  V30 301 H 29.204 -0.585541 -3.08594 0
M  V30 302 H 28.397 -2.63656 -4.29536 0
M  V30 303 H 27.999 -2.72302 -2.56374 0
M  V30 304 H 30.291 -4.00521 -5.46433 0
M  V30 305 H 31.234 -5.31287 -4.68123 0
M  V30 306 H 31.642 -3.60419 -4.34463 0
M  V30 307 N 31.0401 0.771051 -1.3745 0
M  V30 308 C 31.9501 1.91538 -1.35464 0
M  V30 309 C 32.9661 1.72134 -0.254123 0
M  V30 310 O 34.1421 1.95358 -0.489626 0
M  V30 311 C 31.2071 3.26671 -1.16134 0
M  V30 312 C 30.2681 3.58723 -2.35831 0
M  V30 313 C 29.5011 4.87409 -2.17413 0
M  V30 314 O 29.7241 5.58506 -1.15876 0
M  V30 315 O 28.6581 5.18539 -3.05615 0
M  V30 316 H 32.4841 1.96165 -2.31847 0
M  V30 317 H 30.0691 0.9139 -1.18187 0
M  V30 318 H 31.9511 4.07499 -1.07345 0
M  V30 319 H 30.6261 3.22894 -0.228251 0
M  V30 320 H 29.5331 2.78127 -2.50192 0
M  V30 321 H 30.8661 3.67243 -3.27709 0
M  V30 322 N 32.5182 1.22032 0.997298 0
M  V30 323 C 33.4652 0.986467 2.08656 0
M  V30 324 C 34.4352 -0.0902671 1.65855 0
M  V30 325 O 35.6202 0.0584294 1.90711 0
M  V30 326 C 32.7602 0.565569 3.40434 0
M  V30 327 C 31.8732 1.71259 3.96604 0
M  V30 328 C 31.0082 1.24011 5.16522 0
M  V30 329 C 30.0472 2.35896 5.64818 0
M  V30 330 N 29.1842 1.89726 6.7598 0
M  V30 331 H 34.0242 1.91892 2.27994 0
M  V30 332 H 31.5612 0.956199 1.11782 0
M  V30 333 H 33.5192 0.302738 4.161 0
M  V30 334 H 32.1492 -0.329879 3.2111 0
M  V30 335 H 31.2012 2.08986 3.17851 0
M  V30 336 H 32.5132 2.55436 4.28432 0
M  V30 337 H 31.6672 0.934395 5.99461 0
M  V30 338 H 30.4062 0.368487 4.86306 0
M  V30 339 H 29.4112 2.67261 4.8047 0
M  V30 340 H 30.6362 3.23567 5.97061 0
M  V30 341 H 28.5822 1.0492 6.47555 0
M  V30 342 H 28.4992 2.67471 7.07103 0
M  V30 343 H 29.7672 1.62211 7.62435 0
M  V30 344 N 33.9963 -1.19345 1.0293 0
M  V30 345 C 35.2433 -1.89038 0.726008 0
M  V30 346 C 35.5713 -1.79649 -0.745427 0
M  V30 347 O 34.8263 -1.18354 -1.55855 0
M  V30 348 C 35.1253 -3.39292 1.12319 0
M  V30 349 C 34.7913 -3.68885 2.59297 0
M  V30 350 C 33.4533 -3.76671 2.99453 0
M  V30 351 C 35.8053 -3.82178 3.54386 0
M  V30 352 C 33.1333 -3.9522 4.33611 0
M  V30 353 C 35.4853 -4.0224 4.88248 0
M  V30 354 C 34.1493 -4.08259 5.28092 0
M  V30 355 H 33.4193 -0.691739 0.265665 0
M  V30 356 H 36.0663 -1.41328 1.29223 0
M  V30 357 H 34.3713 -3.88903 0.475584 0
M  V30 358 H 36.0683 -3.91536 0.866037 0
M  V30 359 H 32.6583 -3.63433 2.27189 0
M  V30 360 H 36.8423 -3.75505 3.24514 0
M  V30 361 H 32.0983 -3.98119 4.64016 0
M  V30 362 H 36.2723 -4.11468 5.61843 0
M  V30 363 H 33.8993 -4.22384 6.32057 0
M  V30 364 N 35.4744 -0.807222 -1.35358 0
M  V30 365 C 36.4224 -0.20614 -2.31685 0
M  V30 366 C 37.4164 0.644445 -1.56663 0
M  V30 367 O 38.6224 0.537538 -1.71786 0
M  V30 368 H 34.9974 -0.0479006 -0.750473 0
M  V30 369 H 36.9684 -1.03369 -2.79924 0
M  V30 370 C 35.7174 0.630212 -3.41941 0
M  V30 371 H 35.0404 -0.0149558 -3.99797 0
M  V30 372 H 36.4804 1.01716 -4.11619 0
M  V30 373 C 34.9394 1.79601 -2.85035 0
M  V30 374 O 35.4694 2.89351 -2.78637 0
M  V30 375 N 33.6754 1.60774 -2.42074 0
M  V30 376 H 33.2224 0.715009 -2.47478 0
M  V30 377 H 33.1804 2.38933 -2.04349 0
M  V30 378 N 36.9525 1.47285 -0.560781 0
M  V30 379 C 37.9155 2.28535 0.174488 0
M  V30 380 C 38.9155 1.37153 0.839388 0
M  V30 381 O 40.1055 1.59748 0.694702 0
M  V30 382 C 37.2375 3.16934 1.25561 0
M  V30 383 H 38.4305 2.95012 -0.539262 0
M  V30 384 H 35.9835 1.53034 -0.317865 0
M  V30 385 H 36.7185 2.55157 2.00164 0
M  V30 386 H 36.5035 3.8419 0.783604 0
M  V30 387 H 37.9935 3.78143 1.77193 0
M  V30 388 N 38.4306 0.297415 1.54768 0
M  V30 389 C 39.6556 -0.318435 2.04941 0
M  V30 390 C 40.0806 -1.4701 1.17345 0
M  V30 391 O 39.4386 -1.80436 0.176758 0
M  V30 392 C 39.4866 -0.755749 3.52592 0
M  V30 393 O 38.5906 -1.86088 3.68028 0
M  V30 394 H 37.9316 -0.062421 0.661059 0
M  V30 395 H 40.4616 0.438215 1.99852 0
M  V30 396 H 40.4716 -1.04552 3.94376 0
M  V30 397 H 39.1466 0.0867233 4.1581 0
M  V30 398 H 37.7236 -1.57193 3.38149 0
M  V30 399 N 39.9087 -1.5758 0.0250728 0
M  V30 400 C 41.1577 -1.90811 -0.653767 0
M  V30 401 C 41.4707 -0.90273 -1.73523 0
M  V30 402 O 42.6767 -1.12614 -2.47043 0
M  V30 403 C 41.1327 -3.38804 -1.21409 0
M  V30 404 C 40.7407 -4.47692 -0.166126 0
M  V30 405 C 42.4847 -3.81108 -1.86967 0
M  V30 406 C 40.3917 -5.86779 -0.737856 0
M  V30 407 H 39.3217 -0.712063 -0.247956 0
M  V30 408 H 41.9727 -1.83281 0.0897137 0
M  V30 409 H 40.3547 -3.41252 -2.00905 0
M  V30 410 H 41.5287 -4.56797 0.606079 0
M  V30 411 H 39.8437 -4.14565 0.390466 0
M  V30 412 H 42.4407 -4.82375 -2.30692 0
M  V30 413 H 42.7837 -3.15953 -2.71071 0
M  V30 414 H 43.3167 -3.81065 -1.14167 0
M  V30 415 H 40.0557 -6.55468 0.0649577 0
M  V30 416 H 39.5757 -5.81288 -1.47864 0
M  V30 417 H 41.2547 -6.35223 -1.22884 0
M  V30 418 N 41.3868 0.248026 -1.55636 0
M  V30 419 C 42.3498 1.29044 -1.89421 0
M  V30 420 C 43.3498 1.41134 -0.770581 0
M  V30 421 O 44.5398 1.39854 -1.03858 0
M  V30 422 C 41.6718 2.66831 -2.12165 0
M  V30 423 H 42.8648 1.00305 -2.82629 0
M  V30 424 H 40.4178 0.487265 -1.48511 0
M  V30 425 H 41.1528 3.00711 -1.21422 0
M  V30 426 H 40.9378 2.59438 -2.93997 0
M  V30 427 H 42.4278 3.42103 -2.3949 0
M  V30 428 N 42.8649 1.48995 0.513639 0
M  V30 429 C 44.0949 1.61297 1.291 0
M  V30 430 C 44.5029 0.278656 1.87137 0
M  V30 431 O 43.8459 -0.744325 1.67945 0
M  V30 432 C 43.9079 2.61326 2.46879 0
M  V30 433 C 43.5719 4.05993 2.09807 0
M  V30 434 C 44.5689 4.93183 1.64519 0
M  V30 435 C 42.2539 4.51642 2.19829 0
M  V30 436 C 44.2479 6.24056 1.2974 0
M  V30 437 C 41.9349 5.82532 1.84662 0
M  V30 438 C 42.9329 6.68562 1.3969 0
M  V30 439 O 42.6209 7.97014 1.04992 0
M  V30 440 H 42.3529 0.546236 0.39825 0
M  V30 441 H 44.9069 1.95673 0.62459 0
M  V30 442 H 43.1369 2.22104 3.16554 0
M  V30 443 H 44.8259 2.6329 3.08923 0
M  V30 444 H 45.5919 4.59147 1.56233 0
M  V30 445 H 41.4709 3.84855 2.53786 0
M  V30 446 H 45.0149 6.91161 0.945659 0
M  V30 447 H 40.9119 6.16099 1.92594 0
M  V30 448 H 41.6799 8.09913 1.18249 0
M  V30 449 N 44.343 -0.763751 1.37857 0
M  V30 450 C 45.62 -1.51244 1.24035 0
M  V30 451 C 46 -2.10472 -0.162649 0
M  V30 452 O 45.348 -1.96206 -1.17112 0
M  V30 453 C 45.558 -2.58694 2.34261 0
M  V30 454 C 46.906 -3.25878 2.72193 0
M  V30 455 O 47.93 -2.68993 2.33497 0
M  V30 456 O 46.789 -4.2874 3.38887 0
M  V30 457 H 43.883 -0.670243 0.484462 0
M  V30 458 H 46.429 -0.800031 1.49658 0
M  V30 459 H 45.201 -2.13105 3.2818 0
M  V30 460 H 44.824 -3.37527 2.10146 0
M  V30 461 N 45.8211 -1.22559 -0.990812 0
M  V30 462 C 47.2371 -0.985996 -1.255 0
M  V30 463 C 47.4371 0.319173 -1.98956 0
M  V30 464 O 46.4931 1.04127 -2.3003 0
M  V30 465 C 47.8061 -2.18607 -2.06474 0
M  V30 466 C 49.3541 -2.22985 -2.19651 0
M  V30 467 C 49.8291 -3.4255 -3.04012 0
M  V30 468 N 51.3201 -3.42725 -3.11599 0
M  V30 469 C 52.0551 -4.31892 -3.7717 0
M  V30 470 N 51.5511 -5.31279 -4.44651 0
M  V30 471 N 53.3441 -4.19662 -3.73952 0
M  V30 472 H 45.4951 -2.06469 -0.49841 0
M  V30 473 H 47.7581 -0.904853 -0.282747 0
M  V30 474 H 47.4641 -3.13267 -1.59865 0
M  V30 475 H 47.3381 -2.18838 -3.07229 0
M  V30 476 H 49.7251 -1.28871 -2.65474 0
M  V30 477 H 49.8061 -2.26791 -1.18319 0
M  V30 478 H 49.4501 -4.36965 -2.58889 0
M  V30 479 H 49.3801 -3.35984 -4.0549 0
M  V30 480 H 51.8711 -2.70807 -2.63575 0
M  V30 481 H 52.1841 -5.95593 -4.92431 0
M  V30 482 H 50.5291 -5.3519 -4.43392 0
M  V30 483 H 53.7201 -3.41268 -3.20396 0
M  V30 484 H 53.8931 -4.89358 -4.24774 0
M  V30 485 N 47.2992 1.18797 -1.03562 0
M  V30 486 C 48.2492 2.20161 -0.592724 0
M  V30 487 C 49.2332 1.56772 0.362133 0
M  V30 488 O 50.4252 1.76062 0.182009 0
M  V30 489 C 47.5542 3.43266 0.0481024 0
M  V30 490 C 46.6402 4.13786 -0.9296 0
M  V30 491 N 47.0312 4.60388 -2.09467 0
M  V30 492 C 45.3292 4.39572 -0.754499 0
M  V30 493 C 46.0302 5.14619 -2.71187 0
M  V30 494 N 45.0062 5.05826 -1.991 0
M  V30 495 H 48.8082 2.53877 -1.48066 0
M  V30 496 H 46.3222 1.34946 -0.903514 0
M  V30 497 H 48.3192 4.15136 0.383058 0
M  V30 498 H 46.9792 3.11048 0.931636 0
M  V30 499 H 47.9902 4.54999 -2.47379 0
M  V30 500 H 44.6672 4.17425 0.0793713 0
M  V30 501 H 46.0572 5.60917 -3.69895 0
M  V30 502 N 48.7773 0.814389 1.34928 0
M  V30 503 C 49.7073 0.244827 2.32213 0
M  V30 504 C 50.6883 -0.634024 1.57842 0
M  V30 505 O 51.8733 -0.562676 1.8587 0
M  V30 506 C 49.0033 -0.601106 3.42058 0
M  V30 507 C 47.9573 0.179896 4.27622 0
M  V30 508 C 47.2833 -0.788237 5.28858 0
M  V30 509 C 48.5833 1.38329 5.03649 0
M  V30 510 H 50.2773 1.05763 2.80097 0
M  V30 511 H 47.8233 0.510029 1.34665 0
M  V30 512 H 49.7763 -1.00968 4.09125 0
M  V30 513 H 48.5003 -1.44688 2.92802 0
M  V30 514 H 47.1593 0.569739 3.62146 0
M  V30 515 H 46.8073 -1.62973 4.75866 0
M  V30 516 H 46.5073 -0.269942 5.8698 0
M  V30 517 H 48.0313 -1.19485 5.98795 0
M  V30 518 H 49.4453 1.04918 5.63618 0
M  V30 519 H 47.8423 1.83662 5.71304 0
M  V30 520 H 48.9123 2.16592 4.33839 0
M  V30 521 N 50.2554 -1.46986 0.568584 0
M  V30 522 C 51.5014 -2.0332 0.0571487 0
M  V30 523 C 51.8564 -1.43384 -1.28291 0
M  V30 524 O 51.1494 -0.584304 -1.82473 0
M  V30 525 C 51.3434 -3.57306 -0.081836 0
M  V30 526 C 51.1724 -4.32174 1.24321 0
M  V30 527 C 49.9424 -4.71633 1.81358 0
M  V30 528 C 52.1404 -4.66598 2.16312 0
M  V30 529 N 50.1224 -5.31191 3.07748 0
M  V30 530 C 51.4934 -5.26578 3.27285 0
M  V30 531 C 53.5484 -4.48527 2.16166 0
M  V30 532 C 52.2514 -5.70395 4.38226 0
M  V30 533 C 54.2774 -4.93351 3.26127 0
M  V30 534 C 53.6394 -5.5339 4.3582 0
M  V30 535 H 49.7384 -0.77943 0.063351 0
M  V30 536 H 52.3224 -1.79323 0.758378 0
M  V30 537 H 50.4934 -3.81046 -0.752207 0
M  V30 538 H 52.2254 -4.00282 -0.59637 0
M  V30 539 H 48.9804 -4.53946 1.35019 0
M  V30 540 H 49.4044 -5.65505 3.72201 0
M  V30 541 H 54.0464 -4.01456 1.32638 0
M  V30 542 H 51.7644 -6.16452 5.22506 0
M  V30 543 H 55.3504 -4.81131 3.27115 0
M  V30 544 H 54.2304 -5.87441 5.19503 0
M  V30 545 N 51.7335 -0.305618 -1.54608 0
M  V30 546 C 52.6435 0.57778 -2.27374 0
M  V30 547 C 53.6595 1.14451 -1.31061 0
M  V30 548 O 54.8355 1.16831 -1.6405 0
M  V30 549 C 51.9005 1.73123 -3.00382 0
M  V30 550 C 50.9615 1.19812 -4.12242 0
M  V30 551 C 50.1945 2.2966 -4.81759 0
M  V30 552 O 50.4175 3.49651 -4.50666 0
M  V30 553 O 49.3515 1.96091 -5.69062 0
M  V30 554 H 53.1775 -0.012624 -3.03697 0
M  V30 555 H 50.7625 -0.0719184 -1.49227 0
M  V30 556 H 52.6445 2.40315 -3.4616 0
M  V30 557 H 51.3195 2.30815 -2.26949 0
M  V30 558 H 50.2265 0.491798 -3.70853 0
M  V30 559 H 51.5595 0.666566 -4.87666 0
M  V30 560 N 53.2116 1.57565 -0.0334293 0
M  V30 561 C 54.4576 1.92262 0.645226 0
M  V30 562 C 54.7906 0.910543 1.71531 0
M  V30 563 O 54.0656 -0.066099 1.94388 0
M  V30 564 C 54.3486 3.37422 1.2577 0
M  V30 565 C 54.2016 4.49369 0.196891 0
M  V30 566 C 55.5206 3.82628 2.17449 0
M  V30 567 H 52.6396 0.699171 0.233085 0
M  V30 568 H 55.2816 1.89779 -0.0915694 0
M  V30 569 H 53.4316 3.39669 1.88566 0
M  V30 570 H 55.1036 4.59254 -0.433962 0
M  V30 571 H 53.3466 4.31168 -0.477137 0
M  V30 572 H 54.0176 5.47978 0.665124 0
M  V30 573 H 56.4936 3.82145 1.64634 0
M  V30 574 H 55.3696 4.84883 2.57254 0
M  V30 575 H 55.6306 3.18376 3.0674 0
M  V30 576 N 54.6897 -0.239769 1.55765 0
M  V30 577 C 55.9667 -0.990056 1.68693 0
M  V30 578 C 56.3467 -2.03107 0.5754 0
M  V30 579 O 55.6947 -2.24604 -0.42017 0
M  V30 580 C 55.9047 -1.61696 3.09282 0
M  V30 581 C 57.2527 -2.11613 3.6811 0
M  V30 582 O 58.2767 -1.71624 3.12127 0
M  V30 583 O 57.1357 -2.85057 4.66267 0
M  V30 584 H 54.2297 -0.461299 0.686391 0
M  V30 585 H 56.7757 -0.232991 1.68093 0
M  V30 586 H 55.5477 -0.864357 3.81634 0
M  V30 587 H 55.1707 -2.44005 3.13923 0
M  V30 588 N 56.1678 -1.49265 -0.50573 0
M  V30 589 C 57.4138 -1.58748 -1.26202 0
M  V30 590 C 57.7468 -0.271227 -1.92297 0
M  V30 591 O 57.0218 0.724831 -1.80489 0
M  V30 592 C 57.3048 -2.74332 -2.33268 0
M  V30 593 C 57.1578 -4.15737 -1.71705 0
M  V30 594 C 58.4768 -2.85576 -3.34865 0
M  V30 595 H 55.5958 -0.577826 -0.457478 0
M  V30 596 H 58.2378 -1.81532 -0.560897 0
M  V30 597 H 56.3878 -2.55036 -2.93068 0
M  V30 598 H 58.0598 -4.46537 -1.15769 0
M  V30 599 H 56.3028 -4.21605 -1.02135 0
M  V30 600 H 56.9738 -4.92477 -2.49341 0
M  V30 601 H 59.4498 -3.03127 -2.8505 0
M  V30 602 H 58.3258 -3.68135 -4.07146 0
M  V30 603 H 58.5868 -1.94732 -3.96903 0
M  V30 604 N 57.6459 0.756429 -1.3826 0
M  V30 605 C 58.5779 1.87971 -1.31147 0
M  V30 606 C 59.5909 1.61248 -0.224239 0
M  V30 607 O 60.7799 1.71881 -0.481581 0
M  V30 608 C 57.8799 3.23545 -1.00857 0
M  V30 609 C 57.0529 3.77794 -2.20432 0
M  V30 610 C 56.1119 4.91877 -1.86931 0
M  V30 611 O 55.1379 5.06659 -2.59395 0
M  V30 612 N 56.3399 5.74643 -0.822568 0
M  V30 613 H 59.1049 1.94585 -2.2794 0
M  V30 614 H 56.6659 0.936234 -1.32084 0
M  V30 615 H 58.6579 3.97403 -0.765021 0
M  V30 616 H 57.2279 3.12335 -0.128687 0
M  V30 617 H 56.4479 2.95534 -2.6087 0
M  V30 618 H 57.7359 4.10771 -3.00241 0
M  V30 619 H 57.1339 5.65266 -0.221575 0
M  V30 620 H 55.6909 6.48661 -0.638899 0
M  V30 621 N 59.124 1.23083 0.984299 0
M  V30 622 C 60.372 1.05848 1.72165 0
M  V30 623 C 60.693 -0.406049 1.90726 0
M  V30 624 O 59.963 -1.29139 1.47309 0
M  V30 625 H 58.543 0.388685 0.637913 0
M  V30 626 H 61.205 1.54736 1.18503 0
M  V30 627 H 60.301 1.54327 2.71274 0
M  V30 628 N 60.6021 -1.18246 1.0419 0
M  V30 629 C 61.8271 -1.92736 0.765996 0
M  V30 630 C 62.2521 -1.75728 -0.67091 0
M  V30 631 O 61.6101 -1.06825 -1.46486 0
M  V30 632 C 61.6581 -3.42148 1.13875 0
M  V30 633 O 60.7621 -4.11548 0.264954 0
M  V30 634 H 60.1031 -0.601238 0.281797 0
M  V30 635 H 62.6331 -1.49942 1.39207 0
M  V30 636 H 62.6431 -3.92858 1.1012 0
M  V30 637 H 61.3181 -3.53848 2.18551 0
M  V30 638 H 59.8951 -3.71137 0.362226 0
M  V30 639 N 62.0802 -0.821533 -1.34494 0
M  V30 640 C 63.0272 -0.240397 -2.29545 0
M  V30 641 C 63.9972 0.634031 -1.53523 0
M  V30 642 O 65.1822 0.575966 -1.81899 0
M  V30 643 C 62.3222 0.592869 -3.39969 0
M  V30 644 C 61.4352 -0.30365 -4.30932 0
M  V30 645 C 60.5702 0.539049 -5.28458 0
M  V30 646 C 59.6092 -0.356942 -6.11058 0
M  V30 647 N 58.7462 0.446603 -7.00678 0
M  V30 648 H 63.5862 -1.05632 -2.7865 0
M  V30 649 H 61.1232 -0.532413 -1.37127 0
M  V30 650 H 63.0812 1.09129 -4.02675 0
M  V30 651 H 61.7112 1.37392 -2.92102 0
M  V30 652 H 60.7632 -0.920276 -3.691 0
M  V30 653 H 62.0752 -0.992661 -4.88823 0
M  V30 654 H 61.2292 1.102 -5.96608 0
M  V30 655 H 59.9682 1.26157 -4.71101 0
M  V30 656 H 58.9732 -0.932047 -5.41842 0
M  V30 657 H 60.1982 -1.07755 -6.70497 0
M  V30 658 H 58.1442 1.15282 -6.45791 0
M  V30 659 H 58.0612 -0.184048 -7.55776 0
M  V30 660 H 59.3292 0.992352 -7.73158 0
M  V30 661 N 63.5583 1.46682 -0.576371 0
M  V30 662 C 64.5213 2.28707 0.150239 0
M  V30 663 C 65.5213 1.38035 0.824794 0
M  V30 664 O 66.7113 1.60476 0.677719 0
M  V30 665 C 63.8433 3.18248 1.22192 0
M  V30 666 H 65.0363 2.94423 -0.570521 0
M  V30 667 H 62.5893 1.52688 -0.334078 0
M  V30 668 H 63.3243 2.57265 1.97447 0
M  V30 669 H 63.1093 3.85 0.742812 0
M  V30 670 H 64.5993 3.80001 1.73172 0
M  V30 671 N 65.0364 0.313813 1.54444 0
M  V30 672 C 66.2664 -0.293491 2.04505 0
M  V30 673 C 66.6744 -1.47086 1.19005 0
M  V30 674 O 66.0174 -1.82481 0.211257 0
M  V30 675 C 66.0794 -0.800455 3.50475 0
M  V30 676 C 65.7434 0.253322 4.56297 0
M  V30 677 C 66.7404 1.08612 5.08428 0
M  V30 678 C 64.4254 0.398708 5.00715 0
M  V30 679 C 66.4194 2.05013 6.0353 0
M  V30 680 C 64.1064 1.36614 5.95634 0
M  V30 681 C 65.1044 2.19033 6.46926 0
M  V30 682 O 64.7924 3.14134 7.39983 0
M  V30 683 H 64.5244 -0.0658325 0.672787 0
M  V30 684 H 67.0784 0.455177 2.00293 0
M  V30 685 H 65.3084 -1.59987 3.52053 0
M  V30 686 H 66.9974 -1.32504 3.83663 0
M  V30 687 H 67.7634 0.984736 4.74898 0
M  V30 688 H 63.6424 -0.23289 4.60411 0
M  V30 689 H 67.1864 2.69382 6.4349 0
M  V30 690 H 63.0834 1.4682 6.28581 0
M  V30 691 H 63.8514 3.0926 7.57826 0
M  V30 692 N 66.5145 -1.57545 0.0417849 0
M  V30 693 C 67.7395 -1.97035 -0.647455 0
M  V30 694 C 68.1645 -0.918775 -1.64135 0
M  V30 695 O 67.5225 0.119006 -1.80909 0
M  V30 696 C 67.5705 -3.35609 -1.31905 0
M  V30 697 O 66.6745 -3.3287 -2.43457 0
M  V30 698 H 66.0155 -0.64211 -0.169086 0
M  V30 699 H 68.5455 -2.04318 0.107399 0
M  V30 700 H 68.5555 -3.72126 -1.67291 0
M  V30 701 H 67.2305 -4.11685 -0.590586 0
M  V30 702 H 65.8075 -3.08087 -2.10088 0
M  V30 703 N 67.9926 0.231505 -1.5589 0
M  V30 704 C 69.4086 0.580748 -1.48659 0
M  V30 705 C 69.6086 1.87617 -0.73498 0
M  V30 706 O 68.6646 2.51046 -0.270586 0
M  V30 707 C 69.9776 0.669202 -2.93159 0
M  V30 708 C 71.5256 0.760499 -3.03621 0
M  V30 709 C 72.0006 0.880383 -4.49459 0
M  V30 710 N 73.4916 0.944861 -4.53461 0
M  V30 711 C 74.2266 1.05716 -5.63571 0
M  V30 712 N 73.7226 1.13403 -6.83456 0
M  V30 713 N 75.5156 1.09152 -5.514 0
M  V30 714 H 67.6666 -0.618695 -2.03189 0
M  V30 715 H 69.9296 -0.215728 -0.923128 0
M  V30 716 H 69.6356 -0.212904 -3.51055 0
M  V30 717 H 69.5096 1.5361 -3.44505 0
M  V30 718 H 71.8966 1.63305 -2.45796 0
M  V30 719 H 71.9776 -0.131864 -2.5546 0
M  V30 720 H 71.6216 0.0123284 -5.07899 0
M  V30 721 H 71.5516 1.78802 -4.95316 0
M  V30 722 H 74.0426 0.896176 -3.6712 0
M  V30 723 H 74.3556 1.21921 -7.63122 0
M  V30 724 H 72.7006 1.10333 -6.86186 0
M  V30 725 H 75.8916 1.02805 -4.56671 0
M  V30 726 H 76.0646 1.17558 -6.37247 0
M  V30 727 N 69.4707 1.49531 0.497807 0
M  V30 728 C 70.7187 1.58865 1.24926 0
M  V30 729 C 71.0397 0.278721 1.92998 0
M  V30 730 O 70.3097 -0.702144 1.82885 0
M  V30 731 H 68.8897 0.585343 0.464094 0
M  V30 732 H 71.5517 1.86174 0.57666 0
M  V30 733 H 70.6477 2.38633 2.01149 0
M  V30 734 N 70.9488 -0.749086 1.3866 0
M  V30 735 C 71.8788 -1.8764 1.38973 0
M  V30 736 C 72.8598 -1.68178 0.255004 0
M  V30 737 O 74.0448 -1.88704 0.458754 0
M  V30 738 C 71.1748 -3.25222 1.21851 0
M  V30 739 C 70.1288 -3.59295 2.32575 0
M  V30 740 C 69.4548 -4.95663 2.00555 0
M  V30 741 C 70.7548 -3.63709 3.7485 0
M  V30 742 H 72.4488 -1.87635 2.3331 0
M  V30 743 H 69.9948 -0.901329 1.12303 0
M  V30 744 H 71.9478 -4.03746 1.20695 0
M  V30 745 H 70.6718 -3.25719 0.239775 0
M  V30 746 H 69.3308 -2.83093 2.32925 0
M  V30 747 H 68.9788 -4.92724 1.01154 0
M  V30 748 H 68.6788 -5.19429 2.74714 0
M  V30 749 H 70.2028 -5.7656 2.01024 0
M  V30 750 H 71.6168 -4.32338 3.76506 0
M  V30 751 H 70.0138 -3.98986 4.48252 0
M  V30 752 H 71.0838 -2.63834 4.06841 0
M  V30 753 N 72.4269 -1.23603 -0.977757 0
M  V30 754 C 73.3369 -1.03632 -2.1047 0
M  V30 755 C 74.3529 0.0199435 -1.73989 0
M  V30 756 O 75.5289 -0.176076 -2.00629 0
M  V30 757 C 72.5939 -0.63276 -3.40877 0
M  V30 758 C 71.6549 -1.76437 -3.91367 0
M  V30 759 C 70.8879 -1.37997 -5.15551 0
M  V30 760 O 71.1109 -0.265357 -5.69782 0
M  V30 761 O 70.0449 -2.20201 -5.60174 0
M  V30 762 H 73.8709 -1.98086 -2.30208 0
M  V30 763 H 71.4559 -1.02332 -1.08851 0
M  V30 764 H 73.3379 -0.418761 -4.19314 0
M  V30 765 H 72.0129 0.282754 -3.22463 0
M  V30 766 H 70.9199 -2.03304 -3.14036 0
M  V30 767 H 72.2529 -2.6583 -4.14241 0
M  V30 768 N 73.905 1.17692 -1.04816 0
M  V30 769 C 74.852 2.21581 -0.645797 0
M  V30 770 C 75.822 1.62367 0.350159 0
M  V30 771 O 77.007 1.89254 0.242433 0
M  V30 772 C 74.147 3.45092 -0.0227568 0
M  V30 773 C 73.26 4.18613 -1.06709 0
M  V30 774 C 72.395 5.29602 -0.411767 0
M  V30 775 C 71.434 5.94904 -1.44067 0
M  V30 776 N 70.571 6.97414 -0.809781 0
M  V30 777 H 75.411 2.55353 -1.5362 0
M  V30 778 H 72.948 1.25438 -0.768364 0
M  V30 779 H 74.906 4.15679 0.35588 0
M  V30 780 H 73.536 3.11917 0.831122 0
M  V30 781 H 72.588 3.46779 -1.5636 0
M  V30 782 H 73.9 4.63293 -1.84827 0
M  V30 783 H 73.054 6.06696 0.0206623 0
M  V30 784 H 71.793 4.86045 0.401438 0
M  V30 785 H 70.798 5.16544 -1.88316 0
M  V30 786 H 72.023 6.40542 -2.25571 0
M  V30 787 H 69.969 6.55998 -0.0170186 0
M  V30 788 H 69.886 7.40386 -1.52856 0
M  V30 789 H 71.154 7.78463 -0.401999 0
M  V30 790 N 75.3831 0.828654 1.34056 0
M  V30 791 C 76.3461 0.259927 2.27721 0
M  V30 792 C 77.3461 -0.565478 1.50529 0
M  V30 793 O 78.5361 -0.38075 1.69988 0
M  V30 794 C 75.6681 -0.634944 3.34935 0
M  V30 795 H 76.8611 1.0863 2.79534 0
M  V30 796 H 74.4141 0.600951 1.44285 0
M  V30 797 H 75.1491 -1.48416 2.88346 0
M  V30 798 H 74.9341 -0.0444999 3.92075 0
M  V30 799 H 76.4241 -1.02648 4.04788 0
M  V30 800 N 76.8612 -1.46375 0.584142 0
M  V30 801 C 78.1092 -2.01978 0.0701287 0
M  V30 802 C 78.4302 -1.4579 -1.295 0
M  V30 803 O 77.7002 -0.64314 -1.85042 0
M  V30 804 H 76.2802 -0.746648 0.0229345 0
M  V30 805 H 78.9422 -1.79461 0.760245 0
M  V30 806 H 78.0382 -3.121 0.0022064 0
M  V30 807 N 78.3393 -0.321999 -1.54275 0
M  V30 808 C 79.2693 0.537411 -2.27231 0
M  V30 809 C 80.2503 1.12064 -1.27968 0
M  V30 810 O 81.4353 1.14606 -1.56777 0
M  V30 811 C 78.5653 1.69919 -3.02894 0
M  V30 812 C 77.5193 1.24534 -4.09482 0
M  V30 813 C 76.8453 2.49394 -4.72977 0
M  V30 814 C 78.1453 0.361335 -5.21049 0
M  V30 815 H 79.8393 -0.0711406 -2.99315 0
M  V30 816 H 77.3853 -0.0356555 -1.43956 0
M  V30 817 H 79.3383 2.30668 -3.52662 0
M  V30 818 H 78.0623 2.33431 -2.28424 0
M  V30 819 H 76.7213 0.660782 -3.60596 0
M  V30 820 H 76.3693 3.11265 -3.95124 0
M  V30 821 H 76.0693 2.19718 -5.44975 0
M  V30 822 H 77.5933 3.10908 -5.25517 0
M  V30 823 H 79.0073 0.875072 -5.66582 0
M  V30 824 H 77.4043 0.157428 -5.99893 0
M  V30 825 H 78.4743 -0.60822 -4.8107 0
M  V30 826 N 79.8174 1.5752 -0.0501392 0
M  V30 827 C 80.7474 2.14502 0.922566 0
M  V30 828 C 81.7284 1.06642 1.3252 0
M  V30 829 O 82.9134 1.34577 1.4001 0
M  V30 830 C 80.0434 2.68916 2.19776 0
M  V30 831 C 78.9974 3.8175 1.93523 0
M  V30 832 C 78.3234 4.22677 3.27487 0
M  V30 833 C 79.6234 5.06932 1.25765 0
M  V30 834 H 81.3174 2.9603 0.447952 0
M  V30 835 H 78.8634 1.42401 0.214024 0
M  V30 836 H 80.8164 3.07419 2.88222 0
M  V30 837 H 79.5404 1.84578 2.69441 0
M  V30 838 H 78.1994 3.43718 1.27489 0
M  V30 839 H 77.8474 3.35291 3.74952 0
M  V30 840 H 77.5474 4.98725 3.1072 0
M  V30 841 H 79.0714 4.63779 3.97166 0
M  V30 842 H 80.4854 5.42888 1.84244 0
M  V30 843 H 78.8824 5.88116 1.19328 0
M  V30 844 H 79.9524 4.84337 0.233536 0
M  V30 845 N 81.2955 -0.223234 1.56011 0
M  V30 846 C 82.5235 -0.964812 1.83027 0
M  V30 847 C 82.9385 -1.78013 0.62904 0
M  V30 848 O 82.2955 -1.78008 -0.402414 0
M  V30 849 C 82.3465 -1.88373 3.08542 0
M  V30 850 O 82.0675 -1.10137 4.2403 0
M  V30 851 C 83.5685 -2.73934 3.48533 0
M  V30 852 H 80.7885 -0.282842 0.608475 0
M  V30 853 H 83.3325 -0.238971 2.03099 0
M  V30 854 H 81.4875 -2.56354 2.9045 0
M  V30 855 H 81.9015 -1.72501 4.95322 0
M  V30 856 H 83.3755 -3.34117 4.39397 0
M  V30 857 H 83.8525 -3.46244 2.70207 0
M  V30 858 H 84.4585 -2.11369 3.69057 0
M  V30 859 N 82.7736 -1.49793 -0.48987 0
M  V30 860 C 83.7206 -1.67281 -1.59014 0
M  V30 861 C 84.6906 -0.514177 -1.57941 0
M  V30 862 O 85.8756 -0.742533 -1.75759 0
M  V30 863 C 83.0156 -1.75569 -2.97102 0
M  V30 864 C 82.1286 -3.0281 -3.08107 0
M  V30 865 C 81.2636 -3.02008 -4.36995 0
M  V30 866 C 80.3026 -4.23782 -4.41673 0
M  V30 867 N 79.4396 -4.20826 -5.62005 0
M  V30 868 H 84.2796 -2.61224 -1.43409 0
M  V30 869 H 81.8166 -1.29508 -0.697565 0
M  V30 870 H 83.7746 -1.78354 -3.77155 0
M  V30 871 H 82.4046 -0.850827 -3.11385 0
M  V30 872 H 81.4566 -3.09584 -2.21047 0
M  V30 873 H 82.7686 -3.92801 -3.07423 0
M  V30 874 H 81.9226 -3.03418 -5.25378 0
M  V30 875 H 80.6616 -2.09815 -4.4026 0
M  V30 876 H 79.6666 -4.22604 -3.5169 0
M  V30 877 H 80.8916 -5.17181 -4.40115 0
M  V30 878 H 78.8376 -3.31476 -5.66091 0
M  V30 879 H 78.7546 -5.04564 -5.62984 0
M  V30 880 H 80.0226 -4.26355 -6.52565 0
M  V30 881 N 84.2517 0.741722 -1.39055 0
M  V30 882 C 85.2147 1.83733 -1.37021 0
M  V30 883 C 86.2147 1.58542 -0.268534 0
M  V30 884 O 87.4047 1.66067 -0.526076 0
M  V30 885 C 84.5367 3.2141 -1.13617 0
M  V30 886 H 85.7297 1.86941 -2.34506 0
M  V30 887 H 83.2827 0.944676 -1.24521 0
M  V30 888 H 84.0177 3.23865 -0.167863 0
M  V30 889 H 83.8027 3.4109 -1.93391 0
M  V30 890 H 85.2927 4.01477 -1.14918 0
M  V30 891 N 85.7298 1.2412 0.971189 0
M  V30 892 C 86.6398 1.04747 2.09917 0
M  V30 893 C 87.6558 -0.0107162 1.73997 0
M  V30 894 O 88.8318 0.186714 2.00533 0
M  V30 895 C 85.8968 0.650828 3.40537 0
M  V30 896 C 84.9578 1.7851 3.90426 0
M  V30 897 C 84.1908 1.40729 5.14812 0
M  V30 898 O 84.4138 0.29557 5.69634 0
M  V30 899 O 83.3478 2.23168 5.58999 0
M  V30 900 H 87.1738 1.99304 2.29154 0
M  V30 901 H 84.7588 1.02908 1.08307 0
M  V30 902 H 86.6408 0.440992 4.19086 0
M  V30 903 H 85.3158 -0.265649 3.22608 0
M  V30 904 H 84.2228 2.04966 3.12953 0
M  V30 905 H 85.5558 2.68023 4.12825 0
M  V30 906 N 87.2079 -1.17134 1.05439 0
M  V30 907 C 88.1409 -2.2012 0.601855 0
M  V30 908 C 89.1189 -1.58314 -0.370854 0
M  V30 909 O 90.3029 -1.8638 -0.281882 0
M  V30 910 C 87.4299 -3.38491 -0.118868 0
M  V30 911 C 86.4759 -4.18752 0.809242 0
M  V30 912 S 87.3089 -4.83602 2.29977 0
M  V30 913 C 88.4649 -6.0536 1.59029 0
M  V30 914 H 88.6979 -2.58165 1.47438 0
M  V30 915 H 86.2309 -1.27788 0.866573 0
M  V30 916 H 88.1889 -4.07084 -0.528495 0
M  V30 917 H 86.8499 -2.98829 -0.967465 0
M  V30 918 H 86.0429 -5.03373 0.251379 0
M  V30 919 H 85.6449 -3.5561 1.15835 0
M  V30 920 H 87.9369 -6.71615 0.891017 0
M  V30 921 H 88.8799 -6.65679 2.41407 0
M  V30 922 H 89.2879 -5.54138 1.07663 0
M  V30 923 N 88.686 -0.835752 -1.33615 0
M  V30 924 C 89.963 -0.352017 -1.92406 0
M  V30 925 C 90.343 1.16225 -1.76224 0
M  V30 926 O 89.691 1.97526 -1.14873 0
M  V30 927 C 89.901 -0.795485 -3.39813 0
M  V30 928 C 91.249 -0.801703 -4.16963 0
M  V30 929 O 92.273 -0.738889 -3.48452 0
M  V30 930 O 91.132 -0.886607 -5.3926 0
M  V30 931 H 88.226 -0.0989641 -0.821057 0
M  V30 932 H 90.772 -0.921397 -1.42507 0
M  V30 933 H 89.544 -1.83795 -3.45449 0
M  V30 934 H 89.167 -0.202505 -3.97084 0
M  V30 935 N 90.1641 1.46063 -0.591896 0
M  V30 936 C 91.0961 2.28539 0.174001 0
M  V30 937 C 92.1091 1.39047 0.846753 0
M  V30 938 O 93.2981 1.63564 0.714774 0
M  V30 939 C 90.3981 3.14347 1.26645 0
M  V30 940 C 89.5711 4.32021 0.683856 0
M  V30 941 C 88.6301 4.99157 1.66518 0
M  V30 942 O 87.6561 5.56458 1.19763 0
M  V30 943 N 88.8581 4.97005 2.99943 0
M  V30 944 H 91.6231 2.94911 -0.533633 0
M  V30 945 H 89.1841 1.56077 -0.430294 0
M  V30 946 H 91.1761 3.56125 1.92242 0
M  V30 947 H 89.7461 2.49988 1.87682 0
M  V30 948 H 88.9661 3.93915 -0.1498 0
M  V30 949 H 90.2541 5.08059 0.274567 0
M  V30 950 H 89.6521 4.51714 3.40545 0
M  V30 951 H 88.2091 5.42696 3.61004 0
M  V30 952 N 91.6422 0.330177 1.54103 0
M  V30 953 C 92.8912 -0.271336 1.99867 0
M  V30 954 C 93.2042 -1.52723 1.22209 0
M  V30 955 O 94.4102 -2.20515 1.58383 0
M  V30 956 C 92.8662 -0.534032 3.55916 0
M  V30 957 C 92.4742 0.705193 4.42415 0
M  V30 958 C 94.2182 -1.09514 4.1013 0
M  V30 959 C 92.1252 0.414035 5.89949 0
M  V30 960 H 91.0552 -0.105166 0.74663 0
M  V30 961 H 93.7062 0.443429 1.78062 0
M  V30 962 H 92.0882 -1.30915 3.73734 0
M  V30 963 H 93.2622 1.4804 4.36372 0
M  V30 964 H 91.5772 1.18698 3.99124 0
M  V30 965 H 94.1742 -1.3277 5.17954 0
M  V30 966 H 94.5172 -2.04656 3.62521 0
M  V30 967 H 95.0502 -0.381038 3.95971 0
M  V30 968 H 91.7892 1.33481 6.41766 0
M  V30 969 H 91.3092 -0.323336 5.98928 0
M  V30 970 H 92.9882 0.0263105 6.46995 0
M  V30 971 N 93.1203 -1.57491 0.0584922 0
M  V30 972 C 94.0503 -2.14988 -0.911178 0
M  V30 973 C 95.0313 -1.07343 -1.31952 0
M  V30 974 O 96.2163 -1.35318 -1.39294 0
M  V30 975 C 93.3463 -2.70078 -2.18347 0
M  V30 976 C 92.3003 -3.82771 -1.91495 0
M  V30 977 C 91.6263 -4.24408 -3.25241 0
M  V30 978 C 92.9263 -5.07592 -1.23075 0
M  V30 979 H 94.6203 -2.96263 -0.432246 0
M  V30 980 H 92.1663 -1.42512 -0.206469 0
M  V30 981 H 94.1193 -3.08943 -2.86587 0
M  V30 982 H 92.8433 -1.86005 -2.68458 0
M  V30 983 H 91.5023 -3.44389 -1.25664 0
M  V30 984 H 91.1503 -3.37275 -3.73168 0
M  V30 985 H 90.8503 -5.00366 -3.08071 0
M  V30 986 H 92.3743 -4.65879 -3.94701 0
M  V30 987 H 93.7883 -5.43857 -1.81362 0
M  V30 988 H 92.1853 -5.88741 -1.16207 0
M  V30 989 H 93.2553 -4.84454 -0.207847 0
M  V30 990 N 94.5984 0.214957 -1.56127 0
M  V30 991 C 95.5484 1.27006 -1.8935 0
M  V30 992 C 96.5324 1.41969 -0.757202 0
M  V30 993 O 97.7244 1.44673 -1.01973 0
M  V30 994 C 94.8534 2.61911 -2.2194 0
M  V30 995 C 93.9394 2.50822 -3.41978 0
M  V30 996 N 94.3304 2.09391 -4.60423 0
M  V30 997 C 92.6284 2.81765 -3.45723 0
M  V30 998 C 93.3294 2.09712 -5.42582 0
M  V30 999 N 92.3054 2.50454 -4.82466 0
M  V30 1000 H 96.1074 0.940734 -2.78437 0
M  V30 1001 H 93.6214 0.423492 -1.56781 0
M  V30 1002 H 95.6184 3.38096 -2.43919 0
M  V30 1003 H 94.2784 2.95684 -1.34169 0
M  V30 1004 H 95.2894 1.80416 -4.85459 0
M  V30 1005 H 91.9664 3.19865 -2.68314 0
M  V30 1006 H 93.3564 1.79748 -6.4741 0
M  V30 1007 N 96.0765 1.50051 0.48192 0
M  V30 1008 C 97.3245 1.60181 1.23234 0
M  V30 1009 C 97.6455 0.299176 1.92691 0
M  V30 1010 O 96.9155 -0.682708 1.83619 0
M  V30 1011 H 95.4955 0.590232 0.457859 0
M  V30 1012 H 98.1575 1.86775 0.556881 0
M  V30 1013 H 97.2535 2.40753 1.98607 0
M  V30 1014 N 97.5546 -0.734337 1.39446 0
M  V30 1015 C 98.4846 -1.86155 1.40955 0
M  V30 1016 C 99.4656 -1.67898 0.272827 0
M  V30 1017 O 100.651 -1.88207 0.478743 0
M  V30 1018 C 97.7806 -3.23912 1.25294 0
M  V30 1019 C 96.7346 -3.56808 2.36373 0
M  V30 1020 C 96.0606 -4.93508 2.058 0
M  V30 1021 C 97.3606 -3.59713 3.78687 0
M  V30 1022 H 99.0546 -1.8515 2.35287 0
M  V30 1023 H 96.6006 -0.889367 1.13253 0
M  V30 1024 H 98.5536 -4.02443 1.2497 0
M  V30 1025 H 97.2776 -3.25446 0.274308 0
M  V30 1026 H 95.9366 -2.80606 2.35914 0
M  V30 1027 H 95.5846 -4.91623 1.06374 0
M  V30 1028 H 95.2846 -5.16486 2.80208 0
M  V30 1029 H 96.8086 -5.74396 2.07128 0
M  V30 1030 H 98.2226 -4.2832 3.81071 0
M  V30 1031 H 96.6196 -3.94209 4.52459 0
M  V30 1032 H 97.6896 -2.59504 4.09617 0
M  V30 1033 N 99.0327 -1.24633 -0.964593 0
M  V30 1034 C 100.31 -0.995809 -1.68354 0
M  V30 1035 C 100.69 0.480964 -2.05548 0
M  V30 1036 O 100.038 1.45599 -1.76105 0
M  V30 1037 C 100.248 -1.92177 -2.91323 0
M  V30 1038 C 101.596 -2.19446 -3.63495 0
M  V30 1039 O 102.62 -1.89855 -3.01386 0
M  V30 1040 O 101.479 -2.69714 -4.75307 0
M  V30 1041 H 98.5727 -0.376854 -0.736146 0
M  V30 1042 H 101.119 -1.35745 -1.0184 0
M  V30 1043 H 99.8907 -2.91938 -2.60553 0
M  V30 1044 H 99.5137 -1.56349 -3.65569 0
M  V30 1045 N 100.511 1.16574 -1.06058 0
M  V30 1046 C 101.458 2.20883 -0.669263 0
M  V30 1047 C 102.428 1.62729 0.332918 0
M  V30 1048 O 103.613 1.895 0.222346 0
M  V30 1049 C 100.753 3.45049 -0.0593572 0
M  V30 1050 C 99.8658 4.17458 -1.11143 0
M  V30 1051 C 99.0008 5.29135 -0.467916 0
M  V30 1052 C 98.0398 5.93343 -1.50369 0
M  V30 1053 N 97.1768 6.96516 -0.883706 0
M  V30 1054 H 102.017 2.53709 -1.5632 0
M  V30 1055 H 99.5538 1.24616 -0.781625 0
M  V30 1056 H 101.512 4.16033 0.311771 0
M  V30 1057 H 100.142 3.12781 0.797992 0
M  V30 1058 H 99.1938 3.45101 -1.60029 0
M  V30 1059 H 100.506 4.61307 -1.89731 0
M  V30 1060 H 99.6598 6.06684 -0.0436871 0
M  V30 1061 H 98.3988 4.86443 0.349864 0
M  V30 1062 H 97.4038 5.14517 -1.93784 0
M  V30 1063 H 98.6288 6.38114 -2.32352 0
M  V30 1064 H 96.5748 6.55943 -0.086595 0
M  V30 1065 H 96.4918 7.38723 -1.607 0
M  V30 1066 H 97.7598 7.77993 -0.484543 0
M  V30 1067 N 101.989 0.842826 1.3317 0
M  V30 1068 C 103.235 0.441099 1.97945 0
M  V30 1069 C 103.568 -0.998024 1.66593 0
M  V30 1070 O 102.843 -1.69839 0.947898 0
M  V30 1071 C 103.126 0.666841 3.53872 0
M  V30 1072 C 102.979 2.15352 3.94897 0
M  V30 1073 C 104.298 0.115544 4.39948 0
M  V30 1074 H 101.417 0.161739 0.719034 0
M  V30 1075 H 104.059 1.05907 1.57746 0
M  V30 1076 H 102.209 0.140828 3.88245 0
M  V30 1077 H 103.881 2.7447 3.70761 0
M  V30 1078 H 102.124 2.63653 3.44484 0
M  V30 1079 H 102.795 2.26221 5.03516 0
M  V30 1080 H 105.271 0.565213 4.12243 0
M  V30 1081 H 104.147 0.303152 5.48062 0
M  V30 1082 H 104.408 -0.980935 4.3108 0
M  V30 1083 N 103.467 -1.45747 0.599634 0
M  V30 1084 C 104.43 -2.28917 -0.113835 0
M  V30 1085 C 105.43 -1.3933 -0.802729 0
M  V30 1086 O 106.62 -1.61534 -0.652103 0
M  V30 1087 C 103.752 -3.20152 -1.17114 0
M  V30 1088 H 104.945 -2.93478 0.617289 0
M  V30 1089 H 102.498 -1.52137 0.358327 0
M  V30 1090 H 103.233 -2.60374 -1.93329 0
M  V30 1091 H 103.018 -3.86133 -0.681468 0
M  V30 1092 H 104.508 -3.82708 -1.67105 0
M  V30 1093 N 104.945 -0.338344 -1.53925 0
M  V30 1094 C 105.855 0.529421 -2.28548 0
M  V30 1095 C 106.871 1.11645 -1.3346 0
M  V30 1096 O 108.047 1.13325 -1.66492 0
M  V30 1097 C 105.112 1.66713 -3.03987 0
M  V30 1098 C 104.173 1.11041 -4.14691 0
M  V30 1099 C 103.406 2.19389 -4.86522 0
M  V30 1100 O 103.629 3.40013 -4.57982 0
M  V30 1101 O 102.563 1.83976 -5.73094 0
M  V30 1102 H 106.389 -0.0770399 -3.03602 0
M  V30 1103 H 103.974 -0.103555 -1.49041 0
M  V30 1104 H 105.856 2.32918 -3.5118 0
M  V30 1105 H 104.531 2.25949 -2.31794 0
M  V30 1106 H 103.438 0.413024 -3.71813 0
M  V30 1107 H 104.771 0.562975 -4.8897 0
M  V30 1108 N 106.423 1.57458 -0.0668435 0
M  V30 1109 C 107.333 2.15937 0.916975 0
M  V30 1110 C 108.349 1.12123 1.33058 0
M  V30 1111 O 109.525 1.44366 1.40429 0
M  V30 1112 C 106.59 2.70547 2.16807 0
M  V30 1113 C 105.651 3.89215 1.81135 0
M  V30 1114 C 104.884 4.41211 3.0028 0
M  V30 1115 O 105.107 3.92225 4.14144 0
M  V30 1116 O 104.041 5.32605 2.80384 0
M  V30 1117 H 107.867 3.00354 0.449561 0
M  V30 1118 H 105.452 1.48584 0.155949 0
M  V30 1119 H 107.334 3.0557 2.90181 0
M  V30 1120 H 106.009 1.89192 2.62656 0
M  V30 1121 H 104.916 3.59054 1.05028 0
M  V30 1122 H 106.249 4.71848 1.40073 0
M  V30 1123 N 107.901 -0.206675 1.56239 0
M  V30 1124 C 109.147 -0.925733 1.81113 0
M  V30 1125 C 109.502 -1.81368 0.642135 0
M  V30 1126 O 108.795 -1.88126 -0.363211 0
M  V30 1127 C 108.989 -1.78675 3.09532 0
M  V30 1128 C 108.818 -0.98365 4.3881 0
M  V30 1129 C 107.588 -0.672661 5.00803 0
M  V30 1130 C 109.786 -0.341847 5.13163 0
M  V30 1131 N 107.768 0.150283 6.13716 0
M  V30 1132 C 109.139 0.343815 6.19046 0
M  V30 1133 C 111.194 -0.256392 4.97239 0
M  V30 1134 C 109.897 1.10678 7.10734 0
M  V30 1135 C 111.923 0.493142 5.8934 0
M  V30 1136 C 111.285 1.16729 6.94661 0
M  V30 1137 H 107.384 -0.318524 0.714189 0
M  V30 1138 H 109.968 -0.195378 1.93717 0
M  V30 1139 H 108.139 -2.4888 2.98183 0
M  V30 1140 H 109.871 -2.44441 3.22538 0
M  V30 1141 H 106.626 -0.994294 4.63045 0
M  V30 1142 H 107.05 0.551026 6.74754 0
M  V30 1143 H 111.692 -0.763249 4.15854 0
M  V30 1144 H 109.41 1.6251 7.91591 0
M  V30 1145 H 112.996 0.560465 5.79094 0
M  V30 1146 H 111.876 1.738 7.64698 0
M  V30 1147 N 109.379 -1.50304 -0.473955 0
M  V30 1148 C 110.342 -1.6841 -1.55469 0
M  V30 1149 C 111.342 -0.554905 -1.50922 0
M  V30 1150 O 112.532 -0.821882 -1.53593 0
M  V30 1151 C 109.664 -1.70667 -2.95102 0
M  V30 1152 H 110.857 -2.64828 -1.40733 0
M  V30 1153 H 108.41 -1.39742 -0.700132 0
M  V30 1154 H 109.145 -0.75932 -3.15285 0
M  V30 1155 H 108.93 -2.52698 -2.9981 0
M  V30 1156 H 110.42 -1.8664 -3.73571 0
M  V30 1157 N 110.857 0.726932 -1.39834 0
M  V30 1158 C 111.789 1.85147 -1.35104 0
M  V30 1159 C 112.802 1.60736 -0.258392 0
M  V30 1160 O 113.991 1.70821 -0.517931 0
M  V30 1161 C 111.091 3.21332 -1.07697 0
M  V30 1162 C 110.264 3.73033 -2.28396 0
M  V30 1163 C 109.323 4.87802 -1.97322 0
M  V30 1164 O 108.349 5.01043 -2.70083 0
M  V30 1165 N 109.551 5.72768 -0.944273 0
M  V30 1166 H 112.316 1.89706 -2.32017 0
M  V30 1167 H 109.877 0.908006 -1.3404 0
M  V30 1168 H 111.869 3.95691 -0.849144 0
M  V30 1169 H 110.439 3.11992 -0.194909 0
M  V30 1170 H 109.659 2.89934 -2.6708 0
M  V30 1171 H 110.947 4.0431 -3.08887 0
M  V30 1172 H 110.345 5.64669 -0.341427 0
M  V30 1173 H 108.902 6.4716 -0.776346 0
M  V30 1174 N 112.336 1.25143 0.95797 0
M  V30 1175 C 113.584 1.09476 1.69881 0
M  V30 1176 C 113.905 -0.365502 1.91544 0
M  V30 1177 O 113.175 -1.25985 1.50015 0
M  V30 1178 H 111.755 0.402128 0.629525 0
M  V30 1179 H 114.417 1.57214 1.15194 0
M  V30 1180 H 113.513 1.60046 2.6794 0
M  V30 1181 N 113.814 -1.1601 1.06675 0
M  V30 1182 C 115.042 -1.90527 0.806667 0
M  V30 1183 C 115.457 -1.77643 -0.639396 0
M  V30 1184 O 114.814 -1.12369 -1.43803 0
M  V30 1185 C 114.865 -3.41106 1.19705 0
M  V30 1186 O 114.586 -3.53608 2.58636 0
M  V30 1187 C 116.087 -4.32663 0.965266 0
M  V30 1188 H 113.307 -0.604053 0.292166 0
M  V30 1189 H 115.851 -1.47026 1.4214 0
M  V30 1190 H 114.006 -3.82296 0.626774 0
M  V30 1191 H 114.42 -4.47011 2.74375 0
M  V30 1192 H 115.894 -5.36763 1.288 0
M  V30 1193 H 116.371 -4.39089 -0.0987936 0
M  V30 1194 H 116.977 -3.97206 1.52011 0
M  V30 1195 N 115.292 -0.849877 -1.32721 0
M  V30 1196 C 116.539 -0.450923 -1.97416 0
M  V30 1197 C 116.867 0.992376 -1.67279 0
M  V30 1198 O 116.122 1.71048 -0.950845 0
M  V30 1199 C 116.421 -0.631272 -3.51781 0
M  V30 1200 C 116.087 -2.04432 -4.01894 0
M  V30 1201 C 114.749 -2.4308 -4.1529 0
M  V30 1202 C 117.101 -2.96679 -4.28522 0
M  V30 1203 C 114.429 -3.73257 -4.52654 0
M  V30 1204 C 116.781 -4.26349 -4.67343 0
M  V30 1205 C 115.445 -4.64939 -4.78945 0
M  V30 1206 H 114.715 -0.165004 -0.722395 0
M  V30 1207 H 117.362 -1.07901 -1.58207 0
M  V30 1208 H 115.667 0.0800767 -3.91718 0
M  V30 1209 H 117.364 -0.302709 -3.99856 0
M  V30 1210 H 113.954 -1.73419 -3.91949 0
M  V30 1211 H 118.138 -2.68054 -4.17685 0
M  V30 1212 H 113.394 -4.02946 -4.59831 0
M  V30 1213 H 117.568 -4.97895 -4.86902 0
M  V30 1214 H 115.195 -5.65855 -5.07654 0
M  V30 1215 N 116.77 1.45427 -0.607355 0
M  V30 1216 C 117.717 2.3053 0.111625 0
M  V30 1217 C 118.687 1.4209 0.860216 0
M  V30 1218 O 119.872 1.71019 0.845998 0
M  V30 1219 C 117.012 3.26992 1.10319 0
M  V30 1220 C 116.125 4.30535 0.355493 0
M  V30 1221 C 115.26 5.14105 1.33676 0
M  V30 1222 C 114.299 6.09376 0.576862 0
M  V30 1223 N 113.436 6.85727 1.5074 0
M  V30 1224 H 118.276 2.91477 -0.620093 0
M  V30 1225 H 115.813 1.43631 -0.317594 0
M  V30 1226 H 117.771 3.81385 1.6912 0
M  V30 1227 H 116.401 2.67799 1.80232 0
M  V30 1228 H 115.453 3.78805 -0.348023 0
M  V30 1229 H 116.765 4.98235 -0.237423 0
M  V30 1230 H 115.919 5.72897 1.99684 0
M  V30 1231 H 114.658 4.46423 1.9636 0
M  V30 1232 H 113.663 5.49715 -0.0968519 0
M  V30 1233 H 114.888 6.79085 -0.0449341 0
M  V30 1234 H 112.834 6.20735 2.12189 0
M  V30 1235 H 112.751 7.49778 0.967913 0
M  V30 1236 H 114.019 7.4906 2.15706 0
M  V30 1237 N 118.248 0.346503 1.53744 0
M  V30 1238 C 119.178 -0.501193 2.28058 0
M  V30 1239 C 120.159 -1.10014 1.29734 0
M  V30 1240 O 121.344 -1.12097 1.58581 0
M  V30 1241 C 118.474 -1.65078 3.05559 0
M  V30 1242 C 117.428 -1.18003 4.11411 0
M  V30 1243 C 116.754 -2.41837 4.76884 0
M  V30 1244 C 118.054 -0.278394 5.21558 0
M  V30 1245 H 119.748 0.11875 2.99164 0
M  V30 1246 H 117.294 0.0585531 1.43881 0
M  V30 1247 H 119.247 -2.25028 3.56287 0
M  V30 1248 H 117.971 -2.29767 2.32109 0
M  V30 1249 H 116.63 -0.603331 3.61601 0
M  V30 1250 H 116.278 -3.0494 4.00026 0
M  V30 1251 H 115.978 -2.1102 5.48402 0
M  V30 1252 H 117.502 -3.02508 5.30397 0
M  V30 1253 H 118.916 -0.784823 5.67903 0
M  V30 1254 H 117.313 -0.0619707 6.00068 0
M  V30 1255 H 118.383 0.684677 4.80042 0
M  V30 1256 N 119.726 -1.57421 0.075193 0
M  V30 1257 C 120.674 -2.14124 -0.908508 0
M  V30 1258 C 121.668 -1.07898 -1.30592 0
M  V30 1259 O 122.874 -1.26273 -1.28277 0
M  V30 1260 H 119.249 -0.684707 -0.310935 0
M  V30 1261 H 121.22 -2.95634 -0.405374 0
M  V30 1262 C 119.969 -2.72044 -2.16535 0
M  V30 1263 H 119.292 -3.53456 -1.86839 0
M  V30 1264 H 120.732 -3.15311 -2.83469 0
M  V30 1265 C 119.191 -1.66968 -2.92615 0
M  V30 1266 O 119.721 -1.0967 -3.86439 0
M  V30 1267 N 117.927 -1.37923 -2.55784 0
M  V30 1268 H 117.474 -1.84706 -1.79559 0
M  V30 1269 H 117.432 -0.67852 -3.06991 0
M  V30 1270 N 121.204 0.198386 -1.56346 0
M  V30 1271 C 122.429 0.939682 -1.84891 0
M  V30 1272 C 122.854 1.76202 -0.658369 0
M  V30 1273 O 122.212 1.76993 0.392851 0
M  V30 1274 C 122.26 1.81428 -3.11635 0
M  V30 1275 O 121.364 2.91265 -2.91956 0
M  V30 1276 H 120.705 0.264807 -0.608912 0
M  V30 1277 H 123.235 0.204695 -2.03573 0
M  V30 1278 H 123.245 2.21958 -3.42343 0
M  V30 1279 H 121.92 1.21004 -3.97908 0
M  V30 1280 H 120.497 2.54514 -2.72538 0
M  V30 1281 N 122.682 1.50554 0.465978 0
M  V30 1282 C 123.63 1.70324 1.58406 0
M  V30 1283 C 124.624 0.569139 1.59553 0
M  V30 1284 O 125.83 0.749776 1.63641 0
M  V30 1285 H 122.205 0.537688 0.525734 0
M  V30 1286 H 124.176 2.64104 1.38894 0
M  V30 1287 C 122.925 1.81928 2.96307 0
M  V30 1288 H 122.248 2.68586 2.96144 0
M  V30 1289 H 123.688 1.99784 3.73982 0
M  V30 1290 C 122.147 0.572095 3.32007 0
M  V30 1291 O 122.677 -0.286416 4.00678 0
M  V30 1292 N 120.883 0.424606 2.87481 0
M  V30 1293 H 120.43 1.12427 2.31771 0
M  V30 1294 H 120.388 -0.408697 3.11732 0
M  V30 1295 N 124.16 -0.719506 1.40217 0
M  V30 1296 C 125.437 -1.47221 1.28784 0
M  V30 1297 C 125.817 -2.10883 -0.0956067 0
M  V30 1298 O 125.165 -1.99833 -1.10811 0
M  V30 1299 C 125.375 -2.5111 2.42373 0
M  V30 1300 C 126.723 -3.17053 2.82423 0
M  V30 1301 O 127.747 -2.61429 2.41937 0
M  V30 1302 O 126.606 -4.17742 3.52355 0
M  V30 1303 H 123.7 -0.654491 0.50554 0
M  V30 1304 H 126.246 -0.752014 1.52128 0
M  V30 1305 H 125.018 -2.02556 3.34793 0
M  V30 1306 H 124.641 -3.3067 2.20778 0
M  V30 1307 N 125.638 -1.25649 -0.95132 0
M  V30 1308 C 126.548 -1.08073 -2.08224 0
M  V30 1309 C 127.564 -0.0169666 -1.73992 0
M  V30 1310 O 128.74 -0.218593 -2.0021 0
M  V30 1311 C 125.805 -0.704922 -3.39458 0
M  V30 1312 C 124.866 -1.84699 -3.87537 0
M  V30 1313 C 124.099 -1.48902 -5.12508 0
M  V30 1314 O 124.322 -0.386156 -5.69091 0
M  V30 1315 O 123.256 -2.32033 -5.55378 0
M  V30 1316 H 127.082 -2.02924 -2.25954 0
M  V30 1317 H 124.667 -1.04618 -1.06656 0
M  V30 1318 H 126.549 -0.507609 -4.18332 0
M  V30 1319 H 125.224 0.214291 -3.2299 0
M  V30 1320 H 124.131 -2.09919 -3.09653 0
M  V30 1321 H 125.464 -2.74557 -4.08509 0
M  V30 1322 N 127.117 1.15442 -1.07289 0
M  V30 1323 C 128.394 1.82306 -0.708792 0
M  V30 1324 C 128.774 1.94991 0.808807 0
M  V30 1325 O 128.122 1.50085 1.72298 0
M  V30 1326 C 128.332 3.18695 -1.42247 0
M  V30 1327 C 129.68 3.94341 -1.57417 0
M  V30 1328 O 130.704 3.28247 -1.38319 0
M  V30 1329 O 129.563 5.12839 -1.88834 0
M  V30 1330 H 126.657 0.787628 -0.252132 0
M  V30 1331 H 129.203 1.22559 -1.17377 0
M  V30 1332 H 127.975 3.04557 -2.45684 0
M  V30 1333 H 127.598 3.86128 -0.948223 0
M  V30 1334 N 128.595 0.856903 1.32268 0
M  V30 1335 C 129.844 0.457599 1.96441 0
M  V30 1336 C 130.157 -0.992426 1.68553 0
M  V30 1337 O 131.363 -1.49727 2.26482 0
M  V30 1338 C 129.819 0.767358 3.51624 0
M  V30 1339 C 129.427 2.23326 3.88367 0
M  V30 1340 C 131.171 0.435887 4.22256 0
M  V30 1341 C 129.078 2.48613 5.36606 0
M  V30 1342 H 128.008 0.167387 0.735185 0
M  V30 1343 H 130.659 1.048 1.5063 0
M  V30 1344 H 129.041 0.106367 3.95857 0
M  V30 1345 H 130.215 2.93623 3.55137 0
M  V30 1346 H 128.53 2.52948 3.30766 0
M  V30 1347 H 131.127 0.602202 5.31298 0
M  V30 1348 H 131.47 -0.622672 4.11617 0
M  V30 1349 H 132.003 1.05286 3.83614 0
M  V30 1350 H 128.742 3.53101 5.52268 0
M  V30 1351 H 128.262 1.82896 5.71235 0
M  V30 1352 H 129.941 2.32676 6.03714 0
M  V30 1353 N 130.073 -1.45103 0.615059 0
M  V30 1354 C 131.023 -2.27679 -0.120966 0
M  V30 1355 C 132.007 -1.3775 -0.831491 0
M  V30 1356 O 133.199 -1.61683 -0.720249 0
M  V30 1357 C 130.328 -3.24767 -1.1127 0
M  V30 1358 C 129.414 -4.22184 -0.402627 0
M  V30 1359 N 129.805 -5.02692 0.559884 0
M  V30 1360 C 128.103 -4.4125 -0.649202 0
M  V30 1361 C 128.804 -5.73421 0.977942 0
M  V30 1362 N 127.78 -5.42657 0.320104 0
M  V30 1363 H 131.582 -2.87325 0.618181 0
M  V30 1364 H 129.096 -1.56345 0.439304 0
M  V30 1365 H 131.093 -3.82666 -1.65446 0
M  V30 1366 H 129.753 -2.66682 -1.85232 0
M  V30 1367 H 130.764 -5.09354 0.936976 0
M  V30 1368 H 127.441 -3.9428 -1.37293 0
M  V30 1369 H 128.831 -6.48107 1.77222 0
M  V30 1370 N 131.551 -0.354651 -1.53558 0
M  V30 1371 C 132.779 0.239515 -2.05509 0
M  V30 1372 C 133.194 1.4333 -1.2289 0
M  V30 1373 O 132.551 1.80538 -0.266899 0
M  V30 1374 C 132.602 0.643719 -3.55723 0
M  V30 1375 O 132.323 -0.502602 -4.35207 0
M  V30 1376 C 133.824 1.29743 -4.23889 0
M  V30 1377 H 131.044 0.0442697 -0.669538 0
M  V30 1378 H 133.588 -0.509856 -1.98042 0
M  V30 1379 H 131.743 1.34302 -3.63376 0
M  V30 1380 H 132.157 -0.178172 -5.24197 0
M  V30 1381 H 133.631 1.53091 -5.30346 0
M  V30 1382 H 134.108 2.25441 -3.76926 0
M  V30 1383 H 134.714 0.639865 -4.20459 0
M  V30 1384 N 133.029 1.57378 -0.0835403 0
M  V30 1385 C 133.992 2.12252 0.864959 0
M  V30 1386 C 134.992 1.04916 1.21858 0
M  V30 1387 O 136.182 1.30853 1.14991 0
M  V30 1388 C 133.314 2.63358 2.16461 0
M  V30 1389 H 134.507 2.97371 0.388676 0
M  V30 1390 H 132.06 1.55423 0.165317 0
M  V30 1391 H 132.795 1.81727 2.686 0
M  V30 1392 H 132.58 3.41826 1.92087 0
M  V30 1393 H 134.07 3.05847 2.84337 0
M  V30 1394 N 134.507 -0.190092 1.56449 0
M  V30 1395 C 135.455 -1.25501 1.95837 0
M  V30 1396 C 136.449 -1.4685 0.844485 0
M  V30 1397 O 137.655 -1.47651 1.02952 0
M  V30 1398 H 134.03 -0.421447 0.622805 0
M  V30 1399 H 136.001 -0.895821 2.84636 0
M  V30 1400 C 134.75 -2.59124 2.31841 0
M  V30 1401 H 134.073 -2.43514 3.17082 0
M  V30 1402 H 135.513 -3.32371 2.6326 0
M  V30 1403 C 133.972 -3.16488 1.15486 0
M  V30 1404 O 134.502 -3.99365 0.432535 0
M  V30 1405 N 132.708 -2.75305 0.930349 0
M  V30 1406 H 132.255 -2.08013 1.51948 0
M  V30 1407 H 132.213 -3.14024 0.153634 0
M  V30 1408 N 135.985 -1.50799 -0.457987 0
M  V30 1409 C 136.895 -1.73426 -1.57989 0
M  V30 1410 C 137.911 -0.617745 -1.62665 0
M  V30 1411 O 139.087 -0.897614 -1.80291 0
M  V30 1412 C 136.152 -1.83557 -2.94122 0
M  V30 1413 C 135.213 -3.07345 -2.99729 0
M  V30 1414 C 134.446 -3.16983 -4.29368 0
M  V30 1415 O 134.669 -2.33077 -5.20607 0
M  V30 1416 O 133.603 -4.09812 -4.40837 0
M  V30 1417 H 137.429 -2.68555 -1.41817 0
M  V30 1418 H 135.014 -1.35052 -0.638859 0
M  V30 1419 H 136.896 -1.92326 -3.74952 0
M  V30 1420 H 135.571 -0.916137 -3.10465 0
M  V30 1421 H 134.478 -3.04068 -2.1793 0
M  V30 1422 H 135.811 -3.9891 -2.88326 0
M  V30 1423 N 137.463 0.71206 -1.40597 0
M  V30 1424 C 138.879 1.02058 -1.22704 0
M  V30 1425 C 139.079 2.01228 -0.104729 0
M  V30 1426 O 138.135 2.4674 0.53624 0
M  V30 1427 C 139.448 1.56094 -2.57012 0
M  V30 1428 C 140.996 1.6806 -2.64054 0
M  V30 1429 C 141.471 2.25501 -3.9864 0
M  V30 1430 N 142.962 2.32882 -4.004 0
M  V30 1431 C 143.697 2.78317 -5.01325 0
M  V30 1432 N 143.193 3.23478 -6.12645 0
M  V30 1433 N 144.986 2.77733 -4.88693 0
M  V30 1434 H 137.137 0.0547896 -2.12329 0
M  V30 1435 H 139.4 0.0869027 -0.944008 0
M  V30 1436 H 139.106 0.906865 -3.39807 0
M  V30 1437 H 138.98 2.54564 -2.78347 0
M  V30 1438 H 141.367 2.32583 -1.81629 0
M  V30 1439 H 141.448 0.681802 -2.46546 0
M  V30 1440 H 141.092 1.61598 -4.81506 0
M  V30 1441 H 141.022 3.26102 -4.13479 0
M  V30 1442 H 143.513 2.00991 -3.20017 0
M  V30 1443 H 143.826 3.56725 -6.85542 0
M  V30 1444 H 142.171 3.21429 -6.16205 0
M  V30 1445 H 145.362 2.4179 -4.00818 0
M  V30 1446 H 145.535 3.12826 -5.67489 0
M  V30 1447 N 138.941 1.26152 0.944643 0
M  V30 1448 C 140.357 1.03189 1.21754 0
M  V30 1449 C 140.557 -0.245112 2.00004 0
M  V30 1450 O 139.613 -0.955176 2.33736 0
M  V30 1451 C 140.926 2.26119 1.98219 0
M  V30 1452 C 142.474 2.30984 2.11224 0
M  V30 1453 C 142.949 3.53597 2.91089 0
M  V30 1454 N 144.44 3.54053 2.98664 0
M  V30 1455 C 145.175 4.45593 3.60881 0
M  V30 1456 N 144.671 5.47416 4.24626 0
M  V30 1457 N 146.464 4.33252 3.58119 0
M  V30 1458 H 138.615 2.08177 0.421437 0
M  V30 1459 H 140.878 0.914723 0.248969 0
M  V30 1460 H 140.584 3.18984 1.48128 0
M  V30 1461 H 140.458 2.3009 2.98895 0
M  V30 1462 H 142.845 1.38635 2.60508 0
M  V30 1463 H 142.926 2.31026 1.09821 0
M  V30 1464 H 142.57 4.46273 2.42493 0
M  V30 1465 H 142.5 3.50802 3.92741 0
M  V30 1466 H 144.991 2.80403 2.53343 0
M  V30 1467 H 145.304 6.13459 4.69987 0
M  V30 1468 H 143.649 5.51278 4.23223 0
M  V30 1469 H 146.84 3.52924 3.0751 0
M  V30 1470 H 147.013 5.04786 4.06319 0
M  V30 1471 N 140.419 -1.14872 1.07899 0
M  V30 1472 C 141.349 -2.2193 0.725887 0
M  V30 1473 C 142.33 -1.67622 -0.28927 0
M  V30 1474 O 143.515 -1.93533 -0.160787 0
M  V30 1475 C 140.645 -3.47061 0.128856 0
M  V30 1476 C 139.599 -4.14363 1.07178 0
M  V30 1477 C 138.925 -5.33636 0.337229 0
M  V30 1478 C 140.225 -4.63492 2.40775 0
M  V30 1479 H 141.919 -2.51724 1.62097 0
M  V30 1480 H 139.465 -1.20991 0.780838 0
M  V30 1481 H 141.418 -4.21199 -0.130147 0
M  V30 1482 H 140.142 -3.16617 -0.80134 0
M  V30 1483 H 138.801 -3.42173 1.3158 0
M  V30 1484 H 138.449 -4.99449 -0.596606 0
M  V30 1485 H 138.149 -5.79609 0.965788 0
M  V30 1486 H 139.673 -6.10539 0.0861567 0
M  V30 1487 H 141.087 -5.2913 2.20669 0
M  V30 1488 H 139.484 -5.20148 2.99276 0
M  V30 1489 H 140.554 -3.78834 3.02676 0
M  V30 1490 N 141.898 -0.863906 -1.31812 0
M  V30 1491 C 142.845 -0.313303 -2.28664 0
M  V30 1492 C 143.815 0.584868 -1.55462 0
M  V30 1493 O 145 0.517805 -1.83639 0
M  V30 1494 C 142.14 0.48441 -3.41683 0
M  V30 1495 C 141.253 -0.440594 -4.29747 0
M  V30 1496 C 140.388 0.370652 -5.29905 0
M  V30 1497 C 139.427 -0.551164 -6.09613 0
M  V30 1498 N 138.564 0.223462 -7.01744 0
M  V30 1499 H 143.404 -1.14444 -2.75148 0
M  V30 1500 H 140.941 -0.575769 -1.35364 0
M  V30 1501 H 142.899 0.962627 -4.05943 0
M  V30 1502 H 141.529 1.28029 -2.96325 0
M  V30 1503 H 140.581 -1.03724 -3.65986 0
M  V30 1504 H 141.893 -1.14767 -4.85417 0
M  V30 1505 H 141.047 0.911638 -5.99812 0
M  V30 1506 H 139.786 1.11105 -4.74876 0
M  V30 1507 H 138.791 -1.10396 -5.38603 0
M  V30 1508 H 140.016 -1.29032 -6.66729 0
M  V30 1509 H 137.962 0.946787 -6.49132 0
M  V30 1510 H 137.879 -0.424399 -7.54808 0
M  V30 1511 H 139.147 0.745876 -7.75923 0
M  V30 1512 N 143.376 1.44774 -0.622745 0
M  V30 1513 C 144.286 2.34433 0.0886031 0
M  V30 1514 C 145.302 1.52131 0.844529 0
M  V30 1515 O 146.478 1.84886 0.798691 0
M  V30 1516 C 143.543 3.29986 1.0635 0
M  V30 1517 C 142.604 4.28195 0.307873 0
M  V30 1518 C 141.837 5.19183 1.23633 0
M  V30 1519 O 142.06 5.13918 2.47476 0
M  V30 1520 O 140.994 5.97515 0.725189 0
M  V30 1521 H 144.82 2.96693 -0.648599 0
M  V30 1522 H 142.405 1.44408 -0.382957 0
M  V30 1523 H 144.287 3.88825 1.6246 0
M  V30 1524 H 142.962 2.70269 1.78146 0
M  V30 1525 H 141.869 3.72927 -0.296064 0
M  V30 1526 H 143.202 4.90808 -0.3699 0
M  V30 1527 N 144.854 0.36279 1.53368 0
M  V30 1528 C 145.784 -0.476976 2.28576 0
M  V30 1529 C 146.765 -1.08631 1.30894 0
M  V30 1530 O 147.95 -1.10409 1.59761 0
M  V30 1531 C 145.08 -1.61828 3.07293 0
M  V30 1532 C 144.034 -1.13633 4.1264 0
M  V30 1533 C 143.36 -2.36766 4.79423 0
M  V30 1534 C 144.66 -0.223061 5.21823 0
M  V30 1535 H 146.354 0.150474 2.99022 0
M  V30 1536 H 143.9 0.0738103 1.43811 0
M  V30 1537 H 145.853 -2.21237 3.58653 0
M  V30 1538 H 144.577 -2.27292 2.34533 0
M  V30 1539 H 143.236 -0.564945 3.62221 0
M  V30 1540 H 142.884 -3.0068 4.03238 0
M  V30 1541 H 142.584 -2.05192 5.50609 0
M  V30 1542 H 144.108 -2.96865 5.33576 0
M  V30 1543 H 145.522 -0.724545 5.68703 0
M  V30 1544 H 143.919 0.001678 6.001 0
M  V30 1545 H 144.989 0.735553 4.79289 0
M  V30 1546 N 146.332 -1.57332 0.0918853 0
M  V30 1547 C 147.581 -1.93412 -0.572249 0
M  V30 1548 C 147.894 -0.975515 -1.69538 0
M  V30 1549 O 149.1 -1.22991 -2.42045 0
M  V30 1550 C 147.556 -3.43648 -1.0693 0
M  V30 1551 C 147.164 -4.47994 0.0239049 0
M  V30 1552 C 148.908 -3.88695 -1.70635 0
M  V30 1553 C 146.815 -5.89381 -0.488319 0
M  V30 1554 H 145.745 -0.721939 -0.217532 0
M  V30 1555 H 148.396 -1.82735 0.167369 0
M  V30 1556 H 146.778 -3.49466 -1.8625 0
M  V30 1557 H 147.952 -4.53815 0.799277 0
M  V30 1558 H 146.267 -4.12536 0.565946 0
M  V30 1559 H 148.864 -4.91725 -2.10025 0
M  V30 1560 H 149.207 -3.27166 -2.57426 0
M  V30 1561 H 149.74 -3.85564 -0.979023 0
M  V30 1562 H 146.479 -6.54602 0.342906 0
M  V30 1563 H 145.999 -5.87037 -1.23077 0
M  V30 1564 H 147.678 -6.39863 -0.958317 0
M  V30 1565 N 147.81 0.181792 -1.56548 0
M  V30 1566 C 149.058 0.89832 -1.81038 0
M  V30 1567 C 149.379 1.83232 -0.667164 0
M  V30 1568 O 148.649 1.93372 0.313673 0
M  V30 1569 H 147.229 0.33471 -0.667816 0
M  V30 1570 H 149.891 0.184116 -1.94028 0
M  V30 1571 H 148.987 1.4815 -2.74696 0
M  V30 1572 N 149.288 1.51039 0.449983 0
M  V30 1573 C 150.251 1.70863 1.5277 0
M  V30 1574 C 151.251 0.578846 1.5002 0
M  V30 1575 O 152.441 0.846213 1.52266 0
M  V30 1576 C 149.573 1.75341 2.9235 0
M  V30 1577 H 150.766 2.67034 1.36502 0
M  V30 1578 H 148.319 1.40838 0.677812 0
M  V30 1579 H 149.054 0.809383 3.14037 0
M  V30 1580 H 148.839 2.57436 2.95752 0
M  V30 1581 H 150.329 1.92559 3.70555 0
M  V30 1582 N 150.766 -0.704594 1.40972 0
M  V30 1583 C 151.994 -1.49354 1.43182 0
M  V30 1584 C 152.409 -1.88768 0.0345508 0
M  V30 1585 O 151.766 -1.56184 -0.944081 0
M  V30 1586 C 151.817 -2.76187 2.33244 0
M  V30 1587 O 151.538 -2.38436 3.67532 0
M  V30 1588 C 153.039 -3.7 2.44162 0
M  V30 1589 H 150.259 -0.460559 0.487982 0
M  V30 1590 H 152.803 -0.868261 1.85153 0
M  V30 1591 H 150.958 -3.34974 1.94606 0
M  V30 1592 H 151.372 -3.20126 4.15475 0
M  V30 1593 H 152.846 -4.55803 3.11364 0
M  V30 1594 H 153.323 -4.13867 1.47006 0
M  V30 1595 H 153.929 -3.17121 2.83398 0
M  V30 1596 N 152.244 -1.26651 -0.937939 0
M  V30 1597 C 153.207 -1.08546 -2.01867 0
M  V30 1598 C 154.207 -0.0327327 -1.60767 0
M  V30 1599 O 155.397 -0.276427 -1.71993 0
M  V30 1600 C 152.529 -0.651711 -3.34613 0
M  V30 1601 H 153.722 -2.04502 -2.1936 0
M  V30 1602 H 151.275 -1.09294 -1.11734 0
M  V30 1603 H 152.01 0.309696 -3.22818 0
M  V30 1604 H 151.795 -1.41189 -3.65798 0
M  V30 1605 H 153.285 -0.546973 -4.14002 0
M  V30 1606 N 153.722 1.14298 -1.08507 0
M  V30 1607 C 154.97 1.84993 -0.813763 0
M  V30 1608 C 155.291 1.83405 0.662393 0
M  V30 1609 O 154.561 1.28319 1.48024 0
M  V30 1610 H 153.141 0.684966 -0.298045 0
M  V30 1611 H 155.803 1.385 -1.37126 0
M  V30 1612 H 154.899 2.89788 -1.15884 0
M  V30 1613 N 155.201 0.870884 1.31352 0
M  V30 1614 C 156.148 0.325425 2.28494 0
M  V30 1615 C 157.118 -0.576615 1.5577 0
M  V30 1616 O 158.303 -0.508059 1.83911 0
M  V30 1617 C 155.443 -0.466283 3.41935 0
M  V30 1618 C 154.556 0.463378 4.29508 0
M  V30 1619 C 153.691 -0.342544 5.30094 0
M  V30 1620 C 152.73 0.583486 6.09313 0
M  V30 1621 N 151.867 -0.186244 7.01853 0
M  V30 1622 H 156.707 1.15901 2.74538 0
M  V30 1623 H 154.244 0.58294 1.35056 0
M  V30 1624 H 156.202 -0.941085 4.06447 0
M  V30 1625 H 154.832 -1.26456 2.97 0
M  V30 1626 H 153.884 1.05663 3.65431 0
M  V30 1627 H 155.196 1.1734 4.84802 0
M  V30 1628 H 154.35 -0.879816 6.00287 0
M  V30 1629 H 153.089 -1.08585 4.75458 0
M  V30 1630 H 152.094 1.13251 5.3801 0
M  V30 1631 H 153.319 1.32566 6.66035 0
M  V30 1632 H 151.265 -0.912348 6.49625 0
M  V30 1633 H 151.182 0.464422 7.54572 0
M  V30 1634 H 152.45 -0.704716 7.76308 0
M  V30 1635 N 156.679 -1.44442 0.630414 0
M  V30 1636 C 157.609 -2.33418 -0.0618083 0
M  V30 1637 C 158.59 -1.48165 -0.835541 0
M  V30 1638 O 159.775 -1.76886 -0.801564 0
M  V30 1639 C 156.905 -3.31222 -1.04449 0
M  V30 1640 C 155.859 -4.26288 -0.382436 0
M  V30 1641 C 155.185 -5.13954 -1.47497 0
M  V30 1642 C 156.485 -5.1744 0.710865 0
M  V30 1643 H 158.179 -2.91548 0.681184 0
M  V30 1644 H 155.725 -1.40191 0.329026 0
M  V30 1645 H 157.678 -3.92351 -1.53748 0
M  V30 1646 H 156.402 -2.71299 -1.81836 0
M  V30 1647 H 155.061 -3.6649 0.0899054 0
M  V30 1648 H 154.709 -4.50385 -2.2397 0
M  V30 1649 H 154.409 -5.7837 -1.03737 0
M  V30 1650 H 155.933 -5.77955 -1.96979 0
M  V30 1651 H 157.347 -5.72509 0.300996 0
M  V30 1652 H 155.744 -5.90455 1.07156 0
M  V30 1653 H 156.814 -4.58496 1.57829 0
M  V30 1654 N 158.157 -0.370918 -1.53173 0
M  V30 1655 C 159.107 0.489588 -2.22681 0
M  V30 1656 C 160.091 1.04442 -1.22395 0
M  V30 1657 O 161.283 0.973578 -1.47819 0
M  V30 1658 C 158.412 1.626 -3.02351 0
M  V30 1659 C 157.498 1.08379 -4.10018 0
M  V30 1660 N 157.889 0.265004 -5.05105 0
M  V30 1661 C 156.187 1.35809 -4.2482 0
M  V30 1662 C 156.888 -0.0324755 -5.81691 0
M  V30 1663 N 155.864 0.566581 -5.40639 0
M  V30 1664 H 159.666 -0.142729 -2.93553 0
M  V30 1665 H 157.18 -0.179221 -1.61408 0
M  V30 1666 H 159.177 2.2547 -3.50669 0
M  V30 1667 H 157.837 2.26132 -2.33011 0
M  V30 1668 H 158.848 -0.0962352 -5.17811 0
M  V30 1669 H 155.525 1.9958 -3.66707 0
M  V30 1670 H 156.915 -0.69473 -6.68299 0
M  V30 1671 N 159.635 1.57281 -0.100228 0
M  V30 1672 C 160.863 1.98879 0.570509 0
M  V30 1673 C 161.278 0.979476 1.61405 0
M  V30 1674 O 160.635 -0.0302288 1.82475 0
M  V30 1675 C 160.686 3.4052 1.2136 0
M  V30 1676 O 160.407 4.37588 0.211786 0
M  V30 1677 C 161.908 3.97149 1.96945 0
M  V30 1678 H 159.128 0.653428 0.152555 0
M  V30 1679 H 161.672 2.03697 -0.18103 0
M  V30 1680 H 159.827 3.367 1.91603 0
M  V30 1681 H 160.241 5.20118 0.676607 0
M  V30 1682 H 161.715 4.98393 2.37294 0
M  V30 1683 H 162.192 3.3525 2.83733 0
M  V30 1684 H 162.798 4.04458 1.31506 0
M  V30 1685 N 161.113 -0.173488 1.56642 0
M  V30 1686 C 162.361 -0.888706 1.81512 0
M  V30 1687 C 162.682 -1.82875 0.676872 0
M  V30 1688 O 161.952 -1.93536 -0.303414 0
M  V30 1689 H 160.532 -0.331164 0.669582 0
M  V30 1690 H 163.194 -0.173823 1.94123 0
M  V30 1691 H 162.29 -1.46691 2.75478 0
M  V30 1692 N 162.591 -1.51276 -0.441967 0
M  V30 1693 C 164.007 -1.39349 -0.778083 0
M  V30 1694 C 164.207 -0.472212 -1.95889 0
M  V30 1695 O 163.263 0.0743551 -2.5239 0
M  V30 1696 C 164.576 -2.81292 -1.0628 0
M  V30 1697 C 166.124 -2.9041 -1.16751 0
M  V30 1698 C 166.599 -4.33251 -1.48519 0
M  V30 1699 N 168.09 -4.36336 -1.55453 0
M  V30 1700 C 168.825 -5.43885 -1.81596 0
M  V30 1701 N 168.321 -6.61601 -2.05562 0
M  V30 1702 N 170.114 -5.3136 -1.8334 0
M  V30 1703 H 162.265 -2.09729 0.335774 0
M  V30 1704 H 164.528 -0.943925 0.0878028 0
M  V30 1705 H 164.234 -3.50678 -0.267905 0
M  V30 1706 H 164.108 -3.20334 -1.99163 0
M  V30 1707 H 166.495 -2.21225 -1.95304 0
M  V30 1708 H 166.576 -2.54871 -0.217801 0
M  V30 1709 H 166.22 -5.02984 -0.704958 0
M  V30 1710 H 166.15 -4.66299 -2.44689 0
M  V30 1711 H 168.641 -3.51466 -1.38853 0
M  V30 1712 H 168.954 -7.39361 -2.24867 0
M  V30 1713 H 167.299 -6.64725 -2.02894 0
M  V30 1714 H 170.49 -4.38382 -1.64132 0
M  V30 1715 H 170.663 -6.15258 -2.03377 0
M  V30 1716 N 164.069 0.697108 -1.41344 0
M  V30 1717 C 165.294 1.49096 -1.44171 0
M  V30 1718 C 165.719 1.88038 -0.0481568 0
M  V30 1719 O 165.077 1.54525 0.948243 0
M  V30 1720 C 165.125 2.73088 -2.3549 0
M  V30 1721 O 164.229 3.70514 -1.81088 0
M  V30 1722 H 163.57 0.448801 -0.489361 0
M  V30 1723 H 166.1 0.856992 -1.85787 0
M  V30 1724 H 166.11 3.21413 -2.51312 0
M  V30 1725 H 164.785 2.44081 -3.36745 0
M  V30 1726 H 163.362 3.29441 -1.74708 0
M  V30 1727 N 165.547 1.27147 0.931209 0
M  V30 1728 C 166.963 1.04475 1.20653 0
M  V30 1729 C 167.163 -0.223885 2.00252 0
M  V30 1730 O 166.219 -0.930332 2.34736 0
M  V30 1731 C 167.532 2.28209 1.95809 0
M  V30 1732 C 169.08 2.33211 2.08762 0
M  V30 1733 C 169.555 3.56665 2.87323 0
M  V30 1734 N 171.046 3.57201 2.94892 0
M  V30 1735 C 171.781 4.49395 3.56134 0
M  V30 1736 N 171.277 5.51889 4.18796 0
M  V30 1737 N 173.07 4.37026 3.53504 0
M  V30 1738 H 165.221 2.08612 0.399333 0
M  V30 1739 H 167.484 0.917312 0.239253 0
M  V30 1740 H 167.19 3.20538 1.44736 0
M  V30 1741 H 167.064 2.33247 2.96438 0
M  V30 1742 H 169.451 1.41391 2.59023 0
M  V30 1743 H 169.532 2.32178 1.07364 0
M  V30 1744 H 169.176 4.4882 2.37746 0
M  V30 1745 H 169.106 3.54948 3.88998 0
M  V30 1746 H 171.597 2.83074 2.50354 0
M  V30 1747 H 171.91 6.18409 4.63454 0
M  V30 1748 H 170.255 5.55735 4.17353 0
M  V30 1749 H 173.446 3.56166 3.03749 0
M  V30 1750 H 173.619 5.09067 4.00942 0
M  V30 1751 N 167.025 -1.13721 1.09112 0
M  V30 1752 C 167.973 -2.21103 0.722219 0
M  V30 1753 C 168.967 -1.67147 -0.275374 0
M  V30 1754 O 170.173 -1.79477 -0.137176 0
M  V30 1755 H 166.548 -0.720445 0.215553 0
M  V30 1756 H 168.519 -2.49483 1.63709 0
M  V30 1757 C 167.268 -3.47352 0.15543 0
M  V30 1758 H 166.591 -3.89206 0.914246 0
M  V30 1759 H 168.031 -4.2395 -0.0647967 0
M  V30 1760 C 166.49 -3.1814 -1.10852 0
M  V30 1761 O 167.02 -3.36604 -2.19227 0
M  V30 1762 N 165.226 -2.72045 -1.02176 0
M  V30 1763 H 164.773 -2.57221 -0.139764 0
M  V30 1764 H 164.731 -2.52875 -1.8682 0
M  V30 1765 N 168.503 -0.877838 -1.30888 0
M  V30 1766 C 169.78 -0.413052 -1.91189 0
M  V30 1767 C 170.16 1.1056 -1.79832 0
M  V30 1768 O 169.508 1.93771 -1.21099 0
M  V30 1769 C 169.718 -0.903191 -3.3711 0
M  V30 1770 C 171.066 -0.93395 -4.14201 0
M  V30 1771 O 172.09 -0.849373 -3.45925 0
M  V30 1772 O 170.949 -1.05772 -5.36167 0
M  V30 1773 H 168.043 -0.125035 -0.817493 0
M  V30 1774 H 170.589 -0.966269 -1.39504 0
M  V30 1775 H 169.361 -1.94692 -3.39427 0
M  V30 1776 H 168.984 -0.328732 -3.96239 0
M  V30 1777 N 169.982 1.44106 -0.638065 0
M  V30 1778 C 170.914 2.28976 0.101205 0
M  V30 1779 C 171.927 1.4167 0.802088 0
M  V30 1780 O 173.116 1.65755 0.662375 0
M  V30 1781 C 170.216 3.18217 1.16581 0
M  V30 1782 C 169.389 4.33978 0.546066 0
M  V30 1783 C 168.448 5.04202 1.50554 0
M  V30 1784 O 167.474 5.59986 1.01999 0
M  V30 1785 N 168.676 5.06296 2.8398 0
M  V30 1786 H 171.441 2.93064 -0.627186 0
M  V30 1787 H 169.002 1.54629 -0.479731 0
M  V30 1788 H 170.994 3.62061 1.80815 0
M  V30 1789 H 169.564 2.55833 1.79634 0
M  V30 1790 H 168.784 3.93239 -0.275046 0
M  V30 1791 H 170.072 5.08675 0.112793 0
M  V30 1792 H 169.47 4.62319 3.26002 0
M  V30 1793 H 168.027 5.53907 3.43556 0
M  V30 1794 N 171.46 0.379036 1.52974 0
M  V30 1795 C 172.706 -0.206727 2.01744 0
M  V30 1796 C 173.039 -1.47314 1.26539 0
M  V30 1797 O 172.314 -1.91084 0.362903 0
M  V30 1798 C 172.597 -0.485066 3.56818 0
M  V30 1799 C 172.45 0.795919 4.42702 0
M  V30 1800 C 173.769 -1.28003 4.21074 0
M  V30 1801 H 170.888 -0.0736607 0.73331 0
M  V30 1802 H 173.53 0.506581 1.83122 0
M  V30 1803 H 171.68 -1.09272 3.72816 0
M  V30 1804 H 173.352 1.43307 4.38476 0
M  V30 1805 H 171.595 1.41344 4.10127 0
M  V30 1806 H 172.266 0.555947 5.49193 0
M  V30 1807 H 174.742 -0.765867 4.08991 0
M  V30 1808 H 173.618 -1.44352 5.29579 0
M  V30 1809 H 173.879 -2.29236 3.78026 0
M  V30 1810 N 172.938 -1.57226 0.108567 0
M  V30 1811 C 174.184 -1.95121 -0.552761 0
M  V30 1812 C 174.517 -0.991345 -1.66991 0
M  V30 1813 O 173.792 -0.0267211 -1.94482 0
M  V30 1814 C 174.075 -3.43039 -1.09528 0
M  V30 1815 C 173.928 -4.49797 0.0177332 0
M  V30 1816 C 175.247 -3.92567 -1.98945 0
M  V30 1817 H 172.366 -0.709496 -0.199461 0
M  V30 1818 H 175.008 -1.89126 0.182011 0
M  V30 1819 H 173.158 -3.48279 -1.72146 0
M  V30 1820 H 174.83 -4.56661 0.652584 0
M  V30 1821 H 173.073 -4.284 0.682309 0
M  V30 1822 H 173.744 -5.50528 -0.402919 0
M  V30 1823 H 176.22 -3.89565 -1.46214 0
M  V30 1824 H 175.096 -4.96605 -2.33827 0
M  V30 1825 H 175.357 -3.32648 -2.91201 0
M  V30 1826 N 174.416 0.165178 -1.56732 0
M  V30 1827 C 175.644 0.896218 -1.86482 0
M  V30 1828 C 176.059 1.75555 -0.694675 0
M  V30 1829 O 175.416 1.79379 0.33607 0
M  V30 1830 C 175.467 1.76792 -3.1532 0
M  V30 1831 O 175.188 0.943239 -4.27825 0
M  V30 1832 C 176.689 2.6081 -3.58459 0
M  V30 1833 H 173.909 0.260064 -0.618553 0
M  V30 1834 H 176.453 0.163428 -2.03846 0
M  V30 1835 H 174.608 2.45398 -2.99764 0
M  V30 1836 H 175.022 1.53998 -5.01383 0
M  V30 1837 H 176.496 3.17579 -4.51495 0
M  V30 1838 H 176.973 3.35977 -2.82872 0
M  V30 1839 H 177.579 1.97526 -3.76648 0
M  V30 1840 N 175.894 1.51508 0.433938 0
M  V30 1841 C 177.171 1.54888 1.19453 0
M  V30 1842 C 177.551 0.315154 2.08734 0
M  V30 1843 O 176.899 -0.699558 2.17528 0
M  V30 1844 C 177.109 2.86467 1.99342 0
M  V30 1845 C 178.457 3.38545 2.56267 0
M  V30 1846 O 179.481 2.88041 2.0955 0
M  V30 1847 O 178.34 4.26675 3.41483 0
M  V30 1848 H 175.434 0.622863 0.544032 0
M  V30 1849 H 177.98 1.63823 0.442732 0
M  V30 1850 H 176.752 3.67718 1.33788 0
M  V30 1851 H 176.375 2.8071 2.8158 0
M  V30 1852 N 177.372 -0.689602 1.41712 0
M  V30 1853 C 178.302 -1.81577 1.46806 0
M  V30 1854 C 179.283 -1.66945 0.326105 0
M  V30 1855 O 180.468 -1.86588 0.538377 0
M  V30 1856 C 177.598 -3.19762 1.35535 0
M  V30 1857 C 176.552 -3.49107 2.47605 0
M  V30 1858 C 175.878 -4.86711 2.21397 0
M  V30 1859 C 177.178 -3.47483 3.89939 0
M  V30 1860 H 178.872 -1.7757 2.41058 0
M  V30 1861 H 176.418 -0.852887 1.16025 0
M  V30 1862 H 178.371 -3.98263 1.3771 0
M  V30 1863 H 177.095 -3.24409 0.377708 0
M  V30 1864 H 175.754 -2.72959 2.44722 0
M  V30 1865 H 175.402 -4.8799 1.21961 0
M  V30 1866 H 175.102 -5.0731 2.96497 0
M  V30 1867 H 176.626 -5.67515 2.25297 0
M  V30 1868 H 178.04 -4.1598 3.94505 0
M  V30 1869 H 176.437 -3.79615 4.64771 0
M  V30 1870 H 177.507 -2.46341 4.17665 0
M  V30 1871 N 178.85 -1.27639 -0.924453 0
M  V30 1872 C 180.266 -1.05113 -1.20097 0
M  V30 1873 C 180.466 0.213262 -2.00368 0
M  V30 1874 O 179.522 0.91787 -2.35226 0
M  V30 1875 C 180.835 -2.29244 -1.94596 0
M  V30 1876 C 182.383 -2.34315 -2.07522 0
M  V30 1877 C 182.858 -3.58183 -2.85427 0
M  V30 1878 N 184.349 -3.5876 -2.92994 0
M  V30 1879 C 185.084 -4.51277 -3.53746 0
M  V30 1880 N 184.58 -5.54102 -4.15863 0
M  V30 1881 N 186.373 -4.38894 -3.51181 0
M  V30 1882 H 178.524 -2.08821 -0.388264 0
M  V30 1883 H 180.787 -0.918568 -0.234385 0
M  V30 1884 H 180.493 -3.21301 -1.43034 0
M  V30 1885 H 180.367 -2.34816 -2.95197 0
M  V30 1886 H 182.754 -1.42762 -2.58269 0
M  V30 1887 H 182.835 -2.32744 -1.06131 0
M  V30 1888 H 182.479 -4.50074 -2.35363 0
M  V30 1889 H 182.409 -3.57006 -3.8711 0
M  V30 1890 H 184.9 -2.84398 -2.4885 0
M  V30 1891 H 185.213 -6.20859 -4.60168 0
M  V30 1892 H 183.558 -5.57941 -4.144 0
M  V30 1893 H 186.749 -3.57772 -3.01856 0
M  V30 1894 H 186.922 -5.11186 -3.98237 0
M  V30 1895 N 180.328 1.1314 -1.09713 0
M  V30 1896 C 181.258 2.20748 -0.761102 0
M  V30 1897 C 182.239 1.68061 0.262566 0
M  V30 1898 O 183.424 1.93765 0.129977 0
M  V30 1899 C 180.554 3.46812 -0.184054 0
M  V30 1900 C 179.508 4.12606 -1.13757 0
M  V30 1901 C 178.834 5.33031 -0.422083 0
M  V30 1902 C 180.134 4.59603 -2.48118 0
M  V30 1903 H 181.828 2.49113 -1.66082 0
M  V30 1904 H 179.374 1.19734 -0.799987 0
M  V30 1905 H 181.327 4.21353 0.0631215 0
M  V30 1906 H 180.051 3.17851 0.750868 0
M  V30 1907 H 178.71 3.40036 -1.37007 0
M  V30 1908 H 178.358 5.00335 0.517072 0
M  V30 1909 H 178.058 5.77999 -1.05788 0
M  V30 1910 H 179.582 6.10325 -0.183277 0
M  V30 1911 H 180.996 5.25552 -2.29059 0
M  V30 1912 H 179.393 5.15321 -3.07514 0
M  V30 1913 H 180.463 3.73971 -3.08665 0
M  V30 1914 N 181.806 0.884767 1.30421 0
M  V30 1915 C 183.052 0.513218 1.96819 0
M  V30 1916 C 183.407 -0.927347 1.68577 0
M  V30 1917 O 182.7 -1.64644 0.979941 0
M  V30 1918 C 182.894 0.724318 3.49983 0
M  V30 1919 C 182.723 2.18385 3.93113 0
M  V30 1920 C 181.493 2.82839 4.18725 0
M  V30 1921 C 183.691 3.15763 4.05953 0
M  V30 1922 N 181.673 4.1939 4.48314 0
M  V30 1923 C 183.044 4.37387 4.39423 0
M  V30 1924 C 185.099 3.11555 3.88379 0
M  V30 1925 C 183.802 5.55343 4.5715 0
M  V30 1926 C 185.828 4.28782 4.07308 0
M  V30 1927 C 185.19 5.49172 4.41123 0
M  V30 1928 H 181.289 0.237123 0.745182 0
M  V30 1929 H 183.873 1.14246 1.57658 0
M  V30 1930 H 182.044 0.124565 3.882 0
M  V30 1931 H 183.776 0.31969 4.03435 0
M  V30 1932 H 180.531 2.33708 4.11919 0
M  V30 1933 H 180.955 4.89911 4.67243 0
M  V30 1934 H 185.597 2.19576 3.61312 0
M  V30 1935 H 183.315 6.47826 4.8306 0
M  V30 1936 H 186.901 4.26995 3.95179 0
M  V30 1937 H 185.781 6.38371 4.55469 0
M  V30 1938 N 183.284 -1.43765 0.645699 0
M  V30 1939 C 184.217 -2.2798 -0.100072 0
M  V30 1940 C 185.195 -1.39391 -0.837194 0
M  V30 1941 O 186.379 -1.68833 -0.838306 0
M  V30 1942 C 183.506 -3.18643 -1.14823 0
M  V30 1943 C 182.552 -4.2344 -0.510009 0
M  V30 1944 S 183.385 -5.30761 0.710824 0
M  V30 1945 C 184.541 -6.24992 -0.33699 0
M  V30 1946 H 184.774 -2.90884 0.614322 0
M  V30 1947 H 182.307 -1.48166 0.434304 0
M  V30 1948 H 184.265 -3.71424 -1.74799 0
M  V30 1949 H 182.926 -2.54932 -1.8349 0
M  V30 1950 H 182.119 -4.86948 -1.29991 0
M  V30 1951 H 181.721 -3.73997 0.0154577 0
M  V30 1952 H 184.013 -6.66691 -1.20537 0
M  V30 1953 H 184.956 -7.07612 0.262879 0
M  V30 1954 H 185.364 -5.60517 -0.669425 0
M  V30 1955 N 184.763 -0.387143 -1.52771 0
M  V30 1956 C 186.179 -0.037007 -1.59557 0
M  V30 1957 C 186.379 1.44801 -1.40124 0
M  V30 1958 O 185.435 2.21227 -1.21716 0
M  V30 1959 C 186.748 -0.512256 -2.96305 0
M  V30 1960 C 188.296 -0.468328 -3.09476 0
M  V30 1961 C 188.771 -0.919731 -4.4867 0
M  V30 1962 N 190.262 -0.875656 -4.54848 0
M  V30 1963 C 190.997 -1.19637 -5.6078 0
M  V30 1964 N 190.493 -1.58745 -6.74368 0
M  V30 1965 N 192.286 -1.11776 -5.50874 0
M  V30 1966 H 184.437 -1.35395 -1.63652 0
M  V30 1967 H 186.7 -0.554818 -0.768688 0
M  V30 1968 H 186.406 -1.54935 -3.15734 0
M  V30 1969 H 186.28 0.089805 -3.77093 0
M  V30 1970 H 188.667 0.559671 -2.89744 0
M  V30 1971 H 188.748 -1.10616 -2.30646 0
M  V30 1972 H 188.392 -1.94595 -4.69143 0
M  V30 1973 H 188.322 -0.258927 -5.25963 0
M  V30 1974 H 190.813 -0.587843 -3.733 0
M  V30 1975 H 191.126 -1.81586 -7.51163 0
M  V30 1976 H 189.471 -1.6263 -6.75705 0
M  V30 1977 H 192.662 -0.811264 -4.61016 0
M  V30 1978 H 192.835 -1.37103 -6.3333 0
M  V30 1979 N 186.241 1.57166 -0.116904 0
M  V30 1980 C 187.173 2.12271 0.864507 0
M  V30 1981 C 188.186 1.06494 1.23138 0
M  V30 1982 O 189.375 1.33873 1.18069 0
M  V30 1983 C 186.475 2.60564 2.16702 0
M  V30 1984 C 185.648 3.90416 1.97216 0
M  V30 1985 C 184.707 4.24329 3.11178 0
M  V30 1986 O 183.733 4.93182 2.84184 0
M  V30 1987 N 184.935 3.8148 4.37554 0
M  V30 1988 H 187.7 2.97102 0.393726 0
M  V30 1989 H 185.261 1.61759 0.0675805 0
M  V30 1990 H 187.253 2.80282 2.91932 0
M  V30 1991 H 185.823 1.80623 2.55135 0
M  V30 1992 H 185.043 3.79627 1.06192 0
M  V30 1993 H 186.331 4.75327 1.81499 0
M  V30 1994 H 185.729 3.25943 4.62361 0
M  V30 1995 H 184.286 4.06311 5.09661 0
M  V30 1996 N 187.719 -0.156864 1.56817 0
M  V30 1997 C 188.947 -0.886316 1.86955 0
M  V30 1998 C 189.362 -1.75185 0.703975 0
M  V30 1999 O 188.719 -1.79555 -0.326552 0
M  V30 2000 C 188.77 -1.75117 3.16253 0
M  V30 2001 O 188.491 -0.920537 4.2832 0
M  V30 2002 C 189.992 -2.58905 3.59837 0
M  V30 2003 H 187.212 -0.25678 0.619923 0
M  V30 2004 H 189.756 -0.152615 2.0393 0
M  V30 2005 H 187.911 -2.43805 3.01062 0
M  V30 2006 H 188.325 -1.51337 5.02192 0
M  V30 2007 H 189.799 -3.1518 4.53172 0
M  V30 2008 H 190.276 -3.34472 2.84649 0
M  V30 2009 H 190.882 -1.95526 3.7769 0
M  V30 2010 N 189.197 -1.51736 -0.425897 0
M  V30 2011 C 190.437 -1.66636 -1.18371 0
M  V30 2012 C 190.801 -0.379854 -1.88205 0
M  V30 2013 O 192.002 -0.404758 -2.65735 0
M  V30 2014 C 190.273 -2.84382 -2.16476 0
M  V30 2015 S 191.832 -3.19673 -3.0059 0
M  V30 2016 H 188.65 -0.586957 -0.40125 0
M  V30 2017 H 191.252 -1.89679 -0.473518 0
M  V30 2018 H 189.956 -3.76281 -1.63831 0
M  V30 2019 H 189.487 -2.63562 -2.92059 0
M  V30 2020 H 191.502 -2.66994 -4.18245 0
M  V30 2021 N 190.675 0.682077 -1.42076 0
M  V30 2022 C 191.9 1.47558 -1.45744 0
M  V30 2023 C 192.325 1.87977 -0.0680981 0
M  V30 2024 O 191.683 1.55522 0.9318 0
M  V30 2025 C 191.731 2.70575 -2.38373 0
M  V30 2026 O 190.835 3.68573 -1.85007 0
M  V30 2027 H 190.176 0.443585 -0.494093 0
M  V30 2028 H 192.706 0.837238 -1.86686 0
M  V30 2029 H 192.716 3.18729 -2.54707 0
M  V30 2030 H 191.391 2.40495 -3.39315 0
M  V30 2031 H 189.968 3.2757 -1.78192 0
M  V30 2032 N 192.153 1.28127 0.917671 0
M  V30 2033 C 193.381 1.17892 1.70026 0
M  V30 2034 C 193.796 -0.262958 1.8696 0
M  V30 2035 O 193.153 -1.17811 1.3938 0
M  V30 2036 C 193.204 1.86872 3.09453 0
M  V30 2037 O 192.925 3.25428 2.93306 0
M  V30 2038 C 194.426 1.8289 4.03815 0
M  V30 2039 H 191.646 0.40942 0.531617 0
M  V30 2040 H 194.19 1.69181 1.14883 0
M  V30 2041 H 192.345 1.39464 3.61426 0
M  V30 2042 H 192.759 3.59918 3.81523 0
M  V30 2043 H 194.233 2.35751 4.99125 0
M  V30 2044 H 194.71 0.800412 4.31845 0
M  V30 2045 H 195.316 2.29959 3.57769 0
M  V30 2046 N 193.631 -1.12557 1.10312 0
M  V30 2047 C 194.561 -2.20341 0.772798 0
M  V30 2048 C 195.542 -1.68198 -0.25365 0
M  V30 2049 O 196.727 -1.93831 -0.119699 0
M  V30 2050 C 193.857 -3.46709 0.202443 0
M  V30 2051 C 192.811 -4.11996 1.15943 0
M  V30 2052 C 192.137 -5.328 0.450345 0
M  V30 2053 C 193.437 -4.5828 2.50552 0
M  V30 2054 H 195.131 -2.48229 1.674 0
M  V30 2055 H 192.677 -1.19308 0.806326 0
M  V30 2056 H 194.63 -4.2138 -0.0407752 0
M  V30 2057 H 193.354 -3.18245 -0.734001 0
M  V30 2058 H 192.013 -3.39305 1.38808 0
M  V30 2059 H 191.661 -5.00602 -0.490531 0
M  V30 2060 H 191.361 -5.7743 1.08851 0
M  V30 2061 H 192.885 -6.10219 0.215642 0
M  V30 2062 H 194.299 -5.2433 2.31843 0
M  V30 2063 H 192.696 -5.13683 3.10242 0
M  V30 2064 H 193.766 -3.72329 3.10643 0
M  V30 2065 N 195.109 -0.891671 -1.2995 0
M  V30 2066 C 196.334 -0.527932 -2.00568 0
M  V30 2067 C 196.759 0.877969 -1.66353 0
M  V30 2068 O 196.117 1.58301 -0.883762 0
M  V30 2069 C 196.165 -0.717745 -3.53385 0
M  V30 2070 O 195.269 0.233376 -4.11739 0
M  V30 2071 H 194.61 -0.20722 -0.630837 0
M  V30 2072 H 197.14 -1.20105 -1.65638 0
M  V30 2073 H 197.15 -0.619307 -4.03272 0
M  V30 2074 H 195.825 -1.74276 -3.77625 0
M  V30 2075 H 194.402 0.0880706 -3.72796 0
M  V30 2076 N 196.587 1.43421 -0.653314 0
M  V30 2077 C 197.835 2.01414 -0.166415 0
M  V30 2078 C 198.156 1.51803 1.22397 0
M  V30 2079 O 197.426 0.730693 1.81763 0
M  V30 2080 H 196.006 0.744703 -0.0585319 0
M  V30 2081 H 198.668 1.75629 -0.845003 0
M  V30 2082 H 197.764 3.11734 -0.151111 0
M  V30 2083 N 198.065 0.39524 1.52563 0
M  V30 2084 C 198.995 -0.428384 2.29537 0
M  V30 2085 C 199.976 -1.05831 1.33169 0
M  V30 2086 O 201.161 -1.06995 1.62067 0
M  V30 2087 C 198.291 -1.55274 3.10656 0
M  V30 2088 C 197.245 -1.04855 4.14957 0
M  V30 2089 C 196.571 -2.26543 4.84337 0
M  V30 2090 C 197.871 -0.112324 5.22179 0
M  V30 2091 H 199.565 0.213867 2.98635 0
M  V30 2092 H 197.111 0.104298 1.43622 0
M  V30 2093 H 199.064 -2.1358 3.63265 0
M  V30 2094 H 197.788 -2.22266 2.39302 0
M  V30 2095 H 196.447 -0.487985 3.63338 0
M  V30 2096 H 196.095 -2.92059 4.09525 0
M  V30 2097 H 195.795 -1.93466 5.54837 0
M  V30 2098 H 197.319 -2.85481 5.39753 0
M  V30 2099 H 198.733 -0.603752 5.70112 0
M  V30 2100 H 197.13 0.128968 5.99961 0
M  V30 2101 H 198.2 0.837052 4.77621 0
M  V30 2102 N 199.544 -1.57102 0.125237 0
M  V30 2103 C 200.474 -2.18659 -0.819174 0
M  V30 2104 C 201.455 -1.12843 -1.27281 0
M  V30 2105 O 202.64 -1.41104 -1.33429 0
M  V30 2106 C 199.77 -2.79096 -2.06695 0
M  V30 2107 C 198.724 -3.90548 -1.75088 0
M  V30 2108 C 198.05 -4.37821 -3.06948 0
M  V30 2109 C 199.35 -5.12356 -1.01435 0
M  V30 2110 H 201.044 -2.9783 -0.306202 0
M  V30 2111 H 198.59 -1.4326 -0.145839 0
M  V30 2112 H 200.543 -3.2082 -2.73226 0
M  V30 2113 H 199.267 -1.97223 -2.60328 0
M  V30 2114 H 197.926 -3.49409 -1.10944 0
M  V30 2115 H 197.574 -3.52799 -3.58527 0
M  V30 2116 H 197.274 -5.12982 -2.86571 0
M  V30 2117 H 198.798 -4.822 -3.74587 0
M  V30 2118 H 200.212 -5.5106 -1.58132 0
M  V30 2119 H 198.609 -5.9314 -0.911319 0
M  V30 2120 H 199.679 -4.849 -0.00218681 0
M  V30 2121 N 201.022 0.148545 -1.56898 0
M  V30 2122 C 202.268 0.857877 -1.84424 0
M  V30 2123 C 202.623 1.7886 -0.709006 0
M  V30 2124 O 201.916 1.89344 0.293139 0
M  V30 2125 C 202.11 1.67064 -3.1595 0
M  V30 2126 C 201.939 0.82011 -4.42159 0
M  V30 2127 C 200.709 0.486328 -5.02954 0
M  V30 2128 C 202.907 0.151155 -5.14078 0
M  V30 2129 N 200.889 -0.377956 -6.12735 0
M  V30 2130 C 202.26 -0.573333 -6.17343 0
M  V30 2131 C 204.315 0.0716685 -4.97848 0
M  V30 2132 C 203.018 -1.3698 -7.06137 0
M  V30 2133 C 205.044 -0.711532 -5.87104 0
M  V30 2134 C 204.406 -1.42431 -6.8985 0
M  V30 2135 H 200.505 0.291798 -0.725519 0
M  V30 2136 H 203.089 0.123347 -1.94309 0
M  V30 2137 H 201.26 2.37642 -3.07215 0
M  V30 2138 H 202.992 2.32302 -3.31388 0
M  V30 2139 H 199.747 0.821753 -4.66416 0
M  V30 2140 H 200.171 -0.801077 -6.72244 0
M  V30 2141 H 204.813 0.608381 -4.184 0
M  V30 2142 H 202.531 -1.91778 -7.85014 0
M  V30 2143 H 206.117 -0.775005 -5.76615 0
M  V30 2144 H 204.997 -2.02061 -7.57721 0
M  V30 2145 N 202.5 1.5196 0.417844 0
M  V30 2146 C 203.41 1.77554 1.53336 0
M  V30 2147 C 204.426 0.660655 1.6097 0
M  V30 2148 O 205.602 0.945099 1.77848 0
M  V30 2149 C 202.667 1.91291 2.89152 0
M  V30 2150 C 201.728 3.15183 2.91475 0
M  V30 2151 C 200.961 3.28256 4.20813 0
M  V30 2152 O 201.184 2.46798 5.14244 0
M  V30 2153 O 200.118 4.21356 4.29817 0
M  V30 2154 H 203.944 2.7222 1.34647 0
M  V30 2155 H 201.529 1.36698 0.602828 0
M  V30 2156 H 203.411 2.02199 3.69721 0
M  V30 2157 H 202.086 0.998129 3.07927 0
M  V30 2158 H 200.993 3.09739 2.09791 0
M  V30 2159 H 202.326 4.06414 2.77648 0
M  V30 2160 N 203.978 -0.674533 1.42435 0
M  V30 2161 C 204.908 -1.80009 1.48724 0
M  V30 2162 C 205.889 -1.6659 0.343793 0
M  V30 2163 O 207.074 -1.86007 0.558137 0
M  V30 2164 C 204.204 -3.18306 1.38919 0
M  V30 2165 C 203.158 -3.46461 2.51294 0
M  V30 2166 C 202.484 -4.84335 2.26547 0
M  V30 2167 C 203.784 -3.43328 3.93603 0
M  V30 2168 H 205.478 -1.75004 2.42928 0
M  V30 2169 H 203.024 -0.840533 1.16923 0
M  V30 2170 H 204.977 -3.9678 1.41927 0
M  V30 2171 H 203.701 -3.2399 0.412094 0
M  V30 2172 H 202.36 -2.70348 2.47604 0
M  V30 2173 H 202.008 -4.86669 1.2713 0
M  V30 2174 H 201.708 -5.04136 3.01861 0
M  V30 2175 H 203.232 -5.65094 2.31304 0
M  V30 2176 H 204.646 -4.11772 3.98894 0
M  V30 2177 H 203.043 -3.74664 4.68771 0
M  V30 2178 H 204.113 -2.41897 4.20255 0
M  V30 2179 N 205.456 -1.28612 -0.910864 0
M  V30 2180 C 206.705 -1.15311 -1.65488 0
M  V30 2181 C 207.018 0.296999 -1.93332 0
M  V30 2182 O 208.224 0.551168 -2.65847 0
M  V30 2183 C 206.68 -2.01599 -2.98137 0
M  V30 2184 C 206.288 -3.51367 -2.7793 0
M  V30 2185 C 208.032 -1.96993 -3.76024 0
M  V30 2186 C 205.939 -4.29797 -4.06237 0
M  V30 2187 H 204.869 -0.42796 -0.620779 0
M  V30 2188 H 207.52 -1.53166 -1.01057 0
M  V30 2189 H 205.902 -1.56603 -3.63719 0
M  V30 2190 H 207.076 -4.0434 -2.21011 0
M  V30 2191 H 205.391 -3.57529 -2.13452 0
M  V30 2192 H 207.988 -2.52856 -4.71135 0
M  V30 2193 H 208.331 -0.94733 -4.05378 0
M  V30 2194 H 208.864 -2.39973 -3.17266 0
M  V30 2195 H 205.603 -5.32648 -3.82055 0
M  V30 2196 H 205.123 -3.81596 -4.62757 0
M  V30 2197 H 206.802 -4.39869 -4.74473 0
M  V30 2198 N 206.934 1.1197 -1.10907 0
M  V30 2199 C 208.35 1.35591 -0.841852 0
M  V30 2200 C 208.55 1.94233 0.536246 0
M  V30 2201 O 207.606 2.1717 1.28816 0
M  V30 2202 C 208.919 2.29284 -1.94549 0
M  V30 2203 C 210.467 2.42862 -1.97451 0
M  V30 2204 C 210.942 3.39873 -3.07002 0
M  V30 2205 N 212.433 3.47433 -3.06341 0
M  V30 2206 C 213.168 4.22421 -3.87748 0
M  V30 2207 N 212.664 5.00432 -4.79103 0
M  V30 2208 N 214.457 4.17876 -3.75946 0
M  V30 2209 H 206.608 0.722664 -1.99728 0
M  V30 2210 H 208.871 0.380635 -0.868229 0
M  V30 2211 H 208.577 1.93378 -2.93765 0
M  V30 2212 H 208.451 3.29452 -1.83688 0
M  V30 2213 H 210.838 2.78046 -0.988645 0
M  V30 2214 H 210.919 1.42566 -2.12388 0
M  V30 2215 H 210.563 3.05417 -4.05811 0
M  V30 2216 H 210.493 4.40011 -2.89306 0
M  V30 2217 H 212.984 2.91784 -2.40147 0
M  V30 2218 H 213.297 5.55002 -5.37766 0
M  V30 2219 H 211.642 4.99612 -4.83128 0
M  V30 2220 H 214.833 3.56016 -3.03924 0
M  V30 2221 H 215.006 4.76061 -4.39624 0
M  V30 2222 N 208.412 0.89855 1.29475 0
M  V30 2223 C 209.64 0.539261 1.99749 0
M  V30 2224 C 210.055 -0.875716 1.67262 0
M  V30 2225 O 209.412 -1.57786 0.917049 0
M  V30 2226 C 209.463 0.72061 3.54245 0
M  V30 2227 O 209.184 2.07989 3.8558 0
M  V30 2228 C 210.685 0.366118 4.41786 0
M  V30 2229 H 207.905 0.207047 0.638258 0
M  V30 2230 H 210.449 1.20758 1.65039 0
M  V30 2231 H 208.604 0.0994862 3.87272 0
M  V30 2232 H 209.018 2.10841 4.80257 0
M  V30 2233 H 210.492 0.543848 5.49314 0
M  V30 2234 H 210.969 -0.696763 4.33638 0
M  V30 2235 H 211.575 0.964135 4.14228 0
M  V30 2236 N 209.89 -1.43072 0.660911 0
M  V30 2237 C 210.823 -2.28074 -0.0758862 0
M  V30 2238 C 211.801 -1.40271 -0.822362 0
M  V30 2239 O 212.985 -1.69713 -0.820352 0
M  V30 2240 C 210.112 -3.19843 -1.11437 0
M  V30 2241 C 209.158 -4.23957 -0.465069 0
M  V30 2242 S 209.991 -5.29978 0.767078 0
M  V30 2243 C 211.147 -6.25314 -0.270682 0
M  V30 2244 H 211.38 -2.90216 0.645139 0
M  V30 2245 H 208.913 -1.47697 0.449995 0
M  V30 2246 H 210.871 -3.73257 -1.70849 0
M  V30 2247 H 209.532 -2.56863 -1.80776 0
M  V30 2248 H 208.725 -4.88299 -1.24819 0
M  V30 2249 H 208.327 -3.73959 0.0551242 0
M  V30 2250 H 210.619 -6.67932 -1.13459 0
M  V30 2251 H 211.562 -7.07293 0.337916 0
M  V30 2252 H 211.97 -5.61195 -0.609937 0
M  V30 2253 N 211.368 -0.403325 -1.52352 0
M  V30 2254 C 212.614 0.174605 -2.02047 0
M  V30 2255 C 212.947 1.45282 -1.28867 0
M  V30 2256 O 212.222 1.90483 -0.393257 0
M  V30 2257 C 212.505 0.428238 -3.57545 0
M  V30 2258 C 212.358 -0.866248 -4.4138 0
M  V30 2259 C 213.677 1.21287 -4.23057 0
M  V30 2260 H 210.796 0.0619851 -0.734389 0
M  V30 2261 H 213.438 -0.53565 -1.82293 0
M  V30 2262 H 211.588 1.03327 -3.74507 0
M  V30 2263 H 213.26 -1.50265 -4.3614 0
M  V30 2264 H 211.503 -1.47851 -4.07827 0
M  V30 2265 H 212.174 -0.643249 -5.48239 0
M  V30 2266 H 214.65 0.700703 -4.10158 0
M  V30 2267 H 213.526 1.35909 -5.31808 0
M  V30 2268 H 213.787 2.23193 -3.81625 0
M  V30 2269 N 212.846 1.57033 -0.133567 0
M  V30 2270 C 214.123 1.87256 0.56522 0
M  V30 2271 C 214.503 1.03726 1.83859 0
M  V30 2272 O 213.851 0.120247 2.28183 0
M  V30 2273 C 214.061 3.3865 0.843636 0
M  V30 2274 C 215.409 4.07574 1.19032 0
M  V30 2275 O 216.433 3.43752 0.933429 0
M  V30 2276 O 215.292 5.20259 1.67312 0
M  V30 2277 H 212.386 0.775678 0.286796 0
M  V30 2278 H 214.932 1.68855 -0.169168 0
M  V30 2279 H 213.704 3.91257 -0.0581149 0
M  V30 2280 H 213.327 3.62532 1.63268 0
M  V30 2281 N 214.325 -0.140222 1.56975 0
M  V30 2282 C 215.741 -0.493088 1.51792 0
M  V30 2283 C 215.941 -1.83013 0.843116 0
M  V30 2284 O 214.997 -2.49041 0.416493 0
M  V30 2285 C 216.31 -0.497144 2.96562 0
M  V30 2286 C 217.858 -0.582186 3.07538 0
M  V30 2287 C 218.333 -0.616838 4.53827 0
M  V30 2288 N 219.824 -0.678873 4.58198 0
M  V30 2289 C 220.559 -0.726782 5.68775 0
M  V30 2290 N 220.055 -0.733623 6.88905 0
M  V30 2291 N 221.848 -0.768179 5.56826 0
M  V30 2292 H 213.999 0.736108 1.99237 0
M  V30 2293 H 216.262 0.269182 0.90898 0
M  V30 2294 H 215.968 0.417217 3.49217 0
M  V30 2295 H 215.842 -1.33263 3.52875 0
M  V30 2296 H 218.229 -1.48697 2.54899 0
M  V30 2297 H 218.31 0.280581 2.54257 0
M  V30 2298 H 217.954 0.283812 5.07106 0
M  V30 2299 H 217.884 -1.49619 5.04898 0
M  V30 2300 H 220.375 -0.68061 3.7172 0
M  V30 2301 H 220.688 -0.772215 7.68932 0
M  V30 2302 H 219.033 -0.701389 6.91452 0
M  V30 2303 H 222.224 -0.760051 4.61888 0
M  V30 2304 H 222.397 -0.80205 6.43017 0
M  V30 2305 N 215.803 -1.52179 -0.40978 0
M  V30 2306 C 216.766 -1.74853 -1.48186 0
M  V30 2307 C 217.766 -0.618417 -1.48433 0
M  V30 2308 O 218.956 -0.886286 -1.49969 0
M  V30 2309 C 216.088 -1.8303 -2.87598 0
M  V30 2310 H 217.281 -2.70559 -1.29374 0
M  V30 2311 H 214.834 -1.42586 -0.640233 0
M  V30 2312 H 215.569 -0.89236 -3.11781 0
M  V30 2313 H 215.354 -2.65187 -2.88822 0
M  V30 2314 H 216.844 -2.02316 -3.65319 0
M  V30 2315 N 217.281 0.66697 -1.42791 0
M  V30 2316 C 218.191 1.80962 -1.49299 0
M  V30 2317 C 219.207 1.69775 -0.381108 0
M  V30 2318 O 220.383 1.91188 -0.633188 0
M  V30 2319 C 217.448 3.17156 -1.40045 0
M  V30 2320 C 216.509 3.40242 -2.6179 0
M  V30 2321 C 215.742 4.69939 -2.52969 0
M  V30 2322 O 215.965 5.48372 -1.56985 0
M  V30 2323 O 214.899 4.94441 -3.43237 0
M  V30 2324 H 218.725 1.78427 -2.45759 0
M  V30 2325 H 216.31 0.823713 -1.24641 0
M  V30 2326 H 218.192 3.98413 -1.37276 0
M  V30 2327 H 216.867 3.20312 -0.467138 0
M  V30 2328 H 215.774 2.58802 -2.70134 0
M  V30 2329 H 217.107 3.41923 -3.54047 0
M  V30 2330 N 218.759 1.29093 0.90403 0
M  V30 2331 C 219.722 1.1386 1.98919 0
M  V30 2332 C 220.722 0.0753457 1.60623 0
M  V30 2333 O 221.912 0.321931 1.71199 0
M  V30 2334 C 219.044 0.740198 3.32767 0
M  V30 2335 H 220.237 2.10246 2.13861 0
M  V30 2336 H 217.79 1.12218 1.08797 0
M  V30 2337 H 218.525 -0.223997 3.23525 0
M  V30 2338 H 218.31 1.50838 3.61926 0
M  V30 2339 H 219.8 0.656546 4.12407 0
M  V30 2340 N 220.237 -1.11381 1.11499 0
M  V30 2341 C 221.147 -2.21019 0.786628 0
M  V30 2342 C 222.163 -1.72597 -0.220507 0
M  V30 2343 O 223.339 -2.01321 -0.0565251 0
M  V30 2344 C 220.404 -3.459 0.235333 0
M  V30 2345 C 219.465 -4.09107 1.30115 0
M  V30 2346 C 218.698 -5.28027 0.776068 0
M  V30 2347 O 218.921 -5.6904 -0.393661 0
M  V30 2348 O 217.855 -5.81835 1.54114 0
M  V30 2349 H 221.681 -2.51521 1.70209 0
M  V30 2350 H 219.266 -1.19928 0.890928 0
M  V30 2351 H 221.148 -4.21346 -0.067715 0
M  V30 2352 H 219.823 -3.17049 -0.652828 0
M  V30 2353 H 218.73 -3.35391 1.65722 0
M  V30 2354 H 220.063 -4.42139 2.16273 0
M  V30 2355 N 221.715 -0.905404 -1.28997 0
M  V30 2356 C 223.131 -0.60233 -1.47798 0
M  V30 2357 C 223.331 0.854645 -1.82478 0
M  V30 2358 O 222.387 1.63439 -1.92468 0
M  V30 2359 C 223.7 -1.53306 -2.58685 0
M  V30 2360 C 225.248 -1.53887 -2.72558 0
M  V30 2361 C 225.723 -2.45602 -3.86579 0
M  V30 2362 N 227.214 -2.43681 -3.93921 0
M  V30 2363 C 227.949 -3.11347 -4.81509 0
M  V30 2364 N 227.445 -3.88313 -5.73746 0
M  V30 2365 N 229.238 -3.00476 -4.75048 0
M  V30 2366 H 221.389 -1.84765 -1.04764 0
M  V30 2367 H 223.652 -0.792025 -0.520961 0
M  V30 2368 H 223.358 -2.57141 -2.39941 0
M  V30 2369 H 223.232 -1.25787 -3.55609 0
M  V30 2370 H 225.619 -0.507941 -2.90696 0
M  V30 2371 H 225.7 -1.85447 -1.76191 0
M  V30 2372 H 225.344 -3.48792 -3.69197 0
M  V30 2373 H 225.274 -2.11349 -4.82327 0
M  V30 2374 H 227.765 -1.87767 -3.27951 0
M  V30 2375 H 228.078 -4.36985 -6.37389 0
M  V30 2376 H 226.423 -3.92419 -5.73614 0
M  V30 2377 H 229.614 -2.39858 -4.01977 0
M  V30 2378 H 229.787 -3.53485 -5.43095 0
M  V30 2379 N 223.193 1.4272 -0.668489 0
M  V30 2380 C 224.47 1.95248 -0.117373 0
M  V30 2381 C 224.85 1.60919 1.36632 0
M  V30 2382 O 224.198 0.902095 2.09939 0
M  V30 2383 C 224.408 3.46927 -0.379806 0
M  V30 2384 C 225.756 4.23588 -0.292923 0
M  V30 2385 O 226.78 3.5482 -0.313204 0
M  V30 2386 O 225.639 5.46017 -0.229697 0
M  V30 2387 H 222.733 0.827 0.00079152 0
M  V30 2388 H 225.279 1.52581 -0.742783 0
M  V30 2389 H 224.051 3.65096 -1.40786 0
M  V30 2390 H 223.674 3.96627 0.277923 0
M  V30 2391 N 224.671 0.411399 1.52136 0
M  V30 2392 C 225.917 -0.163888 2.02137 0
M  V30 2393 C 226.25 -1.44597 1.29636 0
M  V30 2394 O 225.525 -1.90272 0.403353 0
M  V30 2395 C 225.808 -0.40927 3.57767 0
M  V30 2396 C 225.661 0.889643 4.40914 0
M  V30 2397 C 226.98 -1.19042 4.23694 0
M  V30 2398 H 224.099 -0.0580896 0.734707 0
M  V30 2399 H 226.741 0.54531 1.82007 0
M  V30 2400 H 224.891 -1.0134 3.7505 0
M  V30 2401 H 226.563 1.52575 4.35337 0
M  V30 2402 H 224.806 1.50011 4.07037 0
M  V30 2403 H 225.477 0.672314 5.4789 0
M  V30 2404 H 227.953 -0.678942 4.10524 0
M  V30 2405 H 226.829 -1.33086 5.32522 0
M  V30 2406 H 227.09 -2.21166 3.82803 0
M  V30 2407 N 226.149 -1.5696 0.141893 0
M  V30 2408 C 227.079 -2.19516 -0.795936 0
M  V30 2409 C 228.06 -1.14187 -1.26077 0
M  V30 2410 O 229.245 -1.42511 -1.31925 0
M  V30 2411 C 226.375 -2.81272 -2.03723 0
M  V30 2412 C 225.329 -3.92384 -1.70936 0
M  V30 2413 C 224.655 -4.41052 -3.02287 0
M  V30 2414 C 225.955 -5.13403 -0.959954 0
M  V30 2415 H 227.649 -2.98138 -0.274596 0
M  V30 2416 H 225.195 -1.43406 -0.130636 0
M  V30 2417 H 227.148 -3.237 -2.69808 0
M  V30 2418 H 225.872 -1.99973 -2.58221 0
M  V30 2419 H 224.531 -3.50566 -1.07232 0
M  V30 2420 H 224.179 -3.56582 -3.54765 0
M  V30 2421 H 223.879 -5.15993 -2.81114 0
M  V30 2422 H 225.403 -4.86146 -3.69451 0
M  V30 2423 H 226.817 -5.52706 -1.52279 0
M  V30 2424 H 225.214 -5.94073 -0.848357 0
M  V30 2425 H 226.284 -4.84875 0.0492434 0
M  V30 2426 N 227.627 0.131896 -1.57047 0
M  V30 2427 C 228.874 0.841932 -1.84168 0
M  V30 2428 C 229.202 1.8048 -0.725066 0
M  V30 2429 O 228.457 1.93618 0.284692 0
M  V30 2430 C 228.756 1.63703 -3.17704 0
M  V30 2431 C 228.422 0.81961 -4.43388 0
M  V30 2432 C 227.084 0.594148 -4.77518 0
M  V30 2433 C 229.436 0.248977 -5.20605 0
M  V30 2434 C 226.764 -0.212409 -5.86315 0
M  V30 2435 C 229.116 -0.544701 -6.30251 0
M  V30 2436 C 227.78 -0.780599 -6.6292 0
M  V30 2437 H 227.05 0.308085 -0.673917 0
M  V30 2438 H 229.697 0.104867 -1.91213 0
M  V30 2439 H 228.002 2.44464 -3.06177 0
M  V30 2440 H 229.699 2.19015 -3.35907 0
M  V30 2441 H 226.289 1.00542 -4.16641 0
M  V30 2442 H 230.473 0.410408 -4.946 0
M  V30 2443 H 225.729 -0.404524 -6.1006 0
M  V30 2444 H 229.903 -0.993922 -6.89271 0
M  V30 2445 H 227.53 -1.40742 -7.47058 0
M  V30 2446 N 229.106 1.52395 0.401703 0
M  V30 2447 C 230.517 1.58899 0.980202 0
M  V30 2448 C 230.868 0.434032 1.91339 0
M  V30 2449 O 229.993 -0.444619 2.11783 0
M  V30 2450 C 230.588 2.87994 1.78451 0
M  V30 2451 C 229.147 2.96953 2.31292 0
M  V30 2452 C 228.294 2.53903 1.11483 0
M  V30 2453 H 231.245 1.57657 0.18168 0
M  V30 2454 H 231.266 2.73765 2.64259 0
M  V30 2455 H 230.778 3.72035 1.10506 0
M  V30 2456 H 228.879 2.17422 3.02586 0
M  V30 2457 H 228.992 4.01344 2.61649 0
M  V30 2458 H 227.356 2.07925 1.47104 0
M  V30 2459 H 228.139 3.40326 0.450928 0
M  V30 2460 N 230.584 -0.659388 1.43143 0
M  V30 2461 C 231.832 -1.41654 1.44147 0
M  V30 2462 C 232.153 -1.94893 0.0645739 0
M  V30 2463 O 231.423 -1.74044 -0.899198 0
M  V30 2464 H 230.003 -0.525708 0.530697 0
M  V30 2465 H 232.665 -0.778097 1.78694 0
M  V30 2466 H 231.761 -2.26195 2.1504 0
M  V30 2467 N 232.062 -1.29571 -0.897171 0
M  V30 2468 C 233.292 -1.20408 -1.67886 0
M  V30 2469 C 233.7 0.237429 -1.87704 0
M  V30 2470 O 233.043 1.17048 -1.41582 0
M  V30 2471 C 233.105 -1.84887 -3.08314 0
M  V30 2472 C 232.769 -3.34189 -3.11716 0
M  V30 2473 C 233.766 -4.30374 -2.91675 0
M  V30 2474 C 231.451 -3.75431 -3.33701 0
M  V30 2475 C 233.445 -5.65776 -2.93557 0
M  V30 2476 C 231.132 -5.10955 -3.35214 0
M  V30 2477 C 232.13 -6.05938 -3.15164 0
M  V30 2478 O 231.818 -7.38987 -3.1647 0
M  V30 2479 H 231.55 -0.418289 -0.531046 0
M  V30 2480 H 234.104 -1.71514 -1.13014 0
M  V30 2481 H 232.334 -1.28295 -3.64798 0
M  V30 2482 H 234.023 -1.70011 -3.6858 0
M  V30 2483 H 234.789 -3.99844 -2.74499 0
M  V30 2484 H 230.668 -3.01953 -3.48347 0
M  V30 2485 H 234.212 -6.39889 -2.77826 0
M  V30 2486 H 230.109 -5.4113 -3.51922 0
M  V30 2487 H 230.877 -7.47823 -3.3272 0
M  V30 2488 N 233.54 1.10788 -1.12088 0
M  V30 2489 C 234.768 1.86461 -0.896651 0
M  V30 2490 C 235.183 1.80492 0.553912 0
M  V30 2491 O 234.54 1.19102 1.38278 0
M  V30 2492 C 234.591 3.35006 -1.35843 0
M  V30 2493 O 234.312 3.40866 -2.75213 0
M  V30 2494 C 235.813 4.27565 -1.1706 0
M  V30 2495 H 233.033 0.589425 -0.320654 0
M  V30 2496 H 235.577 1.40076 -1.48993 0
M  V30 2497 H 233.732 3.7887 -0.808458 0
M  V30 2498 H 234.146 4.33411 -2.9539 0
M  V30 2499 H 235.62 5.30007 -1.54263 0
M  V30 2500 H 236.097 4.3906 -0.110814 0
M  V30 2501 H 236.703 3.89501 -1.70789 0
M  V30 2502 N 235.018 0.912232 1.28515 0
M  V30 2503 C 235.968 0.370649 2.24967 0
M  V30 2504 C 236.952 -0.516375 1.52389 0
M  V30 2505 O 238.144 -0.356345 1.73376 0
M  V30 2506 C 235.273 -0.389526 3.41083 0
M  V30 2507 C 234.359 0.51313 4.20984 0
M  V30 2508 N 234.75 1.62604 4.78951 0
M  V30 2509 C 233.048 0.313235 4.44899 0
M  V30 2510 C 233.749 2.18619 5.39055 0
M  V30 2511 N 232.725 1.47765 5.23132 0
M  V30 2512 H 236.527 1.22061 2.67354 0
M  V30 2513 H 234.041 0.764712 1.43269 0
M  V30 2514 H 236.038 -0.794353 4.09262 0
M  V30 2515 H 234.698 -1.2366 3.0023 0
M  V30 2516 H 235.709 2.00864 4.77362 0
M  V30 2517 H 232.386 -0.494452 4.14562 0
M  V30 2518 H 233.776 3.12228 5.94948 0
M  V30 2519 N 236.496 -1.42363 0.676048 0
M  V30 2520 C 237.426 -2.33497 0.0124832 0
M  V30 2521 C 238.407 -1.50748 -0.787981 0
M  V30 2522 O 239.592 -1.79346 -0.744884 0
M  V30 2523 C 236.722 -3.34377 -0.938582 0
M  V30 2524 C 235.676 -4.27289 -0.246622 0
M  V30 2525 C 235.002 -5.18386 -1.31071 0
M  V30 2526 C 236.302 -5.14916 0.875125 0
M  V30 2527 H 237.996 -2.89233 0.773593 0
M  V30 2528 H 235.542 -1.39073 0.37346 0
M  V30 2529 H 237.495 -3.97044 -1.41188 0
M  V30 2530 H 236.219 -2.76947 -1.73113 0
M  V30 2531 H 234.878 -3.66018 0.206456 0
M  V30 2532 H 234.526 -4.57282 -2.09528 0
M  V30 2533 H 234.226 -5.81378 -0.852839 0
M  V30 2534 H 235.75 -5.83929 -1.78492 0
M  V30 2535 H 237.164 -5.71262 0.482983 0
M  V30 2536 H 235.561 -5.86747 1.25887 0
M  V30 2537 H 236.631 -4.53242 1.72335 0
M  V30 2538 N 237.974 -0.419461 -1.51915 0
M  V30 2539 C 238.906 0.43646 -2.25006 0
M  V30 2540 C 239.919 1.00149 -1.28351 0
M  V30 2541 O 241.108 0.898674 -1.54227 0
M  V30 2542 C 238.208 1.6206 -2.9764 0
M  V30 2543 C 237.381 1.17763 -4.21249 0
M  V30 2544 C 236.44 2.22985 -4.76617 0
M  V30 2545 O 235.466 1.83151 -5.38929 0
M  V30 2546 N 236.668 3.55271 -4.59089 0
M  V30 2547 H 239.433 -0.18989 -2.99098 0
M  V30 2548 H 236.994 -0.247386 -1.59999 0
M  V30 2549 H 238.986 2.32038 -3.31573 0
M  V30 2550 H 237.556 2.15266 -2.2667 0
M  V30 2551 H 236.776 0.305582 -3.93014 0
M  V30 2552 H 238.064 0.858781 -5.015 0
M  V30 2553 H 237.462 3.90377 -4.09417 0
M  V30 2554 H 236.019 4.21195 -4.97432 0
M  V30 2555 N 239.452 1.56882 -0.150215 0
M  V30 2556 C 240.868 1.58263 0.20617 0
M  V30 2557 C 241.068 1.16464 1.64434 0
M  V30 2558 O 240.124 0.866422 2.3717 0
M  V30 2559 C 241.437 3.00649 -0.0555025 0
M  V30 2560 C 242.985 3.12999 0.00795388 0
M  V30 2561 C 243.46 4.5744 -0.226429 0
M  V30 2562 N 244.951 4.62875 -0.173469 0
M  V30 2563 C 245.686 5.72454 -0.329288 0
M  V30 2564 N 245.182 6.90669 -0.543005 0
M  V30 2565 N 246.975 5.61467 -0.266666 0
M  V30 2566 H 239.126 1.82345 -1.08922 0
M  V30 2567 H 241.389 0.844149 -0.431413 0
M  V30 2568 H 241.095 3.3563 -1.05096 0
M  V30 2569 H 240.969 3.71337 0.66246 0
M  V30 2570 H 243.356 2.77857 0.993966 0
M  V30 2571 H 243.437 2.4479 -0.742388 0
M  V30 2572 H 243.081 4.93287 -1.20956 0
M  V30 2573 H 243.011 5.2378 0.544274 0
M  V30 2574 H 245.502 3.77898 -0.0130709 0
M  V30 2575 H 245.815 7.70045 -0.651922 0
M  V30 2576 H 244.16 6.92581 -0.579366 0
M  V30 2577 H 247.351 4.67992 -0.100441 0
M  V30 2578 H 247.524 6.46816 -0.391535 0
M  V30 2579 N 240.93 -0.123565 1.57115 0
M  V30 2580 C 241.893 -1.13583 1.99076 0
M  V30 2581 C 242.893 -1.34564 0.880296 0
M  V30 2582 O 244.083 -1.31158 1.14644 0
M  V30 2583 C 241.215 -2.49128 2.32698 0
M  V30 2584 H 242.408 -0.775287 2.89706 0
M  V30 2585 H 239.961 -0.36771 1.51913 0
M  V30 2586 H 240.696 -2.90111 1.44934 0
M  V30 2587 H 240.481 -2.35255 3.13684 0
M  V30 2588 H 241.971 -3.2199 2.65918 0
M  V30 2589 N 242.408 -1.52605 -0.393616 0
M  V30 2590 C 243.34 -1.73303 -1.49995 0
M  V30 2591 C 244.353 -0.613473 -1.50799 0
M  V30 2592 O 245.542 -0.889049 -1.54784 0
M  V30 2593 C 242.642 -1.77245 -2.88855 0
M  V30 2594 C 241.815 -3.06483 -3.12069 0
M  V30 2595 C 240.874 -3.02033 -4.30886 0
M  V30 2596 O 239.9 -3.75907 -4.27414 0
M  V30 2597 N 241.102 -2.20897 -5.36828 0
M  V30 2598 H 243.867 -2.68756 -1.32629 0
M  V30 2599 H 241.428 -1.51036 -0.583083 0
M  V30 2600 H 243.42 -1.7178 -3.66434 0
M  V30 2601 H 241.99 -0.891993 -2.99603 0
M  V30 2602 H 241.21 -3.25474 -2.22396 0
M  V30 2603 H 242.498 -3.91947 -3.2443 0
M  V30 2604 H 241.896 -1.60336 -5.42502 0
M  V30 2605 H 240.453 -2.21275 -6.13091 0
M  V30 2606 N 243.887 0.651787 -1.4349 0
M  V30 2607 C 245.298 1.233 -1.40193 0
M  V30 2608 C 245.649 1.9591 -0.106727 0
M  V30 2609 O 244.774 2.01316 0.793773 0
M  V30 2610 C 245.369 2.24257 -2.53957 0
M  V30 2611 C 243.928 2.77852 -2.5392 0
M  V30 2612 C 243.075 1.52517 -2.3159 0
M  V30 2613 H 246.026 0.443717 -1.52371 0
M  V30 2614 H 246.047 3.0646 -2.25528 0
M  V30 2615 H 245.559 1.71382 -3.4821 0
M  V30 2616 H 243.66 3.34786 -1.63551 0
M  V30 2617 H 243.773 3.25299 -3.51735 0
M  V30 2618 H 242.137 1.79915 -1.80285 0
M  V30 2619 H 242.92 1.01574 -3.27929 0
M  V30 2620 N 245.365 1.30045 0.890287 0
M  V30 2621 C 246.614 1.17929 1.63633 0
M  V30 2622 C 246.927 -0.266204 1.9378 0
M  V30 2623 O 248.133 -0.508804 2.6669 0
M  V30 2624 C 246.589 2.06317 2.94892 0
M  V30 2625 C 246.197 3.55745 2.72305 0
M  V30 2626 C 247.941 2.0295 3.72843 0
M  V30 2627 C 245.848 4.36205 3.99348 0
M  V30 2628 H 244.778 0.437782 0.613892 0
M  V30 2629 H 247.429 1.54754 0.986075 0
M  V30 2630 H 245.811 1.6237 3.61182 0
M  V30 2631 H 246.985 4.07805 2.1455 0
M  V30 2632 H 245.3 3.6088 2.07737 0
M  V30 2633 H 247.897 2.60319 4.67053 0
M  V30 2634 H 248.24 1.0117 4.0382 0
M  V30 2635 H 248.773 2.4499 3.13408 0
M  V30 2636 H 245.512 5.38659 3.73533 0
M  V30 2637 H 245.032 3.8891 4.56628 0
M  V30 2638 H 246.711 4.47362 4.67415 0
M  V30 2639 N 246.843 -1.10192 1.12674 0
M  V30 2640 C 248.259 -1.34235 0.863317 0
M  V30 2641 C 248.459 -1.95062 -0.505277 0
M  V30 2642 O 247.515 -2.19192 -1.25345 0
M  V30 2643 C 248.828 -2.2616 1.98172 0
M  V30 2644 C 250.376 -2.3969 2.0129 0
M  V30 2645 C 250.851 -3.34946 3.1237 0
M  V30 2646 N 252.342 -3.42515 3.11829 0
M  V30 2647 C 253.077 -4.16199 3.94419 0
M  V30 2648 N 252.573 -4.92747 4.87004 0
M  V30 2649 N 254.366 -4.11843 3.82547 0
M  V30 2650 H 246.517 -0.690798 2.00853 0
M  V30 2651 H 248.78 -0.366774 0.874174 0
M  V30 2652 H 248.486 -1.8868 2.96804 0
M  V30 2653 H 248.36 -3.26488 1.88906 0
M  V30 2654 H 250.747 -2.76438 1.03276 0
M  V30 2655 H 250.828 -1.39169 2.14629 0
M  V30 2656 H 250.472 -2.98923 4.10619 0
M  V30 2657 H 250.402 -4.35353 2.96269 0
M  V30 2658 H 252.893 -2.87926 2.44759 0
M  V30 2659 H 253.206 -5.46376 5.46528 0
M  V30 2660 H 251.551 -4.91862 4.91016 0
M  V30 2661 H 254.742 -3.51136 3.0955 0
M  V30 2662 H 254.915 -4.69007 4.47142 0
M  V30 2663 N 248.321 -0.919034 -1.28029 0
M  V30 2664 C 249.567 -0.565221 -1.95389 0
M  V30 2665 C 249.922 0.882325 -1.70976 0
M  V30 2666 O 249.215 1.61988 -1.02325 0
M  V30 2667 C 249.409 -0.816855 -3.4794 0
M  V30 2668 C 249.238 -2.28731 -3.87185 0
M  V30 2669 C 248.008 -2.93841 -4.11079 0
M  V30 2670 C 250.206 -3.26415 -3.97439 0
M  V30 2671 N 248.188 -4.31129 -4.37037 0
M  V30 2672 C 249.559 -4.48884 -4.27672 0
M  V30 2673 C 251.614 -3.21742 -3.79982 0
M  V30 2674 C 250.317 -5.67268 -4.42266 0
M  V30 2675 C 252.343 -4.39431 -3.95796 0
M  V30 2676 C 251.705 -5.60675 -4.26407 0
M  V30 2677 H 247.804 -0.256797 -0.738633 0
M  V30 2678 H 250.388 -1.18386 -1.54573 0
M  V30 2679 H 248.559 -0.227445 -3.87733 0
M  V30 2680 H 250.291 -0.426542 -4.02446 0
M  V30 2681 H 247.046 -2.44547 -4.05578 0
M  V30 2682 H 247.47 -5.02127 -4.5409 0
M  V30 2683 H 252.112 -2.29079 -3.55363 0
M  V30 2684 H 249.83 -6.60406 -4.65714 0
M  V30 2685 H 253.416 -4.37323 -3.83719 0
M  V30 2686 H 252.296 -6.50223 -4.38383 0
M  V30 2687 N 249.799 1.42003 -0.683588 0
M  V30 2688 C 251.024 2.06265 -0.216647 0
M  V30 2689 C 251.449 1.51059 1.12083 0
M  V30 2690 O 250.807 0.632638 1.69904 0
M  V30 2691 C 250.855 3.60191 -0.171759 0
M  V30 2692 O 249.959 4.03396 0.857069 0
M  V30 2693 H 249.3 0.65502 -0.108834 0
M  V30 2694 H 251.83 1.81982 -0.935077 0
M  V30 2695 H 251.84 4.08 0.0014303 0
M  V30 2696 H 250.515 3.99743 -1.14796 0
M  V30 2697 H 249.092 3.67117 0.654208 0
M  V30 2698 N 251.277 0.427512 1.51691 0
M  V30 2699 C 252.227 -0.406604 2.24345 0
M  V30 2700 C 253.211 -0.998276 1.26187 0
M  V30 2701 O 254.403 -0.918045 1.51331 0
M  V30 2702 C 251.532 -1.51266 3.08177 0
M  V30 2703 C 250.618 -0.930868 4.13758 0
M  V30 2704 N 251.009 -0.0773552 5.05741 0
M  V30 2705 C 249.307 -1.19948 4.29568 0
M  V30 2706 C 250.008 0.248344 5.8117 0
M  V30 2707 N 248.984 -0.365535 5.4237 0
M  V30 2708 H 252.786 0.251581 2.92821 0
M  V30 2709 H 250.3 0.239003 1.60632 0
M  V30 2710 H 252.297 -2.123 3.58796 0
M  V30 2711 H 250.957 -2.17328 2.41244 0
M  V30 2712 H 251.968 0.288351 5.17097 0
M  V30 2713 H 248.645 -1.85832 3.73862 0
M  V30 2714 H 250.035 0.942286 6.6526 0
M  V30 2715 N 252.755 -1.56801 0.158532 0
M  V30 2716 C 254.001 -1.97559 -0.483957 0
M  V30 2717 C 254.356 -1.04239 -1.61716 0
M  V30 2718 O 253.649 -0.079603 -1.91435 0
M  V30 2719 C 253.843 -3.4235 -1.02623 0
M  V30 2720 C 253.672 -4.49669 0.0528929 0
M  V30 2721 C 252.442 -5.02838 0.498234 0
M  V30 2722 C 254.64 -5.0725 0.848616 0
M  V30 2723 N 252.622 -5.93775 1.559 0
M  V30 2724 C 253.993 -5.94506 1.7596 0
M  V30 2725 C 256.048 -4.89788 0.895121 0
M  V30 2726 C 254.751 -6.66169 2.71314 0
M  V30 2727 C 256.777 -5.62161 1.83654 0
M  V30 2728 C 256.139 -6.49134 2.73503 0
M  V30 2729 H 252.238 -0.768332 -0.145566 0
M  V30 2730 H 254.822 -1.93012 0.255799 0
M  V30 2731 H 252.993 -3.47467 -1.73555 0
M  V30 2732 H 254.725 -3.70145 -1.63629 0
M  V30 2733 H 251.48 -4.73498 0.0983222 0
M  V30 2734 H 251.904 -6.43948 2.08949 0
M  V30 2735 H 256.546 -4.22255 0.21453 0
M  V30 2736 H 254.264 -7.32923 3.40367 0
M  V30 2737 H 257.85 -5.5064 1.87847 0
M  V30 2738 H 256.73 -7.04153 3.45163 0
M  V30 2739 N 254.233 0.115231 -1.57178 0
M  V30 2740 C 255.482 0.820945 -1.84237 0
M  V30 2741 C 255.795 1.80866 -0.744761 0
M  V30 2742 O 257.001 2.56083 -0.901871 0
M  V30 2743 C 255.457 1.51072 -3.26658 0
M  V30 2744 C 255.065 0.563795 -4.44438 0
M  V30 2745 C 256.809 2.20134 -3.62962 0
M  V30 2746 C 254.716 1.25701 -5.77887 0
M  V30 2747 H 253.646 0.310328 -0.687177 0
M  V30 2748 H 256.297 0.0737134 -1.83352 0
M  V30 2749 H 254.679 2.30471 -3.22024 0
M  V30 2750 H 255.853 -0.197247 -4.60378 0
M  V30 2751 H 254.168 -0.0200638 -4.16395 0
M  V30 2752 H 256.765 2.72696 -4.59936 0
M  V30 2753 H 257.108 2.98107 -2.90582 0
M  V30 2754 H 257.641 1.47619 -3.69396 0
M  V30 2755 H 254.38 0.518493 -6.53446 0
M  V30 2756 H 253.9 1.98997 -5.65827 0
M  V30 2757 H 255.579 1.78915 -6.2177 0
M  V30 2758 N 255.711 1.52812 0.385517 0
M  V30 2759 C 256.641 1.80808 1.47752 0
M  V30 2760 C 257.622 0.660318 1.5676 0
M  V30 2761 O 258.807 0.908246 1.71652 0
M  V30 2762 C 255.937 1.98008 2.85324 0
M  V30 2763 C 254.891 3.13709 2.91154 0
M  V30 2764 C 254.217 3.16169 4.31209 0
M  V30 2765 C 255.517 4.52709 2.60483 0
M  V30 2766 H 257.211 2.72253 1.24573 0
M  V30 2767 H 254.757 1.31003 0.597839 0
M  V30 2768 H 256.71 2.16176 3.61726 0
M  V30 2769 H 255.434 1.03255 3.09848 0
M  V30 2770 H 254.093 2.95329 2.17201 0
M  V30 2771 H 253.741 2.19092 4.52778 0
M  V30 2772 H 253.441 3.93894 4.36029 0
M  V30 2773 H 254.965 3.36496 5.09512 0
M  V30 2774 H 256.379 4.71173 3.26602 0
M  V30 2775 H 254.776 5.32528 2.76648 0
M  V30 2776 H 255.846 4.59186 1.55809 0
M  V30 2777 N 257.189 -0.644168 1.43834 0
M  V30 2778 C 258.414 -1.43642 1.49605 0
M  V30 2779 C 258.839 -1.8773 0.117913 0
M  V30 2780 O 258.197 -1.57938 -0.890239 0
M  V30 2781 C 258.245 -2.6416 2.45463 0
M  V30 2782 O 257.349 -3.63538 1.94714 0
M  V30 2783 H 256.69 -0.430329 0.50568 0
M  V30 2784 H 259.22 -0.787448 1.8884 0
M  V30 2785 H 259.23 -3.11864 2.63068 0
M  V30 2786 H 257.905 -2.31414 3.45572 0
M  V30 2787 H 256.482 -3.2273 1.86814 0
M  V30 2788 N 258.668 -1.30515 -0.883378 0
M  V30 2789 C 259.618 -1.13641 -1.9766 0
M  V30 2790 C 260.602 -0.0511314 -1.60819 0
M  V30 2791 O 261.794 -0.274623 -1.74857 0
M  V30 2792 C 258.923 -0.831976 -3.33066 0
M  V30 2793 C 258.009 -1.95759 -3.76217 0
M  V30 2794 N 258.4 -3.20313 -3.9145 0
M  V30 2795 C 256.698 -1.85431 -4.05625 0
M  V30 2796 C 257.399 -3.93856 -4.2808 0
M  V30 2797 N 256.375 -3.21919 -4.38029 0
M  V30 2798 H 260.177 -2.08106 -2.07531 0
M  V30 2799 H 257.691 -1.21877 -1.0733 0
M  V30 2800 H 259.688 -0.692102 -4.11115 0
M  V30 2801 H 258.348 0.104588 -3.24532 0
M  V30 2802 H 259.359 -3.55583 -3.76538 0
M  V30 2803 H 256.036 -0.991531 -4.05555 0
M  V30 2804 H 257.426 -5.01125 -4.47575 0
M  V30 2805 N 260.146 1.09593 -1.13257 0
M  V30 2806 C 261.109 2.14359 -0.811358 0
M  V30 2807 C 262.109 1.59808 0.178377 0
M  V30 2808 O 263.299 1.74132 -0.0484911 0
M  V30 2809 C 260.431 3.40269 -0.207276 0
M  V30 2810 H 261.624 2.44284 -1.73969 0
M  V30 2811 H 259.177 1.25102 -0.936973 0
M  V30 2812 H 259.912 3.15969 0.73036 0
M  V30 2813 H 259.697 3.81154 -0.919992 0
M  V30 2814 H 261.187 4.176 0.000667944 0
M  V30 2815 N 261.624 0.925811 1.2754 0
M  V30 2816 C 262.87 0.566092 1.94739 0
M  V30 2817 C 263.203 -0.890057 1.72603 0
M  V30 2818 O 262.478 -1.63467 1.05399 0
M  V30 2819 C 262.761 0.89054 3.48915 0
M  V30 2820 C 262.614 2.4003 3.80402 0
M  V30 2821 C 263.933 0.395101 4.38323 0
M  V30 2822 H 261.052 0.20714 0.707292 0
M  V30 2823 H 263.694 1.15725 1.50691 0
M  V30 2824 H 261.844 0.387452 3.86563 0
M  V30 2825 H 263.516 2.97494 3.52555 0
M  V30 2826 H 261.759 2.85028 3.2702 0
M  V30 2827 H 262.43 2.57785 4.8811 0
M  V30 2828 H 264.906 0.826241 4.07814 0
M  V30 2829 H 263.782 0.651086 5.45025 0
M  V30 2830 H 264.043 -0.704798 4.36446 0
M  V30 2831 N 263.102 -1.41638 0.69111 0
M  V30 2832 C 264.065 -2.29178 0.0319786 0
M  V30 2833 C 265.065 -1.44153 -0.712496 0
M  V30 2834 O 266.255 -1.65354 -0.548053 0
M  V30 2835 C 263.387 -3.26952 -0.965161 0
M  V30 2836 H 264.58 -2.88959 0.802681 0
M  V30 2837 H 262.133 -1.4955 0.454356 0
M  V30 2838 H 262.868 -2.72142 -1.76378 0
M  V30 2839 H 262.653 -3.89685 -0.434522 0
M  V30 2840 H 264.143 -3.92561 -1.42428 0
M  V30 2841 N 264.58 -0.43555 -1.51462 0
M  V30 2842 C 265.51 0.367376 -2.30592 0
M  V30 2843 C 266.491 1.02263 -1.35928 0
M  V30 2844 O 267.676 1.02661 -1.64847 0
M  V30 2845 C 264.806 1.46983 -3.14664 0
M  V30 2846 C 263.76 0.938161 -4.17591 0
M  V30 2847 C 263.086 2.13622 -4.90173 0
M  V30 2848 C 264.386 -0.0261621 -5.22293 0
M  V30 2849 H 266.08 -0.292969 -2.97963 0
M  V30 2850 H 263.626 -0.14234 -1.43295 0
M  V30 2851 H 265.579 2.03873 -3.688 0
M  V30 2852 H 264.303 2.15843 -2.4511 0
M  V30 2853 H 262.962 0.391481 -3.64504 0
M  V30 2854 H 262.61 2.81098 -4.17124 0
M  V30 2855 H 262.31 1.78688 -5.59772 0
M  V30 2856 H 263.834 2.7107 -5.47132 0
M  V30 2857 H 265.248 0.452384 -5.71512 0
M  V30 2858 H 263.645 -0.287992 -5.99409 0
M  V30 2859 H 264.715 -0.963391 -4.75233 0
M  V30 2860 N 266.058 1.56714 -0.166846 0
M  V30 2861 C 267.286 2.0112 0.485644 0
M  V30 2862 C 267.701 1.04705 1.57106 0
M  V30 2863 O 267.058 0.0471923 1.82439 0
M  V30 2864 C 267.109 3.45361 1.06808 0
M  V30 2865 O 266.83 4.38092 0.0259995 0
M  V30 2866 C 268.331 4.05145 1.79924 0
M  V30 2867 H 265.551 0.65931 0.124704 0
M  V30 2868 H 268.095 2.02746 -0.267262 0
M  V30 2869 H 266.25 3.44524 1.7715 0
M  V30 2870 H 266.664 5.22519 0.455398 0
M  V30 2871 H 268.138 5.08009 2.15942 0
M  V30 2872 H 268.615 3.46982 2.69258 0
M  V30 2873 H 269.221 4.09672 1.14234 0
M  V30 2874 N 267.536 -0.106894 1.57237 0
M  V30 2875 C 268.952 -0.46078 1.52804 0
M  V30 2876 C 269.152 -1.81184 0.881746 0
M  V30 2877 O 268.208 -2.48102 0.469224 0
M  V30 2878 C 269.521 -0.434127 2.9755 0
M  V30 2879 C 271.069 -0.516821 3.08704 0
M  V30 2880 C 271.544 -0.520436 4.55033 0
M  V30 2881 N 273.035 -0.58153 4.59535 0
M  V30 2882 C 273.77 -0.605973 5.70189 0
M  V30 2883 N 273.266 -0.587331 6.90306 0
M  V30 2884 N 275.059 -0.649895 5.5833 0
M  V30 2885 H 267.21 0.778203 1.9763 0
M  V30 2886 H 269.473 0.288403 0.903066 0
M  V30 2887 H 269.179 0.491197 3.48253 0
M  V30 2888 H 269.053 -1.25748 3.55622 0
M  V30 2889 H 271.44 -1.43256 2.57995 0
M  V30 2890 H 271.521 0.334449 2.53604 0
M  V30 2891 H 271.165 0.391313 5.0639 0
M  V30 2892 H 271.095 -1.38876 5.07958 0
M  V30 2893 H 273.586 -0.60161 3.73081 0
M  V30 2894 H 273.899 -0.60894 7.70397 0
M  V30 2895 H 272.244 -0.554564 6.92784 0
M  V30 2896 H 275.435 -0.661907 4.63397 0
M  V30 2897 H 275.608 -0.665476 6.44574 0
M  V30 2898 N 269.014 -1.53014 -0.377408 0
M  V30 2899 C 270.291 -1.59215 -1.13622 0
M  V30 2900 C 270.671 -0.392407 -2.07421 0
M  V30 2901 O 270.019 0.618342 -2.19975 0
M  V30 2902 C 270.229 -2.93669 -1.88573 0
M  V30 2903 C 271.577 -3.47822 -2.43526 0
M  V30 2904 O 272.601 -2.9562 -1.98715 0
M  V30 2905 O 271.46 -4.39055 -3.25412 0
M  V30 2906 H 268.554 -0.642625 -0.52054 0
M  V30 2907 H 271.1 -1.65353 -0.381625 0
M  V30 2908 H 269.872 -3.7243 -1.20048 0
M  V30 2909 H 269.495 -2.90968 -2.70968 0
M  V30 2910 N 270.492 0.636531 -1.44174 0
M  V30 2911 C 271.717 1.42847 -1.50364 0
M  V30 2912 C 272.142 1.87665 -0.127867 0
M  V30 2913 O 271.5 1.58408 0.88185 0
M  V30 2914 C 271.548 2.62854 -2.4686 0
M  V30 2915 O 270.652 3.62501 -1.9664 0
M  V30 2916 H 269.993 0.427642 -0.507955 0
M  V30 2917 H 272.523 0.777422 -1.89255 0
M  V30 2918 H 272.533 3.10465 -2.64718 0
M  V30 2919 H 271.208 2.29578 -3.46795 0
M  V30 2920 H 269.785 3.21735 -1.88523 0
M  V30 2921 N 271.97 1.30982 0.876444 0
M  V30 2922 C 272.88 1.2003 2.01569 0
M  V30 2923 C 273.896 0.11838 1.73597 0
M  V30 2924 O 275.072 0.33495 1.98595 0
M  V30 2925 C 272.137 0.901637 3.34771 0
M  V30 2926 C 271.198 2.06979 3.76109 0
M  V30 2927 C 270.431 1.78529 5.02954 0
M  V30 2928 O 270.654 0.717296 5.65872 0
M  V30 2929 O 269.588 2.64019 5.40905 0
M  V30 2930 H 273.414 2.15753 2.13739 0
M  V30 2931 H 270.999 1.10658 1.00375 0
M  V30 2932 H 272.881 0.750645 4.1466 0
M  V30 2933 H 271.556 -0.0256141 3.2369 0
M  V30 2934 H 270.463 2.27616 2.96887 0
M  V30 2935 H 271.796 2.97907 3.91807 0
M  V30 2936 N 273.449 -1.08991 1.13837 0
M  V30 2937 C 274.865 -1.33312 0.877506 0
M  V30 2938 C 275.065 -1.95587 -0.48456 0
M  V30 2939 O 274.121 -2.20509 -1.23013 0
M  V30 2940 C 275.434 -2.24045 2.0056 0
M  V30 2941 C 276.982 -2.37542 2.03821 0
M  V30 2942 C 277.457 -3.31614 3.15905 0
M  V30 2943 N 278.948 -3.39189 3.15445 0
M  V30 2944 C 279.683 -4.11992 3.98811 0
M  V30 2945 N 279.179 -4.87553 4.92203 0
M  V30 2946 N 280.972 -4.07762 3.86894 0
M  V30 2947 H 273.123 -0.669456 2.01574 0
M  V30 2948 H 275.386 -0.357482 0.878015 0
M  V30 2949 H 275.092 -1.85521 2.98789 0
M  V30 2950 H 274.966 -3.24466 1.92359 0
M  V30 2951 H 277.353 -2.75327 1.06202 0
M  V30 2952 H 277.434 -1.36884 2.16093 0
M  V30 2953 H 277.078 -2.94551 4.13766 0
M  V30 2954 H 277.008 -4.32186 3.0087 0
M  V30 2955 H 279.499 -2.85314 2.47799 0
M  V30 2956 H 279.812 -5.40549 5.52292 0
M  V30 2957 H 278.157 -4.86627 4.96205 0
M  V30 2958 H 281.348 -3.47833 3.13257 0
M  V30 2959 H 281.521 -4.64238 4.52092 0
M  V30 2960 N 274.927 -0.932562 -1.27047 0
M  V30 2961 C 275.857 -0.452902 -2.29066 0
M  V30 2962 C 276.838 0.489338 -1.62909 0
M  V30 2963 O 278.023 0.393046 -1.90181 0
M  V30 2964 C 275.153 0.290698 -3.46081 0
M  V30 2965 C 274.107 -0.564168 -4.24265 0
M  V30 2966 C 273.433 0.308886 -5.33807 0
M  V30 2967 C 274.733 -1.83112 -4.89149 0
M  V30 2968 H 276.427 -1.30552 -2.69437 0
M  V30 2969 H 273.973 -0.629201 -1.29526 0
M  V30 2970 H 275.926 0.637233 -4.16554 0
M  V30 2971 H 274.65 1.17738 -3.0464 0
M  V30 2972 H 273.309 -0.893477 -3.55545 0
M  V30 2973 H 272.957 1.19467 -4.88607 0
M  V30 2974 H 272.657 -0.259633 -5.87026 0
M  V30 2975 H 274.181 0.650884 -6.07121 0
M  V30 2976 H 275.595 -1.55236 -5.51883 0
M  V30 2977 H 273.992 -2.34353 -5.52448 0
M  V30 2978 H 275.062 -2.54772 -4.12576 0
M  V30 2979 N 276.405 1.4127 -0.698611 0
M  V30 2980 C 277.335 2.33447 -0.049629 0
M  V30 2981 C 278.316 1.51982 0.763898 0
M  V30 2982 O 279.501 1.80509 0.716257 0
M  V30 2983 C 276.631 3.35828 0.885267 0
M  V30 2984 C 275.585 4.27627 0.178613 0
M  V30 2985 C 274.911 5.20406 1.22807 0
M  V30 2986 C 276.211 5.13459 -0.956933 0
M  V30 2987 H 277.905 2.87966 -0.81951 0
M  V30 2988 H 275.451 1.38461 -0.395538 0
M  V30 2989 H 277.404 3.9924 1.34854 0
M  V30 2990 H 276.128 2.79666 1.68685 0
M  V30 2991 H 274.787 3.65643 -0.26466 0
M  V30 2992 H 274.435 4.60558 2.02226 0
M  V30 2993 H 274.135 5.82661 0.760239 0
M  V30 2994 H 275.659 5.86695 1.69179 0
M  V30 2995 H 277.073 5.70421 -0.573805 0
M  V30 2996 H 275.47 5.8467 -1.35205 0
M  V30 2997 H 276.54 4.50443 -1.79524 0
M  V30 2998 N 277.883 0.443576 1.51229 0
M  V30 2999 C 278.793 -0.370721 2.31652 0
M  V30 3000 C 279.809 -1.02186 1.40833 0
M  V30 3001 O 280.985 -1.01586 1.73903 0
M  V30 3002 C 278.05 -1.45376 3.14749 0
M  V30 3003 C 277.111 -0.822099 4.21355 0
M  V30 3004 C 276.344 -1.85353 5.0048 0
M  V30 3005 O 276.567 -3.07656 4.80316 0
M  V30 3006 O 275.501 -1.4406 5.84406 0
M  V30 3007 H 279.327 0.286002 3.0235 0
M  V30 3008 H 276.912 0.20598 1.47973 0
M  V30 3009 H 278.794 -2.08173 3.66391 0
M  V30 3010 H 277.469 -2.09445 2.46809 0
M  V30 3011 H 276.376 -0.155909 3.73775 0
M  V30 3012 H 277.709 -0.224797 4.91686 0
M  V30 3013 N 279.361 -1.56624 0.175154 0
M  V30 3014 C 280.607 -1.9729 -0.469506 0
M  V30 3015 C 280.94 -1.06128 -1.62636 0
M  V30 3016 O 280.215 -0.109183 -1.94193 0
M  V30 3017 C 280.498 -3.47375 -0.948804 0
M  V30 3018 C 280.351 -4.49317 0.208491 0
M  V30 3019 C 281.67 -4.00652 -1.82116 0
M  V30 3020 H 278.789 -0.717317 -0.16919 0
M  V30 3021 H 281.431 -1.88184 0.262062 0
M  V30 3022 H 279.581 -3.55267 -1.57219 0
M  V30 3023 H 281.253 -4.53482 0.845682 0
M  V30 3024 H 279.496 -4.25121 0.863395 0
M  V30 3025 H 280.167 -5.51741 -0.169059 0
M  V30 3026 H 282.643 -3.95416 -1.2956 0
M  V30 3027 H 281.519 -5.06075 -2.12554 0
M  V30 3028 H 281.78 -3.44699 -2.7683 0
M  V30 3029 N 280.839 0.0985539 -1.57292 0
M  V30 3030 C 282.255 0.45267 -1.53046 0
M  V30 3031 C 282.455 1.80713 -0.891342 0
M  V30 3032 O 281.511 2.4785 -0.482375 0
M  V30 3033 C 282.824 0.418341 -2.97776 0
M  V30 3034 C 284.372 0.500443 -3.08973 0
M  V30 3035 C 284.847 0.496297 -4.55303 0
M  V30 3036 N 286.338 0.557151 -4.59837 0
M  V30 3037 C 287.073 0.575726 -5.70502 0
M  V30 3038 N 286.569 0.550714 -6.90608 0
M  V30 3039 N 288.362 0.620277 -5.58667 0
M  V30 3040 H 280.513 -0.788673 -1.97215 0
M  V30 3041 H 282.776 -0.293188 -0.901524 0
M  V30 3042 H 282.482 -0.509659 -3.47988 0
M  V30 3043 H 282.356 1.2386 -3.56284 0
M  V30 3044 H 284.743 1.41886 -2.58751 0
M  V30 3045 H 284.824 -0.347894 -2.53423 0
M  V30 3046 H 284.468 -0.418162 -5.06176 0
M  V30 3047 H 284.398 1.3618 -5.08687 0
M  V30 3048 H 286.889 0.581816 -3.73394 0
M  V30 3049 H 287.202 0.568075 -7.70709 0
M  V30 3050 H 285.547 0.517816 -6.93068 0
M  V30 3051 H 288.738 0.637322 -4.63741 0
M  V30 3052 H 288.911 0.631283 -6.44918 0
M  V30 3053 N 282.317 1.53212 0.369288 0
M  V30 3054 C 283.264 1.79388 1.45219 0
M  V30 3055 C 284.234 0.638059 1.53356 0
M  V30 3056 O 285.419 0.879852 1.69302 0
M  V30 3057 C 282.559 1.98623 2.82211 0
M  V30 3058 C 281.672 3.26337 2.8307 0
M  V30 3059 C 280.807 3.35779 4.11614 0
M  V30 3060 C 279.846 4.5754 4.06601 0
M  V30 3061 N 278.983 4.64155 5.26787 0
M  V30 3062 H 283.823 2.71794 1.22198 0
M  V30 3063 H 281.36 1.34642 0.592444 0
M  V30 3064 H 283.318 2.07761 3.61789 0
M  V30 3065 H 281.948 1.09558 3.03639 0
M  V30 3066 H 281 3.26171 1.95747 0
M  V30 3067 H 282.312 4.15988 2.75237 0
M  V30 3068 H 281.466 3.44208 4.99606 0
M  V30 3069 H 280.205 2.44137 4.22195 0
M  V30 3070 H 279.21 4.49215 3.16996 0
M  V30 3071 H 280.435 5.50519 3.97625 0
M  V30 3072 H 278.381 3.75413 5.3796 0
M  V30 3073 H 278.298 5.47706 5.21109 0
M  V30 3074 H 279.566 4.76863 6.16621 0
M  V30 3075 N 283.795 -0.628877 1.44509 0
M  V30 3076 C 285.211 -0.947305 1.28446 0
M  V30 3077 C 285.411 -2.00275 0.221872 0
M  V30 3078 O 284.467 -2.49447 -0.391471 0
M  V30 3079 C 285.78 -1.40843 2.65676 0
M  V30 3080 C 287.328 -1.52379 2.73404 0
M  V30 3081 C 287.803 -2.01875 4.11109 0
M  V30 3082 N 289.294 -2.09142 4.13296 0
M  V30 3083 C 290.029 -2.48615 5.16699 0
M  V30 3084 N 289.525 -2.87209 6.30462 0
M  V30 3085 N 291.318 -2.48768 5.04054 0
M  V30 3086 H 283.469 0.0690977 2.12288 0
M  V30 3087 H 285.732 -0.0317164 0.947469 0
M  V30 3088 H 285.438 -0.707206 3.44516 0
M  V30 3089 H 285.312 -2.37902 2.92716 0
M  V30 3090 H 287.699 -2.21598 1.9488 0
M  V30 3091 H 287.78 -0.536898 2.50102 0
M  V30 3092 H 287.424 -1.3325 4.90109 0
M  V30 3093 H 287.354 -3.0144 4.31789 0
M  V30 3094 H 289.845 -1.81991 3.31191 0
M  V30 3095 H 290.158 -3.16149 7.05174 0
M  V30 3096 H 288.503 -2.84955 6.33897 0
M  V30 3097 H 291.694 -2.18009 4.14234 0
M  V30 3098 H 291.867 -2.79207 5.84763 0
M  V30 3099 N 285.273 -1.31445 -0.869486 0
M  V30 3100 C 286.522 -1.20517 -1.61736 0
M  V30 3101 C 286.835 0.235341 -1.94179 0
M  V30 3102 O 288.041 0.466312 -2.67465 0
M  V30 3103 C 286.497 -2.10982 -2.91573 0
M  V30 3104 C 286.105 -3.60032 -2.66611 0
M  V30 3105 C 287.849 -2.08856 -3.69567 0
M  V30 3106 C 285.756 -4.42503 -3.92358 0
M  V30 3107 H 284.686 -0.447493 -0.606849 0
M  V30 3108 H 287.337 -1.56303 -0.96133 0
M  V30 3109 H 285.719 -1.68095 -3.58553 0
M  V30 3110 H 286.893 -4.11167 -2.08035 0
M  V30 3111 H 285.208 -3.64139 -2.0197 0
M  V30 3112 H 287.805 -2.67716 -4.62852 0
M  V30 3113 H 288.148 -1.07582 -4.02159 0
M  V30 3114 H 288.681 -2.49945 -3.09471 0
M  V30 3115 H 285.42 -5.44533 -3.64916 0
M  V30 3116 H 284.94 -3.96125 -4.50383 0
M  V30 3117 H 286.619 -4.54741 -4.60238 0
M  V30 3118 N 286.751 1.08385 -1.14413 0
M  V30 3119 C 287.699 2.17406 -0.826888 0
M  V30 3120 C 288.693 1.6827 0.195312 0
M  V30 3121 O 289.899 1.79927 0.0513892 0
M  V30 3122 H 286.274 0.70934 -0.249681 0
M  V30 3123 H 288.245 2.41388 -1.75426 0
M  V30 3124 C 286.994 3.46215 -0.320979 0
M  V30 3125 H 286.317 3.84401 -1.0989 0
M  V30 3126 H 287.757 4.23777 -0.137549 0
M  V30 3127 C 286.216 3.23067 0.955472 0
M  V30 3128 O 286.746 3.4668 2.02918 0
M  V30 3129 N 284.952 2.7661 0.890798 0
M  V30 3130 H 284.499 2.57594 0.0168815 0
M  V30 3131 H 284.457 2.61501 1.74542 0
M  V30 3132 N 288.23 0.939286 1.26551 0
M  V30 3133 C 289.476 0.586715 1.94128 0
M  V30 3134 C 289.809 -0.8717 1.73537 0
M  V30 3135 O 289.084 -1.62339 1.07127 0
M  V30 3136 C 289.367 0.927497 3.4795 0
M  V30 3137 C 289.22 2.44052 3.77834 0
M  V30 3138 C 290.539 0.441569 4.37879 0
M  V30 3139 H 287.658 0.21463 0.705055 0
M  V30 3140 H 290.3 1.17316 1.49455 0
M  V30 3141 H 288.45 0.428431 3.8613 0
M  V30 3142 H 290.122 3.01216 3.4938 0
M  V30 3143 H 288.365 2.8848 3.23978 0
M  V30 3144 H 289.036 2.62947 4.85348 0
M  V30 3145 H 291.512 0.869448 4.06915 0
M  V30 3146 H 290.388 0.708856 5.44304 0
M  V30 3147 H 290.649 -0.658467 4.37169 0
M  V30 3148 N 289.708 -1.40897 0.706093 0
M  V30 3149 C 290.638 -2.33418 0.0620085 0
M  V30 3150 C 291.619 -1.52385 -0.755827 0
M  V30 3151 O 292.804 -1.80886 -0.706674 0
M  V30 3152 C 289.934 -3.36293 -0.867445 0
M  V30 3153 C 288.888 -4.27716 -0.155932 0
M  V30 3154 C 288.214 -5.2105 -1.20046 0
M  V30 3155 C 289.514 -5.12944 0.984149 0
M  V30 3156 H 291.208 -2.87527 0.83477 0
M  V30 3157 H 288.754 -1.38249 0.402875 0
M  V30 3158 H 290.707 -3.99949 -1.32735 0
M  V30 3159 H 289.431 -2.80556 -1.67199 0
M  V30 3160 H 288.09 -3.65498 0.284047 0
M  V30 3161 H 287.738 -4.61624 -1.99781 0
M  V30 3162 H 287.438 -5.83056 -0.729328 0
M  V30 3163 H 288.962 -5.87584 -1.66066 0
M  V30 3164 H 290.376 -5.70109 0.604048 0
M  V30 3165 H 288.773 -5.83945 1.38304 0
M  V30 3166 H 289.843 -4.49485 1.81911 0
M  V30 3167 N 291.186 -0.45159 -1.50991 0
M  V30 3168 C 292.597 0.00818571 -1.86698 0
M  V30 3169 C 292.948 1.40661 -1.3678 0
M  V30 3170 O 292.073 2.0391 -0.724546 0
M  V30 3171 C 292.668 0.0216303 -3.38793 0
M  V30 3172 C 291.227 0.425865 -3.73983 0
M  V30 3173 C 290.374 -0.372163 -2.74791 0
M  V30 3174 H 293.325 -0.666785 -1.44013 0
M  V30 3175 H 293.346 0.828078 -3.7138 0
M  V30 3176 H 292.858 -0.996288 -3.75094 0
M  V30 3177 H 290.959 1.44886 -3.43277 0
M  V30 3178 H 291.072 0.140761 -4.78893 0
M  V30 3179 H 289.436 0.171498 -2.54122 0
M  V30 3180 H 290.219 -1.38922 -3.13935 0
M  V30 3181 N 292.664 1.56529 -0.183458 0
M  V30 3182 C 293.594 2.21549 0.737456 0
M  V30 3183 C 294.575 1.17489 1.23005 0
M  V30 3184 O 295.76 1.45959 1.281 0
M  V30 3185 C 292.89 2.86575 1.96194 0
M  V30 3186 C 291.844 3.96778 1.60473 0
M  V30 3187 C 291.17 4.48911 2.90487 0
M  V30 3188 C 292.47 5.15767 0.823497 0
M  V30 3189 H 294.164 2.98761 0.195453 0
M  V30 3190 H 291.71 1.43702 0.0925686 0
M  V30 3191 H 293.663 3.30739 2.61131 0
M  V30 3192 H 292.387 2.06749 2.52828 0
M  V30 3193 H 291.046 3.53286 0.978997 0
M  V30 3194 H 290.694 3.65862 3.45186 0
M  V30 3195 H 290.394 5.23265 2.67335 0
M  V30 3196 H 291.918 4.95771 3.56432 0
M  V30 3197 H 293.332 5.56549 1.37571 0
M  V30 3198 H 291.729 5.96114 0.690551 0
M  V30 3199 H 292.799 4.84574 -0.177782 0
M  V30 3200 N 294.142 -0.090211 1.57342 0
M  V30 3201 C 295.39 -0.791241 1.85967 0
M  V30 3202 C 295.711 -1.7903 0.772859 0
M  V30 3203 O 294.981 -1.94872 -0.200398 0
M  V30 3204 H 293.561 -0.295205 0.686195 0
M  V30 3205 H 296.223 -0.0706782 1.94772 0
M  V30 3206 H 295.319 -1.31882 2.82867 0
M  V30 3207 N 295.62 -1.53406 -0.361157 0
M  V30 3208 C 296.845 -1.74024 -1.12829 0
M  V30 3209 C 297.27 -0.470069 -1.82132 0
M  V30 3210 O 296.628 0.57619 -1.719 0
M  V30 3211 C 296.676 -2.90903 -2.13091 0
M  V30 3212 O 295.78 -2.59821 -3.20261 0
M  V30 3213 H 295.121 -0.577804 -0.327168 0
M  V30 3214 H 297.651 -2.00307 -0.41693 0
M  V30 3215 H 297.661 -3.17194 -2.56616 0
M  V30 3216 H 296.336 -3.83034 -1.62042 0
M  V30 3217 H 294.913 -2.44362 -2.81677 0
M  V30 3218 N 297.098 0.621204 -1.44841 0
M  V30 3219 C 298.346 1.37783 -1.47852 0
M  V30 3220 C 298.667 1.94653 -0.116224 0
M  V30 3221 O 297.937 1.76367 0.852737 0
M  V30 3222 H 296.517 0.511453 -0.544449 0
M  V30 3223 H 299.179 0.730446 -1.80694 0
M  V30 3224 H 298.275 2.20414 -2.20961 0
M  V30 3225 N 298.576 1.31904 0.862503 0
M  V30 3226 C 299.539 1.20131 1.95195 0
M  V30 3227 C 300.539 0.126409 1.60302 0
M  V30 3228 O 301.729 0.376234 1.70089 0
M  V30 3229 C 298.861 0.845691 3.30244 0
M  V30 3230 H 300.054 2.16943 2.07064 0
M  V30 3231 H 297.607 1.15622 1.05172 0
M  V30 3232 H 298.342 -0.120957 3.24074 0
M  V30 3233 H 298.127 1.62276 3.56944 0
M  V30 3234 H 299.617 0.787418 4.10109 0
M  V30 3235 N 300.054 -1.07777 1.14986 0
M  V30 3236 C 301.303 -1.79669 0.916617 0
M  V30 3237 C 301.616 -1.87474 -0.557917 0
M  V30 3238 O 302.822 -2.55845 -0.908617 0
M  V30 3239 C 301.278 -3.22848 1.59051 0
M  V30 3240 C 300.886 -3.23257 3.10176 0
M  V30 3241 C 302.63 -3.99379 1.43864 0
M  V30 3242 C 300.537 -4.61063 3.70372 0
M  V30 3243 H 299.467 -0.673349 0.33929 0
M  V30 3244 H 302.118 -1.21003 1.37951 0
M  V30 3245 H 300.5 -3.8168 1.0553 0
M  V30 3246 H 301.674 -2.74095 3.70417 0
M  V30 3247 H 299.989 -2.60222 3.25074 0
M  V30 3248 H 302.586 -5.0122 1.86232 0
M  V30 3249 H 302.929 -4.14511 0.385564 0
M  V30 3250 H 303.462 -3.47032 1.94457 0
M  V30 3251 H 300.201 -4.51135 4.7556 0
M  V30 3252 H 299.721 -5.1048 3.14913 0
M  V30 3253 H 301.4 -5.30034 3.71043 0
M  V30 3254 N 301.532 -0.945985 -1.26051 0
M  V30 3255 C 302.495 -0.463897 -2.24456 0
M  V30 3256 C 303.495 0.427655 -1.55009 0
M  V30 3257 O 304.685 0.226157 -1.72726 0
M  V30 3258 C 301.817 0.330812 -3.39291 0
M  V30 3259 H 303.01 -1.33357 -2.68619 0
M  V30 3260 H 300.563 -0.728416 -1.38289 0
M  V30 3261 H 301.298 1.21852 -3.00537 0
M  V30 3262 H 301.083 -0.308679 -3.90883 0
M  V30 3263 H 302.573 0.657865 -4.12386 0
M  V30 3264 N 303.011 1.40521 -0.713556 0
M  V30 3265 C 304.259 2.00527 -0.251692 0
M  V30 3266 C 304.58 1.56857 1.15848 0
M  V30 3267 O 303.85 0.807127 1.785 0
M  V30 3268 H 302.43 0.741551 -0.0900646 0
M  V30 3269 H 305.092 1.71887 -0.918733 0
M  V30 3270 H 304.188 3.10813 -0.283192 0
M  V30 3271 N 304.489 0.459591 1.5075 0
M  V30 3272 C 305.437 -0.354678 2.2988 0
M  V30 3273 C 306.431 -1.00086 1.36672 0
M  V30 3274 O 307.637 -0.933277 1.53915 0
M  V30 3275 H 304.012 -0.13321 0.740107 0
M  V30 3276 H 305.983 0.333269 2.96533 0
M  V30 3277 C 304.732 -1.43073 3.169 0
M  V30 3278 H 304.055 -0.942882 3.88523 0
M  V30 3279 H 305.495 -1.97328 3.75284 0
M  V30 3280 C 303.954 -2.42633 2.33732 0
M  V30 3281 O 304.484 -3.47658 2.01238 0
M  V30 3282 N 302.69 -2.14066 1.9653 0
M  V30 3283 H 302.237 -1.28685 2.23155 0
M  V30 3284 H 302.195 -2.80917 1.41185 0
M  V30 3285 N 305.967 -1.56429 0.191757 0
M  V30 3286 C 307.378 -1.83912 -0.321428 0
M  V30 3287 C 307.729 -1.11231 -1.61623 0
M  V30 3288 O 306.854 -0.37202 -2.13178 0
M  V30 3289 C 307.449 -3.33624 -0.589961 0
M  V30 3290 C 306.008 -3.6153 -1.04753 0
M  V30 3291 C 305.155 -2.7714 -0.0943327 0
M  V30 3292 H 308.106 -1.53161 0.415612 0
M  V30 3293 H 308.127 -3.52213 -1.43966 0
M  V30 3294 H 307.639 -3.86495 0.352588 0
M  V30 3295 H 305.74 -3.14089 -2.00447 0
M  V30 3296 H 305.853 -4.69737 -0.942549 0
M  V30 3297 H 304.217 -2.47638 -0.595589 0
M  V30 3298 H 305 -3.32799 0.842601 0
M  V30 3299 N 307.445 0.0818655 -1.57387 0
M  V30 3300 C 308.375 1.09885 -2.06028 0
M  V30 3301 C 309.356 1.4098 -0.951774 0
M  V30 3302 O 310.541 1.50781 -1.22387 0
M  V30 3303 C 307.671 2.4151 -2.4958 0
M  V30 3304 C 306.625 2.24792 -3.64215 0
M  V30 3305 C 305.951 3.61712 -3.93787 0
M  V30 3306 C 307.251 1.67749 -4.94629 0
M  V30 3307 H 308.945 0.694128 -2.91243 0
M  V30 3308 H 306.491 0.332448 -1.4011 0
M  V30 3309 H 308.444 3.12939 -2.82219 0
M  V30 3310 H 307.168 2.83943 -1.61381 0
M  V30 3311 H 305.827 1.55807 -3.31843 0
M  V30 3312 H 305.475 4.01697 -3.02735 0
M  V30 3313 H 305.175 3.51368 -4.70971 0
M  V30 3314 H 306.699 4.34587 -4.28913 0
M  V30 3315 H 308.113 2.29032 -5.25564 0
M  V30 3316 H 306.51 1.68128 -5.76067 0
M  V30 3317 H 307.58 0.638059 -4.80684 0
M  V30 3318 N 308.923 1.53595 0.353017 0
M  V30 3319 C 310.171 1.70049 1.09215 0
M  V30 3320 C 310.492 0.461406 1.89463 0
M  V30 3321 O 309.762 -0.524633 1.88744 0
M  V30 3322 H 308.342 0.626912 0.40619 0
M  V30 3323 H 311.004 1.90822 0.396585 0
M  V30 3324 H 310.1 2.56718 1.77488 0
M  V30 3325 N 310.401 -0.613514 1.45168 0
M  V30 3326 C 311.647 -1.37471 1.49096 0
M  V30 3327 C 311.98 -1.93765 0.129901 0
M  V30 3328 O 311.255 -1.74707 -0.854858 0
M  V30 3329 C 311.538 -2.52701 2.56542 0
M  V30 3330 C 311.391 -2.01643 4.0207 0
M  V30 3331 C 312.71 -3.54849 2.60327 0
M  V30 3332 H 309.829 -0.498502 0.54283 0
M  V30 3333 H 312.471 -0.692125 1.76945 0
M  V30 3334 H 310.621 -3.10931 2.32926 0
M  V30 3335 H 312.293 -1.48108 4.36877 0
M  V30 3336 H 310.536 -1.32688 4.13009 0
M  V30 3337 H 311.207 -2.84681 4.72928 0
M  V30 3338 H 313.683 -3.0645 2.81474 0
M  V30 3339 H 312.559 -4.32973 3.37381 0
M  V30 3340 H 312.82 -4.10079 1.6519 0
M  V30 3341 N 311.879 -1.3236 -0.855495 0
M  V30 3342 C 313.156 -1.13491 -1.59309 0
M  V30 3343 C 313.536 0.30503 -2.08885 0
M  V30 3344 O 312.884 1.30151 -1.87811 0
M  V30 3345 C 313.094 -2.16176 -2.73987 0
M  V30 3346 C 314.442 -2.49463 -3.43589 0
M  V30 3347 O 315.466 -2.14715 -2.84211 0
M  V30 3348 O 314.325 -3.09027 -4.50738 0
M  V30 3349 H 311.419 -0.437887 -0.701559 0
M  V30 3350 H 313.965 -1.43887 -0.899696 0
M  V30 3351 H 312.737 -3.1297 -2.34873 0
M  V30 3352 H 312.36 -1.86769 -3.51003 0
M  V30 3353 N 313.357 1.07166 -1.15556 0
M  V30 3354 C 314.773 1.31899 -0.898603 0
M  V30 3355 C 314.973 1.96333 0.453383 0
M  V30 3356 O 314.029 2.22438 1.19489 0
M  V30 3357 C 315.342 2.20826 -2.04099 0
M  V30 3358 C 316.89 2.34269 -2.07574 0
M  V30 3359 C 317.365 3.26546 -3.21141 0
M  V30 3360 N 318.856 3.34127 -3.20801 0
M  V30 3361 C 319.591 4.05595 -4.05315 0
M  V30 3362 N 319.087 4.79661 -4.99897 0
M  V30 3363 N 320.88 4.01555 -3.93332 0
M  V30 3364 H 313.031 0.637302 -2.02613 0
M  V30 3365 H 315.294 0.343468 -0.883591 0
M  V30 3366 H 315 1.80744 -3.01703 0
M  V30 3367 H 314.874 3.21364 -1.97496 0
M  V30 3368 H 317.261 2.73603 -1.10568 0
M  V30 3369 H 317.342 1.33429 -2.18244 0
M  V30 3370 H 316.986 2.87931 -4.184 0
M  V30 3371 H 316.916 4.27345 -3.07708 0
M  V30 3372 H 319.407 2.81336 -2.52306 0
M  V30 3373 H 319.72 5.31694 -5.60822 0
M  V30 3374 H 318.065 4.78671 -5.03884 0
M  V30 3375 H 321.256 3.42806 -3.18751 0
M  V30 3376 H 321.429 4.56987 -4.5942 0
M  V30 3377 N 314.835 0.952656 1.25548 0
M  V30 3378 C 315.745 0.47782 2.29682 0
M  V30 3379 C 316.761 -0.453859 1.67977 0
M  V30 3380 O 317.937 -0.330587 1.98668 0
M  V30 3381 C 315.002 -0.238655 3.45878 0
M  V30 3382 C 314.063 0.730994 4.23031 0
M  V30 3383 C 313.296 0.0486165 5.33678 0
M  V30 3384 O 313.519 -1.16612 5.58353 0
M  V30 3385 O 312.453 0.733152 5.97418 0
M  V30 3386 H 316.279 1.34312 2.72386 0
M  V30 3387 H 313.864 0.719026 1.30959 0
M  V30 3388 H 315.746 -0.641774 4.16484 0
M  V30 3389 H 314.421 -1.07916 3.05181 0
M  V30 3390 H 313.328 1.18428 3.5486 0
M  V30 3391 H 314.661 1.53946 4.67506 0
M  V30 3392 N 316.313 -1.40141 0.720998 0
M  V30 3393 C 317.243 -2.33339 0.0867621 0
M  V30 3394 C 318.224 -1.53178 -0.739622 0
M  V30 3395 O 319.409 -1.81625 -0.687449 0
M  V30 3396 C 316.539 -3.37194 -0.831728 0
M  V30 3397 C 315.493 -4.27857 -0.110558 0
M  V30 3398 C 314.819 -5.22294 -1.14513 0
M  V30 3399 C 316.119 -5.11872 1.0385 0
M  V30 3400 H 317.813 -2.86626 0.865219 0
M  V30 3401 H 315.359 -1.37814 0.417516 0
M  V30 3402 H 317.312 -4.01335 -1.28485 0
M  V30 3403 H 316.036 -2.82314 -1.64214 0
M  V30 3404 H 314.695 -3.65176 0.322797 0
M  V30 3405 H 314.343 -4.63717 -1.94874 0
M  V30 3406 H 314.043 -5.83797 -0.667446 0
M  V30 3407 H 315.567 -5.89312 -1.59824 0
M  V30 3408 H 316.981 -5.69436 0.664482 0
M  V30 3409 H 315.378 -5.82445 1.4449 0
M  V30 3410 H 316.448 -4.4753 1.86668 0
M  V30 3411 N 317.792 -0.46758 -1.50504 0
M  V30 3412 C 318.722 0.318381 -2.31319 0
M  V30 3413 C 319.703 0.993564 -1.38066 0
M  V30 3414 O 320.888 0.991411 -1.66987 0
M  V30 3415 C 318.018 1.40275 -3.17711 0
M  V30 3416 C 316.972 0.849373 -4.19487 0
M  V30 3417 C 316.298 2.03177 -4.94594 0
M  V30 3418 C 317.598 -0.136942 -5.2212 0
M  V30 3419 H 319.292 -0.356106 -2.97275 0
M  V30 3420 H 316.838 -0.172703 -1.42961 0
M  V30 3421 H 318.791 1.96004 -3.73042 0
M  V30 3422 H 317.515 2.10596 -2.49634 0
M  V30 3423 H 316.174 0.314076 -3.65252 0
M  V30 3424 H 315.822 2.72187 -4.22993 0
M  V30 3425 H 315.522 1.66774 -5.63436 0
M  V30 3426 H 317.046 2.59403 -5.52759 0
M  V30 3427 H 318.46 0.331056 -5.72343 0
M  V30 3428 H 316.857 -0.41507 -5.98663 0
M  V30 3429 H 317.927 -1.06398 -4.73083 0
M  V30 3430 N 319.27 1.56325 -0.20005 0
M  V30 3431 C 320.686 1.58839 0.155716 0
M  V30 3432 C 320.886 1.21636 1.60645 0
M  V30 3433 O 319.942 0.941437 2.34293 0
M  V30 3434 C 321.255 3.0032 -0.151124 0
M  V30 3435 C 322.803 3.12866 -0.0916284 0
M  V30 3436 C 323.278 4.56488 -0.371845 0
M  V30 3437 N 324.769 4.62089 -0.320641 0
M  V30 3438 C 325.504 5.71116 -0.511243 0
M  V30 3439 N 325 6.88592 -0.762461 0
M  V30 3440 N 326.793 5.60335 -0.445157 0
M  V30 3441 H 318.944 1.78788 -1.14668 0
M  V30 3442 H 321.207 0.829996 -0.458051 0
M  V30 3443 H 320.913 3.32117 -1.15721 0
M  V30 3444 H 320.787 3.73257 0.543986 0
M  V30 3445 H 323.174 2.80878 0.905065 0
M  V30 3446 H 323.255 2.42304 -0.81989 0
M  V30 3447 H 322.899 4.89189 -1.36588 0
M  V30 3448 H 322.829 5.25246 0.377362 0
M  V30 3449 H 325.32 3.77665 -0.13329 0
M  V30 3450 H 325.633 7.67581 -0.896576 0
M  V30 3451 H 323.978 6.90387 -0.799412 0
M  V30 3452 H 327.169 4.67436 -0.249278 0
M  V30 3453 H 327.342 6.45243 -0.597116 0
M  V30 3454 N 320.748 -0.0735177 1.57428 0
M  V30 3455 C 321.711 -1.07192 2.02589 0
M  V30 3456 C 322.711 -1.31695 0.922661 0
M  V30 3457 O 323.901 -1.27445 1.18758 0
M  V30 3458 C 321.033 -2.41599 2.40506 0
M  V30 3459 H 322.226 -0.682727 2.92025 0
M  V30 3460 H 319.779 -0.319193 1.53006 0
M  V30 3461 H 320.514 -2.85354 1.5409 0
M  V30 3462 H 320.299 -2.25156 3.21009 0
M  V30 3463 H 321.789 -3.13367 2.76027 0
M  V30 3464 N 322.226 -1.5378 -0.344866 0
M  V30 3465 C 323.136 -1.84667 -1.4469 0
M  V30 3466 C 324.152 -0.736704 -1.57635 0
M  V30 3467 O 325.328 -1.02888 -1.73136 0
M  V30 3468 C 322.393 -2.04869 -2.79696 0
M  V30 3469 C 321.454 -3.28731 -2.76106 0
M  V30 3470 C 320.687 -3.4796 -4.04673 0
M  V30 3471 O 320.91 -2.71052 -5.01883 0
M  V30 3472 O 319.844 -4.41383 -4.09224 0
M  V30 3473 H 323.67 -2.78334 -1.21506 0
M  V30 3474 H 321.255 -1.39418 -0.536921 0
M  V30 3475 H 323.137 -2.19609 -3.59652 0
M  V30 3476 H 321.812 -1.14391 -3.02814 0
M  V30 3477 H 320.719 -3.19396 -1.94774 0
M  V30 3478 H 322.052 -4.19198 -2.57941 0
M  V30 3479 N 323.704 0.605807 -1.45491 0
M  V30 3480 C 324.634 1.72709 -1.57143 0
M  V30 3481 C 325.615 1.6476 -0.422884 0
M  V30 3482 O 326.8 1.83132 -0.646247 0
M  V30 3483 C 323.93 3.11316 -1.53948 0
M  V30 3484 C 322.884 3.34077 -2.67537 0
M  V30 3485 C 322.21 4.72975 -2.49397 0
M  V30 3486 C 323.51 3.24158 -4.09535 0
M  V30 3487 H 325.204 1.63214 -2.51001 0
M  V30 3488 H 322.75 0.78379 -1.208 0
M  V30 3489 H 324.703 3.89557 -1.60696 0
M  V30 3490 H 323.427 3.21655 -0.566205 0
M  V30 3491 H 322.086 2.58227 -2.6022 0
M  V30 3492 H 321.734 4.8005 -1.50205 0
M  V30 3493 H 321.434 4.8916 -3.25571 0
M  V30 3494 H 322.958 5.53414 -2.58002 0
M  V30 3495 H 324.372 3.92271 -4.18086 0
M  V30 3496 H 322.769 3.51872 -4.86113 0
M  V30 3497 H 323.839 2.2157 -4.31317 0
M  V30 3498 N 325.182 1.32811 0.848464 0
M  V30 3499 C 326.13 1.22231 1.97895 0
M  V30 3500 C 327.124 0.125749 1.68933 0
M  V30 3501 O 328.33 0.289083 1.77663 0
M  V30 3502 H 324.705 0.379058 0.649476 0
M  V30 3503 H 326.676 2.17828 2.03945 0
M  V30 3504 C 325.425 0.968572 3.33937 0
M  V30 3505 H 324.748 1.80458 3.56756 0
M  V30 3506 H 326.188 0.934808 4.13567 0
M  V30 3507 C 324.647 -0.328628 3.35293 0
M  V30 3508 O 325.177 -1.33848 3.78745 0
M  V30 3509 N 323.383 -0.352788 2.88451 0
M  V30 3510 H 322.93 0.469541 2.53285 0
M  V30 3511 H 322.888 -1.22057 2.89741 0
M  V30 3512 N 326.66 -1.06551 1.16123 0
M  V30 3513 C 327.907 -1.79302 0.941126 0
M  V30 3514 C 328.235 -1.87105 -0.531235 0
M  V30 3515 O 327.49 -1.35692 -1.41018 0
M  V30 3516 C 327.789 -3.23911 1.51052 0
M  V30 3517 C 327.455 -3.36193 3.00475 0
M  V30 3518 C 326.117 -3.39252 3.41265 0
M  V30 3519 C 328.469 -3.38326 3.96465 0
M  V30 3520 C 325.797 -3.42057 4.76669 0
M  V30 3521 C 328.149 -3.4267 5.31752 0
M  V30 3522 C 326.813 -3.4401 5.72026 0
M  V30 3523 H 326.083 -0.656111 0.344382 0
M  V30 3524 H 328.73 -1.25325 1.44796 0
M  V30 3525 H 327.035 -3.80723 0.925063 0
M  V30 3526 H 328.732 -3.78793 1.31593 0
M  V30 3527 H 325.322 -3.34516 2.6795 0
M  V30 3528 H 329.506 -3.35176 3.6602 0
M  V30 3529 H 324.762 -3.41398 5.07206 0
M  V30 3530 H 328.936 -3.43268 6.05921 0
M  V30 3531 H 326.563 -3.45937 6.76928 0
M  V30 3532 N 328.138 -0.959301 -1.25041 0
M  V30 3533 C 329.386 -0.615393 -1.92503 0
M  V30 3534 C 329.707 0.850969 -1.75452 0
M  V30 3535 O 328.977 1.60658 -1.12098 0
M  V30 3536 H 327.557 -0.224613 -0.712431 0
M  V30 3537 H 330.219 -1.21855 -1.5211 0
M  V30 3538 H 329.315 -0.848738 -3.00338 0
M  V30 3539 N 329.616 1.39756 -0.72842 0
M  V30 3540 C 330.579 2.29012 -0.0927297 0
M  V30 3541 C 331.579 1.45992 0.674025 0
M  V30 3542 O 332.769 1.66749 0.50402 0
M  V30 3543 C 329.901 3.29396 0.878137 0
M  V30 3544 H 331.094 2.86729 -0.879011 0
M  V30 3545 H 328.647 1.48293 -0.493847 0
M  V30 3546 H 329.382 2.76722 1.69101 0
M  V30 3547 H 329.167 3.907 0.331051 0
M  V30 3548 H 330.657 3.96199 1.3197 0
M  V30 3549 N 331.094 0.475555 1.50254 0
M  V30 3550 C 332.343 -0.0795996 2.01543 0
M  V30 3551 C 332.656 -1.4038 1.36209 0
M  V30 3552 O 333.862 -2.04415 1.7868 0
M  V30 3553 C 332.318 -0.192363 3.59386 0
M  V30 3554 C 331.926 1.12367 4.33679 0
M  V30 3555 C 333.67 -0.699238 4.18701 0
M  V30 3556 C 331.577 0.974453 5.83317 0
M  V30 3557 H 330.507 -0.0335228 0.753254 0
M  V30 3558 H 333.158 0.611128 1.73025 0
M  V30 3559 H 331.54 -0.946974 3.84511 0
M  V30 3560 H 332.714 1.88958 4.20276 0
M  V30 3561 H 331.029 1.562 3.85993 0
M  V30 3562 H 333.626 -0.827978 5.28251 0
M  V30 3563 H 333.969 -1.69171 3.80377 0
M  V30 3564 H 334.502 -0.00188807 3.978 0
M  V30 3565 H 331.241 1.94042 6.26121 0
M  V30 3566 H 330.761 0.248998 5.99283 0
M  V30 3567 H 332.44 0.642867 6.43798 0
M  V30 3568 N 332.573 -1.56217 0.208337 0
M  V30 3569 C 333.801 -2.02337 -0.43215 0
M  V30 3570 C 334.216 -1.08834 -1.54275 0
M  V30 3571 O 333.573 -0.0955462 -1.8225 0
M  V30 3572 C 333.624 -3.48072 -0.976138 0
M  V30 3573 O 333.345 -4.38007 0.0901621 0
M  V30 3574 C 334.846 -4.09773 -1.69119 0
M  V30 3575 H 332.066 -0.662385 -0.10718 0
M  V30 3576 H 334.61 -2.01966 0.320923 0
M  V30 3577 H 332.765 -3.49099 -1.67954 0
M  V30 3578 H 333.179 -5.23543 -0.316701 0
M  V30 3579 H 334.653 -5.13556 -2.02397 0
M  V30 3580 H 335.13 -3.53999 -2.59964 0
M  V30 3581 H 335.736 -4.12556 -1.03332 0
M  V30 3582 N 334.051 0.0651679 -1.57465 0
M  V30 3583 C 334.981 1.07693 -2.07182 0
M  V30 3584 C 335.962 1.39962 -0.966673 0
M  V30 3585 O 337.147 1.49475 -1.2398 0
M  V30 3586 C 334.277 2.3885 -2.52127 0
M  V30 3587 C 333.231 2.20917 -3.66579 0
M  V30 3588 C 332.557 3.57515 -3.97601 0
M  V30 3589 C 333.857 1.62493 -4.9638 0
M  V30 3590 H 335.551 0.663199 -2.91962 0
M  V30 3591 H 333.097 0.317569 -1.40455 0
M  V30 3592 H 335.05 3.09928 -2.85522 0
M  V30 3593 H 333.774 2.82215 -1.64384 0
M  V30 3594 H 332.433 1.52279 -3.33477 0
M  V30 3595 H 332.081 3.98463 -3.06979 0
M  V30 3596 H 331.781 3.46353 -4.74672 0
M  V30 3597 H 333.305 4.30013 -4.33499 0
M  V30 3598 H 334.719 2.23445 -5.27963 0
M  V30 3599 H 333.116 1.62009 -5.77818 0
M  V30 3600 H 334.186 0.587041 -4.81333 0
M  V30 3601 N 335.529 1.53961 0.336706 0
M  V30 3602 C 336.477 1.83136 1.43401 0
M  V30 3603 C 337.471 0.702313 1.54156 0
M  V30 3604 O 338.677 0.885765 1.56698 0
M  V30 3605 H 335.052 0.580309 0.478273 0
M  V30 3606 H 337.023 2.74925 1.16012 0
M  V30 3607 C 335.772 2.06385 2.79822 0
M  V30 3608 H 335.095 2.92718 2.72316 0
M  V30 3609 H 336.535 2.30761 3.55704 0
M  V30 3610 C 334.994 0.851414 3.25964 0
M  V30 3611 O 335.524 0.0541904 4.01663 0
M  V30 3612 N 333.73 0.66672 2.82848 0
M  V30 3613 H 333.277 1.31665 2.21409 0
M  V30 3614 H 333.235 -0.143032 3.14074 0
M  V30 3615 N 337.007 -0.598083 1.45811 0
M  V30 3616 C 338.232 -1.3881 1.54099 0
M  V30 3617 C 338.657 -1.8726 0.177578 0
M  V30 3618 O 338.015 -1.6069 -0.839541 0
M  V30 3619 C 338.063 -2.56217 2.53743 0
M  V30 3620 O 337.167 -3.5716 2.06182 0
M  V30 3621 H 336.508 -0.414024 0.519115 0
M  V30 3622 H 339.038 -0.726971 1.91249 0
M  V30 3623 H 339.048 -3.03337 2.72856 0
M  V30 3624 H 337.723 -2.20303 3.5276 0
M  V30 3625 H 336.3 -3.16624 1.96987 0
M  V30 3626 N 338.485 -1.33259 -0.841409 0
M  V30 3627 C 339.418 -1.1764 -1.95541 0
M  V30 3628 C 340.396 -0.072501 -1.62438 0
M  V30 3629 O 341.58 -0.23427 -1.87039 0
M  V30 3630 C 338.707 -0.803794 -3.29024 0
M  V30 3631 C 337.753 -1.91482 -3.81099 0
M  V30 3632 S 338.586 -3.52538 -4.03085 0
M  V30 3633 C 339.742 -3.17279 -5.39523 0
M  V30 3634 H 339.975 -2.11941 -2.08491 0
M  V30 3635 H 337.508 -1.18072 -0.9949 0
M  V30 3636 H 339.466 -0.595592 -4.06156 0
M  V30 3637 H 338.127 0.120574 -3.13868 0
M  V30 3638 H 337.32 -1.60742 -4.7768 0
M  V30 3639 H 336.922 -2.07956 -3.10854 0
M  V30 3640 H 339.214 -2.67946 -6.22263 0
M  V30 3641 H 340.157 -4.1293 -5.75234 0
M  V30 3642 H 340.565 -2.53943 -5.04156 0
M  V30 3643 N 339.963 1.05934 -1.16686 0
M  V30 3644 C 341.24 1.75643 -0.860747 0
M  V30 3645 C 341.62 2.01144 0.640641 0
M  V30 3646 O 340.968 1.64147 1.58959 0
M  V30 3647 C 341.178 3.05493 -1.68745 0
M  V30 3648 C 342.526 3.79581 -1.90271 0
M  V30 3649 O 343.55 3.15344 -1.65641 0
M  V30 3650 O 342.409 4.9499 -2.31618 0
M  V30 3651 H 339.503 0.763426 -0.317977 0
M  V30 3652 H 342.049 1.1217 -1.27342 0
M  V30 3653 H 340.821 2.8264 -2.70611 0
M  V30 3654 H 340.444 3.76702 -1.27206 0
M  V30 3655 N 341.441 0.965919 1.2453 0
M  V30 3656 C 342.404 0.499547 2.2369 0
M  V30 3657 C 343.404 -0.40294 1.5567 0
M  V30 3658 O 344.594 -0.19865 1.73064 0
M  V30 3659 C 341.726 -0.276792 3.39774 0
M  V30 3660 H 342.919 1.37613 2.66463 0
M  V30 3661 H 340.472 0.750324 1.37112 0
M  V30 3662 H 341.207 -1.17055 3.02438 0
M  V30 3663 H 340.992 0.370826 3.90343 0
M  V30 3664 H 342.482 -0.592175 4.1338 0
M  V30 3665 N 342.919 -1.39368 0.735821 0
M  V30 3666 C 344.147 -2.04795 0.294393 0
M  V30 3667 C 344.562 -1.55478 -1.07107 0
M  V30 3668 O 343.919 -0.720038 -1.67695 0
M  V30 3669 C 343.97 -3.6035 0.288071 0
M  V30 3670 O 343.691 -4.07852 1.59963 0
M  V30 3671 C 345.192 -4.42976 -0.169422 0
M  V30 3672 H 342.412 -0.658571 0.128551 0
M  V30 3673 H 344.956 -1.78399 0.999701 0
M  V30 3674 H 343.111 -3.85645 -0.368355 0
M  V30 3675 H 343.525 -5.02181 1.51375 0
M  V30 3676 H 344.999 -5.51864 -0.122687 0
M  V30 3677 H 345.476 -4.22068 -1.21472 0
M  V30 3678 H 346.082 -4.22832 0.457469 0
M  V30 3679 N 344.397 -0.483516 -1.5 0
M  V30 3680 C 345.622 0.0667119 -2.07293 0
M  V30 3681 C 346.047 1.3164 -1.3436 0
M  V30 3682 O 345.405 1.76945 -0.394987 0
M  V30 3683 C 345.453 0.321126 -3.59167 0
M  V30 3684 O 344.557 1.39927 -3.87936 0
M  V30 3685 H 343.898 -0.0184758 -0.663743 0
M  V30 3686 H 346.428 -0.678125 -1.93035 0
M  V30 3687 H 346.438 0.557906 -4.04168 0
M  V30 3688 H 345.113 -0.592007 -4.11665 0
M  V30 3689 H 343.69 1.14882 -3.54763 0
M  V30 3690 N 345.875 1.56104 -0.216619 0
M  V30 3691 C 346.785 2.23694 0.706982 0
M  V30 3692 C 347.801 1.24295 1.21765 0
M  V30 3693 O 348.977 1.57094 1.2603 0
M  V30 3694 C 346.042 2.8998 1.90033 0
M  V30 3695 C 345.103 4.04708 1.43213 0
M  V30 3696 C 344.336 4.67824 2.56859 0
M  V30 3697 O 344.559 4.29913 3.74874 0
M  V30 3698 O 343.493 5.56905 2.28343 0
M  V30 3699 H 347.319 3.03272 0.161235 0
M  V30 3700 H 344.904 1.49394 0.0136177 0
M  V30 3701 H 346.786 3.31837 2.59735 0
M  V30 3702 H 345.461 2.13365 2.43428 0
M  V30 3703 H 344.368 3.6743 0.70327 0
M  V30 3704 H 345.701 4.83051 0.944615 0
M  V30 3705 N 347.353 -0.0568162 1.57498 0
M  V30 3706 C 348.769 -0.411933 1.54192 0
M  V30 3707 C 348.969 -1.78287 0.938942 0
M  V30 3708 O 348.025 -2.46483 0.547919 0
M  V30 3709 C 349.338 -0.339244 2.9878 0
M  V30 3710 C 350.886 -0.418348 3.10192 0
M  V30 3711 C 351.361 -0.375407 4.56459 0
M  V30 3712 N 352.852 -0.435038 4.61153 0
M  V30 3713 C 353.587 -0.424265 5.71828 0
M  V30 3714 N 353.083 -0.367418 6.91825 0
M  V30 3715 N 354.876 -0.471938 5.60115 0
M  V30 3716 H 347.027 0.840684 1.95055 0
M  V30 3717 H 349.29 0.316987 0.893433 0
M  V30 3718 H 348.996 0.601742 3.46514 0
M  V30 3719 H 348.87 -1.14371 3.59443 0
M  V30 3720 H 351.257 -1.34976 2.62422 0
M  V30 3721 H 351.338 0.414962 2.52412 0
M  V30 3722 H 350.982 0.552219 5.04889 0
M  V30 3723 H 350.912 -1.22645 5.12119 0
M  V30 3724 H 353.403 -0.482612 3.74806 0
M  V30 3725 H 353.716 -0.363535 7.71944 0
M  V30 3726 H 352.061 -0.333879 6.94198 0
M  V30 3727 H 355.252 -0.514145 4.65268 0
M  V30 3728 H 355.425 -0.460073 6.46365 0
M  V30 3729 N 348.832 -1.54138 -0.328536 0
M  V30 3730 C 350.109 -1.62749 -1.08499 0
M  V30 3731 C 350.489 -0.458198 -2.06067 0
M  V30 3732 O 349.837 0.548046 -2.2183 0
M  V30 3733 C 350.047 -2.99519 -1.79135 0
M  V30 3734 C 351.395 -3.55394 -2.32337 0
M  V30 3735 O 352.419 -3.01792 -1.89209 0
M  V30 3736 O 351.278 -4.49186 -3.11279 0
M  V30 3737 H 348.372 -0.65886 -0.499832 0
M  V30 3738 H 350.918 -1.66484 -0.328826 0
M  V30 3739 H 349.69 -3.76061 -1.08139 0
M  V30 3740 H 349.313 -2.99441 -2.61574 0
M  V30 3741 N 350.31 0.590341 -1.46126 0
M  V30 3742 C 351.557 1.34882 -1.5104 0
M  V30 3743 C 351.885 1.93849 -0.159021 0
M  V30 3744 O 351.14 1.76544 0.844436 0
M  V30 3745 C 351.439 2.5032 -2.55097 0
M  V30 3746 C 351.105 2.09394 -3.99331 0
M  V30 3747 C 349.767 1.97947 -4.38601 0
M  V30 3748 C 352.119 1.77712 -4.89967 0
M  V30 3749 C 349.447 1.53065 -5.66381 0
M  V30 3750 C 351.799 1.34312 -6.18177 0
M  V30 3751 C 350.463 1.21436 -6.56361 0
M  V30 3752 H 349.733 0.493568 -0.552695 0
M  V30 3753 H 352.38 0.665539 -1.79563 0
M  V30 3754 H 350.685 3.24062 -2.20207 0
M  V30 3755 H 352.382 3.08541 -2.56132 0
M  V30 3756 H 348.972 2.19235 -3.68285 0
M  V30 3757 H 353.156 1.85445 -4.60352 0
M  V30 3758 H 348.412 1.41733 -5.94745 0
M  V30 3759 H 352.586 1.08849 -6.87841 0
M  V30 3760 H 350.213 0.864345 -7.5527 0
M  V30 3761 N 351.788 1.33704 0.83433 0
M  V30 3762 C 353.034 1.25603 1.59222 0
M  V30 3763 C 353.367 -0.176659 1.93395 0
M  V30 3764 O 352.642 -1.11915 1.59076 0
M  V30 3765 C 352.925 2.13576 2.89926 0
M  V30 3766 C 352.778 3.65326 2.62406 0
M  V30 3767 C 354.097 2.01238 3.91397 0
M  V30 3768 H 351.216 0.457613 0.577719 0
M  V30 3769 H 353.858 1.63848 0.961972 0
M  V30 3770 H 352.008 1.8109 3.43713 0
M  V30 3771 H 353.68 4.08124 2.15017 0
M  V30 3772 H 351.923 3.8698 1.96033 0
M  V30 3773 H 352.594 4.22232 3.55562 0
M  V30 3774 H 355.07 2.29738 3.46929 0
M  V30 3775 H 353.946 2.65036 4.80673 0
M  V30 3776 H 354.207 0.985951 4.30966 0
M  V30 3777 N 353.266 -1.05314 1.17247 0
M  V30 3778 C 354.229 -2.112 0.890357 0
M  V30 3779 C 355.229 -1.60359 -0.118943 0
M  V30 3780 O 356.419 -1.73833 0.113086 0
M  V30 3781 C 353.551 -3.39266 0.333422 0
M  V30 3782 H 354.744 -2.37659 1.82916 0
M  V30 3783 H 352.297 -1.21538 0.982758 0
M  V30 3784 H 353.032 -3.18462 -0.612587 0
M  V30 3785 H 352.817 -3.77477 1.06082 0
M  V30 3786 H 354.307 -4.17315 0.154322 0
M  V30 3787 N 354.744 -0.972509 -1.24016 0
M  V30 3788 C 355.654 -0.5143 -2.28893 0
M  V30 3789 C 356.67 0.427078 -1.68677 0
M  V30 3790 O 357.846 0.298939 -1.99169 0
M  V30 3791 C 354.911 0.183598 -3.46214 0
M  V30 3792 C 353.972 -0.798202 -4.21814 0
M  V30 3793 C 353.205 -0.133514 -5.33533 0
M  V30 3794 O 353.428 1.07714 -5.60137 0
M  V30 3795 O 352.362 -0.828103 -5.96176 0
M  V30 3796 H 356.188 -1.38629 -2.70214 0
M  V30 3797 H 353.773 -0.739769 -1.29799 0
M  V30 3798 H 355.655 0.575433 -4.17453 0
M  V30 3799 H 354.33 1.03048 -3.0686 0
M  V30 3800 H 353.237 -1.24059 -3.52931 0
M  V30 3801 H 354.57 -1.61364 -4.64997 0
M  V30 3802 N 356.222 1.38976 -0.743202 0
M  V30 3803 C 357.469 2.00343 -0.294752 0
M  V30 3804 C 357.797 1.58983 1.12047 0
M  V30 3805 O 357.052 0.813809 1.77977 0
M  V30 3806 C 357.351 3.55647 -0.353517 0
M  V30 3807 C 357.017 4.16685 -1.72292 0
M  V30 3808 C 355.679 4.3307 -2.09771 0
M  V30 3809 C 358.031 4.50464 -2.62168 0
M  V30 3810 C 355.359 4.80526 -3.36618 0
M  V30 3811 C 357.711 4.99332 -3.88395 0
M  V30 3812 C 356.375 5.13924 -4.25956 0
M  V30 3813 H 355.645 0.733108 -0.107857 0
M  V30 3814 H 358.292 1.6618 -0.951651 0
M  V30 3815 H 356.597 3.89884 0.386954 0
M  V30 3816 H 358.294 4.00998 0.0117269 0
M  V30 3817 H 354.884 4.04339 -1.42155 0
M  V30 3818 H 359.068 4.37416 -2.3448 0
M  V30 3819 H 354.324 4.90008 -3.65653 0
M  V30 3820 H 358.498 5.2444 -4.58187 0
M  V30 3821 H 356.125 5.50457 -5.2431 0
M  V30 3822 N 357.7 0.491464 1.49741 0
M  V30 3823 C 358.63 -0.28154 2.31796 0
M  V30 3824 C 359.611 -0.971473 1.3963 0
M  V30 3825 O 360.796 -0.964719 1.68543 0
M  V30 3826 C 357.926 -1.35203 3.19902 0
M  V30 3827 C 356.88 -0.782529 4.20786 0
M  V30 3828 C 356.206 -1.95283 4.97764 0
M  V30 3829 C 357.506 0.21999 5.21837 0
M  V30 3830 H 359.2 0.403355 2.96671 0
M  V30 3831 H 356.746 0.195425 1.42668 0
M  V30 3832 H 358.699 -1.90045 3.76113 0
M  V30 3833 H 357.423 -2.06598 2.52953 0
M  V30 3834 H 356.082 -0.255928 3.65706 0
M  V30 3835 H 355.73 -2.65423 4.2727 0
M  V30 3836 H 355.43 -1.57789 5.66018 0
M  V30 3837 H 356.954 -2.50577 5.56816 0
M  V30 3838 H 358.368 -0.23996 5.72798 0
M  V30 3839 H 356.765 0.51026 5.97927 0
M  V30 3840 H 357.835 1.13911 4.7133 0
M  V30 3841 N 359.178 -1.55987 0.224894 0
M  V30 3842 C 360.425 -1.9839 -0.4059 0
M  V30 3843 C 360.753 -1.11261 -1.59535 0
M  V30 3844 O 360.008 -0.158314 -1.95059 0
M  V30 3845 C 360.307 -3.46394 -0.880106 0
M  V30 3846 C 359.973 -4.5046 0.19918 0
M  V30 3847 C 358.635 -4.7864 0.495661 0
M  V30 3848 C 360.987 -5.12855 0.928939 0
M  V30 3849 C 358.315 -5.66497 1.52636 0
M  V30 3850 C 360.667 -6.01828 1.949 0
M  V30 3851 C 359.331 -6.28351 2.25236 0
M  V30 3852 H 358.601 -0.725961 -0.148529 0
M  V30 3853 H 361.248 -1.88668 0.328113 0
M  V30 3854 H 359.553 -3.53337 -1.69294 0
M  V30 3855 H 361.25 -3.76577 -1.37808 0
M  V30 3856 H 357.84 -4.28579 -0.0420526 0
M  V30 3857 H 362.024 -4.9115 0.713129 0
M  V30 3858 H 357.28 -5.8531 1.76698 0
M  V30 3859 H 361.454 -6.49225 2.51951 0
M  V30 3860 H 359.081 -6.96226 3.05244 0
M  V30 3861 N 360.656 0.0484629 -1.57525 0
M  V30 3862 C 361.902 0.738854 -1.89506 0
M  V30 3863 C 362.257 1.73989 -0.821319 0
M  V30 3864 O 361.55 1.90825 0.172129 0
M  V30 3865 C 361.744 1.46632 -3.25935 0
M  V30 3866 C 361.573 0.537254 -4.46479 0
M  V30 3867 C 360.343 0.165484 -5.05029 0
M  V30 3868 C 362.541 -0.176085 -5.13998 0
M  V30 3869 N 360.523 -0.766868 -6.09091 0
M  V30 3870 C 361.894 -0.96478 -6.12448 0
M  V30 3871 C 363.949 -0.24509 -4.97296 0
M  V30 3872 C 362.652 -1.8161 -6.95996 0
M  V30 3873 C 364.678 -1.08347 -5.81391 0
M  V30 3874 C 364.04 -1.86014 -6.79395 0
M  V30 3875 H 360.139 0.245067 -0.742608 0
M  V30 3876 H 362.723 -0.000476161 -1.947 0
M  V30 3877 H 360.894 2.17623 -3.21706 0
M  V30 3878 H 362.626 2.10757 -3.45491 0
M  V30 3879 H 359.381 0.523466 -4.70698 0
M  V30 3880 H 359.805 -1.22698 -6.65788 0
M  V30 3881 H 364.447 0.341063 -4.21422 0
M  V30 3882 H 362.165 -2.41313 -7.71229 0
M  V30 3883 H 365.751 -1.14014 -5.70519 0
M  V30 3884 H 364.631 -2.4984 -7.43337 0
M  V30 3885 N 362.134 1.5431 0.320358 0
M  V30 3886 C 363.097 1.83195 1.3774 0
M  V30 3887 C 364.097 0.703906 1.44575 0
M  V30 3888 O 365.287 0.972214 1.44546 0
M  V30 3889 C 362.419 1.99487 2.76438 0
M  V30 3890 H 363.612 2.77642 1.1338 0
M  V30 3891 H 361.165 1.46076 0.556012 0
M  V30 3892 H 361.9 1.07262 3.06048 0
M  V30 3893 H 361.685 2.81575 2.7287 0
M  V30 3894 H 363.175 2.23271 3.52902 0
M  V30 3895 N 363.613 -0.582584 1.46437 0
M  V30 3896 C 364.838 -1.37168 1.55563 0
M  V30 3897 C 365.263 -1.87061 0.19743 0
M  V30 3898 O 364.621 -1.61572 -0.822451 0
M  V30 3899 C 364.669 -2.53511 2.56446 0
M  V30 3900 O 363.773 -3.54953 2.09958 0
M  V30 3901 H 363.114 -0.408494 0.523477 0
M  V30 3902 H 365.644 -0.706646 1.9201 0
M  V30 3903 H 365.654 -3.00426 2.76058 0
M  V30 3904 H 364.329 -2.16549 3.55076 0
M  V30 3905 H 362.906 -3.14516 2.00334 0
M  V30 3906 N 365.091 -1.34144 -0.827227 0
M  V30 3907 C 366.021 -1.28005 -1.95287 0
M  V30 3908 C 367.002 -0.158321 -1.69362 0
M  V30 3909 O 368.187 -0.349987 -1.9102 0
M  V30 3910 C 365.317 -1.03036 -3.31664 0
M  V30 3911 C 364.271 -2.11628 -3.72019 0
M  V30 3912 C 363.597 -1.71854 -5.0633 0
M  V30 3913 C 364.897 -3.53417 -3.8457 0
M  V30 3914 H 366.591 -2.22187 -2.00682 0
M  V30 3915 H 364.137 -1.0696 -0.964135 0
M  V30 3916 H 366.09 -0.973863 -4.09993 0
M  V30 3917 H 364.814 -0.0529391 -3.26557 0
M  V30 3918 H 363.473 -2.16339 -2.95961 0
M  V30 3919 H 363.121 -0.727841 -4.97706 0
M  V30 3920 H 362.821 -2.44531 -5.34302 0
M  V30 3921 H 364.345 -1.67692 -5.87122 0
M  V30 3922 H 365.759 -3.51142 -4.5318 0
M  V30 3923 H 364.156 -4.24679 -4.2399 0
M  V30 3924 H 365.226 -3.91072 -2.86689 0
M  V30 3925 N 366.569 1.04691 -1.17803 0
M  V30 3926 C 367.809 1.79352 -0.980423 0
M  V30 3927 C 368.173 1.85853 0.481958 0
M  V30 3928 O 369.374 2.56656 0.798809 0
M  V30 3929 C 367.645 3.19088 -1.6099 0
M  V30 3930 S 369.204 4.10164 -1.55918 0
M  V30 3931 H 366.022 0.617631 -0.352211 0
M  V30 3932 H 368.624 1.25575 -1.49837 0
M  V30 3933 H 367.328 3.11962 -2.66661 0
M  V30 3934 H 366.859 3.77941 -1.09197 0
M  V30 3935 H 368.874 4.92907 -0.570685 0
M  V30 3936 N 368.047 0.979072 1.23499 0
M  V30 3937 C 368.98 0.463027 2.23453 0
M  V30 3938 C 369.958 -0.469128 1.55685 0
M  V30 3939 O 371.142 -0.397882 1.84253 0
M  V30 3940 C 368.269 -0.330308 3.37086 0
M  V30 3941 C 367.315 0.545795 4.22993 0
M  V30 3942 S 368.148 1.99285 4.97037 0
M  V30 3943 C 369.304 1.20862 6.1412 0
M  V30 3944 H 369.537 1.31005 2.6688 0
M  V30 3945 H 367.07 0.784965 1.32957 0
M  V30 3946 H 369.028 -0.782027 4.02982 0
M  V30 3947 H 367.689 -1.15244 2.92194 0
M  V30 3948 H 366.882 -0.0638928 5.03959 0
M  V30 3949 H 366.484 0.933705 3.62157 0
M  V30 3950 H 368.776 0.469284 6.75873 0
M  V30 3951 H 369.719 1.99307 6.79472 0
M  V30 3952 H 370.127 0.727992 5.59786 0
M  V30 3953 N 369.525 -1.3858 0.750561 0
M  V30 3954 C 370.753 -2.04471 0.316098 0
M  V30 3955 C 371.168 -1.56606 -1.05452 0
M  V30 3956 O 370.525 -0.737784 -1.66922 0
M  V30 3957 C 370.576 -3.60025 0.326275 0
M  V30 3958 O 370.297 -4.06133 1.6428 0
M  V30 3959 C 371.798 -4.43131 -0.122429 0
M  V30 3960 H 369.018 -0.65717 0.135528 0
M  V30 3961 H 371.562 -1.77329 1.01857 0
M  V30 3962 H 369.717 -3.86014 -0.327431 0
M  V30 3963 H 370.131 -5.00547 1.56693 0
M  V30 3964 H 371.605 -5.51963 -0.0641473 0
M  V30 3965 H 372.082 -4.23333 -1.16988 0
M  V30 3966 H 372.688 -4.22323 0.50229 0
M  V30 3967 N 371.003 -0.499398 -1.49478 0
M  V30 3968 C 371.953 0.299103 -2.2603 0
M  V30 3969 C 372.937 0.936934 -1.30807 0
M  V30 3970 O 374.129 0.844798 -1.55538 0
M  V30 3971 C 371.258 1.36391 -3.15044 0
M  V30 3972 C 370.344 0.732398 -4.17728 0
M  V30 3973 N 370.735 -0.164028 -5.05534 0
M  V30 3974 C 369.033 0.993162 -4.34801 0
M  V30 3975 C 369.734 -0.525345 -5.79323 0
M  V30 3976 N 368.71 0.106348 -5.43496 0
M  V30 3977 H 372.512 -0.391003 -2.91287 0
M  V30 3978 H 370.026 -0.31537 -1.59308 0
M  V30 3979 H 372.023 1.94939 -3.68516 0
M  V30 3980 H 370.683 2.05571 -2.51338 0
M  V30 3981 H 371.694 -0.534736 -5.15132 0
M  V30 3982 H 368.371 1.67783 -3.82302 0
M  V30 3983 H 369.761 -1.25862 -6.60006 0
M  V30 3984 N 372.481 1.55866 -0.233164 0
M  V30 3985 C 373.411 2.23783 0.666599 0
M  V30 3986 C 374.392 1.21343 1.19205 0
M  V30 3987 O 375.577 1.4996 1.23392 0
M  V30 3988 C 372.707 2.92671 1.86978 0
M  V30 3989 C 371.661 4.01682 1.47768 0
M  V30 3990 C 370.987 4.57926 2.76058 0
M  V30 3991 C 372.287 5.18126 0.658993 0
M  V30 3992 H 373.981 2.99232 0.100306 0
M  V30 3993 H 371.527 1.43924 0.046804 0
M  V30 3994 H 373.48 3.3888 2.50476 0
M  V30 3995 H 372.204 2.14688 2.46123 0
M  V30 3996 H 370.863 3.56222 0.866106 0
M  V30 3997 H 370.511 3.76659 3.33372 0
M  V30 3998 H 370.211 5.31505 2.50552 0
M  V30 3999 H 371.735 5.06859 3.40479 0
M  V30 4000 H 373.149 5.60644 1.19795 0
M  V30 4001 H 371.546 5.98009 0.500552 0
M  V30 4002 H 372.616 4.83763 -0.331856 0
M  V30 4003 N 373.959 -0.0401083 1.57549 0
M  V30 4004 C 375.184 -0.748931 1.93406 0
M  V30 4005 C 375.609 -1.68686 0.832274 0
M  V30 4006 O 374.967 -1.80047 -0.212818 0
M  V30 4007 C 375.015 -1.4916 3.28304 0
M  V30 4008 O 374.119 -2.6042 3.19774 0
M  V30 4009 H 373.46 -0.202212 0.63246 0
M  V30 4010 H 375.99 0.00112086 2.046 0
M  V30 4011 H 376 -1.86395 3.62934 0
M  V30 4012 H 374.675 -0.80364 4.08062 0
M  V30 4013 H 373.252 -2.25808 2.96758 0
M  V30 4014 N 375.437 -1.54477 -0.31217 0
M  V30 4015 C 376.853 -1.45442 -0.657185 0
M  V30 4016 C 377.053 -0.63653 -1.91182 0
M  V30 4017 O 376.109 -0.139815 -2.52113 0
M  V30 4018 C 377.422 -2.89287 -0.82058 0
M  V30 4019 C 378.97 -2.9926 -0.917188 0
M  V30 4020 C 379.445 -4.44279 -1.11267 0
M  V30 4021 N 380.936 -4.4794 -1.17914 0
M  V30 4022 C 381.671 -5.57318 -1.34848 0
M  V30 4023 N 381.167 -6.76642 -1.48752 0
M  V30 4024 N 382.96 -5.44986 -1.37647 0
M  V30 4025 H 375.111 -2.06129 0.512313 0
M  V30 4026 H 377.374 -0.933088 0.167485 0
M  V30 4027 H 377.08 -3.51687 0.0302604 0
M  V30 4028 H 376.954 -3.36061 -1.71298 0
M  V30 4029 H 379.341 -2.36981 -1.75852 0
M  V30 4030 H 379.422 -2.558 -0.00101257 0
M  V30 4031 H 379.066 -5.07149 -0.27614 0
M  V30 4032 H 378.996 -4.85359 -2.04289 0
M  V30 4033 H 381.487 -3.61969 -1.08567 0
M  V30 4034 H 381.8 -7.55758 -1.61397 0
M  V30 4035 H 380.145 -6.79529 -1.45828 0
M  V30 4036 H 383.336 -4.50715 -1.26388 0
M  V30 4037 H 383.509 -6.3028 -1.50501 0
M  V30 4038 N 376.915 0.57481 -1.46744 0
M  V30 4039 C 377.848 1.69827 -1.52427 0
M  V30 4040 C 378.826 1.58151 -0.377744 0
M  V30 4041 O 380.01 1.79257 -0.58303 0
M  V30 4042 C 377.137 3.07943 -1.41027 0
M  V30 4043 C 376.183 3.38116 -2.59961 0
M  V30 4044 S 377.016 3.29313 -4.22272 0
M  V30 4045 C 378.172 4.69953 -4.13394 0
M  V30 4046 H 378.405 1.64748 -2.47478 0
M  V30 4047 H 375.938 0.754203 -1.34726 0
M  V30 4048 H 377.896 3.87619 -1.35137 0
M  V30 4049 H 376.557 3.10504 -0.473909 0
M  V30 4050 H 375.75 4.38762 -2.47999 0
M  V30 4051 H 375.352 2.66024 -2.62882 0
M  V30 4052 H 377.644 5.60517 -3.80562 0
M  V30 4053 H 378.587 4.86972 -5.14066 0
M  V30 4054 H 378.995 4.47174 -3.44522 0
M  V30 4055 N 378.394 1.34581 0.820102 0
M  V30 4056 C 379.357 1.2628 1.91275 0
M  V30 4057 C 380.357 0.177344 1.59819 0
M  V30 4058 O 381.547 0.430156 1.68806 0
M  V30 4059 C 378.679 0.950327 3.27386 0
M  V30 4060 H 379.872 2.23421 2.00057 0
M  V30 4061 H 377.425 1.1891 1.0144 0
M  V30 4062 H 378.16 -0.0177938 3.24295 0
M  V30 4063 H 377.945 1.73549 3.51601 0
M  V30 4064 H 379.435 0.917492 4.07396 0
M  V30 4065 N 379.872 -1.04064 1.18357 0
M  V30 4066 C 380.782 -2.15569 0.925596 0
M  V30 4067 C 381.798 -1.7365 -0.110295 0
M  V30 4068 O 382.974 -2.01273 0.0716218 0
M  V30 4069 C 380.039 -3.43704 0.454836 0
M  V30 4070 C 379.1 -4.00004 1.55869 0
M  V30 4071 C 378.333 -5.22023 1.1103 0
M  V30 4072 O 378.556 -5.70392 -0.0309756 0
M  V30 4073 O 377.49 -5.70856 1.90805 0
M  V30 4074 H 381.316 -2.40187 1.8586 0
M  V30 4075 H 378.901 -1.1402 0.965394 0
M  V30 4076 H 380.783 -4.20923 0.200382 0
M  V30 4077 H 379.458 -3.20559 -0.449876 0
M  V30 4078 H 378.365 -3.24172 1.86716 0
M  V30 4079 H 379.698 -4.2749 2.43953 0
M  V30 4080 N 381.35 -0.985608 -1.22978 0
M  V30 4081 C 382.627 -0.573599 -1.87001 0
M  V30 4082 C 383.007 0.949213 -1.88555 0
M  V30 4083 O 382.355 1.82811 -1.37086 0
M  V30 4084 C 382.565 -1.18564 -3.28243 0
M  V30 4085 C 383.913 -1.28163 -4.04796 0
M  V30 4086 O 384.937 -1.13949 -3.37482 0
M  V30 4087 O 383.796 -1.50832 -5.25273 0
M  V30 4088 H 380.89 -0.193868 -0.803955 0
M  V30 4089 H 383.436 -1.08102 -1.30813 0
M  V30 4090 H 382.208 -2.22758 -3.21706 0
M  V30 4091 H 381.831 -0.663363 -3.92027 0
M  V30 4092 N 382.828 1.3818 -0.7579 0
M  V30 4093 C 383.758 2.33027 -0.148597 0
M  V30 4094 C 384.739 1.55085 0.69875 0
M  V30 4095 O 385.924 1.83384 0.639053 0
M  V30 4096 C 383.054 3.3928 0.742034 0
M  V30 4097 C 382.008 4.28 -0.00291946 0
M  V30 4098 C 381.334 5.25146 1.00625 0
M  V30 4099 C 382.634 5.08938 -1.17385 0
M  V30 4100 H 384.328 2.84231 -0.940909 0
M  V30 4101 H 381.874 1.36659 -0.453908 0
M  V30 4102 H 383.827 4.046 1.17799 0
M  V30 4103 H 382.551 2.86569 1.56671 0
M  V30 4104 H 381.21 3.64192 -0.419504 0
M  V30 4105 H 380.858 4.68721 1.8251 0
M  V30 4106 H 380.558 5.85361 0.512428 0
M  V30 4107 H 382.082 5.93342 1.44143 0
M  V30 4108 H 383.496 5.67474 -0.815224 0
M  V30 4109 H 381.893 5.7841 -1.59882 0
M  V30 4110 H 382.963 4.42424 -1.98468 0
M  V30 4111 N 384.306 0.507319 1.49211 0
M  V30 4112 C 385.555 -0.0368315 2.01666 0
M  V30 4113 C 385.868 -1.37459 1.39156 0
M  V30 4114 O 387.074 -2.00579 1.82976 0
M  V30 4115 C 385.53 -0.116089 3.59713 0
M  V30 4116 C 385.138 1.2154 4.31198 0
M  V30 4117 C 386.882 -0.610268 4.2009 0
M  V30 4118 C 384.789 1.09796 5.81119 0
M  V30 4119 H 383.719 -0.0175376 0.753796 0
M  V30 4120 H 386.37 0.647691 1.71689 0
M  V30 4121 H 384.752 -0.8652 3.86433 0
M  V30 4122 H 385.926 1.9783 4.16173 0
M  V30 4123 H 384.241 1.64352 3.82593 0
M  V30 4124 H 386.838 -0.715742 5.29888 0
M  V30 4125 H 387.181 -1.61064 3.8388 0
M  V30 4126 H 387.714 0.0824916 3.97714 0
M  V30 4127 H 384.453 2.0728 6.21864 0
M  V30 4128 H 383.973 0.376058 5.9862 0
M  V30 4129 H 385.652 0.779281 6.4229 0
M  V30 4130 N 385.784 -1.5574 0.241426 0
M  V30 4131 C 386.714 -2.24133 -0.654722 0
M  V30 4132 C 387.695 -1.21974 -1.1856 0
M  V30 4133 O 388.88 -1.50612 -1.22595 0
M  V30 4134 C 386.01 -2.93659 -1.85423 0
M  V30 4135 C 384.964 -4.0246 -1.45636 0
M  V30 4136 C 384.29 -4.59383 -2.73626 0
M  V30 4137 C 385.59 -5.18468 -0.631506 0
M  V30 4138 H 387.284 -2.99281 -0.0844353 0
M  V30 4139 H 384.83 -1.43947 -0.0391707 0
M  V30 4140 H 386.783 -3.40203 -2.48676 0
M  V30 4141 H 385.507 -2.15991 -2.44981 0
M  V30 4142 H 384.166 -3.56676 -0.847202 0
M  V30 4143 H 383.814 -3.78422 -3.3137 0
M  V30 4144 H 383.514 -5.32826 -2.4773 0
M  V30 4145 H 385.038 -5.08658 -3.37786 0
M  V30 4146 H 386.452 -5.61272 -1.1682 0
M  V30 4147 H 384.849 -5.98266 -0.468831 0
M  V30 4148 H 385.919 -4.8358 0.357506 0
M  V30 4149 N 387.262 0.0317525 -1.57568 0
M  V30 4150 C 388.492 0.733884 -1.93126 0
M  V30 4151 C 388.9 1.69563 -0.839352 0
M  V30 4152 O 388.243 1.82681 0.193175 0
M  V30 4153 C 388.305 1.54798 -3.24465 0
M  V30 4154 C 387.969 0.751304 -4.50782 0
M  V30 4155 C 388.966 0.0527632 -5.19873 0
M  V30 4156 C 386.651 0.706639 -4.97305 0
M  V30 4157 C 388.645 -0.679774 -6.33765 0
M  V30 4158 C 386.332 -0.0296449 -6.11093 0
M  V30 4159 C 387.33 -0.721614 -6.79177 0
M  V30 4160 O 387.018 -1.44595 -7.90789 0
M  V30 4161 H 386.75 0.211459 -0.642076 0
M  V30 4162 H 389.304 -0.00585615 -2.05399 0
M  V30 4163 H 387.534 2.33147 -3.08512 0
M  V30 4164 H 389.223 2.13247 -3.4537 0
M  V30 4165 H 389.989 0.0783188 -4.84937 0
M  V30 4166 H 385.868 1.23474 -4.44157 0
M  V30 4167 H 389.412 -1.22042 -6.86842 0
M  V30 4168 H 385.309 -0.0571331 -6.45475 0
M  V30 4169 H 386.077 -1.35935 -8.07133 0
M  V30 4170 N 388.74 1.54641 0.303973 0
M  V30 4171 C 389.98 1.75516 1.04755 0
M  V30 4172 C 390.344 0.528211 1.84591 0
M  V30 4173 O 391.545 0.614645 2.61678 0
M  V30 4174 C 389.816 3.00685 1.93193 0
M  V30 4175 S 391.375 3.42549 2.74237 0
M  V30 4176 H 388.193 0.616987 0.353339 0
M  V30 4177 H 390.795 1.92842 0.321292 0
M  V30 4178 H 389.499 3.8811 1.33411 0
M  V30 4179 H 389.03 2.85937 2.70191 0
M  V30 4180 H 391.045 2.99386 3.95705 0
M  V30 4181 N 390.218 -0.567019 1.47046 0
M  V30 4182 C 391.446 -1.35027 1.56765 0
M  V30 4183 C 391.861 -1.8758 0.214316 0
M  V30 4184 O 391.218 -1.64471 -0.790919 0
M  V30 4185 C 391.269 -2.52698 2.58507 0
M  V30 4186 O 390.99 -2.0232 3.88585 0
M  V30 4187 C 392.491 -3.45043 2.78316 0
M  V30 4188 H 389.711 -0.41195 0.529658 0
M  V30 4189 H 392.255 -0.687832 1.92585 0
M  V30 4190 H 390.41 -3.149 2.25648 0
M  V30 4191 H 390.824 -2.79068 4.44096 0
M  V30 4192 H 392.298 -4.2405 3.53391 0
M  V30 4193 H 392.775 -3.97971 1.85784 0
M  V30 4194 H 393.381 -2.88665 3.12334 0
M  V30 4195 N 391.696 -1.35014 -0.812953 0
M  V30 4196 C 392.643 -1.27412 -1.92444 0
M  V30 4197 C 393.613 -0.14733 -1.65445 0
M  V30 4198 O 394.798 -0.329974 -1.87925 0
M  V30 4199 C 391.938 -1.04558 -3.28879 0
M  V30 4200 C 391.051 -2.26101 -3.68106 0
M  V30 4201 C 390.186 -1.96449 -4.9354 0
M  V30 4202 C 389.225 -3.14081 -5.25376 0
M  V30 4203 N 388.362 -2.84246 -6.41988 0
M  V30 4204 H 393.202 -2.22463 -1.98278 0
M  V30 4205 H 390.739 -1.10593 -0.969933 0
M  V30 4206 H 392.697 -0.893413 -4.07522 0
M  V30 4207 H 391.327 -0.131719 -3.22531 0
M  V30 4208 H 390.379 -2.52204 -2.84775 0
M  V30 4209 H 391.691 -3.13959 -3.87597 0
M  V30 4210 H 390.845 -1.78026 -5.79993 0
M  V30 4211 H 389.584 -1.05867 -4.76071 0
M  V30 4212 H 388.589 -3.33089 -4.37415 0
M  V30 4213 H 389.814 -4.05455 -5.44778 0
M  V30 4214 H 387.76 -1.96252 -6.25956 0
M  V30 4215 H 387.677 -3.65637 -6.61699 0
M  V30 4216 H 388.945 -2.6935 -7.31485 0
M  V30 4217 N 393.175 1.03435 -1.18907 0
M  V30 4218 C 394.085 2.15075 -0.937015 0
M  V30 4219 C 395.101 1.73706 0.101085 0
M  V30 4220 O 396.277 2.01232 -0.0822948 0
M  V30 4221 C 393.342 3.43458 -0.473057 0
M  V30 4222 C 392.403 3.99172 -1.57989 0
M  V30 4223 C 391.636 5.21427 -1.13797 0
M  V30 4224 O 391.859 5.704 0.000725941 0
M  V30 4225 O 390.793 5.69837 -1.9383 0
M  V30 4226 H 394.619 2.39198 -1.87131 0
M  V30 4227 H 392.204 1.13506 -0.971427 0
M  V30 4228 H 394.086 4.20811 -0.222702 0
M  V30 4229 H 392.761 3.20793 0.432869 0
M  V30 4230 H 391.668 3.23178 -1.88433 0
M  V30 4231 H 393.001 4.2619 -2.46217 0
M  V30 4232 N 394.653 0.992116 1.22453 0
M  V30 4233 C 395.9 0.667534 1.91181 0
M  V30 4234 C 396.228 -0.800317 1.77271 0
M  V30 4235 O 395.483 -1.59421 1.13505 0
M  V30 4236 C 395.782 1.01832 3.42586 0
M  V30 4237 C 395.448 2.47831 3.76684 0
M  V30 4238 C 394.11 2.87729 3.85701 0
M  V30 4239 C 396.462 3.42466 3.92895 0
M  V30 4240 C 393.79 4.21252 4.08367 0
M  V30 4241 C 396.142 4.75648 4.17064 0
M  V30 4242 C 394.806 5.15288 4.24305 0
M  V30 4243 H 394.076 0.244268 0.699581 0
M  V30 4244 H 396.723 1.24816 1.45235 0
M  V30 4245 H 395.028 0.355769 3.90181 0
M  V30 4246 H 396.725 0.745228 3.94014 0
M  V30 4247 H 393.315 2.15905 3.70247 0
M  V30 4248 H 397.499 3.12814 3.85307 0
M  V30 4249 H 392.755 4.51554 4.122 0
M  V30 4250 H 396.929 5.48924 4.2855 0
M  V30 4251 H 394.556 6.18769 4.41621 0
M  V30 4252 N 396.131 -1.37776 0.765217 0
M  V30 4253 C 397.356 -2.04651 0.336537 0
M  V30 4254 C 397.781 -1.57337 -1.03086 0
M  V30 4255 O 397.139 -0.730621 -1.65927 0
M  V30 4256 C 397.187 -3.58577 0.381468 0
M  V30 4257 O 396.291 -4.07706 -0.62042 0
M  V30 4258 H 395.632 -0.64756 0.146838 0
M  V30 4259 H 398.162 -1.76221 1.03959 0
M  V30 4260 H 398.172 -4.07314 0.236448 0
M  V30 4261 H 396.847 -3.9237 1.37907 0
M  V30 4262 H 395.424 -3.70306 -0.439056 0
M  V30 4263 N 397.609 -0.515225 -1.4894 0
M  V30 4264 C 398.856 0.024215 -2.02486 0
M  V30 4265 C 399.184 1.35671 -1.39368 0
M  V30 4266 O 398.439 1.88566 -0.523574 0
M  V30 4267 C 398.738 0.210595 -3.56779 0
M  V30 4268 C 398.404 -1.04569 -4.38607 0
M  V30 4269 C 397.066 -1.39002 -4.60686 0
M  V30 4270 C 399.418 -1.88008 -4.86109 0
M  V30 4271 C 396.746 -2.568 -5.27514 0
M  V30 4272 C 399.098 -3.04972 -5.54234 0
M  V30 4273 C 397.762 -3.39768 -5.74555 0
M  V30 4274 H 397.032 0.00886088 -0.740947 0
M  V30 4275 H 399.679 -0.678263 -1.79086 0
M  V30 4276 H 397.984 0.99572 -3.78936 0
M  V30 4277 H 399.681 0.642659 -3.95817 0
M  V30 4278 H 396.271 -0.767497 -4.21672 0
M  V30 4279 H 400.455 -1.62719 -4.68867 0
M  V30 4280 H 395.711 -2.8398 -5.41447 0
M  V30 4281 H 399.885 -3.69943 -5.90013 0
M  V30 4282 H 397.512 -4.31148 -6.26112 0
M  V30 4283 N 399.087 1.5561 -0.249682 0
M  V30 4284 C 400.333 1.99306 0.374841 0
M  V30 4285 C 400.666 1.13767 1.57387 0
M  V30 4286 O 399.941 0.201711 1.93451 0
M  V30 4287 C 400.224 3.51507 0.781986 0
M  V30 4288 C 400.077 4.4781 -0.422629 0
M  V30 4289 C 401.396 4.08884 1.62793 0
M  V30 4290 H 398.515 0.724572 0.134773 0
M  V30 4291 H 401.157 1.86719 -0.351549 0
M  V30 4292 H 399.307 3.62363 1.4009 0
M  V30 4293 H 400.979 4.48931 -1.06108 0
M  V30 4294 H 399.222 4.20518 -1.06524 0
M  V30 4295 H 399.893 5.51919 -0.0943766 0
M  V30 4296 H 402.369 4.01147 1.10547 0
M  V30 4297 H 401.245 5.1564 1.88166 0
M  V30 4298 H 401.506 3.57515 2.60068 0
M  V30 4299 N 400.565 -0.0233959 1.57583 0
M  V30 4300 C 401.497 -1.04994 2.03737 0
M  V30 4301 C 402.51 -1.32125 0.951152 0
M  V30 4302 O 403.699 -1.29512 1.22837 0
M  V30 4303 C 400.799 -2.39026 2.40249 0
M  V30 4304 C 399.972 -2.31171 3.7132 0
M  V30 4305 C 399.031 -3.47698 3.94959 0
M  V30 4306 O 398.057 -3.26937 4.65941 0
M  V30 4307 N 399.259 -4.6976 3.41037 0
M  V30 4308 H 402.024 -0.656507 2.92421 0
M  V30 4309 H 399.585 -0.211235 1.60516 0
M  V30 4310 H 401.577 -3.15712 2.53196 0
M  V30 4311 H 400.147 -2.70194 1.57207 0
M  V30 4312 H 399.367 -1.39547 3.68674 0
M  V30 4313 H 400.655 -2.23071 4.57293 0
M  V30 4314 H 400.053 -4.89528 2.83512 0
M  V30 4315 H 398.61 -5.43791 3.59353 0
M  V30 4316 N 402.043 -1.548 -0.295768 0
M  V30 4317 C 402.973 -1.89115 -1.36959 0
M  V30 4318 C 403.954 -0.75059 -1.52644 0
M  V30 4319 O 405.139 -1.00678 -1.66065 0
M  V30 4320 C 402.269 -2.14307 -2.73295 0
M  V30 4321 C 401.223 -3.30151 -2.72368 0
M  V30 4322 C 400.549 -3.40772 -4.12042 0
M  V30 4323 C 401.849 -4.67126 -2.33646 0
M  V30 4324 H 403.543 -2.79053 -1.08488 0
M  V30 4325 H 401.089 -1.34266 -0.520443 0
M  V30 4326 H 403.042 -2.36898 -3.48507 0
M  V30 4327 H 401.766 -1.21145 -3.03301 0
M  V30 4328 H 400.425 -3.0749 -1.99613 0
M  V30 4329 H 400.073 -2.45117 -4.39234 0
M  V30 4330 H 399.773 -4.18645 -4.12322 0
M  V30 4331 H 401.297 -3.6563 -4.89027 0
M  V30 4332 H 402.711 -4.89414 -2.98575 0
M  V30 4333 H 401.108 -5.47751 -2.45129 0
M  V30 4334 H 402.178 -4.67489 -1.28772 0
M  V30 4335 N 403.521 0.559213 -1.47345 0
M  V30 4336 C 404.746 1.34676 -1.57725 0
M  V30 4337 C 405.171 1.86723 -0.227164 0
M  V30 4338 O 404.529 1.6286 0.796642 0
M  V30 4339 C 404.577 2.49399 -2.60447 0
M  V30 4340 O 403.681 3.51567 -2.15578 0
M  V30 4341 H 403.022 0.400115 -0.52991 0
M  V30 4342 H 405.552 0.676009 -1.93109 0
M  V30 4343 H 405.562 2.95996 -2.80803 0
M  V30 4344 H 404.237 2.10873 -3.58477 0
M  V30 4345 H 402.814 3.11289 -2.05313 0
M  V30 4346 N 404.999 1.35443 0.805782 0
M  V30 4347 C 406.276 1.19325 1.54987 0
M  V30 4348 C 406.656 -0.227294 2.09873 0
M  V30 4349 O 406.004 -1.2309 1.92512 0
M  V30 4350 C 406.214 2.26196 2.65775 0
M  V30 4351 C 407.562 2.62043 3.34094 0
M  V30 4352 O 408.586 2.25115 2.76046 0
M  V30 4353 O 407.445 3.25542 4.38958 0
M  V30 4354 H 404.539 0.463623 0.684823 0
M  V30 4355 H 407.085 1.47127 0.845674 0
M  V30 4356 H 405.857 3.21471 2.23096 0
M  V30 4357 H 405.48 1.99667 3.43829 0
M  V30 4358 N 406.477 -1.02803 1.19454 0
M  V30 4359 C 407.44 -2.09264 0.934955 0
M  V30 4360 C 408.44 -1.60576 -0.0849015 0
M  V30 4361 O 409.63 -1.73554 0.149933 0
M  V30 4362 C 406.762 -3.38482 0.40531 0
M  V30 4363 H 407.955 -2.33726 1.87916 0
M  V30 4364 H 405.508 -1.19426 1.00832 0
M  V30 4365 H 406.243 -3.19689 -0.544899 0
M  V30 4366 H 406.028 -3.75142 1.14065 0
M  V30 4367 H 407.518 -4.16894 0.242806 0
M  V30 4368 N 407.956 -0.998596 -1.21925 0
M  V30 4369 C 409.186 -0.695276 -1.94549 0
M  V30 4370 C 409.594 0.745079 -1.73911 0
M  V30 4371 O 408.937 1.51507 -1.03881 0
M  V30 4372 C 408.999 -0.928485 -3.47303 0
M  V30 4373 C 408.663 -2.35443 -3.91683 0
M  V30 4374 C 409.66 -3.33428 -3.98901 0
M  V30 4375 C 407.345 -2.69038 -4.24174 0
M  V30 4376 C 409.339 -4.63079 -4.37992 0
M  V30 4377 C 407.026 -3.98906 -4.62944 0
M  V30 4378 C 408.024 -4.95738 -4.69822 0
M  V30 4379 O 407.712 -6.23285 -5.07711 0
M  V30 4380 H 407.444 -0.255902 -0.625692 0
M  V30 4381 H 409.998 -1.33767 -1.5587 0
M  V30 4382 H 408.228 -0.228917 -3.86022 0
M  V30 4383 H 409.917 -0.619539 -4.01144 0
M  V30 4384 H 410.683 -3.08807 -3.73983 0
M  V30 4385 H 406.562 -1.94367 -4.18022 0
M  V30 4386 H 410.106 -5.38658 -4.43275 0
M  V30 4387 H 406.003 -4.23314 -4.87314 0
M  V30 4388 H 406.771 -6.27306 -5.25766 0
M  V30 4389 N 409.434 1.37368 -0.772513 0
M  V30 4390 C 410.659 2.0447 -0.347386 0
M  V30 4391 C 411.084 1.57882 1.0225 0
M  V30 4392 O 410.442 0.73941 1.65537 0
M  V30 4393 C 410.49 3.58369 -0.400479 0
M  V30 4394 O 409.594 4.0803 0.598789 0
M  V30 4395 H 408.935 0.646773 -0.15027 0
M  V30 4396 H 411.465 1.75667 -1.04892 0
M  V30 4397 H 411.475 4.07183 -0.258045 0
M  V30 4398 H 410.15 3.91633 -1.39986 0
M  V30 4399 H 408.727 3.70534 0.419411 0
M  V30 4400 N 410.912 0.523116 1.48665 0
M  V30 4401 C 412.14 -0.0096312 2.06898 0
M  V30 4402 C 412.555 -1.28784 1.38059 0
M  V30 4403 O 411.912 -1.76453 0.465893 0
M  V30 4404 C 411.963 -0.244386 3.60673 0
M  V30 4405 O 411.684 0.983172 4.26925 0
M  V30 4406 C 413.185 -0.818289 4.35682 0
M  V30 4407 H 410.405 0.0304161 0.67031 0
M  V30 4408 H 412.949 0.726799 1.91149 0
M  V30 4409 H 411.104 -0.930847 3.76051 0
M  V30 4410 H 411.518 0.759653 5.1897 0
M  V30 4411 H 412.992 -0.93201 5.44075 0
M  V30 4412 H 413.469 -1.82153 3.99646 0
M  V30 4413 H 414.075 -0.168609 4.24966 0
M  V30 4414 N 412.39 -1.55475 0.257931 0
M  V30 4415 C 413.638 -1.98813 -0.363009 0
M  V30 4416 C 413.959 -1.14757 -1.57657 0
M  V30 4417 O 413.229 -0.232956 -1.9451 0
M  V30 4418 H 411.809 -0.734308 -0.137113 0
M  V30 4419 H 414.471 -1.9156 0.359281 0
M  V30 4420 H 413.567 -3.04941 -0.664634 0
M  V30 4421 N 413.868 0.0150385 -1.57593 0
M  V30 4422 C 415.093 0.718067 -1.94573 0
M  V30 4423 C 415.518 1.6734 -0.859005 0
M  V30 4424 O 414.876 1.80362 0.184147 0
M  V30 4425 C 414.924 1.43918 -3.30636 0
M  V30 4426 O 414.028 2.55299 -3.23876 0
M  V30 4427 H 413.369 0.192125 -0.635597 0
M  V30 4428 H 415.899 -0.0336708 -2.04572 0
M  V30 4429 H 415.909 1.80598 -3.65853 0
M  V30 4430 H 414.584 0.738619 -4.09289 0
M  V30 4431 H 413.161 2.21058 -3.00312 0
M  V30 4432 N 415.346 1.54954 0.287554 0
M  V30 4433 C 416.571 1.79209 1.04397 0
M  V30 4434 C 416.996 0.556431 1.79682 0
M  V30 4435 O 416.354 -0.493518 1.74454 0
M  V30 4436 C 416.402 3.00739 1.98969 0
M  V30 4437 O 415.506 2.74805 3.075 0
M  V30 4438 H 414.847 0.592755 0.299227 0
M  V30 4439 H 417.377 2.02068 0.320886 0
M  V30 4440 H 417.387 3.29077 2.4119 0
M  V30 4441 H 416.062 3.90329 1.43582 0
M  V30 4442 H 414.639 2.57523 2.69697 0
M  V30 4443 N 416.824 -0.551391 1.4764 0
M  V30 4444 C 417.754 -1.66757 1.63445 0
M  V30 4445 C 418.735 -1.63077 0.483742 0
M  V30 4446 O 419.92 -1.80607 0.71377 0
M  V30 4447 C 417.05 -3.05387 1.65396 0
M  V30 4448 C 416.004 -3.23918 2.79752 0
M  V30 4449 C 415.33 -4.63393 2.66779 0
M  V30 4450 C 416.63 -3.08735 4.21284 0
M  V30 4451 H 418.324 -1.53786 2.56886 0
M  V30 4452 H 415.87 -0.738415 1.23626 0
M  V30 4453 H 417.823 -3.83325 1.75043 0
M  V30 4454 H 416.547 -3.19332 0.685195 0
M  V30 4455 H 415.206 -2.48391 2.69625 0
M  V30 4456 H 414.854 -4.74144 1.67918 0
M  V30 4457 H 414.554 -4.7674 3.43501 0
M  V30 4458 H 416.078 -5.43458 2.78364 0
M  V30 4459 H 417.492 -3.76484 4.32357 0
M  V30 4460 H 415.889 -3.33588 4.98838 0
M  V30 4461 H 416.959 -2.0541 4.39243 0
M  V30 4462 N 418.302 -1.35869 -0.798587 0
M  V30 4463 C 419.235 -1.23801 -1.91699 0
M  V30 4464 C 420.213 -0.124143 -1.62125 0
M  V30 4465 O 421.397 -0.293656 -1.86199 0
M  V30 4466 C 418.524 -0.908063 -3.263 0
M  V30 4467 C 417.57 -2.0351 -3.74815 0
M  V30 4468 S 418.403 -3.65183 -3.91665 0
M  V30 4469 C 419.559 -3.34283 -5.29156 0
M  V30 4470 H 419.792 -2.18466 -2.01643 0
M  V30 4471 H 417.325 -1.21178 -0.956833 0
M  V30 4472 H 419.283 -0.724506 -4.04056 0
M  V30 4473 H 417.944 0.0206584 -3.14093 0
M  V30 4474 H 417.137 -1.75858 -4.72324 0
M  V30 4475 H 416.739 -2.1774 -3.04081 0
M  V30 4476 H 419.031 -2.87607 -6.13424 0
M  V30 4477 H 419.974 -4.31022 -5.61806 0
M  V30 4478 H 420.382 -2.69854 -4.95822 0
M  V30 4479 N 419.78 1.02168 -1.19998 0
M  V30 4480 C 421.191 1.57135 -1.00825 0
M  V30 4481 C 421.542 1.91276 0.436818 0
M  V30 4482 O 420.667 1.71679 1.3174 0
M  V30 4483 C 421.262 2.85514 -1.82393 0
M  V30 4484 C 419.821 3.37027 -1.67601 0
M  V30 4485 C 418.968 2.10388 -1.80644 0
M  V30 4486 H 421.919 0.846106 -1.34264 0
M  V30 4487 H 421.94 3.56711 -1.32429 0
M  V30 4488 H 421.452 2.60634 -2.87561 0
M  V30 4489 H 419.553 3.66878 -0.650485 0
M  V30 4490 H 419.666 4.09572 -2.4857 0
M  V30 4491 H 418.03 2.22601 -1.23778 0
M  V30 4492 H 418.813 1.8794 -2.87286 0
M  V30 4493 N 421.258 1.00505 1.21394 0
M  V30 4494 C 422.19 0.52372 2.23136 0
M  V30 4495 C 423.203 -0.387714 1.58116 0
M  V30 4496 O 424.392 -0.187905 1.77508 0
M  V30 4497 C 421.492 -0.258885 3.3791 0
M  V30 4498 C 420.665 0.651634 4.32519 0
M  V30 4499 C 419.724 -0.0813705 5.26137 0
M  V30 4500 O 418.75 0.537295 5.66658 0
M  V30 4501 N 419.952 -1.35992 5.64346 0
M  V30 4502 H 422.717 1.39865 2.65062 0
M  V30 4503 H 420.278 0.881196 1.35818 0
M  V30 4504 H 422.27 -0.758208 3.97534 0
M  V30 4505 H 420.84 -1.035 2.94968 0
M  V30 4506 H 420.06 1.33145 3.71034 0
M  V30 4507 H 421.348 1.27129 4.92662 0
M  V30 4508 H 420.746 -1.88368 5.33417 0
M  V30 4509 H 419.303 -1.8042 6.26332 0
M  V30 4510 N 422.737 -1.36956 0.779787 0
M  V30 4511 C 423.684 -2.30175 0.169697 0
M  V30 4512 C 424.654 -1.51501 -0.68094 0
M  V30 4513 O 425.839 -1.80042 -0.631629 0
M  V30 4514 C 422.979 -3.37985 -0.697131 0
M  V30 4515 C 422.092 -4.31661 0.170992 0
M  V30 4516 C 421.227 -5.2655 -0.701298 0
M  V30 4517 C 420.266 -6.11867 0.168869 0
M  V30 4518 N 419.403 -6.98973 -0.661855 0
M  V30 4519 H 424.243 -2.81767 0.970135 0
M  V30 4520 H 421.78 -1.38699 0.489994 0
M  V30 4521 H 423.738 -3.99128 -1.2146 0
M  V30 4522 H 422.368 -2.87739 -1.46309 0
M  V30 4523 H 421.42 -3.71756 0.80634 0
M  V30 4524 H 422.732 -4.91644 0.841875 0
M  V30 4525 H 421.886 -5.92937 -1.28494 0
M  V30 4526 H 420.625 -4.66998 -1.40584 0
M  V30 4527 H 419.63 -5.44452 0.764986 0
M  V30 4528 H 420.855 -6.73493 0.870863 0
M  V30 4529 H 418.801 -6.41941 -1.35086 0
M  V30 4530 H 418.718 -7.55984 -0.0484447 0
M  V30 4531 H 419.986 -7.6974 -1.22963 0
M  V30 4532 N 424.215 -0.530993 -1.48385 0
M  V30 4533 C 425.162 0.231223 -2.29639 0
M  V30 4534 C 426.132 0.932864 -1.37429 0
M  V30 4535 O 427.317 0.933692 -1.66394 0
M  V30 4536 C 424.457 1.27155 -3.2082 0
M  V30 4537 C 423.57 0.578655 -4.28107 0
M  V30 4538 C 422.705 1.602 -5.06467 0
M  V30 4539 C 421.744 0.892625 -6.05556 0
M  V30 4540 N 420.881 1.86157 -6.76971 0
M  V30 4541 H 425.721 -0.467848 -2.94305 0
M  V30 4542 H 423.258 -0.242556 -1.45086 0
M  V30 4543 H 425.216 1.88703 -3.72085 0
M  V30 4544 H 423.846 1.939 -2.58075 0
M  V30 4545 H 422.898 -0.150782 -3.80101 0
M  V30 4546 H 424.21 0.0217065 -4.98795 0
M  V30 4547 H 423.364 2.29173 -5.61751 0
M  V30 4548 H 422.103 2.19285 -4.35621 0
M  V30 4549 H 421.108 0.188829 -5.49476 0
M  V30 4550 H 422.333 0.307878 -6.78402 0
M  V30 4551 H 420.279 2.44147 -6.08875 0
M  V30 4552 H 420.196 1.35608 -7.43738 0
M  V30 4553 H 421.464 2.54325 -7.36844 0
M  V30 4554 N 425.693 1.55336 -0.266172 0
M  V30 4555 C 426.641 2.23587 0.641228 0
M  V30 4556 C 427.635 1.22986 1.16494 0
M  V30 4557 O 428.841 1.40943 1.1196 0
M  V30 4558 H 425.216 0.717452 0.225315 0
M  V30 4559 H 427.187 2.9837 0.0426561 0
M  V30 4560 C 425.936 2.96369 1.81826 0
M  V30 4561 H 425.259 3.73563 1.42445 0
M  V30 4562 H 426.699 3.47459 2.42998 0
M  V30 4563 C 425.158 2.0133 2.70125 0
M  V30 4564 O 425.688 1.55875 3.70224 0
M  V30 4565 N 423.894 1.6802 2.37102 0
M  V30 4566 H 423.441 2.05181 1.55751 0
M  V30 4567 H 423.399 1.047 2.96454 0
M  V30 4568 N 427.171 -0.0066808 1.57599 0
M  V30 4569 C 428.582 -0.550379 1.78403 0
M  V30 4570 C 428.933 -1.74339 0.900014 0
M  V30 4571 O 428.058 -2.16166 0.100713 0
M  V30 4572 C 428.653 -1.00523 3.23544 0
M  V30 4573 C 427.212 -1.49428 3.45468 0
M  V30 4574 C 426.359 -0.442444 2.73748 0
M  V30 4575 H 429.31 0.219508 1.57175 0
M  V30 4576 H 429.331 -1.87157 3.31289 0
M  V30 4577 H 428.843 -0.136735 3.87859 0
M  V30 4578 H 426.944 -2.3839 2.86358 0
M  V30 4579 H 427.057 -1.52635 4.54136 0
M  V30 4580 H 425.421 -0.902578 2.38171 0
M  V30 4581 H 426.204 0.416973 3.40758 0
M  V30 4582 N 428.649 -1.55105 -0.279332 0
M  V30 4583 C 429.926 -1.66119 -1.03267 0
M  V30 4584 C 430.306 -0.523525 -2.04505 0
M  V30 4585 O 429.654 0.477194 -2.23462 0
M  V30 4586 C 429.864 -3.05067 -1.69515 0
M  V30 4587 C 431.212 -3.62606 -2.20912 0
M  V30 4588 O 432.236 -3.07659 -1.79512 0
M  V30 4589 O 431.095 -4.58861 -2.96831 0
M  V30 4590 H 428.189 -0.674429 -0.478618 0
M  V30 4591 H 430.735 -1.67446 -0.275694 0
M  V30 4592 H 429.507 -3.79311 -0.9612 0
M  V30 4593 H 429.13 -3.07611 -2.51915 0
M  V30 4594 N 430.127 0.543554 -1.4793 0
M  V30 4595 C 431.352 1.32995 -1.59145 0
M  V30 4596 C 431.777 1.86472 -0.246956 0
M  V30 4597 O 431.135 1.63696 0.779324 0
M  V30 4598 C 431.183 2.46623 -2.63077 0
M  V30 4599 O 430.287 3.49261 -2.19295 0
M  V30 4600 H 429.628 0.394472 -0.534124 0
M  V30 4601 H 432.158 0.655489 -1.93816 0
M  V30 4602 H 432.168 2.93001 -2.83926 0
M  V30 4603 H 430.843 2.07059 -3.60693 0
M  V30 4604 H 429.42 3.09094 -2.08603 0
M  V30 4605 N 431.605 1.3629 0.791371 0
M  V30 4606 C 432.535 1.33137 1.91825 0
M  V30 4607 C 433.516 0.203168 1.68882 0
M  V30 4608 O 434.701 0.400509 1.90025 0
M  V30 4609 C 431.831 1.11793 3.28816 0
M  V30 4610 C 430.785 2.21417 3.66277 0
M  V30 4611 C 430.111 1.85218 5.01596 0
M  V30 4612 C 431.411 3.63489 3.75064 0
M  V30 4613 H 433.105 2.2743 1.9472 0
M  V30 4614 H 430.651 1.09479 0.935437 0
M  V30 4615 H 432.604 1.08222 4.07266 0
M  V30 4616 H 431.328 0.139501 3.26302 0
M  V30 4617 H 429.987 2.2411 2.90121 0
M  V30 4618 H 429.635 0.859544 4.95602 0
M  V30 4619 H 429.335 2.58611 5.27631 0
M  V30 4620 H 430.859 1.832 5.82469 0
M  V30 4621 H 432.273 3.63034 4.43711 0
M  V30 4622 H 430.67 4.35771 4.12582 0
M  V30 4623 H 431.74 3.98536 2.76219 0
M  V30 4624 N 433.083 -1.0153 1.20538 0
M  V30 4625 C 433.993 -2.13557 0.971113 0
M  V30 4626 C 435.009 -1.73845 -0.0734366 0
M  V30 4627 O 436.185 -2.01075 0.114299 0
M  V30 4628 C 433.25 -3.42661 0.527639 0
M  V30 4629 C 432.311 -3.96608 1.64319 0
M  V30 4630 C 431.544 -5.1955 1.22078 0
M  V30 4631 O 431.767 -5.70329 0.0900198 0
M  V30 4632 O 430.701 -5.66681 2.02871 0
M  V30 4633 H 434.527 -2.3619 1.90913 0
M  V30 4634 H 432.112 -1.11946 0.989362 0
M  V30 4635 H 433.994 -4.20404 0.289621 0
M  V30 4636 H 432.669 -3.21441 -0.381779 0
M  V30 4637 H 431.576 -3.20139 1.93551 0
M  V30 4638 H 432.909 -4.22219 2.52966 0
M  V30 4639 N 434.561 -1.01147 -1.20859 0
M  V30 4640 C 435.491 -0.597663 -2.25722 0
M  V30 4641 C 436.472 0.384744 -1.65692 0
M  V30 4642 O 437.657 0.271303 -1.92296 0
M  V30 4643 C 434.787 0.0700149 -3.47229 0
M  V30 4644 C 433.741 -0.832843 -4.19819 0
M  V30 4645 C 433.067 -0.0312202 -5.34691 0
M  V30 4646 C 434.367 -2.1385 -4.76514 0
M  V30 4647 H 436.061 -1.47423 -2.60589 0
M  V30 4648 H 433.607 -0.710301 -1.25263 0
M  V30 4649 H 435.56 0.37103 -4.19763 0
M  V30 4650 H 434.284 0.981259 -3.11511 0
M  V30 4651 H 432.943 -1.11778 -3.49144 0
M  V30 4652 H 432.591 0.881515 -4.95215 0
M  V30 4653 H 432.291 -0.632434 -5.84187 0
M  V30 4654 H 433.815 0.26346 -6.10031 0
M  V30 4655 H 435.229 -1.9002 -5.40893 0
M  V30 4656 H 433.626 -2.69012 -5.36426 0
M  V30 4657 H 434.696 -2.80495 -3.95538 0
M  V30 4658 N 436.039 1.36541 -0.78704 0
M  V30 4659 C 437.288 1.98552 -0.35494 0
M  V30 4660 C 437.601 1.63171 1.07864 0
M  V30 4661 O 438.807 2.18399 1.61289 0
M  V30 4662 C 437.263 3.55136 -0.583671 0
M  V30 4663 C 436.871 3.99444 -2.02851 0
M  V30 4664 C 438.615 4.2395 -0.215957 0
M  V30 4665 C 436.522 5.48796 -2.20403 0
M  V30 4666 H 435.452 0.742888 -0.128972 0
M  V30 4667 H 438.103 1.5587 -0.968337 0
M  V30 4668 H 436.485 3.95875 0.0994046 0
M  V30 4669 H 437.659 3.6991 -2.74779 0
M  V30 4670 H 435.974 3.43459 -2.35425 0
M  V30 4671 H 438.571 5.33709 -0.325405 0
M  V30 4672 H 438.914 4.07827 0.835646 0
M  V30 4673 H 439.447 3.88565 -0.852175 0
M  V30 4674 H 436.186 5.69864 -3.23937 0
M  V30 4675 H 435.706 5.79964 -1.52977 0
M  V30 4676 H 437.385 6.14986 -2.01002 0
M  V30 4677 N 437.518 0.538854 1.48102 0
M  V30 4678 C 438.934 0.19732 1.58376 0
M  V30 4679 C 439.134 -1.29971 1.5398 0
M  V30 4680 O 438.19 -2.07861 1.43352 0
M  V30 4681 C 439.503 0.807716 2.89649 0
M  V30 4682 C 441.051 0.77726 3.03196 0
M  V30 4683 C 441.526 1.36639 4.37143 0
M  V30 4684 N 443.017 1.32875 4.43732 0
M  V30 4685 C 443.752 1.7544 5.45901 0
M  V30 4686 N 443.248 2.25776 6.54979 0
M  V30 4687 N 445.041 1.66623 5.36836 0
M  V30 4688 H 437.192 1.5117 1.49202 0
M  V30 4689 H 439.455 0.629327 0.708979 0
M  V30 4690 H 439.161 1.85909 2.98548 0
M  V30 4691 H 439.035 0.289975 3.76084 0
M  V30 4692 H 441.422 -0.265374 2.93904 0
M  V30 4693 H 441.503 1.33256 2.18349 0
M  V30 4694 H 441.147 2.408 4.47189 0
M  V30 4695 H 441.077 0.786689 5.20691 0
M  V30 4696 H 443.568 0.96037 3.65493 0
M  V30 4697 H 443.881 2.56226 7.29087 0
M  V30 4698 H 442.226 2.29775 6.55918 0
M  V30 4699 H 445.417 1.27089 4.50517 0
M  V30 4700 H 445.59 2.00115 6.16326 0
M  V30 4701 N 438.996 -1.55193 0.274407 0
M  V30 4702 C 440.221 -2.04446 -0.348824 0
M  V30 4703 C 440.646 -1.15149 -1.48735 0
M  V30 4704 O 440.004 -0.149952 -1.80679 0
M  V30 4705 C 440.052 -3.51431 -0.808009 0
M  V30 4706 O 439.156 -3.65225 -1.91531 0
M  V30 4707 H 438.497 -0.66006 -0.0722276 0
M  V30 4708 H 441.027 -2.00481 0.408498 0
M  V30 4709 H 441.037 -3.92781 -1.10395 0
M  V30 4710 H 439.712 -4.15892 0.0249865 0
M  V30 4711 H 438.289 -3.35778 -1.62196 0
M  V30 4712 N 440.474 -0.00167713 -1.576 0
M  V30 4713 C 441.421 0.989195 -2.08527 0
M  V30 4714 C 442.391 1.34031 -0.981065 0
M  V30 4715 O 443.576 1.43839 -1.2536 0
M  V30 4716 C 440.716 2.27537 -2.59463 0
M  V30 4717 C 439.829 1.98314 -3.83791 0
M  V30 4718 C 438.964 3.21025 -4.23222 0
M  V30 4719 C 438.003 2.87495 -5.40382 0
M  V30 4720 N 437.14 4.02749 -5.75098 0
M  V30 4721 H 441.98 0.547973 -2.92919 0
M  V30 4722 H 439.517 0.258917 -1.44803 0
M  V30 4723 H 441.475 3.02729 -2.87073 0
M  V30 4724 H 440.105 2.69325 -1.77943 0
M  V30 4725 H 439.157 1.13482 -3.63078 0
M  V30 4726 H 440.469 1.69601 -4.69081 0
M  V30 4727 H 439.623 4.04561 -4.52123 0
M  V30 4728 H 438.362 3.52877 -3.36644 0
M  V30 4729 H 437.367 2.02367 -5.11202 0
M  V30 4730 H 438.592 2.56889 -6.28637 0
M  V30 4731 H 436.538 4.34494 -4.91478 0
M  V30 4732 H 436.455 3.77566 -6.54966 0
M  V30 4733 H 437.723 4.87068 -6.08592 0
M  V30 4734 N 441.952 1.55251 0.271103 0
M  V30 4735 C 442.915 1.87484 1.31842 0
M  V30 4736 C 443.915 0.749545 1.42262 0
M  V30 4737 O 445.105 1.01771 1.4138 0
M  V30 4738 C 442.237 2.0818 2.69951 0
M  V30 4739 H 443.43 2.81108 1.0449 0
M  V30 4740 H 440.983 1.47771 0.509258 0
M  V30 4741 H 441.718 1.16944 3.02481 0
M  V30 4742 H 441.503 2.90114 2.63774 0
M  V30 4743 H 442.993 2.34385 3.4562 0
M  V30 4744 N 443.43 -0.535701 1.48216 0
M  V30 4745 C 444.678 -1.28928 1.55634 0
M  V30 4746 C 444.999 -1.93645 0.229514 0
M  V30 4747 O 444.269 -1.81038 -0.74846 0
M  V30 4748 H 442.849 -0.47884 0.573342 0
M  V30 4749 H 445.511 -0.623853 1.84646 0
M  V30 4750 H 444.607 -2.07157 2.33436 0
M  V30 4751 N 444.908 -1.36708 -0.784132 0
M  V30 4752 C 446.324 -1.17237 -1.08294 0
M  V30 4753 C 446.524 -5.93947e-05 -2.015 0
M  V30 4754 O 445.58 0.663686 -2.43622 0
M  V30 4755 C 446.893 -2.48557 -1.69233 0
M  V30 4756 C 448.441 -2.54968 -1.8155 0
M  V30 4757 C 448.916 -3.86388 -2.45904 0
M  V30 4758 N 450.407 -3.87762 -2.53367 0
M  V30 4759 C 451.142 -4.86191 -3.03983 0
M  V30 4760 N 450.638 -5.95015 -3.54866 0
M  V30 4761 N 452.431 -4.73606 -3.02743 0
M  V30 4762 H 444.582 -2.11758 -0.16501 0
M  V30 4763 H 446.845 -0.93822 -0.135822 0
M  V30 4764 H 446.551 -3.34638 -1.08215 0
M  V30 4765 H 446.425 -2.64748 -2.68679 0
M  V30 4766 H 448.812 -1.69302 -2.41704 0
M  V30 4767 H 448.893 -2.42672 -0.80895 0
M  V30 4768 H 448.537 -4.72462 -1.86392 0
M  V30 4769 H 448.467 -3.95982 -3.4714 0
M  V30 4770 H 450.958 -3.09145 -2.17343 0
M  V30 4771 H 451.271 -6.66086 -3.91854 0
M  V30 4772 H 449.616 -5.98676 -3.53003 0
M  V30 4773 H 452.807 -3.87717 -2.62284 0
M  V30 4774 H 452.98 -5.50473 -3.41881 0
M  V30 4775 N 446.386 1.0089 -1.21074 0
M  V30 4776 C 447.632 1.74866 -1.02712 0
M  V30 4777 C 447.965 1.89178 0.438787 0
M  V30 4778 O 447.24 1.42325 1.32567 0
M  V30 4779 C 447.523 3.16347 -1.72036 0
M  V30 4780 C 447.376 3.09782 -3.26121 0
M  V30 4781 C 448.695 4.15187 -1.45973 0
M  V30 4782 H 445.814 0.634736 -0.374539 0
M  V30 4783 H 448.456 1.17646 -1.49196 0
M  V30 4784 H 446.606 3.65201 -1.32517 0
M  V30 4785 H 448.278 2.68673 -3.74983 0
M  V30 4786 H 446.521 2.46982 -3.56626 0
M  V30 4787 H 447.192 4.09829 -3.6979 0
M  V30 4788 H 449.668 3.75022 -1.80272 0
M  V30 4789 H 448.544 5.12331 -1.96999 0
M  V30 4790 H 448.805 4.40386 -0.388924 0
M  V30 4791 N 447.864 1.01787 1.20321 0
M  V30 4792 C 449.111 0.707936 1.89722 0
M  V30 4793 C 449.439 -0.762535 1.78929 0
M  V30 4794 O 448.694 -1.56977 1.16861 0
M  V30 4795 C 448.993 1.09076 3.40349 0
M  V30 4796 C 448.659 2.55765 3.71342 0
M  V30 4797 C 447.321 2.95845 3.79511 0
M  V30 4798 C 449.673 3.50723 3.85542 0
M  V30 4799 C 447.001 4.2982 3.99339 0
M  V30 4800 C 449.353 4.84387 4.06881 0
M  V30 4801 C 448.017 5.24172 4.1328 0
M  V30 4802 H 447.287 0.259052 0.694243 0
M  V30 4803 H 449.934 1.27868 1.42555 0
M  V30 4804 H 448.239 0.438453 3.89339 0
M  V30 4805 H 449.936 0.828636 3.92345 0
M  V30 4806 H 446.526 2.2371 3.65584 0
M  V30 4807 H 450.71 3.20916 3.78585 0
M  V30 4808 H 445.966 4.60196 4.02529 0
M  V30 4809 H 450.14 5.57891 4.1681 0
M  V30 4810 H 447.767 6.27997 4.28396 0
M  V30 4811 N 449.342 -1.36122 0.79427 0
M  V30 4812 C 450.59 -1.98718 0.368177 0
M  V30 4813 C 450.911 -1.63345 -1.06506 0
M  V30 4814 O 450.181 -0.909825 -1.73491 0
M  V30 4815 H 448.761 -0.735038 0.133146 0
M  V30 4816 H 451.423 -1.66239 1.01739 0
M  V30 4817 H 450.519 -3.08633 0.463923 0
M  V30 4818 N 450.82 -0.546701 -1.47814 0
M  V30 4819 C 452.236 -0.205717 -1.58269 0
M  V30 4820 C 452.436 1.29153 -1.54667 0
M  V30 4821 O 451.492 2.07098 -1.44453 0
M  V30 4822 C 452.805 -0.823065 -2.89216 0
M  V30 4823 C 454.353 -0.793328 -3.02779 0
M  V30 4824 C 454.828 -1.38955 -4.36412 0
M  V30 4825 N 456.319 -1.35227 -4.43021 0
M  V30 4826 C 457.054 -1.78333 -5.44963 0
M  V30 4827 N 456.55 -2.29246 -6.53772 0
M  V30 4828 N 458.343 -1.69467 -5.35945 0
M  V30 4829 H 450.494 -1.5196 -1.48398 0
M  V30 4830 H 452.757 -0.633078 -0.705632 0
M  V30 4831 H 452.463 -1.8749 -2.97558 0
M  V30 4832 H 452.337 -0.309915 -3.75925 0
M  V30 4833 H 454.724 0.249784 -2.94041 0
M  V30 4834 H 454.805 -1.34412 -2.17639 0
M  V30 4835 H 454.449 -2.43168 -4.45906 0
M  V30 4836 H 454.379 -0.814291 -5.20266 0
M  V30 4837 H 456.87 -0.979739 -3.64979 0
M  V30 4838 H 457.183 -2.60089 -7.27718 0
M  V30 4839 H 455.528 -2.3325 -6.5469 0
M  V30 4840 H 458.719 -1.29477 -4.49837 0
M  V30 4841 H 458.892 -2.03381 -6.15256 0
M  V30 4842 N 452.299 1.55045 -0.282633 0
M  V30 4843 C 453.539 2.01668 0.333088 0
M  V30 4844 C 453.903 1.1667 1.52486 0
M  V30 4845 O 455.104 1.52907 2.21072 0
M  V30 4846 C 453.375 3.50509 0.698442 0
M  V30 4847 S 454.934 4.19112 1.29963 0
M  V30 4848 H 451.752 0.703468 0.103219 0
M  V30 4849 H 454.354 1.91233 -0.406222 0
M  V30 4850 H 453.058 4.10015 -0.177693 0
M  V30 4851 H 452.589 3.64943 1.46902 0
M  V30 4852 H 454.604 4.23362 2.58803 0
M  V30 4853 N 453.777 0.010035 1.57597 0
M  V30 4854 C 454.74 -0.963029 2.07986 0
M  V30 4855 C 455.74 -1.26619 0.991173 0
M  V30 4856 O 456.93 -1.2097 1.25347 0
M  V30 4857 C 454.062 -2.2851 2.52974 0
M  V30 4858 H 455.255 -0.526971 2.95234 0
M  V30 4859 H 452.808 -0.237639 1.54483 0
M  V30 4860 H 453.543 -2.76784 1.69 0
M  V30 4861 H 453.328 -2.07824 3.32493 0
M  V30 4862 H 454.818 -2.98294 2.9225 0
M  V30 4863 N 455.255 -1.55392 -0.262866 0
M  V30 4864 C 456.503 -1.76127 -0.991147 0
M  V30 4865 C 456.824 -0.571083 -1.8645 0
M  V30 4866 O 456.094 0.413698 -1.91482 0
M  V30 4867 H 454.674 -0.649528 -0.368948 0
M  V30 4868 H 457.336 -1.9281 -0.284655 0
M  V30 4869 H 456.432 -2.6663 -1.62219 0
M  V30 4870 N 456.733 0.527833 -1.48498 0
M  V30 4871 C 457.663 1.64136 -1.66077 0
M  V30 4872 C 458.644 1.62286 -0.509625 0
M  V30 4873 O 459.829 1.79449 -0.742413 0
M  V30 4874 C 456.959 3.02717 -1.70234 0
M  V30 4875 C 455.913 3.19426 -2.8487 0
M  V30 4876 C 455.239 4.5909 -2.74118 0
M  V30 4877 C 456.539 3.01993 -4.26142 0
M  V30 4878 H 458.233 1.4968 -2.593 0
M  V30 4879 H 455.779 0.718654 -1.24785 0
M  V30 4880 H 457.732 3.80491 -1.8112 0
M  V30 4881 H 456.456 3.18201 -0.735911 0
M  V30 4882 H 455.115 2.4407 -2.73542 0
M  V30 4883 H 454.763 4.71413 -1.7544 0
M  V30 4884 H 454.463 4.71214 -3.51042 0
M  V30 4885 H 455.987 5.3896 -2.86974 0
M  V30 4886 H 457.401 3.69558 -4.38292 0
M  V30 4887 H 455.798 3.2561 -5.04082 0
M  V30 4888 H 456.868 1.98396 -4.42456 0
M  V30 4889 N 458.211 1.37122 0.776871 0
M  V30 4890 C 459.141 1.35164 1.90402 0
M  V30 4891 C 460.122 0.221069 1.68657 0
M  V30 4892 O 461.307 0.420642 1.8959 0
M  V30 4893 C 458.437 1.15274 3.27611 0
M  V30 4894 C 457.391 2.25289 3.63908 0
M  V30 4895 C 456.717 1.90527 4.99603 0
M  V30 4896 C 458.017 3.67446 3.71188 0
M  V30 4897 H 459.711 2.29482 1.92297 0
M  V30 4898 H 457.257 1.10465 0.923773 0
M  V30 4899 H 459.21 1.12536 4.06096 0
M  V30 4900 H 457.934 0.174102 3.26136 0
M  V30 4901 H 456.593 2.27174 2.87728 0
M  V30 4902 H 456.241 0.91206 4.94662 0
M  V30 4903 H 455.941 2.64193 5.24858 0
M  V30 4904 H 457.465 1.89367 5.80493 0
M  V30 4905 H 458.879 3.67719 4.39836 0
M  V30 4906 H 457.276 4.40123 4.07936 0
M  V30 4907 H 458.346 4.01443 2.71977 0
M  V30 4908 N 459.689 -1.00246 1.21608 0
M  V30 4909 C 460.622 -2.08794 0.920892 0
M  V30 4910 C 461.6 -1.62059 -0.132552 0
M  V30 4911 O 462.784 -1.885 -0.0030366 0
M  V30 4912 C 459.911 -3.36525 0.383226 0
M  V30 4913 C 458.957 -4.02172 1.41987 0
M  V30 4914 S 459.79 -4.44256 2.98994 0
M  V30 4915 C 460.946 -5.7517 2.4684 0
M  V30 4916 H 461.179 -2.33511 1.8401 0
M  V30 4917 H 458.712 -1.13562 1.04609 0
M  V30 4918 H 460.67 -4.10423 0.0795871 0
M  V30 4919 H 459.331 -3.09854 -0.514711 0
M  V30 4920 H 458.524 -4.94114 0.993335 0
M  V30 4921 H 458.126 -3.34559 1.67171 0
M  V30 4922 H 460.418 -6.51042 1.87484 0
M  V30 4923 H 461.361 -6.22638 3.37235 0
M  V30 4924 H 461.769 -5.32112 1.88461 0
M  V30 4925 N 461.167 -1.02423 -1.1978 0
M  V30 4926 C 462.395 -0.737456 -1.93311 0
M  V30 4927 C 462.81 0.703023 -1.75223 0
M  V30 4928 O 462.167 1.47761 -1.07112 0
M  V30 4929 C 462.218 -1.0733 -3.45199 0
M  V30 4930 O 461.939 -2.4572 -3.62702 0
M  V30 4931 C 463.44 -0.80866 -4.35862 0
M  V30 4932 H 460.66 -0.2702 -0.614193 0
M  V30 4933 H 463.204 -1.36747 -1.52054 0
M  V30 4934 H 461.359 -0.488545 -3.84307 0
M  V30 4935 H 461.773 -2.58081 -4.56612 0
M  V30 4936 H 463.247 -1.09365 -5.41057 0
M  V30 4937 H 463.724 0.257025 -4.38447 0
M  V30 4938 H 464.33 -1.37592 -4.02428 0
M  V30 4939 N 462.645 1.35699 -0.801477 0
M  V30 4940 C 463.575 2.32436 -0.222658 0
M  V30 4941 C 464.556 1.5723 0.649057 0
M  V30 4942 O 465.741 1.85324 0.580387 0
M  V30 4943 C 462.871 3.41469 0.633719 0
M  V30 4944 C 461.825 4.27774 -0.139083 0
M  V30 4945 C 461.151 5.28082 0.838666 0
M  V30 4946 C 462.451 5.04946 -1.33517 0
M  V30 4947 H 464.145 2.81094 -1.03086 0
M  V30 4948 H 461.691 1.35146 -0.497155 0
M  V30 4949 H 463.644 4.08143 1.04868 0
M  V30 4950 H 462.368 2.91408 1.47475 0
M  V30 4951 H 461.027 3.62673 -0.535156 0
M  V30 4952 H 460.675 4.7429 1.67506 0
M  V30 4953 H 460.375 5.86695 0.32594 0
M  V30 4954 H 461.899 5.97628 1.25194 0
M  V30 4955 H 463.313 5.64593 -0.995349 0
M  V30 4956 H 461.71 5.7303 -1.78202 0
M  V30 4957 H 462.78 4.35886 -2.12442 0
M  V30 4958 N 464.123 0.554532 1.47522 0
M  V30 4959 C 465.07 -0.19466 2.29978 0
M  V30 4960 C 466.04 -0.910882 1.38896 0
M  V30 4961 O 467.225 -0.907102 1.67858 0
M  V30 4962 C 464.365 -1.22035 3.22802 0
M  V30 4963 C 463.478 -0.510474 4.28973 0
M  V30 4964 C 462.613 -1.52123 5.08952 0
M  V30 4965 C 461.652 -0.796173 6.069 0
M  V30 4966 N 460.789 -1.75363 6.79847 0
M  V30 4967 H 465.629 0.51461 2.93523 0
M  V30 4968 H 463.166 0.265607 1.44682 0
M  V30 4969 H 465.124 -1.8276 3.7504 0
M  V30 4970 H 463.754 -1.89769 2.61127 0
M  V30 4971 H 462.806 0.211234 3.79813 0
M  V30 4972 H 464.118 0.0576503 4.98767 0
M  V30 4973 H 463.272 -2.20207 5.65326 0
M  V30 4974 H 462.011 -2.12327 4.39054 0
M  V30 4975 H 461.016 -0.101388 5.49707 0
M  V30 4976 H 462.241 -0.199911 6.78806 0
M  V30 4977 H 460.187 -2.3443 6.12682 0
M  V30 4978 H 460.104 -1.23759 7.45801 0
M  V30 4979 H 461.372 -2.4257 7.40797 0
M  V30 4980 N 465.601 -1.54893 0.290851 0
M  V30 4981 C 466.849 -1.99538 -0.320756 0
M  V30 4982 C 467.17 -1.18075 -1.55188 0
M  V30 4983 O 466.44 -0.274162 -1.93972 0
M  V30 4984 H 465.02 -0.737052 -0.121507 0
M  V30 4985 H 467.682 -1.90755 0.399832 0
M  V30 4986 H 466.778 -3.06282 -0.599802 0
M  V30 4987 N 467.08 -0.0183926 -1.57589 0
M  V30 4988 C 468.01 0.965596 -2.12599 0
M  V30 4989 C 468.991 1.34641 -1.0395 0
M  V30 4990 O 470.176 1.42693 -1.31729 0
M  V30 4991 C 467.306 2.25149 -2.64434 0
M  V30 4992 C 466.26 2.01175 -3.77773 0
M  V30 4993 C 465.586 3.35937 -4.15994 0
M  V30 4994 C 466.886 1.35953 -5.04296 0
M  V30 4995 H 468.58 0.507504 -2.95067 0
M  V30 4996 H 466.126 0.242671 -1.41941 0
M  V30 4997 H 468.079 2.94357 -3.01549 0
M  V30 4998 H 466.803 2.73105 -1.79112 0
M  V30 4999 H 465.462 1.34388 -3.4108 0
M  V30 5000 H 465.11 3.81631 -3.27669 0
M  V30 5001 H 464.81 3.20705 -4.92364 0
M  V30 5002 H 466.334 4.0643 -4.55683 0
M  V30 5003 H 467.748 1.95144 -5.39065 0
M  V30 5004 H 466.145 1.31152 -5.85593 0
M  V30 5005 H 467.215 0.331071 -4.83768 0
M  V30 5006 N 468.558 1.5553 0.254621 0
M  V30 5007 C 469.969 1.67518 0.824286 0
M  V30 5008 C 470.32 0.614429 1.86331 0
M  V30 5009 O 469.445 -0.240736 2.15057 0
M  V30 5010 C 470.04 3.03692 1.50189 0
M  V30 5011 C 468.599 3.17646 2.01935 0
M  V30 5012 C 467.746 2.63373 0.867746 0
M  V30 5013 H 470.697 1.58671 0.0305843 0
M  V30 5014 H 470.718 2.97706 2.36962 0
M  V30 5015 H 470.23 3.80874 0.745431 0
M  V30 5016 H 468.331 2.45273 2.80485 0
M  V30 5017 H 468.444 4.24455 2.22204 0
M  V30 5018 H 466.808 2.20999 1.26616 0
M  V30 5019 H 467.591 3.43074 0.124498 0
M  V30 5020 N 470.036 -0.519951 1.48776 0
M  V30 5021 C 471.261 -1.30447 1.6124 0
M  V30 5022 C 471.686 -1.86055 0.276591 0
M  V30 5023 O 471.044 -1.64915 -0.753183 0
M  V30 5024 C 471.092 -2.42406 2.66967 0
M  V30 5025 O 470.196 -3.45728 2.24824 0
M  V30 5026 H 469.537 -0.385924 0.540332 0
M  V30 5027 H 472.067 -0.624572 1.94834 0
M  V30 5028 H 472.077 -2.88447 2.88552 0
M  V30 5029 H 470.752 -2.01294 3.63941 0
M  V30 5030 H 469.329 -3.05737 2.13494 0
M  V30 5031 N 471.514 -1.37532 -0.769588 0
M  V30 5032 C 472.742 -1.36059 -1.55871 0
M  V30 5033 C 473.157 0.053544 -1.88724 0
M  V30 5034 O 472.514 1.01591 -1.5161 0
M  V30 5035 C 472.565 -2.20107 -2.86767 0
M  V30 5036 O 472.286 -3.56009 -2.55321 0
M  V30 5037 C 473.787 -2.26636 -3.80987 0
M  V30 5038 H 471.007 -0.465967 -0.482821 0
M  V30 5039 H 473.551 -1.80901 -0.953686 0
M  V30 5040 H 471.706 -1.78768 -3.43687 0
M  V30 5041 H 472.12 -4.0009 -3.39158 0
M  V30 5042 H 473.594 -2.89763 -4.69831 0
M  V30 5043 H 474.071 -1.2754 -4.20274 0
M  V30 5044 H 474.677 -2.68296 -3.29996 0
M  V30 5045 N 472.992 0.995999 -1.22138 0
M  V30 5046 C 474.222 1.76809 -1.06874 0
M  V30 5047 C 474.63 1.85265 0.383866 0
M  V30 5048 O 473.973 1.31969 1.27789 0
M  V30 5049 C 474.035 3.2186 -1.60144 0
M  V30 5050 C 473.699 3.36958 -3.0872 0
M  V30 5051 C 474.696 3.2452 -4.0618 0
M  V30 5052 C 472.381 3.62109 -3.48112 0
M  V30 5053 C 474.375 3.37013 -5.41019 0
M  V30 5054 C 472.062 3.74243 -4.831 0
M  V30 5055 C 473.06 3.61702 -5.79362 0
M  V30 5056 O 472.748 3.73436 -7.119 0
M  V30 5057 H 472.48 0.562207 -0.375365 0
M  V30 5058 H 475.034 1.26113 -1.62125 0
M  V30 5059 H 473.264 3.73734 -0.992981 0
M  V30 5060 H 474.953 3.80775 -1.40589 0
M  V30 5061 H 475.719 3.05004 -3.77091 0
M  V30 5062 H 471.598 3.70949 -2.73712 0
M  V30 5063 H 475.142 3.27141 -6.16137 0
M  V30 5064 H 471.039 3.93266 -5.11872 0
M  V30 5065 H 471.807 3.90328 -7.19435 0
M  V30 5066 N 474.47 1.03057 1.19235 0
M  V30 5067 C 475.418 0.606391 2.24557 0
M  V30 5068 C 476.412 -0.361826 1.65491 0
M  V30 5069 O 477.618 -0.23022 1.78522 0
M  V30 5070 H 473.993 0.177838 0.730669 0
M  V30 5071 H 475.964 1.50529 2.5765 0
M  V30 5072 C 474.713 -0.0252127 3.47691 0
M  V30 5073 H 474.036 0.710838 3.9343 0
M  V30 5074 H 475.476 -0.284931 4.23042 0
M  V30 5075 C 473.935 -1.27229 3.11953 0
M  V30 5076 O 474.465 -2.36416 3.24762 0
M  V30 5077 N 472.671 -1.16169 2.6637 0
M  V30 5078 H 472.218 -0.273189 2.56147 0
M  V30 5079 H 472.176 -1.99703 2.42829 0
M  V30 5080 N 475.948 -1.35272 0.808662 0
M  V30 5081 C 476.895 -2.29764 0.218482 0
M  V30 5082 C 477.865 -1.52911 -0.648652 0
M  V30 5083 O 479.05 -1.81341 -0.593297 0
M  V30 5084 C 476.19 -3.39388 -0.625282 0
M  V30 5085 C 475.303 -4.31202 0.262516 0
M  V30 5086 C 474.438 -5.27919 -0.589451 0
M  V30 5087 C 473.477 -6.11371 0.298617 0
M  V30 5088 N 472.614 -7.0022 -0.513443 0
M  V30 5089 H 477.454 -2.79645 1.02968 0
M  V30 5090 H 474.991 -1.37629 0.519303 0
M  V30 5091 H 476.949 -4.01615 -1.12966 0
M  V30 5092 H 475.579 -2.90777 -1.40173 0
M  V30 5093 H 474.631 -3.69962 0.885013 0
M  V30 5094 H 475.943 -4.89748 0.945971 0
M  V30 5095 H 475.097 -5.95529 -1.15888 0
M  V30 5096 H 473.836 -4.69875 -1.30647 0
M  V30 5097 H 472.841 -5.42707 0.880301 0
M  V30 5098 H 474.066 -6.71494 1.01352 0
M  V30 5099 H 472.012 -6.44662 -1.21439 0
M  V30 5100 H 471.929 -7.55917 0.111922 0
M  V30 5101 H 473.197 -7.72175 -1.06608 0
M  V30 5102 N 477.426 -0.562348 -1.47226 0
M  V30 5103 C 478.703 0.0256985 -1.95583 0
M  V30 5104 C 479.083 1.48032 -1.50498 0
M  V30 5105 O 478.431 2.15973 -0.746181 0
M  V30 5106 C 478.641 -0.125129 -3.48776 0
M  V30 5107 C 479.989 0.0175728 -4.24596 0
M  V30 5108 O 481.013 -0.0529341 -3.56161 0
M  V30 5109 O 479.872 0.170145 -5.46235 0
M  V30 5110 H 476.966 0.0612565 -0.824728 0
M  V30 5111 H 479.512 -0.629233 -1.57603 0
M  V30 5112 H 478.284 -1.13715 -3.74412 0
M  V30 5113 H 477.907 0.567178 -3.93534 0
M  V30 5114 N 478.904 1.54736 -0.299062 0
M  V30 5115 C 479.834 2.26409 0.571085 0
M  V30 5116 C 480.815 1.2629 1.13951 0
M  V30 5117 O 482 1.55059 1.16921 0
M  V30 5118 C 479.13 3.00338 1.74396 0
M  V30 5119 C 478.084 4.07588 1.30599 0
M  V30 5120 C 477.41 4.69222 2.56387 0
M  V30 5121 C 478.71 5.20455 0.438645 0
M  V30 5122 H 480.404 2.99388 -0.0266991 0
M  V30 5123 H 477.95 1.43993 -0.0142812 0
M  V30 5124 H 479.903 3.49198 2.35878 0
M  V30 5125 H 478.627 2.24934 2.36796 0
M  V30 5126 H 477.286 3.59575 0.71424 0
M  V30 5127 H 476.934 3.9046 3.17097 0
M  V30 5128 H 476.634 5.41653 2.27784 0
M  V30 5129 H 478.158 5.20844 3.18675 0
M  V30 5130 H 479.572 5.65221 0.959085 0
M  V30 5131 H 477.969 5.99594 0.246466 0
M  V30 5132 H 479.039 4.8192 -0.536738 0
M  V30 5133 N 480.382 0.0267497 1.57577 0
M  V30 5134 C 481.314 -0.984594 2.06974 0
M  V30 5135 C 482.327 -1.29032 0.992705 0
M  V30 5136 O 483.516 -1.25539 1.26895 0
M  V30 5137 C 480.616 -2.31262 2.47732 0
M  V30 5138 C 479.789 -2.1924 3.78487 0
M  V30 5139 C 478.848 -3.34956 4.05821 0
M  V30 5140 O 477.874 -3.11948 4.76106 0
M  V30 5141 N 479.076 -4.58672 3.55809 0
M  V30 5142 H 481.841 -0.563143 2.94362 0
M  V30 5143 H 479.402 -0.160061 1.61107 0
M  V30 5144 H 481.394 -3.07496 2.63112 0
M  V30 5145 H 479.964 -2.65056 1.65723 0
M  V30 5146 H 479.184 -1.27747 3.72927 0
M  V30 5147 H 480.472 -2.08409 4.64158 0
M  V30 5148 H 479.87 -4.8026 2.98942 0
M  V30 5149 H 478.427 -5.32083 3.76472 0
M  V30 5150 N 481.861 -1.55662 -0.24637 0
M  V30 5151 C 482.771 -1.93495 -1.32653 0
M  V30 5152 C 483.787 -0.835462 -1.5263 0
M  V30 5153 O 484.963 -1.1369 -1.66242 0
M  V30 5154 C 482.028 -2.22242 -2.66101 0
M  V30 5155 C 481.089 -3.45625 -2.54641 0
M  V30 5156 C 480.322 -3.72991 -3.81724 0
M  V30 5157 O 480.545 -3.02421 -4.8363 0
M  V30 5158 O 479.479 -4.66515 -3.80325 0
M  V30 5159 H 483.305 -2.85498 -1.03559 0
M  V30 5160 H 480.89 -1.42551 -0.44717 0
M  V30 5161 H 482.772 -2.42037 -3.44958 0
M  V30 5162 H 481.447 -1.33417 -2.94926 0
M  V30 5163 H 480.354 -3.31136 -1.74067 0
M  V30 5164 H 481.687 -4.34754 -2.3076 0
M  V30 5165 N 483.339 0.512053 -1.4905 0
M  V30 5166 C 484.616 1.27337 -1.48474 0
M  V30 5167 C 484.996 2.1009 -0.206301 0
M  V30 5168 O 484.344 2.136 0.811609 0
M  V30 5169 C 484.554 2.13954 -2.75726 0
M  V30 5170 C 485.902 2.73507 -3.24776 0
M  V30 5171 O 486.926 2.24229 -2.76767 0
M  V30 5172 O 485.785 3.63186 -4.08361 0
M  V30 5173 H 482.879 0.575652 -0.593762 0
M  V30 5174 H 485.425 0.527232 -1.61302 0
M  V30 5175 H 484.197 1.52709 -3.60272 0
M  V30 5176 H 483.82 2.95782 -2.65705 0
M  V30 5177 N 484.817 1.37938 0.762283 0
M  V30 5178 C 485.764 1.34467 1.87583 0
M  V30 5179 C 486.734 0.208633 1.64785 0
M  V30 5180 O 487.919 0.399494 1.86571 0
M  V30 5181 C 485.059 1.16692 3.24772 0
M  V30 5182 C 484.172 2.39608 3.59461 0
M  V30 5183 C 483.307 2.14631 4.85908 0
M  V30 5184 C 482.346 3.33364 5.13357 0
M  V30 5185 N 481.483 3.07877 6.30996 0
M  V30 5186 H 486.323 2.29669 1.89885 0
M  V30 5187 H 483.86 1.14116 0.928219 0
M  V30 5188 H 485.818 1.04405 4.03925 0
M  V30 5189 H 484.448 0.251333 3.2182 0
M  V30 5190 H 483.5 2.626 2.75219 0
M  V30 5191 H 484.812 3.28128 3.75678 0
M  V30 5192 H 483.966 1.99429 5.72986 0
M  V30 5193 H 482.705 1.23463 4.71814 0
M  V30 5194 H 481.71 3.49094 4.24751 0
M  V30 5195 H 482.935 4.25395 5.29354 0
M  V30 5196 H 480.881 2.19348 6.18241 0
M  V30 5197 H 480.798 3.89944 6.47673 0
M  V30 5198 H 482.066 2.96313 7.20985 0
M  V30 5199 N 486.295 -0.989507 1.22664 0
M  V30 5200 C 487.205 -2.11449 1.01619 0
M  V30 5201 C 488.221 -1.73962 -0.036545 0
M  V30 5202 O 489.397 -2.00788 0.156924 0
M  V30 5203 C 486.462 -3.41465 0.600204 0
M  V30 5204 C 485.523 -3.93033 1.72695 0
M  V30 5205 C 484.756 -5.16844 1.33071 0
M  V30 5206 O 484.979 -5.7001 0.210975 0
M  V30 5207 O 483.913 -5.6225 2.14845 0
M  V30 5208 H 487.739 -2.32088 1.9588 0
M  V30 5209 H 485.324 -1.09823 1.01289 0
M  V30 5210 H 487.206 -4.19695 0.37873 0
M  V30 5211 H 485.881 -3.22178 -0.313511 0
M  V30 5212 H 484.788 -3.15961 2.00298 0
M  V30 5213 H 486.121 -4.16758 2.61865 0
M  V30 5214 N 487.773 -1.03688 -1.18687 0
M  V30 5215 C 488.736 -0.629115 -2.20397 0
M  V30 5216 C 489.736 0.311495 -1.57754 0
M  V30 5217 O 490.926 0.0974107 -1.73927 0
M  V30 5218 C 488.058 0.0782231 -3.4081 0
M  V30 5219 H 489.251 -1.52915 -2.57987 0
M  V30 5220 H 486.804 -0.828988 -1.32505 0
M  V30 5221 H 487.539 0.992233 -3.08748 0
M  V30 5222 H 487.324 -0.597776 -3.87517 0
M  V30 5223 H 488.814 0.350156 -4.16129 0
M  V30 5224 N 489.251 1.34841 -0.815825 0
M  V30 5225 C 490.497 1.98793 -0.401129 0
M  V30 5226 C 490.83 1.64548 1.03139 0
M  V30 5227 O 490.105 0.913487 1.71714 0
M  V30 5228 C 490.388 3.55143 -0.595409 0
M  V30 5229 C 490.241 3.99155 -2.07352 0
M  V30 5230 C 491.56 4.40092 -0.0268823 0
M  V30 5231 H 488.679 0.722146 -0.14722 0
M  V30 5232 H 491.321 1.59847 -1.02707 0
M  V30 5233 H 489.471 3.8845 -0.0625779 0
M  V30 5234 H 491.143 3.76216 -2.66945 0
M  V30 5235 H 489.386 3.49726 -2.56659 0
M  V30 5236 H 490.057 5.07971 -2.1603 0
M  V30 5237 H 492.533 4.13298 -0.482042 0
M  V30 5238 H 491.409 5.48562 -0.19267 0
M  V30 5239 H 491.67 4.29016 1.06759 0
M  V30 5240 N 490.729 0.570148 1.46925 0
M  V30 5241 C 491.976 0.0509529 2.02436 0
M  V30 5242 C 492.304 -1.30405 1.44308 0
M  V30 5243 O 491.559 -1.86493 0.593198 0
M  V30 5244 C 491.858 -0.0780336 3.57315 0
M  V30 5245 C 491.524 1.20775 4.34424 0
M  V30 5246 C 490.186 1.56004 4.5521 0
M  V30 5247 C 492.538 2.0592 4.78797 0
M  V30 5248 C 489.866 2.76201 5.17619 0
M  V30 5249 C 492.218 3.25332 5.42533 0
M  V30 5250 C 490.882 3.60859 5.61549 0
M  V30 5251 H 490.152 0.018645 0.740765 0
M  V30 5252 H 492.799 0.744262 1.76445 0
M  V30 5253 H 491.104 -0.854394 3.82371 0
M  V30 5254 H 492.801 -0.495312 3.97929 0
M  V30 5255 H 489.391 0.923469 4.18533 0
M  V30 5256 H 493.575 1.80008 4.62505 0
M  V30 5257 H 488.831 3.0388 5.30535 0
M  V30 5258 H 493.005 3.91586 5.75876 0
M  V30 5259 H 490.632 4.54088 6.09678 0
M  V30 5260 N 492.207 -1.54576 0.307264 0
M  V30 5261 C 493.117 -2.27435 -0.57536 0
M  V30 5262 C 494.133 -1.31183 -1.14311 0
M  V30 5263 O 495.309 -1.64175 -1.16656 0
M  V30 5264 C 492.374 -3.00566 -1.72803 0
M  V30 5265 C 491.435 -4.12369 -1.19373 0
M  V30 5266 C 490.668 -4.82003 -2.29147 0
M  V30 5267 O 490.891 -4.51038 -3.49171 0
M  V30 5268 O 489.825 -5.69271 -1.95485 0
M  V30 5269 H 493.651 -3.03696 0.0158558 0
M  V30 5270 H 491.236 -1.49219 0.0735064 0
M  V30 5271 H 493.118 -3.46416 -2.39946 0
M  V30 5272 H 491.793 -2.27195 -2.30574 0
M  V30 5273 H 490.7 -3.70905 -0.487851 0
M  V30 5274 H 492.033 -4.87736 -0.661376 0
M  V30 5275 N 493.685 -0.035106 -1.57561 0
M  V30 5276 C 494.931 0.64318 -1.92331 0
M  V30 5277 C 495.264 1.71434 -0.912368 0
M  V30 5278 O 494.539 1.94395 0.0640303 0
M  V30 5279 C 494.822 1.25411 -3.37556 0
M  V30 5280 C 494.675 0.192109 -4.4939 0
M  V30 5281 C 495.994 2.17041 -3.82859 0
M  V30 5282 H 493.113 0.232341 -0.699419 0
M  V30 5283 H 495.755 -0.0935889 -1.89769 0
M  V30 5284 H 493.905 1.88205 -3.39869 0
M  V30 5285 H 495.577 -0.438849 -4.59208 0
M  V30 5286 H 493.82 -0.481725 -4.31117 0
M  V30 5287 H 494.491 0.659292 -5.48049 0
M  V30 5288 H 496.967 1.64228 -3.8232 0
M  V30 5289 H 495.843 2.56738 -4.85157 0
M  V30 5290 H 496.104 3.06401 -3.18702 0
M  V30 5291 N 495.163 1.55791 0.238111 0
M  V30 5292 C 496.388 1.8244 0.986432 0
M  V30 5293 C 496.813 0.613314 1.7782 0
M  V30 5294 O 496.171 -0.437767 1.75935 0
M  V30 5295 C 496.219 3.06917 1.893 0
M  V30 5296 O 495.323 2.84449 2.98601 0
M  V30 5297 H 494.664 0.601975 0.280218 0
M  V30 5298 H 497.194 2.02987 0.256437 0
M  V30 5299 H 497.204 3.36583 2.30598 0
M  V30 5300 H 495.879 3.947 1.31091 0
M  V30 5301 H 494.456 2.65972 2.61368 0
M  V30 5302 N 496.642 -0.504142 1.49319 0
M  V30 5303 C 497.919 -1.26548 1.49147 0
M  V30 5304 C 498.299 -2.09977 0.21744 0
M  V30 5305 O 497.647 -2.14028 -0.800269 0
M  V30 5306 C 497.857 -2.12489 2.76857 0
M  V30 5307 C 499.205 -2.7178 3.26222 0
M  V30 5308 O 500.229 -2.22758 2.77952 0
M  V30 5309 O 499.088 -3.61015 4.10281 0
M  V30 5310 H 496.182 -0.572495 0.596806 0
M  V30 5311 H 498.728 -0.51867 1.61579 0
M  V30 5312 H 497.5 -1.50796 3.61077 0
M  V30 5313 H 497.123 -2.94368 2.6727 0
M  V30 5314 N 498.12 -1.38341 -0.754957 0
M  V30 5315 C 499.348 -1.37704 -1.54419 0
M  V30 5316 C 499.763 0.0335243 -1.8877 0
M  V30 5317 O 499.12 0.999773 -1.52679 0
M  V30 5318 C 499.171 -2.23136 -2.84416 0
M  V30 5319 O 498.892 -3.58697 -2.51531 0
M  V30 5320 C 500.393 -2.30664 -3.78562 0
M  V30 5321 H 497.613 -0.471061 -0.477852 0
M  V30 5322 H 500.157 -1.81902 -0.934446 0
M  V30 5323 H 498.312 -1.82403 -3.41772 0
M  V30 5324 H 498.726 -4.03665 -3.34896 0
M  V30 5325 H 500.2 -2.9473 -4.66732 0
M  V30 5326 H 500.677 -1.3199 -4.18898 0
M  V30 5327 H 501.283 -2.71781 -3.27131 0
M  V30 5328 N 499.598 0.982988 -1.23187 0
M  V30 5329 C 500.531 2.07302 -0.953993 0
M  V30 5330 C 501.509 1.62249 0.106753 0
M  V30 5331 O 502.693 1.88481 -0.0269525 0
M  V30 5332 C 499.82 3.35873 -0.436716 0
M  V30 5333 C 498.866 3.99862 -1.48367 0
M  V30 5334 S 499.699 4.39443 -3.06023 0
M  V30 5335 C 500.855 5.7117 -2.55959 0
M  V30 5336 H 501.088 2.30554 -1.87702 0
M  V30 5337 H 498.621 1.11883 -1.06403 0
M  V30 5338 H 500.579 4.10244 -0.144872 0
M  V30 5339 H 499.24 3.10634 0.465351 0
M  V30 5340 H 498.433 4.92471 -1.07182 0
M  V30 5341 H 498.035 3.31857 -1.72473 0
M  V30 5342 H 500.327 6.47977 -1.97818 0
M  V30 5343 H 501.27 6.17194 -3.47098 0
M  V30 5344 H 501.678 5.29046 -1.96902 0
M  V30 5345 N 501.076 1.04316 1.18135 0
M  V30 5346 C 502.301 0.768047 1.92655 0
M  V30 5347 C 502.726 -0.66904 1.758 0
M  V30 5348 O 502.084 -1.46372 1.06981 0
M  V30 5349 C 502.132 1.14239 3.42026 0
M  V30 5350 O 501.236 0.269333 4.1152 0
M  V30 5351 H 500.577 0.282436 0.600937 0
M  V30 5352 H 503.107 1.39367 1.49793 0
M  V30 5353 H 503.117 1.10538 3.92741 0
M  V30 5354 H 501.792 2.18928 3.53615 0
M  V30 5355 H 500.369 0.366175 3.71098 0
M  V30 5356 N 502.554 -1.34406 0.822964 0
M  V30 5357 C 503.517 -2.2783 0.250271 0
M  V30 5358 C 504.517 -1.50288 -0.571854 0
M  V30 5359 O 505.707 -1.69825 -0.387952 0
M  V30 5360 C 502.839 -3.34663 -0.649137 0
M  V30 5361 H 504.032 -2.79992 1.07444 0
M  V30 5362 H 501.585 -1.44539 0.594829 0
M  V30 5363 H 502.32 -2.87714 -1.49637 0
M  V30 5364 H 502.105 -3.92052 -0.0611199 0
M  V30 5365 H 503.595 -4.04349 -1.04363 0
M  V30 5366 N 504.032 -0.577932 -1.46621 0
M  V30 5367 C 505.278 -0.0617793 -2.02706 0
M  V30 5368 C 505.611 1.29294 -1.44903 0
M  V30 5369 O 504.886 1.8461 -0.61232 0
M  V30 5370 C 505.169 0.00911824 -3.60099 0
M  V30 5371 C 505.022 -1.37416 -4.28295 0
M  V30 5372 C 506.341 0.712159 -4.343 0
M  V30 5373 H 503.46 -0.0239246 -0.736612 0
M  V30 5374 H 506.102 -0.744211 -1.74818 0
M  V30 5375 H 504.252 0.590292 -3.83989 0
M  V30 5376 H 505.924 -2.00013 -4.15683 0
M  V30 5377 H 504.167 -1.94319 -3.87843 0
M  V30 5378 H 504.838 -1.27707 -5.37024 0
M  V30 5379 H 507.314 0.218486 -4.15526 0
M  V30 5380 H 506.19 0.730782 -5.44014 0
M  V30 5381 H 506.451 1.77251 -4.05012 0
M  V30 5382 N 505.51 1.54411 -0.315457 0
M  V30 5383 C 506.44 2.27002 0.547039 0
M  V30 5384 C 507.421 1.27492 1.12605 0
M  V30 5385 O 508.606 1.5629 1.15269 0
M  V30 5386 C 505.736 3.02171 1.71201 0
M  V30 5387 C 504.69 4.0895 1.26268 0
M  V30 5388 C 504.016 4.71915 2.51396 0
M  V30 5389 C 505.316 5.20891 0.383419 0
M  V30 5390 H 507.01 2.99343 -0.0584517 0
M  V30 5391 H 504.556 1.4397 -0.0295527 0
M  V30 5392 H 506.509 3.51681 2.32161 0
M  V30 5393 H 505.233 2.27433 2.34397 0
M  V30 5394 H 503.892 3.60312 0.676062 0
M  V30 5395 H 503.54 3.93801 3.12937 0
M  V30 5396 H 503.24 5.44039 2.22026 0
M  V30 5397 H 504.764 5.24195 3.13133 0
M  V30 5398 H 506.178 5.66206 0.899082 0
M  V30 5399 H 504.575 5.99821 0.182857 0
M  V30 5400 H 505.645 4.81324 -0.587821 0
M  V30 5401 N 506.988 0.0434614 1.5754 0
M  V30 5402 C 507.92 -0.962586 2.08007 0
M  V30 5403 C 508.933 -1.27972 1.00634 0
M  V30 5404 O 510.122 -1.24186 1.28219 0
M  V30 5405 C 507.222 -2.28621 2.50171 0
M  V30 5406 C 506.395 -2.15214 3.80791 0
M  V30 5407 C 505.454 -3.30633 4.09351 0
M  V30 5408 O 504.48 -3.0688 4.79388 0
M  V30 5409 N 505.682 -4.54873 3.60654 0
M  V30 5410 H 508.447 -0.531891 2.94942 0
M  V30 5411 H 506.008 -0.142965 1.61268 0
M  V30 5412 H 508 -3.04689 2.66359 0
M  V30 5413 H 506.57 -2.63283 1.68525 0
M  V30 5414 H 505.79 -1.23785 3.74261 0
M  V30 5415 H 507.078 -2.03475 4.66343 0
M  V30 5416 H 506.476 -4.77063 3.04019 0
M  V30 5417 H 505.033 -5.2806 3.82094 0
M  V30 5418 N 508.466 -1.55915 -0.229846 0
M  V30 5419 C 509.712 -1.78807 -0.956868 0
M  V30 5420 C 510.045 -0.611687 -1.84315 0
M  V30 5421 O 509.32 0.389398 -1.90562 0
M  V30 5422 C 509.603 -3.11718 -1.80288 0
M  V30 5423 C 509.456 -4.3979 -0.943649 0
M  V30 5424 C 510.775 -3.40999 -2.78222 0
M  V30 5425 H 507.894 -0.6505 -0.346437 0
M  V30 5426 H 510.536 -1.88648 -0.226252 0
M  V30 5427 H 508.686 -3.03459 -2.42579 0
M  V30 5428 H 510.358 -4.60059 -0.338121 0
M  V30 5429 H 508.601 -4.33086 -0.248705 0
M  V30 5430 H 509.272 -5.29208 -1.5698 0
M  V30 5431 H 511.748 -3.49332 -2.26067 0
M  V30 5432 H 510.624 -4.35183 -3.34526 0
M  V30 5433 H 510.885 -2.62754 -3.55546 0
M  V30 5434 N 509.944 0.496216 -1.49584 0
M  V30 5435 C 510.907 1.57952 -1.66084 0
M  V30 5436 C 511.907 1.51729 -0.53244 0
M  V30 5437 O 513.097 1.54796 -0.79899 0
M  V30 5438 C 510.229 2.97604 -1.66268 0
M  V30 5439 H 511.422 1.44649 -2.6271 0
M  V30 5440 H 508.975 0.7208 -1.38687 0
M  V30 5441 H 509.71 3.16378 -0.712432 0
M  V30 5442 H 509.495 3.03528 -2.4822 0
M  V30 5443 H 510.985 3.76301 -1.81073 0
M  V30 5444 N 511.423 1.38739 0.74761 0
M  V30 5445 C 512.651 1.38521 1.53686 0
M  V30 5446 C 513.066 -0.0235129 1.88785 0
M  V30 5447 O 512.423 -0.991662 1.53207 0
M  V30 5448 C 512.474 2.24641 2.83229 0
M  V30 5449 O 512.195 3.60026 2.49625 0
M  V30 5450 C 513.696 2.32669 3.77333 0
M  V30 5451 H 510.916 0.473589 0.475347 0
M  V30 5452 H 513.46 1.82395 0.924786 0
M  V30 5453 H 511.615 1.84213 3.40799 0
M  V30 5454 H 512.029 4.05435 3.3275 0
M  V30 5455 H 513.503 2.97201 4.65162 0
M  V30 5456 H 513.98 1.3421 4.18192 0
M  V30 5457 H 514.586 2.73512 3.25685 0
M  V30 5458 N 512.901 -0.976442 1.23707 0
M  V30 5459 C 514.149 -1.71487 1.06942 0
M  V30 5460 C 514.47 -1.9098 -0.393897 0
M  V30 5461 O 513.74 -1.48128 -1.28198 0
M  V30 5462 H 512.32 -0.635425 0.392739 0
M  V30 5463 H 514.982 -1.17515 1.55487 0
M  V30 5464 H 514.078 -2.70286 1.56051 0
M  V30 5465 N 514.379 -1.04941 -1.1758 0
M  V30 5466 C 515.625 -0.759112 -1.88057 0
M  V30 5467 C 515.958 0.711918 -1.8068 0
M  V30 5468 O 515.233 1.52035 -1.21308 0
M  V30 5469 C 515.516 -1.237 -3.38187 0
M  V30 5470 C 515.369 -2.77078 -3.54327 0
M  V30 5471 C 516.688 -0.834014 -4.32125 0
M  V30 5472 H 513.807 -0.277237 -0.682868 0
M  V30 5473 H 516.449 -1.30296 -1.38286 0
M  V30 5474 H 514.599 -0.774337 -3.80705 0
M  V30 5475 H 516.271 -3.31449 -3.20842 0
M  V30 5476 H 514.514 -3.16477 -2.96689 0
M  V30 5477 H 515.185 -3.05577 -4.59703 0
M  V30 5478 H 517.661 -1.23228 -3.97434 0
M  V30 5479 H 516.537 -1.19603 -5.35711 0
M  V30 5480 H 516.798 0.262195 -4.41322 0
M  V30 5481 N 515.857 1.33968 -0.830081 0
M  V30 5482 C 517.106 1.97323 -0.417928 0
M  V30 5483 C 517.419 1.6652 1.02618 0
M  V30 5484 O 518.625 2.2342 1.54259 0
M  V30 5485 C 517.081 3.53099 -0.696359 0
M  V30 5486 C 516.689 3.92788 -2.15457 0
M  V30 5487 C 518.433 4.23049 -0.350724 0
M  V30 5488 C 516.34 5.41506 -2.37751 0
M  V30 5489 H 515.27 0.738409 -0.152541 0
M  V30 5490 H 517.921 1.52711 -1.01744 0
M  V30 5491 H 516.303 3.95991 -0.0265904 0
M  V30 5492 H 517.477 3.6098 -2.86408 0
M  V30 5493 H 515.792 3.35795 -2.46232 0
M  V30 5494 H 518.389 5.32403 -0.495036 0
M  V30 5495 H 518.732 4.10279 0.705476 0
M  V30 5496 H 519.265 3.85657 -0.975362 0
M  V30 5497 H 516.004 5.5927 -3.41903 0
M  V30 5498 H 515.524 5.74804 -1.7135 0
M  V30 5499 H 517.203 6.0828 -2.20465 0
M  V30 5500 N 517.335 0.585699 1.46312 0
M  V30 5501 C 518.56 0.0762461 2.0726 0
M  V30 5502 C 518.985 -1.22071 1.43109 0
M  V30 5503 O 518.343 -1.73804 0.515942 0
M  V30 5504 C 518.391 -0.0729404 3.60526 0
M  V30 5505 O 517.495 -1.1287 3.96654 0
M  V30 5506 H 516.836 0.0641558 0.660893 0
M  V30 5507 H 519.366 0.809492 1.87905 0
M  V30 5508 H 519.376 -0.278158 4.07051 0
M  V30 5509 H 518.051 0.874188 4.06609 0
M  V30 5510 H 516.628 -0.901703 3.61834 0
M  V30 5511 N 518.813 -1.54241 0.323641 0
M  V30 5512 C 520.041 -2.04985 -0.280871 0
M  V30 5513 C 520.456 -1.19978 -1.45777 0
M  V30 5514 O 519.813 -0.230471 -1.81039 0
M  V30 5515 C 519.864 -3.54353 -0.715258 0
M  V30 5516 O 519.585 -4.36132 0.414817 0
M  V30 5517 C 521.086 -4.21189 -1.38257 0
M  V30 5518 H 518.306 -0.66851 -0.0577502 0
M  V30 5519 H 520.85 -1.99029 0.469852 0
M  V30 5520 H 519.005 -3.60596 -1.41596 0
M  V30 5521 H 519.419 -5.2445 0.0725227 0
M  V30 5522 H 520.893 -5.27154 -1.63745 0
M  V30 5523 H 521.37 -3.72307 -2.32989 0
M  V30 5524 H 521.976 -4.19085 -0.724447 0
M  V30 5525 N 520.291 -0.0518155 -1.57515 0
M  V30 5526 C 521.221 0.920283 -2.146 0
M  V30 5527 C 522.202 1.32406 -1.06783 0
M  V30 5528 O 523.387 1.39866 -1.34726 0
M  V30 5529 C 520.517 2.1949 -2.6915 0
M  V30 5530 C 519.471 1.93116 -3.81956 0
M  V30 5531 C 518.797 3.27037 -4.23026 0
M  V30 5532 C 520.097 1.25225 -5.07066 0
M  V30 5533 H 521.791 0.444801 -2.96077 0
M  V30 5534 H 519.337 0.212508 -1.42423 0
M  V30 5535 H 521.29 2.87894 -3.07725 0
M  V30 5536 H 520.014 2.69244 -1.84865 0
M  V30 5537 H 518.673 1.27123 -3.43854 0
M  V30 5538 H 518.321 3.74595 -3.3569 0
M  V30 5539 H 518.021 3.10189 -4.99056 0
M  V30 5540 H 519.545 3.96673 -4.64202 0
M  V30 5541 H 520.959 1.83666 -5.43083 0
M  V30 5542 H 519.356 1.18702 -5.88243 0
M  V30 5543 H 520.426 0.228382 -4.84362 0
M  V30 5544 N 521.769 1.56035 0.221574 0
M  V30 5545 C 522.701 1.889 1.29805 0
M  V30 5546 C 523.714 0.777269 1.43047 0
M  V30 5547 O 524.903 1.05557 1.43945 0
M  V30 5548 C 522.003 2.0825 2.67367 0
M  V30 5549 C 521.176 3.39267 2.76073 0
M  V30 5550 C 520.235 3.48049 3.94649 0
M  V30 5551 O 519.261 4.2108 3.82988 0
M  V30 5552 N 520.463 2.79191 5.08953 0
M  V30 5553 H 523.228 2.81831 1.01938 0
M  V30 5554 H 520.789 1.5658 0.411612 0
M  V30 5555 H 522.781 2.11441 3.45072 0
M  V30 5556 H 521.351 1.21944 2.87834 0
M  V30 5557 H 520.571 3.48175 1.84846 0
M  V30 5558 H 521.859 4.25575 2.7886 0
M  V30 5559 H 521.257 2.19635 5.21322 0
M  V30 5560 H 519.814 2.88043 5.84701 0
M  V30 5561 N 523.247 -0.488276 1.49845 0
M  V30 5562 C 524.496 -1.23826 1.59217 0
M  V30 5563 C 524.809 -1.93439 0.289966 0
M  V30 5564 O 526.015 -2.70229 0.262382 0
M  V30 5565 C 524.471 -2.24902 2.80976 0
M  V30 5566 C 524.079 -1.6117 4.18005 0
M  V30 5567 C 525.823 -3.00648 2.99685 0
M  V30 5568 C 523.73 -2.60431 5.3097 0
M  V30 5569 H 522.66 -0.465858 0.592868 0
M  V30 5570 H 525.311 -0.510645 1.76252 0
M  V30 5571 H 523.693 -3.0088 2.57463 0
M  V30 5572 H 524.867 -0.910968 4.51706 0
M  V30 5573 H 523.182 -0.97767 4.0476 0
M  V30 5574 H 525.779 -3.74903 3.81251 0
M  V30 5575 H 526.122 -3.5902 2.10738 0
M  V30 5576 H 526.655 -2.31784 3.23297 0
M  V30 5577 H 523.394 -2.06823 6.22017 0
M  V30 5578 H 522.914 -3.28707 5.01709 0
M  V30 5579 H 524.593 -3.22606 5.60834 0
M  V30 5580 N 524.725 -1.39134 -0.740242 0
M  V30 5581 C 525.675 -1.33928 -1.84519 0
M  V30 5582 C 526.659 -0.221097 -1.59374 0
M  V30 5583 O 527.851 -0.458195 -1.70967 0
M  V30 5584 C 524.98 -1.17991 -3.22387 0
M  V30 5585 C 524.066 -2.34488 -3.53378 0
M  V30 5586 N 524.457 -3.59954 -3.5534 0
M  V30 5587 C 522.755 -2.27331 -3.83714 0
M  V30 5588 C 523.456 -4.36962 -3.83978 0
M  V30 5589 N 522.432 -3.66482 -4.01487 0
M  V30 5590 H 526.234 -2.28907 -1.84333 0
M  V30 5591 H 523.748 -1.32555 -0.938237 0
M  V30 5592 H 525.745 -1.12345 -4.01478 0
M  V30 5593 H 524.405 -0.23957 -3.23815 0
M  V30 5594 H 525.416 -3.93448 -3.36778 0
M  V30 5595 H 522.093 -1.41531 -3.92779 0
M  V30 5596 H 523.483 -5.45692 -3.92008 0
M  V30 5597 N 526.204 0.969867 -1.24223 0
M  V30 5598 C 527.136 2.0669 -0.99055 0
M  V30 5599 C 528.149 1.62753 0.0392222 0
M  V30 5600 O 529.338 1.77403 -0.197561 0
M  V30 5601 C 526.438 3.35589 -0.472594 0
M  V30 5602 C 525.611 4.08444 -1.56499 0
M  V30 5603 C 524.67 5.15616 -1.05007 0
M  V30 5604 O 523.696 5.41911 -1.7413 0
M  V30 5605 N 524.898 5.80383 0.116641 0
M  V30 5606 H 527.663 2.28855 -1.93508 0
M  V30 5607 H 525.224 1.13733 -1.15223 0
M  V30 5608 H 527.216 4.04542 -0.112919 0
M  V30 5609 H 525.786 3.10311 0.377617 0
M  V30 5610 H 525.006 3.33798 -2.09696 0
M  V30 5611 H 526.294 4.53882 -2.29932 0
M  V30 5612 H 525.692 5.6142 0.694589 0
M  V30 5613 H 524.249 6.50462 0.417483 0
M  V30 5614 N 527.682 1.05563 1.17022 0
M  V30 5615 C 528.592 0.670758 2.24807 0
M  V30 5616 C 529.608 -0.309865 1.71219 0
M  V30 5617 O 530.784 -0.161025 2.00755 0
M  V30 5618 C 527.849 0.055337 3.46656 0
M  V30 5619 C 526.91 1.08688 4.15314 0
M  V30 5620 C 526.143 0.500736 5.31346 0
M  V30 5621 O 526.366 -0.688718 5.66227 0
M  V30 5622 O 525.3 1.23683 5.89055 0
M  V30 5623 H 529.126 1.56914 2.60023 0
M  V30 5624 H 526.711 0.827428 1.24395 0
M  V30 5625 H 528.593 -0.286492 4.20425 0
M  V30 5626 H 527.268 -0.816638 3.13229 0
M  V30 5627 H 526.175 1.48077 3.43546 0
M  V30 5628 H 527.508 1.93014 4.52777 0
M  V30 5629 N 529.16 -1.33526 0.837174 0
M  V30 5630 C 530.108 -2.31168 0.257698 0
M  V30 5631 C 531.102 -1.5806 -0.609388 0
M  V30 5632 O 532.308 -1.72941 -0.499139 0
M  V30 5633 H 528.683 -0.74922 0.0646058 0
M  V30 5634 H 530.654 -2.77552 1.09578 0
M  V30 5635 C 529.403 -3.4326 -0.553887 0
M  V30 5636 H 528.726 -3.99665 0.104008 0
M  V30 5637 H 530.166 -4.13782 -0.925219 0
M  V30 5638 C 528.625 -2.88965 -1.73207 0
M  V30 5639 O 529.155 -2.85013 -2.83073 0
M  V30 5640 N 527.361 -2.45596 -1.55342 0
M  V30 5641 H 526.908 -2.49009 -0.659705 0
M  V30 5642 H 526.866 -2.0962 -2.34322 0
M  V30 5643 N 530.638 -0.59345 -1.46 0
M  V30 5644 C 531.571 0.182196 -2.27472 0
M  V30 5645 C 532.549 0.886901 -1.36282 0
M  V30 5646 O 533.733 0.898627 -1.65701 0
M  V30 5647 C 530.86 1.26236 -3.14296 0
M  V30 5648 C 529.906 0.662331 -4.21326 0
M  V30 5649 S 530.739 -0.519017 -5.32979 0
M  V30 5650 C 531.895 0.562086 -6.23371 0
M  V30 5651 H 532.128 -0.509056 -2.92909 0
M  V30 5652 H 529.661 -0.380607 -1.49635 0
M  V30 5653 H 531.619 1.88075 -3.64881 0
M  V30 5654 H 530.28 1.92562 -2.48151 0
M  V30 5655 H 529.473 1.47461 -4.81945 0
M  V30 5656 H 529.075 0.119381 -3.73809 0
M  V30 5657 H 531.367 1.44494 -6.61912 0
M  V30 5658 H 532.31 -0.00760776 -7.081 0
M  V30 5659 H 532.718 0.871061 -5.57739 0
M  V30 5660 N 532.116 1.54067 -0.331816 0
M  V30 5661 C 533.364 2.00319 0.267739 0
M  V30 5662 C 533.685 1.22148 1.52003 0
M  V30 5663 O 532.955 0.325494 1.93177 0
M  V30 5664 H 531.535 0.740014 0.101922 0
M  V30 5665 H 534.197 1.89628 -0.450267 0
M  V30 5666 H 533.293 3.07765 0.518385 0
M  V30 5667 N 533.594 0.0601682 1.57485 0
M  V30 5668 C 534.526 -0.94047 2.09016 0
M  V30 5669 C 535.539 -1.26897 1.01985 0
M  V30 5670 O 536.728 -1.22819 1.29529 0
M  V30 5671 C 533.828 -2.25955 2.52582 0
M  V30 5672 C 533.001 -2.11163 3.83052 0
M  V30 5673 C 532.06 -3.26273 4.12835 0
M  V30 5674 O 531.086 -3.01779 4.82616 0
M  V30 5675 N 532.288 -4.51022 3.65458 0
M  V30 5676 H 535.053 -0.500578 2.9549 0
M  V30 5677 H 532.614 -0.125852 1.6141 0
M  V30 5678 H 534.606 -3.01846 2.69575 0
M  V30 5679 H 533.176 -2.61481 1.71308 0
M  V30 5680 H 532.396 -1.19808 3.75552 0
M  V30 5681 H 533.684 -1.98517 4.68475 0
M  V30 5682 H 533.082 -4.73811 3.09062 0
M  V30 5683 H 531.639 -5.23978 3.87673 0
M  V30 5684 N 535.072 -1.5615 -0.213296 0
M  V30 5685 C 536.035 -1.92249 -1.24792 0
M  V30 5686 C 537.035 -0.801828 -1.39382 0
M  V30 5687 O 538.225 -1.06948 -1.37506 0
M  V30 5688 C 535.357 -2.18056 -2.62039 0
M  V30 5689 H 536.55 -2.84793 -0.939845 0
M  V30 5690 H 534.103 -1.49559 -0.454062 0
M  V30 5691 H 534.838 -1.2809 -2.97932 0
M  V30 5692 H 534.623 -2.99703 -2.52825 0
M  V30 5693 H 536.113 -2.47051 -3.36683 0
M  V30 5694 N 536.55 0.480323 -1.50102 0
M  V30 5695 C 537.48 1.58769 -1.71215 0
M  V30 5696 C 538.461 1.60583 -0.560997 0
M  V30 5697 O 539.646 1.76996 -0.799127 0
M  V30 5698 C 536.776 2.97148 -1.79778 0
M  V30 5699 C 535.73 3.10201 -2.94888 0
M  V30 5700 C 535.056 4.50137 -2.88584 0
M  V30 5701 C 536.356 2.88283 -4.35534 0
M  V30 5702 H 538.05 1.41354 -2.6393 0
M  V30 5703 H 535.596 0.678591 -1.27008 0
M  V30 5704 H 537.549 3.74536 -1.93133 0
M  V30 5705 H 536.273 3.15699 -0.836772 0
M  V30 5706 H 534.932 2.35244 -2.81169 0
M  V30 5707 H 534.58 4.65593 -1.90349 0
M  V30 5708 H 534.28 4.59808 -3.65856 0
M  V30 5709 H 535.804 5.29558 -3.03976 0
M  V30 5710 H 537.218 3.55427 -4.49827 0
M  V30 5711 H 535.615 3.09408 -5.14186 0
M  V30 5712 H 536.685 1.84219 -4.48544 0
M  V30 5713 N 538.028 1.39524 0.732853 0
M  V30 5714 C 539.253 1.40329 1.52717 0
M  V30 5715 C 539.678 0.000286574 1.881 0
M  V30 5716 O 539.036 -0.987262 1.52062 0
M  V30 5717 C 539.084 2.28464 2.78992 0
M  V30 5718 O 538.188 1.716 3.75003 0
M  V30 5719 H 537.529 0.47778 0.461109 0
M  V30 5720 H 540.059 1.83546 0.903996 0
M  V30 5721 H 540.069 2.43051 3.27705 0
M  V30 5722 H 538.744 3.30425 2.52572 0
M  V30 5723 H 537.321 1.66267 3.33781 0
M  V30 5724 N 539.506 -0.963266 1.24736 0
M  V30 5725 C 540.917 -1.52145 1.08207 0
M  V30 5726 C 541.268 -1.93142 -0.345061 0
M  V30 5727 O 540.393 -1.77769 -1.23399 0
M  V30 5728 C 540.988 -2.76486 1.95808 0
M  V30 5729 C 539.547 -3.28646 1.8349 0
M  V30 5730 C 538.694 -2.01529 1.90476 0
M  V30 5731 H 541.645 -0.781083 1.38148 0
M  V30 5732 H 541.666 -3.49986 1.49297 0
M  V30 5733 H 541.178 -2.46617 2.99669 0
M  V30 5734 H 539.279 -3.63357 0.824787 0
M  V30 5735 H 539.392 -3.97246 2.67829 0
M  V30 5736 H 537.756 -2.16442 1.34258 0
M  V30 5737 H 538.539 -1.7402 2.95926 0
M  V30 5738 N 540.985 -1.06182 -1.16461 0
M  V30 5739 C 542.262 -0.691364 -1.82974 0
M  V30 5740 C 542.642 0.827377 -1.9421 0
M  V30 5741 O 541.99 1.73723 -1.48434 0
M  V30 5742 C 542.2 -1.39199 -3.20038 0
M  V30 5743 C 543.548 -1.53647 -3.95825 0
M  V30 5744 O 544.572 -1.35181 -3.29552 0
M  V30 5745 O 543.431 -1.83932 -5.14618 0
M  V30 5746 H 540.525 -0.244605 -0.789998 0
M  V30 5747 H 543.071 -1.16203 -1.23673 0
M  V30 5748 H 541.843 -2.42766 -3.06888 0
M  V30 5749 H 541.466 -0.911335 -3.87015 0
M  V30 5750 N 542.463 1.3308 -0.844243 0
M  V30 5751 C 543.396 2.27075 -0.226279 0
M  V30 5752 C 544.374 1.49911 0.629716 0
M  V30 5753 O 545.558 1.79068 0.588803 0
M  V30 5754 C 542.685 3.31767 0.681782 0
M  V30 5755 C 541.731 4.26384 -0.0994565 0
M  V30 5756 S 542.564 5.15186 -1.46094 0
M  V30 5757 C 543.72 6.23405 -0.558319 0
M  V30 5758 H 543.953 2.79141 -1.02312 0
M  V30 5759 H 541.486 1.40452 -0.641292 0
M  V30 5760 H 543.444 3.92566 1.20008 0
M  V30 5761 H 542.105 2.78507 1.45234 0
M  V30 5762 H 541.298 5.00514 0.591733 0
M  V30 5763 H 540.9 3.69949 -0.548991 0
M  V30 5764 H 543.192 6.77069 0.241672 0
M  V30 5765 H 544.135 6.96619 -1.26995 0
M  V30 5766 H 544.543 5.64333 -0.13728 0
M  V30 5767 N 543.941 0.601185 1.45683 0
M  V30 5768 C 544.871 -0.108824 2.33246 0
M  V30 5769 C 545.852 -0.865223 1.46451 0
M  V30 5770 O 547.037 -0.83704 1.75235 0
M  V30 5771 C 544.167 -1.11101 3.2905 0
M  V30 5772 C 543.121 -0.468244 4.25431 0
M  V30 5773 C 542.447 -1.57822 5.10878 0
M  V30 5774 C 543.747 0.606469 5.18767 0
M  V30 5775 H 545.441 0.622306 2.92861 0
M  V30 5776 H 542.987 0.300714 1.40825 0
M  V30 5777 H 544.94 -1.61622 3.89174 0
M  V30 5778 H 543.664 -1.87265 2.67581 0
M  V30 5779 H 542.323 0.0160484 3.66596 0
M  V30 5780 H 541.971 -2.32998 4.45781 0
M  V30 5781 H 541.671 -1.15369 5.76163 0
M  V30 5782 H 543.195 -2.08583 5.73869 0
M  V30 5783 H 544.609 0.185589 5.73 0
M  V30 5784 H 543.006 0.952381 5.92494 0
M  V30 5785 H 544.076 1.48559 4.61582 0
M  V30 5786 N 545.419 -1.53889 0.339982 0
M  V30 5787 C 546.382 -2.23547 -0.50592 0
M  V30 5788 C 547.382 -1.23445 -1.03044 0
M  V30 5789 O 548.572 -1.47909 -0.920253 0
M  V30 5790 C 545.704 -2.95234 -1.7044 0
M  V30 5791 H 546.897 -2.99722 0.103247 0
M  V30 5792 H 544.45 -1.56033 0.0912804 0
M  V30 5793 H 545.185 -2.23236 -2.35236 0
M  V30 5794 H 544.97 -3.68654 -1.33553 0
M  V30 5795 H 546.46 -3.48258 -2.30447 0
M  V30 5796 N 546.897 -0.0685191 -1.57451 0
M  V30 5797 C 548.125 0.610462 -1.97689 0
M  V30 5798 C 548.54 1.63346 -0.946758 0
M  V30 5799 O 547.897 1.82377 0.0669868 0
M  V30 5800 C 547.948 1.28196 -3.38006 0
M  V30 5801 O 547.669 0.299906 -4.37072 0
M  V30 5802 C 549.17 2.04907 -3.931 0
M  V30 5803 H 546.39 0.165689 -0.650222 0
M  V30 5804 H 548.934 -0.139953 -2.04021 0
M  V30 5805 H 547.089 1.98348 -3.32771 0
M  V30 5806 H 547.503 0.78126 -5.18649 0
M  V30 5807 H 548.977 2.47287 -4.93511 0
M  V30 5808 H 549.454 2.9043 -3.29465 0
M  V30 5809 H 550.06 1.39629 -4.01726 0
M  V30 5810 N 548.375 1.56261 0.205012 0
M  V30 5811 C 549.652 1.70856 0.952233 0
M  V30 5812 C 550.032 0.620501 2.01775 0
M  V30 5813 O 549.38 -0.370035 2.25484 0
M  V30 5814 C 549.59 3.12807 1.54767 0
M  V30 5815 C 550.938 3.72733 2.0336 0
M  V30 5816 O 551.962 3.15873 1.64629 0
M  V30 5817 O 550.821 4.72501 2.746 0
M  V30 5818 H 547.915 0.696496 0.445895 0
M  V30 5819 H 550.461 1.6857 0.195489 0
M  V30 5820 H 549.233 3.83465 0.779132 0
M  V30 5821 H 548.856 3.1928 2.36951 0
M  V30 5822 N 549.853 -0.472356 1.50355 0
M  V30 5823 C 550.783 -1.57859 1.72055 0
M  V30 5824 C 551.764 -1.60283 0.569505 0
M  V30 5825 O 552.949 -1.7657 0.808503 0
M  V30 5826 C 550.079 -2.96191 1.81351 0
M  V30 5827 C 549.033 -3.08633 2.96529 0
M  V30 5828 C 548.359 -4.486 2.90968 0
M  V30 5829 C 549.659 -2.85969 4.37057 0
M  V30 5830 H 551.353 -1.39953 2.64676 0
M  V30 5831 H 548.899 -0.671846 1.27367 0
M  V30 5832 H 550.852 -3.73507 1.95117 0
M  V30 5833 H 549.576 -3.15251 0.853502 0
M  V30 5834 H 548.235 -2.33749 2.82413 0
M  V30 5835 H 547.883 -4.64577 1.92815 0
M  V30 5836 H 547.583 -4.57861 3.68289 0
M  V30 5837 H 549.107 -5.27938 3.0678 0
M  V30 5838 H 550.521 -3.53036 4.51706 0
M  V30 5839 H 548.918 -3.06677 5.15819 0
M  V30 5840 H 549.988 -1.81838 4.49514 0
M  V30 5841 N 551.331 -1.39911 -0.725443 0
M  V30 5842 C 552.294 -1.39156 -1.82121 0
M  V30 5843 C 553.294 -0.287018 -1.58218 0
M  V30 5844 O 554.484 -0.545421 -1.65441 0
M  V30 5845 C 551.616 -1.1736 -3.20062 0
M  V30 5846 H 552.809 -2.36672 -1.84191 0
M  V30 5847 H 550.362 -1.25615 -0.930079 0
M  V30 5848 H 551.097 -0.205648 -3.23647 0
M  V30 5849 H 550.882 -1.97358 -3.3881 0
M  V30 5850 H 552.372 -1.19596 -4.00108 0
M  V30 5851 N 552.809 0.956637 -1.25245 0
M  V30 5852 C 554.039 1.7332 -1.12445 0
M  V30 5853 C 554.447 1.86392 0.324732 0
M  V30 5854 O 553.79 1.35967 1.23526 0
M  V30 5855 C 553.852 3.16603 -1.70303 0
M  V30 5856 C 553.516 3.26966 -3.19284 0
M  V30 5857 C 554.513 3.11434 -4.16299 0
M  V30 5858 C 552.198 3.50851 -3.59456 0
M  V30 5859 C 554.192 3.1963 -5.51467 0
M  V30 5860 C 551.879 3.58684 -4.94761 0
M  V30 5861 C 552.877 3.43087 -5.90576 0
M  V30 5862 O 552.565 3.50598 -7.2342 0
M  V30 5863 H 552.297 0.549981 -0.393061 0
M  V30 5864 H 554.851 1.20892 -1.66055 0
M  V30 5865 H 553.081 3.70385 -1.11138 0
M  V30 5866 H 554.77 3.76109 -1.52632 0
M  V30 5867 H 555.536 2.92853 -3.86604 0
M  V30 5868 H 551.415 3.62053 -2.85375 0
M  V30 5869 H 554.959 3.07373 -6.26233 0
M  V30 5870 H 550.856 3.76782 -5.24124 0
M  V30 5871 H 551.624 3.67242 -7.31489 0
M  V30 5872 N 554.287 1.06798 1.15896 0
M  V30 5873 C 555.517 0.807522 1.90165 0
M  V30 5874 C 555.925 -0.642417 1.7796 0
M  V30 5875 O 555.268 -1.45193 1.12537 0
M  V30 5876 C 555.33 1.12939 3.41299 0
M  V30 5877 C 554.994 2.57879 3.7729 0
M  V30 5878 C 555.991 3.56118 3.78782 0
M  V30 5879 C 553.676 2.93311 4.07767 0
M  V30 5880 C 555.67 4.87827 4.10248 0
M  V30 5881 C 553.357 4.25219 4.38899 0
M  V30 5882 C 554.355 5.22287 4.4012 0
M  V30 5883 O 554.043 6.51826 4.70508 0
M  V30 5884 H 553.775 0.291946 0.609708 0
M  V30 5885 H 556.329 1.42627 1.47806 0
M  V30 5886 H 554.559 0.45359 3.84031 0
M  V30 5887 H 556.248 0.852363 3.9685 0
M  V30 5888 H 557.014 3.30086 3.55342 0
M  V30 5889 H 552.893 2.18409 4.05979 0
M  V30 5890 H 556.437 5.63586 4.11116 0
M  V30 5891 H 552.334 4.51006 4.61805 0
M  V30 5892 H 553.102 6.56893 4.88298 0
M  V30 5893 N 555.766 -1.3263 0.851289 0
M  V30 5894 C 556.696 -2.31449 0.308771 0
M  V30 5895 C 557.677 -1.59531 -0.590255 0
M  V30 5896 O 558.862 -1.87351 -0.511205 0
M  V30 5897 C 555.992 -3.43586 -0.506548 0
M  V30 5898 C 554.946 -4.26963 0.297753 0
M  V30 5899 C 554.272 -5.30831 -0.642094 0
M  V30 5900 C 555.572 -4.99643 1.52166 0
M  V30 5901 H 557.266 -2.77074 1.13447 0
M  V30 5902 H 554.812 -1.33207 0.546971 0
M  V30 5903 H 556.765 -4.11754 -0.896474 0
M  V30 5904 H 555.489 -2.96681 -1.36558 0
M  V30 5905 H 554.148 -3.60437 0.669391 0
M  V30 5906 H 553.796 -4.8018 -1.49788 0
M  V30 5907 H 553.496 -5.87501 -0.107968 0
M  V30 5908 H 555.02 -6.01862 -1.02927 0
M  V30 5909 H 556.434 -5.6051 1.20421 0
M  V30 5910 H 554.831 -5.66022 1.99347 0
M  V30 5911 H 555.901 -4.27701 2.28474 0
M  V30 5912 N 557.244 -0.608902 -1.45362 0
M  V30 5913 C 558.49 -0.104762 -2.02529 0
M  V30 5914 C 558.823 1.26191 -1.47613 0
M  V30 5915 O 558.098 1.8327 -0.65134 0
M  V30 5916 C 558.381 -0.0672661 -3.60037 0
M  V30 5917 C 558.234 -1.4647 -4.25284 0
M  V30 5918 C 559.553 0.619877 -4.35713 0
M  V30 5919 H 556.672 -0.0395438 -0.735938 0
M  V30 5920 H 559.314 -0.781126 -1.73201 0
M  V30 5921 H 557.464 0.50871 -3.85155 0
M  V30 5922 H 559.136 -2.08785 -4.11347 0
M  V30 5923 H 557.379 -2.02502 -3.83634 0
M  V30 5924 H 558.05 -1.39069 -5.34195 0
M  V30 5925 H 560.526 0.130297 -4.15896 0
M  V30 5926 H 559.402 0.615224 -5.45441 0
M  V30 5927 H 559.663 1.68621 -4.0868 0
M  V30 5928 N 558.722 1.53707 -0.348139 0
M  V30 5929 C 560.138 1.596 0.00361134 0
M  V30 5930 C 560.338 1.36394 1.4832 0
M  V30 5931 O 559.394 1.16046 2.24253 0
M  V30 5932 C 560.707 2.97512 -0.436682 0
M  V30 5933 C 562.255 3.10568 -0.389416 0
M  V30 5934 C 562.73 4.50866 -0.805249 0
M  V30 5935 N 564.221 4.56929 -0.759616 0
M  V30 5936 C 564.956 5.63643 -1.05327 0
M  V30 5937 N 564.452 6.78189 -1.41531 0
M  V30 5938 N 566.245 5.5354 -0.977207 0
M  V30 5939 H 558.396 1.67044 -1.31187 0
M  V30 5940 H 560.659 0.782559 -0.535075 0
M  V30 5941 H 560.365 3.19575 -1.46849 0
M  V30 5942 H 560.239 3.76742 0.185744 0
M  V30 5943 H 562.626 2.88226 0.633228 0
M  V30 5944 H 562.707 2.33387 -1.04711 0
M  V30 5945 H 562.351 4.73943 -1.82593 0
M  V30 5946 H 562.281 5.26452 -0.124989 0
M  V30 5947 H 564.772 3.74675 -0.49265 0
M  V30 5948 H 565.085 7.55541 -1.62411 0
M  V30 5949 H 563.43 6.79624 -1.45381 0
M  V30 5950 H 566.621 4.62932 -0.693675 0
M  V30 5951 H 566.794 6.36614 -1.2094 0
M  V30 5952 N 560.2 0.0768682 1.57412 0
M  V30 5953 C 561.147 -0.888577 2.13009 0
M  V30 5954 C 562.117 -1.29198 1.0439 0
M  V30 5955 O 563.302 -1.37694 1.3208 0
M  V30 5956 C 560.442 -2.14899 2.70023 0
M  V30 5957 C 559.555 -1.79777 3.92816 0
M  V30 5958 C 558.69 -3.00467 4.38056 0
M  V30 5959 C 557.729 -2.61385 5.53484 0
M  V30 5960 N 556.866 -3.74851 5.93659 0
M  V30 5961 H 561.706 -0.407593 2.95199 0
M  V30 5962 H 559.243 -0.189534 1.45874 0
M  V30 5963 H 561.201 -2.88688 3.0119 0
M  V30 5964 H 559.831 -2.60529 1.9059 0
M  V30 5965 H 558.883 -0.960301 3.68079 0
M  V30 5966 H 560.195 -1.47027 4.76639 0
M  V30 5967 H 559.349 -3.82529 4.7091 0
M  V30 5968 H 558.088 -3.36413 3.53097 0
M  V30 5969 H 557.093 -1.77746 5.20275 0
M  V30 5970 H 558.318 -2.26603 6.40178 0
M  V30 5971 H 556.264 -4.1055 5.11649 0
M  V30 5972 H 556.181 -3.45887 6.72234 0
M  V30 5973 H 557.449 -4.57477 6.31138 0
M  V30 5974 N 561.678 -1.56367 -0.196722 0
M  V30 5975 C 562.926 -1.80172 -0.915554 0
M  V30 5976 C 563.247 -0.649649 -1.8386 0
M  V30 5977 O 562.517 0.332111 -1.93064 0
M  V30 5978 H 561.097 -0.664592 -0.341067 0
M  V30 5979 H 563.759 -1.93844 -0.202622 0
M  V30 5980 H 562.855 -2.7327 -1.50764 0
M  V30 5981 N 563.156 0.464375 -1.50603 0
M  V30 5982 C 564.089 1.58052 -1.64605 0
M  V30 5983 C 565.067 1.54914 -0.494016 0
M  V30 5984 O 566.251 1.74438 -0.714393 0
M  V30 5985 C 563.378 2.96634 -1.63481 0
M  V30 5986 C 562.424 3.17901 -2.84325 0
M  V30 5987 S 563.257 2.97083 -4.45536 0
M  V30 5988 C 564.413 4.37994 -4.47115 0
M  V30 5989 H 564.646 1.45937 -2.59017 0
M  V30 5990 H 562.179 0.652189 -1.39949 0
M  V30 5991 H 564.137 3.76527 -1.63517 0
M  V30 5992 H 562.798 3.06134 -0.702928 0
M  V30 5993 H 561.991 4.19158 -2.79862 0
M  V30 5994 H 561.593 2.45792 -2.81891 0
M  V30 5995 H 563.885 5.30743 -4.21091 0
M  V30 5996 H 564.828 4.47499 -5.48772 0
M  V30 5997 H 565.236 4.20386 -3.76743 0
M  V30 5998 N 564.634 1.40294 0.718013 0
M  V30 5999 C 566.045 1.34289 1.29705 0
M  V30 6000 C 566.396 0.0152228 1.96194 0
M  V30 6001 O 565.521 -0.88682 1.97394 0
M  V30 6002 C 566.116 2.43219 2.3586 0
M  V30 6003 C 564.675 2.40682 2.89394 0
M  V30 6004 C 563.822 2.24223 1.63154 0
M  V30 6005 H 566.773 1.50135 0.514312 0
M  V30 6006 H 566.794 2.10986 3.16647 0
M  V30 6007 H 566.306 3.39836 1.87439 0
M  V30 6008 H 564.407 1.47756 3.42051 0
M  V30 6009 H 564.52 3.36177 3.41353 0
M  V30 6010 H 562.884 1.71696 1.88129 0
M  V30 6011 H 563.667 3.22834 1.16761 0
M  V30 6012 N 566.112 -0.949982 1.2575 0
M  V30 6013 C 567.359 -1.69515 1.10774 0
M  V30 6014 C 567.687 -1.91316 -0.350479 0
M  V30 6015 O 566.942 -1.48515 -1.27443 0
M  V30 6016 C 567.241 -3.08039 1.81237 0
M  V30 6017 C 566.907 -3.06023 3.31151 0
M  V30 6018 C 565.569 -3.0518 3.72047 0
M  V30 6019 C 567.921 -2.98998 4.26907 0
M  V30 6020 C 565.249 -2.95067 5.07102 0
M  V30 6021 C 567.601 -2.90426 5.61992 0
M  V30 6022 C 566.265 -2.87922 6.0221 0
M  V30 6023 H 565.535 -0.6203 0.405351 0
M  V30 6024 H 568.182 -1.10953 1.56082 0
M  V30 6025 H 566.487 -3.70172 1.28373 0
M  V30 6026 H 568.184 -3.64526 1.67098 0
M  V30 6027 H 564.774 -3.07453 2.98614 0
M  V30 6028 H 568.958 -2.98764 3.963 0
M  V30 6029 H 564.214 -2.915 5.37436 0
M  V30 6030 H 568.388 -2.83952 6.35881 0
M  V30 6031 H 566.015 -2.79841 7.06819 0
M  V30 6032 N 567.59 -1.07411 -1.15328 0
M  V30 6033 C 569.006 -0.799759 -1.38116 0
M  V30 6034 C 569.206 0.59572 -1.92493 0
M  V30 6035 O 568.262 1.35433 -2.13106 0
M  V30 6036 C 569.575 -1.87407 -2.35158 0
M  V30 6037 C 571.123 -1.89889 -2.48819 0
M  V30 6038 C 571.598 -2.96406 -3.49153 0
M  V30 6039 N 573.089 -2.95512 -3.56689 0
M  V30 6040 C 573.824 -3.74575 -4.34144 0
M  V30 6041 N 573.32 -4.63488 -5.14928 0
M  V30 6042 N 575.113 -3.62919 -4.29239 0
M  V30 6043 H 567.264 -1.97411 -0.78374 0
M  V30 6044 H 569.527 -0.856113 -0.407154 0
M  V30 6045 H 569.233 -2.8768 -2.0232 0
M  V30 6046 H 569.107 -1.73471 -3.34944 0
M  V30 6047 H 571.494 -0.902677 -2.80955 0
M  V30 6048 H 571.575 -2.07904 -1.49029 0
M  V30 6049 H 571.219 -3.96227 -3.17752 0
M  V30 6050 H 571.149 -2.75638 -4.48699 0
M  V30 6051 H 573.64 -2.31061 -2.99031 0
M  V30 6052 H 573.953 -5.20445 -5.71276 0
M  V30 6053 H 572.298 -4.67537 -5.14232 0
M  V30 6054 H 575.489 -2.92833 -3.65194 0
M  V30 6055 H 575.662 -4.24777 -4.89355 0
M  V30 6056 N 569.068 1.32177 -0.85831 0
M  V30 6057 C 570 2.27688 -0.262835 0
M  V30 6058 C 571.013 1.52588 0.567513 0
M  V30 6059 O 572.202 1.74156 0.391407 0
M  V30 6060 C 569.302 3.32668 0.646937 0
M  V30 6061 C 568.475 4.37148 -0.148372 0
M  V30 6062 C 567.534 5.21686 0.687728 0
M  V30 6063 O 566.56 5.69074 0.119934 0
M  V30 6064 N 567.762 5.44892 2.00182 0
M  V30 6065 H 570.527 2.79426 -1.08356 0
M  V30 6066 H 568.088 1.45076 -0.718647 0
M  V30 6067 H 570.08 3.86134 1.2117 0
M  V30 6068 H 568.65 2.81061 1.36834 0
M  V30 6069 H 567.87 3.83915 -0.894572 0
M  V30 6070 H 569.158 5.04038 -0.694514 0
M  V30 6071 H 568.556 5.08128 2.4864 0
M  V30 6072 H 567.113 6.0134 2.51463 0
M  V30 6073 N 570.547 0.616602 1.45037 0
M  V30 6074 C 571.51 -0.0871112 2.29034 0
M  V30 6075 C 572.51 -0.786414 1.40258 0
M  V30 6076 O 573.7 -0.633207 1.62284 0
M  V30 6077 C 570.832 -1.13369 3.21497 0
M  V30 6078 H 572.025 0.651497 2.92738 0
M  V30 6079 H 569.578 0.376058 1.51709 0
M  V30 6080 H 570.313 -1.90277 2.62612 0
M  V30 6081 H 570.098 -0.636358 3.86902 0
M  V30 6082 H 571.588 -1.62627 3.84633 0
M  V30 6083 N 572.025 -1.5352 0.356285 0
M  V30 6084 C 572.975 -2.22204 -0.510815 0
M  V30 6085 C 573.959 -1.21393 -1.05605 0
M  V30 6086 O 575.151 -1.46883 -0.987639 0
M  V30 6087 C 572.28 -3.00786 -1.65478 0
M  V30 6088 C 571.366 -4.08965 -1.12287 0
M  V30 6089 N 571.757 -5.04829 -0.313191 0
M  V30 6090 C 570.055 -4.23505 -1.39856 0
M  V30 6091 C 570.756 -5.81695 -0.0230322 0
M  V30 6092 N 569.732 -5.40074 -0.618144 0
M  V30 6093 H 573.534 -2.93676 0.114711 0
M  V30 6094 H 571.048 -1.61572 0.163811 0
M  V30 6095 H 573.045 -3.48502 -2.28806 0
M  V30 6096 H 571.705 -2.30843 -2.28345 0
M  V30 6097 H 572.716 -5.17879 0.0468202 0
M  V30 6098 H 569.393 -3.64786 -2.0307 0
M  V30 6099 H 570.783 -6.68931 0.630927 0
M  V30 6100 N 573.503 -0.0852151 -1.57369 0
M  V30 6101 C 574.413 0.891712 -2.16992 0
M  V30 6102 C 575.429 1.3174 -1.13669 0
M  V30 6103 O 576.605 1.38735 -1.45995 0
M  V30 6104 C 573.67 2.13635 -2.73059 0
M  V30 6105 C 572.731 1.7658 -3.91303 0
M  V30 6106 C 571.964 2.95111 -4.44686 0
M  V30 6107 O 572.187 4.09539 -3.97032 0
M  V30 6108 O 571.121 2.74149 -5.35841 0
M  V30 6109 H 574.947 0.414477 -3.00858 0
M  V30 6110 H 572.532 0.138598 -1.48756 0
M  V30 6111 H 574.414 2.86595 -3.08935 0
M  V30 6112 H 573.089 2.6043 -1.92244 0
M  V30 6113 H 571.996 1.00831 -3.60255 0
M  V30 6114 H 573.329 1.34557 -4.7345 0
M  V30 6115 N 574.981 1.5647 0.188427 0
M  V30 6116 C 575.944 1.9421 1.21718 0
M  V30 6117 C 576.944 0.823901 1.38089 0
M  V30 6118 O 578.134 1.09122 1.35787 0
M  V30 6119 C 575.266 2.22197 2.58537 0
M  V30 6120 H 576.459 2.86252 0.894418 0
M  V30 6121 H 574.012 1.50263 0.430211 0
M  V30 6122 H 574.747 1.32814 2.95856 0
M  V30 6123 H 574.532 3.03688 2.48025 0
M  V30 6124 H 576.022 2.52376 3.3271 0
M  V30 6125 N 576.459 -0.456382 1.50847 0
M  V30 6126 C 577.684 -1.2349 1.66628 0
M  V30 6127 C 578.109 -1.84715 0.355254 0
M  V30 6128 O 577.467 -1.67961 -0.682559 0
M  V30 6129 C 577.515 -2.30865 2.77009 0
M  V30 6130 O 576.619 -3.35882 2.39285 0
M  V30 6131 H 575.96 -0.36266 0.556214 0
M  V30 6132 H 578.49 -0.541374 1.97308 0
M  V30 6133 H 578.5 -2.75949 3.00526 0
M  V30 6134 H 577.175 -1.85677 3.72152 0
M  V30 6135 H 575.752 -2.96406 2.26269 0
M  V30 6136 N 577.937 -1.40673 -0.710563 0
M  V30 6137 C 579.185 -1.38947 -1.46759 0
M  V30 6138 C 579.506 0.00572879 -1.94999 0
M  V30 6139 O 578.776 0.961358 -1.70689 0
M  V30 6140 H 577.356 -0.5114 -0.544499 0
M  V30 6141 H 580.018 -1.75773 -0.842012 0
M  V30 6142 H 579.114 -2.06745 -2.33801 0
M  V30 6143 N 579.415 0.9433 -1.26252 0
M  V30 6144 C 580.362 2.0417 -1.07625 0
M  V30 6145 C 581.332 1.6609 0.0180738 0
M  V30 6146 O 582.517 1.90276 -0.141289 0
M  V30 6147 C 579.657 3.37653 -0.713043 0
M  V30 6148 C 578.77 3.88783 -1.8834 0
M  V30 6149 C 577.905 5.10642 -1.4635 0
M  V30 6150 C 576.944 5.54028 -2.60229 0
M  V30 6151 N 576.081 6.67092 -2.18936 0
M  V30 6152 H 580.921 2.19436 -2.01623 0
M  V30 6153 H 578.458 1.07519 -1.00389 0
M  V30 6154 H 580.416 4.14391 -0.483358 0
M  V30 6155 H 579.046 3.22241 0.18996 0
M  V30 6156 H 578.098 3.08464 -2.22608 0
M  V30 6157 H 579.41 4.16922 -2.73821 0
M  V30 6158 H 578.564 5.94832 -1.19414 0
M  V30 6159 H 577.303 4.84244 -0.579568 0
M  V30 6160 H 576.308 4.68396 -2.87898 0
M  V30 6161 H 577.533 5.82429 -3.49219 0
M  V30 6162 H 575.479 6.42381 -1.32974 0
M  V30 6163 H 575.396 6.94806 -2.97961 0
M  V30 6164 H 576.664 7.54662 -1.95206 0
M  V30 6165 N 580.893 1.08022 1.14757 0
M  V30 6166 C 581.856 0.71048 2.1791 0
M  V30 6167 C 582.856 -0.252731 1.58801 0
M  V30 6168 O 584.046 -0.0327915 1.74169 0
M  V30 6169 C 581.178 0.0483203 3.40866 0
M  V30 6170 H 582.371 1.62384 2.52134 0
M  V30 6171 H 579.924 0.877595 1.29337 0
M  V30 6172 H 580.659 -0.876959 3.12218 0
M  V30 6173 H 580.444 0.741189 3.85031 0
M  V30 6174 H 581.934 -0.195471 4.17142 0
M  V30 6175 N 582.371 -1.3172 0.865308 0
M  V30 6176 C 583.617 -1.97168 0.474633 0
M  V30 6177 C 583.95 -1.68263 -0.969604 0
M  V30 6178 O 583.225 -0.976588 -1.68205 0
M  V30 6179 C 583.508 -3.52689 0.726808 0
M  V30 6180 C 583.361 -3.91185 2.22024 0
M  V30 6181 C 584.68 -4.39689 0.190201 0
M  V30 6182 H 581.799 -0.716185 0.17392 0
M  V30 6183 H 584.441 -1.55925 1.08569 0
M  V30 6184 H 582.591 -3.8795 0.206705 0
M  V30 6185 H 584.263 -3.66049 2.80724 0
M  V30 6186 H 582.506 -3.3996 2.69462 0
M  V30 6187 H 583.177 -4.99604 2.34735 0
M  V30 6188 H 585.653 -4.11225 0.635103 0
M  V30 6189 H 584.529 -5.47469 0.396132 0
M  V30 6190 H 584.79 -4.32683 -0.907625 0
M  V30 6191 N 583.85 -0.624285 -1.44708 0
M  V30 6192 C 585.096 -0.126051 -2.02107 0
M  V30 6193 C 585.425 1.2496 -1.49048 0
M  V30 6194 O 584.68 1.84163 -0.662005 0
M  V30 6195 C 584.979 -0.0546353 -3.57358 0
M  V30 6196 C 584.644 -1.36815 -4.29642 0
M  V30 6197 C 583.307 -1.72792 -4.49106 0
M  V30 6198 C 585.659 -2.23549 -4.70824 0
M  V30 6199 C 582.986 -2.95222 -5.07012 0
M  V30 6200 C 585.339 -3.45243 -5.30085 0
M  V30 6201 C 584.003 -3.81452 -5.47769 0
M  V30 6202 H 583.273 -0.0461252 -0.739563 0
M  V30 6203 H 585.92 -0.809236 -1.73562 0
M  V30 6204 H 584.225 0.711891 -3.85278 0
M  V30 6205 H 585.922 0.347282 -3.99493 0
M  V30 6206 H 582.512 -1.07817 -4.14817 0
M  V30 6207 H 586.696 -1.9705 -4.55505 0
M  V30 6208 H 581.952 -3.23361 -5.18891 0
M  V30 6209 H 586.125 -4.12689 -5.60946 0
M  V30 6210 H 583.753 -4.76403 -5.92405 0
M  V30 6211 N 585.328 1.53329 -0.364422 0
M  V30 6212 C 586.261 2.22052 0.526145 0
M  V30 6213 C 587.239 1.21203 1.08391 0
M  V30 6214 O 588.423 1.50101 1.14026 0
M  V30 6215 C 585.55 2.91432 1.72583 0
M  V30 6216 C 584.596 4.06345 1.29562 0
M  V30 6217 S 585.429 5.34671 0.297885 0
M  V30 6218 C 586.585 6.07563 1.50392 0
M  V30 6219 H 586.818 2.97244 -0.0575055 0
M  V30 6220 H 584.351 1.53684 -0.148525 0
M  V30 6221 H 586.309 3.3202 2.41398 0
M  V30 6222 H 584.97 2.15966 2.28073 0
M  V30 6223 H 584.163 4.53901 2.19067 0
M  V30 6224 H 583.765 3.67642 0.686696 0
M  V30 6225 H 586.057 6.32224 2.43513 0
M  V30 6226 H 587 6.99973 1.06977 0
M  V30 6227 H 587.408 5.37994 1.70945 0
M  V30 6228 N 586.806 0.0935595 1.57322 0
M  V30 6229 C 587.769 -0.851426 2.12799 0
M  V30 6230 C 588.769 -1.21187 1.0569 0
M  V30 6231 O 589.959 -1.14156 1.31583 0
M  V30 6232 C 587.091 -2.14779 2.64731 0
M  V30 6233 H 588.284 -0.369733 2.97612 0
M  V30 6234 H 585.837 -0.155417 1.55525 0
M  V30 6235 H 586.572 -2.67437 1.83434 0
M  V30 6236 H 586.357 -1.89907 3.43042 0
M  V30 6237 H 587.847 -2.82383 3.07651 0
M  V30 6238 N 588.284 -1.56567 -0.180126 0
M  V30 6239 C 589.194 -1.98947 -1.24327 0
M  V30 6240 C 590.21 -0.899446 -1.4895 0
M  V30 6241 O 591.386 -1.20639 -1.61271 0
M  V30 6242 C 588.451 -2.33328 -2.56435 0
M  V30 6243 C 587.512 -3.56114 -2.39752 0
M  V30 6244 C 586.745 -3.88845 -3.65561 0
M  V30 6245 O 586.968 -3.22662 -4.70368 0
M  V30 6246 O 585.902 -4.82226 -3.60197 0
M  V30 6247 H 589.728 -2.89634 -0.913565 0
M  V30 6248 H 587.313 -1.44319 -0.386306 0
M  V30 6249 H 589.195 -2.5645 -3.34382 0
M  V30 6250 H 587.87 -1.45806 -2.89002 0
M  V30 6251 H 586.777 -3.38221 -1.59866 0
M  V30 6252 H 588.11 -4.4415 -2.12113 0
M  V30 6253 N 589.762 0.448376 -1.51087 0
M  V30 6254 C 590.99 1.22143 -1.66999 0
M  V30 6255 C 591.405 1.85283 -0.362699 0
M  V30 6256 O 590.762 1.70236 0.65772 0
M  V30 6257 C 590.813 2.31357 -2.7777 0
M  V30 6258 O 590.534 1.70801 -4.03434 0
M  V30 6259 C 592.035 3.21836 -3.04855 0
M  V30 6260 H 589.255 0.368558 -0.560719 0
M  V30 6261 H 591.799 0.532618 -1.97442 0
M  V30 6262 H 589.954 2.95973 -2.49958 0
M  V30 6263 H 590.368 2.42895 -4.64868 0
M  V30 6264 H 591.842 3.94627 -3.85971 0
M  V30 6265 H 592.319 3.81949 -2.16821 0
M  V30 6266 H 592.925 2.62933 -3.34285 0
M  V30 6267 N 591.24 1.41047 0.703093 0
M  V30 6268 C 592.187 1.42302 1.81711 0
M  V30 6269 C 593.157 0.278336 1.63751 0
M  V30 6270 O 594.342 0.478266 1.84709 0
M  V30 6271 C 591.482 1.30362 3.19531 0
M  V30 6272 C 590.595 2.54638 3.48975 0
M  V30 6273 C 589.73 2.35047 4.76368 0
M  V30 6274 C 588.769 3.54837 4.98756 0
M  V30 6275 N 587.906 3.34363 6.1737 0
M  V30 6276 H 592.746 2.37516 1.79973 0
M  V30 6277 H 590.283 1.1795 0.878983 0
M  V30 6278 H 592.241 1.21443 3.99134 0
M  V30 6279 H 590.871 0.387602 3.20464 0
M  V30 6280 H 589.923 2.74037 2.63833 0
M  V30 6281 H 591.235 3.43766 3.61423 0
M  V30 6282 H 590.389 2.23552 5.64012 0
M  V30 6283 H 589.128 1.43363 4.66153 0
M  V30 6284 H 588.133 3.66795 4.09563 0
M  V30 6285 H 589.358 4.47464 5.10835 0
M  V30 6286 H 587.304 2.45373 6.08382 0
M  V30 6287 H 587.221 4.17063 6.30551 0
M  V30 6288 H 588.489 3.26626 7.07768 0
M  V30 6289 N 592.718 -0.936591 1.26751 0
M  V30 6290 C 593.966 -1.67998 1.12343 0
M  V30 6291 C 594.287 -1.92137 -0.332938 0
M  V30 6292 O 593.557 -1.52132 -1.23421 0
M  V30 6293 H 592.137 -0.622609 0.412756 0
M  V30 6294 H 594.799 -1.12509 1.59147 0
M  V30 6295 H 593.895 -2.65185 1.64571 0
M  V30 6296 N 594.196 -1.08629 -1.14182 0
M  V30 6297 C 595.442 -0.818556 -1.85546 0
M  V30 6298 C 595.775 0.654076 -1.82854 0
M  V30 6299 O 595.05 1.48099 -1.26083 0
M  V30 6300 C 595.333 -1.34397 -3.3408 0
M  V30 6301 C 595.186 -2.8821 -3.45333 0
M  V30 6302 C 596.505 -0.971069 -4.29253 0
M  V30 6303 H 593.624 -0.298821 -0.673702 0
M  V30 6304 H 596.266 -1.34629 -1.34071 0
M  V30 6305 H 594.416 -0.895064 -3.78049 0
M  V30 6306 H 596.088 -3.41488 -3.10134 0
M  V30 6307 H 594.331 -3.25756 -2.86471 0
M  V30 6308 H 595.002 -3.20047 -4.49749 0
M  V30 6309 H 597.478 -1.35809 -3.93313 0
M  V30 6310 H 596.354 -1.36586 -5.31635 0
M  V30 6311 H 596.615 0.121659 -4.41933 0
M  V30 6312 N 595.674 1.31259 -0.872281 0
M  V30 6313 C 596.637 2.26744 -0.334656 0
M  V30 6314 C 597.637 1.52307 0.515681 0
M  V30 6315 O 598.827 1.71148 0.324656 0
M  V30 6316 C 595.959 3.36841 0.524482 0
M  V30 6317 H 597.152 2.75812 -1.17762 0
M  V30 6318 H 594.705 1.42232 -0.648064 0
M  V30 6319 H 595.44 2.93069 1.38855 0
M  V30 6320 H 595.225 3.92009 -0.0844299 0
M  V30 6321 H 596.715 4.07944 0.892838 0
M  V30 6322 N 597.152 0.631951 1.44375 0
M  V30 6323 C 598.082 -0.0593243 2.33425 0
M  V30 6324 C 599.063 -0.833964 1.48253 0
M  V30 6325 O 600.248 -0.799682 1.76971 0
M  V30 6326 C 597.378 -1.04096 3.31333 0
M  V30 6327 C 596.332 -0.377899 4.26328 0
M  V30 6328 C 595.658 -1.4695 5.14111 0
M  V30 6329 C 596.958 0.716371 5.17364 0
M  V30 6330 H 598.652 0.684287 2.91475 0
M  V30 6331 H 596.198 0.330518 1.40156 0
M  V30 6332 H 598.151 -1.53331 3.92514 0
M  V30 6333 H 596.875 -1.81547 2.71493 0
M  V30 6334 H 595.534 0.0938054 3.6648 0
M  V30 6335 H 595.182 -2.2349 4.50623 0
M  V30 6336 H 594.882 -1.03121 5.78481 0
M  V30 6337 H 596.406 -1.96363 5.78164 0
M  V30 6338 H 597.82 0.307089 5.72477 0
M  V30 6339 H 596.217 1.07784 5.90341 0
M  V30 6340 H 597.287 1.58316 4.58327 0
M  V30 6341 N 598.631 -1.53133 0.372548 0
M  V30 6342 C 599.579 -2.27473 -0.485681 0
M  V30 6343 C 600.573 -1.30719 -1.07745 0
M  V30 6344 O 601.779 -1.48321 -1.01985 0
M  V30 6345 H 598.154 -0.731269 -0.175356 0
M  V30 6346 H 600.125 -2.97955 0.162986 0
M  V30 6347 C 598.874 -3.08191 -1.60978 0
M  V30 6348 H 598.197 -3.82488 -1.16373 0
M  V30 6349 H 599.637 -3.63373 -2.18485 0
M  V30 6350 C 598.096 -2.19461 -2.55614 0
M  V30 6351 O 598.626 -1.81008 -3.58607 0
M  V30 6352 N 596.832 -1.83955 -2.24965 0
M  V30 6353 H 596.379 -2.15423 -1.41247 0
M  V30 6354 H 596.337 -1.24874 -2.88538 0
M  V30 6355 N 600.109 -0.101901 -1.5727 0
M  V30 6356 C 601.041 0.884723 -2.11436 0
M  V30 6357 C 602.054 1.24149 -1.05314 0
M  V30 6358 O 603.243 1.19341 -1.3274 0
M  V30 6359 C 600.343 2.19179 -2.58484 0
M  V30 6360 C 599.516 2.00933 -3.88516 0
M  V30 6361 C 598.575 3.15213 -4.2134 0
M  V30 6362 O 597.601 2.88877 -4.90448 0
M  V30 6363 N 598.803 4.41174 -3.77288 0
M  V30 6364 H 601.568 0.422058 -2.96713 0
M  V30 6365 H 599.129 0.0830128 -1.61687 0
M  V30 6366 H 601.121 2.94593 -2.77484 0
M  V30 6367 H 599.691 2.56847 -1.7818 0
M  V30 6368 H 598.911 1.09809 -3.78597 0
M  V30 6369 H 600.199 1.86026 -4.73573 0
M  V30 6370 H 599.597 4.6545 -3.21516 0
M  V30 6371 H 598.154 5.13515 -4.01429 0
M  V30 6372 N 601.587 1.56661 0.17182 0
M  V30 6373 C 602.517 1.99401 1.21498 0
M  V30 6374 C 603.498 0.869516 1.46197 0
M  V30 6375 O 604.683 1.13556 1.57539 0
M  V30 6376 C 601.813 2.35346 2.55401 0
M  V30 6377 C 600.767 3.5075 2.45272 0
M  V30 6378 C 600.093 3.72437 3.8366 0
M  V30 6379 C 601.393 4.84216 1.95787 0
M  V30 6380 H 603.087 2.86792 0.859699 0
M  V30 6381 H 600.633 1.37977 0.412103 0
M  V30 6382 H 602.586 2.63843 3.2858 0
M  V30 6383 H 601.31 1.44864 2.92715 0
M  V30 6384 H 599.969 3.2238 1.74547 0
M  V30 6385 H 599.617 2.79246 4.18367 0
M  V30 6386 H 599.317 4.50087 3.77751 0
M  V30 6387 H 600.841 4.03334 4.58426 0
M  V30 6388 H 602.255 5.11592 2.5874 0
M  V30 6389 H 600.652 5.65498 2.00827 0
M  V30 6390 H 601.722 4.76243 0.912159 0
M  V30 6391 N 603.065 -0.440357 1.51323 0
M  V30 6392 C 604.29 -1.21716 1.67928 0
M  V30 6393 C 604.715 -1.84328 0.374826 0
M  V30 6394 O 604.073 -1.68675 -0.664706 0
M  V30 6395 C 604.121 -2.27914 2.79442 0
M  V30 6396 O 603.225 -3.33325 2.42834 0
M  V30 6397 H 602.566 -0.35674 0.560029 0
M  V30 6398 H 605.096 -0.520417 1.97871 0
M  V30 6399 H 605.106 -2.72746 3.03436 0
M  V30 6400 H 603.781 -1.8172 3.741 0
M  V30 6401 H 602.358 -2.9399 2.294 0
M  V30 6402 N 604.543 -1.41418 -0.695603 0
M  V30 6403 C 605.473 -1.46035 -1.82197 0
M  V30 6404 C 606.454 -0.319025 -1.67082 0
M  V30 6405 O 607.639 -0.530462 -1.86815 0
M  V30 6406 C 604.769 -1.34179 -3.20333 0
M  V30 6407 C 603.723 -2.46123 -3.50154 0
M  V30 6408 C 603.049 -2.19332 -4.87645 0
M  V30 6409 C 604.349 -3.88463 -3.49133 0
M  V30 6410 H 606.043 -2.40303 -1.78591 0
M  V30 6411 H 603.589 -1.15663 -0.857797 0
M  V30 6412 H 605.542 -1.36021 -3.98844 0
M  V30 6413 H 604.266 -0.363952 -3.24566 0
M  V30 6414 H 602.925 -2.43563 -2.73994 0
M  V30 6415 H 602.573 -1.19891 -4.88503 0
M  V30 6416 H 602.273 -2.94344 -5.08562 0
M  V30 6417 H 603.797 -2.22889 -5.68465 0
M  V30 6418 H 605.211 -3.92738 -4.17648 0
M  V30 6419 H 603.608 -4.63158 -3.81582 0
M  V30 6420 H 604.678 -4.16617 -2.48109 0
M  V30 6421 N 606.021 0.929856 -1.27246 0
M  V30 6422 C 606.953 2.03434 -1.0558 0
M  V30 6423 C 607.966 1.62795 -0.0125762 0
M  V30 6424 O 609.155 1.76685 -0.2539 0
M  V30 6425 C 606.255 3.33915 -0.57912 0
M  V30 6426 C 605.428 4.03259 -1.69415 0
M  V30 6427 C 604.487 5.12014 -1.21357 0
M  V30 6428 O 603.513 5.36097 -1.91282 0
M  V30 6429 N 604.715 5.8046 -0.0680622 0
M  V30 6430 H 607.48 2.22583 -2.00691 0
M  V30 6431 H 605.041 1.1001 -1.18783 0
M  V30 6432 H 607.033 4.03978 -0.241563 0
M  V30 6433 H 605.603 3.11355 0.278703 0
M  V30 6434 H 604.823 3.26958 -2.20209 0
M  V30 6435 H 606.111 4.46337 -2.44255 0
M  V30 6436 H 605.509 5.63345 0.515626 0
M  V30 6437 H 604.066 6.51461 0.210332 0
M  V30 6438 N 607.499 1.09233 1.13605 0
M  V30 6439 C 608.409 0.741939 2.22559 0
M  V30 6440 C 609.425 -0.255236 1.72118 0
M  V30 6441 O 610.601 -0.0970747 2.01166 0
M  V30 6442 C 607.666 0.165595 3.46304 0
M  V30 6443 C 606.727 1.21846 4.11645 0
M  V30 6444 C 605.96 0.669526 5.29484 0
M  V30 6445 O 606.183 -0.508228 5.68131 0
M  V30 6446 O 605.117 1.42361 5.84822 0
M  V30 6447 H 608.943 1.65107 2.54899 0
M  V30 6448 H 606.528 0.866584 1.21699 0
M  V30 6449 H 608.41 -0.152592 4.21124 0
M  V30 6450 H 607.085 -0.716573 3.15669 0
M  V30 6451 H 605.992 1.58931 3.38662 0
M  V30 6452 H 607.325 2.07321 4.46407 0
M  V30 6453 N 608.977 -1.30795 0.87923 0
M  V30 6454 C 609.907 -2.30742 0.357796 0
M  V30 6455 C 610.888 -1.60747 -0.556283 0
M  V30 6456 O 612.073 -1.88393 -0.47135 0
M  V30 6457 C 609.203 -3.44583 -0.433555 0
M  V30 6458 C 608.157 -4.26235 0.388251 0
M  V30 6459 C 607.483 -5.32073 -0.529352 0
M  V30 6460 C 608.783 -4.96303 1.62729 0
M  V30 6461 H 610.477 -2.74605 1.19299 0
M  V30 6462 H 608.023 -1.32017 0.575104 0
M  V30 6463 H 609.976 -4.13563 -0.808934 0
M  V30 6464 H 608.7 -2.99511 -1.30234 0
M  V30 6465 H 607.359 -3.58936 0.745695 0
M  V30 6466 H 607.007 -4.83249 -1.39569 0
M  V30 6467 H 606.707 -5.87598 0.0166741 0
M  V30 6468 H 608.231 -6.0391 -0.901373 0
M  V30 6469 H 609.645 -5.5783 1.32283 0
M  V30 6470 H 608.042 -5.61666 2.11309 0
M  V30 6471 H 609.112 -4.22758 2.37494 0
M  V30 6472 N 610.455 -0.639598 -1.44038 0
M  V30 6473 C 611.387 0.0987684 -2.28987 0
M  V30 6474 C 612.4 0.80058 -1.41755 0
M  V30 6475 O 613.589 0.660611 -1.65826 0
M  V30 6476 C 610.689 1.16242 -3.18341 0
M  V30 6477 C 609.862 0.541447 -4.34036 0
M  V30 6478 C 608.921 1.50017 -5.04362 0
M  V30 6479 O 607.947 1.01403 -5.60095 0
M  V30 6480 N 609.149 2.83441 -5.06598 0
M  V30 6481 H 611.914 -0.630305 -2.92997 0
M  V30 6482 H 609.475 -0.481376 -1.54578 0
M  V30 6483 H 611.467 1.80429 -3.62253 0
M  V30 6484 H 610.037 1.79362 -2.56024 0
M  V30 6485 H 609.257 -0.27923 -3.9321 0
M  V30 6486 H 610.545 0.107379 -5.08687 0
M  V30 6487 H 609.943 3.2551 -4.62666 0
M  V30 6488 H 608.5 3.42966 -5.54272 0
M  V30 6489 N 611.933 1.52934 -0.380664 0
M  V30 6490 C 613.161 2.05886 0.204599 0
M  V30 6491 C 613.576 1.25305 1.41223 0
M  V30 6492 O 612.933 0.297504 1.80059 0
M  V30 6493 C 612.984 3.56764 0.583249 0
M  V30 6494 O 612.705 4.34292 -0.576398 0
M  V30 6495 C 614.206 4.2603 1.2253 0
M  V30 6496 H 611.426 0.670193 0.0328991 0
M  V30 6497 H 613.97 1.97148 -0.543397 0
M  V30 6498 H 612.125 3.65603 1.28115 0
M  V30 6499 H 612.539 5.23819 -0.267119 0
M  V30 6500 H 614.013 5.32868 1.44068 0
M  V30 6501 H 614.49 3.80698 2.19011 0
M  V30 6502 H 615.096 4.21485 0.568407 0
M  V30 6503 N 613.412 0.11024 1.57214 0
M  V30 6504 C 614.661 -0.549638 1.94067 0
M  V30 6505 C 614.974 -1.68388 0.995234 0
M  V30 6506 O 616.18 -2.40593 1.25807 0
M  V30 6507 C 614.636 -1.02912 3.44873 0
M  V30 6508 C 614.244 0.0761861 4.47935 0
M  V30 6509 C 615.988 -1.66087 3.9066 0
M  V30 6510 C 613.895 -0.419502 5.8991 0
M  V30 6511 H 612.825 -0.209092 0.724428 0
M  V30 6512 H 615.476 0.188683 1.82527 0
M  V30 6513 H 613.858 -1.82159 3.51616 0
M  V30 6514 H 615.032 0.852185 4.52851 0
M  V30 6515 H 613.347 0.614052 4.11847 0
M  V30 6516 H 615.944 -2.04272 4.94143 0
M  V30 6517 H 616.287 -2.53591 3.30148 0
M  V30 6518 H 616.82 -0.933959 3.86681 0
M  V30 6519 H 613.559 0.419277 6.54158 0
M  V30 6520 H 613.079 -1.16217 5.88433 0
M  V30 6521 H 614.758 -0.883577 6.40938 0
M  V30 6522 N 614.89 -1.56749 -0.16351 0
M  V30 6523 C 616.115 -1.86938 -0.898264 0
M  V30 6524 C 616.54 -0.697456 -1.74692 0
M  V30 6525 O 615.898 0.353327 -1.77824 0
M  V30 6526 C 615.946 -3.15599 -1.74441 0
M  V30 6527 O 615.05 -2.98371 -2.8469 0
M  V30 6528 H 614.391 -0.614659 -0.251178 0
M  V30 6529 H 616.921 -2.03979 -0.159298 0
M  V30 6530 H 616.931 -3.47202 -2.14277 0
M  V30 6531 H 615.606 -4.00505 -1.1211 0
M  V30 6532 H 614.183 -2.7814 -2.4838 0
M  V30 6533 N 616.368 0.432326 -1.51554 0
M  V30 6534 C 617.779 1.01202 -1.56892 0
M  V30 6535 C 618.13 1.92175 -0.395394 0
M  V30 6536 O 617.255 2.10844 0.487198 0
M  V30 6537 C 617.85 1.84217 -2.8434 0
M  V30 6538 C 616.409 2.37228 -2.92233 0
M  V30 6539 C 615.556 1.16576 -2.51606 0
M  V30 6540 H 618.507 0.213407 -1.57259 0
M  V30 6541 H 618.528 2.69721 -2.68385 0
M  V30 6542 H 618.04 1.17979 -3.69733 0
M  V30 6543 H 616.141 3.06905 -2.11282 0
M  V30 6544 H 616.254 2.69682 -3.95991 0
M  V30 6545 H 614.618 1.51263 -2.04919 0
M  V30 6546 H 615.401 0.519404 -3.39348 0
M  V30 6547 N 617.846 1.41785 0.688094 0
M  V30 6548 C 618.776 1.47 1.8142 0
M  V30 6549 C 619.757 0.327881 1.6691 0
M  V30 6550 O 620.942 0.540362 1.86531 0
M  V30 6551 C 618.072 1.35876 3.19617 0
M  V30 6552 C 617.026 2.47976 3.48844 0
M  V30 6553 C 616.352 2.21915 4.86475 0
M  V30 6554 C 617.652 3.90309 3.47068 0
M  V30 6555 H 619.346 2.41247 1.77314 0
M  V30 6556 H 616.892 1.16116 0.851651 0
M  V30 6557 H 618.845 1.38134 3.98117 0
M  V30 6558 H 617.569 0.38116 3.24368 0
M  V30 6559 H 616.228 2.45013 2.72698 0
M  V30 6560 H 615.876 1.2248 4.8786 0
M  V30 6561 H 615.576 2.97037 5.06994 0
M  V30 6562 H 617.1 2.25901 5.67275 0
M  V30 6563 H 618.514 3.94947 4.1556 0
M  V30 6564 H 616.911 4.65175 3.7912 0
M  V30 6565 H 617.981 4.17927 2.45896 0
M  V30 6566 N 619.324 -0.923095 1.27737 0
M  V30 6567 C 620.571 -1.67127 1.14345 0
M  V30 6568 C 620.899 -1.92017 -0.30982 0
M  V30 6569 O 620.154 -1.51185 -1.24264 0
M  V30 6570 C 620.453 -3.04125 1.8773 0
M  V30 6571 C 620.119 -2.98929 3.37568 0
M  V30 6572 C 618.781 -2.9722 3.78436 0
M  V30 6573 C 621.133 -2.89875 4.33154 0
M  V30 6574 C 618.461 -2.84244 5.13247 0
M  V30 6575 C 620.813 -2.7844 5.68026 0
M  V30 6576 C 619.477 -2.75083 6.08182 0
M  V30 6577 H 618.747 -0.611562 0.418417 0
M  V30 6578 H 621.394 -1.07618 1.584 0
M  V30 6579 H 619.699 -3.67366 1.36196 0
M  V30 6580 H 621.396 -3.609 1.74792 0
M  V30 6581 H 617.986 -3.0105 3.05069 0
M  V30 6582 H 622.17 -2.9029 4.02548 0
M  V30 6583 H 617.426 -2.80034 5.43499 0
M  V30 6584 H 621.6 -2.70401 6.4176 0
M  V30 6585 H 619.227 -2.64786 7.12596 0
M  V30 6586 N 620.802 -1.09834 -1.13024 0
M  V30 6587 C 622.027 -0.85909 -1.88771 0
M  V30 6588 C 622.452 0.584402 -1.78791 0
M  V30 6589 O 621.81 1.41101 -1.13842 0
M  V30 6590 C 621.858 -1.30427 -3.36186 0
M  V30 6591 O 620.962 -0.465368 -4.09766 0
M  V30 6592 H 620.303 -0.310786 -0.586778 0
M  V30 6593 H 622.833 -1.46355 -1.42973 0
M  V30 6594 H 622.843 -1.2915 -3.8702 0
M  V30 6595 H 621.518 -2.3555 -3.42767 0
M  V30 6596 H 620.095 -0.542814 -3.68928 0
M  V30 6597 N 622.28 1.30327 -0.886154 0
M  V30 6598 C 623.528 1.9571 -0.504195 0
M  V30 6599 C 623.849 1.70294 0.950003 0
M  V30 6600 O 623.119 1.02718 1.66811 0
M  V30 6601 H 621.699 0.72412 -0.183465 0
M  V30 6602 H 624.361 1.58835 -1.12949 0
M  V30 6603 H 623.457 3.04704 -0.675431 0
M  V30 6604 N 623.758 0.647228 1.43697 0
M  V30 6605 C 625.035 0.0883758 1.954 0
M  V30 6606 C 625.415 -1.39006 1.58873 0
M  V30 6607 O 624.763 -2.11255 0.87083 0
M  V30 6608 C 624.973 0.328263 3.47453 0
M  V30 6609 C 626.321 0.230009 4.23977 0
M  V30 6610 O 627.345 0.260496 3.55246 0
M  V30 6611 O 626.204 0.148615 5.46298 0
M  V30 6612 H 623.298 -0.0130683 0.826897 0
M  V30 6613 H 625.844 0.72005 1.53666 0
M  V30 6614 H 624.616 1.3535 3.67146 0
M  V30 6615 H 624.239 -0.336772 3.96171 0
M  V30 6616 N 625.236 -1.5273 0.388769 0
M  V30 6617 C 626.482 -2.01871 -0.193877 0
M  V30 6618 C 626.815 -1.27475 -1.46505 0
M  V30 6619 O 626.09 -0.375063 -1.90849 0
M  V30 6620 C 626.373 -3.5712 -0.462336 0
M  V30 6621 C 626.226 -4.42186 0.824091 0
M  V30 6622 C 627.545 -4.21881 -1.25319 0
M  V30 6623 H 624.664 -0.733764 -0.0689899 0
M  V30 6624 H 627.306 -1.82796 0.518231 0
M  V30 6625 H 625.456 -3.73504 -1.06896 0
M  V30 6626 H 627.128 -4.37554 1.46096 0
M  V30 6627 H 625.371 -4.09219 1.43952 0
M  V30 6628 H 626.042 -5.48828 0.590905 0
M  V30 6629 H 628.518 -4.0947 -0.73981 0
M  V30 6630 H 627.394 -5.30487 -1.40977 0
M  V30 6631 H 627.655 -3.79478 -2.26824 0
M  V30 6632 N 626.714 -0.118576 -1.57153 0
M  V30 6633 C 627.963 0.539339 -1.94355 0
M  V30 6634 C 628.276 1.67858 -1.00415 0
M  V30 6635 O 629.482 2.39922 -1.27081 0
M  V30 6636 C 627.938 1.01082 -3.45414 0
M  V30 6637 C 627.546 -0.0999402 -4.47889 0
M  V30 6638 C 629.29 1.64013 -3.91535 0
M  V30 6639 C 627.197 0.388212 -5.90124 0
M  V30 6640 H 626.127 0.205247 -0.725527 0
M  V30 6641 H 628.778 -0.19836 -1.82425 0
M  V30 6642 H 627.16 1.80292 -3.52577 0
M  V30 6643 H 628.334 -0.876189 -4.52393 0
M  V30 6644 H 626.649 -0.635885 -4.11516 0
M  V30 6645 H 629.246 2.01649 -4.95219 0
M  V30 6646 H 629.589 2.51836 -3.31488 0
M  V30 6647 H 630.122 0.913439 -3.87171 0
M  V30 6648 H 626.861 -0.453963 -6.53926 0
M  V30 6649 H 626.381 1.13095 -5.89041 0
M  V30 6650 H 628.06 0.849574 -6.41398 0
M  V30 6651 N 628.193 1.56834 0.155195 0
M  V30 6652 C 629.433 1.84701 0.875488 0
M  V30 6653 C 629.797 0.701747 1.78716 0
M  V30 6654 O 630.998 0.861263 2.54629 0
M  V30 6655 C 629.269 3.1773 1.63654 0
M  V30 6656 S 630.828 3.67128 2.40338 0
M  V30 6657 H 627.646 0.647856 0.292923 0
M  V30 6658 H 630.248 1.95026 0.136024 0
M  V30 6659 H 628.952 3.99059 0.958117 0
M  V30 6660 H 628.483 3.10388 2.41708 0
M  V30 6661 H 630.498 3.35739 3.65368 0
M  V30 6662 N 629.671 -0.424282 1.51781 0
M  V30 6663 C 630.917 -1.17434 1.6534 0
M  V30 6664 C 631.25 -1.90549 0.374806 0
M  V30 6665 O 630.525 -1.84145 -0.626179 0
M  V30 6666 C 630.808 -2.18093 2.86544 0
M  V30 6667 C 630.661 -1.48975 4.24413 0
M  V30 6668 C 631.98 -3.18934 3.03264 0
M  V30 6669 H 629.099 -0.425566 0.601716 0
M  V30 6670 H 631.741 -0.461921 1.84299 0
M  V30 6671 H 629.891 -2.78849 2.7051 0
M  V30 6672 H 631.563 -0.914551 4.52143 0
M  V30 6673 H 629.806 -0.791893 4.26511 0
M  V30 6674 H 630.477 -2.22347 5.05238 0
M  V30 6675 H 632.953 -2.68243 3.18096 0
M  V30 6676 H 631.829 -3.86645 3.89611 0
M  V30 6677 H 632.09 -3.85793 2.15908 0
M  V30 6678 N 631.149 -1.42148 -0.680565 0
M  V30 6679 C 632.395 -1.4352 -1.44131 0
M  V30 6680 C 632.75 -0.0486244 -1.92339 0
M  V30 6681 O 632.043 0.92819 -1.67616 0
M  V30 6682 C 632.237 -2.38945 -2.65782 0
M  V30 6683 C 632.066 -3.86743 -2.29477 0
M  V30 6684 C 630.836 -4.5532 -2.19115 0
M  V30 6685 C 633.034 -4.77321 -1.91491 0
M  V30 6686 N 631.016 -5.88174 -1.75853 0
M  V30 6687 C 632.387 -5.99238 -1.59103 0
M  V30 6688 C 634.442 -4.64829 -1.78432 0
M  V30 6689 C 633.145 -7.10053 -1.14968 0
M  V30 6690 C 635.171 -5.75621 -1.35702 0
M  V30 6691 C 634.533 -6.96645 -1.04234 0
M  V30 6692 H 630.632 -0.580363 -0.524121 0
M  V30 6693 H 633.216 -1.78132 -0.785939 0
M  V30 6694 H 631.387 -2.06403 -3.29017 0
M  V30 6695 H 633.119 -2.30935 -3.32342 0
M  V30 6696 H 629.874 -4.09456 -2.37998 0
M  V30 6697 H 630.298 -6.58625 -1.56661 0
M  V30 6698 H 634.94 -3.71745 -2.01409 0
M  V30 6699 H 632.658 -8.0299 -0.907365 0
M  V30 6700 H 636.244 -5.67964 -1.26126 0
M  V30 6701 H 635.124 -7.80918 -0.716707 0
M  V30 6702 N 632.627 0.916307 -1.28225 0
M  V30 6703 C 633.904 1.64429 -1.05936 0
M  V30 6704 C 634.284 2.07234 0.402139 0
M  V30 6705 O 633.632 1.81535 1.3877 0
M  V30 6706 C 633.842 2.83773 -2.03159 0
M  V30 6707 C 635.19 3.54852 -2.33164 0
M  V30 6708 O 636.214 2.93918 -2.01223 0
M  V30 6709 O 635.073 4.64663 -2.87664 0
M  V30 6710 H 632.167 0.721221 -0.404683 0
M  V30 6711 H 634.713 0.965838 -1.39534 0
M  V30 6712 H 633.485 2.49217 -3.01673 0
M  V30 6713 H 633.108 3.59333 -1.70192 0
M  V30 6714 N 634.105 1.10431 1.1244 0
M  V30 6715 C 635.335 0.867612 1.87499 0
M  V30 6716 C 635.743 -0.585475 1.79913 0
M  V30 6717 O 635.086 -1.41539 1.171 0
M  V30 6718 C 635.148 1.2374 3.37533 0
M  V30 6719 C 634.812 2.69751 3.68895 0
M  V30 6720 C 635.809 3.67988 3.67261 0
M  V30 6721 C 633.494 3.06135 3.98229 0
M  V30 6722 C 635.488 5.00632 3.9452 0
M  V30 6723 C 633.175 4.38967 4.25149 0
M  V30 6724 C 634.173 5.36025 4.23281 0
M  V30 6725 O 633.861 6.66465 4.49533 0
M  V30 6726 H 633.593 0.311196 0.600111 0
M  V30 6727 H 636.147 1.47257 1.43194 0
M  V30 6728 H 634.377 0.575537 3.82393 0
M  V30 6729 H 636.066 0.978187 3.93937 0
M  V30 6730 H 636.832 3.41224 3.44661 0
M  V30 6731 H 632.711 2.31214 3.98825 0
M  V30 6732 H 636.255 5.7638 3.92978 0
M  V30 6733 H 632.152 4.6547 4.47223 0
M  V30 6734 H 632.92 6.72095 4.67152 0
M  V30 6735 N 635.583 -1.29855 0.893053 0
M  V30 6736 C 636.831 -1.9544 0.514566 0
M  V30 6737 C 637.152 -1.70795 -0.940959 0
M  V30 6738 O 636.422 -1.03601 -1.66264 0
M  V30 6739 H 635.002 -0.723137 0.187302 0
M  V30 6740 H 637.664 -1.58234 1.13789 0
M  V30 6741 H 636.76 -3.04341 0.691581 0
M  V30 6742 N 637.061 -0.65484 -1.43351 0
M  V30 6743 C 638.011 0.0581325 -2.27926 0
M  V30 6744 C 638.995 0.793188 -1.3999 0
M  V30 6745 O 640.187 0.675387 -1.63608 0
M  V30 6746 C 637.316 1.02272 -3.27712 0
M  V30 6747 C 636.402 0.286048 -4.23134 0
M  V30 6748 N 636.793 -0.698298 -5.00957 0
M  V30 6749 C 635.091 0.527272 -4.42872 0
M  V30 6750 C 635.792 -1.1357 -5.70506 0
M  V30 6751 N 634.768 -0.469631 -5.41568 0
M  V30 6752 H 638.57 -0.697182 -2.85511 0
M  V30 6753 H 636.084 -0.482252 -1.55074 0
M  V30 6754 H 638.081 1.5483 -3.87083 0
M  V30 6755 H 636.741 1.77807 -2.71688 0
M  V30 6756 H 637.752 -1.07708 -5.06576 0
M  V30 6757 H 634.429 1.26367 -3.97916 0
M  V30 6758 H 635.819 -1.95027 -6.42973 0
M  V30 6759 N 638.539 1.52521 -0.396863 0
M  V30 6760 C 639.764 2.06571 0.185258 0
M  V30 6761 C 640.189 1.26605 1.39115 0
M  V30 6762 O 639.547 0.293055 1.78916 0
M  V30 6763 C 639.595 3.5674 0.526189 0
M  V30 6764 O 638.699 3.7929 1.61903 0
M  V30 6765 H 638.04 0.663712 0.0195474 0
M  V30 6766 H 640.57 1.966 -0.566519 0
M  V30 6767 H 640.58 4.00311 0.788338 0
M  V30 6768 H 639.255 4.14379 -0.355397 0
M  V30 6769 H 637.832 3.47605 1.35 0
M  V30 6770 N 640.017 0.126909 1.57088 0
M  V30 6771 C 641.263 -0.529952 1.95753 0
M  V30 6772 C 641.596 -1.65823 1.01077 0
M  V30 6773 O 640.871 -1.94437 0.0494162 0
M  V30 6774 C 641.154 -1.05517 3.44294 0
M  V30 6775 C 641.007 0.0702253 4.49745 0
M  V30 6776 C 642.326 -1.9435 3.94862 0
M  V30 6777 H 639.445 -0.191168 0.711775 0
M  V30 6778 H 642.087 0.204071 1.88901 0
M  V30 6779 H 640.237 -1.68069 3.50264 0
M  V30 6780 H 641.909 0.705834 4.55868 0
M  V30 6781 H 640.152 0.732259 4.27575 0
M  V30 6782 H 640.823 -0.338642 5.5096 0
M  V30 6783 H 643.299 -1.41658 3.91244 0
M  V30 6784 H 642.175 -2.28015 4.993 0
M  V30 6785 H 642.436 -2.87299 3.36024 0
M  V30 6786 N 641.495 -1.56914 -0.146875 0
M  V30 6787 C 642.405 -2.0154 -1.20079 0
M  V30 6788 C 643.421 -0.930838 -1.47008 0
M  V30 6789 O 644.597 -1.24032 -1.58676 0
M  V30 6790 C 641.662 -2.38715 -2.51428 0
M  V30 6791 C 640.723 -3.6112 -2.32145 0
M  V30 6792 C 639.956 -3.96512 -3.57231 0
M  V30 6793 O 640.179 -3.32566 -4.63418 0
M  V30 6794 O 639.113 -4.89758 -3.49887 0
M  V30 6795 H 642.939 -2.91506 -0.851924 0
M  V30 6796 H 640.524 -1.45106 -0.355607 0
M  V30 6797 H 642.406 -2.63485 -3.28867 0
M  V30 6798 H 641.081 -1.51903 -2.85845 0
M  V30 6799 H 639.988 -3.41536 -1.52656 0
M  V30 6800 H 641.321 -4.48549 -2.02644 0
M  V30 6801 N 642.974 0.416227 -1.52004 0
M  V30 6802 C 643.906 1.52552 -1.71058 0
M  V30 6803 C 644.919 1.51693 -0.59102 0
M  V30 6804 O 646.108 1.56087 -0.865973 0
M  V30 6805 C 643.208 2.91455 -1.72937 0
M  V30 6806 C 642.381 3.16584 -3.01816 0
M  V30 6807 C 641.44 4.35322 -2.95603 0
M  V30 6808 O 640.466 4.32947 -3.6952 0
M  V30 6809 N 641.668 5.40049 -2.12903 0
M  V30 6810 H 644.433 1.36604 -2.66757 0
M  V30 6811 H 641.994 0.60544 -1.50153 0
M  V30 6812 H 643.986 3.68944 -1.66321 0
M  V30 6813 H 642.556 3.00895 -0.847418 0
M  V30 6814 H 641.776 2.27203 -3.22137 0
M  V30 6815 H 643.064 3.30213 -3.87088 0
M  V30 6816 H 642.462 5.44823 -1.52265 0
M  V30 6817 H 641.019 6.16308 -2.1215 0
M  V30 6818 N 644.452 1.42507 0.673017 0
M  V30 6819 C 645.682 1.46261 1.45916 0
M  V30 6820 C 646.09 0.0729724 1.89059 0
M  V30 6821 O 645.433 -0.922987 1.58829 0
M  V30 6822 C 645.495 2.32853 2.73898 0
M  V30 6823 C 645.159 3.80699 2.52819 0
M  V30 6824 C 646.156 4.72307 2.17306 0
M  V30 6825 C 643.841 4.24983 2.67758 0
M  V30 6826 C 645.835 6.06192 1.97003 0
M  V30 6827 C 643.522 5.58927 2.4707 0
M  V30 6828 C 644.52 6.49348 2.11746 0
M  V30 6829 O 644.208 7.80817 1.91259 0
M  V30 6830 H 643.94 0.499561 0.455428 0
M  V30 6831 H 646.494 1.87697 0.834196 0
M  V30 6832 H 644.724 1.86268 3.38882 0
M  V30 6833 H 646.413 2.28041 3.35786 0
M  V30 6834 H 647.179 4.39378 2.05359 0
M  V30 6835 H 643.058 3.54893 2.94231 0
M  V30 6836 H 646.602 6.76731 1.69355 0
M  V30 6837 H 642.499 5.91429 2.58615 0
M  V30 6838 H 643.267 7.92194 2.05843 0
M  V30 6839 N 645.93 -0.909495 1.28709 0
M  V30 6840 C 647.178 -1.65577 1.15882 0
M  V30 6841 C 647.499 -1.928 -0.292108 0
M  V30 6842 O 646.769 -1.54716 -1.20166 0
M  V30 6843 H 645.349 -0.613714 0.425869 0
M  V30 6844 H 648.011 -1.09108 1.61498 0
M  V30 6845 H 647.107 -2.61634 1.70159 0
M  V30 6846 N 647.408 -1.11026 -1.11852 0
M  V30 6847 C 648.371 -0.768006 -2.1595 0
M  V30 6848 C 649.371 0.210538 -1.59416 0
M  V30 6849 O 650.561 -0.0133978 -1.74195 0
M  V30 6850 C 647.693 -0.138678 -3.40618 0
M  V30 6851 H 648.886 -1.69012 -2.4774 0
M  V30 6852 H 646.439 -0.911578 -1.26964 0
M  V30 6853 H 647.174 0.793872 -3.14433 0
M  V30 6854 H 646.959 -0.843012 -3.8293 0
M  V30 6855 H 648.449 0.0848039 -4.17514 0
M  V30 6856 N 648.886 1.2938 -0.899927 0
M  V30 6857 C 649.816 2.30144 -0.39446 0
M  V30 6858 C 650.797 1.61611 0.530639 0
M  V30 6859 O 651.982 1.89119 0.441319 0
M  V30 6860 C 649.112 3.45229 0.37868 0
M  V30 6861 C 648.066 4.25564 -0.456012 0
M  V30 6862 C 647.392 5.32848 0.444637 0
M  V30 6863 C 648.692 4.93651 -1.70605 0
M  V30 6864 H 650.386 2.72673 -1.23653 0
M  V30 6865 H 647.932 1.31086 -0.596034 0
M  V30 6866 H 649.885 4.14797 0.743037 0
M  V30 6867 H 648.609 3.01545 1.25453 0
M  V30 6868 H 647.268 3.57704 -0.802704 0
M  V30 6869 H 646.916 4.85408 1.31863 0
M  V30 6870 H 646.616 5.87497 -0.110154 0
M  V30 6871 H 648.14 6.05268 0.805182 0
M  V30 6872 H 649.554 5.55655 -1.41141 0
M  V30 6873 H 647.951 5.58233 -2.20217 0
M  V30 6874 H 649.021 4.18926 -2.4419 0
M  V30 6875 N 650.364 0.662433 1.43002 0
M  V30 6876 C 651.612 0.179237 2.01304 0
M  V30 6877 C 651.933 -1.21428 1.52579 0
M  V30 6878 O 651.203 -1.81294 0.742252 0
M  V30 6879 H 649.783 0.0632725 0.744316 0
M  V30 6880 H 652.445 0.856169 1.75088 0
M  V30 6881 H 651.541 0.170957 3.11631 0
M  V30 6882 N 651.842 -1.52309 0.404946 0
M  V30 6883 C 653.09 -2.01368 -0.17186 0
M  V30 6884 C 653.411 -1.29261 -1.46002 0
M  V30 6885 O 652.681 -0.41729 -1.91404 0
M  V30 6886 H 651.261 -0.744034 -0.0664993 0
M  V30 6887 H 653.923 -1.87263 0.540228 0
M  V30 6888 H 653.019 -3.09888 -0.370957 0
M  V30 6889 N 653.32 -0.135238 -1.57019 0
M  V30 6890 C 654.548 0.526066 -2.001 0
M  V30 6891 C 654.963 1.59184 -1.01519 0
M  V30 6892 O 654.32 1.82497 -0.0104258 0
M  V30 6893 C 654.371 1.13744 -3.43139 0
M  V30 6894 O 654.092 0.114259 -4.37951 0
M  V30 6895 C 655.593 1.8805 -4.01438 0
M  V30 6896 H 652.813 0.137962 -0.656664 0
M  V30 6897 H 655.357 -0.226359 -2.03243 0
M  V30 6898 H 653.512 1.84056 -3.40885 0
M  V30 6899 H 653.926 0.56058 -5.21496 0
M  V30 6900 H 655.4 2.26133 -5.03555 0
M  V30 6901 H 655.877 2.76194 -3.41487 0
M  V30 6902 H 656.483 1.22464 -4.07287 0
M  V30 6903 N 654.798 1.5699 0.138552 0
M  V30 6904 C 655.761 1.97984 1.15478 0
M  V30 6905 C 656.761 0.867416 1.35398 0
M  V30 6906 O 657.951 1.13387 1.32246 0
M  V30 6907 C 655.083 2.3031 2.51337 0
M  V30 6908 H 656.276 2.88953 0.802896 0
M  V30 6909 H 653.829 1.51555 0.382189 0
M  V30 6910 H 654.564 1.42159 2.91481 0
M  V30 6911 H 654.349 3.11425 2.38237 0
M  V30 6912 H 655.839 2.62834 3.24512 0
M  V30 6913 N 656.276 -0.40816 1.52223 0
M  V30 6914 C 657.692 -0.74685 1.41047 0
M  V30 6915 C 657.892 -1.94788 0.51573 0
M  V30 6916 O 656.948 -2.52494 -0.0181156 0
M  V30 6917 C 658.261 -0.999878 2.83589 0
M  V30 6918 C 659.809 -1.10253 2.92939 0
M  V30 6919 C 660.284 -1.38832 4.36451 0
M  V30 6920 N 661.775 -1.45694 4.3969 0
M  V30 6921 C 662.51 -1.69435 5.47795 0
M  V30 6922 N 662.006 -1.90774 6.66016 0
M  V30 6923 N 663.799 -1.71458 5.35312 0
M  V30 6924 H 655.95 0.382409 2.08929 0
M  V30 6925 H 658.213 0.108807 0.941735 0
M  V30 6926 H 657.919 -0.189723 3.51188 0
M  V30 6927 H 657.793 -1.91978 3.24691 0
M  V30 6928 H 660.18 -1.90328 2.2552 0
M  V30 6929 H 660.261 -0.160973 2.55293 0
M  V30 6930 H 659.905 -0.592741 5.04429 0
M  V30 6931 H 659.835 -2.34241 4.71634 0
M  V30 6932 H 662.326 -1.3099 3.54472 0
M  V30 6933 H 662.639 -2.08342 7.44186 0
M  V30 6934 H 660.984 -1.88037 6.69079 0
M  V30 6935 H 664.175 -1.54326 4.41929 0
M  V30 6936 H 664.348 -1.89621 6.19635 0
M  V30 6937 N 657.755 -1.42862 -0.66545 0
M  V30 6938 C 658.98 -1.47456 -1.45848 0
M  V30 6939 C 659.405 -0.0900312 -1.87884 0
M  V30 6940 O 658.763 0.913587 -1.56599 0
M  V30 6941 C 658.811 -2.41514 -2.67774 0
M  V30 6942 O 657.915 -1.89296 -3.66389 0
M  V30 6943 H 657.256 -0.499236 -0.437789 0
M  V30 6944 H 659.786 -1.8765 -0.815394 0
M  V30 6945 H 659.796 -2.58409 -3.15735 0
M  V30 6946 H 658.471 -3.42099 -2.36519 0
M  V30 6947 H 657.048 -1.82003 -3.25468 0
M  V30 6948 N 659.233 0.902656 -1.29189 0
M  V30 6949 C 660.458 1.69167 -1.19989 0
M  V30 6950 C 660.883 1.86607 0.236495 0
M  V30 6951 O 660.241 1.38425 1.17082 0
M  V30 6952 C 660.289 3.05532 -1.91527 0
M  V30 6953 O 659.393 3.93621 -1.2303 0
M  V30 6954 H 658.734 0.517584 -0.415936 0
M  V30 6955 H 661.264 1.12785 -1.70706 0
M  V30 6956 H 661.274 3.55693 -1.99866 0
M  V30 6957 H 659.949 2.92156 -2.96003 0
M  V30 6958 H 658.526 3.52055 -1.22928 0
M  V30 6959 N 660.711 1.11618 1.11262 0
M  V30 6960 C 661.957 0.867463 1.83311 0
M  V30 6961 C 662.29 -0.605366 1.84524 0
M  V30 6962 O 661.565 -1.44704 1.29965 0
M  V30 6963 C 661.848 1.43207 3.30399 0
M  V30 6964 C 661.701 2.97265 3.3757 0
M  V30 6965 C 663.02 1.08454 4.26528 0
M  V30 6966 H 660.139 0.316578 0.665543 0
M  V30 6967 H 662.781 1.38137 1.30454 0
M  V30 6968 H 660.931 0.994982 3.75543 0
M  V30 6969 H 662.603 3.49591 3.00971 0
M  V30 6970 H 660.846 3.33237 2.77733 0
M  V30 6971 H 661.517 3.31859 4.41105 0
M  V30 6972 H 663.993 1.4619 3.89574 0
M  V30 6973 H 662.869 1.50633 5.27826 0
M  V30 6974 H 663.13 -0.00444568 4.421 0
M  V30 6975 N 662.189 -1.289 0.906776 0
M  V30 6976 C 663.466 -1.90221 0.455537 0
M  V30 6977 C 663.846 -1.82251 -1.06527 0
M  V30 6978 O 663.194 -1.25385 -1.91026 0
M  V30 6979 C 663.404 -3.35015 0.97806 0
M  V30 6980 C 664.752 -4.12018 1.02598 0
M  V30 6981 O 665.776 -3.43947 0.926218 0
M  V30 6982 O 664.635 -5.33677 1.17689 0
M  V30 6983 H 661.729 -0.814505 0.143214 0
M  V30 6984 H 664.275 -1.37317 0.997104 0
M  V30 6985 H 663.047 -3.35006 2.02204 0
M  V30 6986 H 662.67 -3.95408 0.416914 0
M  V30 6987 N 663.667 -0.670007 -1.42649 0
M  V30 6988 C 664.913 -0.19923 -2.02422 0
M  V30 6989 C 665.268 1.17947 -1.52007 0
M  V30 6990 O 664.561 1.77939 -0.710512 0
M  V30 6991 C 664.755 -0.168298 -3.57004 0
M  V30 6992 C 664.584 -1.54246 -4.22419 0
M  V30 6993 C 663.354 -2.13904 -4.57792 0
M  V30 6994 C 665.552 -2.4842 -4.50324 0
M  V30 6995 N 663.534 -3.44151 -5.08364 0
M  V30 6996 C 664.905 -3.63317 -5.02395 0
M  V30 6997 C 666.96 -2.47011 -4.32308 0
M  V30 6998 C 665.663 -4.77051 -5.38345 0
M  V30 6999 C 667.689 -3.59838 -4.6933 0
M  V30 7000 C 667.051 -4.73462 -5.21549 0
M  V30 7001 H 663.15 -0.117717 -0.773089 0
M  V30 7002 H 665.734 -0.881955 -1.73579 0
M  V30 7003 H 663.905 0.483824 -3.85375 0
M  V30 7004 H 665.637 0.314914 -4.03473 0
M  V30 7005 H 662.392 -1.66441 -4.4339 0
M  V30 7006 H 662.816 -4.10846 -5.38084 0
M  V30 7007 H 667.458 -1.60394 -3.91195 0
M  V30 7008 H 665.176 -5.64347 -5.78393 0
M  V30 7009 H 668.762 -3.59969 -4.57071 0
M  V30 7010 H 667.642 -5.59321 -5.49663 0
M  V30 7011 N 665.145 1.52092 -0.413018 0
M  V30 7012 C 666.077 2.24819 0.445994 0
M  V30 7013 C 667.09 1.27925 1.00692 0
M  V30 7014 O 668.279 1.53845 0.905204 0
M  V30 7015 C 665.379 2.96951 1.6332 0
M  V30 7016 C 664.552 4.20746 1.19548 0
M  V30 7017 C 663.611 4.75668 2.25003 0
M  V30 7018 O 662.637 5.38148 1.85434 0
M  V30 7019 N 663.839 4.57579 3.57214 0
M  V30 7020 H 666.604 2.99176 -0.177209 0
M  V30 7021 H 664.165 1.60102 -0.240601 0
M  V30 7022 H 666.157 3.30586 2.33441 0
M  V30 7023 H 664.727 2.25756 2.16225 0
M  V30 7024 H 663.947 3.92881 0.32224 0
M  V30 7025 H 665.235 5.01132 0.880033 0
M  V30 7026 H 664.633 4.07758 3.92109 0
M  V30 7027 H 663.19 4.95642 4.23299 0
M  V30 7028 N 666.623 0.143563 1.56945 0
M  V30 7029 C 667.872 -0.50835 1.95189 0
M  V30 7030 C 668.185 -1.66239 1.03073 0
M  V30 7031 O 669.391 -2.3787 1.30882 0
M  V30 7032 C 667.847 -0.955735 3.46978 0
M  V30 7033 C 667.455 0.171183 4.47673 0
M  V30 7034 C 669.199 -1.57763 3.94095 0
M  V30 7035 C 667.106 -0.294279 5.90667 0
M  V30 7036 H 666.036 -0.193679 0.728701 0
M  V30 7037 H 668.687 0.227357 1.82086 0
M  V30 7038 H 667.069 -1.7466 3.55401 0
M  V30 7039 H 668.243 0.948049 4.50942 0
M  V30 7040 H 666.558 0.701273 4.10452 0
M  V30 7041 H 669.155 -1.93745 4.98364 0
M  V30 7042 H 669.498 -2.46531 3.35452 0
M  V30 7043 H 670.031 -0.851728 3.88575 0
M  V30 7044 H 666.77 0.557939 6.53121 0
M  V30 7045 H 666.29 -1.0371 5.90766 0
M  V30 7046 H 667.969 -0.747426 6.42668 0
M  V30 7047 N 668.101 -1.57061 -0.130224 0
M  V30 7048 C 669.517 -1.52103 -0.483413 0
M  V30 7049 C 669.717 -0.854752 -1.82473 0
M  V30 7050 O 668.773 -0.432342 -2.48771 0
M  V30 7051 C 670.086 -2.96872 -0.47825 0
M  V30 7052 C 671.634 -3.07902 -0.562592 0
M  V30 7053 C 672.109 -4.54211 -0.587929 0
M  V30 7054 N 673.6 -4.58621 -0.649684 0
M  V30 7055 C 674.335 -5.69227 -0.690551 0
M  V30 7056 N 673.831 -6.89358 -0.689743 0
M  V30 7057 N 675.624 -5.57304 -0.732708 0
M  V30 7058 H 667.775 -1.98764 0.748779 0
M  V30 7059 H 670.038 -0.907248 0.274965 0
M  V30 7060 H 669.744 -3.48944 0.439444 0
M  V30 7061 H 669.618 -3.53716 -1.31013 0
M  V30 7062 H 672.005 -2.5584 -1.47071 0
M  V30 7063 H 672.086 -2.54073 0.296764 0
M  V30 7064 H 671.73 -5.06915 0.316096 0
M  V30 7065 H 671.66 -5.0584 -1.46401 0
M  V30 7066 H 674.151 -3.72146 -0.656927 0
M  V30 7067 H 674.464 -7.69408 -0.723239 0
M  V30 7068 H 672.809 -6.91884 -0.657347 0
M  V30 7069 H 676 -4.62363 -0.730625 0
M  V30 7070 H 676.173 -6.43515 -0.76109 0
M  V30 7071 N 669.579 0.400081 -1.52437 0
M  V30 7072 C 670.511 1.50729 -1.72666 0
M  V30 7073 C 671.524 1.51058 -0.607075 0
M  V30 7074 O 672.713 1.5516 -0.88248 0
M  V30 7075 C 669.813 2.89604 -1.76019 0
M  V30 7076 C 668.986 3.13365 -3.05157 0
M  V30 7077 C 668.045 4.32163 -3.00203 0
M  V30 7078 O 667.071 4.29004 -3.74092 0
M  V30 7079 N 668.273 5.3776 -2.18619 0
M  V30 7080 H 671.038 1.33767 -2.68191 0
M  V30 7081 H 668.599 0.58948 -1.50787 0
M  V30 7082 H 670.591 3.67159 -1.70225 0
M  V30 7083 H 669.161 2.99979 -0.879284 0
M  V30 7084 H 668.381 2.23774 -3.24529 0
M  V30 7085 H 669.669 3.26089 -3.90568 0
M  V30 7086 H 669.067 5.43177 -1.58035 0
M  V30 7087 H 667.624 6.14023 -2.18674 0
M  V30 7088 N 671.057 1.43213 0.657864 0
M  V30 7089 C 672.303 1.44798 1.41991 0
M  V30 7090 C 672.636 0.070256 1.94073 0
M  V30 7091 O 671.911 -0.908177 1.71995 0
M  V30 7092 C 672.194 2.4865 2.60471 0
M  V30 7093 C 672.047 3.95679 2.13911 0
M  V30 7094 C 673.366 2.49292 3.62686 0
M  V30 7095 H 670.485 0.527244 0.514959 0
M  V30 7096 H 673.127 1.74733 0.74621 0
M  V30 7097 H 671.277 2.23254 3.17946 0
M  V30 7098 H 672.949 4.32116 1.61472 0
M  V30 7099 H 671.192 4.08733 1.45325 0
M  V30 7100 H 671.863 4.6395 2.99089 0
M  V30 7101 H 674.339 2.71917 3.14961 0
M  V30 7102 H 673.215 3.23907 4.43143 0
M  V30 7103 H 673.476 1.52502 4.14964 0
M  V30 7104 N 672.536 -0.895792 1.29666 0
M  V30 7105 C 673.952 -1.17726 1.07763 0
M  V30 7106 C 674.152 -2.00794 -0.168576 0
M  V30 7107 O 673.208 -2.37213 -0.865244 0
M  V30 7108 C 674.521 -1.89441 2.33522 0
M  V30 7109 C 676.069 -2.02251 2.3888 0
M  V30 7110 C 676.544 -2.77378 3.64452 0
M  V30 7111 N 678.035 -2.8493 3.65198 0
M  V30 7112 C 678.77 -3.43606 4.59045 0
M  V30 7113 N 678.266 -4.03417 5.63228 0
M  V30 7114 N 680.059 -3.41317 4.46608 0
M  V30 7115 H 672.21 -0.341652 2.09634 0
M  V30 7116 H 674.473 -0.213865 0.923561 0
M  V30 7117 H 674.179 -1.35842 3.24407 0
M  V30 7118 H 674.053 -2.89893 2.41334 0
M  V30 7119 H 676.44 -2.55025 1.4848 0
M  V30 7120 H 676.521 -1.0092 2.3505 0
M  V30 7121 H 676.165 -2.25279 4.55205 0
M  V30 7122 H 676.095 -3.79062 3.65541 0
M  V30 7123 H 678.586 -2.42453 2.89871 0
M  V30 7124 H 678.899 -4.46224 6.30955 0
M  V30 7125 H 677.244 -4.01868 5.67033 0
M  V30 7126 H 680.435 -2.93812 3.64407 0
M  V30 7127 H 680.608 -3.86751 5.1993 0
M  V30 7128 N 674.014 -1.12206 -1.10668 0
M  V30 7129 C 674.977 -0.790867 -2.15123 0
M  V30 7130 C 675.977 0.193618 -1.5963 0
M  V30 7131 O 677.167 -0.0318728 -1.74171 0
M  V30 7132 C 674.299 -0.174797 -3.40452 0
M  V30 7133 H 675.492 -1.7163 -2.45933 0
M  V30 7134 H 673.045 -0.924993 -1.2599 0
M  V30 7135 H 673.78 0.760478 -3.15257 0
M  V30 7136 H 673.565 -0.88358 -3.82015 0
M  V30 7137 H 675.055 0.0405162 -4.1758 0
M  V30 7138 N 675.492 1.28418 -0.913599 0
M  V30 7139 C 676.422 2.29713 -0.418847 0
M  V30 7140 C 677.403 1.62165 0.513469 0
M  V30 7141 O 678.588 1.89576 0.421235 0
M  V30 7142 C 675.718 3.45612 0.342042 0
M  V30 7143 C 674.672 4.25056 -0.501123 0
M  V30 7144 C 673.998 5.3329 0.388097 0
M  V30 7145 C 675.298 4.91814 -1.75831 0
M  V30 7146 H 676.992 2.71346 -1.26538 0
M  V30 7147 H 674.538 1.30446 -0.609903 0
M  V30 7148 H 676.491 4.15562 0.699 0
M  V30 7149 H 675.215 3.02858 1.22248 0
M  V30 7150 H 673.874 3.56833 -0.840598 0
M  V30 7151 H 673.522 4.8678 1.26707 0
M  V30 7152 H 673.222 5.87347 -0.172459 0
M  V30 7153 H 674.746 6.06088 0.74094 0
M  V30 7154 H 676.16 5.54126 -1.47026 0
M  V30 7155 H 674.557 5.55866 -2.26126 0
M  V30 7156 H 675.627 4.16313 -2.4862 0
M  V30 7157 N 676.97 0.677563 1.42291 0
M  V30 7158 C 677.9 0.014968 2.33495 0
M  V30 7159 C 678.881 -0.786376 1.50831 0
M  V30 7160 O 680.066 -0.742975 1.79426 0
M  V30 7161 C 677.196 -0.935023 3.34477 0
M  V30 7162 C 676.15 -0.242074 4.27315 0
M  V30 7163 C 675.476 -1.30519 5.18526 0
M  V30 7164 C 676.776 0.880604 5.14823 0
M  V30 7165 H 678.47 0.776671 2.89151 0
M  V30 7166 H 676.016 0.37494 1.39033 0
M  V30 7167 H 677.969 -1.40766 3.97194 0
M  V30 7168 H 676.693 -1.72818 2.77131 0
M  V30 7169 H 675.352 0.210351 3.65996 0
M  V30 7170 H 675 -2.09041 4.57505 0
M  V30 7171 H 674.7 -0.846652 5.81468 0
M  V30 7172 H 676.224 -1.7787 5.84119 0
M  V30 7173 H 677.638 0.489062 5.7121 0
M  V30 7174 H 676.035 1.26511 5.86613 0
M  V30 7175 H 677.105 1.72818 4.53059 0
M  V30 7176 N 678.448 -1.51871 0.421078 0
M  V30 7177 C 679.38 -2.25052 -0.434065 0
M  V30 7178 C 680.393 -1.28458 -1.00013 0
M  V30 7179 O 681.582 -1.54323 -0.897033 0
M  V30 7180 C 678.682 -2.97813 -1.61743 0
M  V30 7181 C 677.855 -4.21374 -1.17315 0
M  V30 7182 C 676.914 -4.76854 -2.22478 0
M  V30 7183 O 675.94 -5.39123 -1.82577 0
M  V30 7184 N 677.142 -4.59467 -3.54782 0
M  V30 7185 H 679.907 -2.99077 0.193073 0
M  V30 7186 H 677.468 -1.59972 0.249088 0
M  V30 7187 H 679.46 -3.3182 -2.31685 0
M  V30 7188 H 678.03 -2.26899 -2.15024 0
M  V30 7189 H 677.25 -3.93046 -0.3014 0
M  V30 7190 H 678.538 -5.01591 -0.853444 0
M  V30 7191 H 677.936 -4.09832 -3.89941 0
M  V30 7192 H 676.493 -4.9788 -4.20665 0
M  V30 7193 N 679.926 -0.151884 -1.56866 0
M  V30 7194 C 680.889 0.771861 -2.15812 0
M  V30 7195 C 681.889 1.17181 -1.10115 0
M  V30 7196 O 683.079 1.09194 -1.35729 0
M  V30 7197 C 680.211 2.04806 -2.7252 0
M  V30 7198 H 681.404 0.259021 -2.98779 0
M  V30 7199 H 678.957 0.097588 -1.55995 0
M  V30 7200 H 679.692 2.60445 -1.93233 0
M  V30 7201 H 679.477 1.77044 -3.49854 0
M  V30 7202 H 680.967 2.70771 -3.1792 0
M  V30 7203 N 681.404 1.57128 0.121893 0
M  V30 7204 C 682.336 1.96773 1.17529 0
M  V30 7205 C 683.349 0.866668 1.37814 0
M  V30 7206 O 684.538 1.14497 1.3694 0
M  V30 7207 C 681.638 2.24832 2.53582 0
M  V30 7208 C 680.811 3.56138 2.53939 0
M  V30 7209 C 679.87 3.72443 3.71716 0
M  V30 7210 O 678.896 4.44584 3.55434 0
M  V30 7211 N 680.098 3.10993 4.90167 0
M  V30 7212 H 682.863 2.87743 0.838086 0
M  V30 7213 H 680.424 1.58881 0.311199 0
M  V30 7214 H 682.416 2.32958 3.30927 0
M  V30 7215 H 680.986 1.40002 2.79496 0
M  V30 7216 H 680.206 3.59226 1.62329 0
M  V30 7217 H 681.494 4.42448 2.51231 0
M  V30 7218 H 680.892 2.52345 5.06299 0
M  V30 7219 H 679.449 3.24644 5.65198 0
M  V30 7220 N 682.882 -0.391992 1.52647 0
M  V30 7221 C 683.814 -1.49811 1.73463 0
M  V30 7222 C 684.827 -1.50734 0.615078 0
M  V30 7223 O 686.016 -1.5469 0.890696 0
M  V30 7224 C 683.116 -2.88667 1.77552 0
M  V30 7225 C 682.289 -3.11743 3.06815 0
M  V30 7226 C 681.348 -4.30564 3.02491 0
M  V30 7227 O 680.374 -4.27014 3.76361 0
M  V30 7228 N 681.576 -5.36593 2.21468 0
M  V30 7229 H 684.341 -1.32343 2.68897 0
M  V30 7230 H 681.902 -0.581475 1.51098 0
M  V30 7231 H 683.894 -3.66251 1.7217 0
M  V30 7232 H 682.464 -2.99508 0.895181 0
M  V30 7233 H 681.684 -2.2205 3.25711 0
M  V30 7234 H 682.972 -3.24013 3.92292 0
M  V30 7235 H 682.37 -5.42332 1.60913 0
M  V30 7236 H 680.927 -6.12855 2.21928 0
M  V30 7237 N 684.36 -1.4356 -0.65026 0
M  V30 7238 C 685.323 -1.48615 -1.74489 0
M  V30 7239 C 686.323 -0.370483 -1.56474 0
M  V30 7240 O 687.513 -0.632351 -1.62317 0
M  V30 7241 C 684.645 -1.34161 -3.13391 0
M  V30 7242 H 685.838 -2.46103 -1.71387 0
M  V30 7243 H 683.391 -1.30369 -0.862186 0
M  V30 7244 H 684.126 -0.376918 -3.22102 0
M  V30 7245 H 683.911 -2.1504 -3.27872 0
M  V30 7246 H 685.401 -1.40637 -3.93206 0
M  V30 7247 O 685.877 0.793351 -1.40671 0
M  V30 7248 H 686.568 1.43915 -1.29646 0
M  V30 END ATOM
M  V30 BEGIN BOND
M  V30 END BOND
M  V30 END CTAB
M  END
$$$$
