drugbank_target|Q14956 Transmembrane glycoprotein NMB (DB05996)
 OpenBabel12092120333D

  0  0  0     0  0            999 V3000
M  V30 BEGIN CTAB
M  V30 COUNTS 8905 9030 0 0 0
M  V30 BEGIN ATOM
M  V30 1 H -0.908 1.98254 -0.117106 0
M  V30 2 N 0 1.576 0 0
M  V30 3 C 0.933 2.03868 1.02534 0
M  V30 4 C 1.911 0.928543 1.3348 0
M  V30 5 O 3.095 1.19667 1.45644 0
M  V30 6 C 0.222 2.43627 2.35294 0
M  V30 7 C -0.732 3.65373 2.2001 0
M  V30 8 S 0.101 5.13292 1.52614 0
M  V30 9 C 1.257 5.56322 2.86805 0
M  V30 10 H 1.49 2.90518 0.631377 0
M  V30 11 H -0.977 1.52953 0.210867 0
M  V30 12 H 0.981 2.67203 3.11629 0
M  V30 13 H -0.358 1.57376 2.7183 0
M  V30 14 H -1.165 3.90944 3.18086 0
M  V30 15 H -1.563 3.418 1.51819 0
M  V30 16 H 0.729 5.58782 3.83104 0
M  V30 17 H 1.672 6.56266 2.65933 0
M  V30 18 H 2.08 4.83886 2.90714 0
M  V30 19 N 1.4781 -0.272755 1.55222 0
M  V30 20 C 2.3881 -1.35918 1.91216 0
M  V30 21 C 3.4041 -1.54026 0.809436 0
M  V30 22 O 4.5801 -1.68148 1.10852 0
M  V30 23 C 1.6451 -2.69834 2.17693 0
M  V30 24 C 0.7061 -2.6047 3.41253 0
M  V30 25 C -0.0609 -3.88 3.66458 0
M  V30 26 O 0.1621 -4.88693 2.94169 0
M  V30 27 O -0.9039 -3.88189 4.59992 0
M  V30 28 H 2.9221 -1.0839 2.83699 0
M  V30 29 H 0.5071 -0.471301 1.41771 0
M  V30 30 H 2.3891 -3.49017 2.36147 0
M  V30 31 H 1.0641 -2.97148 1.28392 0
M  V30 32 H -0.0289 -1.79663 3.28134 0
M  V30 33 H 1.3041 -2.38106 4.30774 0
M  V30 34 N 2.9562 -1.48159 -0.537278 0
M  V30 35 C 4.1962 -1.57397 -1.30405 0
M  V30 36 C 4.5602 -0.239202 -1.90504 0
M  V30 37 O 5.7612 -0.206528 -2.68005 0
M  V30 38 C 4.0322 -2.6754 -2.36974 0
M  V30 39 S 5.5912 -2.96496 -3.23475 0
M  V30 40 H 2.4092 -0.555577 -0.443684 0
M  V30 41 H 5.0112 -1.85644 -0.612912 0
M  V30 42 H 3.7152 -3.63092 -1.91291 0
M  V30 43 H 3.2462 -2.41172 -3.10805 0
M  V30 44 H 5.2612 -2.35234 -4.36897 0
M  V30 45 N 4.4343 0.785586 -1.36625 0
M  V30 46 C 5.3643 1.91259 -1.33949 0
M  V30 47 C 6.3453 1.68795 -0.210325 0
M  V30 48 O 7.5303 1.89854 -0.408561 0
M  V30 49 C 4.6603 3.28339 -1.13186 0
M  V30 50 C 3.6143 3.65335 -2.22967 0
M  V30 51 C 2.9403 5.00806 -1.87342 0
M  V30 52 C 4.2403 3.7352 -3.65075 0
M  V30 53 H 5.9343 1.93755 -2.28253 0
M  V30 54 H 3.4803 0.930788 -1.09874 0
M  V30 55 H 5.4333 4.06804 -1.09948 0
M  V30 56 H 4.1573 3.2624 -0.153332 0
M  V30 57 H 2.8163 2.89169 -2.25337 0
M  V30 58 H 2.4643 4.95233 -0.880545 0
M  V30 59 H 2.1643 5.26529 -2.60846 0
M  V30 60 H 3.6883 5.81687 -1.85667 0
M  V30 61 H 5.1023 4.42168 -3.64911 0
M  V30 62 H 3.4993 4.10731 -4.37516 0
M  V30 63 H 4.5693 2.74527 -3.99703 0
M  V30 64 N 5.9124 1.20967 1.01018 0
M  V30 65 C 7.1424 1.04803 1.78044 0
M  V30 66 C 7.5504 -0.405462 1.84804 0
M  V30 67 O 6.8934 -1.2932 1.30468 0
M  V30 68 C 6.9554 1.56377 3.23707 0
M  V30 69 C 6.6194 3.04767 3.40538 0
M  V30 70 C 7.6164 4.02366 3.29239 0
M  V30 71 C 5.3014 3.43862 3.66147 0
M  V30 72 C 7.2954 5.37049 3.43304 0
M  V30 73 C 4.9824 4.78699 3.79855 0
M  V30 74 C 5.9804 5.75101 3.68439 0
M  V30 75 O 5.6684 7.07493 3.81719 0
M  V30 76 H 5.4004 0.368778 0.56655 0
M  V30 77 H 7.9544 1.60642 1.27997 0
M  V30 78 H 6.1844 0.949297 3.74867 0
M  V30 79 H 7.8734 1.36136 3.8239 0
M  V30 80 H 8.6394 3.73506 3.09384 0
M  V30 81 H 4.5184 2.69364 3.74118 0
M  V30 82 H 8.0624 6.12277 3.34309 0
M  V30 83 H 3.9594 5.07247 3.99213 0
M  V30 84 H 4.7274 7.1483 3.98697 0
M  V30 85 N 7.3905 -1.2043 1.01659 0
M  V30 86 C 8.6205 -1.93496 0.724081 0
M  V30 87 C 9.0285 -1.74998 -0.71918 0
M  V30 88 O 8.3715 -1.06118 -1.49949 0
M  V30 89 C 8.4335 -3.45886 0.97994 0
M  V30 90 C 8.0975 -3.88145 2.41232 0
M  V30 91 C 9.0945 -3.93907 3.39313 0
M  V30 92 C 6.7795 -4.20134 2.75305 0
M  V30 93 C 8.7735 -4.31069 4.6953 0
M  V30 94 C 6.4605 -4.56971 4.05735 0
M  V30 95 C 7.4585 -4.62411 5.02658 0
M  V30 96 O 7.1465 -4.98403 6.30754 0
M  V30 97 H 6.8785 -0.621824 0.265162 0
M  V30 98 H 9.4325 -1.53867 1.36066 0
M  V30 99 H 7.6625 -3.85639 0.286198 0
M  V30 100 H 9.3515 -4.0018 0.679021 0
M  V30 101 H 10.1175 -3.69357 3.14325 0
M  V30 102 H 5.9965 -4.1509 2.00551 0
M  V30 103 H 9.5405 -4.3523 5.45179 0
M  V30 104 H 5.4375 -4.80977 4.30502 0
M  V30 105 H 6.2055 -5.16395 6.35042 0
M  V30 106 N 8.8686 -0.792821 -1.36206 0
M  V30 107 C 10.1156 -0.366786 -1.99151 0
M  V30 108 C 10.4436 1.06243 -1.62919 0
M  V30 109 O 9.6986 1.74927 -0.877442 0
M  V30 110 C 9.9976 -0.481501 -3.54142 0
M  V30 111 C 9.6636 -1.87202 -4.10203 0
M  V30 112 C 8.3256 -2.25248 -4.25226 0
M  V30 113 C 10.6776 -2.78237 -4.40719 0
M  V30 114 C 8.0056 -3.53723 -4.68078 0
M  V30 115 C 10.3576 -4.06144 -4.85005 0
M  V30 116 C 9.0216 -4.44207 -4.98234 0
M  V30 117 H 8.2916 -0.134217 -0.728743 0
M  V30 118 H 10.9386 -1.01094 -1.62641 0
M  V30 119 H 9.2436 0.246146 -3.91026 0
M  V30 120 H 10.9406 -0.132844 -4.0078 0
M  V30 121 H 7.5306 -1.56639 -3.98951 0
M  V30 122 H 11.7146 -2.50097 -4.28679 0
M  V30 123 H 6.9706 -3.8308 -4.76508 0
M  V30 124 H 11.1446 -4.76796 -5.07581 0
M  V30 125 H 8.7716 -5.43814 -5.31197 0
M  V30 126 N 10.3467 1.47872 -0.545128 0
M  V30 127 C 11.2767 2.32661 0.197793 0
M  V30 128 C 12.2577 1.43041 0.920504 0
M  V30 129 O 13.4427 1.71912 0.90333 0
M  V30 130 C 10.5727 3.24569 1.23582 0
M  V30 131 C 9.5267 4.23333 0.630323 0
M  V30 132 C 8.8527 5.0448 1.77211 0
M  V30 133 C 10.1527 5.20704 -0.407974 0
M  V30 134 H 11.8467 2.95024 -0.510045 0
M  V30 135 H 9.3927 1.4187 -0.246731 0
M  V30 136 H 11.3457 3.8272 1.76362 0
M  V30 137 H 10.0697 2.60236 1.97344 0
M  V30 138 H 8.7287 3.6639 0.123922 0
M  V30 139 H 8.3767 4.36561 2.49847 0
M  V30 140 H 8.0767 5.71339 1.37281 0
M  V30 141 H 9.6007 5.65487 2.3034 0
M  V30 142 H 11.0147 5.7329 0.033305 0
M  V30 143 H 9.4117 5.95699 -0.725486 0
M  V30 144 H 10.4817 4.66917 -1.30828 0
M  V30 145 N 11.8248 0.280983 1.55075 0
M  V30 146 C 13.0728 -0.333455 1.9933 0
M  V30 147 C 13.3938 -1.55937 1.17085 0
M  V30 148 O 12.6638 -1.94143 0.261805 0
M  V30 149 H 11.2438 -0.126197 0.736263 0
M  V30 150 H 13.9058 0.387678 1.91005 0
M  V30 151 H 13.0018 -0.619292 3.05894 0
M  V30 152 N 13.3029 -1.57598 0.00835791 0
M  V30 153 C 14.5499 -1.90928 -0.674732 0
M  V30 154 C 14.8779 -0.88277 -1.73313 0
M  V30 155 O 14.1329 0.111294 -1.95383 0
M  V30 156 C 14.4319 -3.3101 -1.34787 0
M  V30 157 C 14.0979 -4.48922 -0.421861 0
M  V30 158 C 12.7599 -4.8091 -0.166927 0
M  V30 159 C 15.1119 -5.20755 0.215211 0
M  V30 160 C 12.4399 -5.821 0.733232 0
M  V30 161 C 14.7919 -6.22905 1.1033 0
M  V30 162 C 13.4559 -6.53346 1.36733 0
M  V30 163 H 12.7259 -0.698656 -0.246902 0
M  V30 164 H 15.3729 -1.91387 0.0656779 0
M  V30 165 H 13.6779 -3.26714 -2.16253 0
M  V30 166 H 15.3749 -3.54061 -1.8826 0
M  V30 167 H 11.9649 -4.23934 -0.630729 0
M  V30 168 H 16.1489 -4.9629 0.0312829 0
M  V30 169 H 11.4049 -6.04042 0.945712 0
M  V30 170 H 15.5789 -6.77694 1.60325 0
M  V30 171 H 13.2059 -7.31573 2.06652 0
M  V30 172 N 14.781 0.264519 -1.55364 0
M  V30 173 C 15.711 1.33121 -1.91836 0
M  V30 174 C 16.692 1.51101 -0.781192 0
M  V30 175 O 17.877 1.64003 -1.04003 0
M  V30 176 C 15.007 2.68921 -2.19769 0
M  V30 177 C 13.961 2.65661 -3.35571 0
M  V30 178 C 13.287 4.05093 -3.49004 0
M  V30 179 C 14.587 2.24187 -4.71739 0
M  V30 180 H 16.281 1.02844 -2.81182 0
M  V30 181 H 13.827 0.493286 -1.35287 0
M  V30 182 H 15.78 3.43663 -2.43872 0
M  V30 183 H 14.504 3.00799 -1.27231 0
M  V30 184 H 13.163 1.93377 -3.1145 0
M  V30 185 H 12.811 4.34206 -2.53917 0
M  V30 186 H 12.511 4.03804 -4.26868 0
M  V30 187 H 14.035 4.81561 -3.75408 0
M  V30 188 H 15.449 2.88654 -4.9533 0
M  V30 189 H 13.846 2.34044 -5.52579 0
M  V30 190 H 14.916 1.19327 -4.69988 0
M  V30 191 N 16.2591 1.48442 0.529413 0
M  V30 192 C 17.1891 1.65902 1.64313 0
M  V30 193 C 18.1701 0.507897 1.6234 0
M  V30 194 O 19.3551 0.740503 1.79528 0
M  V30 195 C 16.4851 1.69911 3.02898 0
M  V30 196 C 15.4391 2.8453 3.19729 0
M  V30 197 C 14.7651 2.73629 4.59381 0
M  V30 198 C 16.0651 4.25821 3.02447 0
M  V30 199 H 17.7591 2.5914 1.49955 0
M  V30 200 H 15.3051 1.24709 0.719982 0
M  V30 201 H 17.2581 1.80715 3.80684 0
M  V30 202 H 15.9821 0.732524 3.18279 0
M  V30 203 H 14.6411 2.73283 2.44361 0
M  V30 204 H 14.2891 1.74938 4.71599 0
M  V30 205 H 13.9891 3.50541 4.71588 0
M  V30 206 H 15.5131 2.86401 5.39265 0
M  V30 207 H 16.9271 4.37898 3.70024 0
M  V30 208 H 15.3241 5.03735 3.26146 0
M  V30 209 H 16.3941 4.42244 1.98867 0
M  V30 210 N 17.7372 -0.778329 1.37039 0
M  V30 211 C 18.6672 -1.90546 1.34962 0
M  V30 212 C 19.6482 -1.68681 0.219274 0
M  V30 213 O 20.8332 -1.89634 0.418624 0
M  V30 214 C 17.9632 -3.27734 1.14925 0
M  V30 215 C 16.9172 -3.64147 2.24902 0
M  V30 216 C 16.2432 -4.99806 1.89996 0
M  V30 217 C 17.5432 -3.71579 3.67051 0
M  V30 218 H 19.2372 -1.92541 2.29277 0
M  V30 219 H 16.7832 -0.924948 1.10366 0
M  V30 220 H 18.7362 -4.06215 1.12104 0
M  V30 221 H 17.4602 -3.26154 0.170631 0
M  V30 222 H 16.1192 -2.8797 2.26868 0
M  V30 223 H 15.7672 -4.94759 0.906796 0
M  V30 224 H 15.4672 -5.25139 2.63634 0
M  V30 225 H 16.9912 -5.80694 1.88749 0
M  V30 226 H 18.4052 -4.40227 3.67251 0
M  V30 227 H 16.8022 -4.08405 4.39688 0
M  V30 228 H 17.8722 -2.72404 4.01154 0
M  V30 229 N 19.2153 -1.21501 -1.00376 0
M  V30 230 C 20.1783 -0.976927 -2.07337 0
M  V30 231 C 21.1783 0.0525322 -1.60714 0
M  V30 232 O 22.3683 -0.184869 -1.73216 0
M  V30 233 C 19.5003 -0.473423 -3.37597 0
M  V30 234 H 20.6933 -1.92587 -2.29892 0
M  V30 235 H 18.2463 -1.03217 -1.17371 0
M  V30 236 H 18.9813 0.480379 -3.20722 0
M  V30 237 H 18.7663 -1.216 -3.72768 0
M  V30 238 H 20.2563 -0.32675 -4.1632 0
M  V30 239 N 20.6934 1.19889 -1.02296 0
M  V30 240 C 21.6564 2.21116 -0.603351 0
M  V30 241 C 22.6564 1.5738 0.329884 0
M  V30 242 O 23.8464 1.73802 0.117702 0
M  V30 243 C 20.9784 3.40696 0.117992 0
M  V30 244 H 22.1714 2.59754 -1.49893 0
M  V30 245 H 19.7244 1.33463 -0.813468 0
M  V30 246 H 20.4594 3.07569 1.0282 0
M  V30 247 H 20.2444 3.88188 -0.552511 0
M  V30 248 H 21.7344 4.15692 0.398696 0
M  V30 249 N 22.1715 0.800033 1.35784 0
M  V30 250 C 23.5875 0.482977 1.52117 0
M  V30 251 C 23.7875 -0.996948 1.75109 0
M  V30 252 O 22.8435 -1.78216 1.78872 0
M  V30 253 C 24.1565 1.32264 2.70049 0
M  V30 254 C 25.7045 1.31742 2.83924 0
M  V30 255 C 26.1795 2.14106 4.04874 0
M  V30 256 N 27.6705 2.11607 4.12039 0
M  V30 257 C 28.4055 2.72099 5.04727 0
M  V30 258 N 27.9015 3.41492 6.02789 0
M  V30 259 N 29.6945 2.61776 4.97423 0
M  V30 260 H 21.8455 1.75856 1.19115 0
M  V30 261 H 24.1085 0.748122 0.582252 0
M  V30 262 H 23.8145 2.37261 2.59616 0
M  V30 263 H 23.6885 0.971303 3.6448 0
M  V30 264 H 26.0755 0.275333 2.93813 0
M  V30 265 H 26.1565 1.70859 1.9037 0
M  V30 266 H 25.8005 3.18351 3.95746 0
M  V30 267 H 25.7305 1.72353 4.97596 0
M  V30 268 H 28.2215 1.61112 3.41835 0
M  V30 269 H 28.5345 3.84953 6.70098 0
M  V30 270 H 26.8795 3.45596 6.02983 0
M  V30 271 H 30.0705 2.07157 4.19766 0
M  V30 272 H 30.2435 3.0921 5.69468 0
M  V30 273 N 23.6496 -1.47581 0.552962 0
M  V30 274 C 24.5796 -2.32762 -0.185451 0
M  V30 275 C 25.5606 -1.43527 -0.912905 0
M  V30 276 O 26.7456 -1.72388 -0.894201 0
M  V30 277 C 23.8756 -3.25219 -1.21859 0
M  V30 278 C 22.8296 -4.23661 -0.607864 0
M  V30 279 C 22.1556 -5.05413 -1.74533 0
M  V30 280 C 23.4556 -5.20481 0.435582 0
M  V30 281 H 25.1496 -2.94749 0.525684 0
M  V30 282 H 22.6956 -1.41738 0.254251 0
M  V30 283 H 24.6486 -3.8365 -1.7433 0
M  V30 284 H 23.3726 -2.61279 -1.95961 0
M  V30 285 H 22.0316 -3.66451 -0.104489 0
M  V30 286 H 21.6796 -4.3788 -2.47529 0
M  V30 287 H 21.3796 -5.72059 -1.34249 0
M  V30 288 H 22.9036 -5.66701 -2.27338 0
M  V30 289 H 24.3176 -5.733 -0.00290157 0
M  V30 290 H 22.7146 -5.95305 0.757067 0
M  V30 291 H 23.7846 -4.66217 1.33303 0
M  V30 292 N 25.1277 -0.289203 -1.54924 0
M  V30 293 C 26.5387 0.205791 -1.85562 0
M  V30 294 C 26.8897 1.54351 -1.2112 0
M  V30 295 O 26.0147 2.10435 -0.504601 0
M  V30 296 C 26.6097 0.380177 -3.3666 0
M  V30 297 C 25.1687 0.819395 -3.67373 0
M  V30 298 C 24.3157 -0.079159 -2.77187 0
M  V30 299 H 27.2667 -0.510577 -1.50262 0
M  V30 300 H 27.2877 1.21659 -3.60526 0
M  V30 301 H 26.7997 -0.593589 -3.83534 0
M  V30 302 H 24.9007 1.80413 -3.26009 0
M  V30 303 H 25.0137 0.646957 -4.74712 0
M  V30 304 H 23.3777 0.439565 -2.50878 0
M  V30 305 H 24.1607 -1.04906 -3.26878 0
M  V30 306 N 26.6058 1.57591 -0.0167156 0
M  V30 307 C 27.5358 2.12496 0.967858 0
M  V30 308 C 28.5168 1.03807 1.34752 0
M  V30 309 O 29.7018 1.31577 1.42833 0
M  V30 310 C 26.8318 2.64194 2.25431 0
M  V30 311 C 25.7858 3.77559 2.01576 0
M  V30 312 C 25.1118 4.15636 3.36379 0
M  V30 313 C 26.4118 5.04151 1.36489 0
M  V30 314 H 28.1058 2.95013 0.510643 0
M  V30 315 H 25.6518 1.41915 0.244181 0
M  V30 316 H 27.6048 3.01236 2.94678 0
M  V30 317 H 26.3288 1.78821 2.73296 0
M  V30 318 H 24.9878 3.40937 1.34751 0
M  V30 319 H 24.6358 3.27263 3.81979 0
M  V30 320 H 24.3358 4.92022 3.21229 0
M  V30 321 H 25.8598 4.5525 4.06915 0
M  V30 322 H 27.2738 5.38857 1.95718 0
M  V30 323 H 25.6708 5.85453 1.31776 0
M  V30 324 H 26.7408 4.83733 0.336219 0
M  V30 325 N 28.0839 -0.256276 1.55502 0
M  V30 326 C 29.3609 -1.00789 1.67633 0
M  V30 327 C 29.7409 -2.03706 0.553826 0
M  V30 328 O 29.0889 -2.24145 -0.443969 0
M  V30 329 C 29.2989 -1.64968 3.07549 0
M  V30 330 C 30.6469 -2.15505 3.65845 0
M  V30 331 O 31.6709 -1.74925 3.1029 0
M  V30 332 O 30.5299 -2.89986 4.63217 0
M  V30 333 H 27.6239 -0.468553 0.681459 0
M  V30 334 H 30.1699 -0.250806 1.67836 0
M  V30 335 H 28.9419 -0.904785 3.80696 0
M  V30 336 H 28.5649 -2.47321 3.11317 0
M  V30 337 N 29.562 -1.4872 -0.521534 0
M  V30 338 C 30.525 -1.63379 -1.60748 0
M  V30 339 C 31.525 -0.50661 -1.52611 0
M  V30 340 O 32.715 -0.772601 -1.5613 0
M  V30 341 C 29.847 -1.61192 -3.00383 0
M  V30 342 H 31.04 -2.60217 -1.49087 0
M  V30 343 H 28.593 -1.37444 -0.744235 0
M  V30 344 H 29.328 -0.65863 -3.17541 0
M  V30 345 H 29.113 -2.43032 -3.07698 0
M  V30 346 H 30.603 -1.7466 -3.7932 0
M  V30 347 N 31.0401 0.771051 -1.3745 0
M  V30 348 C 32.0031 1.86598 -1.33093 0
M  V30 349 C 33.0031 1.59076 -0.234845 0
M  V30 350 O 34.1931 1.67145 -0.490732 0
M  V30 351 C 31.3251 3.23747 -1.06773 0
M  V30 352 H 32.5181 1.91873 -2.30488 0
M  V30 353 H 30.0711 0.970876 -1.2249 0
M  V30 354 H 30.8061 3.24148 -0.099129 0
M  V30 355 H 30.5911 3.45115 -1.86112 0
M  V30 356 H 32.0811 4.03824 -1.06377 0
M  V30 357 N 32.5182 1.22032 0.997298 0
M  V30 358 C 33.4652 0.986467 2.08656 0
M  V30 359 C 34.4352 -0.0902671 1.65855 0
M  V30 360 O 35.6202 0.0584294 1.90711 0
M  V30 361 C 32.7602 0.565569 3.40434 0
M  V30 362 C 31.8732 1.71259 3.96604 0
M  V30 363 C 31.0082 1.24011 5.16522 0
M  V30 364 C 30.0472 2.35896 5.64818 0
M  V30 365 N 29.1842 1.89726 6.7598 0
M  V30 366 H 34.0242 1.91892 2.27994 0
M  V30 367 H 31.5612 0.956199 1.11782 0
M  V30 368 H 33.5192 0.302738 4.161 0
M  V30 369 H 32.1492 -0.329879 3.2111 0
M  V30 370 H 31.2012 2.08986 3.17851 0
M  V30 371 H 32.5132 2.55436 4.28432 0
M  V30 372 H 31.6672 0.934395 5.99461 0
M  V30 373 H 30.4062 0.368487 4.86306 0
M  V30 374 H 29.4112 2.67261 4.8047 0
M  V30 375 H 30.6362 3.23567 5.97061 0
M  V30 376 H 28.5822 1.0492 6.47555 0
M  V30 377 H 28.4992 2.67471 7.07103 0
M  V30 378 H 29.7672 1.62211 7.62435 0
M  V30 379 N 33.9963 -1.19345 1.0293 0
M  V30 380 C 35.4123 -1.41069 0.746446 0
M  V30 381 C 35.6123 -1.90078 -0.668776 0
M  V30 382 O 34.6683 -2.0778 -1.4347 0
M  V30 383 C 35.9813 -2.42141 1.78292 0
M  V30 384 C 37.5293 -2.55887 1.80252 0
M  V30 385 C 38.0043 -3.60214 2.8286 0
M  V30 386 N 39.4953 -3.67711 2.81679 0
M  V30 387 C 40.2303 -4.48128 3.57727 0
M  V30 388 N 39.7263 -5.32248 4.43491 0
M  V30 389 N 41.5193 -4.42782 3.46267 0
M  V30 390 H 33.6703 -0.858536 1.94275 0
M  V30 391 H 35.9333 -0.439541 0.839945 0
M  V30 392 H 35.6393 -2.13155 2.79746 0
M  V30 393 H 35.5133 -3.41323 1.60557 0
M  V30 394 H 37.9003 -2.84196 0.794757 0
M  V30 395 H 37.9813 -1.56858 2.02062 0
M  V30 396 H 37.6253 -3.32647 3.83807 0
M  V30 397 H 37.5553 -4.58895 2.58307 0
M  V30 398 H 40.0463 -3.07634 2.19476 0
M  V30 399 H 40.3593 -5.90729 4.98256 0
M  V30 400 H 38.7043 -5.31707 4.47564 0
M  V30 401 H 41.8953 -3.76107 2.78677 0
M  V30 402 H 42.0683 -5.05215 4.05785 0
M  V30 403 N 35.4744 -0.807222 -1.35358 0
M  V30 404 C 36.7214 -0.387888 -1.9875 0
M  V30 405 C 37.0494 1.04509 -1.64037 0
M  V30 406 O 36.3044 1.73986 -0.895946 0
M  V30 407 C 36.6034 -0.519036 -3.53611 0
M  V30 408 C 36.2694 -1.91542 -4.08194 0
M  V30 409 C 34.9314 -2.29745 -4.22813 0
M  V30 410 C 37.2834 -2.82896 -4.37744 0
M  V30 411 C 34.6114 -3.58668 -4.643 0
M  V30 412 C 36.9634 -4.11265 -4.8067 0
M  V30 413 C 35.6274 -4.49466 -4.93494 0
M  V30 414 H 34.8974 -0.141938 -0.727279 0
M  V30 415 H 37.5444 -1.02814 -1.6156 0
M  V30 416 H 35.8494 0.204658 -3.91265 0
M  V30 417 H 37.5464 -0.175345 -4.00616 0
M  V30 418 H 34.1364 -1.60862 -3.97268 0
M  V30 419 H 38.3204 -2.54629 -4.26002 0
M  V30 420 H 33.5764 -3.88113 -4.72418 0
M  V30 421 H 37.7504 -4.82153 -5.02496 0
M  V30 422 H 35.3774 -5.49418 -5.25399 0
M  V30 423 N 36.9525 1.47285 -0.560781 0
M  V30 424 C 37.9025 2.27073 0.205384 0
M  V30 425 C 38.8865 1.34569 0.882044 0
M  V30 426 O 40.0785 1.58899 0.77976 0
M  V30 427 C 37.2075 3.20414 1.23247 0
M  V30 428 C 36.2935 4.20399 0.559041 0
M  V30 429 N 36.6845 5.04423 -0.372927 0
M  V30 430 C 34.9825 4.38536 0.812522 0
M  V30 431 C 35.6835 5.76655 -0.764446 0
M  V30 432 N 34.6595 5.43471 -0.11848 0
M  V30 433 H 38.4615 2.89422 -0.511117 0
M  V30 434 H 35.9755 1.57868 -0.380975 0
M  V30 435 H 37.9725 3.76262 1.79534 0
M  V30 436 H 36.6325 2.59623 1.95002 0
M  V30 437 H 37.6435 5.1248 -0.747287 0
M  V30 438 H 34.3205 3.88913 1.51832 0
M  V30 439 H 35.7105 6.54238 -1.53045 0
M  V30 440 N 38.4306 0.297415 1.54768 0
M  V30 441 C 39.7076 -0.365847 1.92148 0
M  V30 442 C 40.0876 -1.71975 1.22424 0
M  V30 443 O 39.4356 -2.25666 0.358739 0
M  V30 444 C 39.6456 -0.484056 3.45627 0
M  V30 445 C 40.9936 -0.756594 4.17805 0
M  V30 446 O 42.0176 -0.568007 3.51642 0
M  V30 447 O 40.8766 -1.11863 5.34929 0
M  V30 448 H 37.9706 -0.203919 0.801465 0
M  V30 449 H 40.5166 0.34521 1.66152 0
M  V30 450 H 39.2886 0.467865 3.88493 0
M  V30 451 H 38.9116 -1.24372 3.77647 0
M  V30 452 N 39.9087 -1.5758 0.0250728 0
M  V30 453 C 41.1547 -1.91917 -0.655413 0
M  V30 454 C 41.4877 -0.901433 -1.72011 0
M  V30 455 O 40.7627 0.0764069 -1.9435 0
M  V30 456 C 41.0457 -3.36751 -1.27558 0
M  V30 457 C 40.8987 -4.49258 -0.220719 0
M  V30 458 C 42.2177 -3.81469 -2.19475 0
M  V30 459 H 39.3367 -0.697925 -0.23679 0
M  V30 460 H 41.9787 -1.89825 0.0815036 0
M  V30 461 H 40.1287 -3.38664 -1.90365 0
M  V30 462 H 41.8007 -4.59478 0.409601 0
M  V30 463 H 40.0437 -4.31415 0.454264 0
M  V30 464 H 40.7147 -5.47618 -0.694175 0
M  V30 465 H 43.1907 -3.81266 -1.66659 0
M  V30 466 H 42.0667 -4.83512 -2.59822 0
M  V30 467 H 42.3277 -3.16744 -3.08424 0
M  V30 468 N 41.3868 0.248026 -1.55636 0
M  V30 469 C 42.3168 1.31079 -1.93237 0
M  V30 470 C 43.2978 1.50264 -0.797174 0
M  V30 471 O 44.4828 1.62891 -1.05737 0
M  V30 472 C 41.6128 2.66575 -2.22609 0
M  V30 473 C 40.5668 2.62087 -3.3837 0
M  V30 474 C 39.8928 4.01369 -3.53281 0
M  V30 475 C 41.1928 2.19171 -4.7409 0
M  V30 476 H 42.8868 0.998556 -2.82257 0
M  V30 477 H 40.4328 0.47891 -1.35803 0
M  V30 478 H 42.3858 3.41057 -2.47503 0
M  V30 479 H 41.1098 2.99432 -1.30414 0
M  V30 480 H 39.7688 1.90063 -3.13483 0
M  V30 481 H 39.4168 4.31489 -2.58508 0
M  V30 482 H 39.1168 3.99254 -4.31127 0
M  V30 483 H 40.6408 4.77552 -3.80495 0
M  V30 484 H 42.0548 2.83384 -4.98363 0
M  V30 485 H 40.4518 2.2817 -5.5503 0
M  V30 486 H 41.5218 1.14336 -4.71227 0
M  V30 487 N 42.8649 1.48995 0.513639 0
M  V30 488 C 44.1129 1.57531 1.26604 0
M  V30 489 C 44.4339 0.258236 1.93283 0
M  V30 490 O 43.7039 -0.721502 1.8213 0
M  V30 491 H 42.2839 0.580387 0.470276 0
M  V30 492 H 44.9459 1.85552 0.596373 0
M  V30 493 H 44.0419 2.36486 2.03669 0
M  V30 494 N 44.343 -0.763751 1.37857 0
M  V30 495 C 45.291 -1.89864 1.34367 0
M  V30 496 C 46.285 -1.67816 0.231143 0
M  V30 497 O 47.491 -1.75508 0.399617 0
M  V30 498 H 43.866 -0.624501 0.41893 0
M  V30 499 H 45.837 -1.89925 2.30155 0
M  V30 500 C 44.586 -3.27227 1.1755 0
M  V30 501 H 43.909 -3.44773 2.02414 0
M  V30 502 H 45.349 -4.06911 1.1916 0
M  V30 503 C 43.808 -3.36692 -0.118311 0
M  V30 504 O 44.338 -3.86374 -1.09902 0
M  V30 505 N 42.544 -2.90092 -0.171717 0
M  V30 506 H 42.091 -2.49853 0.627012 0
M  V30 507 H 42.049 -2.96806 -1.03699 0
M  V30 508 N 45.8211 -1.22559 -0.990812 0
M  V30 509 C 46.7311 -1.01394 -2.11557 0
M  V30 510 C 47.7471 0.0383962 -1.73958 0
M  V30 511 O 48.9231 -0.154787 -2.00804 0
M  V30 512 C 45.9881 -0.596569 -3.41529 0
M  V30 513 C 45.0491 -1.72276 -3.93217 0
M  V30 514 C 44.2821 -1.32521 -5.16985 0
M  V30 515 O 44.5051 -0.204909 -5.70032 0
M  V30 516 O 43.4391 -2.14247 -5.62478 0
M  V30 517 H 47.2651 -1.95633 -2.32296 0
M  V30 518 H 44.8501 -1.01172 -1.0993 0
M  V30 519 H 46.7321 -0.374263 -4.19735 0
M  V30 520 H 45.4071 0.316939 -3.22145 0
M  V30 521 H 44.3141 -1.99961 -3.16174 0
M  V30 522 H 45.6471 -2.61421 -4.17037 0
M  V30 523 N 47.2992 1.18797 -1.03562 0
M  V30 524 C 48.7152 1.40671 -0.753917 0
M  V30 525 C 48.9152 1.9043 0.658686 0
M  V30 526 O 47.9712 2.08538 1.42366 0
M  V30 527 C 49.2842 2.41192 -1.79574 0
M  V30 528 C 50.8322 2.54928 -1.81606 0
M  V30 529 C 51.3072 3.58709 -2.84766 0
M  V30 530 N 52.7982 3.66212 -2.83625 0
M  V30 531 C 53.5332 4.46225 -3.60098 0
M  V30 532 N 53.0292 5.29888 -4.46308 0
M  V30 533 N 54.8222 4.40939 -3.4861 0
M  V30 534 H 46.9732 0.848221 -1.94728 0
M  V30 535 H 49.2362 0.435081 -0.842264 0
M  V30 536 H 48.9422 2.11669 -2.80872 0
M  V30 537 H 48.8162 3.40467 -1.62365 0
M  V30 538 H 51.2032 2.83771 -0.809817 0
M  V30 539 H 51.2842 1.55784 -2.02891 0
M  V30 540 H 50.9282 3.30607 -3.85566 0
M  V30 541 H 50.8582 4.57519 -2.60737 0
M  V30 542 H 53.3492 3.06466 -2.21105 0
M  V30 543 H 53.6622 5.88078 -5.01382 0
M  V30 544 H 52.0072 5.29326 -4.50377 0
M  V30 545 H 55.1982 3.74624 -2.80668 0
M  V30 546 H 55.3712 5.03056 -4.08459 0
M  V30 547 N 48.7773 0.814389 1.34928 0
M  V30 548 C 50.1883 0.458364 1.80986 0
M  V30 549 C 50.5393 -1.02042 1.67577 0
M  V30 550 O 49.6643 -1.79352 1.21086 0
M  V30 551 C 50.2593 0.825212 3.28597 0
M  V30 552 C 48.8183 0.521677 3.72767 0
M  V30 553 C 47.9653 1.04668 2.56788 0
M  V30 554 H 50.9163 1.00533 1.22795 0
M  V30 555 H 50.9373 0.12571 3.80292 0
M  V30 556 H 50.4493 1.90154 3.38324 0
M  V30 557 H 48.5503 -0.545589 3.68584 0
M  V30 558 H 48.6633 1.05977 4.67232 0
M  V30 559 H 47.0273 0.468622 2.50352 0
M  V30 560 H 47.8103 2.12927 2.6929 0
M  V30 561 N 50.2554 -1.46986 0.568584 0
M  V30 562 C 51.4804 -2.07335 0.0520528 0
M  V30 563 C 51.9054 -1.41675 -1.23733 0
M  V30 564 O 51.2634 -0.495623 -1.74394 0
M  V30 565 C 51.3114 -3.60417 -0.11501 0
M  V30 566 O 50.4154 -3.95309 -1.17492 0
M  V30 567 H 49.7564 -0.661597 0.0564385 0
M  V30 568 H 52.2864 -1.88837 0.787507 0
M  V30 569 H 52.2964 -4.06698 -0.325644 0
M  V30 570 H 50.9714 -4.07601 0.826675 0
M  V30 571 H 49.5484 -3.60757 -0.943869 0
M  V30 572 N 51.7335 -0.305618 -1.54608 0
M  V30 573 C 52.6965 0.555591 -2.22364 0
M  V30 574 C 53.6965 1.05768 -1.21119 0
M  V30 575 O 54.8865 0.952972 -1.45822 0
M  V30 576 C 52.0185 1.76974 -2.91364 0
M  V30 577 H 53.2115 -0.0364572 -2.99878 0
M  V30 578 H 50.7645 -0.0565007 -1.56198 0
M  V30 579 H 51.4995 2.40151 -2.17941 0
M  V30 580 H 51.2845 1.41732 -3.65588 0
M  V30 581 H 52.7745 2.38148 -3.43038 0
M  V30 582 N 53.2116 1.57565 -0.0334293 0
M  V30 583 C 54.4416 1.95996 0.653398 0
M  V30 584 C 54.8496 0.908749 1.65947 0
M  V30 585 O 54.1926 -0.117471 1.83324 0
M  V30 586 C 54.2546 3.30589 1.41249 0
M  V30 587 C 53.9186 4.53503 0.564263 0
M  V30 588 C 54.9156 5.19647 -0.16225 0
M  V30 589 C 52.6006 4.99801 0.500398 0
M  V30 590 C 54.5946 6.30412 -0.941255 0
M  V30 591 C 52.2816 6.10448 -0.282308 0
M  V30 592 C 53.2796 6.75612 -1.00184 0
M  V30 593 O 52.9676 7.84134 -1.77171 0
M  V30 594 H 52.6996 0.65027 0.184728 0
M  V30 595 H 55.2536 2.05199 -0.0907841 0
M  V30 596 H 53.4836 3.17888 2.20191 0
M  V30 597 H 55.1726 3.53892 1.98784 0
M  V30 598 H 55.9386 4.84846 -0.12227 0
M  V30 599 H 51.8176 4.48883 1.05002 0
M  V30 600 H 55.3616 6.81208 -1.50339 0
M  V30 601 H 51.2586 6.44686 -0.323989 0
M  V30 602 H 52.0266 8.00822 -1.69194 0
M  V30 603 N 54.6897 -0.239769 1.55765 0
M  V30 604 C 55.6227 -1.32356 1.85895 0
M  V30 605 C 56.6007 -1.46053 0.714662 0
M  V30 606 O 57.7847 -1.62154 0.961157 0
M  V30 607 C 54.9117 -2.6962 2.04994 0
M  V30 608 C 53.9577 -2.73036 3.27648 0
M  V30 609 S 54.7907 -2.28929 4.84099 0
M  V30 610 C 55.9467 -3.68103 5.06212 0
M  V30 611 H 56.1797 -1.06601 2.77531 0
M  V30 612 H 53.7127 -0.441112 1.47965 0
M  V30 613 H 55.6707 -3.48653 2.16682 0
M  V30 614 H 54.3317 -2.92609 1.14188 0
M  V30 615 H 53.5247 -3.7386 3.38 0
M  V30 616 H 53.1267 -2.02052 3.14723 0
M  V30 617 H 55.4187 -4.63656 4.93993 0
M  V30 618 H 56.3617 -3.6268 6.08168 0
M  V30 619 H 56.7697 -3.60947 4.34025 0
M  V30 620 N 56.1678 -1.49265 -0.50573 0
M  V30 621 C 57.5838 -1.35923 -0.836486 0
M  V30 622 C 57.7838 -0.388704 -1.97715 0
M  V30 623 O 56.8398 0.181336 -2.51848 0
M  V30 624 C 58.1528 -2.76531 -1.18115 0
M  V30 625 C 59.7008 -2.85197 -1.28964 0
M  V30 626 C 60.1758 -4.26561 -1.66761 0
M  V30 627 N 61.6668 -4.2935 -1.73819 0
M  V30 628 C 62.4018 -5.35693 -2.045 0
M  V30 629 N 61.8978 -6.52287 -2.33438 0
M  V30 630 N 63.6908 -5.23105 -2.05711 0
M  V30 631 H 55.8418 -2.10965 0.246519 0
M  V30 632 H 58.1048 -0.9468 0.0476887 0
M  V30 633 H 57.8108 -3.49226 -0.416398 0
M  V30 634 H 57.6848 -3.11599 -2.1257 0
M  V30 635 H 60.0718 -2.12742 -2.04511 0
M  V30 636 H 60.1528 -2.53718 -0.325704 0
M  V30 637 H 59.7968 -4.99541 -0.917656 0
M  V30 638 H 59.7268 -4.55502 -2.64246 0
M  V30 639 H 62.2178 -3.4526 -1.53635 0
M  V30 640 H 62.5308 -7.29158 -2.56024 0
M  V30 641 H 60.8758 -6.55521 -2.30905 0
M  V30 642 H 64.0668 -4.31026 -1.82577 0
M  V30 643 H 64.2398 -6.06078 -2.29289 0
M  V30 644 N 57.6459 0.756429 -1.3826 0
M  V30 645 C 58.5559 1.9009 -1.37488 0
M  V30 646 C 59.5719 1.71855 -0.272366 0
M  V30 647 O 60.7479 1.94827 -0.510318 0
M  V30 648 C 57.8129 3.25421 -1.19592 0
M  V30 649 C 56.8739 3.56202 -2.39622 0
M  V30 650 C 56.1069 4.85075 -2.2257 0
M  V30 651 O 56.3299 5.57246 -1.21793 0
M  V30 652 O 55.2639 5.15269 -3.11098 0
M  V30 653 H 59.0899 1.93695 -2.33914 0
M  V30 654 H 56.6749 0.901313 -1.1915 0
M  V30 655 H 58.5569 4.06337 -1.11661 0
M  V30 656 H 57.2319 3.22634 -0.262486 0
M  V30 657 H 56.1389 2.75458 -2.53128 0
M  V30 658 H 57.4719 3.63747 -3.31586 0
M  V30 659 N 59.124 1.23083 0.984299 0
M  V30 660 C 60.074 0.975749 2.06066 0
M  V30 661 C 61.058 -0.0768251 1.60716 0
M  V30 662 O 62.25 0.134805 1.76486 0
M  V30 663 C 59.379 0.564673 3.38624 0
M  V30 664 C 58.465 1.65244 3.90583 0
M  V30 665 N 58.856 2.88193 4.15666 0
M  V30 666 C 57.154 1.52612 4.19077 0
M  V30 667 C 57.855 3.58593 4.58024 0
M  V30 668 N 56.831 2.86093 4.62225 0
M  V30 669 H 60.633 1.90957 2.23411 0
M  V30 670 H 58.147 1.12963 1.16675 0
M  V30 671 H 60.144 0.36322 4.15315 0
M  V30 672 H 58.804 -0.362147 3.22674 0
M  V30 673 H 59.815 3.24537 4.03604 0
M  V30 674 H 56.492 0.666121 4.12152 0
M  V30 675 H 57.882 4.63974 4.85982 0
M  V30 676 N 60.6021 -1.18246 1.0419 0
M  V30 677 C 61.5501 -2.23968 0.627792 0
M  V30 678 C 62.5441 -1.65828 -0.346019 0
M  V30 679 O 63.7501 -1.78733 -0.213175 0
M  V30 680 H 60.1251 -0.728939 0.184802 0
M  V30 681 H 62.0961 -2.56202 1.52981 0
M  V30 682 C 60.8451 -3.47699 0.00796591 0
M  V30 683 H 60.1681 -3.92734 0.748347 0
M  V30 684 H 61.6081 -4.23294 -0.24455 0
M  V30 685 C 60.0671 -3.13153 -1.24246 0
M  V30 686 O 60.5971 -3.27003 -2.33307 0
M  V30 687 N 58.8031 -2.67467 -1.13622 0
M  V30 688 H 58.3501 -2.56396 -0.248734 0
M  V30 689 H 58.3081 -2.44724 -1.97377 0
M  V30 690 N 62.0802 -0.821533 -1.34494 0
M  V30 691 C 63.0122 -0.199946 -2.28326 0
M  V30 692 C 64.0252 0.609377 -1.50965 0
M  V30 693 O 65.2142 0.439285 -1.7301 0
M  V30 694 C 62.3142 0.738431 -3.30757 0
M  V30 695 C 61.4872 -0.0277632 -4.37391 0
M  V30 696 C 60.5462 0.831332 -5.19591 0
M  V30 697 O 59.5722 0.276822 -5.68526 0
M  V30 698 N 60.7742 2.15132 -5.39165 0
M  V30 699 H 63.5392 -1.00609 -2.82308 0
M  V30 700 H 61.1002 -0.678366 -1.47003 0
M  V30 701 H 63.0922 1.31773 -3.82646 0
M  V30 702 H 61.6622 1.44533 -2.7718 0
M  V30 703 H 60.8822 -0.788359 -3.86236 0
M  V30 704 H 62.1702 -0.555251 -5.05761 0
M  V30 705 H 61.5682 2.62559 -5.01078 0
M  V30 706 H 60.1252 2.6795 -5.94177 0
M  V30 707 N 63.5583 1.46682 -0.576371 0
M  V30 708 C 64.4883 2.33028 0.148397 0
M  V30 709 C 65.4693 1.44961 0.889956 0
M  V30 710 O 66.6543 1.73789 0.866662 0
M  V30 711 C 63.7843 3.27117 1.1667 0
M  V30 712 C 62.7383 4.24575 0.540386 0
M  V30 713 C 62.0643 5.08126 1.6647 0
M  V30 714 C 63.3643 5.19722 -0.518331 0
M  V30 715 H 65.0583 2.93875 -0.572509 0
M  V30 716 H 62.6043 1.41315 -0.276768 0
M  V30 717 H 64.5573 3.86374 1.68204 0
M  V30 718 H 63.2813 2.64364 1.9178 0
M  V30 719 H 61.9403 3.66571 0.0461769 0
M  V30 720 H 61.5883 4.41762 2.40531 0
M  V30 721 H 61.2883 5.74122 1.25131 0
M  V30 722 H 62.8123 5.70246 2.18293 0
M  V30 723 H 64.2263 5.73232 -0.0883058 0
M  V30 724 H 62.6233 5.94026 -0.851679 0
M  V30 725 H 63.6933 4.64037 -1.40703 0
M  V30 726 N 65.0364 0.313813 1.54444 0
M  V30 727 C 65.9844 -0.572171 2.25453 0
M  V30 728 C 66.9784 -1.12657 1.2651 0
M  V30 729 O 68.1844 -1.07573 1.44319 0
M  V30 730 H 64.5594 -0.203146 0.724041 0
M  V30 731 H 66.5304 0.0491145 2.9836 0
M  V30 732 C 65.2794 -1.72626 3.0182 0
M  V30 733 H 64.6024 -1.30891 3.77767 0
M  V30 734 H 66.0424 -2.32199 3.54767 0
M  V30 735 C 64.5014 -2.63806 2.09542 0
M  V30 736 O 65.0314 -3.65256 1.67185 0
M  V30 737 N 63.2374 -2.31824 1.75232 0
M  V30 738 H 62.7844 -1.49368 2.09873 0
M  V30 739 H 62.7424 -2.93095 1.13767 0
M  V30 740 N 66.5145 -1.57545 0.0417849 0
M  V30 741 C 67.7625 -1.91937 -0.632829 0
M  V30 742 C 68.0835 -0.919978 -1.71934 0
M  V30 743 O 67.3535 0.0366064 -1.95866 0
M  V30 744 H 65.9335 -0.708493 -0.236742 0
M  V30 745 H 68.5955 -1.9468 0.0925745 0
M  V30 746 H 67.6915 -2.92912 -1.07746 0
M  V30 747 N 67.9926 0.231505 -1.5589 0
M  V30 748 C 69.2386 0.954429 -1.79617 0
M  V30 749 C 69.5936 1.82367 -0.613199 0
M  V30 750 O 68.8866 1.87524 0.393094 0
M  V30 751 C 69.0806 1.83577 -3.0665 0
M  V30 752 C 68.9096 1.05334 -4.3719 0
M  V30 753 C 67.6796 0.75225 -4.99669 0
M  V30 754 C 69.8776 0.423444 -5.12554 0
M  V30 755 N 67.8596 -0.052627 -6.13877 0
M  V30 756 C 69.2306 -0.245287 -6.19515 0
M  V30 757 C 71.2856 0.335466 -4.96769 0
M  V30 758 C 69.9886 -0.993566 -7.12405 0
M  V30 759 C 72.0146 -0.399321 -5.9005 0
M  V30 760 C 71.3766 -1.05663 -6.9643 0
M  V30 761 H 67.4756 0.329846 -0.709031 0
M  V30 762 H 70.0596 0.226172 -1.93382 0
M  V30 763 H 68.2306 2.53592 -2.94186 0
M  V30 764 H 69.9626 2.49541 -3.18608 0
M  V30 765 H 66.7176 1.06783 -4.61405 0
M  V30 766 H 67.1416 -0.443609 -6.75545 0
M  V30 767 H 71.7836 0.829311 -4.14587 0
M  V30 768 H 69.5016 -1.49896 -7.94076 0
M  V30 769 H 73.0876 -0.468265 -5.79913 0
M  V30 770 H 71.9676 -1.61612 -7.67366 0
M  V30 771 N 69.4707 1.49531 0.497807 0
M  V30 772 C 70.6957 1.63159 1.28039 0
M  V30 773 C 71.1207 0.30418 1.85624 0
M  V30 774 O 70.4787 -0.728618 1.66015 0
M  V30 775 C 70.5267 2.70537 2.38416 0
M  V30 776 O 69.6307 2.29931 3.42353 0
M  V30 777 H 68.9717 0.546001 0.377861 0
M  V30 778 H 71.5017 1.9574 0.59558 0
M  V30 779 H 71.5117 2.92802 2.84132 0
M  V30 780 H 70.1867 3.6689 1.95869 0
M  V30 781 H 68.7637 2.18009 3.02533 0
M  V30 782 N 70.9488 -0.749086 1.3866 0
M  V30 783 C 72.1738 -1.54344 1.38538 0
M  V30 784 C 72.5988 -1.88088 -0.0216655 0
M  V30 785 O 71.9568 -1.50899 -1.00494 0
M  V30 786 C 72.0048 -2.8164 2.25192 0
M  V30 787 O 71.1088 -3.7698 1.67212 0
M  V30 788 H 70.4498 -0.466654 0.472367 0
M  V30 789 H 72.9798 -0.925355 1.82478 0
M  V30 790 H 72.9898 -3.30519 2.3921 0
M  V30 791 H 71.6648 -2.56411 3.27454 0
M  V30 792 H 70.2418 -3.35699 1.6236 0
M  V30 793 N 72.4269 -1.23603 -0.977757 0
M  V30 794 C 73.7039 -0.977897 -1.69401 0
M  V30 795 C 74.0839 0.502738 -2.05026 0
M  V30 796 O 73.4319 1.47459 -1.74551 0
M  V30 797 C 73.6419 -1.89077 -2.93345 0
M  V30 798 C 74.9899 -2.15579 -3.65802 0
M  V30 799 O 76.0139 -1.86648 -3.03383 0
M  V30 800 O 74.8729 -2.64658 -4.78141 0
M  V30 801 H 71.9669 -0.369025 -0.740101 0
M  V30 802 H 74.5129 -1.34657 -1.03274 0
M  V30 803 H 73.2849 -2.89158 -2.63634 0
M  V30 804 H 72.9079 -1.52463 -3.67207 0
M  V30 805 N 73.905 1.17692 -1.04816 0
M  V30 806 C 74.815 2.25229 -0.65643 0
M  V30 807 C 75.831 1.71018 0.320761 0
M  V30 808 O 77.007 2.00649 0.173805 0
M  V30 809 C 74.072 3.46684 -0.0332629 0
M  V30 810 C 73.133 4.15997 -1.06042 0
M  V30 811 C 72.366 5.31654 -0.466893 0
M  V30 812 O 72.589 5.65777 0.724758 0
M  V30 813 O 71.523 5.89831 -1.1993 0
M  V30 814 H 75.349 2.61016 -1.55255 0
M  V30 815 H 72.934 1.24919 -0.81949 0
M  V30 816 H 74.816 4.20234 0.313256 0
M  V30 817 H 73.491 3.12703 0.836566 0
M  V30 818 H 72.398 3.44482 -1.45886 0
M  V30 819 H 73.731 4.53996 -1.90127 0
M  V30 820 N 75.3831 0.828654 1.34056 0
M  V30 821 C 76.3311 0.242973 2.31327 0
M  V30 822 C 77.3251 -0.61944 1.57668 0
M  V30 823 O 78.5311 -0.51014 1.7262 0
M  V30 824 H 74.9061 0.059834 0.749616 0
M  V30 825 H 76.8771 1.07809 2.78244 0
M  V30 826 C 75.6261 -0.575733 3.429 0
M  V30 827 H 74.9491 0.0785582 3.99723 0
M  V30 828 H 76.3891 -0.951547 4.13185 0
M  V30 829 C 74.8481 -1.75044 2.87856 0
M  V30 830 O 75.3781 -2.84882 2.83205 0
M  V30 831 N 73.5841 -1.56903 2.44602 0
M  V30 832 H 73.1311 -0.675547 2.48584 0
M  V30 833 H 73.0891 -2.35652 2.08124 0
M  V30 834 N 76.8612 -1.46375 0.584142 0
M  V30 835 C 78.1382 -1.956 0.0033388 0
M  V30 836 C 78.5182 -1.52679 -1.45782 0
M  V30 837 O 77.8662 -0.77816 -2.14842 0
M  V30 838 C 78.0762 -3.48551 0.176891 0
M  V30 839 C 79.4242 -4.24576 0.0454609 0
M  V30 840 O 80.4482 -3.56043 0.105801 0
M  V30 841 O 79.3072 -5.46427 -0.0890376 0
M  V30 842 H 76.4012 -0.825547 -0.0490066 0
M  V30 843 H 78.9472 -1.56652 0.65256 0
M  V30 844 H 77.7192 -3.72683 1.1926 0
M  V30 845 H 77.3422 -3.94332 -0.508695 0
M  V30 846 N 78.3393 -0.321999 -1.54275 0
M  V30 847 C 79.5853 0.274234 -2.01543 0
M  V30 848 C 79.9403 1.499 -1.20614 0
M  V30 849 O 79.2333 1.89546 -0.279804 0
M  V30 850 C 79.4273 0.661769 -3.5122 0
M  V30 851 C 79.2563 -0.523892 -4.46638 0
M  V30 852 C 78.0263 -1.02251 -4.94846 0
M  V30 853 C 80.2243 -1.37558 -4.95563 0
M  V30 854 N 78.2063 -2.17274 -5.74165 0
M  V30 855 C 79.5773 -2.37301 -5.7279 0
M  V30 856 C 81.6323 -1.40353 -4.77709 0
M  V30 857 C 80.3353 -3.3964 -6.34064 0
M  V30 858 C 82.3613 -2.41562 -5.39817 0
M  V30 859 C 81.7233 -3.40031 -6.16894 0
M  V30 860 H 77.8223 0.0642367 -0.779357 0
M  V30 861 H 80.4063 -0.456683 -1.89268 0
M  V30 862 H 78.5773 1.36182 -3.63743 0
M  V30 863 H 80.3093 1.23934 -3.85256 0
M  V30 864 H 77.0643 -0.594046 -4.6986 0
M  V30 865 H 77.4883 -2.75289 -6.18502 0
M  V30 866 H 82.1303 -0.655907 -4.17681 0
M  V30 867 H 79.8483 -4.15309 -6.93213 0
M  V30 868 H 83.4343 -2.44524 -5.2792 0
M  V30 869 H 82.3143 -4.17063 -6.64099 0
M  V30 870 N 79.8174 1.5752 -0.0501392 0
M  V30 871 C 80.7654 2.12651 0.942459 0
M  V30 872 C 81.7594 1.05807 1.32292 0
M  V30 873 O 82.9654 1.24217 1.3027 0
M  V30 874 H 79.3404 0.679673 0.321789 0
M  V30 875 H 81.3114 2.94951 0.452356 0
M  V30 876 C 80.0604 2.68565 2.20836 0
M  V30 877 H 79.3834 3.50439 1.92439 0
M  V30 878 H 80.8234 3.10761 2.8845 0
M  V30 879 C 79.2824 1.62291 2.95234 0
M  V30 880 O 79.8124 1.03508 3.88135 0
M  V30 881 N 78.0184 1.33836 2.57946 0
M  V30 882 H 77.5654 1.81826 1.82475 0
M  V30 883 H 77.5234 0.629595 3.08032 0
M  V30 884 N 81.2955 -0.223234 1.56011 0
M  V30 885 C 82.2055 -1.29766 1.95443 0
M  V30 886 C 83.2215 -1.51373 0.858028 0
M  V30 887 O 84.3975 -1.64536 1.16146 0
M  V30 888 C 81.4625 -2.62772 2.26167 0
M  V30 889 C 80.5235 -2.49482 3.49367 0
M  V30 890 C 79.7565 -3.76145 3.78616 0
M  V30 891 O 79.9795 -4.79087 3.09568 0
M  V30 892 O 78.9135 -3.73358 4.72109 0
M  V30 893 H 82.7395 -0.99309 2.87004 0
M  V30 894 H 80.3245 -0.425958 1.43199 0
M  V30 895 H 82.2065 -3.41327 2.47131 0
M  V30 896 H 80.8815 -2.92913 1.37781 0
M  V30 897 H 79.7885 -1.69133 3.33684 0
M  V30 898 H 81.1215 -2.2428 4.38131 0
M  V30 899 N 82.7736 -1.49793 -0.48987 0
M  V30 900 C 83.7206 -1.67281 -1.59014 0
M  V30 901 C 84.6906 -0.514177 -1.57941 0
M  V30 902 O 85.8756 -0.742533 -1.75759 0
M  V30 903 C 83.0156 -1.75569 -2.97102 0
M  V30 904 C 82.1286 -3.0281 -3.08107 0
M  V30 905 C 81.2636 -3.02008 -4.36995 0
M  V30 906 C 80.3026 -4.23782 -4.41673 0
M  V30 907 N 79.4396 -4.20826 -5.62005 0
M  V30 908 H 84.2796 -2.61224 -1.43409 0
M  V30 909 H 81.8166 -1.29508 -0.697565 0
M  V30 910 H 83.7746 -1.78354 -3.77155 0
M  V30 911 H 82.4046 -0.850827 -3.11385 0
M  V30 912 H 81.4566 -3.09584 -2.21047 0
M  V30 913 H 82.7686 -3.92801 -3.07423 0
M  V30 914 H 81.9226 -3.03418 -5.25378 0
M  V30 915 H 80.6616 -2.09815 -4.4026 0
M  V30 916 H 79.6666 -4.22604 -3.5169 0
M  V30 917 H 80.8916 -5.17181 -4.40115 0
M  V30 918 H 78.8376 -3.31476 -5.66091 0
M  V30 919 H 78.7546 -5.04564 -5.62984 0
M  V30 920 H 80.0226 -4.26355 -6.52565 0
M  V30 921 N 84.2517 0.741722 -1.39055 0
M  V30 922 C 85.1817 1.869 -1.39966 0
M  V30 923 C 86.1627 1.6804 -0.26392 0
M  V30 924 O 87.3477 1.88458 -0.468755 0
M  V30 925 C 84.4777 3.24572 -1.23574 0
M  V30 926 C 83.4317 3.58056 -2.34477 0
M  V30 927 C 82.7577 4.94593 -2.0318 0
M  V30 928 C 84.0577 3.61716 -3.76774 0
M  V30 929 H 85.7517 1.86395 -2.34302 0
M  V30 930 H 83.2977 0.895361 -1.1278 0
M  V30 931 H 85.2507 4.031 -1.22834 0
M  V30 932 H 83.9747 3.25587 -0.257045 0
M  V30 933 H 82.6337 2.81854 -2.34423 0
M  V30 934 H 82.2817 4.92181 -1.03765 0
M  V30 935 H 81.9817 5.17964 -2.77465 0
M  V30 936 H 83.5057 5.75486 -2.04079 0
M  V30 937 H 84.9197 4.30335 -3.78794 0
M  V30 938 H 83.3167 3.96603 -4.50362 0
M  V30 939 H 84.3867 2.61672 -4.08235 0
M  V30 940 N 85.7298 1.2412 0.971189 0
M  V30 941 C 86.9598 1.10415 1.7462 0
M  V30 942 C 87.3678 -0.346462 1.86001 0
M  V30 943 O 86.7108 -1.25104 1.34517 0
M  V30 944 C 86.7728 1.66596 3.18568 0
M  V30 945 C 86.4368 3.15446 3.3067 0
M  V30 946 C 87.4338 4.12636 3.16271 0
M  V30 947 C 85.1188 3.55337 3.55022 0
M  V30 948 C 87.1128 5.47699 3.26044 0
M  V30 949 C 84.7998 4.90542 3.64434 0
M  V30 950 C 85.7978 5.86532 3.49956 0
M  V30 951 O 85.4858 7.19279 3.59017 0
M  V30 952 H 85.2178 0.386616 0.55453 0
M  V30 953 H 87.7718 1.64633 1.22821 0
M  V30 954 H 86.0018 1.06808 3.71657 0
M  V30 955 H 87.6908 1.48232 3.77865 0
M  V30 956 H 88.4568 3.8316 2.97344 0
M  V30 957 H 84.3358 2.8113 3.65359 0
M  V30 958 H 87.8798 6.22603 3.14661 0
M  V30 959 H 83.7768 5.19691 3.82873 0
M  V30 960 H 84.5448 7.27153 3.75754 0
M  V30 961 N 87.2079 -1.17134 1.05439 0
M  V30 962 C 88.6189 -1.69084 0.791676 0
M  V30 963 C 88.9699 -1.83822 -0.685839 0
M  V30 964 O 88.0949 -1.52757 -1.53278 0
M  V30 965 C 88.6899 -3.07119 1.4305 0
M  V30 966 C 87.2489 -3.56225 1.21577 0
M  V30 967 C 86.3959 -2.32421 1.51247 0
M  V30 968 H 89.3469 -1.01617 1.219 0
M  V30 969 H 89.3679 -3.71087 0.84112 0
M  V30 970 H 88.8799 -2.9636 2.50584 0
M  V30 971 H 86.9809 -3.72257 0.159787 0
M  V30 972 H 87.0939 -4.38837 1.92246 0
M  V30 973 H 85.4579 -2.3701 0.932653 0
M  V30 974 H 86.2409 -2.24268 2.5992 0
M  V30 975 N 88.686 -0.835752 -1.33615 0
M  V30 976 C 89.932 -0.430596 -1.98176 0
M  V30 977 C 90.265 1.00684 -1.66061 0
M  V30 978 O 89.54 1.70339 -0.938877 0
M  V30 979 C 89.823 -0.648065 -3.5422 0
M  V30 980 C 89.676 -2.13255 -3.96033 0
M  V30 981 C 90.995 -0.0922113 -4.40003 0
M  V30 982 H 88.114 -0.157924 -0.719881 0
M  V30 983 H 90.756 -1.05069 -1.58305 0
M  V30 984 H 88.906 -0.120237 -3.88314 0
M  V30 985 H 90.578 -2.725 -3.72211 0
M  V30 986 H 88.821 -2.61823 -3.45878 0
M  V30 987 H 89.492 -2.23547 -5.04708 0
M  V30 988 H 91.968 -0.543343 -4.12537 0
M  V30 989 H 90.844 -0.274083 -5.48215 0
M  V30 990 H 91.105 1.00378 -4.30554 0
M  V30 991 N 90.1641 1.46063 -0.591896 0
M  V30 992 C 91.4101 2.03203 -0.0894879 0
M  V30 993 C 91.7651 1.45407 1.25994 0
M  V30 994 O 91.0581 0.61326 1.8152 0
M  V30 995 C 91.2521 3.57391 0.0249813 0
M  V30 996 C 91.0811 4.30142 -1.3118 0
M  V30 997 C 89.8511 4.68688 -1.88838 0
M  V30 998 C 92.0491 4.63098 -2.23708 0
M  V30 999 N 90.0311 5.26228 -3.1616 0
M  V30 1000 C 91.4021 5.21305 -3.3562 0
M  V30 1001 C 93.4571 4.45031 -2.23274 0
M  V30 1002 C 92.1601 5.63351 -4.47245 0
M  V30 1003 C 94.1861 4.881 -3.33935 0
M  V30 1004 C 93.5481 5.46386 -4.44569 0
M  V30 1005 H 89.6471 0.778323 -0.0757431 0
M  V30 1006 H 92.2311 1.78094 -0.78681 0
M  V30 1007 H 90.4021 3.82195 0.69149 0
M  V30 1008 H 92.1341 4.0118 0.532613 0
M  V30 1009 H 88.8891 4.5174 -1.42223 0
M  V30 1010 H 89.3131 5.59512 -3.8115 0
M  V30 1011 H 93.9551 3.99295 -1.39008 0
M  V30 1012 H 91.6731 6.08061 -5.32247 0
M  V30 1013 H 95.2591 4.75866 -3.34728 0
M  V30 1014 H 94.1391 5.79102 -5.28782 0
M  V30 1015 N 91.6422 0.330177 1.54103 0
M  V30 1016 C 92.5892 -0.532762 2.24567 0
M  V30 1017 C 93.5592 -1.10635 1.23892 0
M  V30 1018 O 94.7442 -1.14546 1.5259 0
M  V30 1019 C 91.8842 -1.6845 3.01195 0
M  V30 1020 C 90.9972 -1.13951 4.167 0
M  V30 1021 C 90.1322 -2.25746 4.80845 0
M  V30 1022 C 89.1712 -1.6853 5.88442 0
M  V30 1023 N 88.3082 -2.74014 6.46421 0
M  V30 1024 H 93.1482 0.0746905 2.97906 0
M  V30 1025 H 90.6852 0.048632 1.4702 0
M  V30 1026 H 92.6432 -2.36234 3.43874 0
M  V30 1027 H 91.2732 -2.26314 2.30178 0
M  V30 1028 H 90.3252 -0.35301 3.78758 0
M  V30 1029 H 91.6372 -0.680892 4.94131 0
M  V30 1030 H 90.7912 -3.01422 5.26526 0
M  V30 1031 H 89.5302 -2.74947 4.0281 0
M  V30 1032 H 88.5352 -0.913543 5.42157 0
M  V30 1033 H 89.7602 -1.20198 6.68378 0
M  V30 1034 H 87.7062 -3.22494 5.71256 0
M  V30 1035 H 87.6232 -2.32735 7.19285 0
M  V30 1036 H 88.8912 -3.49499 6.96757 0
M  V30 1037 N 93.1203 -1.57491 0.0584922 0
M  V30 1038 C 94.5363 -1.56792 -0.298091 0
M  V30 1039 C 94.7363 -1.06679 -1.70944 0
M  V30 1040 O 93.7923 -0.726672 -2.41818 0
M  V30 1041 C 95.1053 -3.00461 -0.119879 0
M  V30 1042 C 96.6533 -3.1242 -0.190428 0
M  V30 1043 C 97.1283 -4.57982 -0.0406567 0
M  V30 1044 N 98.6193 -4.63099 -0.0966958 0
M  V30 1045 C 99.3543 -5.734 -0.00502943 0
M  V30 1046 N 98.8503 -6.9266 0.139402 0
M  V30 1047 N 100.643 -5.62067 -0.0611391 0
M  V30 1048 H 92.7943 -1.88386 0.98105 0
M  V30 1049 H 95.0573 -0.867865 0.381463 0
M  V30 1050 H 94.7633 -3.41187 0.85349 0
M  V30 1051 H 94.6373 -3.66843 -0.877833 0
M  V30 1052 H 97.0243 -2.71589 -1.15427 0
M  V30 1053 H 97.1053 -2.48702 0.598405 0
M  V30 1054 H 96.7493 -4.995 0.919897 0
M  V30 1055 H 96.6793 -5.19715 -0.848727 0
M  V30 1056 H 99.1703 -3.77331 -0.207277 0
M  V30 1057 H 99.4833 -7.72536 0.201855 0
M  V30 1058 H 97.8283 -6.94781 0.174586 0
M  V30 1059 H 101.019 -4.67782 -0.172583 0
M  V30 1060 H 101.192 -6.47999 0.0137562 0
M  V30 1061 N 94.5984 0.214957 -1.56127 0
M  V30 1062 C 95.8464 0.936518 -1.79091 0
M  V30 1063 C 96.1674 1.84606 -0.628148 0
M  V30 1064 O 95.4374 1.92664 0.35462 0
M  V30 1065 H 94.0174 0.3488 -0.660566 0
M  V30 1066 H 96.6794 0.22523 -1.93594 0
M  V30 1067 H 95.7754 1.53943 -2.71492 0
M  V30 1068 N 96.0765 1.50051 0.48192 0
M  V30 1069 C 97.3535 1.51009 1.2432 0
M  V30 1070 C 97.7335 0.248587 2.09631 0
M  V30 1071 O 97.0815 -0.768409 2.15192 0
M  V30 1072 C 97.2915 2.79981 2.08355 0
M  V30 1073 C 98.6395 3.3022 2.66908 0
M  V30 1074 O 99.6635 2.81228 2.18607 0
M  V30 1075 O 98.5225 4.15595 3.54884 0
M  V30 1076 H 95.6165 0.605239 0.563573 0
M  V30 1077 H 98.1625 1.62332 0.494627 0
M  V30 1078 H 96.9345 3.63275 1.45419 0
M  V30 1079 H 96.5575 2.7161 2.90368 0
M  V30 1080 N 97.5546 -0.734337 1.39446 0
M  V30 1081 C 98.4876 -1.85715 1.32609 0
M  V30 1082 C 99.4656 -1.6137 0.199636 0
M  V30 1083 O 100.65 -1.84626 0.380195 0
M  V30 1084 C 97.7766 -3.21709 1.05929 0
M  V30 1085 C 96.8226 -3.64913 2.20773 0
M  V30 1086 S 97.6556 -3.74203 3.83056 0
M  V30 1087 C 98.8116 -5.12986 3.58603 0
M  V30 1088 H 99.0446 -1.91232 2.27635 0
M  V30 1089 H 96.5776 -0.899263 1.25509 0
M  V30 1090 H 98.5356 -4.00236 0.912203 0
M  V30 1091 H 97.1966 -3.13848 0.125883 0
M  V30 1092 H 96.3896 -4.63606 1.97699 0
M  V30 1093 H 95.9916 -2.93593 2.31688 0
M  V30 1094 H 98.2836 -5.99339 3.15909 0
M  V30 1095 H 99.2266 -5.41088 4.5676 0
M  V30 1096 H 99.6346 -4.82694 2.9269 0
M  V30 1097 N 99.0327 -1.24633 -0.964593 0
M  V30 1098 C 100.449 -1.01239 -1.2338 0
M  V30 1099 C 100.649 0.2769 -1.99588 0
M  V30 1100 O 99.7047 0.992241 -2.32187 0
M  V30 1101 C 101.018 -2.22937 -2.01791 0
M  V30 1102 C 102.566 -2.27594 -2.14872 0
M  V30 1103 C 103.041 -3.48921 -2.96678 0
M  V30 1104 N 104.532 -3.49257 -3.04259 0
M  V30 1105 C 105.267 -4.39795 -3.67924 0
M  V30 1106 N 104.763 -5.40591 -4.33281 0
M  V30 1107 N 106.556 -4.275 -3.64966 0
M  V30 1108 H 98.7067 -2.0748 -0.454502 0
M  V30 1109 H 100.97 -0.910647 -0.26349 0
M  V30 1110 H 100.676 -3.16587 -1.53184 0
M  V30 1111 H 100.55 -2.25306 -3.02518 0
M  V30 1112 H 102.937 -1.34473 -2.6268 0
M  V30 1113 H 103.018 -2.2925 -1.13482 0
M  V30 1114 H 102.662 -4.42359 -2.49562 0
M  V30 1115 H 102.592 -3.4451 -3.98272 0
M  V30 1116 H 105.083 -2.76337 -2.57771 0
M  V30 1117 H 105.396 -6.05904 -4.79687 0
M  V30 1118 H 103.741 -5.44475 -4.3194 0
M  V30 1119 H 106.932 -3.47987 -3.13086 0
M  V30 1120 H 107.105 -4.98258 -4.14298 0
M  V30 1121 N 100.511 1.16574 -1.06058 0
M  V30 1122 C 101.757 1.87565 -0.78683 0
M  V30 1123 C 102.112 1.80012 0.679214 0
M  V30 1124 O 101.405 1.20327 1.49104 0
M  V30 1125 C 101.599 3.36195 -1.21275 0
M  V30 1126 C 101.428 3.58216 -2.71866 0
M  V30 1127 C 100.198 3.7444 -3.39298 0
M  V30 1128 C 102.396 3.57134 -3.70081 0
M  V30 1129 N 100.378 3.84389 -4.78663 0
M  V30 1130 C 101.749 3.73038 -4.9522 0
M  V30 1131 C 103.804 3.40332 -3.63426 0
M  V30 1132 C 102.507 3.73879 -6.14497 0
M  V30 1133 C 104.533 3.42466 -4.82153 0
M  V30 1134 C 103.895 3.58887 -6.06118 0
M  V30 1135 H 99.9938 0.704081 -0.340284 0
M  V30 1136 H 102.578 1.39885 -1.35426 0
M  V30 1137 H 100.749 3.82522 -0.673179 0
M  V30 1138 H 102.481 3.94839 -0.887917 0
M  V30 1139 H 99.2358 3.74662 -2.89699 0
M  V30 1140 H 99.6598 3.93138 -5.51155 0
M  V30 1141 H 104.302 3.26566 -2.68541 0
M  V30 1142 H 102.02 3.86427 -7.09718 0
M  V30 1143 H 105.606 3.30712 -4.78666 0
M  V30 1144 H 104.486 3.60454 -6.9645 0
M  V30 1145 N 101.989 0.842826 1.3317 0
M  V30 1146 C 102.936 0.276885 2.29133 0
M  V30 1147 C 103.906 -0.609527 1.54512 0
M  V30 1148 O 105.091 -0.546955 1.82792 0
M  V30 1149 C 102.231 -0.538707 3.40869 0
M  V30 1150 C 101.344 0.372169 4.30394 0
M  V30 1151 C 100.479 -0.454908 5.29249 0
M  V30 1152 C 99.5179 0.45411 6.10413 0
M  V30 1153 N 98.6549 -0.335075 7.013 0
M  V30 1154 H 103.495 1.10052 2.76934 0
M  V30 1155 H 101.032 0.554161 1.36262 0
M  V30 1156 H 102.99 -1.02709 4.0436 0
M  V30 1157 H 101.62 -1.32727 2.9425 0
M  V30 1158 H 100.672 0.97888 3.6759 0
M  V30 1159 H 101.984 1.0703 4.87182 0
M  V30 1160 H 101.138 -1.00695 5.98285 0
M  V30 1161 H 99.8769 -1.18646 4.73048 0
M  V30 1162 H 98.8819 1.01813 5.40291 0
M  V30 1163 H 100.107 1.18409 6.68697 0
M  V30 1164 H 98.0529 -1.04994 6.47543 0
M  V30 1165 H 97.9699 0.304262 7.55387 0
M  V30 1166 H 99.2379 -0.869224 7.74638 0
M  V30 1167 N 103.467 -1.45747 0.599634 0
M  V30 1168 C 104.415 -2.322 -0.136426 0
M  V30 1169 C 105.409 -1.45497 -0.867583 0
M  V30 1170 O 106.615 -1.62027 -0.78405 0
M  V30 1171 H 102.99 -0.749368 -0.0628588 0
M  V30 1172 H 104.961 -2.92072 0.611281 0
M  V30 1173 C 103.71 -3.28974 -1.12567 0
M  V30 1174 H 103.033 -3.9568 -0.572484 0
M  V30 1175 H 104.473 -3.92212 -1.61077 0
M  V30 1176 C 102.932 -2.55561 -2.19523 0
M  V30 1177 O 103.462 -2.33111 -3.27143 0
M  V30 1178 N 101.668 -2.15832 -1.94589 0
M  V30 1179 H 101.215 -2.3429 -1.07078 0
M  V30 1180 H 101.173 -1.67034 -2.66359 0
M  V30 1181 N 104.945 -0.338344 -1.53925 0
M  V30 1182 C 106.17 0.263987 -2.05713 0
M  V30 1183 C 106.595 1.43847 -1.21201 0
M  V30 1184 O 105.953 1.79904 -0.224535 0
M  V30 1185 C 106.001 0.662 -3.54471 0
M  V30 1186 O 105.105 1.76265 -3.72833 0
M  V30 1187 H 104.446 0.0448722 -0.662482 0
M  V30 1188 H 106.976 -0.491048 -1.9862 0
M  V30 1189 H 106.986 0.940594 -3.9701 0
M  V30 1190 H 105.661 -0.196937 -4.15433 0
M  V30 1191 H 104.238 1.48173 -3.42198 0
M  V30 1192 N 106.423 1.57458 -0.0668435 0
M  V30 1193 C 107.669 1.94401 0.598316 0
M  V30 1194 C 108.024 0.946335 1.67518 0
M  V30 1195 O 107.317 -0.0321442 1.91573 0
M  V30 1196 C 107.511 3.35784 1.22409 0
M  V30 1197 C 107.34 4.49212 0.209367 0
M  V30 1198 C 106.11 5.04887 -0.204218 0
M  V30 1199 C 108.308 5.11335 -0.551431 0
M  V30 1200 N 106.29 6.01854 -1.21016 0
M  V30 1201 C 107.661 6.03754 -1.41 0
M  V30 1202 C 109.716 4.94173 -0.608038 0
M  V30 1203 C 108.419 6.80854 -2.32013 0
M  V30 1204 C 110.445 5.71912 -1.50566 0
M  V30 1205 C 109.807 6.63976 -2.35191 0
M  V30 1206 H 105.906 0.758538 0.190114 0
M  V30 1207 H 108.49 1.94175 -0.142832 0
M  V30 1208 H 106.661 3.36757 1.93518 0
M  V30 1209 H 108.393 3.59976 1.84931 0
M  V30 1210 H 105.148 4.73266 0.177908 0
M  V30 1211 H 105.572 6.55035 -1.71049 0
M  V30 1212 H 110.214 4.22788 0.032022 0
M  V30 1213 H 107.932 7.5152 -2.97057 0
M  V30 1214 H 111.518 5.60656 -1.55423 0
M  V30 1215 H 110.398 7.2308 -3.03522 0
M  V30 1216 N 107.901 -0.206675 1.56239 0
M  V30 1217 C 108.848 -1.25617 1.93621 0
M  V30 1218 C 109.818 -1.45824 0.795274 0
M  V30 1219 O 111.003 -1.59148 1.05245 0
M  V30 1220 C 108.143 -2.59839 2.27107 0
M  V30 1221 C 107.256 -2.47308 3.54207 0
M  V30 1222 C 106.391 -3.74155 3.7707 0
M  V30 1223 C 105.43 -3.56407 4.97635 0
M  V30 1224 N 104.567 -4.75238 5.1681 0
M  V30 1225 H 109.407 -0.930383 2.83104 0
M  V30 1226 H 106.944 -0.448065 1.4011 0
M  V30 1227 H 108.902 -3.38021 2.44535 0
M  V30 1228 H 107.532 -2.90485 1.40778 0
M  V30 1229 H 106.584 -1.60483 3.4489 0
M  V30 1230 H 107.896 -2.30122 4.42544 0
M  V30 1231 H 107.05 -4.60778 3.94675 0
M  V30 1232 H 105.789 -3.94282 2.87042 0
M  V30 1233 H 104.794 -2.68168 4.79964 0
M  V30 1234 H 106.019 -3.37736 5.89161 0
M  V30 1235 H 103.965 -4.95651 4.29728 0
M  V30 1236 H 103.882 -4.60835 5.99306 0
M  V30 1237 H 105.15 -5.63246 5.38864 0
M  V30 1238 N 109.379 -1.50304 -0.473955 0
M  V30 1239 C 110.627 -1.60832 -1.22382 0
M  V30 1240 C 110.948 -0.30939 -1.9253 0
M  V30 1241 O 110.218 0.67296 -1.83978 0
M  V30 1242 H 108.798 -0.592652 -0.454723 0
M  V30 1243 H 111.46 -1.87068 -0.546968 0
M  V30 1244 H 110.556 -2.41803 -1.97327 0
M  V30 1245 N 110.857 0.726932 -1.39834 0
M  V30 1246 C 112.105 1.4837 -1.37225 0
M  V30 1247 C 112.426 1.94979 0.0284857 0
M  V30 1248 O 111.696 1.69555 0.981213 0
M  V30 1249 H 110.276 0.55043 -0.505011 0
M  V30 1250 H 112.938 0.862468 -1.74778 0
M  V30 1251 H 112.034 2.36198 -2.04003 0
M  V30 1252 N 112.336 1.25143 0.95797 0
M  V30 1253 C 113.752 1.01892 1.22842 0
M  V30 1254 C 113.952 -0.266311 1.99732 0
M  V30 1255 O 113.008 -0.979913 2.3271 0
M  V30 1256 C 114.321 2.24004 2.00606 0
M  V30 1257 C 115.869 2.28731 2.13662 0
M  V30 1258 C 116.344 3.5049 2.94823 0
M  V30 1259 N 117.835 3.50866 3.02403 0
M  V30 1260 C 118.57 4.4174 3.65586 0
M  V30 1261 N 118.066 5.42882 4.30408 0
M  V30 1262 N 119.859 4.29429 3.62694 0
M  V30 1263 H 112.01 2.07718 0.443493 0
M  V30 1264 H 114.273 0.912031 0.258657 0
M  V30 1265 H 113.979 3.17395 1.51503 0
M  V30 1266 H 113.853 2.26907 3.01319 0
M  V30 1267 H 116.24 1.35865 2.61963 0
M  V30 1268 H 116.321 2.29848 1.12265 0
M  V30 1269 H 115.965 4.43676 2.47213 0
M  V30 1270 H 115.895 3.46617 3.96439 0
M  V30 1271 H 118.386 2.777 2.56302 0
M  V30 1272 H 118.699 6.0844 4.76467 0
M  V30 1273 H 117.044 5.46758 4.29047 0
M  V30 1274 H 120.235 3.49643 3.11236 0
M  V30 1275 H 120.408 5.00448 4.1165 0
M  V30 1276 N 113.814 -1.1601 1.06675 0
M  V30 1277 C 115.06 -1.86909 0.786945 0
M  V30 1278 C 115.393 -1.81717 -0.685018 0
M  V30 1279 O 114.668 -1.23551 -1.50218 0
M  V30 1280 C 114.951 -3.36313 1.28707 0
M  V30 1281 C 114.804 -3.50175 2.82308 0
M  V30 1282 C 116.123 -4.3084 0.898071 0
M  V30 1283 H 113.242 -0.678677 0.287343 0
M  V30 1284 H 115.884 -1.36336 1.32334 0
M  V30 1285 H 114.034 -3.79513 0.830768 0
M  V30 1286 H 115.706 -3.15886 3.36175 0
M  V30 1287 H 113.949 -2.91959 3.20847 0
M  V30 1288 H 114.62 -4.55116 3.12368 0
M  V30 1289 H 117.096 -3.95561 1.29114 0
M  V30 1290 H 115.972 -5.33876 1.27543 0
M  V30 1291 H 116.233 -4.41662 -0.196651 0
M  V30 1292 N 115.292 -0.849877 -1.32721 0
M  V30 1293 C 116.224 -0.248332 -2.27851 0
M  V30 1294 C 117.237 0.577218 -1.52224 0
M  V30 1295 O 118.426 0.402489 -1.73903 0
M  V30 1296 C 115.526 0.668107 -3.32249 0
M  V30 1297 C 114.699 -0.120534 -4.37234 0
M  V30 1298 C 113.758 0.720932 -5.21238 0
M  V30 1299 O 112.784 0.156166 -5.68986 0
M  V30 1300 N 113.986 2.03647 -5.43607 0
M  V30 1301 H 116.751 -1.06575 -2.80111 0
M  V30 1302 H 114.312 -0.709395 -1.45531 0
M  V30 1303 H 116.304 1.23627 -3.85355 0
M  V30 1304 H 114.874 1.38621 -2.80184 0
M  V30 1305 H 114.094 -0.870108 -3.84477 0
M  V30 1306 H 115.382 -0.662406 -5.0447 0
M  V30 1307 H 114.78 2.51871 -5.06535 0
M  V30 1308 H 113.337 2.55287 -5.99727 0
M  V30 1309 N 116.77 1.45427 -0.607355 0
M  V30 1310 C 117.733 2.28974 0.101693 0
M  V30 1311 C 118.733 1.39754 0.795329 0
M  V30 1312 O 119.923 1.61878 0.643527 0
M  V30 1313 C 117.055 3.20768 1.15414 0
M  V30 1314 H 118.248 2.93147 -0.632844 0
M  V30 1315 H 115.801 1.51945 -0.366391 0
M  V30 1316 H 116.536 2.61395 1.91945 0
M  V30 1317 H 116.321 3.86489 0.66098 0
M  V30 1318 H 117.811 3.83589 1.65073 0
M  V30 1319 N 118.248 0.346503 1.53744 0
M  V30 1320 C 119.494 -0.249473 2.0126 0
M  V30 1321 C 119.827 -1.49965 1.23386 0
M  V30 1322 O 119.102 -1.91811 0.32229 0
M  V30 1323 C 119.385 -0.560643 3.55709 0
M  V30 1324 C 119.238 0.701836 4.44291 0
M  V30 1325 C 120.557 -1.36905 4.18264 0
M  V30 1326 H 117.676 -0.0891987 0.731582 0
M  V30 1327 H 120.318 0.467624 1.84156 0
M  V30 1328 H 118.468 -1.17156 3.70414 0
M  V30 1329 H 120.14 1.33974 4.41417 0
M  V30 1330 H 118.383 1.32612 4.13033 0
M  V30 1331 H 119.054 0.43933 5.50249 0
M  V30 1332 H 121.53 -0.852448 4.07275 0
M  V30 1333 H 120.406 -1.55553 5.26398 0
M  V30 1334 H 120.667 -2.37203 3.73078 0
M  V30 1335 N 119.726 -1.57421 0.075193 0
M  V30 1336 C 120.656 -2.15942 -0.888324 0
M  V30 1337 C 121.637 -1.08737 -1.30806 0
M  V30 1338 O 122.822 -1.36787 -1.37851 0
M  V30 1339 C 119.952 -2.72379 -2.1547 0
M  V30 1340 C 118.906 -3.8478 -1.87425 0
M  V30 1341 C 118.232 -4.27834 -3.20721 0
M  V30 1342 C 119.532 -5.08869 -1.17684 0
M  V30 1343 H 121.226 -2.96705 -0.400799 0
M  V30 1344 H 118.772 -1.42723 -0.191342 0
M  V30 1345 H 120.725 -3.11965 -2.83295 0
M  V30 1346 H 119.449 -1.88841 -2.6647 0
M  V30 1347 H 118.108 -3.45703 -1.22004 0
M  V30 1348 H 117.756 -3.41214 -3.6957 0
M  V30 1349 H 117.456 -5.03605 -3.02746 0
M  V30 1350 H 118.98 -4.70039 -3.89738 0
M  V30 1351 H 120.394 -5.4575 -1.75584 0
M  V30 1352 H 118.791 -5.8994 -1.09956 0
M  V30 1353 H 119.861 -4.84648 -0.156453 0
M  V30 1354 N 121.204 0.198386 -1.56346 0
M  V30 1355 C 122.432 0.935572 -1.84539 0
M  V30 1356 C 122.847 1.76989 -0.657281 0
M  V30 1357 O 122.204 1.78626 0.374043 0
M  V30 1358 C 122.255 1.8344 -3.11499 0
M  V30 1359 O 121.976 1.03377 -4.25728 0
M  V30 1360 C 123.477 2.68355 -3.52846 0
M  V30 1361 H 120.697 0.273126 -0.612897 0
M  V30 1362 H 123.241 0.20663 -2.03453 0
M  V30 1363 H 121.396 2.51701 -2.94492 0
M  V30 1364 H 121.81 1.64599 -4.98003 0
M  V30 1365 H 123.284 3.27085 -4.44657 0
M  V30 1366 H 123.761 3.41901 -2.75681 0
M  V30 1367 H 124.367 2.05471 -3.72373 0
M  V30 1368 N 122.682 1.50554 0.465978 0
M  V30 1369 C 123.907 1.65838 1.24549 0
M  V30 1370 C 124.332 0.343486 1.84937 0
M  V30 1371 O 123.69 -0.69324 1.67523 0
M  V30 1372 C 123.738 2.75533 2.32624 0
M  V30 1373 O 122.842 2.37142 3.37398 0
M  V30 1374 H 122.183 0.553893 0.366194 0
M  V30 1375 H 124.713 1.96959 0.553927 0
M  V30 1376 H 124.723 2.98763 2.77857 0
M  V30 1377 H 123.398 3.70962 1.88043 0
M  V30 1378 H 121.975 2.24377 2.97841 0
M  V30 1379 N 124.16 -0.719506 1.40217 0
M  V30 1380 C 125.437 -1.47221 1.28784 0
M  V30 1381 C 125.817 -2.10883 -0.0956067 0
M  V30 1382 O 125.165 -1.99833 -1.10811 0
M  V30 1383 C 125.375 -2.5111 2.42373 0
M  V30 1384 C 126.723 -3.17053 2.82423 0
M  V30 1385 O 127.747 -2.61429 2.41937 0
M  V30 1386 O 126.606 -4.17742 3.52355 0
M  V30 1387 H 123.7 -0.654491 0.50554 0
M  V30 1388 H 126.246 -0.752014 1.52128 0
M  V30 1389 H 125.018 -2.02556 3.34793 0
M  V30 1390 H 124.641 -3.3067 2.20778 0
M  V30 1391 N 125.638 -1.25649 -0.95132 0
M  V30 1392 C 126.863 -1.13443 -1.73624 0
M  V30 1393 C 127.288 0.307565 -1.85568 0
M  V30 1394 O 126.646 1.22282 -1.33854 0
M  V30 1395 C 126.694 -1.79723 -3.12621 0
M  V30 1396 O 125.798 -1.07912 -3.98031 0
M  V30 1397 H 125.139 -0.395872 -0.533086 0
M  V30 1398 H 127.669 -1.66276 -1.1922 0
M  V30 1399 H 127.679 -1.86141 -3.63064 0
M  V30 1400 H 126.354 -2.84633 -3.03244 0
M  V30 1401 H 124.931 -1.09398 -3.56492 0
M  V30 1402 N 127.117 1.15442 -1.07289 0
M  V30 1403 C 128.528 1.67803 -0.818475 0
M  V30 1404 C 128.879 1.8489 0.656507 0
M  V30 1405 O 128.004 1.55176 1.50829 0
M  V30 1406 C 128.599 3.04805 -1.47917 0
M  V30 1407 C 127.158 3.54245 -1.27229 0
M  V30 1408 C 126.305 2.29986 -1.54925 0
M  V30 1409 H 129.256 0.996646 -1.23502 0
M  V30 1410 H 129.277 3.69702 -0.90005 0
M  V30 1411 H 128.789 2.92336 -2.55267 0
M  V30 1412 H 126.89 3.71956 -0.21899 0
M  V30 1413 H 127.003 4.35723 -1.99203 0
M  V30 1414 H 125.367 2.35496 -0.970242 0
M  V30 1415 H 126.15 2.20105 -2.63455 0
M  V30 1416 N 128.595 0.856903 1.32268 0
M  V30 1417 C 129.558 0.308171 2.27119 0
M  V30 1418 C 130.558 -0.533421 1.51695 0
M  V30 1419 O 131.748 -0.344607 1.70757 0
M  V30 1420 C 128.88 -0.563757 3.36206 0
M  V30 1421 H 130.073 1.14535 2.77167 0
M  V30 1422 H 127.626 0.631421 1.42978 0
M  V30 1423 H 128.361 -1.42266 2.91429 0
M  V30 1424 H 128.146 0.0386749 3.92081 0
M  V30 1425 H 129.636 -0.940386 4.06874 0
M  V30 1426 N 130.073 -1.45103 0.615059 0
M  V30 1427 C 131.003 -2.33339 -0.0865619 0
M  V30 1428 C 131.984 -1.4727 -0.851209 0
M  V30 1429 O 133.169 -1.76026 -0.820281 0
M  V30 1430 C 130.299 -3.30095 -1.07956 0
M  V30 1431 C 129.253 -4.25858 -0.427628 0
M  V30 1432 C 128.579 -5.12361 -1.5294 0
M  V30 1433 C 129.879 -5.18165 0.655944 0
M  V30 1434 H 131.573 -2.92254 0.650224 0
M  V30 1435 H 129.119 -1.40532 0.314138 0
M  V30 1436 H 131.072 -3.90698 -1.57901 0
M  V30 1437 H 129.796 -2.69355 -1.84703 0
M  V30 1438 H 128.455 -3.66564 0.0510292 0
M  V30 1439 H 128.103 -4.47984 -2.28734 0
M  V30 1440 H 127.803 -5.77238 -1.09865 0
M  V30 1441 H 129.327 -5.75833 -2.03098 0
M  V30 1442 H 130.741 -5.72796 0.240257 0
M  V30 1443 H 129.138 -5.91559 1.00888 0
M  V30 1444 H 130.208 -4.60144 1.52957 0
M  V30 1445 N 131.551 -0.354651 -1.53558 0
M  V30 1446 C 132.797 0.238797 -2.01389 0
M  V30 1447 C 133.13 1.49309 -1.2418 0
M  V30 1448 O 132.405 1.91638 -0.332457 0
M  V30 1449 C 132.688 0.541771 -3.56001 0
M  V30 1450 C 132.541 -0.725388 -4.43912 0
M  V30 1451 C 133.86 1.34685 -4.18984 0
M  V30 1452 H 130.979 0.0853177 -0.732045 0
M  V30 1453 H 133.621 -0.477384 -1.83905 0
M  V30 1454 H 131.771 1.15189 -3.71031 0
M  V30 1455 H 133.443 -1.36313 -4.407 0
M  V30 1456 H 131.686 -1.34801 -4.12324 0
M  V30 1457 H 132.357 -0.468505 -5.50008 0
M  V30 1458 H 134.833 0.830837 -4.07721 0
M  V30 1459 H 133.709 1.52759 -5.27215 0
M  V30 1460 H 133.97 2.35221 -3.74331 0
M  V30 1461 N 133.029 1.57378 -0.0835403 0
M  V30 1462 C 134.277 1.93547 0.581718 0
M  V30 1463 C 134.598 0.96524 1.69435 0
M  V30 1464 O 133.868 0.0153369 1.95894 0
M  V30 1465 H 132.448 0.714521 0.217874 0
M  V30 1466 H 135.11 1.94366 -0.144158 0
M  V30 1467 H 134.206 2.95665 0.999423 0
M  V30 1468 N 134.507 -0.190092 1.56449 0
M  V30 1469 C 135.732 -0.929864 1.85387 0
M  V30 1470 C 136.157 -1.7585 0.667704 0
M  V30 1471 O 135.515 -1.77198 -0.383459 0
M  V30 1472 C 135.563 -1.79773 3.12593 0
M  V30 1473 O 134.667 -2.89713 2.93496 0
M  V30 1474 H 134.008 -0.261574 0.610307 0
M  V30 1475 H 136.538 -0.193896 2.03679 0
M  V30 1476 H 136.548 -2.20139 3.43515 0
M  V30 1477 H 135.223 -1.18892 3.98544 0
M  V30 1478 H 133.8 -2.53065 2.73884 0
M  V30 1479 N 135.985 -1.50799 -0.457987 0
M  V30 1480 C 136.933 -1.71162 -1.575 0
M  V30 1481 C 137.927 -0.577592 -1.59249 0
M  V30 1482 O 139.133 -0.758443 -1.63241 0
M  V30 1483 H 135.508 -0.540468 -0.522875 0
M  V30 1484 H 137.479 -2.64837 -1.37492 0
M  V30 1485 C 136.228 -1.83496 -2.95338 0
M  V30 1486 H 135.551 -2.70153 -2.94716 0
M  V30 1487 H 136.991 -2.01765 -3.72917 0
M  V30 1488 C 135.45 -0.589694 -3.31699 0
M  V30 1489 O 135.98 0.265163 -4.00824 0
M  V30 1490 N 134.186 -0.439845 -2.87252 0
M  V30 1491 H 133.733 -1.13655 -2.31172 0
M  V30 1492 H 133.691 0.392159 -3.11945 0
M  V30 1493 N 137.463 0.71206 -1.40597 0
M  V30 1494 C 138.712 1.46754 -1.38369 0
M  V30 1495 C 139.025 1.95598 0.0097839 0
M  V30 1496 O 140.231 2.71059 0.154677 0
M  V30 1497 C 138.687 2.65289 -2.43207 0
M  V30 1498 C 138.295 2.23301 -3.88382 0
M  V30 1499 C 140.039 3.43008 -2.50091 0
M  V30 1500 C 137.946 3.38696 -4.84808 0
M  V30 1501 H 136.876 0.55118 -0.514506 0
M  V30 1502 H 139.527 0.774616 -1.66349 0
M  V30 1503 H 137.909 3.36769 -2.08332 0
M  V30 1504 H 139.083 1.59218 -4.32419 0
M  V30 1505 H 137.398 1.58618 -3.85006 0
M  V30 1506 H 139.995 4.28881 -3.1932 0
M  V30 1507 H 140.338 3.87065 -1.53253 0
M  V30 1508 H 140.871 2.78574 -2.83974 0
M  V30 1509 H 137.61 2.99668 -5.82992 0
M  V30 1510 H 137.13 4.01683 -4.45433 0
M  V30 1511 H 138.809 4.04712 -5.04794 0
M  V30 1512 N 138.941 1.26152 0.944643 0
M  V30 1513 C 140.169 1.14259 1.72489 0
M  V30 1514 C 140.584 -0.302555 1.8636 0
M  V30 1515 O 139.941 -1.20741 1.36849 0
M  V30 1516 C 139.992 1.80266 3.13347 0
M  V30 1517 O 139.713 3.19133 3.00143 0
M  V30 1518 C 141.214 1.74283 4.07603 0
M  V30 1519 H 138.434 0.398051 0.540181 0
M  V30 1520 H 140.978 1.66706 1.18446 0
M  V30 1521 H 139.133 1.31766 3.64303 0
M  V30 1522 H 139.547 3.51744 3.89071 0
M  V30 1523 H 141.021 2.25111 5.04013 0
M  V30 1524 H 141.498 0.708631 4.33446 0
M  V30 1525 H 142.104 2.22319 3.62567 0
M  V30 1526 N 140.419 -1.14872 1.07899 0
M  V30 1527 C 141.666 -1.85789 0.805532 0
M  V30 1528 C 141.994 -1.82649 -0.668561 0
M  V30 1529 O 141.249 -1.24858 -1.50695 0
M  V30 1530 C 141.548 -3.34223 1.26609 0
M  V30 1531 C 141.214 -3.57555 2.74709 0
M  V30 1532 C 139.876 -3.63631 3.1516 0
M  V30 1533 C 142.228 -3.66803 3.70277 0
M  V30 1534 C 139.556 -3.76473 4.49983 0
M  V30 1535 C 141.908 -3.8117 5.04869 0
M  V30 1536 C 140.572 -3.85494 5.44932 0
M  V30 1537 H 139.842 -0.679849 0.294765 0
M  V30 1538 H 142.489 -1.3572 1.35101 0
M  V30 1539 H 140.794 -3.86536 0.640103 0
M  V30 1540 H 142.491 -3.87511 1.03132 0
M  V30 1541 H 139.081 -3.5347 2.42398 0
M  V30 1542 H 143.265 -3.61404 3.40149 0
M  V30 1543 H 138.521 -3.7808 4.80484 0
M  V30 1544 H 142.695 -3.87268 5.78789 0
M  V30 1545 H 140.322 -3.95197 6.49403 0
M  V30 1546 N 141.898 -0.863906 -1.31812 0
M  V30 1547 C 142.861 -0.320212 -2.26952 0
M  V30 1548 C 143.861 0.525369 -1.51975 0
M  V30 1549 O 145.051 0.335547 -1.70938 0
M  V30 1550 C 142.183 0.545919 -3.365 0
M  V30 1551 H 143.376 -1.16004 -2.76556 0
M  V30 1552 H 140.929 -0.638995 -1.42641 0
M  V30 1553 H 141.664 1.40718 -2.92179 0
M  V30 1554 H 141.449 -0.0594674 -3.92055 0
M  V30 1555 H 142.939 0.918796 -4.07367 0
M  V30 1556 N 143.376 1.44774 -0.622745 0
M  V30 1557 C 144.622 2.0242 -0.124083 0
M  V30 1558 C 144.955 1.4881 1.24777 0
M  V30 1559 O 144.23 0.668799 1.8264 0
M  V30 1560 C 144.513 3.59957 -0.101619 0
M  V30 1561 C 144.366 4.23867 -1.50521 0
M  V30 1562 C 145.685 4.36284 0.578272 0
M  V30 1563 H 142.804 0.735528 -0.0465645 0
M  V30 1564 H 145.446 1.72447 -0.797617 0
M  V30 1565 H 143.596 3.85623 0.471934 0
M  V30 1566 H 145.268 4.09336 -2.12701 0
M  V30 1567 H 143.511 3.81684 -2.06154 0
M  V30 1568 H 144.182 5.32843 -1.4416 0
M  V30 1569 H 146.658 4.16001 0.0906057 0
M  V30 1570 H 145.534 5.46004 0.563149 0
M  V30 1571 H 145.795 4.10271 1.64713 0
M  V30 1572 N 144.854 0.36279 1.53368 0
M  V30 1573 C 145.802 -0.500155 2.27159 0
M  V30 1574 C 146.796 -1.08575 1.3003 0
M  V30 1575 O 148.002 -1.02927 1.47668 0
M  V30 1576 H 144.377 -0.180009 0.730138 0
M  V30 1577 H 146.348 0.14401 2.98052 0
M  V30 1578 C 145.097 -1.62937 3.07159 0
M  V30 1579 H 144.42 -1.18806 3.8174 0
M  V30 1580 H 145.86 -2.20795 3.61975 0
M  V30 1581 C 144.319 -2.57007 2.17829 0
M  V30 1582 O 144.849 -3.59752 1.78721 0
M  V30 1583 N 143.055 -2.26131 1.82518 0
M  V30 1584 H 142.602 -1.42616 2.14519 0
M  V30 1585 H 142.56 -2.89327 1.23034 0
M  V30 1586 N 146.332 -1.57332 0.0918853 0
M  V30 1587 C 147.262 -2.16872 -0.865371 0
M  V30 1588 C 148.243 -1.10118 -1.29646 0
M  V30 1589 O 149.428 -1.38242 -1.36392 0
M  V30 1590 C 146.558 -2.74649 -2.12569 0
M  V30 1591 C 145.512 -3.86747 -1.83333 0
M  V30 1592 C 144.838 -4.31212 -3.16166 0
M  V30 1593 C 146.138 -5.10089 -1.1228 0
M  V30 1594 H 147.832 -2.97114 -0.369307 0
M  V30 1595 H 145.378 -1.42918 -0.176194 0
M  V30 1596 H 147.331 -3.14952 -2.7997 0
M  V30 1597 H 146.055 -1.91657 -2.64452 0
M  V30 1598 H 144.714 -3.46978 -1.18331 0
M  V30 1599 H 144.362 -3.45115 -3.6593 0
M  V30 1600 H 144.062 -5.06788 -2.97388 0
M  V30 1601 H 145.586 -4.74146 -3.84731 0
M  V30 1602 H 147 -5.47582 -1.69785 0
M  V30 1603 H 145.397 -5.91073 -1.03693 0
M  V30 1604 H 146.467 -4.84786 -0.105041 0
M  V30 1605 N 147.81 0.181792 -1.56548 0
M  V30 1606 C 149.059 0.898348 -1.8059 0
M  V30 1607 C 149.372 1.83862 -0.667379 0
M  V30 1608 O 150.578 2.59678 -0.792446 0
M  V30 1609 C 149.034 1.64791 -3.19956 0
M  V30 1610 C 148.642 0.751789 -4.41647 0
M  V30 1611 C 150.386 2.35331 -3.53298 0
M  V30 1612 C 148.293 1.50098 -5.72035 0
M  V30 1613 H 147.223 0.339194 -0.673397 0
M  V30 1614 H 149.874 0.151413 -1.82874 0
M  V30 1615 H 148.256 2.43921 -3.11959 0
M  V30 1616 H 149.43 -0.0018076 -4.608 0
M  V30 1617 H 147.745 0.156562 -4.16106 0
M  V30 1618 H 150.342 2.91958 -4.47956 0
M  V30 1619 H 150.685 3.10164 -2.77676 0
M  V30 1620 H 151.218 1.63154 -3.62803 0
M  V30 1621 H 147.957 0.795175 -6.50659 0
M  V30 1622 H 147.477 2.22817 -5.56878 0
M  V30 1623 H 149.156 2.05125 -6.13622 0
M  V30 1624 N 149.288 1.51039 0.449983 0
M  V30 1625 C 150.535 1.63081 1.20045 0
M  V30 1626 C 150.863 0.341024 1.91487 0
M  V30 1627 O 150.118 -0.674276 1.83717 0
M  V30 1628 C 150.417 2.77556 2.25161 0
M  V30 1629 C 150.083 4.17289 1.70823 0
M  V30 1630 C 148.745 4.55305 1.55725 0
M  V30 1631 C 151.097 5.04536 1.3074 0
M  V30 1632 C 148.425 5.78287 0.989999 0
M  V30 1633 C 150.777 6.28085 0.754482 0
M  V30 1634 C 149.441 6.64885 0.590308 0
M  V30 1635 H 148.711 0.596755 0.439277 0
M  V30 1636 H 151.358 1.85037 0.49333 0
M  V30 1637 H 149.663 2.49771 3.01863 0
M  V30 1638 H 151.36 2.84073 2.83026 0
M  V30 1639 H 147.95 3.8731 1.83546 0
M  V30 1640 H 152.134 4.75782 1.41229 0
M  V30 1641 H 147.39 6.05456 0.850451 0
M  V30 1642 H 151.564 6.95038 0.435324 0
M  V30 1643 H 149.191 7.60055 0.14862 0
M  V30 1644 N 150.766 -0.704594 1.40972 0
M  V30 1645 C 152.177 -1.28418 1.3552 0
M  V30 1646 C 152.528 -1.96171 0.0339434 0
M  V30 1647 O 151.653 -1.98231 -0.867944 0
M  V30 1648 C 152.248 -2.33528 2.45459 0
M  V30 1649 C 150.807 -2.87085 2.43433 0
M  V30 1650 C 149.954 -1.61007 2.2577 0
M  V30 1651 H 152.905 -0.499963 1.50619 0
M  V30 1652 H 152.926 -3.14619 2.13998 0
M  V30 1653 H 152.438 -1.84187 3.41609 0
M  V30 1654 H 150.539 -3.40626 1.51013 0
M  V30 1655 H 150.652 -3.3813 3.39419 0
M  V30 1656 H 149.016 -1.86482 1.73483 0
M  V30 1657 H 149.799 -1.13675 3.23933 0
M  V30 1658 N 152.244 -1.26651 -0.937939 0
M  V30 1659 C 153.66 -1.03834 -1.21205 0
M  V30 1660 C 153.86 0.234502 -2.00131 0
M  V30 1661 O 152.916 0.942767 -2.3424 0
M  V30 1662 C 154.229 -2.27167 -1.97017 0
M  V30 1663 C 155.777 -2.32101 -2.09996 0
M  V30 1664 C 156.252 -3.55136 -2.8921 0
M  V30 1665 N 157.743 -3.55632 -2.96783 0
M  V30 1666 C 158.478 -4.475 -3.58512 0
M  V30 1667 N 157.974 -5.4966 -4.21717 0
M  V30 1668 N 159.767 -4.35145 -3.55816 0
M  V30 1669 H 151.918 -2.08398 -0.410391 0
M  V30 1670 H 154.181 -0.916031 -0.244114 0
M  V30 1671 H 153.887 -3.19765 -1.46434 0
M  V30 1672 H 153.761 -2.31672 -2.97671 0
M  V30 1673 H 156.148 -1.40015 -2.59769 0
M  V30 1674 H 156.229 -2.31605 -1.08594 0
M  V30 1675 H 155.873 -4.47553 -2.40123 0
M  V30 1676 H 155.803 -3.5288 -3.90875 0
M  V30 1677 H 158.294 -2.81743 -2.51852 0
M  V30 1678 H 158.607 -6.15943 -4.66727 0
M  V30 1679 H 156.952 -5.53514 -4.20294 0
M  V30 1680 H 160.143 -3.5455 -3.05634 0
M  V30 1681 H 160.316 -5.06934 -4.03636 0
M  V30 1682 N 153.722 1.14298 -1.08507 0
M  V30 1683 C 154.962 1.87016 -0.824894 0
M  V30 1684 C 155.326 1.81099 0.637735 0
M  V30 1685 O 156.527 2.48963 1.01345 0
M  V30 1686 C 154.798 3.31584 -1.33368 0
M  V30 1687 S 156.357 4.21903 -1.20596 0
M  V30 1688 H 153.175 0.645259 -0.2986 0
M  V30 1689 H 155.777 1.37822 -1.38656 0
M  V30 1690 H 154.481 3.33439 -2.39262 0
M  V30 1691 H 154.012 3.85836 -0.767734 0
M  V30 1692 H 156.027 4.95971 -0.150891 0
M  V30 1693 N 155.201 0.870884 1.31352 0
M  V30 1694 C 156.133 0.28455 2.27427 0
M  V30 1695 C 157.146 -0.552927 1.53123 0
M  V30 1696 O 158.335 -0.374771 1.74521 0
M  V30 1697 C 155.435 -0.615164 3.3327 0
M  V30 1698 C 154.608 0.190079 4.36987 0
M  V30 1699 C 153.667 -0.637917 5.22319 0
M  V30 1700 O 152.693 -0.065626 5.69162 0
M  V30 1701 N 153.895 -1.94973 5.46778 0
M  V30 1702 H 156.66 1.11017 2.7838 0
M  V30 1703 H 154.221 0.732458 1.44384 0
M  V30 1704 H 156.213 -1.1748 3.87273 0
M  V30 1705 H 154.783 -1.34146 2.82354 0
M  V30 1706 H 154.003 0.931165 3.83044 0
M  V30 1707 H 155.291 0.742579 5.03352 0
M  V30 1708 H 154.689 -2.4378 5.10478 0
M  V30 1709 H 153.246 -2.45713 6.03712 0
M  V30 1710 N 156.679 -1.44442 0.630414 0
M  V30 1711 C 157.626 -2.30678 -0.0749355 0
M  V30 1712 C 158.596 -1.4344 -0.837502 0
M  V30 1713 O 159.781 -1.72343 -0.818684 0
M  V30 1714 C 156.921 -3.28706 -1.05103 0
M  V30 1715 C 156.034 -4.31046 -0.286954 0
M  V30 1716 C 155.169 -5.16167 -1.2548 0
M  V30 1717 C 154.208 -6.10216 -0.479843 0
M  V30 1718 N 153.345 -6.88039 -1.39811 0
M  V30 1719 H 158.185 -2.90454 0.666386 0
M  V30 1720 H 155.722 -1.43107 0.340404 0
M  V30 1721 H 157.68 -3.84027 -1.63031 0
M  V30 1722 H 156.31 -2.70632 -1.75949 0
M  V30 1723 H 155.362 -3.78203 0.408243 0
M  V30 1724 H 156.674 -4.97794 0.316657 0
M  V30 1725 H 155.828 -5.76002 -1.90544 0
M  V30 1726 H 154.567 -4.49491 -1.89233 0
M  V30 1727 H 153.572 -5.49491 0.184295 0
M  V30 1728 H 154.797 -6.78928 0.152965 0
M  V30 1729 H 152.743 -6.24032 -2.02287 0
M  V30 1730 H 152.66 -7.51223 -0.848508 0
M  V30 1731 H 153.928 -7.52397 -2.03762 0
M  V30 1732 N 158.157 -0.370918 -1.53173 0
M  V30 1733 C 159.067 0.480823 -2.2962 0
M  V30 1734 C 160.083 1.08789 -1.35798 0
M  V30 1735 O 161.259 1.09768 -1.68858 0
M  V30 1736 C 158.324 1.60227 -3.07454 0
M  V30 1737 C 157.385 1.0222 -4.16953 0
M  V30 1738 C 156.618 2.0902 -4.91066 0
M  V30 1739 O 156.841 3.30222 -4.65091 0
M  V30 1740 O 155.775 1.71778 -5.76867 0
M  V30 1741 H 159.601 -0.141421 -3.03371 0
M  V30 1742 H 157.186 -0.135146 -1.48787 0
M  V30 1743 H 159.068 2.25417 -3.56041 0
M  V30 1744 H 157.743 2.20982 -2.36535 0
M  V30 1745 H 156.65 0.334064 -3.72605 0
M  V30 1746 H 157.983 0.459131 -4.90054 0
M  V30 1747 N 159.635 1.57281 -0.100228 0
M  V30 1748 C 160.912 1.86014 0.604812 0
M  V30 1749 C 161.292 0.998025 1.86018 0
M  V30 1750 O 160.64 0.0718184 2.28387 0
M  V30 1751 C 160.85 3.36784 0.915278 0
M  V30 1752 C 162.198 4.04957 1.27651 0
M  V30 1753 O 163.222 3.41695 1.00613 0
M  V30 1754 O 162.081 5.16593 1.7831 0
M  V30 1755 H 159.175 0.76942 0.303185 0
M  V30 1756 H 161.721 1.69176 -0.133313 0
M  V30 1757 H 160.493 3.91292 0.0248896 0
M  V30 1758 H 160.116 3.58987 1.70921 0
M  V30 1759 N 161.113 -0.173488 1.56642 0
M  V30 1760 C 162.076 -1.19859 1.95362 0
M  V30 1761 C 163.076 -1.37296 0.83704 0
M  V30 1762 O 164.266 -1.34739 1.10413 0
M  V30 1763 C 161.398 -2.56405 2.24654 0
M  V30 1764 H 162.591 -0.867062 2.87092 0
M  V30 1765 H 160.144 -0.415853 1.50666 0
M  V30 1766 H 160.879 -2.94576 1.35631 0
M  V30 1767 H 160.664 -2.45115 3.06041 0
M  V30 1768 H 162.154 -3.30287 2.5554 0
M  V30 1769 N 162.591 -1.51276 -0.441967 0
M  V30 1770 C 163.539 -1.72823 -1.55676 0
M  V30 1771 C 164.533 -0.59445 -1.58627 0
M  V30 1772 O 165.739 -0.775715 -1.62427 0
M  V30 1773 H 162.114 -0.545983 -0.517113 0
M  V30 1774 H 164.085 -2.6628 -1.34675 0
M  V30 1775 C 162.834 -1.86619 -2.93375 0
M  V30 1776 H 162.157 -2.73264 -2.91834 0
M  V30 1777 H 163.597 -2.05709 -3.70756 0
M  V30 1778 C 162.056 -0.624842 -3.31055 0
M  V30 1779 O 162.586 0.222636 -4.01083 0
M  V30 1780 N 160.792 -0.470288 -2.86769 0
M  V30 1781 H 160.339 -1.161 -2.29953 0
M  V30 1782 H 160.297 0.359051 -3.12343 0
M  V30 1783 N 164.069 0.697108 -1.41344 0
M  V30 1784 C 165.317 1.45426 -1.40341 0
M  V30 1785 C 165.638 1.94996 -0.0128787 0
M  V30 1786 O 164.908 1.71599 0.945027 0
M  V30 1787 H 163.488 0.539594 -0.516573 0
M  V30 1788 H 166.15 0.825201 -1.76569 0
M  V30 1789 H 165.246 2.31817 -2.08967 0
M  V30 1790 N 165.547 1.27147 0.931209 0
M  V30 1791 C 166.495 1.09398 2.05268 0
M  V30 1792 C 167.489 0.0180591 1.6939 0
M  V30 1793 O 168.695 0.17551 1.79142 0
M  V30 1794 H 165.07 0.336986 0.672268 0
M  V30 1795 H 167.041 2.04416 2.17386 0
M  V30 1796 C 165.79 0.75424 3.39421 0
M  V30 1797 H 165.113 1.57404 3.67511 0
M  V30 1798 H 166.553 0.669903 4.18674 0
M  V30 1799 C 165.012 -0.541197 3.32525 0
M  V30 1800 O 165.542 -1.57664 3.69466 0
M  V30 1801 N 163.748 -0.535517 2.85623 0
M  V30 1802 H 163.295 0.307511 2.55758 0
M  V30 1803 H 163.253 -1.40236 2.81392 0
M  V30 1804 N 167.025 -1.13721 1.09112 0
M  V30 1805 C 168.274 -1.84275 0.82009 0
M  V30 1806 C 168.587 -1.84253 -0.656509 0
M  V30 1807 O 169.793 -2.50668 -1.04296 0
M  V30 1808 C 168.249 -3.30825 1.41714 0
M  V30 1809 C 167.857 -3.39244 2.92605 0
M  V30 1810 C 169.601 -4.06443 1.22492 0
M  V30 1811 C 167.508 -4.80047 3.45411 0
M  V30 1812 H 166.438 -0.690387 0.30312 0
M  V30 1813 H 169.089 -1.28146 1.31343 0
M  V30 1814 H 167.471 -3.86737 0.851498 0
M  V30 1815 H 168.645 -2.93344 3.55367 0
M  V30 1816 H 166.96 -2.77088 3.10823 0
M  V30 1817 H 169.557 -5.10387 1.59402 0
M  V30 1818 H 169.9 -4.15972 0.165299 0
M  V30 1819 H 170.433 -3.56852 1.75788 0
M  V30 1820 H 167.172 -4.75709 4.50978 0
M  V30 1821 H 166.692 -5.26455 2.87411 0
M  V30 1822 H 168.371 -5.48957 3.42425 0
M  V30 1823 N 168.503 -0.877838 -1.30888 0
M  V30 1824 C 169.749 -0.493426 -1.96706 0
M  V30 1825 C 170.082 0.953504 -1.6918 0
M  V30 1826 O 169.357 1.67266 -0.992594 0
M  V30 1827 C 169.64 -0.760429 -3.51979 0
M  V30 1828 C 169.493 -2.25747 -3.89048 0
M  V30 1829 C 170.812 -0.232148 -4.39487 0
M  V30 1830 H 167.931 -0.180746 -0.714493 0
M  V30 1831 H 170.573 -1.10052 -1.54882 0
M  V30 1832 H 168.723 -0.243715 -3.87735 0
M  V30 1833 H 170.395 -2.84204 -3.63354 0
M  V30 1834 H 168.638 -2.72694 -3.37373 0
M  V30 1835 H 169.309 -2.39491 -4.97341 0
M  V30 1836 H 171.785 -0.674314 -4.106 0
M  V30 1837 H 170.661 -0.448355 -5.47066 0
M  V30 1838 H 170.922 0.866297 -4.33529 0
M  V30 1839 N 169.982 1.44106 -0.638065 0
M  V30 1840 C 171.212 2.06037 -0.152394 0
M  V30 1841 C 171.62 1.47808 1.18108 0
M  V30 1842 O 170.963 0.598092 1.73691 0
M  V30 1843 C 171.025 3.59488 0.0293714 0
M  V30 1844 C 170.689 4.4022 -1.22702 0
M  V30 1845 C 171.686 4.73256 -2.15232 0
M  V30 1846 C 169.371 4.8048 -1.46437 0
M  V30 1847 C 171.365 5.45444 -3.29802 0
M  V30 1848 C 169.052 5.52417 -2.61303 0
M  V30 1849 C 170.05 5.84819 -3.52811 0
M  V30 1850 O 169.738 6.55289 -4.65673 0
M  V30 1851 H 169.47 0.671233 -0.0801401 0
M  V30 1852 H 172.024 1.85851 -0.874563 0
M  V30 1853 H 170.254 3.78191 0.806758 0
M  V30 1854 H 171.943 4.03164 0.470475 0
M  V30 1855 H 172.709 4.42684 -1.98131 0
M  V30 1856 H 168.588 4.54676 -0.760977 0
M  V30 1857 H 172.132 5.70653 -4.01249 0
M  V30 1858 H 168.029 5.82404 -2.78344 0
M  V30 1859 H 168.797 6.73762 -4.64744 0
M  V30 1860 N 171.46 0.379036 1.52974 0
M  V30 1861 C 172.37 -0.468639 2.29872 0
M  V30 1862 C 173.386 -1.08067 1.36373 0
M  V30 1863 O 174.562 -1.08871 1.69438 0
M  V30 1864 C 171.627 -1.58594 3.083 0
M  V30 1865 C 170.688 -1.00007 4.17489 0
M  V30 1866 C 169.921 -2.06413 4.92168 0
M  V30 1867 O 170.144 -3.27751 4.66835 0
M  V30 1868 O 169.078 -1.68717 5.7777 0
M  V30 1869 H 172.904 0.157508 3.03291 0
M  V30 1870 H 170.489 0.143035 1.48714 0
M  V30 1871 H 172.371 -2.23525 3.57232 0
M  V30 1872 H 171.046 -2.19724 2.37703 0
M  V30 1873 H 169.953 -0.314299 3.72777 0
M  V30 1874 H 171.286 -0.433135 4.90291 0
M  V30 1875 N 172.938 -1.57226 0.108567 0
M  V30 1876 C 173.885 -2.14756 -0.845481 0
M  V30 1877 C 174.855 -1.06971 -1.27068 0
M  V30 1878 O 176.04 -1.34827 -1.35005 0
M  V30 1879 C 173.18 -2.74298 -2.09415 0
M  V30 1880 C 172.293 -3.96358 -1.71826 0
M  V30 1881 C 171.428 -4.44021 -2.9158 0
M  V30 1882 C 170.467 -5.58637 -2.50181 0
M  V30 1883 N 169.604 -6.01091 -3.62814 0
M  V30 1884 H 174.444 -2.95961 -0.348035 0
M  V30 1885 H 171.981 -1.46226 -0.160106 0
M  V30 1886 H 173.939 -3.06945 -2.82561 0
M  V30 1887 H 172.569 -1.95801 -2.56636 0
M  V30 1888 H 171.621 -3.69939 -0.885947 0
M  V30 1889 H 172.933 -4.79504 -1.37394 0
M  V30 1890 H 172.087 -4.78522 -3.72963 0
M  V30 1891 H 170.826 -3.59803 -3.29231 0
M  V30 1892 H 169.831 -5.23751 -1.67228 0
M  V30 1893 H 171.056 -6.44613 -2.13659 0
M  V30 1894 H 169.002 -5.19817 -4.00158 0
M  V30 1895 H 168.919 -6.79066 -3.32273 0
M  V30 1896 H 170.187 -6.40227 -4.44668 0
M  V30 1897 N 174.416 0.165178 -1.56732 0
M  V30 1898 C 175.364 1.22369 -1.97809 0
M  V30 1899 C 176.358 1.45488 -0.867741 0
M  V30 1900 O 177.564 1.45995 -1.05288 0
M  V30 1901 H 173.939 0.411486 -0.629431 0
M  V30 1902 H 175.91 0.850425 -2.86025 0
M  V30 1903 C 174.659 2.55403 -2.35934 0
M  V30 1904 H 173.982 2.38438 -3.20916 0
M  V30 1905 H 175.422 3.2814 -2.68514 0
M  V30 1906 C 173.881 3.14611 -1.20506 0
M  V30 1907 O 174.411 3.98626 -0.496016 0
M  V30 1908 N 172.617 2.7379 -0.97403 0
M  V30 1909 H 172.164 2.0557 -1.55238 0
M  V30 1910 H 172.122 3.1374 -0.203573 0
M  V30 1911 N 175.894 1.51508 0.433938 0
M  V30 1912 C 177.134 1.66006 1.19253 0
M  V30 1913 C 177.498 0.369868 1.88404 0
M  V30 1914 O 178.699 0.39066 2.65946 0
M  V30 1915 C 176.97 2.83229 2.17981 0
M  V30 1916 S 178.529 3.18075 3.02281 0
M  V30 1917 H 175.347 0.584821 0.404358 0
M  V30 1918 H 177.949 1.89425 0.48357 0
M  V30 1919 H 176.653 3.75407 1.65824 0
M  V30 1920 H 176.184 2.6201 2.93453 0
M  V30 1921 H 178.199 2.64772 4.19655 0
M  V30 1922 N 177.372 -0.689602 1.41712 0
M  V30 1923 C 178.788 -1.00093 1.24312 0
M  V30 1924 C 178.988 -2.01036 0.136729 0
M  V30 1925 O 178.044 -2.47562 -0.496918 0
M  V30 1926 C 179.357 -1.51985 2.59463 0
M  V30 1927 C 180.905 -1.63838 2.66695 0
M  V30 1928 C 181.38 -2.1913 4.02177 0
M  V30 1929 N 182.871 -2.26483 4.04054 0
M  V30 1930 C 183.606 -2.70306 5.0569 0
M  V30 1931 N 183.102 -3.13691 6.17713 0
M  V30 1932 N 184.895 -2.69923 4.9305 0
M  V30 1933 H 177.046 -0.0210029 2.1239 0
M  V30 1934 H 179.309 -0.0718733 0.945272 0
M  V30 1935 H 179.015 -0.85269 3.41207 0
M  V30 1936 H 178.889 -2.50103 2.82362 0
M  V30 1937 H 181.276 -2.29664 1.85306 0
M  V30 1938 H 181.357 -0.642492 2.476 0
M  V30 1939 H 181.001 -1.53918 4.84016 0
M  V30 1940 H 180.931 -3.19482 4.18615 0
M  V30 1941 H 183.422 -1.95874 3.23174 0
M  V30 1942 H 183.735 -3.45773 6.9113 0
M  V30 1943 H 182.08 -3.11585 6.21241 0
M  V30 1944 H 185.271 -2.35382 4.04614 0
M  V30 1945 H 185.444 -3.03758 5.72394 0
M  V30 1946 N 178.85 -1.27639 -0.924453 0
M  V30 1947 C 179.798 -1.10485 -2.04685 0
M  V30 1948 C 180.792 -0.0270421 -1.69378 0
M  V30 1949 O 181.998 -0.185008 -1.79047 0
M  V30 1950 H 178.373 -0.340546 -0.670472 0
M  V30 1951 H 180.344 -2.05566 -2.16298 0
M  V30 1952 C 179.093 -0.772229 -3.39016 0
M  V30 1953 H 178.416 -1.59351 -3.66671 0
M  V30 1954 H 179.856 -0.692097 -4.18313 0
M  V30 1955 C 178.315 0.523554 -3.32807 0
M  V30 1956 O 178.845 1.55702 -3.70297 0
M  V30 1957 N 177.051 0.520363 -2.85903 0
M  V30 1958 H 176.598 -0.32107 -2.55591 0
M  V30 1959 H 176.556 1.38742 -2.82131 0
M  V30 1960 N 180.328 1.1314 -1.09713 0
M  V30 1961 C 181.238 2.22242 -0.751367 0
M  V30 1962 C 182.254 1.72224 0.247938 0
M  V30 1963 O 183.43 2.01205 0.0885463 0
M  V30 1964 C 180.495 3.46231 -0.180274 0
M  V30 1965 C 179.556 4.11125 -1.2359 0
M  V30 1966 C 178.789 5.29195 -0.691966 0
M  V30 1967 O 179.012 5.68342 0.48414 0
M  V30 1968 O 177.946 5.84214 -1.44838 0
M  V30 1969 H 181.772 2.54197 -1.66186 0
M  V30 1970 H 179.357 1.21331 -0.871735 0
M  V30 1971 H 181.239 4.21185 0.134739 0
M  V30 1972 H 179.914 3.1597 0.703185 0
M  V30 1973 H 178.821 3.37985 -1.60366 0
M  V30 1974 H 180.154 4.45524 -2.09211 0
M  V30 1975 N 181.806 0.884767 1.30421 0
M  V30 1976 C 182.769 0.356277 2.26414 0
M  V30 1977 C 183.769 -0.501124 1.52792 0
M  V30 1978 O 184.959 -0.30831 1.7145 0
M  V30 1979 C 182.091 -0.492316 3.37326 0
M  V30 1980 H 183.284 1.20389 2.74675 0
M  V30 1981 H 180.837 0.661607 1.41607 0
M  V30 1982 H 181.572 -1.36052 2.94381 0
M  V30 1983 H 181.357 0.121832 3.91911 0
M  V30 1984 H 182.847 -0.853871 4.08777 0
M  V30 1985 N 183.284 -1.43765 0.645699 0
M  V30 1986 C 184.532 -2.01499 0.155731 0
M  V30 1987 C 184.853 -1.51151 -1.232 0
M  V30 1988 O 184.123 -0.721044 -1.82148 0
M  V30 1989 H 182.703 -0.745003 0.0545817 0
M  V30 1990 H 185.365 -1.76075 0.835677 0
M  V30 1991 H 184.461 -3.1181 0.134577 0
M  V30 1992 N 184.763 -0.387143 -1.52771 0
M  V30 1993 C 185.693 0.440551 -2.29306 0
M  V30 1994 C 186.674 1.06535 -1.32606 0
M  V30 1995 O 187.859 1.07853 -1.61497 0
M  V30 1996 C 184.989 1.56919 -3.09829 0
M  V30 1997 C 183.943 1.07054 -4.14395 0
M  V30 1998 C 183.269 2.29109 -4.83129 0
M  V30 1999 C 184.569 0.140015 -5.22112 0
M  V30 2000 H 186.263 -0.198026 -2.98744 0
M  V30 2001 H 183.809 -0.09668 -1.43675 0
M  V30 2002 H 185.762 2.15503 -3.62128 0
M  V30 2003 H 184.486 2.23532 -2.3812 0
M  V30 2004 H 183.145 0.507247 -3.63074 0
M  V30 2005 H 182.793 2.94227 -4.0797 0
M  V30 2006 H 182.493 1.96406 -5.53804 0
M  V30 2007 H 184.017 2.88339 -5.38231 0
M  V30 2008 H 185.431 0.633978 -5.69784 0
M  V30 2009 H 183.828 -0.0971485 -6.00021 0
M  V30 2010 H 184.898 -0.811711 -4.78058 0
M  V30 2011 N 186.241 1.57166 -0.116904 0
M  V30 2012 C 187.466 1.999 0.55271 0
M  V30 2013 C 187.891 0.996039 1.59564 0
M  V30 2014 O 187.249 -0.032556 1.81271 0
M  V30 2015 C 187.297 3.4152 1.15742 0
M  V30 2016 O 186.401 3.44106 2.27299 0
M  V30 2017 H 185.742 0.649447 0.138258 0
M  V30 2018 H 188.272 2.03573 -0.204759 0
M  V30 2019 H 188.282 3.79684 1.49346 0
M  V30 2020 H 186.957 4.14034 0.393493 0
M  V30 2021 H 185.534 3.17759 1.9515 0
M  V30 2022 N 187.719 -0.156864 1.56817 0
M  V30 2023 C 188.682 -1.17781 1.96622 0
M  V30 2024 C 189.682 -1.36401 0.851555 0
M  V30 2025 O 190.872 -1.33561 1.11836 0
M  V30 2026 C 188.004 -2.54008 2.27361 0
M  V30 2027 H 189.197 -0.836564 2.87996 0
M  V30 2028 H 186.75 -0.39985 1.51099 0
M  V30 2029 H 187.485 -2.9312 1.38748 0
M  V30 2030 H 187.27 -2.41856 3.08623 0
M  V30 2031 H 188.76 -3.27558 2.59029 0
M  V30 2032 N 189.197 -1.51736 -0.425897 0
M  V30 2033 C 190.474 -1.55519 -1.1863 0
M  V30 2034 C 190.854 -0.326219 -2.08564 0
M  V30 2035 O 190.202 0.688012 -2.17896 0
M  V30 2036 C 190.412 -2.87521 -1.9782 0
M  V30 2037 C 191.76 -3.39899 -2.54468 0
M  V30 2038 O 192.784 -2.89148 -2.08019 0
M  V30 2039 O 191.643 -4.2848 -3.39215 0
M  V30 2040 H 188.737 -0.625739 -0.540721 0
M  V30 2041 H 191.283 -1.64055 -0.434038 0
M  V30 2042 H 190.055 -3.68422 -1.31836 0
M  V30 2043 H 189.678 -2.822 -2.80088 0
M  V30 2044 N 190.675 0.682077 -1.42076 0
M  V30 2045 C 192.086 1.26246 -1.37546 0
M  V30 2046 C 192.437 1.96092 -0.0651481 0
M  V30 2047 O 191.562 1.99587 0.836297 0
M  V30 2048 C 192.157 2.29594 -2.49143 0
M  V30 2049 C 190.716 2.83175 -2.47969 0
M  V30 2050 C 189.863 1.57395 -2.28303 0
M  V30 2051 H 192.814 0.475937 -1.51395 0
M  V30 2052 H 192.835 3.11175 -2.18976 0
M  V30 2053 H 192.347 1.78729 -3.44496 0
M  V30 2054 H 190.448 3.3818 -1.56413 0
M  V30 2055 H 190.561 3.32687 -3.44755 0
M  V30 2056 H 188.925 1.83699 -1.76428 0
M  V30 2057 H 189.708 1.08507 -3.25701 0
M  V30 2058 N 192.153 1.28127 0.917671 0
M  V30 2059 C 193.383 1.17722 1.6978 0
M  V30 2060 C 193.791 -0.267261 1.87303 0
M  V30 2061 O 193.134 -1.19286 1.39702 0
M  V30 2062 C 193.196 1.79958 3.11216 0
M  V30 2063 C 192.86 3.29187 3.16993 0
M  V30 2064 C 193.857 4.25679 2.98485 0
M  V30 2065 C 191.542 3.70075 3.39632 0
M  V30 2066 C 193.536 5.61035 3.02521 0
M  V30 2067 C 191.223 5.05557 3.433 0
M  V30 2068 C 192.221 6.00847 3.24764 0
M  V30 2069 O 191.909 7.33859 3.28187 0
M  V30 2070 H 191.641 0.409788 0.537634 0
M  V30 2071 H 194.195 1.69694 1.15728 0
M  V30 2072 H 192.425 1.22475 3.66793 0
M  V30 2073 H 194.114 1.64125 3.71238 0
M  V30 2074 H 194.88 3.95426 2.80826 0
M  V30 2075 H 190.759 2.96373 3.53106 0
M  V30 2076 H 194.303 6.35388 2.87971 0
M  V30 2077 H 190.2 5.35462 3.60486 0
M  V30 2078 H 190.968 7.42436 3.44575 0
M  V30 2079 N 193.631 -1.12557 1.10312 0
M  V30 2080 C 194.877 -1.84311 0.846011 0
M  V30 2081 C 195.21 -1.83805 -0.626859 0
M  V30 2082 O 194.485 -1.28268 -1.46211 0
M  V30 2083 C 194.768 -3.32048 1.39341 0
M  V30 2084 C 194.621 -3.41016 2.93305 0
M  V30 2085 C 195.94 -4.27764 1.03468 0
M  V30 2086 H 193.059 -0.669192 0.30879 0
M  V30 2087 H 195.701 -1.32057 1.36605 0
M  V30 2088 H 193.851 -3.76678 0.951087 0
M  V30 2089 H 195.523 -3.05031 3.46055 0
M  V30 2090 H 193.766 -2.81603 3.29973 0
M  V30 2091 H 194.437 -4.44948 3.26689 0
M  V30 2092 H 196.913 -3.91253 1.41633 0
M  V30 2093 H 195.789 -5.29549 1.44463 0
M  V30 2094 H 196.05 -4.42064 -0.0560404 0
M  V30 2095 N 195.109 -0.891671 -1.2995 0
M  V30 2096 C 196.339 -0.527893 -1.99742 0
M  V30 2097 C 196.747 0.88979 -1.66971 0
M  V30 2098 O 196.09 1.59766 -0.906667 0
M  V30 2099 C 196.152 -0.630804 -3.53922 0
M  V30 2100 C 195.816 -2.01401 -4.10228 0
M  V30 2101 C 196.813 -2.98422 -4.25724 0
M  V30 2102 C 194.498 -2.32121 -4.45449 0
M  V30 2103 C 196.492 -4.24293 -4.75662 0
M  V30 2104 C 194.179 -3.58237 -4.95086 0
M  V30 2105 C 195.177 -4.54137 -5.10146 0
M  V30 2106 O 194.865 -5.78014 -5.58708 0
M  V30 2107 H 194.597 -0.201953 -0.645129 0
M  V30 2108 H 197.151 -1.20076 -1.66646 0
M  V30 2109 H 195.381 0.0990616 -3.86573 0
M  V30 2110 H 197.07 -0.277338 -4.04951 0
M  V30 2111 H 197.836 -2.76001 -3.98809 0
M  V30 2112 H 193.715 -1.5824 -4.32991 0
M  V30 2113 H 197.259 -4.99153 -4.87332 0
M  V30 2114 H 193.156 -3.80491 -5.21437 0
M  V30 2115 H 193.924 -5.8049 -5.77039 0
M  V30 2116 N 196.587 1.43421 -0.653314 0
M  V30 2117 C 197.535 2.32546 0.0501531 0
M  V30 2118 C 198.529 1.48617 0.812985 0
M  V30 2119 O 199.735 1.64825 0.723375 0
M  V30 2120 H 196.11 0.751185 0.0350032 0
M  V30 2121 H 198.081 2.89602 -0.719261 0
M  V30 2122 C 196.83 3.32925 1.00279 0
M  V30 2123 H 196.153 3.97532 0.425236 0
M  V30 2124 H 197.593 3.9792 1.46409 0
M  V30 2125 C 196.052 2.63532 2.09886 0
M  V30 2126 O 196.582 2.45092 3.18265 0
M  V30 2127 N 194.788 2.22905 1.86445 0
M  V30 2128 H 194.335 2.38103 0.98309 0
M  V30 2129 H 194.293 1.76805 2.59976 0
M  V30 2130 N 198.065 0.39524 1.52563 0
M  V30 2131 C 199.311 -0.177763 2.02622 0
M  V30 2132 C 199.666 -1.43974 1.27629 0
M  V30 2133 O 198.959 -1.87995 0.36992 0
M  V30 2134 C 199.153 -0.493444 3.53977 0
M  V30 2135 C 198.982 0.736392 4.4363 0
M  V30 2136 C 197.752 1.25744 4.89404 0
M  V30 2137 C 199.95 1.61046 4.88435 0
M  V30 2138 N 197.932 2.44421 5.63145 0
M  V30 2139 C 199.303 2.64359 5.60816 0
M  V30 2140 C 201.358 1.62985 4.70468 0
M  V30 2141 C 200.061 3.69505 6.17137 0
M  V30 2142 C 202.087 2.67042 5.27677 0
M  V30 2143 C 201.449 3.69077 5.99968 0
M  V30 2144 H 197.548 -0.0269794 0.781534 0
M  V30 2145 H 200.132 0.546466 1.86874 0
M  V30 2146 H 198.303 -1.18672 3.69826 0
M  V30 2147 H 200.035 -1.05412 3.90731 0
M  V30 2148 H 196.79 0.817546 4.6649 0
M  V30 2149 H 197.214 3.04485 6.04663 0
M  V30 2150 H 201.856 0.854442 4.14076 0
M  V30 2151 H 199.574 4.4791 6.72608 0
M  V30 2152 H 203.16 2.69433 5.15652 0
M  V30 2153 H 202.04 4.48273 6.43444 0
M  V30 2154 N 199.544 -1.57102 0.125237 0
M  V30 2155 C 200.772 -1.99761 -0.538797 0
M  V30 2156 C 201.187 -1.00503 -1.59827 0
M  V30 2157 O 200.544 0.00119474 -1.825 0
M  V30 2158 C 200.595 -3.42408 -1.15927 0
M  V30 2159 O 200.316 -4.37869 -0.142143 0
M  V30 2160 C 201.817 -4.00232 -1.90602 0
M  V30 2161 H 199.037 -0.655772 -0.14214 0
M  V30 2162 H 201.581 -2.03383 0.213413 0
M  V30 2163 H 199.736 -3.39706 -1.86223 0
M  V30 2164 H 200.15 -5.21128 -0.593775 0
M  V30 2165 H 201.624 -5.02105 -2.29335 0
M  V30 2166 H 202.101 -3.39721 -2.78363 0
M  V30 2167 H 202.707 -4.06499 -1.25055 0
M  V30 2168 N 201.022 0.148545 -1.56898 0
M  V30 2169 C 201.985 1.16736 -1.97244 0
M  V30 2170 C 202.985 1.35947 -0.858777 0
M  V30 2171 O 204.175 1.32966 -1.12542 0
M  V30 2172 C 201.307 2.52798 -2.28705 0
M  V30 2173 H 202.5 0.821279 -2.88435 0
M  V30 2174 H 200.053 0.391831 -1.51309 0
M  V30 2175 H 200.788 2.92381 -1.403 0
M  V30 2176 H 200.573 2.40216 -3.09901 0
M  V30 2177 H 202.063 3.26179 -2.60762 0
M  V30 2178 N 202.5 1.5196 0.417844 0
M  V30 2179 C 203.746 1.66793 1.16411 0
M  V30 2180 C 204.101 0.388758 1.88432 0
M  V30 2181 O 203.394 -0.616409 1.81414 0
M  V30 2182 C 203.588 2.82269 2.19223 0
M  V30 2183 C 203.417 4.21293 1.57297 0
M  V30 2184 C 202.187 4.86948 1.34944 0
M  V30 2185 C 204.385 5.03704 1.03858 0
M  V30 2186 N 202.367 6.1003 0.688195 0
M  V30 2187 C 203.738 6.1795 0.503742 0
M  V30 2188 C 205.793 4.89095 0.932203 0
M  V30 2189 C 204.496 7.19188 -0.127034 0
M  V30 2190 C 206.522 5.90559 0.315293 0
M  V30 2191 C 205.884 7.0409 -0.208906 0
M  V30 2192 H 201.983 0.66407 0.412959 0
M  V30 2193 H 204.567 1.89242 0.457772 0
M  V30 2194 H 202.738 2.61451 2.87225 0
M  V30 2195 H 204.47 2.86183 2.86149 0
M  V30 2196 H 201.225 4.45156 1.61657 0
M  V30 2197 H 201.649 6.75964 0.374449 0
M  V30 2198 H 206.291 4.01557 1.32332 0
M  V30 2199 H 204.009 8.06359 -0.530231 0
M  V30 2200 H 207.595 5.81327 0.234625 0
M  V30 2201 H 206.475 7.81257 -0.67875 0
M  V30 2202 N 203.978 -0.674533 1.42435 0
M  V30 2203 C 205.203 -1.46784 1.46524 0
M  V30 2204 C 205.628 -1.87938 0.078066 0
M  V30 2205 O 204.986 -1.56014 -0.92354 0
M  V30 2206 C 205.034 -2.69307 2.39805 0
M  V30 2207 O 204.138 -3.67587 1.86959 0
M  V30 2208 H 203.479 -0.440959 0.496439 0
M  V30 2209 H 206.009 -0.827326 1.87127 0
M  V30 2210 H 206.019 -3.17374 2.56393 0
M  V30 2211 H 204.694 -2.38692 3.40586 0
M  V30 2212 H 203.271 -3.2662 1.79927 0
M  V30 2213 N 205.456 -1.28612 -0.910864 0
M  V30 2214 C 206.366 -1.14643 -2.0468 0
M  V30 2215 C 207.382 -0.0723121 -1.7385 0
M  V30 2216 O 208.558 -0.282178 -1.99413 0
M  V30 2217 C 205.623 -0.812561 -3.37044 0
M  V30 2218 C 204.684 -1.96935 -3.81465 0
M  V30 2219 C 203.917 -1.65131 -5.07511 0
M  V30 2220 O 204.14 -0.567013 -5.67575 0
M  V30 2221 O 203.074 -2.49585 -5.47714 0
M  V30 2222 H 206.9 -2.1001 -2.19384 0
M  V30 2223 H 204.485 -1.07958 -1.03274 0
M  V30 2224 H 206.367 -0.640441 -4.16505 0
M  V30 2225 H 205.042 0.111426 -3.23508 0
M  V30 2226 H 203.949 -2.19664 -3.02818 0
M  V30 2227 H 205.282 -2.87414 -3.99567 0
M  V30 2228 N 206.934 1.1197 -1.10907 0
M  V30 2229 C 208.211 1.79959 -0.766432 0
M  V30 2230 C 208.591 1.97466 0.746363 0
M  V30 2231 O 207.939 1.55491 1.67436 0
M  V30 2232 C 208.149 3.14009 -1.52314 0
M  V30 2233 C 209.497 3.89134 -1.69883 0
M  V30 2234 O 210.521 3.2368 -1.48692 0
M  V30 2235 O 209.38 5.06572 -2.05054 0
M  V30 2236 H 206.474 0.779208 -0.277062 0
M  V30 2237 H 209.02 1.18762 -1.21217 0
M  V30 2238 H 207.792 2.96587 -2.55249 0
M  V30 2239 H 207.415 3.82915 -1.07059 0
M  V30 2240 N 208.412 0.89855 1.29475 0
M  V30 2241 C 209.637 0.538561 2.00285 0
M  V30 2242 C 210.062 -0.869135 1.66816 0
M  V30 2243 O 209.42 -1.57831 0.892145 0
M  V30 2244 C 209.468 0.736475 3.52999 0
M  V30 2245 O 208.572 -0.211537 4.11857 0
M  V30 2246 H 207.913 0.210563 0.62973 0
M  V30 2247 H 210.443 1.20982 1.64998 0
M  V30 2248 H 210.453 0.640685 4.02938 0
M  V30 2249 H 209.128 1.76276 3.76696 0
M  V30 2250 H 207.705 -0.0682991 3.72837 0
M  V30 2251 N 209.89 -1.43072 0.660911 0
M  V30 2252 C 211.167 -1.95307 0.107017 0
M  V30 2253 C 211.547 -1.60192 -1.37484 0
M  V30 2254 O 210.895 -0.890949 -2.10415 0
M  V30 2255 C 211.105 -3.47124 0.361402 0
M  V30 2256 C 212.453 -4.23738 0.270455 0
M  V30 2257 O 213.477 -3.54981 0.294382 0
M  V30 2258 O 212.336 -5.46131 0.200737 0
M  V30 2259 H 209.43 -0.826984 -0.00517729 0
M  V30 2260 H 211.976 -1.52972 0.734681 0
M  V30 2261 H 210.748 -3.65837 1.38848 0
M  V30 2262 H 210.371 -3.96475 -0.298953 0
M  V30 2263 N 211.368 -0.403325 -1.52352 0
M  V30 2264 C 212.616 0.174003 -2.0135 0
M  V30 2265 C 212.937 1.46139 -1.29106 0
M  V30 2266 O 212.207 1.91448 -0.415253 0
M  V30 2267 H 210.787 0.0672911 -0.743963 0
M  V30 2268 H 213.449 -0.538235 -1.87321 0
M  V30 2269 H 212.545 0.374254 -3.09848 0
M  V30 2270 N 212.846 1.57033 -0.133567 0
M  V30 2271 C 213.756 2.19632 0.824564 0
M  V30 2272 C 214.772 1.17666 1.28182 0
M  V30 2273 O 215.948 1.50193 1.3418 0
M  V30 2274 C 213.013 2.79499 2.05137 0
M  V30 2275 C 212.074 3.96548 1.64464 0
M  V30 2276 C 211.307 4.5355 2.81297 0
M  V30 2277 O 211.53 4.09438 3.97136 0
M  V30 2278 O 210.464 5.44018 2.57542 0
M  V30 2279 H 214.29 3.01991 0.321766 0
M  V30 2280 H 211.875 1.49112 0.0927889 0
M  V30 2281 H 213.757 3.17602 2.7696 0
M  V30 2282 H 212.432 2.00162 2.54395 0
M  V30 2283 H 211.339 3.63186 0.897048 0
M  V30 2284 H 212.672 4.77364 1.19934 0
M  V30 2285 N 214.325 -0.140222 1.56975 0
M  V30 2286 C 215.273 -1.19207 1.99731 0
M  V30 2287 C 216.267 -1.44089 0.890777 0
M  V30 2288 O 217.473 -1.44301 1.07597 0
M  V30 2289 H 213.848 -0.40142 0.635898 0
M  V30 2290 H 215.819 -0.804813 2.87342 0
M  V30 2291 C 214.568 -2.51617 2.39967 0
M  V30 2292 H 213.891 -2.33303 3.24669 0
M  V30 2293 H 215.331 -3.23827 2.73701 0
M  V30 2294 C 213.79 -3.12654 1.25496 0
M  V30 2295 O 214.32 -3.97786 0.559371 0
M  V30 2296 N 212.526 -2.72206 1.01746 0
M  V30 2297 H 212.073 -2.03074 1.58489 0
M  V30 2298 H 212.031 -3.13377 0.253461 0
M  V30 2299 N 215.803 -1.52179 -0.40978 0
M  V30 2300 C 217.051 -1.65878 -1.15451 0
M  V30 2301 C 217.372 -0.390771 -1.91044 0
M  V30 2302 O 216.642 0.594323 -1.86667 0
M  V30 2303 H 215.222 -0.611405 -0.429177 0
M  V30 2304 H 217.884 -1.89219 -0.467134 0
M  V30 2305 H 216.98 -2.49954 -1.86894 0
M  V30 2306 N 217.281 0.66697 -1.42791 0
M  V30 2307 C 218.509 1.45505 -1.47091 0
M  V30 2308 C 218.924 1.8861 -0.0845873 0
M  V30 2309 O 218.281 1.58632 0.90234 0
M  V30 2310 C 218.332 2.69906 -2.40485 0
M  V30 2311 O 218.053 2.28608 -3.73725 0
M  V30 2312 C 219.554 3.63396 -2.53886 0
M  V30 2313 H 216.774 0.447459 -0.500022 0
M  V30 2314 H 219.318 0.818866 -1.8739 0
M  V30 2315 H 217.473 3.29696 -2.03419 0
M  V30 2316 H 217.887 3.08997 -4.23817 0
M  V30 2317 H 219.361 4.47387 -3.2334 0
M  V30 2318 H 219.838 4.09824 -1.57927 0
M  V30 2319 H 220.444 3.09495 -2.91706 0
M  V30 2320 N 218.759 1.29093 0.90403 0
M  V30 2321 C 220.007 1.16583 1.65085 0
M  V30 2322 C 220.328 -0.283933 1.92922 0
M  V30 2323 O 219.598 -1.19509 1.55224 0
M  V30 2324 H 218.178 0.428467 0.611903 0
M  V30 2325 H 220.84 1.61959 1.08422 0
M  V30 2326 H 219.936 1.71266 2.6091 0
M  V30 2327 N 220.237 -1.11381 1.11499 0
M  V30 2328 C 221.169 -2.17207 0.731704 0
M  V30 2329 C 222.182 -1.61066 -0.236957 0
M  V30 2330 O 223.371 -1.78489 -0.0197591 0
M  V30 2331 C 220.471 -3.38846 0.0607624 0
M  V30 2332 C 219.644 -4.24451 1.0564 0
M  V30 2333 C 218.703 -5.24562 0.4149 0
M  V30 2334 O 217.729 -5.59071 1.069 0
M  V30 2335 N 218.931 -5.74651 -0.821943 0
M  V30 2336 H 221.696 -2.50699 1.64225 0
M  V30 2337 H 219.257 -1.26908 1.00529 0
M  V30 2338 H 221.249 -4.02911 -0.380139 0
M  V30 2339 H 219.819 -3.03411 -0.752376 0
M  V30 2340 H 219.039 -3.56833 1.67524 0
M  V30 2341 H 220.327 -4.78486 1.72998 0
M  V30 2342 H 219.725 -5.48797 -1.37252 0
M  V30 2343 H 218.282 -6.40549 -1.20582 0
M  V30 2344 N 221.715 -0.905404 -1.28997 0
M  V30 2345 C 222.94 -0.549175 -1.99997 0
M  V30 2346 C 223.365 0.860276 -1.67275 0
M  V30 2347 O 222.723 1.57355 -0.900502 0
M  V30 2348 C 222.771 -0.755185 -3.52604 0
M  V30 2349 O 221.875 0.189692 -4.11964 0
M  V30 2350 H 221.216 -0.213899 -0.628604 0
M  V30 2351 H 223.746 -1.21856 -1.64354 0
M  V30 2352 H 223.756 -0.662045 -4.02593 0
M  V30 2353 H 222.431 -1.78271 -3.75755 0
M  V30 2354 H 221.008 0.0485257 -3.72868 0
M  V30 2355 N 223.193 1.4272 -0.668489 0
M  V30 2356 C 224.143 2.27971 0.0363806 0
M  V30 2357 C 225.127 1.40741 0.779794 0
M  V30 2358 O 226.319 1.64245 0.659745 0
M  V30 2359 C 223.448 3.28673 0.991398 0
M  V30 2360 C 222.534 4.23388 0.245658 0
M  V30 2361 N 222.925 5.00267 -0.746069 0
M  V30 2362 C 221.223 4.43355 0.484988 0
M  V30 2363 C 221.924 5.69396 -1.19009 0
M  V30 2364 N 220.9 5.41095 -0.521287 0
M  V30 2365 H 224.702 2.84833 -0.724394 0
M  V30 2366 H 222.216 1.54607 -0.497028 0
M  V30 2367 H 224.213 3.88543 1.51129 0
M  V30 2368 H 222.873 2.73373 1.75207 0
M  V30 2369 H 223.884 5.05525 -1.12537 0
M  V30 2370 H 220.561 3.99104 1.22565 0
M  V30 2371 H 221.951 6.41083 -2.01153 0
M  V30 2372 N 224.671 0.411399 1.52136 0
M  V30 2373 C 225.621 -0.430376 2.23901 0
M  V30 2374 C 226.605 -1.0116 1.25121 0
M  V30 2375 O 227.797 -0.934044 1.50348 0
M  V30 2376 C 224.926 -1.54527 3.06556 0
M  V30 2377 C 224.012 -0.9747 4.12747 0
M  V30 2378 N 224.403 -0.130991 5.0563 0
M  V30 2379 C 222.701 -1.24497 4.28271 0
M  V30 2380 C 223.402 0.186689 5.814 0
M  V30 2381 N 222.378 -0.42304 5.41951 0
M  V30 2382 H 226.18 0.220509 2.93072 0
M  V30 2383 H 223.694 0.221952 1.60876 0
M  V30 2384 H 225.691 -2.16093 3.56524 0
M  V30 2385 H 224.351 -2.19875 2.38925 0
M  V30 2386 H 225.362 0.23349 5.17373 0
M  V30 2387 H 222.039 -1.89787 3.7187 0
M  V30 2388 H 223.429 0.871673 6.66222 0
M  V30 2389 N 226.149 -1.5696 0.141893 0
M  V30 2390 C 227.097 -2.17784 -0.816874 0
M  V30 2391 C 228.091 -1.1334 -1.25899 0
M  V30 2392 O 229.297 -1.316 -1.22806 0
M  V30 2393 H 225.672 -0.697278 -0.281615 0
M  V30 2394 H 227.643 -2.97087 -0.279621 0
M  V30 2395 C 226.392 -2.80983 -2.04802 0
M  V30 2396 H 225.715 -3.61062 -1.7168 0
M  V30 2397 H 227.155 -3.2705 -2.69841 0
M  V30 2398 C 225.614 -1.79228 -2.8527 0
M  V30 2399 O 226.144 -1.25962 -3.8144 0
M  V30 2400 N 224.35 -1.48647 -2.49704 0
M  V30 2401 H 223.897 -1.92155 -1.71564 0
M  V30 2402 H 223.855 -0.808115 -3.03837 0
M  V30 2403 N 227.627 0.131896 -1.57047 0
M  V30 2404 C 228.873 0.843179 -1.84441 0
M  V30 2405 C 229.206 1.80129 -0.725749 0
M  V30 2406 O 228.481 1.92624 0.269469 0
M  V30 2407 C 228.764 1.60442 -3.22382 0
M  V30 2408 C 228.617 0.666782 -4.4483 0
M  V30 2409 C 229.936 2.56354 -3.5773 0
M  V30 2410 H 227.055 0.305081 -0.670891 0
M  V30 2411 H 229.697 0.107839 -1.89694 0
M  V30 2412 H 227.847 2.23128 -3.18035 0
M  V30 2413 H 229.519 0.0497646 -4.61273 0
M  V30 2414 H 227.762 -0.022609 -4.33794 0
M  V30 2415 H 228.433 1.23579 -5.37989 0
M  V30 2416 H 230.909 2.0378 -3.62785 0
M  V30 2417 H 229.785 3.06657 -4.5525 0
M  V30 2418 H 230.046 3.38419 -2.84473 0
M  V30 2419 N 229.106 1.52395 0.401703 0
M  V30 2420 C 230.353 1.66817 1.14796 0
M  V30 2421 C 230.681 0.401772 1.90305 0
M  V30 2422 O 229.936 -0.615487 1.85769 0
M  V30 2423 C 230.235 2.84578 2.16217 0
M  V30 2424 C 229.901 4.22513 1.5746 0
M  V30 2425 C 228.563 4.60029 1.41161 0
M  V30 2426 C 230.915 5.0844 1.14622 0
M  V30 2427 C 228.243 5.81144 0.80552 0
M  V30 2428 C 230.595 6.30167 0.55428 0
M  V30 2429 C 229.259 6.66426 0.378482 0
M  V30 2430 H 228.529 0.610428 0.420069 0
M  V30 2431 H 231.176 1.86512 0.434212 0
M  V30 2432 H 229.481 2.59248 2.93764 0
M  V30 2433 H 231.178 2.92933 2.73845 0
M  V30 2434 H 227.768 3.92953 1.71132 0
M  V30 2435 H 231.952 4.80034 1.26021 0
M  V30 2436 H 227.208 6.07855 0.657399 0
M  V30 2437 H 231.382 6.96071 0.213983 0
M  V30 2438 H 229.009 7.60143 -0.0932606 0
M  V30 2439 N 230.584 -0.659388 1.43143 0
M  V30 2440 C 231.995 -1.24041 1.39537 0
M  V30 2441 C 232.346 -1.95963 0.0963364 0
M  V30 2442 O 231.471 -2.00892 -0.804438 0
M  V30 2443 C 232.066 -2.25601 2.52764 0
M  V30 2444 C 230.625 -2.79195 2.52443 0
M  V30 2445 C 229.772 -1.53743 2.30778 0
M  V30 2446 H 232.723 -0.451792 1.52133 0
M  V30 2447 H 232.744 -3.07651 2.23899 0
M  V30 2448 H 232.256 -1.73226 3.47296 0
M  V30 2449 H 230.357 -3.35649 1.61773 0
M  V30 2450 H 230.47 -3.2716 3.50004 0
M  V30 2451 H 228.834 -1.80869 1.79328 0
M  V30 2452 H 229.617 -1.03312 3.27386 0
M  V30 2453 N 232.062 -1.29571 -0.897171 0
M  V30 2454 C 233.339 -1.08365 -1.62839 0
M  V30 2455 C 233.719 0.371331 -2.07808 0
M  V30 2456 O 233.067 1.3606 -1.83576 0
M  V30 2457 C 233.277 -2.0735 -2.80726 0
M  V30 2458 C 234.625 -2.38406 -3.51351 0
M  V30 2459 O 235.649 -2.05564 -2.90898 0
M  V30 2460 O 234.508 -2.9453 -4.60341 0
M  V30 2461 H 231.602 -0.415345 -0.715134 0
M  V30 2462 H 234.148 -1.40952 -0.945018 0
M  V30 2463 H 232.92 -3.05339 -2.44711 0
M  V30 2464 H 232.543 -1.75507 -3.56767 0
M  V30 2465 N 233.54 1.10788 -1.12088 0
M  V30 2466 C 234.788 1.8231 -0.872205 0
M  V30 2467 C 235.109 1.85419 0.603709 0
M  V30 2468 O 234.379 1.32963 1.43867 0
M  V30 2469 H 232.959 0.675137 -0.319686 0
M  V30 2470 H 235.621 1.34068 -1.41463 0
M  V30 2471 H 234.717 2.85955 -1.25045 0
M  V30 2472 N 235.018 0.912232 1.28515 0
M  V30 2473 C 235.965 0.397954 2.27343 0
M  V30 2474 C 236.935 -0.526766 1.57526 0
M  V30 2475 O 238.12 -0.449292 1.85435 0
M  V30 2476 C 235.26 -0.357263 3.43246 0
M  V30 2477 C 234.373 0.599788 4.27816 0
M  V30 2478 C 233.508 -0.173725 5.30916 0
M  V30 2479 C 232.547 0.777039 6.07148 0
M  V30 2480 N 231.684 0.0371398 7.0209 0
M  V30 2481 H 236.524 1.24577 2.70711 0
M  V30 2482 H 234.061 0.625612 1.33133 0
M  V30 2483 H 236.019 -0.8113 4.09236 0
M  V30 2484 H 234.649 -1.16943 3.00872 0
M  V30 2485 H 233.701 1.17235 3.61884 0
M  V30 2486 H 235.013 1.32704 4.80823 0
M  V30 2487 H 234.167 -0.688394 6.02782 0
M  V30 2488 H 232.906 -0.934041 4.78672 0
M  V30 2489 H 231.911 1.3031 5.34134 0
M  V30 2490 H 233.136 1.53689 6.61481 0
M  V30 2491 H 231.082 -0.705213 6.52198 0
M  V30 2492 H 230.999 0.704249 7.52713 0
M  V30 2493 H 232.267 -0.457383 7.78157 0
M  V30 2494 N 236.496 -1.42363 0.676048 0
M  V30 2495 C 237.907 -1.84649 0.275948 0
M  V30 2496 C 238.258 -1.56588 -1.18214 0
M  V30 2497 O 237.383 -1.02634 -1.90513 0
M  V30 2498 C 237.978 -3.35178 0.494053 0
M  V30 2499 C 236.537 -3.76109 0.148061 0
M  V30 2500 C 235.684 -2.65931 0.785891 0
M  V30 2501 H 238.635 -1.32192 0.878121 0
M  V30 2502 H 238.656 -3.79655 -0.25343 0
M  V30 2503 H 238.168 -3.55571 1.55535 0
M  V30 2504 H 236.269 -3.61323 -0.909742 0
M  V30 2505 H 236.382 -4.7546 0.589454 0
M  V30 2506 H 234.746 -2.53773 0.217113 0
M  V30 2507 H 235.529 -2.89146 1.85067 0
M  V30 2508 N 237.974 -0.419461 -1.51915 0
M  V30 2509 C 239.221 0.152939 -2.01922 0
M  V30 2510 C 239.549 1.4426 -1.30458 0
M  V30 2511 O 238.804 1.91514 -0.402593 0
M  V30 2512 C 239.103 0.437067 -3.54717 0
M  V30 2513 C 238.769 -0.764632 -4.44369 0
M  V30 2514 C 237.431 -1.09423 -4.68594 0
M  V30 2515 C 239.783 -1.56713 -4.97082 0
M  V30 2516 C 237.111 -2.22732 -5.42777 0
M  V30 2517 C 239.463 -2.69107 -5.72507 0
M  V30 2518 C 238.127 -3.02541 -5.95 0
M  V30 2519 H 237.397 0.0559644 -0.738884 0
M  V30 2520 H 240.044 -0.562998 -1.83037 0
M  V30 2521 H 238.349 1.23469 -3.71837 0
M  V30 2522 H 240.046 0.893083 -3.90928 0
M  V30 2523 H 236.636 -0.497775 -4.257 0
M  V30 2524 H 240.82 -1.32571 -4.78266 0
M  V30 2525 H 236.076 -2.48971 -5.58411 0
M  V30 2526 H 240.25 -3.31671 -6.12346 0
M  V30 2527 H 237.877 -3.90457 -6.52264 0
M  V30 2528 N 239.452 1.56882 -0.150215 0
M  V30 2529 C 240.863 1.82995 0.370076 0
M  V30 2530 C 241.214 1.06907 1.64515 0
M  V30 2531 O 240.339 0.315369 2.1409 0
M  V30 2532 C 240.934 3.31942 0.678208 0
M  V30 2533 C 239.493 3.58625 1.14301 0
M  V30 2534 C 238.64 2.76792 0.167778 0
M  V30 2535 H 241.591 1.54209 -0.374858 0
M  V30 2536 H 241.612 3.48272 1.53254 0
M  V30 2537 H 241.124 3.87294 -0.249991 0
M  V30 2538 H 239.225 3.08664 2.08704 0
M  V30 2539 H 239.338 4.67073 1.06676 0
M  V30 2540 H 237.702 2.45972 0.661037 0
M  V30 2541 H 238.485 3.34916 -0.754069 0
M  V30 2542 N 240.93 -0.123565 1.57115 0
M  V30 2543 C 241.88 -1.1575 1.96433 0
M  V30 2544 C 242.864 -1.37313 0.838686 0
M  V30 2545 O 244.056 -1.38482 1.10235 0
M  V30 2546 C 241.185 -2.48526 2.36833 0
M  V30 2547 C 240.271 -2.30457 3.5602 0
M  V30 2548 N 240.662 -1.8219 4.71848 0
M  V30 2549 C 238.96 -2.61129 3.61563 0
M  V30 2550 C 239.661 -1.77721 5.53886 0
M  V30 2551 N 238.637 -2.21899 4.96248 0
M  V30 2552 H 242.439 -0.776797 2.83449 0
M  V30 2553 H 239.953 -0.331364 1.58983 0
M  V30 2554 H 241.95 -3.233 2.63216 0
M  V30 2555 H 240.61 -2.87358 1.5118 0
M  V30 2556 H 241.621 -1.51805 4.95152 0
M  V30 2557 H 238.298 -3.03678 2.86507 0
M  V30 2558 H 239.688 -1.41697 6.56789 0
M  V30 2559 N 242.408 -1.52605 -0.393616 0
M  V30 2560 C 243.358 -1.73436 -1.48 0
M  V30 2561 C 244.342 -0.588386 -1.49756 0
M  V30 2562 O 245.534 -0.846047 -1.5547 0
M  V30 2563 C 242.663 -1.90247 -2.85764 0
M  V30 2564 C 241.749 -3.10763 -2.88595 0
M  V30 2565 N 242.14 -4.33196 -2.61103 0
M  V30 2566 C 240.438 -3.10914 -3.19763 0
M  V30 2567 C 241.139 -5.1477 -2.70899 0
M  V30 2568 N 240.115 -4.50356 -3.04435 0
M  V30 2569 H 243.917 -2.65727 -1.25563 0
M  V30 2570 H 241.431 -1.5085 -0.601513 0
M  V30 2571 H 243.428 -2.03291 -3.63976 0
M  V30 2572 H 242.088 -0.991663 -3.09186 0
M  V30 2573 H 243.099 -4.61408 -2.35209 0
M  V30 2574 H 239.776 -2.29626 -3.4868 0
M  V30 2575 H 241.166 -6.22355 -2.53227 0
M  V30 2576 N 243.887 0.651787 -1.4349 0
M  V30 2577 C 245.298 1.233 -1.40193 0
M  V30 2578 C 245.649 1.9591 -0.106727 0
M  V30 2579 O 244.774 2.01316 0.793773 0
M  V30 2580 C 245.369 2.24257 -2.53957 0
M  V30 2581 C 243.928 2.77852 -2.5392 0
M  V30 2582 C 243.075 1.52517 -2.3159 0
M  V30 2583 H 246.026 0.443717 -1.52371 0
M  V30 2584 H 246.047 3.0646 -2.25528 0
M  V30 2585 H 245.559 1.71382 -3.4821 0
M  V30 2586 H 243.66 3.34786 -1.63551 0
M  V30 2587 H 243.773 3.25299 -3.51735 0
M  V30 2588 H 242.137 1.79915 -1.80285 0
M  V30 2589 H 242.92 1.01574 -3.27929 0
M  V30 2590 N 245.365 1.30045 0.890287 0
M  V30 2591 C 246.613 1.18327 1.63839 0
M  V30 2592 C 246.934 -0.263455 1.93212 0
M  V30 2593 O 246.204 -1.17856 1.56482 0
M  V30 2594 H 244.784 0.434933 0.607324 0
M  V30 2595 H 247.446 1.631 1.06698 0
M  V30 2596 H 246.542 1.74024 2.59079 0
M  V30 2597 N 246.843 -1.10192 1.12674 0
M  V30 2598 C 248.089 -1.82658 0.894847 0
M  V30 2599 C 248.444 -1.83666 -0.573107 0
M  V30 2600 O 247.737 -1.28816 -1.41835 0
M  V30 2601 C 247.931 -3.28552 1.4067 0
M  V30 2602 C 247.76 -3.41756 2.92289 0
M  V30 2603 C 246.53 -3.54021 3.60551 0
M  V30 2604 C 248.728 -3.34949 3.90274 0
M  V30 2605 N 246.71 -3.55827 5.0026 0
M  V30 2606 C 248.081 -3.43531 5.16127 0
M  V30 2607 C 250.136 -3.18565 3.8265 0
M  V30 2608 C 248.839 -3.37416 6.3525 0
M  V30 2609 C 250.865 -3.13772 5.01299 0
M  V30 2610 C 250.227 -3.22938 6.26012 0
M  V30 2611 H 246.326 -0.683044 0.380756 0
M  V30 2612 H 248.91 -1.31752 1.43351 0
M  V30 2613 H 247.081 -3.77946 0.895055 0
M  V30 2614 H 248.813 -3.88991 1.11661 0
M  V30 2615 H 245.568 -3.57135 3.1105 0
M  V30 2616 H 245.992 -3.60335 5.73138 0
M  V30 2617 H 250.634 -3.10354 2.87124 0
M  V30 2618 H 248.352 -3.44391 7.3104 0
M  V30 2619 H 251.938 -3.02242 4.97133 0
M  V30 2620 H 250.818 -3.19235 7.16281 0
M  V30 2621 N 248.321 -0.919034 -1.28029 0
M  V30 2622 C 249.737 -0.617972 -1.4715 0
M  V30 2623 C 249.937 0.835242 -1.83374 0
M  V30 2624 O 248.993 1.61388 -1.94191 0
M  V30 2625 C 250.306 -1.56041 -2.57044 0
M  V30 2626 C 251.854 -1.56769 -2.7091 0
M  V30 2627 C 252.329 -2.49688 -3.83953 0
M  V30 2628 N 253.82 -2.47845 -3.91314 0
M  V30 2629 C 254.555 -3.16437 -4.78179 0
M  V30 2630 N 254.051 -3.94376 -5.69596 0
M  V30 2631 N 255.844 -3.05498 -4.71834 0
M  V30 2632 H 247.995 -1.85866 -1.02798 0
M  V30 2633 H 250.258 -0.797506 -0.512531 0
M  V30 2634 H 249.964 -2.59671 -2.372 0
M  V30 2635 H 249.838 -1.29551 -3.54255 0
M  V30 2636 H 252.225 -0.538745 -2.90141 0
M  V30 2637 H 252.306 -1.87305 -1.74214 0
M  V30 2638 H 251.95 -3.52688 -3.65477 0
M  V30 2639 H 251.88 -2.16453 -4.80058 0
M  V30 2640 H 254.371 -1.91234 -3.25941 0
M  V30 2641 H 254.684 -4.43721 -6.32718 0
M  V30 2642 H 253.029 -3.98481 -5.69419 0
M  V30 2643 H 256.22 -2.44108 -3.99411 0
M  V30 2644 H 256.393 -3.59225 -5.39316 0
M  V30 2645 N 249.799 1.42003 -0.683588 0
M  V30 2646 C 251.215 1.55625 -0.353976 0
M  V30 2647 C 251.415 1.66151 1.14 0
M  V30 2648 O 250.471 1.63329 1.92561 0
M  V30 2649 C 251.784 2.80171 -1.092 0
M  V30 2650 C 253.332 2.93954 -1.07518 0
M  V30 2651 C 253.807 4.21372 -1.79471 0
M  V30 2652 N 255.298 4.28303 -1.76381 0
M  V30 2653 C 256.033 5.25729 -2.28904 0
M  V30 2654 N 255.529 6.29254 -2.89846 0
M  V30 2655 N 257.322 5.17586 -2.19228 0
M  V30 2656 H 249.473 1.33415 -1.6527 0
M  V30 2657 H 251.736 0.64282 -0.696769 0
M  V30 2658 H 251.442 2.78561 -2.14701 0
M  V30 2659 H 251.316 3.7133 -0.662862 0
M  V30 2660 H 253.703 2.95086 -0.028475 0
M  V30 2661 H 253.784 2.04002 -1.54328 0
M  V30 2662 H 253.428 4.21001 -2.84114 0
M  V30 2663 H 253.358 5.10275 -1.30104 0
M  V30 2664 H 255.849 3.54119 -1.31939 0
M  V30 2665 H 256.162 6.99964 -3.27522 0
M  V30 2666 H 254.507 6.29791 -2.93919 0
M  V30 2667 H 257.698 4.35631 -1.71299 0
M  V30 2668 H 257.871 5.93348 -2.60466 0
M  V30 2669 N 251.277 0.427512 1.51691 0
M  V30 2670 C 252.523 -0.134744 2.02953 0
M  V30 2671 C 252.878 -1.41235 1.30654 0
M  V30 2672 O 252.171 -1.87168 0.409713 0
M  V30 2673 C 252.365 -0.418249 3.54944 0
M  V30 2674 C 252.194 0.830327 4.41968 0
M  V30 2675 C 250.964 1.36097 4.86627 0
M  V30 2676 C 253.162 1.7137 4.84909 0
M  V30 2677 N 251.144 2.56311 5.57833 0
M  V30 2678 C 252.515 2.76195 5.55082 0
M  V30 2679 C 254.57 1.72928 4.66905 0
M  V30 2680 C 253.273 3.82512 6.09161 0
M  V30 2681 C 255.299 2.78175 5.21894 0
M  V30 2682 C 254.661 3.8172 5.92004 0
M  V30 2683 H 250.76 -0.0103958 0.781931 0
M  V30 2684 H 253.344 0.585981 1.85673 0
M  V30 2685 H 251.515 -1.10801 3.7226 0
M  V30 2686 H 253.247 -0.970999 3.92879 0
M  V30 2687 H 250.002 0.916311 4.64651 0
M  V30 2688 H 250.426 3.17242 5.98069 0
M  V30 2689 H 255.068 0.942081 4.12171 0
M  V30 2690 H 252.786 4.62077 6.62956 0
M  V30 2691 H 256.372 2.8031 5.09821 0
M  V30 2692 H 255.252 4.61821 6.33791 0
M  V30 2693 N 252.755 -1.56801 0.158532 0
M  V30 2694 C 253.703 -2.18638 -0.793729 0
M  V30 2695 C 254.697 -1.14669 -1.24689 0
M  V30 2696 O 255.903 -1.32895 -1.21403 0
M  V30 2697 H 252.278 -0.700226 -0.274204 0
M  V30 2698 H 254.249 -2.97367 -0.248095 0
M  V30 2699 C 252.998 -2.83139 -2.0181 0
M  V30 2700 H 252.321 -3.62863 -1.67841 0
M  V30 2701 H 253.761 -3.29894 -2.66357 0
M  V30 2702 C 252.22 -1.82244 -2.83353 0
M  V30 2703 O 252.75 -1.3 -3.80083 0
M  V30 2704 N 250.956 -1.51288 -2.48114 0
M  V30 2705 H 250.503 -1.93964 -1.69516 0
M  V30 2706 H 250.461 -0.840296 -3.02963 0
M  V30 2707 N 254.233 0.115231 -1.57178 0
M  V30 2708 C 255.48 0.822351 -1.8505 0
M  V30 2709 C 255.808 1.79701 -0.744168 0
M  V30 2710 O 255.063 1.93909 0.26414 0
M  V30 2711 C 255.362 1.60324 -3.19423 0
M  V30 2712 C 255.028 0.772536 -4.44233 0
M  V30 2713 C 253.69 0.543468 -4.78121 0
M  V30 2714 C 256.042 0.193746 -5.2084 0
M  V30 2715 C 253.37 -0.274583 -5.86057 0
M  V30 2716 C 255.722 -0.611517 -6.29637 0
M  V30 2717 C 254.386 -0.850867 -6.62055 0
M  V30 2718 H 253.656 0.30092 -0.677147 0
M  V30 2719 H 256.303 0.0845802 -1.91313 0
M  V30 2720 H 254.608 2.41203 -3.08753 0
M  V30 2721 H 256.305 2.1544 -3.38211 0
M  V30 2722 H 252.895 0.96117 -4.17683 0
M  V30 2723 H 257.079 0.357926 -4.95008 0
M  V30 2724 H 252.335 -0.469206 -6.09597 0
M  V30 2725 H 256.509 -1.06697 -6.88178 0
M  V30 2726 H 254.136 -1.48657 -7.45523 0
M  V30 2727 N 255.711 1.52812 0.385517 0
M  V30 2728 C 256.96 1.67249 1.12741 0
M  V30 2729 C 257.273 0.4205 1.91027 0
M  V30 2730 O 258.479 0.445064 2.67827 0
M  V30 2731 C 256.935 2.95583 2.05326 0
M  V30 2732 C 256.543 4.27974 1.32447 0
M  V30 2733 C 258.287 3.19386 2.7963 0
M  V30 2734 C 256.194 5.47412 2.23818 0
M  V30 2735 H 255.124 0.6231 0.424573 0
M  V30 2736 H 257.775 1.79309 0.389924 0
M  V30 2737 H 256.157 2.77277 2.82725 0
M  V30 2738 H 257.331 4.56844 0.602495 0
M  V30 2739 H 255.646 4.10459 0.700885 0
M  V30 2740 H 258.243 4.05801 3.48181 0
M  V30 2741 H 258.586 2.34604 3.43899 0
M  V30 2742 H 259.119 3.38274 2.09322 0
M  V30 2743 H 255.858 6.34612 1.64157 0
M  V30 2744 H 255.378 5.22849 2.93921 0
M  V30 2745 H 257.057 5.81423 2.83824 0
M  V30 2746 N 257.189 -0.644168 1.43834 0
M  V30 2747 C 258.419 -1.42939 1.49171 0
M  V30 2748 C 258.827 -1.88874 0.111048 0
M  V30 2749 O 258.17 -1.60656 -0.8908 0
M  V30 2750 C 258.232 -2.69151 2.38324 0
M  V30 2751 C 257.896 -2.45097 3.85715 0
M  V30 2752 C 258.893 -2.07747 4.76589 0
M  V30 2753 C 256.578 -2.59141 4.30292 0
M  V30 2754 C 258.572 -1.8475 6.10038 0
M  V30 2755 C 256.259 -2.35759 5.63792 0
M  V30 2756 C 257.257 -1.9862 6.53482 0
M  V30 2757 O 256.945 -1.75489 7.84512 0
M  V30 2758 H 256.677 -0.445271 0.508635 0
M  V30 2759 H 259.231 -0.79621 1.8934 0
M  V30 2760 H 257.461 -3.3506 1.93058 0
M  V30 2761 H 259.15 -3.31123 2.3476 0
M  V30 2762 H 259.916 -1.96465 4.43426 0
M  V30 2763 H 255.795 -2.87022 3.60749 0
M  V30 2764 H 259.339 -1.55686 6.80006 0
M  V30 2765 H 255.236 -2.46646 5.9652 0
M  V30 2766 H 256.004 -1.89841 7.9618 0
M  V30 2767 N 258.668 -1.30515 -0.883378 0
M  V30 2768 C 259.914 -1.19607 -1.63774 0
M  V30 2769 C 260.247 0.248314 -1.92606 0
M  V30 2770 O 259.522 1.17742 -1.54813 0
M  V30 2771 C 259.805 -2.02669 -2.97653 0
M  V30 2772 C 259.658 -3.55335 -2.75784 0
M  V30 2773 C 260.977 -1.86573 -3.98596 0
M  V30 2774 H 258.096 -0.435856 -0.594305 0
M  V30 2775 H 260.738 -1.60165 -1.02212 0
M  V30 2776 H 258.888 -1.68208 -3.50197 0
M  V30 2777 H 260.56 -3.99863 -2.30016 0
M  V30 2778 H 258.803 -3.79438 -2.1026 0
M  V30 2779 H 259.474 -4.08745 -3.70988 0
M  V30 2780 H 261.95 -2.16703 -3.55217 0
M  V30 2781 H 260.826 -2.47014 -4.90179 0
M  V30 2782 H 261.087 -0.825321 -4.34328 0
M  V30 2783 N 260.146 1.09593 -1.13257 0
M  V30 2784 C 261.393 1.81734 -0.893257 0
M  V30 2785 C 261.721 1.8563 0.580656 0
M  V30 2786 O 260.976 1.31906 1.44566 0
M  V30 2787 C 261.275 3.27802 -1.42411 0
M  V30 2788 C 260.941 3.44041 -2.91456 0
M  V30 2789 C 259.603 3.48181 -3.3215 0
M  V30 2790 C 261.955 3.48719 -3.87356 0
M  V30 2791 C 259.283 3.54575 -4.67433 0
M  V30 2792 C 261.635 3.56648 -5.2248 0
M  V30 2793 C 260.299 3.59055 -5.62704 0
M  V30 2794 H 259.569 0.665011 -0.326866 0
M  V30 2795 H 262.216 1.2912 -1.41422 0
M  V30 2796 H 260.521 3.83042 -0.823795 0
M  V30 2797 H 262.218 3.82149 -1.21503 0
M  V30 2798 H 258.808 3.41502 -2.58987 0
M  V30 2799 H 262.992 3.44763 -3.57004 0
M  V30 2800 H 258.248 3.54725 -4.97976 0
M  V30 2801 H 262.422 3.59212 -5.96607 0
M  V30 2802 H 260.049 3.63763 -6.67518 0
M  V30 2803 N 261.624 0.925811 1.2754 0
M  V30 2804 C 262.574 0.394488 2.24561 0
M  V30 2805 C 263.558 -0.500183 1.52928 0
M  V30 2806 O 264.75 -0.337936 1.73744 0
M  V30 2807 C 261.879 -0.353328 3.41477 0
M  V30 2808 C 260.965 0.557752 4.20416 0
M  V30 2809 N 261.356 1.67674 4.77199 0
M  V30 2810 C 259.654 0.360404 4.44541 0
M  V30 2811 C 260.355 2.24324 5.36706 0
M  V30 2812 N 259.331 1.53305 5.21535 0
M  V30 2813 H 263.133 1.2489 2.66045 0
M  V30 2814 H 260.647 0.779864 1.4245 0
M  V30 2815 H 262.644 -0.7509 4.10082 0
M  V30 2816 H 261.304 -1.20469 3.01525 0
M  V30 2817 H 262.315 2.05915 4.75204 0
M  V30 2818 H 258.992 -0.450454 4.15063 0
M  V30 2819 H 260.382 3.18521 5.91603 0
M  V30 2820 N 263.102 -1.41638 0.69111 0
M  V30 2821 C 264.33 -2.05628 0.22909 0
M  V30 2822 C 264.745 -1.51992 -1.11999 0
M  V30 2823 O 264.102 -0.666322 -1.69901 0
M  V30 2824 C 264.153 -3.61084 0.173283 0
M  V30 2825 O 263.874 -4.12735 1.46907 0
M  V30 2826 C 265.375 -4.42213 -0.310266 0
M  V30 2827 H 262.595 -0.662327 0.107534 0
M  V30 2828 H 265.139 -1.81489 0.942438 0
M  V30 2829 H 263.294 -3.84278 -0.490858 0
M  V30 2830 H 263.708 -5.06743 1.35322 0
M  V30 2831 H 265.182 -5.51194 -0.298196 0
M  V30 2832 H 265.659 -4.1799 -1.34838 0
M  V30 2833 H 266.265 -4.24074 0.322716 0
M  V30 2834 N 264.58 -0.43555 -1.51462 0
M  V30 2835 C 265.51 0.367376 -2.30592 0
M  V30 2836 C 266.491 1.02263 -1.35928 0
M  V30 2837 O 267.676 1.02661 -1.64847 0
M  V30 2838 C 264.806 1.46983 -3.14664 0
M  V30 2839 C 263.76 0.938161 -4.17591 0
M  V30 2840 C 263.086 2.13622 -4.90173 0
M  V30 2841 C 264.386 -0.0261621 -5.22293 0
M  V30 2842 H 266.08 -0.292969 -2.97963 0
M  V30 2843 H 263.626 -0.14234 -1.43295 0
M  V30 2844 H 265.579 2.03873 -3.688 0
M  V30 2845 H 264.303 2.15843 -2.4511 0
M  V30 2846 H 262.962 0.391481 -3.64504 0
M  V30 2847 H 262.61 2.81098 -4.17124 0
M  V30 2848 H 262.31 1.78688 -5.59772 0
M  V30 2849 H 263.834 2.7107 -5.47132 0
M  V30 2850 H 265.248 0.452384 -5.71512 0
M  V30 2851 H 263.645 -0.287992 -5.99409 0
M  V30 2852 H 264.715 -0.963391 -4.75233 0
M  V30 2853 N 266.058 1.56714 -0.166846 0
M  V30 2854 C 267.306 1.96358 0.478305 0
M  V30 2855 C 267.627 1.0537 1.6408 0
M  V30 2856 O 266.897 0.119154 1.95537 0
M  V30 2857 H 265.477 0.725065 0.179692 0
M  V30 2858 H 268.139 1.93329 -0.246985 0
M  V30 2859 H 267.235 3.00547 0.841292 0
M  V30 2860 N 267.536 -0.106894 1.57237 0
M  V30 2861 C 268.468 -1.15646 1.97885 0
M  V30 2862 C 269.481 -1.36981 0.879779 0
M  V30 2863 O 270.67 -1.35841 1.15799 0
M  V30 2864 C 267.77 -2.51425 2.27241 0
M  V30 2865 C 266.943 -2.50529 3.58545 0
M  V30 2866 C 266.002 -3.68145 3.75973 0
M  V30 2867 O 265.028 -3.51176 4.47956 0
M  V30 2868 N 266.23 -4.87177 3.15656 0
M  V30 2869 H 268.995 -0.81059 2.8853 0
M  V30 2870 H 266.556 -0.296024 1.59171 0
M  V30 2871 H 268.548 -3.28689 2.36105 0
M  V30 2872 H 267.118 -2.78147 1.42663 0
M  V30 2873 H 266.338 -1.58894 3.60758 0
M  V30 2874 H 267.626 -2.46997 4.44826 0
M  V30 2875 H 267.024 -5.03868 2.57165 0
M  V30 2876 H 265.581 -5.62075 3.30023 0
M  V30 2877 N 269.014 -1.53014 -0.377408 0
M  V30 2878 C 270.244 -1.72265 -1.14054 0
M  V30 2879 C 270.652 -0.44601 -1.83868 0
M  V30 2880 O 269.995 0.590095 -1.73964 0
M  V30 2881 C 270.057 -2.82492 -2.22348 0
M  V30 2882 C 269.721 -4.23233 -1.72402 0
M  V30 2883 C 270.718 -5.05992 -1.19448 0
M  V30 2884 C 268.403 -4.696 -1.78273 0
M  V30 2885 C 270.397 -6.33203 -0.730268 0
M  V30 2886 C 268.084 -5.96792 -1.31464 0
M  V30 2887 C 269.082 -6.78424 -0.789297 0
M  V30 2888 O 268.77 -8.0323 -0.328077 0
M  V30 2889 H 268.502 -0.579873 -0.347453 0
M  V30 2890 H 271.056 -2.00502 -0.445882 0
M  V30 2891 H 269.286 -2.49702 -2.95272 0
M  V30 2892 H 270.975 -2.90034 -2.83963 0
M  V30 2893 H 271.741 -4.71349 -1.14259 0
M  V30 2894 H 267.62 -4.06142 -2.18106 0
M  V30 2895 H 271.164 -6.96868 -0.319542 0
M  V30 2896 H 267.061 -6.30937 -1.36342 0
M  V30 2897 H 267.829 -8.1727 -0.448493 0
M  V30 2898 N 270.492 0.636531 -1.44174 0
M  V30 2899 C 271.739 1.39619 -1.46672 0
M  V30 2900 C 272.067 1.94257 -0.0972691 0
M  V30 2901 O 271.322 1.73768 0.900175 0
M  V30 2902 C 271.621 2.58309 -2.47005 0
M  V30 2903 C 271.287 2.21992 -3.92467 0
M  V30 2904 C 269.949 2.118 -4.32081 0
M  V30 2905 C 272.301 1.9321 -4.84065 0
M  V30 2906 C 269.629 1.71007 -5.61225 0
M  V30 2907 C 271.981 1.53911 -6.13591 0
M  V30 2908 C 270.645 1.42257 -6.52165 0
M  V30 2909 H 269.915 0.510902 -0.536712 0
M  V30 2910 H 272.562 0.722328 -1.77355 0
M  V30 2911 H 270.867 3.30903 -2.09786 0
M  V30 2912 H 272.564 3.16533 -2.46186 0
M  V30 2913 H 269.154 2.30841 -3.61124 0
M  V30 2914 H 273.338 1.99997 -4.54219 0
M  V30 2915 H 268.594 1.60583 -5.89935 0
M  V30 2916 H 272.768 1.30677 -6.8403 0
M  V30 2917 H 270.395 1.10419 -7.52138 0
M  V30 2918 N 271.97 1.30982 0.876444 0
M  V30 2919 C 272.902 1.13902 1.98894 0
M  V30 2920 C 273.915 0.0798815 1.62604 0
M  V30 2921 O 275.104 0.326743 1.75484 0
M  V30 2922 C 272.204 0.716699 3.31235 0
M  V30 2923 C 271.377 1.85945 3.95908 0
M  V30 2924 C 270.436 1.42426 5.06558 0
M  V30 2925 O 269.462 2.13287 5.27729 0
M  V30 2926 N 270.664 0.308025 5.79682 0
M  V30 2927 H 273.429 2.09724 2.14094 0
M  V30 2928 H 270.99 1.2323 1.05004 0
M  V30 2929 H 272.982 0.408403 4.02634 0
M  V30 2930 H 271.552 -0.149719 3.12241 0
M  V30 2931 H 270.772 2.33541 3.17573 0
M  V30 2932 H 272.06 2.62503 4.35855 0
M  V30 2933 H 271.458 -0.282241 5.64995 0
M  V30 2934 H 270.015 0.0592282 6.51773 0
M  V30 2935 N 273.449 -1.08991 1.13837 0
M  V30 2936 C 274.396 -2.15748 0.819835 0
M  V30 2937 C 275.366 -1.64636 -0.220026 0
M  V30 2938 O 276.551 -1.90582 -0.0912757 0
M  V30 2939 C 273.691 -3.4382 0.296913 0
M  V30 2940 C 272.804 -4.0881 1.39636 0
M  V30 2941 C 271.939 -5.24655 0.831314 0
M  V30 2942 C 270.978 -5.81575 1.90886 0
M  V30 2943 N 270.115 -6.88774 1.36142 0
M  V30 2944 H 274.955 -2.42338 1.73426 0
M  V30 2945 H 272.492 -1.18935 0.865613 0
M  V30 2946 H 274.45 -4.17193 -0.0244339 0
M  V30 2947 H 273.08 -3.17535 -0.580628 0
M  V30 2948 H 272.132 -3.33258 1.83422 0
M  V30 2949 H 273.444 -4.47141 2.21058 0
M  V30 2950 H 272.598 -6.04942 0.461515 0
M  V30 2951 H 271.337 -4.87698 -0.013932 0
M  V30 2952 H 270.342 -4.99946 2.28767 0
M  V30 2953 H 271.567 -6.20592 2.75758 0
M  V30 2954 H 269.513 -6.53788 0.538254 0
M  V30 2955 H 269.43 -7.25898 2.11208 0
M  V30 2956 H 270.698 -7.72806 1.01933 0
M  V30 2957 N 274.927 -0.932562 -1.27047 0
M  V30 2958 C 275.857 -0.452902 -2.29066 0
M  V30 2959 C 276.838 0.489338 -1.62909 0
M  V30 2960 O 278.023 0.393046 -1.90181 0
M  V30 2961 C 275.153 0.290698 -3.46081 0
M  V30 2962 C 274.107 -0.564168 -4.24265 0
M  V30 2963 C 273.433 0.308886 -5.33807 0
M  V30 2964 C 274.733 -1.83112 -4.89149 0
M  V30 2965 H 276.427 -1.30552 -2.69437 0
M  V30 2966 H 273.973 -0.629201 -1.29526 0
M  V30 2967 H 275.926 0.637233 -4.16554 0
M  V30 2968 H 274.65 1.17738 -3.0464 0
M  V30 2969 H 273.309 -0.893477 -3.55545 0
M  V30 2970 H 272.957 1.19467 -4.88607 0
M  V30 2971 H 272.657 -0.259633 -5.87026 0
M  V30 2972 H 274.181 0.650884 -6.07121 0
M  V30 2973 H 275.595 -1.55236 -5.51883 0
M  V30 2974 H 273.992 -2.34353 -5.52448 0
M  V30 2975 H 275.062 -2.54772 -4.12576 0
M  V30 2976 N 276.405 1.4127 -0.698611 0
M  V30 2977 C 277.653 2.00782 -0.230409 0
M  V30 2978 C 277.974 1.5562 1.17505 0
M  V30 2979 O 277.244 0.78815 1.79346 0
M  V30 2980 H 275.824 0.742464 -0.0821944 0
M  V30 2981 H 278.486 1.72852 -0.90045 0
M  V30 2982 H 277.582 3.11095 -0.25021 0
M  V30 2983 N 277.883 0.443576 1.51229 0
M  V30 2984 C 279.299 0.0962001 1.5931 0
M  V30 2985 C 279.499 -1.39501 1.45402 0
M  V30 2986 O 278.555 -2.16557 1.29843 0
M  V30 2987 C 279.868 0.621875 2.94199 0
M  V30 2988 C 281.416 0.582865 3.07525 0
M  V30 2989 C 281.891 1.08562 4.44948 0
M  V30 2990 N 283.382 1.04387 4.51284 0
M  V30 2991 C 284.117 1.40368 5.55954 0
M  V30 2992 N 283.613 1.83664 6.68011 0
M  V30 2993 N 285.406 1.32145 5.46346 0
M  V30 2994 H 277.557 1.41376 1.58514 0
M  V30 2995 H 279.82 0.582965 0.747567 0
M  V30 2996 H 279.526 1.66546 3.09767 0
M  V30 2997 H 279.4 0.0502125 3.77167 0
M  V30 2998 H 281.787 -0.451749 2.91622 0
M  V30 2999 H 281.868 1.191 2.26382 0
M  V30 3000 H 281.512 2.11873 4.61598 0
M  V30 3001 H 281.442 0.453956 5.2464 0
M  V30 3002 H 283.933 0.725986 3.70861 0
M  V30 3003 H 284.246 2.0934 7.43906 0
M  V30 3004 H 282.591 1.87596 6.69203 0
M  V30 3005 H 285.782 0.981808 4.57688 0
M  V30 3006 H 285.955 1.60514 6.27805 0
M  V30 3007 N 279.361 -1.56624 0.175154 0
M  V30 3008 C 280.601 -1.98894 -0.471221 0
M  V30 3009 C 280.965 -1.05889 -1.60161 0
M  V30 3010 O 282.166 -1.37315 -2.3108 0
M  V30 3011 C 280.437 -3.44865 -0.938241 0
M  V30 3012 S 281.996 -4.09164 -1.58526 0
M  V30 3013 H 278.814 -0.694686 -0.151434 0
M  V30 3014 H 281.416 -1.93577 0.27352 0
M  V30 3015 H 280.12 -4.10265 -0.10518 0
M  V30 3016 H 279.651 -3.53956 -1.71693 0
M  V30 3017 H 281.666 -4.04528 -2.87352 0
M  V30 3018 N 280.839 0.0985539 -1.57292 0
M  V30 3019 C 282.064 0.820196 -1.90493 0
M  V30 3020 C 282.489 1.71658 -0.769094 0
M  V30 3021 O 281.847 1.79133 0.279495 0
M  V30 3022 C 281.895 1.61242 -3.22542 0
M  V30 3023 O 280.999 2.72108 -3.09888 0
M  V30 3024 H 280.34 0.225547 -0.62452 0
M  V30 3025 H 282.87 0.0748159 -2.04463 0
M  V30 3026 H 282.88 1.99737 -3.55766 0
M  V30 3027 H 281.555 0.954535 -4.04798 0
M  V30 3028 H 280.132 2.36667 -2.88172 0
M  V30 3029 N 282.317 1.53212 0.369288 0
M  V30 3030 C 283.563 1.69466 1.11397 0
M  V30 3031 C 283.896 0.443257 1.89074 0
M  V30 3032 O 283.171 -0.559386 1.86282 0
M  V30 3033 C 283.454 2.9422 2.07621 0
M  V30 3034 C 283.307 4.29508 1.33577 0
M  V30 3035 C 284.626 3.14565 3.07794 0
M  V30 3036 H 281.745 0.616667 0.403597 0
M  V30 3037 H 284.387 1.85845 0.395179 0
M  V30 3038 H 282.537 2.80387 2.68916 0
M  V30 3039 H 284.209 4.55147 0.750955 0
M  V30 3040 H 282.452 4.29088 0.637618 0
M  V30 3041 H 283.123 5.12926 2.03989 0
M  V30 3042 H 285.599 3.2756 2.56601 0
M  V30 3043 H 284.475 4.03297 3.72348 0
M  V30 3044 H 284.736 2.29675 3.77759 0
M  V30 3045 N 283.795 -0.628877 1.44509 0
M  V30 3046 C 285.211 -0.947305 1.28446 0
M  V30 3047 C 285.411 -2.00275 0.221872 0
M  V30 3048 O 284.467 -2.49447 -0.391471 0
M  V30 3049 C 285.78 -1.40843 2.65676 0
M  V30 3050 C 287.328 -1.52379 2.73404 0
M  V30 3051 C 287.803 -2.01875 4.11109 0
M  V30 3052 N 289.294 -2.09142 4.13296 0
M  V30 3053 C 290.029 -2.48615 5.16699 0
M  V30 3054 N 289.525 -2.87209 6.30462 0
M  V30 3055 N 291.318 -2.48768 5.04054 0
M  V30 3056 H 283.469 0.0690977 2.12288 0
M  V30 3057 H 285.732 -0.0317164 0.947469 0
M  V30 3058 H 285.438 -0.707206 3.44516 0
M  V30 3059 H 285.312 -2.37902 2.92716 0
M  V30 3060 H 287.699 -2.21598 1.9488 0
M  V30 3061 H 287.78 -0.536898 2.50102 0
M  V30 3062 H 287.424 -1.3325 4.90109 0
M  V30 3063 H 287.354 -3.0144 4.31789 0
M  V30 3064 H 289.845 -1.81991 3.31191 0
M  V30 3065 H 290.158 -3.16149 7.05174 0
M  V30 3066 H 288.503 -2.84955 6.33897 0
M  V30 3067 H 291.694 -2.18009 4.14234 0
M  V30 3068 H 291.867 -2.79207 5.84763 0
M  V30 3069 N 285.273 -1.31445 -0.869486 0
M  V30 3070 C 286.519 -1.21337 -1.62496 0
M  V30 3071 C 286.852 0.227872 -1.92858 0
M  V30 3072 O 286.127 1.16094 -1.56053 0
M  V30 3073 C 286.41 -2.05814 -2.95487 0
M  V30 3074 C 286.263 -3.5824 -2.72 0
M  V30 3075 C 287.582 -1.9079 -3.96594 0
M  V30 3076 H 284.701 -0.442135 -0.589649 0
M  V30 3077 H 287.343 -1.6124 -1.00507 0
M  V30 3078 H 285.493 -1.71913 -3.48394 0
M  V30 3079 H 287.165 -4.0228 -2.25762 0
M  V30 3080 H 285.408 -3.81647 -2.06224 0
M  V30 3081 H 286.079 -4.12657 -3.66631 0
M  V30 3082 H 288.555 -2.20459 -3.52898 0
M  V30 3083 H 287.431 -2.52199 -4.87531 0
M  V30 3084 H 287.692 -0.871341 -4.33428 0
M  V30 3085 N 286.751 1.08385 -1.14413 0
M  V30 3086 C 287.976 1.85057 -0.936413 0
M  V30 3087 C 288.401 1.81055 0.509971 0
M  V30 3088 O 287.759 1.1958 1.36273 0
M  V30 3089 C 287.807 3.30505 -1.44217 0
M  V30 3090 O 286.911 4.07491 -0.634409 0
M  V30 3091 H 286.252 0.573425 -0.334784 0
M  V30 3092 H 288.782 1.36799 -1.52142 0
M  V30 3093 H 288.792 3.81348 -1.45043 0
M  V30 3094 H 287.467 3.32734 -2.49522 0
M  V30 3095 H 286.044 3.66368 -0.694902 0
M  V30 3096 N 288.23 0.939286 1.26551 0
M  V30 3097 C 289.476 0.586715 1.94128 0
M  V30 3098 C 289.809 -0.8717 1.73537 0
M  V30 3099 O 289.084 -1.62339 1.07127 0
M  V30 3100 C 289.367 0.927497 3.4795 0
M  V30 3101 C 289.22 2.44052 3.77834 0
M  V30 3102 C 290.539 0.441569 4.37879 0
M  V30 3103 H 287.658 0.21463 0.705055 0
M  V30 3104 H 290.3 1.17316 1.49455 0
M  V30 3105 H 288.45 0.428431 3.8613 0
M  V30 3106 H 290.122 3.01216 3.4938 0
M  V30 3107 H 288.365 2.8848 3.23978 0
M  V30 3108 H 289.036 2.62947 4.85348 0
M  V30 3109 H 291.512 0.869448 4.06915 0
M  V30 3110 H 290.388 0.708856 5.44304 0
M  V30 3111 H 290.649 -0.658467 4.37169 0
M  V30 3112 N 289.708 -1.40897 0.706093 0
M  V30 3113 C 290.656 -2.32572 0.0361893 0
M  V30 3114 C 291.65 -1.51532 -0.757266 0
M  V30 3115 O 292.856 -1.67396 -0.661703 0
M  V30 3116 H 289.231 -0.751966 -0.00709935 0
M  V30 3117 H 291.202 -2.86733 0.826249 0
M  V30 3118 C 289.951 -3.36418 -0.87854 0
M  V30 3119 H 289.274 -3.98836 -0.277401 0
M  V30 3120 H 290.714 -4.0308 -1.3154 0
M  V30 3121 C 289.173 -2.71141 -1.99961 0
M  V30 3122 O 289.703 -2.56735 -3.0895 0
M  V30 3123 N 287.909 -2.29671 -1.78043 0
M  V30 3124 H 287.456 -2.41588 -0.894042 0
M  V30 3125 H 287.414 -1.86332 -2.53235 0
M  V30 3126 N 291.186 -0.45159 -1.50991 0
M  V30 3127 C 292.414 0.108334 -2.06616 0
M  V30 3128 C 292.829 1.35224 -1.31757 0
M  V30 3129 O 292.186 1.78475 -0.381174 0
M  V30 3130 C 292.237 0.41619 -3.59096 0
M  V30 3131 O 291.958 -0.778361 -4.3113 0
M  V30 3132 C 293.459 1.02523 -4.31282 0
M  V30 3133 H 290.679 0.00159995 -0.670998 0
M  V30 3134 H 293.223 -0.634771 -1.94399 0
M  V30 3135 H 291.378 1.10921 -3.71181 0
M  V30 3136 H 291.792 -0.511181 -5.22003 0
M  V30 3137 H 293.266 1.19053 -5.39009 0
M  V30 3138 H 293.743 2.01013 -3.905 0
M  V30 3139 H 294.349 0.371173 -4.23677 0
M  V30 3140 N 292.664 1.56529 -0.183458 0
M  V30 3141 C 293.627 2.17324 0.728223 0
M  V30 3142 C 294.627 1.12453 1.14939 0
M  V30 3143 O 295.817 1.37902 1.06437 0
M  V30 3144 C 292.949 2.76591 1.99274 0
M  V30 3145 H 294.142 2.99241 0.198772 0
M  V30 3146 H 291.695 1.5616 0.0661391 0
M  V30 3147 H 292.43 1.98441 2.56499 0
M  V30 3148 H 292.215 3.5335 1.69959 0
M  V30 3149 H 293.705 3.23311 2.6431 0
M  V30 3150 N 294.142 -0.090211 1.57342 0
M  V30 3151 C 295.09 -1.12792 2.03422 0
M  V30 3152 C 296.084 -1.41182 0.936166 0
M  V30 3153 O 297.29 -1.40805 1.12133 0
M  V30 3154 H 293.665 -0.380986 0.648347 0
M  V30 3155 H 295.636 -0.71299 2.89757 0
M  V30 3156 C 294.385 -2.43855 2.47851 0
M  V30 3157 H 293.708 -2.22855 3.31927 0
M  V30 3158 H 295.148 -3.14955 2.83865 0
M  V30 3159 C 293.607 -3.08503 1.3538 0
M  V30 3160 O 294.137 -3.95805 0.685641 0
M  V30 3161 N 292.343 -2.68831 1.10355 0
M  V30 3162 H 291.89 -1.97929 1.64869 0
M  V30 3163 H 291.848 -3.12412 0.353031 0
M  V30 3164 N 295.62 -1.53406 -0.361157 0
M  V30 3165 C 296.866 -1.70054 -1.10496 0
M  V30 3166 C 297.199 -0.453278 -1.88836 0
M  V30 3167 O 296.474 0.5495 -1.86576 0
M  V30 3168 C 296.757 -2.95317 -2.06058 0
M  V30 3169 C 296.61 -4.3021 -1.31298 0
M  V30 3170 C 297.929 -3.16193 -3.06121 0
M  V30 3171 H 295.048 -0.618799 -0.400321 0
M  V30 3172 H 297.69 -1.86052 -0.385318 0
M  V30 3173 H 295.84 -2.81809 -2.67425 0
M  V30 3174 H 297.512 -4.55538 -0.726807 0
M  V30 3175 H 295.755 -4.29421 -0.614853 0
M  V30 3176 H 296.426 -5.14 -2.01265 0
M  V30 3177 H 298.902 -3.28916 -2.5486 0
M  V30 3178 H 297.778 -4.05266 -3.70204 0
M  V30 3179 H 298.039 -2.31676 -3.76535 0
M  V30 3180 N 297.098 0.621204 -1.44841 0
M  V30 3181 C 298.326 1.40752 -1.51646 0
M  V30 3182 C 298.741 1.88246 -0.144549 0
M  V30 3183 O 298.098 1.61422 0.851416 0
M  V30 3184 C 298.149 2.62119 -2.4895 0
M  V30 3185 O 297.87 2.16602 -3.80808 0
M  V30 3186 C 299.371 3.55135 -2.65319 0
M  V30 3187 H 296.591 0.431325 -0.514004 0
M  V30 3188 H 299.135 0.758835 -1.899 0
M  V30 3189 H 297.29 3.23058 -2.13805 0
M  V30 3190 H 297.704 2.95358 -4.33433 0
M  V30 3191 H 299.178 4.36874 -3.37409 0
M  V30 3192 H 299.655 4.04592 -1.70886 0
M  V30 3193 H 300.261 3.00058 -3.01405 0
M  V30 3194 N 298.576 1.31904 0.862503 0
M  V30 3195 C 299.506 1.22782 1.98612 0
M  V30 3196 C 300.487 0.113362 1.69722 0
M  V30 3197 O 301.672 0.299218 1.91881 0
M  V30 3198 C 298.802 0.942058 3.34279 0
M  V30 3199 C 297.756 2.0169 3.77499 0
M  V30 3200 C 297.082 1.58369 5.10709 0
M  V30 3201 C 298.382 3.43096 3.93805 0
M  V30 3202 H 300.076 2.16788 2.06502 0
M  V30 3203 H 297.622 1.04366 0.992154 0
M  V30 3204 H 299.575 0.864818 4.1243 0
M  V30 3205 H 298.299 -0.0336603 3.26583 0
M  V30 3206 H 296.958 2.08416 3.01593 0
M  V30 3207 H 296.606 0.595628 4.99461 0
M  V30 3208 H 296.306 2.30279 5.40597 0
M  V30 3209 H 297.83 1.52067 5.91361 0
M  V30 3210 H 299.244 3.39003 4.62331 0
M  V30 3211 H 297.641 4.13288 4.35101 0
M  V30 3212 H 298.711 3.83334 2.96957 0
M  V30 3213 N 300.054 -1.07777 1.14986 0
M  V30 3214 C 301.302 -1.79934 0.920235 0
M  V30 3215 C 301.623 -1.86955 -0.554336 0
M  V30 3216 O 300.893 -1.36731 -1.40291 0
M  V30 3217 H 299.473 -0.666424 0.337473 0
M  V30 3218 H 302.135 -1.3027 1.44968 0
M  V30 3219 H 301.231 -2.82539 1.32583 0
M  V30 3220 N 301.532 -0.945985 -1.26051 0
M  V30 3221 C 302.943 -0.638096 -1.75457 0
M  V30 3222 C 303.294 0.846672 -1.76991 0
M  V30 3223 O 302.419 1.66262 -1.38513 0
M  V30 3224 C 303.014 -1.15157 -3.18629 0
M  V30 3225 C 301.573 -0.894004 -3.65629 0
M  V30 3226 C 300.72 -1.29967 -2.44957 0
M  V30 3227 H 303.671 -1.12376 -1.1206 0
M  V30 3228 H 303.692 -0.507615 -3.77099 0
M  V30 3229 H 303.204 -2.23222 -3.1748 0
M  V30 3230 H 301.305 0.172057 -3.72203 0
M  V30 3231 H 301.418 -1.52439 -4.54202 0
M  V30 3232 H 299.782 -0.718078 -2.44368 0
M  V30 3233 H 300.565 -2.38935 -2.46505 0
M  V30 3234 N 303.011 1.40521 -0.713556 0
M  V30 3235 C 303.943 2.29191 -0.0203126 0
M  V30 3236 C 304.956 1.45723 0.725864 0
M  V30 3237 O 306.145 1.69033 0.573581 0
M  V30 3238 C 303.245 3.2395 0.995486 0
M  V30 3239 C 302.418 4.36262 0.315256 0
M  V30 3240 C 301.477 5.11474 1.23616 0
M  V30 3241 O 300.503 5.64606 0.721719 0
M  V30 3242 N 301.705 5.20638 2.56743 0
M  V30 3243 H 304.47 2.89327 -0.781652 0
M  V30 3244 H 302.031 1.51869 -0.561022 0
M  V30 3245 H 304.023 3.71137 1.61368 0
M  V30 3246 H 302.593 2.64995 1.6582 0
M  V30 3247 H 301.813 3.91228 -0.483106 0
M  V30 3248 H 303.101 5.08558 -0.157004 0
M  V30 3249 H 302.499 4.7895 3.01037 0
M  V30 3250 H 301.056 5.71339 3.13712 0
M  V30 3251 N 304.489 0.459591 1.5075 0
M  V30 3252 C 305.419 -0.330644 2.31147 0
M  V30 3253 C 306.4 -1.00087 1.37538 0
M  V30 3254 O 307.585 -1.00025 1.66459 0
M  V30 3255 C 304.715 -1.41958 3.16962 0
M  V30 3256 C 303.669 -0.871608 4.19031 0
M  V30 3257 C 302.995 -2.05797 4.9351 0
M  V30 3258 C 304.295 0.109251 5.22186 0
M  V30 3259 H 305.989 0.340336 2.97459 0
M  V30 3260 H 303.535 0.165119 1.4305 0
M  V30 3261 H 305.488 -1.9798 3.71997 0
M  V30 3262 H 304.212 -2.11917 2.48513 0
M  V30 3263 H 302.871 -0.333442 3.6508 0
M  V30 3264 H 302.519 -2.74427 4.21544 0
M  V30 3265 H 302.219 -1.6976 5.62544 0
M  V30 3266 H 303.743 -2.62331 5.51375 0
M  V30 3267 H 305.157 -0.361405 5.7216 0
M  V30 3268 H 303.554 0.383316 5.98875 0
M  V30 3269 H 304.624 1.03887 4.73641 0
M  V30 3270 N 305.967 -1.56429 0.191757 0
M  V30 3271 C 306.9 -2.14829 -0.76967 0
M  V30 3272 C 307.878 -1.08405 -1.2119 0
M  V30 3273 O 309.062 -1.36498 -1.30002 0
M  V30 3274 C 306.189 -2.70446 -2.03903 0
M  V30 3275 C 305.235 -3.89428 -1.7392 0
M  V30 3276 S 306.068 -5.28048 -0.890265 0
M  V30 3277 C 307.224 -5.87085 -2.16984 0
M  V30 3278 H 307.457 -2.96042 -0.273204 0
M  V30 3279 H 304.99 -1.54383 -0.0231975 0
M  V30 3280 H 306.948 -3.03134 -2.76803 0
M  V30 3281 H 305.609 -1.89281 -2.50662 0
M  V30 3282 H 304.802 -4.26742 -2.68155 0
M  V30 3283 H 304.404 -3.57732 -1.09103 0
M  V30 3284 H 306.696 -6.01244 -3.12269 0
M  V30 3285 H 307.639 -6.83747 -1.84108 0
M  V30 3286 H 308.047 -5.15663 -2.29678 0
M  V30 3287 N 307.445 0.0818655 -1.57387 0
M  V30 3288 C 308.355 1.11642 -2.06333 0
M  V30 3289 C 309.371 1.43033 -0.99083 0
M  V30 3290 O 310.547 1.53411 -1.30488 0
M  V30 3291 C 307.612 2.41342 -2.48907 0
M  V30 3292 C 306.673 2.17014 -3.7041 0
M  V30 3293 C 305.906 3.4053 -4.10944 0
M  V30 3294 O 306.129 4.4927 -3.51444 0
M  V30 3295 O 305.063 3.29336 -5.03807 0
M  V30 3296 H 308.889 0.730657 -2.9478 0
M  V30 3297 H 306.474 0.295301 -1.46452 0
M  V30 3298 H 308.356 3.17691 -2.76858 0
M  V30 3299 H 307.031 2.79319 -1.63593 0
M  V30 3300 H 305.938 1.38403 -3.47556 0
M  V30 3301 H 307.271 1.83923 -4.56545 0
M  V30 3302 N 308.923 1.53595 0.353017 0
M  V30 3303 C 310.169 1.70638 1.09593 0
M  V30 3304 C 310.502 0.463286 1.88593 0
M  V30 3305 O 309.777 -0.539597 1.86865 0
M  V30 3306 C 310.06 2.96406 2.04489 0
M  V30 3307 C 309.913 4.30901 1.29014 0
M  V30 3308 C 311.232 3.17812 3.0444 0
M  V30 3309 H 308.351 0.620913 0.397034 0
M  V30 3310 H 310.993 1.86254 0.375446 0
M  V30 3311 H 309.143 2.83223 2.65927 0
M  V30 3312 H 310.815 4.55917 0.702638 0
M  V30 3313 H 309.058 4.29741 0.592071 0
M  V30 3314 H 309.729 5.1506 1.98537 0
M  V30 3315 H 312.205 3.30263 2.53112 0
M  V30 3316 H 311.081 4.07223 3.6805 0
M  V30 3317 H 311.342 2.33669 3.75301 0
M  V30 3318 N 310.401 -0.613514 1.45168 0
M  V30 3319 C 311.629 -1.39946 1.5239 0
M  V30 3320 C 312.044 -1.88167 0.154531 0
M  V30 3321 O 311.401 -1.61872 -0.842843 0
M  V30 3322 C 311.452 -2.60795 2.50337 0
M  V30 3323 O 311.173 -2.1458 3.81952 0
M  V30 3324 C 312.674 -3.53723 2.67198 0
M  V30 3325 H 309.894 -0.428593 0.516284 0
M  V30 3326 H 312.438 -0.748753 1.903 0
M  V30 3327 H 310.593 -3.21919 2.15515 0
M  V30 3328 H 311.007 -2.93055 4.34993 0
M  V30 3329 H 312.481 -4.35079 3.39721 0
M  V30 3330 H 312.958 -4.0368 1.73029 0
M  V30 3331 H 313.564 -2.98456 3.02992 0
M  V30 3332 N 311.879 -1.3236 -0.855495 0
M  V30 3333 C 313.125 -1.23054 -1.612 0
M  V30 3334 C 313.458 0.207404 -1.93089 0
M  V30 3335 O 312.733 1.14432 -1.57275 0
M  V30 3336 C 313.016 -2.08937 -2.93287 0
M  V30 3337 C 312.869 -3.61105 -2.68185 0
M  V30 3338 C 314.188 -1.94986 -3.94549 0
M  V30 3339 H 311.307 -0.448364 -0.584926 0
M  V30 3340 H 313.949 -1.62297 -0.987917 0
M  V30 3341 H 312.099 -1.75599 -3.46551 0
M  V30 3342 H 313.771 -4.04652 -2.21483 0
M  V30 3343 H 312.014 -3.83813 -2.02164 0
M  V30 3344 H 312.685 -4.16522 -3.62234 0
M  V30 3345 H 315.161 -2.24189 -3.5054 0
M  V30 3346 H 314.037 -2.57356 -4.84829 0
M  V30 3347 H 314.298 -0.917263 -4.3248 0
M  V30 3348 N 313.357 1.07166 -1.15556 0
M  V30 3349 C 314.587 1.83248 -0.954133 0
M  V30 3350 C 314.995 1.82449 0.500911 0
M  V30 3351 O 314.338 1.23575 1.35923 0
M  V30 3352 C 314.4 3.31393 -1.39351 0
M  V30 3353 C 314.064 3.5591 -2.86666 0
M  V30 3354 C 315.061 3.49695 -3.8472 0
M  V30 3355 C 312.746 3.83515 -3.24379 0
M  V30 3356 C 314.74 3.70737 -5.18491 0
M  V30 3357 C 312.427 4.04209 -4.58321 0
M  V30 3358 C 313.425 3.97815 -5.55186 0
M  V30 3359 O 313.113 4.17954 -6.86709 0
M  V30 3360 H 312.845 0.584941 -0.338851 0
M  V30 3361 H 315.399 1.36169 -1.53777 0
M  V30 3362 H 313.629 3.79292 -0.75329 0
M  V30 3363 H 315.318 3.88945 -1.16089 0
M  V30 3364 H 316.084 3.28368 -3.56931 0
M  V30 3365 H 311.963 3.87605 -2.49567 0
M  V30 3366 H 315.507 3.65663 -5.94085 0
M  V30 3367 H 311.404 4.25023 -4.85825 0
M  V30 3368 H 312.172 4.35291 -6.93155 0
M  V30 3369 N 314.835 0.952656 1.25548 0
M  V30 3370 C 316.251 0.656769 1.4546 0
M  V30 3371 C 316.451 -0.78633 1.85524 0
M  V30 3372 O 315.507 -1.56183 1.98402 0
M  V30 3373 C 316.82 1.62801 2.52817 0
M  V30 3374 C 318.368 1.63897 2.66659 0
M  V30 3375 C 318.843 2.5978 3.77198 0
M  V30 3376 N 320.334 2.58133 3.84606 0
M  V30 3377 C 321.069 3.29003 4.69621 0
M  V30 3378 N 320.565 4.09339 5.58939 0
M  V30 3379 N 322.358 3.179 4.63569 0
M  V30 3380 H 314.509 1.88526 0.978344 0
M  V30 3381 H 316.772 0.810815 0.491206 0
M  V30 3382 H 316.478 2.65869 2.30232 0
M  V30 3383 H 316.352 1.38898 3.50695 0
M  V30 3384 H 318.739 0.615481 2.8861 0
M  V30 3385 H 318.82 1.91858 1.69187 0
M  V30 3386 H 318.464 3.62254 3.55997 0
M  V30 3387 H 318.394 2.29105 4.7415 0
M  V30 3388 H 320.885 1.99809 3.20757 0
M  V30 3389 H 321.198 4.6034 6.20731 0
M  V30 3390 H 319.543 4.13438 5.58654 0
M  V30 3391 H 322.734 2.54612 3.92798 0
M  V30 3392 H 322.907 3.73398 5.29602 0
M  V30 3393 N 316.313 -1.40141 0.720998 0
M  V30 3394 C 317.729 -1.54632 0.395113 0
M  V30 3395 C 317.929 -1.69115 -1.09555 0
M  V30 3396 O 316.985 -1.68377 -1.88163 0
M  V30 3397 C 318.298 -2.77177 1.1659 0
M  V30 3398 C 319.846 -2.91 1.15274 0
M  V30 3399 C 320.321 -4.16465 1.90579 0
M  V30 3400 N 321.812 -4.23476 1.87675 0
M  V30 3401 C 322.547 -5.19475 2.42762 0
M  V30 3402 N 322.043 -6.21348 3.06428 0
M  V30 3403 N 323.836 -5.11592 2.32874 0
M  V30 3404 H 315.987 -1.28986 1.68749 0
M  V30 3405 H 318.25 -0.62412 0.713567 0
M  V30 3406 H 317.956 -2.72771 2.22011 0
M  V30 3407 H 317.83 -3.69442 0.76108 0
M  V30 3408 H 320.217 -2.94907 0.106702 0
M  V30 3409 H 320.298 -1.99838 1.59682 0
M  V30 3410 H 319.942 -4.1332 2.95176 0
M  V30 3411 H 319.872 -5.06646 1.43587 0
M  V30 3412 H 322.363 -3.50497 1.41281 0
M  V30 3413 H 322.676 -6.91034 3.45965 0
M  V30 3414 H 321.021 -6.21777 3.10514 0
M  V30 3415 H 324.212 -4.30936 1.82789 0
M  V30 3416 H 324.385 -5.86233 2.76106 0
M  V30 3417 N 317.792 -0.46758 -1.50504 0
M  V30 3418 C 318.742 0.34698 -2.25344 0
M  V30 3419 C 319.726 0.964469 -1.2879 0
M  V30 3420 O 320.918 0.8776 -1.53711 0
M  V30 3421 C 318.047 1.43042 -3.1208 0
M  V30 3422 C 317.133 0.82084 -4.16081 0
M  V30 3423 N 317.524 -0.0567602 -5.05768 0
M  V30 3424 C 315.822 1.08517 -4.32597 0
M  V30 3425 C 316.523 -0.402343 -5.80307 0
M  V30 3426 N 315.499 0.221607 -5.43148 0
M  V30 3427 H 319.301 -0.329129 -2.92051 0
M  V30 3428 H 316.815 -0.281508 -1.59942 0
M  V30 3429 H 318.812 2.02712 -3.64299 0
M  V30 3430 H 317.472 2.10856 -2.46921 0
M  V30 3431 H 318.483 -0.425349 -5.1615 0
M  V30 3432 H 315.16 1.75855 -3.78657 0
M  V30 3433 H 316.55 -1.11834 -6.62528 0
M  V30 3434 N 319.27 1.56325 -0.20005 0
M  V30 3435 C 320.518 1.97329 0.436547 0
M  V30 3436 C 320.839 1.08826 1.61808 0
M  V30 3437 O 320.109 0.160604 1.95241 0
M  V30 3438 H 318.689 0.728714 0.164272 0
M  V30 3439 H 321.351 1.92761 -0.287937 0
M  V30 3440 H 320.447 3.02264 0.777353 0
M  V30 3441 N 320.748 -0.0735177 1.57428 0
M  V30 3442 C 322.164 -0.428264 1.53747 0
M  V30 3443 C 322.364 -1.79272 0.91998 0
M  V30 3444 O 321.42 -2.47051 0.521745 0
M  V30 3445 C 322.733 -0.370914 2.98404 0
M  V30 3446 C 324.281 -0.451224 3.0973 0
M  V30 3447 C 324.756 -0.4238 4.56035 0
M  V30 3448 N 326.247 -0.483925 4.60665 0
M  V30 3449 C 326.982 -0.484891 5.71346 0
M  V30 3450 N 326.478 -0.440775 6.91396 0
M  V30 3451 N 328.271 -0.531319 5.59583 0
M  V30 3452 H 320.422 0.819949 1.95935 0
M  V30 3453 H 322.685 0.307493 0.896745 0
M  V30 3454 H 322.391 0.564956 3.47133 0
M  V30 3455 H 322.265 -1.18176 3.5821 0
M  V30 3456 H 324.652 -1.37752 2.60976 0
M  V30 3457 H 324.733 0.388167 2.52838 0
M  V30 3458 H 324.377 0.498638 5.05446 0
M  V30 3459 H 324.307 -1.2807 5.10789 0
M  V30 3460 H 326.798 -0.522338 3.74273 0
M  V30 3461 H 327.111 -0.44539 7.71515 0
M  V30 3462 H 325.456 -0.40749 6.93804 0
M  V30 3463 H 328.647 -0.563464 4.64696 0
M  V30 3464 H 328.82 -0.528603 6.4584 0
M  V30 3465 N 322.226 -1.5378 -0.344866 0
M  V30 3466 C 323.189 -1.80981 -1.40637 0
M  V30 3467 C 324.189 -0.680816 -1.45676 0
M  V30 3468 O 325.379 -0.949095 -1.46075 0
M  V30 3469 C 322.511 -1.95063 -2.79577 0
M  V30 3470 H 323.704 -2.75803 -1.17783 0
M  V30 3471 H 321.257 -1.45173 -0.579181 0
M  V30 3472 H 321.992 -1.02379 -3.07716 0
M  V30 3473 H 321.777 -2.77198 -2.77315 0
M  V30 3474 H 323.267 -2.17629 -3.56409 0
M  V30 3475 N 323.704 0.605807 -1.45491 0
M  V30 3476 C 324.934 1.38934 -1.52908 0
M  V30 3477 C 325.342 1.88513 -0.161086 0
M  V30 3478 O 324.685 1.62962 0.847891 0
M  V30 3479 C 324.747 2.62737 -2.45376 0
M  V30 3480 C 324.411 2.34785 -3.92078 0
M  V30 3481 C 325.408 1.95038 -4.8193 0
M  V30 3482 C 323.093 2.47642 -4.37011 0
M  V30 3483 C 325.087 1.68511 -6.14722 0
M  V30 3484 C 322.774 2.20728 -5.69844 0
M  V30 3485 C 323.772 1.81225 -6.58519 0
M  V30 3486 O 323.46 1.54627 -7.88889 0
M  V30 3487 H 323.192 0.431629 -0.520262 0
M  V30 3488 H 325.746 0.74573 -1.91384 0
M  V30 3489 H 323.976 3.29824 -2.01874 0
M  V30 3490 H 325.665 3.24783 -2.43456 0
M  V30 3491 H 326.431 1.84639 -4.48479 0
M  V30 3492 H 322.31 2.77356 -3.68232 0
M  V30 3493 H 325.854 1.37602 -6.83894 0
M  V30 3494 H 321.751 2.30744 -6.02849 0
M  V30 3495 H 322.519 1.68665 -8.00933 0
M  V30 3496 N 325.182 1.32811 0.848464 0
M  V30 3497 C 326.428 1.23907 1.60546 0
M  V30 3498 C 326.761 -0.197161 1.93197 0
M  V30 3499 O 326.036 -1.13596 1.5788 0
M  V30 3500 C 326.319 2.10489 2.92175 0
M  V30 3501 C 326.172 3.62522 2.66266 0
M  V30 3502 C 327.491 1.97075 3.93509 0
M  V30 3503 H 324.61 0.451459 0.58254 0
M  V30 3504 H 327.252 1.62818 0.979296 0
M  V30 3505 H 325.402 1.77434 3.45614 0
M  V30 3506 H 327.074 4.05821 2.19334 0
M  V30 3507 H 325.317 3.84879 2.00126 0
M  V30 3508 H 325.988 4.18437 3.6002 0
M  V30 3509 H 328.464 2.26045 3.49346 0
M  V30 3510 H 327.34 2.59923 4.83457 0
M  V30 3511 H 327.601 0.940186 4.31987 0
M  V30 3512 N 326.66 -1.06551 1.16123 0
M  V30 3513 C 328.071 -1.60768 0.949232 0
M  V30 3514 C 328.422 -1.89523 -0.507508 0
M  V30 3515 O 327.547 -1.66671 -1.38021 0
M  V30 3516 C 328.142 -2.92086 1.71671 0
M  V30 3517 C 326.701 -3.43015 1.54977 0
M  V30 3518 C 325.848 -2.16947 1.72711 0
M  V30 3519 H 328.799 -0.895354 1.31031 0
M  V30 3520 H 328.82 -3.6138 1.19099 0
M  V30 3521 H 328.332 -2.71127 2.7769 0
M  V30 3522 H 326.433 -3.69039 0.513873 0
M  V30 3523 H 326.546 -4.18516 2.33198 0
M  V30 3524 H 324.91 -2.27041 1.15431 0
M  V30 3525 H 325.693 -1.98473 2.80113 0
M  V30 3526 N 328.138 -0.959301 -1.25041 0
M  V30 3527 C 329.387 -0.612254 -1.92183 0
M  V30 3528 C 329.7 0.855347 -1.75907 0
M  V30 3529 O 330.906 1.31256 -2.37664 0
M  V30 3530 C 329.362 -1.04435 -3.44414 0
M  V30 3531 C 328.97 -2.53482 -3.69393 0
M  V30 3532 C 330.714 -0.770055 -4.17457 0
M  V30 3533 C 328.621 -2.90468 -5.15153 0
M  V30 3534 H 327.551 -0.225279 -0.719559 0
M  V30 3535 H 330.202 -1.16438 -1.41825 0
M  V30 3536 H 328.584 -0.4206 -3.9376 0
M  V30 3537 H 329.758 -3.20916 -3.30681 0
M  V30 3538 H 328.073 -2.78432 -3.0962 0
M  V30 3539 H 330.67 -1.02249 -5.24832 0
M  V30 3540 H 331.013 0.293611 -4.15263 0
M  V30 3541 H 331.546 -1.35437 -3.74034 0
M  V30 3542 H 328.285 -3.95871 -5.22462 0
M  V30 3543 H 327.805 -2.27711 -5.54894 0
M  V30 3544 H 329.484 -2.79914 -5.83315 0
M  V30 3545 N 329.616 1.39756 -0.72842 0
M  V30 3546 C 330.579 2.29012 -0.0927297 0
M  V30 3547 C 331.579 1.45992 0.674025 0
M  V30 3548 O 332.769 1.66749 0.50402 0
M  V30 3549 C 329.901 3.29396 0.878137 0
M  V30 3550 H 331.094 2.86729 -0.879011 0
M  V30 3551 H 328.647 1.48293 -0.493847 0
M  V30 3552 H 329.382 2.76722 1.69101 0
M  V30 3553 H 329.167 3.907 0.331051 0
M  V30 3554 H 330.657 3.96199 1.3197 0
M  V30 3555 N 331.094 0.475555 1.50254 0
M  V30 3556 C 332.026 -0.352649 2.26471 0
M  V30 3557 C 333.039 -0.953165 1.3198 0
M  V30 3558 O 334.228 -0.840815 1.57457 0
M  V30 3559 C 331.328 -1.50902 3.0345 0
M  V30 3560 C 330.501 -1.02047 4.25329 0
M  V30 3561 C 329.56 -2.05142 4.84565 0
M  V30 3562 O 328.586 -1.63023 5.45355 0
M  V30 3563 N 329.788 -3.37987 4.71959 0
M  V30 3564 H 332.553 0.300767 2.98187 0
M  V30 3565 H 330.114 0.306598 1.5897 0
M  V30 3566 H 332.106 -2.19572 3.39956 0
M  V30 3567 H 330.676 -2.06705 2.34504 0
M  V30 3568 H 329.896 -0.159507 3.93877 0
M  V30 3569 H 331.184 -0.672061 5.04342 0
M  V30 3570 H 330.582 -3.74913 4.23623 0
M  V30 3571 H 329.139 -4.02443 5.12721 0
M  V30 3572 N 332.573 -1.56217 0.208337 0
M  V30 3573 C 333.819 -1.98242 -0.427552 0
M  V30 3574 C 334.152 -1.09554 -1.60348 0
M  V30 3575 O 333.427 -0.15035 -1.93918 0
M  V30 3576 C 333.71 -3.4931 -0.874907 0
M  V30 3577 C 333.563 -4.48773 0.303751 0
M  V30 3578 C 334.882 -4.04424 -1.73577 0
M  V30 3579 H 332.001 -0.720744 -0.153936 0
M  V30 3580 H 334.643 -1.87586 0.30192 0
M  V30 3581 H 332.793 -3.58522 -1.49648 0
M  V30 3582 H 334.465 -4.51586 0.941682 0
M  V30 3583 H 332.708 -4.23194 0.953375 0
M  V30 3584 H 333.379 -5.51976 -0.0519883 0
M  V30 3585 H 335.855 -3.98075 -1.21143 0
M  V30 3586 H 334.731 -5.1047 -2.01771 0
M  V30 3587 H 334.992 -3.50494 -2.69456 0
M  V30 3588 N 334.051 0.0651679 -1.57465 0
M  V30 3589 C 334.998 1.07675 -2.04144 0
M  V30 3590 C 335.968 1.38071 -0.923335 0
M  V30 3591 O 337.153 1.49026 -1.19146 0
M  V30 3592 C 334.293 2.38337 -2.49579 0
M  V30 3593 C 333.406 2.14413 -3.75035 0
M  V30 3594 C 332.541 3.38686 -4.09225 0
M  V30 3595 C 331.58 3.10156 -5.27702 0
M  V30 3596 N 330.717 4.26778 -5.57499 0
M  V30 3597 H 335.557 0.671716 -2.90331 0
M  V30 3598 H 333.094 0.3201 -1.43575 0
M  V30 3599 H 335.052 3.14632 -2.73975 0
M  V30 3600 H 333.682 2.7663 -1.6636 0
M  V30 3601 H 332.734 1.2878 -3.57939 0
M  V30 3602 H 334.046 1.89344 -4.61466 0
M  V30 3603 H 333.2 4.23373 -4.34558 0
M  V30 3604 H 331.939 3.66837 -3.21374 0
M  V30 3605 H 330.944 2.23866 -5.02159 0
M  V30 3606 H 332.169 2.8332 -6.17176 0
M  V30 3607 H 330.115 4.54948 -4.72608 0
M  V30 3608 H 330.032 4.05005 -6.38362 0
M  V30 3609 H 331.3 5.12443 -5.87386 0
M  V30 3610 N 335.529 1.53961 0.336706 0
M  V30 3611 C 336.806 1.62171 1.09361 0
M  V30 3612 C 337.186 0.447263 2.06307 0
M  V30 3613 O 336.534 -0.559802 2.21537 0
M  V30 3614 C 336.744 2.98565 1.80721 0
M  V30 3615 C 338.092 3.54157 2.34218 0
M  V30 3616 O 339.116 3.00784 1.90807 0
M  V30 3617 O 337.975 4.47528 3.13657 0
M  V30 3618 H 335.069 0.6562 0.503319 0
M  V30 3619 H 337.615 1.66307 0.33765 0
M  V30 3620 H 336.387 3.75482 1.10132 0
M  V30 3621 H 336.01 2.9805 2.63158 0
M  V30 3622 N 337.007 -0.598083 1.45811 0
M  V30 3623 C 338.253 -1.35882 1.50545 0
M  V30 3624 C 338.586 -1.93616 0.150445 0
M  V30 3625 O 337.861 -1.75604 -0.83628 0
M  V30 3626 C 338.144 -2.49966 2.59208 0
M  V30 3627 C 337.997 -1.97367 4.04186 0
M  V30 3628 C 339.316 -3.52068 2.64076 0
M  V30 3629 H 336.435 -0.492717 0.548087 0
M  V30 3630 H 339.077 -0.673319 1.77669 0
M  V30 3631 H 337.227 -3.08443 2.3621 0
M  V30 3632 H 338.899 -1.43466 4.38423 0
M  V30 3633 H 337.142 -1.283 4.14393 0
M  V30 3634 H 337.813 -2.79649 4.75921 0
M  V30 3635 H 340.289 -3.03448 2.84708 0
M  V30 3636 H 339.165 -4.2937 3.41954 0
M  V30 3637 H 339.426 -4.08304 1.69531 0
M  V30 3638 N 338.485 -1.33259 -0.841409 0
M  V30 3639 C 339.715 -1.2742 -1.62628 0
M  V30 3640 C 340.123 0.157604 -1.88542 0
M  V30 3641 O 339.466 1.10938 -1.46419 0
M  V30 3642 C 339.528 -1.97797 -3.00194 0
M  V30 3643 C 339.192 -3.47109 -2.97261 0
M  V30 3644 C 340.189 -4.42358 -2.73159 0
M  V30 3645 C 337.874 -3.89247 -3.17478 0
M  V30 3646 C 339.868 -5.77718 -2.69296 0
M  V30 3647 C 337.555 -5.24713 -3.13241 0
M  V30 3648 C 338.553 -6.1876 -2.89181 0
M  V30 3649 O 338.241 -7.51745 -2.84843 0
M  V30 3650 H 337.973 -0.440436 -0.512827 0
M  V30 3651 H 340.527 -1.76153 -1.05638 0
M  V30 3652 H 338.757 -1.43652 -3.59028 0
M  V30 3653 H 340.446 -1.8549 -3.61038 0
M  V30 3654 H 341.212 -4.11127 -2.57294 0
M  V30 3655 H 337.091 -3.16456 -3.35226 0
M  V30 3656 H 340.635 -6.51097 -2.50436 0
M  V30 3657 H 336.532 -5.55569 -3.28654 0
M  V30 3658 H 337.3 -7.61262 -3.00702 0
M  V30 3659 N 339.963 1.05934 -1.16686 0
M  V30 3660 C 341.209 1.79065 -0.95203 0
M  V30 3661 C 341.542 1.87147 0.518629 0
M  V30 3662 O 340.817 1.36574 1.38484 0
M  V30 3663 C 341.1 3.23359 -1.58464 0
M  V30 3664 C 340.953 3.23336 -3.12689 0
M  V30 3665 C 342.272 4.21004 -1.28232 0
M  V30 3666 H 339.391 0.65005 -0.34728 0
M  V30 3667 H 342.033 1.23868 -1.44072 0
M  V30 3668 H 340.183 3.70493 -1.16908 0
M  V30 3669 H 341.855 2.84336 -3.6325 0
M  V30 3670 H 340.098 2.61886 -3.4583 0
M  V30 3671 H 340.769 4.25144 -3.52075 0
M  V30 3672 H 343.245 3.8233 -1.64203 0
M  V30 3673 H 342.121 5.20225 -1.75092 0
M  V30 3674 H 342.382 4.41639 -0.201791 0
M  V30 3675 N 341.441 0.965919 1.2453 0
M  V30 3676 C 342.687 0.62776 1.92839 0
M  V30 3677 C 343.02 -0.834694 1.75347 0
M  V30 3678 O 342.295 -1.60031 1.10546 0
M  V30 3679 C 342.578 1.00109 3.45905 0
M  V30 3680 C 342.431 2.52011 3.72573 0
M  V30 3681 C 343.75 0.53435 4.36844 0
M  V30 3682 H 340.869 0.229537 0.700344 0
M  V30 3683 H 343.511 1.2046 1.46933 0
M  V30 3684 H 341.661 0.510238 3.85135 0
M  V30 3685 H 343.333 3.08559 3.42912 0
M  V30 3686 H 341.576 2.95287 3.17786 0
M  V30 3687 H 342.247 2.73183 4.79661 0
M  V30 3688 H 344.723 0.955565 4.04979 0
M  V30 3689 H 343.599 0.824152 5.42678 0
M  V30 3690 H 343.86 -0.565589 4.38467 0
M  V30 3691 N 342.919 -1.39368 0.735821 0
M  V30 3692 C 344.147 -2.04795 0.294393 0
M  V30 3693 C 344.562 -1.55478 -1.07107 0
M  V30 3694 O 343.919 -0.720038 -1.67695 0
M  V30 3695 C 343.97 -3.6035 0.288071 0
M  V30 3696 O 343.691 -4.07852 1.59963 0
M  V30 3697 C 345.192 -4.42976 -0.169422 0
M  V30 3698 H 342.412 -0.658571 0.128551 0
M  V30 3699 H 344.956 -1.78399 0.999701 0
M  V30 3700 H 343.111 -3.85645 -0.368355 0
M  V30 3701 H 343.525 -5.02181 1.51375 0
M  V30 3702 H 344.999 -5.51864 -0.122687 0
M  V30 3703 H 345.476 -4.22068 -1.21472 0
M  V30 3704 H 346.082 -4.22832 0.457469 0
M  V30 3705 N 344.397 -0.483516 -1.5 0
M  V30 3706 C 345.674 0.129337 -1.95172 0
M  V30 3707 C 346.054 1.55802 -1.4244 0
M  V30 3708 O 345.402 2.19625 -0.630649 0
M  V30 3709 C 345.612 0.0599251 -3.48949 0
M  V30 3710 C 346.96 0.242617 -4.23906 0
M  V30 3711 O 347.984 0.135933 -3.55941 0
M  V30 3712 O 346.843 0.459454 -5.44565 0
M  V30 3713 H 343.937 0.104887 -0.820322 0
M  V30 3714 H 346.483 -0.544807 -1.60717 0
M  V30 3715 H 345.255 -0.937079 -3.79914 0
M  V30 3716 H 344.878 0.774984 -3.89974 0
M  V30 3717 N 345.875 1.56104 -0.216619 0
M  V30 3718 C 346.807 2.17339 0.72776 0
M  V30 3719 C 347.82 1.14109 1.16116 0
M  V30 3720 O 349.009 1.4111 1.09317 0
M  V30 3721 C 346.109 2.73818 1.99693 0
M  V30 3722 C 345.282 4.02168 1.71988 0
M  V30 3723 C 344.341 4.43259 2.83562 0
M  V30 3724 O 343.367 5.10257 2.52244 0
M  V30 3725 N 344.569 4.08535 4.12407 0
M  V30 3726 H 347.334 2.99005 0.203983 0
M  V30 3727 H 344.895 1.61861 -0.0354289 0
M  V30 3728 H 346.887 2.9828 2.73516 0
M  V30 3729 H 345.457 1.96483 2.43132 0
M  V30 3730 H 344.677 3.85612 0.818337 0
M  V30 3731 H 345.965 4.85907 1.50903 0
M  V30 3732 H 345.363 3.54687 4.40696 0
M  V30 3733 H 343.92 4.37901 4.8279 0
M  V30 3734 N 347.353 -0.0568162 1.57498 0
M  V30 3735 C 348.602 -0.752001 1.87157 0
M  V30 3736 C 348.915 -1.77978 0.811375 0
M  V30 3737 O 350.121 -2.52559 0.996293 0
M  V30 3738 C 348.577 -1.38844 3.3204 0
M  V30 3739 C 348.185 -0.398456 4.46225 0
M  V30 3740 C 349.929 -2.06512 3.70882 0
M  V30 3741 C 347.836 -1.04166 5.82154 0
M  V30 3742 H 346.766 -0.28461 0.698222 0
M  V30 3743 H 349.417 -0.00561272 1.83499 0
M  V30 3744 H 347.799 -2.1836 3.30356 0
M  V30 3745 H 348.973 0.367977 4.59328 0
M  V30 3746 H 347.288 0.174592 4.16034 0
M  V30 3747 H 349.885 -2.55437 4.6974 0
M  V30 3748 H 350.228 -2.87117 3.01445 0
M  V30 3749 H 350.761 -1.33808 3.7462 0
M  V30 3750 H 347.5 -0.275614 6.5492 0
M  V30 3751 H 347.02 -1.7786 5.72823 0
M  V30 3752 H 348.699 -1.55715 6.27982 0
M  V30 3753 N 348.832 -1.54138 -0.328536 0
M  V30 3754 C 350.243 -1.63395 -0.903272 0
M  V30 3755 C 350.594 -0.524828 -1.8905 0
M  V30 3756 O 349.719 0.343068 -2.13663 0
M  V30 3757 C 350.314 -2.9618 -1.64507 0
M  V30 3758 C 348.873 -3.0765 -2.1686 0
M  V30 3759 C 348.02 -2.58933 -0.992416 0
M  V30 3760 H 350.971 -1.58344 -0.106253 0
M  V30 3761 H 350.992 -2.86061 -2.50897 0
M  V30 3762 H 350.504 -3.76884 -0.926302 0
M  V30 3763 H 348.605 -2.31611 -2.91868 0
M  V30 3764 H 348.718 -4.1337 -2.42202 0
M  V30 3765 H 347.082 -2.14706 -1.37016 0
M  V30 3766 H 347.865 -3.42089 -0.288041 0
M  V30 3767 N 350.31 0.590341 -1.46126 0
M  V30 3768 C 351.556 1.35082 -1.51264 0
M  V30 3769 C 351.889 1.93534 -0.160711 0
M  V30 3770 O 351.164 1.76045 0.826956 0
M  V30 3771 C 351.447 2.48588 -2.6053 0
M  V30 3772 C 351.3 1.95221 -4.05227 0
M  V30 3773 C 352.619 3.50662 -2.6594 0
M  V30 3774 H 349.738 0.489803 -0.550692 0
M  V30 3775 H 352.38 0.663887 -1.78024 0
M  V30 3776 H 350.53 3.07186 -2.37843 0
M  V30 3777 H 352.202 1.41139 -4.39178 0
M  V30 3778 H 350.445 1.26101 -4.15068 0
M  V30 3779 H 351.116 2.77121 -4.77397 0
M  V30 3780 H 353.592 3.01934 -2.86313 0
M  V30 3781 H 352.468 4.27551 -3.44226 0
M  V30 3782 H 352.729 4.07399 -1.71694 0
M  V30 3783 N 351.788 1.33704 0.83433 0
M  V30 3784 C 353.035 1.25417 1.58987 0
M  V30 3785 C 353.363 -0.178869 1.93676 0
M  V30 3786 O 352.618 -1.13723 1.59265 0
M  V30 3787 C 352.917 2.07926 2.90692 0
M  V30 3788 C 352.583 3.57066 2.75345 0
M  V30 3789 C 351.245 3.97724 2.70867 0
M  V30 3790 C 353.597 4.51817 2.59828 0
M  V30 3791 C 350.925 5.31344 2.48778 0
M  V30 3792 C 353.277 5.85604 2.39272 0
M  V30 3793 C 351.941 6.25439 2.33199 0
M  V30 3794 H 351.211 0.458934 0.581774 0
M  V30 3795 H 353.858 1.65335 0.966261 0
M  V30 3796 H 352.163 1.608 3.57282 0
M  V30 3797 H 353.86 1.98868 3.48213 0
M  V30 3798 H 350.45 3.24785 2.79665 0
M  V30 3799 H 354.634 4.21311 2.62319 0
M  V30 3800 H 349.89 5.61241 2.42526 0
M  V30 3801 H 354.064 6.58623 2.2625 0
M  V30 3802 H 351.691 7.28914 2.15843 0
M  V30 3803 N 353.266 -1.05314 1.17247 0
M  V30 3804 C 354.512 -1.78557 0.961513 0
M  V30 3805 C 354.845 -1.87419 -0.508697 0
M  V30 3806 O 354.12 -1.37307 -1.37757 0
M  V30 3807 C 354.403 -3.22514 1.60176 0
M  V30 3808 C 354.256 -3.21673 3.14399 0
M  V30 3809 C 355.575 -4.20318 1.30463 0
M  V30 3810 H 352.694 -0.6482 0.350723 0
M  V30 3811 H 355.336 -1.23102 1.44727 0
M  V30 3812 H 353.486 -3.69867 1.18871 0
M  V30 3813 H 355.158 -2.82405 3.64753 0
M  V30 3814 H 353.401 -2.60048 3.47214 0
M  V30 3815 H 354.072 -4.23271 3.54324 0
M  V30 3816 H 356.548 -3.81454 1.66229 0
M  V30 3817 H 355.424 -5.19289 1.77848 0
M  V30 3818 H 355.685 -4.41526 0.22521 0
M  V30 3819 N 354.744 -0.972509 -1.24016 0
M  V30 3820 C 355.972 -0.654803 -1.96265 0
M  V30 3821 C 356.387 0.776708 -1.72083 0
M  V30 3822 O 355.744 1.52171 -1.00748 0
M  V30 3823 C 355.795 -0.92592 -3.49441 0
M  V30 3824 O 355.516 -2.30116 -3.72798 0
M  V30 3825 C 357.017 -0.623068 -4.38899 0
M  V30 3826 H 354.237 -0.243907 -0.6251 0
M  V30 3827 H 356.781 -1.30175 -1.57717 0
M  V30 3828 H 354.936 -0.325108 -3.86033 0
M  V30 3829 H 355.35 -2.38483 -4.67147 0
M  V30 3830 H 356.824 -0.863189 -5.45209 0
M  V30 3831 H 357.301 0.442754 -4.36963 0
M  V30 3832 H 357.907 -1.204 -4.07902 0
M  V30 3833 N 356.222 1.38976 -0.743202 0
M  V30 3834 C 357.155 2.28128 -0.0572165 0
M  V30 3835 C 358.133 1.44827 0.739182 0
M  V30 3836 O 359.317 1.74207 0.720009 0
M  V30 3837 C 356.444 3.25796 0.926001 0
M  V30 3838 C 355.49 4.25947 0.217099 0
M  V30 3839 S 356.323 5.24604 -1.07477 0
M  V30 3840 C 357.479 6.25829 -0.0943545 0
M  V30 3841 H 357.712 2.85961 -0.813246 0
M  V30 3842 H 355.245 1.44822 -0.535341 0
M  V30 3843 H 357.203 3.82583 1.48797 0
M  V30 3844 H 355.864 2.66966 1.65493 0
M  V30 3845 H 355.057 4.94746 0.961372 0
M  V30 3846 H 354.659 3.73002 -0.273059 0
M  V30 3847 H 356.951 6.73411 0.743239 0
M  V30 3848 H 357.894 7.0412 -0.749713 0
M  V30 3849 H 358.302 5.63797 0.281706 0
M  V30 3850 N 357.7 0.491464 1.49741 0
M  V30 3851 C 358.947 -0.0564256 2.02421 0
M  V30 3852 C 359.275 -1.37872 1.37192 0
M  V30 3853 O 358.53 -1.89375 0.493508 0
M  V30 3854 C 358.829 -0.267329 3.56399 0
M  V30 3855 C 358.495 0.975775 4.40215 0
M  V30 3856 C 357.157 1.31655 4.62839 0
M  V30 3857 C 359.509 1.80251 4.89039 0
M  V30 3858 C 356.837 2.48375 5.31532 0
M  V30 3859 C 359.189 2.96116 5.59015 0
M  V30 3860 C 357.853 3.30585 5.79888 0
M  V30 3861 H 357.123 -0.0206476 0.740712 0
M  V30 3862 H 359.77 0.649686 1.80143 0
M  V30 3863 H 358.075 -1.05588 3.77304 0
M  V30 3864 H 359.772 -0.705549 3.94744 0
M  V30 3865 H 356.362 0.700315 4.2284 0
M  V30 3866 H 360.546 1.55239 4.71396 0
M  V30 3867 H 355.802 2.7533 5.45897 0
M  V30 3868 H 359.976 3.60509 5.95824 0
M  V30 3869 H 357.603 4.21132 6.32892 0
M  V30 3870 N 359.178 -1.55987 0.224894 0
M  V30 3871 C 360.11 -2.17722 -0.716224 0
M  V30 3872 C 361.123 -1.14723 -1.15509 0
M  V30 3873 O 362.312 -1.41688 -1.08567 0
M  V30 3874 C 359.412 -2.74873 -1.98238 0
M  V30 3875 C 358.585 -4.03074 -1.69853 0
M  V30 3876 C 357.644 -4.44757 -2.81208 0
M  V30 3877 O 356.67 -5.11587 -2.49534 0
M  V30 3878 N 357.872 -4.10716 -4.10235 0
M  V30 3879 H 360.637 -2.99109 -0.188123 0
M  V30 3880 H 358.198 -1.6184 0.0440123 0
M  V30 3881 H 360.19 -2.99727 -2.7193 0
M  V30 3882 H 358.76 -1.9777 -2.42086 0
M  V30 3883 H 357.98 -3.86041 -0.797875 0
M  V30 3884 H 359.268 -4.86701 -1.48324 0
M  V30 3885 H 358.666 -3.57019 -4.38809 0
M  V30 3886 H 357.223 -4.40455 -4.80461 0
M  V30 3887 N 360.656 0.0484629 -1.57525 0
M  V30 3888 C 361.603 1.05504 -2.05275 0
M  V30 3889 C 362.573 1.37084 -0.937927 0
M  V30 3890 O 363.758 1.47754 -1.2072 0
M  V30 3891 C 360.898 2.35676 -2.52093 0
M  V30 3892 C 360.011 2.10423 -3.77288 0
M  V30 3893 C 359.146 3.34327 -4.12794 0
M  V30 3894 C 358.185 3.04542 -5.30962 0
M  V30 3895 N 357.322 4.20841 -5.61994 0
M  V30 3896 H 362.162 0.640885 -2.91027 0
M  V30 3897 H 359.699 0.304854 -1.43906 0
M  V30 3898 H 361.657 3.11709 -2.77297 0
M  V30 3899 H 360.287 2.7485 -1.69285 0
M  V30 3900 H 359.339 1.24976 -3.59284 0
M  V30 3901 H 360.651 1.84438 -4.63448 0
M  V30 3902 H 359.805 4.1874 -4.39024 0
M  V30 3903 H 358.544 3.63408 -3.25247 0
M  V30 3904 H 357.549 2.18528 -5.04505 0
M  V30 3905 H 358.774 2.76758 -6.20146 0
M  V30 3906 H 356.72 4.4991 -4.77406 0
M  V30 3907 H 356.637 3.98212 -6.42622 0
M  V30 3908 H 357.905 5.06184 -5.92789 0
M  V30 3909 N 362.134 1.5431 0.320358 0
M  V30 3910 C 363.082 1.84647 1.4145 0
M  V30 3911 C 364.076 0.718624 1.53402 0
M  V30 3912 O 365.282 0.902335 1.5575 0
M  V30 3913 H 361.657 0.585349 0.472091 0
M  V30 3914 H 363.628 2.7614 1.13089 0
M  V30 3915 C 362.377 2.09341 2.77617 0
M  V30 3916 H 361.7 2.9559 2.69196 0
M  V30 3917 H 363.14 2.3452 3.53237 0
M  V30 3918 C 361.599 0.885939 3.25043 0
M  V30 3919 O 362.129 0.0967891 4.01583 0
M  V30 3920 N 360.335 0.696682 2.82125 0
M  V30 3921 H 359.882 1.34006 2.2 0
M  V30 3922 H 359.84 -0.109712 3.14209 0
M  V30 3923 N 363.613 -0.582584 1.46437 0
M  V30 3924 C 364.89 -1.34276 1.4223 0
M  V30 3925 C 365.27 -2.10835 0.10583 0
M  V30 3926 O 364.618 -2.09485 -0.912596 0
M  V30 3927 C 364.828 -2.26865 2.65204 0
M  V30 3928 C 366.176 -2.88691 3.11356 0
M  V30 3929 O 367.2 -2.37178 2.65753 0
M  V30 3930 O 366.059 -3.82255 3.90568 0
M  V30 3931 H 363.153 -0.603326 0.565621 0
M  V30 3932 H 365.699 -0.603591 1.58603 0
M  V30 3933 H 364.471 -1.69724 3.52576 0
M  V30 3934 H 364.094 -3.08122 2.5129 0
M  V30 3935 N 365.091 -1.34144 -0.827227 0
M  V30 3936 C 366.507 -1.13732 -1.11969 0
M  V30 3937 C 366.707 0.0640463 -2.01398 0
M  V30 3938 O 365.763 0.740856 -2.41387 0
M  V30 3939 C 367.076 -2.43047 -1.77055 0
M  V30 3940 C 368.624 -2.49063 -1.89569 0
M  V30 3941 C 369.099 -3.78369 -2.58072 0
M  V30 3942 N 370.59 -3.79505 -2.65575 0
M  V30 3943 C 371.325 -4.76274 -3.19297 0
M  V30 3944 N 370.821 -5.83424 -3.73616 0
M  V30 3945 N 372.614 -4.63735 -3.17658 0
M  V30 3946 H 364.765 -2.11126 -0.232296 0
M  V30 3947 H 367.028 -0.933424 -0.165602 0
M  V30 3948 H 366.734 -3.31025 -1.18807 0
M  V30 3949 H 366.608 -2.56066 -2.76966 0
M  V30 3950 H 368.995 -1.61527 -2.46968 0
M  V30 3951 H 369.076 -2.39975 -0.885745 0
M  V30 3952 H 368.72 -4.66293 -2.01329 0
M  V30 3953 H 368.65 -3.84737 -3.59562 0
M  V30 3954 H 371.141 -3.02074 -2.27068 0
M  V30 3955 H 371.454 -6.53282 -4.12846 0
M  V30 3956 H 369.799 -5.87143 -3.71871 0
M  V30 3957 H 372.99 -3.79177 -2.74486 0
M  V30 3958 H 373.163 -5.39318 -3.59221 0
M  V30 3959 N 366.569 1.04691 -1.17803 0
M  V30 3960 C 367.517 2.14665 -0.895635 0
M  V30 3961 C 368.511 1.68806 0.141679 0
M  V30 3962 O 369.717 1.79999 -0.00587914 0
M  V30 3963 H 366.092 0.701038 -0.272121 0
M  V30 3964 H 368.063 2.35685 -1.83017 0
M  V30 3965 C 366.812 3.45019 -0.430962 0
M  V30 3966 H 366.135 3.8071 -1.22064 0
M  V30 3967 H 367.575 4.23125 -0.272301 0
M  V30 3968 C 366.034 3.25943 0.852207 0
M  V30 3969 O 366.564 3.5296 1.91786 0
M  V30 3970 N 364.77 2.79304 0.802346 0
M  V30 3971 H 364.317 2.57518 -0.0650788 0
M  V30 3972 H 364.275 2.66921 1.66134 0
M  V30 3973 N 368.047 0.979072 1.23499 0
M  V30 3974 C 369.272 0.664845 1.96455 0
M  V30 3975 C 369.697 -0.761287 1.72006 0
M  V30 3976 O 369.055 -1.51837 0.990713 0
M  V30 3977 C 369.103 0.959479 3.47601 0
M  V30 3978 O 368.207 0.0508168 4.12369 0
M  V30 3979 H 367.548 0.250185 0.615064 0
M  V30 3980 H 370.078 1.31231 1.5697 0
M  V30 3981 H 370.088 0.895642 3.98048 0
M  V30 3982 H 368.763 1.99876 3.64723 0
M  V30 3983 H 367.34 0.16895 3.72517 0
M  V30 3984 N 369.525 -1.3858 0.750561 0
M  V30 3985 C 370.75 -2.04997 0.314812 0
M  V30 3986 C 371.175 -1.56235 -1.04749 0
M  V30 3987 O 370.533 -0.712981 -1.66692 0
M  V30 3988 C 370.581 -3.58961 0.343415 0
M  V30 3989 O 369.685 -4.07025 -0.663628 0
M  V30 3990 H 369.026 -0.649081 0.139962 0
M  V30 3991 H 371.556 -1.77313 1.02084 0
M  V30 3992 H 371.566 -4.07542 0.193233 0
M  V30 3993 H 370.241 -3.93811 1.33738 0
M  V30 3994 H 368.818 -3.6982 -0.478307 0
M  V30 3995 N 371.003 -0.499398 -1.49478 0
M  V30 3996 C 372.28 0.108629 -1.95298 0
M  V30 3997 C 372.66 1.54282 -1.44084 0
M  V30 3998 O 372.008 2.18944 -0.653908 0
M  V30 3999 C 372.218 0.0229111 -3.48992 0
M  V30 4000 C 373.566 0.197643 -4.2414 0
M  V30 4001 O 374.59 0.0981735 -3.56065 0
M  V30 4002 O 373.449 0.401669 -5.45022 0
M  V30 4003 H 370.543 0.096181 -0.821388 0
M  V30 4004 H 373.089 -0.561822 -1.6013 0
M  V30 4005 H 371.861 -0.977321 -3.78899 0
M  V30 4006 H 371.484 0.733579 -3.90774 0
M  V30 4007 N 372.481 1.55866 -0.233164 0
M  V30 4008 C 373.391 2.24431 0.683217 0
M  V30 4009 C 374.407 1.2558 1.2044 0
M  V30 4010 O 375.583 1.58422 1.24356 0
M  V30 4011 C 372.648 2.91979 1.86947 0
M  V30 4012 C 371.709 4.06204 1.38912 0
M  V30 4013 C 370.942 4.70522 2.51883 0
M  V30 4014 O 371.165 4.33865 3.70293 0
M  V30 4015 O 370.099 5.59296 2.22423 0
M  V30 4016 H 373.925 3.03426 0.129059 0
M  V30 4017 H 371.51 1.494 -0.0022283 0
M  V30 4018 H 373.392 3.34573 2.56201 0
M  V30 4019 H 372.067 2.15935 2.41151 0
M  V30 4020 H 370.974 3.68155 0.664259 0
M  V30 4021 H 372.307 4.84025 0.893328 0
M  V30 4022 N 373.959 -0.0401083 1.57549 0
M  V30 4023 C 375.187 -0.745196 1.93014 0
M  V30 4024 C 375.602 -1.6948 0.831984 0
M  V30 4025 O 374.959 -1.81482 -0.192463 0
M  V30 4026 C 375.01 -1.51176 3.28372 0
M  V30 4027 O 374.731 -0.600284 4.33968 0
M  V30 4028 C 376.232 -2.315 3.78051 0
M  V30 4029 H 373.452 -0.210088 0.637263 0
M  V30 4030 H 375.996 -0.000924689 2.045 0
M  V30 4031 H 374.151 -2.20801 3.18317 0
M  V30 4032 H 374.565 -1.13669 5.12035 0
M  V30 4033 H 376.039 -2.80697 4.75303 0
M  V30 4034 H 376.516 -3.12436 3.08675 0
M  V30 4035 H 377.122 -1.66971 3.91153 0
M  V30 4036 N 375.437 -1.54477 -0.31217 0
M  V30 4037 C 376.684 -1.73227 -1.04875 0
M  V30 4038 C 377.012 -0.512042 -1.87639 0
M  V30 4039 O 376.267 0.506131 -1.89042 0
M  V30 4040 C 376.566 -2.967 -1.99258 0
M  V30 4041 C 376.232 -4.30974 -1.32559 0
M  V30 4042 C 374.894 -4.67477 -1.141 0
M  V30 4043 C 377.246 -5.14258 -0.847835 0
M  V30 4044 C 374.574 -5.84852 -0.465326 0
M  V30 4045 C 376.926 -6.32327 -0.185931 0
M  V30 4046 C 375.59 -6.67499 0.0107077 0
M  V30 4047 H 374.86 -0.633881 -0.383765 0
M  V30 4048 H 377.507 -1.88727 -0.324731 0
M  V30 4049 H 375.812 -2.75935 -2.7815 0
M  V30 4050 H 377.509 -3.08401 -2.563 0
M  V30 4051 H 374.099 -4.02262 -1.4793 0
M  V30 4052 H 378.283 -4.86565 -0.978192 0
M  V30 4053 H 373.539 -6.10654 -0.301883 0
M  V30 4054 H 377.713 -6.96135 0.192211 0
M  V30 4055 H 375.34 -7.58306 0.536287 0
M  V30 4056 N 376.915 0.57481 -1.46744 0
M  V30 4057 C 377.845 1.69337 -1.60771 0
M  V30 4058 C 378.826 1.63825 -0.457736 0
M  V30 4059 O 380.011 1.8172 -0.684947 0
M  V30 4060 C 377.141 3.0798 -1.60517 0
M  V30 4061 C 376.095 3.28327 -2.74564 0
M  V30 4062 C 375.421 4.67578 -2.59373 0
M  V30 4063 C 376.721 3.15398 -4.16319 0
M  V30 4064 H 378.415 1.57853 -2.54407 0
M  V30 4065 H 375.961 0.75799 -1.22436 0
M  V30 4066 H 377.914 3.86061 -1.68923 0
M  V30 4067 H 376.638 3.20381 -0.634305 0
M  V30 4068 H 375.297 2.52649 -2.65639 0
M  V30 4069 H 374.945 4.76755 -1.60353 0
M  V30 4070 H 374.645 4.82144 -3.35873 0
M  V30 4071 H 376.169 5.47817 -2.69682 0
M  V30 4072 H 377.583 3.83315 -4.26313 0
M  V30 4073 H 375.98 3.41482 -4.93468 0
M  V30 4074 H 377.05 2.12372 -4.3592 0
M  V30 4075 N 378.394 1.34581 0.820102 0
M  V30 4076 C 379.341 1.2639 1.93117 0
M  V30 4077 C 380.311 0.138554 1.65521 0
M  V30 4078 O 381.496 0.320004 1.88097 0
M  V30 4079 C 378.636 1.02812 3.29429 0
M  V30 4080 C 377.749 2.24146 3.693 0
M  V30 4081 C 376.884 1.93829 4.94574 0
M  V30 4082 C 375.923 3.1129 5.27034 0
M  V30 4083 N 375.06 2.80838 6.43486 0
M  V30 4084 H 379.9 2.21408 1.99455 0
M  V30 4085 H 377.437 1.10077 0.975784 0
M  V30 4086 H 379.395 0.871788 4.0799 0
M  V30 4087 H 378.025 0.114612 3.22596 0
M  V30 4088 H 377.077 2.50691 2.86109 0
M  V30 4089 H 378.389 3.11899 3.89257 0
M  V30 4090 H 377.543 1.74948 5.80929 0
M  V30 4091 H 376.282 1.03341 4.76626 0
M  V30 4092 H 375.287 3.30764 4.39175 0
M  V30 4093 H 376.512 4.02561 5.4692 0
M  V30 4094 H 374.458 1.92929 6.26988 0
M  V30 4095 H 374.375 3.62123 6.63629 0
M  V30 4096 H 375.643 2.65467 7.32903 0
M  V30 4097 N 379.872 -1.04064 1.18357 0
M  V30 4098 C 381.149 -1.74252 0.888581 0
M  V30 4099 C 381.529 -2.02138 -0.60856 0
M  V30 4100 O 380.877 -1.66656 -1.56327 0
M  V30 4101 C 381.087 -3.0277 1.73584 0
M  V30 4102 C 382.435 -3.76506 1.96286 0
M  V30 4103 O 383.459 -3.12668 1.70637 0
M  V30 4104 O 382.318 -4.91243 2.39464 0
M  V30 4105 H 379.412 -0.758271 0.330082 0
M  V30 4106 H 381.958 -1.1013 1.2911 0
M  V30 4107 H 380.73 -2.78299 2.75073 0
M  V30 4108 H 380.353 -3.74631 1.33183 0
M  V30 4109 N 381.35 -0.985608 -1.22978 0
M  V30 4110 C 382.28 -0.549649 -2.26939 0
M  V30 4111 C 383.261 0.419803 -1.64838 0
M  V30 4112 O 384.446 0.31203 -1.91677 0
M  V30 4113 C 381.576 0.143652 -3.47003 0
M  V30 4114 C 380.53 -0.743606 -4.21491 0
M  V30 4115 C 379.856 0.0822027 -5.34637 0
M  V30 4116 C 381.156 -2.03694 -4.80943 0
M  V30 4117 H 382.85 -1.41862 -2.63658 0
M  V30 4118 H 380.396 -0.683571 -1.26741 0
M  V30 4119 H 382.349 0.459985 -4.18882 0
M  V30 4120 H 381.073 1.04711 -3.09359 0
M  V30 4121 H 379.732 -1.04347 -3.51436 0
M  V30 4122 H 379.38 0.986359 -4.93234 0
M  V30 4123 H 379.08 -0.508377 -5.85397 0
M  V30 4124 H 380.604 0.392797 -6.09335 0
M  V30 4125 H 382.018 -1.78504 -5.44802 0
M  V30 4126 H 380.415 -2.57573 -5.42011 0
M  V30 4127 H 381.485 -2.72042 -4.01399 0
M  V30 4128 N 382.828 1.3818 -0.7579 0
M  V30 4129 C 384.239 1.82726 -0.383134 0
M  V30 4130 C 384.59 1.63214 1.08884 0
M  V30 4131 O 383.715 1.13566 1.84205 0
M  V30 4132 C 384.31 3.31728 -0.688631 0
M  V30 4133 C 382.869 3.74606 -0.367091 0
M  V30 4134 C 382.016 2.60896 -0.939599 0
M  V30 4135 H 384.967 1.26847 -0.953699 0
M  V30 4136 H 384.988 3.80487 0.0316492 0
M  V30 4137 H 384.5 3.45898 -1.76001 0
M  V30 4138 H 382.601 3.66013 0.697532 0
M  V30 4139 H 382.714 4.71215 -0.865658 0
M  V30 4140 H 381.078 2.52075 -0.3647 0
M  V30 4141 H 381.861 2.77864 -2.0161 0
M  V30 4142 N 384.306 0.507319 1.49211 0
M  V30 4143 C 385.555 -0.0368315 2.01666 0
M  V30 4144 C 385.868 -1.37459 1.39156 0
M  V30 4145 O 387.074 -2.00579 1.82976 0
M  V30 4146 C 385.53 -0.116089 3.59713 0
M  V30 4147 C 385.138 1.2154 4.31198 0
M  V30 4148 C 386.882 -0.610268 4.2009 0
M  V30 4149 C 384.789 1.09796 5.81119 0
M  V30 4150 H 383.719 -0.0175376 0.753796 0
M  V30 4151 H 386.37 0.647691 1.71689 0
M  V30 4152 H 384.752 -0.8652 3.86433 0
M  V30 4153 H 385.926 1.9783 4.16173 0
M  V30 4154 H 384.241 1.64352 3.82593 0
M  V30 4155 H 386.838 -0.715742 5.29888 0
M  V30 4156 H 387.181 -1.61064 3.8388 0
M  V30 4157 H 387.714 0.0824916 3.97714 0
M  V30 4158 H 384.453 2.0728 6.21864 0
M  V30 4159 H 383.973 0.376058 5.9862 0
M  V30 4160 H 385.652 0.779281 6.4229 0
M  V30 4161 N 385.784 -1.5574 0.241426 0
M  V30 4162 C 386.717 -2.17168 -0.700935 0
M  V30 4163 C 387.695 -1.12206 -1.1768 0
M  V30 4164 O 388.879 -1.40565 -1.25593 0
M  V30 4165 C 386.006 -2.76796 -1.95196 0
M  V30 4166 C 385.052 -3.94764 -1.61442 0
M  V30 4167 S 385.885 -5.30613 -0.72182 0
M  V30 4168 C 387.041 -5.93691 -1.98197 0
M  V30 4169 H 387.274 -2.96761 -0.178882 0
M  V30 4170 H 384.807 -1.54378 0.0259299 0
M  V30 4171 H 386.765 -3.11787 -2.67019 0
M  V30 4172 H 385.426 -1.9716 -2.44514 0
M  V30 4173 H 384.619 -4.35057 -2.54443 0
M  V30 4174 H 384.221 -3.61022 -0.976672 0
M  V30 4175 H 386.513 -6.10874 -2.92983 0
M  V30 4176 H 387.456 -6.89258 -1.62262 0
M  V30 4177 H 387.864 -5.22709 -2.13156 0
M  V30 4178 N 387.262 0.0317525 -1.57568 0
M  V30 4179 C 388.509 0.723104 -1.89149 0
M  V30 4180 C 388.837 1.75504 -0.838377 0
M  V30 4181 O 388.092 1.95037 0.160982 0
M  V30 4182 C 388.391 1.43167 -3.27472 0
M  V30 4183 C 388.057 0.535972 -4.47703 0
M  V30 4184 C 386.719 0.289262 -4.8033 0
M  V30 4185 C 389.071 -0.0826125 -5.21135 0
M  V30 4186 C 386.399 -0.584853 -5.83778 0
M  V30 4187 C 388.751 -0.944414 -6.25511 0
M  V30 4188 C 387.415 -1.20061 -6.56614 0
M  V30 4189 H 386.685 0.264602 -0.692146 0
M  V30 4190 H 389.332 -0.0169496 -1.91492 0
M  V30 4191 H 387.637 2.24497 -3.21105 0
M  V30 4192 H 389.334 1.97209 -3.49155 0
M  V30 4193 H 385.924 0.738414 -4.22191 0
M  V30 4194 H 390.108 0.0950302 -4.96209 0
M  V30 4195 H 385.364 -0.79168 -6.06253 0
M  V30 4196 H 389.538 -1.43026 -6.81554 0
M  V30 4197 H 387.165 -1.87967 -7.36595 0
M  V30 4198 N 388.74 1.54641 0.303973 0
M  V30 4199 C 390.017 1.64455 1.05896 0
M  V30 4200 C 390.397 0.490923 2.05312 0
M  V30 4201 O 389.745 -0.512685 2.22674 0
M  V30 4202 C 389.955 3.02331 1.74347 0
M  V30 4203 C 391.303 3.59045 2.26653 0
M  V30 4204 O 392.327 3.04764 1.84384 0
M  V30 4205 O 391.186 4.54081 3.04093 0
M  V30 4206 H 388.28 0.666729 0.489287 0
M  V30 4207 H 390.826 1.66986 0.302298 0
M  V30 4208 H 389.598 3.77734 1.02142 0
M  V30 4209 H 389.221 3.03565 2.56777 0
M  V30 4210 N 390.218 -0.567019 1.47046 0
M  V30 4211 C 391.464 -1.32658 1.53394 0
M  V30 4212 C 391.797 -1.93254 0.19148 0
M  V30 4213 O 391.072 -1.77338 -0.798844 0
M  V30 4214 C 391.355 -2.44412 2.64452 0
M  V30 4215 C 391.208 -1.88749 4.08282 0
M  V30 4216 C 392.527 -3.46387 2.71485 0
M  V30 4217 H 389.646 -0.48098 0.558415 0
M  V30 4218 H 392.288 -0.635481 1.79058 0
M  V30 4219 H 390.438 -3.03363 2.427 0
M  V30 4220 H 392.11 -1.34134 4.41368 0
M  V30 4221 H 390.353 -1.19481 4.17021 0
M  V30 4222 H 391.024 -2.69491 4.81745 0
M  V30 4223 H 393.5 -2.9734 2.91081 0
M  V30 4224 H 392.376 -4.2202 3.50985 0
M  V30 4225 H 392.637 -4.04616 1.78153 0
M  V30 4226 N 391.696 -1.35014 -0.812953 0
M  V30 4227 C 392.626 -1.30069 -1.93919 0
M  V30 4228 C 393.607 -0.176275 -1.69184 0
M  V30 4229 O 394.792 -0.370227 -1.90638 0
M  V30 4230 C 391.922 -1.06547 -3.30552 0
M  V30 4231 C 390.876 -2.15561 -3.69753 0
M  V30 4232 C 390.202 -1.77214 -5.04479 0
M  V30 4233 C 391.502 -3.57476 -3.808 0
M  V30 4234 H 393.196 -2.24303 -1.98314 0
M  V30 4235 H 390.742 -1.07977 -0.952736 0
M  V30 4236 H 392.695 -1.01729 -4.08937 0
M  V30 4237 H 391.419 -0.0875719 -3.26483 0
M  V30 4238 H 390.078 -2.19466 -2.9365 0
M  V30 4239 H 389.726 -0.780589 -4.96906 0
M  V30 4240 H 389.426 -2.50184 -5.31678 0
M  V30 4241 H 390.95 -1.7391 -5.8531 0
M  V30 4242 H 392.364 -3.55929 -4.4943 0
M  V30 4243 H 390.761 -4.29152 -4.19462 0
M  V30 4244 H 391.831 -3.94091 -2.82525 0
M  V30 4245 N 393.175 1.03435 -1.18907 0
M  V30 4246 C 394.424 1.76143 -0.982669 0
M  V30 4247 C 394.737 1.89416 0.487953 0
M  V30 4248 O 395.943 2.59041 0.813036 0
M  V30 4249 C 394.399 3.16722 -1.70924 0
M  V30 4250 C 394.007 3.11522 -3.21959 0
M  V30 4251 C 395.751 3.93764 -1.58588 0
M  V30 4252 C 393.658 4.46999 -3.87228 0
M  V30 4253 H 392.588 0.660292 -0.364047 0
M  V30 4254 H 395.239 1.158 -1.42347 0
M  V30 4255 H 393.621 3.775 -1.19623 0
M  V30 4256 H 394.795 2.60158 -3.80335 0
M  V30 4257 H 393.11 2.47978 -3.34508 0
M  V30 4258 H 395.707 4.93963 -2.04707 0
M  V30 4259 H 396.05 4.12794 -0.539142 0
M  V30 4260 H 396.583 3.39576 -2.07203 0
M  V30 4261 H 393.322 4.33174 -4.91976 0
M  V30 4262 H 392.842 4.98441 -3.33642 0
M  V30 4263 H 394.521 5.15898 -3.90459 0
M  V30 4264 N 394.653 0.992116 1.22453 0
M  V30 4265 C 395.603 0.512969 2.22155 0
M  V30 4266 C 396.587 -0.418416 1.55364 0
M  V30 4267 O 397.779 -0.245363 1.75291 0
M  V30 4268 C 394.908 -0.171822 3.4287 0
M  V30 4269 C 393.994 0.779822 4.16869 0
M  V30 4270 N 394.385 1.92734 4.6764 0
M  V30 4271 C 392.683 0.59554 4.42006 0
M  V30 4272 C 393.384 2.52458 5.24061 0
M  V30 4273 N 392.36 1.80735 5.12675 0
M  V30 4274 H 396.162 1.38817 2.5905 0
M  V30 4275 H 393.676 0.854277 1.38115 0
M  V30 4276 H 395.673 -0.532469 4.13486 0
M  V30 4277 H 394.333 -1.04317 3.07487 0
M  V30 4278 H 395.344 2.30816 4.63621 0
M  V30 4279 H 392.021 -0.229805 4.16867 0
M  V30 4280 H 393.411 3.49433 5.73887 0
M  V30 4281 N 396.131 -1.37776 0.765217 0
M  V30 4282 C 397.408 -1.93975 0.251596 0
M  V30 4283 C 397.788 -1.69949 -1.25222 0
M  V30 4284 O 397.136 -1.04457 -2.03226 0
M  V30 4285 C 397.346 -3.43487 0.617895 0
M  V30 4286 C 398.694 -4.20564 0.584029 0
M  V30 4287 O 399.718 -3.5182 0.556888 0
M  V30 4288 O 398.577 -5.43138 0.605291 0
M  V30 4289 H 395.671 -0.82509 0.0561806 0
M  V30 4290 H 398.217 -1.47101 0.846128 0
M  V30 4291 H 396.989 -3.5453 1.65602 0
M  V30 4292 H 396.612 -3.976 -0.00403411 0
M  V30 4293 N 397.609 -0.515225 -1.4894 0
M  V30 4294 C 399.02 -0.0710067 -1.86565 0
M  V30 4295 C 399.371 1.34733 -1.42623 0
M  V30 4296 O 398.496 2.00653 -0.810379 0
M  V30 4297 C 399.091 -0.122083 -3.3858 0
M  V30 4298 C 397.65 0.266863 -3.75453 0
M  V30 4299 C 396.797 -0.488376 -2.72966 0
M  V30 4300 H 399.748 -0.727266 -1.41055 0
M  V30 4301 H 399.769 0.669818 -3.74558 0
M  V30 4302 H 399.281 -1.15448 -3.70531 0
M  V30 4303 H 397.382 1.30196 -3.49113 0
M  V30 4304 H 397.495 -0.0624811 -4.79059 0
M  V30 4305 H 395.859 0.0635622 -2.54621 0
M  V30 4306 H 396.642 -1.52113 -3.07761 0
M  V30 4307 N 399.087 1.5561 -0.249682 0
M  V30 4308 C 400.312 2.03865 0.381305 0
M  V30 4309 C 400.737 1.12769 1.50548 0
M  V30 4310 O 400.095 0.121189 1.80895 0
M  V30 4311 C 400.143 3.50101 0.863816 0
M  V30 4312 O 399.247 3.62132 1.97318 0
M  V30 4313 H 398.588 0.658827 0.0827194 0
M  V30 4314 H 401.118 2.01105 -0.376552 0
M  V30 4315 H 401.128 3.90975 1.1663 0
M  V30 4316 H 399.803 4.1588 0.0411816 0
M  V30 4317 H 398.38 3.33155 1.67517 0
M  V30 4318 N 400.565 -0.0233959 1.57583 0
M  V30 4319 C 401.515 -1.03023 2.03397 0
M  V30 4320 C 402.499 -1.31701 0.924315 0
M  V30 4321 O 403.691 -1.31191 1.18819 0
M  V30 4322 C 400.82 -2.32961 2.52159 0
M  V30 4323 C 399.906 -2.07349 3.69956 0
M  V30 4324 N 400.297 -1.51814 4.82479 0
M  V30 4325 C 398.595 -2.37606 3.77438 0
M  V30 4326 C 399.296 -1.42136 5.64068 0
M  V30 4327 N 398.272 -1.89891 5.09355 0
M  V30 4328 H 402.074 -0.594962 2.87815 0
M  V30 4329 H 399.588 -0.229586 1.60769 0
M  V30 4330 H 401.585 -3.05906 2.83244 0
M  V30 4331 H 400.245 -2.77162 1.69149 0
M  V30 4332 H 401.256 -1.20008 5.03804 0
M  V30 4333 H 397.933 -2.84842 3.05239 0
M  V30 4334 H 399.323 -0.996405 6.64471 0
M  V30 4335 N 402.043 -1.548 -0.295768 0
M  V30 4336 C 403.29 -1.74329 -1.03032 0
M  V30 4337 C 403.618 -0.531915 -1.87085 0
M  V30 4338 O 402.873 0.486052 -1.89568 0
M  V30 4339 C 403.172 -2.98797 -1.961 0
M  V30 4340 C 402.838 -4.32356 -1.2798 0
M  V30 4341 C 401.5 -4.68661 -1.09135 0
M  V30 4342 C 403.852 -5.15128 -0.793243 0
M  V30 4343 C 401.18 -5.85312 -0.403269 0
M  V30 4344 C 403.532 -6.32488 -0.118854 0
M  V30 4345 C 402.196 -6.6745 0.0815043 0
M  V30 4346 H 401.466 -0.637916 -0.37702 0
M  V30 4347 H 404.113 -1.8906 -0.304696 0
M  V30 4348 H 402.418 -2.78869 -2.75207 0
M  V30 4349 H 404.115 -3.11102 -2.53015 0
M  V30 4350 H 400.705 -4.03808 -1.43655 0
M  V30 4351 H 404.889 -4.87575 -0.92653 0
M  V30 4352 H 400.145 -6.1094 -0.237098 0
M  V30 4353 H 404.319 -6.95892 0.266035 0
M  V30 4354 H 401.946 -7.57695 0.616685 0
M  V30 4355 N 403.521 0.559213 -1.47345 0
M  V30 4356 C 404.451 1.67622 -1.62558 0
M  V30 4357 C 405.432 1.63331 -0.475087 0
M  V30 4358 O 406.617 1.80983 -0.704182 0
M  V30 4359 C 403.747 3.0626 -1.63774 0
M  V30 4360 C 402.701 3.25397 -2.7803 0
M  V30 4361 C 402.027 4.64801 -2.64318 0
M  V30 4362 C 403.327 3.10965 -4.19641 0
M  V30 4363 H 405.021 1.55146 -2.56067 0
M  V30 4364 H 402.567 0.744961 -1.23233 0
M  V30 4365 H 404.52 3.84247 -1.73008 0
M  V30 4366 H 403.244 3.1969 -0.66825 0
M  V30 4367 H 401.903 2.49817 -2.68304 0
M  V30 4368 H 401.551 4.75028 -1.65401 0
M  V30 4369 H 401.251 4.78555 -3.40968 0
M  V30 4370 H 402.775 5.44926 -2.75478 0
M  V30 4371 H 404.189 3.78772 -4.30354 0
M  V30 4372 H 402.586 3.36229 -4.97062 0
M  V30 4373 H 403.656 2.07736 -4.38148 0
M  V30 4374 N 404.999 1.35443 0.805782 0
M  V30 4375 C 405.947 1.28465 1.93906 0
M  V30 4376 C 406.941 0.17943 1.68447 0
M  V30 4377 O 408.147 0.345459 1.76654 0
M  V30 4378 H 404.522 0.399528 0.637088 0
M  V30 4379 H 406.493 2.24206 1.96912 0
M  V30 4380 C 405.242 1.07432 3.30687 0
M  V30 4381 H 404.565 1.91716 3.50835 0
M  V30 4382 H 406.005 1.06591 4.10383 0
M  V30 4383 C 404.464 -0.22179 3.36169 0
M  V30 4384 O 404.994 -1.21731 3.82811 0
M  V30 4385 N 403.2 -0.260841 2.89427 0
M  V30 4386 H 402.747 0.549884 2.51663 0
M  V30 4387 H 402.705 -1.12777 2.93477 0
M  V30 4388 N 406.477 -1.02803 1.19454 0
M  V30 4389 C 407.707 -1.79581 1.02149 0
M  V30 4390 C 408.115 -1.84182 -0.432851 0
M  V30 4391 O 407.458 -1.28534 -1.31243 0
M  V30 4392 C 407.52 -3.25993 1.51554 0
M  V30 4393 C 407.184 -3.45025 2.99678 0
M  V30 4394 C 408.181 -3.35175 3.97434 0
M  V30 4395 C 405.866 -3.71212 3.38389 0
M  V30 4396 C 407.86 -3.51238 5.31893 0
M  V30 4397 C 405.547 -3.8692 4.73008 0
M  V30 4398 C 406.545 -3.76936 5.69569 0
M  V30 4399 O 406.233 -3.92179 7.01748 0
M  V30 4400 H 405.965 -0.571962 0.360327 0
M  V30 4401 H 408.519 -1.30367 1.58725 0
M  V30 4402 H 406.749 -3.76235 0.893543 0
M  V30 4403 H 408.438 -3.84368 1.30444 0
M  V30 4404 H 409.204 -3.14895 3.68872 0
M  V30 4405 H 405.083 -3.78075 2.6378 0
M  V30 4406 H 408.627 -3.43362 6.07247 0
M  V30 4407 H 404.524 -4.06699 5.01265 0
M  V30 4408 H 405.292 -4.09265 7.08833 0
M  V30 4409 N 407.956 -0.998596 -1.21925 0
M  V30 4410 C 409.181 -0.696015 -1.95372 0
M  V30 4411 C 409.606 0.733826 -1.73195 0
M  V30 4412 O 408.964 1.50242 -1.01474 0
M  V30 4413 C 409.012 -1.01466 -3.4603 0
M  V30 4414 O 408.116 -0.116415 -4.12236 0
M  V30 4415 H 407.457 -0.259938 -0.611006 0
M  V30 4416 H 409.987 -1.33711 -1.54863 0
M  V30 4417 H 409.997 -0.958855 -3.96573 0
M  V30 4418 H 408.672 -2.05653 -3.61497 0
M  V30 4419 H 407.249 -0.228193 -3.72201 0
M  V30 4420 N 409.434 1.37368 -0.772513 0
M  V30 4421 C 410.662 2.03942 -0.348588 0
M  V30 4422 C 411.077 1.58264 1.02947 0
M  V30 4423 O 410.434 0.764246 1.65727 0
M  V30 4424 C 410.485 3.5946 -0.38351 0
M  V30 4425 O 410.206 4.03468 -1.70721 0
M  V30 4426 C 411.707 4.4327 0.0519152 0
M  V30 4427 H 408.927 0.654931 -0.145966 0
M  V30 4428 H 411.471 1.75686 -1.04665 0
M  V30 4429 H 409.626 3.86486 0.265978 0
M  V30 4430 H 410.04 4.97991 -1.64636 0
M  V30 4431 H 411.514 5.51995 -0.0236733 0
M  V30 4432 H 411.991 4.2514 1.10238 0
M  V30 4433 H 412.597 4.21471 -0.569415 0
M  V30 4434 N 410.912 0.523116 1.48665 0
M  V30 4435 C 412.161 -0.01544 2.01694 0
M  V30 4436 C 412.474 -1.35975 1.40606 0
M  V30 4437 O 413.68 -1.98627 1.85093 0
M  V30 4438 C 412.136 -0.0779303 3.59816 0
M  V30 4439 C 411.744 1.26107 4.29885 0
M  V30 4440 C 413.488 -0.565678 4.20714 0
M  V30 4441 C 411.395 1.15954 5.79921 0
M  V30 4442 H 410.325 -0.00954163 0.75394 0
M  V30 4443 H 412.976 0.665865 1.70993 0
M  V30 4444 H 411.358 -0.824165 3.87329 0
M  V30 4445 H 412.532 2.02233 4.14051 0
M  V30 4446 H 410.847 1.68401 3.80828 0
M  V30 4447 H 413.444 -0.6595 5.30617 0
M  V30 4448 H 413.787 -1.56984 3.85567 0
M  V30 4449 H 414.32 0.12467 3.97605 0
M  V30 4450 H 411.059 2.13864 6.19631 0
M  V30 4451 H 410.579 0.439529 5.98187 0
M  V30 4452 H 412.258 0.847361 6.41427 0
M  V30 4453 N 412.39 -1.55475 0.257931 0
M  V30 4454 C 413.338 -2.23244 -0.653076 0
M  V30 4455 C 414.332 -1.22366 -1.17144 0
M  V30 4456 O 415.538 -1.40347 -1.12706 0
M  V30 4457 H 411.913 -0.716247 -0.229117 0
M  V30 4458 H 413.884 -2.98343 -0.0584788 0
M  V30 4459 C 412.633 -2.95401 -1.83395 0
M  V30 4460 H 411.956 -3.72802 -1.44424 0
M  V30 4461 H 413.396 -3.46165 -2.44838 0
M  V30 4462 C 411.855 -1.99895 -2.71189 0
M  V30 4463 O 412.385 -1.53909 -3.71046 0
M  V30 4464 N 410.591 -1.6676 -2.3799 0
M  V30 4465 H 410.138 -2.04352 -1.56837 0
M  V30 4466 H 410.096 -1.03127 -2.97005 0
M  V30 4467 N 413.868 0.0150385 -1.57593 0
M  V30 4468 C 415.098 0.713359 -1.93894 0
M  V30 4469 C 415.506 1.68663 -0.857289 0
M  V30 4470 O 414.849 1.82876 0.173788 0
M  V30 4471 C 414.911 1.51348 -3.26089 0
M  V30 4472 C 414.575 0.703451 -4.51554 0
M  V30 4473 C 415.572 -0.00237924 -5.199 0
M  V30 4474 C 413.257 0.653854 -4.98026 0
M  V30 4475 C 415.251 -0.746955 -6.33008 0
M  V30 4476 C 412.938 -0.0944578 -6.11027 0
M  V30 4477 C 413.936 -0.793609 -6.78374 0
M  V30 4478 O 413.624 -1.52974 -7.89211 0
M  V30 4479 H 413.356 0.204637 -0.644282 0
M  V30 4480 H 415.91 -0.0276411 -2.05381 0
M  V30 4481 H 414.14 2.29862 -3.10967 0
M  V30 4482 H 415.829 2.09572 -3.47612 0
M  V30 4483 H 416.595 0.0268803 -4.84993 0
M  V30 4484 H 412.474 1.18756 -4.45441 0
M  V30 4485 H 416.018 -1.2932 -6.85509 0
M  V30 4486 H 411.915 -0.125591 -6.45378 0
M  V30 4487 H 412.683 -1.44488 -8.05646 0
M  V30 4488 N 415.346 1.54954 0.287554 0
M  V30 4489 C 416.293 1.86834 1.35505 0
M  V30 4490 C 417.263 0.718452 1.49758 0
M  V30 4491 O 418.448 0.968358 1.644 0
M  V30 4492 C 415.588 2.13303 2.71286 0
M  V30 4493 C 414.701 3.40883 2.65373 0
M  V30 4494 C 413.836 3.57125 3.93236 0
M  V30 4495 C 412.875 4.78449 3.81776 0
M  V30 4496 N 412.012 4.91426 5.01443 0
M  V30 4497 H 416.852 2.77889 1.07619 0
M  V30 4498 H 414.389 1.37593 0.520241 0
M  V30 4499 H 416.347 2.26646 3.50267 0
M  V30 4500 H 414.977 1.25499 2.97405 0
M  V30 4501 H 414.029 3.36088 1.78182 0
M  V30 4502 H 415.341 4.29993 2.52799 0
M  V30 4503 H 414.495 3.70207 4.80658 0
M  V30 4504 H 413.234 2.66173 4.0866 0
M  V30 4505 H 412.239 4.65386 2.92738 0
M  V30 4506 H 413.464 5.70822 3.67884 0
M  V30 4507 H 411.41 4.03401 5.17304 0
M  V30 4508 H 411.327 5.74559 4.91343 0
M  V30 4509 H 412.595 5.08879 5.90477 0
M  V30 4510 N 416.824 -0.551391 1.4764 0
M  V30 4511 C 418.07 -1.30789 1.55774 0
M  V30 4512 C 418.425 -1.91143 0.219562 0
M  V30 4513 O 417.718 -1.7521 -0.775375 0
M  V30 4514 C 417.912 -2.43469 2.61644 0
M  V30 4515 C 417.741 -1.94157 4.05627 0
M  V30 4516 C 416.511 -1.77734 4.7301 0
M  V30 4517 C 418.709 -1.48262 4.92466 0
M  V30 4518 N 416.691 -1.22823 6.01488 0
M  V30 4519 C 418.062 -1.05156 6.11017 0
M  V30 4520 C 420.117 -1.36367 4.78862 0
M  V30 4521 C 418.82 -0.513357 7.17466 0
M  V30 4522 C 420.846 -0.839484 5.85411 0
M  V30 4523 C 420.208 -0.418377 7.03156 0
M  V30 4524 H 416.307 -0.470406 0.624694 0
M  V30 4525 H 418.891 -0.624331 1.84419 0
M  V30 4526 H 417.062 -3.09348 2.34859 0
M  V30 4527 H 418.794 -3.10477 2.59589 0
M  V30 4528 H 415.549 -2.00623 4.29007 0
M  V30 4529 H 415.973 -0.974393 6.69951 0
M  V30 4530 H 420.615 -1.67535 3.88191 0
M  V30 4531 H 418.333 -0.189318 8.07878 0
M  V30 4532 H 421.919 -0.750921 5.76934 0
M  V30 4533 H 420.799 -0.0190538 7.84198 0
M  V30 4534 N 418.302 -1.35869 -0.798587 0
M  V30 4535 C 419.527 -1.32883 -1.59238 0
M  V30 4536 C 419.952 0.0894587 -1.87887 0
M  V30 4537 O 419.31 1.05869 -1.47178 0
M  V30 4538 C 419.358 -2.14892 -2.89575 0
M  V30 4539 O 418.462 -1.53512 -3.82763 0
M  V30 4540 H 417.803 -0.455236 -0.48338 0
M  V30 4541 H 420.333 -1.79024 -0.990539 0
M  V30 4542 H 420.343 -2.27139 -3.38928 0
M  V30 4543 H 419.018 -3.17998 -2.68049 0
M  V30 4544 H 417.595 -1.50153 -3.41334 0
M  V30 4545 N 419.78 1.02168 -1.19998 0
M  V30 4546 C 421.027 1.75685 -1.00702 0
M  V30 4547 C 421.355 1.88947 0.461426 0
M  V30 4548 O 420.61 1.40832 1.35885 0
M  V30 4549 C 420.909 3.18081 -1.62969 0
M  V30 4550 C 420.575 3.24809 -3.12746 0
M  V30 4551 C 419.237 3.26352 -3.53621 0
M  V30 4552 C 421.589 3.23379 -4.08749 0
M  V30 4553 C 418.917 3.2413 -4.89036 0
M  V30 4554 C 421.269 3.22698 -5.44104 0
M  V30 4555 C 419.933 3.22542 -5.84399 0
M  V30 4556 H 419.203 0.642877 -0.368496 0
M  V30 4557 H 421.85 1.19865 -1.49348 0
M  V30 4558 H 420.155 3.77027 -1.06573 0
M  V30 4559 H 421.852 3.73648 -1.45561 0
M  V30 4560 H 418.442 3.2434 -2.80181 0
M  V30 4561 H 422.626 3.21361 -3.78207 0
M  V30 4562 H 417.882 3.22338 -5.19527 0
M  V30 4563 H 422.056 3.20543 -6.18244 0
M  V30 4564 H 419.683 3.20575 -6.89301 0
M  V30 4565 N 421.258 1.00505 1.21394 0
M  V30 4566 C 422.506 0.686415 1.90086 0
M  V30 4567 C 422.827 -0.785264 1.7849 0
M  V30 4568 O 422.097 -1.56387 1.17983 0
M  V30 4569 H 420.677 0.2509 0.703604 0
M  V30 4570 H 423.339 1.27417 1.47482 0
M  V30 4571 H 422.435 0.959621 2.96981 0
M  V30 4572 N 422.737 -1.36956 0.779787 0
M  V30 4573 C 424.014 -1.93697 0.272156 0
M  V30 4574 C 424.394 -1.71267 -1.23413 0
M  V30 4575 O 423.742 -1.06607 -2.02107 0
M  V30 4576 C 423.952 -3.42812 0.654291 0
M  V30 4577 C 425.3 -4.19921 0.628602 0
M  V30 4578 O 426.324 -3.51209 0.594172 0
M  V30 4579 O 425.183 -5.42465 0.662864 0
M  V30 4580 H 422.277 -0.824447 0.0649286 0
M  V30 4581 H 424.823 -1.46196 0.861682 0
M  V30 4582 H 423.595 -3.52754 1.69353 0
M  V30 4583 H 423.218 -3.97582 0.0381369 0
M  V30 4584 N 424.215 -0.530993 -1.48385 0
M  V30 4585 C 425.163 0.244595 -2.3131 0
M  V30 4586 C 426.157 0.93451 -1.41291 0
M  V30 4587 O 427.363 0.85878 -1.58193 0
M  V30 4588 H 423.738 0.0977472 -0.74562 0
M  V30 4589 H 425.709 -0.474369 -2.94605 0
M  V30 4590 C 424.458 1.2779 -3.23365 0
M  V30 4591 H 423.781 0.756439 -3.92579 0
M  V30 4592 H 425.221 1.79198 -3.84271 0
M  V30 4593 C 423.68 2.31205 -2.45042 0
M  V30 4594 O 424.21 3.37661 -2.17596 0
M  V30 4595 N 422.416 2.04446 -2.0652 0
M  V30 4596 H 421.963 1.17891 -2.2904 0
M  V30 4597 H 421.921 2.73861 -1.54427 0
M  V30 4598 N 425.693 1.55336 -0.266172 0
M  V30 4599 C 426.921 2.03801 0.356756 0
M  V30 4600 C 427.336 1.14485 1.50129 0
M  V30 4601 O 426.693 0.163121 1.8177 0
M  V30 4602 C 426.744 3.51455 0.846281 0
M  V30 4603 O 426.465 4.37371 -0.252663 0
M  V30 4604 C 427.966 4.15767 1.53794 0
M  V30 4605 H 425.186 0.665906 0.0825218 0
M  V30 4606 H 427.73 2.00636 -0.39566 0
M  V30 4607 H 425.885 3.55092 1.54881 0
M  V30 4608 H 426.299 5.24358 0.122173 0
M  V30 4609 H 427.773 5.20714 1.83198 0
M  V30 4610 H 428.25 3.63404 2.46646 0
M  V30 4611 H 428.856 4.16107 0.879488 0
M  V30 4612 N 427.171 -0.0066808 1.57599 0
M  V30 4613 C 428.419 -0.691552 1.899 0
M  V30 4614 C 428.74 -1.74682 0.866672 0
M  V30 4615 O 428.01 -1.95661 -0.0968189 0
M  V30 4616 H 426.59 -0.258416 0.700878 0
M  V30 4617 H 429.252 0.0326655 1.94873 0
M  V30 4618 H 428.348 -1.16702 2.8946 0
M  V30 4619 N 428.649 -1.55105 -0.279332 0
M  V30 4620 C 429.579 -1.90557 -1.34945 0
M  V30 4621 C 430.56 -0.766738 -1.51839 0
M  V30 4622 O 431.745 -1.02434 -1.64988 0
M  V30 4623 C 428.875 -2.17193 -2.71006 0
M  V30 4624 C 427.829 -3.33021 -2.68851 0
M  V30 4625 C 427.155 -3.45123 -4.08405 0
M  V30 4626 C 428.455 -4.69578 -2.28678 0
M  V30 4627 H 430.149 -2.80188 -1.05522 0
M  V30 4628 H 427.695 -1.34811 -0.506173 0
M  V30 4629 H 429.648 -2.40581 -3.45975 0
M  V30 4630 H 428.372 -1.24355 -3.01999 0
M  V30 4631 H 427.031 -3.0959 -1.9634 0
M  V30 4632 H 426.679 -2.49762 -4.3661 0
M  V30 4633 H 426.379 -4.22995 -4.07859 0
M  V30 4634 H 427.903 -3.70796 -4.85121 0
M  V30 4635 H 429.317 -4.92553 -2.93368 0
M  V30 4636 H 427.714 -5.5032 -2.39306 0
M  V30 4637 H 428.784 -4.68828 -1.23807 0
M  V30 4638 N 430.127 0.543554 -1.4793 0
M  V30 4639 C 431.374 1.30008 -1.55255 0
M  V30 4640 C 431.702 1.93245 -0.220612 0
M  V30 4641 O 430.957 1.79141 0.787843 0
M  V30 4642 C 431.256 2.42078 -2.62932 0
M  V30 4643 C 430.922 1.96583 -4.0579 0
M  V30 4644 C 429.584 1.83893 -4.44676 0
M  V30 4645 C 431.936 1.62034 -4.95373 0
M  V30 4646 C 429.264 1.34969 -5.70964 0
M  V30 4647 C 431.616 1.14577 -6.22137 0
M  V30 4648 C 430.28 1.00493 -6.59892 0
M  V30 4649 H 429.55 0.475735 -0.568117 0
M  V30 4650 H 432.197 0.608075 -1.81589 0
M  V30 4651 H 430.502 3.16892 -2.30406 0
M  V30 4652 H 432.199 3.00236 -2.65818 0
M  V30 4653 H 428.789 2.07407 -3.75074 0
M  V30 4654 H 432.973 1.70705 -4.66019 0
M  V30 4655 H 428.229 1.2274 -5.98953 0
M  V30 4656 H 432.403 0.869109 -6.90955 0
M  V30 4657 H 430.03 0.623624 -7.57638 0
M  V30 4658 N 431.605 1.3629 0.791371 0
M  V30 4659 C 432.851 1.30605 1.55146 0
M  V30 4660 C 433.184 -0.115042 1.93859 0
M  V30 4661 O 432.459 -1.06798 1.62556 0
M  V30 4662 C 432.742 2.22692 2.82985 0
M  V30 4663 C 432.595 3.73489 2.50651 0
M  V30 4664 C 433.914 2.13588 3.84796 0
M  V30 4665 H 431.033 0.475761 0.562868 0
M  V30 4666 H 433.675 1.66825 0.909358 0
M  V30 4667 H 431.825 1.91933 3.37778 0
M  V30 4668 H 433.497 4.14758 2.01924 0
M  V30 4669 H 431.74 3.93021 1.83622 0
M  V30 4670 H 432.411 4.3333 3.41949 0
M  V30 4671 H 434.887 2.40659 3.39445 0
M  V30 4672 H 433.763 2.80195 4.71998 0
M  V30 4673 H 434.024 1.12256 4.27611 0
M  V30 4674 N 433.083 -1.0153 1.20538 0
M  V30 4675 C 434.308 -1.79283 1.04271 0
M  V30 4676 C 434.733 -1.8372 -0.403544 0
M  V30 4677 O 434.091 -1.27321 -1.2907 0
M  V30 4678 C 434.139 -3.21535 1.63241 0
M  V30 4679 O 433.243 -4.03099 0.870908 0
M  V30 4680 H 432.584 -0.55293 0.367647 0
M  V30 4681 H 435.114 -1.27696 1.59859 0
M  V30 4682 H 435.124 -3.72243 1.6703 0
M  V30 4683 H 433.799 -3.1762 2.68497 0
M  V30 4684 H 432.376 -3.61693 0.907323 0
M  V30 4685 N 434.561 -1.01147 -1.20859 0
M  V30 4686 C 435.789 -0.716911 -1.94082 0
M  V30 4687 C 436.204 0.721568 -1.74467 0
M  V30 4688 O 435.561 1.48889 -1.05539 0
M  V30 4689 C 435.612 -1.03662 -3.46318 0
M  V30 4690 O 435.333 -2.4186 -3.65288 0
M  V30 4691 C 436.834 -0.762386 -4.36695 0
M  V30 4692 H 434.054 -0.26367 -0.617024 0
M  V30 4693 H 436.598 -1.35127 -1.53496 0
M  V30 4694 H 434.753 -0.447757 -3.84804 0
M  V30 4695 H 435.167 -2.53224 -4.59323 0
M  V30 4696 H 436.641 -1.03621 -5.42187 0
M  V30 4697 H 437.118 0.303514 -4.3815 0
M  V30 4698 H 437.724 -1.33316 -4.03865 0
M  V30 4699 N 436.039 1.36541 -0.78704 0
M  V30 4700 C 436.987 2.31965 -0.171724 0
M  V30 4701 C 437.981 1.55689 0.667631 0
M  V30 4702 O 439.187 1.70969 0.562981 0
M  V30 4703 H 435.562 0.751101 -0.0367545 0
M  V30 4704 H 437.533 2.81428 -0.992017 0
M  V30 4705 C 436.282 3.40968 0.680904 0
M  V30 4706 H 435.605 3.99775 0.0443961 0
M  V30 4707 H 437.045 4.10063 1.07815 0
M  V30 4708 C 435.504 2.82338 1.83813 0
M  V30 4709 O 436.034 2.74311 2.93456 0
M  V30 4710 N 434.24 2.39661 1.6435 0
M  V30 4711 H 433.787 2.46389 0.751668 0
M  V30 4712 H 433.745 2.00779 2.4194 0
M  V30 4713 N 437.518 0.538854 1.48102 0
M  V30 4714 C 438.468 -0.23907 2.26743 0
M  V30 4715 C 439.452 -0.901923 1.33245 0
M  V30 4716 O 440.644 -0.803263 1.57723 0
M  V30 4717 C 437.773 -1.2799 3.18549 0
M  V30 4718 C 436.859 -0.621388 4.19523 0
M  V30 4719 N 437.25 0.298004 5.04921 0
M  V30 4720 C 435.548 -0.877533 4.37282 0
M  V30 4721 C 436.249 0.678757 5.77726 0
M  V30 4722 N 435.225 0.0377881 5.43587 0
M  V30 4723 H 439.027 0.468096 2.90148 0
M  V30 4724 H 436.541 0.357497 1.58416 0
M  V30 4725 H 438.538 -1.851 3.73555 0
M  V30 4726 H 437.198 -1.98835 2.567 0
M  V30 4727 H 438.209 0.671126 5.13533 0
M  V30 4728 H 434.886 -1.57588 3.86616 0
M  V30 4729 H 436.276 1.43316 6.56437 0
M  V30 4730 N 438.996 -1.55193 0.274407 0
M  V30 4731 C 440.224 -2.03987 -0.345943 0
M  V30 4732 C 440.639 -1.15279 -1.4952 0
M  V30 4733 O 439.996 -0.172759 -1.8168 0
M  V30 4734 C 440.047 -3.51898 -0.827631 0
M  V30 4735 O 439.768 -4.37231 0.275855 0
M  V30 4736 C 441.269 -4.16577 -1.51587 0
M  V30 4737 H 438.489 -0.666335 -0.0789892 0
M  V30 4738 H 441.033 -2.00423 0.406294 0
M  V30 4739 H 439.188 -3.55909 -1.52996 0
M  V30 4740 H 439.602 -5.24415 -0.0943638 0
M  V30 4741 H 441.076 -5.21678 -1.80433 0
M  V30 4742 H 441.553 -3.64707 -2.44716 0
M  V30 4743 H 442.159 -4.16568 -0.857409 0
M  V30 4744 N 440.474 -0.00167713 -1.576 0
M  V30 4745 C 441.72 0.683832 -1.90923 0
M  V30 4746 C 442.053 1.7333 -0.875799 0
M  V30 4747 O 441.328 1.94215 0.10525 0
M  V30 4748 C 441.611 1.32543 -3.3482 0
M  V30 4749 C 441.464 0.287387 -4.48881 0
M  V30 4750 C 442.783 2.25114 -3.78169 0
M  V30 4751 H 439.902 0.247125 -0.694333 0
M  V30 4752 H 442.544 -0.0533149 -1.89925 0
M  V30 4753 H 440.694 1.95372 -3.35801 0
M  V30 4754 H 442.366 -0.341346 -4.60035 0
M  V30 4755 H 440.609 -0.39017 -4.32042 0
M  V30 4756 H 441.28 0.775393 -5.46527 0
M  V30 4757 H 443.756 1.723 -3.7875 0
M  V30 4758 H 442.632 2.66971 -4.79602 0
M  V30 4759 H 442.893 3.13092 -3.12131 0
M  V30 4760 N 441.952 1.55251 0.271103 0
M  V30 4761 C 442.9 1.89054 1.35504 0
M  V30 4762 C 443.894 0.767064 1.51038 0
M  V30 4763 O 445.1 0.951429 1.528 0
M  V30 4764 H 441.475 0.600072 0.45323 0
M  V30 4765 H 443.446 2.79598 1.04247 0
M  V30 4766 C 442.195 2.18068 2.70817 0
M  V30 4767 H 441.518 3.04005 2.59656 0
M  V30 4768 H 442.958 2.4564 3.45597 0
M  V30 4769 C 441.417 0.988901 3.2206 0
M  V30 4770 O 441.947 0.224501 4.01072 0
M  V30 4771 N 440.153 0.786085 2.79766 0
M  V30 4772 H 439.7 1.40937 2.15626 0
M  V30 4773 H 439.658 -0.00969349 3.14399 0
M  V30 4774 N 443.43 -0.535701 1.48216 0
M  V30 4775 C 444.38 -1.63688 1.58714 0
M  V30 4776 C 445.364 -1.54635 0.444615 0
M  V30 4777 O 446.556 -1.62753 0.695742 0
M  V30 4778 C 443.685 -3.02423 1.62466 0
M  V30 4779 C 442.771 -3.16601 2.82178 0
M  V30 4780 N 443.162 -3.00771 4.06658 0
M  V30 4781 C 441.46 -3.47645 2.79391 0
M  V30 4782 C 442.161 -3.18213 4.86945 0
M  V30 4783 N 441.137 -3.45528 4.19656 0
M  V30 4784 H 444.939 -1.5005 2.5271 0
M  V30 4785 H 442.453 -0.741018 1.44508 0
M  V30 4786 H 444.45 -3.81517 1.6808 0
M  V30 4787 H 443.11 -3.17157 0.695826 0
M  V30 4788 H 444.121 -2.77652 4.37184 0
M  V30 4789 H 440.798 -3.68771 1.95739 0
M  V30 4790 H 442.188 -3.1076 5.95716 0
M  V30 4791 N 444.908 -1.36708 -0.784132 0
M  V30 4792 C 446.136 -1.34398 -1.57305 0
M  V30 4793 C 446.551 0.0735577 -1.88657 0
M  V30 4794 O 445.908 1.03193 -1.50524 0
M  V30 4795 C 445.959 -2.17053 -2.89085 0
M  V30 4796 O 445.68 -3.53281 -2.59083 0
M  V30 4797 C 447.181 -2.22583 -3.83369 0
M  V30 4798 H 444.401 -0.460819 -0.487736 0
M  V30 4799 H 446.945 -1.79879 -0.972819 0
M  V30 4800 H 445.1 -1.75113 -3.45564 0
M  V30 4801 H 445.514 -3.9647 -3.43383 0
M  V30 4802 H 446.988 -2.84763 -4.72878 0
M  V30 4803 H 447.465 -1.23075 -4.21603 0
M  V30 4804 H 448.071 -2.64781 -3.32823 0
M  V30 4805 N 446.386 1.0089 -1.21074 0
M  V30 4806 C 447.616 1.77933 -1.04993 0
M  V30 4807 C 448.024 1.84847 0.403495 0
M  V30 4808 O 447.367 1.30606 1.29181 0
M  V30 4809 C 447.429 3.23541 -1.56722 0
M  V30 4810 C 447.093 3.40214 -3.05129 0
M  V30 4811 C 448.09 3.2881 -4.02716 0
M  V30 4812 C 445.775 3.65781 -3.44252 0
M  V30 4813 C 447.769 3.42732 -5.37414 0
M  V30 4814 C 445.456 3.79346 -4.79103 0
M  V30 4815 C 446.454 3.67827 -5.75493 0
M  V30 4816 O 446.142 3.80965 -7.07899 0
M  V30 4817 H 445.874 0.566157 -0.369381 0
M  V30 4818 H 448.428 1.27826 -1.60779 0
M  V30 4819 H 446.658 3.74766 -0.953285 0
M  V30 4820 H 448.347 3.82245 -1.36543 0
M  V30 4821 H 449.113 3.08986 -3.73835 0
M  V30 4822 H 444.992 3.73831 -2.69762 0
M  V30 4823 H 448.536 3.33658 -6.12632 0
M  V30 4824 H 444.433 3.98672 -5.07672 0
M  V30 4825 H 445.201 3.97937 -7.15254 0
M  V30 4826 N 447.864 1.01787 1.20321 0
M  V30 4827 C 449.11 0.708985 1.90003 0
M  V30 4828 C 449.443 -0.759572 1.78729 0
M  V30 4829 O 448.718 -1.55198 1.17234 0
M  V30 4830 C 449.001 1.1469 3.41348 0
M  V30 4831 C 448.854 2.67586 3.61549 0
M  V30 4832 C 450.173 0.71915 4.34185 0
M  V30 4833 H 447.292 0.259034 0.689978 0
M  V30 4834 H 449.934 1.26584 1.41692 0
M  V30 4835 H 448.084 0.673128 3.82624 0
M  V30 4836 H 449.756 3.22826 3.29517 0
M  V30 4837 H 447.999 3.085 3.04976 0
M  V30 4838 H 448.67 2.93281 4.67643 0
M  V30 4839 H 451.146 1.12647 4.00562 0
M  V30 4840 H 450.022 1.05358 5.38694 0
M  V30 4841 H 450.283 -0.379111 4.40472 0
M  V30 4842 N 449.342 -1.36122 0.79427 0
M  V30 4843 C 450.272 -2.32551 0.210328 0
M  V30 4844 C 451.253 -1.56884 -0.657386 0
M  V30 4845 O 452.438 -1.85014 -0.590207 0
M  V30 4846 C 449.568 -3.41128 -0.651819 0
M  V30 4847 C 448.522 -4.27842 0.116395 0
M  V30 4848 C 447.848 -5.2763 -0.86666 0
M  V30 4849 C 449.148 -5.05647 1.30837 0
M  V30 4850 H 450.842 -2.81636 1.01594 0
M  V30 4851 H 448.388 -1.35407 0.489981 0
M  V30 4852 H 450.341 -4.07581 -1.07031 0
M  V30 4853 H 449.065 -2.90622 -1.49019 0
M  V30 4854 H 447.724 -3.62952 0.515915 0
M  V30 4855 H 447.372 -4.73395 -1.70019 0
M  V30 4856 H 447.072 -5.86514 -0.35705 0
M  V30 4857 H 448.596 -5.96955 -1.28361 0
M  V30 4858 H 450.01 -5.65113 0.965393 0
M  V30 4859 H 448.407 -5.73967 1.75161 0
M  V30 4860 H 449.477 -4.37006 2.10128 0
M  V30 4861 N 450.82 -0.546701 -1.47814 0
M  V30 4862 C 451.768 0.220048 -2.31557 0
M  V30 4863 C 452.762 0.919472 -1.42275 0
M  V30 4864 O 453.968 0.841953 -1.59095 0
M  V30 4865 H 450.343 0.0898334 -0.746615 0
M  V30 4866 H 452.314 -0.505589 -2.94086 0
M  V30 4867 C 451.063 1.24353 -3.24702 0
M  V30 4868 H 450.386 0.714758 -3.93359 0
M  V30 4869 H 451.826 1.75112 -3.8615 0
M  V30 4870 C 450.285 2.28593 -2.47481 0
M  V30 4871 O 450.815 3.35334 -2.21165 0
M  V30 4872 N 449.021 2.02244 -2.08676 0
M  V30 4873 H 448.568 1.15455 -2.30278 0
M  V30 4874 H 448.526 2.72207 -1.57323 0
M  V30 4875 N 452.299 1.55045 -0.282633 0
M  V30 4876 C 453.547 1.99365 0.331334 0
M  V30 4877 C 453.868 1.1725 1.55812 0
M  V30 4878 O 453.138 0.263871 1.94115 0
M  V30 4879 H 451.718 0.736397 0.125414 0
M  V30 4880 H 454.38 1.90964 -0.389711 0
M  V30 4881 H 453.476 3.0596 0.616036 0
M  V30 4882 N 453.777 0.010035 1.57597 0
M  V30 4883 C 455.005 -0.683413 1.95287 0
M  V30 4884 C 455.42 -1.66747 0.885481 0
M  V30 4885 O 454.777 -1.82003 -0.134629 0
M  V30 4886 C 454.828 -1.40652 3.33015 0
M  V30 4887 O 454.549 -0.461916 4.35658 0
M  V30 4888 C 456.05 -2.19356 3.85225 0
M  V30 4889 H 453.27 -0.189708 0.643624 0
M  V30 4890 H 455.814 0.0641359 2.04399 0
M  V30 4891 H 453.969 -2.10562 3.2518 0
M  V30 4892 H 454.383 -0.973215 5.15392 0
M  V30 4893 H 455.857 -2.65433 4.83993 0
M  V30 4894 H 456.334 -3.02457 3.18459 0
M  V30 4895 H 456.94 -1.54442 3.96267 0
M  V30 4896 N 455.255 -1.55392 -0.262866 0
M  V30 4897 C 456.502 -1.76476 -0.993109 0
M  V30 4898 C 456.83 -0.571479 -1.85915 0
M  V30 4899 O 456.085 0.445733 -1.90556 0
M  V30 4900 C 456.384 -3.02889 -1.89718 0
M  V30 4901 C 456.05 -4.34974 -1.18781 0
M  V30 4902 C 454.712 -4.7087 -0.991699 0
M  V30 4903 C 457.064 -5.16695 -0.683798 0
M  V30 4904 C 454.392 -5.86036 -0.279024 0
M  V30 4905 C 456.744 -6.32598 0.0153327 0
M  V30 4906 C 455.408 -6.67127 0.223062 0
M  V30 4907 H 454.678 -0.64577 -0.363404 0
M  V30 4908 H 457.325 -1.89664 -0.264525 0
M  V30 4909 H 455.63 -2.84644 -2.6923 0
M  V30 4910 H 457.327 -3.16399 -2.46359 0
M  V30 4911 H 453.917 -4.06765 -1.35058 0
M  V30 4912 H 458.101 -4.8943 -0.8229 0
M  V30 4913 H 453.357 -6.11306 -0.107456 0
M  V30 4914 H 457.531 -6.95171 0.413584 0
M  V30 4915 H 455.158 -7.56216 0.777265 0
M  V30 4916 N 456.733 0.527833 -1.48498 0
M  V30 4917 C 457.958 1.313 -1.60546 0
M  V30 4918 C 458.383 1.86199 -0.26672 0
M  V30 4919 O 457.741 1.64513 0.761918 0
M  V30 4920 C 457.789 2.43818 -2.65678 0
M  V30 4921 O 456.893 3.46916 -2.22987 0
M  V30 4922 H 456.234 0.388784 -0.538277 0
M  V30 4923 H 458.764 0.634896 -1.945 0
M  V30 4924 H 458.774 2.89973 -2.87018 0
M  V30 4925 H 457.449 2.03222 -3.62869 0
M  V30 4926 H 456.026 3.06864 -2.11869 0
M  V30 4927 N 458.211 1.37122 0.776871 0
M  V30 4928 C 459.141 1.35164 1.90402 0
M  V30 4929 C 460.122 0.221069 1.68657 0
M  V30 4930 O 461.307 0.420642 1.8959 0
M  V30 4931 C 458.437 1.15274 3.27611 0
M  V30 4932 C 457.391 2.25289 3.63908 0
M  V30 4933 C 456.717 1.90527 4.99603 0
M  V30 4934 C 458.017 3.67446 3.71188 0
M  V30 4935 H 459.711 2.29482 1.92297 0
M  V30 4936 H 457.257 1.10465 0.923773 0
M  V30 4937 H 459.21 1.12536 4.06096 0
M  V30 4938 H 457.934 0.174102 3.26136 0
M  V30 4939 H 456.593 2.27174 2.87728 0
M  V30 4940 H 456.241 0.91206 4.94662 0
M  V30 4941 H 455.941 2.64193 5.24858 0
M  V30 4942 H 457.465 1.89367 5.80493 0
M  V30 4943 H 458.879 3.67719 4.39836 0
M  V30 4944 H 457.276 4.40123 4.07936 0
M  V30 4945 H 458.346 4.01443 2.71977 0
M  V30 4946 N 459.689 -1.00246 1.21608 0
M  V30 4947 C 460.637 -2.11193 0.97469 0
M  V30 4948 C 461.631 -1.69216 -0.0789303 0
M  V30 4949 O 462.837 -1.79853 0.0726806 0
M  V30 4950 H 459.212 -0.690455 0.297953 0
M  V30 4951 H 461.183 -2.2873 1.91638 0
M  V30 4952 C 459.932 -3.43182 0.558717 0
M  V30 4953 H 459.255 -3.75918 1.3611 0
M  V30 4954 H 460.695 -4.21823 0.429154 0
M  V30 4955 C 459.154 -3.28882 -0.730648 0
M  V30 4956 O 459.684 -3.59835 -1.78554 0
M  V30 4957 N 457.89 -2.8209 -0.698131 0
M  V30 4958 H 457.437 -2.57099 0.16061 0
M  V30 4959 H 457.395 -2.72903 -1.56113 0
M  V30 4960 N 461.167 -1.02423 -1.1978 0
M  V30 4961 C 462.097 -0.62157 -2.25075 0
M  V30 4962 C 463.078 0.367148 -1.6609 0
M  V30 4963 O 464.263 0.250892 -1.92573 0
M  V30 4964 C 461.393 0.0331826 -3.47284 0
M  V30 4965 C 460.347 -0.877323 -4.18912 0
M  V30 4966 C 459.673 -0.0879296 -5.34628 0
M  V30 4967 C 460.973 -2.18892 -4.74219 0
M  V30 4968 H 462.667 -1.50179 -2.59011 0
M  V30 4969 H 460.213 -0.723547 -1.24502 0
M  V30 4970 H 462.166 0.326488 -4.20133 0
M  V30 4971 H 460.89 0.948164 -3.12534 0
M  V30 4972 H 459.549 -1.15475 -3.47938 0
M  V30 4973 H 459.197 0.828941 -4.96123 0
M  V30 4974 H 458.897 -0.694359 -5.83483 0
M  V30 4975 H 460.421 0.198743 -6.10276 0
M  V30 4976 H 461.835 -1.95746 -5.38847 0
M  V30 4977 H 460.232 -2.74686 -5.33542 0
M  V30 4978 H 461.302 -2.84674 -3.92541 0
M  V30 4979 N 462.645 1.35699 -0.801477 0
M  V30 4980 C 463.873 2.03157 -0.391768 0
M  V30 4981 C 464.288 1.60412 0.995668 0
M  V30 4982 O 463.645 0.799228 1.64069 0
M  V30 4983 C 463.696 3.58566 -0.459671 0
M  V30 4984 O 463.417 3.99756 -1.7924 0
M  V30 4985 C 464.918 4.4328 -0.0421205 0
M  V30 4986 H 462.138 0.651688 -0.159825 0
M  V30 4987 H 464.682 1.73426 -1.08368 0
M  V30 4988 H 462.837 3.86963 0.183939 0
M  V30 4989 H 463.251 4.94387 -1.75162 0
M  V30 4990 H 464.725 5.51821 -0.140754 0
M  V30 4991 H 465.202 4.27383 1.01196 0
M  V30 4992 H 465.808 4.20168 -0.658687 0
M  V30 4993 N 464.123 0.554532 1.47522 0
M  V30 4994 C 465.369 0.0295227 2.02779 0
M  V30 4995 C 465.702 -1.31582 1.42828 0
M  V30 4996 O 464.977 -1.85561 0.582872 0
M  V30 4997 C 465.26 -0.0664057 3.60039 0
M  V30 4998 C 465.113 1.30585 4.30427 0
M  V30 4999 C 466.432 -0.781162 4.33112 0
M  V30 5000 H 463.551 0.0122027 0.736899 0
M  V30 5001 H 466.193 0.716305 1.7598 0
M  V30 5002 H 464.343 -0.651307 3.83002 0
M  V30 5003 H 466.015 1.93374 4.18813 0
M  V30 5004 H 464.258 1.88125 3.90886 0
M  V30 5005 H 464.929 1.19147 5.38988 0
M  V30 5006 H 467.405 -0.284565 4.15126 0
M  V30 5007 H 466.281 -0.817237 5.42782 0
M  V30 5008 H 466.542 -1.83672 4.0214 0
M  V30 5009 N 465.601 -1.54893 0.290851 0
M  V30 5010 C 466.548 -2.23138 -0.58974 0
M  V30 5011 C 467.518 -1.21036 -1.13752 0
M  V30 5012 O 468.703 -1.49626 -1.18392 0
M  V30 5013 C 465.843 -2.96811 -1.76061 0
M  V30 5014 C 464.956 -4.13665 -1.24519 0
M  V30 5015 C 464.091 -4.74944 -2.3791 0
M  V30 5016 C 463.13 -5.83963 -1.83451 0
M  V30 5017 N 462.267 -6.39239 -2.90376 0
M  V30 5018 H 467.107 -2.98 -0.00114915 0
M  V30 5019 H 464.644 -1.47096 0.0112006 0
M  V30 5020 H 466.602 -3.37751 -2.44909 0
M  V30 5021 H 465.232 -2.24344 -2.32098 0
M  V30 5022 H 464.284 -3.77737 -0.449288 0
M  V30 5023 H 465.596 -4.92238 -0.806424 0
M  V30 5024 H 464.75 -5.18684 -3.14724 0
M  V30 5025 H 463.489 -3.95682 -2.85109 0
M  V30 5026 H 462.494 -5.39657 -1.05122 0
M  V30 5027 H 463.719 -6.65103 -1.37169 0
M  V30 5028 H 461.665 -5.62864 -3.36927 0
M  V30 5029 H 461.582 -7.13129 -2.50965 0
M  V30 5030 H 462.85 -6.87637 -3.67118 0
M  V30 5031 N 467.08 -0.0183926 -1.57589 0
M  V30 5032 C 468.043 0.951986 -2.08494 0
M  V30 5033 C 469.043 1.26092 -0.997874 0
M  V30 5034 O 470.233 1.20304 -1.25987 0
M  V30 5035 C 467.365 2.27165 -2.54182 0
M  V30 5036 H 468.558 0.511307 -2.95509 0
M  V30 5037 H 466.111 0.229444 -1.54607 0
M  V30 5038 H 466.846 2.75884 -1.70465 0
M  V30 5039 H 466.631 2.06057 -3.33591 0
M  V30 5040 H 468.121 2.9674 -2.93828 0
M  V30 5041 N 468.558 1.5553 0.254621 0
M  V30 5042 C 469.521 1.88872 1.29846 0
M  V30 5043 C 470.521 0.764591 1.41459 0
M  V30 5044 O 471.711 1.03265 1.40293 0
M  V30 5045 C 468.843 2.11032 2.67728 0
M  V30 5046 H 470.036 2.82201 1.01502 0
M  V30 5047 H 467.589 1.48303 0.493556 0
M  V30 5048 H 468.324 1.20146 3.01223 0
M  V30 5049 H 468.109 2.92895 2.60682 0
M  V30 5050 H 469.599 2.38038 3.43115 0
M  V30 5051 N 470.036 -0.519951 1.48776 0
M  V30 5052 C 470.999 -1.60574 1.6355 0
M  V30 5053 C 471.999 -1.52557 0.508234 0
M  V30 5054 O 473.189 -1.56047 0.774262 0
M  V30 5055 C 470.321 -3.00211 1.61512 0
M  V30 5056 H 471.514 -1.4881 2.60376 0
M  V30 5057 H 469.067 -0.742772 1.37523 0
M  V30 5058 H 469.802 -3.17471 0.662009 0
M  V30 5059 H 469.587 -3.07439 2.43359 0
M  V30 5060 H 471.077 -3.79134 1.75064 0
M  V30 5061 N 471.514 -1.37532 -0.769588 0
M  V30 5062 C 472.925 -1.29382 -1.346 0
M  V30 5063 C 473.276 0.0576039 -1.96115 0
M  V30 5064 O 472.401 0.95947 -1.93967 0
M  V30 5065 C 472.996 -2.34298 -2.44724 0
M  V30 5066 C 471.555 -2.29776 -2.98128 0
M  V30 5067 C 470.702 -2.18013 -1.71364 0
M  V30 5068 H 473.653 -1.48123 -0.56968 0
M  V30 5069 H 473.674 -1.99089 -3.24259 0
M  V30 5070 H 473.186 -3.32645 -1.99922 0
M  V30 5071 H 471.287 -1.34959 -3.47299 0
M  V30 5072 H 471.4 -3.23276 -3.53595 0
M  V30 5073 H 469.764 -1.64595 -1.94372 0
M  V30 5074 H 470.547 -3.18278 -1.28662 0
M  V30 5075 N 472.992 0.995999 -1.22138 0
M  V30 5076 C 474.24 1.73167 -1.042 0
M  V30 5077 C 474.561 1.90329 0.42423 0
M  V30 5078 O 473.831 1.4607 1.30539 0
M  V30 5079 H 472.411 0.641593 -0.38258 0
M  V30 5080 H 475.073 1.19974 -1.53598 0
M  V30 5081 H 474.169 2.72734 -1.51731 0
M  V30 5082 N 474.47 1.03057 1.19235 0
M  V30 5083 C 475.881 0.757449 1.70645 0
M  V30 5084 C 476.232 -0.722735 1.82403 0
M  V30 5085 O 475.357 -1.56325 1.49638 0
M  V30 5086 C 475.952 1.36833 3.09939 0
M  V30 5087 C 474.511 1.14375 3.58602 0
M  V30 5088 C 473.658 1.46533 2.35422 0
M  V30 5089 H 476.609 1.19828 1.04052 0
M  V30 5090 H 476.63 0.766184 3.72706 0
M  V30 5091 H 476.142 2.44562 3.01349 0
M  V30 5092 H 474.243 0.0847542 3.72504 0
M  V30 5093 H 474.356 1.83366 4.42622 0
M  V30 5094 H 472.72 0.884712 2.38841 0
M  V30 5095 H 473.503 2.55349 2.2946 0
M  V30 5096 N 475.948 -1.35272 0.808662 0
M  V30 5097 C 477.188 -2.00534 0.395668 0
M  V30 5098 C 477.552 -1.62755 -1.01857 0
M  V30 5099 O 478.753 -2.20752 -1.53368 0
M  V30 5100 C 477.024 -3.52732 0.575771 0
M  V30 5101 S 478.583 -4.38067 0.253507 0
M  V30 5102 H 475.401 -0.694962 0.150165 0
M  V30 5103 H 478.003 -1.64823 1.05137 0
M  V30 5104 H 476.707 -3.77714 1.60499 0
M  V30 5105 H 476.238 -3.93285 -0.0951739 0
M  V30 5106 H 478.253 -4.87252 -0.938068 0
M  V30 5107 N 477.426 -0.562348 -1.47226 0
M  V30 5108 C 478.837 -0.130325 -1.86245 0
M  V30 5109 C 479.188 1.30128 -1.46838 0
M  V30 5110 O 478.313 1.97974 -0.873805 0
M  V30 5111 C 478.908 -0.229738 -3.3802 0
M  V30 5112 C 477.467 0.14728 -3.76112 0
M  V30 5113 C 476.614 -0.574971 -2.71274 0
M  V30 5114 H 479.565 -0.771773 -1.3867 0
M  V30 5115 H 479.586 0.550316 -3.76499 0
M  V30 5116 H 479.098 -1.27178 -3.66671 0
M  V30 5117 H 477.199 1.19023 -3.53078 0
M  V30 5118 H 477.312 -0.214858 -4.78618 0
M  V30 5119 H 475.676 -0.0174756 -2.54694 0
M  V30 5120 H 476.459 -1.61827 -3.02766 0
M  V30 5121 N 478.904 1.54736 -0.299062 0
M  V30 5122 C 480.315 1.8569 0.193971 0
M  V30 5123 C 480.666 1.22101 1.53577 0
M  V30 5124 O 479.791 0.51799 2.10109 0
M  V30 5125 C 480.386 3.36895 0.358733 0
M  V30 5126 C 478.945 3.67887 0.795986 0
M  V30 5127 C 478.092 2.77131 -0.096807 0
M  V30 5128 H 481.043 1.49934 -0.520134 0
M  V30 5129 H 481.064 3.61294 1.19361 0
M  V30 5130 H 480.576 3.83148 -0.617998 0
M  V30 5131 H 478.677 3.27151 1.78334 0
M  V30 5132 H 478.79 4.75114 0.616718 0
M  V30 5133 H 477.154 2.51153 0.423581 0
M  V30 5134 H 477.937 3.26204 -1.06986 0
M  V30 5135 N 480.382 0.0267497 1.57577 0
M  V30 5136 C 481.793 -0.512413 1.79531 0
M  V30 5137 C 482.144 -1.72391 0.936791 0
M  V30 5138 O 481.269 -2.15903 0.146543 0
M  V30 5139 C 481.864 -0.936378 3.25603 0
M  V30 5140 C 480.423 -1.42067 3.4856 0
M  V30 5141 C 479.57 -0.384278 2.74624 0
M  V30 5142 H 482.521 0.252797 1.56674 0
M  V30 5143 H 482.542 -1.80088 3.35184 0
M  V30 5144 H 482.054 -0.0544332 3.88062 0
M  V30 5145 H 480.155 -2.32262 2.9135 0
M  V30 5146 H 480.268 -1.42968 4.57271 0
M  V30 5147 H 478.632 -0.851855 2.40032 0
M  V30 5148 H 479.415 0.489159 3.39797 0
M  V30 5149 N 481.861 -1.55662 -0.24637 0
M  V30 5150 C 483.272 -1.67953 -0.81539 0
M  V30 5151 C 483.623 -0.624302 -1.86002 0
M  V30 5152 O 482.748 0.229328 -2.15181 0
M  V30 5153 C 483.343 -3.04484 -1.48576 0
M  V30 5154 C 481.902 -3.18713 -2.00248 0
M  V30 5155 C 481.049 -2.6383 -0.853766 0
M  V30 5156 H 484 -1.58685 -0.0221692 0
M  V30 5157 H 484.021 -2.98959 -2.3538 0
M  V30 5158 H 483.533 -3.81264 -0.725222 0
M  V30 5159 H 481.634 -2.46757 -2.79181 0
M  V30 5160 H 481.747 -4.25628 -2.1995 0
M  V30 5161 H 480.111 -2.21667 -1.25442 0
M  V30 5162 H 480.894 -3.43135 -0.106302 0
M  V30 5163 N 483.339 0.512053 -1.4905 0
M  V30 5164 C 484.75 1.09376 -1.51307 0
M  V30 5165 C 485.101 1.94 -0.292971 0
M  V30 5166 O 484.226 2.07965 0.598277 0
M  V30 5167 C 484.821 1.99031 -2.74176 0
M  V30 5168 C 483.38 2.52385 -2.79247 0
M  V30 5169 C 482.527 1.29749 -2.45073 0
M  V30 5170 H 485.478 0.296467 -1.55906 0
M  V30 5171 H 485.499 2.83569 -2.53711 0
M  V30 5172 H 485.011 1.37412 -3.62959 0
M  V30 5173 H 483.112 3.17673 -1.94716 0
M  V30 5174 H 483.225 2.90293 -3.81139 0
M  V30 5175 H 481.589 1.61912 -1.96612 0
M  V30 5176 H 482.372 0.698555 -3.36118 0
M  V30 5177 N 484.817 1.37938 0.762283 0
M  V30 5178 C 486.228 1.30094 1.33912 0
M  V30 5179 C 486.579 -0.0472026 1.96143 0
M  V30 5180 O 485.704 -0.94917 1.94473 0
M  V30 5181 C 486.299 2.35592 2.43478 0
M  V30 5182 C 484.858 2.31353 2.96905 0
M  V30 5183 C 484.005 2.18919 1.70205 0
M  V30 5184 H 486.956 1.48423 0.561816 0
M  V30 5185 H 486.977 2.00806 3.23199 0
M  V30 5186 H 486.489 3.33701 1.98155 0
M  V30 5187 H 484.59 1.36799 3.46579 0
M  V30 5188 H 484.703 3.25147 3.51875 0
M  V30 5189 H 483.067 1.65624 1.93496 0
M  V30 5190 H 483.85 3.18956 1.26973 0
M  V30 5191 N 486.295 -0.989507 1.22664 0
M  V30 5192 C 487.706 -1.54406 1.04955 0
M  V30 5193 C 488.057 -1.92366 -0.385951 0
M  V30 5194 O 487.182 -1.75111 -1.27142 0
M  V30 5195 C 487.777 -2.80578 1.89899 0
M  V30 5196 C 486.336 -3.32464 1.76478 0
M  V30 5197 C 485.483 -2.05524 1.86159 0
M  V30 5198 H 488.434 -0.810211 1.3646 0
M  V30 5199 H 488.455 -3.53075 1.4184 0
M  V30 5200 H 487.967 -2.52918 2.94371 0
M  V30 5201 H 486.068 -3.65024 0.747528 0
M  V30 5202 H 486.181 -4.02838 2.59342 0
M  V30 5203 H 484.545 -2.19241 1.29636 0
M  V30 5204 H 485.328 -1.80258 2.92168 0
M  V30 5205 N 487.773 -1.03688 -1.18687 0
M  V30 5206 C 489.189 -0.755413 -1.4059 0
M  V30 5207 C 489.389 0.656659 -1.905 0
M  V30 5208 O 488.445 1.42144 -2.08689 0
M  V30 5209 C 489.758 -1.7983 -2.41001 0
M  V30 5210 C 491.306 -1.81877 -2.54735 0
M  V30 5211 C 491.781 -2.85148 -3.58406 0
M  V30 5212 N 493.272 -2.84015 -3.6591 0
M  V30 5213 C 494.007 -3.60573 -4.45841 0
M  V30 5214 N 493.503 -4.46871 -5.29413 0
M  V30 5215 N 495.296 -3.49079 -4.40568 0
M  V30 5216 H 487.447 -1.94818 -0.846148 0
M  V30 5217 H 489.71 -0.842727 -0.434184 0
M  V30 5218 H 489.416 -2.81097 -2.1137 0
M  V30 5219 H 489.29 -1.62727 -3.40294 0
M  V30 5220 H 491.677 -0.812836 -2.83685 0
M  V30 5221 H 491.758 -2.03057 -1.55568 0
M  V30 5222 H 491.402 -3.85918 -3.30197 0
M  V30 5223 H 491.332 -2.61224 -4.57241 0
M  V30 5224 H 493.823 -2.21431 -3.0623 0
M  V30 5225 H 494.136 -5.02007 -5.87545 0
M  V30 5226 H 492.481 -4.5094 -5.28846 0
M  V30 5227 H 495.672 -2.81066 -3.74325 0
M  V30 5228 H 495.845 -4.08994 -5.02621 0
M  V30 5229 N 489.251 1.34841 -0.815825 0
M  V30 5230 C 490.662 1.80937 -0.46029 0
M  V30 5231 C 491.013 1.67685 1.01863 0
M  V30 5232 O 490.138 1.21277 1.79223 0
M  V30 5233 C 490.733 3.28509 -0.828708 0
M  V30 5234 C 489.292 3.72712 -0.525644 0
M  V30 5235 C 488.439 2.56676 -1.04941 0
M  V30 5236 H 491.39 1.22688 -1.00664 0
M  V30 5237 H 491.411 3.80279 -0.129757 0
M  V30 5238 H 490.923 3.38122 -1.90513 0
M  V30 5239 H 489.024 3.68642 0.541666 0
M  V30 5240 H 489.137 4.67119 -1.06474 0
M  V30 5241 H 487.501 2.50302 -0.471286 0
M  V30 5242 H 488.284 2.69063 -2.13214 0
M  V30 5243 N 490.729 0.570148 1.46925 0
M  V30 5244 C 491.954 0.0542592 2.07329 0
M  V30 5245 C 492.379 -1.23582 1.41806 0
M  V30 5246 O 491.737 -1.74341 0.497479 0
M  V30 5247 C 491.785 -0.111175 3.60429 0
M  V30 5248 O 490.889 -1.17071 3.95434 0
M  V30 5249 H 490.23 0.0571425 0.661537 0
M  V30 5250 H 492.76 0.789516 1.88753 0
M  V30 5251 H 492.77 -0.321315 4.06733 0
M  V30 5252 H 491.445 0.831012 4.07513 0
M  V30 5253 H 490.022 -0.940029 3.60857 0
M  V30 5254 N 492.207 -1.54576 0.307264 0
M  V30 5255 C 493.154 -2.23751 -0.56604 0
M  V30 5256 C 494.124 -1.22235 -1.12462 0
M  V30 5257 O 495.309 -1.50873 -1.16799 0
M  V30 5258 C 492.449 -2.98661 -1.72903 0
M  V30 5259 C 491.562 -4.14963 -1.20124 0
M  V30 5260 C 490.697 -4.77441 -2.3286 0
M  V30 5261 C 489.736 -5.85875 -1.77247 0
M  V30 5262 N 488.873 -6.42282 -2.8358 0
M  V30 5263 H 493.713 -2.97984 0.0304578 0
M  V30 5264 H 491.25 -1.47076 0.0268015 0
M  V30 5265 H 493.208 -3.40329 -2.41313 0
M  V30 5266 H 491.838 -2.26793 -2.29706 0
M  V30 5267 H 490.89 -3.78193 -0.409198 0
M  V30 5268 H 492.202 -4.93066 -0.754171 0
M  V30 5269 H 491.356 -5.21993 -3.09205 0
M  V30 5270 H 490.095 -3.98684 -2.80896 0
M  V30 5271 H 489.1 -5.40741 -0.993926 0
M  V30 5272 H 490.325 -6.6652 -1.30107 0
M  V30 5273 H 488.271 -5.66406 -3.30939 0
M  V30 5274 H 488.188 -7.1575 -2.43388 0
M  V30 5275 H 489.456 -6.91492 -3.59804 0
M  V30 5276 N 493.685 -0.035106 -1.57561 0
M  V30 5277 C 495.096 0.502885 -1.798 0
M  V30 5278 C 495.447 1.71892 -0.945921 0
M  V30 5279 O 494.572 2.15822 -0.157991 0
M  V30 5280 C 495.167 0.919097 -3.26095 0
M  V30 5281 C 493.726 1.40216 -3.49308 0
M  V30 5282 C 492.873 0.369709 -2.74824 0
M  V30 5283 H 495.824 -0.261102 -1.56537 0
M  V30 5284 H 495.845 1.78308 -3.36135 0
M  V30 5285 H 495.357 0.0338526 -3.88085 0
M  V30 5286 H 493.458 2.30714 -2.92578 0
M  V30 5287 H 493.571 1.40541 -4.58023 0
M  V30 5288 H 491.935 0.839113 -2.40481 0
M  V30 5289 H 492.718 -0.507173 -3.39533 0
M  V30 5290 N 495.163 1.55791 0.238111 0
M  V30 5291 C 496.391 1.82098 0.982233 0
M  V30 5292 C 496.806 0.612025 1.78605 0
M  V30 5293 O 496.163 -0.419381 1.77616 0
M  V30 5294 C 496.214 3.0673 1.91309 0
M  V30 5295 O 495.935 4.2296 1.14179 0
M  V30 5296 C 497.436 3.45903 2.77248 0
M  V30 5297 H 494.656 0.605748 0.288635 0
M  V30 5298 H 497.2 2.02862 0.258341 0
M  V30 5299 H 495.355 2.87991 2.59114 0
M  V30 5300 H 495.769 4.93653 1.7722 0
M  V30 5301 H 497.243 4.36189 3.38295 0
M  V30 5302 H 497.72 2.66891 3.48806 0
M  V30 5303 H 498.326 3.67024 2.14881 0
M  V30 5304 N 496.642 -0.504142 1.49319 0
M  V30 5305 C 498.053 -1.08572 1.51885 0
M  V30 5306 C 498.404 -1.93842 0.303255 0
M  V30 5307 O 497.529 -2.0828 -0.58724 0
M  V30 5308 C 498.124 -1.97574 2.75227 0
M  V30 5309 C 496.683 -2.509 2.80581 0
M  V30 5310 C 495.83 -1.28447 2.45757 0
M  V30 5311 H 498.781 -0.288194 1.56061 0
M  V30 5312 H 498.802 -2.82219 2.55211 0
M  V30 5313 H 498.314 -1.35486 3.63683 0
M  V30 5314 H 496.415 -3.16636 1.96398 0
M  V30 5315 H 496.528 -2.88268 3.82673 0
M  V30 5316 H 494.892 -1.60868 1.97468 0
M  V30 5317 H 495.675 -0.68072 3.36483 0
M  V30 5318 N 498.12 -1.38341 -0.754957 0
M  V30 5319 C 499.345 -1.37882 -1.5493 0
M  V30 5320 C 499.77 0.0296385 -1.88077 0
M  V30 5321 O 499.128 1.01133 -1.50472 0
M  V30 5322 C 499.176 -2.23996 -2.82592 0
M  V30 5323 O 498.28 -1.65612 -3.77686 0
M  V30 5324 H 497.621 -0.470384 -0.468652 0
M  V30 5325 H 500.151 -1.82084 -0.933082 0
M  V30 5326 H 500.161 -2.37806 -3.3153 0
M  V30 5327 H 498.836 -3.26365 -2.57796 0
M  V30 5328 H 497.413 -1.60936 -3.36384 0
M  V30 5329 N 499.598 0.982988 -1.23187 0
M  V30 5330 C 500.528 2.09301 -1.03515 0
M  V30 5331 C 501.509 1.70035 0.0471136 0
M  V30 5332 O 502.694 1.93847 -0.117029 0
M  V30 5333 C 499.824 3.4167 -0.622791 0
M  V30 5334 C 498.778 3.94828 -1.65211 0
M  V30 5335 C 498.104 5.23362 -1.09527 0
M  V30 5336 C 499.404 4.2439 -3.04451 0
M  V30 5337 H 501.098 2.26016 -1.96359 0
M  V30 5338 H 498.644 1.08611 -0.945501 0
M  V30 5339 H 500.597 4.18746 -0.472233 0
M  V30 5340 H 499.321 3.24811 0.341329 0
M  V30 5341 H 497.98 3.19895 -1.79061 0
M  V30 5342 H 497.628 5.02852 -0.122211 0
M  V30 5343 H 497.328 5.59895 -1.783 0
M  V30 5344 H 498.852 6.03062 -0.956511 0
M  V30 5345 H 500.266 4.92225 -2.93917 0
M  V30 5346 H 498.663 4.72118 -3.70438 0
M  V30 5347 H 499.733 3.31765 -3.53638 0
M  V30 5348 N 501.076 1.04316 1.18135 0
M  V30 5349 C 502.039 0.640794 2.2006 0
M  V30 5350 C 503.039 -0.303124 1.57917 0
M  V30 5351 O 504.229 -0.0881855 1.73977 0
M  V30 5352 C 501.361 -0.060148 3.40847 0
M  V30 5353 H 502.554 1.54281 2.57172 0
M  V30 5354 H 500.107 0.836004 1.32063 0
M  V30 5355 H 500.842 -0.975845 3.0927 0
M  V30 5356 H 500.627 0.618319 3.87194 0
M  V30 5357 H 502.117 -0.328082 4.16309 0
M  V30 5358 N 502.554 -1.34406 0.822964 0
M  V30 5359 C 503.782 -2.02508 0.424039 0
M  V30 5360 C 504.197 -1.61975 -0.970022 0
M  V30 5361 O 503.554 -0.825228 -1.62777 0
M  V30 5362 C 503.605 -3.57789 0.516657 0
M  V30 5363 O 503.326 -3.96853 1.85577 0
M  V30 5364 C 504.827 -4.43157 0.112637 0
M  V30 5365 H 502.047 -0.649063 0.170173 0
M  V30 5366 H 504.591 -1.7168 1.11113 0
M  V30 5367 H 502.746 -3.87207 -0.122353 0
M  V30 5368 H 503.16 -4.91538 1.83005 0
M  V30 5369 H 504.634 -5.51527 0.228526 0
M  V30 5370 H 505.111 -4.28939 -0.943837 0
M  V30 5371 H 505.717 -4.19067 0.725449 0
M  V30 5372 N 504.032 -0.577932 -1.46621 0
M  V30 5373 C 505.26 -0.0671642 -2.06791 0
M  V30 5374 C 505.675 1.23571 -1.42743 0
M  V30 5375 O 505.032 1.74602 -0.531062 0
M  V30 5376 C 505.083 0.110357 -3.61332 0
M  V30 5377 O 504.804 -1.14095 -4.22982 0
M  V30 5378 C 506.305 0.656025 -4.38419 0
M  V30 5379 H 503.525 -0.0552732 -0.66872 0
M  V30 5380 H 506.069 -0.797242 -1.8832 0
M  V30 5381 H 504.224 0.790637 -3.79246 0
M  V30 5382 H 504.638 -0.951742 -5.15793 0
M  V30 5383 H 506.112 0.729438 -5.47159 0
M  V30 5384 H 506.589 1.67195 -4.06131 0
M  V30 5385 H 507.195 0.0107692 -4.25299 0
M  V30 5386 N 505.51 1.54411 -0.315457 0
M  V30 5387 C 506.44 2.27002 0.547039 0
M  V30 5388 C 507.421 1.27492 1.12605 0
M  V30 5389 O 508.606 1.5629 1.15269 0
M  V30 5390 C 505.736 3.02171 1.71201 0
M  V30 5391 C 504.69 4.0895 1.26268 0
M  V30 5392 C 504.016 4.71915 2.51396 0
M  V30 5393 C 505.316 5.20891 0.383419 0
M  V30 5394 H 507.01 2.99343 -0.0584517 0
M  V30 5395 H 504.556 1.4397 -0.0295527 0
M  V30 5396 H 506.509 3.51681 2.32161 0
M  V30 5397 H 505.233 2.27433 2.34397 0
M  V30 5398 H 503.892 3.60312 0.676062 0
M  V30 5399 H 503.54 3.93801 3.12937 0
M  V30 5400 H 503.24 5.44039 2.22026 0
M  V30 5401 H 504.764 5.24195 3.13133 0
M  V30 5402 H 506.178 5.66206 0.899082 0
M  V30 5403 H 504.575 5.99821 0.182857 0
M  V30 5404 H 505.645 4.81324 -0.587821 0
M  V30 5405 N 506.988 0.0434614 1.5754 0
M  V30 5406 C 507.935 -0.93356 2.11077 0
M  V30 5407 C 508.905 -1.31383 1.01626 0
M  V30 5408 O 510.09 -1.40465 1.29129 0
M  V30 5409 C 507.23 -2.20578 2.65404 0
M  V30 5410 C 506.343 -1.88068 3.88914 0
M  V30 5411 C 505.478 -3.09691 4.31584 0
M  V30 5412 C 504.517 -2.73067 5.47815 0
M  V30 5413 N 503.654 -3.87359 5.85574 0
M  V30 5414 H 508.494 -0.470118 2.94268 0
M  V30 5415 H 506.031 -0.220434 1.45439 0
M  V30 5416 H 507.989 -2.95011 2.94999 0
M  V30 5417 H 506.619 -2.64513 1.85021 0
M  V30 5418 H 505.671 -1.03816 3.6596 0
M  V30 5419 H 506.983 -1.57104 4.73413 0
M  V30 5420 H 506.137 -3.92431 4.62691 0
M  V30 5421 H 504.876 -3.43827 3.45882 0
M  V30 5422 H 503.881 -1.88742 5.16388 0
M  V30 5423 H 505.106 -2.40131 6.35227 0
M  V30 5424 H 503.052 -4.21311 5.02825 0
M  V30 5425 H 502.969 -3.60068 6.64746 0
M  V30 5426 H 504.237 -4.70761 6.21292 0
M  V30 5427 N 508.466 -1.55915 -0.229846 0
M  V30 5428 C 509.691 -1.8296 -0.976743 0
M  V30 5429 C 510.116 -0.622735 -1.77493 0
M  V30 5430 O 509.474 0.428431 -1.76165 0
M  V30 5431 C 509.522 -3.07916 -1.8767 0
M  V30 5432 O 508.626 -2.86028 -2.97088 0
M  V30 5433 H 507.967 -0.603453 -0.277021 0
M  V30 5434 H 510.497 -2.0312 -0.245669 0
M  V30 5435 H 510.507 -3.37802 -2.2881 0
M  V30 5436 H 509.182 -3.95389 -1.28996 0
M  V30 5437 H 507.759 -2.67355 -2.59954 0
M  V30 5438 N 509.944 0.496216 -1.49584 0
M  V30 5439 C 511.174 1.27209 -1.62793 0
M  V30 5440 C 511.582 1.86799 -0.300476 0
M  V30 5441 O 510.925 1.68802 0.724674 0
M  V30 5442 C 510.987 2.43812 -2.64189 0
M  V30 5443 C 510.651 2.05055 -4.08414 0
M  V30 5444 C 511.648 1.58752 -4.9507 0
M  V30 5445 C 509.333 2.14543 -4.54177 0
M  V30 5446 C 511.327 1.22448 -6.25528 0
M  V30 5447 C 509.014 1.77851 -5.84647 0
M  V30 5448 C 510.012 1.31878 -6.70147 0
M  V30 5449 O 509.7 0.956834 -7.98185 0
M  V30 5450 H 509.432 0.391848 -0.550846 0
M  V30 5451 H 511.986 0.601712 -1.96389 0
M  V30 5452 H 510.216 3.13941 -2.25783 0
M  V30 5453 H 511.905 3.05829 -2.66877 0
M  V30 5454 H 512.671 1.50863 -4.60939 0
M  V30 5455 H 508.55 2.49277 -3.87791 0
M  V30 5456 H 512.094 0.864933 -6.92217 0
M  V30 5457 H 507.991 1.8539 -6.18305 0
M  V30 5458 H 508.759 1.08789 -8.11238 0
M  V30 5459 N 511.423 1.38739 0.74761 0
M  V30 5460 C 512.7 1.25791 1.49786 0
M  V30 5461 C 513.08 -0.138075 2.10648 0
M  V30 5462 O 512.428 -1.14815 1.9756 0
M  V30 5463 C 512.638 2.37265 2.55942 0
M  V30 5464 C 513.986 2.75978 3.22679 0
M  V30 5465 O 515.01 2.36621 2.6625 0
M  V30 5466 O 513.869 3.43867 4.24756 0
M  V30 5467 H 510.963 0.492251 0.664543 0
M  V30 5468 H 513.509 1.50582 0.782511 0
M  V30 5469 H 512.281 3.30644 2.0926 0
M  V30 5470 H 511.904 2.14071 3.35051 0
M  V30 5471 N 512.901 -0.976442 1.23707 0
M  V30 5472 C 514.126 -1.75875 1.09922 0
M  V30 5473 C 514.551 -1.84911 -0.34489 0
M  V30 5474 O 513.909 -1.31363 -1.24954 0
M  V30 5475 C 513.957 -3.16179 1.73388 0
M  V30 5476 O 513.061 -4.00124 0.99871 0
M  V30 5477 H 512.402 -0.540954 0.385052 0
M  V30 5478 H 514.932 -1.22546 1.6384 0
M  V30 5479 H 514.942 -3.66741 1.78788 0
M  V30 5480 H 513.617 -3.08917 2.78466 0
M  V30 5481 H 512.194 -3.58624 1.02193 0
M  V30 5482 N 514.379 -1.04941 -1.1758 0
M  V30 5483 C 515.327 -0.64204 -2.23563 0
M  V30 5484 C 516.321 0.335453 -1.66045 0
M  V30 5485 O 517.527 0.20179 -1.78865 0
M  V30 5486 H 513.902 -0.18944 -0.727748 0
M  V30 5487 H 515.873 -1.54609 -2.55223 0
M  V30 5488 C 514.622 -0.0301051 -3.47687 0
M  V30 5489 H 513.945 -0.773339 -3.92249 0
M  V30 5490 H 515.385 0.217592 -4.23441 0
M  V30 5491 C 513.844 1.2225 -3.13937 0
M  V30 5492 O 514.374 2.3122 -3.28482 0
M  V30 5493 N 512.58 1.11917 -2.68185 0
M  V30 5494 H 512.127 0.232403 -2.5655 0
M  V30 5495 H 512.085 1.95814 -2.45976 0
M  V30 5496 N 515.857 1.33968 -0.830081 0
M  V30 5497 C 517.085 2.0228 -0.434773 0
M  V30 5498 C 517.5 1.62487 0.961419 0
M  V30 5499 O 516.857 0.833849 1.62337 0
M  V30 5500 C 516.908 3.5751 -0.535625 0
M  V30 5501 O 516.629 3.95864 -1.87679 0
M  V30 5502 C 518.13 4.43091 -0.136137 0
M  V30 5503 H 515.35 0.648151 -0.173613 0
M  V30 5504 H 517.894 1.71089 -1.12022 0
M  V30 5505 H 516.049 3.87266 0.101817 0
M  V30 5506 H 516.463 4.9056 -1.85609 0
M  V30 5507 H 517.937 5.51398 -0.257772 0
M  V30 5508 H 518.414 4.29433 0.921076 0
M  V30 5509 H 519.02 4.18677 -0.747662 0
M  V30 5510 N 517.335 0.585699 1.46312 0
M  V30 5511 C 518.746 0.159938 1.86014 0
M  V30 5512 C 519.097 -1.27775 1.48889 0
M  V30 5513 O 518.222 -1.96559 0.90519 0
M  V30 5514 C 518.817 0.283485 3.37612 0
M  V30 5515 C 517.376 -0.0874256 3.76298 0
M  V30 5516 C 516.523 0.618055 2.70325 0
M  V30 5517 H 519.474 0.793737 1.37425 0
M  V30 5518 H 519.495 -0.490348 3.77327 0
M  V30 5519 H 519.007 1.32995 3.64601 0
M  V30 5520 H 517.108 -1.13391 3.54927 0
M  V30 5521 H 517.221 0.290975 4.78216 0
M  V30 5522 H 515.585 0.057993 2.54634 0
M  V30 5523 H 516.368 1.66623 3.00153 0
M  V30 5524 N 518.813 -1.54241 0.323641 0
M  V30 5525 C 520.061 -2.00174 -0.278359 0
M  V30 5526 C 520.382 -1.2134 -1.52648 0
M  V30 5527 O 519.652 -0.315244 -1.93347 0
M  V30 5528 H 518.232 -0.739463 -0.105845 0
M  V30 5529 H 520.894 -1.89864 0.440204 0
M  V30 5530 H 519.99 -3.07486 -0.5347 0
M  V30 5531 N 520.291 -0.0518155 -1.57515 0
M  V30 5532 C 521.702 0.483787 -1.80323 0
M  V30 5533 C 522.053 1.70879 -0.964099 0
M  V30 5534 O 521.178 2.15643 -0.180872 0
M  V30 5535 C 521.773 0.884459 -3.27052 0
M  V30 5536 C 520.332 1.36504 -3.50776 0
M  V30 5537 C 519.479 0.340539 -2.75201 0
M  V30 5538 H 522.43 -0.277691 -1.56252 0
M  V30 5539 H 522.451 1.74733 -3.38007 0
M  V30 5540 H 521.963 -0.00731093 -3.88099 0
M  V30 5541 H 520.064 2.27598 -2.95009 0
M  V30 5542 H 520.177 1.35675 -4.59488 0
M  V30 5543 H 518.541 0.81356 -2.41357 0
M  V30 5544 H 519.324 -0.543156 -3.38976 0
M  V30 5545 N 521.769 1.56035 0.221574 0
M  V30 5546 C 522.732 1.91584 1.2581 0
M  V30 5547 C 523.732 0.794425 1.39805 0
M  V30 5548 O 524.922 1.06217 1.38071 0
M  V30 5549 C 522.054 2.16663 2.63192 0
M  V30 5550 H 523.247 2.8429 0.954935 0
M  V30 5551 H 520.8 1.49316 0.461988 0
M  V30 5552 H 521.535 1.26508 2.98607 0
M  V30 5553 H 521.32 2.98358 2.5441 0
M  V30 5554 H 522.81 2.45262 3.37988 0
M  V30 5555 N 523.247 -0.488276 1.49845 0
M  V30 5556 C 524.495 -1.23911 1.59657 0
M  V30 5557 C 524.816 -1.92816 0.291005 0
M  V30 5558 O 524.086 -1.83328 -0.690485 0
M  V30 5559 H 522.666 -0.460357 0.588286 0
M  V30 5560 H 525.328 -0.564794 1.86537 0
M  V30 5561 H 524.424 -1.99625 2.39909 0
M  V30 5562 N 524.725 -1.39134 -0.740242 0
M  V30 5563 C 526.002 -1.26584 -1.49117 0
M  V30 5564 C 526.382 0.126902 -2.10718 0
M  V30 5565 O 525.73 1.13765 -1.98166 0
M  V30 5566 C 525.94 -2.38619 -2.54681 0
M  V30 5567 C 527.288 -2.77685 -3.21211 0
M  V30 5568 O 528.312 -2.38029 -2.64991 0
M  V30 5569 O 527.171 -3.46115 -4.22926 0
M  V30 5570 H 524.265 -0.495769 -0.661923 0
M  V30 5571 H 526.811 -1.50995 -0.774514 0
M  V30 5572 H 525.583 -3.3175 -2.07504 0
M  V30 5573 H 525.206 -2.15845 -3.33911 0
M  V30 5574 N 526.204 0.969867 -1.24223 0
M  V30 5575 C 527.152 2.08535 -1.03034 0
M  V30 5576 C 528.146 1.69366 0.0340379 0
M  V30 5577 O 529.352 1.79597 -0.12034 0
M  V30 5578 H 525.727 0.682313 -0.316154 0
M  V30 5579 H 527.698 2.23569 -1.97635 0
M  V30 5580 C 526.447 3.4158 -0.649509 0
M  V30 5581 H 525.77 3.72177 -1.46028 0
M  V30 5582 H 527.21 4.20536 -0.540841 0
M  V30 5583 C 525.669 3.30703 0.643194 0
M  V30 5584 O 526.199 3.64443 1.68951 0
M  V30 5585 N 524.405 2.83841 0.623095 0
M  V30 5586 H 523.952 2.56583 -0.228719 0
M  V30 5587 H 523.91 2.76946 1.48823 0
M  V30 5588 N 527.682 1.05563 1.17022 0
M  V30 5589 C 529.093 0.793475 1.69 0
M  V30 5590 C 529.444 -0.683882 1.83895 0
M  V30 5591 O 528.569 -1.53116 1.5292 0
M  V30 5592 C 529.164 1.43376 3.06967 0
M  V30 5593 C 527.723 1.21956 3.56095 0
M  V30 5594 C 526.87 1.51494 2.3226 0
M  V30 5595 H 529.821 1.22008 1.01487 0
M  V30 5596 H 529.842 0.845068 3.70997 0
M  V30 5597 H 529.354 2.50899 2.96093 0
M  V30 5598 H 527.455 0.163749 3.7224 0
M  V30 5599 H 527.568 1.92713 4.38633 0
M  V30 5600 H 525.932 0.935175 2.3691 0
M  V30 5601 H 526.715 2.60159 2.23992 0
M  V30 5602 N 529.16 -1.33526 0.837174 0
M  V30 5603 C 530.09 -2.31764 0.284206 0
M  V30 5604 C 531.071 -1.58896 -0.607142 0
M  V30 5605 O 532.256 -1.86798 -0.531047 0
M  V30 5606 C 529.386 -3.43029 -0.542962 0
M  V30 5607 C 528.34 -4.27255 0.252451 0
M  V30 5608 C 527.666 -5.3012 -0.69836 0
M  V30 5609 C 528.966 -5.01229 1.46858 0
M  V30 5610 H 530.66 -2.78262 1.10502 0
M  V30 5611 H 528.206 -1.3378 0.532812 0
M  V30 5612 H 530.159 -4.1078 -0.940096 0
M  V30 5613 H 528.883 -2.95216 -1.39697 0
M  V30 5614 H 527.542 -3.61127 0.631124 0
M  V30 5615 H 527.19 -4.78564 -1.54872 0
M  V30 5616 H 526.89 -5.87353 -0.170274 0
M  V30 5617 H 528.414 -6.00737 -1.09305 0
M  V30 5618 H 529.828 -5.61756 1.14469 0
M  V30 5619 H 528.225 -5.68104 1.93333 0
M  V30 5620 H 529.295 -4.301 2.23924 0
M  V30 5621 N 530.638 -0.59345 -1.46 0
M  V30 5622 C 531.548 0.135817 -2.34207 0
M  V30 5623 C 532.564 0.875008 -1.50398 0
M  V30 5624 O 533.74 0.835778 -1.83239 0
M  V30 5625 C 530.805 1.12977 -3.27776 0
M  V30 5626 C 529.866 0.394081 -4.27487 0
M  V30 5627 C 529.099 1.34068 -5.16586 0
M  V30 5628 O 529.322 2.5778 -5.08828 0
M  V30 5629 O 528.256 0.845426 -5.95933 0
M  V30 5630 H 532.082 -0.588691 -2.9794 0
M  V30 5631 H 529.667 -0.353784 -1.45151 0
M  V30 5632 H 531.549 1.70261 -3.85473 0
M  V30 5633 H 530.224 1.83556 -2.66625 0
M  V30 5634 H 529.131 -0.220869 -3.73447 0
M  V30 5635 H 530.464 -0.270939 -4.91454 0
M  V30 5636 N 532.116 1.54067 -0.331816 0
M  V30 5637 C 533.046 2.27569 0.522932 0
M  V30 5638 C 534.027 1.28679 1.11247 0
M  V30 5639 O 535.212 1.57504 1.13605 0
M  V30 5640 C 532.342 3.0397 1.67987 0
M  V30 5641 C 531.296 4.10267 1.21924 0
M  V30 5642 C 530.622 4.74555 2.46377 0
M  V30 5643 C 531.922 5.21268 0.32815 0
M  V30 5644 H 533.616 2.99264 -0.0901977 0
M  V30 5645 H 531.162 1.4393 -0.044821 0
M  V30 5646 H 533.115 3.54123 2.28418 0
M  V30 5647 H 531.839 2.29906 2.31971 0
M  V30 5648 H 530.498 3.61009 0.637809 0
M  V30 5649 H 530.146 3.97098 3.08743 0
M  V30 5650 H 529.846 5.46363 2.16243 0
M  V30 5651 H 531.37 5.27487 3.07555 0
M  V30 5652 H 532.784 5.67128 0.838978 0
M  V30 5653 H 531.181 5.99982 0.119228 0
M  V30 5654 H 532.251 4.80673 -0.638839 0
M  V30 5655 N 533.594 0.0601682 1.57485 0
M  V30 5656 C 534.819 -0.624416 1.97777 0
M  V30 5657 C 535.244 -1.63051 0.937867 0
M  V30 5658 O 534.602 -1.81036 -0.0978845 0
M  V30 5659 C 534.65 -1.27979 3.37126 0
M  V30 5660 O 533.754 -2.39556 3.35688 0
M  V30 5661 H 533.095 -0.161581 0.64404 0
M  V30 5662 H 535.625 0.131237 2.04179 0
M  V30 5663 H 535.635 -1.62937 3.74053 0
M  V30 5664 H 534.31 -0.542501 4.12347 0
M  V30 5665 H 532.887 -2.06478 3.10517 0
M  V30 5666 N 535.072 -1.5615 -0.213296 0
M  V30 5667 C 536.488 -1.49327 -0.56336 0
M  V30 5668 C 536.688 -0.756826 -1.86747 0
M  V30 5669 O 535.744 -0.299866 -2.50713 0
M  V30 5670 C 537.057 -2.9392 -0.634944 0
M  V30 5671 C 538.605 -3.04487 -0.725013 0
M  V30 5672 C 539.08 -4.50456 -0.82787 0
M  V30 5673 N 540.571 -4.54533 -0.891876 0
M  V30 5674 C 541.306 -5.64766 -0.991315 0
M  V30 5675 N 540.802 -6.84733 -1.05419 0
M  V30 5676 N 542.595 -5.52637 -1.02709 0
M  V30 5677 H 534.746 -2.02453 0.642366 0
M  V30 5678 H 537.009 -0.920548 0.226487 0
M  V30 5679 H 536.715 -3.50783 0.253859 0
M  V30 5680 H 536.589 -3.46274 -1.49579 0
M  V30 5681 H 538.976 -2.47685 -1.60425 0
M  V30 5682 H 539.057 -2.55289 0.161669 0
M  V30 5683 H 538.701 -5.07878 0.0469464 0
M  V30 5684 H 538.631 -4.97369 -1.73009 0
M  V30 5685 H 541.122 -3.68141 -0.85327 0
M  V30 5686 H 541.435 -7.64493 -1.13007 0
M  V30 5687 H 539.78 -6.87427 -1.02318 0
M  V30 5688 H 542.971 -4.5784 -0.974687 0
M  V30 5689 H 543.144 -6.38576 -1.10113 0
M  V30 5690 N 536.55 0.480323 -1.50102 0
M  V30 5691 C 537.799 1.22979 -1.59872 0
M  V30 5692 C 538.112 1.93282 -0.30022 0
M  V30 5693 O 539.318 2.70086 -0.276709 0
M  V30 5694 C 537.774 2.23408 -2.82164 0
M  V30 5695 C 537.382 1.5895 -4.18854 0
M  V30 5696 C 539.126 2.99055 -3.01275 0
M  V30 5697 C 537.033 2.57611 -5.32344 0
M  V30 5698 H 535.963 0.462707 -0.59533 0
M  V30 5699 H 538.614 0.501291 -1.7652 0
M  V30 5700 H 536.996 2.99511 -2.59055 0
M  V30 5701 H 538.17 0.887 -4.52182 0
M  V30 5702 H 536.485 0.956191 -4.05273 0
M  V30 5703 H 539.082 3.72876 -3.83233 0
M  V30 5704 H 539.425 3.57897 -2.12639 0
M  V30 5705 H 539.958 2.30066 -3.24522 0
M  V30 5706 H 536.697 2.03521 -6.23105 0
M  V30 5707 H 536.217 3.26041 -5.03445 0
M  V30 5708 H 537.896 3.19627 -5.62537 0
M  V30 5709 N 538.028 1.39524 0.732853 0
M  V30 5710 C 539.439 1.32905 1.31122 0
M  V30 5711 C 539.79 -0.00558708 1.96199 0
M  V30 5712 O 538.915 -0.907706 1.96443 0
M  V30 5713 C 539.51 2.40704 2.38426 0
M  V30 5714 C 538.069 2.37599 2.91931 0
M  V30 5715 C 537.216 2.2248 1.65523 0
M  V30 5716 H 540.167 1.49581 0.530207 0
M  V30 5717 H 540.188 2.07616 3.18867 0
M  V30 5718 H 539.7 3.37829 1.91033 0
M  V30 5719 H 537.801 1.44119 3.43599 0
M  V30 5720 H 537.914 3.32538 3.44899 0
M  V30 5721 H 536.278 1.69691 1.8994 0
M  V30 5722 H 537.061 3.21577 1.20178 0
M  V30 5723 N 539.506 -0.963266 1.24736 0
M  V30 5724 C 540.783 -1.68248 0.9976 0
M  V30 5725 C 541.163 -2.05599 -0.478776 0
M  V30 5726 O 540.511 -1.7626 -1.45412 0
M  V30 5727 C 540.721 -2.91118 1.92487 0
M  V30 5728 C 542.069 -3.63261 2.19833 0
M  V30 5729 O 543.093 -3.01184 1.90176 0
M  V30 5730 O 541.952 -4.75019 2.7022 0
M  V30 5731 H 539.046 -0.735744 0.377637 0
M  V30 5732 H 541.592 -1.01696 1.35853 0
M  V30 5733 H 540.364 -2.60242 2.92215 0
M  V30 5734 H 539.987 -3.65402 1.56738 0
M  V30 5735 N 540.985 -1.06182 -1.16461 0
M  V30 5736 C 541.895 -0.682671 -2.24448 0
M  V30 5737 C 542.911 0.30078 -1.71381 0
M  V30 5738 O 544.087 0.150376 -2.00838 0
M  V30 5739 C 541.152 -0.0737202 -3.46622 0
M  V30 5740 C 540.213 -1.10889 -4.14731 0
M  V30 5741 C 539.446 -0.528908 -5.31073 0
M  V30 5742 O 539.669 0.65868 -5.66584 0
M  V30 5743 O 538.603 -1.26805 -5.88391 0
M  V30 5744 H 542.429 -1.58291 -2.59187 0
M  V30 5745 H 540.014 -0.834013 -1.23954 0
M  V30 5746 H 541.896 0.264192 -4.20571 0
M  V30 5747 H 540.571 0.800015 -3.13658 0
M  V30 5748 H 539.478 -1.49896 -3.42756 0
M  V30 5749 H 540.811 -1.95412 -4.51747 0
M  V30 5750 N 542.463 1.3308 -0.844243 0
M  V30 5751 C 543.411 2.31028 -0.269954 0
M  V30 5752 C 544.405 1.58381 0.600997 0
M  V30 5753 O 545.611 1.73203 0.48996 0
M  V30 5754 H 541.986 0.748866 -0.0685782 0
M  V30 5755 H 543.957 2.76967 -1.11049 0
M  V30 5756 C 542.706 3.43549 0.535676 0
M  V30 5757 H 542.029 3.99604 -0.125202 0
M  V30 5758 H 543.469 4.14267 0.903262 0
M  V30 5759 C 541.928 2.8988 1.71672 0
M  V30 5760 O 542.458 2.86511 2.81557 0
M  V30 5761 N 540.664 2.46416 1.54037 0
M  V30 5762 H 540.211 2.49356 0.64649 0
M  V30 5763 H 540.169 2.1086 2.33207 0
M  V30 5764 N 543.941 0.601185 1.45683 0
M  V30 5765 C 545.181 0.0968037 2.04171 0
M  V30 5766 C 545.545 -1.2466 1.46027 0
M  V30 5767 O 546.746 -1.84132 1.95829 0
M  V30 5768 C 545.017 0.051384 3.57363 0
M  V30 5769 S 546.576 -0.392737 4.37039 0
M  V30 5770 H 543.394 0.0464504 0.709481 0
M  V30 5771 H 545.996 0.797846 1.78479 0
M  V30 5772 H 544.7 1.03274 3.97193 0
M  V30 5773 H 544.231 -0.671853 3.87621 0
M  V30 5774 H 546.246 -1.64364 4.68187 0
M  V30 5775 N 545.419 -1.53889 0.339982 0
M  V30 5776 C 546.351 -2.22435 -0.55275 0
M  V30 5777 C 547.364 -1.22975 -1.06681 0
M  V30 5778 O 548.553 -1.49351 -0.977575 0
M  V30 5779 C 545.653 -2.8882 -1.77302 0
M  V30 5780 C 544.826 -4.14563 -1.39486 0
M  V30 5781 C 543.885 -4.64391 -2.47442 0
M  V30 5782 O 542.911 -5.28687 -2.10899 0
M  V30 5783 N 544.113 -4.40015 -3.78639 0
M  V30 5784 H 546.878 -2.9968 0.0342669 0
M  V30 5785 H 544.439 -1.61068 0.16394 0
M  V30 5786 H 546.431 -3.19072 -2.48948 0
M  V30 5787 H 545.001 -2.15182 -2.26749 0
M  V30 5788 H 544.221 -3.90896 -0.509321 0
M  V30 5789 H 545.509 -4.96362 -1.11813 0
M  V30 5790 H 544.907 -3.88586 -4.11118 0
M  V30 5791 H 543.464 -4.74881 -4.46465 0
M  V30 5792 N 546.897 -0.0685191 -1.57451 0
M  V30 5793 C 548.146 0.600898 -1.92541 0
M  V30 5794 C 548.459 1.70967 -0.950239 0
M  V30 5795 O 549.665 2.43844 -1.19384 0
M  V30 5796 C 548.121 1.12019 -3.42023 0
M  V30 5797 C 547.729 0.0426028 -4.4798 0
M  V30 5798 C 549.473 1.76386 -3.86119 0
M  V30 5799 C 547.38 0.575759 -5.88591 0
M  V30 5800 H 546.31 0.228225 -0.71863 0
M  V30 5801 H 548.961 -0.140223 -1.82963 0
M  V30 5802 H 547.343 1.91418 -3.46663 0
M  V30 5803 H 548.517 -0.73182 -4.54952 0
M  V30 5804 H 546.832 -0.504642 -4.13331 0
M  V30 5805 H 549.429 2.17302 -4.88553 0
M  V30 5806 H 549.772 2.62255 -3.23308 0
M  V30 5807 H 550.305 1.03615 -3.84069 0
M  V30 5808 H 547.044 -0.245691 -6.55039 0
M  V30 5809 H 546.564 1.31778 -5.85145 0
M  V30 5810 H 548.243 1.0532 -6.3837 0
M  V30 5811 N 548.375 1.56261 0.205012 0
M  V30 5812 C 549.323 1.94631 1.27364 0
M  V30 5813 C 550.317 0.830434 1.47649 0
M  V30 5814 O 551.523 1.01538 1.48627 0
M  V30 5815 H 547.898 0.618755 0.427371 0
M  V30 5816 H 549.869 2.83768 0.922941 0
M  V30 5817 C 548.618 2.29358 2.61324 0
M  V30 5818 H 547.941 3.14744 2.46528 0
M  V30 5819 H 549.381 2.60076 3.34868 0
M  V30 5820 C 547.84 1.12461 3.17575 0
M  V30 5821 O 548.37 0.394407 3.99759 0
M  V30 5822 N 546.576 0.904036 2.7618 0
M  V30 5823 H 546.123 1.49956 2.09454 0
M  V30 5824 H 546.081 0.123662 3.14157 0
M  V30 5825 N 549.853 -0.472356 1.50355 0
M  V30 5826 C 551.269 -0.806001 1.37753 0
M  V30 5827 C 551.469 -1.968 0.432649 0
M  V30 5828 O 550.525 -2.52189 -0.12519 0
M  V30 5829 C 551.838 -1.11926 2.79093 0
M  V30 5830 C 553.386 -1.22579 2.87999 0
M  V30 5831 C 553.861 -1.57218 4.3017 0
M  V30 5832 N 555.352 -1.64212 4.33115 0
M  V30 5833 C 556.087 -1.92517 5.40116 0
M  V30 5834 N 555.583 -2.1885 6.57325 0
M  V30 5835 N 557.376 -1.94008 5.27558 0
M  V30 5836 H 549.527 0.293451 2.10363 0
M  V30 5837 H 551.79 0.0687672 0.945503 0
M  V30 5838 H 551.496 -0.338504 3.50067 0
M  V30 5839 H 551.37 -2.05577 3.16256 0
M  V30 5840 H 553.757 -1.99722 2.17245 0
M  V30 5841 H 553.838 -0.269107 2.54381 0
M  V30 5842 H 553.482 -0.806154 5.01461 0
M  V30 5843 H 553.412 -2.54034 4.61275 0
M  V30 5844 H 555.903 -1.45906 3.48597 0
M  V30 5845 H 556.216 -2.39718 7.3468 0
M  V30 5846 H 554.561 -2.16245 6.60502 0
M  V30 5847 H 557.752 -1.72931 4.34986 0
M  V30 5848 H 557.925 -2.15731 6.11035 0
M  V30 5849 N 551.331 -1.39911 -0.725443 0
M  V30 5850 C 552.561 -1.40744 -1.51244 0
M  V30 5851 C 552.969 -0.00275403 -1.892 0
M  V30 5852 O 552.312 0.981299 -1.55294 0
M  V30 5853 C 552.374 -2.22527 -2.82351 0
M  V30 5854 C 552.038 -3.71053 -2.66774 0
M  V30 5855 C 553.035 -4.63916 -2.34686 0
M  V30 5856 C 550.72 -4.14753 -2.83347 0
M  V30 5857 C 552.714 -5.98463 -2.19366 0
M  V30 5858 C 550.401 -5.49372 -2.67644 0
M  V30 5859 C 551.399 -6.41042 -2.357 0
M  V30 5860 O 551.087 -7.73181 -2.20107 0
M  V30 5861 H 550.819 -0.482314 -0.473655 0
M  V30 5862 H 553.373 -1.84472 -0.903284 0
M  V30 5863 H 551.603 -1.73563 -3.45562 0
M  V30 5864 H 553.292 -2.15421 -3.44018 0
M  V30 5865 H 554.058 -4.31453 -2.21525 0
M  V30 5866 H 549.937 -3.43728 -3.072 0
M  V30 5867 H 553.481 -6.69979 -1.94354 0
M  V30 5868 H 549.378 -5.81424 -2.80387 0
M  V30 5869 H 550.146 -7.84008 -2.35103 0
M  V30 5870 N 552.809 0.956637 -1.25245 0
M  V30 5871 C 554.057 1.69764 -1.09657 0
M  V30 5872 C 554.378 1.91583 0.363464 0
M  V30 5873 O 553.648 1.50149 1.25825 0
M  V30 5874 H 552.228 0.629097 -0.402798 0
M  V30 5875 H 554.89 1.15026 -1.57337 0
M  V30 5876 H 553.986 2.67769 -1.60331 0
M  V30 5877 N 554.287 1.06798 1.15896 0
M  V30 5878 C 555.237 0.653213 2.18443 0
M  V30 5879 C 556.221 -0.318763 1.57711 0
M  V30 5880 O 557.413 -0.133388 1.76497 0
M  V30 5881 C 554.542 0.0465785 3.43268 0
M  V30 5882 C 553.628 1.04336 4.11066 0
M  V30 5883 N 554.019 2.22084 4.54436 0
M  V30 5884 C 552.317 0.875433 4.37324 0
M  V30 5885 C 553.018 2.85276 5.06944 0
M  V30 5886 N 551.994 2.12973 5.00143 0
M  V30 5887 H 555.796 1.55011 2.49698 0
M  V30 5888 H 553.31 0.940384 1.32403 0
M  V30 5889 H 555.307 -0.26843 4.16035 0
M  V30 5890 H 553.967 -0.845504 3.13499 0
M  V30 5891 H 554.978 2.59833 4.48004 0
M  V30 5892 H 551.655 0.0357721 4.17485 0
M  V30 5893 H 553.045 3.85223 5.50503 0
M  V30 5894 N 555.766 -1.3263 0.851289 0
M  V30 5895 C 557.013 -1.97368 0.453023 0
M  V30 5896 C 557.341 -1.67384 -0.990596 0
M  V30 5897 O 556.596 -0.952665 -1.70947 0
M  V30 5898 C 556.895 -3.51713 0.635015 0
M  V30 5899 C 556.561 -4.01676 2.04859 0
M  V30 5900 C 555.223 -4.15031 2.43522 0
M  V30 5901 C 557.575 -4.28206 2.97135 0
M  V30 5902 C 554.903 -4.52257 3.73739 0
M  V30 5903 C 557.255 -4.66889 4.26846 0
M  V30 5904 C 555.919 -4.7845 4.65448 0
M  V30 5905 H 555.189 -0.722219 0.165773 0
M  V30 5906 H 557.836 -1.58092 1.0807 0
M  V30 5907 H 556.141 -3.91726 -0.0759081 0
M  V30 5908 H 557.838 -3.99823 0.306964 0
M  V30 5909 H 554.428 -3.91764 1.73836 0
M  V30 5910 H 558.612 -4.174 2.68498 0
M  V30 5911 H 553.868 -4.59402 4.03435 0
M  V30 5912 H 558.042 -4.86372 4.98413 0
M  V30 5913 H 555.669 -5.07052 5.66395 0
M  V30 5914 N 557.244 -0.608902 -1.45362 0
M  V30 5915 C 558.176 0.147318 -2.28726 0
M  V30 5916 C 559.189 0.830468 -1.40025 0
M  V30 5917 O 560.378 0.695636 -1.64387 0
M  V30 5918 C 557.478 1.22968 -3.15804 0
M  V30 5919 C 556.651 0.633391 -4.3279 0
M  V30 5920 C 555.71 1.60682 -5.01067 0
M  V30 5921 O 554.736 1.13261 -5.57818 0
M  V30 5922 N 555.938 2.94123 -5.00472 0
M  V30 5923 H 558.703 -0.568014 -2.94268 0
M  V30 5924 H 556.264 -0.448479 -1.55564 0
M  V30 5925 H 558.256 1.88072 -3.58345 0
M  V30 5926 H 556.826 1.84752 -2.52162 0
M  V30 5927 H 556.046 -0.195762 -3.93714 0
M  V30 5928 H 557.334 0.215255 -5.08344 0
M  V30 5929 H 556.732 3.3525 -4.55657 0
M  V30 5930 H 555.289 3.54646 -5.46872 0
M  V30 5931 N 558.722 1.53707 -0.348139 0
M  V30 5932 C 559.685 2.23812 0.494058 0
M  V30 5933 C 560.685 1.23989 1.02388 0
M  V30 5934 O 561.875 1.48395 0.912396 0
M  V30 5935 C 559.007 2.96133 1.68872 0
M  V30 5936 H 560.2 2.99663 -0.119141 0
M  V30 5937 H 557.753 1.55983 -0.0995539 0
M  V30 5938 H 558.488 2.24481 2.34049 0
M  V30 5939 H 558.273 3.69357 1.31596 0
M  V30 5940 H 559.763 3.49475 2.28597 0
M  V30 5941 N 560.2 0.0768682 1.57412 0
M  V30 5942 C 561.428 -0.59997 1.9801 0
M  V30 5943 C 561.843 -1.62842 0.955408 0
M  V30 5944 O 561.2 -1.8241 -0.057314 0
M  V30 5945 C 561.251 -1.26401 3.38681 0
M  V30 5946 O 560.972 -0.276723 4.37225 0
M  V30 5947 C 562.473 -2.0282 3.94182 0
M  V30 5948 H 559.693 -0.162239 0.651091 0
M  V30 5949 H 562.237 0.150771 2.03943 0
M  V30 5950 H 560.392 -1.96581 3.33819 0
M  V30 5951 H 560.806 -0.753744 5.19056 0
M  V30 5952 H 562.28 -2.44667 4.94815 0
M  V30 5953 H 562.757 -2.88678 3.31001 0
M  V30 5954 H 563.363 -1.37496 4.02461 0
M  V30 5955 N 561.678 -1.56367 -0.196722 0
M  V30 5956 C 562.927 -1.79724 -0.915539 0
M  V30 5957 C 563.24 -0.649804 -1.84491 0
M  V30 5958 O 564.446 -0.767631 -2.60422 0
M  V30 5959 C 562.902 -3.18369 -1.67836 0
M  V30 5960 C 562.51 -4.4091 -0.793897 0
M  V30 5961 C 564.254 -3.51037 -2.38691 0
M  V30 5962 C 562.161 -5.70577 -1.55549 0
M  V30 5963 H 561.091 -0.67013 -0.345604 0
M  V30 5964 H 563.742 -1.82721 -0.168856 0
M  V30 5965 H 562.124 -3.09617 -2.46887 0
M  V30 5966 H 563.298 -4.60781 -0.042163 0
M  V30 5967 H 561.613 -4.15937 -0.19626 0
M  V30 5968 H 564.21 -4.4515 -2.96219 0
M  V30 5969 H 564.553 -2.74704 -3.12799 0
M  V30 5970 H 565.086 -3.61229 -1.66608 0
M  V30 5971 H 561.825 -6.49871 -0.857226 0
M  V30 5972 H 561.345 -5.54726 -2.2812 0
M  V30 5973 H 563.024 -6.11637 -2.10971 0
M  V30 5974 N 563.156 0.464375 -1.50603 0
M  V30 5975 C 564.384 1.23907 -1.65695 0
M  V30 5976 C 564.799 1.85658 -0.343027 0
M  V30 5977 O 564.156 1.69529 0.675739 0
M  V30 5978 C 564.207 2.3429 -2.75301 0
M  V30 5979 O 563.928 1.7507 -4.01599 0
M  V30 5980 C 565.429 3.25051 -3.01424 0
M  V30 5981 H 562.649 0.374485 -0.556778 0
M  V30 5982 H 565.193 0.55353 -1.96866 0
M  V30 5983 H 563.348 2.98607 -2.46804 0
M  V30 5984 H 563.762 2.47812 -4.62266 0
M  V30 5985 H 565.236 3.98699 -3.81763 0
M  V30 5986 H 565.713 3.84227 -2.12758 0
M  V30 5987 H 566.319 2.66463 -3.31477 0
M  V30 5988 N 564.634 1.40294 0.718013 0
M  V30 5989 C 565.883 1.37746 1.4734 0
M  V30 5990 C 566.196 -0.0180754 1.95592 0
M  V30 5991 O 567.402 -0.166166 2.70991 0
M  V30 5992 C 565.858 2.4208 2.66318 0
M  V30 5993 C 565.466 3.87432 2.24945 0
M  V30 5994 C 567.21 2.48635 3.44065 0
M  V30 5995 C 565.117 4.83368 3.40748 0
M  V30 5996 H 564.047 0.512165 0.553356 0
M  V30 5997 H 566.698 1.66019 0.781661 0
M  V30 5998 H 565.08 2.06903 3.3765 0
M  V30 5999 H 566.254 4.3174 1.6105 0
M  V30 6000 H 564.569 3.8433 1.60249 0
M  V30 6001 H 567.166 3.17499 4.30231 0
M  V30 6002 H 567.509 1.51611 3.87711 0
M  V30 6003 H 568.042 2.82791 2.79775 0
M  V30 6004 H 564.781 5.81716 3.02136 0
M  V30 6005 H 564.301 4.43726 4.03568 0
M  V30 6006 H 565.98 5.03074 4.06848 0
M  V30 6007 N 566.112 -0.949982 1.2575 0
M  V30 6008 C 567.358 -1.69766 1.10938 0
M  V30 6009 C 567.691 -1.91056 -0.348028 0
M  V30 6010 O 566.966 -1.48488 -1.25625 0
M  V30 6011 C 567.249 -3.07779 1.86933 0
M  V30 6012 C 567.102 -2.9387 3.4053 0
M  V30 6013 C 568.421 -4.07749 1.65616 0
M  V30 6014 H 565.54 -0.616144 0.404396 0
M  V30 6015 H 568.182 -1.10394 1.54639 0
M  V30 6016 H 566.332 -3.58462 1.4979 0
M  V30 6017 H 568.004 -2.50476 3.87375 0
M  V30 6018 H 566.247 -2.29686 3.68004 0
M  V30 6019 H 566.918 -3.91719 3.88922 0
M  V30 6020 H 569.394 -3.65994 1.97959 0
M  V30 6021 H 568.27 -5.02348 2.21218 0
M  V30 6022 H 568.531 -4.38029 0.598595 0
M  V30 6023 N 567.59 -1.07411 -1.15328 0
M  V30 6024 C 568.5 -0.706438 -2.23711 0
M  V30 6025 C 569.516 0.282586 -1.7169 0
M  V30 6026 O 570.692 0.129066 -2.00986 0
M  V30 6027 C 567.757 -0.11048 -3.46524 0
M  V30 6028 C 566.818 -1.15282 -4.13532 0
M  V30 6029 C 566.051 -0.585205 -5.30482 0
M  V30 6030 O 566.274 0.598549 -5.67251 0
M  V30 6031 O 565.208 -1.33039 -5.87013 0
M  V30 6032 H 569.034 -1.61031 -2.57493 0
M  V30 6033 H 566.619 -0.847113 -1.23062 0
M  V30 6034 H 568.501 0.21957 -4.20828 0
M  V30 6035 H 567.176 0.766703 -3.14489 0
M  V30 6036 H 566.083 -1.53523 -3.41147 0
M  V30 6037 H 567.416 -2.00192 -4.49649 0
M  V30 6038 N 569.068 1.32177 -0.85831 0
M  V30 6039 C 570.316 1.96735 -0.462568 0
M  V30 6040 C 570.637 1.6824 0.985911 0
M  V30 6041 O 569.907 0.991564 1.68952 0
M  V30 6042 H 568.487 0.727849 -0.168064 0
M  V30 6043 H 571.149 1.61195 -1.09554 0
M  V30 6044 H 570.245 3.06068 -0.610647 0
M  V30 6045 N 570.547 0.616602 1.45037 0
M  V30 6046 C 571.796 0.112861 2.01384 0
M  V30 6047 C 572.109 -1.26758 1.48969 0
M  V30 6048 O 573.315 -1.86454 1.9735 0
M  V30 6049 C 571.771 0.151057 3.59583 0
M  V30 6050 C 571.379 1.53191 4.20995 0
M  V30 6051 C 573.123 -0.296974 4.2346 0
M  V30 6052 C 571.03 1.526 5.71373 0
M  V30 6053 H 569.96 0.0384254 0.75302 0
M  V30 6054 H 572.611 0.773262 1.66412 0
M  V30 6055 H 570.993 -0.57617 3.91786 0
M  V30 6056 H 572.167 2.28156 4.00352 0
M  V30 6057 H 570.482 1.92279 3.69348 0
M  V30 6058 H 573.079 -0.320712 5.33737 0
M  V30 6059 H 573.422 -1.32145 3.9477 0
M  V30 6060 H 573.955 0.377279 3.96007 0
M  V30 6061 H 570.694 2.52837 6.04776 0
M  V30 6062 H 570.214 0.819064 5.94181 0
M  V30 6063 H 571.893 1.25357 6.3474 0
M  V30 6064 N 572.025 -1.5352 0.356285 0
M  V30 6065 C 572.955 -2.28372 -0.486661 0
M  V30 6066 C 573.936 -1.30432 -1.09185 0
M  V30 6067 O 575.121 -1.59291 -1.11085 0
M  V30 6068 C 572.251 -3.06604 -1.63129 0
M  V30 6069 C 571.205 -4.12154 -1.15381 0
M  V30 6070 C 570.531 -4.78415 -2.38796 0
M  V30 6071 C 571.831 -5.21724 -0.245179 0
M  V30 6072 H 573.525 -2.99083 0.137797 0
M  V30 6073 H 571.071 -1.43841 0.0677134 0
M  V30 6074 H 573.024 -3.57712 -2.22755 0
M  V30 6075 H 571.748 -2.33568 -2.28284 0
M  V30 6076 H 570.407 -3.61978 -0.580294 0
M  V30 6077 H 570.055 -4.01959 -3.02387 0
M  V30 6078 H 569.755 -5.49734 -2.07524 0
M  V30 6079 H 571.279 -5.32313 -2.99125 0
M  V30 6080 H 572.693 -5.68391 -0.748646 0
M  V30 6081 H 571.09 -6.00095 -0.0237608 0
M  V30 6082 H 572.16 -4.79596 0.715229 0
M  V30 6083 N 573.503 -0.0852151 -1.57369 0
M  V30 6084 C 574.413 0.891712 -2.16992 0
M  V30 6085 C 575.429 1.3174 -1.13669 0
M  V30 6086 O 576.605 1.38735 -1.45995 0
M  V30 6087 C 573.67 2.13635 -2.73059 0
M  V30 6088 C 572.731 1.7658 -3.91303 0
M  V30 6089 C 571.964 2.95111 -4.44686 0
M  V30 6090 O 572.187 4.09539 -3.97032 0
M  V30 6091 O 571.121 2.74149 -5.35841 0
M  V30 6092 H 574.947 0.414477 -3.00858 0
M  V30 6093 H 572.532 0.138598 -1.48756 0
M  V30 6094 H 574.414 2.86595 -3.08935 0
M  V30 6095 H 573.089 2.6043 -1.92244 0
M  V30 6096 H 571.996 1.00831 -3.60255 0
M  V30 6097 H 573.329 1.34557 -4.7345 0
M  V30 6098 N 574.981 1.5647 0.188427 0
M  V30 6099 C 576.227 1.81281 0.909124 0
M  V30 6100 C 576.56 0.66034 1.82628 0
M  V30 6101 O 575.835 -0.338737 1.91528 0
M  V30 6102 C 576.118 3.16388 1.7196 0
M  V30 6103 C 575.971 4.42137 0.826714 0
M  V30 6104 C 577.29 3.48256 2.69083 0
M  V30 6105 H 574.409 0.659457 0.329068 0
M  V30 6106 H 577.051 1.89182 0.176156 0
M  V30 6107 H 575.201 3.09784 2.34448 0
M  V30 6108 H 576.873 4.60794 0.216025 0
M  V30 6109 H 575.116 4.33594 0.133792 0
M  V30 6110 H 575.787 5.33184 1.42893 0
M  V30 6111 H 578.263 3.55203 2.16726 0
M  V30 6112 H 577.139 4.43899 3.2287 0
M  V30 6113 H 577.4 2.72088 3.48455 0
M  V30 6114 N 576.459 -0.456382 1.50847 0
M  V30 6115 C 577.407 -1.57318 1.71329 0
M  V30 6116 C 578.401 -1.59187 0.579287 0
M  V30 6117 O 579.607 -1.6316 0.76018 0
M  V30 6118 H 575.982 -0.5223 0.541024 0
M  V30 6119 H 577.953 -1.3721 2.64983 0
M  V30 6120 C 576.702 -2.95142 1.83811 0
M  V30 6121 H 576.025 -2.94428 2.70467 0
M  V30 6122 H 577.465 -3.72702 2.02161 0
M  V30 6123 C 575.924 -3.31636 0.593224 0
M  V30 6124 O 576.454 -4.00852 -0.260898 0
M  V30 6125 N 574.66 -2.87205 0.442902 0
M  V30 6126 H 574.207 -2.31051 1.13901 0
M  V30 6127 H 574.165 -3.11986 -0.38884 0
M  V30 6128 N 577.937 -1.40673 -0.710563 0
M  V30 6129 C 579.186 -1.38525 -1.46607 0
M  V30 6130 C 579.499 0.0077024 -1.95598 0
M  V30 6131 O 580.705 0.151792 -2.71075 0
M  V30 6132 C 579.161 -2.43489 -2.6503 0
M  V30 6133 C 578.769 -3.88619 -2.22888 0
M  V30 6134 C 580.513 -2.50456 -3.42742 0
M  V30 6135 C 578.42 -4.85168 -3.3818 0
M  V30 6136 H 577.35 -0.515092 -0.550632 0
M  V30 6137 H 580.001 -1.66431 -0.772846 0
M  V30 6138 H 578.383 -2.0869 -3.36548 0
M  V30 6139 H 579.557 -4.32588 -1.58758 0
M  V30 6140 H 577.872 -3.85174 -1.58208 0
M  V30 6141 H 580.469 -3.19776 -4.28541 0
M  V30 6142 H 580.812 -1.53665 -3.86902 0
M  V30 6143 H 581.345 -2.84271 -2.78271 0
M  V30 6144 H 578.084 -5.8331 -2.99047 0
M  V30 6145 H 577.604 -4.4586 -4.01209 0
M  V30 6146 H 579.283 -5.05225 -4.04174 0
M  V30 6147 N 579.415 0.9433 -1.26252 0
M  V30 6148 C 580.664 1.68369 -1.11062 0
M  V30 6149 C 580.977 1.92514 0.346104 0
M  V30 6150 O 582.183 2.64358 0.618646 0
M  V30 6151 C 580.639 3.03171 -1.93946 0
M  V30 6152 C 580.247 2.86782 -3.4418 0
M  V30 6153 C 581.991 3.80916 -1.87359 0
M  V30 6154 C 579.898 4.17044 -4.19319 0
M  V30 6155 H 578.828 0.631469 -0.412023 0
M  V30 6156 H 581.479 1.04922 -1.50544 0
M  V30 6157 H 579.861 3.67587 -1.47296 0
M  V30 6158 H 581.035 2.31229 -3.98585 0
M  V30 6159 H 579.35 2.22482 -3.51981 0
M  V30 6160 H 581.947 4.77417 -2.40784 0
M  V30 6161 H 582.29 4.07658 -0.843857 0
M  V30 6162 H 582.823 3.2327 -2.31821 0
M  V30 6163 H 579.562 3.95487 -5.22753 0
M  V30 6164 H 579.082 4.72319 -3.69696 0
M  V30 6165 H 580.761 4.85513 -4.27651 0
M  V30 6166 N 580.893 1.08022 1.14757 0
M  V30 6167 C 581.825 0.664566 2.19354 0
M  V30 6168 C 582.838 -0.286374 1.60261 0
M  V30 6169 O 584.027 -0.0746362 1.78344 0
M  V30 6170 C 581.127 -0.0434634 3.38872 0
M  V30 6171 C 580.3 0.925381 4.27499 0
M  V30 6172 C 579.359 0.253398 5.2559 0
M  V30 6173 O 578.385 0.896581 5.62094 0
M  V30 6174 N 579.587 -0.998263 5.71852 0
M  V30 6175 H 582.352 1.56438 2.55631 0
M  V30 6176 H 579.913 0.965788 1.29939 0
M  V30 6177 H 581.905 -0.503857 4.01551 0
M  V30 6178 H 580.475 -0.845321 3.00954 0
M  V30 6179 H 579.695 1.56472 3.61815 0
M  V30 6180 H 580.983 1.58203 4.8358 0
M  V30 6181 H 580.381 -1.54063 5.44317 0
M  V30 6182 H 578.938 -1.40222 6.36538 0
M  V30 6183 N 582.371 -1.3172 0.865308 0
M  V30 6184 C 583.304 -2.26687 0.262376 0
M  V30 6185 C 584.282 -1.50894 -0.605787 0
M  V30 6186 O 585.466 -1.79982 -0.56024 0
M  V30 6187 C 582.593 -3.3281 -0.628915 0
M  V30 6188 C 581.639 -4.26172 0.167278 0
M  V30 6189 S 582.472 -5.12797 1.54272 0
M  V30 6190 C 583.628 -6.22438 0.657427 0
M  V30 6191 H 583.861 -2.77478 1.0674 0
M  V30 6192 H 581.394 -1.39414 0.663555 0
M  V30 6193 H 583.352 -3.94426 -1.13747 0
M  V30 6194 H 582.013 -2.80782 -1.40785 0
M  V30 6195 H 581.206 -5.01392 -0.51203 0
M  V30 6196 H 580.808 -3.69029 0.607777 0
M  V30 6197 H 583.1 -6.77368 -0.133925 0
M  V30 6198 H 584.043 -6.9451 1.38061 0
M  V30 6199 H 584.451 -5.64043 0.227044 0
M  V30 6200 N 583.85 -0.624285 -1.44708 0
M  V30 6201 C 585.077 -0.132919 -2.06473 0
M  V30 6202 C 585.493 1.18967 -1.46602 0
M  V30 6203 O 584.85 1.72824 -0.586341 0
M  V30 6204 C 584.901 -0.00465418 -3.615 0
M  V30 6205 O 584.622 -1.27494 -4.19138 0
M  V30 6206 C 586.123 0.516213 -4.40284 0
M  V30 6207 H 583.343 -0.0765201 -0.666623 0
M  V30 6208 H 585.887 -0.856751 -1.85688 0
M  V30 6209 H 584.042 0.669583 -3.8157 0
M  V30 6210 H 584.456 -1.11536 -5.12504 0
M  V30 6211 H 585.93 0.554994 -5.49203 0
M  V30 6212 H 586.407 1.5419 -4.11245 0
M  V30 6213 H 587.013 -0.124542 -4.25118 0
M  V30 6214 N 585.328 1.53329 -0.364422 0
M  V30 6215 C 586.605 1.93557 0.281962 0
M  V30 6216 C 586.985 1.29786 1.6649 0
M  V30 6217 O 586.333 0.456512 2.23893 0
M  V30 6218 C 586.543 3.47405 0.333331 0
M  V30 6219 C 587.891 4.20699 0.574231 0
M  V30 6220 O 588.915 3.53779 0.414588 0
M  V30 6221 O 587.774 5.39287 0.885002 0
M  V30 6222 H 584.868 0.809573 0.168881 0
M  V30 6223 H 587.414 1.64494 -0.417121 0
M  V30 6224 H 586.186 3.86091 -0.636326 0
M  V30 6225 H 585.809 3.82697 1.07836 0
M  V30 6226 N 586.806 0.0935595 1.57322 0
M  V30 6227 C 588.052 -0.571355 1.94585 0
M  V30 6228 C 588.385 -1.67929 0.975366 0
M  V30 6229 O 587.66 -1.94498 0.00816206 0
M  V30 6230 C 587.943 -1.12797 3.41978 0
M  V30 6231 C 587.796 -0.0251881 4.49793 0
M  V30 6232 C 589.115 -2.02682 3.90651 0
M  V30 6233 H 586.234 -0.206223 0.70756 0
M  V30 6234 H 588.876 0.163956 1.89291 0
M  V30 6235 H 587.026 -1.75461 3.4662 0
M  V30 6236 H 588.698 0.608979 4.57263 0
M  V30 6237 H 586.941 0.641399 4.29032 0
M  V30 6238 H 587.612 -0.455433 5.50118 0
M  V30 6239 H 590.088 -1.49925 3.88152 0
M  V30 6240 H 588.964 -2.38555 4.94351 0
M  V30 6241 H 589.225 -2.94362 3.29854 0
M  V30 6242 N 588.284 -1.56567 -0.180126 0
M  V30 6243 C 589.214 -1.98753 -1.22553 0
M  V30 6244 C 590.195 -0.86175 -1.46656 0
M  V30 6245 O 591.38 -1.12719 -1.58139 0
M  V30 6246 C 588.51 -2.33988 -2.56645 0
M  V30 6247 C 587.464 -3.49445 -2.47128 0
M  V30 6248 C 586.79 -3.70397 -3.8563 0
M  V30 6249 C 588.09 -4.83171 -1.98352 0
M  V30 6250 H 589.784 -2.86332 -0.874896 0
M  V30 6251 H 587.33 -1.37757 -0.419414 0
M  V30 6252 H 589.283 -2.62097 -3.29974 0
M  V30 6253 H 588.007 -1.43309 -2.93479 0
M  V30 6254 H 586.666 -3.2145 -1.76254 0
M  V30 6255 H 586.314 -2.77023 -4.19842 0
M  V30 6256 H 586.014 -4.48077 -3.80132 0
M  V30 6257 H 587.538 -4.00897 -4.60558 0
M  V30 6258 H 588.952 -5.10213 -2.61449 0
M  V30 6259 H 587.349 -5.64425 -2.03823 0
M  V30 6260 H 588.419 -4.75753 -0.937402 0
M  V30 6261 N 589.762 0.448376 -1.51087 0
M  V30 6262 C 590.695 1.56298 -1.66272 0
M  V30 6263 C 591.673 1.54381 -0.510419 0
M  V30 6264 O 592.857 1.73671 -0.732854 0
M  V30 6265 C 589.984 2.94883 -1.66618 0
M  V30 6266 C 589.03 3.14868 -2.87681 0
M  V30 6267 S 589.863 2.9234 -4.48662 0
M  V30 6268 C 591.019 4.33227 -4.51735 0
M  V30 6269 H 591.252 1.43182 -2.6055 0
M  V30 6270 H 588.785 0.637309 -1.40633 0
M  V30 6271 H 590.743 3.74771 -1.67502 0
M  V30 6272 H 589.404 3.05371 -0.735358 0
M  V30 6273 H 588.597 4.16166 -2.84292 0
M  V30 6274 H 588.199 2.42788 -2.84482 0
M  V30 6275 H 590.491 5.26247 -4.26697 0
M  V30 6276 H 591.434 4.41653 -5.53487 0
M  V30 6277 H 591.842 4.16367 -3.81181 0
M  V30 6278 N 591.24 1.41047 0.703093 0
M  V30 6279 C 592.651 1.35657 1.28274 0
M  V30 6280 C 593.002 0.0360309 1.96167 0
M  V30 6281 O 592.127 -0.865833 1.98324 0
M  V30 6282 C 592.722 2.45707 2.33267 0
M  V30 6283 C 591.281 2.43738 2.86825 0
M  V30 6284 C 590.428 2.25941 1.60767 0
M  V30 6285 H 593.379 1.50672 0.49836 0
M  V30 6286 H 593.4 2.14333 3.14391 0
M  V30 6287 H 592.912 3.41805 1.83824 0
M  V30 6288 H 591.013 1.51375 3.40465 0
M  V30 6289 H 591.126 3.39779 3.37768 0
M  V30 6290 H 589.49 1.73681 1.86298 0
M  V30 6291 H 590.273 3.24054 1.1333 0
M  V30 6292 N 592.718 -0.936591 1.26751 0
M  V30 6293 C 593.964 -1.6858 1.12733 0
M  V30 6294 C 594.297 -1.91414 -0.327745 0
M  V30 6295 O 593.572 -1.49812 -1.24043 0
M  V30 6296 C 593.855 -3.05779 1.90187 0
M  V30 6297 C 593.708 -2.90242 3.43627 0
M  V30 6298 C 595.027 -4.0597 1.69931 0
M  V30 6299 H 592.146 -0.61182 0.410908 0
M  V30 6300 H 594.788 -1.08747 1.55801 0
M  V30 6301 H 592.938 -3.56853 1.53584 0
M  V30 6302 H 594.61 -2.46354 3.9001 0
M  V30 6303 H 592.853 -2.2577 3.70419 0
M  V30 6304 H 593.524 -3.87572 3.93055 0
M  V30 6305 H 596 -3.63874 2.0183 0
M  V30 6306 H 594.876 -4.99974 2.26534 0
M  V30 6307 H 595.137 -4.37369 0.64502 0
M  V30 6308 N 594.196 -1.08629 -1.14182 0
M  V30 6309 C 595.607 -0.838003 -1.66836 0
M  V30 6310 C 595.958 0.634885 -1.85644 0
M  V30 6311 O 595.083 1.49008 -1.56926 0
M  V30 6312 C 595.678 -1.51465 -3.03058 0
M  V30 6313 C 594.237 -1.31355 -3.52736 0
M  V30 6314 C 593.384 -1.57599 -2.28162 0
M  V30 6315 H 596.335 -1.24656 -0.982165 0
M  V30 6316 H 596.356 -0.943134 -3.68626 0
M  V30 6317 H 595.868 -2.58661 -2.89337 0
M  V30 6318 H 593.969 -0.262384 -3.71675 0
M  V30 6319 H 594.082 -2.04275 -4.33369 0
M  V30 6320 H 592.446 -0.997659 -2.34348 0
M  V30 6321 H 593.229 -2.66006 -2.17015 0
M  V30 6322 N 595.674 1.31259 -0.872281 0
M  V30 6323 C 596.92 1.973 -0.494414 0
M  V30 6324 C 597.275 1.67684 0.94339 0
M  V30 6325 O 596.568 0.964186 1.65572 0
M  V30 6326 C 596.762 3.50659 -0.690889 0
M  V30 6327 C 596.591 3.95179 -2.14624 0
M  V30 6328 C 595.361 4.21405 -2.7883 0
M  V30 6329 C 597.559 4.08948 -3.11875 0
M  V30 6330 N 595.541 4.52295 -4.15093 0
M  V30 6331 C 596.912 4.43576 -4.33174 0
M  V30 6332 C 598.967 3.91334 -3.07835 0
M  V30 6333 C 597.67 4.62429 -5.50956 0
M  V30 6334 C 599.696 4.11381 -4.24876 0
M  V30 6335 C 599.058 4.46343 -5.44938 0
M  V30 6336 H 595.157 0.747411 -0.230002 0
M  V30 6337 H 597.741 1.58741 -1.12736 0
M  V30 6338 H 595.912 3.88301 -0.0875162 0
M  V30 6339 H 597.644 4.03722 -0.281179 0
M  V30 6340 H 594.399 4.14131 -2.29767 0
M  V30 6341 H 594.823 4.71897 -4.8543 0
M  V30 6342 H 599.465 3.6339 -2.16119 0
M  V30 6343 H 597.183 4.8922 -6.43187 0
M  V30 6344 H 600.769 3.99235 -4.23205 0
M  V30 6345 H 599.649 4.6154 -6.33996 0
M  V30 6346 N 597.152 0.631951 1.44375 0
M  V30 6347 C 598.563 0.219036 1.85411 0
M  V30 6348 C 598.914 -1.22974 1.52879 0
M  V30 6349 O 598.039 -1.93579 0.967266 0
M  V30 6350 C 598.634 0.39075 3.36539 0
M  V30 6351 C 597.193 0.0323351 3.76386 0
M  V30 6352 C 596.34 0.703744 2.68221 0
M  V30 6353 H 599.291 0.837056 1.3483 0
M  V30 6354 H 599.312 -0.370056 3.78696 0
M  V30 6355 H 598.824 1.44527 3.60185 0
M  V30 6356 H 596.925 -1.02042 3.58355 0
M  V30 6357 H 597.038 0.442969 4.77048 0
M  V30 6358 H 595.402 0.138974 2.54321 0
M  V30 6359 H 596.185 1.76088 2.947 0
M  V30 6360 N 598.631 -1.53133 0.372548 0
M  V30 6361 C 599.541 -2.29671 -0.478379 0
M  V30 6362 C 600.557 -1.35913 -1.08644 0
M  V30 6363 O 601.733 -1.68975 -1.09588 0
M  V30 6364 C 598.798 -3.07625 -1.599 0
M  V30 6365 C 597.859 -4.17061 -1.01776 0
M  V30 6366 C 597.092 -4.91289 -2.08497 0
M  V30 6367 O 597.315 -4.65442 -3.29727 0
M  V30 6368 O 596.249 -5.7705 -1.71164 0
M  V30 6369 H 600.075 -3.03355 0.144649 0
M  V30 6370 H 597.66 -1.48773 0.136729 0
M  V30 6371 H 599.542 -3.56281 -2.25038 0
M  V30 6372 H 598.217 -2.3677 -2.2073 0
M  V30 6373 H 597.124 -3.72641 -0.330098 0
M  V30 6374 H 598.457 -4.90102 -0.453915 0
M  V30 6375 N 600.109 -0.101901 -1.5727 0
M  V30 6376 C 601.334 0.571759 -1.99363 0
M  V30 6377 C 601.759 1.60507 -0.980768 0
M  V30 6378 O 601.117 1.81231 0.0498517 0
M  V30 6379 C 601.165 1.18996 -3.404 0
M  V30 6380 O 600.269 2.30572 -3.41922 0
M  V30 6381 H 599.61 0.144449 -0.648098 0
M  V30 6382 H 602.14 -0.185325 -2.03759 0
M  V30 6383 H 602.15 1.52962 -3.78241 0
M  V30 6384 H 600.825 0.432984 -4.1364 0
M  V30 6385 H 599.402 1.98173 -3.15883 0
M  V30 6386 N 601.587 1.56661 0.17182 0
M  V30 6387 C 602.812 1.86459 0.908165 0
M  V30 6388 C 603.237 0.688181 1.75059 0
M  V30 6389 O 602.595 -0.362753 1.77634 0
M  V30 6390 C 602.643 3.14669 1.76112 0
M  V30 6391 O 601.747 2.96858 2.86268 0
M  V30 6392 H 601.088 0.613318 0.254434 0
M  V30 6393 H 603.618 2.03892 0.170113 0
M  V30 6394 H 603.628 3.46061 2.16115 0
M  V30 6395 H 602.303 3.99905 1.14233 0
M  V30 6396 H 600.88 2.76819 2.49852 0
M  V30 6397 N 603.065 -0.440357 1.51323 0
M  V30 6398 C 603.995 -1.54174 1.75364 0
M  V30 6399 C 604.976 -1.59039 0.603375 0
M  V30 6400 O 606.161 -1.74815 0.845774 0
M  V30 6401 C 603.291 -2.92277 1.87593 0
M  V30 6402 C 602.245 -3.02274 3.03009 0
M  V30 6403 C 601.571 -4.42327 3.00418 0
M  V30 6404 C 602.871 -2.76634 4.43024 0
M  V30 6405 H 604.565 -1.34307 2.67585 0
M  V30 6406 H 602.111 -0.644678 1.28763 0
M  V30 6407 H 604.064 -3.69284 2.02995 0
M  V30 6408 H 602.788 -3.13369 0.920179 0
M  V30 6409 H 601.447 -2.27706 2.87307 0
M  V30 6410 H 601.095 -4.60382 2.02626 0
M  V30 6411 H 600.795 -4.49946 3.77918 0
M  V30 6412 H 602.319 -5.21312 3.17909 0
M  V30 6413 H 603.733 -3.43376 4.59093 0
M  V30 6414 H 602.13 -2.95666 5.22208 0
M  V30 6415 H 603.2 -1.72262 4.5327 0
M  V30 6416 N 604.543 -1.41418 -0.695603 0
M  V30 6417 C 605.792 -1.40073 -1.4513 0
M  V30 6418 C 606.105 -0.0130439 -1.95596 0
M  V30 6419 O 607.311 0.123032 -2.71221 0
M  V30 6420 C 605.767 -2.46286 -2.62433 0
M  V30 6421 C 605.375 -3.90962 -2.18753 0
M  V30 6422 C 607.119 -2.54077 -3.40066 0
M  V30 6423 C 605.026 -4.88728 -3.33015 0
M  V30 6424 H 603.956 -0.520903 -0.545138 0
M  V30 6425 H 606.607 -1.67242 -0.75515 0
M  V30 6426 H 604.989 -2.12248 -3.34315 0
M  V30 6427 H 606.163 -4.34248 -1.54161 0
M  V30 6428 H 604.478 -3.86831 -1.54114 0
M  V30 6429 H 607.075 -3.24303 -4.25125 0
M  V30 6430 H 607.418 -1.5776 -3.8525 0
M  V30 6431 H 607.951 -2.87206 -2.75241 0
M  V30 6432 H 604.69 -5.86449 -2.92844 0
M  V30 6433 H 604.21 -4.50091 -3.96457 0
M  V30 6434 H 605.889 -5.09483 -3.98793 0
M  V30 6435 N 606.021 0.929856 -1.27246 0
M  V30 6436 C 607.298 1.65544 -1.04186 0
M  V30 6437 C 607.678 2.06796 0.424097 0
M  V30 6438 O 607.026 1.80053 1.40688 0
M  V30 6439 C 607.236 2.85912 -2.00138 0
M  V30 6440 C 608.584 3.57305 -2.29387 0
M  V30 6441 O 609.608 2.96036 -1.98094 0
M  V30 6442 O 608.467 4.67688 -2.82719 0
M  V30 6443 H 605.561 0.725473 -0.397011 0
M  V30 6444 H 608.107 0.980583 -1.38501 0
M  V30 6445 H 606.879 2.52403 -2.99013 0
M  V30 6446 H 606.502 3.61118 -1.66371 0
M  V30 6447 N 607.499 1.09233 1.13605 0
M  V30 6448 C 608.746 0.827159 1.84836 0
M  V30 6449 C 609.074 -0.647199 1.83416 0
M  V30 6450 O 608.329 -1.49228 1.26608 0
M  V30 6451 C 608.628 1.305 3.32723 0
M  V30 6452 C 608.294 2.78864 3.54325 0
M  V30 6453 C 606.956 3.19382 3.59928 0
M  V30 6454 C 609.308 3.74532 3.62457 0
M  V30 6455 C 606.636 4.54346 3.71196 0
M  V30 6456 C 608.988 5.09283 3.75252 0
M  V30 6457 C 607.652 5.49394 3.79108 0
M  V30 6458 H 606.922 0.302679 0.676363 0
M  V30 6459 H 609.569 1.36676 1.34134 0
M  V30 6460 H 607.874 0.68517 3.85762 0
M  V30 6461 H 609.571 1.07648 3.86281 0
M  V30 6462 H 606.161 2.46507 3.50617 0
M  V30 6463 H 610.345 3.44343 3.57409 0
M  V30 6464 H 605.601 4.84864 3.72447 0
M  V30 6465 H 609.775 5.83269 3.80487 0
M  V30 6466 H 607.402 6.5397 3.87591 0
M  V30 6467 N 608.977 -1.30795 0.87923 0
M  V30 6468 C 610.223 -1.96653 0.495519 0
M  V30 6469 C 610.556 -1.69282 -0.951703 0
M  V30 6470 O 609.831 -0.994374 -1.6716 0
M  V30 6471 C 610.114 -3.51898 0.764174 0
M  V30 6472 C 609.967 -3.88808 2.2616 0
M  V30 6473 C 611.286 -4.39462 0.236825 0
M  V30 6474 H 608.405 -0.7143 0.181507 0
M  V30 6475 H 611.047 -1.54765 1.10217 0
M  V30 6476 H 609.197 -3.87709 0.247841 0
M  V30 6477 H 610.869 -3.63051 2.8459 0
M  V30 6478 H 609.112 -3.37082 2.73053 0
M  V30 6479 H 609.783 -4.97086 2.4002 0
M  V30 6480 H 612.259 -4.10528 0.678683 0
M  V30 6481 H 611.135 -5.47018 0.454176 0
M  V30 6482 H 611.396 -4.33621 -0.861683 0
M  V30 6483 N 610.455 -0.639598 -1.44038 0
M  V30 6484 C 611.701 -0.147698 -2.02261 0
M  V30 6485 C 612.034 1.23031 -1.50256 0
M  V30 6486 O 611.309 1.81847 -0.690068 0
M  V30 6487 C 611.592 -0.14362 -3.59813 0
M  V30 6488 C 611.445 -1.55458 -4.22082 0
M  V30 6489 C 612.764 0.527317 -4.36929 0
M  V30 6490 H 609.883 -0.0551453 -0.734934 0
M  V30 6491 H 612.525 -0.817688 -1.71505 0
M  V30 6492 H 610.675 0.426898 -3.86147 0
M  V30 6493 H 612.347 -2.17464 -4.06826 0
M  V30 6494 H 610.59 -2.10594 -3.79253 0
M  V30 6495 H 611.261 -1.50369 -5.31124 0
M  V30 6496 H 613.737 0.0420504 -4.16079 0
M  V30 6497 H 612.613 0.499389 -5.46624 0
M  V30 6498 H 612.874 1.59914 -4.12165 0
M  V30 6499 N 611.933 1.52934 -0.380664 0
M  V30 6500 C 613.161 2.05886 0.204599 0
M  V30 6501 C 613.576 1.25305 1.41223 0
M  V30 6502 O 612.933 0.297504 1.80059 0
M  V30 6503 C 612.984 3.56764 0.583249 0
M  V30 6504 O 612.705 4.34292 -0.576398 0
M  V30 6505 C 614.206 4.2603 1.2253 0
M  V30 6506 H 611.426 0.670193 0.0328991 0
M  V30 6507 H 613.97 1.97148 -0.543397 0
M  V30 6508 H 612.125 3.65603 1.28115 0
M  V30 6509 H 612.539 5.23819 -0.267119 0
M  V30 6510 H 614.013 5.32868 1.44068 0
M  V30 6511 H 614.49 3.80698 2.19011 0
M  V30 6512 H 615.096 4.21485 0.568407 0
M  V30 6513 N 613.412 0.11024 1.57214 0
M  V30 6514 C 614.652 -0.553061 1.96775 0
M  V30 6515 C 615.016 -1.64403 0.991753 0
M  V30 6516 O 616.217 -2.36561 1.27642 0
M  V30 6517 C 614.488 -1.08004 3.4069 0
M  V30 6518 S 616.047 -1.75309 4.02259 0
M  V30 6519 H 612.865 -0.18003 0.68783 0
M  V30 6520 H 615.467 0.193242 1.94543 0
M  V30 6521 H 614.171 -0.274735 4.09479 0
M  V30 6522 H 613.702 -1.86182 3.46554 0
M  V30 6523 H 615.717 -3.03834 3.923 0
M  V30 6524 N 614.89 -1.56749 -0.16351 0
M  V30 6525 C 615.822 -1.93587 -1.22705 0
M  V30 6526 C 616.835 -0.829824 -1.40063 0
M  V30 6527 O 618.024 -1.10826 -1.39928 0
M  V30 6528 C 615.124 -2.1803 -2.59454 0
M  V30 6529 C 614.297 -3.4928 -2.63292 0
M  V30 6530 C 613.356 -3.62457 -3.8146 0
M  V30 6531 O 612.382 -4.35004 -3.67096 0
M  V30 6532 N 613.584 -2.97888 -4.9824 0
M  V30 6533 H 616.349 -2.8542 -0.914081 0
M  V30 6534 H 613.91 -1.58 -0.353214 0
M  V30 6535 H 615.902 -2.24102 -3.36987 0
M  V30 6536 H 614.472 -1.32543 -2.8311 0
M  V30 6537 H 613.692 -3.54795 -1.71796 0
M  V30 6538 H 614.98 -4.35632 -2.62873 0
M  V30 6539 H 614.378 -2.38833 -5.12811 0
M  V30 6540 H 612.935 -3.09545 -5.73607 0
M  V30 6541 N 616.368 0.432326 -1.51554 0
M  V30 6542 C 617.616 1.17901 -1.64146 0
M  V30 6543 C 617.937 1.91604 -0.362367 0
M  V30 6544 O 617.207 1.85764 0.621968 0
M  V30 6545 H 615.787 0.438206 -0.604966 0
M  V30 6546 H 618.449 0.495172 -1.88505 0
M  V30 6547 H 617.545 1.90584 -2.47152 0
M  V30 6548 N 617.846 1.41785 0.688094 0
M  V30 6549 C 619.071 1.45117 1.48175 0
M  V30 6550 C 619.496 0.060129 1.88004 0
M  V30 6551 O 618.854 -0.938385 1.55126 0
M  V30 6552 C 618.902 2.37224 2.71583 0
M  V30 6553 O 618.006 1.83443 3.69354 0
M  V30 6554 H 617.347 0.492208 0.445676 0
M  V30 6555 H 619.877 1.86329 0.845145 0
M  V30 6556 H 619.887 2.53353 3.19806 0
M  V30 6557 H 618.562 3.38293 2.41931 0
M  V30 6558 H 617.139 1.76802 3.28322 0
M  V30 6559 N 619.324 -0.923095 1.27737 0
M  V30 6560 C 620.573 -1.66581 1.13727 0
M  V30 6561 C 620.886 -1.9304 -0.315433 0
M  V30 6562 O 622.092 -2.65309 -0.57651 0
M  V30 6563 C 620.548 -3.00047 1.98745 0
M  V30 6564 C 620.156 -2.8127 3.48699 0
M  V30 6565 C 621.9 -3.77887 1.93395 0
M  V30 6566 C 619.807 -4.1032 4.25901 0
M  V30 6567 H 618.737 -0.624834 0.422017 0
M  V30 6568 H 621.388 -1.02514 1.52194 0
M  V30 6569 H 619.77 -3.65197 1.53125 0
M  V30 6570 H 620.944 -2.24859 4.02213 0
M  V30 6571 H 619.259 -2.16854 3.55476 0
M  V30 6572 H 621.856 -4.73526 2.48348 0
M  V30 6573 H 622.199 -4.06264 0.908605 0
M  V30 6574 H 622.732 -3.19541 2.36935 0
M  V30 6575 H 619.471 -3.8712 5.28978 0
M  V30 6576 H 618.991 -4.66377 3.77163 0
M  V30 6577 H 620.67 -4.78648 4.35321 0
M  V30 6578 N 620.802 -1.09834 -1.13024 0
M  V30 6579 C 622.213 -0.855651 -1.65938 0
M  V30 6580 C 622.564 0.615159 -1.86307 0
M  V30 6581 O 621.689 1.47335 -1.58497 0
M  V30 6582 C 622.284 -1.5467 -3.01434 0
M  V30 6583 C 620.843 -1.35088 -3.51323 0
M  V30 6584 C 619.99 -1.6001 -2.26478 0
M  V30 6585 H 622.941 -1.25691 -0.968889 0
M  V30 6586 H 622.962 -0.982179 -3.67605 0
M  V30 6587 H 622.474 -2.61715 -2.86578 0
M  V30 6588 H 620.575 -0.30179 -3.71376 0
M  V30 6589 H 620.688 -2.0886 -4.31178 0
M  V30 6590 H 619.052 -1.02246 -2.33276 0
M  V30 6591 H 619.835 -2.68293 -2.14182 0
M  V30 6592 N 622.28 1.30327 -0.886154 0
M  V30 6593 C 623.508 2.00254 -0.520176 0
M  V30 6594 C 623.923 1.66419 0.891637 0
M  V30 6595 O 623.28 0.901951 1.58654 0
M  V30 6596 C 623.331 3.54916 -0.686775 0
M  V30 6597 O 623.052 3.87547 -2.04301 0
M  V30 6598 C 624.553 4.42115 -0.323945 0
M  V30 6599 H 621.773 0.640204 -0.200947 0
M  V30 6600 H 624.317 1.66183 -1.19178 0
M  V30 6601 H 622.472 3.8735 -0.0625273 0
M  V30 6602 H 622.886 4.82247 -2.06249 0
M  V30 6603 H 624.36 5.49808 -0.491407 0
M  V30 6604 H 624.837 4.32953 0.73811 0
M  V30 6605 H 625.443 4.15129 -0.924565 0
M  V30 6606 N 623.758 0.647228 1.43697 0
M  V30 6607 C 624.668 -0.0487997 2.34549 0
M  V30 6608 C 625.684 -0.818586 1.53542 0
M  V30 6609 O 626.86 -0.767195 1.86215 0
M  V30 6610 C 623.925 -1.00734 3.31743 0
M  V30 6611 C 622.986 -0.23515 4.28655 0
M  V30 6612 C 622.219 -1.14803 5.21206 0
M  V30 6613 O 622.442 -2.38717 5.18045 0
M  V30 6614 O 621.376 -0.623667 5.9866 0
M  V30 6615 H 625.202 0.698863 2.9555 0
M  V30 6616 H 622.787 0.407412 1.43738 0
M  V30 6617 H 624.669 -1.55837 3.91526 0
M  V30 6618 H 623.344 -1.73534 2.73254 0
M  V30 6619 H 622.251 0.359319 3.7237 0
M  V30 6620 H 623.584 0.453152 4.9011 0
M  V30 6621 N 625.236 -1.5273 0.388769 0
M  V30 6622 C 626.482 -2.01871 -0.193877 0
M  V30 6623 C 626.815 -1.27475 -1.46505 0
M  V30 6624 O 626.09 -0.375063 -1.90849 0
M  V30 6625 C 626.373 -3.5712 -0.462336 0
M  V30 6626 C 626.226 -4.42186 0.824091 0
M  V30 6627 C 627.545 -4.21881 -1.25319 0
M  V30 6628 H 624.664 -0.733764 -0.0689899 0
M  V30 6629 H 627.306 -1.82796 0.518231 0
M  V30 6630 H 625.456 -3.73504 -1.06896 0
M  V30 6631 H 627.128 -4.37554 1.46096 0
M  V30 6632 H 625.371 -4.09219 1.43952 0
M  V30 6633 H 626.042 -5.48828 0.590905 0
M  V30 6634 H 628.518 -4.0947 -0.73981 0
M  V30 6635 H 627.394 -5.30487 -1.40977 0
M  V30 6636 H 627.655 -3.79478 -2.26824 0
M  V30 6637 N 626.714 -0.118576 -1.57153 0
M  V30 6638 C 627.954 0.542618 -1.97066 0
M  V30 6639 C 628.318 1.63874 -1.00046 0
M  V30 6640 O 629.519 2.3588 -1.28895 0
M  V30 6641 C 627.79 1.06196 -3.41258 0
M  V30 6642 S 629.349 1.73174 -4.03183 0
M  V30 6643 H 626.167 0.17638 -0.688775 0
M  V30 6644 H 628.769 -0.203556 -1.94437 0
M  V30 6645 H 627.473 0.253016 -4.09619 0
M  V30 6646 H 627.004 1.84342 -3.47536 0
M  V30 6647 H 629.019 3.01749 -3.93906 0
M  V30 6648 N 628.193 1.56834 0.155195 0
M  V30 6649 C 629.421 1.87049 0.884326 0
M  V30 6650 C 629.836 0.705839 1.7511 0
M  V30 6651 O 629.193 -0.324641 1.79589 0
M  V30 6652 C 629.244 3.1644 1.74781 0
M  V30 6653 O 628.965 4.28417 0.915978 0
M  V30 6654 C 630.466 3.60113 2.58522 0
M  V30 6655 H 627.686 0.620196 0.25612 0
M  V30 6656 H 630.23 2.03946 0.150445 0
M  V30 6657 H 628.385 3.01321 2.43484 0
M  V30 6658 H 628.799 5.02353 1.50803 0
M  V30 6659 H 630.273 4.53508 3.14698 0
M  V30 6660 H 630.75 2.85005 3.34169 0
M  V30 6661 H 631.356 3.77898 1.95124 0
M  V30 6662 N 629.671 -0.424282 1.51781 0
M  V30 6663 C 630.92 -1.16961 1.64326 0
M  V30 6664 C 631.233 -1.92035 0.371749 0
M  V30 6665 O 632.439 -2.68873 0.37676 0
M  V30 6666 C 630.895 -2.12782 2.90262 0
M  V30 6667 C 630.503 -1.43295 4.24465 0
M  V30 6668 C 632.247 -2.87667 3.12166 0
M  V30 6669 C 630.154 -2.37676 5.41538 0
M  V30 6670 H 629.084 -0.440293 0.612093 0
M  V30 6671 H 631.735 -0.435431 1.78259 0
M  V30 6672 H 630.117 -2.8969 2.69992 0
M  V30 6673 H 631.291 -0.718564 4.55163 0
M  V30 6674 H 629.606 -0.805118 4.08542 0
M  V30 6675 H 632.203 -3.58395 3.96808 0
M  V30 6676 H 632.546 -3.49758 2.25776 0
M  V30 6677 H 633.079 -2.17863 3.32837 0
M  V30 6678 H 629.818 -1.80255 6.30229 0
M  V30 6679 H 629.338 -3.07132 5.15199 0
M  V30 6680 H 631.017 -2.98529 5.74012 0
M  V30 6681 N 631.149 -1.42148 -0.680565 0
M  V30 6682 C 632.398 -1.41604 -1.43636 0
M  V30 6683 C 632.711 -0.0337887 -1.95571 0
M  V30 6684 O 633.917 0.0942588 -2.71336 0
M  V30 6685 C 632.373 -2.49056 -2.59806 0
M  V30 6686 C 631.981 -3.9326 -2.14594 0
M  V30 6687 C 633.725 -2.5767 -3.37352 0
M  V30 6688 C 631.632 -4.92232 -3.27813 0
M  V30 6689 H 630.562 -0.526656 -0.539583 0
M  V30 6690 H 633.213 -1.68033 -0.737369 0
M  V30 6691 H 631.595 -2.15782 -3.32045 0
M  V30 6692 H 632.769 -4.35858 -1.49546 0
M  V30 6693 H 631.084 -3.88443 -1.50002 0
M  V30 6694 H 633.681 -3.28794 -4.21662 0
M  V30 6695 H 634.024 -1.61837 -3.83555 0
M  V30 6696 H 634.557 -2.90109 -2.72179 0
M  V30 6697 H 631.296 -5.89522 -2.86607 0
M  V30 6698 H 630.816 -4.5427 -3.91661 0
M  V30 6699 H 632.495 -5.13684 -3.93367 0
M  V30 6700 N 632.627 0.916307 -1.28225 0
M  V30 6701 C 633.852 1.7043 -1.18188 0
M  V30 6702 C 634.277 1.86346 0.256274 0
M  V30 6703 O 633.635 1.37175 1.18544 0
M  V30 6704 C 633.683 3.07546 -1.88275 0
M  V30 6705 O 632.787 3.94904 -1.18848 0
M  V30 6706 H 632.128 0.521967 -0.410423 0
M  V30 6707 H 634.658 1.14589 -1.69501 0
M  V30 6708 H 634.668 3.57793 -1.96082 0
M  V30 6709 H 633.343 2.95279 -2.92887 0
M  V30 6710 H 631.92 3.53339 -1.19187 0
M  V30 6711 N 634.105 1.10431 1.1244 0
M  V30 6712 C 635.382 0.758797 1.80282 0
M  V30 6713 C 635.762 -0.754727 1.97147 0
M  V30 6714 O 635.11 -1.68094 1.54779 0
M  V30 6715 C 635.32 1.50982 3.14651 0
M  V30 6716 C 636.668 1.68232 3.8985 0
M  V30 6717 O 637.692 1.47319 3.24308 0
M  V30 6718 O 636.551 2.02905 5.07437 0
M  V30 6719 H 633.645 0.273756 0.780376 0
M  V30 6720 H 636.191 1.20713 1.19275 0
M  V30 6721 H 634.963 2.53989 2.97666 0
M  V30 6722 H 634.586 1.05435 3.83366 0
M  V30 6723 N 635.583 -1.29855 0.893053 0
M  V30 6724 C 636.994 -1.77946 0.564998 0
M  V30 6725 C 637.345 -1.73339 -0.919134 0
M  V30 6726 O 636.47 -1.3152 -1.71847 0
M  V30 6727 C 637.065 -3.23118 1.01883 0
M  V30 6728 C 635.624 -3.69013 0.742051 0
M  V30 6729 C 634.771 -2.50121 1.19727 0
M  V30 6730 H 637.722 -1.16611 1.07646 0
M  V30 6731 H 637.743 -3.78875 0.351249 0
M  V30 6732 H 637.255 -3.26439 2.09903 0
M  V30 6733 H 635.356 -3.71173 -0.325816 0
M  V30 6734 H 635.469 -4.60117 1.33527 0
M  V30 6735 H 633.833 -2.47128 0.616418 0
M  V30 6736 H 634.616 -2.56174 2.28538 0
M  V30 6737 N 637.061 -0.65484 -1.43351 0
M  V30 6738 C 638.289 -0.176685 -2.06144 0
M  V30 6739 C 638.704 1.15831 -1.49093 0
M  V30 6740 O 638.061 1.71542 -0.622868 0
M  V30 6741 C 638.112 -0.0813326 -3.61408 0
M  V30 6742 O 637.833 -1.36355 -4.1634 0
M  V30 6743 C 639.334 0.422706 -4.4128 0
M  V30 6744 H 636.554 -0.0906429 -0.66485 0
M  V30 6745 H 639.098 -0.895945 -1.83829 0
M  V30 6746 H 637.253 0.588496 -3.82904 0
M  V30 6747 H 637.667 -1.22381 -5.10023 0
M  V30 6748 H 639.141 0.438375 -5.50257 0
M  V30 6749 H 639.618 1.45432 -4.14423 0
M  V30 6750 H 640.224 -0.214687 -4.24758 0
M  V30 6751 N 638.539 1.52521 -0.396863 0
M  V30 6752 C 639.779 2.03583 0.182578 0
M  V30 6753 C 640.143 1.2766 1.43412 0
M  V30 6754 O 641.344 1.68884 2.09121 0
M  V30 6755 C 639.615 3.54724 0.436519 0
M  V30 6756 S 641.174 4.27598 0.985163 0
M  V30 6757 H 637.992 0.709186 0.0507529 0
M  V30 6758 H 640.594 1.87693 -0.546955 0
M  V30 6759 H 639.298 4.07567 -0.481343 0
M  V30 6760 H 638.829 3.74834 1.19427 0
M  V30 6761 H 640.844 4.41393 2.26686 0
M  V30 6762 N 640.017 0.126909 1.57088 0
M  V30 6763 C 640.927 -0.833867 2.1928 0
M  V30 6764 C 641.943 -1.2868 1.17122 0
M  V30 6765 O 643.119 -1.34815 1.49622 0
M  V30 6766 C 640.184 -2.0632 2.78627 0
M  V30 6767 C 639.245 -1.66143 3.95847 0
M  V30 6768 C 638.478 -2.83217 4.52354 0
M  V30 6769 O 638.701 -3.98868 4.0775 0
M  V30 6770 O 637.635 -2.59846 5.42922 0
M  V30 6771 H 641.461 -0.334564 3.01852 0
M  V30 6772 H 639.046 -0.0991091 1.49071 0
M  V30 6773 H 640.928 -2.78304 3.16425 0
M  V30 6774 H 639.603 -2.55242 1.99082 0
M  V30 6775 H 638.51 -0.912435 3.62802 0
M  V30 6776 H 639.843 -1.21957 4.76852 0
M  V30 6777 N 641.495 -1.56914 -0.146875 0
M  V30 6778 C 642.744 -1.82546 -0.857898 0
M  V30 6779 C 643.057 -0.708169 -1.8233 0
M  V30 6780 O 644.263 -0.850093 -2.57848 0
M  V30 6781 C 642.719 -3.23548 -1.57623 0
M  V30 6782 C 642.327 -4.43212 -0.653224 0
M  V30 6783 C 644.071 -3.58453 -2.27402 0
M  V30 6784 C 641.978 -5.75237 -1.37318 0
M  V30 6785 H 640.908 -0.680786 -0.32411 0
M  V30 6786 H 643.559 -1.83166 -0.110639 0
M  V30 6787 H 641.941 -3.17315 -2.36912 0
M  V30 6788 H 643.115 -4.60682 0.104452 0
M  V30 6789 H 641.43 -4.16351 -0.0638336 0
M  V30 6790 H 644.027 -4.54349 -2.81907 0
M  V30 6791 H 644.37 -2.84516 -3.03901 0
M  V30 6792 H 644.903 -3.66347 -1.55032 0
M  V30 6793 H 641.642 -6.52269 -0.650041 0
M  V30 6794 H 641.162 -5.61703 -2.10357 0
M  V30 6795 H 642.841 -6.18039 -1.91406 0
M  V30 6796 N 642.974 0.416227 -1.52004 0
M  V30 6797 C 644.202 1.18573 -1.69553 0
M  V30 6798 C 644.617 1.84472 -0.401919 0
M  V30 6799 O 643.974 1.71593 0.621463 0
M  V30 6800 C 644.025 2.25413 -2.82615 0
M  V30 6801 O 643.746 1.62205 -4.06966 0
M  V30 6802 C 645.247 3.15297 -3.11613 0
M  V30 6803 H 642.467 0.356582 -0.56841 0
M  V30 6804 H 645.011 0.490618 -1.98528 0
M  V30 6805 H 643.166 2.90604 -2.56179 0
M  V30 6806 H 643.58 2.3298 -4.69916 0
M  V30 6807 H 645.054 3.86351 -3.94255 0
M  V30 6808 H 645.531 3.77264 -2.24874 0
M  V30 6809 H 646.137 2.55783 -3.39787 0
M  V30 6810 N 644.452 1.42507 0.673017 0
M  V30 6811 C 645.384 1.42074 1.79854 0
M  V30 6812 C 646.397 0.319569 1.59633 0
M  V30 6813 O 647.586 0.582769 1.68719 0
M  V30 6814 C 644.686 1.19886 3.16987 0
M  V30 6815 C 643.859 2.42471 3.64042 0
M  V30 6816 C 642.918 2.15802 4.79913 0
M  V30 6817 O 641.944 2.89015 4.90366 0
M  V30 6818 N 643.146 1.16225 5.68746 0
M  V30 6819 H 645.911 2.3909 1.8071 0
M  V30 6820 H 643.472 1.37409 0.856171 0
M  V30 6821 H 645.464 0.999591 3.92161 0
M  V30 6822 H 644.034 0.313879 3.1102 0
M  V30 6823 H 643.254 2.77954 2.79526 0
M  V30 6824 H 644.542 3.24097 3.92223 0
M  V30 6825 H 643.94 0.556756 5.62954 0
M  V30 6826 H 642.497 1.02285 6.43724 0
M  V30 6827 N 645.93 -0.909495 1.28709 0
M  V30 6828 C 646.878 -2.03381 1.12866 0
M  V30 6829 C 647.872 -1.69335 0.0468074 0
M  V30 6830 O 649.078 -1.78819 0.205891 0
M  V30 6831 H 645.453 -0.666452 0.348348 0
M  V30 6832 H 647.424 -2.13885 2.08077 0
M  V30 6833 C 646.173 -3.38092 0.811742 0
M  V30 6834 H 645.496 -3.64786 1.63619 0
M  V30 6835 H 646.936 -4.17477 0.740869 0
M  V30 6836 C 645.395 -3.33395 -0.484679 0
M  V30 6837 O 645.925 -3.72089 -1.5137 0
M  V30 6838 N 644.131 -2.86491 -0.486961 0
M  V30 6839 H 643.678 -2.55199 0.350877 0
M  V30 6840 H 643.636 -2.83731 -1.3544 0
M  V30 6841 N 647.408 -1.11026 -1.11852 0
M  V30 6842 C 648.636 -0.878818 -1.87308 0
M  V30 6843 C 649.051 0.57111 -1.79955 0
M  V30 6844 O 648.408 1.39409 -1.17777 0
M  V30 6845 C 648.459 -1.3264 -3.36287 0
M  V30 6846 O 648.18 -2.71948 -3.43476 0
M  V30 6847 C 649.681 -1.12974 -4.28663 0
M  V30 6848 H 646.901 -0.315015 -0.592458 0
M  V30 6849 H 649.445 -1.47649 -1.41492 0
M  V30 6850 H 647.6 -0.772269 -3.79625 0
M  V30 6851 H 648.014 -2.91241 -4.3621 0
M  V30 6852 H 649.488 -1.49198 -5.31454 0
M  V30 6853 H 649.965 -0.0689127 -4.39146 0
M  V30 6854 H 650.571 -1.67064 -3.91113 0
M  V30 6855 N 648.886 1.2938 -0.899927 0
M  V30 6856 C 650.132 1.9584 -0.526742 0
M  V30 6857 C 650.465 1.70774 0.924651 0
M  V30 6858 O 649.74 1.02084 1.65557 0
M  V30 6859 C 650.023 3.50638 -0.820062 0
M  V30 6860 C 649.876 3.85161 -2.32317 0
M  V30 6861 C 651.195 4.3903 -0.30671 0
M  V30 6862 H 648.314 0.711322 -0.192848 0
M  V30 6863 H 650.956 1.52992 -1.12665 0
M  V30 6864 H 649.106 3.87265 -0.309491 0
M  V30 6865 H 650.778 3.58477 -2.9033 0
M  V30 6866 H 649.021 3.32696 -2.78381 0
M  V30 6867 H 649.692 4.93204 -2.47898 0
M  V30 6868 H 652.168 4.09396 -0.743908 0
M  V30 6869 H 651.044 5.46226 -0.541144 0
M  V30 6870 H 651.305 4.34937 0.792588 0
M  V30 6871 N 650.364 0.662433 1.43002 0
M  V30 6872 C 651.604 0.183312 2.03576 0
M  V30 6873 C 651.968 -1.18354 1.51183 0
M  V30 6874 O 653.169 -1.7566 2.03462 0
M  V30 6875 C 651.44 0.202908 3.56824 0
M  V30 6876 S 652.999 -0.20702 4.38311 0
M  V30 6877 H 649.817 0.0765001 0.706872 0
M  V30 6878 H 652.419 0.872827 1.74934 0
M  V30 6879 H 651.123 1.20028 3.92456 0
M  V30 6880 H 650.654 -0.506845 3.90121 0
M  V30 6881 H 652.669 -1.44358 4.74737 0
M  V30 6882 N 651.842 -1.52309 0.404946 0
M  V30 6883 C 653.067 -2.06666 -0.1743 0
M  V30 6884 C 653.492 -1.27341 -1.38441 0
M  V30 6885 O 652.85 -0.302539 -1.78758 0
M  V30 6886 C 652.898 -3.57014 -0.507262 0
M  V30 6887 O 652.002 -3.80144 -1.59889 0
M  V30 6888 H 651.343 -0.663807 -0.0160273 0
M  V30 6889 H 653.873 -1.96297 0.576937 0
M  V30 6890 H 653.883 -4.00724 -0.767098 0
M  V30 6891 H 652.558 -4.14184 0.377368 0
M  V30 6892 H 651.135 -3.48316 -1.33155 0
M  V30 6893 N 653.32 -0.135238 -1.57019 0
M  V30 6894 C 654.731 0.387521 -1.82634 0
M  V30 6895 C 655.082 1.65528 -1.05332 0
M  V30 6896 O 654.207 2.14381 -0.294926 0
M  V30 6897 C 654.802 0.709852 -3.3128 0
M  V30 6898 C 653.361 1.17718 -3.57518 0
M  V30 6899 C 652.508 0.194183 -2.76619 0
M  V30 6900 H 655.459 -0.360126 -1.5456 0
M  V30 6901 H 655.48 1.5657 -3.46794 0
M  V30 6902 H 654.992 -0.213024 -3.87515 0
M  V30 6903 H 653.093 2.1164 -3.06658 0
M  V30 6904 H 653.206 1.11128 -4.66034 0
M  V30 6905 H 651.57 0.684478 -2.4533 0
M  V30 6906 H 652.353 -0.722076 -3.3562 0
M  V30 6907 N 654.798 1.5699 0.138552 0
M  V30 6908 C 656.044 1.84081 0.85099 0
M  V30 6909 C 656.377 0.718107 1.80435 0
M  V30 6910 O 655.652 -0.277633 1.92508 0
M  V30 6911 C 655.935 3.21699 1.61808 0
M  V30 6912 C 655.788 4.44544 0.685633 0
M  V30 6913 C 657.107 3.5664 2.57868 0
M  V30 6914 H 654.226 0.669592 0.307922 0
M  V30 6915 H 656.868 1.89646 0.11588 0
M  V30 6916 H 655.018 3.17086 2.24474 0
M  V30 6917 H 656.69 4.61248 0.0693179 0
M  V30 6918 H 654.933 4.338 -0.00421993 0
M  V30 6919 H 655.604 5.3746 1.25858 0
M  V30 6920 H 658.08 3.61918 2.05316 0
M  V30 6921 H 656.956 4.53946 3.08584 0
M  V30 6922 H 657.217 2.83036 3.39622 0
M  V30 6923 N 656.276 -0.40816 1.52223 0
M  V30 6924 C 657.553 -1.16807 1.56893 0
M  V30 6925 C 657.933 -2.08169 0.350537 0
M  V30 6926 O 657.281 -2.18684 -0.662536 0
M  V30 6927 C 657.491 -1.94451 2.8981 0
M  V30 6928 C 658.839 -2.50484 3.42845 0
M  V30 6929 O 659.863 -2.0463 2.91556 0
M  V30 6930 O 658.722 -3.34192 4.3241 0
M  V30 6931 H 655.816 -0.533382 0.632007 0
M  V30 6932 H 658.362 -0.414862 1.64551 0
M  V30 6933 H 657.134 -1.27527 3.69936 0
M  V30 6934 H 656.757 -2.76775 2.85449 0
M  V30 6935 N 657.755 -1.42862 -0.66545 0
M  V30 6936 C 659.001 -1.44043 -1.42757 0
M  V30 6937 C 659.334 -0.0599629 -1.94107 0
M  V30 6938 O 658.609 0.917286 -1.71511 0
M  V30 6939 C 658.892 -2.47266 -2.61786 0
M  V30 6940 C 658.745 -3.94539 -2.16007 0
M  V30 6941 C 660.064 -2.47365 -3.64003 0
M  V30 6942 H 657.183 -0.524506 -0.517748 0
M  V30 6943 H 659.825 -1.74335 -0.755466 0
M  V30 6944 H 657.975 -2.21565 -3.19126 0
M  V30 6945 H 659.647 -4.31254 -1.63762 0
M  V30 6946 H 657.89 -4.07957 -1.47491 0
M  V30 6947 H 658.561 -4.62357 -3.01546 0
M  V30 6948 H 661.037 -2.70243 -3.16399 0
M  V30 6949 H 659.913 -3.21552 -4.44854 0
M  V30 6950 H 660.174 -1.50299 -4.15767 0
M  V30 6951 N 659.233 0.902656 -1.29189 0
M  V30 6952 C 660.51 1.63296 -1.07674 0
M  V30 6953 C 660.89 2.07649 0.380137 0
M  V30 6954 O 660.238 1.82997 1.36837 0
M  V30 6955 C 660.448 2.81603 -2.06158 0
M  V30 6956 C 661.796 3.52359 -2.36914 0
M  V30 6957 O 662.82 2.91767 -2.04329 0
M  V30 6958 O 661.679 4.61586 -2.92576 0
M  V30 6959 H 658.773 0.716889 -0.41231 0
M  V30 6960 H 661.319 0.950984 -1.4055 0
M  V30 6961 H 660.091 2.46004 -3.04299 0
M  V30 6962 H 659.714 3.57508 -1.73993 0
M  V30 6963 N 660.711 1.11618 1.11262 0
M  V30 6964 C 661.621 0.78898 2.20935 0
M  V30 6965 C 662.637 -0.21867 1.7262 0
M  V30 6966 O 663.813 -0.0543826 2.01327 0
M  V30 6967 C 660.878 0.239014 3.45875 0
M  V30 6968 C 659.939 1.3055 4.08968 0
M  V30 6969 C 659.172 0.781687 5.27944 0
M  V30 6970 O 659.395 -0.387605 5.69082 0
M  V30 6971 O 658.329 1.54734 5.81671 0
M  V30 6972 H 662.155 1.70477 2.51339 0
M  V30 6973 H 659.74 0.892203 1.19834 0
M  V30 6974 H 661.622 -0.0632312 4.21353 0
M  V30 6975 H 660.297 -0.649454 3.17118 0
M  V30 6976 H 659.204 1.66079 3.35214 0
M  V30 6977 H 660.537 2.16743 4.41909 0
M  V30 6978 N 662.189 -1.289 0.906776 0
M  V30 6979 C 663.122 -2.25737 0.334362 0
M  V30 6980 C 664.1 -1.52745 -0.557474 0
M  V30 6981 O 665.284 -1.81673 -0.502697 0
M  V30 6982 C 662.411 -3.34642 -0.522716 0
M  V30 6983 C 661.457 -4.25424 0.302777 0
M  V30 6984 S 662.29 -5.07629 1.70508 0
M  V30 6985 C 663.446 -6.20031 0.855118 0
M  V30 6986 H 663.679 -2.73941 1.15514 0
M  V30 6987 H 661.212 -1.37233 0.707573 0
M  V30 6988 H 663.17 -3.97845 -1.01141 0
M  V30 6989 H 661.831 -2.85119 -1.31781 0
M  V30 6990 H 661.024 -5.02767 -0.352257 0
M  V30 6991 H 660.626 -3.66908 0.724873 0
M  V30 6992 H 662.918 -6.77451 0.0816418 0
M  V30 6993 H 663.861 -6.89767 1.60087 0
M  V30 6994 H 664.269 -5.63035 0.406375 0
M  V30 6995 N 663.667 -0.670007 -1.42649 0
M  V30 6996 C 664.907 -0.194106 -2.03476 0
M  V30 6997 C 665.271 1.1755 -1.51809 0
M  V30 6998 O 666.472 1.74579 -2.04391 0
M  V30 6999 C 664.743 -0.221828 -3.56711 0
M  V30 7000 S 666.302 0.183772 -4.38415 0
M  V30 7001 H 663.12 -0.0802478 -0.706457 0
M  V30 7002 H 665.722 -0.882092 -1.74469 0
M  V30 7003 H 664.426 -1.22107 -3.91814 0
M  V30 7004 H 663.957 0.486149 -3.90385 0
M  V30 7005 H 665.972 1.41839 -4.75496 0
M  V30 7006 N 665.145 1.52092 -0.413018 0
M  V30 7007 C 666.075 2.30021 0.401567 0
M  V30 7008 C 667.056 1.34395 1.04269 0
M  V30 7009 O 668.241 1.63304 1.05097 0
M  V30 7010 C 665.371 3.12447 1.51638 0
M  V30 7011 C 664.325 4.16153 1.00005 0
M  V30 7012 C 663.651 4.86948 2.20875 0
M  V30 7013 C 664.951 5.22275 0.0513757 0
M  V30 7014 H 666.645 2.98365 -0.248704 0
M  V30 7015 H 664.191 1.4349 -0.121052 0
M  V30 7016 H 666.144 3.65733 2.09326 0
M  V30 7017 H 664.868 2.41879 2.19458 0
M  V30 7018 H 663.527 3.63882 0.445549 0
M  V30 7019 H 663.175 4.12905 2.8726 0
M  V30 7020 H 662.875 5.57057 1.86978 0
M  V30 7021 H 664.399 5.43048 2.79162 0
M  V30 7022 H 665.813 5.70778 0.537176 0
M  V30 7023 H 664.21 5.9977 -0.198977 0
M  V30 7024 H 665.28 4.76611 -0.892736 0
M  V30 7025 N 666.623 0.143563 1.56945 0
M  V30 7026 C 667.553 -0.7936 2.196 0
M  V30 7027 C 668.534 -1.25955 1.14321 0
M  V30 7028 O 669.719 -1.31773 1.42651 0
M  V30 7029 C 666.849 -2.03424 2.81489 0
M  V30 7030 C 665.803 -1.70519 3.92565 0
M  V30 7031 C 665.129 -3.01817 4.41373 0
M  V30 7032 C 666.429 -0.95449 5.13504 0
M  V30 7033 H 668.123 -0.271423 2.98167 0
M  V30 7034 H 665.669 -0.12911 1.4342 0
M  V30 7035 H 667.622 -2.69463 3.23987 0
M  V30 7036 H 666.346 -2.58008 2.00248 0
M  V30 7037 H 665.005 -1.06859 3.5068 0
M  V30 7038 H 664.653 -3.54386 3.56959 0
M  V30 7039 H 664.353 -2.80565 5.16292 0
M  V30 7040 H 665.877 -3.68934 4.86539 0
M  V30 7041 H 667.291 -1.5169 5.52868 0
M  V30 7042 H 665.688 -0.842035 5.94163 0
M  V30 7043 H 666.758 0.0544033 4.84869 0
M  V30 7044 N 668.101 -1.57061 -0.130224 0
M  V30 7045 C 669.329 -1.88432 -0.854456 0
M  V30 7046 C 669.744 -0.733608 -1.73964 0
M  V30 7047 O 669.101 0.296029 -1.80083 0
M  V30 7048 C 669.152 -3.1918 -1.69724 0
M  V30 7049 O 668.873 -4.2982 -0.847705 0
M  V30 7050 C 670.374 -3.6418 -2.5276 0
M  V30 7051 H 667.594 -0.624193 -0.246221 0
M  V30 7052 H 670.138 -2.04159 -0.11798 0
M  V30 7053 H 668.293 -3.05156 -2.3866 0
M  V30 7054 H 668.707 -5.04689 -1.42792 0
M  V30 7055 H 670.181 -4.58457 -3.07443 0
M  V30 7056 H 670.658 -2.90285 -3.29592 0
M  V30 7057 H 671.264 -3.80954 -1.89087 0
M  V30 7058 N 669.579 0.400081 -1.52437 0
M  V30 7059 C 670.825 1.14788 -1.67187 0
M  V30 7060 C 671.158 1.89928 -0.405074 0
M  V30 7061 O 670.433 1.85118 0.596804 0
M  V30 7062 C 670.716 2.13507 -2.89977 0
M  V30 7063 C 670.569 1.42204 -4.2673 0
M  V30 7064 C 671.888 3.14069 -3.083 0
M  V30 7065 H 669.007 0.415939 -0.608411 0
M  V30 7066 H 671.649 0.432542 -1.85011 0
M  V30 7067 H 669.799 2.7451 -2.74912 0
M  V30 7068 H 671.471 0.842503 -4.53541 0
M  V30 7069 H 669.714 0.723939 -4.27717 0
M  V30 7070 H 670.385 2.14281 -5.08712 0
M  V30 7071 H 672.861 2.63148 -3.22323 0
M  V30 7072 H 671.737 3.80398 -3.95713 0
M  V30 7073 H 671.998 3.82309 -2.22018 0
M  V30 7074 N 671.057 1.43213 0.657864 0
M  V30 7075 C 672.473 1.26511 0.972992 0
M  V30 7076 C 672.673 0.181477 2.00681 0
M  V30 7077 O 671.729 -0.441649 2.48608 0
M  V30 7078 C 673.042 2.62784 1.46168 0
M  V30 7079 C 674.59 2.70278 1.57857 0
M  V30 7080 C 675.065 4.06958 2.10117 0
M  V30 7081 N 676.556 4.08999 2.17426 0
M  V30 7082 C 677.291 5.11585 2.58975 0
M  V30 7083 N 676.787 6.24548 2.99853 0
M  V30 7084 N 678.58 4.9894 2.58873 0
M  V30 7085 H 670.731 2.12384 -0.0263129 0
M  V30 7086 H 672.994 0.946638 0.0507992 0
M  V30 7087 H 672.7 3.43022 0.776474 0
M  V30 7088 H 672.574 2.87863 2.43751 0
M  V30 7089 H 674.961 1.90376 2.25479 0
M  V30 7090 H 675.042 2.4897 0.587179 0
M  V30 7091 H 674.686 4.87325 1.43098 0
M  V30 7092 H 674.616 4.25628 3.10078 0
M  V30 7093 H 677.107 3.27457 1.88627 0
M  V30 7094 H 677.42 6.98661 3.30292 0
M  V30 7095 H 675.765 6.28027 2.97669 0
M  V30 7096 H 678.956 4.09757 2.26311 0
M  V30 7097 H 679.129 5.79019 2.90932 0
M  V30 7098 N 672.536 -0.895792 1.29666 0
M  V30 7099 C 673.952 -1.17726 1.07763 0
M  V30 7100 C 674.152 -2.00794 -0.168576 0
M  V30 7101 O 673.208 -2.37213 -0.865244 0
M  V30 7102 C 674.521 -1.89441 2.33522 0
M  V30 7103 C 676.069 -2.02251 2.3888 0
M  V30 7104 C 676.544 -2.77378 3.64452 0
M  V30 7105 N 678.035 -2.8493 3.65198 0
M  V30 7106 C 678.77 -3.43606 4.59045 0
M  V30 7107 N 678.266 -4.03417 5.63228 0
M  V30 7108 N 680.059 -3.41317 4.46608 0
M  V30 7109 H 672.21 -0.341652 2.09634 0
M  V30 7110 H 674.473 -0.213865 0.923561 0
M  V30 7111 H 674.179 -1.35842 3.24407 0
M  V30 7112 H 674.053 -2.89893 2.41334 0
M  V30 7113 H 676.44 -2.55025 1.4848 0
M  V30 7114 H 676.521 -1.0092 2.3505 0
M  V30 7115 H 676.165 -2.25279 4.55205 0
M  V30 7116 H 676.095 -3.79062 3.65541 0
M  V30 7117 H 678.586 -2.42453 2.89871 0
M  V30 7118 H 678.899 -4.46224 6.30955 0
M  V30 7119 H 677.244 -4.01868 5.67033 0
M  V30 7120 H 680.435 -2.93812 3.64407 0
M  V30 7121 H 680.608 -3.86751 5.1993 0
M  V30 7122 N 674.014 -1.12206 -1.10668 0
M  V30 7123 C 675.242 -0.898635 -1.86366 0
M  V30 7124 C 675.657 0.551991 -1.80551 0
M  V30 7125 O 675.014 1.38152 -1.19249 0
M  V30 7126 C 675.065 -1.36199 -3.34861 0
M  V30 7127 O 674.786 -2.75576 -3.40573 0
M  V30 7128 C 676.287 -1.17515 -4.2744 0
M  V30 7129 H 673.507 -0.321281 -0.589084 0
M  V30 7130 H 676.051 -1.49142 -1.39918 0
M  V30 7131 H 674.206 -0.81249 -3.78784 0
M  V30 7132 H 674.62 -2.95851 -4.33096 0
M  V30 7133 H 676.094 -1.54827 -5.29842 0
M  V30 7134 H 676.571 -0.115486 -4.39048 0
M  V30 7135 H 677.177 -1.71203 -3.89319 0
M  V30 7136 N 675.492 1.28418 -0.913599 0
M  V30 7137 C 676.739 1.94981 -0.546674 0
M  V30 7138 C 677.067 1.7192 0.909606 0
M  V30 7139 O 676.322 1.03314 1.66207 0
M  V30 7140 C 676.621 3.48283 -0.802099 0
M  V30 7141 C 676.287 3.91444 -2.2379 0
M  V30 7142 C 674.949 4.02939 -2.63046 0
M  V30 7143 C 677.301 4.13542 -3.17227 0
M  V30 7144 C 674.629 4.3391 -3.94891 0
M  V30 7145 C 676.981 4.45992 -4.48636 0
M  V30 7146 C 675.645 4.55698 -4.87746 0
M  V30 7147 H 674.915 0.713487 -0.200042 0
M  V30 7148 H 677.562 1.52756 -1.15489 0
M  V30 7149 H 675.867 3.91643 -0.111076 0
M  V30 7150 H 677.564 3.97903 -0.497375 0
M  V30 7151 H 674.154 3.83024 -1.9233 0
M  V30 7152 H 678.338 4.04114 -2.88107 0
M  V30 7153 H 673.594 4.39631 -4.24894 0
M  V30 7154 H 677.768 4.62038 -5.21051 0
M  V30 7155 H 675.395 4.79451 -5.89942 0
M  V30 7156 N 676.97 0.677563 1.42291 0
M  V30 7157 C 677.918 -0.0106755 2.32598 0
M  V30 7158 C 678.912 -0.787643 1.49975 0
M  V30 7159 O 680.118 -0.695295 1.66029 0
M  V30 7160 H 676.493 -0.0222482 0.751671 0
M  V30 7161 H 678.464 0.768312 2.88339 0
M  V30 7162 C 677.213 -0.946142 3.3458 0
M  V30 7163 H 676.536 -0.357701 3.98197 0
M  V30 7164 H 677.976 -1.39634 4.00348 0
M  V30 7165 C 676.435 -2.05383 2.67057 0
M  V30 7166 O 676.965 -3.1406 2.50458 0
M  V30 7167 N 675.171 -1.82635 2.26038 0
M  V30 7168 H 674.718 -0.942534 2.39737 0
M  V30 7169 H 674.676 -2.56937 1.81192 0
M  V30 7170 N 678.448 -1.51871 0.421078 0
M  V30 7171 C 679.696 -2.01539 -0.150492 0
M  V30 7172 C 680.017 -1.30803 -1.44623 0
M  V30 7173 O 679.287 -0.437568 -1.90951 0
M  V30 7174 H 677.867 -0.744698 -0.0586041 0
M  V30 7175 H 680.529 -1.8668 0.560059 0
M  V30 7176 H 679.625 -3.10264 -0.338068 0
M  V30 7177 N 679.926 -0.151884 -1.56866 0
M  V30 7178 C 681.151 0.508044 -2.01081 0
M  V30 7179 C 681.576 1.57306 -1.03134 0
M  V30 7180 O 680.934 1.81298 -0.0078309 0
M  V30 7181 C 680.982 1.08106 -3.44014 0
M  V30 7182 O 680.086 2.19577 -3.49084 0
M  V30 7183 H 679.427 0.123757 -0.652365 0
M  V30 7184 H 681.957 -0.250055 -2.03066 0
M  V30 7185 H 681.967 1.40851 -3.82916 0
M  V30 7186 H 680.642 0.301168 -4.14808 0
M  V30 7187 H 679.219 1.88023 -3.22027 0
M  V30 7188 N 681.404 1.57128 0.121893 0
M  V30 7189 C 682.652 1.84335 0.828548 0
M  V30 7190 C 682.973 0.736632 1.80551 0
M  V30 7191 O 682.243 -0.23962 1.94429 0
M  V30 7192 H 680.823 0.680108 0.30897 0
M  V30 7193 H 683.485 1.9459 0.109906 0
M  V30 7194 H 682.581 2.80152 1.37554 0
M  V30 7195 N 682.882 -0.391992 1.52647 0
M  V30 7196 C 684.11 -1.1586 1.71418 0
M  V30 7197 C 684.525 -1.8381 0.431216 0
M  V30 7198 O 683.882 -1.7256 -0.594085 0
M  V30 7199 C 683.933 -2.20888 2.86165 0
M  V30 7200 O 683.654 -1.5571 4.09495 0
M  V30 7201 C 685.155 -3.103 3.1659 0
M  V30 7202 H 682.375 -0.347494 0.574011 0
M  V30 7203 H 684.919 -0.458972 1.99283 0
M  V30 7204 H 683.074 -2.86492 2.6077 0
M  V30 7205 H 683.488 -2.25474 4.73563 0
M  V30 7206 H 684.962 -3.8003 4.00351 0
M  V30 7207 H 685.439 -3.73639 2.30848 0
M  V30 7208 H 686.045 -2.50345 3.43813 0
M  V30 7209 N 684.36 -1.4356 -0.65026 0
M  V30 7210 C 685.59 -1.48563 -1.4357 0
M  V30 7211 C 685.998 -0.103041 -1.88919 0
M  V30 7212 O 685.341 0.897602 -1.60277 0
M  V30 7213 C 685.403 -2.37181 -2.70158 0
M  V30 7214 C 685.067 -3.84673 -2.4673 0
M  V30 7215 C 686.064 -4.75704 -2.09765 0
M  V30 7216 C 683.749 -4.29189 -2.60963 0
M  V30 7217 C 685.743 -6.09249 -1.87334 0
M  V30 7218 C 683.43 -5.62787 -2.38147 0
M  V30 7219 C 684.428 -6.52634 -2.01389 0
M  V30 7220 O 684.116 -7.83761 -1.78813 0
M  V30 7221 H 683.848 -0.506743 -0.447423 0
M  V30 7222 H 686.402 -1.89001 -0.80423 0
M  V30 7223 H 684.632 -1.91636 -3.35876 0
M  V30 7224 H 686.321 -2.33354 -3.32116 0
M  V30 7225 H 687.087 -4.42589 -1.98343 0
M  V30 7226 H 682.966 -3.59529 -2.88548 0
M  V30 7227 H 686.51 -6.7934 -1.58567 0
M  V30 7228 H 682.407 -5.95469 -2.49173 0
M  V30 7229 H 683.175 -7.95368 -1.93214 0
M  V30 7230 N 685.838 0.888903 -1.30139 0
M  V30 7231 C 687.078 1.65456 -1.20015 0
M  V30 7232 C 687.442 1.90467 0.242148 0
M  V30 7233 O 688.643 2.6472 0.466561 0
M  V30 7234 C 686.914 2.96071 -2.00191 0
M  V30 7235 S 688.473 3.87055 -2.06721 0
M  V30 7236 H 685.291 0.567927 -0.427761 0
M  V30 7237 H 687.893 1.05539 -1.64565 0
M  V30 7238 H 686.597 2.7559 -3.04103 0
M  V30 7239 H 686.128 3.61023 -1.56288 0
M  V30 7240 H 688.143 4.81676 -1.19174 0
M  V30 7241 N 687.317 1.12792 1.10072 0
M  V30 7242 C 688.563 0.886857 1.82381 0
M  V30 7243 C 688.896 -0.58576 1.85155 0
M  V30 7244 O 688.171 -1.43317 1.31493 0
M  V30 7245 C 688.454 1.46703 3.28862 0
M  V30 7246 C 688.307 3.00829 3.34398 0
M  V30 7247 C 689.626 1.12971 4.25353 0
M  V30 7248 H 686.745 0.32362 0.662148 0
M  V30 7249 H 689.387 1.39513 1.28982 0
M  V30 7250 H 687.537 1.03476 3.74466 0
M  V30 7251 H 689.209 3.52764 2.97247 0
M  V30 7252 H 687.452 3.36164 2.74183 0
M  V30 7253 H 688.123 3.36519 4.3756 0
M  V30 7254 H 690.599 1.50313 3.88001 0
M  V30 7255 H 689.475 1.56223 5.26199 0
M  V30 7256 H 689.736 0.0424452 4.4208 0
M  V30 7257 N 688.795 -1.27931 0.920396 0
M  V30 7258 C 689.743 -2.29061 0.404191 0
M  V30 7259 C 690.737 -1.61615 -0.507634 0
M  V30 7260 O 691.943 -1.75765 -0.388144 0
M  V30 7261 H 688.318 -0.743594 0.112123 0
M  V30 7262 H 690.289 -2.70021 1.27008 0
M  V30 7263 C 689.038 -3.46088 -0.334466 0
M  V30 7264 H 688.361 -3.98194 0.35797 0
M  V30 7265 H 689.801 -4.18829 -0.660196 0
M  V30 7266 C 688.26 -2.99396 -1.54479 0
M  V30 7267 O 688.79 -3.02439 -2.64374 0
M  V30 7268 N 686.996 -2.54978 -1.39408 0
M  V30 7269 H 686.543 -2.52701 -0.500009 0
M  V30 7270 H 686.501 -2.24098 -2.20516 0
M  V30 7271 N 690.273 -0.685099 -1.4193 0
M  V30 7272 C 691.203 -0.0273506 -2.33484 0
M  V30 7273 C 692.184 0.778366 -1.51246 0
M  V30 7274 O 693.369 0.733449 -1.79817 0
M  V30 7275 C 690.499 0.917272 -3.34968 0
M  V30 7276 C 689.453 0.21941 -4.27437 0
M  V30 7277 C 688.779 1.27768 -5.1921 0
M  V30 7278 C 690.079 -0.907894 -5.14349 0
M  V30 7279 H 691.773 -0.791994 -2.88735 0
M  V30 7280 H 689.319 -0.382308 -1.38832 0
M  V30 7281 H 691.272 1.38657 -3.97935 0
M  V30 7282 H 689.996 1.71346 -2.78043 0
M  V30 7283 H 688.655 -0.229757 -3.65879 0
M  V30 7284 H 688.303 2.06612 -4.58607 0
M  V30 7285 H 688.003 0.815803 -5.81909 0
M  V30 7286 H 689.527 1.7477 -5.85054 0
M  V30 7287 H 690.941 -0.519348 -5.70943 0
M  V30 7288 H 689.338 -1.2962 -5.85934 0
M  V30 7289 H 690.408 -1.75218 -4.52136 0
M  V30 7290 N 691.751 1.51645 -0.429126 0
M  V30 7291 C 692.979 2.06433 0.138994 0
M  V30 7292 C 693.394 1.29735 1.37165 0
M  V30 7293 O 692.751 0.354638 1.79021 0
M  V30 7294 C 692.802 3.58439 0.469452 0
M  V30 7295 O 692.523 4.32238 -0.714273 0
M  V30 7296 C 694.024 4.29712 1.08914 0
M  V30 7297 H 691.244 0.6709 0.0115608 0
M  V30 7298 H 693.788 1.9532 -0.605843 0
M  V30 7299 H 691.943 3.69494 1.16419 0
M  V30 7300 H 692.357 5.22704 -0.433633 0
M  V30 7301 H 693.831 5.37182 1.27042 0
M  V30 7302 H 694.308 3.87473 2.06788 0
M  V30 7303 H 694.914 4.2308 0.434028 0
M  V30 7304 N 693.229 0.160201 1.56784 0
M  V30 7305 C 694.159 -0.770264 2.2043 0
M  V30 7306 C 695.14 -1.24736 1.15651 0
M  V30 7307 O 696.325 -1.30253 1.44041 0
M  V30 7308 C 693.455 -2.00427 2.83631 0
M  V30 7309 C 692.409 -1.66345 3.94352 0
M  V30 7310 C 691.735 -2.97119 4.4455 0
M  V30 7311 C 693.035 -0.899972 5.14488 0
M  V30 7312 H 694.729 -0.239783 2.98438 0
M  V30 7313 H 692.275 -0.113891 1.43549 0
M  V30 7314 H 694.228 -2.66012 3.26827 0
M  V30 7315 H 692.952 -2.5587 2.02973 0
M  V30 7316 H 691.611 -1.03133 3.51794 0
M  V30 7317 H 691.259 -3.5058 3.60698 0
M  V30 7318 H 690.959 -2.75073 5.19238 0
M  V30 7319 H 692.483 -3.63753 4.90425 0
M  V30 7320 H 693.897 -1.45818 5.54446 0
M  V30 7321 H 692.294 -0.778968 5.95023 0
M  V30 7322 H 693.364 0.105827 4.84785 0
M  V30 7323 N 694.707 -1.5719 -0.113559 0
M  V30 7324 C 695.955 -1.84772 -0.818761 0
M  V30 7325 C 696.276 -0.746196 -1.80158 0
M  V30 7326 O 695.546 0.229305 -1.94553 0
M  V30 7327 H 694.126 -0.681737 -0.305359 0
M  V30 7328 H 696.788 -1.94645 -0.0995845 0
M  V30 7329 H 695.884 -2.80878 -1.36067 0
M  V30 7330 N 696.185 0.383891 -1.52853 0
M  V30 7331 C 697.462 1.14296 -1.58732 0
M  V30 7332 C 697.842 2.07585 -0.383611 0
M  V30 7333 O 697.19 2.1971 0.627661 0
M  V30 7334 C 697.4 1.89816 -2.92867 0
M  V30 7335 C 698.748 2.44998 -3.46787 0
M  V30 7336 O 699.772 1.99966 -2.94774 0
M  V30 7337 O 698.631 3.2727 -4.37672 0
M  V30 7338 H 695.725 0.52326 -0.640413 0
M  V30 7339 H 698.271 0.388631 -1.6519 0
M  V30 7340 H 697.043 1.21626 -3.71918 0
M  V30 7341 H 696.666 2.72199 -2.89816 0
M  V30 7342 N 697.663 1.43903 0.642637 0
M  V30 7343 C 698.94 1.36556 1.40043 0
M  V30 7344 C 699.32 0.0185588 2.11092 0
M  V30 7345 O 698.668 -0.998438 2.05532 0
M  V30 7346 C 698.878 2.55596 2.37638 0
M  V30 7347 C 700.226 2.99153 3.01318 0
M  V30 7348 O 701.25 2.55719 2.47965 0
M  V30 7349 O 700.109 3.74427 3.98078 0
M  V30 7350 H 697.203 0.540189 0.626198 0
M  V30 7351 H 699.749 1.55971 0.668657 0
M  V30 7352 H 698.521 3.45256 1.84158 0
M  V30 7353 H 698.144 2.38334 3.18249 0
M  V30 7354 N 699.141 -0.881989 1.30609 0
M  V30 7355 C 700.369 -1.66711 1.22536 0
M  V30 7356 C 700.784 -1.87614 -0.2113 0
M  V30 7357 O 700.141 -1.42576 -1.13923 0
M  V30 7358 C 700.192 -3.04182 1.95335 0
M  V30 7359 O 699.913 -2.8422 3.33393 0
M  V30 7360 C 701.414 -3.98617 1.93956 0
M  V30 7361 H 698.634 -0.520124 0.423925 0
M  V30 7362 H 701.178 -1.10174 1.72285 0
M  V30 7363 H 699.333 -3.57442 1.49378 0
M  V30 7364 H 699.747 -3.71452 3.70302 0
M  V30 7365 H 701.221 -4.92433 2.49426 0
M  V30 7366 H 701.698 -4.29473 0.919198 0
M  V30 7367 H 702.304 -3.51292 2.39738 0
M  V30 7368 N 700.619 -1.13374 -1.09472 0
M  V30 7369 C 701.844 -0.918711 -1.85942 0
M  V30 7370 C 702.269 0.527225 -1.8056 0
M  V30 7371 O 701.627 1.37408 -1.18274 0
M  V30 7372 C 701.675 -1.41056 -3.31867 0
M  V30 7373 O 700.779 -0.595496 -4.08078 0
M  V30 7374 H 700.12 -0.329297 -0.576593 0
M  V30 7375 H 702.65 -1.50829 -1.38245 0
M  V30 7376 H 702.66 -1.41398 -3.82715 0
M  V30 7377 H 701.335 -2.46335 -3.35099 0
M  V30 7378 H 699.912 -0.659911 -3.67014 0
M  V30 7379 N 702.098 1.27442 -0.927168 0
M  V30 7380 C 703.028 2.29256 -0.443188 0
M  V30 7381 C 704.009 1.62701 0.49624 0
M  V30 7382 O 705.194 1.90013 0.401105 0
M  V30 7383 C 702.324 3.45955 0.305366 0
M  V30 7384 C 701.278 4.24501 -0.546178 0
M  V30 7385 C 700.604 5.33671 0.331512 0
M  V30 7386 C 701.904 4.89921 -1.81037 0
M  V30 7387 H 703.598 2.69988 -1.29409 0
M  V30 7388 H 701.144 1.29792 -0.623705 0
M  V30 7389 H 703.097 4.1628 0.654885 0
M  V30 7390 H 701.821 3.04138 1.19029 0
M  V30 7391 H 700.48 3.55921 -0.878398 0
M  V30 7392 H 700.128 4.88096 1.21537 0
M  V30 7393 H 699.828 5.87131 -0.234746 0
M  V30 7394 H 701.352 6.0684 0.676614 0
M  V30 7395 H 702.766 5.52536 -1.52895 0
M  V30 7396 H 701.163 5.53436 -2.32009 0
M  V30 7397 H 702.233 4.13652 -2.53021 0
M  V30 7398 N 703.576 0.692616 1.41565 0
M  V30 7399 C 704.539 0.0344174 2.29174 0
M  V30 7400 C 705.539 -0.710961 1.44229 0
M  V30 7401 O 706.729 -0.546293 1.65412 0
M  V30 7402 C 703.861 -0.961682 3.27054 0
M  V30 7403 H 705.054 0.805755 2.88873 0
M  V30 7404 H 702.607 0.455947 1.49502 0
M  V30 7405 H 703.342 -1.76089 2.72329 0
M  V30 7406 H 703.127 -0.430375 3.89731 0
M  V30 7407 H 704.617 -1.4201 3.92712 0
M  V30 7408 N 705.054 -1.51416 0.437162 0
M  V30 7409 C 705.984 -2.30631 -0.364922 0
M  V30 7410 C 706.965 -1.36037 -1.02118 0
M  V30 7411 O 708.15 -1.64956 -1.02485 0
M  V30 7412 C 705.28 -3.1482 -1.46648 0
M  V30 7413 C 704.234 -4.17691 -0.933717 0
M  V30 7414 C 703.56 -4.904 -2.13101 0
M  V30 7415 C 704.86 -5.2229 0.0317201 0
M  V30 7416 H 706.554 -2.97932 0.29614 0
M  V30 7417 H 704.1 -1.4328 0.143865 0
M  V30 7418 H 706.053 -3.69017 -2.03481 0
M  V30 7419 H 704.777 -2.4534 -2.15583 0
M  V30 7420 H 703.436 -3.64545 -0.387602 0
M  V30 7421 H 703.084 -4.17423 -2.80654 0
M  V30 7422 H 702.784 -5.59962 -1.78092 0
M  V30 7423 H 704.308 -5.4742 -2.70487 0
M  V30 7424 H 705.722 -5.7156 -0.446302 0
M  V30 7425 H 704.119 -5.99378 0.29437 0
M  V30 7426 H 705.189 -4.75131 0.968447 0
M  V30 7427 N 706.532 -0.168513 -1.56696 0
M  V30 7428 C 707.76 0.483503 -2.01171 0
M  V30 7429 C 708.175 1.56994 -1.04872 0
M  V30 7430 O 707.532 1.82434 -0.0491337 0
M  V30 7431 C 707.583 1.0644 -3.45475 0
M  V30 7432 O 707.304 0.0213375 -4.38095 0
M  V30 7433 C 708.805 1.79493 -4.05336 0
M  V30 7434 H 706.025 0.124002 -0.659443 0
M  V30 7435 H 708.569 -0.269419 -2.02717 0
M  V30 7436 H 706.724 1.76784 -3.44712 0
M  V30 7437 H 707.138 0.449837 -5.22567 0
M  V30 7438 H 708.612 2.15401 -5.08238 0
M  V30 7439 H 709.089 2.68889 -3.47269 0
M  V30 7440 H 709.695 1.13798 -4.09793 0
M  V30 7441 N 708.01 1.57248 0.105221 0
M  V30 7442 C 709.235 1.90143 0.828264 0
M  V30 7443 C 709.66 0.761811 1.71983 0
M  V30 7444 O 709.018 -0.287086 1.79013 0
M  V30 7445 C 709.066 3.21856 1.62608 0
M  V30 7446 O 708.17 3.08732 2.7342 0
M  V30 7447 H 707.511 0.623558 0.228192 0
M  V30 7448 H 710.041 2.0443 0.0834826 0
M  V30 7449 H 710.051 3.54916 2.01243 0
M  V30 7450 H 708.726 4.0439 0.971687 0
M  V30 7451 H 707.303 2.87167 2.37886 0
M  V30 7452 N 709.488 -0.375779 1.53054 0
M  V30 7453 C 710.716 -1.14036 1.72637 0
M  V30 7454 C 711.131 -1.83342 0.450687 0
M  V30 7455 O 710.488 -1.7318 -0.575749 0
M  V30 7456 C 710.539 -2.17841 2.88492 0
M  V30 7457 O 710.26 -1.51358 4.11123 0
M  V30 7458 C 711.761 -3.06924 3.19863 0
M  V30 7459 H 708.981 -0.341386 0.577665 0
M  V30 7460 H 711.525 -0.437809 1.99759 0
M  V30 7461 H 709.68 -2.8371 2.63794 0
M  V30 7462 H 710.094 -2.20439 4.75928 0
M  V30 7463 H 711.568 -3.75763 4.04359 0
M  V30 7464 H 712.045 -3.71169 2.34798 0
M  V30 7465 H 712.651 -2.46684 3.46449 0
M  V30 7466 N 710.966 -1.44241 -0.634997 0
M  V30 7467 C 711.896 -1.53632 -1.7584 0
M  V30 7468 C 712.877 -0.389603 -1.65578 0
M  V30 7469 O 714.062 -0.609219 -1.84397 0
M  V30 7470 C 711.192 -1.47644 -3.14354 0
M  V30 7471 C 710.146 -2.60752 -3.394 0
M  V30 7472 C 709.472 -2.39817 -4.77904 0
M  V30 7473 C 710.772 -4.02921 -3.32343 0
M  V30 7474 H 712.466 -2.47662 -1.68238 0
M  V30 7475 H 710.012 -1.19197 -0.807969 0
M  V30 7476 H 711.965 -1.52815 -3.92716 0
M  V30 7477 H 710.689 -0.501284 -3.2273 0
M  V30 7478 H 709.348 -2.54965 -2.63417 0
M  V30 7479 H 708.996 -1.40502 -4.82978 0
M  V30 7480 H 708.696 -3.15649 -4.9562 0
M  V30 7481 H 710.22 -2.46799 -5.585 0
M  V30 7482 H 711.634 -4.10098 -4.00615 0
M  V30 7483 H 710.031 -4.78925 -3.61595 0
M  V30 7484 H 711.101 -4.26766 -2.30215 0
M  V30 7485 N 712.444 0.87505 -1.31075 0
M  V30 7486 C 713.693 1.62245 -1.19831 0
M  V30 7487 C 714.006 1.94078 0.24357 0
M  V30 7488 O 715.212 2.67265 0.477646 0
M  V30 7489 C 713.668 2.92464 -2.09744 0
M  V30 7490 C 713.276 2.68134 -3.58898 0
M  V30 7491 C 715.02 3.70449 -2.07287 0
M  V30 7492 C 712.927 3.9423 -4.40836 0
M  V30 7493 H 711.857 0.608741 -0.444916 0
M  V30 7494 H 714.508 0.967947 -1.55894 0
M  V30 7495 H 712.89 3.59262 -1.66574 0
M  V30 7496 H 714.064 2.09776 -4.10281 0
M  V30 7497 H 712.379 2.03511 -3.6328 0
M  V30 7498 H 714.976 4.63983 -2.65752 0
M  V30 7499 H 715.319 4.02611 -1.05876 0
M  V30 7500 H 715.852 3.10528 -2.48631 0
M  V30 7501 H 712.591 3.67221 -5.42982 0
M  V30 7502 H 712.111 4.52058 -3.94213 0
M  V30 7503 H 713.79 4.62162 -4.52786 0
M  V30 7504 N 713.922 1.13953 1.08869 0
M  V30 7505 C 715.147 0.928559 1.85452 0
M  V30 7506 C 715.572 -0.517642 1.80837 0
M  V30 7507 O 714.93 -1.36779 1.19001 0
M  V30 7508 C 714.978 1.42814 3.31114 0
M  V30 7509 O 714.082 0.617129 4.07756 0
M  V30 7510 H 713.423 0.33235 0.574839 0
M  V30 7511 H 715.953 1.5156 1.37443 0
M  V30 7512 H 715.963 1.43425 3.8196 0
M  V30 7513 H 714.638 2.48109 3.33788 0
M  V30 7514 H 713.215 0.679365 3.66659 0
M  V30 7515 N 715.4 -1.26948 0.933913 0
M  V30 7516 C 716.646 -1.94374 0.57848 0
M  V30 7517 C 716.979 -1.73166 -0.879048 0
M  V30 7518 O 716.254 -1.06438 -1.62792 0
M  V30 7519 C 716.537 -3.4834 0.912739 0
M  V30 7520 C 716.39 -3.78866 2.42448 0
M  V30 7521 C 717.709 -4.38062 0.423003 0
M  V30 7522 H 714.828 -0.705959 0.211639 0
M  V30 7523 H 717.47 -1.49951 1.16682 0
M  V30 7524 H 715.62 -3.86309 0.412058 0
M  V30 7525 H 717.292 -3.50654 2.99733 0
M  V30 7526 H 715.535 -3.25198 2.87104 0
M  V30 7527 H 716.206 -4.86458 2.60887 0
M  V30 7528 H 718.682 -4.0728 0.852191 0
M  V30 7529 H 717.558 -5.44599 0.685776 0
M  V30 7530 H 717.819 -4.36886 -0.676994 0
M  V30 7531 N 716.879 -0.700114 -1.41195 0
M  V30 7532 C 718.29 -0.307249 -1.84154 0
M  V30 7533 C 718.641 1.15539 -1.58572 0
M  V30 7534 O 717.766 1.88744 -1.05852 0
M  V30 7535 C 718.361 -0.550872 -3.34292 0
M  V30 7536 C 716.92 -0.211877 -3.75803 0
M  V30 7537 C 716.067 -0.830915 -2.64558 0
M  V30 7538 H 719.018 -0.900431 -1.30683 0
M  V30 7539 H 719.039 0.188954 -3.80031 0
M  V30 7540 H 718.551 -1.61548 -3.5288 0
M  V30 7541 H 716.652 0.848283 -3.62815 0
M  V30 7542 H 716.765 -0.67007 -4.74391 0
M  V30 7543 H 715.129 -0.260155 -2.53368 0
M  V30 7544 H 715.912 -1.89948 -2.85963 0
M  V30 7545 N 718.357 1.51182 -0.445186 0
M  V30 7546 C 719.634 1.9478 0.178965 0
M  V30 7547 C 720.014 1.38428 1.59376 0
M  V30 7548 O 719.362 0.574552 2.21159 0
M  V30 7549 C 719.572 3.48683 0.148711 0
M  V30 7550 C 720.92 4.23152 0.35042 0
M  V30 7551 O 721.944 3.55479 0.226474 0
M  V30 7552 O 720.803 5.4322 0.597893 0
M  V30 7553 H 717.897 0.817387 0.12573 0
M  V30 7554 H 720.443 1.62051 -0.503729 0
M  V30 7555 H 719.215 3.82176 -0.84009 0
M  V30 7556 H 718.838 3.87875 0.873979 0
M  V30 7557 N 719.835 0.176821 1.56605 0
M  V30 7558 C 721.251 -0.179278 1.5859 0
M  V30 7559 C 721.451 -1.62433 1.19238 0
M  V30 7560 O 720.507 -2.35665 0.906552 0
M  V30 7561 C 721.82 0.106524 3.00511 0
M  V30 7562 C 723.368 0.0451731 3.12967 0
M  V30 7563 C 723.843 0.304038 4.5699 0
M  V30 7564 N 725.334 0.252008 4.62514 0
M  V30 7565 C 726.069 0.426404 5.71812 0
M  V30 7566 N 725.565 0.660155 6.89648 0
M  V30 7567 N 727.358 0.361926 5.60934 0
M  V30 7568 H 719.509 1.12001 1.8047 0
M  V30 7569 H 721.772 0.445679 0.836704 0
M  V30 7570 H 721.478 1.10778 3.33798 0
M  V30 7571 H 721.352 -0.599337 3.72408 0
M  V30 7572 H 723.739 -0.946662 2.79504 0
M  V30 7573 H 723.82 0.78383 2.43495 0
M  V30 7574 H 723.464 1.29311 4.91163 0
M  V30 7575 H 723.394 -0.455294 5.24628 0
M  V30 7576 H 725.885 0.0772102 3.77821 0
M  V30 7577 H 726.198 0.782529 7.68828 0
M  V30 7578 H 724.543 0.696835 6.91498 0
M  V30 7579 H 727.734 0.17986 4.67754 0
M  V30 7580 H 727.907 0.501263 6.46058 0
M  V30 7581 N 721.313 -1.57302 -0.09688 0
M  V30 7582 C 722.59 -1.7701 -0.832272 0
M  V30 7583 C 722.97 -0.758025 -1.97021 0
M  V30 7584 O 722.318 0.213824 -2.27497 0
M  V30 7585 C 722.528 -3.22725 -1.32851 0
M  V30 7586 C 723.876 -3.85856 -1.772 0
M  V30 7587 O 724.9 -3.26464 -1.42478 0
M  V30 7588 O 723.759 -4.90295 -2.41398 0
M  V30 7589 H 720.853 -0.725558 -0.396856 0
M  V30 7590 H 723.399 -1.69516 -0.0789005 0
M  V30 7591 H 722.171 -3.87921 -0.51312 0
M  V30 7592 H 721.794 -3.34845 -2.14394 0
M  V30 7593 N 722.791 0.367657 -1.53252 0
M  V30 7594 C 724.202 0.944563 -1.61043 0
M  V30 7595 C 724.553 1.90325 -0.476546 0
M  V30 7596 O 723.678 2.12721 0.397333 0
M  V30 7597 C 724.273 1.71992 -2.91898 0
M  V30 7598 C 722.832 2.2462 -3.02031 0
M  V30 7599 C 721.979 1.05799 -2.56324 0
M  V30 7600 H 724.93 0.146516 -1.58022 0
M  V30 7601 H 724.951 2.58095 -2.79584 0
M  V30 7602 H 724.463 1.02192 -3.74404 0
M  V30 7603 H 722.564 2.97668 -2.24108 0
M  V30 7604 H 722.677 2.52644 -4.07073 0
M  V30 7605 H 721.041 1.42435 -2.1115 0
M  V30 7606 H 721.824 0.375008 -3.41246 0
M  V30 7607 N 724.269 1.44576 0.627338 0
M  V30 7608 C 725.232 1.51372 1.72102 0
M  V30 7609 C 726.232 0.395329 1.55865 0
M  V30 7610 O 727.422 0.658094 1.61291 0
M  V30 7611 C 724.554 1.39129 3.11217 0
M  V30 7612 H 725.747 2.48798 1.6745 0
M  V30 7613 H 723.3 1.31724 0.841336 0
M  V30 7614 H 724.035 0.428114 3.21462 0
M  V30 7615 H 723.82 2.20229 3.24409 0
M  V30 7616 H 725.31 1.46874 3.90919 0
M  V30 7617 N 725.747 -0.868086 1.31537 0
M  V30 7618 C 726.972 -1.65926 1.24432 0
M  V30 7619 C 727.397 -1.87169 -0.186936 0
M  V30 7620 O 726.755 -1.4148 -1.13371 0
M  V30 7621 C 726.803 -3.00347 1.9956 0
M  V30 7622 O 725.907 -3.90221 1.33422 0
M  V30 7623 H 725.248 -0.506375 0.429512 0
M  V30 7624 H 727.778 -1.0822 1.73637 0
M  V30 7625 H 727.788 -3.50269 2.09226 0
M  V30 7626 H 726.463 -2.84205 3.03645 0
M  V30 7627 H 725.04 -3.48672 1.32219 0
M  V30 7628 N 727.225 -1.14528 -1.08264 0
M  V30 7629 C 728.636 -0.925261 -1.6216 0
M  V30 7630 C 728.987 0.535587 -1.88748 0
M  V30 7631 O 728.112 1.4048 -1.64604 0
M  V30 7632 C 728.707 -1.67316 -2.94603 0
M  V30 7633 C 727.266 -1.49868 -3.45278 0
M  V30 7634 C 726.413 -1.69471 -2.19487 0
M  V30 7635 H 729.364 -1.29687 -0.914707 0
M  V30 7636 H 729.385 -1.13721 -3.63109 0
M  V30 7637 H 728.897 -2.73635 -2.75219 0
M  V30 7638 H 726.998 -0.459032 -3.69762 0
M  V30 7639 H 727.111 -2.2696 -4.21931 0
M  V30 7640 H 725.475 -1.12048 -2.2873 0
M  V30 7641 H 726.258 -2.77136 -2.0261 0
M  V30 7642 N 728.703 1.26451 -0.940633 0
M  V30 7643 C 729.633 2.28773 -0.467479 0
M  V30 7644 C 730.614 1.63218 0.478955 0
M  V30 7645 O 731.799 1.90427 0.380929 0
M  V30 7646 C 728.929 3.46259 0.268656 0
M  V30 7647 C 727.883 4.23898 -0.591171 0
M  V30 7648 C 727.209 5.33993 0.274891 0
M  V30 7649 C 728.509 4.87974 -1.86223 0
M  V30 7650 H 730.203 2.68601 -1.32265 0
M  V30 7651 H 727.749 1.29123 -0.637436 0
M  V30 7652 H 729.702 4.16951 0.610696 0
M  V30 7653 H 728.426 3.05383 1.15796 0
M  V30 7654 H 727.085 3.54969 -0.916098 0
M  V30 7655 H 726.733 4.89358 1.16353 0
M  V30 7656 H 726.433 5.86849 -0.297006 0
M  V30 7657 H 727.957 6.07523 0.612213 0
M  V30 7658 H 729.371 5.50883 -1.58747 0
M  V30 7659 H 727.768 5.50945 -2.37866 0
M  V30 7660 H 728.838 4.10945 -2.57394 0
M  V30 7661 N 730.181 0.707592 1.40822 0
M  V30 7662 C 731.597 0.38034 1.55002 0
M  V30 7663 C 731.797 -1.11163 1.68062 0
M  V30 7664 O 730.853 -1.89761 1.66574 0
M  V30 7665 C 732.166 1.1394 2.78277 0
M  V30 7666 C 733.714 1.12492 2.92087 0
M  V30 7667 C 734.189 1.86597 4.18265 0
M  V30 7668 N 735.68 1.83626 4.25248 0
M  V30 7669 C 736.415 2.37794 5.21768 0
M  V30 7670 N 735.911 3.00485 6.24244 0
M  V30 7671 N 737.704 2.27982 5.13791 0
M  V30 7672 H 729.855 1.67511 1.3059 0
M  V30 7673 H 732.118 0.707579 0.630901 0
M  V30 7674 H 731.824 2.19398 2.74877 0
M  V30 7675 H 731.698 0.725793 3.70151 0
M  V30 7676 H 734.085 0.0785564 2.94995 0
M  V30 7677 H 734.166 1.57768 2.01353 0
M  V30 7678 H 733.81 2.91219 4.16118 0
M  V30 7679 H 733.74 1.38746 5.07993 0
M  V30 7680 H 736.231 1.3793 3.51829 0
M  V30 7681 H 736.544 3.39355 6.94304 0
M  V30 7682 H 734.889 3.04567 6.24711 0
M  V30 7683 H 738.08 1.78669 4.3266 0
M  V30 7684 H 738.253 2.70499 5.88841 0
M  V30 7685 N 731.66 -1.50943 0.453197 0
M  V30 7686 C 732.593 -2.24742 -0.395787 0
M  V30 7687 C 733.571 -1.27316 -1.01141 0
M  V30 7688 O 734.755 -1.56494 -1.05081 0
M  V30 7689 C 731.882 -3.00999 -1.55298 0
M  V30 7690 C 730.928 -4.13207 -1.0565 0
M  V30 7691 S 731.761 -5.35498 0.01435 0
M  V30 7692 C 732.917 -6.15298 -1.14714 0
M  V30 7693 H 733.15 -2.96403 0.23071 0
M  V30 7694 H 730.683 -1.52557 0.237874 0
M  V30 7695 H 732.641 -3.45529 -2.2163 0
M  V30 7696 H 731.302 -2.28896 -2.15094 0
M  V30 7697 H 730.495 -4.65901 -1.9223 0
M  V30 7698 H 730.097 -3.7102 -0.471182 0
M  V30 7699 H 732.389 -6.45346 -2.06239 0
M  V30 7700 H 733.332 -7.05019 -0.659842 0
M  V30 7701 H 733.74 -5.47046 -1.39288 0
M  V30 7702 N 733.138 -0.185124 -1.56509 0
M  V30 7703 C 734.101 0.72591 -2.17401 0
M  V30 7704 C 735.101 1.14819 -1.12575 0
M  V30 7705 O 736.291 1.0629 -1.38015 0
M  V30 7706 C 733.423 1.98979 -2.76803 0
M  V30 7707 H 734.616 0.195588 -2.99262 0
M  V30 7708 H 732.169 0.0644772 -1.56167 0
M  V30 7709 H 732.904 2.56287 -1.98714 0
M  V30 7710 H 732.689 1.69583 -3.53531 0
M  V30 7711 H 734.179 2.63966 -3.23592 0
M  V30 7712 N 734.616 1.57351 0.0885366 0
M  V30 7713 C 735.564 2.03542 1.12576 0
M  V30 7714 C 736.558 0.937668 1.41082 0
M  V30 7715 O 737.764 1.12283 1.40686 0
M  V30 7716 H 734.139 0.648752 0.380296 0
M  V30 7717 H 736.11 2.89833 0.709906 0
M  V30 7718 C 734.859 2.4811 2.43591 0
M  V30 7719 H 734.182 3.32164 2.22502 0
M  V30 7720 H 735.622 2.842 3.14653 0
M  V30 7721 C 734.081 1.35708 3.08359 0
M  V30 7722 O 734.611 0.689852 3.95732 0
M  V30 7723 N 732.817 1.10641 2.68713 0
M  V30 7724 H 732.364 1.6508 1.97753 0
M  V30 7725 H 732.322 0.356355 3.12374 0
M  V30 7726 N 736.094 -0.359525 1.53444 0
M  V30 7727 C 737.319 -1.12644 1.74144 0
M  V30 7728 C 737.744 -1.82082 0.472007 0
M  V30 7729 O 737.102 -1.71962 -0.57436 0
M  V30 7730 C 737.15 -2.12781 2.9113 0
M  V30 7731 O 736.254 -3.19984 2.60162 0
M  V30 7732 H 735.595 -0.326553 0.578152 0
M  V30 7733 H 738.125 -0.414798 2.00351 0
M  V30 7734 H 738.135 -2.56278 3.17467 0
M  V30 7735 H 736.81 -1.61634 3.83207 0
M  V30 7736 H 735.387 -2.81417 2.44661 0
M  V30 7737 N 737.572 -1.44907 -0.619662 0
M  V30 7738 C 738.535 -1.52282 -1.71297 0
M  V30 7739 C 739.535 -0.40359 -1.55653 0
M  V30 7740 O 740.725 -0.666638 -1.6094 0
M  V30 7741 C 737.857 -1.40778 -3.10474 0
M  V30 7742 H 739.05 -2.49683 -1.66128 0
M  V30 7743 H 736.603 -1.32168 -0.834339 0
M  V30 7744 H 737.338 -0.445156 -3.2123 0
M  V30 7745 H 737.123 -2.21947 -3.23237 0
M  V30 7746 H 738.613 -1.48946 -3.90135 0
M  V30 7747 N 739.05 0.861098 -1.31996 0
M  V30 7748 C 739.98 1.98482 -1.22993 0
M  V30 7749 C 740.961 1.6971 -0.115168 0
M  V30 7750 O 742.146 1.91849 -0.30126 0
M  V30 7751 C 739.276 3.34179 -0.945615 0
M  V30 7752 C 738.23 3.77284 -2.02091 0
M  V30 7753 C 737.556 5.1054 -1.58912 0
M  V30 7754 C 738.856 3.93439 -3.43515 0
M  V30 7755 H 740.55 2.06271 -2.17008 0
M  V30 7756 H 738.096 0.991043 -1.04472 0
M  V30 7757 H 740.049 4.12338 -0.869206 0
M  V30 7758 H 738.773 3.26586 0.0301849 0
M  V30 7759 H 737.432 3.01371 -2.08737 0
M  V30 7760 H 737.08 4.99397 -0.600942 0
M  V30 7761 H 736.78 5.40352 -2.30854 0
M  V30 7762 H 738.304 5.91199 -1.52696 0
M  V30 7763 H 739.718 4.6197 -3.39495 0
M  V30 7764 H 738.115 4.34661 -4.13751 0
M  V30 7765 H 739.185 2.96548 -3.8365 0
M  V30 7766 N 740.528 1.15101 1.07655 0
M  V30 7767 C 741.777 0.918528 1.79572 0
M  V30 7768 C 742.09 -0.555922 1.87534 0
M  V30 7769 O 743.296 -0.905893 2.55941 0
M  V30 7770 C 741.752 1.59394 3.22679 0
M  V30 7771 C 741.36 3.1052 3.22927 0
M  V30 7772 C 743.104 1.44289 3.99225 0
M  V30 7773 C 741.011 3.70862 4.60668 0
M  V30 7774 H 739.941 0.340006 0.672987 0
M  V30 7775 H 742.592 1.38079 1.20857 0
M  V30 7776 H 740.974 1.05936 3.81567 0
M  V30 7777 H 742.148 3.70708 2.737 0
M  V30 7778 H 740.463 3.25351 2.59876 0
M  V30 7779 H 743.06 1.86766 5.01022 0
M  V30 7780 H 743.403 0.389975 4.14469 0
M  V30 7781 H 743.936 1.94826 3.46825 0
M  V30 7782 H 740.675 4.7604 4.50628 0
M  V30 7783 H 740.195 3.15456 5.10145 0
M  V30 7784 H 741.874 3.71607 5.29639 0
M  V30 7785 N 742.006 -1.2595 0.947325 0
M  V30 7786 C 743.231 -1.98083 0.614633 0
M  V30 7787 C 743.656 -1.70013 -0.804815 0
M  V30 7788 O 743.014 -0.95175 -1.54309 0
M  V30 7789 C 743.062 -3.4993 0.870706 0
M  V30 7790 O 742.166 -4.12364 -0.0541451 0
M  V30 7791 H 741.507 -0.621232 0.234451 0
M  V30 7792 H 744.037 -1.60259 1.27193 0
M  V30 7793 H 744.047 -4.00198 0.794051 0
M  V30 7794 H 742.722 -3.69691 1.90529 0
M  V30 7795 H 741.299 -3.72826 0.0740917 0
M  V30 7796 N 743.484 -0.715051 -1.40445 0
M  V30 7797 C 744.73 -0.254705 -2.01194 0
M  V30 7798 C 745.063 1.14894 -1.56567 0
M  V30 7799 O 744.338 1.77933 -0.785491 0
M  V30 7800 C 744.621 -0.334148 -3.58546 0
M  V30 7801 C 744.474 -1.77613 -4.13248 0
M  V30 7802 C 745.793 0.294968 -4.3911 0
M  V30 7803 H 742.912 -0.094025 -0.730978 0
M  V30 7804 H 745.554 -0.907449 -1.66929 0
M  V30 7805 H 743.704 0.221609 -3.87867 0
M  V30 7806 H 745.376 -2.38723 -3.94727 0
M  V30 7807 H 743.619 -2.30402 -3.67556 0
M  V30 7808 H 744.29 -1.78311 -5.22407 0
M  V30 7809 H 746.766 -0.178563 -4.15717 0
M  V30 7810 H 745.642 0.208934 -5.48502 0
M  V30 7811 H 745.903 1.37841 -4.20062 0
M  V30 7812 N 744.962 1.50701 -0.461195 0
M  V30 7813 C 746.21 2.01867 0.0970051 0
M  V30 7814 C 746.531 1.34591 1.41104 0
M  V30 7815 O 745.801 0.488041 1.89723 0
M  V30 7816 H 744.381 0.74599 0.0388392 0
M  V30 7817 H 747.043 1.85129 -0.609357 0
M  V30 7818 H 746.139 3.11051 0.255688 0
M  V30 7819 N 746.441 0.193421 1.56409 0
M  V30 7820 C 747.681 -0.447977 1.9943 0
M  V30 7821 C 748.045 -1.58915 1.07751 0
M  V30 7822 O 749.246 -2.29462 1.40002 0
M  V30 7823 C 747.517 -0.89793 3.45936 0
M  V30 7824 S 749.076 -1.5374 4.10986 0
M  V30 7825 H 745.894 -0.143316 0.696406 0
M  V30 7826 H 748.496 0.296093 1.93245 0
M  V30 7827 H 747.2 -0.0572927 4.1036 0
M  V30 7828 H 746.731 -1.67551 3.55936 0
M  V30 7829 H 748.746 -2.82612 4.07854 0
M  V30 7830 N 747.919 -1.57396 -0.0801906 0
M  V30 7831 C 748.849 -2.06145 -1.09665 0
M  V30 7832 C 749.83 -0.953273 -1.40878 0
M  V30 7833 O 751.015 -1.22548 -1.50651 0
M  V30 7834 C 748.145 -2.49836 -2.41245 0
M  V30 7835 C 747.099 -3.64454 -2.24405 0
M  V30 7836 C 746.425 -3.94172 -3.61293 0
M  V30 7837 C 747.725 -4.94807 -1.67223 0
M  V30 7838 H 749.419 -2.91316 -0.691028 0
M  V30 7839 H 746.965 -1.40145 -0.330957 0
M  V30 7840 H 748.918 -2.82552 -3.12638 0
M  V30 7841 H 747.642 -1.61683 -2.83771 0
M  V30 7842 H 746.301 -3.32008 -1.55454 0
M  V30 7843 H 745.949 -3.03163 -4.01374 0
M  V30 7844 H 745.649 -4.71345 -3.50867 0
M  V30 7845 H 747.173 -4.29376 -4.3413 0
M  V30 7846 H 748.587 -5.25807 -2.28472 0
M  V30 7847 H 746.984 -5.76245 -1.67515 0
M  V30 7848 H 748.054 -4.80751 -0.632944 0
M  V30 7849 N 749.397 0.351382 -1.53633 0
M  V30 7850 C 750.36 1.41403 -1.80383 0
M  V30 7851 C 751.36 1.45963 -0.674635 0
M  V30 7852 O 752.55 1.46476 -0.942895 0
M  V30 7853 C 749.682 2.80401 -1.93876 0
M  V30 7854 H 750.875 1.18951 -2.75301 0
M  V30 7855 H 748.428 0.58533 -1.44926 0
M  V30 7856 H 749.163 3.08147 -1.01074 0
M  V30 7857 H 748.948 2.78488 -2.7602 0
M  V30 7858 H 750.438 3.57329 -2.16116 0
M  V30 7859 N 750.875 1.45233 0.611969 0
M  V30 7860 C 752.124 1.48296 1.36716 0
M  V30 7861 C 752.437 0.12706 1.95187 0
M  V30 7862 O 753.643 0.0353066 2.71477 0
M  V30 7863 C 752.099 2.61168 2.47627 0
M  V30 7864 C 751.707 4.03051 1.95587 0
M  V30 7865 C 753.451 2.73472 3.24674 0
M  V30 7866 C 751.358 5.07312 3.03954 0
M  V30 7867 H 750.288 0.5518 0.513841 0
M  V30 7868 H 752.939 1.7136 0.656359 0
M  V30 7869 H 751.321 2.31379 3.21372 0
M  V30 7870 H 752.495 4.42497 1.2858 0
M  V30 7871 H 750.81 3.95158 1.31298 0
M  V30 7872 H 753.407 3.48537 4.05494 0
M  V30 7873 H 753.75 1.79953 3.75397 0
M  V30 7874 H 754.283 3.02765 2.58028 0
M  V30 7875 H 751.022 6.02525 2.58154 0
M  V30 7876 H 750.542 4.7244 3.69541 0
M  V30 7877 H 752.221 5.31867 3.6841 0
M  V30 7878 N 752.353 -0.854086 1.3245 0
M  V30 7879 C 753.6 -1.60831 1.23043 0
M  V30 7880 C 753.928 -1.93389 -0.2076 0
M  V30 7881 O 753.183 -1.5756 -1.16075 0
M  V30 7882 C 753.482 -2.93746 2.03587 0
M  V30 7883 C 753.148 -2.80615 3.52939 0
M  V30 7884 C 751.81 -2.76742 3.93659 0
M  V30 7885 C 754.162 -2.66507 4.4791 0
M  V30 7886 C 751.49 -2.56638 5.27592 0
M  V30 7887 C 753.842 -2.47939 5.81987 0
M  V30 7888 C 752.506 -2.42458 6.21909 0
M  V30 7889 H 751.776 -0.588523 0.450247 0
M  V30 7890 H 754.423 -0.990699 1.63882 0
M  V30 7891 H 752.728 -3.5963 1.55478 0
M  V30 7892 H 754.425 -3.51127 1.93677 0
M  V30 7893 H 751.015 -2.84456 3.20598 0
M  V30 7894 H 755.199 -2.68544 4.1737 0
M  V30 7895 H 750.455 -2.50831 5.57579 0
M  V30 7896 H 754.629 -2.36002 6.55192 0
M  V30 7897 H 752.256 -2.2664 7.2563 0
M  V30 7898 N 753.831 -1.1567 -1.07043 0
M  V30 7899 C 755.077 -0.9349 -1.79965 0
M  V30 7900 C 755.41 0.536464 -1.86643 0
M  V30 7901 O 754.685 1.39781 -1.35247 0
M  V30 7902 C 754.968 -1.55371 -3.24857 0
M  V30 7903 C 754.821 -3.09589 -3.26305 0
M  V30 7904 C 756.14 -1.24209 -4.22209 0
M  V30 7905 H 753.259 -0.341061 -0.653335 0
M  V30 7906 H 755.901 -1.42883 -1.25237 0
M  V30 7907 H 754.051 -1.13368 -3.71591 0
M  V30 7908 H 755.723 -3.60521 -2.87789 0
M  V30 7909 H 753.966 -3.43315 -2.65174 0
M  V30 7910 H 754.637 -3.48002 -4.28484 0
M  V30 7911 H 757.113 -1.60548 -3.8388 0
M  V30 7912 H 755.989 -1.70119 -5.21872 0
M  V30 7913 H 756.25 -0.15964 -4.41812 0
M  V30 7914 N 755.309 1.25446 -0.953992 0
M  V30 7915 C 756.537 1.97215 -0.625595 0
M  V30 7916 C 756.952 1.70911 0.802168 0
M  V30 7917 O 756.309 0.984782 1.5365 0
M  V30 7918 C 756.36 3.50777 -0.873943 0
M  V30 7919 O 756.081 3.76173 -2.24556 0
M  V30 7920 C 757.582 4.39776 -0.557845 0
M  V30 7921 H 754.802 0.628652 -0.2346 0
M  V30 7922 H 757.346 1.59632 -1.27819 0
M  V30 7923 H 755.501 3.86474 -0.267765 0
M  V30 7924 H 755.915 4.70636 -2.31522 0
M  V30 7925 H 757.389 5.46431 -0.782157 0
M  V30 7926 H 757.866 4.36257 0.507573 0
M  V30 7927 H 758.472 4.09644 -1.14332 0
M  V30 7928 N 756.787 0.722489 1.40064 0
M  V30 7929 C 758.033 0.265371 2.01056 0
M  V30 7930 C 758.366 -1.14062 1.57174 0
M  V30 7931 O 757.641 -1.77514 0.794916 0
M  V30 7932 C 757.924 0.353157 3.58364 0
M  V30 7933 C 757.777 1.79802 4.123 0
M  V30 7934 C 759.096 -0.271677 4.39261 0
M  V30 7935 H 756.215 0.0979002 0.730469 0
M  V30 7936 H 758.857 0.916289 1.66446 0
M  V30 7937 H 757.007 -0.201037 3.87979 0
M  V30 7938 H 758.679 2.40813 3.93455 0
M  V30 7939 H 756.922 2.32348 3.66329 0
M  V30 7940 H 757.593 1.81079 5.21454 0
M  V30 7941 H 760.069 0.200607 4.15616 0
M  V30 7942 H 758.945 -0.179843 5.48605 0
M  V30 7943 H 759.206 -1.35611 4.20787 0
M  V30 7944 N 758.265 -1.50454 0.469181 0
M  V30 7945 C 759.514 -2.01507 -0.0881425 0
M  V30 7946 C 759.827 -1.35613 -1.40956 0
M  V30 7947 O 761.033 -1.77812 -2.05171 0
M  V30 7948 C 759.489 -3.59301 -0.207596 0
M  V30 7949 C 759.097 -4.34152 1.10527 0
M  V30 7950 C 760.841 -4.18401 -0.716981 0
M  V30 7951 C 758.748 -5.83725 0.949717 0
M  V30 7952 H 757.678 -0.753106 -0.0367156 0
M  V30 7953 H 760.329 -1.73282 0.603788 0
M  V30 7954 H 758.711 -3.84106 -0.963265 0
M  V30 7955 H 759.885 -4.21073 1.87175 0
M  V30 7956 H 758.2 -3.86652 1.54562 0
M  V30 7957 H 760.797 -5.27895 -0.850363 0
M  V30 7958 H 761.14 -3.79657 -1.70782 0
M  V30 7959 H 761.673 -3.97796 -0.0187511 0
M  V30 7960 H 758.412 -6.26938 1.91387 0
M  V30 7961 H 757.932 -5.99383 0.223591 0
M  V30 7962 H 759.611 -6.44065 0.61557 0
M  V30 7963 N 759.743 -0.201713 -1.56304 0
M  V30 7964 C 760.968 0.443815 -2.02596 0
M  V30 7965 C 761.393 1.53945 -1.08086 0
M  V30 7966 O 760.751 1.81182 -0.0655056 0
M  V30 7967 C 760.799 0.971066 -3.47279 0
M  V30 7968 O 759.903 2.0836 -3.55893 0
M  V30 7969 H 759.244 0.10294 -0.655972 0
M  V30 7970 H 761.774 -0.314533 -2.02168 0
M  V30 7971 H 761.784 1.28598 -3.87204 0
M  V30 7972 H 760.459 0.169048 -4.15556 0
M  V30 7973 H 759.036 1.77683 -3.27846 0
M  V30 7974 N 761.222 1.57436 0.0718424 0
M  V30 7975 C 762.152 2.06724 1.08571 0
M  V30 7976 C 763.133 0.960731 1.40371 0
M  V30 7977 O 764.318 1.23345 1.49999 0
M  V30 7978 C 761.448 2.51112 2.39916 0
M  V30 7979 C 760.402 3.65639 2.22469 0
M  V30 7980 C 759.728 3.96082 3.59198 0
M  V30 7981 C 761.028 4.95687 1.64596 0
M  V30 7982 H 762.722 2.91679 0.675569 0
M  V30 7983 H 760.268 1.40319 0.32352 0
M  V30 7984 H 762.221 2.84206 3.11135 0
M  V30 7985 H 760.945 1.63186 2.8291 0
M  V30 7986 H 759.604 3.32828 1.53691 0
M  V30 7987 H 759.252 3.05287 3.99761 0
M  V30 7988 H 758.952 4.73199 3.48362 0
M  V30 7989 H 760.476 4.31672 4.31847 0
M  V30 7990 H 761.89 5.27011 2.25681 0
M  V30 7991 H 760.287 5.77126 1.64457 0
M  V30 7992 H 761.357 4.8108 0.60744 0
M  V30 7993 N 762.7 -0.34323 1.53817 0
M  V30 7994 C 763.63 -1.42709 1.84814 0
M  V30 7995 C 764.611 -1.5488 0.703297 0
M  V30 7996 O 765.796 -1.69082 0.955237 0
M  V30 7997 C 762.926 -2.79756 2.05801 0
M  V30 7998 C 761.88 -2.82392 3.21619 0
M  V30 7999 C 761.206 -4.22326 3.2794 0
M  V30 8000 C 762.506 -2.479 4.59721 0
M  V30 8001 H 764.2 -1.17018 2.75585 0
M  V30 8002 H 761.746 -0.561485 1.32602 0
M  V30 8003 H 763.699 -3.55627 2.26069 0
M  V30 8004 H 762.423 -3.06883 1.11761 0
M  V30 8005 H 761.082 -2.08974 3.01207 0
M  V30 8006 H 760.73 -4.46564 2.31494 0
M  V30 8007 H 760.43 -4.25001 4.05768 0
M  V30 8008 H 761.954 -5.00039 3.50419 0
M  V30 8009 H 763.368 -3.13484 4.80001 0
M  V30 8010 H 761.765 -2.61857 5.39954 0
M  V30 8011 H 762.835 -1.43087 4.63308 0
M  V30 8012 N 764.178 -1.45556 -0.604258 0
M  V30 8013 C 765.424 -1.49968 -1.36519 0
M  V30 8014 C 765.757 -0.142236 -1.93678 0
M  V30 8015 O 765.032 0.843717 -1.75247 0
M  V30 8016 C 765.315 -2.58146 -2.51063 0
M  V30 8017 C 765.168 -4.03346 -1.99078 0
M  V30 8018 C 766.487 -2.62581 -3.53184 0
M  V30 8019 H 763.606 -0.545993 -0.495036 0
M  V30 8020 H 766.248 -1.77382 -0.680845 0
M  V30 8021 H 764.398 -2.34901 -3.09441 0
M  V30 8022 H 766.07 -4.37811 -1.45323 0
M  V30 8023 H 764.313 -4.13845 -1.30055 0
M  V30 8024 H 764.984 -4.74731 -2.81664 0
M  V30 8025 H 767.46 -2.83419 -3.04652 0
M  V30 8026 H 766.336 -3.40131 -4.30816 0
M  V30 8027 H 766.597 -1.67798 -4.09019 0
M  V30 8028 N 765.656 0.84705 -1.32902 0
M  V30 8029 C 766.886 1.63166 -1.26729 0
M  V30 8030 C 767.294 1.88474 0.165595 0
M  V30 8031 O 766.637 1.45947 1.11558 0
M  V30 8032 C 766.699 3.0103 -1.96522 0
M  V30 8033 C 766.363 2.9873 -3.45846 0
M  V30 8034 C 767.36 2.75032 -4.41196 0
M  V30 8035 C 765.045 3.19125 -3.87898 0
M  V30 8036 C 767.039 2.71743 -5.76571 0
M  V30 8037 C 764.726 3.15462 -5.2338 0
M  V30 8038 C 765.724 2.91801 -6.17528 0
M  V30 8039 O 765.412 2.88027 -7.5053 0
M  V30 8040 H 765.144 0.51469 -0.438258 0
M  V30 8041 H 767.698 1.06383 -1.75704 0
M  V30 8042 H 765.928 3.59634 -1.42128 0
M  V30 8043 H 767.617 3.61821 -1.83958 0
M  V30 8044 H 768.383 2.59034 -4.10032 0
M  V30 8045 H 764.262 3.36565 -3.15032 0
M  V30 8046 H 767.806 2.53194 -6.5003 0
M  V30 8047 H 763.703 3.31006 -5.54171 0
M  V30 8048 H 764.471 3.03927 -7.59981 0
M  V30 8049 N 767.134 1.16236 1.06428 0
M  V30 8050 C 768.081 0.86769 2.13869 0
M  V30 8051 C 769.051 -0.183298 1.65086 0
M  V30 8052 O 770.236 -0.0488002 1.90738 0
M  V30 8053 C 767.376 0.373427 3.43074 0
M  V30 8054 C 766.489 1.48708 4.05598 0
M  V30 8055 C 765.624 0.947977 5.22673 0
M  V30 8056 C 764.663 2.03793 5.77178 0
M  V30 8057 N 763.8 1.51451 6.85571 0
M  V30 8058 H 768.64 1.78781 2.38414 0
M  V30 8059 H 766.177 0.891892 1.16977 0
M  V30 8060 H 768.135 0.0685035 4.17144 0
M  V30 8061 H 766.765 -0.509752 3.1875 0
M  V30 8062 H 765.817 1.908 3.29089 0
M  V30 8063 H 767.129 2.30964 4.42105 0
M  V30 8064 H 766.283 0.596154 6.03764 0
M  V30 8065 H 765.022 0.0947081 4.87608 0
M  V30 8066 H 764.027 2.39847 4.94726 0
M  V30 8067 H 765.252 2.89514 6.14295 0
M  V30 8068 H 763.198 0.683755 6.52427 0
M  V30 8069 H 763.115 2.27325 7.21013 0
M  V30 8070 H 764.383 1.19123 7.70344 0
M  V30 8071 N 768.612 -1.24939 0.960631 0
M  V30 8072 C 769.559 -2.25658 0.484459 0
M  V30 8073 C 770.529 -1.59422 -0.466242 0
M  V30 8074 O 771.714 -1.87015 -0.378169 0
M  V30 8075 C 768.854 -3.44359 -0.225958 0
M  V30 8076 C 767.967 -4.25214 0.762682 0
M  V30 8077 C 767.102 -5.31192 0.0290931 0
M  V30 8078 C 766.141 -6.03739 1.00827 0
M  V30 8079 N 765.278 -7.01437 0.305155 0
M  V30 8080 H 770.118 -2.65758 1.34821 0
M  V30 8081 H 767.655 -1.30648 0.675983 0
M  V30 8082 H 769.613 -4.12035 -0.654472 0
M  V30 8083 H 768.243 -3.05118 -1.05371 0
M  V30 8084 H 767.295 -3.57144 1.30966 0
M  V30 8085 H 768.607 -4.75406 1.50964 0
M  V30 8086 H 767.761 -6.04971 -0.457763 0
M  V30 8087 H 766.5 -4.81889 -0.750614 0
M  V30 8088 H 765.505 -5.2877 1.50607 0
M  V30 8089 H 766.73 -6.55131 1.7883 0
M  V30 8090 H 764.676 -6.54415 -0.455704 0
M  V30 8091 H 764.593 -7.49475 0.991104 0
M  V30 8092 H 765.861 -7.79336 -0.159966 0
M  V30 8093 N 770.09 -0.729906 -1.39679 0
M  V30 8094 C 771.04 -0.0627678 -2.27914 0
M  V30 8095 C 772.024 0.717867 -1.43998 0
M  V30 8096 O 773.216 0.587713 -1.66958 0
M  V30 8097 C 770.345 0.847564 -3.32673 0
M  V30 8098 C 769.431 0.0613515 -4.24056 0
M  V30 8099 N 769.822 -0.962863 -4.96551 0
M  V30 8100 C 768.12 0.291773 -4.45045 0
M  V30 8101 C 768.821 -1.43652 -5.63683 0
M  V30 8102 N 767.797 -0.756044 -5.38317 0
M  V30 8103 H 771.599 -0.847545 -2.81414 0
M  V30 8104 H 769.113 -0.563776 -1.523 0
M  V30 8105 H 771.11 1.34094 -3.94746 0
M  V30 8106 H 769.77 1.63156 -2.80732 0
M  V30 8107 H 770.781 -1.34409 -5.00154 0
M  V30 8108 H 767.458 1.05097 -4.04056 0
M  V30 8109 H 768.848 -2.28835 -6.31731 0
M  V30 8110 N 771.568 1.50203 -0.477153 0
M  V30 8111 C 772.515 2.28656 0.31386 0
M  V30 8112 C 773.485 1.33977 0.981802 0
M  V30 8113 O 774.67 1.62919 0.993072 0
M  V30 8114 C 771.81 3.16027 1.38639 0
M  V30 8115 C 770.923 4.25743 0.732615 0
M  V30 8116 C 770.058 5.00363 1.78355 0
M  V30 8117 C 769.097 6.01945 1.11035 0
M  V30 8118 N 768.234 6.6982 2.10441 0
M  V30 8119 H 773.074 2.958 -0.361445 0
M  V30 8120 H 770.611 1.45867 -0.190093 0
M  V30 8121 H 772.569 3.6504 2.01994 0
M  V30 8122 H 771.199 2.50917 2.03077 0
M  V30 8123 H 770.251 3.80398 -0.0136546 0
M  V30 8124 H 771.563 4.98393 0.201513 0
M  V30 8125 H 770.717 5.53124 2.49276 0
M  V30 8126 H 769.456 4.27432 2.34847 0
M  V30 8127 H 768.461 5.48438 0.386797 0
M  V30 8128 H 769.686 6.76851 0.552248 0
M  V30 8129 H 767.632 5.99677 2.65939 0
M  V30 8130 H 767.549 7.38366 1.62332 0
M  V30 8131 H 768.817 7.27196 2.80724 0
M  V30 8132 N 773.046 0.209999 1.56195 0
M  V30 8133 C 773.956 -0.716459 2.23392 0
M  V30 8134 C 774.972 -1.22291 1.23778 0
M  V30 8135 O 776.148 -1.26694 1.56558 0
M  V30 8136 C 773.213 -1.91261 2.89172 0
M  V30 8137 C 772.274 -1.44927 4.04097 0
M  V30 8138 C 771.507 -2.5884 4.66731 0
M  V30 8139 O 771.73 -3.76693 4.2832 0
M  V30 8140 O 770.664 -2.30701 5.55932 0
M  V30 8141 H 774.49 -0.174089 3.03201 0
M  V30 8142 H 772.075 -0.0199505 1.49387 0
M  V30 8143 H 773.957 -2.6114 3.30733 0
M  V30 8144 H 772.632 -2.4433 2.12331 0
M  V30 8145 H 771.539 -0.718839 3.67129 0
M  V30 8146 H 772.872 -0.965084 4.82646 0
M  V30 8147 N 774.524 -1.57472 -0.0634922 0
M  V30 8148 C 775.754 -1.91608 -0.772645 0
M  V30 8149 C 776.162 -0.805019 -1.71219 0
M  V30 8150 O 775.505 0.229941 -1.82255 0
M  V30 8151 C 775.567 -3.21281 -1.61304 0
M  V30 8152 C 775.231 -4.49177 -0.841973 0
M  V30 8153 C 776.228 -5.19661 -0.157494 0
M  V30 8154 C 773.913 -4.9578 -0.80669 0
M  V30 8155 C 775.907 -6.35006 0.551948 0
M  V30 8156 C 773.594 -6.11028 -0.0934812 0
M  V30 8157 C 774.592 -6.80493 0.58463 0
M  V30 8158 O 774.28 -7.93542 1.28633 0
M  V30 8159 H 774.012 -0.637685 -0.224352 0
M  V30 8160 H 776.566 -2.05369 -0.0355279 0
M  V30 8161 H 774.796 -3.03752 -2.39315 0
M  V30 8162 H 776.485 -3.41003 -2.20162 0
M  V30 8163 H 777.251 -4.84681 -0.176006 0
M  V30 8164 H 773.13 -4.41579 -1.32397 0
M  V30 8165 H 776.674 -6.89161 1.0818 0
M  V30 8166 H 772.571 -6.45459 -0.0729258 0
M  V30 8167 H 773.339 -8.09708 1.19646 0
M  V30 8168 N 776.003 0.335068 -1.53997 0
M  V30 8169 C 776.951 1.43206 -1.83289 0
M  V30 8170 C 777.945 1.54081 -0.703953 0
M  V30 8171 O 779.151 1.56603 -0.887432 0
M  V30 8172 H 775.526 0.477655 -0.580818 0
M  V30 8173 H 777.497 1.15719 -2.75049 0
M  V30 8174 C 776.246 2.79602 -2.06683 0
M  V30 8175 H 775.569 2.72004 -2.93008 0
M  V30 8176 H 777.009 3.55459 -2.31139 0
M  V30 8177 C 775.468 3.25873 -0.854883 0
M  V30 8178 O 775.998 4.01657 -0.0584648 0
M  V30 8179 N 774.204 2.82777 -0.669729 0
M  V30 8180 H 773.751 2.21269 -1.31901 0
M  V30 8181 H 773.709 3.1409 0.13969 0
M  V30 8182 N 777.481 1.45874 0.596531 0
M  V30 8183 C 778.892 1.44798 1.17857 0
M  V30 8184 C 779.243 0.181443 1.95359 0
M  V30 8185 O 778.368 -0.716336 2.042 0
M  V30 8186 C 778.963 2.62333 2.14398 0
M  V30 8187 C 777.522 2.64342 2.67955 0
M  V30 8188 C 776.669 2.37244 1.43564 0
M  V30 8189 H 779.62 1.53954 0.385222 0
M  V30 8190 H 779.641 2.37063 2.97626 0
M  V30 8191 H 779.153 3.54499 1.57963 0
M  V30 8192 H 777.254 1.76213 3.28298 0
M  V30 8193 H 777.367 3.63897 3.11634 0
M  V30 8194 H 775.731 1.87022 1.72901 0
M  V30 8195 H 776.514 3.31568 0.889805 0
M  V30 8196 N 778.959 -0.83999 1.33349 0
M  V30 8197 C 780.208 -1.59011 1.2409 0
M  V30 8198 C 780.521 -1.94655 -0.192029 0
M  V30 8199 O 781.727 -2.68438 -0.406617 0
M  V30 8200 C 780.183 -2.86801 2.17425 0
M  V30 8201 C 779.791 -2.58525 3.65881 0
M  V30 8202 C 781.535 -3.64823 2.17036 0
M  V30 8203 C 779.442 -3.82404 4.51133 0
M  V30 8204 H 778.372 -0.596731 0.460899 0
M  V30 8205 H 781.023 -0.926274 1.58406 0
M  V30 8206 H 779.405 -3.54719 1.7604 0
M  V30 8207 H 780.579 -1.98824 4.15699 0
M  V30 8208 H 778.894 -1.93808 3.68548 0
M  V30 8209 H 781.491 -4.56774 2.7796 0
M  V30 8210 H 781.834 -3.99663 1.16513 0
M  V30 8211 H 782.367 -3.03826 2.56777 0
M  V30 8212 H 779.106 -3.52696 5.52527 0
M  V30 8213 H 778.626 -4.41447 4.0606 0
M  V30 8214 H 780.305 -4.49995 4.6488 0
M  V30 8215 N 780.437 -1.16799 -1.0581 0
M  V30 8216 C 781.347 -0.893492 -2.16919 0
M  V30 8217 C 782.363 0.136061 -1.73467 0
M  V30 8218 O 783.539 -0.0417348 -2.01357 0
M  V30 8219 C 780.604 -0.403763 -3.44341 0
M  V30 8220 C 779.665 -1.49914 -4.02274 0
M  V30 8221 C 778.898 -1.03269 -5.23614 0
M  V30 8222 O 779.121 0.115647 -5.70283 0
M  V30 8223 O 778.055 -1.8231 -5.73626 0
M  V30 8224 H 781.881 -1.82274 -2.42919 0
M  V30 8225 H 779.466 -0.948361 -1.1544 0
M  V30 8226 H 781.348 -0.137874 -4.21174 0
M  V30 8227 H 780.023 0.497413 -3.19855 0
M  V30 8228 H 778.93 -1.81883 -3.26909 0
M  V30 8229 H 780.263 -2.3758 -4.31064 0
M  V30 8230 N 781.915 1.24427 -0.967243 0
M  V30 8231 C 782.863 2.27403 -0.488927 0
M  V30 8232 C 783.857 1.63388 0.447302 0
M  V30 8233 O 785.063 1.77085 0.322643 0
M  V30 8234 H 781.438 0.738921 -0.139643 0
M  V30 8235 H 783.409 2.65122 -1.36942 0
M  V30 8236 C 782.158 3.4709 0.205787 0
M  V30 8237 H 781.481 3.96591 -0.50551 0
M  V30 8238 H 782.921 4.2099 0.504296 0
M  V30 8239 C 781.38 3.04923 1.43261 0
M  V30 8240 O 781.91 3.12043 2.52967 0
M  V30 8241 N 780.116 2.59976 1.29849 0
M  V30 8242 H 779.663 2.54382 0.405876 0
M  V30 8243 H 779.621 2.32128 2.12047 0
M  V30 8244 N 783.393 0.737304 1.3929 0
M  V30 8245 C 784.618 0.295237 2.05288 0
M  V30 8246 C 785.043 -1.06235 1.55228 0
M  V30 8247 O 784.401 -1.67365 0.697043 0
M  V30 8248 C 784.449 0.309146 3.59272 0
M  V30 8249 O 783.553 -0.702437 4.06374 0
M  V30 8250 H 782.894 0.133762 0.650387 0
M  V30 8251 H 785.424 1.00387 1.78279 0
M  V30 8252 H 785.434 0.154336 4.07708 0
M  V30 8253 H 784.109 1.29974 3.95069 0
M  V30 8254 H 782.686 -0.513574 3.69346 0
M  V30 8255 N 784.871 -1.49948 0.485112 0
M  V30 8256 C 786.282 -1.8667 0.0334041 0
M  V30 8257 C 786.633 -1.3988 -1.37579 0
M  V30 8258 O 785.758 -0.769788 -2.02245 0
M  V30 8259 C 786.353 -3.38757 0.0538426 0
M  V30 8260 C 784.912 -3.74839 -0.342453 0
M  V30 8261 C 784.059 -2.73894 0.433281 0
M  V30 8262 H 787.01 -1.42492 0.698699 0
M  V30 8263 H 787.031 -3.73132 -0.745146 0
M  V30 8264 H 786.543 -3.72782 1.07959 0
M  V30 8265 H 784.644 -3.46419 -1.37203 0
M  V30 8266 H 784.757 -4.79088 -0.0340503 0
M  V30 8267 H 783.121 -2.54441 -0.114849 0
M  V30 8268 H 783.904 -3.10763 1.45881 0
M  V30 8269 N 786.349 -0.21828 -1.56081 0
M  V30 8270 C 787.597 0.413488 -1.97825 0
M  V30 8271 C 787.918 1.60527 -1.10707 0
M  V30 8272 O 787.188 1.9504 -0.183378 0
M  V30 8273 H 785.768 0.155757 -0.730581 0
M  V30 8274 H 788.43 -0.310413 -1.92412 0
M  V30 8275 H 787.526 0.742024 -3.03151 0
M  V30 8276 N 787.827 1.57504 0.0551401 0
M  V30 8277 C 788.775 2.05884 1.08233 0
M  V30 8278 C 789.769 0.967383 1.39061 0
M  V30 8279 O 790.975 1.15242 1.38273 0
M  V30 8280 H 787.35 0.656673 0.366449 0
M  V30 8281 H 789.321 2.91273 0.648269 0
M  V30 8282 C 788.07 2.53221 2.38273 0
M  V30 8283 H 787.393 3.36809 2.15406 0
M  V30 8284 H 788.833 2.9081 3.08554 0
M  V30 8285 C 787.292 1.42218 3.05411 0
M  V30 8286 O 787.822 0.773638 3.9418 0
M  V30 8287 N 786.028 1.16316 2.66306 0
M  V30 8288 H 785.575 1.69237 1.94207 0
M  V30 8289 H 785.533 0.422534 3.11548 0
M  V30 8290 N 789.305 -0.326896 1.54172 0
M  V30 8291 C 790.551 -1.06681 1.72473 0
M  V30 8292 C 790.884 -1.87779 0.49523 0
M  V30 8293 O 790.159 -1.87754 -0.507803 0
M  V30 8294 C 790.442 -1.99429 2.99834 0
M  V30 8295 C 790.295 -1.21682 4.33028 0
M  V30 8296 C 791.614 -2.99002 3.22933 0
M  V30 8297 H 788.733 -0.386438 0.627563 0
M  V30 8298 H 791.375 -0.343779 1.86864 0
M  V30 8299 H 789.525 -2.61081 2.87696 0
M  V30 8300 H 791.197 -0.625153 4.57044 0
M  V30 8301 H 789.44 -0.519045 4.30684 0
M  V30 8302 H 790.111 -1.89766 5.18356 0
M  V30 8303 H 792.587 -2.4747 3.34511 0
M  V30 8304 H 791.463 -3.61085 4.13412 0
M  V30 8305 H 791.724 -3.71281 2.40006 0
M  V30 8306 N 790.784 -1.46188 -0.588786 0
M  V30 8307 C 792.03 -1.51407 -1.34921 0
M  V30 8308 C 792.363 -0.162771 -1.93517 0
M  V30 8309 O 791.638 0.825082 -1.76132 0
M  V30 8310 C 791.921 -2.60795 -2.48311 0
M  V30 8311 C 791.774 -4.05435 -1.94789 0
M  V30 8312 C 793.093 -2.66313 -3.50379 0
M  V30 8313 H 790.212 -0.551213 -0.489217 0
M  V30 8314 H 792.854 -1.78095 -0.661993 0
M  V30 8315 H 791.004 -2.3817 -3.06932 0
M  V30 8316 H 792.676 -4.39328 -1.40672 0
M  V30 8317 H 790.919 -4.15202 -1.25659 0
M  V30 8318 H 791.59 -4.77691 -2.76613 0
M  V30 8319 H 794.066 -2.86634 -3.01629 0
M  V30 8320 H 792.942 -3.44681 -4.27184 0
M  V30 8321 H 793.203 -1.72127 -4.07216 0
M  V30 8322 N 792.262 0.832906 -1.33792 0
M  V30 8323 C 793.678 1.1245 -1.13257 0
M  V30 8324 C 793.878 2.01369 0.0725832 0
M  V30 8325 O 792.934 2.41071 0.751082 0
M  V30 8326 C 794.247 1.78084 -2.42294 0
M  V30 8327 C 795.795 1.90624 -2.48257 0
M  V30 8328 C 796.27 2.59673 -3.77271 0
M  V30 8329 N 797.761 2.67181 -3.78376 0
M  V30 8330 C 798.496 3.21313 -4.74916 0
M  V30 8331 N 797.992 3.76086 -5.81835 0
M  V30 8332 N 799.785 3.19621 -4.62384 0
M  V30 8333 H 791.936 0.241244 -2.11026 0
M  V30 8334 H 794.199 0.169557 -0.932713 0
M  V30 8335 H 793.905 1.20209 -3.30519 0
M  V30 8336 H 793.779 2.78049 -2.5489 0
M  V30 8337 H 796.166 2.4765 -1.60478 0
M  V30 8338 H 796.247 0.89591 -2.39598 0
M  V30 8339 H 795.891 2.03304 -4.65435 0
M  V30 8340 H 795.821 3.61189 -3.8321 0
M  V30 8341 H 798.312 2.28346 -3.01108 0
M  V30 8342 H 798.625 4.15612 -6.51526 0
M  V30 8343 H 796.97 3.74357 -5.85561 0
M  V30 8344 H 800.161 2.76091 -3.7801 0
M  V30 8345 H 800.334 3.61504 -5.37791 0
M  V30 8346 N 793.74 1.17359 1.05189 0
M  V30 8347 C 794.965 0.98709 1.82404 0
M  V30 8348 C 795.39 -0.459848 1.82392 0
M  V30 8349 O 794.748 -1.32924 1.23292 0
M  V30 8350 C 794.796 1.53276 3.26403 0
M  V30 8351 O 793.9 0.746541 4.05587 0
M  V30 8352 H 793.241 0.35047 0.563974 0
M  V30 8353 H 795.771 1.55856 1.32552 0
M  V30 8354 H 795.781 1.55504 3.77203 0
M  V30 8355 H 794.456 2.58603 3.25726 0
M  V30 8356 H 793.033 0.795671 3.64312 0
M  V30 8357 N 795.218 -1.23913 0.973828 0
M  V30 8358 C 796.165 -2.25132 0.508366 0
M  V30 8359 C 797.135 -1.59908 -0.449307 0
M  V30 8360 O 798.32 -1.87405 -0.358313 0
M  V30 8361 C 795.46 -3.4458 -0.189422 0
M  V30 8362 C 794.573 -4.24381 0.807738 0
M  V30 8363 C 793.708 -5.31131 0.0854315 0
M  V30 8364 C 792.747 -6.02635 1.07225 0
M  V30 8365 N 791.884 -7.01073 0.379535 0
M  V30 8366 H 796.724 -2.64313 1.37632 0
M  V30 8367 H 794.261 -1.29924 0.689802 0
M  V30 8368 H 796.219 -4.12706 -0.610733 0
M  V30 8369 H 794.849 -3.06218 -1.02129 0
M  V30 8370 H 793.901 -3.55735 1.34747 0
M  V30 8371 H 795.213 -4.73778 1.55998 0
M  V30 8372 H 794.367 -6.05422 -0.393572 0
M  V30 8373 H 793.106 -4.82658 -0.699461 0
M  V30 8374 H 792.111 -5.27143 1.56207 0
M  V30 8375 H 793.336 -6.53197 1.85769 0
M  V30 8376 H 791.282 -6.54862 -0.386269 0
M  V30 8377 H 791.199 -7.48382 1.07054 0
M  V30 8378 H 792.467 -7.79462 -0.0772984 0
M  V30 8379 N 796.696 -0.74468 -1.38897 0
M  V30 8380 C 797.944 -0.296298 -1.99916 0
M  V30 8381 C 798.265 1.12325 -1.59399 0
M  V30 8382 O 797.535 1.76658 -0.846689 0
M  V30 8383 H 796.115 -0.106561 -0.73936 0
M  V30 8384 H 798.777 -0.956793 -1.69798 0
M  V30 8385 H 797.873 -0.352356 -3.10105 0
M  V30 8386 N 798.174 1.49689 -0.493057 0
M  V30 8387 C 799.104 2.31826 0.279073 0
M  V30 8388 C 800.085 1.39733 0.969987 0
M  V30 8389 O 801.27 1.68646 0.962925 0
M  V30 8390 C 798.4 3.20046 1.34862 0
M  V30 8391 C 797.354 4.20869 0.77805 0
M  V30 8392 C 796.68 4.97971 1.94753 0
M  V30 8393 C 797.98 5.21813 -0.225543 0
M  V30 8394 H 799.674 2.96627 -0.406512 0
M  V30 8395 H 797.22 1.42647 -0.196943 0
M  V30 8396 H 799.173 3.76315 1.89645 0
M  V30 8397 H 797.897 2.53172 2.06328 0
M  V30 8398 H 796.556 3.65733 0.252036 0
M  V30 8399 H 796.204 4.27552 2.64969 0
M  V30 8400 H 795.904 5.66186 1.57187 0
M  V30 8401 H 797.428 5.57082 2.49984 0
M  V30 8402 H 798.842 5.72823 0.233864 0
M  V30 8403 H 797.239 5.97872 -0.516622 0
M  V30 8404 H 798.309 4.71209 -1.14412 0
M  V30 8405 N 799.652 0.226554 1.55963 0
M  V30 8406 C 800.877 -0.411527 2.03276 0
M  V30 8407 C 801.302 -1.52206 1.10521 0
M  V30 8408 O 800.66 -1.81054 0.0943217 0
M  V30 8409 C 800.708 -0.915694 3.4878 0
M  V30 8410 O 799.812 -2.02672 3.59163 0
M  V30 8411 H 799.153 -0.0924907 0.657527 0
M  V30 8412 H 801.683 0.346656 2.01642 0
M  V30 8413 H 801.693 -1.22421 3.892 0
M  V30 8414 H 800.368 -0.102915 4.15773 0
M  V30 8415 H 798.945 -1.72445 3.30632 0
M  V30 8416 N 801.13 -1.57531 -0.0467866 0
M  V30 8417 C 802.376 -1.8873 -0.742218 0
M  V30 8418 C 802.709 -0.822084 -1.75941 0
M  V30 8419 O 801.984 0.164922 -1.938 0
M  V30 8420 C 802.267 -3.30586 -1.42776 0
M  V30 8421 C 802.12 -4.47785 -0.425285 0
M  V30 8422 C 803.439 -3.71068 -2.36636 0
M  V30 8423 H 800.558 -0.686406 -0.268359 0
M  V30 8424 H 803.2 -1.89999 -0.00511341 0
M  V30 8425 H 801.35 -3.29634 -2.05605 0
M  V30 8426 H 803.022 -4.60867 0.199721 0
M  V30 8427 H 801.265 -4.33037 0.25713 0
M  V30 8428 H 801.936 -5.43884 -0.943086 0
M  V30 8429 H 804.412 -3.73273 -1.83866 0
M  V30 8430 H 803.288 -4.71165 -2.81593 0
M  V30 8431 H 803.549 -3.02355 -3.22542 0
M  V30 8432 N 802.608 0.318715 -1.54344 0
M  V30 8433 C 803.855 1.05608 -1.72781 0
M  V30 8434 C 804.183 1.87854 -0.504083 0
M  V30 8435 O 803.438 1.88826 0.51414 0
M  V30 8436 C 803.737 2.00514 -2.95853 0
M  V30 8437 C 803.403 1.34385 -4.30409 0
M  V30 8438 C 802.065 1.16081 -4.66989 0
M  V30 8439 C 804.417 0.869627 -5.13894 0
M  V30 8440 C 801.745 0.490114 -5.84649 0
M  V30 8441 C 804.097 0.212735 -6.32242 0
M  V30 8442 C 802.761 0.0175882 -6.67498 0
M  V30 8443 H 802.031 0.386449 -0.632249 0
M  V30 8444 H 804.678 0.332729 -1.88587 0
M  V30 8445 H 802.983 2.79317 -2.74753 0
M  V30 8446 H 804.68 2.57605 -3.07312 0
M  V30 8447 H 801.27 1.49634 -4.01631 0
M  V30 8448 H 805.454 0.998809 -4.86146 0
M  V30 8449 H 800.71 0.327767 -6.10521 0
M  V30 8450 H 804.884 -0.162699 -6.9621 0
M  V30 8451 H 802.511 -0.504137 -7.58527 0
M  V30 8452 N 804.086 1.46499 0.581025 0
M  V30 8453 C 805.016 1.60052 1.70017 0
M  V30 8454 C 805.997 0.450788 1.64018 0
M  V30 8455 O 807.182 0.677237 1.82009 0
M  V30 8456 C 804.312 1.5921 3.08658 0
M  V30 8457 C 803.266 2.73169 3.29488 0
M  V30 8458 C 802.592 2.57389 4.68674 0
M  V30 8459 C 803.892 4.14978 3.1716 0
M  V30 8460 H 805.586 2.53735 1.5893 0
M  V30 8461 H 803.132 1.22113 0.763173 0
M  V30 8462 H 805.085 1.67285 3.86773 0
M  V30 8463 H 803.809 0.620718 3.20647 0
M  V30 8464 H 802.468 2.64566 2.53773 0
M  V30 8465 H 802.116 1.58331 4.77431 0
M  V30 8466 H 801.816 3.33826 4.83564 0
M  V30 8467 H 803.34 2.67358 5.48956 0
M  V30 8468 H 804.754 4.24684 3.85119 0
M  V30 8469 H 803.151 4.92016 3.4357 0
M  V30 8470 H 804.221 4.35016 2.14218 0
M  V30 8471 N 805.565 -0.825799 1.34232 0
M  V30 8472 C 806.513 -1.95792 1.25572 0
M  V30 8473 C 807.507 -1.68695 0.154404 0
M  V30 8474 O 808.713 -1.77147 0.319196 0
M  V30 8475 H 805.088 -0.642949 0.390027 0
M  V30 8476 H 807.059 -2.00219 2.21258 0
M  V30 8477 C 805.808 -3.32245 1.02511 0
M  V30 8478 H 805.131 -3.53642 1.86487 0
M  V30 8479 H 806.571 -4.1192 1.00487 0
M  V30 8480 C 805.03 -3.35803 -0.27167 0
M  V30 8481 O 805.56 -3.80962 -1.274 0
M  V30 8482 N 803.766 -2.89008 -0.303778 0
M  V30 8483 H 803.313 -2.52451 0.512464 0
M  V30 8484 H 803.271 -2.9177 -1.17121 0
M  V30 8485 N 807.043 -1.17915 -1.04565 0
M  V30 8486 C 808.459 -0.927761 -1.29864 0
M  V30 8487 C 808.659 0.409536 -1.97294 0
M  V30 8488 O 807.715 1.14505 -2.25044 0
M  V30 8489 C 809.028 -2.08967 -2.16225 0
M  V30 8490 C 810.576 -2.12741 -2.29587 0
M  V30 8491 C 811.051 -3.28335 -3.19312 0
M  V30 8492 N 812.542 -3.28164 -3.26898 0
M  V30 8493 C 813.277 -4.14249 -3.96466 0
M  V30 8494 N 812.773 -5.10457 -4.68407 0
M  V30 8495 N 814.566 -4.02179 -3.92694 0
M  V30 8496 H 806.717 -2.03983 -0.592011 0
M  V30 8497 H 808.98 -0.891023 -0.323701 0
M  V30 8498 H 808.686 -3.05654 -1.73979 0
M  V30 8499 H 808.56 -2.04606 -3.16885 0
M  V30 8500 H 810.947 -1.16636 -2.71072 0
M  V30 8501 H 811.028 -2.21162 -1.28535 0
M  V30 8502 H 810.672 -4.2471 -2.78539 0
M  V30 8503 H 810.602 -3.17151 -4.20384 0
M  V30 8504 H 813.093 -2.58511 -2.75646 0
M  V30 8505 H 813.406 -5.72526 -5.1907 0
M  V30 8506 H 811.751 -5.14422 -4.67328 0
M  V30 8507 H 814.942 -3.26308 -3.3562 0
M  V30 8508 H 815.115 -4.69486 -4.4664 0
M  V30 8509 N 808.521 1.23394 -0.980386 0
M  V30 8510 C 809.484 2.23092 -0.525619 0
M  V30 8511 C 810.484 1.56129 0.384745 0
M  V30 8512 O 811.674 1.73284 0.178439 0
M  V30 8513 C 808.806 3.40074 0.23712 0
M  V30 8514 H 809.999 2.64839 -1.40714 0
M  V30 8515 H 807.552 1.36227 -0.766275 0
M  V30 8516 H 808.287 3.03783 1.13518 0
M  V30 8517 H 808.072 3.89883 -0.416356 0
M  V30 8518 H 809.562 4.14043 0.543892 0
M  V30 8519 N 809.999 0.752036 1.385 0
M  V30 8520 C 810.946 0.123288 2.3047 0
M  V30 8521 C 811.916 -0.711326 1.50098 0
M  V30 8522 O 813.101 -0.667775 1.78733 0
M  V30 8523 C 810.241 -0.765085 3.36512 0
M  V30 8524 C 809.354 0.0839885 4.31918 0
M  V30 8525 C 808.489 -0.807243 5.25031 0
M  V30 8526 C 807.528 0.0455583 6.12083 0
M  V30 8527 N 806.665 -0.802547 6.97498 0
M  V30 8528 H 811.505 0.913169 2.83664 0
M  V30 8529 H 809.042 0.46195 1.39658 0
M  V30 8530 H 811 -1.29476 3.966 0
M  V30 8531 H 809.63 -1.52077 2.84732 0
M  V30 8532 H 808.682 0.731276 3.73305 0
M  V30 8533 H 809.994 0.74265 4.9324 0
M  V30 8534 H 809.148 -1.40414 5.90228 0
M  V30 8535 H 807.887 -1.49964 4.64071 0
M  V30 8536 H 806.892 0.655137 5.45883 0
M  V30 8537 H 808.117 0.734994 6.75111 0
M  V30 8538 H 806.063 -1.47992 6.39089 0
M  V30 8539 H 805.98 -0.200747 7.55733 0
M  V30 8540 H 807.248 -1.38447 7.67107 0
M  V30 8541 N 811.477 -1.49425 0.500989 0
M  V30 8542 C 812.44 -2.27646 -0.266416 0
M  V30 8543 C 813.44 -1.3366 -0.893961 0
M  V30 8544 O 814.63 -1.5682 -0.758495 0
M  V30 8545 C 811.762 -3.11618 -1.38227 0
M  V30 8546 H 812.955 -2.96945 0.419973 0
M  V30 8547 H 810.508 -1.5419 0.255954 0
M  V30 8548 H 811.243 -2.46885 -2.10281 0
M  V30 8549 H 811.028 -3.80721 -0.937746 0
M  V30 8550 H 812.518 -3.70698 -1.92283 0
M  V30 8551 N 812.955 -0.234822 -1.55841 0
M  V30 8552 C 814.201 0.393843 -1.98939 0
M  V30 8553 C 814.534 1.58466 -1.1226 0
M  V30 8554 O 813.809 1.93635 -0.183242 0
M  V30 8555 C 814.092 0.815492 -3.50745 0
M  V30 8556 C 813.945 -0.379878 -4.48193 0
M  V30 8557 C 815.264 1.66687 -4.07312 0
M  V30 8558 H 812.383 0.141681 -0.723253 0
M  V30 8559 H 815.025 -0.333716 -1.87046 0
M  V30 8560 H 813.175 1.43541 -3.6101 0
M  V30 8561 H 814.847 -1.0182 -4.49923 0
M  V30 8562 H 813.09 -1.02507 -4.21515 0
M  V30 8563 H 813.761 -0.0417069 -5.51984 0
M  V30 8564 H 816.237 1.14369 -4.00074 0
M  V30 8565 H 815.113 1.93078 -5.13821 0
M  V30 8566 H 815.374 2.63468 -3.55017 0
M  V30 8567 N 814.433 1.57553 0.0384317 0
M  V30 8568 C 815.68 1.88841 0.731116 0
M  V30 8569 C 816.008 0.83093 1.75857 0
M  V30 8570 O 815.263 -0.169248 1.94967 0
M  V30 8571 C 815.562 3.26862 1.44554 0
M  V30 8572 C 815.228 4.47472 0.554946 0
M  V30 8573 C 813.89 4.80203 0.309621 0
M  V30 8574 C 816.242 5.21165 -0.0605204 0
M  V30 8575 C 813.57 5.8402 -0.560101 0
M  V30 8576 C 815.922 6.25905 -0.91789 0
M  V30 8577 C 814.586 6.57117 -1.17277 0
M  V30 8578 H 813.856 0.691018 0.267534 0
M  V30 8579 H 816.503 1.91498 -0.00883195 0
M  V30 8580 H 814.808 3.2015 2.25856 0
M  V30 8581 H 816.505 3.48316 1.98688 0
M  V30 8582 H 813.095 4.21874 0.756304 0
M  V30 8583 H 817.279 4.96164 0.116064 0
M  V30 8584 H 812.535 6.06583 -0.765974 0
M  V30 8585 H 816.709 6.82155 -1.40136 0
M  V30 8586 H 814.336 7.37385 -1.84843 0
M  V30 8587 N 815.911 -0.310526 1.54511 0
M  V30 8588 C 817.158 -1.04691 1.73338 0
M  V30 8589 C 817.486 -1.87584 0.514038 0
M  V30 8590 O 816.741 -1.89096 -0.504119 0
M  V30 8591 C 817.04 -1.98942 2.96912 0
M  V30 8592 C 816.706 -1.321 4.31115 0
M  V30 8593 C 815.368 -1.13603 4.67598 0
M  V30 8594 C 817.72 -0.842362 5.14348 0
M  V30 8595 C 815.048 -0.459102 5.84901 0
M  V30 8596 C 817.4 -0.179202 6.32346 0
M  V30 8597 C 816.064 0.0178111 6.67498 0
M  V30 8598 H 815.334 -0.38309 0.634289 0
M  V30 8599 H 817.981 -0.322723 1.88761 0
M  V30 8600 H 816.286 -2.77856 2.76231 0
M  V30 8601 H 817.983 -2.55972 3.08674 0
M  V30 8602 H 814.573 -1.47502 4.02419 0
M  V30 8603 H 818.757 -0.973013 4.86668 0
M  V30 8604 H 814.013 -0.295385 6.10686 0
M  V30 8605 H 818.187 0.199619 6.96114 0
M  V30 8606 H 815.814 0.544356 7.58249 0
M  V30 8607 N 817.389 -1.46805 -0.573248 0
M  V30 8608 C 818.8 -1.46655 -1.15539 0
M  V30 8609 C 819.151 -0.2125 -1.95046 0
M  V30 8610 O 818.276 0.683759 -2.05314 0
M  V30 8611 C 818.871 -2.65711 -2.10198 0
M  V30 8612 C 817.43 -2.68572 -2.63716 0
M  V30 8613 C 816.577 -2.39498 -1.39772 0
M  V30 8614 H 819.528 -1.54547 -0.36068 0
M  V30 8615 H 819.549 -2.41768 -2.93817 0
M  V30 8616 H 819.061 -3.56967 -1.52303 0
M  V30 8617 H 817.162 -1.81414 -3.25453 0
M  V30 8618 H 817.275 -3.68809 -3.05805 0
M  V30 8619 H 815.639 -1.89749 -1.69904 0
M  V30 8620 H 816.422 -3.32942 -0.836943 0
M  V30 8621 N 818.867 0.818669 -1.34668 0
M  V30 8622 C 820.115 1.57201 -1.27013 0
M  V30 8623 C 820.436 1.94354 0.158599 0
M  V30 8624 O 819.706 1.62626 1.09223 0
M  V30 8625 H 818.286 0.582919 -0.467135 0
M  V30 8626 H 820.948 0.977234 -1.6863 0
M  V30 8627 H 820.044 2.49291 -1.87778 0
M  V30 8628 N 820.346 1.18468 1.03938 0
M  V30 8629 C 821.294 0.909286 2.14091 0
M  V30 8630 C 822.288 -0.130928 1.68893 0
M  V30 8631 O 823.494 0.0173403 1.79992 0
M  V30 8632 H 819.869 0.27658 0.699291 0
M  V30 8633 H 821.84 1.84514 2.34515 0
M  V30 8634 C 820.589 0.452922 3.44737 0
M  V30 8635 H 819.912 1.24485 3.79926 0
M  V30 8636 H 821.352 0.299238 4.22943 0
M  V30 8637 C 819.811 -0.831435 3.26479 0
M  V30 8638 O 820.341 -1.89535 3.54174 0
M  V30 8639 N 818.547 -0.784545 2.79809 0
M  V30 8640 H 818.094 0.0814746 2.57471 0
M  V30 8641 H 818.052 -1.64431 2.67973 0
M  V30 8642 N 821.824 -1.22873 0.986916 0
M  V30 8643 C 822.756 -2.23889 0.490537 0
M  V30 8644 C 823.769 -1.57523 -0.411144 0
M  V30 8645 O 824.958 -1.7721 -0.214236 0
M  V30 8646 C 822.058 -3.37488 -0.30902 0
M  V30 8647 C 821.231 -4.33438 0.587354 0
M  V30 8648 C 820.29 -5.25958 -0.159467 0
M  V30 8649 O 819.316 -5.67394 0.453115 0
M  V30 8650 N 820.518 -5.62265 -1.44355 0
M  V30 8651 H 823.283 -2.67109 1.35914 0
M  V30 8652 H 820.844 -1.37111 0.860937 0
M  V30 8653 H 822.836 -3.96365 -0.817139 0
M  V30 8654 H 821.406 -2.934 -1.07868 0
M  V30 8655 H 820.626 -3.72969 1.27622 0
M  V30 8656 H 821.914 -4.94495 1.19801 0
M  V30 8657 H 821.312 -5.30562 -1.96266 0
M  V30 8658 H 819.869 -6.23585 -1.89698 0
M  V30 8659 N 823.302 -0.75937 -1.38099 0
M  V30 8660 C 824.212 -0.13774 -2.34195 0
M  V30 8661 C 825.228 0.693985 -1.59561 0
M  V30 8662 O 826.404 0.616792 -1.91723 0
M  V30 8663 C 823.469 0.740535 -3.38699 0
M  V30 8664 C 822.53 -0.106225 -4.29169 0
M  V30 8665 C 821.763 0.730225 -5.28681 0
M  V30 8666 O 821.986 1.96796 -5.35376 0
M  V30 8667 O 820.92 0.145969 -6.01723 0
M  V30 8668 H 824.746 -0.931512 -2.89061 0
M  V30 8669 H 822.331 -0.520345 -1.40046 0
M  V30 8670 H 824.213 1.24232 -4.02672 0
M  V30 8671 H 822.888 1.51271 -2.8618 0
M  V30 8672 H 821.795 -0.654088 -3.68337 0
M  V30 8673 H 823.128 -0.841186 -4.84959 0
M  V30 8674 N 824.78 1.49157 -0.508906 0
M  V30 8675 C 825.727 2.2927 0.265288 0
M  V30 8676 C 826.697 1.3603 0.953162 0
M  V30 8677 O 827.882 1.64989 0.958291 0
M  V30 8678 C 825.022 3.18897 1.31904 0
M  V30 8679 C 824.135 4.27201 0.642144 0
M  V30 8680 C 823.27 5.04033 1.67701 0
M  V30 8681 C 822.309 6.04165 0.982422 0
M  V30 8682 N 821.446 6.74133 1.96186 0
M  V30 8683 H 826.286 2.94967 -0.424107 0
M  V30 8684 H 823.823 1.45431 -0.220991 0
M  V30 8685 H 825.781 3.69242 1.94206 0
M  V30 8686 H 824.411 2.55168 1.97709 0
M  V30 8687 H 823.463 3.80283 -0.0943395 0
M  V30 8688 H 824.775 4.98708 0.0957507 0
M  V30 8689 H 823.929 5.58287 2.37487 0
M  V30 8690 H 822.668 4.32317 2.25728 0
M  V30 8691 H 821.673 5.49135 0.270378 0
M  V30 8692 H 822.898 6.7787 0.408554 0
M  V30 8693 H 820.844 6.05183 2.53159 0
M  V30 8694 H 820.761 7.41643 1.46634 0
M  V30 8695 H 822.029 7.32987 2.65236 0
M  V30 8696 N 826.258 0.243083 1.55714 0
M  V30 8697 C 827.535 -0.432851 1.90751 0
M  V30 8698 C 827.915 -1.76153 1.16333 0
M  V30 8699 O 827.263 -2.26783 0.279565 0
M  V30 8700 C 827.473 -0.604685 3.43722 0
M  V30 8701 C 828.821 -0.90231 4.14902 0
M  V30 8702 O 829.845 -0.690689 3.49439 0
M  V30 8703 O 828.704 -1.3051 5.30688 0
M  V30 8704 H 825.798 -0.231835 0.79384 0
M  V30 8705 H 828.344 0.286867 1.67258 0
M  V30 8706 H 827.116 0.331655 3.89892 0
M  V30 8707 H 826.739 -1.37509 3.73065 0
M  V30 8708 N 827.736 -1.57571 -0.0300757 0
M  V30 8709 C 829.147 -1.77567 -0.576802 0
M  V30 8710 C 829.498 -0.874034 -1.75656 0
M  V30 8711 O 828.623 -0.0686124 -2.16291 0
M  V30 8712 C 829.218 -3.22016 -1.05315 0
M  V30 8713 C 827.777 -3.43212 -1.5454 0
M  V30 8714 C 826.924 -2.73061 -0.483033 0
M  V30 8715 H 829.875 -1.57483 0.196151 0
M  V30 8716 H 829.896 -3.28474 -1.92055 0
M  V30 8717 H 829.408 -3.87613 -0.194298 0
M  V30 8718 H 827.509 -2.82788 -2.42615 0
M  V30 8719 H 827.622 -4.5182 -1.5936 0
M  V30 8720 H 825.986 -2.36805 -0.937835 0
M  V30 8721 H 826.769 -3.4134 0.366341 0
M  V30 8722 N 829.214 0.302327 -1.54673 0
M  V30 8723 C 830.144 1.37759 -1.88533 0
M  V30 8724 C 831.125 1.52961 -0.744113 0
M  V30 8725 O 832.31 1.6649 -0.999731 0
M  V30 8726 C 829.44 2.74201 -2.13146 0
M  V30 8727 C 828.394 2.73765 -3.28993 0
M  V30 8728 C 827.72 4.13483 -3.39022 0
M  V30 8729 C 829.02 2.35624 -4.66132 0
M  V30 8730 H 830.714 1.0967 -2.78591 0
M  V30 8731 H 828.26 0.52613 -1.34044 0
M  V30 8732 H 830.213 3.49508 -2.35419 0
M  V30 8733 H 828.937 3.03812 -1.19858 0
M  V30 8734 H 827.596 2.00914 -3.06642 0
M  V30 8735 H 827.244 4.40269 -2.43253 0
M  V30 8736 H 826.944 4.14093 -4.16894 0
M  V30 8737 H 828.468 4.90572 -3.63553 0
M  V30 8738 H 829.882 3.00647 -4.88143 0
M  V30 8739 H 828.279 2.47449 -5.46707 0
M  V30 8740 H 829.349 1.30753 -4.66939 0
M  V30 8741 N 830.692 1.47107 0.565454 0
M  V30 8742 C 831.622 1.61846 1.68309 0
M  V30 8743 C 832.603 0.468159 1.63531 0
M  V30 8744 O 833.788 0.696504 1.8128 0
M  V30 8745 C 830.918 1.62474 3.06952 0
M  V30 8746 C 829.872 2.76649 3.26572 0
M  V30 8747 C 829.198 2.62345 4.65917 0
M  V30 8748 C 830.498 4.18319 3.12741 0
M  V30 8749 H 832.192 2.55407 1.5623 0
M  V30 8750 H 829.738 1.22916 0.750179 0
M  V30 8751 H 831.691 1.71378 3.84977 0
M  V30 8752 H 830.415 0.654692 3.19971 0
M  V30 8753 H 829.074 2.67242 2.50952 0
M  V30 8754 H 828.722 1.63386 4.75725 0
M  V30 8755 H 828.422 3.38936 4.79996 0
M  V30 8756 H 829.946 2.73165 5.46089 0
M  V30 8757 H 831.36 4.28745 3.80593 0
M  V30 8758 H 829.757 4.95632 3.38333 0
M  V30 8759 H 830.827 4.37263 2.09592 0
M  V30 8760 N 832.17 -0.811516 1.35101 0
M  V30 8761 C 833.117 -1.92308 1.27617 0
M  V30 8762 C 834.087 -1.6543 0.149091 0
M  V30 8763 O 835.272 -1.8789 0.331974 0
M  V30 8764 C 832.412 -3.28768 1.04908 0
M  V30 8765 C 831.525 -3.67865 2.26493 0
M  V30 8766 C 830.66 -4.9333 1.96974 0
M  V30 8767 C 829.699 -5.25041 3.1464 0
M  V30 8768 N 828.836 -6.41685 2.84929 0
M  V30 8769 H 833.676 -1.98041 2.22674 0
M  V30 8770 H 831.213 -0.968755 1.10696 0
M  V30 8771 H 833.171 -4.07426 0.897749 0
M  V30 8772 H 831.801 -3.22517 0.135151 0
M  V30 8773 H 830.853 -2.84507 2.52507 0
M  V30 8774 H 832.165 -3.87263 3.14371 0
M  V30 8775 H 831.319 -5.79803 1.78643 0
M  V30 8776 H 830.058 -4.75958 1.06374 0
M  V30 8777 H 829.063 -4.3706 3.33554 0
M  V30 8778 H 830.288 -5.44346 4.06035 0
M  V30 8779 H 828.234 -6.25747 1.96918 0
M  V30 8780 H 828.151 -6.6131 3.66341 0
M  V30 8781 H 829.419 -7.31198 2.70128 0
M  V30 8782 N 833.648 -1.19017 -1.03309 0
M  V30 8783 C 834.596 -0.920627 -2.13605 0
M  V30 8784 C 835.59 0.121969 -1.6896 0
M  V30 8785 O 836.796 -0.0268854 -1.7998 0
M  V30 8786 H 833.171 -0.280284 -0.697814 0
M  V30 8787 H 835.142 -1.85755 -2.33533 0
M  V30 8788 C 833.891 -0.471198 -3.44492 0
M  V30 8789 H 833.214 -1.26499 -3.7926 0
M  V30 8790 H 834.654 -0.321663 -4.22778 0
M  V30 8791 C 833.113 0.81411 -3.26916 0
M  V30 8792 O 833.643 1.87654 -3.55175 0
M  V30 8793 N 831.849 0.769695 -2.80221 0
M  V30 8794 H 831.396 -0.0951278 -2.57424 0
M  V30 8795 H 831.354 1.63008 -2.68842 0
M  V30 8796 N 835.127 1.22348 -0.993418 0
M  V30 8797 C 836.059 2.23626 -0.502404 0
M  V30 8798 C 837.072 1.57739 0.402784 0
M  V30 8799 O 838.261 1.77321 0.204835 0
M  V30 8800 C 835.361 3.37647 0.291118 0
M  V30 8801 C 834.534 4.33121 -0.610332 0
M  V30 8802 C 833.593 5.26035 0.131572 0
M  V30 8803 O 832.619 5.67145 -0.483199 0
M  V30 8804 N 833.821 5.63023 1.41371 0
M  V30 8805 H 836.586 2.66385 -1.37329 0
M  V30 8806 H 834.147 1.36653 -0.868196 0
M  V30 8807 H 836.139 3.96792 0.796107 0
M  V30 8808 H 834.709 2.93967 1.0631 0
M  V30 8809 H 833.929 3.72287 -1.29598 0
M  V30 8810 H 835.217 4.93853 -1.22422 0
M  V30 8811 H 834.615 5.31596 1.93449 0
M  V30 8812 H 833.172 6.24582 1.86388 0
M  V30 8813 N 836.605 0.766683 1.37694 0
M  V30 8814 C 837.515 0.150158 2.34119 0
M  V30 8815 C 838.531 -0.685513 1.59927 0
M  V30 8816 O 839.707 -0.606616 1.92047 0
M  V30 8817 C 836.772 -0.722562 3.39087 0
M  V30 8818 C 835.833 0.128983 4.29106 0
M  V30 8819 C 835.066 -0.702178 5.29061 0
M  V30 8820 O 835.289 -1.93954 5.36412 0
M  V30 8821 O 834.223 -0.114056 6.01792 0
M  V30 8822 H 838.049 0.946829 2.88563 0
M  V30 8823 H 835.634 0.527765 1.39768 0
M  V30 8824 H 837.516 -1.22095 4.03325 0
M  V30 8825 H 836.191 -1.49751 2.86978 0
M  V30 8826 H 835.098 0.673612 3.67985 0
M  V30 8827 H 836.431 0.866892 4.84506 0
M  V30 8828 N 838.083 -1.48885 0.516809 0
M  V30 8829 C 839.33 -2.02488 -0.0220602 0
M  V30 8830 C 839.658 -1.39513 -1.35523 0
M  V30 8831 O 838.913 -0.52558 -1.8851 0
M  V30 8832 C 839.212 -3.56801 -0.206798 0
M  V30 8833 C 838.878 -4.38496 1.05035 0
M  V30 8834 C 837.54 -4.60538 1.39492 0
M  V30 8835 C 839.892 -4.85909 1.88525 0
M  V30 8836 C 837.22 -5.2724 2.57361 0
M  V30 8837 C 839.572 -5.53909 3.05561 0
M  V30 8838 C 838.236 -5.74193 3.4038 0
M  V30 8839 H 837.506 -0.740956 -0.00807238 0
M  V30 8840 H 840.153 -1.79014 0.680168 0
M  V30 8841 H 838.458 -3.79042 -0.991687 0
M  V30 8842 H 840.155 -3.95885 -0.638447 0
M  V30 8843 H 836.745 -4.2159 0.771984 0
M  V30 8844 H 840.929 -4.68694 1.63218 0
M  V30 8845 H 836.185 -5.41145 2.84556 0
M  V30 8846 H 840.359 -5.89619 3.7057 0
M  V30 8847 H 837.986 -6.25652 4.31814 0
M  V30 8848 N 839.561 -0.251338 -1.55583 0
M  V30 8849 C 840.508 0.646337 -2.21565 0
M  V30 8850 C 841.478 1.16796 -1.18102 0
M  V30 8851 O 842.663 1.22162 -1.46564 0
M  V30 8852 C 839.803 1.83557 -2.92234 0
M  V30 8853 C 838.916 1.35006 -4.10363 0
M  V30 8854 C 838.051 2.4992 -4.68736 0
M  V30 8855 C 837.09 1.98253 -5.79105 0
M  V30 8856 N 836.227 3.06551 -6.31642 0
M  V30 8857 H 841.067 0.0769881 -2.97901 0
M  V30 8858 H 838.604 0.026238 -1.47077 0
M  V30 8859 H 840.562 2.53425 -3.31408 0
M  V30 8860 H 839.192 2.37733 -2.18364 0
M  V30 8861 H 838.244 0.545274 -3.76472 0
M  V30 8862 H 839.556 0.931435 -4.90026 0
M  V30 8863 H 838.71 3.27823 -5.10507 0
M  V30 8864 H 837.449 2.95086 -3.88298 0
M  V30 8865 H 836.454 1.18822 -5.36807 0
M  V30 8866 H 837.679 1.54051 -6.61396 0
M  V30 8867 H 835.625 3.51143 -5.54107 0
M  V30 8868 H 835.542 2.69033 -7.06511 0
M  V30 8869 H 836.81 3.84499 -6.78071 0
M  V30 8870 N 841.039 1.57585 0.0217189 0
M  V30 8871 C 842.287 1.89231 0.709641 0
M  V30 8872 C 842.608 0.849964 1.75501 0
M  V30 8873 O 841.878 -0.115485 1.95559 0
M  V30 8874 H 840.458 0.69838 0.265092 0
M  V30 8875 H 843.12 1.94895 -0.0140688 0
M  V30 8876 H 842.216 2.88333 1.19459 0
M  V30 8877 N 842.517 -0.29412 1.54831 0
M  V30 8878 C 843.763 -1.02999 1.74697 0
M  V30 8879 C 844.096 -1.86687 0.534949 0
M  V30 8880 O 843.371 -1.88789 -0.467863 0
M  V30 8881 C 843.654 -1.93024 3.03996 0
M  V30 8882 C 843.507 -1.1247 4.35512 0
M  V30 8883 C 844.826 -2.92085 3.29203 0
M  V30 8884 H 841.945 -0.373039 0.635618 0
M  V30 8885 H 844.587 -0.304065 1.87551 0
M  V30 8886 H 842.737 -2.5492 2.93169 0
M  V30 8887 H 844.409 -0.528067 4.58268 0
M  V30 8888 H 842.652 -0.427574 4.31688 0
M  V30 8889 H 843.323 -1.78728 5.22265 0
M  V30 8890 H 845.799 -2.40319 3.39685 0
M  V30 8891 H 844.675 -3.52234 4.20978 0
M  V30 8892 H 844.936 -3.66107 2.47827 0
M  V30 8893 N 843.995 -1.47404 -0.557645 0
M  V30 8894 C 845.22 -1.57868 -1.34508 0
M  V30 8895 C 845.645 -0.229151 -1.86699 0
M  V30 8896 O 845.003 0.794908 -1.62944 0
M  V30 8897 C 845.051 -2.60712 -2.49122 0
M  V30 8898 O 844.155 -2.15952 -3.51338 0
M  V30 8899 H 843.496 -0.530335 -0.399551 0
M  V30 8900 H 846.026 -1.93181 -0.673954 0
M  V30 8901 H 846.036 -2.81118 -2.95697 0
M  V30 8902 H 844.711 -3.58701 -2.10491 0
M  V30 8903 H 843.288 -2.05644 -3.11071 0
M  V30 8904 O 845.512 0.702284 -1.45431 0
M  V30 8905 H 846.203 1.35379 -1.38536 0
M  V30 END ATOM
M  V30 BEGIN BOND
M  V30 END BOND
M  V30 END CTAB
M  END
$$$$
