drugbank_target|P68871 Hemoglobin subunit beta (DB00893; DB01593; DB02126; DB06154; DB07427; DB07428; DB07645; DB08077; DB08262; DB08486; DB08632; DB09112; DB09130; DB09147; DB09517; DB13995; DB14487; DB14533; DB14548)
 OpenBabel12092119363D

  0  0  0     0  0            999 V3000
M  V30 BEGIN CTAB
M  V30 COUNTS 2258 2288 0 0 0
M  V30 BEGIN ATOM
M  V30 1 H -0.908 1.98254 -0.117106 0
M  V30 2 N 0 1.576 0 0
M  V30 3 C 0.933 2.03868 1.02534 0
M  V30 4 C 1.911 0.928543 1.3348 0
M  V30 5 O 3.095 1.19667 1.45644 0
M  V30 6 C 0.222 2.43627 2.35294 0
M  V30 7 C -0.732 3.65373 2.2001 0
M  V30 8 S 0.101 5.13292 1.52614 0
M  V30 9 C 1.257 5.56322 2.86805 0
M  V30 10 H 1.49 2.90518 0.631377 0
M  V30 11 H -0.977 1.52953 0.210867 0
M  V30 12 H 0.981 2.67203 3.11629 0
M  V30 13 H -0.358 1.57376 2.7183 0
M  V30 14 H -1.165 3.90944 3.18086 0
M  V30 15 H -1.563 3.418 1.51819 0
M  V30 16 H 0.729 5.58782 3.83104 0
M  V30 17 H 1.672 6.56266 2.65933 0
M  V30 18 H 2.08 4.83886 2.90714 0
M  V30 19 N 1.4781 -0.272755 1.55222 0
M  V30 20 C 2.7241 -1.00581 1.761 0
M  V30 21 C 3.0571 -1.85932 0.560625 0
M  V30 22 O 2.3321 -1.89416 -0.441801 0
M  V30 23 C 2.6151 -1.88816 3.06628 0
M  V30 24 C 2.4681 -1.06457 4.37021 0
M  V30 25 C 3.7871 -2.8752 3.33197 0
M  V30 26 H 0.9061 -0.364244 0.640699 0
M  V30 27 H 3.5481 -0.278189 1.87952 0
M  V30 28 H 1.6981 -2.50856 2.96654 0
M  V30 29 H 3.3701 -0.464863 4.58952 0
M  V30 30 H 1.6131 -0.368043 4.32236 0
M  V30 31 H 2.2841 -1.71514 5.24678 0
M  V30 32 H 4.7601 -2.35615 3.42965 0
M  V30 33 H 3.6361 -3.46399 4.25792 0
M  V30 34 H 3.8971 -3.62657 2.52849 0
M  V30 35 N 2.9562 -1.48159 -0.537278 0
M  V30 36 C 3.9062 -1.5854 -1.63857 0
M  V30 37 C 4.8902 -0.442969 -1.54682 0
M  V30 38 O 6.0822 -0.69401 -1.62827 0
M  V30 39 C 3.2112 -1.62144 -3.02596 0
M  V30 40 C 2.2972 -2.81841 -3.16901 0
M  V30 41 N 2.6882 -4.06337 -3.01204 0
M  V30 42 C 0.9862 -2.79021 -3.47942 0
M  V30 43 C 1.6872 -4.86606 -3.18731 0
M  V30 44 N 0.6632 -4.19288 -3.45974 0
M  V30 45 H 4.4652 -2.5255 -1.50319 0
M  V30 46 H 1.9792 -1.4443 -0.742555 0
M  V30 47 H 3.9762 -1.67674 -3.81695 0
M  V30 48 H 2.6362 -0.69245 -3.17231 0
M  V30 49 H 3.6472 -4.36888 -2.78117 0
M  V30 50 H 0.3242 -1.95347 -3.6898 0
M  V30 51 H 1.7142 -5.95385 -3.11394 0
M  V30 52 N 4.4343 0.785586 -1.36625 0
M  V30 53 C 5.3643 1.91259 -1.33949 0
M  V30 54 C 6.3453 1.68795 -0.210325 0
M  V30 55 O 7.5303 1.89854 -0.408561 0
M  V30 56 C 4.6603 3.28339 -1.13186 0
M  V30 57 C 3.6143 3.65335 -2.22967 0
M  V30 58 C 2.9403 5.00806 -1.87342 0
M  V30 59 C 4.2403 3.7352 -3.65075 0
M  V30 60 H 5.9343 1.93755 -2.28253 0
M  V30 61 H 3.4803 0.930788 -1.09874 0
M  V30 62 H 5.4333 4.06804 -1.09948 0
M  V30 63 H 4.1573 3.2624 -0.153332 0
M  V30 64 H 2.8163 2.89169 -2.25337 0
M  V30 65 H 2.4643 4.95233 -0.880545 0
M  V30 66 H 2.1643 5.26529 -2.60846 0
M  V30 67 H 3.6883 5.81687 -1.85667 0
M  V30 68 H 5.1023 4.42168 -3.64911 0
M  V30 69 H 3.4993 4.10731 -4.37516 0
M  V30 70 H 4.5693 2.74527 -3.99703 0
M  V30 71 N 5.9124 1.20967 1.01018 0
M  V30 72 C 7.1404 1.04956 1.78303 0
M  V30 73 C 7.5554 -0.400915 1.84494 0
M  V30 74 O 6.9124 -1.27826 1.30257 0
M  V30 75 C 6.9634 1.63403 3.22462 0
M  V30 76 O 6.6844 3.02775 3.16637 0
M  V30 77 C 8.1854 1.52432 4.16268 0
M  V30 78 H 5.4054 0.368858 0.560522 0
M  V30 79 H 7.9494 1.60193 1.27116 0
M  V30 80 H 6.1044 1.1227 3.70775 0
M  V30 81 H 6.5184 3.30626 4.07169 0
M  V30 82 H 7.9924 1.98078 5.15237 0
M  V30 83 H 8.4694 0.477875 4.36592 0
M  V30 84 H 9.0754 2.02787 3.73841 0
M  V30 85 N 7.3905 -1.2043 1.01659 0
M  V30 86 C 8.8015 -1.71517 0.737482 0
M  V30 87 C 9.1525 -1.81547 -0.743973 0
M  V30 88 O 8.2775 -1.47803 -1.58061 0
M  V30 89 C 8.8725 -3.11515 1.33206 0
M  V30 90 C 7.4315 -3.59912 1.10183 0
M  V30 91 C 6.5785 -2.37116 1.43776 0
M  V30 92 H 9.5295 -1.05444 1.18606 0
M  V30 93 H 9.5505 -3.73575 0.722636 0
M  V30 94 H 9.0625 -3.04182 2.41028 0
M  V30 95 H 7.1635 -3.72577 0.0412756 0
M  V30 96 H 7.2765 -4.44731 1.78188 0
M  V30 97 H 5.6405 -2.39857 0.856778 0
M  V30 98 H 6.4235 -2.32424 2.52654 0
M  V30 99 N 8.8686 -0.792821 -1.36206 0
M  V30 100 C 9.7786 -0.194808 -2.3379 0
M  V30 101 C 10.7946 0.654869 -1.61206 0
M  V30 102 O 11.9706 0.569856 -1.9317 0
M  V30 103 C 9.0356 0.657721 -3.40404 0
M  V30 104 C 8.0966 -0.210849 -4.28782 0
M  V30 105 C 7.3296 0.601086 -5.30304 0
M  V30 106 O 7.5526 1.83682 -5.40016 0
M  V30 107 O 6.4866 -0.000808277 -6.019 0
M  V30 108 H 10.3126 -1.00172 -2.86704 0
M  V30 109 H 7.8976 -0.554341 -1.38735 0
M  V30 110 H 9.7796 1.14375 -4.05581 0
M  V30 111 H 8.4546 1.44247 -2.89784 0
M  V30 112 H 7.3616 -0.743714 -3.66633 0
M  V30 113 H 8.6946 -0.959195 -4.82763 0
M  V30 114 N 10.3467 1.47872 -0.545128 0
M  V30 115 C 11.2567 2.33633 0.212746 0
M  V30 116 C 12.2727 1.4744 0.923983 0
M  V30 117 O 13.4487 1.80393 0.895572 0
M  V30 118 C 10.5137 3.23884 1.23693 0
M  V30 119 C 9.5747 4.25961 0.534417 0
M  V30 120 C 8.8077 5.11899 1.5098 0
M  V30 121 O 9.0307 5.00077 2.7437 0
M  V30 122 O 7.9647 5.92831 1.0409 0
M  V30 123 H 11.7907 2.99714 -0.490416 0
M  V30 124 H 9.3757 1.46235 -0.305871 0
M  V30 125 H 11.2577 3.79666 1.82843 0
M  V30 126 H 9.9327 2.60446 1.92222 0
M  V30 127 H 8.8397 3.73972 -0.0979679 0
M  V30 128 H 10.1727 4.92079 -0.109213 0
M  V30 129 N 11.8248 0.280983 1.55075 0
M  V30 130 C 12.7718 -0.603937 2.22758 0
M  V30 131 C 13.7418 -1.1452 1.20309 0
M  V30 132 O 14.9268 -1.19343 1.48869 0
M  V30 133 C 12.0668 -1.77947 2.95684 0
M  V30 134 C 11.1798 -1.2715 4.12864 0
M  V30 135 C 10.3148 -2.4093 4.7342 0
M  V30 136 C 9.3538 -1.87165 5.82783 0
M  V30 137 N 8.4908 -2.94441 6.37377 0
M  V30 138 H 13.3308 -0.020124 2.97993 0
M  V30 139 H 10.8678 0.00183425 1.471 0
M  V30 140 H 12.8258 -2.47055 3.36184 0
M  V30 141 H 11.4558 -2.33522 2.22861 0
M  V30 142 H 10.5078 -0.473331 3.77444 0
M  V30 143 H 11.8198 -0.837751 4.91715 0
M  V30 144 H 10.9738 -3.18021 5.1667 0
M  V30 145 H 9.7128 -2.87623 3.93859 0
M  V30 146 H 8.7178 -1.08556 5.38976 0
M  V30 147 H 9.9428 -1.41401 6.64216 0
M  V30 148 H 7.8888 -3.40505 5.60707 0
M  V30 149 H 7.8058 -2.55501 7.11516 0
M  V30 150 H 9.0738 -3.71489 6.85285 0
M  V30 151 N 13.3029 -1.57598 0.00835791 0
M  V30 152 C 14.5279 -1.95617 -0.689103 0
M  V30 153 C 14.9529 -0.883753 -1.66046 0
M  V30 154 O 14.3109 0.157352 -1.80616 0
M  V30 155 C 14.3589 -3.32736 -1.38994 0
M  V30 156 O 13.4629 -3.27631 -2.50463 0
M  V30 157 H 12.8039 -0.638379 -0.182668 0
M  V30 158 H 15.3339 -2.045 0.064036 0
M  V30 159 H 15.3439 -3.68494 -1.75147 0
M  V30 160 H 14.0189 -4.1034 -0.677778 0
M  V30 161 H 12.5959 -3.03561 -2.16576 0
M  V30 162 N 14.781 0.264519 -1.55364 0
M  V30 163 C 15.744 1.31046 -1.88042 0
M  V30 164 C 16.744 1.41943 -0.755569 0
M  V30 165 O 17.934 1.40947 -1.02369 0
M  V30 166 C 15.066 2.69067 -2.09323 0
M  V30 167 H 16.259 1.03297 -2.81549 0
M  V30 168 H 13.812 0.502989 -1.47986 0
M  V30 169 H 14.547 3.01982 -1.18226 0
M  V30 170 H 14.332 2.62542 -2.91229 0
M  V30 171 H 15.822 3.44623 -2.35848 0
M  V30 172 N 16.2591 1.48442 0.529413 0
M  V30 173 C 17.5051 1.5672 1.28711 0
M  V30 174 C 17.8381 0.2406 1.92704 0
M  V30 175 O 17.1131 -0.753454 1.79313 0
M  V30 176 C 17.3961 2.70587 2.37603 0
M  V30 177 C 17.2491 4.12953 1.78297 0
M  V30 178 C 18.5681 2.80212 3.39366 0
M  V30 179 H 15.6871 0.570474 0.466613 0
M  V30 180 H 18.3291 1.80617 0.589706 0
M  V30 181 H 16.4791 2.50342 2.97088 0
M  V30 182 H 18.1511 4.44639 1.22858 0
M  V30 183 H 16.3941 4.19927 1.0883 0
M  V30 184 H 17.0651 4.88448 2.57144 0
M  V30 185 H 19.5411 2.98553 2.89836 0
M  V30 186 H 18.4171 3.61611 4.12951 0
M  V30 187 H 18.6781 1.88393 3.99951 0
M  V30 188 N 17.7372 -0.778329 1.37039 0
M  V30 189 C 18.9652 -1.56734 1.35063 0
M  V30 190 C 19.3802 -1.88686 -0.0655597 0
M  V30 191 O 18.7372 -1.5096 -1.02554 0
M  V30 192 C 18.7882 -2.88163 2.18276 0
M  V30 193 O 18.5092 -2.57583 3.54376 0
M  V30 194 C 20.0102 -3.82422 2.24206 0
M  V30 195 H 17.2302 -0.485778 0.462883 0
M  V30 196 H 19.7742 -0.965185 1.8029 0
M  V30 197 H 17.9292 -3.44818 1.76576 0
M  V30 198 H 18.3432 -3.41699 3.97922 0
M  V30 199 H 19.8172 -4.71667 2.86765 0
M  V30 200 H 20.2942 -4.21078 1.24861 0
M  V30 201 H 20.9002 -3.31697 2.6619 0
M  V30 202 N 19.2153 -1.21501 -1.00376 0
M  V30 203 C 20.1783 -0.976927 -2.07337 0
M  V30 204 C 21.1783 0.0525322 -1.60714 0
M  V30 205 O 22.3683 -0.184869 -1.73216 0
M  V30 206 C 19.5003 -0.473423 -3.37597 0
M  V30 207 H 20.6933 -1.92587 -2.29892 0
M  V30 208 H 18.2463 -1.03217 -1.17371 0
M  V30 209 H 18.9813 0.480379 -3.20722 0
M  V30 210 H 18.7663 -1.216 -3.72768 0
M  V30 211 H 20.2563 -0.32675 -4.1632 0
M  V30 212 N 20.6934 1.19889 -1.02296 0
M  V30 213 C 21.6234 2.25141 -0.619174 0
M  V30 214 C 22.6044 1.66051 0.368915 0
M  V30 215 O 23.7894 1.92546 0.252941 0
M  V30 216 C 20.9194 3.4728 0.0368783 0
M  V30 217 C 19.8734 4.19005 -0.872865 0
M  V30 218 C 19.1994 5.34637 -0.0822402 0
M  V30 219 C 20.4994 4.74452 -2.18387 0
M  V30 220 H 22.1934 2.59171 -1.49903 0
M  V30 221 H 19.7394 1.24579 -0.722222 0
M  V30 222 H 21.6924 4.20098 0.330958 0
M  V30 223 H 20.4164 3.12433 0.95149 0
M  V30 224 H 19.0754 3.48061 -1.15105 0
M  V30 225 H 18.7234 4.96034 0.83422 0
M  V30 226 H 18.4234 5.83557 -0.688149 0
M  V30 227 H 19.9474 6.10255 0.205238 0
M  V30 228 H 21.3614 5.39055 -1.95172 0
M  V30 229 H 19.7584 5.33834 -2.74119 0
M  V30 230 H 20.8284 3.92844 -2.84257 0
M  V30 231 N 22.1715 0.800033 1.35784 0
M  V30 232 C 23.4175 0.38701 1.99684 0
M  V30 233 C 23.7725 -1.03268 1.62338 0
M  V30 234 O 23.0655 -1.70543 0.87325 0
M  V30 235 C 23.2595 0.500276 3.53881 0
M  V30 236 C 23.0885 1.92942 4.06206 0
M  V30 237 C 21.8585 2.55637 4.35865 0
M  V30 238 C 24.0565 2.89307 4.25213 0
M  V30 239 N 22.0385 3.9003 4.74078 0
M  V30 240 C 23.4095 4.08556 4.66349 0
M  V30 241 C 25.4645 2.86225 4.07406 0
M  V30 242 C 24.1675 5.25146 4.91543 0
M  V30 243 C 26.1935 4.02011 4.33752 0
M  V30 244 C 25.5555 5.20007 4.75155 0
M  V30 245 H 21.6545 0.189252 0.758754 0
M  V30 246 H 24.2385 1.03988 1.64604 0
M  V30 247 H 22.4095 -0.122568 3.88207 0
M  V30 248 H 24.1415 0.0624733 4.04652 0
M  V30 249 H 20.8965 2.07039 4.25948 0
M  V30 250 H 21.3205 4.59205 4.97454 0
M  V30 251 H 25.9625 1.96154 3.74544 0
M  V30 252 H 23.6805 6.15794 5.23281 0
M  V30 253 H 27.2665 4.00999 4.21534 0
M  V30 254 H 26.1465 6.08113 4.95145 0
M  V30 255 N 23.6496 -1.47581 0.552962 0
M  V30 256 C 24.8976 -2.02082 0.0272703 0
M  V30 257 C 25.2186 -1.4301 -1.32563 0
M  V30 258 O 24.4886 -0.603745 -1.86365 0
M  V30 259 H 23.0686 -0.746966 0.00709182 0
M  V30 260 H 25.7306 -1.81033 0.722008 0
M  V30 261 H 24.8266 -3.12034 -0.0639951 0
M  V30 262 N 25.1277 -0.289203 -1.54924 0
M  V30 263 C 26.0747 0.592115 -2.23075 0
M  V30 264 C 27.0447 1.13881 -1.20915 0
M  V30 265 O 28.2297 1.18551 -1.495 0
M  V30 266 C 25.3697 1.76376 -2.96623 0
M  V30 267 C 24.4827 1.24959 -4.13533 0
M  V30 268 C 23.6177 2.38416 -4.74691 0
M  V30 269 C 22.6567 1.84072 -5.83767 0
M  V30 270 N 21.7937 2.91057 -6.38929 0
M  V30 271 H 26.6337 0.00432038 -2.98 0
M  V30 272 H 24.1707 -0.00963529 -1.47097 0
M  V30 273 H 26.1287 2.45268 -3.3749 0
M  V30 274 H 24.7587 2.32337 -2.24097 0
M  V30 275 H 23.8107 0.453307 -3.77689 0
M  V30 276 H 25.1227 0.811662 -4.92152 0
M  V30 277 H 24.2767 3.15276 -5.18349 0
M  V30 278 H 23.0157 2.8553 -3.95378 0
M  V30 279 H 22.0207 1.05697 -5.39545 0
M  V30 280 H 23.2457 1.37877 -6.64956 0
M  V30 281 H 21.1917 3.37526 -5.62505 0
M  V30 282 H 21.1087 2.51724 -7.12861 0
M  V30 283 H 22.3767 3.6785 -6.87246 0
M  V30 284 N 26.6058 1.57591 -0.0167156 0
M  V30 285 C 27.8518 1.91567 0.665582 0
M  V30 286 C 28.1848 0.892298 1.72487 0
M  V30 287 O 27.4598 -0.0867127 1.94307 0
M  V30 288 C 27.7428 3.36069 1.29342 0
M  V30 289 C 27.5958 4.49135 0.244541 0
M  V30 290 C 28.9148 3.803 2.21495 0
M  V30 291 H 26.0338 0.69666 0.240488 0
M  V30 292 H 28.6758 1.89866 -0.0714356 0
M  V30 293 H 26.8258 3.3765 1.92158 0
M  V30 294 H 28.4978 4.59689 -0.385228 0
M  V30 295 H 26.7408 4.3165 -0.431379 0
M  V30 296 H 27.4118 5.47242 0.723207 0
M  V30 297 H 29.8878 3.80377 1.68678 0
M  V30 298 H 28.7638 4.82127 2.62382 0
M  V30 299 H 29.0248 3.15104 3.101 0
M  V30 300 N 28.0839 -0.256276 1.55502 0
M  V30 301 C 29.0319 -1.33694 1.90338 0
M  V30 302 C 30.0259 -1.50299 0.781441 0
M  V30 303 O 31.2319 -1.51885 0.965966 0
M  V30 304 H 27.6069 -0.447483 0.60437 0
M  V30 305 H 29.5779 -1.01574 2.8058 0
M  V30 306 C 28.3269 -2.68724 2.20642 0
M  V30 307 H 27.6499 -2.56743 3.06469 0
M  V30 308 H 29.0899 -3.43237 2.48926 0
M  V30 309 C 27.5489 -3.21101 1.01959 0
M  V30 310 O 28.0789 -4.0084 0.262762 0
M  V30 311 N 26.2849 -2.79003 0.812746 0
M  V30 312 H 25.8319 -2.14271 1.42989 0
M  V30 313 H 25.7899 -3.14393 0.0203076 0
M  V30 314 N 29.562 -1.4872 -0.521534 0
M  V30 315 C 30.808 -1.574 -1.27879 0
M  V30 316 C 31.141 -0.250817 -1.92573 0
M  V30 317 O 30.416 0.743934 -1.79711 0
M  V30 318 C 30.699 -2.71843 -2.36164 0
M  V30 319 C 30.552 -4.13893 -1.76105 0
M  V30 320 C 31.871 -2.82008 -3.37875 0
M  V30 321 H 28.99 -0.572941 -0.463581 0
M  V30 322 H 31.632 -1.80927 -0.580119 0
M  V30 323 H 29.782 -2.51914 -2.95756 0
M  V30 324 H 31.454 -4.45284 -1.20499 0
M  V30 325 H 29.697 -4.20498 -1.06601 0
M  V30 326 H 30.368 -4.89804 -2.5455 0
M  V30 327 H 32.844 -3.00086 -2.88249 0
M  V30 328 H 31.72 -3.63796 -4.11028 0
M  V30 329 H 31.981 -1.90511 -3.98946 0
M  V30 330 N 31.0401 0.771051 -1.3745 0
M  V30 331 C 32.3171 1.519 -1.23231 0
M  V30 332 C 32.6971 2.10383 0.173809 0
M  V30 333 O 32.0451 1.95583 1.18151 0
M  V30 334 C 32.2551 2.59933 -2.32886 0
M  V30 335 C 33.6031 3.27316 -2.70461 0
M  V30 336 O 34.6271 2.70228 -2.32068 0
M  V30 337 O 33.4861 4.30531 -3.36608 0
M  V30 338 H 30.5801 0.672803 -0.480901 0
M  V30 339 H 33.1261 0.807957 -1.49232 0
M  V30 340 H 31.8981 2.14842 -3.27045 0
M  V30 341 H 31.5211 3.38637 -2.08353 0
M  V30 342 N 32.5182 1.22032 0.997298 0
M  V30 343 C 33.4282 1.00271 2.12092 0
M  V30 344 C 34.4442 -0.047621 1.73935 0
M  V30 345 O 35.6202 0.144136 2.00884 0
M  V30 346 C 32.6852 0.578449 3.4184 0
M  V30 347 C 31.7462 1.70189 3.94125 0
M  V30 348 C 30.9792 1.29778 5.17681 0
M  V30 349 O 31.2022 0.174676 5.70132 0
M  V30 350 O 30.1362 2.11261 5.63607 0
M  V30 351 H 33.9622 1.94398 2.3333 0
M  V30 352 H 31.5472 1.00587 1.10465 0
M  V30 353 H 33.4292 0.351998 4.19927 0
M  V30 354 H 32.1042 -0.334019 3.21972 0
M  V30 355 H 31.0112 1.98282 3.1723 0
M  V30 356 H 32.3442 2.59206 4.18417 0
M  V30 357 N 33.9963 -1.19345 1.0293 0
M  V30 358 C 35.2423 -1.89318 0.727083 0
M  V30 359 C 35.5753 -1.79446 -0.742483 0
M  V30 360 O 34.8503 -1.1871 -1.54072 0
M  V30 361 C 35.1333 -3.40238 1.17942 0
M  V30 362 C 34.9863 -3.58979 2.71024 0
M  V30 363 C 36.3053 -4.33479 0.760548 0
M  V30 364 H 33.4243 -0.687475 0.265606 0
M  V30 365 H 36.0663 -1.40477 1.2793 0
M  V30 366 H 34.2163 -3.81964 0.709608 0
M  V30 367 H 35.8883 -3.26421 3.25955 0
M  V30 368 H 34.1313 -3.02018 3.11396 0
M  V30 369 H 34.8023 -4.64823 2.9773 0
M  V30 370 H 37.2783 -3.99469 1.16464 0
M  V30 371 H 36.1543 -5.37664 1.10493 0
M  V30 372 H 36.4153 -4.40813 -0.337063 0
M  V30 373 N 35.4744 -0.807222 -1.35358 0
M  V30 374 C 36.7224 -0.387122 -1.98358 0
M  V30 375 C 37.0434 1.04942 -1.64354 0
M  V30 376 O 36.3134 1.72615 -0.926339 0
M  V30 377 H 34.8934 -0.140154 -0.733734 0
M  V30 378 H 37.5554 -1.0332 -1.6526 0
M  V30 379 H 36.6514 -0.493352 -3.08176 0
M  V30 380 N 36.9525 1.47285 -0.560781 0
M  V30 381 C 38.2005 2.02064 -0.0379868 0
M  V30 382 C 38.5215 1.43711 1.31803 0
M  V30 383 O 37.7915 0.61362 1.86042 0
M  V30 384 H 36.3715 0.746918 -0.0110531 0
M  V30 385 H 39.0335 1.80648 -0.731598 0
M  V30 386 H 38.1295 3.12064 0.0474463 0
M  V30 387 N 38.4306 0.297415 1.54768 0
M  V30 388 C 39.3406 -0.58983 2.27064 0
M  V30 389 C 40.3566 -1.15144 1.30453 0
M  V30 390 O 41.5326 -1.17699 1.63428 0
M  V30 391 C 38.5976 -1.74714 2.9946 0
M  V30 392 C 37.6586 -1.21997 4.11601 0
M  V30 393 C 36.8916 -2.32212 4.80535 0
M  V30 394 O 37.1146 -3.52036 4.48806 0
M  V30 395 O 36.0486 -1.99106 5.68014 0
M  V30 396 H 39.8746 -0.00348199 3.037 0
M  V30 397 H 37.4596 0.0640035 1.49263 0
M  V30 398 H 39.3416 -2.42147 3.44881 0
M  V30 399 H 38.0166 -2.32016 2.25722 0
M  V30 400 H 36.9236 -0.511458 3.70587 0
M  V30 401 H 38.2566 -0.692419 4.87305 0
M  V30 402 N 39.9087 -1.5758 0.0250728 0
M  V30 403 C 40.8717 -2.08896 -0.943139 0
M  V30 404 C 41.8717 -1.00321 -1.25668 0
M  V30 405 O 43.0617 -1.26495 -1.19769 0
M  V30 406 C 40.1937 -2.55143 -2.26086 0
M  V30 407 H 41.3867 -2.95723 -0.498775 0
M  V30 408 H 38.9397 -1.54703 -0.222888 0
M  V30 409 H 39.6747 -1.71633 -2.75159 0
M  V30 410 H 39.4597 -3.34461 -2.04641 0
M  V30 411 H 40.9497 -2.95083 -2.95492 0
M  V30 412 N 41.3868 0.248026 -1.55636 0
M  V30 413 C 42.3168 1.31079 -1.93237 0
M  V30 414 C 43.2978 1.50264 -0.797174 0
M  V30 415 O 44.4828 1.62891 -1.05737 0
M  V30 416 C 41.6128 2.66575 -2.22609 0
M  V30 417 C 40.5668 2.62087 -3.3837 0
M  V30 418 C 39.8928 4.01369 -3.53281 0
M  V30 419 C 41.1928 2.19171 -4.7409 0
M  V30 420 H 42.8868 0.998556 -2.82257 0
M  V30 421 H 40.4328 0.47891 -1.35803 0
M  V30 422 H 42.3858 3.41057 -2.47503 0
M  V30 423 H 41.1098 2.99432 -1.30414 0
M  V30 424 H 39.7688 1.90063 -3.13483 0
M  V30 425 H 39.4168 4.31489 -2.58508 0
M  V30 426 H 39.1168 3.99254 -4.31127 0
M  V30 427 H 40.6408 4.77552 -3.80495 0
M  V30 428 H 42.0548 2.83384 -4.98363 0
M  V30 429 H 40.4518 2.2817 -5.5503 0
M  V30 430 H 41.5218 1.14336 -4.71227 0
M  V30 431 N 42.8649 1.48995 0.513639 0
M  V30 432 C 44.1129 1.57531 1.26604 0
M  V30 433 C 44.4339 0.258236 1.93283 0
M  V30 434 O 43.7039 -0.721502 1.8213 0
M  V30 435 H 42.2839 0.580387 0.470276 0
M  V30 436 H 44.9459 1.85552 0.596373 0
M  V30 437 H 44.0419 2.36486 2.03669 0
M  V30 438 N 44.343 -0.763751 1.37857 0
M  V30 439 C 45.759 -1.06542 1.18832 0
M  V30 440 C 45.959 -2.01478 0.0299722 0
M  V30 441 O 45.015 -2.4458 -0.627447 0
M  V30 442 C 46.328 -1.65525 2.51042 0
M  V30 443 C 47.876 -1.77745 2.57635 0
M  V30 444 C 48.351 -2.4014 3.89996 0
M  V30 445 N 49.842 -2.47582 3.91481 0
M  V30 446 C 50.577 -2.96732 4.9065 0
M  V30 447 N 50.073 -3.45993 6.00217 0
M  V30 448 N 51.866 -2.95679 4.78048 0
M  V30 449 H 44.017 -0.133556 2.1198 0
M  V30 450 H 46.28 -0.121879 0.940133 0
M  V30 451 H 45.986 -1.03236 3.36207 0
M  V30 452 H 45.86 -2.64719 2.68707 0
M  V30 453 H 48.247 -2.39164 1.72872 0
M  V30 454 H 48.328 -0.772836 2.43846 0
M  V30 455 H 47.972 -1.79358 4.75177 0
M  V30 456 H 47.902 -3.41223 4.01092 0
M  V30 457 H 50.393 -2.1273 3.12337 0
M  V30 458 H 50.706 -3.81922 6.7183 0
M  V30 459 H 49.051 -3.44077 6.03851 0
M  V30 460 H 52.242 -2.56499 3.91568 0
M  V30 461 H 52.415 -3.33672 5.55488 0
M  V30 462 N 45.8211 -1.22559 -0.990812 0
M  V30 463 C 46.7511 -1.0218 -2.09956 0
M  V30 464 C 47.7321 0.0579394 -1.70001 0
M  V30 465 O 48.9171 -0.104684 -1.93918 0
M  V30 466 C 46.0471 -0.601023 -3.4206 0
M  V30 467 C 45.0011 -1.62694 -3.95872 0
M  V30 468 C 44.3271 -1.06193 -5.24049 0
M  V30 469 C 45.6271 -3.01743 -4.2632 0
M  V30 470 H 47.3211 -1.94916 -2.27262 0
M  V30 471 H 44.8671 -0.938566 -1.09211 0
M  V30 472 H 46.8201 -0.445561 -4.19038 0
M  V30 473 H 45.5441 0.362005 -3.24588 0
M  V30 474 H 44.2031 -1.77021 -3.21028 0
M  V30 475 H 43.8511 -0.0901903 -5.02919 0
M  V30 476 H 43.5511 -1.74732 -5.61019 0
M  V30 477 H 45.0751 -0.918092 -6.03658 0
M  V30 478 H 46.4891 -2.90777 -4.94087 0
M  V30 479 H 44.8861 -3.67425 -4.74467 0
M  V30 480 H 45.9561 -3.51518 -3.34011 0
M  V30 481 N 47.2992 1.18797 -1.03562 0
M  V30 482 C 48.2292 2.24472 -0.643019 0
M  V30 483 C 49.2102 1.66433 0.351283 0
M  V30 484 O 50.3952 1.92803 0.232505 0
M  V30 485 C 47.5252 3.473 4.24935e-05 0
M  V30 486 C 46.4792 4.18055 -0.917257 0
M  V30 487 C 45.8052 5.34519 -0.138941 0
M  V30 488 C 47.1052 4.72109 -2.23407 0
M  V30 489 H 48.7992 2.57566 -1.52643 0
M  V30 490 H 46.3452 1.23806 -0.735394 0
M  V30 491 H 48.2982 4.20426 0.286383 0
M  V30 492 H 47.0222 3.13424 0.918299 0
M  V30 493 H 45.6812 3.46821 -1.1879 0
M  V30 494 H 45.3292 4.96891 0.781562 0
M  V30 495 H 45.0292 5.82794 -0.750005 0
M  V30 496 H 46.5532 6.10438 0.1405 0
M  V30 497 H 47.9672 5.36955 -2.00879 0
M  V30 498 H 46.3642 5.30897 -2.79765 0
M  V30 499 H 47.4342 3.89807 -2.88407 0
M  V30 500 N 48.7773 0.814389 1.34928 0
M  V30 501 C 50.0233 0.399013 1.98836 0
M  V30 502 C 50.3563 -1.03314 1.64438 0
M  V30 503 O 49.6313 -1.71811 0.911659 0
M  V30 504 C 49.9143 0.591629 3.55207 0
M  V30 505 C 49.7673 2.06928 3.99376 0
M  V30 506 C 51.0863 0.022199 4.40094 0
M  V30 507 H 48.2053 0.146451 0.722303 0
M  V30 508 H 50.8473 1.02537 1.59957 0
M  V30 509 H 48.9973 0.0584441 3.88456 0
M  V30 510 H 50.6693 2.66544 3.76499 0
M  V30 511 H 48.9123 2.56287 3.49999 0
M  V30 512 H 49.5833 2.1549 5.08201 0
M  V30 513 H 52.0593 0.477643 4.13349 0
M  V30 514 H 50.9353 0.186832 5.48582 0
M  V30 515 H 51.1963 -1.07215 4.28902 0
M  V30 516 N 50.2554 -1.46986 0.568584 0
M  V30 517 C 51.5014 -2.02741 0.0488709 0
M  V30 518 C 51.8344 -1.44077 -1.30214 0
M  V30 519 O 51.1094 -0.600552 -1.84996 0
M  V30 520 C 51.3924 -3.60086 -0.032047 0
M  V30 521 C 51.2454 -4.29162 1.34686 0
M  V30 522 C 52.5644 -4.33838 -0.739798 0
M  V30 523 H 49.6834 -0.736749 0.0192338 0
M  V30 524 H 52.3254 -1.75289 0.733065 0
M  V30 525 H 50.4754 -3.83606 -0.61473 0
M  V30 526 H 52.1474 -4.16948 1.97362 0
M  V30 527 H 50.3904 -3.89073 1.91846 0
M  V30 528 H 51.0614 -5.37826 1.24285 0
M  V30 529 H 53.5374 -4.15378 -0.244939 0
M  V30 530 H 52.4134 -5.43537 -0.765406 0
M  V30 531 H 52.6744 -4.03875 -1.79827 0
M  V30 532 N 51.7335 -0.305618 -1.54608 0
M  V30 533 C 52.9635 0.304333 -2.04346 0
M  V30 534 C 53.3715 1.47715 -1.18224 0
M  V30 535 O 52.7145 1.82591 -0.201577 0
M  V30 536 C 52.7765 0.819031 -3.50046 0
M  V30 537 C 52.4405 -0.22912 -4.56425 0
M  V30 538 C 53.4375 -1.05914 -5.08997 0
M  V30 539 C 51.1225 -0.372148 -5.0092 0
M  V30 540 C 53.1165 -2.01809 -6.04609 0
M  V30 541 C 50.8035 -1.33454 -5.9635 0
M  V30 542 C 51.8015 -2.15599 -6.48079 0
M  V30 543 O 51.4895 -3.10205 -7.41639 0
M  V30 544 H 51.2215 0.0693996 -0.672428 0
M  V30 545 H 53.7755 -0.444548 -2.00532 0
M  V30 546 H 52.0055 1.61852 -3.51199 0
M  V30 547 H 53.6945 1.34537 -3.82955 0
M  V30 548 H 54.4605 -0.959538 -4.75413 0
M  V30 549 H 50.3395 0.257304 -4.60281 0
M  V30 550 H 53.8835 -2.65966 -6.44909 0
M  V30 551 H 49.7805 -1.43485 -6.29351 0
M  V30 552 H 50.5485 -3.05237 -7.59455 0
M  V30 553 N 53.2116 1.57565 -0.0334293 0
M  V30 554 C 54.6226 1.79746 0.504798 0
M  V30 555 C 54.9736 0.944091 1.71992 0
M  V30 556 O 54.0986 0.155694 2.15839 0
M  V30 557 C 54.6936 3.25997 0.922567 0
M  V30 558 C 53.2526 3.49159 1.40588 0
M  V30 559 C 52.3996 2.74785 0.372633 0
M  V30 560 H 55.3506 1.56565 -0.259436 0
M  V30 561 H 55.3716 3.35945 1.78666 0
M  V30 562 H 54.8836 3.88081 0.0379825 0
M  V30 563 H 52.9846 2.92332 2.31025 0
M  V30 564 H 53.0976 4.57873 1.41028 0
M  V30 565 H 51.4616 2.40391 0.841672 0
M  V30 566 H 52.2446 3.39587 -0.503559 0
M  V30 567 N 54.6897 -0.239769 1.55765 0
M  V30 568 C 55.9357 -0.963942 1.79108 0
M  V30 569 C 56.2907 -1.82689 0.60352 0
M  V30 570 O 55.5837 -1.87313 -0.403033 0
M  V30 571 C 55.7777 -1.852 3.05672 0
M  V30 572 C 55.6067 -1.07651 4.36625 0
M  V30 573 C 54.3767 -0.778738 4.99263 0
M  V30 574 C 56.5747 -0.45062 5.12322 0
M  V30 575 N 54.5567 0.0200708 6.13897 0
M  V30 576 C 55.9277 0.212429 6.19636 0
M  V30 577 C 57.9827 -0.361806 4.96584 0
M  V30 578 C 56.6857 0.955772 7.12922 0
M  V30 579 C 58.7117 0.368023 5.90254 0
M  V30 580 C 58.0737 1.01968 6.96981 0
M  V30 581 H 54.1727 -0.333601 0.707272 0
M  V30 582 H 56.7567 -0.236425 1.93259 0
M  V30 583 H 54.9277 -2.55149 2.92837 0
M  V30 584 H 56.6597 -2.51228 3.1728 0
M  V30 585 H 53.4147 -1.09229 4.60832 0
M  V30 586 H 53.8387 0.407777 6.75771 0
M  V30 587 H 58.4807 -0.851286 4.14141 0
M  V30 588 H 56.1987 1.45683 7.9486 0
M  V30 589 H 59.7847 0.437504 5.80153 0
M  V30 590 H 58.6647 1.5754 7.68213 0
M  V30 591 N 56.1678 -1.49265 -0.50573 0
M  V30 592 C 57.3958 -1.62215 -1.28429 0
M  V30 593 C 57.8108 -0.291697 -1.86533 0
M  V30 594 O 57.1678 0.722233 -1.67601 0
M  V30 595 C 57.2188 -2.68735 -2.41793 0
M  V30 596 O 56.9398 -3.96619 -1.86078 0
M  V30 597 C 58.4408 -2.92346 -3.3324 0
M  V30 598 H 55.6608 -0.546239 -0.389697 0
M  V30 599 H 58.2048 -1.95265 -0.607609 0
M  V30 600 H 56.3598 -2.38476 -3.053 0
M  V30 601 H 56.7738 -4.55256 -2.60465 0
M  V30 602 H 58.2478 -3.70623 -4.09075 0
M  V30 603 H 58.7248 -2.02081 -3.89948 0
M  V30 604 H 59.3308 -3.24003 -2.75503 0
M  V30 605 N 57.6459 0.756429 -1.3826 0
M  V30 606 C 58.5779 1.87971 -1.31147 0
M  V30 607 C 59.5909 1.61248 -0.224239 0
M  V30 608 O 60.7799 1.71881 -0.481581 0
M  V30 609 C 57.8799 3.23545 -1.00857 0
M  V30 610 C 57.0529 3.77794 -2.20432 0
M  V30 611 C 56.1119 4.91877 -1.86931 0
M  V30 612 O 55.1379 5.06659 -2.59395 0
M  V30 613 N 56.3399 5.74643 -0.822568 0
M  V30 614 H 59.1049 1.94585 -2.2794 0
M  V30 615 H 56.6659 0.936234 -1.32084 0
M  V30 616 H 58.6579 3.97403 -0.765021 0
M  V30 617 H 57.2279 3.12335 -0.128687 0
M  V30 618 H 56.4479 2.95534 -2.6087 0
M  V30 619 H 57.7359 4.10771 -3.00241 0
M  V30 620 H 57.1339 5.65266 -0.221575 0
M  V30 621 H 55.6909 6.48661 -0.638899 0
M  V30 622 N 59.124 1.23083 0.984299 0
M  V30 623 C 60.54 0.992637 1.24975 0
M  V30 624 C 60.74 -0.308618 1.99123 0
M  V30 625 O 59.796 -1.02905 2.30579 0
M  V30 626 C 61.109 2.19698 2.05312 0
M  V30 627 C 62.657 2.24147 2.18465 0
M  V30 628 C 63.132 3.44157 3.02192 0
M  V30 629 N 64.623 3.44372 3.09777 0
M  V30 630 C 65.358 4.33886 3.74874 0
M  V30 631 N 64.854 5.3363 4.41827 0
M  V30 632 N 66.647 4.21639 3.71721 0
M  V30 633 H 58.798 2.06731 0.487453 0
M  V30 634 H 61.061 0.906339 0.277944 0
M  V30 635 H 60.767 3.1411 1.58201 0
M  V30 636 H 60.641 2.20465 3.06064 0
M  V30 637 H 63.028 1.30277 2.64786 0
M  V30 638 H 63.109 2.27415 1.17115 0
M  V30 639 H 62.753 4.38332 2.56568 0
M  V30 640 H 62.683 3.3813 4.03702 0
M  V30 641 H 65.174 2.72201 2.62135 0
M  V30 642 H 65.487 5.98196 4.89266 0
M  V30 643 H 63.832 5.37534 4.40548 0
M  V30 644 H 67.023 3.42962 3.18582 0
M  V30 645 H 67.196 4.91604 4.22173 0
M  V30 646 N 60.6021 -1.18246 1.0419 0
M  V30 647 C 61.8491 -1.88257 0.746017 0
M  V30 648 C 62.1771 -1.80429 -0.726331 0
M  V30 649 O 61.4321 -1.2 -1.54591 0
M  V30 650 C 61.7311 -3.38082 1.15911 0
M  V30 651 C 61.3971 -3.66114 2.63195 0
M  V30 652 C 60.0591 -3.73474 3.03432 0
M  V30 653 C 62.4111 -3.78398 3.5842 0
M  V30 654 C 59.7391 -3.90599 4.37778 0
M  V30 655 C 62.0911 -3.97039 4.92487 0
M  V30 656 C 60.7551 -4.02635 5.32392 0
M  V30 657 H 60.0251 -0.688883 0.272987 0
M  V30 658 H 62.6721 -1.3995 1.30715 0
M  V30 659 H 60.9771 -3.88377 0.516806 0
M  V30 660 H 62.6741 -3.90596 0.907516 0
M  V30 661 H 59.2641 -3.61003 2.3103 0
M  V30 662 H 63.4481 -3.72042 3.28479 0
M  V30 663 H 58.7041 -3.93175 4.68213 0
M  V30 664 H 62.8781 -4.05486 5.66175 0
M  V30 665 H 60.5051 -4.15657 6.36501 0
M  V30 666 N 62.0802 -0.821533 -1.34494 0
M  V30 667 C 63.3272 -0.408946 -1.98328 0
M  V30 668 C 63.6552 1.02764 -1.65136 0
M  V30 669 O 62.9102 1.73026 -0.914349 0
M  V30 670 C 63.2092 -0.556512 -3.53041 0
M  V30 671 C 62.8752 -1.95861 -4.0614 0
M  V30 672 C 61.5372 -2.34217 -4.20352 0
M  V30 673 C 63.8892 -2.87523 -4.34718 0
M  V30 674 C 61.2172 -3.63572 -4.6047 0
M  V30 675 C 63.5692 -4.1634 -4.76281 0
M  V30 676 C 62.2332 -4.54675 -4.88699 0
M  V30 677 H 61.5032 -0.149644 -0.725732 0
M  V30 678 H 64.1502 -1.04521 -1.6046 0
M  V30 679 H 62.4552 0.163148 -3.9146 0
M  V30 680 H 64.1522 -0.217826 -4.00408 0
M  V30 681 H 60.7422 -1.65066 -3.95539 0
M  V30 682 H 64.9262 -2.59133 -4.23277 0
M  V30 683 H 60.1822 -3.93101 -4.68275 0
M  V30 684 H 64.3562 -4.87455 -4.97354 0
M  V30 685 H 61.9832 -5.54959 -5.19542 0
M  V30 686 N 63.5583 1.46682 -0.576371 0
M  V30 687 C 64.4683 2.34032 0.163141 0
M  V30 688 C 65.4843 1.49367 0.892501 0
M  V30 689 O 66.6603 1.82252 0.857106 0
M  V30 690 C 63.7253 3.26435 1.16795 0
M  V30 691 C 62.7863 4.26998 0.443944 0
M  V30 692 C 62.0193 5.14986 1.40088 0
M  V30 693 O 62.2423 5.05785 2.637 0
M  V30 694 O 61.1763 5.94906 0.914917 0
M  V30 695 H 65.0023 2.98607 -0.55388 0
M  V30 696 H 62.5873 1.45554 -0.336821 0
M  V30 697 H 64.4693 3.83459 1.74748 0
M  V30 698 H 63.1443 2.64465 1.86655 0
M  V30 699 H 62.0513 3.7368 -0.177271 0
M  V30 700 H 63.3843 4.91736 -0.213566 0
M  V30 701 N 65.0364 0.313813 1.54444 0
M  V30 702 C 66.2614 -0.296681 2.05267 0
M  V30 703 C 66.6864 -1.45757 1.18897 0
M  V30 704 O 66.0444 -1.80239 0.195886 0
M  V30 705 C 66.0924 -0.71831 3.53373 0
M  V30 706 O 65.1964 -1.82175 3.69981 0
M  V30 707 H 64.5374 -0.0554061 0.661684 0
M  V30 708 H 67.0674 0.459387 1.99376 0
M  V30 709 H 67.0774 -1.00364 3.95463 0
M  V30 710 H 65.7524 0.130821 4.15694 0
M  V30 711 H 64.3294 -1.53598 3.39797 0
M  V30 712 N 66.5145 -1.57545 0.0417849 0
M  V30 713 C 67.7615 -1.92317 -0.634082 0
M  V30 714 C 68.0895 -0.919334 -1.71402 0
M  V30 715 O 67.3445 0.0698253 -1.95575 0
M  V30 716 C 67.6435 -3.33794 -1.27735 0
M  V30 717 C 67.3095 -4.49716 -0.326543 0
M  V30 718 C 65.9715 -4.81156 -0.0648814 0
M  V30 719 C 68.3235 -5.20182 0.325623 0
M  V30 720 C 65.6515 -5.80414 0.856539 0
M  V30 721 C 68.0035 -6.20424 1.23518 0
M  V30 722 C 66.6675 -6.50298 1.5056 0
M  V30 723 H 65.9375 -0.703736 -0.232027 0
M  V30 724 H 68.5845 -1.91205 0.106259 0
M  V30 725 H 66.8895 -3.31228 -2.09274 0
M  V30 726 H 68.5865 -3.57975 -1.80707 0
M  V30 727 H 65.1765 -4.25176 -0.540665 0
M  V30 728 H 69.3605 -4.96112 0.136546 0
M  V30 729 H 64.6165 -6.019 1.07363 0
M  V30 730 H 68.7905 -6.74141 1.74664 0
M  V30 731 H 66.4175 -7.27025 2.22123 0
M  V30 732 N 67.9926 0.231505 -1.5589 0
M  V30 733 C 69.2406 0.955461 -1.78088 0
M  V30 734 C 69.5616 1.85262 -0.608533 0
M  V30 735 O 68.8316 1.92277 0.375035 0
M  V30 736 H 67.4116 0.355787 -0.656829 0
M  V30 737 H 70.0736 0.245751 -1.93344 0
M  V30 738 H 69.1696 1.56814 -2.69844 0
M  V30 739 N 69.4707 1.49531 0.497807 0
M  V30 740 C 70.7477 1.49682 1.25915 0
M  V30 741 C 71.1277 0.226339 2.09883 0
M  V30 742 O 70.4757 -0.791189 2.14365 0
M  V30 743 C 70.6857 2.77755 2.11313 0
M  V30 744 C 72.0337 3.27371 2.70395 0
M  V30 745 O 73.0577 2.78894 2.21578 0
M  V30 746 O 71.9167 4.11808 3.59272 0
M  V30 747 H 69.0107 0.599228 0.56996 0
M  V30 748 H 71.5567 1.61798 0.511816 0
M  V30 749 H 70.3287 3.61713 1.49264 0
M  V30 750 H 69.9517 2.68515 2.93233 0
M  V30 751 N 70.9488 -0.749086 1.3866 0
M  V30 752 C 71.8788 -1.8764 1.38973 0
M  V30 753 C 72.8598 -1.68178 0.255004 0
M  V30 754 O 74.0448 -1.88704 0.458754 0
M  V30 755 C 71.1748 -3.25222 1.21851 0
M  V30 756 C 70.1288 -3.59295 2.32575 0
M  V30 757 C 69.4548 -4.95663 2.00555 0
M  V30 758 C 70.7548 -3.63709 3.7485 0
M  V30 759 H 72.4488 -1.87635 2.3331 0
M  V30 760 H 69.9948 -0.901329 1.12303 0
M  V30 761 H 71.9478 -4.03746 1.20695 0
M  V30 762 H 70.6718 -3.25719 0.239775 0
M  V30 763 H 69.3308 -2.83093 2.32925 0
M  V30 764 H 68.9788 -4.92724 1.01154 0
M  V30 765 H 68.6788 -5.19429 2.74714 0
M  V30 766 H 70.2028 -5.7656 2.01024 0
M  V30 767 H 71.6168 -4.32338 3.76506 0
M  V30 768 H 70.0138 -3.98986 4.48252 0
M  V30 769 H 71.0838 -2.63834 4.06841 0
M  V30 770 N 72.4269 -1.23603 -0.977757 0
M  V30 771 C 73.6519 -1.09735 -1.75991 0
M  V30 772 C 74.0769 0.346858 -1.84874 0
M  V30 773 O 73.4349 1.25093 -1.3123 0
M  V30 774 C 73.4829 -1.73051 -3.16363 0
M  V30 775 O 72.5869 -0.994452 -4.0023 0
M  V30 776 H 71.9279 -0.384476 -0.541364 0
M  V30 777 H 74.4579 -1.6371 -1.2272 0
M  V30 778 H 74.4679 -1.78398 -3.66931 0
M  V30 779 H 73.1429 -2.78137 -3.09213 0
M  V30 780 H 71.7199 -1.01812 -3.58732 0
M  V30 781 N 73.905 1.17692 -1.04816 0
M  V30 782 C 75.133 1.91786 -0.776254 0
M  V30 783 C 75.548 1.76604 0.667577 0
M  V30 784 O 74.905 1.10067 1.45573 0
M  V30 785 C 74.956 3.42967 -1.14263 0
M  V30 786 O 74.677 3.57678 -2.52978 0
M  V30 787 C 76.178 4.34144 -0.896311 0
M  V30 788 H 73.398 0.608624 -0.282519 0
M  V30 789 H 75.942 1.49268 -1.39783 0
M  V30 790 H 74.097 3.83245 -0.565874 0
M  V30 791 H 74.511 4.51319 -2.67229 0
M  V30 792 H 75.985 5.38744 -1.20244 0
M  V30 793 H 76.462 4.38876 0.168636 0
M  V30 794 H 77.068 3.99574 -1.45672 0
M  V30 795 N 75.3831 0.828654 1.34056 0
M  V30 796 C 76.7941 0.477534 1.8049 0
M  V30 797 C 77.1451 -1.00258 1.6865 0
M  V30 798 O 76.2701 -1.78057 1.22982 0
M  V30 799 C 76.8651 0.860018 3.27703 0
M  V30 800 C 75.4241 0.561185 3.72193 0
M  V30 801 C 74.5711 1.07385 2.55663 0
M  V30 802 H 77.5221 1.0183 1.21722 0
M  V30 803 H 77.5431 0.166038 3.80138 0
M  V30 804 H 77.0551 1.93731 3.36288 0
M  V30 805 H 75.1561 -0.506465 3.69142 0
M  V30 806 H 75.2691 1.10926 4.66082 0
M  V30 807 H 73.6331 0.495149 2.49841 0
M  V30 808 H 74.4161 2.15771 2.67016 0
M  V30 809 N 76.8612 -1.46375 0.584142 0
M  V30 810 C 78.1382 -1.956 0.0033388 0
M  V30 811 C 78.5182 -1.52679 -1.45782 0
M  V30 812 O 77.8662 -0.77816 -2.14842 0
M  V30 813 C 78.0762 -3.48551 0.176891 0
M  V30 814 C 79.4242 -4.24576 0.0454609 0
M  V30 815 O 80.4482 -3.56043 0.105801 0
M  V30 816 O 79.3072 -5.46427 -0.0890376 0
M  V30 817 H 76.4012 -0.825547 -0.0490066 0
M  V30 818 H 78.9472 -1.56652 0.65256 0
M  V30 819 H 77.7192 -3.72683 1.1926 0
M  V30 820 H 77.3422 -3.94332 -0.508695 0
M  V30 821 N 78.3393 -0.321999 -1.54275 0
M  V30 822 C 79.3023 0.531975 -2.22941 0
M  V30 823 C 80.3023 1.04478 -1.22234 0
M  V30 824 O 81.4923 0.937452 -1.46825 0
M  V30 825 C 78.6243 1.73874 -2.93224 0
M  V30 826 H 79.8173 -0.0682612 -2.99822 0
M  V30 827 H 77.3703 -0.0730644 -1.56129 0
M  V30 828 H 78.1053 2.37825 -2.20476 0
M  V30 829 H 77.8903 1.37847 -3.6707 0
M  V30 830 H 79.3803 2.34496 -3.45545 0
M  V30 831 N 79.8174 1.5752 -0.0501392 0
M  V30 832 C 81.0634 1.92936 0.624798 0
M  V30 833 C 81.3964 0.928685 1.70555 0
M  V30 834 O 80.6714 -0.0454779 1.94447 0
M  V30 835 C 80.9544 3.38737 1.22185 0
M  V30 836 C 80.8074 4.49552 0.149218 0
M  V30 837 C 82.1264 3.84913 2.13378 0
M  V30 838 H 79.2454 0.701604 0.225657 0
M  V30 839 H 81.8874 1.89671 -0.111693 0
M  V30 840 H 80.0374 3.4165 1.84953 0
M  V30 841 H 81.7094 4.58768 -0.482648 0
M  V30 842 H 79.9524 4.30638 -0.522841 0
M  V30 843 H 80.6234 5.48653 0.606966 0
M  V30 844 H 83.0994 3.8387 1.60572 0
M  V30 845 H 81.9754 4.87584 2.52097 0
M  V30 846 H 82.2364 3.21611 3.03346 0
M  V30 847 N 81.2955 -0.223234 1.56011 0
M  V30 848 C 82.2285 -1.30377 1.87289 0
M  V30 849 C 83.2065 -1.45286 0.730112 0
M  V30 850 O 84.3905 -1.61126 0.978302 0
M  V30 851 C 81.5175 -2.67431 2.07843 0
M  V30 852 C 80.5635 -2.69546 3.30526 0
M  V30 853 S 81.3965 -2.23781 4.865 0
M  V30 854 C 82.5525 -3.62714 5.10088 0
M  V30 855 H 82.7855 -1.03652 2.78646 0
M  V30 856 H 80.3185 -0.425393 1.48424 0
M  V30 857 H 82.2765 -3.46336 2.20368 0
M  V30 858 H 80.9375 -2.91381 1.17285 0
M  V30 859 H 80.1305 -3.70255 3.41947 0
M  V30 860 H 79.7325 -1.98703 3.16849 0
M  V30 861 H 82.0245 -4.58391 4.98883 0
M  V30 862 H 82.9675 -3.5621 6.11981 0
M  V30 863 H 83.3755 -3.56323 4.37829 0
M  V30 864 N 82.7736 -1.49793 -0.48987 0
M  V30 865 C 84.0216 -1.59525 -1.24081 0
M  V30 866 C 84.3426 -0.288953 -1.92847 0
M  V30 867 O 83.6126 0.692436 -1.83254 0
M  V30 868 H 82.1926 -0.587796 -0.460983 0
M  V30 869 H 84.8546 -1.86477 -0.566778 0
M  V30 870 H 83.9506 -2.39696 -1.99881 0
M  V30 871 N 84.2517 0.741722 -1.39055 0
M  V30 872 C 85.1997 1.87702 -1.3737 0
M  V30 873 C 86.1937 1.67427 -0.257812 0
M  V30 874 O 87.3997 1.7485 -0.427489 0
M  V30 875 H 83.7747 0.617757 -0.428812 0
M  V30 876 H 85.7457 1.86239 -2.33147 0
M  V30 877 C 84.4947 3.25315 -1.22741 0
M  V30 878 H 83.8177 3.41509 -2.07873 0
M  V30 879 H 85.2577 4.04964 -1.25618 0
M  V30 880 C 83.7167 3.36838 0.0647316 0
M  V30 881 O 84.2467 3.88073 1.03741 0
M  V30 882 N 82.4527 2.90329 0.125544 0
M  V30 883 H 81.9997 2.48823 -0.666682 0
M  V30 884 H 81.9577 2.98418 0.989639 0
M  V30 885 N 85.7298 1.2412 0.971189 0
M  V30 886 C 87.1408 1.07236 1.52831 0
M  V30 887 C 87.4918 -0.357352 1.92918 0
M  V30 888 O 86.6168 -1.24528 1.76979 0
M  V30 889 C 87.2118 1.94043 2.77728 0
M  V30 890 C 85.7708 1.81394 3.29808 0
M  V30 891 C 84.9178 1.89189 2.02738 0
M  V30 892 H 87.8688 1.37648 0.789864 0
M  V30 893 H 87.8898 1.47066 3.5093 0
M  V30 894 H 87.4018 2.98093 2.4852 0
M  V30 895 H 85.5028 0.801634 3.63874 0
M  V30 896 H 85.6158 2.65294 3.98944 0
M  V30 897 H 83.9798 1.32877 2.17292 0
M  V30 898 H 84.7628 2.94812 1.759 0
M  V30 899 N 87.2079 -1.17134 1.05439 0
M  V30 900 C 88.1549 -2.21235 0.657539 0
M  V30 901 C 89.1249 -1.62551 -0.341543 0
M  V30 902 O 90.3099 -1.89379 -0.232393 0
M  V30 903 C 87.4499 -3.45076 0.0410575 0
M  V30 904 C 86.5629 -4.18042 1.08927 0
M  V30 905 C 85.6979 -5.29376 0.439848 0
M  V30 906 C 84.7369 -5.94132 1.4722 0
M  V30 907 N 83.8739 -6.96975 0.846756 0
M  V30 908 H 88.7139 -2.54534 1.54972 0
M  V30 909 H 86.2509 -1.25028 0.775006 0
M  V30 910 H 88.2089 -4.15862 -0.33383 0
M  V30 911 H 86.8389 -3.12353 -0.814568 0
M  V30 912 H 85.8909 -3.45945 1.58196 0
M  V30 913 H 87.2029 -4.62306 1.87282 0
M  V30 914 H 86.3569 -6.06699 0.0115125 0
M  V30 915 H 85.0959 -4.86251 -0.375656 0
M  V30 916 H 84.1009 -5.15538 1.91052 0
M  V30 917 H 85.3259 -6.39337 2.28965 0
M  V30 918 H 83.2719 -6.5598 0.0518075 0
M  V30 919 H 83.1889 -7.39565 1.5678 0
M  V30 920 H 84.4569 -7.78239 0.443277 0
M  V30 921 N 88.686 -0.835752 -1.33615 0
M  V30 922 C 89.932 -0.430596 -1.98176 0
M  V30 923 C 90.265 1.00684 -1.66061 0
M  V30 924 O 89.54 1.70339 -0.938877 0
M  V30 925 C 89.823 -0.648065 -3.5422 0
M  V30 926 C 89.676 -2.13255 -3.96033 0
M  V30 927 C 90.995 -0.0922113 -4.40003 0
M  V30 928 H 88.114 -0.157924 -0.719881 0
M  V30 929 H 90.756 -1.05069 -1.58305 0
M  V30 930 H 88.906 -0.120237 -3.88314 0
M  V30 931 H 90.578 -2.725 -3.72211 0
M  V30 932 H 88.821 -2.61823 -3.45878 0
M  V30 933 H 89.492 -2.23547 -5.04708 0
M  V30 934 H 91.968 -0.543343 -4.12537 0
M  V30 935 H 90.844 -0.274083 -5.48215 0
M  V30 936 H 91.105 1.00378 -4.30554 0
M  V30 937 N 90.1641 1.46063 -0.591896 0
M  V30 938 C 91.1111 2.30399 0.136069 0
M  V30 939 C 92.0811 1.41169 0.875238 0
M  V30 940 O 93.2661 1.70112 0.86409 0
M  V30 941 C 90.4061 3.25804 1.13781 0
M  V30 942 C 89.5191 4.30134 0.401137 0
M  V30 943 C 88.6541 5.12659 1.39121 0
M  V30 944 C 87.6931 6.0873 0.641462 0
M  V30 945 N 86.8301 6.8409 1.58004 0
M  V30 946 H 91.6701 2.92118 -0.589144 0
M  V30 947 H 89.2071 1.43959 -0.302342 0
M  V30 948 H 91.1651 3.79569 1.73156 0
M  V30 949 H 89.7951 2.65872 1.83062 0
M  V30 950 H 88.8471 3.79152 -0.307826 0
M  V30 951 H 90.1591 4.98458 -0.184565 0
M  V30 952 H 89.3131 5.70747 2.05749 0
M  V30 953 H 88.0521 4.44316 2.01084 0
M  V30 954 H 87.0571 5.49786 -0.0385419 0
M  V30 955 H 88.2821 6.79095 0.0270945 0
M  V30 956 H 86.2281 6.18449 2.18761 0
M  V30 957 H 86.1451 7.48709 1.04738 0
M  V30 958 H 87.4131 7.4673 2.23639 0
M  V30 959 N 91.6422 0.330177 1.54103 0
M  V30 960 C 92.6052 -0.520144 2.2322 0
M  V30 961 C 93.6052 -1.03828 1.22786 0
M  V30 962 O 94.7952 -0.929652 1.4732 0
M  V30 963 C 91.9272 -1.72317 2.94142 0
M  V30 964 H 93.1202 0.0841605 2.99782 0
M  V30 965 H 90.6732 0.0813433 1.56088 0
M  V30 966 H 91.4082 -2.36653 2.21734 0
M  V30 967 H 91.1932 -1.35898 3.67796 0
M  V30 968 H 92.6832 -2.3266 3.46784 0
M  V30 969 N 93.1203 -1.57491 0.0584922 0
M  V30 970 C 94.0703 -2.08474 -0.923188 0
M  V30 971 C 95.0543 -0.991479 -1.26722 0
M  V30 972 O 96.2463 -1.25473 -1.24842 0
M  V30 973 C 93.3753 -2.6392 -2.19548 0
M  V30 974 C 92.4613 -3.80227 -1.87852 0
M  V30 975 N 92.8523 -4.89714 -1.26546 0
M  V30 976 C 91.1503 -3.89271 -2.17679 0
M  V30 977 C 91.8513 -5.70689 -1.12644 0
M  V30 978 N 90.8273 -5.18531 -1.63176 0
M  V30 979 H 94.6293 -2.90517 -0.444653 0
M  V30 980 H 92.1433 -1.61745 -0.145764 0
M  V30 981 H 94.1403 -2.98752 -2.9078 0
M  V30 982 H 92.8003 -1.83318 -2.68001 0
M  V30 983 H 93.8113 -5.09358 -0.936757 0
M  V30 984 H 90.4883 -3.19623 -2.68602 0
M  V30 985 H 91.8783 -6.6875 -0.6499 0
M  V30 986 N 94.5984 0.214957 -1.56127 0
M  V30 987 C 95.8464 0.936518 -1.79091 0
M  V30 988 C 96.1674 1.84606 -0.628148 0
M  V30 989 O 95.4374 1.92664 0.35462 0
M  V30 990 H 94.0174 0.3488 -0.660566 0
M  V30 991 H 96.6794 0.22523 -1.93594 0
M  V30 992 H 95.7754 1.53943 -2.71492 0
M  V30 993 N 96.0765 1.50051 0.48192 0
M  V30 994 C 97.0235 1.68122 1.58125 0
M  V30 995 C 97.9935 0.522545 1.57666 0
M  V30 996 O 99.1785 0.751844 1.75362 0
M  V30 997 C 96.3185 1.77142 2.96167 0
M  V30 998 C 95.4315 3.0444 3.06497 0
M  V30 999 C 94.5665 3.04321 4.35387 0
M  V30 1000 C 93.6055 4.26118 4.3942 0
M  V30 1001 N 92.7425 4.238 5.59766 0
M  V30 1002 H 97.5825 2.6198 1.42022 0
M  V30 1003 H 95.1195 1.29877 0.690687 0
M  V30 1004 H 97.0775 1.80352 3.76203 0
M  V30 1005 H 95.7075 0.867329 3.1093 0
M  V30 1006 H 94.7595 3.10752 2.19402 0
M  V30 1007 H 96.0715 3.94426 3.05336 0
M  V30 1008 H 95.2255 3.062 5.23762 0
M  V30 1009 H 93.9645 2.12147 4.39141 0
M  V30 1010 H 92.9695 4.24463 3.49444 0
M  V30 1011 H 94.1945 5.19507 4.37366 0
M  V30 1012 H 92.1405 3.34474 5.64326 0
M  V30 1013 H 92.0575 5.07542 5.60301 0
M  V30 1014 H 93.3255 4.2981 6.50295 0
M  V30 1015 N 97.5546 -0.734337 1.39446 0
M  V30 1016 C 98.5016 -1.84835 1.38219 0
M  V30 1017 C 99.4716 -1.64331 0.24179 0
M  V30 1018 O 100.657 -1.85728 0.437002 0
M  V30 1019 C 97.7966 -3.22355 1.23212 0
M  V30 1020 C 96.9096 -3.5456 2.46801 0
M  V30 1021 C 96.0446 -4.81485 2.24377 0
M  V30 1022 C 95.0836 -5.06536 3.43639 0
M  V30 1023 N 94.2206 -6.24665 3.20528 0
M  V30 1024 H 99.0606 -1.85219 2.33448 0
M  V30 1025 H 96.5976 -0.905039 1.15963 0
M  V30 1026 H 98.5556 -4.0174 1.12522 0
M  V30 1027 H 97.1856 -3.21248 0.316121 0
M  V30 1028 H 96.2376 -2.69872 2.68092 0
M  V30 1029 H 97.5496 -3.6899 3.3563 0
M  V30 1030 H 96.7036 -5.68852 2.10933 0
M  V30 1031 H 95.4426 -4.6923 1.32944 0
M  V30 1032 H 94.4476 -4.17632 3.5758 0
M  V30 1033 H 95.6726 -5.20676 4.35974 0
M  V30 1034 H 93.6186 -6.13696 2.3176 0
M  V30 1035 H 93.5356 -6.39685 4.02913 0
M  V30 1036 H 94.8036 -7.14868 3.10779 0
M  V30 1037 N 99.0327 -1.24633 -0.964593 0
M  V30 1038 C 100.279 -1.08949 -1.71049 0
M  V30 1039 C 100.612 0.370302 -1.90637 0
M  V30 1040 O 99.8867 1.27349 -1.47011 0
M  V30 1041 C 100.17 -1.83329 -3.0994 0
M  V30 1042 C 100.023 -3.37077 -2.97824 0
M  V30 1043 C 101.342 -1.60846 -4.09654 0
M  V30 1044 H 98.4607 -0.397178 -0.620821 0
M  V30 1045 H 101.103 -1.5334 -1.12191 0
M  V30 1046 H 99.2527 -1.45597 -3.60186 0
M  V30 1047 H 100.925 -3.84425 -2.5498 0
M  V30 1048 H 99.1677 -3.65298 -2.33965 0
M  V30 1049 H 99.8387 -3.84324 -3.96231 0
M  V30 1050 H 102.315 -1.93674 -3.68279 0
M  V30 1051 H 101.191 -2.1534 -5.04896 0
M  V30 1052 H 101.452 -0.547434 -4.38698 0
M  V30 1053 N 100.511 1.16574 -1.06058 0
M  V30 1054 C 101.441 2.23057 -0.690488 0
M  V30 1055 C 102.422 1.67141 0.315901 0
M  V30 1056 O 103.607 1.93253 0.191556 0
M  V30 1057 C 100.737 3.47222 -0.073625 0
M  V30 1058 C 99.6908 4.16016 -1.00573 0
M  V30 1059 C 99.0168 5.34104 -0.252289 0
M  V30 1060 C 100.317 4.67264 -2.33371 0
M  V30 1061 H 102.011 2.54271 -1.58072 0
M  V30 1062 H 99.5568 1.22218 -0.76149 0
M  V30 1063 H 101.51 4.20939 0.19714 0
M  V30 1064 H 100.234 3.15302 0.85161 0
M  V30 1065 H 98.8928 3.44223 -1.2612 0
M  V30 1066 H 98.5408 4.98437 0.675988 0
M  V30 1067 H 98.2408 5.81072 -0.873455 0
M  V30 1068 H 99.7648 6.10599 0.0109857 0
M  V30 1069 H 101.179 5.32573 -2.12223 0
M  V30 1070 H 99.5758 5.24843 -2.90963 0
M  V30 1071 H 100.646 3.83602 -2.96611 0
M  V30 1072 N 101.989 0.842826 1.3317 0
M  V30 1073 C 103.237 0.439577 1.97262 0
M  V30 1074 C 103.558 -1.00548 1.67078 0
M  V30 1075 O 102.828 -1.70098 0.971779 0
M  V30 1076 H 101.408 0.159558 0.72976 0
M  V30 1077 H 104.07 1.07665 1.62463 0
M  V30 1078 H 103.166 0.574886 3.0676 0
M  V30 1079 N 103.467 -1.45747 0.599634 0
M  V30 1080 C 104.43 -2.28917 -0.113835 0
M  V30 1081 C 105.43 -1.3933 -0.802729 0
M  V30 1082 O 106.62 -1.61534 -0.652103 0
M  V30 1083 C 103.752 -3.20152 -1.17114 0
M  V30 1084 H 104.945 -2.93478 0.617289 0
M  V30 1085 H 102.498 -1.52137 0.358327 0
M  V30 1086 H 103.233 -2.60374 -1.93329 0
M  V30 1087 H 103.018 -3.86133 -0.681468 0
M  V30 1088 H 104.508 -3.82708 -1.67105 0
M  V30 1089 N 104.945 -0.338344 -1.53925 0
M  V30 1090 C 106.192 0.259758 -2.00827 0
M  V30 1091 C 106.52 1.50973 -1.22628 0
M  V30 1092 O 105.775 1.93379 -0.300509 0
M  V30 1093 C 106.074 0.62448 -3.51902 0
M  V30 1094 C 105.74 -0.528006 -4.47798 0
M  V30 1095 C 104.402 -0.844298 -4.73735 0
M  V30 1096 C 106.754 -1.30143 -5.0469 0
M  V30 1097 C 104.082 -1.93648 -5.53821 0
M  V30 1098 C 106.434 -2.38382 -5.85967 0
M  V30 1099 C 105.098 -2.70576 -6.10201 0
M  V30 1100 H 104.368 0.0950523 -0.734878 0
M  V30 1101 H 107.015 -0.465182 -1.85764 0
M  V30 1102 H 105.32 1.43006 -3.64769 0
M  V30 1103 H 107.017 1.09905 -3.85645 0
M  V30 1104 H 103.607 -0.271421 -4.2774 0
M  V30 1105 H 107.791 -1.07033 -4.84621 0
M  V30 1106 H 103.047 -2.19021 -5.70824 0
M  V30 1107 H 107.221 -2.98746 -6.29066 0
M  V30 1108 H 104.848 -3.55333 -6.72044 0
M  V30 1109 N 106.423 1.57458 -0.0668435 0
M  V30 1110 C 107.648 1.9804 0.616027 0
M  V30 1111 C 108.073 0.944771 1.62652 0
M  V30 1112 O 107.431 -0.0902094 1.81075 0
M  V30 1113 C 107.479 3.37665 1.26549 0
M  V30 1114 O 106.583 3.36701 2.38131 0
M  V30 1115 H 105.924 0.644719 0.158849 0
M  V30 1116 H 108.454 2.04121 -0.139891 0
M  V30 1117 H 108.464 3.7474 1.6135 0
M  V30 1118 H 107.139 4.12573 0.525016 0
M  V30 1119 H 105.716 3.1139 2.0516 0
M  V30 1120 N 107.901 -0.206675 1.56239 0
M  V30 1121 C 109.178 -0.954051 1.70755 0
M  V30 1122 C 109.558 -2.01841 0.618353 0
M  V30 1123 O 108.906 -2.25444 -0.372434 0
M  V30 1124 C 109.116 -1.551 3.12642 0
M  V30 1125 C 110.464 -2.03757 3.72516 0
M  V30 1126 O 111.488 -1.64965 3.15698 0
M  V30 1127 O 110.347 -2.75103 4.72208 0
M  V30 1128 H 107.441 -0.446636 0.696021 0
M  V30 1129 H 109.987 -0.197283 1.68549 0
M  V30 1130 H 108.759 -0.783212 3.83382 0
M  V30 1131 H 108.382 -2.37291 3.19028 0
M  V30 1132 N 109.379 -1.50304 -0.473955 0
M  V30 1133 C 110.627 -1.60832 -1.22382 0
M  V30 1134 C 110.948 -0.30939 -1.9253 0
M  V30 1135 O 110.218 0.67296 -1.83978 0
M  V30 1136 H 108.798 -0.592652 -0.454723 0
M  V30 1137 H 111.46 -1.87068 -0.546968 0
M  V30 1138 H 110.556 -2.41803 -1.97327 0
M  V30 1139 N 110.857 0.726932 -1.39834 0
M  V30 1140 C 111.787 1.85405 -1.41941 0
M  V30 1141 C 112.768 1.67751 -0.281728 0
M  V30 1142 O 113.953 1.8795 -0.488717 0
M  V30 1143 C 111.083 3.23243 -1.2701 0
M  V30 1144 C 110.037 3.55549 -2.38262 0
M  V30 1145 C 109.363 4.9241 -2.08415 0
M  V30 1146 C 110.663 3.577 -3.80589 0
M  V30 1147 H 112.357 1.83899 -2.36266 0
M  V30 1148 H 109.903 0.883349 -1.13723 0
M  V30 1149 H 111.856 4.01775 -1.27103 0
M  V30 1150 H 110.58 3.25296 -0.291564 0
M  V30 1151 H 109.239 2.79351 -2.37399 0
M  V30 1152 H 108.887 4.91052 -1.0898 0
M  V30 1153 H 108.587 5.14992 -2.82943 0
M  V30 1154 H 110.111 5.73289 -2.10171 0
M  V30 1155 H 111.525 4.26293 -3.83337 0
M  V30 1156 H 109.922 3.91804 -4.54543 0
M  V30 1157 H 110.992 2.57328 -4.10987 0
M  V30 1158 N 112.336 1.25143 0.95797 0
M  V30 1159 C 113.299 1.05321 2.03569 0
M  V30 1160 C 114.299 0.007152 1.60798 0
M  V30 1161 O 115.489 0.24903 1.72411 0
M  V30 1162 C 112.621 0.598394 3.35607 0
M  V30 1163 H 113.814 2.00986 2.22586 0
M  V30 1164 H 111.367 1.07502 1.13459 0
M  V30 1165 H 112.102 -0.361014 3.22284 0
M  V30 1166 H 111.887 1.35351 3.67998 0
M  V30 1167 H 113.377 0.48104 4.1482 0
M  V30 1168 N 113.814 -1.1601 1.06675 0
M  V30 1169 C 114.764 -2.18512 0.650888 0
M  V30 1170 C 115.748 -1.57677 -0.320441 0
M  V30 1171 O 116.94 -1.76482 -0.135266 0
M  V30 1172 C 114.069 -3.43273 0.0429255 0
M  V30 1173 C 113.155 -4.11176 1.03898 0
M  V30 1174 N 113.546 -4.54672 2.216 0
M  V30 1175 C 111.844 -4.37417 0.870779 0
M  V30 1176 C 112.545 -5.07248 2.84736 0
M  V30 1177 N 111.521 -5.0037 2.12441 0
M  V30 1178 H 115.323 -2.49863 1.54745 0
M  V30 1179 H 112.837 -1.32503 0.938975 0
M  V30 1180 H 114.834 -4.16006 -0.272857 0
M  V30 1181 H 113.494 -3.13408 -0.84884 0
M  V30 1182 H 114.505 -4.4828 2.59356 0
M  V30 1183 H 111.182 -4.17488 0.0313293 0
M  V30 1184 H 112.572 -5.50912 3.84636 0
M  V30 1185 N 115.292 -0.849877 -1.32721 0
M  V30 1186 C 116.222 -0.306308 -2.31482 0
M  V30 1187 C 117.203 0.591952 -1.59468 0
M  V30 1188 O 118.388 0.513199 -1.87296 0
M  V30 1189 C 115.518 0.510204 -3.43532 0
M  V30 1190 C 114.472 -0.293209 -4.26994 0
M  V30 1191 C 113.798 0.647743 -5.30762 0
M  V30 1192 C 115.098 -1.51634 -4.99804 0
M  V30 1193 H 116.792 -1.13153 -2.77195 0
M  V30 1194 H 114.338 -0.545553 -1.33266 0
M  V30 1195 H 116.291 0.900856 -4.11658 0
M  V30 1196 H 115.015 1.36874 -2.96535 0
M  V30 1197 H 113.674 -0.665555 -3.60508 0
M  V30 1198 H 113.322 1.50299 -4.8002 0
M  V30 1199 H 113.022 0.11422 -5.87489 0
M  V30 1200 H 114.546 1.03567 -6.01753 0
M  V30 1201 H 115.96 -1.19824 -5.60638 0
M  V30 1202 H 114.357 -1.98745 -5.66234 0
M  V30 1203 H 115.427 -2.28018 -4.27943 0
M  V30 1204 N 116.77 1.45427 -0.607355 0
M  V30 1205 C 118.047 1.9557 -0.0344566 0
M  V30 1206 C 118.427 1.54979 1.43334 0
M  V30 1207 O 117.775 0.812241 2.13576 0
M  V30 1208 C 117.985 3.48226 -0.232321 0
M  V30 1209 C 119.333 4.2445 -0.113001 0
M  V30 1210 O 120.357 3.55829 -0.162431 0
M  V30 1211 O 119.216 5.465 0.00209442 0
M  V30 1212 H 116.31 0.826222 0.0358667 0
M  V30 1213 H 118.856 1.55594 -0.6774 0
M  V30 1214 H 117.628 3.70739 -1.25174 0
M  V30 1215 H 117.251 3.95092 0.445896 0
M  V30 1216 N 118.248 0.346503 1.53744 0
M  V30 1217 C 119.196 -0.52422 2.26616 0
M  V30 1218 C 120.19 -1.09948 1.28871 0
M  V30 1219 O 121.396 -1.04488 1.46568 0
M  V30 1220 H 117.771 -0.187743 0.728187 0
M  V30 1221 H 119.742 0.11239 2.98188 0
M  V30 1222 C 118.491 -1.66186 3.05414 0
M  V30 1223 H 117.814 -1.22848 3.80458 0
M  V30 1224 H 119.254 -2.24622 3.59612 0
M  V30 1225 C 117.713 -2.59302 2.1509 0
M  V30 1226 O 118.243 -3.61628 1.74895 0
M  V30 1227 N 116.449 -2.28055 1.8011 0
M  V30 1228 H 115.996 -1.44883 2.12994 0
M  V30 1229 H 115.954 -2.90615 1.19958 0
M  V30 1230 N 119.726 -1.57421 0.075193 0
M  V30 1231 C 120.656 -2.15942 -0.888324 0
M  V30 1232 C 121.637 -1.08737 -1.30806 0
M  V30 1233 O 122.822 -1.36787 -1.37851 0
M  V30 1234 C 119.952 -2.72379 -2.1547 0
M  V30 1235 C 118.906 -3.8478 -1.87425 0
M  V30 1236 C 118.232 -4.27834 -3.20721 0
M  V30 1237 C 119.532 -5.08869 -1.17684 0
M  V30 1238 H 121.226 -2.96705 -0.400799 0
M  V30 1239 H 118.772 -1.42723 -0.191342 0
M  V30 1240 H 120.725 -3.11965 -2.83295 0
M  V30 1241 H 119.449 -1.88841 -2.6647 0
M  V30 1242 H 118.108 -3.45703 -1.22004 0
M  V30 1243 H 117.756 -3.41214 -3.6957 0
M  V30 1244 H 117.456 -5.03605 -3.02746 0
M  V30 1245 H 118.98 -4.70039 -3.89738 0
M  V30 1246 H 120.394 -5.4575 -1.75584 0
M  V30 1247 H 118.791 -5.8994 -1.09956 0
M  V30 1248 H 119.861 -4.84648 -0.156453 0
M  V30 1249 N 121.204 0.198386 -1.56346 0
M  V30 1250 C 122.151 1.24589 -1.94284 0
M  V30 1251 C 123.121 1.454 -0.802997 0
M  V30 1252 O 124.306 1.58588 -1.06087 0
M  V30 1253 C 121.446 2.58631 -2.28482 0
M  V30 1254 C 120.559 2.45426 -3.55514 0
M  V30 1255 C 119.694 3.7215 -3.79049 0
M  V30 1256 C 118.733 3.53763 -4.99518 0
M  V30 1257 N 117.87 4.72491 -5.19323 0
M  V30 1258 H 122.71 0.915356 -2.83593 0
M  V30 1259 H 120.247 0.440629 -1.40346 0
M  V30 1260 H 122.205 3.3672 -2.46324 0
M  V30 1261 H 120.835 2.89734 -1.42317 0
M  V30 1262 H 119.887 1.58652 -3.45737 0
M  V30 1263 H 121.199 2.27772 -4.43758 0
M  V30 1264 H 120.353 4.58679 -3.97113 0
M  V30 1265 H 119.092 3.92754 -2.89129 0
M  V30 1266 H 118.097 2.65619 -4.8138 0
M  V30 1267 H 119.322 3.34607 -5.90944 0
M  V30 1268 H 117.268 4.93365 -4.3235 0
M  V30 1269 H 117.185 4.5765 -6.01741 0
M  V30 1270 H 118.453 5.6038 -5.41843 0
M  V30 1271 N 122.682 1.50554 0.465978 0
M  V30 1272 C 123.93 1.61479 1.21528 0
M  V30 1273 C 124.251 0.319596 1.92363 0
M  V30 1274 O 123.521 -0.663194 1.84333 0
M  V30 1275 H 122.101 0.595055 0.451573 0
M  V30 1276 H 124.763 1.87355 0.53704 0
M  V30 1277 H 123.859 2.42846 1.96042 0
M  V30 1278 N 124.16 -0.719506 1.40217 0
M  V30 1279 C 125.388 -1.50864 1.41589 0
M  V30 1280 C 125.803 -1.88794 0.0145275 0
M  V30 1281 O 125.16 -1.55174 -0.960594 0
M  V30 1282 C 125.211 -2.78646 2.30302 0
M  V30 1283 O 124.932 -2.42321 3.64983 0
M  V30 1284 C 126.433 -3.72569 2.40224 0
M  V30 1285 H 123.653 -0.465709 0.48307 0
M  V30 1286 H 126.197 -0.88785 1.84221 0
M  V30 1287 H 124.352 -3.37019 1.91042 0
M  V30 1288 H 124.766 -3.24514 4.12057 0
M  V30 1289 H 126.24 -4.5908 3.06512 0
M  V30 1290 H 126.717 -4.15403 1.42608 0
M  V30 1291 H 127.323 -3.20109 2.80019 0
M  V30 1292 N 125.638 -1.25649 -0.95132 0
M  V30 1293 C 126.885 -1.10594 -1.69633 0
M  V30 1294 C 127.213 0.352515 -1.91279 0
M  V30 1295 O 126.468 1.27601 -1.4838 0
M  V30 1296 C 126.767 -1.80909 -3.08231 0
M  V30 1297 C 126.433 -3.30825 -3.06375 0
M  V30 1298 C 125.095 -3.71722 -3.05576 0
M  V30 1299 C 127.447 -4.26589 -2.99452 0
M  V30 1300 C 124.775 -5.06788 -2.95606 0
M  V30 1301 C 127.127 -5.61683 -2.91024 0
M  V30 1302 C 125.791 -6.01904 -2.88562 0
M  V30 1303 H 125.061 -0.404691 -0.620731 0
M  V30 1304 H 127.708 -1.55964 -1.11119 0
M  V30 1305 H 126.013 -1.27979 -3.70309 0
M  V30 1306 H 127.71 -1.6671 -3.64704 0
M  V30 1307 H 124.3 -2.98287 -3.07771 0
M  V30 1308 H 128.484 -3.95982 -2.99185 0
M  V30 1309 H 123.74 -5.37126 -2.92071 0
M  V30 1310 H 127.914 -6.35578 -2.84629 0
M  V30 1311 H 125.541 -7.06521 -2.80593 0
M  V30 1312 N 127.117 1.15442 -1.07289 0
M  V30 1313 C 128.08 2.18358 -0.696591 0
M  V30 1314 C 129.08 1.58637 0.262837 0
M  V30 1315 O 130.27 1.74145 0.0438809 0
M  V30 1316 C 127.402 3.4089 -0.0266151 0
M  V30 1317 H 128.595 2.53162 -1.60776 0
M  V30 1318 H 126.148 1.29893 -0.869342 0
M  V30 1319 H 126.883 3.11653 0.896822 0
M  V30 1320 H 126.668 3.85495 -0.716657 0
M  V30 1321 H 128.158 4.17009 0.222028 0
M  V30 1322 N 128.595 0.856903 1.32268 0
M  V30 1323 C 129.823 0.475439 2.01363 0
M  V30 1324 C 130.238 -0.928486 1.64392 0
M  V30 1325 O 129.595 -1.60624 0.866387 0
M  V30 1326 C 129.646 0.607545 3.56358 0
M  V30 1327 O 129.367 1.95617 3.92002 0
M  V30 1328 C 130.868 0.225382 4.42727 0
M  V30 1329 H 128.088 0.186636 0.644521 0
M  V30 1330 H 130.632 1.15446 1.68797 0
M  V30 1331 H 128.787 -0.0237719 3.87393 0
M  V30 1332 H 129.201 1.95455 4.86721 0
M  V30 1333 H 130.675 0.368813 5.50767 0
M  V30 1334 H 131.152 -0.834369 4.31202 0
M  V30 1335 H 131.758 0.831864 4.17085 0
M  V30 1336 N 130.073 -1.45103 0.615059 0
M  V30 1337 C 131.003 -2.33339 -0.0865619 0
M  V30 1338 C 131.984 -1.4727 -0.851209 0
M  V30 1339 O 133.169 -1.76026 -0.820281 0
M  V30 1340 C 130.299 -3.30095 -1.07956 0
M  V30 1341 C 129.253 -4.25858 -0.427628 0
M  V30 1342 C 128.579 -5.12361 -1.5294 0
M  V30 1343 C 129.879 -5.18165 0.655944 0
M  V30 1344 H 131.573 -2.92254 0.650224 0
M  V30 1345 H 129.119 -1.40532 0.314138 0
M  V30 1346 H 131.072 -3.90698 -1.57901 0
M  V30 1347 H 129.796 -2.69355 -1.84703 0
M  V30 1348 H 128.455 -3.66564 0.0510292 0
M  V30 1349 H 128.103 -4.47984 -2.28734 0
M  V30 1350 H 127.803 -5.77238 -1.09865 0
M  V30 1351 H 129.327 -5.75833 -2.03098 0
M  V30 1352 H 130.741 -5.72796 0.240257 0
M  V30 1353 H 129.138 -5.91559 1.00888 0
M  V30 1354 H 130.208 -4.60144 1.52957 0
M  V30 1355 N 131.551 -0.354651 -1.53558 0
M  V30 1356 C 132.776 0.242153 -2.05981 0
M  V30 1357 C 133.201 1.42553 -1.2272 0
M  V30 1358 O 132.559 1.79656 -0.243604 0
M  V30 1359 C 132.607 0.624367 -3.55154 0
M  V30 1360 O 131.711 1.72301 -3.74681 0
M  V30 1361 H 131.052 0.0378432 -0.662921 0
M  V30 1362 H 133.582 -0.512087 -1.98088 0
M  V30 1363 H 133.592 0.898433 -3.97985 0
M  V30 1364 H 132.267 -0.240989 -4.15201 0
M  V30 1365 H 130.844 1.44535 -3.4375 0
M  V30 1366 N 133.029 1.57378 -0.0835403 0
M  V30 1367 C 133.939 2.16897 0.894021 0
M  V30 1368 C 134.955 1.13528 1.31861 0
M  V30 1369 O 136.131 1.45848 1.3889 0
M  V30 1370 C 133.196 2.72831 2.13925 0
M  V30 1371 C 132.257 3.91115 1.76997 0
M  V30 1372 C 131.49 4.44371 2.95584 0
M  V30 1373 O 131.713 3.96596 4.09961 0
M  V30 1374 O 130.647 5.35549 2.74719 0
M  V30 1375 H 134.473 3.00814 0.417679 0
M  V30 1376 H 132.058 1.48741 0.140181 0
M  V30 1377 H 133.94 3.0863 2.86924 0
M  V30 1378 H 132.615 1.91967 2.60635 0
M  V30 1379 H 131.522 3.60148 1.01214 0
M  V30 1380 H 132.855 4.73307 1.3506 0
M  V30 1381 N 134.507 -0.190092 1.56449 0
M  V30 1382 C 135.437 -1.23816 1.97969 0
M  V30 1383 C 136.418 -1.47201 0.852395 0
M  V30 1384 O 137.603 -1.58854 1.1171 0
M  V30 1385 C 134.733 -2.5813 2.3235 0
M  V30 1386 C 133.687 -2.49348 3.47864 0
M  V30 1387 C 133.013 -3.8798 3.67934 0
M  V30 1388 C 134.313 -2.01424 4.81898 0
M  V30 1389 H 136.007 -0.89311 2.85769 0
M  V30 1390 H 133.553 -0.428177 1.37487 0
M  V30 1391 H 135.506 -3.31637 2.59991 0
M  V30 1392 H 134.23 -2.94386 1.41438 0
M  V30 1393 H 132.889 -1.78297 3.20321 0
M  V30 1394 H 132.537 -4.21597 2.74344 0
M  V30 1395 H 132.237 -3.82978 4.45648 0
M  V30 1396 H 133.761 -4.63101 3.97957 0
M  V30 1397 H 135.175 -2.64693 5.08538 0
M  V30 1398 H 133.572 -2.07413 5.63116 0
M  V30 1399 H 134.642 -0.967677 4.75146 0
M  V30 1400 N 135.985 -1.50799 -0.457987 0
M  V30 1401 C 136.935 -1.67003 -1.55222 0
M  V30 1402 C 137.919 -0.52434 -1.52117 0
M  V30 1403 O 139.111 -0.779345 -1.58919 0
M  V30 1404 C 136.24 -1.77956 -2.93576 0
M  V30 1405 C 135.326 -2.98243 -3.01516 0
M  V30 1406 N 135.717 -4.21732 -2.79241 0
M  V30 1407 C 134.015 -2.97072 -3.32662 0
M  V30 1408 C 134.716 -5.02817 -2.92489 0
M  V30 1409 N 133.692 -4.37038 -3.23262 0
M  V30 1410 H 137.494 -2.60163 -1.36721 0
M  V30 1411 H 135.008 -1.48163 -0.664952 0
M  V30 1412 H 137.005 -1.87671 -3.72271 0
M  V30 1413 H 135.665 -0.859634 -3.13114 0
M  V30 1414 H 136.676 -4.51016 -2.54567 0
M  V30 1415 H 133.353 -2.14631 -3.58106 0
M  V30 1416 H 134.743 -6.11054 -2.79396 0
M  V30 1417 N 137.463 0.71206 -1.40597 0
M  V30 1418 C 138.703 1.48438 -1.40519 0
M  V30 1419 C 139.067 1.91998 -0.00767611 0
M  V30 1420 O 140.268 2.6854 0.118239 0
M  V30 1421 C 138.539 2.67514 -2.37004 0
M  V30 1422 S 140.098 3.56875 -2.55315 0
M  V30 1423 H 136.916 0.507457 -0.498005 0
M  V30 1424 H 139.518 0.832355 -1.76896 0
M  V30 1425 H 138.222 2.33689 -3.37368 0
M  V30 1426 H 137.753 3.37625 -2.01923 0
M  V30 1427 H 139.768 4.62081 -1.8082 0
M  V30 1428 N 138.941 1.26152 0.944643 0
M  V30 1429 C 140.218 1.02247 1.66748 0
M  V30 1430 C 140.598 -0.448202 2.06287 0
M  V30 1431 O 139.946 -1.42779 1.78399 0
M  V30 1432 C 140.156 1.96788 2.88228 0
M  V30 1433 C 141.504 2.25201 3.59958 0
M  V30 1434 O 142.528 1.94626 2.98327 0
M  V30 1435 O 141.387 2.77242 4.70956 0
M  V30 1436 H 138.481 0.388517 0.730057 0
M  V30 1437 H 141.027 1.37348 0.99668 0
M  V30 1438 H 139.799 2.96047 2.55875 0
M  V30 1439 H 139.422 1.62145 3.63035 0
M  V30 1440 N 140.419 -1.14872 1.07899 0
M  V30 1441 C 141.366 -2.19791 0.704319 0
M  V30 1442 C 142.336 -1.63238 -0.306987 0
M  V30 1443 O 143.521 -1.8983 -0.192171 0
M  V30 1444 C 140.661 -3.44911 0.114244 0
M  V30 1445 C 139.774 -4.15637 1.1777 0
M  V30 1446 C 138.909 -5.28324 0.552037 0
M  V30 1447 C 137.948 -5.90875 1.59789 0
M  V30 1448 N 137.085 -6.95022 0.994404 0
M  V30 1449 H 141.925 -2.5119 1.60336 0
M  V30 1450 H 139.462 -1.23356 0.801352 0
M  V30 1451 H 141.42 -4.16477 -0.245544 0
M  V30 1452 H 140.05 -3.14011 -0.74813 0
M  V30 1453 H 139.102 -3.42512 1.65499 0
M  V30 1454 H 140.414 -4.5823 1.97046 0
M  V30 1455 H 139.568 -6.06538 0.1402 0
M  V30 1456 H 138.307 -4.86939 -0.272431 0
M  V30 1457 H 137.312 -5.11369 2.01945 0
M  V30 1458 H 138.537 -6.34337 2.42474 0
M  V30 1459 H 136.483 -6.55722 0.190939 0
M  V30 1460 H 136.4 -7.36073 1.72432 0
M  V30 1461 H 137.668 -7.77123 0.608253 0
M  V30 1462 N 141.898 -0.863906 -1.31812 0
M  V30 1463 C 142.828 -0.330843 -2.31144 0
M  V30 1464 C 143.809 0.575005 -1.60087 0
M  V30 1465 O 144.994 0.493304 -1.8783 0
M  V30 1466 C 142.124 0.47374 -3.44054 0
M  V30 1467 C 141.078 -0.338481 -4.26659 0
M  V30 1468 C 140.404 0.591412 -5.31419 0
M  V30 1469 C 141.704 -1.56926 -4.98168 0
M  V30 1470 H 143.398 -1.16086 -2.75979 0
M  V30 1471 H 140.944 -0.559657 -1.32679 0
M  V30 1472 H 142.897 0.857143 -4.12591 0
M  V30 1473 H 141.621 1.33721 -2.9797 0
M  V30 1474 H 140.28 -0.703754 -3.59782 0
M  V30 1475 H 139.928 1.45199 -4.81587 0
M  V30 1476 H 139.628 0.0519022 -5.87577 0
M  V30 1477 H 141.152 0.97179 -6.02817 0
M  V30 1478 H 142.566 -1.25764 -5.59336 0
M  V30 1479 H 140.963 -2.04739 -5.64094 0
M  V30 1480 H 142.033 -2.32544 -4.25501 0
M  V30 1481 N 143.376 1.44774 -0.622745 0
M  V30 1482 C 144.326 2.2774 0.108889 0
M  V30 1483 C 145.31 1.38189 0.824175 0
M  V30 1484 O 146.502 1.62063 0.711664 0
M  V30 1485 C 143.631 3.25353 1.09546 0
M  V30 1486 C 142.717 4.22392 0.380232 0
M  V30 1487 N 143.108 5.02388 -0.586535 0
M  V30 1488 C 141.406 4.41588 0.625792 0
M  V30 1489 C 142.107 5.72894 -1.00834 0
M  V30 1490 N 141.083 5.42479 -0.348878 0
M  V30 1491 H 144.885 2.86993 -0.63341 0
M  V30 1492 H 142.399 1.5611 -0.447589 0
M  V30 1493 H 144.396 3.83538 1.63414 0
M  V30 1494 H 143.056 2.6766 1.83815 0
M  V30 1495 H 144.067 5.0885 -0.963975 0
M  V30 1496 H 140.744 3.95003 1.352 0
M  V30 1497 H 142.134 6.47158 -1.80656 0
M  V30 1498 N 144.854 0.36279 1.53368 0
M  V30 1499 C 146.1 -0.228113 2.01513 0
M  V30 1500 C 146.433 -1.48648 1.2497 0
M  V30 1501 O 145.708 -1.91459 0.342616 0
M  V30 1502 C 145.991 -0.522884 3.56284 0
M  V30 1503 C 145.844 0.74892 4.43521 0
M  V30 1504 C 147.163 -1.32461 4.19693 0
M  V30 1505 H 144.282 -0.0814343 0.732487 0
M  V30 1506 H 146.924 0.48713 1.83649 0
M  V30 1507 H 145.074 -1.1322 3.71636 0
M  V30 1508 H 146.746 1.38648 4.39971 0
M  V30 1509 H 144.989 1.36986 4.11603 0
M  V30 1510 H 145.66 0.497667 5.49752 0
M  V30 1511 H 148.136 -0.809203 4.08156 0
M  V30 1512 H 147.012 -1.49961 5.28018 0
M  V30 1513 H 147.273 -2.33232 3.75573 0
M  V30 1514 N 146.332 -1.57332 0.0918853 0
M  V30 1515 C 147.609 -1.85691 -0.614668 0
M  V30 1516 C 147.989 -0.988146 -1.86545 0
M  V30 1517 O 147.337 -0.0597055 -2.28422 0
M  V30 1518 C 147.547 -3.36294 -0.933126 0
M  V30 1519 C 148.895 -4.04275 -1.29796 0
M  V30 1520 O 149.919 -3.41157 -1.02424 0
M  V30 1521 O 148.778 -5.1564 -1.81047 0
M  V30 1522 H 145.872 -0.767802 -0.307261 0
M  V30 1523 H 148.418 -1.69244 0.12434 0
M  V30 1524 H 147.19 -3.91273 -0.0456404 0
M  V30 1525 H 146.813 -3.58076 -1.72822 0
M  V30 1526 N 147.81 0.181792 -1.56548 0
M  V30 1527 C 149.221 0.745244 -1.71181 0
M  V30 1528 C 149.572 1.83262 -0.70068 0
M  V30 1529 O 148.697 2.15946 0.140154 0
M  V30 1530 C 149.292 1.35859 -3.10367 0
M  V30 1531 C 147.851 1.86898 -3.2672 0
M  V30 1532 C 146.998 0.743942 -2.67134 0
M  V30 1533 H 149.949 -0.0434661 -1.5864 0
M  V30 1534 H 149.97 2.22817 -3.08436 0
M  V30 1535 H 149.482 0.566948 -3.83937 0
M  V30 1536 H 147.583 2.68738 -2.5809 0
M  V30 1537 H 147.696 2.02162 -4.34359 0
M  V30 1538 H 146.06 1.16169 -2.26665 0
M  V30 1539 H 146.843 -0.035676 -3.43281 0
M  V30 1540 N 149.288 1.51039 0.449983 0
M  V30 1541 C 150.198 1.74261 1.57067 0
M  V30 1542 C 151.214 0.626363 1.62335 0
M  V30 1543 O 152.39 0.907162 1.79812 0
M  V30 1544 C 149.455 1.85114 2.93144 0
M  V30 1545 C 148.516 3.0893 2.98095 0
M  V30 1546 C 147.749 3.19256 4.27681 0
M  V30 1547 O 147.972 2.35835 5.19363 0
M  V30 1548 O 146.906 4.12144 4.38658 0
M  V30 1549 H 150.732 2.69303 1.40391 0
M  V30 1550 H 148.317 1.35389 0.631688 0
M  V30 1551 H 150.199 1.94311 3.73926 0
M  V30 1552 H 148.874 0.932588 3.09975 0
M  V30 1553 H 147.781 3.0522 2.16314 0
M  V30 1554 H 149.114 4.00433 2.86206 0
M  V30 1555 N 150.766 -0.704594 1.40972 0
M  V30 1556 C 151.714 -1.83994 1.42299 0
M  V30 1557 C 152.708 -1.66684 0.302111 0
M  V30 1558 O 153.914 -1.73655 0.473697 0
M  V30 1559 H 150.289 -0.606171 0.44504 0
M  V30 1560 H 152.26 -1.79992 2.38003 0
M  V30 1561 C 151.009 -3.21946 1.31323 0
M  V30 1562 H 150.332 -3.35878 2.16855 0
M  V30 1563 H 151.772 -4.01491 1.36311 0
M  V30 1564 C 150.231 -3.36891 0.0245977 0
M  V30 1565 O 150.761 -3.90687 -0.934153 0
M  V30 1566 N 148.967 -2.90559 -0.0485243 0
M  V30 1567 H 148.514 -2.46968 0.732419 0
M  V30 1568 H 148.472 -3.00937 -0.910171 0
M  V30 1569 N 152.244 -1.26651 -0.937939 0
M  V30 1570 C 153.491 -1.12387 -1.6845 0
M  V30 1571 C 153.819 0.332208 -1.91642 0
M  V30 1572 O 153.074 1.2602 -1.49725 0
M  V30 1573 C 153.373 -1.84168 -3.06295 0
M  V30 1574 C 153.039 -3.34056 -3.02849 0
M  V30 1575 C 151.701 -3.74942 -3.01616 0
M  V30 1576 C 154.053 -4.29741 -2.9491 0
M  V30 1577 C 151.381 -5.09894 -2.90215 0
M  V30 1578 C 153.733 -5.64738 -2.8505 0
M  V30 1579 C 152.397 -6.0493 -2.82162 0
M  V30 1580 H 151.667 -0.411252 -0.616403 0
M  V30 1581 H 154.314 -1.57134 -1.09459 0
M  V30 1582 H 152.619 -1.319 -3.6893 0
M  V30 1583 H 154.316 -1.70569 -3.62915 0
M  V30 1584 H 150.906 -3.01534 -3.0459 0
M  V30 1585 H 155.09 -3.99133 -2.94969 0
M  V30 1586 H 150.346 -5.40194 -2.86358 0
M  V30 1587 H 154.52 -6.38561 -2.77872 0
M  V30 1588 H 152.147 -7.09457 -2.73084 0
M  V30 1589 N 153.722 1.14298 -1.08507 0
M  V30 1590 C 155.138 1.37347 -0.812901 0
M  V30 1591 C 155.338 1.93052 0.577325 0
M  V30 1592 O 154.394 2.14389 1.33393 0
M  V30 1593 C 155.707 2.33359 -1.89642 0
M  V30 1594 C 157.255 2.46996 -1.92255 0
M  V30 1595 C 157.73 3.46309 -2.99724 0
M  V30 1596 N 159.221 3.53853 -2.98902 0
M  V30 1597 C 159.956 4.3055 -3.787 0
M  V30 1598 N 159.452 5.10482 -4.6838 0
M  V30 1599 N 161.245 4.25757 -3.66998 0
M  V30 1600 H 153.396 0.764867 -1.9815 0
M  V30 1601 H 155.659 0.398966 -0.859959 0
M  V30 1602 H 155.365 1.99565 -2.89597 0
M  V30 1603 H 155.239 3.33274 -1.76659 0
M  V30 1604 H 157.626 2.80081 -0.929445 0
M  V30 1605 H 157.707 1.47039 -2.09316 0
M  V30 1606 H 157.351 3.13957 -3.99241 0
M  V30 1607 H 157.281 4.46049 -2.79907 0
M  V30 1608 H 159.772 2.96812 -2.33904 0
M  V30 1609 H 160.085 5.66284 -5.25873 0
M  V30 1610 H 158.43 5.09747 -4.72422 0
M  V30 1611 H 161.621 3.62383 -2.96304 0
M  V30 1612 H 161.794 4.85279 -4.29427 0
M  V30 1613 N 155.201 0.870884 1.31352 0
M  V30 1614 C 156.131 0.343096 2.30966 0
M  V30 1615 C 157.112 -0.566507 1.60389 0
M  V30 1616 O 158.297 -0.483336 1.88089 0
M  V30 1617 C 155.427 -0.455487 3.443 0
M  V30 1618 C 154.381 0.361103 4.26474 0
M  V30 1619 C 153.707 -0.563221 5.31725 0
M  V30 1620 C 155.007 1.59566 4.97329 0
M  V30 1621 H 156.701 1.17548 2.75359 0
M  V30 1622 H 154.247 0.566686 1.32381 0
M  V30 1623 H 156.2 -0.83525 4.13039 0
M  V30 1624 H 154.924 -1.32139 2.98675 0
M  V30 1625 H 153.583 0.722825 3.59403 0
M  V30 1626 H 153.231 -1.42643 4.82351 0
M  V30 1627 H 152.931 -0.0207409 5.87596 0
M  V30 1628 H 154.455 -0.939808 6.03324 0
M  V30 1629 H 155.869 1.28728 5.58661 0
M  V30 1630 H 154.266 2.07728 5.63 0
M  V30 1631 H 155.336 2.34798 4.24262 0
M  V30 1632 N 156.679 -1.44442 0.630414 0
M  V30 1633 C 157.609 -2.33418 -0.0618083 0
M  V30 1634 C 158.59 -1.48165 -0.835541 0
M  V30 1635 O 159.775 -1.76886 -0.801564 0
M  V30 1636 C 156.905 -3.31222 -1.04449 0
M  V30 1637 C 155.859 -4.26288 -0.382436 0
M  V30 1638 C 155.185 -5.13954 -1.47497 0
M  V30 1639 C 156.485 -5.1744 0.710865 0
M  V30 1640 H 158.179 -2.91548 0.681184 0
M  V30 1641 H 155.725 -1.40191 0.329026 0
M  V30 1642 H 157.678 -3.92351 -1.53748 0
M  V30 1643 H 156.402 -2.71299 -1.81836 0
M  V30 1644 H 155.061 -3.6649 0.0899054 0
M  V30 1645 H 154.709 -4.50385 -2.2397 0
M  V30 1646 H 154.409 -5.7837 -1.03737 0
M  V30 1647 H 155.933 -5.77955 -1.96979 0
M  V30 1648 H 157.347 -5.72509 0.300996 0
M  V30 1649 H 155.744 -5.90455 1.07156 0
M  V30 1650 H 156.814 -4.58496 1.57829 0
M  V30 1651 N 158.157 -0.370918 -1.53173 0
M  V30 1652 C 159.405 0.216673 -2.00935 0
M  V30 1653 C 159.726 1.48845 -1.25977 0
M  V30 1654 O 158.996 1.92286 -0.374551 0
M  V30 1655 H 157.576 0.0830565 -0.742368 0
M  V30 1656 H 160.238 -0.49838 -1.8842 0
M  V30 1657 H 159.334 0.439893 -3.08984 0
M  V30 1658 N 159.635 1.57281 -0.100228 0
M  V30 1659 C 160.583 2.15542 0.874328 0
M  V30 1660 C 161.577 1.09962 1.28859 0
M  V30 1661 O 162.783 1.28298 1.26252 0
M  V30 1662 H 159.158 0.689567 0.300003 0
M  V30 1663 H 161.129 2.96241 0.35829 0
M  V30 1664 C 159.878 2.75454 2.1218 0
M  V30 1665 H 159.201 3.56384 1.81193 0
M  V30 1666 H 160.641 3.19781 2.78417 0
M  V30 1667 C 159.1 1.71602 2.89921 0
M  V30 1668 O 159.63 1.15804 3.84646 0
M  V30 1669 N 157.836 1.41975 2.53558 0
M  V30 1670 H 157.383 1.87539 1.76598 0
M  V30 1671 H 157.341 0.727274 3.05873 0
M  V30 1672 N 161.113 -0.173488 1.56642 0
M  V30 1673 C 162.359 -0.891784 1.8214 0
M  V30 1674 C 162.692 -1.8199 0.677736 0
M  V30 1675 O 161.967 -1.91842 -0.320446 0
M  V30 1676 C 162.25 -1.68933 3.18015 0
M  V30 1677 C 162.103 -0.784487 4.42906 0
M  V30 1678 C 163.422 -2.65748 3.50808 0
M  V30 1679 H 160.541 -0.322761 0.662567 0
M  V30 1680 H 163.183 -0.158095 1.89341 0
M  V30 1681 H 161.333 -2.31482 3.12007 0
M  V30 1682 H 163.005 -0.172046 4.60979 0
M  V30 1683 H 161.248 -0.0924117 4.33702 0
M  V30 1684 H 161.919 -1.37799 5.34524 0
M  V30 1685 H 164.395 -2.13327 3.57255 0
M  V30 1686 H 163.271 -3.18619 4.4696 0
M  V30 1687 H 163.532 -3.45842 2.75401 0
M  V30 1688 N 162.591 -1.51276 -0.441967 0
M  V30 1689 C 163.521 -1.752 -1.54361 0
M  V30 1690 C 164.502 -0.601682 -1.59103 0
M  V30 1691 O 165.687 -0.843913 -1.74905 0
M  V30 1692 C 162.817 -1.87282 -2.92477 0
M  V30 1693 C 161.771 -3.02687 -3.02596 0
M  V30 1694 C 161.097 -2.99947 -4.42647 0
M  V30 1695 C 162.397 -4.4273 -2.77106 0
M  V30 1696 H 164.091 -2.67442 -1.34592 0
M  V30 1697 H 161.637 -1.28694 -0.646048 0
M  V30 1698 H 163.59 -2.02602 -3.695 0
M  V30 1699 H 162.314 -0.916844 -3.13467 0
M  V30 1700 H 160.973 -2.87065 -2.28012 0
M  V30 1701 H 160.621 -2.02136 -4.60597 0
M  V30 1702 H 160.321 -3.77439 -4.50348 0
M  V30 1703 H 161.845 -3.17354 -5.2165 0
M  V30 1704 H 163.259 -4.58727 -3.43864 0
M  V30 1705 H 161.656 -5.21893 -2.96222 0
M  V30 1706 H 162.726 -4.53087 -1.72744 0
M  V30 1707 N 164.069 0.697108 -1.41344 0
M  V30 1708 C 165.315 1.4593 -1.40827 0
M  V30 1709 C 165.648 1.94193 -0.0167098 0
M  V30 1710 O 164.923 1.69425 0.955263 0
M  V30 1711 C 165.206 2.67229 -2.41373 0
M  V30 1712 C 165.059 2.24741 -3.8963 0
M  V30 1713 C 166.378 3.69423 -2.39196 0
M  V30 1714 H 163.497 0.529303 -0.512842 0
M  V30 1715 H 166.139 0.794112 -1.72609 0
M  V30 1716 H 164.289 3.23982 -2.14401 0
M  V30 1717 H 165.961 1.73327 -4.27499 0
M  V30 1718 H 164.204 1.56542 -4.0457 0
M  V30 1719 H 164.875 3.1177 -4.55525 0
M  V30 1720 H 167.351 3.2234 -2.63128 0
M  V30 1721 H 166.227 4.51907 -3.11563 0
M  V30 1722 H 166.488 4.19012 -1.41001 0
M  V30 1723 N 165.547 1.27147 0.931209 0
M  V30 1724 C 166.787 1.14511 1.69312 0
M  V30 1725 C 167.151 -0.304638 1.89568 0
M  V30 1726 O 168.352 -0.553343 2.63043 0
M  V30 1727 C 166.623 1.90349 3.02493 0
M  V30 1728 S 168.182 1.93884 3.93642 0
M  V30 1729 H 165 0.408858 0.581684 0
M  V30 1730 H 167.602 1.61006 1.10893 0
M  V30 1731 H 166.306 2.94877 2.85439 0
M  V30 1732 H 165.837 1.44333 3.65966 0
M  V30 1733 H 167.852 1.03273 4.85334 0
M  V30 1734 N 167.025 -1.13721 1.09112 0
M  V30 1735 C 168.271 -1.85198 0.826414 0
M  V30 1736 C 168.604 -1.83129 -0.646319 0
M  V30 1737 O 167.879 -1.2671 -1.47563 0
M  V30 1738 C 168.162 -3.33507 1.35812 0
M  V30 1739 C 168.015 -3.44108 2.89672 0
M  V30 1740 C 169.334 -4.28838 0.989256 0
M  V30 1741 H 166.453 -0.67243 0.301675 0
M  V30 1742 H 169.095 -1.33499 1.35197 0
M  V30 1743 H 167.245 -3.77666 0.911082 0
M  V30 1744 H 168.917 -3.08684 3.428 0
M  V30 1745 H 167.16 -2.85087 3.26967 0
M  V30 1746 H 167.831 -4.48388 3.21951 0
M  V30 1747 H 170.307 -3.92734 1.37475 0
M  V30 1748 H 169.183 -5.31051 1.38838 0
M  V30 1749 H 169.444 -4.4198 -0.102924 0
M  V30 1750 N 168.503 -0.877838 -1.30888 0
M  V30 1751 C 169.433 -0.35534 -2.3078 0
M  V30 1752 C 170.414 0.557994 -1.60687 0
M  V30 1753 O 171.599 0.473355 -1.88343 0
M  V30 1754 C 168.729 0.437221 -3.44537 0
M  V30 1755 C 167.683 -0.383715 -4.26276 0
M  V30 1756 C 167.009 0.535014 -5.32017 0
M  V30 1757 C 168.309 -1.62201 -4.96476 0
M  V30 1758 H 170.003 -1.19007 -2.74732 0
M  V30 1759 H 167.549 -0.573698 -1.32078 0
M  V30 1760 H 169.502 0.813334 -4.13477 0
M  V30 1761 H 168.226 1.30553 -2.99372 0
M  V30 1762 H 166.885 -0.741874 -3.59015 0
M  V30 1763 H 166.533 1.40083 -4.831 0
M  V30 1764 H 166.233 -0.0104211 -5.87599 0
M  V30 1765 H 167.757 0.907799 -6.03814 0
M  V30 1766 H 169.171 -1.31689 -5.5797 0
M  V30 1767 H 167.568 -2.10711 -5.61891 0
M  V30 1768 H 168.638 -2.37044 -4.23011 0
M  V30 1769 N 169.982 1.44106 -0.638065 0
M  V30 1770 C 170.945 2.29138 0.0531013 0
M  V30 1771 C 171.945 1.41409 0.765506 0
M  V30 1772 O 173.135 1.63206 0.609046 0
M  V30 1773 C 170.267 3.23144 1.08584 0
M  V30 1774 H 171.46 2.91739 -0.694883 0
M  V30 1775 H 169.013 1.51134 -0.398538 0
M  V30 1776 H 169.748 2.65408 1.86357 0
M  V30 1777 H 169.533 3.87804 0.578852 0
M  V30 1778 H 171.023 3.87004 1.56899 0
M  V30 1779 N 171.46 0.379036 1.52974 0
M  V30 1780 C 172.41 -0.477772 2.22938 0
M  V30 1781 C 173.394 -1.03792 1.22948 0
M  V30 1782 O 174.586 -0.965725 1.48333 0
M  V30 1783 C 171.715 -1.60994 3.03209 0
M  V30 1784 C 170.801 -1.06203 4.10587 0
M  V30 1785 N 171.192 -0.238214 5.05239 0
M  V30 1786 C 169.49 -1.33554 4.25534 0
M  V30 1787 C 170.191 0.0633235 5.81666 0
M  V30 1788 N 169.167 -0.537901 5.40932 0
M  V30 1789 H 172.969 0.158295 2.93473 0
M  V30 1790 H 170.483 0.187778 1.61311 0
M  V30 1791 H 172.48 -2.23607 3.5186 0
M  V30 1792 H 171.14 -2.24893 2.34207 0
M  V30 1793 H 172.151 0.123695 5.17752 0
M  V30 1794 H 168.828 -1.97632 3.6776 0
M  V30 1795 H 170.218 0.730161 6.67921 0
M  V30 1796 N 172.938 -1.57226 0.108567 0
M  V30 1797 C 173.888 -2.11305 -0.856396 0
M  V30 1798 C 174.872 -1.03129 -1.23504 0
M  V30 1799 O 176.064 -1.29381 -1.20787 0
M  V30 1800 C 173.193 -2.70771 -2.11041 0
M  V30 1801 C 172.279 -3.86011 -1.7566 0
M  V30 1802 N 172.67 -4.93492 -1.10902 0
M  V30 1803 C 170.968 -3.95999 -2.05185 0
M  V30 1804 C 171.669 -5.73984 -0.944308 0
M  V30 1805 N 170.645 -5.2346 -1.46596 0
M  V30 1806 H 174.447 -2.91784 -0.352002 0
M  V30 1807 H 171.961 -1.62126 -0.0942324 0
M  V30 1808 H 173.958 -3.07851 -2.81128 0
M  V30 1809 H 172.618 -1.91751 -2.62034 0
M  V30 1810 H 173.629 -5.1208 -0.774235 0
M  V30 1811 H 170.306 -3.28007 -2.58298 0
M  V30 1812 H 171.696 -6.70479 -0.436813 0
M  V30 1813 N 174.416 0.165178 -1.56732 0
M  V30 1814 C 175.663 0.880807 -1.8234 0
M  V30 1815 C 175.991 1.81977 -0.686621 0
M  V30 1816 O 175.246 1.92971 0.325697 0
M  V30 1817 C 175.545 1.70405 -3.1416 0
M  V30 1818 C 175.211 0.913475 -4.4155 0
M  V30 1819 C 173.873 0.695303 -4.7615 0
M  V30 1820 C 176.225 0.359349 -5.1996 0
M  V30 1821 C 173.553 -0.0879947 -5.86634 0
M  V30 1822 C 175.905 -0.410893 -6.31264 0
M  V30 1823 C 174.569 -0.639808 -6.64427 0
M  V30 1824 H 173.839 0.32231 -0.667231 0
M  V30 1825 H 176.486 0.145402 -1.90947 0
M  V30 1826 H 174.791 2.50903 -3.00923 0
M  V30 1827 H 176.488 2.26091 -3.31186 0
M  V30 1828 H 173.078 1.09357 -4.14414 0
M  V30 1829 H 177.262 0.515228 -4.93618 0
M  V30 1830 H 172.518 -0.27503 -6.10781 0
M  V30 1831 H 176.692 -0.847494 -6.91224 0
M  V30 1832 H 174.319 -1.24864 -7.49875 0
M  V30 1833 N 175.894 1.51508 0.433938 0
M  V30 1834 C 177.142 1.6402 1.18075 0
M  V30 1835 C 177.463 0.360328 1.91642 0
M  V30 1836 O 176.733 -0.623945 1.85698 0
M  V30 1837 H 175.313 0.6045 0.43885 0
M  V30 1838 H 177.975 1.88452 0.497178 0
M  V30 1839 H 177.071 2.46949 1.90847 0
M  V30 1840 N 177.372 -0.689602 1.41712 0
M  V30 1841 C 178.319 -1.80345 1.44029 0
M  V30 1842 C 179.289 -1.63478 0.293948 0
M  V30 1843 O 180.474 -1.84244 0.495869 0
M  V30 1844 C 177.614 -3.18272 1.33405 0
M  V30 1845 C 176.727 -3.46529 2.57956 0
M  V30 1846 C 175.862 -4.74103 2.39582 0
M  V30 1847 C 174.901 -4.95347 3.5958 0
M  V30 1848 N 174.038 -6.14151 3.40239 0
M  V30 1849 H 178.878 -1.77698 2.39222 0
M  V30 1850 H 176.415 -0.867688 1.18784 0
M  V30 1851 H 178.373 -3.97956 1.25246 0
M  V30 1852 H 177.003 -3.2008 0.418164 0
M  V30 1853 H 176.055 -2.61207 2.76542 0
M  V30 1854 H 177.367 -3.58126 3.47199 0
M  V30 1855 H 176.521 -5.61853 2.28924 0
M  V30 1856 H 175.26 -4.64763 1.47805 0
M  V30 1857 H 174.265 -4.06044 3.70686 0
M  V30 1858 H 175.49 -5.06542 4.52318 0
M  V30 1859 H 173.436 -6.06013 2.51167 0
M  V30 1860 H 173.353 -6.26543 4.23061 0
M  V30 1861 H 174.621 -7.04619 3.33365 0
M  V30 1862 N 178.85 -1.27639 -0.924453 0
M  V30 1863 C 179.76 -1.12466 -2.05885 0
M  V30 1864 C 180.776 -0.053869 -1.73917 0
M  V30 1865 O 181.952 -0.261012 -1.99702 0
M  V30 1866 C 179.017 -0.776768 -3.37886 0
M  V30 1867 C 178.078 -1.92878 -3.83532 0
M  V30 1868 C 177.311 -1.59739 -5.09234 0
M  V30 1869 O 177.534 -0.506782 -5.68144 0
M  V30 1870 O 176.468 -2.43761 -5.50331 0
M  V30 1871 H 180.294 -2.07671 -2.21599 0
M  V30 1872 H 177.879 -1.06857 -1.04413 0
M  V30 1873 H 179.761 -0.596229 -4.17161 0
M  V30 1874 H 178.436 0.145732 -3.23372 0
M  V30 1875 H 177.343 -2.1644 -3.0513 0
M  V30 1876 H 178.676 -2.8316 -4.02593 0
M  V30 1877 N 180.328 1.1314 -1.09713 0
M  V30 1878 C 181.575 1.84484 -0.834987 0
M  V30 1879 C 181.903 1.83689 0.639418 0
M  V30 1880 O 181.158 1.2724 1.4869 0
M  V30 1881 C 181.457 3.32167 -1.3191 0
M  V30 1882 C 181.123 3.53139 -2.80363 0
M  V30 1883 C 179.785 3.58571 -3.20905 0
M  V30 1884 C 182.137 3.60866 -3.76065 0
M  V30 1885 C 179.465 3.69267 -4.55916 0
M  V30 1886 C 181.817 3.73089 -5.10869 0
M  V30 1887 C 180.481 3.76775 -5.50996 0
M  V30 1888 H 179.751 0.675073 -0.305544 0
M  V30 1889 H 182.398 1.33554 -1.37243 0
M  V30 1890 H 180.703 3.85469 -0.701517 0
M  V30 1891 H 182.4 3.85821 -1.09284 0
M  V30 1892 H 178.99 3.49569 -2.47991 0
M  V30 1893 H 183.174 3.55946 -3.45855 0
M  V30 1894 H 178.43 3.70388 -4.86438 0
M  V30 1895 H 182.604 3.78011 -5.84877 0
M  V30 1896 H 180.231 3.84815 -6.55608 0
M  V30 1897 N 181.806 0.884767 1.30421 0
M  V30 1898 C 183.034 0.518044 2.0031 0
M  V30 1899 C 183.449 -0.893408 1.66324 0
M  V30 1900 O 182.806 -1.5875 0.900262 0
M  V30 1901 C 182.857 0.682997 3.54989 0
M  V30 1902 O 182.578 2.03888 3.87764 0
M  V30 1903 C 184.079 0.31924 4.42149 0
M  V30 1904 H 181.299 0.200265 0.640418 0
M  V30 1905 H 183.843 1.19001 1.6631 0
M  V30 1906 H 181.998 0.0584052 3.87356 0
M  V30 1907 H 182.412 2.05735 4.82466 0
M  V30 1908 H 183.886 0.485555 5.4986 0
M  V30 1909 H 184.363 -0.742717 4.32875 0
M  V30 1910 H 184.969 0.920147 4.15227 0
M  V30 1911 N 183.284 -1.43765 0.645699 0
M  V30 1912 C 184.695 -1.85193 0.236719 0
M  V30 1913 C 185.046 -1.54045 -1.21509 0
M  V30 1914 O 184.171 -0.985694 -1.92647 0
M  V30 1915 C 184.766 -3.36151 0.422845 0
M  V30 1916 C 183.325 -3.76338 0.0682492 0
M  V30 1917 C 182.472 -2.67538 0.729306 0
M  V30 1918 H 185.423 -1.34025 0.849883 0
M  V30 1919 H 185.444 -3.79032 -0.333904 0
M  V30 1920 H 184.956 -3.5879 1.47958 0
M  V30 1921 H 183.057 -3.59312 -0.986179 0
M  V30 1922 H 183.17 -4.76603 0.488469 0
M  V30 1923 H 181.534 -2.54176 0.163235 0
M  V30 1924 H 182.317 -2.93006 1.78892 0
M  V30 1925 N 184.763 -0.387143 -1.52771 0
M  V30 1926 C 186.174 0.0873634 -1.86495 0
M  V30 1927 C 186.525 1.46336 -1.30691 0
M  V30 1928 O 185.65 2.068 -0.637409 0
M  V30 1929 C 186.245 0.165305 -3.38396 0
M  V30 1930 C 184.804 0.584101 -3.7184 0
M  V30 1931 C 183.951 -0.255279 -2.76122 0
M  V30 1932 H 186.902 -0.605104 -1.46711 0
M  V30 1933 H 186.923 0.984848 -3.67534 0
M  V30 1934 H 186.435 -0.836301 -3.78982 0
M  V30 1935 H 184.536 1.59315 -3.36823 0
M  V30 1936 H 184.649 0.343749 -4.77865 0
M  V30 1937 H 183.013 0.279126 -2.53166 0
M  V30 1938 H 183.796 -1.25482 -3.19545 0
M  V30 1939 N 186.241 1.57166 -0.116904 0
M  V30 1940 C 187.487 1.95412 0.542405 0
M  V30 1941 C 187.82 1.00019 1.66463 0
M  V30 1942 O 187.095 0.0370346 1.94465 0
M  V30 1943 C 187.378 3.43615 1.07708 0
M  V30 1944 C 187.231 4.49781 -0.0415868 0
M  V30 1945 C 188.55 3.93616 1.96861 0
M  V30 1946 H 185.669 0.710543 0.195696 0
M  V30 1947 H 188.311 1.89027 -0.192038 0
M  V30 1948 H 186.461 3.49187 1.70296 0
M  V30 1949 H 188.133 4.56308 -0.676793 0
M  V30 1950 H 186.376 4.28033 -0.705019 0
M  V30 1951 H 187.047 5.50733 0.373717 0
M  V30 1952 H 189.523 3.90335 1.44146 0
M  V30 1953 H 188.399 4.97838 2.3119 0
M  V30 1954 H 188.66 3.34188 2.89432 0
M  V30 1955 N 187.719 -0.156864 1.56817 0
M  V30 1956 C 188.651 -1.21883 1.94106 0
M  V30 1957 C 189.664 -1.3971 0.835754 0
M  V30 1958 O 190.853 -1.39457 1.11418 0
M  V30 1959 C 187.953 -2.58527 2.19127 0
M  V30 1960 C 187.126 -2.61809 3.50393 0
M  V30 1961 C 186.185 -3.7992 3.64071 0
M  V30 1962 O 185.211 -3.65249 4.36557 0
M  V30 1963 N 186.413 -4.96973 2.99997 0
M  V30 1964 H 189.178 -0.901974 2.85805 0
M  V30 1965 H 186.739 -0.346513 1.58148 0
M  V30 1966 H 188.731 -3.36034 2.25529 0
M  V30 1967 H 187.301 -2.82545 1.33742 0
M  V30 1968 H 186.521 -1.7029 3.5552 0
M  V30 1969 H 187.809 -2.61024 4.36742 0
M  V30 1970 H 187.207 -5.11794 2.41004 0
M  V30 1971 H 185.764 -5.7229 3.11974 0
M  V30 1972 N 189.197 -1.51736 -0.425897 0
M  V30 1973 C 190.16 -1.73271 -1.50032 0
M  V30 1974 C 191.16 -0.602639 -1.4908 0
M  V30 1975 O 192.35 -0.87033 -1.509 0
M  V30 1976 C 189.482 -1.79969 -2.89523 0
M  V30 1977 H 190.675 -2.69172 -1.32237 0
M  V30 1978 H 188.228 -1.41899 -0.65532 0
M  V30 1979 H 188.963 -0.859241 -3.1271 0
M  V30 1980 H 188.748 -2.62109 -2.91619 0
M  V30 1981 H 190.238 -1.9843 -3.67444 0
M  V30 1982 N 190.675 0.682077 -1.42076 0
M  V30 1983 C 191.638 1.77756 -1.44691 0
M  V30 1984 C 192.638 1.5726 -0.335535 0
M  V30 1985 O 193.828 1.63686 -0.596037 0
M  V30 1986 C 190.96 3.16301 -1.27146 0
M  V30 1987 H 192.153 1.76826 -2.42224 0
M  V30 1988 H 189.706 0.891012 -1.28416 0
M  V30 1989 H 190.441 3.22862 -0.305075 0
M  V30 1990 H 190.226 3.32581 -2.07683 0
M  V30 1991 H 191.716 3.96241 -1.31843 0
M  V30 1992 N 192.153 1.28127 0.917671 0
M  V30 1993 C 193.383 1.17722 1.6978 0
M  V30 1994 C 193.791 -0.267261 1.87303 0
M  V30 1995 O 193.134 -1.19286 1.39702 0
M  V30 1996 C 193.196 1.79958 3.11216 0
M  V30 1997 C 192.86 3.29187 3.16993 0
M  V30 1998 C 193.857 4.25679 2.98485 0
M  V30 1999 C 191.542 3.70075 3.39632 0
M  V30 2000 C 193.536 5.61035 3.02521 0
M  V30 2001 C 191.223 5.05557 3.433 0
M  V30 2002 C 192.221 6.00847 3.24764 0
M  V30 2003 O 191.909 7.33859 3.28187 0
M  V30 2004 H 191.641 0.409788 0.537634 0
M  V30 2005 H 194.195 1.69694 1.15728 0
M  V30 2006 H 192.425 1.22475 3.66793 0
M  V30 2007 H 194.114 1.64125 3.71238 0
M  V30 2008 H 194.88 3.95426 2.80826 0
M  V30 2009 H 190.759 2.96373 3.53106 0
M  V30 2010 H 194.303 6.35388 2.87971 0
M  V30 2011 H 190.2 5.35462 3.60486 0
M  V30 2012 H 190.968 7.42436 3.44575 0
M  V30 2013 N 193.631 -1.12557 1.10312 0
M  V30 2014 C 194.563 -2.17971 0.708625 0
M  V30 2015 C 195.576 -1.60806 -0.254027 0
M  V30 2016 O 196.765 -1.78458 -0.0386891 0
M  V30 2017 C 193.865 -3.38891 0.0248198 0
M  V30 2018 C 193.038 -4.25548 1.01132 0
M  V30 2019 C 192.097 -5.24972 0.35924 0
M  V30 2020 O 191.123 -5.60174 1.00965 0
M  V30 2021 N 192.325 -5.73747 -0.882847 0
M  V30 2022 H 195.09 -2.52427 1.61557 0
M  V30 2023 H 192.651 -1.27967 0.991771 0
M  V30 2024 H 194.643 -4.02485 -0.422852 0
M  V30 2025 H 193.213 -3.02596 -0.784514 0
M  V30 2026 H 192.433 -3.58589 1.6373 0
M  V30 2027 H 193.721 -4.80294 1.67914 0
M  V30 2028 H 193.119 -5.4731 -1.43065 0
M  V30 2029 H 191.676 -6.39234 -1.27369 0
M  V30 2030 N 195.109 -0.891671 -1.2995 0
M  V30 2031 C 196.056 -0.361736 -2.27948 0
M  V30 2032 C 197.026 0.551761 -1.56668 0
M  V30 2033 O 198.211 0.478736 -1.84696 0
M  V30 2034 C 195.351 0.411825 -3.42634 0
M  V30 2035 C 194.464 -0.531651 -4.28716 0
M  V30 2036 C 193.599 0.258167 -5.30572 0
M  V30 2037 C 192.638 -0.680349 -6.08307 0
M  V30 2038 N 191.775 0.0745613 -7.0206 0
M  V30 2039 H 196.615 -1.20254 -2.72659 0
M  V30 2040 H 194.152 -0.604352 -1.34112 0
M  V30 2041 H 196.11 0.876304 -4.07893 0
M  V30 2042 H 194.74 1.21715 -2.98974 0
M  V30 2043 H 193.792 -1.11463 -3.63703 0
M  V30 2044 H 195.104 -1.25038 -4.82874 0
M  V30 2045 H 194.258 0.784204 -6.0161 0
M  V30 2046 H 192.997 1.01008 -4.77126 0
M  V30 2047 H 192.002 -1.21796 -5.3614 0
M  V30 2048 H 193.227 -1.43145 -6.63842 0
M  V30 2049 H 191.173 0.808883 -6.50994 0
M  V30 2050 H 191.09 -0.584409 -7.53738 0
M  V30 2051 H 192.358 0.581123 -7.77331 0
M  V30 2052 N 196.587 1.43421 -0.653314 0
M  V30 2053 C 197.833 2.02111 -0.166992 0
M  V30 2054 C 198.166 1.51423 1.21592 0
M  V30 2055 O 197.441 0.707389 1.8118 0
M  V30 2056 C 197.724 3.5966 -0.177948 0
M  V30 2057 C 197.577 4.20579 -1.59478 0
M  V30 2058 C 198.896 4.37413 0.4856 0
M  V30 2059 H 196.015 0.734374 -0.0621557 0
M  V30 2060 H 198.657 1.70717 -0.834016 0
M  V30 2061 H 196.807 3.86537 0.390032 0
M  V30 2062 H 198.479 4.04732 -2.21336 0
M  V30 2063 H 196.722 3.77226 -2.14204 0
M  V30 2064 H 197.393 5.29665 -1.5543 0
M  V30 2065 H 199.869 4.161 0.00234528 0
M  V30 2066 H 198.745 5.47075 0.447207 0
M  V30 2067 H 199.006 4.13672 1.55974 0
M  V30 2068 N 198.065 0.39524 1.52563 0
M  V30 2069 C 199.311 -0.185318 2.01952 0
M  V30 2070 C 199.644 -1.45964 1.28095 0
M  V30 2071 O 198.919 -1.90689 0.38315 0
M  V30 2072 C 199.202 -0.447193 3.57312 0
M  V30 2073 C 199.055 0.842828 4.41833 0
M  V30 2074 C 200.374 -1.23529 4.22408 0
M  V30 2075 H 197.493 -0.0658788 0.73405 0
M  V30 2076 H 200.135 0.525975 1.82575 0
M  V30 2077 H 198.285 -1.05312 3.73954 0
M  V30 2078 H 199.957 1.4795 4.36931 0
M  V30 2079 H 198.2 1.45686 4.08605 0
M  V30 2080 H 198.871 0.614165 5.48573 0
M  V30 2081 H 201.347 -0.722445 4.0978 0
M  V30 2082 H 200.223 -1.38727 5.3108 0
M  V30 2083 H 200.484 -2.25213 3.80436 0
M  V30 2084 N 199.544 -1.57102 0.125237 0
M  V30 2085 C 200.507 -2.14471 -0.80838 0
M  V30 2086 C 201.507 -1.0811 -1.19033 0
M  V30 2087 O 202.697 -1.33856 -1.11482 0
M  V30 2088 C 199.829 -2.69005 -2.09402 0
M  V30 2089 H 201.022 -2.98297 -0.309696 0
M  V30 2090 H 198.575 -1.55807 -0.124051 0
M  V30 2091 H 199.31 -1.88785 -2.63687 0
M  V30 2092 H 199.095 -3.46799 -1.82957 0
M  V30 2093 H 200.585 -3.13278 -2.76128 0
M  V30 2094 N 201.022 0.148545 -1.56898 0
M  V30 2095 C 202.27 0.859717 -1.82902 0
M  V30 2096 C 202.591 1.81775 -0.70588 0
M  V30 2097 O 201.861 1.93994 0.272586 0
M  V30 2098 H 200.441 0.320469 -0.674766 0
M  V30 2099 H 203.103 0.142918 -1.94375 0
M  V30 2100 H 202.199 1.4229 -2.77777 0
M  V30 2101 N 202.5 1.5196 0.417844 0
M  V30 2102 C 203.746 1.65836 1.16732 0
M  V30 2103 C 204.079 0.382881 1.90388 0
M  V30 2104 O 203.354 -0.618368 1.84408 0
M  V30 2105 C 203.637 2.87466 2.16876 0
M  V30 2106 C 203.49 4.25041 1.47174 0
M  V30 2107 C 204.809 3.04613 3.17646 0
M  V30 2108 H 201.928 0.603515 0.423011 0
M  V30 2109 H 204.57 1.84494 0.454105 0
M  V30 2110 H 202.72 2.71689 2.777 0
M  V30 2111 H 204.392 4.52527 0.895376 0
M  V30 2112 H 202.635 4.26843 0.773806 0
M  V30 2113 H 203.306 5.06176 2.20204 0
M  V30 2114 H 205.782 3.1923 2.66892 0
M  V30 2115 H 204.658 3.91247 3.8499 0
M  V30 2116 H 204.919 2.17541 3.84874 0
M  V30 2117 N 203.978 -0.674533 1.42435 0
M  V30 2118 C 204.941 -1.76986 1.45632 0
M  V30 2119 C 205.941 -1.5708 0.343871 0
M  V30 2120 O 207.131 -1.63367 0.604709 0
M  V30 2121 C 204.263 -3.15623 1.28822 0
M  V30 2122 H 205.456 -1.75539 2.43158 0
M  V30 2123 H 203.009 -0.884189 1.28887 0
M  V30 2124 H 203.744 -3.22696 0.322193 0
M  V30 2125 H 203.529 -3.31475 2.09444 0
M  V30 2126 H 205.019 -3.95537 1.33942 0
M  V30 2127 N 205.456 -1.28612 -0.910864 0
M  V30 2128 C 206.404 -1.1265 -2.03501 0
M  V30 2129 C 207.398 -0.0450054 -1.6934 0
M  V30 2130 O 208.604 -0.203988 -1.7884 0
M  V30 2131 H 204.979 -0.347639 -0.666822 0
M  V30 2132 H 206.95 -2.07849 -2.14106 0
M  V30 2133 C 205.699 -0.808143 -3.38178 0
M  V30 2134 H 205.022 -1.63231 -3.6496 0
M  V30 2135 H 206.462 -0.736426 -4.17556 0
M  V30 2136 C 204.921 0.488226 -3.33344 0
M  V30 2137 O 205.451 1.51766 -3.71927 0
M  V30 2138 N 203.657 0.490009 -2.86439 0
M  V30 2139 H 203.204 -0.348161 -2.55236 0
M  V30 2140 H 203.162 1.35741 -2.83587 0
M  V30 2141 N 206.934 1.1197 -1.10907 0
M  V30 2142 C 207.897 2.16031 -0.765707 0
M  V30 2143 C 208.897 1.59393 0.212235 0
M  V30 2144 O 210.087 1.74196 -0.0115441 0
M  V30 2145 C 207.219 3.40632 -0.135053 0
M  V30 2146 H 208.412 2.47919 -1.68748 0
M  V30 2147 H 205.965 1.27061 -0.910226 0
M  V30 2148 H 206.7 3.14348 0.797218 0
M  V30 2149 H 206.485 3.8302 -0.838937 0
M  V30 2150 H 207.975 4.17505 0.0892469 0
M  V30 2151 N 208.412 0.89855 1.29475 0
M  V30 2152 C 209.342 0.39201 2.30186 0
M  V30 2153 C 210.323 -0.532359 1.61555 0
M  V30 2154 O 211.508 -0.443331 1.89072 0
M  V30 2155 C 208.638 -0.382353 3.45189 0
M  V30 2156 C 207.592 0.451483 4.25612 0
M  V30 2157 C 206.918 -0.450307 5.328 0
M  V30 2158 C 208.218 1.70079 4.93832 0
M  V30 2159 H 209.912 1.23362 2.72804 0
M  V30 2160 H 207.458 0.594638 1.31149 0
M  V30 2161 H 209.411 -0.747451 4.14718 0
M  V30 2162 H 208.135 -1.25774 3.01411 0
M  V30 2163 H 206.794 0.798897 3.57789 0
M  V30 2164 H 206.442 -1.32379 4.85268 0
M  V30 2165 H 206.142 0.103902 5.87508 0
M  V30 2166 H 207.666 -0.811623 6.05182 0
M  V30 2167 H 209.08 1.40549 5.55805 0
M  V30 2168 H 207.477 2.19623 5.58467 0
M  V30 2169 H 208.547 2.43744 4.19186 0
M  V30 2170 N 209.89 -1.43072 0.660911 0
M  V30 2171 C 210.853 -2.29194 -0.0166406 0
M  V30 2172 C 211.853 -1.42609 -0.742912 0
M  V30 2173 O 213.043 -1.64155 -0.583004 0
M  V30 2174 C 210.175 -3.24831 -1.0343 0
M  V30 2175 H 211.368 -2.90596 0.741208 0
M  V30 2176 H 208.921 -1.5048 0.422532 0
M  V30 2177 H 209.656 -2.68339 -1.82111 0
M  V30 2178 H 209.441 -3.88676 -0.517082 0
M  V30 2179 H 210.931 -3.89451 -1.50723 0
M  V30 2180 N 211.368 -0.403325 -1.52352 0
M  V30 2181 C 212.318 0.442244 -2.2367 0
M  V30 2182 C 213.302 1.01823 -1.24583 0
M  V30 2183 O 214.494 0.942005 -1.49851 0
M  V30 2184 C 211.623 1.5615 -3.05732 0
M  V30 2185 C 210.709 0.996575 -4.12225 0
M  V30 2186 N 211.1 0.157804 -5.05554 0
M  V30 2187 C 209.398 1.26767 -4.27605 0
M  V30 2188 C 210.099 -0.155853 -5.81491 0
M  V30 2189 N 209.075 0.451775 -5.41719 0
M  V30 2190 H 212.877 -0.204964 -2.93184 0
M  V30 2191 H 210.391 -0.213418 -1.60992 0
M  V30 2192 H 212.388 2.17981 -3.55373 0
M  V30 2193 H 211.048 2.21139 -2.37755 0
M  V30 2194 H 212.059 -0.206049 -5.1749 0
M  V30 2195 H 208.736 1.91757 -3.70858 0
M  V30 2196 H 210.126 -0.836329 -6.66675 0
M  V30 2197 N 212.846 1.57033 -0.133567 0
M  V30 2198 C 213.793 2.16074 0.811208 0
M  V30 2199 C 214.763 1.08979 1.2535 0
M  V30 2200 O 215.948 1.36958 1.32843 0
M  V30 2201 C 213.088 2.77595 2.05024 0
M  V30 2202 C 212.201 3.99042 1.65498 0
M  V30 2203 C 211.336 4.48603 2.84479 0
M  V30 2204 C 210.375 5.62547 2.41262 0
M  V30 2205 N 209.512 6.06787 3.53206 0
M  V30 2206 H 214.352 2.96477 0.300906 0
M  V30 2207 H 211.889 1.46462 0.136822 0
M  V30 2208 H 213.847 3.11402 2.77642 0
M  V30 2209 H 212.477 1.99859 2.53488 0
M  V30 2210 H 211.529 3.71302 0.826981 0
M  V30 2211 H 212.841 4.81629 1.29748 0
M  V30 2212 H 211.995 4.84395 3.65303 0
M  V30 2213 H 210.734 3.64995 3.23465 0
M  V30 2214 H 209.739 5.26345 1.58874 0
M  V30 2215 H 210.964 6.47931 2.03377 0
M  V30 2216 H 208.91 5.26117 3.91838 0
M  V30 2217 H 208.827 6.84266 3.21427 0
M  V30 2218 H 210.095 6.4722 4.34427 0
M  V30 2219 N 214.325 -0.140222 1.56975 0
M  V30 2220 C 215.555 -0.865181 1.87612 0
M  V30 2221 C 215.963 -1.74942 0.72055 0
M  V30 2222 O 215.306 -1.80917 -0.318561 0
M  V30 2223 C 215.368 -1.76782 3.13031 0
M  V30 2224 C 215.032 -1.06005 4.44536 0
M  V30 2225 C 216.029 -0.410768 5.18275 0
M  V30 2226 C 213.714 -1.04754 4.91255 0
M  V30 2227 C 215.708 0.241572 6.36942 0
M  V30 2228 C 213.395 -0.391394 6.09845 0
M  V30 2229 C 214.393 0.252029 6.82535 0
M  V30 2230 O 214.081 0.897757 7.98871 0
M  V30 2231 H 213.813 -0.255188 0.625983 0
M  V30 2232 H 216.367 -0.135653 2.04952 0
M  V30 2233 H 214.597 -2.53846 2.91718 0
M  V30 2234 H 216.286 -2.36533 3.29859 0
M  V30 2235 H 217.052 -0.412195 4.83245 0
M  V30 2236 H 212.931 -1.53777 4.34596 0
M  V30 2237 H 216.475 0.744375 6.93617 0
M  V30 2238 H 212.372 -0.387656 6.44335 0
M  V30 2239 H 213.14 0.800102 8.1458 0
M  V30 2240 N 215.803 -1.52179 -0.40978 0
M  V30 2241 C 216.753 -1.71857 -1.49831 0
M  V30 2242 C 217.737 -0.572469 -1.50372 0
M  V30 2243 O 218.929 -0.829509 -1.56359 0
M  V30 2244 C 216.058 -1.87206 -2.87765 0
M  V30 2245 C 215.144 -3.07685 -2.91875 0
M  V30 2246 N 215.535 -4.30403 -2.65683 0
M  V30 2247 C 213.833 -3.07505 -3.23043 0
M  V30 2248 C 214.534 -5.11868 -2.76344 0
M  V30 2249 N 213.51 -4.47101 -3.09195 0
M  V30 2250 H 217.312 -2.64381 -1.28375 0
M  V30 2251 H 214.826 -1.50203 -0.617479 0
M  V30 2252 H 216.823 -1.99419 -3.66111 0
M  V30 2253 H 215.483 -0.958814 -3.10221 0
M  V30 2254 H 216.494 -4.58887 -2.4009 0
M  V30 2255 H 213.171 -2.25915 -3.51096 0
M  V30 2256 H 214.561 -6.19634 -2.59814 0
M  V30 2257 O 217.32 0.555659 -1.5164 0
M  V30 2258 H 218.011 1.21079 -1.51194 0
M  V30 END ATOM
M  V30 BEGIN BOND
M  V30 END BOND
M  V30 END CTAB
M  END
$$$$
