drugbank_target|Q57254 Afimbrial adhesin AFA-III (DB08217)
 OpenBabel12092120483D

  0  0  0     0  0            999 V3000
M  V30 BEGIN CTAB
M  V30 COUNTS 2381 2404 0 0 0
M  V30 BEGIN ATOM
M  V30 1 H -0.908 1.98254 -0.117106 0
M  V30 2 N 0 1.576 0 0
M  V30 3 C 0.933 2.03868 1.02534 0
M  V30 4 C 1.911 0.928543 1.3348 0
M  V30 5 O 3.095 1.19667 1.45644 0
M  V30 6 C 0.222 2.43627 2.35294 0
M  V30 7 C -0.732 3.65373 2.2001 0
M  V30 8 S 0.101 5.13292 1.52614 0
M  V30 9 C 1.257 5.56322 2.86805 0
M  V30 10 H 1.49 2.90518 0.631377 0
M  V30 11 H -0.977 1.52953 0.210867 0
M  V30 12 H 0.981 2.67203 3.11629 0
M  V30 13 H -0.358 1.57376 2.7183 0
M  V30 14 H -1.165 3.90944 3.18086 0
M  V30 15 H -1.563 3.418 1.51819 0
M  V30 16 H 0.729 5.58782 3.83104 0
M  V30 17 H 1.672 6.56266 2.65933 0
M  V30 18 H 2.08 4.83886 2.90714 0
M  V30 19 N 1.4781 -0.272755 1.55222 0
M  V30 20 C 2.4251 -1.33716 1.88119 0
M  V30 21 C 3.3951 -1.49066 0.73271 0
M  V30 22 O 4.5801 -1.63469 0.984002 0
M  V30 23 C 1.7201 -2.69238 2.15882 0
M  V30 24 C 0.8331 -2.62108 3.43399 0
M  V30 25 C -0.0319 -3.89811 3.60861 0
M  V30 26 C -0.9929 -3.77193 4.8207 0
M  V30 27 N -1.8559 -4.9673 4.96189 0
M  V30 28 H 2.9841 -1.04962 2.78903 0
M  V30 29 H 0.5211 -0.507088 1.38083 0
M  V30 30 H 2.4791 -3.48089 2.29978 0
M  V30 31 H 1.1091 -2.96194 1.28331 0
M  V30 32 H 0.1611 -1.74967 3.37773 0
M  V30 33 H 1.4731 -2.48685 4.32386 0
M  V30 34 H 0.6271 -4.77103 3.74777 0
M  V30 35 H -0.6339 -4.06102 2.7006 0
M  V30 36 H -1.6289 -2.88284 4.68159 0
M  V30 37 H -0.4039 -3.62421 5.74307 0
M  V30 38 H -2.4579 -5.13431 4.08319 0
M  V30 39 H -2.5409 -4.85839 5.79221 0
M  V30 40 H -1.2729 -5.85594 5.1449 0
M  V30 41 N 2.9562 -1.48159 -0.537278 0
M  V30 42 C 3.9032 -1.62138 -1.64256 0
M  V30 43 C 4.8732 -0.463668 -1.59497 0
M  V30 44 O 6.0582 -0.686241 -1.78032 0
M  V30 45 C 3.1982 -1.66028 -3.02537 0
M  V30 46 C 2.3112 -2.92855 -3.17585 0
M  V30 47 C 1.4462 -2.87952 -4.46382 0
M  V30 48 C 0.4852 -4.09516 -4.54932 0
M  V30 49 N -0.3778 -4.02733 -5.75109 0
M  V30 50 H 4.4622 -2.56529 -1.51647 0
M  V30 51 H 1.9992 -1.27224 -0.738414 0
M  V30 52 H 3.9572 -1.66265 -3.82638 0
M  V30 53 H 2.5872 -0.751331 -3.13934 0
M  V30 54 H 1.6392 -3.02395 -2.30784 0
M  V30 55 H 2.9512 -3.82822 -3.19764 0
M  V30 56 H 2.1052 -2.8655 -5.34765 0
M  V30 57 H 0.8442 -1.95702 -4.46712 0
M  V30 58 H -0.1508 -4.11201 -3.64957 0
M  V30 59 H 1.0742 -5.02917 -4.56346 0
M  V30 60 H -0.9798 -3.13299 -5.76351 0
M  V30 61 H -1.0628 -4.86397 -5.78752 0
M  V30 62 H 0.2052 -4.05379 -6.65799 0
M  V30 63 N 4.4343 0.785586 -1.36625 0
M  V30 64 C 5.3643 1.91259 -1.33949 0
M  V30 65 C 6.3453 1.68795 -0.210325 0
M  V30 66 O 7.5303 1.89854 -0.408561 0
M  V30 67 C 4.6603 3.28339 -1.13186 0
M  V30 68 C 3.6143 3.65335 -2.22967 0
M  V30 69 C 2.9403 5.00806 -1.87342 0
M  V30 70 C 4.2403 3.7352 -3.65075 0
M  V30 71 H 5.9343 1.93755 -2.28253 0
M  V30 72 H 3.4803 0.930788 -1.09874 0
M  V30 73 H 5.4333 4.06804 -1.09948 0
M  V30 74 H 4.1573 3.2624 -0.153332 0
M  V30 75 H 2.8163 2.89169 -2.25337 0
M  V30 76 H 2.4643 4.95233 -0.880545 0
M  V30 77 H 2.1643 5.26529 -2.60846 0
M  V30 78 H 3.6883 5.81687 -1.85667 0
M  V30 79 H 5.1023 4.42168 -3.64911 0
M  V30 80 H 3.4993 4.10731 -4.37516 0
M  V30 81 H 4.5693 2.74527 -3.99703 0
M  V30 82 N 5.9124 1.20967 1.01018 0
M  V30 83 C 6.8754 0.965918 2.07853 0
M  V30 84 C 7.8754 -0.0610545 1.60684 0
M  V30 85 O 9.0654 0.175681 1.73312 0
M  V30 86 C 6.1974 0.455513 3.37843 0
M  V30 87 H 7.3904 1.91365 2.3091 0
M  V30 88 H 4.9434 1.02594 1.17916 0
M  V30 89 H 5.6784 -0.497381 3.20463 0
M  V30 90 H 5.4634 1.19622 3.73407 0
M  V30 91 H 6.9534 0.304667 4.16487 0
M  V30 92 N 7.3905 -1.2043 1.01659 0
M  V30 93 C 8.6395 -1.89118 0.701237 0
M  V30 94 C 8.9525 -1.79705 -0.772358 0
M  V30 95 O 10.1585 -2.43528 -1.20026 0
M  V30 96 C 8.6145 -3.39168 1.20388 0
M  V30 97 C 8.2225 -3.57166 2.70438 0
M  V30 98 C 9.9665 -4.1341 0.963953 0
M  V30 99 C 7.8735 -5.01042 3.14183 0
M  V30 100 H 6.8035 -0.708267 0.2586 0
M  V30 101 H 9.4545 -1.36239 1.22927 0
M  V30 102 H 7.8365 -3.91369 0.603824 0
M  V30 103 H 9.0105 -3.15351 3.35992 0
M  V30 104 H 7.3255 -2.96294 2.92572 0
M  V30 105 H 9.9225 -5.19491 1.26621 0
M  V30 106 H 10.2655 -4.16181 -0.099578 0
M  V30 107 H 10.7985 -3.67309 1.52738 0
M  V30 108 H 7.5375 -5.03426 4.19812 0
M  V30 109 H 7.0575 -5.43668 2.53348 0
M  V30 110 H 8.7365 -5.69623 3.0682 0
M  V30 111 N 8.8686 -0.792821 -1.36206 0
M  V30 112 C 9.8016 -0.139422 -2.27774 0
M  V30 113 C 10.7796 0.68649 -1.47398 0
M  V30 114 O 11.9636 0.656738 -1.7669 0
M  V30 115 C 9.0906 0.807947 -3.28922 0
M  V30 116 C 8.1366 0.0633999 -4.26453 0
M  V30 117 S 8.9696 -1.26319 -5.20388 0
M  V30 118 C 10.1256 -0.31991 -6.25082 0
M  V30 119 H 10.3586 -0.915809 -2.82843 0
M  V30 120 H 7.8916 -0.587203 -1.42798 0
M  V30 121 H 9.8496 1.34908 -3.87699 0
M  V30 122 H 8.5106 1.55761 -2.72759 0
M  V30 123 H 7.7036 0.782386 -4.9789 0
M  V30 124 H 7.3056 -0.407352 -3.71775 0
M  V30 125 H 9.5976 0.499985 -6.75653 0
M  V30 126 H 10.5406 -1.00307 -7.00959 0
M  V30 127 H 10.9486 0.0782694 -5.64446 0
M  V30 128 N 10.3467 1.47872 -0.545128 0
M  V30 129 C 11.3097 2.28337 0.198717 0
M  V30 130 C 12.3097 1.36255 0.853888 0
M  V30 131 O 13.4997 1.59003 0.711606 0
M  V30 132 C 10.6317 3.15585 1.28915 0
M  V30 133 H 11.8247 2.95567 -0.507941 0
M  V30 134 H 9.3777 1.53362 -0.301616 0
M  V30 135 H 10.1127 2.53019 2.02859 0
M  V30 136 H 9.8977 3.83337 0.824309 0
M  V30 137 H 11.3877 3.76243 1.81194 0
M  V30 138 N 11.8248 0.280983 1.55075 0
M  V30 139 C 12.7878 -0.590896 2.21452 0
M  V30 140 C 13.7878 -1.07682 1.19421 0
M  V30 141 O 14.9778 -0.97605 1.44288 0
M  V30 142 C 12.1098 -1.81587 2.88511 0
M  V30 143 H 13.3028 -0.0112554 2.99898 0
M  V30 144 H 10.8558 0.0316438 1.56268 0
M  V30 145 H 11.5908 -2.43587 2.14093 0
M  V30 146 H 11.3758 -1.4753 3.63287 0
M  V30 147 H 12.8658 -2.43575 3.39206 0
M  V30 148 N 13.3029 -1.57598 0.00835791 0
M  V30 149 C 14.2659 -2.07884 -0.965242 0
M  V30 150 C 15.2659 -0.989825 -1.26725 0
M  V30 151 O 16.4559 -1.25218 -1.21104 0
M  V30 152 C 13.5879 -2.52731 -2.28779 0
M  V30 153 H 14.7809 -2.95178 -0.530112 0
M  V30 154 H 12.3339 -1.54458 -0.239283 0
M  V30 155 H 13.0689 -1.68705 -2.76964 0
M  V30 156 H 12.8539 -3.32272 -2.08177 0
M  V30 157 H 14.3439 -2.91933 -2.98605 0
M  V30 158 N 14.781 0.264519 -1.55364 0
M  V30 159 C 16.006 1.01726 -1.80739 0
M  V30 160 C 16.431 1.78836 -0.583044 0
M  V30 161 O 15.789 1.75167 0.467566 0
M  V30 162 C 15.837 1.94482 -3.03659 0
M  V30 163 O 14.941 3.03386 -2.7934 0
M  V30 164 H 14.282 0.290395 -0.597132 0
M  V30 165 H 16.812 0.290854 -2.02522 0
M  V30 166 H 16.822 2.36278 -3.32621 0
M  V30 167 H 15.497 1.37772 -3.92418 0
M  V30 168 H 14.074 2.65844 -2.61498 0
M  V30 169 N 16.2591 1.48442 0.529413 0
M  V30 170 C 17.1921 1.57577 1.65059 0
M  V30 171 C 18.1701 0.426198 1.56915 0
M  V30 172 O 19.3541 0.637877 1.77379 0
M  V30 173 C 16.4811 1.5043 3.03461 0
M  V30 174 C 15.5271 2.70235 3.29962 0
M  V30 175 S 16.3601 4.32198 3.16172 0
M  V30 176 C 17.5161 4.2765 4.57019 0
M  V30 177 H 17.7491 2.52427 1.5706 0
M  V30 178 H 15.2821 1.36982 0.712417 0
M  V30 179 H 17.2401 1.46992 3.8328 0
M  V30 180 H 15.9011 0.569167 3.089 0
M  V30 181 H 15.0941 2.61374 4.30929 0
M  V30 182 H 14.6961 2.70938 2.57815 0
M  V30 183 H 16.9881 3.97618 5.48549 0
M  V30 184 H 17.9311 5.28797 4.70934 0
M  V30 185 H 18.3391 3.5811 4.36368 0
M  V30 186 N 17.7372 -0.778329 1.37039 0
M  V30 187 C 18.9832 -1.53892 1.32079 0
M  V30 188 C 19.3162 -1.9396 -0.0965386 0
M  V30 189 O 18.5912 -1.63568 -1.05242 0
M  V30 190 C 18.8742 -2.80847 2.25382 0
M  V30 191 C 18.7272 -2.47076 3.75864 0
M  V30 192 C 20.0462 -3.82741 2.1725 0
M  V30 193 H 17.1652 -0.558303 0.48111 0
M  V30 194 H 19.8072 -0.893397 1.67685 0
M  V30 195 H 17.9572 -3.35931 1.95148 0
M  V30 196 H 19.6292 -1.97957 4.16666 0
M  V30 197 H 17.8722 -1.79863 3.94755 0
M  V30 198 H 18.5432 -3.37798 4.36574 0
M  V30 199 H 21.0192 -3.37133 2.43887 0
M  V30 200 H 19.8952 -4.69303 2.84686 0
M  V30 201 H 20.1562 -4.2652 1.16331 0
M  V30 202 N 19.2153 -1.21501 -1.00376 0
M  V30 203 C 20.4623 -1.03299 -1.74171 0
M  V30 204 C 20.7903 0.433326 -1.89612 0
M  V30 205 O 20.0453 1.33779 -1.42834 0
M  V30 206 C 20.3443 -1.67673 -3.15627 0
M  V30 207 C 20.0103 -3.17533 -3.2013 0
M  V30 208 C 18.6723 -3.58427 -3.21067 0
M  V30 209 C 21.0243 -4.13504 -3.17275 0
M  V30 210 C 18.3523 -4.93794 -3.16835 0
M  V30 211 C 20.7043 -5.48834 -3.14585 0
M  V30 212 C 19.3683 -5.89123 -3.13831 0
M  V30 213 H 18.6383 -0.377999 -0.637336 0
M  V30 214 H 21.2853 -1.51111 -1.17634 0
M  V30 215 H 19.5903 -1.12158 -3.75404 0
M  V30 216 H 21.2873 -1.51091 -3.71446 0
M  V30 217 H 17.8773 -2.84965 -3.20145 0
M  V30 218 H 22.0613 -3.82936 -3.15711 0
M  V30 219 H 17.3173 -5.24255 -3.1459 0
M  V30 220 H 21.4913 -6.22934 -3.1133 0
M  V30 221 H 19.1183 -6.93984 -3.10307 0
M  V30 222 N 20.6934 1.19889 -1.02296 0
M  V30 223 C 21.6564 2.21116 -0.603351 0
M  V30 224 C 22.6564 1.5738 0.329884 0
M  V30 225 O 23.8464 1.73802 0.117702 0
M  V30 226 C 20.9784 3.40696 0.117992 0
M  V30 227 H 22.1714 2.59754 -1.49893 0
M  V30 228 H 19.7244 1.33463 -0.813468 0
M  V30 229 H 20.4594 3.07569 1.0282 0
M  V30 230 H 20.2444 3.88188 -0.552511 0
M  V30 231 H 21.7344 4.15692 0.398696 0
M  V30 232 N 22.1715 0.800033 1.35784 0
M  V30 233 C 23.4175 0.377901 1.99248 0
M  V30 234 C 23.7505 -1.05052 1.63333 0
M  V30 235 O 23.0255 -1.72768 0.893385 0
M  V30 236 C 23.3085 0.553922 3.55814 0
M  V30 237 C 23.1615 2.0268 4.01548 0
M  V30 238 C 24.4805 -0.0244802 4.40093 0
M  V30 239 H 21.5995 0.138782 0.723815 0
M  V30 240 H 24.2415 1.00835 1.61035 0
M  V30 241 H 22.3915 0.0172398 3.88496 0
M  V30 242 H 24.0635 2.62536 3.79305 0
M  V30 243 H 22.3065 2.5256 3.52698 0
M  V30 244 H 22.9775 2.10087 5.10458 0
M  V30 245 H 25.4535 0.433775 4.13833 0
M  V30 246 H 24.3295 0.128637 5.48749 0
M  V30 247 H 24.5905 -1.11758 4.27741 0
M  V30 248 N 23.6496 -1.47581 0.552962 0
M  V30 249 C 24.8746 -2.07378 0.0300593 0
M  V30 250 C 25.2996 -1.40355 -1.25229 0
M  V30 251 O 24.6576 -0.477099 -1.7491 0
M  V30 252 C 24.7056 -3.60274 -0.153231 0
M  V30 253 O 23.8096 -3.94041 -1.21678 0
M  V30 254 H 23.1506 -0.662158 0.0494182 0
M  V30 255 H 25.6806 -1.89662 0.767434 0
M  V30 256 H 25.6906 -4.0633 -0.368761 0
M  V30 257 H 24.3656 -4.08455 0.783397 0
M  V30 258 H 22.9426 -3.59735 -0.982079 0
M  V30 259 N 25.1277 -0.289203 -1.54924 0
M  V30 260 C 26.3527 0.329299 -2.04769 0
M  V30 261 C 26.7777 1.4763 -1.16564 0
M  V30 262 O 26.1357 1.80527 -0.167186 0
M  V30 263 C 26.1837 0.774438 -3.52186 0
M  V30 264 O 25.2877 1.88038 -3.67036 0
M  V30 265 H 24.6287 0.0659259 -0.660719 0
M  V30 266 H 27.1587 -0.42761 -2.00082 0
M  V30 267 H 27.1687 1.06642 -3.93816 0
M  V30 268 H 25.8437 -0.0646707 -4.1585 0
M  V30 269 H 24.4207 1.58985 -3.3731 0
M  V30 270 N 26.6058 1.57591 -0.0167156 0
M  V30 271 C 27.5688 2.08393 0.954204 0
M  V30 272 C 28.5688 0.996531 1.26198 0
M  V30 273 O 29.7588 1.25858 1.20438 0
M  V30 274 C 26.8908 2.5394 2.27436 0
M  V30 275 H 28.0838 2.95455 0.514451 0
M  V30 276 H 25.6368 1.54582 0.231089 0
M  V30 277 H 26.3718 1.70171 2.76066 0
M  V30 278 H 26.1568 3.33371 2.06412 0
M  V30 279 H 27.6468 2.93512 2.97053 0
M  V30 280 N 28.0839 -0.256276 1.55502 0
M  V30 281 C 29.0339 -1.31981 1.85916 0
M  V30 282 C 30.0179 -1.43927 0.719296 0
M  V30 283 O 31.2099 -1.47326 0.981019 0
M  V30 284 C 28.3389 -2.67703 2.14918 0
M  V30 285 C 27.4249 -2.59801 3.35208 0
M  V30 286 N 27.8159 -2.21524 4.54709 0
M  V30 287 C 26.1139 -2.90832 3.38131 0
M  V30 288 C 26.8149 -2.24024 5.36832 0
M  V30 289 N 25.7909 -2.63158 4.75656 0
M  V30 290 H 29.5929 -1.01423 2.75845 0
M  V30 291 H 27.1069 -0.464911 1.55603 0
M  V30 292 H 29.1039 -3.44445 2.34869 0
M  V30 293 H 27.7639 -2.99137 1.26282 0
M  V30 294 H 28.7749 -1.93223 4.80505 0
M  V30 295 H 25.4519 -3.26867 2.59739 0
M  V30 296 H 26.8419 -1.9685 6.42417 0
M  V30 297 N 29.562 -1.4872 -0.521534 0
M  V30 298 C 30.525 -1.63379 -1.60748 0
M  V30 299 C 31.525 -0.50661 -1.52611 0
M  V30 300 O 32.715 -0.772601 -1.5613 0
M  V30 301 C 29.847 -1.61192 -3.00383 0
M  V30 302 H 31.04 -2.60217 -1.49087 0
M  V30 303 H 28.593 -1.37444 -0.744235 0
M  V30 304 H 29.328 -0.65863 -3.17541 0
M  V30 305 H 29.113 -2.43032 -3.07698 0
M  V30 306 H 30.603 -1.7466 -3.7932 0
M  V30 307 N 31.0401 0.771051 -1.3745 0
M  V30 308 C 32.2881 1.52661 -1.32435 0
M  V30 309 C 32.6091 1.9479 0.0905024 0
M  V30 310 O 31.8791 1.66348 1.03466 0
M  V30 311 H 30.4591 0.566218 -0.487244 0
M  V30 312 H 33.1211 0.917636 -1.71946 0
M  V30 313 H 32.2171 2.42568 -1.96385 0
M  V30 314 N 32.5182 1.22032 0.997298 0
M  V30 315 C 33.7652 1.04222 1.73621 0
M  V30 316 C 34.0932 -0.423264 1.89839 0
M  V30 317 O 33.3482 -1.3302 1.43542 0
M  V30 318 C 33.6472 1.69345 3.14733 0
M  V30 319 C 33.3132 3.19226 3.18442 0
M  V30 320 C 31.9752 3.60124 3.19161 0
M  V30 321 C 34.3272 4.15181 3.15078 0
M  V30 322 C 31.6552 4.95467 3.14212 0
M  V30 323 C 34.0072 5.50495 3.1167 0
M  V30 324 C 32.6712 5.90779 3.10703 0
M  V30 325 H 31.9412 0.381374 0.635323 0
M  V30 326 H 34.5882 1.51732 1.16831 0
M  V30 327 H 32.8932 1.14147 3.74803 0
M  V30 328 H 34.5902 1.53059 3.7064 0
M  V30 329 H 31.1802 2.86659 3.18629 0
M  V30 330 H 35.3642 3.84605 3.13676 0
M  V30 331 H 30.6202 5.25916 3.11805 0
M  V30 332 H 34.7942 6.24576 3.08022 0
M  V30 333 H 32.4212 6.9562 3.06622 0
M  V30 334 N 33.9963 -1.19345 1.0293 0
M  V30 335 C 35.2243 -1.92997 0.745644 0
M  V30 336 C 35.6393 -1.75519 -0.695589 0
M  V30 337 O 34.9963 -1.07737 -1.47306 0
M  V30 338 C 35.0473 -3.44741 1.08792 0
M  V30 339 O 34.7683 -3.61658 2.47256 0
M  V30 340 C 36.2693 -4.35515 0.827129 0
M  V30 341 H 33.4893 -0.613042 0.272801 0
M  V30 342 H 36.0333 -1.51473 1.3739 0
M  V30 343 H 34.1883 -3.84097 0.504832 0
M  V30 344 H 34.6023 -4.55514 2.60015 0
M  V30 345 H 36.0763 -5.40589 1.11658 0
M  V30 346 H 36.5533 -4.38552 -0.238436 0
M  V30 347 H 37.1593 -4.01841 1.39297 0
M  V30 348 N 35.4744 -0.807222 -1.35358 0
M  V30 349 C 36.8854 -0.44876 -1.81226 0
M  V30 350 C 37.2364 1.02929 -1.67033 0
M  V30 351 O 36.3614 1.79991 -1.20133 0
M  V30 352 C 36.9564 -0.807774 -3.2903 0
M  V30 353 C 35.5154 -0.501901 -3.73039 0
M  V30 354 C 34.6624 -1.03304 -2.57339 0
M  V30 355 H 37.6134 -0.998808 -1.23327 0
M  V30 356 H 37.6344 -0.10554 -3.80354 0
M  V30 357 H 37.1464 -1.88357 -3.39328 0
M  V30 358 H 35.2474 0.565128 -3.68289 0
M  V30 359 H 35.3604 -1.03497 -4.67787 0
M  V30 360 H 33.7244 -0.455339 -2.50597 0
M  V30 361 H 34.5074 -2.11496 -2.70415 0
M  V30 362 N 36.9525 1.47285 -0.560781 0
M  V30 363 C 38.1775 2.07359 -0.0410566 0
M  V30 364 C 38.6025 1.41017 1.24483 0
M  V30 365 O 37.9605 0.486368 1.74654 0
M  V30 366 C 38.0085 3.6035 0.134123 0
M  V30 367 O 37.1125 3.94681 1.19587 0
M  V30 368 H 36.4535 0.661887 -0.0529291 0
M  V30 369 H 38.9835 1.89252 -0.777482 0
M  V30 370 H 38.9935 4.0652 0.347207 0
M  V30 371 H 37.6685 4.08034 -0.805047 0
M  V30 372 H 36.2455 3.60251 0.962987 0
M  V30 373 N 38.4306 0.297415 1.54768 0
M  V30 374 C 39.6786 -0.312295 1.99673 0
M  V30 375 C 39.9996 -1.54686 1.18732 0
M  V30 376 O 39.2696 -1.93854 0.282382 0
M  V30 377 H 37.8496 -0.118381 0.73756 0
M  V30 378 H 40.5116 0.407915 1.90583 0
M  V30 379 H 39.6076 -0.586813 3.06534 0
M  V30 380 N 39.9087 -1.5758 0.0250728 0
M  V30 381 C 41.1367 -1.9593 -0.664747 0
M  V30 382 C 41.5517 -0.901352 -1.65895 0
M  V30 383 O 40.9087 0.117255 -1.82123 0
M  V30 384 C 40.9597 -3.34342 -1.37468 0
M  V30 385 O 40.6807 -4.36079 -0.420324 0
M  V30 386 C 42.1817 -3.873 -2.1567 0
M  V30 387 H 39.4017 -0.645405 -0.183557 0
M  V30 388 H 41.9457 -2.04329 0.0836372 0
M  V30 389 H 40.1007 -3.27175 -2.0745 0
M  V30 390 H 40.5147 -5.16297 -0.923991 0
M  V30 391 H 41.9887 -4.86504 -2.60803 0
M  V30 392 H 42.4657 -3.21331 -2.99405 0
M  V30 393 H 43.0717 -3.97723 -1.50654 0
M  V30 394 N 41.3868 0.248026 -1.55636 0
M  V30 395 C 42.6148 0.993808 -1.81469 0
M  V30 396 C 43.0298 1.78991 -0.60064 0
M  V30 397 O 42.3868 1.77345 0.430682 0
M  V30 398 C 42.4378 1.93258 -3.05506 0
M  V30 399 O 42.1588 1.16869 -4.22224 0
M  V30 400 C 43.6598 2.79444 -3.4413 0
M  V30 401 H 40.8798 0.292486 -0.603898 0
M  V30 402 H 43.4238 0.271253 -2.02693 0
M  V30 403 H 41.5788 2.60943 -2.86335 0
M  V30 404 H 41.9928 1.80359 -4.92515 0
M  V30 405 H 43.4668 3.41066 -4.34026 0
M  V30 406 H 43.9438 3.50499 -2.64665 0
M  V30 407 H 44.5498 2.17214 -3.65648 0
M  V30 408 N 42.8649 1.48995 0.513639 0
M  V30 409 C 44.1129 1.57531 1.26604 0
M  V30 410 C 44.4339 0.258236 1.93283 0
M  V30 411 O 43.7039 -0.721502 1.8213 0
M  V30 412 H 42.2839 0.580387 0.470276 0
M  V30 413 H 44.9459 1.85552 0.596373 0
M  V30 414 H 44.0419 2.36486 2.03669 0
M  V30 415 N 44.343 -0.763751 1.37857 0
M  V30 416 C 45.571 -1.55293 1.36718 0
M  V30 417 C 45.986 -1.88745 -0.0455434 0
M  V30 418 O 45.343 -1.52039 -1.00947 0
M  V30 419 C 45.394 -2.85831 2.2132 0
M  V30 420 O 45.115 -2.5381 3.57089 0
M  V30 421 C 46.616 -3.80023 2.28249 0
M  V30 422 H 43.836 -0.480841 0.468009 0
M  V30 423 H 46.38 -0.946009 1.81303 0
M  V30 424 H 44.535 -3.42926 1.80223 0
M  V30 425 H 44.949 -3.37459 4.01524 0
M  V30 426 H 46.423 -4.68599 2.91752 0
M  V30 427 H 46.9 -4.1973 1.2932 0
M  V30 428 H 47.506 -3.28855 2.69693 0
M  V30 429 N 45.8211 -1.22559 -0.990812 0
M  V30 430 C 47.0491 -1.07779 -1.76611 0
M  V30 431 C 47.4641 0.371513 -1.85109 0
M  V30 432 O 46.8211 1.25737 -1.32274 0
M  V30 433 C 46.8721 -1.68512 -3.19822 0
M  V30 434 O 46.5931 -3.07774 -3.1178 0
M  V30 435 C 48.0941 -1.59035 -4.13791 0
M  V30 436 H 45.3141 -0.377729 -0.554583 0
M  V30 437 H 47.8581 -1.62195 -1.24551 0
M  V30 438 H 46.0131 -1.18154 -3.68942 0
M  V30 439 H 46.4271 -3.37062 -4.01858 0
M  V30 440 H 47.9011 -2.0625 -5.1202 0
M  V30 441 H 48.3781 -0.547273 -4.35777 0
M  V30 442 H 48.9841 -2.08709 -3.70568 0
M  V30 443 N 47.2992 1.18797 -1.03562 0
M  V30 444 C 48.2462 2.22253 -0.622259 0
M  V30 445 C 49.2162 1.61987 0.36736 0
M  V30 446 O 50.4012 1.88986 0.262492 0
M  V30 447 C 47.5412 3.45097 0.0138462 0
M  V30 448 C 46.6542 4.19722 -1.02263 0
M  V30 449 C 45.7892 5.30009 -0.355573 0
M  V30 450 C 44.8282 5.96399 -1.37749 0
M  V30 451 N 43.9652 6.98234 -0.735766 0
M  V30 452 H 48.8052 2.56968 -1.50903 0
M  V30 453 H 46.3422 1.26245 -0.755017 0
M  V30 454 H 48.3002 4.15279 0.399948 0
M  V30 455 H 46.9302 3.11018 0.864158 0
M  V30 456 H 45.9822 3.48418 -1.52673 0
M  V30 457 H 47.2942 4.65227 -1.79903 0
M  V30 458 H 46.4482 6.0664 0.0850095 0
M  V30 459 H 45.1872 4.85592 0.452967 0
M  V30 460 H 44.1922 5.18512 -1.82826 0
M  V30 461 H 45.4172 6.42899 -2.18764 0
M  V30 462 H 43.3632 6.55979 0.0525597 0
M  V30 463 H 43.2802 7.41965 -1.44995 0
M  V30 464 H 44.5482 7.78845 -0.31941 0
M  V30 465 N 48.7773 0.814389 1.34928 0
M  V30 466 C 49.7073 0.244827 2.32213 0
M  V30 467 C 50.6883 -0.634024 1.57842 0
M  V30 468 O 51.8733 -0.562676 1.8587 0
M  V30 469 C 49.0033 -0.601106 3.42058 0
M  V30 470 C 47.9573 0.179896 4.27622 0
M  V30 471 C 47.2833 -0.788237 5.28858 0
M  V30 472 C 48.5833 1.38329 5.03649 0
M  V30 473 H 50.2773 1.05763 2.80097 0
M  V30 474 H 47.8233 0.510029 1.34665 0
M  V30 475 H 49.7763 -1.00968 4.09125 0
M  V30 476 H 48.5003 -1.44688 2.92802 0
M  V30 477 H 47.1593 0.569739 3.62146 0
M  V30 478 H 46.8073 -1.62973 4.75866 0
M  V30 479 H 46.5073 -0.269942 5.8698 0
M  V30 480 H 48.0313 -1.19485 5.98795 0
M  V30 481 H 49.4453 1.04918 5.63618 0
M  V30 482 H 47.8423 1.83662 5.71304 0
M  V30 483 H 48.9123 2.16592 4.33839 0
M  V30 484 N 50.2554 -1.46986 0.568584 0
M  V30 485 C 51.4834 -2.0683 0.0539956 0
M  V30 486 C 51.8984 -1.41953 -1.24478 0
M  V30 487 O 51.2554 -0.519933 -1.74937 0
M  V30 488 C 51.3064 -3.61254 -0.133362 0
M  V30 489 O 51.0274 -4.237 1.11399 0
M  V30 490 C 52.5284 -4.37992 -0.683927 0
M  V30 491 H 49.7484 -0.669058 0.0510141 0
M  V30 492 H 52.2924 -1.88824 0.785234 0
M  V30 493 H 50.4474 -3.78735 -0.81477 0
M  V30 494 H 50.8614 -5.16388 0.91888 0
M  V30 495 H 52.3354 -5.46684 -0.764263 0
M  V30 496 H 52.8124 -4.05058 -1.69778 0
M  V30 497 H 53.4184 -4.25283 -0.0378494 0
M  V30 498 N 51.7335 -0.305618 -1.54608 0
M  V30 499 C 52.9795 0.302746 -2.00528 0
M  V30 500 C 53.3125 1.53184 -1.19367 0
M  V30 501 O 52.5875 1.92598 -0.271321 0
M  V30 502 C 52.8705 0.654756 -3.54097 0
M  V30 503 C 52.7235 -0.583793 -4.45995 0
M  V30 504 C 54.0425 1.47947 -4.14487 0
M  V30 505 H 51.1615 0.108564 -0.72896 0
M  V30 506 H 53.8035 -0.418634 -1.85331 0
M  V30 507 H 51.9535 1.26935 -3.67178 0
M  V30 508 H 53.6255 -1.22224 -4.44814 0
M  V30 509 H 51.8685 -1.21615 -4.16404 0
M  V30 510 H 52.5395 -0.293287 -5.5122 0
M  V30 511 H 55.0155 0.96013 -4.04871 0
M  V30 512 H 53.8915 1.69454 -5.22088 0
M  V30 513 H 54.1525 2.47011 -3.66658 0
M  V30 514 N 53.2116 1.57565 -0.0334293 0
M  V30 515 C 54.4396 1.9628 0.654347 0
M  V30 516 C 54.8546 0.910138 1.65414 0
M  V30 517 O 54.2116 -0.107595 1.82183 0
M  V30 518 C 54.2626 3.35067 1.35693 0
M  V30 519 O 53.9836 4.36296 0.397191 0
M  V30 520 C 55.4846 3.88439 2.13613 0
M  V30 521 H 52.7046 0.646369 0.180132 0
M  V30 522 H 55.2486 2.04282 -0.0944721 0
M  V30 523 H 53.4036 3.2827 2.05712 0
M  V30 524 H 53.8176 5.1678 0.896597 0
M  V30 525 H 55.2916 4.8788 2.58219 0
M  V30 526 H 55.7686 3.22914 2.97696 0
M  V30 527 H 56.3746 3.98516 1.48543 0
M  V30 528 N 54.6897 -0.239769 1.55765 0
M  V30 529 C 55.5997 -1.31831 1.94056 0
M  V30 530 C 56.6157 -1.52275 0.841925 0
M  V30 531 O 57.7917 -1.65759 1.14394 0
M  V30 532 C 54.8567 -2.65156 2.23368 0
M  V30 533 C 53.9177 -2.53173 3.46701 0
M  V30 534 C 53.1507 -3.8014 3.74606 0
M  V30 535 O 53.3737 -4.82343 3.04469 0
M  V30 536 O 52.3077 -3.78344 4.68123 0
M  V30 537 H 56.1337 -1.02347 2.85935 0
M  V30 538 H 53.7187 -0.441123 1.42739 0
M  V30 539 H 55.6007 -3.43929 2.43497 0
M  V30 540 H 54.2757 -2.94358 1.34666 0
M  V30 541 H 53.1827 -1.72662 3.31871 0
M  V30 542 H 54.5157 -2.28915 4.35728 0
M  V30 543 N 56.1678 -1.49265 -0.50573 0
M  V30 544 C 57.0778 -1.68312 -1.63427 0
M  V30 545 C 58.0938 -0.565682 -1.64548 0
M  V30 546 O 59.2698 -0.839801 -1.83055 0
M  V30 547 C 56.3348 -1.74107 -2.99813 0
M  V30 548 C 55.3958 -2.97653 -3.09356 0
M  V30 549 C 54.6288 -3.03163 -4.39236 0
M  V30 550 O 54.8518 -2.16396 -5.27758 0
M  V30 551 O 53.7858 -3.9558 -4.53652 0
M  V30 552 H 57.6118 -2.63907 -1.50289 0
M  V30 553 H 55.1968 -1.32951 -0.681502 0
M  V30 554 H 57.0788 -1.803 -3.80881 0
M  V30 555 H 55.7538 -0.816901 -3.13223 0
M  V30 556 H 54.6608 -2.96981 -2.27493 0
M  V30 557 H 55.9938 -3.89535 -3.00871 0
M  V30 558 N 57.6459 0.756429 -1.3826 0
M  V30 559 C 58.8859 1.52833 -1.35725 0
M  V30 560 C 59.2499 1.91926 0.0534106 0
M  V30 561 O 60.4509 2.68028 0.203613 0
M  V30 562 C 58.7219 2.74919 -2.28373 0
M  V30 563 S 60.2809 3.64817 -2.43832 0
M  V30 564 H 57.0989 0.523043 -0.481608 0
M  V30 565 H 59.7009 0.888212 -1.74158 0
M  V30 566 H 58.4049 2.44304 -3.29763 0
M  V30 567 H 57.9359 3.43878 -1.91079 0
M  V30 568 H 59.9509 4.676 -1.66027 0
M  V30 569 N 59.124 1.23083 0.984299 0
M  V30 570 C 60.056 0.96636 2.07832 0
M  V30 571 C 61.069 -0.0582135 1.62696 0
M  V30 572 O 62.258 0.176843 1.77622 0
M  V30 573 C 59.358 0.433397 3.36117 0
M  V30 574 C 58.531 1.51722 4.10243 0
M  V30 575 C 57.59 0.989821 5.16807 0
M  V30 576 O 56.616 1.67794 5.43906 0
M  V30 577 N 57.818 -0.184367 5.80207 0
M  V30 578 H 60.583 1.90824 2.31098 0
M  V30 579 H 58.144 1.13888 1.1507 0
M  V30 580 H 60.136 0.065699 4.04647 0
M  V30 581 H 58.706 -0.413806 3.09849 0
M  V30 582 H 57.926 2.05786 3.36223 0
M  V30 583 H 59.214 2.24619 4.56534 0
M  V30 584 H 58.612 -0.760062 5.60571 0
M  V30 585 H 57.169 -0.493366 6.4993 0
M  V30 586 N 60.6021 -1.18246 1.0419 0
M  V30 587 C 61.8481 -1.88536 0.747122 0
M  V30 588 C 62.1811 -1.80223 -0.723409 0
M  V30 589 O 61.4561 -1.20337 -1.52804 0
M  V30 590 C 61.7391 -3.38968 1.21544 0
M  V30 591 C 61.5921 -3.56084 2.74816 0
M  V30 592 C 62.9111 -4.32648 0.806482 0
M  V30 593 H 60.0301 -0.684619 0.272883 0
M  V30 594 H 62.6721 -1.39113 1.29413 0
M  V30 595 H 60.8221 -3.8119 0.750081 0
M  V30 596 H 62.4941 -3.22946 3.29399 0
M  V30 597 H 60.7371 -2.98699 3.14582 0
M  V30 598 H 61.4081 -4.61639 3.02644 0
M  V30 599 H 63.8841 -3.98211 1.20695 0
M  V30 600 H 62.7601 -5.36462 1.1619 0
M  V30 601 H 63.0211 -4.41146 -0.29029 0
M  V30 602 N 62.0802 -0.821533 -1.34494 0
M  V30 603 C 63.4962 -0.507117 -1.51329 0
M  V30 604 C 63.6962 0.968964 -1.76673 0
M  V30 605 O 62.7522 1.75348 -1.81685 0
M  V30 606 C 64.0652 -1.36544 -2.67911 0
M  V30 607 C 65.6132 -1.36242 -2.81793 0
M  V30 608 C 66.0882 -2.2052 -4.01416 0
M  V30 609 N 67.5792 -2.18136 -4.08621 0
M  V30 610 C 68.3142 -2.80095 -5.00334 0
M  V30 611 N 67.8102 -3.51039 -5.9728 0
M  V30 612 N 69.6032 -2.69656 -4.93196 0
M  V30 613 H 61.7542 -1.77729 -1.16302 0
M  V30 614 H 64.0172 -0.757291 -0.570276 0
M  V30 615 H 63.7232 -2.41361 -2.55808 0
M  V30 616 H 63.5972 -1.02917 -3.62888 0
M  V30 617 H 65.9842 -0.322041 -2.93338 0
M  V30 618 H 66.0652 -1.73866 -1.87628 0
M  V30 619 H 65.7092 -3.24607 -3.90631 0
M  V30 620 H 65.6392 -1.80247 -4.94791 0
M  V30 621 H 68.1302 -1.6653 -3.39229 0
M  V30 622 H 68.4432 -3.95565 -6.63889 0
M  V30 623 H 66.7882 -3.55145 -5.97409 0
M  V30 624 H 69.9792 -2.13808 -4.16418 0
M  V30 625 H 70.1522 -3.1823 -5.64476 0
M  V30 626 N 63.5583 1.46682 -0.576371 0
M  V30 627 C 64.8043 2.02712 -0.0596221 0
M  V30 628 C 65.1373 1.44765 1.29448 0
M  V30 629 O 64.4123 0.610355 1.84675 0
M  V30 630 C 64.6953 3.60098 0.0129503 0
M  V30 631 C 64.5483 4.28441 -1.3696 0
M  V30 632 C 65.8673 4.34224 0.71678 0
M  V30 633 H 62.9863 0.736637 -0.0231407 0
M  V30 634 H 65.6283 1.74898 -0.742351 0
M  V30 635 H 63.7783 3.83926 0.594378 0
M  V30 636 H 65.4503 4.15896 -1.9957 0
M  V30 637 H 63.6933 3.8805 -1.93907 0
M  V30 638 H 64.3643 5.3716 -1.27135 0
M  V30 639 H 66.8403 4.15503 0.222908 0
M  V30 640 H 65.7163 5.43936 0.73657 0
M  V30 641 H 65.9773 4.04823 1.77682 0
M  V30 642 N 65.0364 0.313813 1.54444 0
M  V30 643 C 66.2844 -0.291099 1.99993 0
M  V30 644 C 66.6054 -1.53418 1.20366 0
M  V30 645 O 65.8754 -1.93544 0.302927 0
M  V30 646 H 64.4554 -0.110552 0.738774 0
M  V30 647 H 67.1174 0.428106 1.9014 0
M  V30 648 H 66.2134 -0.554268 3.07139 0
M  V30 649 N 66.5145 -1.57545 0.0417849 0
M  V30 650 C 67.7915 -1.83642 -0.673433 0
M  V30 651 C 68.1715 -0.928298 -1.89594 0
M  V30 652 O 67.5195 0.0129955 -2.28496 0
M  V30 653 C 67.7295 -3.33155 -1.03964 0
M  V30 654 C 69.0775 -3.99941 -1.42592 0
M  V30 655 O 70.1015 -3.37725 -1.13226 0
M  V30 656 O 68.9605 -5.09619 -1.9736 0
M  V30 657 H 66.0545 -0.757638 -0.331533 0
M  V30 658 H 68.6005 -1.69554 0.070433 0
M  V30 659 H 67.3725 -3.9093 -0.170098 0
M  V30 660 H 66.9955 -3.52396 -1.84126 0
M  V30 661 N 67.9926 0.231505 -1.5589 0
M  V30 662 C 68.9226 1.29022 -1.94617 0
M  V30 663 C 69.9036 1.4941 -0.813067 0
M  V30 664 O 71.0886 1.6176 -1.07459 0
M  V30 665 C 68.2186 2.64199 -2.25424 0
M  V30 666 C 67.1726 2.58484 -3.41131 0
M  V30 667 C 66.4986 3.97599 -3.57518 0
M  V30 668 C 67.7986 2.1413 -4.76388 0
M  V30 669 H 69.4926 0.968563 -2.83301 0
M  V30 670 H 67.0386 0.464479 -1.36303 0
M  V30 671 H 68.9916 3.38413 -2.51107 0
M  V30 672 H 67.7156 2.98032 -1.33583 0
M  V30 673 H 66.3746 1.86727 -3.15481 0
M  V30 674 H 66.0226 4.28723 -2.6307 0
M  V30 675 H 65.7226 3.94659 -4.35337 0
M  V30 676 H 67.2466 4.7349 -3.85538 0
M  V30 677 H 68.6606 2.78083 -5.01341 0
M  V30 678 H 67.0576 2.2227 -5.57419 0
M  V30 679 H 68.1276 1.09331 -4.72414 0
M  V30 680 N 69.4707 1.49531 0.497807 0
M  V30 681 C 70.6987 1.62893 1.27567 0
M  V30 682 C 71.1137 0.301585 1.86376 0
M  V30 683 O 70.4707 -0.713335 1.67982 0
M  V30 684 C 70.5217 2.70013 2.40364 0
M  V30 685 O 70.2427 3.976 1.83972 0
M  V30 686 C 71.7437 2.94109 3.31685 0
M  V30 687 H 68.9637 0.548298 0.386794 0
M  V30 688 H 71.5077 1.95584 0.597245 0
M  V30 689 H 69.6627 2.40092 3.04031 0
M  V30 690 H 70.0767 4.56631 2.58047 0
M  V30 691 H 71.5507 3.72788 4.07104 0
M  V30 692 H 72.0277 2.04147 3.88871 0
M  V30 693 H 72.6337 3.2546 2.73781 0
M  V30 694 N 70.9488 -0.749086 1.3866 0
M  V30 695 C 72.1948 -1.51056 1.35314 0
M  V30 696 C 72.5278 -1.94121 -0.0553751 0
M  V30 697 O 71.8028 -1.65763 -1.01749 0
M  V30 698 C 72.0858 -2.76003 2.31288 0
M  V30 699 C 71.9388 -2.39047 3.8102 0
M  V30 700 C 73.2578 -3.78046 2.2532 0
M  V30 701 H 70.3768 -0.547972 0.492844 0
M  V30 702 H 73.0188 -0.857628 1.69543 0
M  V30 703 H 71.1688 -3.31716 2.02229 0
M  V30 704 H 72.8408 -1.89074 4.20771 0
M  V30 705 H 71.0838 -1.71449 3.98482 0
M  V30 706 H 71.7548 -3.28462 4.4364 0
M  V30 707 H 74.2308 -3.31884 2.50983 0
M  V30 708 H 73.1068 -4.63159 2.94576 0
M  V30 709 H 73.3678 -4.23957 1.25352 0
M  V30 710 N 72.4269 -1.23603 -0.977757 0
M  V30 711 C 73.3899 -1.02069 -2.05218 0
M  V30 712 C 74.3899 0.0184305 -1.60789 0
M  V30 713 O 75.5799 -0.221569 -1.72785 0
M  V30 714 C 72.7119 -0.544926 -3.36517 0
M  V30 715 H 73.9049 -1.9742 -2.25755 0
M  V30 716 H 71.4579 -1.05684 -1.15155 0
M  V30 717 H 72.1929 0.412241 -3.21669 0
M  V30 718 H 71.9779 -1.2948 -3.70105 0
M  V30 719 H 73.4679 -0.414985 -4.15533 0
M  V30 720 N 73.905 1.17692 -1.04816 0
M  V30 721 C 74.852 2.21581 -0.645797 0
M  V30 722 C 75.822 1.62367 0.350159 0
M  V30 723 O 77.007 1.89254 0.242433 0
M  V30 724 C 74.147 3.45092 -0.0227568 0
M  V30 725 C 73.26 4.18613 -1.06709 0
M  V30 726 C 72.395 5.29602 -0.411767 0
M  V30 727 C 71.434 5.94904 -1.44067 0
M  V30 728 N 70.571 6.97414 -0.809781 0
M  V30 729 H 75.411 2.55353 -1.5362 0
M  V30 730 H 72.948 1.25438 -0.768364 0
M  V30 731 H 74.906 4.15679 0.35588 0
M  V30 732 H 73.536 3.11917 0.831122 0
M  V30 733 H 72.588 3.46779 -1.5636 0
M  V30 734 H 73.9 4.63293 -1.84827 0
M  V30 735 H 73.054 6.06696 0.0206623 0
M  V30 736 H 71.793 4.86045 0.401438 0
M  V30 737 H 70.798 5.16544 -1.88316 0
M  V30 738 H 72.023 6.40542 -2.25571 0
M  V30 739 H 69.969 6.55998 -0.0170186 0
M  V30 740 H 69.886 7.40386 -1.52856 0
M  V30 741 H 71.154 7.78463 -0.401999 0
M  V30 742 N 75.3831 0.828654 1.34056 0
M  V30 743 C 76.6111 0.43262 2.02326 0
M  V30 744 C 77.0261 -0.963147 1.62385 0
M  V30 745 O 76.3831 -1.62425 0.832121 0
M  V30 746 C 76.4341 0.53182 3.57567 0
M  V30 747 O 76.1551 1.87258 3.96063 0
M  V30 748 C 77.6561 0.131422 4.43105 0
M  V30 749 H 74.8761 0.172923 0.648335 0
M  V30 750 H 77.4201 1.1184 1.71208 0
M  V30 751 H 75.5751 -0.105938 3.87255 0
M  V30 752 H 75.9891 1.85087 4.90758 0
M  V30 753 H 77.4631 0.251904 5.51425 0
M  V30 754 H 77.9401 -0.925645 4.29335 0
M  V30 755 H 78.5461 0.743207 4.18756 0
M  V30 756 N 76.8612 -1.46375 0.584142 0
M  V30 757 C 78.2772 -1.57694 0.245929 0
M  V30 758 C 78.4772 -1.57903 -1.25175 0
M  V30 759 O 77.5332 -1.49676 -2.03355 0
M  V30 760 C 78.8462 -2.87028 0.896402 0
M  V30 761 C 80.3942 -3.00662 0.870127 0
M  V30 762 C 80.8692 -4.32734 1.50017 0
M  V30 763 N 82.3602 -4.39436 1.46458 0
M  V30 764 C 83.0952 -5.40248 1.92144 0
M  V30 765 N 82.5912 -6.47726 2.4581 0
M  V30 766 N 84.3842 -5.31459 1.83052 0
M  V30 767 H 76.5352 -1.44483 1.55687 0
M  V30 768 H 78.7982 -0.689291 0.650831 0
M  V30 769 H 78.5042 -2.9269 1.95002 0
M  V30 770 H 78.3782 -3.75014 0.405486 0
M  V30 771 H 80.7652 -2.94581 -0.174871 0
M  V30 772 H 80.8462 -2.14148 1.39908 0
M  V30 773 H 80.4902 -4.39573 2.54437 0
M  V30 774 H 80.4202 -5.18025 0.946432 0
M  V30 775 H 82.9112 -3.62367 1.07231 0
M  V30 776 H 83.2242 -7.20863 2.78525 0
M  V30 777 H 81.5692 -6.48542 2.49836 0
M  V30 778 H 84.7602 -4.46396 1.40883 0
M  V30 779 H 84.9332 -6.09881 2.18973 0
M  V30 780 N 78.3393 -0.321999 -1.54275 0
M  V30 781 C 79.5873 0.280489 -2.00144 0
M  V30 782 C 79.9083 1.52777 -1.21178 0
M  V30 783 O 79.1783 1.9338 -0.313187 0
M  V30 784 H 77.7583 0.106632 -0.73935 0
M  V30 785 H 80.4203 -0.438184 -1.8991 0
M  V30 786 H 79.5163 0.537972 -3.07428 0
M  V30 787 N 79.8174 1.5752 -0.0501392 0
M  V30 788 C 80.7494 2.08413 0.95376 0
M  V30 789 C 81.7624 1.01175 1.27544 0
M  V30 790 O 82.9514 1.28744 1.23641 0
M  V30 791 C 80.0514 2.51138 2.27559 0
M  V30 792 C 79.2244 3.817 2.13598 0
M  V30 793 C 78.2834 4.10749 3.28895 0
M  V30 794 O 77.3094 4.80685 3.04845 0
M  V30 795 N 78.5114 3.62579 4.5334 0
M  V30 796 H 81.2764 2.95165 0.519383 0
M  V30 797 H 78.8374 1.61327 0.136127 0
M  V30 798 H 80.8294 2.67648 3.03557 0
M  V30 799 H 79.3994 1.6964 2.62567 0
M  V30 800 H 78.6194 3.74782 1.22197 0
M  V30 801 H 79.9074 4.67201 2.01496 0
M  V30 802 H 79.3054 3.06039 4.75769 0
M  V30 803 H 77.8624 3.84329 5.26436 0
M  V30 804 N 81.2955 -0.223234 1.56011 0
M  V30 805 C 82.2255 -1.27988 1.95298 0
M  V30 806 C 83.2065 -1.48976 0.820979 0
M  V30 807 O 84.3915 -1.61188 1.08315 0
M  V30 808 C 81.5215 -2.63 2.26822 0
M  V30 809 C 80.4755 -2.56671 3.42497 0
M  V30 810 C 79.8015 -3.95697 3.59622 0
M  V30 811 C 81.1015 -2.11601 4.77517 0
M  V30 812 H 82.7955 -0.953525 2.8381 0
M  V30 813 H 80.3415 -0.457244 1.36548 0
M  V30 814 H 82.2945 -3.37077 2.52898 0
M  V30 815 H 81.0185 -2.9732 1.35161 0
M  V30 816 H 79.6775 -1.85051 3.16467 0
M  V30 817 H 79.3255 -4.27322 2.6534 0
M  V30 818 H 79.0255 -3.92345 4.37424 0
M  V30 819 H 80.5495 -4.71438 3.88044 0
M  V30 820 H 81.9635 -2.7542 5.02809 0
M  V30 821 H 80.3605 -2.19311 5.5859 0
M  V30 822 H 81.4305 -1.06824 4.72987 0
M  V30 823 N 82.7736 -1.49793 -0.48987 0
M  V30 824 C 84.0016 -1.63568 -1.26701 0
M  V30 825 C 84.4166 -0.311465 -1.86213 0
M  V30 826 O 83.7736 0.704416 -1.68357 0
M  V30 827 C 83.8246 -2.71284 -2.38929 0
M  V30 828 O 83.5456 -3.9857 -1.81861 0
M  V30 829 C 85.0466 -2.95864 -3.3012 0
M  V30 830 H 82.2666 -0.550342 -0.383881 0
M  V30 831 H 84.8106 -1.95898 -0.586864 0
M  V30 832 H 82.9656 -2.417 -3.02753 0
M  V30 833 H 83.3796 -4.57993 -2.55622 0
M  V30 834 H 84.8536 -3.74941 -4.05121 0
M  V30 835 H 85.3306 -2.06206 -3.87783 0
M  V30 836 H 85.9366 -3.26907 -2.72051 0
M  V30 837 N 84.2517 0.741722 -1.39055 0
M  V30 838 C 85.5287 1.49252 -1.26425 0
M  V30 839 C 85.9087 2.10705 0.129144 0
M  V30 840 O 85.2567 1.98045 1.13976 0
M  V30 841 C 85.4667 2.54934 -2.38347 0
M  V30 842 C 86.8147 3.21506 -2.77343 0
M  V30 843 O 87.8387 2.65245 -2.37747 0
M  V30 844 O 86.6977 4.23294 -3.45665 0
M  V30 845 H 83.7917 0.662451 -0.495064 0
M  V30 846 H 86.3377 0.776121 -1.50912 0
M  V30 847 H 85.1097 2.07857 -3.31529 0
M  V30 848 H 84.7327 3.34141 -2.15489 0
M  V30 849 N 85.7298 1.2412 0.971189 0
M  V30 850 C 86.6928 1.03156 2.04674 0
M  V30 851 C 87.6928 -0.00990322 1.60797 0
M  V30 852 O 88.8828 0.230729 1.72665 0
M  V30 853 C 86.0148 0.562765 3.36223 0
M  V30 854 H 87.2078 1.98614 2.24705 0
M  V30 855 H 84.7608 1.06293 1.14593 0
M  V30 856 H 85.4958 -0.395176 3.21883 0
M  V30 857 H 85.2808 1.31441 3.69413 0
M  V30 858 H 86.7708 0.437015 4.15307 0
M  V30 859 N 87.2079 -1.17134 1.05439 0
M  V30 860 C 88.1709 -2.19439 0.661764 0
M  V30 861 C 89.1709 -1.58199 -0.288042 0
M  V30 862 O 90.3609 -1.74053 -0.0715803 0
M  V30 863 C 87.4929 -3.40889 -0.0276209 0
M  V30 864 H 88.6859 -2.55688 1.56728 0
M  V30 865 H 86.2389 -1.31259 0.848567 0
M  V30 866 H 86.9739 -3.10187 -0.94629 0
M  V30 867 H 86.7589 -3.86586 0.655238 0
M  V30 868 H 88.2489 -4.16603 -0.288342 0
M  V30 869 N 88.686 -0.835752 -1.33615 0
M  V30 870 C 90.097 -0.487099 -1.80234 0
M  V30 871 C 90.448 0.993627 -1.69179 0
M  V30 872 O 89.573 1.77403 -1.23924 0
M  V30 873 C 90.168 -0.877385 -3.27242 0
M  V30 874 C 88.727 -0.580915 -3.7189 0
M  V30 875 C 87.874 -1.0874 -2.5509 0
M  V30 876 H 90.825 -1.02474 -1.2118 0
M  V30 877 H 90.846 -0.186195 -3.80044 0
M  V30 878 H 90.358 -1.95512 -3.35256 0
M  V30 879 H 88.459 0.486881 -3.69405 0
M  V30 880 H 88.572 -1.13396 -4.65487 0
M  V30 881 H 86.936 -0.508392 -2.49575 0
M  V30 882 H 87.719 -2.17184 -2.65868 0
M  V30 883 N 90.1641 1.46063 -0.591896 0
M  V30 884 C 91.4131 2.01547 -0.0786637 0
M  V30 885 C 91.7261 1.46796 1.29268 0
M  V30 886 O 92.9321 1.94157 1.89777 0
M  V30 887 C 91.3881 3.59787 -0.0900024 0
M  V30 888 C 90.9961 4.23534 -1.46023 0
M  V30 889 C 92.7401 4.22895 0.368806 0
M  V30 890 C 90.6471 5.73881 -1.4288 0
M  V30 891 H 89.5771 0.753564 -0.0256388 0
M  V30 892 H 92.2281 1.677 -0.744905 0
M  V30 893 H 90.6101 3.90752 0.642586 0
M  V30 894 H 91.7841 4.04167 -2.21328 0
M  V30 895 H 90.0991 3.72558 -1.85982 0
M  V30 896 H 92.6961 5.33116 0.411258 0
M  V30 897 H 93.0391 3.9247 1.38827 0
M  V30 898 H 93.5721 3.9659 -0.31001 0
M  V30 899 H 90.3111 6.0898 -2.42536 0
M  V30 900 H 89.8311 5.95486 -0.718095 0
M  V30 901 H 91.5101 6.36776 -1.14565 0
M  V30 902 N 91.6422 0.330177 1.54103 0
M  V30 903 C 92.8902 -0.269871 2.0029 0
M  V30 904 C 93.2112 -1.52133 1.21986 0
M  V30 905 O 92.4812 -1.93212 0.323438 0
M  V30 906 H 91.0612 -0.10271 0.739905 0
M  V30 907 H 93.7232 0.448249 1.89675 0
M  V30 908 H 92.8192 -0.52166 3.07709 0
M  V30 909 N 93.1203 -1.57491 0.0584922 0
M  V30 910 C 94.5313 -1.80526 -0.476138 0
M  V30 911 C 94.8823 -0.971334 -1.70469 0
M  V30 912 O 94.0073 -0.190012 -2.15564 0
M  V30 913 C 94.6023 -3.27424 -0.870587 0
M  V30 914 C 93.1613 -3.51351 -1.35015 0
M  V30 915 C 92.3083 -2.75343 -0.32887 0
M  V30 916 H 95.2593 -1.56133 0.284312 0
M  V30 917 H 95.2803 -3.38745 -1.73299 0
M  V30 918 H 94.7923 -3.88093 0.0237627 0
M  V30 919 H 92.8933 -2.95971 -2.26345 0
M  V30 920 H 93.0063 -4.60059 -1.33726 0
M  V30 921 H 91.3703 -2.417 -0.803321 0
M  V30 922 H 92.1533 -3.38743 0.557521 0
M  V30 923 N 94.5984 0.214957 -1.56127 0
M  V30 924 C 95.8444 0.939762 -1.79712 0
M  V30 925 C 96.1774 1.83723 -0.629247 0
M  V30 926 O 95.4524 1.90925 0.371197 0
M  V30 927 C 95.7354 1.77306 -3.13424 0
M  V30 928 C 95.5884 0.90164 -4.40671 0
M  V30 929 C 96.9074 2.74956 -3.43638 0
M  V30 930 H 94.0264 0.340214 -0.653776 0
M  V30 931 H 96.6684 0.20824 -1.88855 0
M  V30 932 H 94.8184 2.39673 -3.0576 0
M  V30 933 H 96.4904 0.294206 -4.60361 0
M  V30 934 H 94.7334 0.207368 -4.33304 0
M  V30 935 H 95.4044 1.51923 -5.30682 0
M  V30 936 H 97.8804 2.22724 -3.51473 0
M  V30 937 H 96.7564 3.30358 -4.38355 0
M  V30 938 H 97.0174 3.53023 -2.66134 0
M  V30 939 N 96.0765 1.50051 0.48192 0
M  V30 940 C 97.3045 1.64237 1.25832 0
M  V30 941 C 97.7195 0.321336 1.86045 0
M  V30 942 O 97.0765 -0.695478 1.68729 0
M  V30 943 C 97.1275 2.72548 2.37487 0
M  V30 944 O 96.8485 3.99529 1.79745 0
M  V30 945 C 98.3495 2.9761 3.28547 0
M  V30 946 H 95.5695 0.55237 0.380957 0
M  V30 947 H 98.1135 1.96207 0.576467 0
M  V30 948 H 96.2685 2.43303 3.01467 0
M  V30 949 H 96.6825 4.59342 2.5319 0
M  V30 950 H 98.1565 3.77084 4.03127 0
M  V30 951 H 98.6335 2.0826 3.86684 0
M  V30 952 H 99.2395 3.28345 2.70314 0
M  V30 953 N 97.5546 -0.734337 1.39446 0
M  V30 954 C 98.8006 -1.49613 1.36908 0
M  V30 955 C 99.1336 -1.94169 -0.0347829 0
M  V30 956 O 98.4086 -1.66833 -0.999847 0
M  V30 957 C 98.6916 -2.73534 2.34203 0
M  V30 958 C 98.5446 -2.34993 3.83534 0
M  V30 959 C 99.8636 -3.75635 2.29317 0
M  V30 960 H 96.9826 -0.542714 0.498629 0
M  V30 961 H 99.6246 -0.839597 1.70443 0
M  V30 962 H 97.7746 -3.29553 2.05736 0
M  V30 963 H 99.4466 -1.84601 4.22753 0
M  V30 964 H 97.6896 -1.67213 4.00278 0
M  V30 965 H 98.3606 -3.23738 4.47099 0
M  V30 966 H 100.837 -3.29203 2.54489 0
M  V30 967 H 99.7126 -4.60008 2.99472 0
M  V30 968 H 99.9736 -4.22603 1.29842 0
M  V30 969 N 99.0327 -1.24633 -0.964593 0
M  V30 970 C 99.9647 -0.999302 -2.06268 0
M  V30 971 C 100.978 0.0323226 -1.62768 0
M  V30 972 O 102.167 -0.205079 -1.77318 0
M  V30 973 C 99.2667 -0.486816 -3.35385 0
M  V30 974 C 98.4397 -1.5823 -4.07777 0
M  V30 975 C 97.4987 -1.07191 -5.15166 0
M  V30 976 O 96.5247 -1.76426 -5.41168 0
M  V30 977 N 97.7267 0.0920373 -5.80427 0
M  V30 978 H 100.492 -1.94477 -2.28033 0
M  V30 979 H 98.0527 -1.15704 -1.13244 0
M  V30 980 H 100.045 -0.130066 -4.04491 0
M  V30 981 H 98.6147 0.364459 -3.10468 0
M  V30 982 H 97.8347 -2.11109 -3.32906 0
M  V30 983 H 99.1227 -2.31854 -4.52903 0
M  V30 984 H 98.5207 0.670784 -5.61709 0
M  V30 985 H 97.0777 0.389905 -6.50633 0
M  V30 986 N 100.511 1.16574 -1.06058 0
M  V30 987 C 101.474 2.19085 -0.673392 0
M  V30 988 C 102.474 1.5835 0.279648 0
M  V30 989 O 103.664 1.74088 0.0623488 0
M  V30 990 C 100.796 3.40899 0.00954234 0
M  V30 991 H 101.989 2.54853 -1.58081 0
M  V30 992 H 99.5418 1.30808 -0.855516 0
M  V30 993 H 100.277 3.10684 0.929826 0
M  V30 994 H 100.062 3.86233 -0.67573 0
M  V30 995 H 101.552 4.1675 0.266245 0
M  V30 996 N 101.989 0.842826 1.3317 0
M  V30 997 C 102.919 0.294028 2.31641 0
M  V30 998 C 103.9 -0.600401 1.59151 0
M  V30 999 O 105.085 -0.523124 1.87022 0
M  V30 1000 C 102.215 -0.528416 3.43257 0
M  V30 1001 C 101.169 0.27056 4.27144 0
M  V30 1002 C 100.495 -0.675881 5.30411 0
M  V30 1003 C 101.795 1.48981 5.00602 0
M  V30 1004 H 103.489 1.11681 2.77791 0
M  V30 1005 H 101.035 0.538478 1.33553 0
M  V30 1006 H 102.988 -0.922674 4.11175 0
M  V30 1007 H 101.712 -1.38445 2.95805 0
M  V30 1008 H 100.371 0.646427 3.60856 0
M  V30 1009 H 100.019 -1.52842 4.79216 0
M  V30 1010 H 99.7189 -0.145374 5.8742 0
M  V30 1011 H 101.243 -1.06757 6.01195 0
M  V30 1012 H 102.657 1.16849 5.61266 0
M  V30 1013 H 101.054 1.95739 5.6728 0
M  V30 1014 H 102.124 2.25746 4.29147 0
M  V30 1015 N 103.467 -1.45747 0.599634 0
M  V30 1016 C 104.715 -2.01893 0.0915472 0
M  V30 1017 C 105.036 -1.47155 -1.27946 0
M  V30 1018 O 104.306 -0.66273 -1.84349 0
M  V30 1019 H 102.886 -0.746363 0.0308524 0
M  V30 1020 H 105.548 -1.78645 0.779237 0
M  V30 1021 H 104.644 -3.1208 0.0353086 0
M  V30 1022 N 104.945 -0.338344 -1.53925 0
M  V30 1023 C 106.185 0.260168 -2.02737 0
M  V30 1024 C 106.549 1.48181 -1.22092 0
M  V30 1025 O 107.75 2.15416 -1.60777 0
M  V30 1026 C 106.021 0.571627 -3.52799 0
M  V30 1027 S 107.58 1.14769 -4.23525 0
M  V30 1028 H 104.398 0.077791 -0.706732 0
M  V30 1029 H 107 -0.474899 -1.89644 0
M  V30 1030 H 105.704 -0.325392 -4.09108 0
M  V30 1031 H 105.235 1.3365 -3.70002 0
M  V30 1032 H 107.25 2.43372 -4.32417 0
M  V30 1033 N 106.423 1.57458 -0.0668435 0
M  V30 1034 C 107.371 2.13639 0.919851 0
M  V30 1035 C 108.365 1.07204 1.31163 0
M  V30 1036 O 109.571 1.25591 1.28945 0
M  V30 1037 H 105.946 0.683048 0.314562 0
M  V30 1038 H 107.917 2.95415 0.421047 0
M  V30 1039 C 106.666 2.70892 2.17975 0
M  V30 1040 H 105.989 3.5246 1.88711 0
M  V30 1041 H 107.429 3.13803 2.85138 0
M  V30 1042 C 105.888 1.65414 2.93496 0
M  V30 1043 O 106.418 1.07619 3.87015 0
M  V30 1044 N 104.624 1.36564 2.56512 0
M  V30 1045 H 104.171 1.83751 1.80536 0
M  V30 1046 H 104.129 0.66223 3.07347 0
M  V30 1047 N 107.901 -0.206675 1.56239 0
M  V30 1048 C 108.864 -1.23976 1.92776 0
M  V30 1049 C 109.864 -1.39041 0.807729 0
M  V30 1050 O 111.054 -1.37051 1.0753 0
M  V30 1051 C 108.186 -2.61112 2.19165 0
M  V30 1052 H 109.379 -0.927764 2.85189 0
M  V30 1053 H 106.932 -0.447718 1.4975 0
M  V30 1054 H 107.667 -2.97386 1.29352 0
M  V30 1055 H 107.452 -2.51552 3.00772 0
M  V30 1056 H 108.942 -3.35633 2.48476 0
M  V30 1057 N 109.379 -1.50304 -0.473955 0
M  V30 1058 C 110.795 -1.37667 -0.807466 0
M  V30 1059 C 110.995 -0.430555 -1.96846 0
M  V30 1060 O 110.051 0.127874 -2.52176 0
M  V30 1061 C 111.364 -2.78974 -1.12223 0
M  V30 1062 C 112.912 -2.87868 -1.22885 0
M  V30 1063 C 113.387 -4.30003 -1.57676 0
M  V30 1064 N 114.878 -4.3294 -1.64673 0
M  V30 1065 C 115.613 -5.3991 -1.93091 0
M  V30 1066 N 115.109 -6.57092 -2.1955 0
M  V30 1067 N 116.902 -5.27351 -1.94569 0
M  V30 1068 H 109.053 -2.10394 0.291212 0
M  V30 1069 H 111.316 -0.945575 0.0677609 0
M  V30 1070 H 111.022 -3.50031 -0.342229 0
M  V30 1071 H 110.896 -3.16038 -2.05913 0
M  V30 1072 H 113.283 -2.17032 -1.99953 0
M  V30 1073 H 113.364 -2.54352 -0.271814 0
M  V30 1074 H 113.008 -5.01375 -0.81149 0
M  V30 1075 H 112.938 -4.61004 -2.54525 0
M  V30 1076 H 115.429 -3.48441 -1.46277 0
M  V30 1077 H 115.742 -7.34425 -2.405 0
M  V30 1078 H 114.087 -6.60272 -2.16948 0
M  V30 1079 H 117.278 -4.34801 -1.73394 0
M  V30 1080 H 117.451 -6.10805 -2.16381 0
M  V30 1081 N 110.857 0.726932 -1.39834 0
M  V30 1082 C 111.789 1.85147 -1.35104 0
M  V30 1083 C 112.802 1.60736 -0.258392 0
M  V30 1084 O 113.991 1.70821 -0.517931 0
M  V30 1085 C 111.091 3.21332 -1.07697 0
M  V30 1086 C 110.264 3.73033 -2.28396 0
M  V30 1087 C 109.323 4.87802 -1.97322 0
M  V30 1088 O 108.349 5.01043 -2.70083 0
M  V30 1089 N 109.551 5.72768 -0.944273 0
M  V30 1090 H 112.316 1.89706 -2.32017 0
M  V30 1091 H 109.877 0.908006 -1.3404 0
M  V30 1092 H 111.869 3.95691 -0.849144 0
M  V30 1093 H 110.439 3.11992 -0.194909 0
M  V30 1094 H 109.659 2.89934 -2.6708 0
M  V30 1095 H 110.947 4.0431 -3.08887 0
M  V30 1096 H 110.345 5.64669 -0.341427 0
M  V30 1097 H 108.902 6.4716 -0.776346 0
M  V30 1098 N 112.336 1.25143 0.95797 0
M  V30 1099 C 113.582 1.09855 1.70469 0
M  V30 1100 C 113.915 -0.360187 1.90831 0
M  V30 1101 O 113.19 -1.26568 1.47685 0
M  V30 1102 C 113.473 1.8497 3.08963 0
M  V30 1103 C 113.326 3.38652 2.96032 0
M  V30 1104 C 114.645 1.63016 4.08795 0
M  V30 1105 H 111.764 0.400465 0.618706 0
M  V30 1106 H 114.406 1.53933 1.11376 0
M  V30 1107 H 112.556 1.47505 3.59409 0
M  V30 1108 H 114.228 3.85772 2.52938 0
M  V30 1109 H 112.471 3.66534 2.32025 0
M  V30 1110 H 113.142 3.8642 3.94187 0
M  V30 1111 H 115.618 1.95625 3.67247 0
M  V30 1112 H 114.494 2.18015 5.03747 0
M  V30 1113 H 114.755 0.570692 4.38401 0
M  V30 1114 N 113.814 -1.1601 1.06675 0
M  V30 1115 C 114.777 -2.18724 0.685001 0
M  V30 1116 C 115.777 -1.58496 -0.271246 0
M  V30 1117 O 116.967 -1.74119 -0.0531156 0
M  V30 1118 C 114.099 -3.40899 0.00853648 0
M  V30 1119 H 115.292 -2.54011 1.59431 0
M  V30 1120 H 112.845 -1.30352 0.862441 0
M  V30 1121 H 113.58 -3.11173 -0.913337 0
M  V30 1122 H 113.365 -3.8587 0.696204 0
M  V30 1123 H 114.855 -4.16886 -0.24414 0
M  V30 1124 N 115.292 -0.849877 -1.32721 0
M  V30 1125 C 116.222 -0.306308 -2.31482 0
M  V30 1126 C 117.203 0.591952 -1.59468 0
M  V30 1127 O 118.388 0.513199 -1.87296 0
M  V30 1128 C 115.518 0.510204 -3.43532 0
M  V30 1129 C 114.472 -0.293209 -4.26994 0
M  V30 1130 C 113.798 0.647743 -5.30762 0
M  V30 1131 C 115.098 -1.51634 -4.99804 0
M  V30 1132 H 116.792 -1.13153 -2.77195 0
M  V30 1133 H 114.338 -0.545553 -1.33266 0
M  V30 1134 H 116.291 0.900856 -4.11658 0
M  V30 1135 H 115.015 1.36874 -2.96535 0
M  V30 1136 H 113.674 -0.665555 -3.60508 0
M  V30 1137 H 113.322 1.50299 -4.8002 0
M  V30 1138 H 113.022 0.11422 -5.87489 0
M  V30 1139 H 114.546 1.03567 -6.01753 0
M  V30 1140 H 115.96 -1.19824 -5.60638 0
M  V30 1141 H 114.357 -1.98745 -5.66234 0
M  V30 1142 H 115.427 -2.28018 -4.27943 0
M  V30 1143 N 116.77 1.45427 -0.607355 0
M  V30 1144 C 117.717 2.3053 0.111625 0
M  V30 1145 C 118.687 1.4209 0.860216 0
M  V30 1146 O 119.872 1.71019 0.845998 0
M  V30 1147 C 117.012 3.26992 1.10319 0
M  V30 1148 C 116.125 4.30535 0.355493 0
M  V30 1149 C 115.26 5.14105 1.33676 0
M  V30 1150 C 114.299 6.09376 0.576862 0
M  V30 1151 N 113.436 6.85727 1.5074 0
M  V30 1152 H 118.276 2.91477 -0.620093 0
M  V30 1153 H 115.813 1.43631 -0.317594 0
M  V30 1154 H 117.771 3.81385 1.6912 0
M  V30 1155 H 116.401 2.67799 1.80232 0
M  V30 1156 H 115.453 3.78805 -0.348023 0
M  V30 1157 H 116.765 4.98235 -0.237423 0
M  V30 1158 H 115.919 5.72897 1.99684 0
M  V30 1159 H 114.658 4.46423 1.9636 0
M  V30 1160 H 113.663 5.49715 -0.0968519 0
M  V30 1161 H 114.888 6.79085 -0.0449341 0
M  V30 1162 H 112.834 6.20735 2.12189 0
M  V30 1163 H 112.751 7.49778 0.967913 0
M  V30 1164 H 114.019 7.4906 2.15706 0
M  V30 1165 N 118.248 0.346503 1.53744 0
M  V30 1166 C 119.211 -0.496439 2.23759 0
M  V30 1167 C 120.211 -1.0252 1.2388 0
M  V30 1168 O 121.401 -0.913974 1.48297 0
M  V30 1169 C 118.533 -1.69187 2.95954 0
M  V30 1170 H 119.726 0.115952 2.99676 0
M  V30 1171 H 117.279 0.0978939 1.55993 0
M  V30 1172 H 118.014 -2.34288 2.24231 0
M  V30 1173 H 117.799 -1.31989 3.69217 0
M  V30 1174 H 119.289 -2.28969 3.49232 0
M  V30 1175 N 119.726 -1.57421 0.075193 0
M  V30 1176 C 121.003 -1.85029 -0.634329 0
M  V30 1177 C 121.383 -0.968305 -1.87582 0
M  V30 1178 O 120.731 -0.0354749 -2.28472 0
M  V30 1179 C 120.941 -3.35286 -0.968742 0
M  V30 1180 C 122.289 -4.02875 -1.34077 0
M  V30 1181 O 123.313 -3.40051 -1.06037 0
M  V30 1182 O 122.172 -5.13691 -1.86506 0
M  V30 1183 H 119.266 -0.7645 -0.315387 0
M  V30 1184 H 121.812 -1.69366 0.106382 0
M  V30 1185 H 120.584 -3.91203 -0.0871376 0
M  V30 1186 H 120.207 -3.56223 -1.7661 0
M  V30 1187 N 121.204 0.198386 -1.56346 0
M  V30 1188 C 122.432 0.935572 -1.84539 0
M  V30 1189 C 122.847 1.76989 -0.657281 0
M  V30 1190 O 122.204 1.78626 0.374043 0
M  V30 1191 C 122.255 1.8344 -3.11499 0
M  V30 1192 O 121.976 1.03377 -4.25728 0
M  V30 1193 C 123.477 2.68355 -3.52846 0
M  V30 1194 H 120.697 0.273126 -0.612897 0
M  V30 1195 H 123.241 0.20663 -2.03453 0
M  V30 1196 H 121.396 2.51701 -2.94492 0
M  V30 1197 H 121.81 1.64599 -4.98003 0
M  V30 1198 H 123.284 3.27085 -4.44657 0
M  V30 1199 H 123.761 3.41901 -2.75681 0
M  V30 1200 H 124.367 2.05471 -3.72373 0
M  V30 1201 N 122.682 1.50554 0.465978 0
M  V30 1202 C 123.959 1.5232 1.22712 0
M  V30 1203 C 124.339 0.270807 2.09356 0
M  V30 1204 O 123.687 -0.745541 2.15995 0
M  V30 1205 C 123.897 2.82175 2.05374 0
M  V30 1206 C 125.245 3.33033 2.6339 0
M  V30 1207 O 126.269 2.83531 2.15612 0
M  V30 1208 O 125.128 4.19336 3.50456 0
M  V30 1209 H 122.222 0.611183 0.557122 0
M  V30 1210 H 124.768 1.62847 0.477381 0
M  V30 1211 H 123.54 3.64797 1.41558 0
M  V30 1212 H 123.163 2.74675 2.87471 0
M  V30 1213 N 124.16 -0.719506 1.40217 0
M  V30 1214 C 125.108 -1.85493 1.40339 0
M  V30 1215 C 126.102 -1.66995 0.284415 0
M  V30 1216 O 127.308 -1.74148 0.455252 0
M  V30 1217 H 123.683 -0.610857 0.438586 0
M  V30 1218 H 125.654 -1.82506 2.36081 0
M  V30 1219 C 124.403 -3.23321 1.27901 0
M  V30 1220 H 123.726 -3.38159 2.1328 0
M  V30 1221 H 125.166 -4.02914 1.32045 0
M  V30 1222 C 123.625 -3.36898 -0.0111355 0
M  V30 1223 O 124.155 -3.89674 -0.975538 0
M  V30 1224 N 122.361 -2.90492 -0.0793393 0
M  V30 1225 H 121.908 -2.47731 0.706183 0
M  V30 1226 H 121.866 -2.99955 -0.942038 0
M  V30 1227 N 125.638 -1.25649 -0.95132 0
M  V30 1228 C 126.885 -1.10594 -1.69633 0
M  V30 1229 C 127.213 0.352515 -1.91279 0
M  V30 1230 O 126.468 1.27601 -1.4838 0
M  V30 1231 C 126.767 -1.80909 -3.08231 0
M  V30 1232 C 126.433 -3.30825 -3.06375 0
M  V30 1233 C 125.095 -3.71722 -3.05576 0
M  V30 1234 C 127.447 -4.26589 -2.99452 0
M  V30 1235 C 124.775 -5.06788 -2.95606 0
M  V30 1236 C 127.127 -5.61683 -2.91024 0
M  V30 1237 C 125.791 -6.01904 -2.88562 0
M  V30 1238 H 125.061 -0.404691 -0.620731 0
M  V30 1239 H 127.708 -1.55964 -1.11119 0
M  V30 1240 H 126.013 -1.27979 -3.70309 0
M  V30 1241 H 127.71 -1.6671 -3.64704 0
M  V30 1242 H 124.3 -2.98287 -3.07771 0
M  V30 1243 H 128.484 -3.95982 -2.99185 0
M  V30 1244 H 123.74 -5.37126 -2.92071 0
M  V30 1245 H 127.914 -6.35578 -2.84629 0
M  V30 1246 H 125.541 -7.06521 -2.80593 0
M  V30 1247 N 127.117 1.15442 -1.07289 0
M  V30 1248 C 128.027 2.23786 -0.704057 0
M  V30 1249 C 129.043 1.7166 0.284413 0
M  V30 1250 O 130.219 2.00972 0.131205 0
M  V30 1251 C 127.284 3.46535 -0.106792 0
M  V30 1252 C 126.345 4.13654 -1.14842 0
M  V30 1253 C 125.578 5.30544 -0.57956 0
M  V30 1254 O 125.801 5.67187 0.604585 0
M  V30 1255 O 124.735 5.87154 -1.32414 0
M  V30 1256 H 128.561 2.57664 -1.60757 0
M  V30 1257 H 126.146 1.23152 -0.845803 0
M  V30 1258 H 128.028 4.20804 0.224048 0
M  V30 1259 H 126.703 3.14407 0.770049 0
M  V30 1260 H 125.61 3.4131 -1.5316 0
M  V30 1261 H 126.943 4.49861 -1.99714 0
M  V30 1262 N 128.595 0.856903 1.32268 0
M  V30 1263 C 129.527 0.260412 2.27716 0
M  V30 1264 C 130.54 -0.569137 1.52528 0
M  V30 1265 O 131.729 -0.39326 1.74114 0
M  V30 1266 C 128.829 -0.650477 3.32599 0
M  V30 1267 C 128.002 0.14372 4.37164 0
M  V30 1268 C 127.061 -0.69328 5.21613 0
M  V30 1269 O 126.087 -0.12599 5.69061 0
M  V30 1270 N 127.289 -2.00761 5.44679 0
M  V30 1271 H 130.054 1.08059 2.79541 0
M  V30 1272 H 127.615 0.717103 1.45152 0
M  V30 1273 H 129.607 -1.21581 3.86005 0
M  V30 1274 H 128.177 -1.37133 2.80915 0
M  V30 1275 H 127.397 0.890486 3.8401 0
M  V30 1276 H 128.685 0.68915 5.04111 0
M  V30 1277 H 128.083 -2.49181 5.07863 0
M  V30 1278 H 126.64 -2.52103 6.01072 0
M  V30 1279 N 130.073 -1.45103 0.615059 0
M  V30 1280 C 131.321 -2.01784 0.112955 0
M  V30 1281 C 131.642 -1.48504 -1.26378 0
M  V30 1282 O 130.912 -0.682245 -1.83636 0
M  V30 1283 H 129.492 -0.745993 0.0387668 0
M  V30 1284 H 132.154 -1.77808 0.798141 0
M  V30 1285 H 131.25 -3.12025 0.0684069 0
M  V30 1286 N 131.551 -0.354651 -1.53558 0
M  V30 1287 C 132.498 0.496968 -2.25386 0
M  V30 1288 C 133.468 1.0865 -1.25636 0
M  V30 1289 O 134.653 1.12104 -1.54394 0
M  V30 1290 C 131.793 1.63637 -3.03837 0
M  V30 1291 C 130.906 1.07307 -4.18461 0
M  V30 1292 C 130.041 2.18068 -4.84376 0
M  V30 1293 C 129.08 1.59147 -5.91049 0
M  V30 1294 N 128.217 2.63695 -6.50699 0
M  V30 1295 H 133.057 -0.122075 -2.9775 0
M  V30 1296 H 130.594 -0.0720154 -1.46924 0
M  V30 1297 H 132.552 2.30734 -3.47589 0
M  V30 1298 H 131.182 2.22623 -2.33749 0
M  V30 1299 H 130.234 0.292708 -3.79272 0
M  V30 1300 H 131.546 0.602193 -4.95152 0
M  V30 1301 H 130.7 2.93007 -5.31255 0
M  V30 1302 H 129.439 2.68504 -4.07133 0
M  V30 1303 H 128.444 0.827175 -5.43542 0
M  V30 1304 H 129.669 1.09549 -6.70206 0
M  V30 1305 H 127.615 3.13365 -5.76315 0
M  V30 1306 H 127.532 2.21263 -7.22896 0
M  V30 1307 H 128.8 3.3837 -7.02229 0
M  V30 1308 N 133.029 1.57378 -0.0835403 0
M  V30 1309 C 134.276 1.9393 0.58287 0
M  V30 1310 C 134.604 0.964455 1.68904 0
M  V30 1311 O 133.859 -0.0179474 1.95692 0
M  V30 1312 C 134.158 3.37063 1.1884 0
M  V30 1313 C 133.824 4.50424 0.207194 0
M  V30 1314 C 132.486 4.81159 -0.0627115 0
M  V30 1315 C 134.838 5.19136 -0.463426 0
M  V30 1316 C 132.166 5.77939 -1.01012 0
M  V30 1317 C 134.518 6.16931 -1.39924 0
M  V30 1318 C 133.182 6.46078 -1.67749 0
M  V30 1319 H 132.452 0.70964 0.213287 0
M  V30 1320 H 135.099 1.90856 -0.156916 0
M  V30 1321 H 133.404 3.3666 2.00418 0
M  V30 1322 H 135.101 3.6264 1.71153 0
M  V30 1323 H 131.691 4.2646 0.427747 0
M  V30 1324 H 135.875 4.95576 -0.268034 0
M  V30 1325 H 131.131 5.98842 -1.23283 0
M  V30 1326 H 135.305 6.69273 -1.92476 0
M  V30 1327 H 132.932 7.2088 -2.41321 0
M  V30 1328 N 134.507 -0.190092 1.56449 0
M  V30 1329 C 135.754 -0.909705 1.80916 0
M  V30 1330 C 136.082 -1.83047 0.657583 0
M  V30 1331 O 135.337 -1.92428 -0.356356 0
M  V30 1332 C 135.636 -1.75382 3.1141 0
M  V30 1333 C 135.302 -0.983606 4.40041 0
M  V30 1334 C 133.964 -0.770967 4.74984 0
M  V30 1335 C 136.316 -0.442024 5.19322 0
M  V30 1336 C 133.644 -0.0053448 5.867 0
M  V30 1337 C 135.996 0.310412 6.31838 0
M  V30 1338 C 134.66 0.534023 6.6536 0
M  V30 1339 H 133.93 -0.332885 0.662019 0
M  V30 1340 H 136.577 -0.175762 1.90692 0
M  V30 1341 H 134.882 -2.55659 2.96893 0
M  V30 1342 H 136.579 -2.31331 3.27547 0
M  V30 1343 H 133.169 -1.15936 4.12622 0
M  V30 1344 H 137.353 -0.593693 4.92736 0
M  V30 1345 H 132.609 0.177825 6.11141 0
M  V30 1346 H 136.783 0.737419 6.92485 0
M  V30 1347 H 134.41 1.12918 7.51767 0
M  V30 1348 N 135.985 -1.50799 -0.457987 0
M  V30 1349 C 136.915 -1.73553 -1.5621 0
M  V30 1350 C 137.896 -0.584774 -1.59732 0
M  V30 1351 O 139.081 -0.825314 -1.7579 0
M  V30 1352 C 136.211 -1.84169 -2.94447 0
M  V30 1353 C 135.165 -2.99461 -3.0579 0
M  V30 1354 C 134.491 -2.95235 -4.45803 0
M  V30 1355 C 135.791 -4.39766 -2.81786 0
M  V30 1356 H 137.485 -2.66 -1.37421 0
M  V30 1357 H 135.031 -1.28002 -0.659662 0
M  V30 1358 H 136.984 -1.98672 -3.71628 0
M  V30 1359 H 135.708 -0.883545 -3.14422 0
M  V30 1360 H 134.367 -2.8463 -2.31044 0
M  V30 1361 H 134.015 -1.97239 -4.62715 0
M  V30 1362 H 133.715 -3.72642 -4.54326 0
M  V30 1363 H 135.239 -3.11803 -5.24987 0
M  V30 1364 H 136.653 -4.55054 -3.4871 0
M  V30 1365 H 135.05 -5.18722 -3.0174 0
M  V30 1366 H 136.12 -4.51229 -1.7754 0
M  V30 1367 N 137.463 0.71206 -1.40597 0
M  V30 1368 C 138.712 1.46754 -1.38369 0
M  V30 1369 C 139.025 1.95598 0.0097839 0
M  V30 1370 O 140.231 2.71059 0.154677 0
M  V30 1371 C 138.687 2.65289 -2.43207 0
M  V30 1372 C 138.295 2.23301 -3.88382 0
M  V30 1373 C 140.039 3.43008 -2.50091 0
M  V30 1374 C 137.946 3.38696 -4.84808 0
M  V30 1375 H 136.876 0.55118 -0.514506 0
M  V30 1376 H 139.527 0.774616 -1.66349 0
M  V30 1377 H 137.909 3.36769 -2.08332 0
M  V30 1378 H 139.083 1.59218 -4.32419 0
M  V30 1379 H 137.398 1.58618 -3.85006 0
M  V30 1380 H 139.995 4.28881 -3.1932 0
M  V30 1381 H 140.338 3.87065 -1.53253 0
M  V30 1382 H 140.871 2.78574 -2.83974 0
M  V30 1383 H 137.61 2.99668 -5.82992 0
M  V30 1384 H 137.13 4.01683 -4.45433 0
M  V30 1385 H 138.809 4.04712 -5.04794 0
M  V30 1386 N 138.941 1.26152 0.944643 0
M  V30 1387 C 140.166 1.14363 1.7302 0
M  V30 1388 C 140.591 -0.29772 1.85729 0
M  V30 1389 O 139.949 -1.2157 1.34501 0
M  V30 1390 C 139.997 1.81378 3.11664 0
M  V30 1391 O 139.101 1.10022 3.97453 0
M  V30 1392 H 138.442 0.398694 0.53098 0
M  V30 1393 H 140.972 1.66906 1.18337 0
M  V30 1394 H 140.982 1.88064 3.62072 0
M  V30 1395 H 139.657 2.86237 3.0173 0
M  V30 1396 H 138.234 1.11287 3.55907 0
M  V30 1397 N 140.419 -1.14872 1.07899 0
M  V30 1398 C 141.696 -1.81928 0.71845 0
M  V30 1399 C 142.076 -1.95417 -0.798455 0
M  V30 1400 O 141.424 -1.50997 -1.715 0
M  V30 1401 C 141.634 -3.17937 1.43935 0
M  V30 1402 C 142.982 -3.93501 1.59506 0
M  V30 1403 O 144.006 -3.27509 1.40058 0
M  V30 1404 O 142.865 -5.1183 1.91551 0
M  V30 1405 H 139.959 -0.78628 0.256305 0
M  V30 1406 H 142.505 -1.21934 1.18026 0
M  V30 1407 H 141.277 -3.0325 2.47295 0
M  V30 1408 H 140.9 -3.85619 0.968687 0
M  V30 1409 N 141.898 -0.863906 -1.31812 0
M  V30 1410 C 142.846 -0.30422 -2.30602 0
M  V30 1411 C 143.84 0.577419 -1.59255 0
M  V30 1412 O 145.046 0.464194 -1.73912 0
M  V30 1413 H 141.421 -0.0796877 -0.747766 0
M  V30 1414 H 143.392 -1.15148 -2.75288 0
M  V30 1415 C 142.141 0.484617 -3.44306 0
M  V30 1416 H 141.464 -0.18451 -3.99374 0
M  V30 1417 H 142.904 0.841664 -4.15562 0
M  V30 1418 C 141.363 1.6735 -2.92396 0
M  V30 1419 O 141.893 2.77273 -2.90659 0
M  V30 1420 N 140.099 1.50362 -2.48676 0
M  V30 1421 H 139.646 0.609402 -2.50288 0
M  V30 1422 H 139.604 2.30051 -2.14299 0
M  V30 1423 N 143.376 1.44774 -0.622745 0
M  V30 1424 C 144.324 2.32387 0.0994683 0
M  V30 1425 C 145.318 1.46859 0.844326 0
M  V30 1426 O 146.524 1.63254 0.758174 0
M  V30 1427 H 142.899 0.750273 0.0509291 0
M  V30 1428 H 144.87 2.91062 -0.65767 0
M  V30 1429 C 143.619 3.30723 1.07319 0
M  V30 1430 H 142.942 3.96541 0.509462 0
M  V30 1431 H 144.382 3.94725 1.54817 0
M  V30 1432 C 142.841 2.59021 2.15429 0
M  V30 1433 O 143.371 2.38286 3.23393 0
M  V30 1434 N 141.577 2.189 1.91131 0
M  V30 1435 H 141.124 2.35964 1.03337 0
M  V30 1436 H 141.082 1.71251 2.63668 0
M  V30 1437 N 144.854 0.36279 1.53368 0
M  V30 1438 C 146.27 0.0116182 1.59596 0
M  V30 1439 C 146.47 -1.47012 1.37803 0
M  V30 1440 O 145.526 -2.23136 1.18181 0
M  V30 1441 C 146.839 0.465052 2.97082 0
M  V30 1442 C 148.387 0.419033 3.10182 0
M  V30 1443 C 148.862 0.848235 4.50077 0
M  V30 1444 N 150.353 0.803183 4.56183 0
M  V30 1445 C 151.088 1.107 5.62613 0
M  V30 1446 N 150.584 1.47996 6.76808 0
M  V30 1447 N 152.377 1.02998 5.52583 0
M  V30 1448 H 144.528 1.32775 1.65785 0
M  V30 1449 H 146.791 0.542518 0.777417 0
M  V30 1450 H 146.497 1.49892 3.18159 0
M  V30 1451 H 146.371 -0.149786 3.76902 0
M  V30 1452 H 148.758 -0.605696 2.88817 0
M  V30 1453 H 148.839 1.06933 2.32377 0
M  V30 1454 H 148.483 1.87107 4.7218 0
M  V30 1455 H 148.413 0.175218 5.26308 0
M  V30 1456 H 150.904 0.52838 3.74188 0
M  V30 1457 H 151.217 1.69613 7.53957 0
M  V30 1458 H 149.562 1.51859 6.78206 0
M  V30 1459 H 152.753 0.737817 4.62249 0
M  V30 1460 H 152.926 1.2701 6.35431 0
M  V30 1461 N 146.332 -1.57332 0.0918853 0
M  V30 1462 C 147.609 -1.85691 -0.614668 0
M  V30 1463 C 147.989 -0.988146 -1.86545 0
M  V30 1464 O 147.337 -0.0597055 -2.28422 0
M  V30 1465 C 147.547 -3.36294 -0.933126 0
M  V30 1466 C 148.895 -4.04275 -1.29796 0
M  V30 1467 O 149.919 -3.41157 -1.02424 0
M  V30 1468 O 148.778 -5.1564 -1.81047 0
M  V30 1469 H 145.872 -0.767802 -0.307261 0
M  V30 1470 H 148.418 -1.69244 0.12434 0
M  V30 1471 H 147.19 -3.91273 -0.0456404 0
M  V30 1472 H 146.813 -3.58076 -1.72822 0
M  V30 1473 N 147.81 0.181792 -1.56548 0
M  V30 1474 C 148.757 1.22521 -1.95595 0
M  V30 1475 C 149.727 1.4454 -0.818373 0
M  V30 1476 O 150.912 1.57454 -1.07763 0
M  V30 1477 C 148.052 2.56193 -2.31212 0
M  V30 1478 C 147.165 2.41641 -3.58097 0
M  V30 1479 C 146.3 3.68108 -3.82975 0
M  V30 1480 C 145.339 3.48445 -5.03242 0
M  V30 1481 N 144.476 4.66956 -5.24306 0
M  V30 1482 H 149.316 0.885226 -2.84548 0
M  V30 1483 H 146.853 0.425718 -1.40805 0
M  V30 1484 H 148.811 3.34088 -2.49882 0
M  V30 1485 H 147.441 2.88208 -1.45382 0
M  V30 1486 H 146.493 1.54976 -3.474 0
M  V30 1487 H 147.805 2.23052 -4.46149 0
M  V30 1488 H 146.959 4.54441 -4.01956 0
M  V30 1489 H 145.698 3.89666 -2.93278 0
M  V30 1490 H 144.703 2.60499 -4.8417 0
M  V30 1491 H 145.928 3.2832 -5.9446 0
M  V30 1492 H 143.874 4.88752 -4.37559 0
M  V30 1493 H 143.791 4.51242 -6.06561 0
M  V30 1494 H 145.059 5.54602 -5.47756 0
M  V30 1495 N 149.288 1.51039 0.449983 0
M  V30 1496 C 150.218 1.74379 1.55288 0
M  V30 1497 C 151.199 0.593236 1.5942 0
M  V30 1498 O 152.384 0.834625 1.7535 0
M  V30 1499 C 149.514 1.85728 2.93466 0
M  V30 1500 C 148.468 3.01078 3.04197 0
M  V30 1501 C 147.794 2.97595 4.44231 0
M  V30 1502 C 149.094 4.41254 2.7945 0
M  V30 1503 H 150.788 2.66725 1.36008 0
M  V30 1504 H 148.334 1.2835 0.652864 0
M  V30 1505 H 150.287 2.0064 3.70569 0
M  V30 1506 H 149.011 0.900207 3.13949 0
M  V30 1507 H 147.67 2.85851 2.29531 0
M  V30 1508 H 147.318 1.99691 4.61663 0
M  V30 1509 H 147.018 3.75046 4.52343 0
M  V30 1510 H 148.542 3.14583 5.23326 0
M  V30 1511 H 149.956 4.56897 3.46292 0
M  V30 1512 H 148.353 5.20315 2.98985 0
M  V30 1513 H 149.423 4.52164 1.75144 0
M  V30 1514 N 150.766 -0.704594 1.40972 0
M  V30 1515 C 151.996 -1.49138 1.42974 0
M  V30 1516 C 152.404 -1.89175 0.0308406 0
M  V30 1517 O 151.747 -1.56734 -0.958138 0
M  V30 1518 C 151.809 -2.79016 2.26694 0
M  V30 1519 C 151.473 -2.61236 3.74973 0
M  V30 1520 C 152.47 -2.27773 4.67349 0
M  V30 1521 C 150.155 -2.77158 4.18914 0
M  V30 1522 C 152.149 -2.10457 6.01653 0
M  V30 1523 C 149.836 -2.59459 5.53285 0
M  V30 1524 C 150.834 -2.26158 6.4447 0
M  V30 1525 O 150.522 -2.08605 7.76363 0
M  V30 1526 H 150.254 -0.466443 0.489292 0
M  V30 1527 H 152.808 -0.8758 1.85793 0
M  V30 1528 H 151.038 -3.42947 1.78673 0
M  V30 1529 H 152.727 -3.40782 2.20504 0
M  V30 1530 H 153.493 -2.15095 4.34694 0
M  V30 1531 H 149.372 -3.02064 3.48251 0
M  V30 1532 H 152.916 -1.84387 6.72791 0
M  V30 1533 H 148.813 -2.71725 5.85522 0
M  V30 1534 H 149.581 -2.23439 7.87412 0
M  V30 1535 N 152.244 -1.26651 -0.937939 0
M  V30 1536 C 153.49 -1.12553 -1.687 0
M  V30 1537 C 153.823 0.329782 -1.91379 0
M  V30 1538 O 153.098 1.24202 -1.4968 0
M  V30 1539 C 153.381 -1.89862 -3.05981 0
M  V30 1540 C 153.234 -3.43318 -2.90607 0
M  V30 1541 C 154.553 -1.69499 -4.0615 0
M  V30 1542 H 151.672 -0.410257 -0.612257 0
M  V30 1543 H 154.314 -1.55685 -1.08913 0
M  V30 1544 H 152.464 -1.53204 -3.57017 0
M  V30 1545 H 154.136 -3.89747 -2.46769 0
M  V30 1546 H 152.379 -3.70179 -2.26164 0
M  V30 1547 H 153.05 -3.92642 -3.8799 0
M  V30 1548 H 155.526 -2.01442 -3.64088 0
M  V30 1549 H 154.402 -2.26002 -5.00214 0
M  V30 1550 H 154.663 -0.640365 -4.37438 0
M  V30 1551 N 153.722 1.14298 -1.08507 0
M  V30 1552 C 154.67 2.21483 -0.710483 0
M  V30 1553 C 155.664 1.66998 0.284234 0
M  V30 1554 O 156.87 1.79401 0.146692 0
M  V30 1555 H 153.245 0.721578 -0.211729 0
M  V30 1556 H 155.216 2.50348 -1.62384 0
M  V30 1557 C 153.965 3.4743 -0.137007 0
M  V30 1558 H 153.288 3.89686 -0.893592 0
M  V30 1559 H 154.728 4.2391 0.0872789 0
M  V30 1560 C 153.187 3.17548 1.12538 0
M  V30 1561 O 153.717 3.35437 2.21009 0
M  V30 1562 N 151.923 2.71499 1.03617 0
M  V30 1563 H 151.47 2.57143 0.153403 0
M  V30 1564 H 151.428 2.51881 1.88158 0
M  V30 1565 N 155.201 0.870884 1.31352 0
M  V30 1566 C 156.45 0.478408 1.95944 0
M  V30 1567 C 156.763 -0.974493 1.69597 0
M  V30 1568 O 157.969 -1.47316 2.28058 0
M  V30 1569 C 156.425 0.804609 3.50791 0
M  V30 1570 C 156.033 2.27433 3.85977 0
M  V30 1571 C 157.777 0.480648 4.2177 0
M  V30 1572 C 155.684 2.5429 5.33939 0
M  V30 1573 H 154.614 0.175175 0.733369 0
M  V30 1574 H 157.265 1.06391 1.4951 0
M  V30 1575 H 155.647 0.148347 3.95722 0
M  V30 1576 H 156.821 2.97373 3.52002 0
M  V30 1577 H 155.136 2.56442 3.28065 0
M  V30 1578 H 157.733 0.658519 5.30629 0
M  V30 1579 H 158.076 -0.578979 4.12254 0
M  V30 1580 H 158.609 1.09349 3.82476 0
M  V30 1581 H 155.348 3.58939 5.48491 0
M  V30 1582 H 154.868 1.88945 5.69263 0
M  V30 1583 H 156.547 2.39066 6.01212 0
M  V30 1584 N 156.679 -1.44442 0.630414 0
M  V30 1585 C 158.095 -1.56832 0.295973 0
M  V30 1586 C 158.295 -1.61806 -1.20088 0
M  V30 1587 O 157.351 -1.5607 -1.9849 0
M  V30 1588 C 158.664 -2.84031 0.987264 0
M  V30 1589 C 160.212 -2.97742 0.96534 0
M  V30 1590 C 160.687 -4.27743 1.63708 0
M  V30 1591 N 162.178 -4.34555 1.60364 0
M  V30 1592 C 162.913 -5.33862 2.09234 0
M  V30 1593 N 162.409 -6.39578 2.66292 0
M  V30 1594 N 164.202 -5.25366 1.99867 0
M  V30 1595 H 156.353 -1.39457 1.60205 0
M  V30 1596 H 158.616 -0.668237 0.672431 0
M  V30 1597 H 158.322 -2.86338 2.04215 0
M  V30 1598 H 158.196 -3.73534 0.524588 0
M  V30 1599 H 160.583 -2.94989 -0.0810639 0
M  V30 1600 H 160.664 -2.09589 1.4665 0
M  V30 1601 H 160.308 -4.31255 2.68293 0
M  V30 1602 H 160.238 -5.14752 1.11076 0
M  V30 1603 H 162.729 -3.58772 1.18705 0
M  V30 1604 H 163.042 -7.11637 3.01317 0
M  V30 1605 H 161.387 -6.40265 2.70343 0
M  V30 1606 H 164.578 -4.41688 1.55013 0
M  V30 1607 H 164.751 -6.02606 2.38265 0
M  V30 1608 N 158.157 -0.370918 -1.53173 0
M  V30 1609 C 159.568 0.107139 -1.86392 0
M  V30 1610 C 159.919 1.47714 -1.29132 0
M  V30 1611 O 159.044 2.07464 -0.615439 0
M  V30 1612 C 159.639 0.201187 -3.38202 0
M  V30 1613 C 158.198 0.623507 -3.712 0
M  V30 1614 C 157.345 -0.225978 -2.76378 0
M  V30 1615 H 160.296 -0.58951 -1.47345 0
M  V30 1616 H 160.317 1.02377 -3.66468 0
M  V30 1617 H 159.829 -0.796058 -3.79848 0
M  V30 1618 H 157.93 1.62879 -3.35114 0
M  V30 1619 H 158.043 0.394414 -4.77474 0
M  V30 1620 H 156.407 0.305962 -2.52856 0
M  V30 1621 H 157.19 -1.22086 -3.20858 0
M  V30 1622 N 159.635 1.57281 -0.100228 0
M  V30 1623 C 160.568 2.09976 0.893612 0
M  V30 1624 C 161.546 1.01155 1.27304 0
M  V30 1625 O 162.73 1.28687 1.37739 0
M  V30 1626 C 159.857 2.58098 2.19324 0
M  V30 1627 C 158.903 3.78626 1.96328 0
M  V30 1628 S 159.736 5.21959 1.19662 0
M  V30 1629 C 160.892 5.73435 2.50844 0
M  V30 1630 H 161.125 2.93946 0.44534 0
M  V30 1631 H 158.658 1.53985 0.113167 0
M  V30 1632 H 160.616 2.8648 2.94005 0
M  V30 1633 H 159.277 1.74344 2.61272 0
M  V30 1634 H 158.47 4.10382 2.92579 0
M  V30 1635 H 158.072 3.50763 1.29775 0
M  V30 1636 H 160.364 5.82015 3.46792 0
M  V30 1637 H 161.307 6.7185 2.23659 0
M  V30 1638 H 161.715 5.01395 2.59352 0
M  V30 1639 N 161.113 -0.173488 1.56642 0
M  V30 1640 C 162.39 -0.917617 1.7274 0
M  V30 1641 C 162.77 -2.00484 0.661027 0
M  V30 1642 O 162.118 -2.26184 -0.32453 0
M  V30 1643 C 162.328 -1.48433 3.15862 0
M  V30 1644 C 163.676 -1.95809 3.76754 0
M  V30 1645 O 164.7 -1.58231 3.19126 0
M  V30 1646 O 163.559 -2.65024 4.77938 0
M  V30 1647 H 160.653 -0.431772 0.705338 0
M  V30 1648 H 163.199 -0.161487 1.6893 0
M  V30 1649 H 161.971 -0.701715 3.84957 0
M  V30 1650 H 161.594 -2.30471 3.23989 0
M  V30 1651 N 162.591 -1.51276 -0.441967 0
M  V30 1652 C 163.539 -1.72823 -1.55676 0
M  V30 1653 C 164.533 -0.59445 -1.58627 0
M  V30 1654 O 165.739 -0.775715 -1.62427 0
M  V30 1655 H 162.114 -0.545983 -0.517113 0
M  V30 1656 H 164.085 -2.6628 -1.34675 0
M  V30 1657 C 162.834 -1.86619 -2.93375 0
M  V30 1658 H 162.157 -2.73264 -2.91834 0
M  V30 1659 H 163.597 -2.05709 -3.70756 0
M  V30 1660 C 162.056 -0.624842 -3.31055 0
M  V30 1661 O 162.586 0.222636 -4.01083 0
M  V30 1662 N 160.792 -0.470288 -2.86769 0
M  V30 1663 H 160.339 -1.161 -2.29953 0
M  V30 1664 H 160.297 0.359051 -3.12343 0
M  V30 1665 N 164.069 0.697108 -1.41344 0
M  V30 1666 C 165.294 1.49096 -1.44171 0
M  V30 1667 C 165.719 1.88038 -0.0481568 0
M  V30 1668 O 165.077 1.54525 0.948243 0
M  V30 1669 C 165.125 2.73088 -2.3549 0
M  V30 1670 O 164.229 3.70514 -1.81088 0
M  V30 1671 H 163.57 0.448801 -0.489361 0
M  V30 1672 H 166.1 0.856992 -1.85787 0
M  V30 1673 H 166.11 3.21413 -2.51312 0
M  V30 1674 H 164.785 2.44081 -3.36745 0
M  V30 1675 H 163.362 3.29441 -1.74708 0
M  V30 1676 N 165.547 1.27147 0.931209 0
M  V30 1677 C 166.51 1.09615 2.01289 0
M  V30 1678 C 167.51 0.0412581 1.60747 0
M  V30 1679 O 168.7 0.285545 1.71844 0
M  V30 1680 C 165.832 0.669447 3.34262 0
M  V30 1681 H 167.025 2.05662 2.18273 0
M  V30 1682 H 164.578 1.09885 1.11153 0
M  V30 1683 H 165.313 -0.292572 3.22978 0
M  V30 1684 H 165.098 1.43127 3.65044 0
M  V30 1685 H 166.588 0.568921 4.13706 0
M  V30 1686 N 167.025 -1.13721 1.09112 0
M  V30 1687 C 168.271 -1.85413 0.836283 0
M  V30 1688 C 168.626 -1.8175 -0.631249 0
M  V30 1689 O 167.919 -1.24238 -1.45861 0
M  V30 1690 C 168.113 -3.32861 1.30146 0
M  V30 1691 C 167.942 -3.50882 2.81268 0
M  V30 1692 C 166.712 -3.65312 3.49106 0
M  V30 1693 C 168.91 -3.47196 3.7942 0
M  V30 1694 N 166.892 -3.71563 4.88686 0
M  V30 1695 C 168.263 -3.59777 5.04936 0
M  V30 1696 C 170.318 -3.30577 3.72321 0
M  V30 1697 C 169.021 -3.57455 6.24194 0
M  V30 1698 C 171.047 -3.29562 4.91063 0
M  V30 1699 C 170.409 -3.42691 6.15421 0
M  V30 1700 H 166.508 -0.694812 0.358832 0
M  V30 1701 H 169.092 -1.36246 1.39087 0
M  V30 1702 H 167.263 -3.80602 0.774361 0
M  V30 1703 H 168.995 -3.92346 0.99229 0
M  V30 1704 H 165.75 -3.6685 2.9953 0
M  V30 1705 H 166.174 -3.78387 5.61384 0
M  V30 1706 H 170.816 -3.19332 2.77105 0
M  V30 1707 H 168.534 -3.67475 7.19714 0
M  V30 1708 H 172.12 -3.17905 4.87266 0
M  V30 1709 H 171 -3.41862 7.05762 0
M  V30 1710 N 168.503 -0.877838 -1.30888 0
M  V30 1711 C 169.731 -0.507414 -2.00581 0
M  V30 1712 C 170.146 0.902216 -1.65848 0
M  V30 1713 O 169.503 1.59225 -0.891831 0
M  V30 1714 C 169.554 -0.664162 -3.55347 0
M  V30 1715 O 169.275 -2.01829 -3.8884 0
M  V30 1716 C 170.776 -0.295787 -4.42312 0
M  V30 1717 H 167.996 -0.196866 -0.641471 0
M  V30 1718 H 170.54 -1.18117 -1.66939 0
M  V30 1719 H 168.695 -0.0378619 -3.87381 0
M  V30 1720 H 169.109 -2.03174 -4.8355 0
M  V30 1721 H 170.583 -0.456388 -5.5011 0
M  V30 1722 H 171.06 0.765663 -4.32475 0
M  V30 1723 H 171.666 -0.898113 -4.15709 0
M  V30 1724 N 169.982 1.44106 -0.638065 0
M  V30 1725 C 171.21 2.06336 -0.152615 0
M  V30 1726 C 171.625 1.47731 1.17563 0
M  V30 1727 O 170.982 0.602806 1.72257 0
M  V30 1728 C 171.033 3.61479 -0.0391491 0
M  V30 1729 O 170.754 4.17903 -1.31487 0
M  V30 1730 C 172.255 4.40757 0.474176 0
M  V30 1731 H 169.475 0.665862 -0.0828776 0
M  V30 1732 H 172.019 1.84862 -0.87443 0
M  V30 1733 H 170.174 3.82191 0.633142 0
M  V30 1734 H 170.588 5.11416 -1.16421 0
M  V30 1735 H 172.062 5.49707 0.502562 0
M  V30 1736 H 172.539 4.12697 1.50258 0
M  V30 1737 H 173.145 4.24979 -0.165102 0
M  V30 1738 N 171.46 0.379036 1.52974 0
M  V30 1739 C 172.737 -0.263479 1.93817 0
M  V30 1740 C 173.117 -1.65244 1.31368 0
M  V30 1741 O 172.465 -2.23448 0.477856 0
M  V30 1742 C 172.675 -0.300166 3.47707 0
M  V30 1743 C 174.023 -0.534061 4.21228 0
M  V30 1744 O 175.047 -0.38081 3.54159 0
M  V30 1745 O 173.906 -0.833501 5.40106 0
M  V30 1746 H 171 -0.161149 0.811147 0
M  V30 1747 H 173.546 0.432798 1.64088 0
M  V30 1748 H 172.318 0.673138 3.85467 0
M  V30 1749 H 171.941 -1.04179 3.83709 0
M  V30 1750 N 172.938 -1.57226 0.108567 0
M  V30 1751 C 173.886 -2.16002 -0.862885 0
M  V30 1752 C 174.88 -1.10644 -1.28274 0
M  V30 1753 O 176.086 -1.28966 -1.2557 0
M  V30 1754 H 172.461 -0.691148 -0.296342 0
M  V30 1755 H 174.432 -2.96427 -0.342575 0
M  V30 1756 C 173.181 -2.76576 -2.10716 0
M  V30 1757 H 172.504 -3.5734 -1.793 0
M  V30 1758 H 173.944 -3.21253 -2.76717 0
M  V30 1759 C 172.403 -1.73137 -2.89007 0
M  V30 1760 O 172.933 -1.17842 -3.84026 0
M  V30 1761 N 171.139 -1.43317 -2.52801 0
M  V30 1762 H 170.686 -1.88473 -1.75601 0
M  V30 1763 H 170.644 -0.743485 -3.05483 0
M  V30 1764 N 174.416 0.165178 -1.56732 0
M  V30 1765 C 175.664 0.879068 -1.8198 0
M  V30 1766 C 175.985 1.82514 -0.686561 0
M  V30 1767 O 175.255 1.93694 0.293146 0
M  V30 1768 H 173.835 0.327608 -0.671329 0
M  V30 1769 H 176.497 0.163526 -1.94213 0
M  V30 1770 H 175.593 1.45228 -2.76252 0
M  V30 1771 N 175.894 1.51508 0.433938 0
M  V30 1772 C 177.14 1.64588 1.18484 0
M  V30 1773 C 177.473 0.362666 1.90784 0
M  V30 1774 O 176.748 -0.637892 1.83742 0
M  V30 1775 C 177.031 2.85149 2.19913 0
M  V30 1776 C 176.884 4.23456 1.51674 0
M  V30 1777 C 178.203 3.01227 3.20858 0
M  V30 1778 H 175.322 0.598994 0.429389 0
M  V30 1779 H 177.964 1.84002 0.473647 0
M  V30 1780 H 176.114 2.68729 2.80566 0
M  V30 1781 H 177.786 4.51552 0.943322 0
M  V30 1782 H 176.029 4.25998 0.819035 0
M  V30 1783 H 176.7 5.03812 2.2556 0
M  V30 1784 H 179.176 3.16382 2.70263 0
M  V30 1785 H 178.052 3.87141 3.89118 0
M  V30 1786 H 178.313 2.13447 3.8716 0
M  V30 1787 N 177.372 -0.689602 1.41712 0
M  V30 1788 C 178.619 -1.44966 1.4139 0
M  V30 1789 C 178.947 -1.94484 0.025105 0
M  V30 1790 O 178.202 -1.70307 -0.964048 0
M  V30 1791 C 178.501 -2.67298 2.37247 0
M  V30 1792 C 178.167 -2.36405 3.83958 0
M  V30 1793 C 176.829 -2.27691 4.23923 0
M  V30 1794 C 179.181 -2.11043 4.76561 0
M  V30 1795 C 176.509 -1.91719 5.54492 0
M  V30 1796 C 178.861 -1.76578 6.07456 0
M  V30 1797 C 177.525 -1.66363 6.46436 0
M  V30 1798 H 176.795 -0.53047 0.517381 0
M  V30 1799 H 179.442 -0.787655 1.74552 0
M  V30 1800 H 177.747 -3.38461 1.9736 0
M  V30 1801 H 179.444 -3.25452 2.34269 0
M  V30 1802 H 176.034 -2.44085 3.52308 0
M  V30 1803 H 180.218 -2.16717 4.46483 0
M  V30 1804 H 175.474 -1.82367 5.83568 0
M  V30 1805 H 179.648 -1.55974 6.78708 0
M  V30 1806 H 177.275 -1.38258 7.47522 0
M  V30 1807 N 178.85 -1.27639 -0.924453 0
M  V30 1808 C 180.08 -1.16819 -1.70402 0
M  V30 1809 C 180.488 0.277191 -1.87158 0
M  V30 1810 O 179.831 1.20025 -1.39067 0
M  V30 1811 C 179.893 -1.78305 -3.12166 0
M  V30 1812 C 179.557 -3.27502 -3.18734 0
M  V30 1813 C 180.554 -4.2409 -3.00738 0
M  V30 1814 C 178.239 -3.68269 -3.4159 0
M  V30 1815 C 180.233 -5.59422 -3.05492 0
M  V30 1816 C 177.92 -5.0373 -3.45977 0
M  V30 1817 C 178.918 -5.99116 -3.27946 0
M  V30 1818 O 178.606 -7.32108 -3.32074 0
M  V30 1819 H 178.338 -0.406931 -0.539799 0
M  V30 1820 H 180.892 -1.69078 -1.16626 0
M  V30 1821 H 179.122 -1.20528 -3.67437 0
M  V30 1822 H 180.811 -1.62154 -3.72103 0
M  V30 1823 H 181.577 -3.93931 -2.82919 0
M  V30 1824 H 177.456 -2.94496 -3.54673 0
M  V30 1825 H 181 -6.33852 -2.91337 0
M  V30 1826 H 176.897 -5.33543 -3.63321 0
M  V30 1827 H 177.665 -7.40598 -3.48507 0
M  V30 1828 N 180.328 1.1314 -1.09713 0
M  V30 1829 C 181.275 2.18642 -0.739196 0
M  V30 1830 C 182.245 1.63706 0.280978 0
M  V30 1831 O 183.43 1.90111 0.161946 0
M  V30 1832 C 180.57 3.44685 -0.169102 0
M  V30 1833 C 179.683 4.13711 -1.24367 0
M  V30 1834 C 178.818 5.27379 -0.636019 0
M  V30 1835 C 177.857 5.88259 -1.69169 0
M  V30 1836 N 176.994 6.93352 -1.10485 0
M  V30 1837 H 181.834 2.48607 -1.64312 0
M  V30 1838 H 179.371 1.22066 -0.820875 0
M  V30 1839 H 181.329 4.16815 0.179256 0
M  V30 1840 H 179.959 3.15161 0.698079 0
M  V30 1841 H 179.011 3.39835 -1.70927 0
M  V30 1842 H 180.323 4.55037 -2.04311 0
M  V30 1843 H 179.477 6.06238 -0.236677 0
M  V30 1844 H 178.216 4.8731 0.194928 0
M  V30 1845 H 177.221 5.08092 -2.10055 0
M  V30 1846 H 178.446 6.30399 -2.52536 0
M  V30 1847 H 176.392 6.55335 -0.295234 0
M  V30 1848 H 176.309 7.33236 -1.84121 0
M  V30 1849 H 177.577 7.76057 -0.73181 0
M  V30 1850 N 181.806 0.884767 1.30421 0
M  V30 1851 C 182.754 0.340869 2.30089 0
M  V30 1852 C 183.748 -0.55201 1.60154 0
M  V30 1853 O 184.954 -0.436467 1.74628 0
M  V30 1854 H 181.329 0.0915739 0.746404 0
M  V30 1855 H 183.3 1.19513 2.73421 0
M  V30 1856 C 182.049 -0.429779 3.45034 0
M  V30 1857 H 181.372 0.248024 3.9903 0
M  V30 1858 H 182.812 -0.775445 4.16849 0
M  V30 1859 C 181.271 -1.62677 2.95022 0
M  V30 1860 O 181.801 -2.72614 2.95033 0
M  V30 1861 N 180.007 -1.46387 2.51036 0
M  V30 1862 H 179.554 -0.569506 2.51226 0
M  V30 1863 H 179.512 -2.26612 2.17932 0
M  V30 1864 N 183.284 -1.43765 0.645699 0
M  V30 1865 C 184.561 -1.9541 0.0862963 0
M  V30 1866 C 184.941 -1.58725 -1.39175 0
M  V30 1867 O 184.289 -0.868581 -2.11348 0
M  V30 1868 C 184.499 -3.47488 0.324565 0
M  V30 1869 C 185.847 -4.24001 0.225497 0
M  V30 1870 O 186.871 -3.55274 0.256715 0
M  V30 1871 O 185.73 -5.46313 0.142801 0
M  V30 1872 H 182.824 -0.826882 -0.0139483 0
M  V30 1873 H 185.37 -1.53743 0.718415 0
M  V30 1874 H 184.142 -3.67289 1.3496 0
M  V30 1875 H 183.765 -3.96135 -0.340987 0
M  V30 1876 N 184.763 -0.387143 -1.52771 0
M  V30 1877 C 186.009 0.196025 -2.0185 0
M  V30 1878 C 186.342 1.46641 -1.27319 0
M  V30 1879 O 185.617 1.90889 -0.373032 0
M  V30 1880 C 185.9 0.466136 -3.5707 0
M  V30 1881 C 185.753 -0.819385 -4.42274 0
M  V30 1882 C 187.072 1.25768 -4.21747 0
M  V30 1883 H 184.191 0.0697708 -0.73369 0
M  V30 1884 H 186.833 -0.516286 -1.82851 0
M  V30 1885 H 184.983 1.07293 -3.7339 0
M  V30 1886 H 186.655 -1.4563 -4.37709 0
M  V30 1887 H 184.898 -1.43517 -4.09372 0
M  V30 1888 H 185.569 -0.585065 -5.48891 0
M  V30 1889 H 188.045 0.744167 -4.09391 0
M  V30 1890 H 186.921 1.41541 -5.30337 0
M  V30 1891 H 187.182 2.27228 -3.79236 0
M  V30 1892 N 186.241 1.57166 -0.116904 0
M  V30 1893 C 187.489 1.94737 0.540533 0
M  V30 1894 C 187.81 1.00096 1.67349 0
M  V30 1895 O 187.08 0.0568854 1.95817 0
M  V30 1896 H 185.66 0.718981 0.202669 0
M  V30 1897 H 188.322 1.94017 -0.185353 0
M  V30 1898 H 187.418 2.97719 0.936483 0
M  V30 1899 N 187.719 -0.156864 1.56817 0
M  V30 1900 C 188.944 -0.890331 1.87318 0
M  V30 1901 C 189.369 -1.74394 0.704855 0
M  V30 1902 O 188.727 -1.77972 -0.345786 0
M  V30 1903 C 188.775 -1.73102 3.16336 0
M  V30 1904 O 187.879 -2.83422 2.99576 0
M  V30 1905 H 187.22 -0.24857 0.615718 0
M  V30 1906 H 189.75 -0.150649 2.04045 0
M  V30 1907 H 189.76 -2.12803 3.48107 0
M  V30 1908 H 188.435 -1.10412 4.00976 0
M  V30 1909 H 187.012 -2.47199 2.7919 0
M  V30 1910 N 189.197 -1.51736 -0.425897 0
M  V30 1911 C 190.443 -1.66174 -1.17294 0
M  V30 1912 C 190.798 -0.37876 -1.88635 0
M  V30 1913 O 190.091 0.626021 -1.81084 0
M  V30 1914 C 190.285 -2.81103 -2.20717 0
M  V30 1915 C 190.114 -4.20453 -1.59529 0
M  V30 1916 C 188.884 -4.86225 -1.37525 0
M  V30 1917 C 191.082 -5.03146 -1.06528 0
M  V30 1918 N 189.064 -6.09657 -0.720537 0
M  V30 1919 C 190.435 -6.17674 -0.536506 0
M  V30 1920 C 192.49 -4.88594 -0.958127 0
M  V30 1921 C 191.193 -7.19245 0.0888917 0
M  V30 1922 C 193.219 -5.90383 -0.346608 0
M  V30 1923 C 192.581 -7.04191 0.171564 0
M  V30 1924 H 188.68 -0.661871 -0.416475 0
M  V30 1925 H 191.264 -1.88997 -0.467801 0
M  V30 1926 H 189.435 -2.59924 -2.88607 0
M  V30 1927 H 191.167 -2.84662 -2.87663 0
M  V30 1928 H 187.922 -4.44293 -1.64015 0
M  V30 1929 H 188.346 -6.75756 -0.410292 0
M  V30 1930 H 192.988 -4.0085 -1.34459 0
M  V30 1931 H 190.706 -8.06628 0.48746 0
M  V30 1932 H 194.292 -5.81194 -0.265451 0
M  V30 1933 H 193.172 -7.81606 0.637309 0
M  V30 1934 N 190.675 0.682077 -1.42076 0
M  V30 1935 C 191.923 1.4393 -1.41876 0
M  V30 1936 C 192.244 1.94971 -0.0335599 0
M  V30 1937 O 191.514 1.72591 0.926773 0
M  V30 1938 H 190.094 0.534085 -0.522267 0
M  V30 1939 H 192.756 0.806427 -1.77434 0
M  V30 1940 H 191.852 2.29588 -2.11414 0
M  V30 1941 N 192.153 1.28127 0.917671 0
M  V30 1942 C 193.401 1.14825 1.66312 0
M  V30 1943 C 193.722 -0.304379 1.9261 0
M  V30 1944 O 192.992 -1.21149 1.53947 0
M  V30 1945 H 191.572 0.421953 0.616413 0
M  V30 1946 H 194.234 1.608 1.10134 0
M  V30 1947 H 193.33 1.68489 2.62712 0
M  V30 1948 N 193.631 -1.12557 1.10312 0
M  V30 1949 C 194.859 -1.87864 0.866873 0
M  V30 1950 C 195.274 -1.79588 -0.582557 0
M  V30 1951 O 194.631 -1.16887 -1.40156 0
M  V30 1952 C 194.682 -3.37125 1.30496 0
M  V30 1953 O 194.403 -3.45201 2.69755 0
M  V30 1954 C 195.904 -4.29373 1.10243 0
M  V30 1955 H 193.124 -0.594452 0.311236 0
M  V30 1956 H 195.668 -1.42429 1.46745 0
M  V30 1957 H 193.823 -3.80109 0.748081 0
M  V30 1958 H 194.237 -4.38056 2.88457 0
M  V30 1959 H 195.711 -5.32394 1.45811 0
M  V30 1960 H 196.188 -4.39181 0.0409492 0
M  V30 1961 H 196.794 -3.92169 1.64571 0
M  V30 1962 N 195.109 -0.891671 -1.2995 0
M  V30 1963 C 196.358 -0.509521 -1.95158 0
M  V30 1964 C 196.671 0.947388 -1.71125 0
M  V30 1965 O 197.877 1.43669 -2.30372 0
M  V30 1966 C 196.333 -0.860315 -3.49466 0
M  V30 1967 C 195.941 -2.33545 -3.8231 0
M  V30 1968 C 197.685 -0.547687 -4.20952 0
M  V30 1969 C 195.592 -2.62752 -5.29826 0
M  V30 1970 H 194.522 -0.18682 -0.730489 0
M  V30 1971 H 197.173 -1.08756 -1.47798 0
M  V30 1972 H 195.555 -0.211285 -3.95436 0
M  V30 1973 H 196.729 -3.02936 -3.47227 0
M  V30 1974 H 195.044 -2.61629 -3.23944 0
M  V30 1975 H 197.641 -0.742854 -5.29515 0
M  V30 1976 H 197.984 0.51332 -4.13123 0
M  V30 1977 H 198.517 -1.1542 -3.80688 0
M  V30 1978 H 195.256 -3.6762 -5.42712 0
M  V30 1979 H 194.776 -1.97977 -5.66185 0
M  V30 1980 H 196.455 -2.48601 -5.97333 0
M  V30 1981 N 196.587 1.43421 -0.653314 0
M  V30 1982 C 197.835 2.01414 -0.166415 0
M  V30 1983 C 198.156 1.51803 1.22397 0
M  V30 1984 O 197.426 0.730693 1.81763 0
M  V30 1985 H 196.006 0.744703 -0.0585319 0
M  V30 1986 H 198.668 1.75629 -0.845003 0
M  V30 1987 H 197.764 3.11734 -0.151111 0
M  V30 1988 N 198.065 0.39524 1.52563 0
M  V30 1989 C 199.314 -0.186321 2.00838 0
M  V30 1990 C 199.627 -1.47402 1.28577 0
M  V30 1991 O 200.833 -2.13599 1.67593 0
M  V30 1992 C 199.289 -0.382595 3.57861 0
M  V30 1993 C 198.897 0.892202 4.39026 0
M  V30 1994 C 200.641 -0.9202 4.14406 0
M  V30 1995 C 198.548 0.66388 5.87662 0
M  V30 1996 H 197.478 -0.0734041 0.750418 0
M  V30 1997 H 200.129 0.518552 1.76021 0
M  V30 1998 H 198.511 -1.14946 3.7895 0
M  V30 1999 H 199.685 1.66414 4.29701 0
M  V30 2000 H 198 1.35519 3.9373 0
M  V30 2001 H 200.597 -1.10683 5.23119 0
M  V30 2002 H 200.94 -1.89096 3.70875 0
M  V30 2003 H 201.473 -0.212751 3.97231 0
M  V30 2004 H 198.212 1.6058 6.35527 0
M  V30 2005 H 197.732 -0.0690193 5.9976 0
M  V30 2006 H 199.411 0.300699 6.46301 0
M  V30 2007 N 199.544 -1.57102 0.125237 0
M  V30 2008 C 200.774 -1.99472 -0.538015 0
M  V30 2009 C 201.182 -1.00395 -1.60366 0
M  V30 2010 O 200.525 0.0103875 -1.83697 0
M  V30 2011 C 200.587 -3.38262 -1.21734 0
M  V30 2012 C 200.251 -4.56021 -0.298897 0
M  V30 2013 C 201.248 -5.17817 0.464943 0
M  V30 2014 C 198.933 -5.01869 -0.208149 0
M  V30 2015 C 200.927 -6.23852 1.3072 0
M  V30 2016 C 198.614 -6.07763 0.637736 0
M  V30 2017 C 199.612 -6.68622 1.39403 0
M  V30 2018 O 199.3 -7.7247 2.22586 0
M  V30 2019 H 199.032 -0.659934 -0.146501 0
M  V30 2020 H 201.586 -2.04321 0.210267 0
M  V30 2021 H 199.816 -3.30185 -2.01282 0
M  V30 2022 H 201.505 -3.6488 -1.77813 0
M  V30 2023 H 202.271 -4.83308 0.404741 0
M  V30 2024 H 198.15 -4.54241 -0.786522 0
M  V30 2025 H 201.694 -6.71284 1.898 0
M  V30 2026 H 197.591 -6.41701 0.699309 0
M  V30 2027 H 198.359 -7.89595 2.15596 0
M  V30 2028 N 201.022 0.148545 -1.56898 0
M  V30 2029 C 202.268 0.862694 -1.83536 0
M  V30 2030 C 202.601 1.80889 -0.706604 0
M  V30 2031 O 201.876 1.92328 0.289885 0
M  V30 2032 C 202.159 1.63853 -3.20662 0
M  V30 2033 C 202.012 0.713925 -4.44098 0
M  V30 2034 C 203.331 2.60133 -3.54991 0
M  V30 2035 H 200.45 0.312179 -0.667618 0
M  V30 2036 H 203.092 0.127953 -1.89569 0
M  V30 2037 H 201.242 2.26489 -3.1565 0
M  V30 2038 H 202.914 0.098686 -4.61194 0
M  V30 2039 H 201.157 0.0234019 -4.33794 0
M  V30 2040 H 201.828 1.29278 -5.36648 0
M  V30 2041 H 204.304 2.07616 -3.60603 0
M  V30 2042 H 203.18 3.11468 -4.51972 0
M  V30 2043 H 203.441 3.41417 -2.80868 0
M  V30 2044 N 202.5 1.5196 0.417844 0
M  V30 2045 C 203.777 1.56146 1.17803 0
M  V30 2046 C 204.157 0.337275 2.08388 0
M  V30 2047 O 203.505 -0.676447 2.18258 0
M  V30 2048 C 203.715 2.88566 1.96293 0
M  V30 2049 C 205.063 3.41244 2.52662 0
M  V30 2050 O 206.087 2.90247 2.06483 0
M  V30 2051 O 204.946 4.30273 3.36938 0
M  V30 2052 H 202.04 0.628598 0.537395 0
M  V30 2053 H 204.586 1.64283 0.425331 0
M  V30 2054 H 203.358 3.69116 1.2988 0
M  V30 2055 H 202.981 2.83681 2.78587 0
M  V30 2056 N 203.978 -0.674533 1.42435 0
M  V30 2057 C 205.226 -1.43175 1.42637 0
M  V30 2058 C 205.547 -1.94951 0.0438992 0
M  V30 2059 O 204.817 -1.7308 -0.917607 0
M  V30 2060 H 203.397 -0.531307 0.525092 0
M  V30 2061 H 206.059 -0.797006 1.77859 0
M  V30 2062 H 205.155 -2.28463 2.12629 0
M  V30 2063 N 205.456 -1.28612 -0.910864 0
M  V30 2064 C 206.388 -1.08589 -2.01844 0
M  V30 2065 C 207.401 -0.0367419 -1.62759 0
M  V30 2066 O 208.59 -0.280101 -1.76289 0
M  V30 2067 C 205.69 -0.628626 -3.33019 0
M  V30 2068 C 204.863 -1.75382 -4.00699 0
M  V30 2069 C 203.922 -1.28945 -5.10156 0
M  V30 2070 O 202.948 -1.9922 -5.33198 0
M  V30 2071 N 204.15 -0.154224 -5.80295 0
M  V30 2072 H 206.915 -2.03973 -2.19579 0
M  V30 2073 H 204.476 -1.20403 -1.08234 0
M  V30 2074 H 206.468 -0.301508 -4.03575 0
M  V30 2075 H 205.038 0.232451 -3.11735 0
M  V30 2076 H 204.258 -2.25039 -3.23653 0
M  V30 2077 H 205.546 -2.50854 -4.42662 0
M  V30 2078 H 204.944 0.43194 -5.64049 0
M  V30 2079 H 203.501 0.113599 -6.51701 0
M  V30 2080 N 206.934 1.1197 -1.10907 0
M  V30 2081 C 207.866 2.17592 -0.720175 0
M  V30 2082 C 208.879 1.60938 0.245495 0
M  V30 2083 O 210.068 1.78476 0.0292245 0
M  V30 2084 C 207.168 3.38873 -0.0427917 0
M  V30 2085 C 206.341 4.25006 -1.03388 0
M  V30 2086 C 205.4 5.24774 -0.387075 0
M  V30 2087 O 204.426 5.59631 -1.03934 0
M  V30 2088 N 205.628 5.74208 0.852407 0
M  V30 2089 H 208.393 2.51567 -1.62893 0
M  V30 2090 H 205.954 1.27439 -0.998543 0
M  V30 2091 H 207.946 4.02703 0.401501 0
M  V30 2092 H 206.516 3.03007 0.768456 0
M  V30 2093 H 205.736 3.57716 -1.65629 0
M  V30 2094 H 207.024 4.79397 -1.70458 0
M  V30 2095 H 206.422 5.48062 1.40161 0
M  V30 2096 H 204.979 6.39901 1.23977 0
M  V30 2097 N 208.412 0.89855 1.29475 0
M  V30 2098 C 209.64 0.539261 1.99749 0
M  V30 2099 C 210.055 -0.875716 1.67262 0
M  V30 2100 O 209.412 -1.57786 0.917049 0
M  V30 2101 C 209.463 0.72061 3.54245 0
M  V30 2102 O 209.184 2.07989 3.8558 0
M  V30 2103 C 210.685 0.366118 4.41786 0
M  V30 2104 H 207.905 0.207047 0.638258 0
M  V30 2105 H 210.449 1.20758 1.65039 0
M  V30 2106 H 208.604 0.0994862 3.87272 0
M  V30 2107 H 209.018 2.10841 4.80257 0
M  V30 2108 H 210.492 0.543848 5.49314 0
M  V30 2109 H 210.969 -0.696763 4.33638 0
M  V30 2110 H 211.575 0.964135 4.14228 0
M  V30 2111 N 209.89 -1.43072 0.660911 0
M  V30 2112 C 210.838 -2.32569 -0.0378199 0
M  V30 2113 C 211.832 -1.49046 -0.805092 0
M  V30 2114 O 213.038 -1.65206 -0.714624 0
M  V30 2115 H 209.413 -0.75136 -0.031019 0
M  V30 2116 H 211.384 -2.89216 0.734609 0
M  V30 2117 C 210.133 -3.33453 -0.985124 0
M  V30 2118 H 209.456 -3.97752 -0.404147 0
M  V30 2119 H 210.896 -3.98691 -1.44297 0
M  V30 2120 C 209.355 -2.64642 -2.08486 0
M  V30 2121 O 209.885 -2.46776 -3.16961 0
M  V30 2122 N 208.091 -2.23891 -1.8526 0
M  V30 2123 H 207.638 -2.38621 -0.970449 0
M  V30 2124 H 207.596 -1.78181 -2.59034 0
M  V30 2125 N 211.368 -0.403325 -1.52352 0
M  V30 2126 C 212.596 0.174012 -2.06167 0
M  V30 2127 C 213.011 1.39347 -1.27388 0
M  V30 2128 O 212.368 1.79597 -0.324201 0
M  V30 2129 C 212.419 0.530223 -3.5759 0
M  V30 2130 O 212.14 -0.640806 -4.33388 0
M  V30 2131 C 213.641 1.16192 -4.27802 0
M  V30 2132 H 210.861 0.0229464 -0.670608 0
M  V30 2133 H 213.405 -0.572604 -1.9632 0
M  V30 2134 H 211.56 1.22673 -3.67464 0
M  V30 2135 H 211.974 -0.344851 -5.23365 0
M  V30 2136 H 213.448 1.36141 -5.34948 0
M  V30 2137 H 213.925 2.13335 -3.83907 0
M  V30 2138 H 214.531 0.505775 -4.22282 0
M  V30 2139 N 212.846 1.57033 -0.133567 0
M  V30 2140 C 214.257 1.82593 0.389464 0
M  V30 2141 C 214.608 1.05156 1.6564 0
M  V30 2142 O 213.733 0.292644 2.14412 0
M  V30 2143 C 214.328 3.31204 0.713377 0
M  V30 2144 C 212.887 3.57393 1.18098 0
M  V30 2145 C 212.034 2.76598 0.197126 0
M  V30 2146 H 214.985 1.54598 -0.358481 0
M  V30 2147 H 215.006 3.46627 1.56939 0
M  V30 2148 H 214.518 3.87537 -0.2089 0
M  V30 2149 H 212.619 3.06433 2.11966 0
M  V30 2150 H 212.732 4.65915 1.11624 0
M  V30 2151 H 211.096 2.45257 0.687088 0
M  V30 2152 H 211.879 3.35697 -0.718504 0
M  V30 2153 N 214.325 -0.140222 1.56975 0
M  V30 2154 C 215.736 -0.699596 1.73097 0
M  V30 2155 C 216.087 -1.8134 0.749022 0
M  V30 2156 O 215.212 -2.16241 -0.0828503 0
M  V30 2157 C 215.807 -1.27582 3.1386 0
M  V30 2158 C 214.366 -1.78169 3.31561 0
M  V30 2159 C 213.513 -0.672855 2.69013 0
M  V30 2160 H 216.464 0.0855115 1.58469 0
M  V30 2161 H 216.485 -2.14561 3.14235 0
M  V30 2162 H 215.997 -0.464955 3.85305 0
M  V30 2163 H 214.098 -2.61801 2.65124 0
M  V30 2164 H 214.211 -1.90574 4.39566 0
M  V30 2165 H 212.575 -1.10118 2.29665 0
M  V30 2166 H 213.358 0.126679 3.43066 0
M  V30 2167 N 215.803 -1.52179 -0.40978 0
M  V30 2168 C 217.051 -1.65878 -1.15451 0
M  V30 2169 C 217.372 -0.390771 -1.91044 0
M  V30 2170 O 216.642 0.594323 -1.86667 0
M  V30 2171 H 215.222 -0.611405 -0.429177 0
M  V30 2172 H 217.884 -1.89219 -0.467134 0
M  V30 2173 H 216.98 -2.49954 -1.86894 0
M  V30 2174 N 217.281 0.66697 -1.42791 0
M  V30 2175 C 218.229 1.80157 -1.47127 0
M  V30 2176 C 219.223 1.65825 -0.346199 0
M  V30 2177 O 220.429 1.72338 -0.519572 0
M  V30 2178 H 216.804 0.594158 -0.460956 0
M  V30 2179 H 218.775 1.73619 -2.42692 0
M  V30 2180 C 217.524 3.18351 -1.39813 0
M  V30 2181 H 216.847 3.3001 -2.25684 0
M  V30 2182 H 218.287 3.97736 -1.46908 0
M  V30 2183 C 216.746 3.36707 -0.11391 0
M  V30 2184 O 217.276 3.93027 0.830241 0
M  V30 2185 N 215.482 2.90586 -0.0285295 0
M  V30 2186 H 215.029 2.4494 -0.79764 0
M  V30 2187 H 214.987 3.03245 0.830063 0
M  V30 2188 N 218.759 1.29093 0.90403 0
M  V30 2189 C 219.989 1.19516 1.68522 0
M  V30 2190 C 220.397 -0.24738 1.87576 0
M  V30 2191 O 219.74 -1.17798 1.40959 0
M  V30 2192 C 219.802 1.83249 3.0929 0
M  V30 2193 C 219.466 3.32531 3.13484 0
M  V30 2194 C 220.463 4.28821 2.93953 0
M  V30 2195 C 218.148 3.73656 3.35688 0
M  V30 2196 C 220.142 5.64212 2.96553 0
M  V30 2197 C 217.829 5.0917 3.37919 0
M  V30 2198 C 218.827 6.04258 3.18373 0
M  V30 2199 O 218.515 7.37298 3.20385 0
M  V30 2200 H 218.247 0.415467 0.533257 0
M  V30 2201 H 220.801 1.70912 1.13922 0
M  V30 2202 H 219.031 1.26358 3.65473 0
M  V30 2203 H 220.72 1.68054 3.69476 0
M  V30 2204 H 221.486 3.98382 2.76616 0
M  V30 2205 H 217.365 3.00101 3.49943 0
M  V30 2206 H 220.909 6.38407 2.81216 0
M  V30 2207 H 216.806 5.39256 3.54787 0
M  V30 2208 H 217.574 7.46048 3.36681 0
M  V30 2209 N 220.237 -1.11381 1.11499 0
M  V30 2210 C 221.465 -1.86934 0.88675 0
M  V30 2211 C 221.88 -1.80195 -0.563476 0
M  V30 2212 O 221.237 -1.18367 -1.38908 0
M  V30 2213 C 221.288 -3.35722 1.34064 0
M  V30 2214 O 221.009 -3.4232 2.73401 0
M  V30 2215 C 222.51 -4.2818 1.14791 0
M  V30 2216 H 219.73 -0.591117 0.317523 0
M  V30 2217 H 222.274 -1.40865 1.48248 0
M  V30 2218 H 220.429 -3.79294 0.788355 0
M  V30 2219 H 220.843 -4.34971 2.93087 0
M  V30 2220 H 222.317 -5.30817 1.5145 0
M  V30 2221 H 222.794 -4.39113 0.0875279 0
M  V30 2222 H 223.4 -3.90402 1.68721 0
M  V30 2223 N 221.715 -0.905404 -1.28997 0
M  V30 2224 C 222.645 -0.404212 -2.29975 0
M  V30 2225 C 223.626 0.523784 -1.61835 0
M  V30 2226 O 224.811 0.433298 -1.89304 0
M  V30 2227 C 221.941 0.364042 -3.45387 0
M  V30 2228 C 220.895 -0.474048 -4.25367 0
M  V30 2229 C 220.221 0.422045 -5.33032 0
M  V30 2230 C 221.521 -1.72696 -4.92923 0
M  V30 2231 H 223.215 -1.24807 -2.72146 0
M  V30 2232 H 220.761 -0.601585 -1.30832 0
M  V30 2233 H 222.714 0.725447 -4.15109 0
M  V30 2234 H 221.438 1.24174 -3.02074 0
M  V30 2235 H 220.097 -0.81786 -3.57361 0
M  V30 2236 H 219.745 1.29804 -4.85963 0
M  V30 2237 H 219.445 -0.135057 -5.87445 0
M  V30 2238 H 220.969 0.779517 -6.05604 0
M  V30 2239 H 222.383 -1.43495 -5.55051 0
M  V30 2240 H 220.78 -2.22582 -5.57295 0
M  V30 2241 H 221.85 -2.45964 -4.17887 0
M  V30 2242 N 223.193 1.4272 -0.668489 0
M  V30 2243 C 224.421 2.05966 -0.196348 0
M  V30 2244 C 224.836 1.50191 1.14403 0
M  V30 2245 O 224.193 0.639208 1.7094 0
M  V30 2246 C 224.244 3.61314 -0.115815 0
M  V30 2247 O 223.965 4.1502 -1.40322 0
M  V30 2248 C 225.466 4.41663 0.380579 0
M  V30 2249 H 222.686 0.663954 -0.0969829 0
M  V30 2250 H 225.23 1.82966 -0.913446 0
M  V30 2251 H 223.385 3.83448 0.551931 0
M  V30 2252 H 223.799 5.08832 -1.27243 0
M  V30 2253 H 225.273 5.5065 0.385848 0
M  V30 2254 H 225.75 4.15792 1.41471 0
M  V30 2255 H 226.356 4.24534 -0.255209 0
M  V30 2256 N 224.671 0.411399 1.52136 0
M  V30 2257 C 225.601 -0.404015 2.29978 0
M  V30 2258 C 226.582 -1.04412 1.34284 0
M  V30 2259 O 227.767 -1.0527 1.63192 0
M  V30 2260 C 224.897 -1.5197 3.12286 0
M  V30 2261 C 223.851 -1.00448 4.16046 0
M  V30 2262 C 223.177 -2.21393 4.86712 0
M  V30 2263 C 224.477 -0.0569336 5.22269 0
M  V30 2264 H 226.171 0.245529 2.98392 0
M  V30 2265 H 223.717 0.119525 1.43503 0
M  V30 2266 H 225.67 -2.09715 3.6551 0
M  V30 2267 H 224.394 -2.19716 2.41646 0
M  V30 2268 H 223.053 -0.449421 3.63835 0
M  V30 2269 H 222.701 -2.87699 4.12599 0
M  V30 2270 H 222.401 -1.87571 5.56858 0
M  V30 2271 H 223.925 -2.7974 5.4275 0
M  V30 2272 H 225.339 -0.54325 5.7072 0
M  V30 2273 H 223.736 0.192594 5.99791 0
M  V30 2274 H 224.806 0.887663 4.76706 0
M  V30 2275 N 226.149 -1.5696 0.141893 0
M  V30 2276 C 227.377 -2.00322 -0.517579 0
M  V30 2277 C 227.792 -1.02193 -1.58752 0
M  V30 2278 O 227.149 -0.0181619 -1.82491 0
M  V30 2279 C 227.2 -3.43618 -1.12289 0
M  V30 2280 O 226.921 -4.37995 -0.0956929 0
M  V30 2281 C 228.422 -4.02231 -1.86347 0
M  V30 2282 H 225.642 -0.657243 -0.135177 0
M  V30 2283 H 228.186 -2.03146 0.234973 0
M  V30 2284 H 226.341 -3.41662 -1.82609 0
M  V30 2285 H 226.755 -5.21729 -0.538469 0
M  V30 2286 H 228.229 -5.04509 -2.23997 0
M  V30 2287 H 228.706 -3.42655 -2.74744 0
M  V30 2288 H 229.312 -4.07802 -1.20737 0
M  V30 2289 N 227.627 0.131896 -1.57047 0
M  V30 2290 C 228.875 0.840269 -1.83804 0
M  V30 2291 C 229.196 1.81017 -0.72512 0
M  V30 2292 O 228.466 1.94272 0.251995 0
M  V30 2293 H 227.046 0.313294 -0.678127 0
M  V30 2294 H 229.708 0.122294 -1.94516 0
M  V30 2295 H 228.804 1.39335 -2.79271 0
M  V30 2296 N 229.106 1.52395 0.401703 0
M  V30 2297 C 230.354 1.66488 1.14569 0
M  V30 2298 C 230.675 0.400897 1.90835 0
M  V30 2299 O 229.945 -0.584415 1.8698 0
M  V30 2300 H 228.525 0.613672 0.425929 0
M  V30 2301 H 231.187 1.89464 0.457093 0
M  V30 2302 H 230.283 2.50942 1.85566 0
M  V30 2303 N 230.584 -0.659388 1.43143 0
M  V30 2304 C 231.814 -1.44513 1.47646 0
M  V30 2305 C 232.222 -1.88981 0.0910095 0
M  V30 2306 O 231.565 -1.59702 -0.907789 0
M  V30 2307 C 231.627 -2.71663 2.35456 0
M  V30 2308 C 231.291 -2.49175 3.83094 0
M  V30 2309 C 232.288 -2.1279 4.74359 0
M  V30 2310 C 229.973 -2.63691 4.27519 0
M  V30 2311 C 231.967 -1.9121 6.08044 0
M  V30 2312 C 229.654 -2.41726 5.61259 0
M  V30 2313 C 230.652 -2.0554 6.51339 0
M  V30 2314 O 230.34 -1.838 7.82606 0
M  V30 2315 H 230.072 -0.45064 0.503884 0
M  V30 2316 H 232.626 -0.816248 1.88485 0
M  V30 2317 H 230.856 -3.37089 1.89493 0
M  V30 2318 H 232.545 -3.33595 2.31235 0
M  V30 2319 H 233.311 -2.01157 4.41317 0
M  V30 2320 H 229.19 -2.90832 3.57684 0
M  V30 2321 H 232.734 -1.62889 6.78316 0
M  V30 2322 H 228.631 -2.52959 5.9387 0
M  V30 2323 H 229.399 -1.98275 7.94122 0
M  V30 2324 N 232.062 -1.29571 -0.897171 0
M  V30 2325 C 233.308 -1.18873 -1.65048 0
M  V30 2326 C 233.663 0.256707 -1.9068 0
M  V30 2327 O 232.956 1.18202 -1.50794 0
M  V30 2328 C 233.15 -1.9382 -3.00281 0
M  V30 2329 C 232.979 -3.45503 -2.8785 0
M  V30 2330 C 231.749 -4.14856 -2.88483 0
M  V30 2331 C 233.947 -4.40956 -2.64693 0
M  V30 2332 N 231.929 -5.52886 -2.66815 0
M  V30 2333 C 233.3 -5.66464 -2.5203 0
M  V30 2334 C 235.355 -4.3069 -2.49821 0
M  V30 2335 C 234.058 -6.82871 -2.26008 0
M  V30 2336 C 236.084 -5.46852 -2.25182 0
M  V30 2337 C 235.446 -6.71333 -2.13286 0
M  V30 2338 H 231.545 -0.489998 -0.609447 0
M  V30 2339 H 234.129 -1.63431 -1.05822 0
M  V30 2340 H 232.3 -1.51671 -3.57562 0
M  V30 2341 H 234.032 -1.75366 -3.64731 0
M  V30 2342 H 230.787 -3.66579 -2.99861 0
M  V30 2343 H 231.211 -6.25487 -2.59027 0
M  V30 2344 H 235.853 -3.35141 -2.5776 0
M  V30 2345 H 233.571 -7.78473 -2.16806 0
M  V30 2346 H 237.157 -5.40809 -2.14515 0
M  V30 2347 H 236.037 -7.59701 -1.94485 0
M  V30 2348 N 233.54 1.10788 -1.12088 0
M  V30 2349 C 234.503 2.15207 -0.788577 0
M  V30 2350 C 235.503 1.59609 0.195317 0
M  V30 2351 O 236.693 1.74174 -0.0300193 0
M  V30 2352 C 233.825 3.4047 -0.171174 0
M  V30 2353 H 235.018 2.46116 -1.71368 0
M  V30 2354 H 232.571 1.26089 -0.923652 0
M  V30 2355 H 233.306 3.15176 0.763832 0
M  V30 2356 H 233.091 3.82109 -0.879514 0
M  V30 2357 H 234.581 4.17576 0.04496 0
M  V30 2358 N 235.018 0.912232 1.28515 0
M  V30 2359 C 235.965 0.397954 2.27343 0
M  V30 2360 C 236.935 -0.526766 1.57526 0
M  V30 2361 O 238.12 -0.449292 1.85435 0
M  V30 2362 C 235.26 -0.357263 3.43246 0
M  V30 2363 C 234.373 0.599788 4.27816 0
M  V30 2364 C 233.508 -0.173725 5.30916 0
M  V30 2365 C 232.547 0.777039 6.07148 0
M  V30 2366 N 231.684 0.0371398 7.0209 0
M  V30 2367 H 236.524 1.24577 2.70711 0
M  V30 2368 H 234.061 0.625612 1.33133 0
M  V30 2369 H 236.019 -0.8113 4.09236 0
M  V30 2370 H 234.649 -1.16943 3.00872 0
M  V30 2371 H 233.701 1.17235 3.61884 0
M  V30 2372 H 235.013 1.32704 4.80823 0
M  V30 2373 H 234.167 -0.688394 6.02782 0
M  V30 2374 H 232.906 -0.934041 4.78672 0
M  V30 2375 H 231.911 1.3031 5.34134 0
M  V30 2376 H 233.136 1.53689 6.61481 0
M  V30 2377 H 231.082 -0.705213 6.52198 0
M  V30 2378 H 230.999 0.704249 7.52713 0
M  V30 2379 H 232.267 -0.457383 7.78157 0
M  V30 2380 O 236.535 -1.39418 0.815163 0
M  V30 2381 H 237.226 -1.89641 0.394473 0
M  V30 END ATOM
M  V30 BEGIN BOND
M  V30 END BOND
M  V30 END CTAB
M  END
$$$$
