drugbank_target|P54619 5'-AMP-activated protein kinase subunit gamma-1 (DB00131; DB00945; DB12010)
 OpenBabel12092121003D

  0  0  0     0  0            999 V3000
M  V30 BEGIN CTAB
M  V30 COUNTS 5352 5408 0 0 0
M  V30 BEGIN ATOM
M  V30 1 H -0.908 1.98254 -0.117106 0
M  V30 2 N 0 1.576 0 0
M  V30 3 C 0.933 2.03868 1.02534 0
M  V30 4 C 1.911 0.928543 1.3348 0
M  V30 5 O 3.095 1.19667 1.45644 0
M  V30 6 C 0.222 2.43627 2.35294 0
M  V30 7 C -0.732 3.65373 2.2001 0
M  V30 8 S 0.101 5.13292 1.52614 0
M  V30 9 C 1.257 5.56322 2.86805 0
M  V30 10 H 1.49 2.90518 0.631377 0
M  V30 11 H -0.977 1.52953 0.210867 0
M  V30 12 H 0.981 2.67203 3.11629 0
M  V30 13 H -0.358 1.57376 2.7183 0
M  V30 14 H -1.165 3.90944 3.18086 0
M  V30 15 H -1.563 3.418 1.51819 0
M  V30 16 H 0.729 5.58782 3.83104 0
M  V30 17 H 1.672 6.56266 2.65933 0
M  V30 18 H 2.08 4.83886 2.90714 0
M  V30 19 N 1.4781 -0.272755 1.55222 0
M  V30 20 C 2.3881 -1.35918 1.91216 0
M  V30 21 C 3.4041 -1.54026 0.809436 0
M  V30 22 O 4.5801 -1.68148 1.10852 0
M  V30 23 C 1.6451 -2.69834 2.17693 0
M  V30 24 C 0.7061 -2.6047 3.41253 0
M  V30 25 C -0.0609 -3.88 3.66458 0
M  V30 26 O 0.1621 -4.88693 2.94169 0
M  V30 27 O -0.9039 -3.88189 4.59992 0
M  V30 28 H 2.9221 -1.0839 2.83699 0
M  V30 29 H 0.5071 -0.471301 1.41771 0
M  V30 30 H 2.3891 -3.49017 2.36147 0
M  V30 31 H 1.0641 -2.97148 1.28392 0
M  V30 32 H -0.0289 -1.79663 3.28134 0
M  V30 33 H 1.3041 -2.38106 4.30774 0
M  V30 34 N 2.9562 -1.48159 -0.537278 0
M  V30 35 C 4.1842 -1.59454 -1.31841 0
M  V30 36 C 4.5992 -0.252065 -1.8711 0
M  V30 37 O 3.9562 0.757621 -1.66031 0
M  V30 38 C 4.0072 -2.63546 -2.47439 0
M  V30 39 O 3.7282 -3.92583 -1.94449 0
M  V30 40 C 5.2292 -2.85212 -3.39366 0
M  V30 41 H 2.4492 -0.53785 -0.401196 0
M  V30 42 H 4.9932 -1.93932 -0.648891 0
M  V30 43 H 3.1482 -2.31946 -3.1029 0
M  V30 44 H 3.5622 -4.49629 -2.70063 0
M  V30 45 H 5.0362 -3.61863 -4.16844 0
M  V30 46 H 5.5132 -1.93765 -3.94147 0
M  V30 47 H 6.1192 -3.18086 -2.82314 0
M  V30 48 N 4.4343 0.785586 -1.36625 0
M  V30 49 C 5.6803 1.54591 -1.31261 0
M  V30 50 C 6.0133 1.93906 0.106823 0
M  V30 51 O 5.2883 1.63007 1.06108 0
M  V30 52 C 5.5713 2.82038 -2.23889 0
M  V30 53 C 5.4243 2.49066 -3.74548 0
M  V30 54 C 6.7433 3.83887 -2.15217 0
M  V30 55 H 3.8623 0.560846 -0.478143 0
M  V30 56 H 6.5043 0.902278 -1.67209 0
M  V30 57 H 4.6543 3.36961 -1.93363 0
M  V30 58 H 6.3263 2.00164 -4.15611 0
M  V30 59 H 4.5693 1.81954 -3.93796 0
M  V30 60 H 5.2403 3.40109 -4.34776 0
M  V30 61 H 7.7163 3.38421 -2.42096 0
M  V30 62 H 6.5923 4.70806 -2.82193 0
M  V30 63 H 6.8533 4.27131 -1.14068 0
M  V30 64 N 5.9124 1.20967 1.01018 0
M  V30 65 C 7.1614 1.01796 1.74128 0
M  V30 66 C 7.4744 -0.449691 1.90361 0
M  V30 67 O 8.6804 -0.76068 2.60626 0
M  V30 68 C 7.1364 1.7727 3.13215 0
M  V30 69 C 6.7444 3.28171 3.04972 0
M  V30 70 C 8.4884 1.66489 3.90489 0
M  V30 71 C 6.3954 3.96156 4.39107 0
M  V30 72 H 5.3254 0.377276 0.652824 0
M  V30 73 H 7.9764 1.44651 1.12909 0
M  V30 74 H 6.3584 1.27205 3.75013 0
M  V30 75 H 7.5324 3.85499 2.52443 0
M  V30 76 H 5.8474 3.39437 2.41188 0
M  V30 77 H 8.4444 2.14617 4.89738 0
M  V30 78 H 8.7874 0.6222 4.11624 0
M  V30 79 H 9.3204 2.14003 3.35332 0
M  V30 80 H 6.0594 5.00604 4.23174 0
M  V30 81 H 5.5794 3.43617 4.91617 0
M  V30 82 H 7.2584 4.00774 5.07926 0
M  V30 83 N 7.3905 -1.2043 1.01659 0
M  V30 84 C 8.6155 -1.94318 0.724942 0
M  V30 85 C 9.0405 -1.74266 -0.708034 0
M  V30 86 O 8.3985 -1.03694 -1.48719 0
M  V30 87 C 8.4465 -3.44486 1.06591 0
M  V30 88 O 7.5505 -4.12017 0.177599 0
M  V30 89 H 6.8915 -0.60708 0.26898 0
M  V30 90 H 9.4215 -1.52861 1.35995 0
M  V30 91 H 9.4315 -3.95106 1.01762 0
M  V30 92 H 8.1065 -3.58404 2.10997 0
M  V30 93 H 6.6835 -3.71821 0.283421 0
M  V30 94 N 8.8686 -0.792821 -1.36206 0
M  V30 95 C 10.0936 -0.377701 -2.03932 0
M  V30 96 C 10.5186 0.998947 -1.59382 0
M  V30 97 O 9.8766 1.64421 -0.763903 0
M  V30 98 C 9.9246 -0.453635 -3.57735 0
M  V30 99 O 9.0286 0.538151 -4.08874 0
M  V30 100 H 8.3696 -0.159855 -0.644471 0
M  V30 101 H 10.8996 -1.07488 -1.7409 0
M  V30 102 H 10.9096 -0.318464 -4.06755 0
M  V30 103 H 9.5846 -1.45784 -3.89512 0
M  V30 104 H 8.1616 0.364359 -3.71116 0
M  V30 105 N 10.3467 1.47872 -0.545128 0
M  V30 106 C 11.6237 1.9554 0.0485222 0
M  V30 107 C 12.0037 1.4876 1.49779 0
M  V30 108 O 11.3517 0.720925 2.16829 0
M  V30 109 C 11.5617 3.48898 -0.084417 0
M  V30 110 C 12.9097 4.24547 0.0671239 0
M  V30 111 O 13.9337 3.56198 -0.0113649 0
M  V30 112 O 12.7927 5.45999 0.233882 0
M  V30 113 H 9.8867 0.823957 0.0708773 0
M  V30 114 H 12.4327 1.58327 -0.610798 0
M  V30 115 H 11.2047 3.75714 -1.09337 0
M  V30 116 H 10.8277 3.92845 0.613066 0
M  V30 117 N 11.8248 0.280983 1.55075 0
M  V30 118 C 13.0498 -0.340154 2.04592 0
M  V30 119 C 13.4748 -1.48246 1.15779 0
M  V30 120 O 12.8328 -1.80614 0.15761 0
M  V30 121 C 12.8808 -0.793104 3.5177 0
M  V30 122 O 11.9848 -1.89981 3.66034 0
M  V30 123 H 11.3258 -0.0694289 0.66036 0
M  V30 124 H 13.8558 0.416993 2.00306 0
M  V30 125 H 13.8658 -1.08729 3.93245 0
M  V30 126 H 12.5408 0.0426163 4.15878 0
M  V30 127 H 11.1178 -1.60771 3.36463 0
M  V30 128 N 13.3029 -1.57598 0.00835791 0
M  V30 129 C 14.5279 -1.95617 -0.689103 0
M  V30 130 C 14.9529 -0.883753 -1.66046 0
M  V30 131 O 14.3109 0.157352 -1.80616 0
M  V30 132 C 14.3589 -3.32736 -1.38994 0
M  V30 133 O 13.4629 -3.27631 -2.50463 0
M  V30 134 H 12.8039 -0.638379 -0.182668 0
M  V30 135 H 15.3339 -2.045 0.064036 0
M  V30 136 H 15.3439 -3.68494 -1.75147 0
M  V30 137 H 14.0189 -4.1034 -0.677778 0
M  V30 138 H 12.5959 -3.03561 -2.16576 0
M  V30 139 N 14.781 0.264519 -1.55364 0
M  V30 140 C 16.192 0.834936 -1.6699 0
M  V30 141 C 16.543 1.86718 -0.602552 0
M  V30 142 O 15.668 2.14899 0.254425 0
M  V30 143 C 16.263 1.5212 -3.02729 0
M  V30 144 C 14.822 2.03954 -3.16354 0
M  V30 145 C 13.969 0.884498 -2.62815 0
M  V30 146 H 16.92 0.0406869 -1.58648 0
M  V30 147 H 16.941 2.38853 -2.96191 0
M  V30 148 H 16.453 0.769668 -3.80392 0
M  V30 149 H 14.554 2.82041 -2.43482 0
M  V30 150 H 14.667 2.24902 -4.23032 0
M  V30 151 H 13.031 1.2802 -2.20188 0
M  V30 152 H 13.814 0.14634 -3.42988 0
M  V30 153 N 16.2591 1.48442 0.529413 0
M  V30 154 C 17.2221 1.62524 1.61612 0
M  V30 155 C 18.2221 0.498509 1.52877 0
M  V30 156 O 19.4121 0.76431 1.56537 0
M  V30 157 C 16.5441 1.59597 3.01233 0
M  V30 158 H 17.7371 2.59423 1.50465 0
M  V30 159 H 15.2901 1.37047 0.751514 0
M  V30 160 H 16.0251 0.641781 3.17886 0
M  V30 161 H 15.8101 2.41397 3.08982 0
M  V30 162 H 17.3001 1.72646 3.80241 0
M  V30 163 N 17.7372 -0.778329 1.37039 0
M  V30 164 C 18.9832 -1.53892 1.32079 0
M  V30 165 C 19.3162 -1.9396 -0.0965386 0
M  V30 166 O 18.5912 -1.63568 -1.05242 0
M  V30 167 C 18.8742 -2.80847 2.25382 0
M  V30 168 C 18.7272 -2.47076 3.75864 0
M  V30 169 C 20.0462 -3.82741 2.1725 0
M  V30 170 H 17.1652 -0.558303 0.48111 0
M  V30 171 H 19.8072 -0.893397 1.67685 0
M  V30 172 H 17.9572 -3.35931 1.95148 0
M  V30 173 H 19.6292 -1.97957 4.16666 0
M  V30 174 H 17.8722 -1.79863 3.94755 0
M  V30 175 H 18.5432 -3.37798 4.36574 0
M  V30 176 H 21.0192 -3.37133 2.43887 0
M  V30 177 H 19.8952 -4.69303 2.84686 0
M  V30 178 H 20.1562 -4.2652 1.16331 0
M  V30 179 N 19.2153 -1.21501 -1.00376 0
M  V30 180 C 20.1253 -0.991447 -2.12621 0
M  V30 181 C 21.1413 0.0568446 -1.73907 0
M  V30 182 O 22.3173 -0.13348 -2.00957 0
M  V30 183 C 19.3823 -0.560312 -3.42142 0
M  V30 184 C 18.4433 -1.68096 -3.95022 0
M  V30 185 C 17.6763 -1.2703 -5.18362 0
M  V30 186 O 17.8993 -0.144438 -5.70217 0
M  V30 187 O 16.8333 -2.08269 -5.64719 0
M  V30 188 H 20.6593 -1.93158 -2.34358 0
M  V30 189 H 18.2443 -0.999999 -1.10997 0
M  V30 190 H 20.1263 -0.329724 -4.20108 0
M  V30 191 H 18.8013 0.351089 -3.2179 0
M  V30 192 H 17.7083 -1.96597 -3.18278 0
M  V30 193 H 19.0413 -2.56983 -4.19786 0
M  V30 194 N 20.6934 1.19889 -1.02296 0
M  V30 195 C 21.6414 2.24938 -0.592081 0
M  V30 196 C 22.6354 1.65257 0.372357 0
M  V30 197 O 23.8414 1.78371 0.241583 0
M  V30 198 H 20.2164 0.731787 -0.173182 0
M  V30 199 H 22.1874 2.58603 -1.48885 0
M  V30 200 C 20.9364 3.47668 0.047351 0
M  V30 201 H 20.2594 3.93875 -0.685772 0
M  V30 202 H 21.6994 4.22852 0.311862 0
M  V30 203 C 20.1584 3.11136 1.29212 0
M  V30 204 O 20.6884 3.2325 2.38479 0
M  V30 205 N 18.8944 2.65625 1.17863 0
M  V30 206 H 18.4414 2.55968 0.289493 0
M  V30 207 H 18.3994 2.41553 2.01245 0
M  V30 208 N 22.1715 0.800033 1.35784 0
M  V30 209 C 23.0815 0.207204 2.33683 0
M  V30 210 C 24.0975 -0.64631 1.61551 0
M  V30 211 O 25.2735 -0.559604 1.93469 0
M  V30 212 C 22.3385 -0.639659 3.40748 0
M  V30 213 C 21.3995 0.233585 4.28664 0
M  V30 214 C 20.6325 -0.572954 5.30616 0
M  V30 215 O 20.8555 -1.80816 5.40982 0
M  V30 216 O 19.7895 0.0327285 6.01891 0
M  V30 217 H 23.6155 1.01692 2.86169 0
M  V30 218 H 21.2005 0.561691 1.38439 0
M  V30 219 H 23.0825 -1.12223 4.06182 0
M  V30 220 H 21.7575 -1.42708 2.90544 0
M  V30 221 H 20.6645 0.763147 3.66233 0
M  V30 222 H 21.9975 0.984784 4.82248 0
M  V30 223 N 23.6496 -1.47581 0.552962 0
M  V30 224 C 24.5996 -2.26961 -0.217423 0
M  V30 225 C 25.5836 -1.34099 -0.889168 0
M  V30 226 O 26.7756 -1.58483 -0.788176 0
M  V30 227 C 23.9046 -3.19756 -1.24944 0
M  V30 228 C 22.9906 -4.20097 -0.581327 0
M  V30 229 N 23.3816 -5.04614 0.346171 0
M  V30 230 C 21.6796 -4.38099 -0.835767 0
M  V30 231 C 22.3806 -5.77052 0.733854 0
M  V30 232 N 21.3566 -5.43526 0.0896567 0
M  V30 233 H 25.1586 -2.89688 0.495761 0
M  V30 234 H 22.6726 -1.58068 0.372597 0
M  V30 235 H 24.6696 -3.75305 -1.81527 0
M  V30 236 H 23.3296 -2.58585 -1.96376 0
M  V30 237 H 24.3406 -5.12869 0.720098 0
M  V30 238 H 21.0176 -3.88102 -1.53892 0
M  V30 239 H 22.4076 -6.5504 1.49574 0
M  V30 240 N 25.1277 -0.289203 -1.54924 0
M  V30 241 C 26.5387 0.205791 -1.85562 0
M  V30 242 C 26.8897 1.54351 -1.2112 0
M  V30 243 O 26.0147 2.10435 -0.504601 0
M  V30 244 C 26.6097 0.380177 -3.3666 0
M  V30 245 C 25.1687 0.819395 -3.67373 0
M  V30 246 C 24.3157 -0.079159 -2.77187 0
M  V30 247 H 27.2667 -0.510577 -1.50262 0
M  V30 248 H 27.2877 1.21659 -3.60526 0
M  V30 249 H 26.7997 -0.593589 -3.83534 0
M  V30 250 H 24.9007 1.80413 -3.26009 0
M  V30 251 H 25.0137 0.646957 -4.74712 0
M  V30 252 H 23.3777 0.439565 -2.50878 0
M  V30 253 H 24.1607 -1.04906 -3.26878 0
M  V30 254 N 26.6058 1.57591 -0.0167156 0
M  V30 255 C 27.5378 2.06343 0.997753 0
M  V30 256 C 28.5508 0.984469 1.29661 0
M  V30 257 O 29.7398 1.26093 1.26344 0
M  V30 258 C 26.8398 2.46255 2.32834 0
M  V30 259 C 26.0128 3.77083 2.21646 0
M  V30 260 C 25.0718 4.0368 3.37534 0
M  V30 261 O 24.0978 4.7411 3.14973 0
M  V30 262 N 25.2998 3.52881 4.60929 0
M  V30 263 H 28.0648 2.93997 0.581875 0
M  V30 264 H 25.6258 1.61002 0.170316 0
M  V30 265 H 27.6178 2.61149 3.09166 0
M  V30 266 H 26.1878 1.64032 2.66106 0
M  V30 267 H 25.4078 3.72106 1.30119 0
M  V30 268 H 26.6958 4.62822 2.11361 0
M  V30 269 H 26.0938 2.95878 4.82154 0
M  V30 270 H 24.6508 3.73076 5.34469 0
M  V30 271 N 28.0839 -0.256276 1.55502 0
M  V30 272 C 28.9939 -1.33882 1.92647 0
M  V30 273 C 30.0099 -1.53159 0.825727 0
M  V30 274 O 31.1859 -1.66963 1.12629 0
M  V30 275 C 28.2509 -2.6751 2.20543 0
M  V30 276 C 27.3119 -2.56836 3.43997 0
M  V30 277 C 26.5449 -3.84092 3.70553 0
M  V30 278 O 26.7679 -4.85545 2.99336 0
M  V30 279 O 25.7019 -3.83288 4.64084 0
M  V30 280 H 29.5279 -1.05374 2.84833 0
M  V30 281 H 27.1129 -0.456237 1.42263 0
M  V30 282 H 28.9949 -3.46492 2.39835 0
M  V30 283 H 27.6699 -2.9577 1.31536 0
M  V30 284 H 26.5769 -1.76172 3.30021 0
M  V30 285 H 27.9099 -2.33523 4.33275 0
M  V30 286 N 29.562 -1.4872 -0.521534 0
M  V30 287 C 30.79 -1.60843 -1.30142 0
M  V30 288 C 31.205 -0.271897 -1.86832 0
M  V30 289 O 30.562 0.739969 -1.66825 0
M  V30 290 C 30.613 -2.66155 -2.4463 0
M  V30 291 O 30.334 -3.94623 -1.90275 0
M  V30 292 C 31.835 -2.88795 -3.36322 0
M  V30 293 H 29.055 -0.542075 -0.395468 0
M  V30 294 H 31.599 -1.94609 -0.628285 0
M  V30 295 H 29.754 -2.35224 -3.07812 0
M  V30 296 H 30.168 -4.52468 -2.65279 0
M  V30 297 H 31.642 -3.66264 -4.12983 0
M  V30 298 H 32.119 -1.97934 -3.9207 0
M  V30 299 H 32.725 -3.21063 -2.78924 0
M  V30 300 N 31.0401 0.771051 -1.3745 0
M  V30 301 C 32.4511 1.34737 -1.29239 0
M  V30 302 C 32.8021 1.96109 0.0596908 0
M  V30 303 O 31.9271 1.93865 0.961534 0
M  V30 304 C 32.5221 2.44973 -2.34037 0
M  V30 305 C 31.0811 2.98372 -2.29458 0
M  V30 306 C 30.2281 1.71595 -2.17831 0
M  V30 307 H 33.1791 0.571256 -1.48062 0
M  V30 308 H 33.2001 3.24471 -1.98744 0
M  V30 309 H 32.7121 2.00276 -3.32432 0
M  V30 310 H 30.8131 3.47443 -1.34589 0
M  V30 311 H 30.9261 3.53939 -3.229 0
M  V30 312 H 29.2901 1.94547 -1.64388 0
M  V30 313 H 30.0731 1.29001 -3.18141 0
M  V30 314 N 32.5182 1.22032 0.997298 0
M  V30 315 C 33.4282 1.00271 2.12092 0
M  V30 316 C 34.4442 -0.047621 1.73935 0
M  V30 317 O 35.6202 0.144136 2.00884 0
M  V30 318 C 32.6852 0.578449 3.4184 0
M  V30 319 C 31.7462 1.70189 3.94125 0
M  V30 320 C 30.9792 1.29778 5.17681 0
M  V30 321 O 31.2022 0.174676 5.70132 0
M  V30 322 O 30.1362 2.11261 5.63607 0
M  V30 323 H 33.9622 1.94398 2.3333 0
M  V30 324 H 31.5472 1.00587 1.10465 0
M  V30 325 H 33.4292 0.351998 4.19927 0
M  V30 326 H 32.1042 -0.334019 3.21972 0
M  V30 327 H 31.0112 1.98282 3.1723 0
M  V30 328 H 32.3442 2.59206 4.18417 0
M  V30 329 N 33.9963 -1.19345 1.0293 0
M  V30 330 C 35.2213 -1.93538 0.745511 0
M  V30 331 C 35.6463 -1.75007 -0.689511 0
M  V30 332 O 35.0043 -1.05265 -1.47611 0
M  V30 333 C 35.0523 -3.43336 1.10239 0
M  V30 334 O 34.1563 -4.11806 0.221289 0
M  V30 335 H 33.4973 -0.604193 0.275404 0
M  V30 336 H 36.0273 -1.5141 1.37609 0
M  V30 337 H 36.0373 -3.94004 1.05947 0
M  V30 338 H 34.7123 -3.56146 2.14786 0
M  V30 339 H 33.2893 -3.715 0.322842 0
M  V30 340 N 35.4744 -0.807222 -1.35358 0
M  V30 341 C 36.4224 -0.20614 -2.31685 0
M  V30 342 C 37.4164 0.644445 -1.56663 0
M  V30 343 O 38.6224 0.537538 -1.71786 0
M  V30 344 H 34.9974 -0.0479006 -0.750473 0
M  V30 345 H 36.9684 -1.03369 -2.79924 0
M  V30 346 C 35.7174 0.630212 -3.41941 0
M  V30 347 H 35.0404 -0.0149558 -3.99797 0
M  V30 348 H 36.4804 1.01716 -4.11619 0
M  V30 349 C 34.9394 1.79601 -2.85035 0
M  V30 350 O 35.4694 2.89351 -2.78637 0
M  V30 351 N 33.6754 1.60774 -2.42074 0
M  V30 352 H 33.2224 0.715009 -2.47478 0
M  V30 353 H 33.1804 2.38933 -2.04349 0
M  V30 354 N 36.9525 1.47285 -0.560781 0
M  V30 355 C 37.9005 2.31756 0.197942 0
M  V30 356 C 38.8945 1.43146 0.905854 0
M  V30 357 O 40.1005 1.59891 0.826733 0
M  V30 358 H 36.4755 0.747438 0.0827049 0
M  V30 359 H 38.4465 2.9359 -0.533629 0
M  V30 360 C 37.1955 3.25874 1.21249 0
M  V30 361 H 36.5185 3.94023 0.67719 0
M  V30 362 H 37.9585 3.87803 1.71419 0
M  V30 363 C 36.4175 2.49651 2.26221 0
M  V30 364 O 36.9475 2.24355 3.33208 0
M  V30 365 N 35.1535 2.10597 2.00243 0
M  V30 366 H 34.7005 2.31369 1.13252 0
M  V30 367 H 34.6585 1.59913 2.70694 0
M  V30 368 N 38.4306 0.297415 1.54768 0
M  V30 369 C 39.6556 -0.318435 2.04941 0
M  V30 370 C 40.0806 -1.4701 1.17345 0
M  V30 371 O 39.4386 -1.80436 0.176758 0
M  V30 372 C 39.4866 -0.755749 3.52592 0
M  V30 373 O 38.5906 -1.86088 3.68028 0
M  V30 374 H 37.9316 -0.062421 0.661059 0
M  V30 375 H 40.4616 0.438215 1.99852 0
M  V30 376 H 40.4716 -1.04552 3.94376 0
M  V30 377 H 39.1466 0.0867233 4.1581 0
M  V30 378 H 37.7236 -1.57193 3.38149 0
M  V30 379 N 39.9087 -1.5758 0.0250728 0
M  V30 380 C 41.1547 -1.91917 -0.655413 0
M  V30 381 C 41.4877 -0.901433 -1.72011 0
M  V30 382 O 40.7627 0.0764069 -1.9435 0
M  V30 383 C 41.0457 -3.36751 -1.27558 0
M  V30 384 C 40.8987 -4.49258 -0.220719 0
M  V30 385 C 42.2177 -3.81469 -2.19475 0
M  V30 386 H 39.3367 -0.697925 -0.23679 0
M  V30 387 H 41.9787 -1.89825 0.0815036 0
M  V30 388 H 40.1287 -3.38664 -1.90365 0
M  V30 389 H 41.8007 -4.59478 0.409601 0
M  V30 390 H 40.0437 -4.31415 0.454264 0
M  V30 391 H 40.7147 -5.47618 -0.694175 0
M  V30 392 H 43.1907 -3.81266 -1.66659 0
M  V30 393 H 42.0667 -4.83512 -2.59822 0
M  V30 394 H 42.3277 -3.16744 -3.08424 0
M  V30 395 N 41.3868 0.248026 -1.55636 0
M  V30 396 C 42.6168 0.992367 -1.81206 0
M  V30 397 C 43.0248 1.7949 -0.598324 0
M  V30 398 O 42.3678 1.78292 0.442434 0
M  V30 399 C 42.4298 1.97926 -3.00109 0
M  V30 400 C 42.0938 1.36377 -4.36177 0
M  V30 401 C 43.0908 0.76682 -5.14214 0
M  V30 402 C 40.7758 1.38347 -4.82872 0
M  V30 403 C 42.7698 0.197778 -6.37093 0
M  V30 404 C 40.4568 0.810574 -6.057 0
M  V30 405 C 41.4548 0.218754 -6.8265 0
M  V30 406 O 41.1428 -0.345298 -8.03158 0
M  V30 407 H 40.8748 0.297704 -0.606917 0
M  V30 408 H 43.4288 0.276517 -2.0353 0
M  V30 409 H 41.6588 2.73339 -2.73538 0
M  V30 410 H 43.3478 2.58694 -3.12781 0
M  V30 411 H 44.1138 0.744114 -4.79258 0
M  V30 412 H 39.9928 1.8335 -4.2297 0
M  V30 413 H 43.5368 -0.264788 -6.97097 0
M  V30 414 H 39.4338 0.830604 -6.40134 0
M  V30 415 H 40.2018 -0.237055 -8.18157 0
M  V30 416 N 42.8649 1.48995 0.513639 0
M  V30 417 C 44.0929 1.61531 1.29288 0
M  V30 418 C 44.5079 0.281801 1.86685 0
M  V30 419 O 43.8649 -0.731111 1.67215 0
M  V30 420 C 43.9159 2.67449 2.43215 0
M  V30 421 O 43.6369 3.95626 1.88179 0
M  V30 422 C 45.1379 2.90575 3.34785 0
M  V30 423 H 42.3579 0.544165 0.392588 0
M  V30 424 H 44.9019 1.9494 0.617956 0
M  V30 425 H 43.0569 2.36853 3.0656 0
M  V30 426 H 43.4709 4.53868 2.62876 0
M  V30 427 H 44.9449 3.68449 4.11035 0
M  V30 428 H 45.4219 2.00011 3.91015 0
M  V30 429 H 46.0279 3.22538 2.77218 0
M  V30 430 N 44.343 -0.763751 1.37857 0
M  V30 431 C 45.568 -1.55805 1.36893 0
M  V30 432 C 45.993 -1.88054 -0.0416135 0
M  V30 433 O 45.351 -1.49825 -1.02089 0
M  V30 434 C 45.399 -2.84012 2.22192 0
M  V30 435 O 44.503 -3.78732 1.63204 0
M  V30 436 H 43.844 -0.471638 0.46739 0
M  V30 437 H 46.374 -0.944657 1.81487 0
M  V30 438 H 46.384 -3.33037 2.35691 0
M  V30 439 H 45.059 -2.59869 3.24716 0
M  V30 440 H 43.636 -3.37402 1.58791 0
M  V30 441 N 45.8211 -1.22559 -0.990812 0
M  V30 442 C 47.0681 -1.05141 -1.73065 0
M  V30 443 C 47.3961 0.413191 -1.9006 0
M  V30 444 O 46.6511 1.32257 -1.44245 0
M  V30 445 C 46.9501 -1.71011 -3.13831 0
M  V30 446 C 46.6161 -3.20911 -3.16745 0
M  V30 447 C 45.2781 -3.61812 -3.17247 0
M  V30 448 C 47.6301 -4.16846 -3.12872 0
M  V30 449 C 44.9581 -4.97127 -3.1158 0
M  V30 450 C 47.3101 -5.5214 -3.08746 0
M  V30 451 C 45.9741 -5.92419 -3.07565 0
M  V30 452 H 45.2441 -0.384738 -0.633291 0
M  V30 453 H 47.8911 -1.5235 -1.16025 0
M  V30 454 H 46.1961 -1.16133 -3.74193 0
M  V30 455 H 47.8931 -1.55023 -3.69823 0
M  V30 456 H 44.4831 -2.88344 -3.17105 0
M  V30 457 H 48.6671 -3.86263 -3.11632 0
M  V30 458 H 43.9231 -5.27562 -3.09012 0
M  V30 459 H 48.0971 -6.26201 -3.04705 0
M  V30 460 H 45.7241 -6.97236 -3.02929 0
M  V30 461 N 47.2992 1.18797 -1.03562 0
M  V30 462 C 48.2322 2.2105 -0.56676 0
M  V30 463 C 49.2102 1.57704 0.395993 0
M  V30 464 O 50.3942 1.85908 0.311498 0
M  V30 465 C 47.5212 3.38259 0.172704 0
M  V30 466 C 46.5672 4.19987 -0.74252 0
M  V30 467 S 47.4002 4.87199 -2.22254 0
M  V30 468 C 48.5562 6.07813 -1.49379 0
M  V30 469 H 48.7892 2.60478 -1.43312 0
M  V30 470 H 46.3222 1.29151 -0.846133 0
M  V30 471 H 48.2802 4.06191 0.593191 0
M  V30 472 H 46.9412 2.97252 1.01488 0
M  V30 473 H 46.1342 5.03709 -0.171265 0
M  V30 474 H 45.7362 3.57408 -1.10163 0
M  V30 475 H 48.0282 6.72948 -0.784056 0
M  V30 476 H 48.9712 6.69435 -2.30786 0
M  V30 477 H 49.3792 5.55781 -0.988331 0
M  V30 478 N 48.7773 0.814389 1.34928 0
M  V30 479 C 49.7243 0.22822 2.29669 0
M  V30 480 C 50.6943 -0.642164 1.53184 0
M  V30 481 O 51.8793 -0.585605 1.81591 0
M  V30 482 C 49.0193 -0.61089 3.3965 0
M  V30 483 C 48.1323 0.280792 4.31086 0
M  V30 484 C 47.2673 -0.567067 5.28165 0
M  V30 485 C 46.3063 0.324531 6.11239 0
M  V30 486 N 45.4433 -0.483756 7.00431 0
M  V30 487 H 50.2833 1.04153 2.79206 0
M  V30 488 H 47.8203 0.525133 1.37407 0
M  V30 489 H 49.7783 -1.11263 4.0209 0
M  V30 490 H 48.4083 -1.38939 2.91369 0
M  V30 491 H 47.4603 0.900688 3.69583 0
M  V30 492 H 48.7723 0.966723 4.89342 0
M  V30 493 H 47.9263 -1.13363 5.96015 0
M  V30 494 H 46.6653 -1.28654 4.70425 0
M  V30 495 H 45.6703 0.903298 5.42329 0
M  V30 496 H 46.8953 1.04198 6.71059 0
M  V30 497 H 44.8413 -1.18706 6.45171 0
M  V30 498 H 44.7583 0.143965 7.55863 0
M  V30 499 H 46.0263 -1.03334 7.7262 0
M  V30 500 N 50.2554 -1.46986 0.568584 0
M  V30 501 C 51.4804 -2.07335 0.0520528 0
M  V30 502 C 51.9054 -1.41675 -1.23733 0
M  V30 503 O 51.2634 -0.495623 -1.74394 0
M  V30 504 C 51.3114 -3.60417 -0.11501 0
M  V30 505 O 50.4154 -3.95309 -1.17492 0
M  V30 506 H 49.7564 -0.661597 0.0564385 0
M  V30 507 H 52.2864 -1.88837 0.787507 0
M  V30 508 H 52.2964 -4.06698 -0.325644 0
M  V30 509 H 50.9714 -4.07601 0.826675 0
M  V30 510 H 49.5484 -3.60757 -0.943869 0
M  V30 511 N 51.7335 -0.305618 -1.54608 0
M  V30 512 C 52.6835 0.583595 -2.20405 0
M  V30 513 C 53.6675 1.09539 -1.17856 0
M  V30 514 O 54.8595 1.0354 -1.43557 0
M  V30 515 C 51.9885 1.75277 -2.95183 0
M  V30 516 C 51.0745 1.25672 -4.05052 0
M  V30 517 N 51.4655 0.478998 -5.03527 0
M  V30 518 C 49.7635 1.53704 -4.18678 0
M  V30 519 C 50.4645 0.214269 -5.81305 0
M  V30 520 N 49.4405 0.795374 -5.3775 0
M  V30 521 H 53.2425 -0.0180946 -2.93894 0
M  V30 522 H 50.7565 -0.110601 -1.62023 0
M  V30 523 H 52.7535 2.4014 -3.40791 0
M  V30 524 H 51.4135 2.35812 -2.23211 0
M  V30 525 H 52.4245 0.123473 -5.17753 0
M  V30 526 H 49.1015 2.14954 -3.57912 0
M  V30 527 H 50.4915 -0.410656 -6.70644 0
M  V30 528 N 53.2116 1.57565 -0.0334293 0
M  V30 529 C 54.6276 1.56297 0.322997 0
M  V30 530 C 54.8276 1.03945 1.7262 0
M  V30 531 O 53.8836 0.688109 2.42943 0
M  V30 532 C 55.1966 3.00232 0.167664 0
M  V30 533 C 56.7446 3.12078 0.240107 0
M  V30 534 C 57.2196 4.57859 0.113513 0
M  V30 535 N 58.7106 4.62887 0.170359 0
M  V30 536 C 59.4456 5.73319 0.0962517 0
M  V30 537 N 58.9416 6.92794 -0.0291881 0
M  V30 538 N 60.7346 5.61898 0.150551 0
M  V30 539 H 52.8856 1.89923 -0.950956 0
M  V30 540 H 55.1486 0.873824 -0.367608 0
M  V30 541 H 54.8546 3.42501 -0.799102 0
M  V30 542 H 54.7286 3.654 0.936083 0
M  V30 543 H 57.1156 2.69718 1.19733 0
M  V30 544 H 57.1966 2.49623 -0.558763 0
M  V30 545 H 56.8406 5.009 -0.840314 0
M  V30 546 H 56.7706 5.18299 0.931302 0
M  V30 547 H 59.2616 3.76954 0.26728 0
M  V30 548 H 59.5746 7.7276 -0.0789252 0
M  V30 549 H 57.9196 6.94971 -0.0640299 0
M  V30 550 H 61.1106 4.67448 0.246981 0
M  V30 551 H 61.2836 6.47938 0.0893365 0
M  V30 552 N 54.6897 -0.239769 1.55765 0
M  V30 553 C 55.9297 -0.974076 1.79697 0
M  V30 554 C 56.2937 -1.82249 0.604088 0
M  V30 555 O 57.4947 -2.58913 0.722324 0
M  V30 556 C 55.7657 -1.80595 3.08416 0
M  V30 557 S 57.3247 -2.59838 3.53596 0
M  V30 558 H 54.1427 -0.327524 0.63107 0
M  V30 559 H 56.7447 -0.241277 1.94005 0
M  V30 560 H 55.4487 -1.17249 3.93295 0
M  V30 561 H 54.9797 -2.58137 2.96865 0
M  V30 562 H 56.9947 -3.82987 3.15492 0
M  V30 563 N 56.1678 -1.49265 -0.50573 0
M  V30 564 C 57.3978 -1.61979 -1.28243 0
M  V30 565 C 57.8058 -0.288576 -1.86986 0
M  V30 566 O 57.1488 0.735408 -1.68337 0
M  V30 567 C 57.2108 -2.62632 -2.45489 0
M  V30 568 C 56.8748 -4.071 -2.07651 0
M  V30 569 C 57.8718 -4.94049 -1.61901 0
M  V30 570 C 55.5568 -4.52801 -2.17431 0
M  V30 571 C 57.5508 -6.24736 -1.26428 0
M  V30 572 C 55.2378 -5.83503 -1.8157 0
M  V30 573 C 56.2358 -6.69294 -1.36142 0
M  V30 574 O 55.9238 -7.9756 -1.00764 0
M  V30 575 H 55.6558 -0.54834 -0.395347 0
M  V30 576 H 58.2098 -1.96002 -0.614204 0
M  V30 577 H 56.4398 -2.2378 -3.15372 0
M  V30 578 H 58.1288 -2.64925 -3.07522 0
M  V30 579 H 58.8948 -4.5997 -1.53795 0
M  V30 580 H 54.7738 -3.86196 -2.51742 0
M  V30 581 H 58.3178 -6.91652 -0.908992 0
M  V30 582 H 54.2148 -6.17112 -1.89324 0
M  V30 583 H 54.9828 -8.10529 -1.13952 0
M  V30 584 N 57.6459 0.756429 -1.3826 0
M  V30 585 C 58.9229 1.50584 -1.24835 0
M  V30 586 C 59.3029 2.10556 0.151485 0
M  V30 587 O 58.6509 1.96825 1.1607 0
M  V30 588 C 58.8609 2.57448 -2.3563 0
M  V30 589 C 60.2089 3.24429 -2.73917 0
M  V30 590 O 61.2329 2.67751 -2.34921 0
M  V30 591 O 60.0919 4.26937 -3.41156 0
M  V30 592 H 57.1859 0.667664 -0.48801 0
M  V30 593 H 59.7319 0.792083 -1.5008 0
M  V30 594 H 58.5039 2.11362 -3.29305 0
M  V30 595 H 58.1269 3.36408 -2.11933 0
M  V30 596 N 59.124 1.23083 0.984299 0
M  V30 597 C 60.054 1.03292 2.09411 0
M  V30 598 C 61.035 -0.048923 1.7003 0
M  V30 599 O 62.22 0.114967 1.93859 0
M  V30 600 C 59.35 0.619155 3.41736 0
M  V30 601 C 58.304 1.64791 3.95004 0
M  V30 602 C 57.63 1.0897 5.23478 0
M  V30 603 C 58.93 3.03999 4.24714 0
M  V30 604 H 60.624 1.96119 2.26225 0
M  V30 605 H 58.17 0.944344 1.08711 0
M  V30 606 H 60.123 0.467777 4.18796 0
M  V30 607 H 58.847 -0.344786 3.24775 0
M  V30 608 H 57.506 1.78721 3.20085 0
M  V30 609 H 57.154 0.11686 5.02864 0
M  V30 610 H 56.854 1.77704 5.60085 0
M  V30 611 H 58.378 0.950093 6.03163 0
M  V30 612 H 59.792 2.93393 4.92538 0
M  V30 613 H 58.189 3.69936 4.72512 0
M  V30 614 H 59.259 3.53285 3.32142 0
M  V30 615 N 60.6021 -1.18246 1.0419 0
M  V30 616 C 61.8511 -1.87588 0.741194 0
M  V30 617 C 62.1641 -1.81303 -0.734066 0
M  V30 618 O 63.3701 -2.46019 -1.14834 0
M  V30 619 C 61.8261 -3.36538 1.27555 0
M  V30 620 C 61.4341 -3.51349 2.77953 0
M  V30 621 C 63.1781 -4.11273 1.05143 0
M  V30 622 C 61.0851 -4.94265 3.2474 0
M  V30 623 H 60.0151 -0.702622 0.273565 0
M  V30 624 H 62.6661 -1.33601 1.25789 0
M  V30 625 H 61.0481 -3.9 0.686703 0
M  V30 626 H 62.2221 -3.08153 3.42605 0
M  V30 627 H 60.5371 -2.90022 2.98791 0
M  V30 628 H 63.1341 -5.16689 1.37611 0
M  V30 629 H 63.4771 -4.16298 -0.0112774 0
M  V30 630 H 64.0101 -3.63987 1.60495 0
M  V30 631 H 60.7491 -4.94408 4.30396 0
M  V30 632 H 60.2691 -5.38172 2.64823 0
M  V30 633 H 61.9481 -5.62987 3.18834 0
M  V30 634 N 62.0802 -0.821533 -1.34494 0
M  V30 635 C 63.4912 -0.467956 -1.8074 0
M  V30 636 C 63.8422 1.01151 -1.68116 0
M  V30 637 O 62.9672 1.78707 -1.22036 0
M  V30 638 C 63.5622 -0.842627 -3.28154 0
M  V30 639 C 62.1212 -0.541439 -3.72485 0
M  V30 640 C 61.2682 -1.06028 -2.56229 0
M  V30 641 H 64.2192 -1.01183 -1.22261 0
M  V30 642 H 64.2402 -0.145876 -3.8022 0
M  V30 643 H 63.7522 -1.91945 -3.37311 0
M  V30 644 H 61.8532 0.526034 -3.68868 0
M  V30 645 H 61.9662 -1.08453 -4.66663 0
M  V30 646 H 60.3302 -0.481892 -2.501 0
M  V30 647 H 61.1132 -2.14352 -2.68157 0
M  V30 648 N 63.5583 1.46682 -0.576371 0
M  V30 649 C 64.7863 2.06798 -0.0649635 0
M  V30 650 C 65.2013 1.42612 1.23723 0
M  V30 651 O 64.5583 0.529203 1.74659 0
M  V30 652 C 64.6093 3.6132 0.114202 0
M  V30 653 O 64.3303 4.23104 -1.13644 0
M  V30 654 C 65.8313 4.38349 0.66069 0
M  V30 655 H 63.0513 0.668778 -0.0545616 0
M  V30 656 H 65.5953 1.88404 -0.795237 0
M  V30 657 H 63.7503 3.79162 0.794673 0
M  V30 658 H 64.1643 5.15894 -0.946253 0
M  V30 659 H 65.6383 5.47081 0.73526 0
M  V30 660 H 66.1153 4.05953 1.67627 0
M  V30 661 H 66.7213 4.25297 0.0152951 0
M  V30 662 N 65.0364 0.313813 1.54444 0
M  V30 663 C 66.2614 -0.296681 2.05267 0
M  V30 664 C 66.6864 -1.45757 1.18897 0
M  V30 665 O 66.0444 -1.80239 0.195886 0
M  V30 666 C 66.0924 -0.71831 3.53373 0
M  V30 667 O 65.1964 -1.82175 3.69981 0
M  V30 668 H 64.5374 -0.0554061 0.661684 0
M  V30 669 H 67.0674 0.459387 1.99376 0
M  V30 670 H 67.0774 -1.00364 3.95463 0
M  V30 671 H 65.7524 0.130821 4.15694 0
M  V30 672 H 64.3294 -1.53598 3.39797 0
M  V30 673 N 66.5145 -1.57545 0.0417849 0
M  V30 674 C 67.7395 -1.97035 -0.647455 0
M  V30 675 C 68.1645 -0.918775 -1.64135 0
M  V30 676 O 67.5225 0.119006 -1.80909 0
M  V30 677 C 67.5705 -3.35609 -1.31905 0
M  V30 678 O 66.6745 -3.3287 -2.43457 0
M  V30 679 H 66.0155 -0.64211 -0.169086 0
M  V30 680 H 68.5455 -2.04318 0.107399 0
M  V30 681 H 68.5555 -3.72126 -1.67291 0
M  V30 682 H 67.2305 -4.11685 -0.590586 0
M  V30 683 H 65.8075 -3.08087 -2.10088 0
M  V30 684 N 67.9926 0.231505 -1.5589 0
M  V30 685 C 68.9396 1.28682 -1.91598 0
M  V30 686 C 69.9096 1.47071 -0.771974 0
M  V30 687 O 71.0946 1.60802 -1.027 0
M  V30 688 C 68.2346 2.6342 -2.22944 0
M  V30 689 C 67.3476 2.52912 -3.50228 0
M  V30 690 C 66.4826 3.80106 -3.7107 0
M  V30 691 C 65.5216 3.64279 -4.91902 0
M  V30 692 N 64.6586 4.834 -5.09184 0
M  V30 693 H 69.4986 0.975305 -2.81588 0
M  V30 694 H 67.0356 0.470299 -1.39379 0
M  V30 695 H 68.9936 3.41869 -2.39126 0
M  V30 696 H 67.6236 2.92687 -1.36139 0
M  V30 697 H 66.6756 1.6595 -3.42294 0
M  V30 698 H 67.9876 2.37133 -4.38827 0
M  V30 699 H 67.1416 4.66999 -3.87295 0
M  V30 700 H 65.8806 3.98799 -2.80733 0
M  V30 701 H 64.8856 2.7577 -4.75637 0
M  V30 702 H 66.1106 3.47067 -5.83714 0
M  V30 703 H 64.0566 5.02425 -4.21788 0
M  V30 704 H 63.9736 4.70311 -5.91898 0
M  V30 705 H 65.2416 5.71747 -5.29835 0
M  V30 706 N 69.4707 1.49531 0.497807 0
M  V30 707 C 70.4007 1.6935 1.60757 0
M  V30 708 C 71.3817 0.542218 1.61227 0
M  V30 709 O 72.5667 0.778417 1.77917 0
M  V30 710 C 69.6967 1.76298 2.99226 0
M  V30 711 C 68.6507 2.91248 3.13622 0
M  V30 712 C 67.9767 2.83312 4.53474 0
M  V30 713 C 69.2767 4.3214 2.93346 0
M  V30 714 H 70.9707 2.62263 1.44425 0
M  V30 715 H 68.5167 1.26208 0.693367 0
M  V30 716 H 70.4697 1.88749 3.76765 0
M  V30 717 H 69.1937 0.799871 3.16654 0
M  V30 718 H 67.8527 2.78404 2.38509 0
M  V30 719 H 67.5007 1.84902 4.67782 0
M  V30 720 H 67.2007 3.60465 4.64046 0
M  V30 721 H 68.7247 2.97775 5.33069 0
M  V30 722 H 70.1387 4.45649 3.60652 0
M  V30 723 H 68.5357 5.1054 3.15387 0
M  V30 724 H 69.6057 4.46363 1.89441 0
M  V30 725 N 70.9488 -0.749086 1.3866 0
M  V30 726 C 72.1948 -1.51056 1.35314 0
M  V30 727 C 72.5278 -1.94121 -0.0553751 0
M  V30 728 O 71.8028 -1.65763 -1.01749 0
M  V30 729 C 72.0858 -2.76003 2.31288 0
M  V30 730 C 71.9388 -2.39047 3.8102 0
M  V30 731 C 73.2578 -3.78046 2.2532 0
M  V30 732 H 70.3768 -0.547972 0.492844 0
M  V30 733 H 73.0188 -0.857628 1.69543 0
M  V30 734 H 71.1688 -3.31716 2.02229 0
M  V30 735 H 72.8408 -1.89074 4.20771 0
M  V30 736 H 71.0838 -1.71449 3.98482 0
M  V30 737 H 71.7548 -3.28462 4.4364 0
M  V30 738 H 74.2308 -3.31884 2.50983 0
M  V30 739 H 73.1068 -4.63159 2.94576 0
M  V30 740 H 73.3678 -4.23957 1.25352 0
M  V30 741 N 72.4269 -1.23603 -0.977757 0
M  V30 742 C 73.6729 -1.07129 -1.72195 0
M  V30 743 C 74.0059 0.390501 -1.90233 0
M  V30 744 O 73.2809 1.28902 -1.45653 0
M  V30 745 C 73.5639 -1.80031 -3.11867 0
M  V30 746 C 73.4169 -3.33899 -3.01383 0
M  V30 747 C 74.7359 -1.56492 -4.11337 0
M  V30 748 H 71.8549 -0.390571 -0.624999 0
M  V30 749 H 74.4969 -1.52142 -1.13811 0
M  V30 750 H 72.6469 -1.41768 -3.6171 0
M  V30 751 H 74.3189 -3.81699 -2.59043 0
M  V30 752 H 72.5619 -3.62796 -2.37827 0
M  V30 753 H 73.2329 -3.801 -4.00285 0
M  V30 754 H 75.7089 -1.89757 -3.70313 0
M  V30 755 H 74.5849 -2.09973 -5.07151 0
M  V30 756 H 74.8459 -0.500874 -4.39254 0
M  V30 757 N 73.905 1.17692 -1.04816 0
M  V30 758 C 75.152 1.87859 -0.75599 0
M  V30 759 C 75.48 1.80812 0.716752 0
M  V30 760 O 74.735 1.20819 1.53952 0
M  V30 761 C 75.034 3.37462 -1.17703 0
M  V30 762 C 74.7 3.64713 -2.65133 0
M  V30 763 C 73.362 3.71859 -3.05408 0
M  V30 764 C 75.714 3.76492 -3.60421 0
M  V30 765 C 73.042 3.88271 -4.39843 0
M  V30 766 C 75.394 3.94421 -4.94585 0
M  V30 767 C 74.058 3.99806 -5.3452 0
M  V30 768 H 73.328 0.687425 -0.276636 0
M  V30 769 H 75.975 1.39255 -1.31455 0
M  V30 770 H 74.28 3.88097 -0.537395 0
M  V30 771 H 75.977 3.90109 -0.928218 0
M  V30 772 H 72.567 3.59772 -2.32942 0
M  V30 773 H 76.751 3.70295 -3.30447 0
M  V30 774 H 72.007 3.90687 -4.70291 0
M  V30 775 H 76.181 4.02477 -5.68318 0
M  V30 776 H 73.808 4.12276 -6.38696 0
M  V30 777 N 75.3831 0.828654 1.34056 0
M  V30 778 C 76.6601 0.341809 1.9259 0
M  V30 779 C 77.0401 -1.17158 1.75605 0
M  V30 780 O 76.3881 -1.98132 1.13824 0
M  V30 781 C 76.5981 0.777453 3.4023 0
M  V30 782 C 77.9461 0.779579 4.17382 0
M  V30 783 O 78.9701 0.7204 3.48839 0
M  V30 784 O 77.8291 0.857996 5.39723 0
M  V30 785 H 74.9231 0.0946085 0.821571 0
M  V30 786 H 77.4691 0.913827 1.42994 0
M  V30 787 H 76.2411 1.8196 3.46419 0
M  V30 788 H 75.8641 0.181444 3.97186 0
M  V30 789 N 76.8612 -1.46375 0.584142 0
M  V30 790 C 78.0892 -2.06761 0.0759296 0
M  V30 791 C 78.5042 -1.43266 -1.22965 0
M  V30 792 O 77.8612 -0.538458 -1.74376 0
M  V30 793 C 77.9122 -3.61375 -0.0950384 0
M  V30 794 O 77.6332 -4.22495 1.15887 0
M  V30 795 C 79.1342 -4.38693 -0.637434 0
M  V30 796 H 76.3542 -0.668479 0.0581075 0
M  V30 797 H 78.8982 -1.8798 0.805218 0
M  V30 798 H 77.0532 -3.79578 -0.774554 0
M  V30 799 H 77.4672 -5.15385 0.973598 0
M  V30 800 H 78.9412 -5.47464 -0.706237 0
M  V30 801 H 79.4182 -4.06836 -1.65472 0
M  V30 802 H 80.0242 -4.25299 0.00725967 0
M  V30 803 N 78.3393 -0.321999 -1.54275 0
M  V30 804 C 79.5643 0.285791 -2.05422 0
M  V30 805 C 79.9893 1.45124 -1.19669 0
M  V30 806 O 79.3473 1.80132 -0.205441 0
M  V30 807 C 79.3953 0.69956 -3.53749 0
M  V30 808 O 78.4993 1.8021 -3.70942 0
M  V30 809 H 77.8403 0.0518962 -0.661969 0
M  V30 810 H 80.3703 -0.469954 -1.9913 0
M  V30 811 H 80.3803 0.982649 -3.9599 0
M  V30 812 H 79.0553 -0.152864 -4.15619 0
M  V30 813 H 77.6323 1.51794 -3.40607 0
M  V30 814 N 79.8174 1.5752 -0.0501392 0
M  V30 815 C 80.7474 2.14502 0.922566 0
M  V30 816 C 81.7284 1.06642 1.3252 0
M  V30 817 O 82.9134 1.34577 1.4001 0
M  V30 818 C 80.0434 2.68916 2.19776 0
M  V30 819 C 78.9974 3.8175 1.93523 0
M  V30 820 C 78.3234 4.22677 3.27487 0
M  V30 821 C 79.6234 5.06932 1.25765 0
M  V30 822 H 81.3174 2.9603 0.447952 0
M  V30 823 H 78.8634 1.42401 0.214024 0
M  V30 824 H 80.8164 3.07419 2.88222 0
M  V30 825 H 79.5404 1.84578 2.69441 0
M  V30 826 H 78.1994 3.43718 1.27489 0
M  V30 827 H 77.8474 3.35291 3.74952 0
M  V30 828 H 77.5474 4.98725 3.1072 0
M  V30 829 H 79.0714 4.63779 3.97166 0
M  V30 830 H 80.4854 5.42888 1.84244 0
M  V30 831 H 78.8824 5.88116 1.19328 0
M  V30 832 H 79.9524 4.84337 0.233536 0
M  V30 833 N 81.2955 -0.223234 1.56011 0
M  V30 834 C 82.2275 -1.30006 1.88762 0
M  V30 835 C 83.2405 -1.43129 0.775746 0
M  V30 836 O 84.4295 -1.44057 1.05403 0
M  V30 837 C 81.5295 -2.67589 2.07965 0
M  V30 838 C 80.7025 -2.76434 3.38973 0
M  V30 839 C 79.7615 -3.95019 3.47629 0
M  V30 840 O 78.7875 -3.83436 4.20672 0
M  V30 841 N 79.9895 -5.09249 2.78649 0
M  V30 842 H 82.7545 -1.02238 2.81722 0
M  V30 843 H 80.3155 -0.413278 1.56536 0
M  V30 844 H 82.3075 -3.45297 2.11073 0
M  V30 845 H 80.8775 -2.87964 1.21638 0
M  V30 846 H 80.0975 -1.85216 3.47978 0
M  V30 847 H 81.3855 -2.79313 4.25278 0
M  V30 848 H 80.7835 -5.21556 2.19081 0
M  V30 849 H 79.3405 -5.85007 2.8742 0
M  V30 850 N 82.7736 -1.49793 -0.48987 0
M  V30 851 C 84.0196 -1.60078 -1.24511 0
M  V30 852 C 84.3526 -0.291608 -1.91998 0
M  V30 853 O 83.6276 0.705647 -1.81248 0
M  V30 854 C 83.9106 -2.76791 -2.30345 0
M  V30 855 C 83.7636 -4.17535 -1.67286 0
M  V30 856 C 85.0826 -2.89111 -3.31817 0
M  V30 857 H 82.2016 -0.582645 -0.451324 0
M  V30 858 H 84.8436 -1.82117 -0.541612 0
M  V30 859 H 82.9936 -2.5813 -2.90346 0
M  V30 860 H 84.6656 -4.4774 -1.11026 0
M  V30 861 H 82.9086 -4.22665 -0.976577 0
M  V30 862 H 83.5796 -4.95094 -2.44103 0
M  V30 863 H 86.0556 -3.06133 -2.81819 0
M  V30 864 H 84.9316 -3.72433 -4.03219 0
M  V30 865 H 85.1926 -1.9893 -3.94815 0
M  V30 866 N 84.2517 0.741722 -1.39055 0
M  V30 867 C 85.1987 1.85566 -1.37237 0
M  V30 868 C 86.1687 1.64457 -0.233072 0
M  V30 869 O 87.3537 1.85957 -0.427147 0
M  V30 870 C 84.4937 3.23004 -1.215 0
M  V30 871 C 83.6067 3.55864 -2.44918 0
M  V30 872 C 82.7417 4.82669 -2.21821 0
M  V30 873 C 81.7807 5.08351 -3.40948 0
M  V30 874 N 80.9177 6.26356 -3.17211 0
M  V30 875 H 85.7577 1.86455 -2.32462 0
M  V30 876 H 83.2947 0.911176 -1.15482 0
M  V30 877 H 85.2527 4.02331 -1.10389 0
M  V30 878 H 83.8827 3.21411 -0.29908 0
M  V30 879 H 82.9347 2.7129 -2.66657 0
M  V30 880 H 84.2467 3.70765 -3.33668 0
M  V30 881 H 83.4007 5.69962 -2.07914 0
M  V30 882 H 82.1397 4.69929 -1.30454 0
M  V30 883 H 81.1447 4.19522 -3.55361 0
M  V30 884 H 82.3697 5.22981 -4.33207 0
M  V30 885 H 80.3157 6.14917 -2.28502 0
M  V30 886 H 80.2327 6.41813 -3.99515 0
M  V30 887 H 81.5007 7.16506 -3.06984 0
M  V30 888 N 85.7298 1.2412 0.971189 0
M  V30 889 C 86.6768 1.0305 2.06517 0
M  V30 890 C 87.6468 -0.0550666 1.66009 0
M  V30 891 O 88.8318 0.0988688 1.90544 0
M  V30 892 C 85.9718 0.637653 3.39158 0
M  V30 893 C 85.0848 1.79633 3.92882 0
M  V30 894 C 84.2198 1.34939 5.13775 0
M  V30 895 C 83.2588 2.47823 5.59687 0
M  V30 896 N 82.3958 2.04022 6.71803 0
M  V30 897 H 87.2358 1.96685 2.23873 0
M  V30 898 H 84.7728 0.979694 1.09729 0
M  V30 899 H 86.7308 0.390931 4.15364 0
M  V30 900 H 85.3608 -0.261693 3.21737 0
M  V30 901 H 84.4128 2.15681 3.13346 0
M  V30 902 H 85.7248 2.64466 4.22918 0
M  V30 903 H 84.8788 1.06134 5.97345 0
M  V30 904 H 83.6178 0.471557 4.85415 0
M  V30 905 H 82.6228 2.77392 4.74693 0
M  V30 906 H 83.8478 3.36158 5.90063 0
M  V30 907 H 81.7938 1.18632 6.45184 0
M  V30 908 H 81.7108 2.82409 7.01271 0
M  V30 909 H 82.9788 1.78347 7.58823 0
M  V30 910 N 87.2079 -1.17134 1.05439 0
M  V30 911 C 88.1709 -2.19439 0.661764 0
M  V30 912 C 89.1709 -1.58199 -0.288042 0
M  V30 913 O 90.3609 -1.74053 -0.0715803 0
M  V30 914 C 87.4929 -3.40889 -0.0276209 0
M  V30 915 H 88.6859 -2.55688 1.56728 0
M  V30 916 H 86.2389 -1.31259 0.848567 0
M  V30 917 H 86.9739 -3.10187 -0.94629 0
M  V30 918 H 86.7589 -3.86586 0.655238 0
M  V30 919 H 88.2489 -4.16603 -0.288342 0
M  V30 920 N 88.686 -0.835752 -1.33615 0
M  V30 921 C 89.933 -0.429959 -1.97883 0
M  V30 922 C 90.261 1.01006 -1.66217 0
M  V30 923 O 89.516 1.72047 -0.93265 0
M  V30 924 C 89.815 -0.593925 -3.52431 0
M  V30 925 C 89.481 -2.00158 -4.04039 0
M  V30 926 C 88.143 -2.38662 -4.17844 0
M  V30 927 C 90.495 -2.92117 -4.31644 0
M  V30 928 C 87.823 -3.68435 -4.56588 0
M  V30 929 C 90.175 -4.21368 -4.71838 0
M  V30 930 C 88.839 -4.59833 -4.83849 0
M  V30 931 H 88.109 -0.157333 -0.724104 0
M  V30 932 H 90.756 -1.06217 -1.59343 0
M  V30 933 H 89.061 0.121619 -3.91611 0
M  V30 934 H 90.758 -0.260282 -4.00154 0
M  V30 935 H 87.348 -1.69252 -3.93766 0
M  V30 936 H 91.532 -2.63608 -4.20505 0
M  V30 937 H 86.788 -3.98046 -4.64079 0
M  V30 938 H 90.962 -4.92703 -4.92155 0
M  V30 939 H 88.589 -5.60438 -5.13627 0
M  V30 940 N 90.1641 1.46063 -0.591896 0
M  V30 941 C 91.4111 2.02338 -0.0809991 0
M  V30 942 C 91.7391 1.46228 1.28249 0
M  V30 943 O 90.9941 0.620818 1.85592 0
M  V30 944 C 91.2931 3.57391 0.0249813 0
M  V30 945 C 90.9591 4.32583 -1.27211 0
M  V30 946 C 89.6211 4.52844 -1.62745 0
M  V30 947 C 91.9731 4.75687 -2.13005 0
M  V30 948 C 89.3011 5.13462 -2.83855 0
M  V30 949 C 91.6531 5.37644 -3.3335 0
M  V30 950 C 90.3171 5.5613 -3.69155 0
M  V30 951 H 89.5871 0.740407 -0.0296397 0
M  V30 952 H 92.2341 1.75321 -0.770374 0
M  V30 953 H 90.5391 3.83597 0.797537 0
M  V30 954 H 92.2361 3.98621 0.436184 0
M  V30 955 H 88.8261 4.17116 -0.985499 0
M  V30 956 H 93.0101 4.59782 -1.86855 0
M  V30 957 H 88.2661 5.25965 -3.11722 0
M  V30 958 H 92.4401 5.7 -4.00092 0
M  V30 959 H 90.0671 6.0287 -4.63089 0
M  V30 960 N 91.6422 0.330177 1.54103 0
M  V30 961 C 92.6052 -0.520144 2.2322 0
M  V30 962 C 93.6052 -1.03828 1.22786 0
M  V30 963 O 94.7952 -0.929652 1.4732 0
M  V30 964 C 91.9272 -1.72317 2.94142 0
M  V30 965 H 93.1202 0.0841605 2.99782 0
M  V30 966 H 90.6732 0.0813433 1.56088 0
M  V30 967 H 91.4082 -2.36653 2.21734 0
M  V30 968 H 91.1932 -1.35898 3.67796 0
M  V30 969 H 92.6832 -2.3266 3.46784 0
M  V30 970 N 93.1203 -1.57491 0.0584922 0
M  V30 971 C 94.0503 -2.14988 -0.911178 0
M  V30 972 C 95.0313 -1.07343 -1.31952 0
M  V30 973 O 96.2163 -1.35318 -1.39294 0
M  V30 974 C 93.3463 -2.70078 -2.18347 0
M  V30 975 C 92.3003 -3.82771 -1.91495 0
M  V30 976 C 91.6263 -4.24408 -3.25241 0
M  V30 977 C 92.9263 -5.07592 -1.23075 0
M  V30 978 H 94.6203 -2.96263 -0.432246 0
M  V30 979 H 92.1663 -1.42512 -0.206469 0
M  V30 980 H 94.1193 -3.08943 -2.86587 0
M  V30 981 H 92.8433 -1.86005 -2.68458 0
M  V30 982 H 91.5023 -3.44389 -1.25664 0
M  V30 983 H 91.1503 -3.37275 -3.73168 0
M  V30 984 H 90.8503 -5.00366 -3.08071 0
M  V30 985 H 92.3743 -4.65879 -3.94701 0
M  V30 986 H 93.7883 -5.43857 -1.81362 0
M  V30 987 H 92.1853 -5.88741 -1.16207 0
M  V30 988 H 93.2553 -4.84454 -0.207847 0
M  V30 989 N 94.5984 0.214957 -1.56127 0
M  V30 990 C 95.8444 0.939762 -1.79712 0
M  V30 991 C 96.1774 1.83723 -0.629247 0
M  V30 992 O 95.4524 1.90925 0.371197 0
M  V30 993 C 95.7354 1.77306 -3.13424 0
M  V30 994 C 95.5884 0.90164 -4.40671 0
M  V30 995 C 96.9074 2.74956 -3.43638 0
M  V30 996 H 94.0264 0.340214 -0.653776 0
M  V30 997 H 96.6684 0.20824 -1.88855 0
M  V30 998 H 94.8184 2.39673 -3.0576 0
M  V30 999 H 96.4904 0.294206 -4.60361 0
M  V30 1000 H 94.7334 0.207368 -4.33304 0
M  V30 1001 H 95.4044 1.51923 -5.30682 0
M  V30 1002 H 97.8804 2.22724 -3.51473 0
M  V30 1003 H 96.7564 3.30358 -4.38355 0
M  V30 1004 H 97.0174 3.53023 -2.66134 0
M  V30 1005 N 96.0765 1.50051 0.48192 0
M  V30 1006 C 97.3045 1.64237 1.25832 0
M  V30 1007 C 97.7195 0.321336 1.86045 0
M  V30 1008 O 97.0765 -0.695478 1.68729 0
M  V30 1009 C 97.1275 2.72548 2.37487 0
M  V30 1010 O 96.8485 3.99529 1.79745 0
M  V30 1011 C 98.3495 2.9761 3.28547 0
M  V30 1012 H 95.5695 0.55237 0.380957 0
M  V30 1013 H 98.1135 1.96207 0.576467 0
M  V30 1014 H 96.2685 2.43303 3.01467 0
M  V30 1015 H 96.6825 4.59342 2.5319 0
M  V30 1016 H 98.1565 3.77084 4.03127 0
M  V30 1017 H 98.6335 2.0826 3.86684 0
M  V30 1018 H 99.2395 3.28345 2.70314 0
M  V30 1019 N 97.5546 -0.734337 1.39446 0
M  V30 1020 C 98.5026 -1.86971 1.38364 0
M  V30 1021 C 99.4966 -1.67288 0.266687 0
M  V30 1022 O 100.703 -1.74621 0.436755 0
M  V30 1023 H 97.0776 -0.615474 0.432082 0
M  V30 1024 H 99.0486 -1.85 2.34132 0
M  V30 1025 C 97.7976 -3.2466 1.24465 0
M  V30 1026 H 97.1206 -3.40402 2.09682 0
M  V30 1027 H 98.5606 -4.04292 1.27764 0
M  V30 1028 C 97.0196 -3.36867 -0.0468674 0
M  V30 1029 O 97.5496 -3.88618 -1.01681 0
M  V30 1030 N 95.7556 -2.90391 -0.110145 0
M  V30 1031 H 95.3026 -2.48466 0.679868 0
M  V30 1032 H 95.2606 -2.98939 -0.973799 0
M  V30 1033 N 99.0327 -1.24633 -0.964593 0
M  V30 1034 C 100.281 -1.08573 -1.70459 0
M  V30 1035 C 100.602 0.375655 -1.91347 0
M  V30 1036 O 99.8717 1.26779 -1.49345 0
M  V30 1037 H 98.4517 -0.398784 -0.631649 0
M  V30 1038 H 101.114 -1.56601 -1.16026 0
M  V30 1039 H 100.21 -1.58623 -2.68785 0
M  V30 1040 N 100.511 1.16574 -1.06058 0
M  V30 1041 C 101.757 1.87324 -0.777022 0
M  V30 1042 C 102.09 1.81351 0.694645 0
M  V30 1043 O 101.365 1.22753 1.50871 0
M  V30 1044 C 101.648 3.36991 -1.26922 0
M  V30 1045 C 101.501 3.51667 -2.80447 0
M  V30 1046 C 102.82 4.3131 -0.87521 0
M  V30 1047 H 99.9388 0.680191 -0.28374 0
M  V30 1048 H 102.581 1.37036 -1.3161 0
M  V30 1049 H 100.731 3.79949 -0.81063 0
M  V30 1050 H 102.403 3.17664 -3.34495 0
M  V30 1051 H 100.646 2.93656 -3.19294 0
M  V30 1052 H 101.317 4.56766 -3.0995 0
M  V30 1053 H 103.793 3.9624 -1.27014 0
M  V30 1054 H 102.669 5.34545 -1.2471 0
M  V30 1055 H 102.93 4.41552 0.220071 0
M  V30 1056 N 101.989 0.842826 1.3317 0
M  V30 1057 C 103.405 0.531128 1.50503 0
M  V30 1058 C 103.605 -0.940734 1.78192 0
M  V30 1059 O 102.661 -1.72436 1.84451 0
M  V30 1060 C 103.974 1.40789 2.65705 0
M  V30 1061 C 105.522 1.40708 2.79589 0
M  V30 1062 C 105.997 2.26878 3.97857 0
M  V30 1063 N 107.488 2.24609 4.05099 0
M  V30 1064 C 108.223 2.88019 4.95815 0
M  V30 1065 N 107.719 3.60496 5.9162 0
M  V30 1066 N 109.512 2.77469 4.88843 0
M  V30 1067 H 101.663 1.79557 1.1346 0
M  V30 1068 H 103.926 0.766267 0.558156 0
M  V30 1069 H 103.632 2.454 2.51936 0
M  V30 1070 H 103.506 1.08677 3.61205 0
M  V30 1071 H 105.893 0.368668 2.92788 0
M  V30 1072 H 105.974 1.76829 1.84838 0
M  V30 1073 H 105.618 3.3078 3.85418 0
M  V30 1074 H 105.548 1.88096 4.91861 0
M  V30 1075 H 108.039 1.71906 3.36536 0
M  V30 1076 H 108.352 4.06076 6.57512 0
M  V30 1077 H 106.697 3.64604 5.91683 0
M  V30 1078 H 109.888 2.20406 4.12963 0
M  V30 1079 H 110.061 3.2717 5.59342 0
M  V30 1080 N 103.467 -1.45747 0.599634 0
M  V30 1081 C 104.43 -2.28917 -0.113835 0
M  V30 1082 C 105.43 -1.3933 -0.802729 0
M  V30 1083 O 106.62 -1.61534 -0.652103 0
M  V30 1084 C 103.752 -3.20152 -1.17114 0
M  V30 1085 H 104.945 -2.93478 0.617289 0
M  V30 1086 H 102.498 -1.52137 0.358327 0
M  V30 1087 H 103.233 -2.60374 -1.93329 0
M  V30 1088 H 103.018 -3.86133 -0.681468 0
M  V30 1089 H 104.508 -3.82708 -1.67105 0
M  V30 1090 N 104.945 -0.338344 -1.53925 0
M  V30 1091 C 105.908 0.508299 -2.23493 0
M  V30 1092 C 106.908 1.03175 -1.23335 0
M  V30 1093 O 108.098 0.921826 -1.47811 0
M  V30 1094 C 105.23 1.70754 -2.95052 0
M  V30 1095 H 106.423 -0.100058 -2.99733 0
M  V30 1096 H 103.976 -0.0896198 -1.56043 0
M  V30 1097 H 104.711 2.35474 -2.22986 0
M  V30 1098 H 104.496 1.33946 -3.68512 0
M  V30 1099 H 105.986 2.30818 -3.48013 0
M  V30 1100 N 106.423 1.57458 -0.0668435 0
M  V30 1101 C 107.834 1.80776 0.466558 0
M  V30 1102 C 108.185 0.980361 1.69951 0
M  V30 1103 O 107.31 0.201441 2.1546 0
M  V30 1104 C 107.905 3.27881 0.85321 0
M  V30 1105 C 106.464 3.52062 1.3315 0
M  V30 1106 C 105.611 2.75513 0.314264 0
M  V30 1107 H 108.562 1.5598 -0.292588 0
M  V30 1108 H 108.583 3.39659 1.715 0
M  V30 1109 H 108.095 3.88075 -0.0443439 0
M  V30 1110 H 106.196 2.97167 2.24772 0
M  V30 1111 H 106.309 4.60762 1.31285 0
M  V30 1112 H 104.673 2.42123 0.790492 0
M  V30 1113 H 105.456 3.38442 -0.575477 0
M  V30 1114 N 107.901 -0.206675 1.56239 0
M  V30 1115 C 108.831 -1.25909 1.96645 0
M  V30 1116 C 109.812 -1.48097 0.836734 0
M  V30 1117 O 110.997 -1.6003 1.10019 0
M  V30 1118 C 108.127 -2.6058 2.29599 0
M  V30 1119 C 107.081 -2.53024 3.452 0
M  V30 1120 C 106.407 -3.91861 3.63798 0
M  V30 1121 C 107.707 -2.06524 4.79734 0
M  V30 1122 H 109.401 -0.923369 2.84806 0
M  V30 1123 H 106.947 -0.442735 1.37025 0
M  V30 1124 H 108.9 -3.34375 2.56459 0
M  V30 1125 H 107.624 -2.95869 1.38307 0
M  V30 1126 H 106.283 -1.81684 3.18412 0
M  V30 1127 H 105.931 -4.24483 2.69857 0
M  V30 1128 H 105.631 -3.87683 4.4156 0
M  V30 1129 H 107.155 -4.67296 3.93022 0
M  V30 1130 H 108.569 -2.70072 5.05702 0
M  V30 1131 H 106.966 -2.13374 5.60885 0
M  V30 1132 H 108.036 -1.01802 4.74093 0
M  V30 1133 N 109.379 -1.50304 -0.473955 0
M  V30 1134 C 110.625 -1.62358 -1.22521 0
M  V30 1135 C 110.98 -0.318555 -1.89745 0
M  V30 1136 O 110.273 0.683315 -1.79001 0
M  V30 1137 C 110.467 -2.73938 -2.29549 0
M  V30 1138 C 110.296 -4.15165 -1.72825 0
M  V30 1139 C 109.066 -4.81604 -1.52924 0
M  V30 1140 C 111.264 -4.99503 -1.22481 0
M  V30 1141 N 109.246 -6.07056 -0.91413 0
M  V30 1142 C 110.617 -6.15655 -0.732743 0
M  V30 1143 C 112.672 -4.85299 -1.11308 0
M  V30 1144 C 111.375 -7.19164 -0.139976 0
M  V30 1145 C 113.401 -5.88982 -0.534258 0
M  V30 1146 C 112.763 -7.0438 -0.0525562 0
M  V30 1147 H 108.862 -0.648286 -0.437321 0
M  V30 1148 H 111.446 -1.87413 -0.527692 0
M  V30 1149 H 109.617 -2.50611 -2.9673 0
M  V30 1150 H 111.349 -2.75366 -2.96573 0
M  V30 1151 H 108.104 -4.3885 -1.78067 0
M  V30 1152 H 108.528 -6.74108 -0.625071 0
M  V30 1153 H 113.17 -3.96369 -1.47144 0
M  V30 1154 H 110.888 -8.07771 0.230591 0
M  V30 1155 H 114.474 -5.80055 -0.450219 0
M  V30 1156 H 113.354 -7.83238 0.388324 0
M  V30 1157 N 110.857 0.726932 -1.39834 0
M  V30 1158 C 112.134 1.47902 -1.28001 0
M  V30 1159 C 112.514 2.1083 0.106789 0
M  V30 1160 O 111.862 1.99242 1.11869 0
M  V30 1161 C 112.072 2.52392 -2.41038 0
M  V30 1162 C 113.42 3.18546 -2.80737 0
M  V30 1163 O 114.444 2.62708 -2.40547 0
M  V30 1164 O 113.303 4.19604 -3.50135 0
M  V30 1165 H 110.397 0.657163 -0.502062 0
M  V30 1166 H 112.943 0.760071 -1.51727 0
M  V30 1167 H 111.715 2.04329 -3.33715 0
M  V30 1168 H 111.338 3.31837 -2.19021 0
M  V30 1169 N 112.336 1.25143 0.95797 0
M  V30 1170 C 113.561 1.12521 1.74223 0
M  V30 1171 C 113.986 -0.317402 1.85403 0
M  V30 1172 O 113.344 -1.2299 1.33204 0
M  V30 1173 C 113.392 1.78062 3.1357 0
M  V30 1174 O 112.496 1.058 3.98598 0
M  V30 1175 H 111.837 0.39304 0.535178 0
M  V30 1176 H 114.367 1.65641 1.201 0
M  V30 1177 H 114.377 1.84213 3.64046 0
M  V30 1178 H 113.052 2.83021 3.04749 0
M  V30 1179 H 111.629 1.07506 3.57067 0
M  V30 1180 N 113.814 -1.1601 1.06675 0
M  V30 1181 C 114.761 -2.20525 0.680967 0
M  V30 1182 C 115.731 -1.62904 -0.324283 0
M  V30 1183 O 116.916 -1.89615 -0.212294 0
M  V30 1184 C 114.056 -3.45013 0.0776551 0
M  V30 1185 C 113.169 -4.16863 1.13355 0
M  V30 1186 C 112.304 -5.2888 0.49597 0
M  V30 1187 C 111.343 -5.92537 1.53513 0
M  V30 1188 N 110.48 -6.96038 0.920631 0
M  V30 1189 H 115.32 -2.52876 1.57663 0
M  V30 1190 H 112.857 -1.24199 0.788223 0
M  V30 1191 H 114.815 -4.16193 -0.289704 0
M  V30 1192 H 113.445 -3.132 -0.781393 0
M  V30 1193 H 112.497 -3.44248 1.61857 0
M  V30 1194 H 113.809 -4.60294 1.92174 0
M  V30 1195 H 112.963 -6.06653 0.0758604 0
M  V30 1196 H 111.702 -4.86622 -0.324062 0
M  V30 1197 H 110.707 -5.13482 1.9651 0
M  V30 1198 H 111.932 -6.36873 2.35733 0
M  V30 1199 H 109.878 -6.55888 0.12138 0
M  V30 1200 H 109.795 -7.3786 1.64616 0
M  V30 1201 H 111.063 -7.77725 0.525795 0
M  V30 1202 N 115.292 -0.849877 -1.32721 0
M  V30 1203 C 116.239 -0.289033 -2.28983 0
M  V30 1204 C 117.209 0.601324 -1.54833 0
M  V30 1205 O 118.394 0.537253 -1.8308 0
M  V30 1206 C 115.534 0.520623 -3.4115 0
M  V30 1207 C 114.647 -0.394989 -4.3019 0
M  V30 1208 C 113.782 0.426834 -5.29482 0
M  V30 1209 C 112.821 -0.486476 -6.10164 0
M  V30 1210 N 111.958 0.297879 -7.01468 0
M  V30 1211 H 116.798 -1.11519 -2.76347 0
M  V30 1212 H 114.335 -0.56138 -1.35967 0
M  V30 1213 H 116.293 1.00563 -4.04899 0
M  V30 1214 H 114.923 1.31165 -2.9495 0
M  V30 1215 H 113.975 -0.99836 -3.67065 0
M  V30 1216 H 115.287 -1.09612 -4.86607 0
M  V30 1217 H 114.441 0.975205 -5.98811 0
M  V30 1218 H 113.18 1.16136 -4.73671 0
M  V30 1219 H 112.185 -1.04677 -5.39743 0
M  V30 1220 H 113.41 -1.21953 -6.6806 0
M  V30 1221 H 111.356 1.01558 -6.48091 0
M  V30 1222 H 111.273 -0.344318 -7.55216 0
M  V30 1223 H 112.541 0.828131 -7.75089 0
M  V30 1224 N 116.77 1.45427 -0.607355 0
M  V30 1225 C 117.702 2.2871 0.149752 0
M  V30 1226 C 118.715 1.39937 0.831958 0
M  V30 1227 O 119.904 1.64313 0.697385 0
M  V30 1228 C 117.004 3.15673 1.23304 0
M  V30 1229 C 116.177 4.32722 0.637996 0
M  V30 1230 C 115.236 5.00895 1.61215 0
M  V30 1231 O 114.262 5.57697 1.13854 0
M  V30 1232 N 115.464 5.00159 2.94655 0
M  V30 1233 H 118.229 2.94328 -0.564882 0
M  V30 1234 H 115.79 1.55612 -0.446823 0
M  V30 1235 H 117.782 3.58144 1.88454 0
M  V30 1236 H 116.352 2.51965 1.8502 0
M  V30 1237 H 115.572 3.93734 -0.191572 0
M  V30 1238 H 116.86 5.08321 0.220665 0
M  V30 1239 H 116.258 4.553 3.35735 0
M  V30 1240 H 114.815 5.46495 3.55228 0
M  V30 1241 N 118.248 0.346503 1.53744 0
M  V30 1242 C 119.473 -0.253074 2.0585 0
M  V30 1243 C 119.898 -1.43202 1.21962 0
M  V30 1244 O 119.256 -1.79783 0.234073 0
M  V30 1245 C 119.304 -0.643193 3.54817 0
M  V30 1246 O 118.408 -1.74286 3.73762 0
M  V30 1247 H 117.749 -0.0413583 0.662711 0
M  V30 1248 H 120.279 0.501574 1.98357 0
M  V30 1249 H 120.289 -0.919526 3.97503 0
M  V30 1250 H 118.964 0.218966 4.15323 0
M  V30 1251 H 117.541 -1.46356 3.42979 0
M  V30 1252 N 119.726 -1.57421 0.075193 0
M  V30 1253 C 120.973 -1.93618 -0.593146 0
M  V30 1254 C 121.301 -0.955484 -1.69413 0
M  V30 1255 O 120.556 0.0283251 -1.9568 0
M  V30 1256 C 120.855 -3.36428 -1.20626 0
M  V30 1257 C 120.521 -4.50307 -0.231078 0
M  V30 1258 C 119.183 -4.81186 0.0371936 0
M  V30 1259 C 121.535 -5.19374 0.435888 0
M  V30 1260 C 118.863 -5.78466 0.979461 0
M  V30 1261 C 121.215 -6.17665 1.3665 0
M  V30 1262 C 119.879 -6.46958 1.6432 0
M  V30 1263 H 119.149 -0.708499 -0.217047 0
M  V30 1264 H 121.796 -1.90937 0.146793 0
M  V30 1265 H 120.101 -3.35592 -2.02201 0
M  V30 1266 H 121.798 -3.61727 -1.73073 0
M  V30 1267 H 118.388 -4.26227 -0.450357 0
M  V30 1268 H 122.572 -4.95711 0.241748 0
M  V30 1269 H 117.828 -5.99487 1.20106 0
M  V30 1270 H 122.002 -6.70284 1.88924 0
M  V30 1271 H 119.629 -7.2215 2.37494 0
M  V30 1272 N 121.204 0.198386 -1.56346 0
M  V30 1273 C 122.45 0.920648 -1.80698 0
M  V30 1274 C 122.783 1.83045 -0.648697 0
M  V30 1275 O 122.058 1.91308 0.350925 0
M  V30 1276 C 122.341 1.73971 -3.15287 0
M  V30 1277 C 122.194 0.85485 -4.41602 0
M  V30 1278 C 123.513 2.71296 -3.46535 0
M  V30 1279 H 120.632 0.333261 -0.657348 0
M  V30 1280 H 123.274 0.188198 -1.89066 0
M  V30 1281 H 121.424 2.36416 -3.08285 0
M  V30 1282 H 123.096 0.245362 -4.60647 0
M  V30 1283 H 121.339 0.161398 -4.335 0
M  V30 1284 H 122.01 1.46286 -5.32264 0
M  V30 1285 H 124.486 2.18983 -3.53816 0
M  V30 1286 H 123.362 3.2569 -4.41834 0
M  V30 1287 H 123.623 3.5018 -2.69864 0
M  V30 1288 N 122.682 1.50554 0.465978 0
M  V30 1289 C 123.93 1.61479 1.21528 0
M  V30 1290 C 124.251 0.319596 1.92363 0
M  V30 1291 O 123.521 -0.663194 1.84333 0
M  V30 1292 H 122.101 0.595055 0.451573 0
M  V30 1293 H 124.763 1.87355 0.53704 0
M  V30 1294 H 123.859 2.42846 1.96042 0
M  V30 1295 N 124.16 -0.719506 1.40217 0
M  V30 1296 C 125.093 -1.84298 1.34571 0
M  V30 1297 C 126.071 -1.61149 0.216741 0
M  V30 1298 O 127.255 -1.84212 0.399756 0
M  V30 1299 C 124.382 -3.20568 1.09335 0
M  V30 1300 C 123.428 -3.62551 2.24631 0
M  V30 1301 S 124.261 -3.7012 3.87004 0
M  V30 1302 C 125.417 -5.09154 3.64024 0
M  V30 1303 H 125.65 -1.88807 2.2965 0
M  V30 1304 H 123.183 -0.885901 1.26456 0
M  V30 1305 H 125.141 -3.99246 0.954602 0
M  V30 1306 H 123.802 -3.13696 0.159164 0
M  V30 1307 H 122.995 -4.61483 2.02606 0
M  V30 1308 H 122.597 -2.91119 2.34789 0
M  V30 1309 H 124.889 -5.95955 3.22248 0
M  V30 1310 H 125.832 -5.36213 4.62473 0
M  V30 1311 H 126.24 -4.79562 2.97793 0
M  V30 1312 N 125.638 -1.25649 -0.95132 0
M  V30 1313 C 126.568 -1.08808 -2.06599 0
M  V30 1314 C 127.549 0.00382547 -1.701 0
M  V30 1315 O 128.734 -0.166325 -1.93486 0
M  V30 1316 C 125.864 -0.709542 -3.39975 0
M  V30 1317 C 124.818 -1.75206 -3.90496 0
M  V30 1318 C 124.144 -1.22811 -5.20405 0
M  V30 1319 C 125.444 -3.15153 -4.16504 0
M  V30 1320 H 127.138 -2.02048 -2.20946 0
M  V30 1321 H 124.684 -0.972835 -1.06169 0
M  V30 1322 H 126.637 -0.578649 -4.17408 0
M  V30 1323 H 125.361 0.258556 -3.25575 0
M  V30 1324 H 124.02 -1.87145 -3.15234 0
M  V30 1325 H 123.668 -0.250145 -5.02378 0
M  V30 1326 H 123.368 -1.92492 -5.55176 0
M  V30 1327 H 124.892 -1.10968 -6.00432 0
M  V30 1328 H 126.306 -3.06349 -4.84586 0
M  V30 1329 H 124.703 -3.82333 -4.62538 0
M  V30 1330 H 125.773 -3.61966 -3.22658 0
M  V30 1331 N 127.117 1.15442 -1.07289 0
M  V30 1332 C 128.345 1.90096 -0.81676 0
M  V30 1333 C 128.76 1.7798 0.629966 0
M  V30 1334 O 128.117 1.1313 1.43206 0
M  V30 1335 C 128.168 3.40466 -1.21512 0
M  V30 1336 O 127.889 3.52232 -2.60508 0
M  V30 1337 C 129.39 4.32145 -0.988198 0
M  V30 1338 H 126.61 0.602495 -0.295366 0
M  V30 1339 H 129.154 1.4627 -1.42918 0
M  V30 1340 H 127.309 3.81958 -0.647039 0
M  V30 1341 H 127.723 4.45549 -2.76742 0
M  V30 1342 H 129.197 5.36072 -1.31645 0
M  V30 1343 H 129.674 4.39135 0.0755063 0
M  V30 1344 H 130.28 3.96395 -1.54115 0
M  V30 1345 N 128.595 0.856903 1.32268 0
M  V30 1346 C 129.844 0.457599 1.96441 0
M  V30 1347 C 130.157 -0.992426 1.68553 0
M  V30 1348 O 131.363 -1.49727 2.26482 0
M  V30 1349 C 129.819 0.767358 3.51624 0
M  V30 1350 C 129.427 2.23326 3.88367 0
M  V30 1351 C 131.171 0.435887 4.22256 0
M  V30 1352 C 129.078 2.48613 5.36606 0
M  V30 1353 H 128.008 0.167387 0.735185 0
M  V30 1354 H 130.659 1.048 1.5063 0
M  V30 1355 H 129.041 0.106367 3.95857 0
M  V30 1356 H 130.215 2.93623 3.55137 0
M  V30 1357 H 128.53 2.52948 3.30766 0
M  V30 1358 H 131.127 0.602202 5.31298 0
M  V30 1359 H 131.47 -0.622672 4.11617 0
M  V30 1360 H 132.003 1.05286 3.83614 0
M  V30 1361 H 128.742 3.53101 5.52268 0
M  V30 1362 H 128.262 1.82896 5.71235 0
M  V30 1363 H 129.941 2.32676 6.03714 0
M  V30 1364 N 130.073 -1.45103 0.615059 0
M  V30 1365 C 131.301 -2.06553 0.11977 0
M  V30 1366 C 131.716 -1.45842 -1.19898 0
M  V30 1367 O 131.073 -0.575325 -1.73194 0
M  V30 1368 C 131.124 -3.61495 -0.018364 0
M  V30 1369 O 130.845 -4.19942 1.24822 0
M  V30 1370 C 132.346 -4.39947 -0.544237 0
M  V30 1371 H 129.566 -0.667096 0.0722739 0
M  V30 1372 H 132.11 -1.8623 0.84491 0
M  V30 1373 H 130.265 -3.81135 -0.693865 0
M  V30 1374 H 130.679 -5.13204 1.0827 0
M  V30 1375 H 132.153 -5.48838 -0.589953 0
M  V30 1376 H 132.63 -4.10255 -1.56805 0
M  V30 1377 H 133.236 -4.25188 0.0974703 0
M  V30 1378 N 131.551 -0.354651 -1.53558 0
M  V30 1379 C 132.828 0.294281 -1.93374 0
M  V30 1380 C 133.208 1.67313 -1.28723 0
M  V30 1381 O 132.556 2.24179 -0.442247 0
M  V30 1382 C 132.766 0.355445 -3.47185 0
M  V30 1383 C 134.114 0.601007 -4.20325 0
M  V30 1384 O 135.138 0.437106 -3.53508 0
M  V30 1385 O 133.997 0.919322 -5.38712 0
M  V30 1386 H 131.091 0.174033 -0.808481 0
M  V30 1387 H 133.637 -0.406638 -1.64756 0
M  V30 1388 H 132.409 -0.611729 -3.86489 0
M  V30 1389 H 132.032 1.1027 -3.82003 0
M  V30 1390 N 133.029 1.57378 -0.0835403 0
M  V30 1391 C 134.276 1.9393 0.58287 0
M  V30 1392 C 134.604 0.964455 1.68904 0
M  V30 1393 O 133.859 -0.0179474 1.95692 0
M  V30 1394 C 134.158 3.37063 1.1884 0
M  V30 1395 C 133.824 4.50424 0.207194 0
M  V30 1396 C 132.486 4.81159 -0.0627115 0
M  V30 1397 C 134.838 5.19136 -0.463426 0
M  V30 1398 C 132.166 5.77939 -1.01012 0
M  V30 1399 C 134.518 6.16931 -1.39924 0
M  V30 1400 C 133.182 6.46078 -1.67749 0
M  V30 1401 H 132.452 0.70964 0.213287 0
M  V30 1402 H 135.099 1.90856 -0.156916 0
M  V30 1403 H 133.404 3.3666 2.00418 0
M  V30 1404 H 135.101 3.6264 1.71153 0
M  V30 1405 H 131.691 4.2646 0.427747 0
M  V30 1406 H 135.875 4.95576 -0.268034 0
M  V30 1407 H 131.131 5.98842 -1.23283 0
M  V30 1408 H 135.305 6.69273 -1.92476 0
M  V30 1409 H 132.932 7.2088 -2.41321 0
M  V30 1410 N 134.507 -0.190092 1.56449 0
M  V30 1411 C 135.756 -0.907912 1.80111 0
M  V30 1412 C 136.069 -1.84214 0.657619 0
M  V30 1413 O 137.275 -2.60094 0.778663 0
M  V30 1414 C 135.731 -1.66485 3.19078 0
M  V30 1415 C 135.339 -0.7752 4.41242 0
M  V30 1416 C 137.083 -2.37201 3.52045 0
M  V30 1417 C 134.99 -1.53129 5.71231 0
M  V30 1418 H 133.92 -0.34276 0.671589 0
M  V30 1419 H 136.571 -0.161109 1.82791 0
M  V30 1420 H 134.953 -2.45572 3.10661 0
M  V30 1421 H 136.127 -0.0226298 4.60794 0
M  V30 1422 H 134.442 -0.178627 4.16017 0
M  V30 1423 H 137.039 -2.94329 4.46402 0
M  V30 1424 H 137.382 -3.11632 2.76028 0
M  V30 1425 H 137.915 -1.65075 3.61932 0
M  V30 1426 H 134.654 -0.82967 6.50228 0
M  V30 1427 H 134.174 -2.25767 5.55688 0
M  V30 1428 H 135.853 -2.08377 6.12526 0
M  V30 1429 N 135.985 -1.50799 -0.457987 0
M  V30 1430 C 136.933 -1.71162 -1.575 0
M  V30 1431 C 137.927 -0.577592 -1.59249 0
M  V30 1432 O 139.133 -0.758443 -1.63241 0
M  V30 1433 H 135.508 -0.540468 -0.522875 0
M  V30 1434 H 137.479 -2.64837 -1.37492 0
M  V30 1435 C 136.228 -1.83496 -2.95338 0
M  V30 1436 H 135.551 -2.70153 -2.94716 0
M  V30 1437 H 136.991 -2.01765 -3.72917 0
M  V30 1438 C 135.45 -0.589694 -3.31699 0
M  V30 1439 O 135.98 0.265163 -4.00824 0
M  V30 1440 N 134.186 -0.439845 -2.87252 0
M  V30 1441 H 133.733 -1.13655 -2.31172 0
M  V30 1442 H 133.691 0.392159 -3.11945 0
M  V30 1443 N 137.463 0.71206 -1.40597 0
M  V30 1444 C 138.712 1.46754 -1.38369 0
M  V30 1445 C 139.025 1.95598 0.0097839 0
M  V30 1446 O 140.231 2.71059 0.154677 0
M  V30 1447 C 138.687 2.65289 -2.43207 0
M  V30 1448 C 138.295 2.23301 -3.88382 0
M  V30 1449 C 140.039 3.43008 -2.50091 0
M  V30 1450 C 137.946 3.38696 -4.84808 0
M  V30 1451 H 136.876 0.55118 -0.514506 0
M  V30 1452 H 139.527 0.774616 -1.66349 0
M  V30 1453 H 137.909 3.36769 -2.08332 0
M  V30 1454 H 139.083 1.59218 -4.32419 0
M  V30 1455 H 137.398 1.58618 -3.85006 0
M  V30 1456 H 139.995 4.28881 -3.1932 0
M  V30 1457 H 140.338 3.87065 -1.53253 0
M  V30 1458 H 140.871 2.78574 -2.83974 0
M  V30 1459 H 137.61 2.99668 -5.82992 0
M  V30 1460 H 137.13 4.01683 -4.45433 0
M  V30 1461 H 138.809 4.04712 -5.04794 0
M  V30 1462 N 138.941 1.26152 0.944643 0
M  V30 1463 C 139.871 1.09902 2.06019 0
M  V30 1464 C 140.852 0.00519538 1.70099 0
M  V30 1465 O 142.037 0.176583 1.93396 0
M  V30 1466 C 139.167 0.727562 3.39594 0
M  V30 1467 C 138.121 1.77274 3.89561 0
M  V30 1468 C 137.447 1.25569 5.19747 0
M  V30 1469 C 138.747 3.17357 4.14827 0
M  V30 1470 H 140.441 2.03217 2.19871 0
M  V30 1471 H 137.987 0.978452 1.05652 0
M  V30 1472 H 139.94 0.600777 4.17095 0
M  V30 1473 H 138.664 -0.241287 3.25707 0
M  V30 1474 H 137.323 1.88814 3.14237 0
M  V30 1475 H 136.971 0.276783 5.02238 0
M  V30 1476 H 136.671 1.95433 5.54148 0
M  V30 1477 H 138.195 1.1415 5.99835 0
M  V30 1478 H 139.609 3.08914 4.82954 0
M  V30 1479 H 138.006 3.84781 4.60504 0
M  V30 1480 H 139.076 3.63673 3.20734 0
M  V30 1481 N 140.419 -1.14872 1.07899 0
M  V30 1482 C 141.369 -2.17809 0.674027 0
M  V30 1483 C 142.353 -1.58008 -0.303699 0
M  V30 1484 O 143.545 -1.76616 -0.11654 0
M  V30 1485 C 140.674 -3.43208 0.0793318 0
M  V30 1486 C 139.76 -4.10051 1.08253 0
M  V30 1487 N 140.151 -4.52296 2.2641 0
M  V30 1488 C 138.449 -4.36469 0.917124 0
M  V30 1489 C 139.15 -5.04199 2.901 0
M  V30 1490 N 138.126 -4.98088 2.17736 0
M  V30 1491 H 141.928 -2.48207 1.57386 0
M  V30 1492 H 139.442 -1.315 0.952976 0
M  V30 1493 H 141.439 -4.16272 -0.228719 0
M  V30 1494 H 140.099 -3.14291 -0.815551 0
M  V30 1495 H 141.11 -4.45504 2.64096 0
M  V30 1496 H 137.787 -4.17432 0.0756078 0
M  V30 1497 H 139.177 -5.46802 3.90458 0
M  V30 1498 N 141.898 -0.863906 -1.31812 0
M  V30 1499 C 143.314 -0.555004 -1.49639 0
M  V30 1500 C 143.514 0.912266 -1.79666 0
M  V30 1501 O 142.57 1.69479 -1.87171 0
M  V30 1502 C 143.883 -1.44998 -2.63431 0
M  V30 1503 C 145.431 -1.45138 -2.77316 0
M  V30 1504 C 145.906 -2.33179 -3.94197 0
M  V30 1505 N 147.397 -2.31025 -4.01474 0
M  V30 1506 C 148.132 -2.95871 -4.9117 0
M  V30 1507 N 147.628 -3.69863 -5.8581 0
M  V30 1508 N 149.421 -2.85211 -4.84367 0
M  V30 1509 H 141.572 -1.81339 -1.10589 0
M  V30 1510 H 143.835 -0.77505 -0.545895 0
M  V30 1511 H 143.541 -2.49377 -2.48 0
M  V30 1512 H 143.415 -1.14409 -3.59431 0
M  V30 1513 H 145.802 -0.415201 -2.92164 0
M  V30 1514 H 145.883 -1.79747 -1.82001 0
M  V30 1515 H 145.527 -3.3687 -3.80107 0
M  V30 1516 H 145.457 -1.95897 -4.88807 0
M  V30 1517 H 147.948 -1.77238 -3.33759 0
M  V30 1518 H 148.261 -4.16486 -6.50968 0
M  V30 1519 H 146.606 -3.73971 -5.85808 0
M  V30 1520 H 149.797 -2.26948 -4.09405 0
M  V30 1521 H 149.97 -3.36027 -5.54066 0
M  V30 1522 N 143.376 1.44774 -0.622745 0
M  V30 1523 C 144.606 2.06187 -0.130532 0
M  V30 1524 C 145.014 1.46547 1.19669 0
M  V30 1525 O 144.357 0.579636 1.74316 0
M  V30 1526 C 144.419 3.59437 0.0674983 0
M  V30 1527 C 144.083 4.41496 -1.18026 0
M  V30 1528 C 145.08 4.75512 -2.102 0
M  V30 1529 C 142.765 4.82007 -1.41333 0
M  V30 1530 C 144.759 5.48912 -3.23998 0
M  V30 1531 C 142.446 5.55157 -2.55429 0
M  V30 1532 C 143.444 5.88528 -3.46589 0
M  V30 1533 O 143.132 6.60191 -4.58697 0
M  V30 1534 H 142.864 0.672045 -0.0730162 0
M  V30 1535 H 145.418 1.86768 -0.854802 0
M  V30 1536 H 143.648 3.77314 0.846825 0
M  V30 1537 H 145.337 4.02642 0.513209 0
M  V30 1538 H 146.103 4.4476 -1.93425 0
M  V30 1539 H 141.982 4.55457 -0.712709 0
M  V30 1540 H 145.526 5.74877 -3.95174 0
M  V30 1541 H 141.423 5.85324 -2.72151 0
M  V30 1542 H 142.191 6.78654 -4.57571 0
M  V30 1543 N 144.854 0.36279 1.53368 0
M  V30 1544 C 146.084 -0.228281 2.05335 0
M  V30 1545 C 146.492 -1.43226 1.23625 0
M  V30 1546 O 145.835 -1.81717 0.269206 0
M  V30 1547 C 145.897 -0.688549 3.52845 0
M  V30 1548 C 145.561 0.398362 4.5526 0
M  V30 1549 C 146.558 1.24732 5.04716 0
M  V30 1550 C 144.243 0.557805 4.99193 0
M  V30 1551 C 146.237 2.2411 5.96702 0
M  V30 1552 C 143.924 1.55495 5.90986 0
M  V30 1553 C 144.922 2.39503 6.39631 0
M  V30 1554 O 144.61 3.37517 7.29615 0
M  V30 1555 H 144.342 -0.044395 0.674541 0
M  V30 1556 H 146.896 0.518668 1.98744 0
M  V30 1557 H 145.126 -1.48706 3.56964 0
M  V30 1558 H 146.815 -1.20231 3.87685 0
M  V30 1559 H 147.581 1.13532 4.71525 0
M  V30 1560 H 143.46 -0.0862959 4.60919 0
M  V30 1561 H 147.004 2.89718 6.34594 0
M  V30 1562 H 142.901 1.66744 6.23592 0
M  V30 1563 H 143.669 3.33213 7.47604 0
M  V30 1564 N 146.332 -1.57332 0.0918853 0
M  V30 1565 C 147.279 -2.13847 -0.868211 0
M  V30 1566 C 148.249 -1.05618 -1.28196 0
M  V30 1567 O 149.434 -1.33387 -1.36427 0
M  V30 1568 C 146.574 -2.72062 -2.12312 0
M  V30 1569 C 145.687 -3.94514 -1.7602 0
M  V30 1570 C 144.822 -4.40903 -2.96273 0
M  V30 1571 C 143.861 -5.55953 -2.56092 0
M  V30 1572 N 142.998 -5.97209 -3.69169 0
M  V30 1573 H 147.838 -2.95575 -0.379406 0
M  V30 1574 H 145.375 -1.46048 -0.175606 0
M  V30 1575 H 147.333 -3.03931 -2.858 0
M  V30 1576 H 145.963 -1.93068 -2.58698 0
M  V30 1577 H 145.015 -3.68979 -0.925135 0
M  V30 1578 H 146.327 -4.7802 -1.42472 0
M  V30 1579 H 145.481 -4.74539 -3.78018 0
M  V30 1580 H 144.22 -3.56291 -3.33029 0
M  V30 1581 H 143.225 -5.21948 -1.72773 0
M  V30 1582 H 144.45 -6.42311 -2.20484 0
M  V30 1583 H 142.396 -5.15543 -4.05649 0
M  V30 1584 H 142.313 -6.75504 -3.39456 0
M  V30 1585 H 143.581 -6.35475 -4.51434 0
M  V30 1586 N 147.81 0.181792 -1.56548 0
M  V30 1587 C 149.035 0.920019 -1.85877 0
M  V30 1588 C 149.46 1.75494 -0.677021 0
M  V30 1589 O 148.818 1.77399 0.374056 0
M  V30 1590 C 148.866 1.78112 -3.13542 0
M  V30 1591 O 147.97 2.88152 -2.95029 0
M  V30 1592 H 147.311 0.258334 -0.611686 0
M  V30 1593 H 149.841 0.183092 -2.03779 0
M  V30 1594 H 149.851 2.18314 -3.44678 0
M  V30 1595 H 148.526 1.16777 -3.99169 0
M  V30 1596 H 147.103 2.51609 -2.75222 0
M  V30 1597 N 149.288 1.51039 0.449983 0
M  V30 1598 C 150.251 1.70863 1.5277 0
M  V30 1599 C 151.251 0.578846 1.5002 0
M  V30 1600 O 152.441 0.846213 1.52266 0
M  V30 1601 C 149.573 1.75341 2.9235 0
M  V30 1602 H 150.766 2.67034 1.36502 0
M  V30 1603 H 148.319 1.40838 0.677812 0
M  V30 1604 H 149.054 0.809383 3.14037 0
M  V30 1605 H 148.839 2.57436 2.95752 0
M  V30 1606 H 150.329 1.92559 3.70555 0
M  V30 1607 N 150.766 -0.704594 1.40972 0
M  V30 1608 C 151.696 -1.83124 1.44872 0
M  V30 1609 C 152.677 -1.67281 0.30838 0
M  V30 1610 O 153.862 -1.87149 0.518556 0
M  V30 1611 C 150.992 -3.21181 1.32136 0
M  V30 1612 C 149.946 -3.51714 2.43888 0
M  V30 1613 C 149.272 -4.89032 2.16222 0
M  V30 1614 C 150.572 -3.516 3.86232 0
M  V30 1615 H 152.266 -1.80117 2.39161 0
M  V30 1616 H 149.812 -0.865145 1.15114 0
M  V30 1617 H 151.765 -3.99702 1.33479 0
M  V30 1618 H 150.489 -3.24791 0.343279 0
M  V30 1619 H 149.148 -2.75539 2.41813 0
M  V30 1620 H 148.796 -4.89256 1.16778 0
M  V30 1621 H 148.496 -5.10426 2.911 0
M  V30 1622 H 150.02 -5.69873 2.19265 0
M  V30 1623 H 151.434 -4.2014 3.9007 0
M  V30 1624 H 149.831 -3.84523 4.60719 0
M  V30 1625 H 150.901 -2.50757 4.15029 0
M  V30 1626 N 152.244 -1.26651 -0.937939 0
M  V30 1627 C 153.49 -1.12553 -1.687 0
M  V30 1628 C 153.823 0.329782 -1.91379 0
M  V30 1629 O 153.098 1.24202 -1.4968 0
M  V30 1630 C 153.381 -1.89862 -3.05981 0
M  V30 1631 C 153.234 -3.43318 -2.90607 0
M  V30 1632 C 154.553 -1.69499 -4.0615 0
M  V30 1633 H 151.672 -0.410257 -0.612257 0
M  V30 1634 H 154.314 -1.55685 -1.08913 0
M  V30 1635 H 152.464 -1.53204 -3.57017 0
M  V30 1636 H 154.136 -3.89747 -2.46769 0
M  V30 1637 H 152.379 -3.70179 -2.26164 0
M  V30 1638 H 153.05 -3.92642 -3.8799 0
M  V30 1639 H 155.526 -2.01442 -3.64088 0
M  V30 1640 H 154.402 -2.26002 -5.00214 0
M  V30 1641 H 154.663 -0.640365 -4.37438 0
M  V30 1642 N 153.722 1.14298 -1.08507 0
M  V30 1643 C 154.654 2.1907 -0.673859 0
M  V30 1644 C 155.667 1.60381 0.279577 0
M  V30 1645 O 156.856 1.78374 0.0670754 0
M  V30 1646 C 153.956 3.38888 0.0290979 0
M  V30 1647 C 153.129 4.27103 -0.943494 0
M  V30 1648 C 152.188 5.25477 -0.275676 0
M  V30 1649 O 151.214 5.61709 -0.920401 0
M  V30 1650 N 152.416 5.7227 0.974013 0
M  V30 1651 H 155.181 2.54965 -1.57521 0
M  V30 1652 H 152.742 1.29528 -0.971287 0
M  V30 1653 H 154.734 4.01761 0.48683 0
M  V30 1654 H 153.304 3.01309 0.832555 0
M  V30 1655 H 152.524 3.61149 -1.58004 0
M  V30 1656 H 153.812 4.82905 -1.60251 0
M  V30 1657 H 153.21 5.44965 1.51755 0
M  V30 1658 H 151.767 6.37127 1.37522 0
M  V30 1659 N 155.201 0.870884 1.31352 0
M  V30 1660 C 156.45 0.478408 1.95944 0
M  V30 1661 C 156.763 -0.974493 1.69597 0
M  V30 1662 O 157.969 -1.47316 2.28058 0
M  V30 1663 C 156.425 0.804609 3.50791 0
M  V30 1664 C 156.033 2.27433 3.85977 0
M  V30 1665 C 157.777 0.480648 4.2177 0
M  V30 1666 C 155.684 2.5429 5.33939 0
M  V30 1667 H 154.614 0.175175 0.733369 0
M  V30 1668 H 157.265 1.06391 1.4951 0
M  V30 1669 H 155.647 0.148347 3.95722 0
M  V30 1670 H 156.821 2.97373 3.52002 0
M  V30 1671 H 155.136 2.56442 3.28065 0
M  V30 1672 H 157.733 0.658519 5.30629 0
M  V30 1673 H 158.076 -0.578979 4.12254 0
M  V30 1674 H 158.609 1.09349 3.82476 0
M  V30 1675 H 155.348 3.58939 5.48491 0
M  V30 1676 H 154.868 1.88945 5.69263 0
M  V30 1677 H 156.547 2.39066 6.01212 0
M  V30 1678 N 156.679 -1.44442 0.630414 0
M  V30 1679 C 157.909 -2.06115 0.141465 0
M  V30 1680 C 158.317 -1.47179 -1.1889 0
M  V30 1681 O 157.66 -0.588873 -1.74006 0
M  V30 1682 C 157.722 -3.59467 -0.0484355 0
M  V30 1683 C 157.386 -4.40864 1.20366 0
M  V30 1684 C 158.383 -4.74391 2.12719 0
M  V30 1685 C 156.068 -4.8125 1.43887 0
M  V30 1686 C 158.062 -5.47186 3.26904 0
M  V30 1687 C 155.749 -5.53795 2.5837 0
M  V30 1688 C 156.747 -5.86682 3.49705 0
M  V30 1689 O 156.435 -6.57749 4.62191 0
M  V30 1690 H 156.167 -0.671648 0.0765792 0
M  V30 1691 H 158.721 -1.86312 0.864695 0
M  V30 1692 H 156.951 -3.77758 -0.826803 0
M  V30 1693 H 158.64 -4.02909 -0.491849 0
M  V30 1694 H 159.406 -4.43728 1.95781 0
M  V30 1695 H 155.285 -4.55073 0.736853 0
M  V30 1696 H 158.829 -5.72773 3.98217 0
M  V30 1697 H 154.726 -5.83872 2.75251 0
M  V30 1698 H 155.494 -6.76217 4.61164 0
M  V30 1699 N 158.157 -0.370918 -1.53173 0
M  V30 1700 C 159.067 0.480823 -2.2962 0
M  V30 1701 C 160.083 1.08789 -1.35798 0
M  V30 1702 O 161.259 1.09768 -1.68858 0
M  V30 1703 C 158.324 1.60227 -3.07454 0
M  V30 1704 C 157.385 1.0222 -4.16953 0
M  V30 1705 C 156.618 2.0902 -4.91066 0
M  V30 1706 O 156.841 3.30222 -4.65091 0
M  V30 1707 O 155.775 1.71778 -5.76867 0
M  V30 1708 H 159.601 -0.141421 -3.03371 0
M  V30 1709 H 157.186 -0.135146 -1.48787 0
M  V30 1710 H 159.068 2.25417 -3.56041 0
M  V30 1711 H 157.743 2.20982 -2.36535 0
M  V30 1712 H 156.65 0.334064 -3.72605 0
M  V30 1713 H 157.983 0.459131 -4.90054 0
M  V30 1714 N 159.635 1.57281 -0.100228 0
M  V30 1715 C 160.565 2.17328 0.853857 0
M  V30 1716 C 161.546 1.10804 1.2906 0
M  V30 1717 O 162.731 1.38963 1.35657 0
M  V30 1718 C 159.861 2.75772 2.11109 0
M  V30 1719 C 158.815 3.87713 1.81279 0
M  V30 1720 C 158.141 4.32882 3.13874 0
M  V30 1721 C 159.441 5.10677 1.09574 0
M  V30 1722 H 161.135 2.97305 0.353545 0
M  V30 1723 H 158.681 1.43009 0.168612 0
M  V30 1724 H 160.634 3.16433 2.78296 0
M  V30 1725 H 159.358 1.93057 2.63432 0
M  V30 1726 H 158.017 3.476 1.16489 0
M  V30 1727 H 157.665 3.47051 3.64095 0
M  V30 1728 H 157.365 5.08358 2.94696 0
M  V30 1729 H 158.889 4.7618 3.82211 0
M  V30 1730 H 160.303 5.48474 1.66879 0
M  V30 1731 H 158.7 5.91615 1.00557 0
M  V30 1732 H 159.77 4.84835 0.0793299 0
M  V30 1733 N 161.113 -0.173488 1.56642 0
M  V30 1734 C 162.023 -1.23482 1.99473 0
M  V30 1735 C 163.039 -1.48567 0.905752 0
M  V30 1736 O 164.215 -1.60758 1.21321 0
M  V30 1737 C 161.28 -2.55444 2.34413 0
M  V30 1738 C 160.341 -2.38241 3.57127 0
M  V30 1739 C 159.574 -3.63909 3.90392 0
M  V30 1740 O 159.797 -4.68996 3.24653 0
M  V30 1741 O 158.731 -3.58149 4.83749 0
M  V30 1742 H 162.557 -0.901279 2.90018 0
M  V30 1743 H 160.142 -0.380185 1.44482 0
M  V30 1744 H 162.024 -3.33292 2.57865 0
M  V30 1745 H 160.699 -2.88382 1.4703 0
M  V30 1746 H 159.606 -1.58431 3.38896 0
M  V30 1747 H 160.939 -2.10228 4.45045 0
M  V30 1748 N 162.591 -1.51276 -0.441967 0
M  V30 1749 C 163.501 -1.75092 -1.56141 0
M  V30 1750 C 164.517 -0.634963 -1.62001 0
M  V30 1751 O 165.693 -0.916686 -1.79329 0
M  V30 1752 C 162.758 -1.86666 -2.92158 0
M  V30 1753 C 161.819 -3.10506 -2.96453 0
M  V30 1754 C 161.052 -3.21519 -4.25982 0
M  V30 1755 O 161.275 -2.38586 -5.18105 0
M  V30 1756 O 160.209 -4.14465 -4.36466 0
M  V30 1757 H 164.035 -2.70044 -1.38961 0
M  V30 1758 H 161.62 -1.35722 -0.624499 0
M  V30 1759 H 163.502 -1.96292 -3.72891 0
M  V30 1760 H 162.177 -0.949014 -3.09476 0
M  V30 1761 H 161.084 -3.06363 -2.14692 0
M  V30 1762 H 162.417 -4.01945 -2.84079 0
M  V30 1763 N 164.069 0.697108 -1.41344 0
M  V30 1764 C 165.019 1.80313 -1.39539 0
M  V30 1765 C 166.003 1.58618 -0.270001 0
M  V30 1766 O 167.195 1.69477 -0.510551 0
M  V30 1767 C 164.324 3.18606 -1.27848 0
M  V30 1768 C 163.41 3.46001 -2.45244 0
M  V30 1769 N 163.801 3.44103 -3.70711 0
M  V30 1770 C 162.099 3.76542 -2.39023 0
M  V30 1771 C 162.8 3.7036 -4.48563 0
M  V30 1772 N 161.776 3.90027 -3.78655 0
M  V30 1773 H 165.578 1.77207 -2.34468 0
M  V30 1774 H 163.092 0.897031 -1.35378 0
M  V30 1775 H 165.089 3.97833 -1.24637 0
M  V30 1776 H 163.749 3.22925 -0.339032 0
M  V30 1777 H 164.76 3.2452 -4.03618 0
M  V30 1778 H 161.437 3.88241 -1.53542 0
M  V30 1779 H 162.827 3.75042 -5.57488 0
M  V30 1780 N 165.547 1.27147 0.931209 0
M  V30 1781 C 166.494 1.09568 2.03134 0
M  V30 1782 C 167.464 -0.00222433 1.661 0
M  V30 1783 O 168.649 0.159439 1.90133 0
M  V30 1784 C 165.789 0.745231 3.36957 0
M  V30 1785 C 164.902 1.92041 3.86968 0
M  V30 1786 C 164.037 1.51216 5.09222 0
M  V30 1787 C 163.076 2.65504 5.5152 0
M  V30 1788 N 162.213 2.25291 6.64972 0
M  V30 1789 H 167.053 2.03708 2.17502 0
M  V30 1790 H 164.59 1.01411 1.06556 0
M  V30 1791 H 166.548 0.522878 4.1391 0
M  V30 1792 H 165.178 -0.159202 3.22407 0
M  V30 1793 H 164.23 2.25541 3.06326 0
M  V30 1794 H 165.542 2.77787 4.1429 0
M  V30 1795 H 164.696 1.25084 5.93666 0
M  V30 1796 H 163.435 0.625749 4.83669 0
M  V30 1797 H 162.44 2.92354 4.65628 0
M  V30 1798 H 163.665 3.54761 5.7907 0
M  V30 1799 H 161.611 1.39098 6.41083 0
M  V30 1800 H 161.528 3.04577 6.91931 0
M  V30 1801 H 162.796 2.02398 7.52765 0
M  V30 1802 N 167.025 -1.13721 1.09112 0
M  V30 1803 C 168.274 -1.84275 0.82009 0
M  V30 1804 C 168.587 -1.84253 -0.656509 0
M  V30 1805 O 169.793 -2.50668 -1.04296 0
M  V30 1806 C 168.249 -3.30825 1.41714 0
M  V30 1807 C 167.857 -3.39244 2.92605 0
M  V30 1808 C 169.601 -4.06443 1.22492 0
M  V30 1809 C 167.508 -4.80047 3.45411 0
M  V30 1810 H 166.438 -0.690387 0.30312 0
M  V30 1811 H 169.089 -1.28146 1.31343 0
M  V30 1812 H 167.471 -3.86737 0.851498 0
M  V30 1813 H 168.645 -2.93344 3.55367 0
M  V30 1814 H 166.96 -2.77088 3.10823 0
M  V30 1815 H 169.557 -5.10387 1.59402 0
M  V30 1816 H 169.9 -4.15972 0.165299 0
M  V30 1817 H 170.433 -3.56852 1.75788 0
M  V30 1818 H 167.172 -4.75709 4.50978 0
M  V30 1819 H 166.692 -5.26455 2.87411 0
M  V30 1820 H 168.371 -5.48957 3.42425 0
M  V30 1821 N 168.503 -0.877838 -1.30888 0
M  V30 1822 C 169.413 -0.343096 -2.32078 0
M  V30 1823 C 170.429 0.551022 -1.65045 0
M  V30 1824 O 171.605 0.445854 -1.96403 0
M  V30 1825 C 168.67 0.439905 -3.43898 0
M  V30 1826 C 167.731 -0.483111 -4.26573 0
M  V30 1827 C 166.964 0.262616 -5.33053 0
M  V30 1828 O 167.187 1.48967 -5.50604 0
M  V30 1829 O 166.121 -0.383593 -6.00676 0
M  V30 1830 H 169.947 -1.18203 -2.79753 0
M  V30 1831 H 167.532 -0.64145 -1.34929 0
M  V30 1832 H 169.414 0.883504 -4.12034 0
M  V30 1833 H 168.089 1.25526 -2.98371 0
M  V30 1834 H 166.996 -0.975374 -3.61161 0
M  V30 1835 H 168.329 -1.26427 -4.75686 0
M  V30 1836 N 169.982 1.44106 -0.638065 0
M  V30 1837 C 171.21 2.06336 -0.152615 0
M  V30 1838 C 171.625 1.47731 1.17563 0
M  V30 1839 O 170.982 0.602806 1.72257 0
M  V30 1840 C 171.033 3.61479 -0.0391491 0
M  V30 1841 O 170.754 4.17903 -1.31487 0
M  V30 1842 C 172.255 4.40757 0.474176 0
M  V30 1843 H 169.475 0.665862 -0.0828776 0
M  V30 1844 H 172.019 1.84862 -0.87443 0
M  V30 1845 H 170.174 3.82191 0.633142 0
M  V30 1846 H 170.588 5.11416 -1.16421 0
M  V30 1847 H 172.062 5.49707 0.502562 0
M  V30 1848 H 172.539 4.12697 1.50258 0
M  V30 1849 H 173.145 4.24979 -0.165102 0
M  V30 1850 N 171.46 0.379036 1.52974 0
M  V30 1851 C 172.706 -0.199244 2.02422 0
M  V30 1852 C 173.061 -1.4532 1.26095 0
M  V30 1853 O 172.354 -1.88377 0.34996 0
M  V30 1854 C 172.548 -0.53096 3.53434 0
M  V30 1855 C 172.377 0.689298 4.44386 0
M  V30 1856 C 171.147 1.20546 4.9071 0
M  V30 1857 C 173.345 1.55856 4.90116 0
M  V30 1858 N 171.327 2.38434 5.65705 0
M  V30 1859 C 172.698 2.58396 5.63588 0
M  V30 1860 C 174.753 1.57986 4.7217 0
M  V30 1861 C 173.456 3.62939 6.21022 0
M  V30 1862 C 175.482 2.6143 5.30479 0
M  V30 1863 C 174.844 3.62693 6.03849 0
M  V30 1864 H 170.943 -0.0352671 0.781204 0
M  V30 1865 H 173.527 0.526614 1.87443 0
M  V30 1866 H 171.698 -1.22588 3.68547 0
M  V30 1867 H 173.43 -1.0955 3.89591 0
M  V30 1868 H 170.185 0.768022 4.67331 0
M  V30 1869 H 170.609 2.98055 6.07859 0
M  V30 1870 H 175.251 0.810475 4.14959 0
M  V30 1871 H 172.969 4.40751 6.77321 0
M  V30 1872 H 176.555 2.63949 5.18481 0
M  V30 1873 H 175.435 4.41424 6.48163 0
M  V30 1874 N 172.938 -1.57226 0.108567 0
M  V30 1875 C 174.354 -1.5766 -0.248058 0
M  V30 1876 C 174.554 -1.12063 -1.67464 0
M  V30 1877 O 173.61 -0.803236 -2.39383 0
M  V30 1878 C 174.923 -3.0069 -0.0242287 0
M  V30 1879 C 176.471 -3.12868 -0.0909372 0
M  V30 1880 C 176.946 -4.57879 0.105067 0
M  V30 1881 N 178.437 -4.63172 0.0506846 0
M  V30 1882 C 179.172 -5.73126 0.177396 0
M  V30 1883 N 178.668 -6.91866 0.359696 0
M  V30 1884 N 180.461 -5.61977 0.117709 0
M  V30 1885 H 172.612 -1.85169 1.04049 0
M  V30 1886 H 174.875 -0.85529 0.40888 0
M  V30 1887 H 174.581 -3.38299 0.961604 0
M  V30 1888 H 174.455 -3.6945 -0.76068 0
M  V30 1889 H 176.842 -2.75124 -1.06729 0
M  V30 1890 H 176.923 -2.46672 0.677225 0
M  V30 1891 H 176.567 -4.96321 1.07834 0
M  V30 1892 H 176.497 -5.22153 -0.682954 0
M  V30 1893 H 178.988 -3.778 -0.0871266 0
M  V30 1894 H 179.301 -7.71503 0.447529 0
M  V30 1895 H 177.646 -6.93874 0.395536 0
M  V30 1896 H 180.837 -4.68094 -0.0236741 0
M  V30 1897 H 181.01 -6.47627 0.219905 0
M  V30 1898 N 174.416 0.165178 -1.56732 0
M  V30 1899 C 175.326 1.22423 -2.00125 0
M  V30 1900 C 176.342 1.48084 -0.913619 0
M  V30 1901 O 177.518 1.60112 -1.22172 0
M  V30 1902 C 174.583 2.54197 -2.35764 0
M  V30 1903 C 173.644 2.36343 -3.58386 0
M  V30 1904 C 172.877 3.61834 -3.92316 0
M  V30 1905 O 173.1 4.67267 -3.27135 0
M  V30 1906 O 172.034 3.55579 -4.85641 0
M  V30 1907 H 175.86 0.885886 -2.90492 0
M  V30 1908 H 173.445 0.372518 -1.44681 0
M  V30 1909 H 175.327 3.3192 -2.59629 0
M  V30 1910 H 174.002 2.87598 -1.48557 0
M  V30 1911 H 172.909 1.56632 -3.39731 0
M  V30 1912 H 174.242 2.07865 -4.46154 0
M  V30 1913 N 175.894 1.51508 0.433938 0
M  V30 1914 C 177.14 1.64588 1.18484 0
M  V30 1915 C 177.473 0.362666 1.90784 0
M  V30 1916 O 176.748 -0.637892 1.83742 0
M  V30 1917 C 177.031 2.85149 2.19913 0
M  V30 1918 C 176.884 4.23456 1.51674 0
M  V30 1919 C 178.203 3.01227 3.20858 0
M  V30 1920 H 175.322 0.598994 0.429389 0
M  V30 1921 H 177.964 1.84002 0.473647 0
M  V30 1922 H 176.114 2.68729 2.80566 0
M  V30 1923 H 177.786 4.51552 0.943322 0
M  V30 1924 H 176.029 4.25998 0.819035 0
M  V30 1925 H 176.7 5.03812 2.2556 0
M  V30 1926 H 179.176 3.16382 2.70263 0
M  V30 1927 H 178.052 3.87141 3.89118 0
M  V30 1928 H 178.313 2.13447 3.8716 0
M  V30 1929 N 177.372 -0.689602 1.41712 0
M  V30 1930 C 178.602 -1.47613 1.44548 0
M  V30 1931 C 179.01 -1.89132 0.0509034 0
M  V30 1932 O 178.353 -1.57741 -0.94146 0
M  V30 1933 C 178.415 -2.76596 2.2964 0
M  V30 1934 C 178.079 -2.57245 3.77722 0
M  V30 1935 C 179.076 -2.22804 4.69739 0
M  V30 1936 C 176.761 -2.727 4.2183 0
M  V30 1937 C 178.755 -2.04064 6.03851 0
M  V30 1938 C 176.442 -2.53576 5.56006 0
M  V30 1939 C 177.44 -2.1931 6.46832 0
M  V30 1940 O 177.128 -2.00359 7.78532 0
M  V30 1941 H 176.86 -0.461227 0.494212 0
M  V30 1942 H 179.414 -0.856045 1.86711 0
M  V30 1943 H 177.644 -3.41033 1.82301 0
M  V30 1944 H 179.333 -3.38424 2.24107 0
M  V30 1945 H 180.099 -2.10473 4.36951 0
M  V30 1946 H 175.978 -2.98353 3.51435 0
M  V30 1947 H 179.522 -1.77241 6.74708 0
M  V30 1948 H 175.419 -2.65499 5.88371 0
M  V30 1949 H 176.187 -2.15075 7.89737 0
M  V30 1950 N 178.85 -1.27639 -0.924453 0
M  V30 1951 C 179.78 -1.13166 -2.04244 0
M  V30 1952 C 180.761 -0.032256 -1.70069 0
M  V30 1953 O 181.946 -0.207328 -1.9309 0
M  V30 1954 C 179.076 -0.781496 -3.38393 0
M  V30 1955 C 178.03 -1.83449 -3.86692 0
M  V30 1956 C 177.356 -1.33822 -5.17683 0
M  V30 1957 C 178.656 -3.23917 -4.09726 0
M  V30 1958 H 180.35 -2.06689 -2.1661 0
M  V30 1959 H 177.896 -0.995136 -1.04082 0
M  V30 1960 H 179.849 -0.667057 -4.16087 0
M  V30 1961 H 178.573 0.189439 -3.2605 0
M  V30 1962 H 177.232 -1.93789 -3.11193 0
M  V30 1963 H 176.88 -0.35665 -5.01734 0
M  V30 1964 H 176.58 -2.04224 -5.50968 0
M  V30 1965 H 178.104 -1.23679 -5.97943 0
M  V30 1966 H 179.518 -3.16559 -4.77978 0
M  V30 1967 H 177.915 -3.92059 -4.54324 0
M  V30 1968 H 178.985 -3.68729 -3.14908 0
M  V30 1969 N 180.328 1.1314 -1.09713 0
M  V30 1970 C 181.26 2.18343 -0.697056 0
M  V30 1971 C 182.273 1.60669 0.262551 0
M  V30 1972 O 183.462 1.78435 0.0481527 0
M  V30 1973 C 180.562 3.38899 -0.00684728 0
M  V30 1974 C 179.735 4.26078 -0.988741 0
M  V30 1975 C 178.794 5.25155 -0.331394 0
M  V30 1976 O 177.82 5.60701 -0.979926 0
M  V30 1977 N 179.022 5.73271 0.913261 0
M  V30 1978 H 181.787 2.5328 -1.60216 0
M  V30 1979 H 179.348 1.28491 -0.984971 0
M  V30 1980 H 181.34 4.02255 0.444191 0
M  V30 1981 H 179.91 3.02175 0.800551 0
M  V30 1982 H 179.13 3.59453 -1.61826 0
M  V30 1983 H 180.418 4.81178 -1.65364 0
M  V30 1984 H 179.816 5.46544 1.45966 0
M  V30 1985 H 178.373 6.3855 1.30757 0
M  V30 1986 N 181.806 0.884767 1.30421 0
M  V30 1987 C 183.083 0.423185 1.90967 0
M  V30 1988 C 183.463 -1.09605 1.80416 0
M  V30 1989 O 182.811 -1.93126 1.22125 0
M  V30 1990 C 183.021 0.921056 3.36627 0
M  V30 1991 C 184.369 0.955903 4.137 0
M  V30 1992 O 185.393 0.867706 3.4547 0
M  V30 1993 O 184.252 1.08614 5.35598 0
M  V30 1994 H 181.346 0.129369 0.816819 0
M  V30 1995 H 183.892 0.973653 1.3899 0
M  V30 1996 H 182.664 1.96489 3.3839 0
M  V30 1997 H 182.287 0.349741 3.96059 0
M  V30 1998 N 183.284 -1.43765 0.645699 0
M  V30 1999 C 184.509 -2.06767 0.161883 0
M  V30 2000 C 184.934 -1.48034 -1.16049 0
M  V30 2001 O 184.292 -0.587369 -1.71522 0
M  V30 2002 C 184.34 -3.60519 0.0762003 0
M  V30 2003 O 183.444 -4.00982 -0.963721 0
M  V30 2004 H 182.785 -0.657675 0.091429 0
M  V30 2005 H 185.315 -1.84397 0.886499 0
M  V30 2006 H 185.325 -4.07853 -0.109604 0
M  V30 2007 H 184 -4.02646 1.04157 0
M  V30 2008 H 182.577 -3.65253 -0.751312 0
M  V30 2009 N 184.763 -0.387143 -1.52771 0
M  V30 2010 C 186.01 0.195735 -2.01552 0
M  V30 2011 C 186.338 1.46995 -1.27369 0
M  V30 2012 O 185.593 1.92325 -0.361879 0
M  V30 2013 C 185.892 0.512209 -3.53711 0
M  V30 2014 C 185.558 -0.670202 -4.45891 0
M  V30 2015 C 184.22 -0.994586 -4.70809 0
M  V30 2016 C 186.572 -1.46134 -5.00294 0
M  V30 2017 C 183.9 -2.11169 -5.4738 0
M  V30 2018 C 186.252 -2.56903 -5.78086 0
M  V30 2019 C 184.916 -2.89852 -6.01284 0
M  V30 2020 H 184.186 0.0716246 -0.73753 0
M  V30 2021 H 186.833 -0.524046 -1.8419 0
M  V30 2022 H 185.138 1.31329 -3.69134 0
M  V30 2023 H 186.835 0.975804 -3.88946 0
M  V30 2024 H 183.425 -0.407366 -4.2666 0
M  V30 2025 H 187.609 -1.22397 -4.80971 0
M  V30 2026 H 182.865 -2.3707 -5.63567 0
M  V30 2027 H 187.039 -3.18608 -6.19243 0
M  V30 2028 H 184.666 -3.76533 -6.60399 0
M  V30 2029 N 186.241 1.57166 -0.116904 0
M  V30 2030 C 187.188 2.15202 0.83408 0
M  V30 2031 C 188.158 1.07644 1.26499 0
M  V30 2032 O 189.343 1.35541 1.34288 0
M  V30 2033 C 186.483 2.75405 2.07957 0
M  V30 2034 C 185.596 3.97264 1.69721 0
M  V30 2035 C 184.731 4.45561 2.89221 0
M  V30 2036 C 183.77 5.59956 2.47215 0
M  V30 2037 N 182.907 6.03006 3.59622 0
M  V30 2038 H 187.747 2.96141 0.332335 0
M  V30 2039 H 185.284 1.46309 0.152349 0
M  V30 2040 H 187.242 3.08439 2.80929 0
M  V30 2041 H 185.872 1.97159 2.55594 0
M  V30 2042 H 184.924 3.70404 0.866316 0
M  V30 2043 H 186.236 4.80226 1.34849 0
M  V30 2044 H 185.39 4.80493 3.7042 0
M  V30 2045 H 184.129 3.61544 3.27318 0
M  V30 2046 H 183.134 5.2463 1.64448 0
M  V30 2047 H 184.359 6.45738 2.10238 0
M  V30 2048 H 182.305 5.21931 3.97396 0
M  V30 2049 H 182.222 6.80819 3.28667 0
M  V30 2050 H 183.49 6.42576 4.41267 0
M  V30 2051 N 187.719 -0.156864 1.56817 0
M  V30 2052 C 189.13 -0.717916 1.72345 0
M  V30 2053 C 189.481 -1.82124 0.729747 0
M  V30 2054 O 188.606 -2.16141 -0.105781 0
M  V30 2055 C 189.201 -1.30904 3.12489 0
M  V30 2056 C 187.76 -1.81676 3.29653 0
M  V30 2057 C 186.907 -0.701349 2.68284 0
M  V30 2058 H 189.858 0.0686989 1.58551 0
M  V30 2059 H 189.879 -2.17882 3.11942 0
M  V30 2060 H 189.391 -0.505796 3.8479 0
M  V30 2061 H 187.492 -2.64598 2.62333 0
M  V30 2062 H 187.605 -1.95226 4.3752 0
M  V30 2063 H 185.969 -1.12548 2.28484 0
M  V30 2064 H 186.752 0.0902846 3.43181 0
M  V30 2065 N 189.197 -1.51736 -0.425897 0
M  V30 2066 C 190.127 -1.76827 -1.52494 0
M  V30 2067 C 191.108 -0.618524 -1.58456 0
M  V30 2068 O 192.293 -0.862416 -1.74 0
M  V30 2069 C 189.423 -1.90374 -2.90474 0
M  V30 2070 C 188.377 -3.0588 -2.99369 0
M  V30 2071 C 187.703 -3.04625 -4.3944 0
M  V30 2072 C 189.003 -4.45644 -2.72394 0
M  V30 2073 H 190.697 -2.68855 -1.31748 0
M  V30 2074 H 188.243 -1.29372 -0.632362 0
M  V30 2075 H 190.196 -2.0651 -3.6733 0
M  V30 2076 H 188.92 -0.95004 -3.12477 0
M  V30 2077 H 187.579 -2.89467 -2.24954 0
M  V30 2078 H 187.227 -2.0701 -4.58428 0
M  V30 2079 H 186.927 -3.82195 -4.46319 0
M  V30 2080 H 188.451 -3.22869 -5.18255 0
M  V30 2081 H 189.865 -4.62348 -3.38979 0
M  V30 2082 H 188.262 -5.25006 -2.9067 0
M  V30 2083 H 189.332 -4.54893 -1.67929 0
M  V30 2084 N 190.675 0.682077 -1.42076 0
M  V30 2085 C 191.921 1.44428 -1.42367 0
M  V30 2086 C 192.254 1.94164 -0.0373056 0
M  V30 2087 O 191.529 1.70429 0.937239 0
M  V30 2088 C 191.812 2.64654 -2.44194 0
M  V30 2089 C 191.665 2.20596 -3.91991 0
M  V30 2090 C 192.984 3.66865 -2.431 0
M  V30 2091 H 190.103 0.523834 -0.518428 0
M  V30 2092 H 192.745 0.77576 -1.73442 0
M  V30 2093 H 190.895 3.2169 -2.17826 0
M  V30 2094 H 192.567 1.68783 -4.29313 0
M  V30 2095 H 190.81 1.52242 -4.06208 0
M  V30 2096 H 191.481 3.06921 -4.58807 0
M  V30 2097 H 193.957 3.19531 -2.66532 0
M  V30 2098 H 192.833 4.48577 -3.16339 0
M  V30 2099 H 193.094 4.17493 -1.45437 0
M  V30 2100 N 192.153 1.28127 0.917671 0
M  V30 2101 C 193.393 1.163 1.68088 0
M  V30 2102 C 193.757 -0.284515 1.8988 0
M  V30 2103 O 194.958 -0.525413 2.63615 0
M  V30 2104 C 193.229 1.93546 3.00457 0
M  V30 2105 S 194.788 1.98048 3.91564 0
M  V30 2106 H 191.606 0.415005 0.577315 0
M  V30 2107 H 194.208 1.62173 1.09179 0
M  V30 2108 H 192.912 2.97888 2.82295 0
M  V30 2109 H 192.443 1.48207 3.64415 0
M  V30 2110 H 194.458 1.08415 4.84211 0
M  V30 2111 N 193.631 -1.12557 1.10312 0
M  V30 2112 C 194.88 -1.83395 0.839588 0
M  V30 2113 C 195.193 -1.84939 -0.636929 0
M  V30 2114 O 196.399 -2.51761 -1.01631 0
M  V30 2115 C 194.855 -3.29303 1.45215 0
M  V30 2116 C 194.463 -3.36122 2.96186 0
M  V30 2117 C 196.207 -4.05121 1.26796 0
M  V30 2118 C 194.114 -4.76357 3.50483 0
M  V30 2119 H 193.044 -0.687133 0.310425 0
M  V30 2120 H 195.695 -1.26746 1.32694 0
M  V30 2121 H 194.077 -3.85812 0.892469 0
M  V30 2122 H 195.251 -2.89559 3.58458 0
M  V30 2123 H 193.566 -2.73776 3.13745 0
M  V30 2124 H 196.163 -5.08668 1.64806 0
M  V30 2125 H 196.506 -4.15773 0.209409 0
M  V30 2126 H 197.039 -3.54967 1.79563 0
M  V30 2127 H 193.778 -4.70899 4.55998 0
M  V30 2128 H 193.298 -5.23377 2.92978 0
M  V30 2129 H 194.977 -5.45294 3.48228 0
M  V30 2130 N 195.109 -0.891671 -1.2995 0
M  V30 2131 C 196.334 -0.527932 -2.00568 0
M  V30 2132 C 196.759 0.877969 -1.66353 0
M  V30 2133 O 196.117 1.58301 -0.883762 0
M  V30 2134 C 196.165 -0.717745 -3.53385 0
M  V30 2135 O 195.269 0.233376 -4.11739 0
M  V30 2136 H 194.61 -0.20722 -0.630837 0
M  V30 2137 H 197.14 -1.20105 -1.65638 0
M  V30 2138 H 197.15 -0.619307 -4.03272 0
M  V30 2139 H 195.825 -1.74276 -3.77625 0
M  V30 2140 H 194.402 0.0880706 -3.72796 0
M  V30 2141 N 196.587 1.43421 -0.653314 0
M  V30 2142 C 197.998 1.85065 -0.246537 0
M  V30 2143 C 198.349 1.54688 1.2069 0
M  V30 2144 O 197.474 0.995896 1.92122 0
M  V30 2145 C 198.069 3.35922 -0.440666 0
M  V30 2146 C 196.628 3.76297 -0.0882064 0
M  V30 2147 C 195.775 2.67147 -0.743484 0
M  V30 2148 H 198.726 1.33572 -0.856979 0
M  V30 2149 H 198.747 3.79204 0.313798 0
M  V30 2150 H 198.259 3.58 -1.49858 0
M  V30 2151 H 196.36 3.5983 0.96711 0
M  V30 2152 H 196.473 4.76338 -0.513738 0
M  V30 2153 H 194.837 2.54086 -0.176712 0
M  V30 2154 H 195.62 2.92053 -1.80443 0
M  V30 2155 N 198.065 0.39524 1.52563 0
M  V30 2156 C 199.013 -0.451859 2.28169 0
M  V30 2157 C 200.007 -1.05792 1.32304 0
M  V30 2158 O 201.213 -0.997718 1.49818 0
M  V30 2159 H 197.588 -0.164481 0.733792 0
M  V30 2160 H 199.559 0.207199 2.9768 0
M  V30 2161 C 198.308 -1.56385 3.10546 0
M  V30 2162 H 197.631 -1.10682 3.84174 0
M  V30 2163 H 199.071 -2.13067 3.66577 0
M  V30 2164 C 197.53 -2.52328 2.23231 0
M  V30 2165 O 198.06 -3.5588 1.86312 0
M  V30 2166 N 196.266 -2.22209 1.87274 0
M  V30 2167 H 195.813 -1.38033 2.17496 0
M  V30 2168 H 195.771 -2.86652 1.29143 0
M  V30 2169 N 199.544 -1.57102 0.125237 0
M  V30 2170 C 200.507 -2.14471 -0.80838 0
M  V30 2171 C 201.507 -1.0811 -1.19033 0
M  V30 2172 O 202.697 -1.33856 -1.11482 0
M  V30 2173 C 199.829 -2.69005 -2.09402 0
M  V30 2174 H 201.022 -2.98297 -0.309696 0
M  V30 2175 H 198.575 -1.55807 -0.124051 0
M  V30 2176 H 199.31 -1.88785 -2.63687 0
M  V30 2177 H 199.095 -3.46799 -1.82957 0
M  V30 2178 H 200.585 -3.13278 -2.76128 0
M  V30 2179 N 201.022 0.148545 -1.56898 0
M  V30 2180 C 202.247 0.880385 -1.87787 0
M  V30 2181 C 202.672 1.74018 -0.714093 0
M  V30 2182 O 202.03 1.78153 0.336343 0
M  V30 2183 C 202.078 1.71422 -3.17249 0
M  V30 2184 O 201.182 2.8183 -3.01074 0
M  V30 2185 H 200.523 0.245301 -0.617028 0
M  V30 2186 H 203.053 0.139826 -2.04122 0
M  V30 2187 H 203.063 2.10954 -3.49231 0
M  V30 2188 H 201.738 1.08284 -4.01556 0
M  V30 2189 H 200.315 2.45715 -2.80497 0
M  V30 2190 N 202.5 1.5196 0.417844 0
M  V30 2191 C 203.43 1.77634 1.51554 0
M  V30 2192 C 204.411 0.626918 1.58126 0
M  V30 2193 O 205.596 0.871632 1.7354 0
M  V30 2194 C 202.726 1.91911 2.8946 0
M  V30 2195 C 201.68 3.07463 2.97743 0
M  V30 2196 C 201.006 3.06951 4.37819 0
M  V30 2197 C 202.306 4.47082 2.70027 0
M  V30 2198 H 204 2.6955 1.3032 0
M  V30 2199 H 201.546 1.29706 0.625492 0
M  V30 2200 H 203.499 2.08455 3.6623 0
M  V30 2201 H 202.223 0.966598 3.11969 0
M  V30 2202 H 200.882 2.90656 2.23416 0
M  V30 2203 H 200.53 2.09438 4.57323 0
M  V30 2204 H 200.23 3.84556 4.44286 0
M  V30 2205 H 201.754 3.25613 5.16535 0
M  V30 2206 H 203.168 4.6414 3.36522 0
M  V30 2207 H 201.565 5.2654 2.87881 0
M  V30 2208 H 202.635 4.55777 1.65514 0
M  V30 2209 N 203.978 -0.674533 1.42435 0
M  V30 2210 C 205.225 -1.43459 1.42919 0
M  V30 2211 C 205.553 -1.94446 0.0457312 0
M  V30 2212 O 204.808 -1.7132 -0.94593 0
M  V30 2213 C 205.107 -2.64767 2.40069 0
M  V30 2214 C 204.773 -2.3232 3.86443 0
M  V30 2215 C 203.435 -2.23182 4.26314 0
M  V30 2216 C 205.787 -2.05977 4.78773 0
M  V30 2217 C 203.115 -1.85827 5.56494 0
M  V30 2218 C 205.467 -1.70125 6.09295 0
M  V30 2219 C 204.131 -1.59498 6.48164 0
M  V30 2220 H 203.401 -0.524952 0.522978 0
M  V30 2221 H 206.048 -0.769097 1.75377 0
M  V30 2222 H 204.353 -3.36349 2.00939 0
M  V30 2223 H 206.05 -3.22949 2.37707 0
M  V30 2224 H 202.64 -2.40334 3.54877 0
M  V30 2225 H 206.824 -2.11969 4.48757 0
M  V30 2226 H 202.08 -1.76168 5.8547 0
M  V30 2227 H 206.254 -1.48767 6.80324 0
M  V30 2228 H 203.881 -1.30322 7.48946 0
M  V30 2229 N 205.456 -1.28612 -0.910864 0
M  V30 2230 C 206.733 -1.06632 -1.63979 0
M  V30 2231 C 207.113 0.393351 -2.07403 0
M  V30 2232 O 206.461 1.37999 -1.82122 0
M  V30 2233 C 206.671 -2.0436 -2.8291 0
M  V30 2234 C 208.019 -2.34666 -3.5386 0
M  V30 2235 O 209.043 -2.02467 -2.93062 0
M  V30 2236 O 207.902 -2.89631 -4.63439 0
M  V30 2237 H 204.996 -0.407737 -0.7195 0
M  V30 2238 H 207.542 -1.39942 -0.959914 0
M  V30 2239 H 206.314 -3.02727 -2.47936 0
M  V30 2240 H 205.937 -1.71714 -3.58609 0
M  V30 2241 N 206.934 1.1197 -1.10907 0
M  V30 2242 C 207.897 2.16031 -0.765707 0
M  V30 2243 C 208.897 1.59393 0.212235 0
M  V30 2244 O 210.087 1.74196 -0.0115441 0
M  V30 2245 C 207.219 3.40632 -0.135053 0
M  V30 2246 H 208.412 2.47919 -1.68748 0
M  V30 2247 H 205.965 1.27061 -0.910226 0
M  V30 2248 H 206.7 3.14348 0.797218 0
M  V30 2249 H 206.485 3.8302 -0.838937 0
M  V30 2250 H 207.975 4.17505 0.0892469 0
M  V30 2251 N 208.412 0.89855 1.29475 0
M  V30 2252 C 209.658 0.524658 1.95896 0
M  V30 2253 C 209.991 -0.926468 1.70676 0
M  V30 2254 O 209.266 -1.65665 1.01908 0
M  V30 2255 C 209.549 0.81633 3.50725 0
M  V30 2256 C 209.402 2.31907 3.85408 0
M  V30 2257 C 210.721 0.302038 4.39062 0
M  V30 2258 H 207.84 0.19209 0.711527 0
M  V30 2259 H 210.482 1.12502 1.53112 0
M  V30 2260 H 208.632 0.305369 3.87298 0
M  V30 2261 H 210.304 2.89949 3.58786 0
M  V30 2262 H 208.547 2.78027 3.32992 0
M  V30 2263 H 209.218 2.47373 4.93468 0
M  V30 2264 H 211.694 0.739551 4.09475 0
M  V30 2265 H 210.57 0.535331 5.46283 0
M  V30 2266 H 210.831 -0.797216 4.34853 0
M  V30 2267 N 209.89 -1.43072 0.660911 0
M  V30 2268 C 211.115 -2.06584 0.183805 0
M  V30 2269 C 211.54 -1.49257 -1.14472 0
M  V30 2270 O 210.898 -0.605528 -1.70889 0
M  V30 2271 C 210.946 -3.60418 0.114434 0
M  V30 2272 O 210.05 -4.01981 -0.921137 0
M  V30 2273 H 209.391 -0.656669 0.0983994 0
M  V30 2274 H 211.921 -1.83447 0.906006 0
M  V30 2275 H 211.931 -4.07946 -0.0663394 0
M  V30 2276 H 210.606 -4.01519 1.08422 0
M  V30 2277 H 209.183 -3.66029 -0.71253 0
M  V30 2278 N 211.368 -0.403325 -1.52352 0
M  V30 2279 C 212.593 0.176499 -2.06648 0
M  V30 2280 C 213.018 1.38577 -1.27193 0
M  V30 2281 O 212.376 1.7879 -0.300637 0
M  V30 2282 C 212.424 0.511061 -3.5696 0
M  V30 2283 O 211.528 1.60294 -3.79973 0
M  V30 2284 H 210.869 0.0167337 -0.663789 0
M  V30 2285 H 213.399 -0.574848 -1.96359 0
M  V30 2286 H 213.409 0.771362 -4.00642 0
M  V30 2287 H 212.084 -0.37296 -4.14224 0
M  V30 2288 H 210.661 1.33526 -3.48174 0
M  V30 2289 N 212.846 1.57033 -0.133567 0
M  V30 2290 C 213.776 2.1909 0.807567 0
M  V30 2291 C 214.757 1.13517 1.26681 0
M  V30 2292 O 215.942 1.41809 1.32679 0
M  V30 2293 C 213.072 2.80188 2.05212 0
M  V30 2294 C 212.026 3.91471 1.73015 0
M  V30 2295 C 211.352 4.39443 3.04622 0
M  V30 2296 C 212.652 5.12886 0.987168 0
M  V30 2297 H 214.346 2.97988 0.290403 0
M  V30 2298 H 211.892 1.43335 0.138239 0
M  V30 2299 H 213.845 3.22264 2.71521 0
M  V30 2300 H 212.569 1.98601 2.59278 0
M  V30 2301 H 211.228 3.49993 1.0909 0
M  V30 2302 H 210.876 3.54695 3.56651 0
M  V30 2303 H 210.576 5.14495 2.83847 0
M  V30 2304 H 212.1 4.8418 3.72024 0
M  V30 2305 H 213.514 5.51891 1.55208 0
M  V30 2306 H 211.911 5.93615 0.87985 0
M  V30 2307 H 212.981 4.84894 -0.0235286 0
M  V30 2308 N 214.325 -0.140222 1.56975 0
M  V30 2309 C 215.574 -0.850152 1.82908 0
M  V30 2310 C 215.887 -1.82028 0.715892 0
M  V30 2311 O 217.093 -2.57485 0.861016 0
M  V30 2312 C 215.549 -1.5625 3.24213 0
M  V30 2313 C 215.157 -0.63443 4.43485 0
M  V30 2314 C 216.901 -2.25881 3.59413 0
M  V30 2315 C 214.808 -1.34879 5.75814 0
M  V30 2316 H 213.738 -0.321221 0.682153 0
M  V30 2317 H 216.389 -0.102874 1.83211 0
M  V30 2318 H 214.771 -2.35565 3.18316 0
M  V30 2319 H 215.945 0.12398 4.60633 0
M  V30 2320 H 214.26 -0.0461836 4.16374 0
M  V30 2321 H 216.857 -2.79978 4.5554 0
M  V30 2322 H 217.2 -3.02693 2.85802 0
M  V30 2323 H 217.733 -1.53477 3.67001 0
M  V30 2324 H 214.472 -0.622385 6.52539 0
M  V30 2325 H 213.992 -2.07974 5.6259 0
M  V30 2326 H 215.671 -1.88784 6.18845 0
M  V30 2327 N 215.803 -1.52179 -0.40978 0
M  V30 2328 C 217.219 -1.40968 -0.74835 0
M  V30 2329 C 217.419 -0.513657 -1.94843 0
M  V30 2330 O 216.475 0.0208026 -2.52491 0
M  V30 2331 C 217.788 -2.83483 -1.0029 0
M  V30 2332 C 219.336 -2.92821 -1.10565 0
M  V30 2333 C 219.811 -4.36303 -1.39296 0
M  V30 2334 N 221.302 -4.39535 -1.46162 0
M  V30 2335 C 222.037 -5.47614 -1.70018 0
M  V30 2336 N 221.533 -6.65812 -1.91483 0
M  V30 2337 N 223.326 -5.35129 -1.72027 0
M  V30 2338 H 215.477 -2.0897 0.380186 0
M  V30 2339 H 217.74 -0.94185 0.107805 0
M  V30 2340 H 217.446 -3.51168 -0.193461 0
M  V30 2341 H 217.32 -3.24487 -1.92323 0
M  V30 2342 H 219.707 -2.25318 -1.90568 0
M  V30 2343 H 219.788 -2.55276 -0.16369 0
M  V30 2344 H 219.432 -5.04366 -0.598109 0
M  V30 2345 H 219.362 -4.71385 -2.34743 0
M  V30 2346 H 221.853 -3.54332 -1.31367 0
M  V30 2347 H 222.166 -7.43964 -2.09134 0
M  V30 2348 H 220.511 -6.68879 -1.88749 0
M  V30 2349 H 223.702 -4.41764 -1.54796 0
M  V30 2350 H 223.875 -6.19433 -1.9028 0
M  V30 2351 N 217.281 0.66697 -1.42791 0
M  V30 2352 C 218.229 1.80157 -1.47127 0
M  V30 2353 C 219.223 1.65825 -0.346199 0
M  V30 2354 O 220.429 1.72338 -0.519572 0
M  V30 2355 H 216.804 0.594158 -0.460956 0
M  V30 2356 H 218.775 1.73619 -2.42692 0
M  V30 2357 C 217.524 3.18351 -1.39813 0
M  V30 2358 H 216.847 3.3001 -2.25684 0
M  V30 2359 H 218.287 3.97736 -1.46908 0
M  V30 2360 C 216.746 3.36707 -0.11391 0
M  V30 2361 O 217.276 3.93027 0.830241 0
M  V30 2362 N 215.482 2.90586 -0.0285295 0
M  V30 2363 H 215.029 2.4494 -0.79764 0
M  V30 2364 H 214.987 3.03245 0.830063 0
M  V30 2365 N 218.759 1.29093 0.90403 0
M  V30 2366 C 219.706 1.13853 2.00764 0
M  V30 2367 C 220.676 0.0330084 1.66067 0
M  V30 2368 O 221.861 0.199733 1.89752 0
M  V30 2369 C 219.001 0.816537 3.35301 0
M  V30 2370 C 218.114 2.00206 3.82807 0
M  V30 2371 C 217.249 1.61983 5.059 0
M  V30 2372 C 216.288 2.77143 5.45764 0
M  V30 2373 N 215.425 2.39346 6.60044 0
M  V30 2374 H 220.265 2.08276 2.13132 0
M  V30 2375 H 217.802 1.03648 1.04381 0
M  V30 2376 H 219.76 0.610557 4.12708 0
M  V30 2377 H 218.39 -0.090779 3.22672 0
M  V30 2378 H 217.442 2.31988 3.01473 0
M  V30 2379 H 218.754 2.86512 4.08304 0
M  V30 2380 H 217.908 1.37649 5.90879 0
M  V30 2381 H 216.647 0.728202 4.82233 0
M  V30 2382 H 215.652 3.02165 4.59322 0
M  V30 2383 H 216.877 3.66964 5.71414 0
M  V30 2384 H 214.823 1.52665 6.37989 0
M  V30 2385 H 214.74 3.19185 6.85315 0
M  V30 2386 H 216.008 2.1832 7.48303 0
M  V30 2387 N 220.237 -1.11381 1.11499 0
M  V30 2388 C 221.486 -1.82494 0.858993 0
M  V30 2389 C 221.799 -1.85605 -0.617278 0
M  V30 2390 O 223.005 -2.52824 -0.989552 0
M  V30 2391 C 221.461 -3.27745 1.48699 0
M  V30 2392 C 221.069 -3.32961 2.99735 0
M  V30 2393 C 222.813 -4.03754 1.31085 0
M  V30 2394 C 220.72 -4.72612 3.55516 0
M  V30 2395 H 219.65 -0.683802 0.317696 0
M  V30 2396 H 222.301 -1.25331 1.34031 0
M  V30 2397 H 220.683 -3.84844 0.933339 0
M  V30 2398 H 221.857 -2.85741 3.61509 0
M  V30 2399 H 220.172 -2.70433 3.16631 0
M  V30 2400 H 222.769 -5.06891 1.70192 0
M  V30 2401 H 223.112 -4.15527 0.253496 0
M  V30 2402 H 223.645 -3.53043 1.83318 0
M  V30 2403 H 220.384 -4.66036 4.60967 0
M  V30 2404 H 219.904 -5.2024 2.98513 0
M  V30 2405 H 221.583 -5.4157 3.53992 0
M  V30 2406 N 221.715 -0.905404 -1.28997 0
M  V30 2407 C 222.665 -0.358713 -2.25161 0
M  V30 2408 C 223.649 0.524449 -1.52113 0
M  V30 2409 O 224.841 0.365534 -1.73184 0
M  V30 2410 C 221.97 0.407609 -3.40872 0
M  V30 2411 C 221.056 -0.490797 -4.21251 0
M  V30 2412 N 221.447 -1.60061 -4.79806 0
M  V30 2413 C 219.745 -0.289636 -4.45059 0
M  V30 2414 C 220.446 -2.15757 -5.40207 0
M  V30 2415 N 219.422 -1.44988 -5.23908 0
M  V30 2416 H 223.224 -1.20642 -2.67998 0
M  V30 2417 H 220.738 -0.757103 -1.43672 0
M  V30 2418 H 222.735 0.816046 -4.08835 0
M  V30 2419 H 221.395 1.25251 -2.9957 0
M  V30 2420 H 222.406 -1.98329 -4.7842 0
M  V30 2421 H 219.083 0.51643 -4.14294 0
M  V30 2422 H 220.473 -3.09069 -5.96595 0
M  V30 2423 N 223.193 1.4272 -0.668489 0
M  V30 2424 C 224.609 1.55992 -0.33745 0
M  V30 2425 C 224.809 1.64933 1.15756 0
M  V30 2426 O 223.865 1.61278 1.94282 0
M  V30 2427 C 225.178 2.81314 -1.06222 0
M  V30 2428 C 226.726 2.95078 -1.04394 0
M  V30 2429 C 227.201 4.23252 -1.74991 0
M  V30 2430 N 228.692 4.3015 -1.71829 0
M  V30 2431 C 229.427 5.28127 -2.23315 0
M  V30 2432 N 228.923 6.32293 -2.83156 0
M  V30 2433 N 230.716 5.19882 -2.13726 0
M  V30 2434 H 222.867 1.3516 -1.63846 0
M  V30 2435 H 225.13 0.650174 -0.689912 0
M  V30 2436 H 224.836 2.80823 -2.11734 0
M  V30 2437 H 224.71 3.72012 -0.62344 0
M  V30 2438 H 227.097 2.951 0.0028244 0
M  V30 2439 H 227.178 2.05627 -1.52155 0
M  V30 2440 H 226.822 4.2399 -2.79633 0
M  V30 2441 H 226.752 5.11626 -1.24685 0
M  V30 2442 H 229.243 3.55499 -1.28175 0
M  V30 2443 H 229.556 7.03398 -3.20079 0
M  V30 2444 H 227.901 6.32873 -2.87223 0
M  V30 2445 H 231.092 4.37423 -1.66669 0
M  V30 2446 H 231.265 5.96077 -2.54158 0
M  V30 2447 N 224.671 0.411399 1.52136 0
M  V30 2448 C 225.601 -0.404015 2.29978 0
M  V30 2449 C 226.582 -1.04412 1.34284 0
M  V30 2450 O 227.767 -1.0527 1.63192 0
M  V30 2451 C 224.897 -1.5197 3.12286 0
M  V30 2452 C 223.851 -1.00448 4.16046 0
M  V30 2453 C 223.177 -2.21393 4.86712 0
M  V30 2454 C 224.477 -0.0569336 5.22269 0
M  V30 2455 H 226.171 0.245529 2.98392 0
M  V30 2456 H 223.717 0.119525 1.43503 0
M  V30 2457 H 225.67 -2.09715 3.6551 0
M  V30 2458 H 224.394 -2.19716 2.41646 0
M  V30 2459 H 223.053 -0.449421 3.63835 0
M  V30 2460 H 222.701 -2.87699 4.12599 0
M  V30 2461 H 222.401 -1.87571 5.56858 0
M  V30 2462 H 223.925 -2.7974 5.4275 0
M  V30 2463 H 225.339 -0.54325 5.7072 0
M  V30 2464 H 223.736 0.192594 5.99791 0
M  V30 2465 H 224.806 0.887663 4.76706 0
M  V30 2466 N 226.149 -1.5696 0.141893 0
M  V30 2467 C 227.56 -1.82797 -0.379776 0
M  V30 2468 C 227.911 -1.06033 -1.6508 0
M  V30 2469 O 227.036 -0.304011 -2.14254 0
M  V30 2470 C 227.631 -3.31578 -0.695802 0
M  V30 2471 C 226.19 -3.58014 -1.16201 0
M  V30 2472 C 225.337 -2.76699 -0.182455 0
M  V30 2473 H 228.288 -1.54406 0.366675 0
M  V30 2474 H 228.309 -3.47454 -1.55099 0
M  V30 2475 H 227.821 -3.87421 0.229449 0
M  V30 2476 H 225.922 -3.07553 -2.10338 0
M  V30 2477 H 226.035 -4.66501 -1.09151 0
M  V30 2478 H 224.399 -2.45618 -0.674072 0
M  V30 2479 H 225.182 -3.35311 0.736297 0
M  V30 2480 N 227.627 0.131896 -1.57047 0
M  V30 2481 C 228.873 0.843179 -1.84441 0
M  V30 2482 C 229.206 1.80129 -0.725749 0
M  V30 2483 O 228.481 1.92624 0.269469 0
M  V30 2484 C 228.764 1.60442 -3.22382 0
M  V30 2485 C 228.617 0.666782 -4.4483 0
M  V30 2486 C 229.936 2.56354 -3.5773 0
M  V30 2487 H 227.055 0.305081 -0.670891 0
M  V30 2488 H 229.697 0.107839 -1.89694 0
M  V30 2489 H 227.847 2.23128 -3.18035 0
M  V30 2490 H 229.519 0.0497646 -4.61273 0
M  V30 2491 H 227.762 -0.022609 -4.33794 0
M  V30 2492 H 228.433 1.23579 -5.37989 0
M  V30 2493 H 230.909 2.0378 -3.62785 0
M  V30 2494 H 229.785 3.06657 -4.5525 0
M  V30 2495 H 230.046 3.38419 -2.84473 0
M  V30 2496 N 229.106 1.52395 0.401703 0
M  V30 2497 C 230.355 1.66044 1.14509 0
M  V30 2498 C 230.668 0.400216 1.91462 0
M  V30 2499 O 231.874 0.416632 2.68284 0
M  V30 2500 C 230.33 2.93388 2.0845 0
M  V30 2501 C 229.938 4.26545 1.36978 0
M  V30 2502 C 231.682 3.16402 2.83001 0
M  V30 2503 C 229.589 5.45007 2.29611 0
M  V30 2504 H 228.519 0.618562 0.431158 0
M  V30 2505 H 231.17 1.78886 0.40892 0
M  V30 2506 H 229.552 2.74263 2.8565 0
M  V30 2507 H 230.726 4.56179 0.650916 0
M  V30 2508 H 229.041 4.09692 0.74438 0
M  V30 2509 H 231.638 4.02085 3.52465 0
M  V30 2510 H 231.981 2.30943 3.46368 0
M  V30 2511 H 232.514 3.36034 2.12898 0
M  V30 2512 H 229.253 6.32835 1.70879 0
M  V30 2513 H 228.773 5.19702 2.9945 0
M  V30 2514 H 230.452 5.7838 2.89974 0
M  V30 2515 N 230.584 -0.659388 1.43143 0
M  V30 2516 C 231.861 -1.41627 1.34912 0
M  V30 2517 C 232.241 -2.11099 -0.00607785 0
M  V30 2518 O 231.589 -2.04353 -1.02236 0
M  V30 2519 C 231.799 -2.40604 2.52805 0
M  V30 2520 C 233.147 -3.04789 2.95616 0
M  V30 2521 O 234.171 -2.50932 2.52807 0
M  V30 2522 O 233.03 -4.02421 3.69756 0
M  V30 2523 H 230.124 -0.63246 0.532844 0
M  V30 2524 H 232.67 -0.686814 1.5518 0
M  V30 2525 H 231.442 -1.88174 3.43083 0
M  V30 2526 H 231.065 -3.21009 2.34604 0
M  V30 2527 N 232.062 -1.29571 -0.897171 0
M  V30 2528 C 233.473 -1.15964 -1.46319 0
M  V30 2529 C 233.824 0.244267 -1.94674 0
M  V30 2530 O 232.949 1.13998 -1.83939 0
M  V30 2531 C 233.544 -2.09906 -2.65942 0
M  V30 2532 C 232.103 -2.00314 -3.18671 0
M  V30 2533 C 231.25 -2.00687 -1.91363 0
M  V30 2534 H 234.201 -1.42019 -0.708268 0
M  V30 2535 H 234.222 -1.67276 -3.41759 0
M  V30 2536 H 233.734 -3.12075 -2.30718 0
M  V30 2537 H 231.835 -1.01242 -3.58582 0
M  V30 2538 H 231.948 -2.88102 -3.82798 0
M  V30 2539 H 230.312 -1.45319 -2.09175 0
M  V30 2540 H 231.095 -3.04566 -1.58413 0
M  V30 2541 N 233.54 1.10788 -1.12088 0
M  V30 2542 C 234.45 2.20599 -0.798338 0
M  V30 2543 C 235.466 1.72712 0.21135 0
M  V30 2544 O 236.642 2.01348 0.0458477 0
M  V30 2545 C 233.707 3.45771 -0.253674 0
M  V30 2546 C 232.768 4.08411 -1.32283 0
M  V30 2547 C 232.001 5.27608 -0.80406 0
M  V30 2548 O 232.224 5.69241 0.363478 0
M  V30 2549 O 231.158 5.8101 -1.57198 0
M  V30 2550 H 234.984 2.50614 -1.7154 0
M  V30 2551 H 232.569 1.19454 -0.897275 0
M  V30 2552 H 234.451 4.21376 0.0453691 0
M  V30 2553 H 233.126 3.1739 0.636005 0
M  V30 2554 H 232.033 3.34507 -1.67499 0
M  V30 2555 H 233.366 4.40986 -2.18614 0
M  V30 2556 N 235.018 0.912232 1.28515 0
M  V30 2557 C 236.243 0.559774 1.99703 0
M  V30 2558 C 236.668 -0.851393 1.67729 0
M  V30 2559 O 236.026 -1.56875 0.908834 0
M  V30 2560 C 236.074 0.773874 3.52198 0
M  V30 2561 O 235.178 -0.167842 4.12058 0
M  V30 2562 H 234.519 0.21723 0.627461 0
M  V30 2563 H 237.049 1.22725 1.63706 0
M  V30 2564 H 237.059 0.683386 4.02236 0
M  V30 2565 H 235.734 1.80261 3.74805 0
M  V30 2566 H 234.311 -0.0287509 3.72889 0
M  V30 2567 N 236.496 -1.42363 0.676048 0
M  V30 2568 C 237.744 -2.01123 0.198437 0
M  V30 2569 C 238.065 -1.53731 -1.19966 0
M  V30 2570 O 237.335 -0.759518 -1.80577 0
M  V30 2571 H 235.915 -0.743678 0.0703721 0
M  V30 2572 H 238.577 -1.74263 0.872837 0
M  V30 2573 H 237.673 -3.11454 0.200686 0
M  V30 2574 N 237.974 -0.419461 -1.51915 0
M  V30 2575 C 238.922 0.415502 -2.28859 0
M  V30 2576 C 239.916 1.03674 -1.3397 0
M  V30 2577 O 241.122 0.973757 -1.51387 0
M  V30 2578 H 237.497 0.152786 -0.736315 0
M  V30 2579 H 239.468 -0.254531 -2.97312 0
M  V30 2580 C 238.217 1.51425 -3.12995 0
M  V30 2581 H 237.54 1.04556 -3.85886 0
M  V30 2582 H 238.98 2.07208 -3.6992 0
M  V30 2583 C 237.439 2.48745 -2.27217 0
M  V30 2584 O 237.969 3.52871 -1.9195 0
M  V30 2585 N 236.175 2.19202 -1.90785 0
M  V30 2586 H 235.722 1.34556 -2.19664 0
M  V30 2587 H 235.68 2.84561 -1.33687 0
M  V30 2588 N 239.452 1.56882 -0.150215 0
M  V30 2589 C 240.68 2.00593 0.506948 0
M  V30 2590 C 241.095 1.03033 1.58208 0
M  V30 2591 O 240.452 0.0278396 1.82479 0
M  V30 2592 C 240.503 3.44209 1.10465 0
M  V30 2593 O 240.224 4.3804 0.0724636 0
M  V30 2594 C 241.725 4.03214 1.84211 0
M  V30 2595 H 238.945 0.65795 0.13169 0
M  V30 2596 H 241.489 2.03018 -0.245743 0
M  V30 2597 H 239.644 3.42625 1.80795 0
M  V30 2598 H 240.058 5.22007 0.510793 0
M  V30 2599 H 241.532 5.0569 2.21318 0
M  V30 2600 H 242.009 3.44107 2.72923 0
M  V30 2601 H 242.615 4.08437 1.18572 0
M  V30 2602 N 240.93 -0.123565 1.57115 0
M  V30 2603 C 241.86 -1.15309 2.03042 0
M  V30 2604 C 242.841 -1.43454 0.914061 0
M  V30 2605 O 244.026 -1.53973 1.18347 0
M  V30 2606 C 241.156 -2.48043 2.43089 0
M  V30 2607 C 240.11 -2.3437 3.58127 0
M  V30 2608 C 239.436 -3.72026 3.84059 0
M  V30 2609 C 240.736 -1.80804 4.90007 0
M  V30 2610 H 242.43 -0.771102 2.893 0
M  V30 2611 H 239.976 -0.369479 1.39179 0
M  V30 2612 H 241.929 -3.20311 2.73823 0
M  V30 2613 H 240.653 -2.88122 1.53796 0
M  V30 2614 H 239.312 -1.64551 3.27595 0
M  V30 2615 H 238.96 -4.09582 2.91979 0
M  V30 2616 H 238.66 -3.63732 4.6149 0
M  V30 2617 H 240.184 -4.45806 4.1724 0
M  V30 2618 H 241.598 -2.42886 5.19307 0
M  V30 2619 H 239.995 -1.83343 5.71407 0
M  V30 2620 H 241.065 -0.76528 4.78823 0
M  V30 2621 N 242.408 -1.52605 -0.393616 0
M  V30 2622 C 243.638 -1.71046 -1.15874 0
M  V30 2623 C 244.046 -0.426483 -1.84331 0
M  V30 2624 O 243.389 0.608513 -1.73329 0
M  V30 2625 C 243.451 -2.80118 -2.25332 0
M  V30 2626 C 243.115 -4.21381 -1.76881 0
M  V30 2627 C 244.112 -5.04697 -1.24808 0
M  V30 2628 C 241.797 -4.67683 -1.83244 0
M  V30 2629 C 243.791 -6.32393 -0.797387 0
M  V30 2630 C 241.478 -5.95364 -1.37787 0
M  V30 2631 C 242.476 -6.77549 -0.861208 0
M  V30 2632 O 242.164 -8.02837 -0.413252 0
M  V30 2633 H 241.896 -0.576155 -0.353583 0
M  V30 2634 H 244.45 -2.00018 -0.467123 0
M  V30 2635 H 242.68 -2.46557 -2.97904 0
M  V30 2636 H 244.369 -2.87006 -2.87023 0
M  V30 2637 H 245.135 -4.70111 -1.19252 0
M  V30 2638 H 241.014 -4.03805 -2.22401 0
M  V30 2639 H 244.558 -6.9649 -0.393437 0
M  V30 2640 H 240.455 -6.29455 -1.43026 0
M  V30 2641 H 241.223 -8.16749 -0.53515 0
M  V30 2642 N 243.887 0.651787 -1.4349 0
M  V30 2643 C 245.136 1.40754 -1.44469 0
M  V30 2644 C 245.449 1.95463 -0.0731845 0
M  V30 2645 O 246.655 2.71471 0.0395721 0
M  V30 2646 C 245.111 2.54735 -2.5424 0
M  V30 2647 C 244.719 2.06628 -3.97504 0
M  V30 2648 C 246.463 3.32092 -2.64414 0
M  V30 2649 C 244.37 3.17829 -4.98737 0
M  V30 2650 H 243.3 0.528862 -0.53742 0
M  V30 2651 H 245.951 0.703365 -1.69485 0
M  V30 2652 H 244.333 3.2763 -2.22428 0
M  V30 2653 H 245.507 1.40734 -4.38783 0
M  V30 2654 H 243.822 1.42146 -3.91387 0
M  V30 2655 H 246.419 4.14952 -3.37223 0
M  V30 2656 H 246.762 3.80217 -1.69532 0
M  V30 2657 H 247.295 2.66279 -2.95534 0
M  V30 2658 H 244.034 2.74671 -5.95177 0
M  V30 2659 H 243.554 3.82429 -4.62069 0
M  V30 2660 H 245.233 3.82937 -5.21505 0
M  V30 2661 N 245.365 1.30045 0.890287 0
M  V30 2662 C 246.295 1.18541 2.01172 0
M  V30 2663 C 247.276 0.0773356 1.69924 0
M  V30 2664 O 248.461 0.25845 1.92473 0
M  V30 2665 C 245.591 0.870941 3.36202 0
M  V30 2666 C 244.545 1.93637 3.81692 0
M  V30 2667 C 243.871 1.475 5.13953 0
M  V30 2668 C 245.171 3.34666 4.00994 0
M  V30 2669 H 246.865 2.12359 2.11054 0
M  V30 2670 H 244.411 1.02238 1.01407 0
M  V30 2671 H 246.364 0.777141 4.14172 0
M  V30 2672 H 245.088 -0.102926 3.26438 0
M  V30 2673 H 243.747 2.01972 3.05946 0
M  V30 2674 H 243.395 0.489551 5.00612 0
M  V30 2675 H 243.095 2.1876 5.4536 0
M  V30 2676 H 244.619 1.39489 5.94454 0
M  V30 2677 H 246.033 3.2912 4.69417 0
M  V30 2678 H 244.43 4.03966 4.43769 0
M  V30 2679 H 245.5 3.76949 3.05021 0
M  V30 2680 N 246.843 -1.10192 1.12674 0
M  V30 2681 C 248.071 -1.85983 0.906527 0
M  V30 2682 C 248.486 -1.80783 -0.544333 0
M  V30 2683 O 247.843 -1.19834 -1.37645 0
M  V30 2684 C 247.894 -3.34281 1.37618 0
M  V30 2685 O 247.615 -3.39401 2.77017 0
M  V30 2686 C 249.116 -4.26938 1.19325 0
M  V30 2687 H 246.336 -0.587716 0.323775 0
M  V30 2688 H 248.88 -1.39284 1.49734 0
M  V30 2689 H 247.035 -3.78436 0.828539 0
M  V30 2690 H 247.449 -4.31838 2.97684 0
M  V30 2691 H 248.923 -5.29181 1.57071 0
M  V30 2692 H 249.4 -4.38995 0.134097 0
M  V30 2693 H 250.006 -3.8859 1.72852 0
M  V30 2694 N 248.321 -0.919034 -1.28029 0
M  V30 2695 C 249.271 -0.382574 -2.24767 0
M  V30 2696 C 250.255 0.508286 -1.52661 0
M  V30 2697 O 251.447 0.347145 -1.73562 0
M  V30 2698 C 248.576 0.371432 -3.41285 0
M  V30 2699 C 247.662 -0.535449 -4.20706 0
M  V30 2700 N 248.053 -1.65141 -4.78082 0
M  V30 2701 C 246.351 -0.336824 -4.44726 0
M  V30 2702 C 247.052 -2.21475 -5.37888 0
M  V30 2703 N 246.028 -1.50537 -5.22341 0
M  V30 2704 H 249.83 -1.23477 -2.66703 0
M  V30 2705 H 247.344 -0.772299 -1.42861 0
M  V30 2706 H 249.341 0.772638 -4.09678 0
M  V30 2707 H 248.001 1.22066 -3.00882 0
M  V30 2708 H 249.012 -2.03392 -4.7629 0
M  V30 2709 H 245.689 0.47246 -4.14818 0
M  V30 2710 H 247.079 -3.15379 -5.93284 0
M  V30 2711 N 249.799 1.42003 -0.683588 0
M  V30 2712 C 250.746 2.30798 -0.0107309 0
M  V30 2713 C 251.716 1.4645 0.783688 0
M  V30 2714 O 252.901 1.75263 0.754156 0
M  V30 2715 C 250.041 3.3238 0.928306 0
M  V30 2716 C 249.154 4.31814 0.126776 0
M  V30 2717 C 248.289 5.20468 1.06236 0
M  V30 2718 C 247.328 6.11577 0.253035 0
M  V30 2719 N 246.465 6.92754 1.14179 0
M  V30 2720 H 251.305 2.8778 -0.773727 0
M  V30 2721 H 248.842 1.41745 -0.393283 0
M  V30 2722 H 250.8 3.89813 1.48666 0
M  V30 2723 H 249.43 2.76976 1.65783 0
M  V30 2724 H 248.482 3.76427 -0.54833 0
M  V30 2725 H 249.794 4.96276 -0.501192 0
M  V30 2726 H 248.948 5.82677 1.69035 0
M  V30 2727 H 247.687 4.56204 1.7242 0
M  V30 2728 H 246.692 5.48428 -0.388108 0
M  V30 2729 H 247.917 6.77892 -0.404839 0
M  V30 2730 H 245.863 6.3111 1.78987 0
M  V30 2731 H 245.78 7.53855 0.569111 0
M  V30 2732 H 247.048 7.59441 1.75697 0
M  V30 2733 N 251.277 0.427512 1.51691 0
M  V30 2734 C 252.693 0.0792977 1.59403 0
M  V30 2735 C 252.893 -1.41035 1.43914 0
M  V30 2736 O 251.949 -2.17922 1.27539 0
M  V30 2737 C 253.262 0.590636 2.94842 0
M  V30 2738 C 254.81 0.550215 3.08126 0
M  V30 2739 C 255.285 1.03836 4.46074 0
M  V30 2740 N 256.776 0.995943 4.52366 0
M  V30 2741 C 257.511 1.34463 5.57411 0
M  V30 2742 N 257.007 1.76569 6.69922 0
M  V30 2743 N 258.8 1.26343 5.47717 0
M  V30 2744 H 250.951 1.39687 1.60004 0
M  V30 2745 H 253.214 0.575003 0.753708 0
M  V30 2746 H 252.92 1.63251 3.11516 0
M  V30 2747 H 252.794 0.0102061 3.77199 0
M  V30 2748 H 255.181 -0.482654 2.91126 0
M  V30 2749 H 255.262 1.16693 2.27632 0
M  V30 2750 H 254.906 2.06965 4.63819 0
M  V30 2751 H 254.836 0.398286 5.25092 0
M  V30 2752 H 257.327 0.68661 3.7161 0
M  V30 2753 H 257.64 2.01438 7.46085 0
M  V30 2754 H 255.985 1.80488 6.71155 0
M  V30 2755 H 259.176 0.933209 4.58703 0
M  V30 2756 H 259.349 1.53846 6.29472 0
M  V30 2757 N 252.755 -1.56801 0.158532 0
M  V30 2758 C 254.004 -1.95665 -0.489702 0
M  V30 2759 C 254.317 -1.04654 -1.65248 0
M  V30 2760 O 255.523 -1.33146 -2.3661 0
M  V30 2761 C 253.979 -3.47874 -0.922582 0
M  V30 2762 C 253.587 -4.47489 0.213893 0
M  V30 2763 C 255.331 -3.95583 -1.53996 0
M  V30 2764 C 253.238 -5.90921 -0.237903 0
M  V30 2765 H 252.168 -0.730516 -0.186716 0
M  V30 2766 H 254.819 -1.81861 0.244722 0
M  V30 2767 H 253.201 -3.57051 -1.71261 0
M  V30 2768 H 254.375 -4.50017 0.991036 0
M  V30 2769 H 252.69 -4.09764 0.740407 0
M  V30 2770 H 255.287 -5.0019 -1.8898 0
M  V30 2771 H 255.63 -3.37789 -2.43319 0
M  V30 2772 H 256.163 -3.8937 -0.814611 0
M  V30 2773 H 252.902 -6.52559 0.620236 0
M  V30 2774 H 252.422 -5.91729 -0.980676 0
M  V30 2775 H 254.101 -6.43352 -0.686067 0
M  V30 2776 N 254.233 0.115231 -1.57178 0
M  V30 2777 C 255.163 1.1423 -2.03651 0
M  V30 2778 C 256.144 1.42967 -0.921655 0
M  V30 2779 O 257.329 1.53343 -1.19162 0
M  V30 2780 C 254.459 2.4675 -2.44401 0
M  V30 2781 C 253.413 2.32467 -3.59365 0
M  V30 2782 C 252.739 3.69984 -3.86026 0
M  V30 2783 C 254.039 1.78203 -4.90959 0
M  V30 2784 H 255.733 0.755749 -2.89705 0
M  V30 2785 H 253.279 0.362093 -1.39373 0
M  V30 2786 H 255.232 3.18854 -2.75517 0
M  V30 2787 H 253.956 2.87302 -1.55322 0
M  V30 2788 H 252.615 1.62811 -3.28463 0
M  V30 2789 H 252.263 4.08028 -2.94147 0
M  V30 2790 H 251.963 3.61279 -4.63412 0
M  V30 2791 H 253.487 4.43587 -4.19599 0
M  V30 2792 H 254.901 2.40128 -5.20587 0
M  V30 2793 H 253.298 1.8031 -5.72371 0
M  V30 2794 H 254.368 0.739876 -4.79222 0
M  V30 2795 N 255.711 1.52812 0.385517 0
M  V30 2796 C 256.658 1.77838 1.47113 0
M  V30 2797 C 257.628 0.621757 1.54024 0
M  V30 2798 O 258.813 0.861846 1.70226 0
M  V30 2799 C 255.953 1.95618 2.84302 0
M  V30 2800 C 255.066 3.23316 2.86515 0
M  V30 2801 C 254.201 3.31394 4.15152 0
M  V30 2802 C 253.24 4.53201 4.1143 0
M  V30 2803 N 252.377 4.58542 5.3168 0
M  V30 2804 H 257.217 2.70482 1.25073 0
M  V30 2805 H 254.754 1.34006 0.606692 0
M  V30 2806 H 256.712 2.03912 3.63972 0
M  V30 2807 H 255.342 1.06331 3.04784 0
M  V30 2808 H 254.394 3.24076 1.99195 0
M  V30 2809 H 255.706 4.13045 2.79634 0
M  V30 2810 H 254.86 3.3889 5.03228 0
M  V30 2811 H 253.599 2.39645 4.24761 0
M  V30 2812 H 252.604 4.45827 3.21742 0
M  V30 2813 H 253.829 5.46271 4.03442 0
M  V30 2814 H 251.775 3.69686 5.41912 0
M  V30 2815 H 251.692 5.42148 5.26889 0
M  V30 2816 H 252.96 4.70296 6.21644 0
M  V30 2817 N 257.189 -0.644168 1.43834 0
M  V30 2818 C 258.436 -1.40395 1.4593 0
M  V30 2819 C 258.764 -1.94305 0.0869658 0
M  V30 2820 O 258.019 -1.73288 -0.909378 0
M  V30 2821 C 258.318 -2.59615 2.45631 0
M  V30 2822 C 257.984 -2.2407 3.91284 0
M  V30 2823 C 256.646 -2.14089 4.30952 0
M  V30 2824 C 258.998 -1.95775 4.83034 0
M  V30 2825 C 256.326 -1.73981 5.6031 0
M  V30 2826 C 258.678 -1.57163 6.12766 0
M  V30 2827 C 257.342 -1.45713 6.51402 0
M  V30 2828 H 256.612 -0.513741 0.533995 0
M  V30 2829 H 259.259 -0.731724 1.76969 0
M  V30 2830 H 257.564 -3.32011 2.08028 0
M  V30 2831 H 259.261 -3.17834 2.44504 0
M  V30 2832 H 255.851 -2.32753 3.59895 0
M  V30 2833 H 260.035 -2.02403 4.53152 0
M  V30 2834 H 255.291 -1.63709 5.89075 0
M  V30 2835 H 259.465 -1.34303 6.83327 0
M  V30 2836 H 257.092 -1.14406 7.51542 0
M  V30 2837 N 258.668 -1.30515 -0.883378 0
M  V30 2838 C 259.598 -1.19607 -2.00541 0
M  V30 2839 C 260.579 -0.086346 -1.69881 0
M  V30 2840 O 261.764 -0.268654 -1.92333 0
M  V30 2841 C 258.894 -0.888758 -3.35736 0
M  V30 2842 C 257.848 -1.95659 -3.8066 0
M  V30 2843 C 257.174 -1.50224 -5.13164 0
M  V30 2844 C 258.474 -3.36788 -3.99213 0
M  V30 2845 H 260.168 -2.13476 -2.09925 0
M  V30 2846 H 257.714 -1.02775 -1.00863 0
M  V30 2847 H 259.667 -0.799094 -4.13754 0
M  V30 2848 H 258.391 0.0856125 -3.26488 0
M  V30 2849 H 257.05 -2.03591 -3.04871 0
M  V30 2850 H 256.698 -0.516092 -5.00345 0
M  V30 2851 H 256.398 -2.2165 -5.44192 0
M  V30 2852 H 257.922 -1.42639 -5.93706 0
M  V30 2853 H 259.336 -3.31605 -4.67665 0
M  V30 2854 H 257.733 -4.06314 -4.41621 0
M  V30 2855 H 258.803 -3.78561 -3.03017 0
M  V30 2856 N 260.146 1.09593 -1.13257 0
M  V30 2857 C 261.093 2.1618 -0.808381 0
M  V30 2858 C 262.063 1.64517 0.228754 0
M  V30 2859 O 263.248 1.9053 0.101381 0
M  V30 2860 C 260.388 3.43973 -0.278675 0
M  V30 2861 C 259.501 4.09545 -1.37466 0
M  V30 2862 C 258.636 5.25088 -0.803479 0
M  V30 2863 C 257.675 5.82579 -1.87799 0
M  V30 2864 N 256.812 6.89486 -1.32488 0
M  V30 2865 H 261.652 2.43254 -1.72138 0
M  V30 2866 H 259.189 1.19392 -0.859294 0
M  V30 2867 H 261.147 4.17174 0.0465583 0
M  V30 2868 H 259.777 3.17223 0.597459 0
M  V30 2869 H 258.829 3.34226 -1.81652 0
M  V30 2870 H 260.141 4.48307 -2.18684 0
M  V30 2871 H 259.295 6.05178 -0.429427 0
M  V30 2872 H 258.034 4.87684 0.0397956 0
M  V30 2873 H 257.039 5.01152 -2.26113 0
M  V30 2874 H 258.264 6.22045 -2.72463 0
M  V30 2875 H 256.21 6.54064 -0.503575 0
M  V30 2876 H 256.127 7.27007 -2.07355 0
M  V30 2877 H 257.395 7.73336 -0.978336 0
M  V30 2878 N 261.624 0.925811 1.2754 0
M  V30 2879 C 262.554 0.440748 2.29303 0
M  V30 2880 C 263.535 -0.497971 1.62648 0
M  V30 2881 O 264.72 -0.403126 1.8997 0
M  V30 2882 C 261.85 -0.309048 3.45922 0
M  V30 2883 C 260.804 0.54166 4.24559 0
M  V30 2884 C 260.13 -0.337191 5.33636 0
M  V30 2885 C 261.43 1.80516 4.90114 0
M  V30 2886 H 263.124 1.29121 2.70126 0
M  V30 2887 H 260.67 0.622323 1.29858 0
M  V30 2888 H 262.623 -0.659315 4.1621 0
M  V30 2889 H 261.347 -1.19352 3.04011 0
M  V30 2890 H 260.006 0.874609 3.56014 0
M  V30 2891 H 259.654 -1.22056 4.87966 0
M  V30 2892 H 259.354 0.228497 5.87156 0
M  V30 2893 H 260.878 -0.683072 6.06767 0
M  V30 2894 H 262.292 1.52307 5.52698 0
M  V30 2895 H 260.689 2.3142 5.53683 0
M  V30 2896 H 261.759 2.52581 4.13921 0
M  V30 2897 N 263.102 -1.41638 0.69111 0
M  V30 2898 C 264.349 -2.01299 0.220193 0
M  V30 2899 C 264.677 -1.54715 -1.17871 0
M  V30 2900 O 263.932 -0.747193 -1.80874 0
M  V30 2901 C 264.231 -3.56714 0.221277 0
M  V30 2902 C 263.897 -4.22792 1.56709 0
M  V30 2903 C 262.559 -4.40557 1.93554 0
M  V30 2904 C 264.911 -4.59883 2.45268 0
M  V30 2905 C 262.239 -4.92688 3.18552 0
M  V30 2906 C 264.591 -5.13403 3.69595 0
M  V30 2907 C 263.255 -5.29379 4.06589 0
M  V30 2908 H 262.525 -0.736606 0.0805743 0
M  V30 2909 H 265.172 -1.69598 0.889319 0
M  V30 2910 H 263.477 -3.8818 -0.531391 0
M  V30 2911 H 265.174 -4.00678 -0.160547 0
M  V30 2912 H 261.764 -4.09336 1.2705 0
M  V30 2913 H 265.948 -4.45817 2.18084 0
M  V30 2914 H 261.204 -5.03242 3.47214 0
M  V30 2915 H 265.378 -5.41084 4.38407 0
M  V30 2916 H 263.005 -5.69537 5.03519 0
M  V30 2917 N 264.58 -0.43555 -1.51462 0
M  V30 2918 C 265.829 0.133007 -2.01261 0
M  V30 2919 C 266.142 1.43942 -1.32439 0
M  V30 2920 O 267.348 2.09081 -1.73198 0
M  V30 2921 C 265.804 0.287581 -3.58749 0
M  V30 2922 C 265.412 -1.00829 -4.36506 0
M  V30 2923 C 267.156 0.810004 -4.167 0
M  V30 2924 C 265.063 -0.819454 -5.85695 0
M  V30 2925 H 263.993 0.0534822 -0.752101 0
M  V30 2926 H 266.644 -0.565038 -1.74584 0
M  V30 2927 H 265.026 1.04859 -3.81865 0
M  V30 2928 H 266.2 -1.77749 -4.25138 0
M  V30 2929 H 264.515 -1.45911 -3.89999 0
M  V30 2930 H 267.112 0.967743 -5.2587 0
M  V30 2931 H 267.455 1.79196 -3.75758 0
M  V30 2932 H 267.988 0.107357 -3.97655 0
M  V30 2933 H 264.727 -1.77374 -6.31046 0
M  V30 2934 H 264.247 -0.0900208 -5.99732 0
M  V30 2935 H 265.926 -0.471949 -6.45276 0
M  V30 2936 N 266.058 1.56714 -0.166846 0
M  V30 2937 C 267.286 2.0112 0.485644 0
M  V30 2938 C 267.701 1.04705 1.57106 0
M  V30 2939 O 267.058 0.0471923 1.82439 0
M  V30 2940 C 267.109 3.45361 1.06808 0
M  V30 2941 O 266.83 4.38092 0.0259995 0
M  V30 2942 C 268.331 4.05145 1.79924 0
M  V30 2943 H 265.551 0.65931 0.124704 0
M  V30 2944 H 268.095 2.02746 -0.267262 0
M  V30 2945 H 266.25 3.44524 1.7715 0
M  V30 2946 H 266.664 5.22519 0.455398 0
M  V30 2947 H 268.138 5.08009 2.15942 0
M  V30 2948 H 268.615 3.46982 2.69258 0
M  V30 2949 H 269.221 4.09672 1.14234 0
M  V30 2950 N 267.536 -0.106894 1.57237 0
M  V30 2951 C 268.446 -1.14911 2.0453 0
M  V30 2952 C 269.462 -1.44592 0.96795 0
M  V30 2953 O 270.638 -1.55468 1.2803 0
M  V30 2954 C 267.703 -2.45272 2.45036 0
M  V30 2955 C 266.764 -2.22879 3.66911 0
M  V30 2956 C 265.997 -3.47024 4.05475 0
M  V30 2957 O 266.22 -4.54804 3.44252 0
M  V30 2958 O 265.154 -3.3731 4.98504 0
M  V30 2959 H 268.98 -0.777461 2.9358 0
M  V30 2960 H 266.565 -0.318563 1.45964 0
M  V30 2961 H 268.447 -3.22055 2.71769 0
M  V30 2962 H 267.122 -2.81886 1.59129 0
M  V30 2963 H 266.029 -1.43915 3.45311 0
M  V30 2964 H 267.362 -1.91163 4.53561 0
M  V30 2965 N 269.014 -1.53014 -0.377408 0
M  V30 2966 C 270.261 -1.68623 -1.12128 0
M  V30 2967 C 270.589 -0.431997 -1.89642 0
M  V30 2968 O 269.844 0.585855 -1.86725 0
M  V30 2969 C 270.143 -2.87982 -2.11663 0
M  V30 2970 C 269.809 -4.24964 -1.50719 0
M  V30 2971 C 268.471 -4.62217 -1.33825 0
M  V30 2972 C 270.823 -5.10199 -1.06519 0
M  V30 2973 C 268.151 -5.82352 -0.712963 0
M  V30 2974 C 270.503 -6.30969 -0.453955 0
M  V30 2975 C 269.167 -6.66944 -0.272411 0
M  V30 2976 H 268.437 -0.617034 -0.410305 0
M  V30 2977 H 271.084 -1.8718 -0.404484 0
M  V30 2978 H 269.389 -2.63889 -2.89603 0
M  V30 2979 H 271.086 -2.97253 -2.6915 0
M  V30 2980 H 267.676 -3.95626 -1.64858 0
M  V30 2981 H 271.86 -4.81978 -1.18368 0
M  V30 2982 H 267.116 -6.08824 -0.560611 0
M  V30 2983 H 271.29 -6.96324 -0.103217 0
M  V30 2984 H 268.917 -7.59898 0.214181 0
M  V30 2985 N 270.492 0.636531 -1.44174 0
M  V30 2986 C 271.903 1.21806 -1.41493 0
M  V30 2987 C 272.254 1.95785 -0.1275 0
M  V30 2988 O 271.379 2.02147 0.772376 0
M  V30 2989 C 271.974 2.21551 -2.56321 0
M  V30 2990 C 270.533 2.75143 -2.56853 0
M  V30 2991 C 269.68 1.50052 -2.33195 0
M  V30 2992 H 272.631 0.427531 -1.52833 0
M  V30 2993 H 272.652 3.0405 -2.28765 0
M  V30 2994 H 272.164 1.67679 -3.50008 0
M  V30 2995 H 270.265 3.33033 -1.67093 0
M  V30 2996 H 270.378 3.2155 -3.55165 0
M  V30 2997 H 268.742 1.77993 -1.82183 0
M  V30 2998 H 269.525 0.980903 -3.28988 0
M  V30 2999 N 271.97 1.30982 0.876444 0
M  V30 3000 C 272.917 1.18085 1.98304 0
M  V30 3001 C 273.887 0.0682263 1.6596 0
M  V30 3002 O 275.072 0.239937 1.89285 0
M  V30 3003 C 272.212 0.887475 3.33493 0
M  V30 3004 C 271.325 2.08281 3.78475 0
M  V30 3005 C 270.46 1.72678 5.0235 0
M  V30 3006 C 269.499 2.88657 5.39762 0
M  V30 3007 N 268.636 2.53292 6.54819 0
M  V30 3008 H 273.476 2.1275 2.08666 0
M  V30 3009 H 271.013 1.05839 1.02159 0
M  V30 3010 H 272.971 0.697961 4.1132 0
M  V30 3011 H 271.601 -0.022315 3.22792 0
M  V30 3012 H 270.653 2.3833 2.96484 0
M  V30 3013 H 271.965 2.95108 4.02135 0
M  V30 3014 H 271.119 1.50151 5.87826 0
M  V30 3015 H 269.858 0.830327 4.8058 0
M  V30 3016 H 268.863 3.1184 4.52809 0
M  V30 3017 H 270.088 3.79002 5.63502 0
M  V30 3018 H 268.034 1.66163 6.34607 0
M  V30 3019 H 267.951 3.3365 6.7839 0
M  V30 3020 H 269.219 2.34143 7.43503 0
M  V30 3021 N 273.449 -1.08991 1.13837 0
M  V30 3022 C 274.86 -1.62746 0.914917 0
M  V30 3023 C 275.211 -1.88403 -0.547594 0
M  V30 3024 O 274.336 -1.63706 -1.41525 0
M  V30 3025 C 274.931 -2.95662 1.65437 0
M  V30 3026 C 273.49 -3.46225 1.47666 0
M  V30 3027 C 272.637 -2.20562 1.6807 0
M  V30 3028 H 275.588 -0.922946 1.29102 0
M  V30 3029 H 275.609 -3.63825 1.11407 0
M  V30 3030 H 275.121 -2.76956 2.71877 0
M  V30 3031 H 273.222 -3.70046 0.435478 0
M  V30 3032 H 273.335 -4.23368 2.24268 0
M  V30 3033 H 271.699 -2.29439 1.10589 0
M  V30 3034 H 272.482 -2.0437 2.7584 0
M  V30 3035 N 274.927 -0.932562 -1.27047 0
M  V30 3036 C 275.837 -0.441219 -2.30414 0
M  V30 3037 C 276.853 0.480525 -1.67233 0
M  V30 3038 O 278.029 0.362151 -1.98117 0
M  V30 3039 C 275.094 0.293651 -3.45454 0
M  V30 3040 C 274.155 -0.663601 -4.2414 0
M  V30 3041 C 273.388 0.0362932 -5.33688 0
M  V30 3042 O 273.611 1.2548 -5.56427 0
M  V30 3043 O 272.545 -0.638015 -5.98509 0
M  V30 3044 H 276.371 -1.29962 -2.74488 0
M  V30 3045 H 273.956 -0.6981 -1.32087 0
M  V30 3046 H 275.838 0.707951 -4.15411 0
M  V30 3047 H 274.513 1.12758 -3.03426 0
M  V30 3048 H 273.42 -1.12768 -3.56699 0
M  V30 3049 H 274.753 -1.46489 -4.69896 0
M  V30 3050 N 276.405 1.4127 -0.698611 0
M  V30 3051 C 277.652 2.0118 -0.230865 0
M  V30 3052 C 277.98 1.55338 1.17049 0
M  V30 3053 O 277.235 0.756775 1.80475 0
M  V30 3054 C 277.534 3.56592 -0.240192 0
M  V30 3055 C 277.2 4.21955 -1.58948 0
M  V30 3056 C 275.862 4.39524 -1.95887 0
M  V30 3057 C 278.214 4.58576 -2.47704 0
M  V30 3058 C 275.542 4.90992 -3.2116 0
M  V30 3059 C 277.894 5.11435 -3.72313 0
M  V30 3060 C 276.558 5.27215 -4.0939 0
M  V30 3061 H 275.828 0.736169 -0.0844796 0
M  V30 3062 H 278.475 1.69124 -0.8983 0
M  V30 3063 H 276.78 3.88456 0.510797 0
M  V30 3064 H 278.477 4.00758 0.139296 0
M  V30 3065 H 275.067 4.08657 -1.29219 0
M  V30 3066 H 279.251 4.44654 -2.20445 0
M  V30 3067 H 274.507 5.01393 -3.49878 0
M  V30 3068 H 278.681 5.38752 -4.4127 0
M  V30 3069 H 276.308 5.66859 -5.06533 0
M  V30 3070 N 277.883 0.443576 1.51229 0
M  V30 3071 C 278.816 -0.410089 2.24485 0
M  V30 3072 C 279.794 -1.01949 1.26669 0
M  V30 3073 O 280.978 -1.06075 1.55821 0
M  V30 3074 C 278.105 -1.57211 3.00004 0
M  V30 3075 C 277.151 -1.08279 4.12526 0
M  V30 3076 S 277.984 -0.0197476 5.35496 0
M  V30 3077 C 279.14 -1.18629 6.14555 0
M  V30 3078 H 279.373 0.211832 2.96544 0
M  V30 3079 H 276.906 0.228156 1.52705 0
M  V30 3080 H 278.864 -2.23825 3.44111 0
M  V30 3081 H 277.525 -2.16547 2.27522 0
M  V30 3082 H 276.718 -1.95193 4.64667 0
M  V30 3083 H 276.32 -0.494797 3.70713 0
M  V30 3084 H 278.612 -2.10344 6.4402 0
M  V30 3085 H 279.555 -0.70472 7.04584 0
M  V30 3086 H 279.963 -1.42768 5.46148 0
M  V30 3087 N 279.361 -1.56624 0.175154 0
M  V30 3088 C 280.586 -2.01813 -0.478137 0
M  V30 3089 C 281.011 -1.05457 -1.55757 0
M  V30 3090 O 280.369 -0.0347439 -1.81267 0
M  V30 3091 C 280.417 -3.45581 -1.02987 0
M  V30 3092 O 279.521 -3.52305 -2.14371 0
M  V30 3093 H 278.862 -0.65413 -0.114059 0
M  V30 3094 H 281.392 -2.02673 0.280173 0
M  V30 3095 H 281.402 -3.84965 -1.35151 0
M  V30 3096 H 280.077 -4.1521 -0.239556 0
M  V30 3097 H 278.654 -3.24783 -1.83222 0
M  V30 3098 N 280.839 0.0985539 -1.57292 0
M  V30 3099 C 281.786 1.11981 -2.01814 0
M  V30 3100 C 282.756 1.39999 -0.89384 0
M  V30 3101 O 283.941 1.5152 -1.15958 0
M  V30 3102 C 281.081 2.43577 -2.44467 0
M  V30 3103 C 280.194 2.2232 -3.70402 0
M  V30 3104 C 279.329 3.4729 -4.01949 0
M  V30 3105 C 278.368 3.2128 -5.21005 0
M  V30 3106 N 277.505 4.38507 -5.48321 0
M  V30 3107 H 282.345 0.733149 -2.88841 0
M  V30 3108 H 279.882 0.350482 -1.42864 0
M  V30 3109 H 281.84 3.20373 -2.6724 0
M  V30 3110 H 280.47 2.80097 -1.60455 0
M  V30 3111 H 279.522 1.36343 -3.55126 0
M  V30 3112 H 280.834 1.99089 -4.57345 0
M  V30 3113 H 279.988 4.32495 -4.25479 0
M  V30 3114 H 278.727 3.73572 -3.13521 0
M  V30 3115 H 277.732 2.34468 -4.97298 0
M  V30 3116 H 278.957 2.96348 -6.11028 0
M  V30 3117 H 276.903 4.64871 -4.62851 0
M  V30 3118 H 276.82 4.18455 -6.29628 0
M  V30 3119 H 278.088 5.24787 -5.76385 0
M  V30 3120 N 282.317 1.53212 0.369288 0
M  V30 3121 C 283.542 1.73423 1.1375 0
M  V30 3122 C 283.967 0.460404 1.82378 0
M  V30 3123 O 283.325 -0.585298 1.71592 0
M  V30 3124 C 283.373 2.89769 2.1463 0
M  V30 3125 O 282.477 2.58119 3.21634 0
M  V30 3126 H 281.818 0.576061 0.330227 0
M  V30 3127 H 284.348 2.00083 0.427547 0
M  V30 3128 H 284.358 3.15829 2.58294 0
M  V30 3129 H 283.033 3.8217 1.64071 0
M  V30 3130 H 281.61 2.42864 2.82969 0
M  V30 3131 N 283.795 -0.628877 1.44509 0
M  V30 3132 C 284.725 -1.75187 1.54376 0
M  V30 3133 C 285.706 -1.65411 0.396618 0
M  V30 3134 O 286.891 -1.84137 0.617031 0
M  V30 3135 C 284.021 -3.13725 1.48976 0
M  V30 3136 C 282.975 -3.38291 2.62189 0
M  V30 3137 C 282.301 -4.76883 2.41841 0
M  V30 3138 C 283.601 -3.30632 4.04326 0
M  V30 3139 H 285.295 -1.67187 2.48373 0
M  V30 3140 H 282.841 -0.802909 1.19538 0
M  V30 3141 H 284.794 -3.92064 1.54478 0
M  V30 3142 H 283.518 -3.22515 0.514961 0
M  V30 3143 H 282.177 -2.62334 2.56079 0
M  V30 3144 H 281.825 -4.82378 1.42548 0
M  V30 3145 H 281.525 -4.94278 3.17747 0
M  V30 3146 H 283.049 -5.57449 2.49165 0
M  V30 3147 H 284.463 -3.98873 4.11793 0
M  V30 3148 H 282.86 -3.59561 4.80454 0
M  V30 3149 H 283.93 -2.28404 4.27738 0
M  V30 3150 N 285.273 -1.31445 -0.869486 0
M  V30 3151 C 286.183 -1.21097 -2.0093 0
M  V30 3152 C 287.199 -0.127584 -1.73532 0
M  V30 3153 O 288.375 -0.345477 -1.98415 0
M  V30 3154 C 285.44 -0.919378 -3.34288 0
M  V30 3155 C 284.501 -2.08971 -3.75006 0
M  V30 3156 C 283.734 -1.81194 -5.02001 0
M  V30 3157 O 283.957 -0.747296 -5.65484 0
M  V30 3158 O 282.891 -2.66883 -5.39497 0
M  V30 3159 H 286.717 -2.16883 -2.12592 0
M  V30 3160 H 284.302 -1.11189 -0.997868 0
M  V30 3161 H 286.184 -0.772625 -4.14257 0
M  V30 3162 H 284.859 0.00844772 -3.23699 0
M  V30 3163 H 283.766 -2.29187 -2.95676 0
M  V30 3164 H 285.099 -2.9998 -3.90221 0
M  V30 3165 N 286.751 1.08385 -1.14413 0
M  V30 3166 C 287.661 2.18856 -0.844951 0
M  V30 3167 C 288.677 1.73121 0.174668 0
M  V30 3168 O 289.853 2.014 0.00312857 0
M  V30 3169 C 286.918 3.45155 -0.32696 0
M  V30 3170 C 285.979 4.05513 -1.40916 0
M  V30 3171 C 285.212 5.25784 -0.915793 0
M  V30 3172 O 285.435 5.69884 0.242651 0
M  V30 3173 O 284.369 5.77545 -1.69487 0
M  V30 3174 H 288.195 2.46919 -1.76818 0
M  V30 3175 H 285.78 1.17524 -0.922411 0
M  V30 3176 H 287.662 4.21377 -0.0440211 0
M  V30 3177 H 286.337 3.18668 0.568539 0
M  V30 3178 H 285.244 3.30879 -1.74556 0
M  V30 3179 H 286.577 4.3625 -2.27919 0
M  V30 3180 N 288.23 0.939286 1.26551 0
M  V30 3181 C 289.16 0.465044 2.28822 0
M  V30 3182 C 290.141 -0.480692 1.63167 0
M  V30 3183 O 291.326 -0.382955 1.90387 0
M  V30 3184 C 288.456 -0.27234 3.46231 0
M  V30 3185 C 287.41 0.58666 4.2396 0
M  V30 3186 C 286.736 -0.280573 5.33963 0
M  V30 3187 C 288.036 1.85704 4.88171 0
M  V30 3188 H 289.73 1.31979 2.68741 0
M  V30 3189 H 287.276 0.636061 1.29191 0
M  V30 3190 H 289.229 -0.615133 4.16886 0
M  V30 3191 H 287.953 -1.16121 3.0526 0
M  V30 3192 H 286.612 0.91232 3.55067 0
M  V30 3193 H 286.26 -1.16874 4.89234 0
M  V30 3194 H 285.96 0.29076 5.8688 0
M  V30 3195 H 287.484 -0.618678 6.07458 0
M  V30 3196 H 288.898 1.58161 5.51052 0
M  V30 3197 H 287.295 2.37279 5.51197 0
M  V30 3198 H 288.365 2.56957 4.11219 0
M  V30 3199 N 289.708 -1.40897 0.706093 0
M  V30 3200 C 290.64 -2.29199 0.00815776 0
M  V30 3201 C 291.653 -1.45336 -0.733582 0
M  V30 3202 O 292.842 -1.68727 -0.582537 0
M  V30 3203 C 289.942 -3.23417 -1.01265 0
M  V30 3204 C 289.115 -4.36089 -0.338387 0
M  V30 3205 C 288.174 -5.10811 -1.26326 0
M  V30 3206 O 287.2 -5.64215 -0.751651 0
M  V30 3207 N 288.402 -5.19269 -2.595 0
M  V30 3208 H 291.167 -2.89738 0.766297 0
M  V30 3209 H 288.728 -1.52164 0.55296 0
M  V30 3210 H 290.72 -3.70276 -1.63334 0
M  V30 3211 H 289.29 -2.64112 -1.67223 0
M  V30 3212 H 288.51 -3.91479 0.462352 0
M  V30 3213 H 289.798 -5.08634 0.130031 0
M  V30 3214 H 289.196 -4.77347 -3.03573 0
M  V30 3215 H 287.753 -5.69667 -3.16737 0
M  V30 3216 N 291.186 -0.45159 -1.50991 0
M  V30 3217 C 292.435 0.111653 -2.01391 0
M  V30 3218 C 292.748 1.42529 -1.33959 0
M  V30 3219 O 293.954 2.07232 -1.75405 0
M  V30 3220 C 292.41 0.249514 -3.59034 0
M  V30 3221 C 292.018 -1.05453 -4.35412 0
M  V30 3222 C 293.762 0.765762 -4.17536 0
M  V30 3223 C 291.669 -0.881529 -5.84793 0
M  V30 3224 H 290.599 0.0455022 -0.752626 0
M  V30 3225 H 293.25 -0.583524 -1.73975 0
M  V30 3226 H 291.632 1.00803 -3.82955 0
M  V30 3227 H 292.806 -1.82248 -4.23229 0
M  V30 3228 H 291.121 -1.50039 -3.88429 0
M  V30 3229 H 293.718 0.911913 -5.26866 0
M  V30 3230 H 294.061 1.75201 -3.77638 0
M  V30 3231 H 294.594 0.0651744 -3.97747 0
M  V30 3232 H 291.333 -1.84057 -6.29129 0
M  V30 3233 H 290.853 -0.153625 -5.99603 0
M  V30 3234 H 292.532 -0.540363 -6.4474 0
M  V30 3235 N 292.664 1.56529 -0.183458 0
M  V30 3236 C 293.912 1.96855 0.457452 0
M  V30 3237 C 294.233 1.07104 1.62953 0
M  V30 3238 O 293.503 0.139887 1.954 0
M  V30 3239 H 292.083 0.72693 0.171992 0
M  V30 3240 H 294.745 1.93056 -0.267476 0
M  V30 3241 H 293.841 3.01423 0.809368 0
M  V30 3242 N 294.142 -0.090211 1.57342 0
M  V30 3243 C 295.37 -0.806224 1.90546 0
M  V30 3244 C 295.785 -1.72041 0.777644 0
M  V30 3245 O 295.142 -1.80778 -0.250103 0
M  V30 3246 C 295.193 -1.61546 3.23396 0
M  V30 3247 O 294.914 -0.738043 4.31839 0
M  V30 3248 C 296.415 -2.4341 3.70495 0
M  V30 3249 H 293.635 -0.230256 0.630257 0
M  V30 3250 H 296.179 -0.0659843 2.04394 0
M  V30 3251 H 294.334 -2.30816 3.11131 0
M  V30 3252 H 294.748 -1.29901 5.08159 0
M  V30 3253 H 296.222 -2.95676 4.66133 0
M  V30 3254 H 296.699 -3.22098 2.98579 0
M  V30 3255 H 297.305 -1.79331 3.85643 0
M  V30 3256 N 295.62 -1.53406 -0.361157 0
M  V30 3257 C 296.85 -1.73465 -1.1222 0
M  V30 3258 C 297.258 -0.465486 -1.83384 0
M  V30 3259 O 296.601 0.571611 -1.7458 0
M  V30 3260 C 296.663 -2.84834 -2.19339 0
M  V30 3261 C 296.327 -4.25038 -1.67903 0
M  V30 3262 C 297.324 -5.07231 -1.14074 0
M  V30 3263 C 295.009 -4.71464 -1.73282 0
M  V30 3264 C 297.003 -6.33942 -0.663068 0
M  V30 3265 C 294.69 -5.98153 -1.25127 0
M  V30 3266 C 295.688 -6.79223 -0.717296 0
M  V30 3267 O 295.376 -8.03533 -0.242865 0
M  V30 3268 H 295.108 -0.583526 -0.341283 0
M  V30 3269 H 297.662 -2.00964 -0.424591 0
M  V30 3270 H 295.892 -2.5282 -2.92607 0
M  V30 3271 H 297.581 -2.9303 -2.80871 0
M  V30 3272 H 298.347 -4.72534 -1.09254 0
M  V30 3273 H 294.226 -4.08432 -2.13786 0
M  V30 3274 H 297.77 -6.97167 -0.245612 0
M  V30 3275 H 293.667 -6.32347 -1.29642 0
M  V30 3276 H 294.435 -8.177 -0.361786 0
M  V30 3277 N 297.098 0.621204 -1.44841 0
M  V30 3278 C 298.061 1.71459 -1.521 0
M  V30 3279 C 299.061 1.55696 -0.401933 0
M  V30 3280 O 300.251 1.61011 -0.664925 0
M  V30 3281 C 297.383 3.10624 -1.40447 0
M  V30 3282 H 298.576 1.66394 -2.49506 0
M  V30 3283 H 296.129 0.835745 -1.3208 0
M  V30 3284 H 296.864 3.21277 -0.441737 0
M  V30 3285 H 296.649 3.23473 -2.21602 0
M  V30 3286 H 298.139 3.90293 -1.4853 0
M  V30 3287 N 298.576 1.31904 0.862503 0
M  V30 3288 C 299.524 1.20125 1.9918 0
M  V30 3289 C 300.518 0.107824 1.69056 0
M  V30 3290 O 301.724 0.270223 1.7796 0
M  V30 3291 H 298.099 0.372148 0.65346 0
M  V30 3292 H 300.07 2.15652 2.06244 0
M  V30 3293 C 298.819 0.933099 3.34946 0
M  V30 3294 H 298.142 1.76664 3.5865 0
M  V30 3295 H 299.582 0.890892 4.14535 0
M  V30 3296 C 298.041 -0.364172 3.34926 0
M  V30 3297 O 298.571 -1.37858 3.77304 0
M  V30 3298 N 296.777 -0.383362 2.8806 0
M  V30 3299 H 296.324 0.442651 2.53768 0
M  V30 3300 H 296.282 -1.25123 2.8843 0
M  V30 3301 N 300.054 -1.07777 1.14986 0
M  V30 3302 C 301.303 -1.79669 0.916617 0
M  V30 3303 C 301.616 -1.87474 -0.557917 0
M  V30 3304 O 302.822 -2.55845 -0.908617 0
M  V30 3305 C 301.278 -3.22848 1.59051 0
M  V30 3306 C 300.886 -3.23257 3.10176 0
M  V30 3307 C 302.63 -3.99379 1.43864 0
M  V30 3308 C 300.537 -4.61063 3.70372 0
M  V30 3309 H 299.467 -0.673349 0.33929 0
M  V30 3310 H 302.118 -1.21003 1.37951 0
M  V30 3311 H 300.5 -3.8168 1.0553 0
M  V30 3312 H 301.674 -2.74095 3.70417 0
M  V30 3313 H 299.989 -2.60222 3.25074 0
M  V30 3314 H 302.586 -5.0122 1.86232 0
M  V30 3315 H 302.929 -4.14511 0.385564 0
M  V30 3316 H 303.462 -3.47032 1.94457 0
M  V30 3317 H 300.201 -4.51135 4.7556 0
M  V30 3318 H 299.721 -5.1048 3.14913 0
M  V30 3319 H 301.4 -5.30034 3.71043 0
M  V30 3320 N 301.532 -0.945985 -1.26051 0
M  V30 3321 C 302.495 -0.463897 -2.24456 0
M  V30 3322 C 303.495 0.427655 -1.55009 0
M  V30 3323 O 304.685 0.226157 -1.72726 0
M  V30 3324 C 301.817 0.330812 -3.39291 0
M  V30 3325 H 303.01 -1.33357 -2.68619 0
M  V30 3326 H 300.563 -0.728416 -1.38289 0
M  V30 3327 H 301.298 1.21852 -3.00537 0
M  V30 3328 H 301.083 -0.308679 -3.90883 0
M  V30 3329 H 302.573 0.657865 -4.12386 0
M  V30 3330 N 303.011 1.40521 -0.713556 0
M  V30 3331 C 303.944 2.28198 -0.00881422 0
M  V30 3332 C 304.922 1.43227 0.769735 0
M  V30 3333 O 306.106 1.72641 0.756799 0
M  V30 3334 C 303.233 3.23758 0.994899 0
M  V30 3335 C 302.279 4.25391 0.3074 0
M  V30 3336 S 303.112 5.26765 -0.963247 0
M  V30 3337 C 304.268 6.25888 0.0384143 0
M  V30 3338 H 304.501 2.87622 -0.752407 0
M  V30 3339 H 302.034 1.45925 -0.504502 0
M  V30 3340 H 303.992 3.79341 1.56879 0
M  V30 3341 H 302.653 2.63396 1.71118 0
M  V30 3342 H 301.846 4.92596 1.0661 0
M  V30 3343 H 301.448 3.73497 -0.193879 0
M  V30 3344 H 303.74 6.71683 0.885912 0
M  V30 3345 H 304.683 7.05552 -0.60019 0
M  V30 3346 H 305.091 5.63072 0.401233 0
M  V30 3347 N 304.489 0.459591 1.5075 0
M  V30 3348 C 305.735 -0.0994966 2.02556 0
M  V30 3349 C 306.068 -1.40399 1.3417 0
M  V30 3350 O 305.343 -1.88892 0.463683 0
M  V30 3351 C 305.626 -0.295242 3.58888 0
M  V30 3352 C 305.479 1.02947 4.37861 0
M  V30 3353 C 306.798 -1.05502 4.27267 0
M  V30 3354 H 303.917 -0.034686 0.736183 0
M  V30 3355 H 306.559 0.602938 1.8018 0
M  V30 3356 H 304.709 -0.893563 3.78084 0
M  V30 3357 H 306.381 1.66348 4.30263 0
M  V30 3358 H 304.624 1.62885 4.02058 0
M  V30 3359 H 305.295 0.846281 5.45474 0
M  V30 3360 H 307.771 -0.547993 4.12476 0
M  V30 3361 H 306.647 -1.16077 5.36486 0
M  V30 3362 H 306.908 -2.08875 3.89645 0
M  V30 3363 N 305.967 -1.56429 0.191757 0
M  V30 3364 C 307.383 -1.58754 -0.164137 0
M  V30 3365 C 307.583 -1.20782 -1.61288 0
M  V30 3366 O 306.639 -0.928999 -2.34789 0
M  V30 3367 C 307.952 -3.00396 0.135195 0
M  V30 3368 C 309.5 -3.1291 0.0750351 0
M  V30 3369 C 309.975 -4.56679 0.347632 0
M  V30 3370 N 311.466 -4.62252 0.296131 0
M  V30 3371 C 312.201 -5.71379 0.480948 0
M  V30 3372 N 311.697 -6.88986 0.725933 0
M  V30 3373 N 313.49 -5.60563 0.415435 0
M  V30 3374 H 305.641 -1.79393 1.13718 0
M  V30 3375 H 307.904 -0.832414 0.453643 0
M  V30 3376 H 307.61 -3.32726 1.13958 0
M  V30 3377 H 307.484 -3.72963 -0.563773 0
M  V30 3378 H 309.871 -2.80394 -0.919948 0
M  V30 3379 H 309.952 -2.42736 0.807029 0
M  V30 3380 H 309.596 -4.89907 1.33992 0
M  V30 3381 H 309.526 -5.25039 -0.405212 0
M  V30 3382 H 312.017 -3.7773 0.113259 0
M  V30 3383 H 312.33 -7.68046 0.855857 0
M  V30 3384 H 310.675 -6.90801 0.762788 0
M  V30 3385 H 313.866 -4.67561 0.224486 0
M  V30 3386 H 314.039 -6.45551 0.562889 0
M  V30 3387 N 307.445 0.0818655 -1.57387 0
M  V30 3388 C 308.673 0.796108 -1.9097 0
M  V30 3389 C 309.088 1.71626 -0.786757 0
M  V30 3390 O 308.445 1.80908 0.240513 0
M  V30 3391 C 308.496 1.59829 -3.24248 0
M  V30 3392 O 308.217 0.715131 -4.32224 0
M  V30 3393 C 309.718 2.41442 -3.7178 0
M  V30 3394 H 306.938 0.22691 -0.631469 0
M  V30 3395 H 309.482 0.0551439 -2.04426 0
M  V30 3396 H 307.637 2.29163 -3.12351 0
M  V30 3397 H 308.051 1.27205 -5.08841 0
M  V30 3398 H 309.525 2.932 -4.67694 0
M  V30 3399 H 310.002 3.2051 -3.00283 0
M  V30 3400 H 310.608 1.77283 -3.86589 0
M  V30 3401 N 308.923 1.53595 0.353017 0
M  V30 3402 C 310.151 1.74311 1.1146 0
M  V30 3403 C 310.566 0.477854 1.82653 0
M  V30 3404 O 309.923 -0.549977 1.74016 0
M  V30 3405 C 309.974 2.91694 2.13534 0
M  V30 3406 O 309.695 4.13325 1.45238 0
M  V30 3407 C 311.196 3.24384 3.02142 0
M  V30 3408 H 308.416 0.582669 0.332773 0
M  V30 3409 H 310.96 2.00386 0.408107 0
M  V30 3410 H 309.115 2.67977 2.79763 0
M  V30 3411 H 309.529 4.79148 2.13349 0
M  V30 3412 H 311.003 4.09893 3.69718 0
M  V30 3413 H 311.48 2.40282 3.67643 0
M  V30 3414 H 312.086 3.50073 2.41514 0
M  V30 3415 N 310.401 -0.613514 1.45168 0
M  V30 3416 C 311.629 -1.39946 1.5239 0
M  V30 3417 C 312.044 -1.88167 0.154531 0
M  V30 3418 O 311.401 -1.61872 -0.842843 0
M  V30 3419 C 311.452 -2.60795 2.50337 0
M  V30 3420 O 311.173 -2.1458 3.81952 0
M  V30 3421 C 312.674 -3.53723 2.67198 0
M  V30 3422 H 309.894 -0.428593 0.516284 0
M  V30 3423 H 312.438 -0.748753 1.903 0
M  V30 3424 H 310.593 -3.21919 2.15515 0
M  V30 3425 H 311.007 -2.93055 4.34993 0
M  V30 3426 H 312.481 -4.35079 3.39721 0
M  V30 3427 H 312.958 -4.0368 1.73029 0
M  V30 3428 H 313.564 -2.98456 3.02992 0
M  V30 3429 N 311.879 -1.3236 -0.855495 0
M  V30 3430 C 313.29 -1.2056 -1.42556 0
M  V30 3431 C 313.641 0.182209 -1.95352 0
M  V30 3432 O 312.766 1.08088 -1.87472 0
M  V30 3433 C 313.361 -2.1826 -2.59129 0
M  V30 3434 C 311.92 -2.10351 -3.12137 0
M  V30 3435 C 311.067 -2.06674 -1.84882 0
M  V30 3436 H 314.018 -1.442 -0.662727 0
M  V30 3437 H 314.039 -1.78064 -3.36264 0
M  V30 3438 H 313.551 -3.19257 -2.20673 0
M  V30 3439 H 311.652 -1.12599 -3.55179 0
M  V30 3440 H 311.765 -3.00135 -3.73438 0
M  V30 3441 H 310.129 -1.51901 -2.04446 0
M  V30 3442 H 310.912 -3.09451 -1.48643 0
M  V30 3443 N 313.357 1.07166 -1.15556 0
M  V30 3444 C 314.603 1.80065 -0.932984 0
M  V30 3445 C 314.936 1.86586 0.53845 0
M  V30 3446 O 314.211 1.35098 1.39924 0
M  V30 3447 C 314.494 3.25022 -1.55025 0
M  V30 3448 C 314.347 3.26634 -3.09242 0
M  V30 3449 C 315.666 4.22341 -1.2376 0
M  V30 3450 H 312.785 0.653697 -0.340366 0
M  V30 3451 H 315.427 1.25389 -1.4275 0
M  V30 3452 H 313.577 3.71712 -1.12972 0
M  V30 3453 H 315.249 2.88173 -3.60214 0
M  V30 3454 H 313.492 2.65539 -3.43033 0
M  V30 3455 H 314.163 4.28854 -3.47546 0
M  V30 3456 H 316.639 3.8405 -1.60139 0
M  V30 3457 H 315.515 5.22053 -1.69564 0
M  V30 3458 H 315.776 4.41828 -0.154938 0
M  V30 3459 N 314.835 0.952656 1.25548 0
M  V30 3460 C 316.065 0.622592 1.96996 0
M  V30 3461 C 316.473 -0.809112 1.71026 0
M  V30 3462 O 315.816 -1.55258 0.981861 0
M  V30 3463 C 315.878 0.798946 3.5051 0
M  V30 3464 C 315.542 2.20744 4.00151 0
M  V30 3465 C 316.539 3.18394 4.11001 0
M  V30 3466 C 314.224 2.5311 4.33867 0
M  V30 3467 C 316.218 4.46504 4.54877 0
M  V30 3468 C 313.905 3.8145 4.7743 0
M  V30 3469 C 314.903 4.77959 4.87897 0
M  V30 3470 O 314.591 6.04012 5.30494 0
M  V30 3471 H 314.323 0.232503 0.634758 0
M  V30 3472 H 316.877 1.2789 1.60728 0
M  V30 3473 H 315.107 0.0854903 3.86605 0
M  V30 3474 H 316.796 0.47023 4.03167 0
M  V30 3475 H 317.562 2.94715 3.85186 0
M  V30 3476 H 313.441 1.78719 4.24948 0
M  V30 3477 H 316.985 5.21835 4.62962 0
M  V30 3478 H 312.882 4.04936 5.0269 0
M  V30 3479 H 313.65 6.0736 5.48685 0
M  V30 3480 N 316.313 -1.40141 0.720998 0
M  V30 3481 C 317.559 -2.01084 0.263231 0
M  V30 3482 C 317.892 -1.57052 -1.14229 0
M  V30 3483 O 317.167 -0.793027 -1.77599 0
M  V30 3484 C 317.45 -3.58401 0.349344 0
M  V30 3485 C 317.303 -4.12491 1.79363 0
M  V30 3486 C 318.622 -4.39231 -0.276351 0
M  V30 3487 H 315.741 -0.730572 0.0971228 0
M  V30 3488 H 318.383 -1.66543 0.914518 0
M  V30 3489 H 316.533 -3.87958 -0.205165 0
M  V30 3490 H 318.205 -3.93711 2.40394 0
M  V30 3491 H 316.448 -3.66576 2.31958 0
M  V30 3492 H 317.119 -5.21646 1.80524 0
M  V30 3493 H 319.595 -4.15637 0.196184 0
M  V30 3494 H 318.471 -5.48586 -0.185681 0
M  V30 3495 H 318.732 -4.20643 -1.36059 0
M  V30 3496 N 317.792 -0.46758 -1.50504 0
M  V30 3497 C 318.755 0.317059 -2.26996 0
M  V30 3498 C 319.755 0.923513 -1.31635 0
M  V30 3499 O 320.945 0.793239 -1.55091 0
M  V30 3500 C 318.077 1.45134 -3.08462 0
M  V30 3501 H 319.27 -0.353723 -2.97807 0
M  V30 3502 H 316.823 -0.221545 -1.54722 0
M  V30 3503 H 317.558 2.15728 -2.4214 0
M  V30 3504 H 317.343 1.02232 -3.78538 0
M  V30 3505 H 318.833 2.00493 -3.66323 0
M  V30 3506 N 319.27 1.56325 -0.20005 0
M  V30 3507 C 320.2 2.22318 0.713916 0
M  V30 3508 C 321.181 1.18788 1.21752 0
M  V30 3509 O 322.366 1.47309 1.26545 0
M  V30 3510 C 319.496 2.88639 1.93144 0
M  V30 3511 C 318.45 3.98457 1.56255 0
M  V30 3512 C 317.776 4.51967 2.85709 0
M  V30 3513 C 319.076 5.16612 0.768747 0
M  V30 3514 H 320.77 2.98952 0.163755 0
M  V30 3515 H 318.316 1.43792 0.0773219 0
M  V30 3516 H 320.269 3.33491 2.57608 0
M  V30 3517 H 318.993 2.09419 2.50621 0
M  V30 3518 H 317.652 3.54305 0.941471 0
M  V30 3519 H 317.3 3.69503 3.41287 0
M  V30 3520 H 317 5.26071 2.6177 0
M  V30 3521 H 318.524 4.99523 3.51154 0
M  V30 3522 H 319.938 5.57977 1.3166 0
M  V30 3523 H 318.335 5.96812 0.627286 0
M  V30 3524 H 319.405 4.84358 -0.229168 0
M  V30 3525 N 320.748 -0.0735177 1.57428 0
M  V30 3526 C 321.996 -0.771472 1.86796 0
M  V30 3527 C 322.317 -1.78201 0.791804 0
M  V30 3528 O 321.587 -1.95074 -0.179718 0
M  V30 3529 H 320.167 -0.28791 0.689287 0
M  V30 3530 H 322.829 -0.0500161 1.94836 0
M  V30 3531 H 321.925 -1.28874 2.8425 0
M  V30 3532 N 322.226 -1.5378 -0.344866 0
M  V30 3533 C 323.475 -1.7018 -1.08267 0
M  V30 3534 C 323.788 -0.471 -1.89845 0
M  V30 3535 O 324.994 -0.515917 -2.66553 0
M  V30 3536 C 323.45 -3.00923 -1.97417 0
M  V30 3537 C 323.058 -4.31335 -1.21053 0
M  V30 3538 C 324.802 -3.26688 -2.71063 0
M  V30 3539 C 322.709 -5.53153 -2.09225 0
M  V30 3540 H 321.639 -0.634138 -0.407903 0
M  V30 3541 H 324.29 -1.8028 -0.342246 0
M  V30 3542 H 322.672 -2.84676 -2.75274 0
M  V30 3543 H 323.846 -4.58281 -0.481159 0
M  V30 3544 H 322.161 -4.12173 -0.591813 0
M  V30 3545 H 324.758 -4.1489 -3.37299 0
M  V30 3546 H 325.101 -2.43639 -3.37558 0
M  V30 3547 H 325.634 -3.43705 -2.0028 0
M  V30 3548 H 322.373 -6.38741 -1.47274 0
M  V30 3549 H 321.893 -5.30458 -2.79955 0
M  V30 3550 H 323.572 -5.88744 -2.68308 0
M  V30 3551 N 323.704 0.605807 -1.45491 0
M  V30 3552 C 324.951 1.36476 -1.49601 0
M  V30 3553 C 325.279 1.94007 -0.138452 0
M  V30 3554 O 324.534 1.75638 0.863114 0
M  V30 3555 C 324.833 2.53012 -2.52428 0
M  V30 3556 C 324.499 2.13617 -3.97087 0
M  V30 3557 C 323.161 2.02587 -4.36477 0
M  V30 3558 C 325.513 1.82899 -4.88055 0
M  V30 3559 C 322.841 1.59064 -5.64726 0
M  V30 3560 C 325.193 1.40861 -6.16718 0
M  V30 3561 C 323.857 1.28391 -6.55036 0
M  V30 3562 H 323.127 0.499402 -0.547429 0
M  V30 3563 H 325.774 0.684546 -1.78847 0
M  V30 3564 H 324.079 3.26379 -2.16758 0
M  V30 3565 H 325.776 3.1124 -2.52845 0
M  V30 3566 H 322.366 2.23129 -3.65939 0
M  V30 3567 H 326.55 1.90317 -4.58359 0
M  V30 3568 H 321.806 1.48034 -5.93208 0
M  V30 3569 H 325.98 1.16138 -6.86648 0
M  V30 3570 H 323.607 0.944403 -7.54311 0
M  V30 3571 N 325.182 1.32811 0.848464 0
M  V30 3572 C 326.428 1.23907 1.60546 0
M  V30 3573 C 326.761 -0.197161 1.93197 0
M  V30 3574 O 326.036 -1.13596 1.5788 0
M  V30 3575 C 326.319 2.10489 2.92175 0
M  V30 3576 C 326.172 3.62522 2.66266 0
M  V30 3577 C 327.491 1.97075 3.93509 0
M  V30 3578 H 324.61 0.451459 0.58254 0
M  V30 3579 H 327.252 1.62818 0.979296 0
M  V30 3580 H 325.402 1.77434 3.45614 0
M  V30 3581 H 327.074 4.05821 2.19334 0
M  V30 3582 H 325.317 3.84879 2.00126 0
M  V30 3583 H 325.988 4.18437 3.6002 0
M  V30 3584 H 328.464 2.26045 3.49346 0
M  V30 3585 H 327.34 2.59923 4.83457 0
M  V30 3586 H 327.601 0.940186 4.31987 0
M  V30 3587 N 326.66 -1.06551 1.16123 0
M  V30 3588 C 327.592 -2.13908 0.823171 0
M  V30 3589 C 328.605 -1.61926 -0.16843 0
M  V30 3590 O 329.794 -1.78412 0.055962 0
M  V30 3591 C 326.894 -3.38283 0.204424 0
M  V30 3592 C 326.067 -4.19589 1.23548 0
M  V30 3593 C 325.126 -5.2233 0.637011 0
M  V30 3594 O 324.152 -5.54034 1.30516 0
M  V30 3595 N 325.354 -5.77621 -0.577474 0
M  V30 3596 H 328.119 -2.43508 1.74711 0
M  V30 3597 H 325.68 -1.2253 1.05821 0
M  V30 3598 H 327.672 -4.0416 -0.208909 0
M  V30 3599 H 326.242 -3.06329 -0.623012 0
M  V30 3600 H 325.462 -3.49406 1.82507 0
M  V30 3601 H 326.75 -4.70718 1.93137 0
M  V30 3602 H 326.148 -5.54125 -1.13853 0
M  V30 3603 H 324.705 -6.45087 -0.933053 0
M  V30 3604 N 328.138 -0.959301 -1.25041 0
M  V30 3605 C 329.088 -0.453888 -2.23436 0
M  V30 3606 C 330.072 0.459461 -1.542 0
M  V30 3607 O 331.264 0.291752 -1.74579 0
M  V30 3608 C 328.393 0.262667 -3.42294 0
M  V30 3609 C 327.479 -0.669022 -4.1879 0
M  V30 3610 N 327.87 -1.80267 -4.72586 0
M  V30 3611 C 326.168 -0.47814 -4.4343 0
M  V30 3612 C 326.869 -2.38475 -5.3057 0
M  V30 3613 N 325.845 -1.67078 -5.17287 0
M  V30 3614 H 329.647 -1.319 -2.6264 0
M  V30 3615 H 327.161 -0.817358 -1.40332 0
M  V30 3616 H 329.158 0.641911 -4.11929 0
M  V30 3617 H 327.818 1.12432 -3.04613 0
M  V30 3618 H 328.829 -2.18442 -4.69578 0
M  V30 3619 H 325.506 0.340249 -4.16111 0
M  V30 3620 H 326.896 -3.34094 -5.8295 0
M  V30 3621 N 329.616 1.39756 -0.72842 0
M  V30 3622 C 331.032 1.5442 -0.403308 0
M  V30 3623 C 331.232 1.69694 1.08656 0
M  V30 3624 O 330.288 1.69373 1.87267 0
M  V30 3625 C 331.601 2.76555 -1.18058 0
M  V30 3626 C 333.149 2.90384 -1.16815 0
M  V30 3627 C 333.624 4.15449 -1.92785 0
M  V30 3628 N 335.115 4.22475 -1.89918 0
M  V30 3629 C 335.85 5.1818 -2.45514 0
M  V30 3630 N 335.346 6.19714 -3.09719 0
M  V30 3631 N 337.139 5.1035 -2.35584 0
M  V30 3632 H 329.29 1.28089 -1.69431 0
M  V30 3633 H 331.553 0.620327 -0.716867 0
M  V30 3634 H 331.259 2.7159 -2.23455 0
M  V30 3635 H 331.133 3.69033 -0.780662 0
M  V30 3636 H 333.52 2.94846 -0.12234 0
M  V30 3637 H 333.601 1.98988 -1.6074 0
M  V30 3638 H 333.245 4.11749 -2.97364 0
M  V30 3639 H 333.175 5.05877 -1.46272 0
M  V30 3640 H 335.666 3.49743 -1.43138 0
M  V30 3641 H 335.979 6.8919 -3.49625 0
M  V30 3642 H 334.324 6.20121 -3.13807 0
M  V30 3643 H 337.515 4.2996 -1.85072 0
M  V30 3644 H 337.688 5.84761 -2.79211 0
M  V30 3645 N 331.094 0.475555 1.50254 0
M  V30 3646 C 332.34 -0.0780073 2.0265 0
M  V30 3647 C 332.673 -1.38968 1.35652 0
M  V30 3648 O 331.948 -1.8839 0.483691 0
M  V30 3649 C 332.231 -0.257161 3.59181 0
M  V30 3650 C 332.084 1.07585 4.36744 0
M  V30 3651 C 333.403 -1.00965 4.28362 0
M  V30 3652 H 330.522 -0.0268758 0.73651 0
M  V30 3653 H 333.164 0.622015 1.7953 0
M  V30 3654 H 331.314 -0.853412 3.79011 0
M  V30 3655 H 332.986 1.70902 4.28474 0
M  V30 3656 H 331.229 1.6714 4.00308 0
M  V30 3657 H 331.9 0.904088 5.44546 0
M  V30 3658 H 334.376 -0.504214 4.13034 0
M  V30 3659 H 333.252 -1.10381 5.37687 0
M  V30 3660 H 333.513 -2.04731 3.91839 0
M  V30 3661 N 332.573 -1.56217 0.208337 0
M  V30 3662 C 333.798 -2.02782 -0.435222 0
M  V30 3663 C 334.223 -1.08738 -1.53485 0
M  V30 3664 O 333.581 -0.0731855 -1.81152 0
M  V30 3665 C 333.629 -3.47687 -0.956335 0
M  V30 3666 O 332.733 -3.56773 -2.06849 0
M  V30 3667 H 332.074 -0.656403 -0.100158 0
M  V30 3668 H 334.604 -2.02033 0.3231 0
M  V30 3669 H 334.614 -3.87745 -1.26955 0
M  V30 3670 H 333.289 -4.15624 -0.15143 0
M  V30 3671 H 331.866 -3.28597 -1.76292 0
M  V30 3672 N 334.051 0.0651679 -1.57465 0
M  V30 3673 C 335.014 1.06117 -2.03155 0
M  V30 3674 C 336.014 1.31204 -0.929632 0
M  V30 3675 O 337.204 1.26813 -1.19432 0
M  V30 3676 C 334.336 2.4032 -2.41783 0
M  V30 3677 H 335.529 0.667231 -2.92383 0
M  V30 3678 H 333.082 0.311075 -1.53173 0
M  V30 3679 H 333.817 2.84532 -1.55601 0
M  V30 3680 H 333.602 2.23451 -3.22199 0
M  V30 3681 H 335.092 3.11898 -2.77685 0
M  V30 3682 N 335.529 1.53961 0.336706 0
M  V30 3683 C 336.459 1.85417 1.41925 0
M  V30 3684 C 337.44 0.709856 1.5458 0
M  V30 3685 O 338.625 0.962396 1.68676 0
M  V30 3686 C 335.755 2.06985 2.78881 0
M  V30 3687 C 334.709 3.22813 2.81026 0
M  V30 3688 C 334.035 3.29727 4.20932 0
M  V30 3689 C 335.335 4.60767 2.45949 0
M  V30 3690 H 337.029 2.76079 1.15848 0
M  V30 3691 H 334.575 1.32839 0.555859 0
M  V30 3692 H 336.528 2.27575 3.54665 0
M  V30 3693 H 335.252 1.13061 3.06406 0
M  V30 3694 H 333.911 3.0209 2.07695 0
M  V30 3695 H 333.559 2.33385 4.45579 0
M  V30 3696 H 333.259 4.07566 4.23277 0
M  V30 3697 H 334.783 3.52536 4.98549 0
M  V30 3698 H 336.197 4.81325 3.11446 0
M  V30 3699 H 334.594 5.4106 2.59566 0
M  V30 3700 H 335.664 4.6391 1.41122 0
M  V30 3701 N 337.007 -0.598083 1.45811 0
M  V30 3702 C 338.418 -1.18011 1.44673 0
M  V30 3703 C 338.769 -1.95378 0.179364 0
M  V30 3704 O 337.894 -2.04124 -0.718509 0
M  V30 3705 C 338.489 -2.14677 2.62105 0
M  V30 3706 C 337.048 -2.68236 2.64057 0
M  V30 3707 C 336.195 -1.43816 2.37091 0
M  V30 3708 H 339.146 -0.38686 1.53913 0
M  V30 3709 H 339.167 -2.97878 2.36746 0
M  V30 3710 H 338.679 -1.5834 3.5433 0
M  V30 3711 H 336.78 -3.28486 1.75864 0
M  V30 3712 H 336.893 -3.12021 3.63566 0
M  V30 3713 H 335.257 -1.731 1.86838 0
M  V30 3714 H 336.04 -0.893333 3.31473 0
M  V30 3715 N 338.485 -1.33259 -0.841409 0
M  V30 3716 C 339.731 -1.24757 -1.59886 0
M  V30 3717 C 340.064 0.186913 -1.93298 0
M  V30 3718 O 339.339 1.12757 -1.5848 0
M  V30 3719 C 339.622 -2.12036 -2.91055 0
M  V30 3720 C 339.475 -3.63929 -2.6434 0
M  V30 3721 C 340.794 -1.9916 -3.92458 0
M  V30 3722 H 337.913 -0.454542 -0.580138 0
M  V30 3723 H 340.555 -1.63335 -0.970647 0
M  V30 3724 H 338.705 -1.79265 -3.44669 0
M  V30 3725 H 340.377 -4.06978 -2.17178 0
M  V30 3726 H 338.62 -3.85935 -1.98082 0
M  V30 3727 H 339.291 -4.20341 -3.57796 0
M  V30 3728 H 341.767 -2.27895 -3.48143 0
M  V30 3729 H 340.643 -2.62484 -4.82072 0
M  V30 3730 H 340.904 -0.963082 -4.31482 0
M  V30 3731 N 339.963 1.05934 -1.16686 0
M  V30 3732 C 341.209 1.79065 -0.95203 0
M  V30 3733 C 341.542 1.87147 0.518629 0
M  V30 3734 O 340.817 1.36574 1.38484 0
M  V30 3735 C 341.1 3.23359 -1.58464 0
M  V30 3736 C 340.953 3.23336 -3.12689 0
M  V30 3737 C 342.272 4.21004 -1.28232 0
M  V30 3738 H 339.391 0.65005 -0.34728 0
M  V30 3739 H 342.033 1.23868 -1.44072 0
M  V30 3740 H 340.183 3.70493 -1.16908 0
M  V30 3741 H 341.855 2.84336 -3.6325 0
M  V30 3742 H 340.098 2.61886 -3.4583 0
M  V30 3743 H 340.769 4.25144 -3.52075 0
M  V30 3744 H 343.245 3.8233 -1.64203 0
M  V30 3745 H 342.121 5.20225 -1.75092 0
M  V30 3746 H 342.382 4.41639 -0.201791 0
M  V30 3747 N 341.441 0.965919 1.2453 0
M  V30 3748 C 342.718 0.543777 1.87889 0
M  V30 3749 C 343.098 -0.97909 1.87021 0
M  V30 3750 O 342.446 -1.84969 1.3416 0
M  V30 3751 C 342.656 1.13327 3.30088 0
M  V30 3752 C 344.004 1.21707 4.06783 0
M  V30 3753 O 345.028 1.08566 3.39252 0
M  V30 3754 O 343.887 1.42456 5.27606 0
M  V30 3755 H 340.981 0.181054 0.806938 0
M  V30 3756 H 343.527 1.06007 1.32516 0
M  V30 3757 H 342.299 2.17612 3.25209 0
M  V30 3758 H 341.922 0.600911 3.93033 0
M  V30 3759 N 342.919 -1.39368 0.735821 0
M  V30 3760 C 343.829 -2.34395 0.0979693 0
M  V30 3761 C 344.845 -1.58361 -0.720968 0
M  V30 3762 O 346.021 -1.90648 -0.649245 0
M  V30 3763 C 343.086 -3.37393 -0.797916 0
M  V30 3764 C 342.147 -4.29287 0.0333662 0
M  V30 3765 C 341.38 -5.27365 -0.819854 0
M  V30 3766 O 341.603 -5.31959 -2.05855 0
M  V30 3767 O 340.537 -6.01389 -0.248079 0
M  V30 3768 H 344.363 -2.90601 0.882315 0
M  V30 3769 H 341.948 -1.40909 0.4965 0
M  V30 3770 H 343.83 -4.00505 -1.31048 0
M  V30 3771 H 342.505 -2.83571 -1.56106 0
M  V30 3772 H 341.412 -3.69395 0.591475 0
M  V30 3773 H 342.745 -4.86317 0.758752 0
M  V30 3774 N 344.397 -0.483516 -1.5 0
M  V30 3775 C 345.344 0.304164 -2.28787 0
M  V30 3776 C 346.314 0.976114 -1.34392 0
M  V30 3777 O 347.499 0.986156 -1.63339 0
M  V30 3778 C 344.639 1.37298 -3.16612 0
M  V30 3779 C 343.752 0.714561 -4.26049 0
M  V30 3780 C 342.887 1.76232 -5.01114 0
M  V30 3781 C 341.926 1.08483 -6.0241 0
M  V30 3782 N 341.063 2.076 -6.70706 0
M  V30 3783 H 345.903 -0.373981 -2.95644 0
M  V30 3784 H 343.44 -0.196275 -1.45785 0
M  V30 3785 H 345.398 2.00445 -3.65893 0
M  V30 3786 H 344.028 2.02012 -2.51776 0
M  V30 3787 H 343.08 -0.0297798 -3.80388 0
M  V30 3788 H 344.392 0.180383 -4.98474 0
M  V30 3789 H 343.546 2.46929 -5.54176 0
M  V30 3790 H 342.285 2.33033 -4.28424 0
M  V30 3791 H 341.29 0.363545 -5.48597 0
M  V30 3792 H 342.515 0.523551 -6.77079 0
M  V30 3793 H 340.461 2.63394 -6.00799 0
M  V30 3794 H 340.378 1.59201 -7.39047 0
M  V30 3795 H 341.646 2.77639 -7.2838 0
M  V30 3796 N 345.875 1.56104 -0.216619 0
M  V30 3797 C 347.123 1.97781 0.415593 0
M  V30 3798 C 347.444 1.10536 1.60645 0
M  V30 3799 O 346.714 0.181303 1.95059 0
M  V30 3800 H 345.294 0.730415 0.156534 0
M  V30 3801 H 347.956 1.92445 -0.308366 0
M  V30 3802 H 347.052 3.03072 0.74525 0
M  V30 3803 N 347.353 -0.0568162 1.57498 0
M  V30 3804 C 348.769 -0.411933 1.54192 0
M  V30 3805 C 348.969 -1.78287 0.938942 0
M  V30 3806 O 348.025 -2.46483 0.547919 0
M  V30 3807 C 349.338 -0.339244 2.9878 0
M  V30 3808 C 350.886 -0.418348 3.10192 0
M  V30 3809 C 351.361 -0.375407 4.56459 0
M  V30 3810 N 352.852 -0.435038 4.61153 0
M  V30 3811 C 353.587 -0.424265 5.71828 0
M  V30 3812 N 353.083 -0.367418 6.91825 0
M  V30 3813 N 354.876 -0.471938 5.60115 0
M  V30 3814 H 347.027 0.840684 1.95055 0
M  V30 3815 H 349.29 0.316987 0.893433 0
M  V30 3816 H 348.996 0.601742 3.46514 0
M  V30 3817 H 348.87 -1.14371 3.59443 0
M  V30 3818 H 351.257 -1.34976 2.62422 0
M  V30 3819 H 351.338 0.414962 2.52412 0
M  V30 3820 H 350.982 0.552219 5.04889 0
M  V30 3821 H 350.912 -1.22645 5.12119 0
M  V30 3822 H 353.403 -0.482612 3.74806 0
M  V30 3823 H 353.716 -0.363535 7.71944 0
M  V30 3824 H 352.061 -0.333879 6.94198 0
M  V30 3825 H 355.252 -0.514145 4.65268 0
M  V30 3826 H 355.425 -0.460073 6.46365 0
M  V30 3827 N 348.832 -1.54138 -0.328536 0
M  V30 3828 C 350.078 -1.7236 -1.06865 0
M  V30 3829 C 350.411 -0.493231 -1.87832 0
M  V30 3830 O 349.686 0.5098 -1.877 0
M  V30 3831 C 349.969 -2.99621 -1.99747 0
M  V30 3832 C 349.822 -4.32899 -1.22143 0
M  V30 3833 C 351.141 -3.22615 -2.99345 0
M  V30 3834 H 348.26 -0.627151 -0.387105 0
M  V30 3835 H 350.902 -1.86827 -0.345767 0
M  V30 3836 H 349.052 -2.87418 -2.61387 0
M  V30 3837 H 350.724 -4.56978 -0.630017 0
M  V30 3838 H 348.967 -4.30628 -0.523628 0
M  V30 3839 H 349.638 -5.18154 -1.90318 0
M  V30 3840 H 352.114 -3.34248 -2.47826 0
M  V30 3841 H 350.99 -4.13027 -3.61524 0
M  V30 3842 H 351.251 -2.3961 -3.71536 0
M  V30 3843 N 350.31 0.590341 -1.46126 0
M  V30 3844 C 351.556 1.35082 -1.51264 0
M  V30 3845 C 351.889 1.93534 -0.160711 0
M  V30 3846 O 351.164 1.76045 0.826956 0
M  V30 3847 C 351.447 2.48588 -2.6053 0
M  V30 3848 C 351.3 1.95221 -4.05227 0
M  V30 3849 C 352.619 3.50662 -2.6594 0
M  V30 3850 H 349.738 0.489803 -0.550692 0
M  V30 3851 H 352.38 0.663887 -1.78024 0
M  V30 3852 H 350.53 3.07186 -2.37843 0
M  V30 3853 H 352.202 1.41139 -4.39178 0
M  V30 3854 H 350.445 1.26101 -4.15068 0
M  V30 3855 H 351.116 2.77121 -4.77397 0
M  V30 3856 H 353.592 3.01934 -2.86313 0
M  V30 3857 H 352.468 4.27551 -3.44226 0
M  V30 3858 H 352.729 4.07399 -1.71694 0
M  V30 3859 N 351.788 1.33704 0.83433 0
M  V30 3860 C 353.065 1.16011 1.57483 0
M  V30 3861 C 353.445 -0.27176 2.09343 0
M  V30 3862 O 352.793 -1.27146 1.89858 0
M  V30 3863 C 353.003 2.20507 2.70514 0
M  V30 3864 C 354.351 2.54898 3.39577 0
M  V30 3865 O 355.375 2.19209 2.80759 0
M  V30 3866 O 354.234 3.16158 4.45765 0
M  V30 3867 H 351.328 0.448992 0.694503 0
M  V30 3868 H 353.874 1.453 0.876691 0
M  V30 3869 H 352.646 3.16667 2.29865 0
M  V30 3870 H 352.269 1.92329 3.47987 0
M  V30 3871 N 353.266 -1.05314 1.17247 0
M  V30 3872 C 354.515 -1.77685 0.954521 0
M  V30 3873 C 354.828 -1.88616 -0.518025 0
M  V30 3874 O 356.034 -2.57714 -0.854144 0
M  V30 3875 C 354.49 -3.19402 1.65863 0
M  V30 3876 C 354.098 -3.16605 3.16963 0
M  V30 3877 C 355.842 -3.96237 1.52303 0
M  V30 3878 C 353.749 -4.53103 3.80068 0
M  V30 3879 H 352.679 -0.666 0.353496 0
M  V30 3880 H 355.33 -1.1805 1.40486 0
M  V30 3881 H 353.712 -3.79355 1.13602 0
M  V30 3882 H 354.886 -2.66176 3.76148 0
M  V30 3883 H 353.201 -2.53268 3.30521 0
M  V30 3884 H 355.798 -4.97157 1.96822 0
M  V30 3885 H 356.141 -4.136 0.473401 0
M  V30 3886 H 356.674 -3.42829 2.01775 0
M  V30 3887 H 353.413 -4.40946 4.85023 0
M  V30 3888 H 352.933 -5.03686 3.2567 0
M  V30 3889 H 354.612 -5.22045 3.82202 0
M  V30 3890 N 354.744 -0.972509 -1.24016 0
M  V30 3891 C 355.974 -0.653853 -1.9598 0
M  V30 3892 C 356.382 0.781801 -1.72292 0
M  V30 3893 O 355.725 1.53677 -1.00644 0
M  V30 3894 C 355.787 -0.854608 -3.49194 0
M  V30 3895 C 355.451 -2.27082 -3.96589 0
M  V30 3896 C 356.448 -3.24892 -4.05883 0
M  V30 3897 C 354.133 -2.5998 -4.29786 0
M  V30 3898 C 356.127 -4.53684 -4.47716 0
M  V30 3899 C 353.814 -3.88997 -4.71301 0
M  V30 3900 C 354.812 -4.85661 -4.80232 0
M  V30 3901 O 354.5 -6.12376 -5.20818 0
M  V30 3902 H 354.232 -0.242572 -0.630979 0
M  V30 3903 H 356.786 -1.30431 -1.58673 0
M  V30 3904 H 355.016 -0.146985 -3.86421 0
M  V30 3905 H 356.705 -0.534311 -4.02368 0
M  V30 3906 H 357.471 -3.00805 -3.80449 0
M  V30 3907 H 353.35 -1.85457 -4.22051 0
M  V30 3908 H 356.894 -5.29135 -4.54601 0
M  V30 3909 H 352.791 -4.12882 -4.96184 0
M  V30 3910 H 353.559 -6.16013 -5.38953 0
M  V30 3911 N 356.222 1.38976 -0.743202 0
M  V30 3912 C 357.447 2.05161 -0.303936 0
M  V30 3913 C 357.872 1.55677 1.05576 0
M  V30 3914 O 357.23 0.704131 1.67068 0
M  V30 3915 C 357.278 3.59138 -0.324373 0
M  V30 3916 O 356.382 4.06668 0.685204 0
M  V30 3917 H 355.723 0.649815 -0.136518 0
M  V30 3918 H 358.253 1.77852 -1.01142 0
M  V30 3919 H 358.263 4.07639 -0.171618 0
M  V30 3920 H 356.938 3.94515 -1.31647 0
M  V30 3921 H 355.515 3.69561 0.497913 0
M  V30 3922 N 357.7 0.491464 1.49741 0
M  V30 3923 C 358.647 -0.292027 2.28945 0
M  V30 3924 C 359.617 -0.968973 1.34908 0
M  V30 3925 O 360.802 -0.97748 1.6386 0
M  V30 3926 C 357.942 -1.35617 3.17336 0
M  V30 3927 C 357.055 -0.691957 4.26422 0
M  V30 3928 C 356.19 -1.73572 5.02042 0
M  V30 3929 C 355.229 -1.05286 6.02977 0
M  V30 3930 N 354.366 -2.0404 6.71798 0
M  V30 3931 H 359.206 0.389654 2.95442 0
M  V30 3932 H 356.743 0.204003 1.45679 0
M  V30 3933 H 358.701 -1.98502 3.66951 0
M  V30 3934 H 357.331 -2.00674 2.52844 0
M  V30 3935 H 356.383 0.0499523 3.80367 0
M  V30 3936 H 357.695 -0.153946 4.98562 0
M  V30 3937 H 356.849 -2.43987 5.55478 0
M  V30 3938 H 355.588 -2.30757 4.29654 0
M  V30 3939 H 354.593 -0.334446 5.48782 0
M  V30 3940 H 355.818 -0.487636 6.77347 0
M  V30 3941 H 353.764 -2.60205 6.02187 0
M  V30 3942 H 353.681 -1.55279 7.39881 0
M  V30 3943 H 354.949 -2.73772 7.29842 0
M  V30 3944 N 359.178 -1.55987 0.224894 0
M  V30 3945 C 360.425 -1.9839 -0.4059 0
M  V30 3946 C 360.753 -1.11261 -1.59535 0
M  V30 3947 O 360.008 -0.158314 -1.95059 0
M  V30 3948 C 360.307 -3.46394 -0.880106 0
M  V30 3949 C 359.973 -4.5046 0.19918 0
M  V30 3950 C 358.635 -4.7864 0.495661 0
M  V30 3951 C 360.987 -5.12855 0.928939 0
M  V30 3952 C 358.315 -5.66497 1.52636 0
M  V30 3953 C 360.667 -6.01828 1.949 0
M  V30 3954 C 359.331 -6.28351 2.25236 0
M  V30 3955 H 358.601 -0.725961 -0.148529 0
M  V30 3956 H 361.248 -1.88668 0.328113 0
M  V30 3957 H 359.553 -3.53337 -1.69294 0
M  V30 3958 H 361.25 -3.76577 -1.37808 0
M  V30 3959 H 357.84 -4.28579 -0.0420526 0
M  V30 3960 H 362.024 -4.9115 0.713129 0
M  V30 3961 H 357.28 -5.8531 1.76698 0
M  V30 3962 H 361.454 -6.49225 2.51951 0
M  V30 3963 H 359.081 -6.96226 3.05244 0
M  V30 3964 N 360.656 0.0484629 -1.57525 0
M  V30 3965 C 361.933 0.777447 -1.79486 0
M  V30 3966 C 362.313 1.94597 -0.818251 0
M  V30 3967 O 361.661 2.28047 0.143767 0
M  V30 3968 C 361.871 1.22864 -3.26658 0
M  V30 3969 C 363.219 1.65251 -3.91123 0
M  V30 3970 O 364.243 1.32372 -3.3069 0
M  V30 3971 O 363.102 2.26207 -4.97486 0
M  V30 3972 H 360.196 0.374357 -0.737419 0
M  V30 3973 H 362.742 0.0267359 -1.69679 0
M  V30 3974 H 361.514 0.393589 -3.89316 0
M  V30 3975 H 361.137 2.03996 -3.41279 0
M  V30 3976 N 362.134 1.5431 0.320358 0
M  V30 3977 C 363.38 1.72924 1.05949 0
M  V30 3978 C 363.713 0.503185 1.87568 0
M  V30 3979 O 362.988 -0.499839 1.87968 0
M  V30 3980 C 363.271 3.00676 1.98156 0
M  V30 3981 C 363.124 4.3354 1.19845 0
M  V30 3982 C 364.443 3.24198 2.9763 0
M  V30 3983 H 361.562 0.629195 0.383774 0
M  V30 3984 H 364.204 1.87008 0.335854 0
M  V30 3985 H 362.354 2.888 2.59859 0
M  V30 3986 H 364.026 4.57305 0.605773 0
M  V30 3987 H 362.269 4.309 0.500784 0
M  V30 3988 H 362.94 5.19156 1.87567 0
M  V30 3989 H 365.416 3.35557 2.4605 0
M  V30 3990 H 364.292 4.14938 3.59329 0
M  V30 3991 H 364.553 2.41577 3.7026 0
M  V30 3992 N 363.613 -0.582584 1.46437 0
M  V30 3993 C 364.862 -1.337 1.5102 0
M  V30 3994 C 365.175 -1.94891 0.166359 0
M  V30 3995 O 366.381 -2.71351 0.0899954 0
M  V30 3996 C 364.837 -2.42315 2.66104 0
M  V30 3997 C 364.445 -1.87427 4.06909 0
M  V30 3998 C 366.189 -3.19099 2.79958 0
M  V30 3999 C 364.096 -2.93672 5.13333 0
M  V30 4000 H 363.026 -0.502619 0.562041 0
M  V30 4001 H 365.677 -0.621701 1.72647 0
M  V30 4002 H 364.059 -3.16645 2.37807 0
M  V30 4003 H 365.233 -1.19639 4.44998 0
M  V30 4004 H 363.548 -1.2331 3.97723 0
M  V30 4005 H 366.145 -3.9839 3.56636 0
M  V30 4006 H 366.488 -3.71695 1.87479 0
M  V30 4007 H 367.021 -2.51875 3.07902 0
M  V30 4008 H 363.76 -2.45962 6.07604 0
M  V30 4009 H 363.28 -3.59948 4.79789 0
M  V30 4010 H 364.959 -3.5762 5.39182 0
M  V30 4011 N 365.091 -1.34144 -0.827227 0
M  V30 4012 C 366.039 -1.25364 -1.95925 0
M  V30 4013 C 367.033 -0.152608 -1.68711 0
M  V30 4014 O 368.239 -0.317311 -1.77181 0
M  V30 4015 H 364.614 -0.389342 -0.643364 0
M  V30 4016 H 366.585 -2.21045 -2.00454 0
M  V30 4017 C 365.334 -1.02158 -3.32354 0
M  V30 4018 H 364.657 -1.86111 -3.5384 0
M  V30 4019 H 366.097 -1.00048 -4.12027 0
M  V30 4020 C 364.556 0.275244 -3.35774 0
M  V30 4021 O 365.086 1.27806 -3.80826 0
M  V30 4022 N 363.292 0.306853 -2.88975 0
M  V30 4023 H 362.839 -0.509777 -2.52506 0
M  V30 4024 H 362.797 1.17432 -2.91646 0
M  V30 4025 N 366.569 1.04691 -1.17803 0
M  V30 4026 C 367.499 2.14494 -0.92275 0
M  V30 4027 C 368.48 1.69546 0.137179 0
M  V30 4028 O 369.665 1.94195 -0.0141108 0
M  V30 4029 C 366.795 3.44491 -0.440803 0
M  V30 4030 C 365.749 4.03031 -1.4405 0
M  V30 4031 C 365.075 5.28432 -0.81631 0
M  V30 4032 C 366.375 4.39932 -2.81527 0
M  V30 4033 H 368.069 2.36107 -1.84103 0
M  V30 4034 H 365.615 1.1347 -0.886599 0
M  V30 4035 H 367.568 4.2066 -0.249602 0
M  V30 4036 H 366.292 3.22546 0.513025 0
M  V30 4037 H 364.951 3.28937 -1.61853 0
M  V30 4038 H 364.599 5.02792 0.144511 0
M  V30 4039 H 364.299 5.68559 -1.48371 0
M  V30 4040 H 365.823 6.07284 -0.635496 0
M  V30 4041 H 367.237 5.07113 -2.67412 0
M  V30 4042 H 365.634 4.9109 -3.44892 0
M  V30 4043 H 366.704 3.50045 -3.35554 0
M  V30 4044 N 368.047 0.979072 1.23499 0
M  V30 4045 C 369.01 0.523244 2.23147 0
M  V30 4046 C 370.01 -0.386406 1.56088 0
M  V30 4047 O 371.2 -0.180283 1.73265 0
M  V30 4048 C 368.332 -0.240739 3.40049 0
M  V30 4049 H 369.525 1.40432 2.64989 0
M  V30 4050 H 367.078 0.764824 1.36309 0
M  V30 4051 H 367.813 -1.13841 3.03662 0
M  V30 4052 H 367.598 0.412207 3.89927 0
M  V30 4053 H 369.088 -0.548297 4.13985 0
M  V30 4054 N 369.525 -1.3858 0.750561 0
M  V30 4055 C 370.488 -2.28836 0.129152 0
M  V30 4056 C 371.488 -1.47045 -0.650714 0
M  V30 4057 O 372.678 -1.6753 -0.477428 0
M  V30 4058 C 369.81 -3.30751 -0.825622 0
M  V30 4059 H 371.003 -2.85294 0.924516 0
M  V30 4060 H 368.556 -1.47489 0.517376 0
M  V30 4061 H 369.291 -2.79378 -1.64677 0
M  V30 4062 H 369.076 -3.91177 -0.268852 0
M  V30 4063 H 370.566 -3.98249 -1.2565 0
M  V30 4064 N 371.003 -0.499398 -1.49478 0
M  V30 4065 C 371.913 0.284489 -2.32869 0
M  V30 4066 C 372.929 0.968885 -1.44529 0
M  V30 4067 O 374.105 0.95062 -1.77553 0
M  V30 4068 C 371.17 1.33594 -3.19928 0
M  V30 4069 C 370.231 0.665149 -4.24116 0
M  V30 4070 C 369.464 1.6665 -5.07014 0
M  V30 4071 O 369.687 2.89618 -4.91404 0
M  V30 4072 O 368.621 1.22271 -5.8935 0
M  V30 4073 H 372.447 -0.39802 -3.01081 0
M  V30 4074 H 370.032 -0.260758 -1.47107 0
M  V30 4075 H 371.914 1.94431 -3.73864 0
M  V30 4076 H 370.589 2.0014 -2.54412 0
M  V30 4077 H 369.496 0.0170769 -3.74096 0
M  V30 4078 H 370.829 0.0421555 -4.92182 0
M  V30 4079 N 372.481 1.55866 -0.233164 0
M  V30 4080 C 373.428 2.20796 0.67215 0
M  V30 4081 C 374.398 1.16731 1.18166 0
M  V30 4082 O 375.583 1.45129 1.23864 0
M  V30 4083 C 372.723 2.90072 1.86955 0
M  V30 4084 C 371.836 4.08759 1.39786 0
M  V30 4085 C 370.971 4.65787 2.55374 0
M  V30 4086 C 370.01 5.76752 2.04998 0
M  V30 4087 N 369.147 6.28021 3.13901 0
M  V30 4088 H 373.987 2.9779 0.111749 0
M  V30 4089 H 371.524 1.47036 0.0434007 0
M  V30 4090 H 373.482 3.28428 2.57276 0
M  V30 4091 H 372.112 2.15575 2.40265 0
M  V30 4092 H 371.164 3.7581 0.589173 0
M  V30 4093 H 372.476 4.88906 0.98856 0
M  V30 4094 H 371.63 5.06646 3.33758 0
M  V30 4095 H 370.369 3.84828 2.99598 0
M  V30 4096 H 369.374 5.35383 1.25079 0
M  V30 4097 H 370.599 6.59553 1.61759 0
M  V30 4098 H 368.545 5.49971 3.57586 0
M  V30 4099 H 368.462 7.03323 2.7726 0
M  V30 4100 H 369.73 6.73538 3.92386 0
M  V30 4101 N 373.959 -0.0401083 1.57549 0
M  V30 4102 C 375.187 -0.745196 1.93014 0
M  V30 4103 C 375.602 -1.6948 0.831984 0
M  V30 4104 O 374.959 -1.81482 -0.192463 0
M  V30 4105 C 375.01 -1.51176 3.28372 0
M  V30 4106 O 374.731 -0.600284 4.33968 0
M  V30 4107 C 376.232 -2.315 3.78051 0
M  V30 4108 H 373.452 -0.210088 0.637263 0
M  V30 4109 H 375.996 -0.000924689 2.045 0
M  V30 4110 H 374.151 -2.20801 3.18317 0
M  V30 4111 H 374.565 -1.13669 5.12035 0
M  V30 4112 H 376.039 -2.80697 4.75303 0
M  V30 4113 H 376.516 -3.12436 3.08675 0
M  V30 4114 H 377.122 -1.66971 3.91153 0
M  V30 4115 N 375.437 -1.54477 -0.31217 0
M  V30 4116 C 376.667 -1.76948 -1.06645 0
M  V30 4117 C 377.075 -0.523593 -1.81811 0
M  V30 4118 O 376.418 0.51578 -1.76311 0
M  V30 4119 C 376.48 -2.91668 -2.10166 0
M  V30 4120 C 376.144 -4.30165 -1.54296 0
M  V30 4121 C 377.141 -5.10603 -0.978793 0
M  V30 4122 C 374.826 -4.76738 -1.58196 0
M  V30 4123 C 376.82 -6.3573 -0.461048 0
M  V30 4124 C 374.507 -6.01831 -1.06034 0
M  V30 4125 C 375.505 -6.81161 -0.500844 0
M  V30 4126 O 375.193 -8.03899 0.0128958 0
M  V30 4127 H 374.925 -0.594088 -0.322546 0
M  V30 4128 H 377.479 -2.02213 -0.360441 0
M  V30 4129 H 375.709 -2.62001 -2.84416 0
M  V30 4130 H 377.398 -3.01817 -2.71406 0
M  V30 4131 H 378.164 -4.75771 -0.941651 0
M  V30 4132 H 374.043 -4.15027 -2.00683 0
M  V30 4133 H 377.587 -6.97596 -0.0236894 0
M  V30 4134 H 373.484 -6.36152 -1.09459 0
M  V30 4135 H 374.252 -8.18437 -0.101457 0
M  V30 4136 N 376.915 0.57481 -1.46744 0
M  V30 4137 C 377.863 1.70435 -1.58286 0
M  V30 4138 C 378.857 1.63287 -0.450956 0
M  V30 4139 O 380.063 1.68685 -0.628121 0
M  V30 4140 H 376.438 0.56364 -0.497809 0
M  V30 4141 H 378.409 1.57833 -2.53242 0
M  V30 4142 C 377.158 3.08815 -1.59776 0
M  V30 4143 H 376.481 3.1499 -2.46214 0
M  V30 4144 H 377.921 3.87588 -1.71905 0
M  V30 4145 C 376.38 3.35301 -0.327812 0
M  V30 4146 O 376.91 3.97511 0.57861 0
M  V30 4147 N 375.116 2.89816 -0.213274 0
M  V30 4148 H 374.663 2.39371 -0.951798 0
M  V30 4149 H 374.621 3.0791 0.63553 0
M  V30 4150 N 378.394 1.34581 0.820102 0
M  V30 4151 C 379.342 1.26401 1.95258 0
M  V30 4152 C 380.336 0.161553 1.68628 0
M  V30 4153 O 381.542 0.326703 1.7701 0
M  V30 4154 H 377.917 0.392749 0.64129 0
M  V30 4155 H 379.888 2.22105 1.99279 0
M  V30 4156 C 378.637 1.03919 3.31807 0
M  V30 4157 H 377.96 1.87984 3.52848 0
M  V30 4158 H 379.4 1.02232 4.11491 0
M  V30 4159 C 377.859 -0.257433 3.35915 0
M  V30 4160 O 378.389 -1.25784 3.81499 0
M  V30 4161 N 376.595 -0.291524 2.89134 0
M  V30 4162 H 376.142 0.523161 2.52232 0
M  V30 4163 H 376.1 -1.15883 2.92264 0
M  V30 4164 N 379.872 -1.04064 1.18357 0
M  V30 4165 C 380.802 -2.14001 0.934113 0
M  V30 4166 C 381.783 -1.69616 -0.128186 0
M  V30 4167 O 382.968 -1.94185 0.0244093 0
M  V30 4168 C 380.098 -3.44253 0.459066 0
M  V30 4169 C 379.052 -4.02261 1.46185 0
M  V30 4170 C 378.378 -5.27992 0.844322 0
M  V30 4171 C 379.678 -4.38432 2.83856 0
M  V30 4172 H 381.372 -2.35127 1.85352 0
M  V30 4173 H 378.918 -1.12998 0.892604 0
M  V30 4174 H 380.871 -4.20522 0.271907 0
M  V30 4175 H 379.595 -3.22813 -0.495912 0
M  V30 4176 H 378.254 -3.28074 1.63595 0
M  V30 4177 H 377.902 -5.02862 -0.117845 0
M  V30 4178 H 377.602 -5.67765 1.51384 0
M  V30 4179 H 379.126 -6.06938 0.667693 0
M  V30 4180 H 380.54 -5.05688 2.70098 0
M  V30 4181 H 378.937 -4.89254 3.47491 0
M  V30 4182 H 380.007 -3.4826 3.37406 0
M  V30 4183 N 381.35 -0.985608 -1.22978 0
M  V30 4184 C 382.627 -0.573599 -1.87001 0
M  V30 4185 C 383.007 0.949213 -1.88555 0
M  V30 4186 O 382.355 1.82811 -1.37086 0
M  V30 4187 C 382.565 -1.18564 -3.28243 0
M  V30 4188 C 383.913 -1.28163 -4.04796 0
M  V30 4189 O 384.937 -1.13949 -3.37482 0
M  V30 4190 O 383.796 -1.50832 -5.25273 0
M  V30 4191 H 380.89 -0.193868 -0.803955 0
M  V30 4192 H 383.436 -1.08102 -1.30813 0
M  V30 4193 H 382.208 -2.22758 -3.21706 0
M  V30 4194 H 381.831 -0.663363 -3.92027 0
M  V30 4195 N 382.828 1.3818 -0.7579 0
M  V30 4196 C 384.074 2.00316 -0.316453 0
M  V30 4197 C 384.407 1.60026 1.10025 0
M  V30 4198 O 383.682 0.839835 1.75434 0
M  V30 4199 C 383.965 3.57349 -0.444245 0
M  V30 4200 C 383.818 4.07591 -1.90236 0
M  V30 4201 C 385.137 4.3981 0.1598 0
M  V30 4202 H 382.256 0.727741 -0.116459 0
M  V30 4203 H 384.898 1.6406 -0.958352 0
M  V30 4204 H 383.048 3.88365 0.102233 0
M  V30 4205 H 384.72 3.87199 -2.50748 0
M  V30 4206 H 382.963 3.60297 -2.41595 0
M  V30 4207 H 383.634 5.16677 -1.94291 0
M  V30 4208 H 386.11 4.14971 -0.306314 0
M  V30 4209 H 384.986 5.48885 0.0401675 0
M  V30 4210 H 385.247 4.24102 1.24859 0
M  V30 4211 N 384.306 0.507319 1.49211 0
M  V30 4212 C 385.531 -0.033725 2.07373 0
M  V30 4213 C 385.956 -1.29485 1.36437 0
M  V30 4214 O 385.314 -1.76294 0.423087 0
M  V30 4215 C 385.362 -0.263945 3.59633 0
M  V30 4216 O 384.466 -1.33737 3.90113 0
M  V30 4217 H 383.807 0.0290331 0.663365 0
M  V30 4218 H 386.337 0.708749 1.91932 0
M  V30 4219 H 386.347 -0.493536 4.05004 0
M  V30 4220 H 385.022 0.657424 4.10671 0
M  V30 4221 H 383.599 -1.09224 3.56545 0
M  V30 4222 N 385.784 -1.5574 0.241426 0
M  V30 4223 C 387.03 -1.99104 -0.385406 0
M  V30 4224 C 387.363 -1.1293 -1.57988 0
M  V30 4225 O 386.638 -0.191449 -1.93555 0
M  V30 4226 C 386.921 -3.51087 -0.800616 0
M  V30 4227 C 386.774 -4.48028 0.398874 0
M  V30 4228 C 388.093 -4.08015 -1.64959 0
M  V30 4229 H 385.212 -0.723848 -0.138614 0
M  V30 4230 H 387.854 -1.86903 0.341642 0
M  V30 4231 H 386.004 -3.61615 -1.4201 0
M  V30 4232 H 387.676 -4.49487 1.03726 0
M  V30 4233 H 385.919 -4.21077 1.04293 0
M  V30 4234 H 386.59 -5.51962 0.0651056 0
M  V30 4235 H 389.066 -4.00555 -1.12672 0
M  V30 4236 H 387.942 -5.14635 -1.90898 0
M  V30 4237 H 388.203 -3.56131 -2.61961 0
M  V30 4238 N 387.262 0.0317525 -1.57568 0
M  V30 4239 C 388.49 0.734949 -1.93407 0
M  V30 4240 C 388.905 1.69036 -0.84096 0
M  V30 4241 O 388.262 1.81582 0.182836 0
M  V30 4242 C 388.313 1.49432 -3.29169 0
M  V30 4243 O 388.034 0.577261 -4.3428 0
M  V30 4244 C 389.535 2.29492 -3.79273 0
M  V30 4245 H 386.755 0.206706 -0.638368 0
M  V30 4246 H 389.299 -0.00992046 -2.04498 0
M  V30 4247 H 387.454 2.1911 -3.19483 0
M  V30 4248 H 387.868 1.10952 -5.1263 0
M  V30 4249 H 389.342 2.78172 -4.76785 0
M  V30 4250 H 389.819 3.10794 -3.10328 0
M  V30 4251 H 390.425 1.64894 -3.92033 0
M  V30 4252 N 388.74 1.54641 0.303973 0
M  V30 4253 C 389.687 1.85386 1.37479 0
M  V30 4254 C 390.657 0.702528 1.50512 0
M  V30 4255 O 391.842 0.950867 1.65418 0
M  V30 4256 C 388.982 2.10413 2.73533 0
M  V30 4257 C 388.095 3.38049 2.68974 0
M  V30 4258 C 387.23 3.52934 3.97002 0
M  V30 4259 C 386.269 4.74373 3.86829 0
M  V30 4260 N 385.406 4.8608 5.06627 0
M  V30 4261 H 390.246 2.76732 1.1056 0
M  V30 4262 H 387.783 1.37034 0.534805 0
M  V30 4263 H 389.741 2.22919 3.52652 0
M  V30 4264 H 388.371 1.22338 2.98719 0
M  V30 4265 H 387.423 3.3418 1.81736 0
M  V30 4266 H 388.735 4.27288 2.57346 0
M  V30 4267 H 387.889 3.65088 4.84557 0
M  V30 4268 H 386.628 2.61824 4.1146 0
M  V30 4269 H 385.633 4.62255 2.97658 0
M  V30 4270 H 386.858 5.66888 3.73918 0
M  V30 4271 H 384.804 3.97891 5.21554 0
M  V30 4272 H 384.721 5.69315 4.9741 0
M  V30 4273 H 385.989 5.02587 5.95841 0
M  V30 4274 N 390.218 -0.567019 1.47046 0
M  V30 4275 C 391.181 -1.65696 1.58359 0
M  V30 4276 C 392.181 -1.54097 0.459441 0
M  V30 4277 O 393.371 -1.58432 0.724225 0
M  V30 4278 C 390.503 -3.05197 1.51879 0
M  V30 4279 H 391.696 -1.57019 2.5551 0
M  V30 4280 H 389.249 -0.786148 1.3509 0
M  V30 4281 H 389.984 -3.19417 0.560673 0
M  V30 4282 H 389.769 -3.15025 2.33455 0
M  V30 4283 H 391.259 -3.84511 1.62913 0
M  V30 4284 N 391.696 -1.35014 -0.812953 0
M  V30 4285 C 392.626 -1.30069 -1.93919 0
M  V30 4286 C 393.607 -0.176275 -1.69184 0
M  V30 4287 O 394.792 -0.370227 -1.90638 0
M  V30 4288 C 391.922 -1.06547 -3.30552 0
M  V30 4289 C 390.876 -2.15561 -3.69753 0
M  V30 4290 C 390.202 -1.77214 -5.04479 0
M  V30 4291 C 391.502 -3.57476 -3.808 0
M  V30 4292 H 393.196 -2.24303 -1.98314 0
M  V30 4293 H 390.742 -1.07977 -0.952736 0
M  V30 4294 H 392.695 -1.01729 -4.08937 0
M  V30 4295 H 391.419 -0.0875719 -3.26483 0
M  V30 4296 H 390.078 -2.19466 -2.9365 0
M  V30 4297 H 389.726 -0.780589 -4.96906 0
M  V30 4298 H 389.426 -2.50184 -5.31678 0
M  V30 4299 H 390.95 -1.7391 -5.8531 0
M  V30 4300 H 392.364 -3.55929 -4.4943 0
M  V30 4301 H 390.761 -4.29152 -4.19462 0
M  V30 4302 H 391.831 -3.94091 -2.82525 0
M  V30 4303 N 393.175 1.03435 -1.18907 0
M  V30 4304 C 394.107 2.1165 -0.879595 0
M  V30 4305 C 395.12 1.62316 0.125439 0
M  V30 4306 O 396.309 1.78201 -0.103245 0
M  V30 4307 C 393.409 3.37622 -0.294042 0
M  V30 4308 C 392.582 4.16166 -1.34629 0
M  V30 4309 C 391.641 5.20457 -0.775274 0
M  V30 4310 O 390.667 5.50379 -1.4516 0
M  V30 4311 N 391.869 5.78949 0.424126 0
M  V30 4312 H 394.634 2.38791 -1.81105 0
M  V30 4313 H 392.195 1.19681 -1.09032 0
M  V30 4314 H 394.187 4.04572 0.101679 0
M  V30 4315 H 392.757 3.07873 0.541575 0
M  V30 4316 H 391.977 3.44444 -1.91707 0
M  V30 4317 H 393.265 4.65432 -2.05549 0
M  V30 4318 H 392.663 5.56948 0.991209 0
M  V30 4319 H 391.22 6.47334 0.761691 0
M  V30 4320 N 394.653 0.992116 1.22453 0
M  V30 4321 C 395.603 0.512969 2.22155 0
M  V30 4322 C 396.587 -0.418416 1.55364 0
M  V30 4323 O 397.779 -0.245363 1.75291 0
M  V30 4324 C 394.908 -0.171822 3.4287 0
M  V30 4325 C 393.994 0.779822 4.16869 0
M  V30 4326 N 394.385 1.92734 4.6764 0
M  V30 4327 C 392.683 0.59554 4.42006 0
M  V30 4328 C 393.384 2.52458 5.24061 0
M  V30 4329 N 392.36 1.80735 5.12675 0
M  V30 4330 H 396.162 1.38817 2.5905 0
M  V30 4331 H 393.676 0.854277 1.38115 0
M  V30 4332 H 395.673 -0.532469 4.13486 0
M  V30 4333 H 394.333 -1.04317 3.07487 0
M  V30 4334 H 395.344 2.30816 4.63621 0
M  V30 4335 H 392.021 -0.229805 4.16867 0
M  V30 4336 H 393.411 3.49433 5.73887 0
M  V30 4337 N 396.131 -1.37776 0.765217 0
M  V30 4338 C 397.547 -1.53297 0.444108 0
M  V30 4339 C 397.747 -1.72515 -1.04119 0
M  V30 4340 O 396.803 -1.74278 -1.82711 0
M  V30 4341 C 398.116 -2.73328 1.25349 0
M  V30 4342 C 399.664 -2.87185 1.24473 0
M  V30 4343 C 400.139 -4.10191 2.03733 0
M  V30 4344 N 401.63 -4.17291 2.01053 0
M  V30 4345 C 402.365 -5.11488 2.59166 0
M  V30 4346 N 401.861 -6.11285 3.26041 0
M  V30 4347 N 403.654 -5.03924 2.49032 0
M  V30 4348 H 395.805 -1.23552 1.72768 0
M  V30 4349 H 398.068 -0.601103 0.733062 0
M  V30 4350 H 397.774 -2.6557 2.30577 0
M  V30 4351 H 397.648 -3.66834 0.87823 0
M  V30 4352 H 400.035 -2.94418 0.20047 0
M  V30 4353 H 400.116 -1.94657 1.65959 0
M  V30 4354 H 399.76 -4.0372 3.08176 0
M  V30 4355 H 399.69 -5.01821 1.59633 0
M  V30 4356 H 402.181 -3.45825 1.5236 0
M  V30 4357 H 402.494 -6.79678 3.67774 0
M  V30 4358 H 400.839 -6.11583 3.30138 0
M  V30 4359 H 404.03 -4.24902 1.96407 0
M  V30 4360 H 404.203 -5.77152 2.94617 0
M  V30 4361 N 397.609 -0.515225 -1.4894 0
M  V30 4362 C 398.834 0.022727 -2.07388 0
M  V30 4363 C 399.259 1.2876 -1.37122 0
M  V30 4364 O 398.617 1.76067 -0.432431 0
M  V30 4365 C 398.665 0.244869 -3.59768 0
M  V30 4366 O 397.769 1.31667 -3.90817 0
M  V30 4367 H 397.11 -0.0325506 -0.663202 0
M  V30 4368 H 399.64 -0.718918 -1.91553 0
M  V30 4369 H 399.65 0.47205 -4.0526 0
M  V30 4370 H 398.325 -0.679194 -4.10317 0
M  V30 4371 H 396.902 1.07331 -3.5712 0
M  V30 4372 N 399.087 1.5561 -0.249682 0
M  V30 4373 C 400.037 2.18157 0.662673 0
M  V30 4374 C 401.021 1.1383 1.13717 0
M  V30 4375 O 402.213 1.39731 1.08648 0
M  V30 4376 C 399.342 2.88672 1.85805 0
M  V30 4377 C 398.428 4.00258 1.40193 0
M  V30 4378 N 398.819 5.01473 0.660213 0
M  V30 4379 C 397.117 4.12864 1.68698 0
M  V30 4380 C 397.818 5.80155 0.423695 0
M  V30 4381 N 396.794 5.34533 0.988721 0
M  V30 4382 H 400.596 2.93769 0.0878688 0
M  V30 4383 H 398.11 1.62316 -0.0521183 0
M  V30 4384 H 400.107 3.31912 2.5227 0
M  V30 4385 H 398.767 2.14564 2.43705 0
M  V30 4386 H 399.778 5.16971 0.310047 0
M  V30 4387 H 396.455 3.4993 2.27717 0
M  V30 4388 H 397.845 6.71688 -0.168616 0
M  V30 4389 N 400.565 -0.0233959 1.57583 0
M  V30 4390 C 401.795 -0.723631 1.93513 0
M  V30 4391 C 402.203 -1.69115 0.848333 0
M  V30 4392 O 401.546 -1.82781 -0.183484 0
M  V30 4393 C 401.608 -1.53075 3.25282 0
M  V30 4394 C 401.272 -0.727388 4.51174 0
M  V30 4395 C 402.269 -0.0251924 5.19894 0
M  V30 4396 C 399.954 -0.680256 4.97672 0
M  V30 4397 C 401.948 0.713374 6.33395 0
M  V30 4398 C 399.635 0.0620523 6.11068 0
M  V30 4399 C 400.633 0.757622 6.78785 0
M  V30 4400 O 400.321 1.48787 7.90011 0
M  V30 4401 H 400.053 -0.208051 0.643188 0
M  V30 4402 H 402.607 0.0167489 2.05393 0
M  V30 4403 H 400.837 -2.31508 3.09744 0
M  V30 4404 H 402.526 -2.11413 3.46496 0
M  V30 4405 H 403.292 -0.0526003 4.84971 0
M  V30 4406 H 399.171 -1.21116 4.44805 0
M  V30 4407 H 402.715 1.25683 6.86185 0
M  V30 4408 H 398.612 0.0913634 6.45435 0
M  V30 4409 H 399.38 1.40213 8.06401 0
M  V30 4410 N 402.043 -1.548 -0.295768 0
M  V30 4411 C 403.29 -1.74329 -1.03032 0
M  V30 4412 C 403.618 -0.531915 -1.87085 0
M  V30 4413 O 402.873 0.486052 -1.89568 0
M  V30 4414 C 403.172 -2.98797 -1.961 0
M  V30 4415 C 402.838 -4.32356 -1.2798 0
M  V30 4416 C 401.5 -4.68661 -1.09135 0
M  V30 4417 C 403.852 -5.15128 -0.793243 0
M  V30 4418 C 401.18 -5.85312 -0.403269 0
M  V30 4419 C 403.532 -6.32488 -0.118854 0
M  V30 4420 C 402.196 -6.6745 0.0815043 0
M  V30 4421 H 401.466 -0.637916 -0.37702 0
M  V30 4422 H 404.113 -1.8906 -0.304696 0
M  V30 4423 H 402.418 -2.78869 -2.75207 0
M  V30 4424 H 404.115 -3.11102 -2.53015 0
M  V30 4425 H 400.705 -4.03808 -1.43655 0
M  V30 4426 H 404.889 -4.87575 -0.92653 0
M  V30 4427 H 400.145 -6.1094 -0.237098 0
M  V30 4428 H 404.319 -6.95892 0.266035 0
M  V30 4429 H 401.946 -7.57695 0.616685 0
M  V30 4430 N 403.521 0.559213 -1.47345 0
M  V30 4431 C 404.431 1.69388 -1.62311 0
M  V30 4432 C 405.447 1.6648 -0.505993 0
M  V30 4433 O 406.623 1.85964 -0.773262 0
M  V30 4434 C 403.688 3.05894 -1.63185 0
M  V30 4435 C 402.749 3.19885 -2.86307 0
M  V30 4436 C 401.982 4.49879 -2.87131 0
M  V30 4437 O 402.205 5.35217 -1.97229 0
M  V30 4438 O 401.139 4.67618 -3.78968 0
M  V30 4439 H 404.965 1.59706 -2.58317 0
M  V30 4440 H 402.55 0.728989 -1.30407 0
M  V30 4441 H 404.432 3.87133 -1.66451 0
M  V30 4442 H 403.107 3.15964 -0.70345 0
M  V30 4443 H 402.014 2.38052 -2.88587 0
M  V30 4444 H 403.347 3.14718 -3.78435 0
M  V30 4445 N 404.999 1.35443 0.805782 0
M  V30 4446 C 406.247 1.28507 1.55982 0
M  V30 4447 C 406.568 -0.140046 1.94496 0
M  V30 4448 O 405.838 -1.07666 1.63661 0
M  V30 4449 H 404.418 0.472676 0.578434 0
M  V30 4450 H 407.08 1.69555 0.961098 0
M  V30 4451 H 406.176 1.90148 2.47488 0
M  V30 4452 N 406.477 -1.02803 1.19454 0
M  V30 4453 C 407.723 -1.76478 0.999171 0
M  V30 4454 C 408.056 -1.88456 -0.468828 0
M  V30 4455 O 407.331 -1.40198 -1.34814 0
M  V30 4456 C 407.614 -3.19044 1.66981 0
M  V30 4457 C 407.467 -3.14932 3.21151 0
M  V30 4458 C 408.786 -4.17456 1.39349 0
M  V30 4459 H 405.905 -0.640614 0.364393 0
M  V30 4460 H 408.547 -1.20005 1.47305 0
M  V30 4461 H 406.697 -3.67263 1.2669 0
M  V30 4462 H 408.369 -2.74605 3.70661 0
M  V30 4463 H 406.612 -2.52625 3.52652 0
M  V30 4464 H 407.283 -4.1566 3.63223 0
M  V30 4465 H 409.759 -3.77842 1.74283 0
M  V30 4466 H 408.635 -5.154 1.88823 0
M  V30 4467 H 408.896 -4.40949 0.318813 0
M  V30 4468 N 407.956 -0.998596 -1.21925 0
M  V30 4469 C 408.886 -0.573688 -2.26343 0
M  V30 4470 C 409.867 0.402296 -1.65274 0
M  V30 4471 O 411.052 0.291683 -1.91997 0
M  V30 4472 C 408.182 0.106839 -3.47136 0
M  V30 4473 C 407.136 -0.788269 -4.20678 0
M  V30 4474 C 406.462 0.0254927 -5.34694 0
M  V30 4475 C 407.762 -2.08784 -4.78755 0
M  V30 4476 H 409.456 -1.44651 -2.62138 0
M  V30 4477 H 407.002 -0.696975 -1.26009 0
M  V30 4478 H 408.955 0.415531 -4.19346 0
M  V30 4479 H 407.679 1.01424 -3.10452 0
M  V30 4480 H 406.338 -1.08069 -3.50309 0
M  V30 4481 H 405.986 0.933989 -4.94253 0
M  V30 4482 H 405.686 -0.570437 -5.84825 0
M  V30 4483 H 407.21 0.328147 -6.09718 0
M  V30 4484 H 408.624 -1.84272 -5.42878 0
M  V30 4485 H 407.021 -2.63307 -5.39249 0
M  V30 4486 H 408.091 -2.76284 -3.98491 0
M  V30 4487 N 409.434 1.37368 -0.772513 0
M  V30 4488 C 410.381 2.30262 -0.157488 0
M  V30 4489 C 411.351 1.51137 0.688965 0
M  V30 4490 O 412.536 1.79704 0.641168 0
M  V30 4491 C 409.676 3.37611 0.715045 0
M  V30 4492 C 408.789 4.31746 -0.148098 0
M  V30 4493 C 407.924 5.26171 0.729213 0
M  V30 4494 C 406.963 6.11948 -0.136418 0
M  V30 4495 N 406.1 6.98613 0.698914 0
M  V30 4496 H 410.94 2.82277 -0.955179 0
M  V30 4497 H 408.477 1.38957 -0.482631 0
M  V30 4498 H 410.435 3.98479 1.23575 0
M  V30 4499 H 409.065 2.86959 1.47833 0
M  V30 4500 H 408.117 3.72178 -0.786613 0
M  V30 4501 H 409.429 4.92084 -0.81579 0
M  V30 4502 H 408.583 5.92247 1.31637 0
M  V30 4503 H 407.322 4.66246 1.43059 0
M  V30 4504 H 406.327 5.4485 -0.736102 0
M  V30 4505 H 407.552 6.73945 -0.835134 0
M  V30 4506 H 405.498 6.41215 1.38489 0
M  V30 4507 H 405.415 7.55948 0.0885358 0
M  V30 4508 H 406.683 7.69077 1.27044 0
M  V30 4509 N 410.912 0.523116 1.48665 0
M  V30 4510 C 412.152 -0.0115588 2.04397 0
M  V30 4511 C 412.516 -1.32225 1.39214 0
M  V30 4512 O 413.717 -1.94253 1.85793 0
M  V30 4513 C 411.988 -0.138119 3.57133 0
M  V30 4514 S 413.547 -0.623849 4.34343 0
M  V30 4515 H 410.365 0.00877706 0.710946 0
M  V30 4516 H 412.967 0.702116 1.82457 0
M  V30 4517 H 411.671 0.820748 4.02109 0
M  V30 4518 H 411.202 -0.876377 3.83514 0
M  V30 4519 H 413.217 -1.8895 4.58816 0
M  V30 4520 N 412.39 -1.55475 0.257931 0
M  V30 4521 C 413.62 -2.03314 -0.367026 0
M  V30 4522 C 414.028 -1.13625 -1.51281 0
M  V30 4523 O 413.371 -0.145334 -1.83124 0
M  V30 4524 C 413.433 -3.47362 -0.926284 0
M  V30 4525 C 413.097 -4.56914 0.0886584 0
M  V30 4526 C 414.094 -5.12013 0.902123 0
M  V30 4527 C 411.779 -5.01827 0.217936 0
M  V30 4528 C 413.773 -6.10529 1.83122 0
M  V30 4529 C 411.46 -6.00172 1.15052 0
M  V30 4530 C 412.458 -6.54402 1.95568 0
M  V30 4531 O 412.146 -7.50827 2.87253 0
M  V30 4532 H 411.878 -0.669976 -0.0900443 0
M  V30 4533 H 414.432 -2.01804 0.382673 0
M  V30 4534 H 412.662 -3.46056 -1.72575 0
M  V30 4535 H 414.351 -3.78637 -1.46249 0
M  V30 4536 H 415.117 -4.78139 0.812891 0
M  V30 4537 H 410.996 -4.59272 -0.398721 0
M  V30 4538 H 414.54 -6.52783 2.46008 0
M  V30 4539 H 410.437 -6.33465 1.24064 0
M  V30 4540 H 411.205 -7.68483 2.81739 0
M  V30 4541 N 413.868 0.0150385 -1.57593 0
M  V30 4542 C 414.798 1.01047 -2.10503 0
M  V30 4543 C 415.779 1.36816 -1.01071 0
M  V30 4544 O 416.964 1.45455 -1.28672 0
M  V30 4545 C 414.094 2.30708 -2.59598 0
M  V30 4546 C 413.048 2.09142 -3.73421 0
M  V30 4547 C 412.374 3.44685 -4.08774 0
M  V30 4548 C 413.674 1.46619 -5.01298 0
M  V30 4549 H 415.368 0.569978 -2.93925 0
M  V30 4550 H 412.914 0.272724 -1.41394 0
M  V30 4551 H 414.867 3.00687 -2.95238 0
M  V30 4552 H 413.591 2.76843 -1.73279 0
M  V30 4553 H 412.25 1.41592 -3.38153 0
M  V30 4554 H 411.898 3.88495 -3.195 0
M  V30 4555 H 411.598 3.31077 -4.8545 0
M  V30 4556 H 413.122 4.16004 -4.4696 0
M  V30 4557 H 414.536 2.06535 -5.34805 0
M  V30 4558 H 412.933 1.43544 -5.82679 0
M  V30 4559 H 414.003 0.433611 -4.82957 0
M  V30 4560 N 415.346 1.54954 0.287554 0
M  V30 4561 C 416.296 1.8322 1.357 0
M  V30 4562 C 417.28 0.690152 1.45347 0
M  V30 4563 O 418.472 0.951137 1.49273 0
M  V30 4564 C 415.601 2.09481 2.71979 0
M  V30 4565 C 414.687 3.29906 2.66502 0
M  V30 4566 N 415.078 4.50154 2.30641 0
M  V30 4567 C 413.376 3.32203 2.97585 0
M  V30 4568 C 414.077 5.32209 2.34794 0
M  V30 4569 N 413.053 4.70258 2.72688 0
M  V30 4570 H 416.855 2.73746 1.0696 0
M  V30 4571 H 414.369 1.54635 0.496167 0
M  V30 4572 H 416.366 2.27882 3.49107 0
M  V30 4573 H 415.026 1.2023 3.0162 0
M  V30 4574 H 416.037 4.76515 2.02865 0
M  V30 4575 H 412.714 2.53101 3.32034 0
M  V30 4576 H 414.104 6.38321 2.09753 0
M  V30 4577 N 416.824 -0.551391 1.4764 0
M  V30 4578 C 417.734 -1.68525 1.63207 0
M  V30 4579 C 418.75 -1.6621 0.514815 0
M  V30 4580 O 419.926 -1.85551 0.783113 0
M  V30 4581 C 416.991 -3.05025 1.64805 0
M  V30 4582 C 416.052 -3.18362 2.88 0
M  V30 4583 C 415.285 -4.4835 2.89513 0
M  V30 4584 O 415.508 -5.34163 2.00065 0
M  V30 4585 O 414.442 -4.65602 3.81443 0
M  V30 4586 H 418.268 -1.58333 2.59161 0
M  V30 4587 H 415.853 -0.722063 1.30792 0
M  V30 4588 H 417.735 -3.86245 1.68502 0
M  V30 4589 H 416.41 -3.15587 0.720197 0
M  V30 4590 H 415.317 -2.36518 2.89845 0
M  V30 4591 H 416.65 -3.12707 3.80099 0
M  V30 4592 N 418.302 -1.35869 -0.798587 0
M  V30 4593 C 419.53 -1.32722 -1.58722 0
M  V30 4594 C 419.945 0.0935631 -1.88568 0
M  V30 4595 O 419.302 1.04784 -1.49421 0
M  V30 4596 C 419.353 -2.13974 -2.91371 0
M  V30 4597 O 419.074 -3.50514 -2.62815 0
M  V30 4598 C 420.575 -2.18504 -3.85708 0
M  V30 4599 H 417.795 -0.45562 -0.492596 0
M  V30 4600 H 420.339 -1.78837 -0.991843 0
M  V30 4601 H 418.494 -1.71438 -3.47402 0
M  V30 4602 H 418.908 -3.92806 -3.47568 0
M  V30 4603 H 420.382 -2.79732 -4.75872 0
M  V30 4604 H 420.859 -1.18597 -4.22885 0
M  V30 4605 H 421.465 -2.61236 -3.35612 0
M  V30 4606 N 419.78 1.02168 -1.19998 0
M  V30 4607 C 420.71 2.12488 -0.96804 0
M  V30 4608 C 421.691 1.69799 0.101185 0
M  V30 4609 O 422.876 1.94121 -0.0552993 0
M  V30 4610 C 420.006 3.43479 -0.513776 0
M  V30 4611 C 418.96 3.99884 -1.52566 0
M  V30 4612 C 418.286 5.26582 -0.928214 0
M  V30 4613 C 419.586 4.33861 -2.90795 0
M  V30 4614 H 421.28 2.32149 -1.89069 0
M  V30 4615 H 418.826 1.11564 -0.910468 0
M  V30 4616 H 420.779 4.20036 -0.338774 0
M  V30 4617 H 419.503 3.23561 0.444493 0
M  V30 4618 H 418.162 3.25429 -1.68794 0
M  V30 4619 H 417.81 5.02986 0.0378289 0
M  V30 4620 H 417.51 5.65284 -1.60397 0
M  V30 4621 H 419.034 6.05799 -0.764167 0
M  V30 4622 H 420.448 5.01327 -2.78109 0
M  V30 4623 H 418.845 4.83664 -3.55231 0
M  V30 4624 H 419.915 3.42848 -3.42904 0
M  V30 4625 N 421.258 1.00505 1.21394 0
M  V30 4626 C 422.168 0.574806 2.27449 0
M  V30 4627 C 423.184 -0.382206 1.6975 0
M  V30 4628 O 424.36 -0.246027 1.99892 0
M  V30 4629 C 421.425 -0.0917414 3.46579 0
M  V30 4630 C 420.486 0.909758 4.1955 0
M  V30 4631 C 419.719 0.274924 5.32991 0
M  V30 4632 O 419.942 -0.928254 5.62796 0
M  V30 4633 O 418.876 0.985877 5.93771 0
M  V30 4634 H 422.702 1.45744 2.66444 0
M  V30 4635 H 420.287 0.773923 1.27792 0
M  V30 4636 H 422.169 -0.464551 4.18832 0
M  V30 4637 H 420.844 -0.948755 3.09484 0
M  V30 4638 H 419.751 1.33372 3.49518 0
M  V30 4639 H 421.084 1.73636 4.60555 0
M  V30 4640 N 422.737 -1.36956 0.779787 0
M  V30 4641 C 423.965 -2.03755 0.359398 0
M  V30 4642 C 424.38 -1.58807 -1.02106 0
M  V30 4643 O 423.737 -0.773024 -1.6532 0
M  V30 4644 C 423.788 -3.59251 0.402568 0
M  V30 4645 O 423.509 -4.02557 1.72858 0
M  V30 4646 C 425.01 -4.43291 -0.0284068 0
M  V30 4647 H 422.23 -0.654148 0.149437 0
M  V30 4648 H 424.774 -1.75128 1.05595 0
M  V30 4649 H 422.929 -3.86621 -0.245478 0
M  V30 4650 H 423.343 -4.97111 1.67275 0
M  V30 4651 H 424.817 -5.51975 0.0529466 0
M  V30 4652 H 425.294 -4.25719 -1.07982 0
M  V30 4653 H 425.9 -4.21163 0.591758 0
M  V30 4654 N 424.215 -0.530993 -1.48385 0
M  V30 4655 C 425.464 0.00474348 -2.01699 0
M  V30 4656 C 425.777 1.35227 -1.41325 0
M  V30 4657 O 426.983 1.97643 -1.86144 0
M  V30 4658 C 425.439 0.0588473 -3.59852 0
M  V30 4659 C 425.047 -1.28385 -4.2921 0
M  V30 4660 C 426.791 0.543358 -4.21008 0
M  V30 4661 C 424.698 -1.19028 -5.79298 0
M  V30 4662 H 423.628 0.00554317 -0.75398 0
M  V30 4663 H 426.279 -0.674924 -1.70637 0
M  V30 4664 H 424.661 0.803612 -3.8776 0
M  V30 4665 H 425.835 -2.04426 -4.12973 0
M  V30 4666 H 424.15 -1.70418 -3.7993 0
M  V30 4667 H 426.747 0.631351 -5.3096 0
M  V30 4668 H 427.09 1.54937 -3.86394 0
M  V30 4669 H 427.623 -0.145754 -3.97533 0
M  V30 4670 H 424.362 -2.17147 -6.18488 0
M  V30 4671 H 423.882 -0.471246 -5.97946 0
M  V30 4672 H 425.561 -0.881365 -6.40969 0
M  V30 4673 N 425.693 1.55336 -0.266172 0
M  V30 4674 C 426.942 1.98574 0.353749 0
M  V30 4675 C 427.255 1.15789 1.57646 0
M  V30 4676 O 428.461 1.49129 2.26876 0
M  V30 4677 C 426.917 3.53403 0.680747 0
M  V30 4678 C 426.525 4.44953 -0.52165 0
M  V30 4679 C 428.269 4.05251 1.26379 0
M  V30 4680 C 426.176 5.91156 -0.169736 0
M  V30 4681 H 425.106 0.741643 0.135949 0
M  V30 4682 H 427.757 1.79743 -0.369421 0
M  V30 4683 H 426.139 3.68001 1.46257 0
M  V30 4684 H 427.313 4.42121 -1.29869 0
M  V30 4685 H 425.628 4.03691 -1.02093 0
M  V30 4686 H 428.225 5.12021 1.54074 0
M  V30 4687 H 428.568 3.53749 2.19471 0
M  V30 4688 H 429.101 3.94057 0.544447 0
M  V30 4689 H 425.84 6.46736 -1.0683 0
M  V30 4690 H 425.36 5.97079 0.570717 0
M  V30 4691 H 427.039 6.4655 0.241245 0
M  V30 4692 N 427.171 -0.0066808 1.57599 0
M  V30 4693 C 428.119 -1.01851 2.09115 0
M  V30 4694 C 429.113 -1.36021 1.00969 0
M  V30 4695 O 430.319 -1.34663 1.19439 0
M  V30 4696 H 426.694 -0.346083 0.667631 0
M  V30 4697 H 428.665 -0.558394 2.93129 0
M  V30 4698 C 427.414 -2.30374 2.60429 0
M  V30 4699 H 426.737 -2.04947 3.43273 0
M  V30 4700 H 428.177 -2.99466 3.00161 0
M  V30 4701 C 426.636 -3.00893 1.51542 0
M  V30 4702 O 427.166 -3.91614 0.894484 0
M  V30 4703 N 425.372 -2.62603 1.2445 0
M  V30 4704 H 424.919 -1.88911 1.75129 0
M  V30 4705 H 424.877 -3.10101 0.518137 0
M  V30 4706 N 428.649 -1.55105 -0.279332 0
M  V30 4707 C 430.065 -1.46803 -0.626187 0
M  V30 4708 C 430.265 -0.676939 -1.89789 0
M  V30 4709 O 429.321 -0.19326 -2.51759 0
M  V30 4710 C 430.634 -2.90962 -0.759034 0
M  V30 4711 C 432.182 -3.01138 -0.853504 0
M  V30 4712 C 432.657 -4.46539 -1.01818 0
M  V30 4713 N 434.148 -4.50341 -1.08386 0
M  V30 4714 C 434.883 -5.60053 -1.22996 0
M  V30 4715 N 434.379 -6.79645 -1.34366 0
M  V30 4716 N 436.172 -5.47783 -1.26056 0
M  V30 4717 H 428.323 -2.04996 0.555921 0
M  V30 4718 H 430.586 -0.929325 0.187239 0
M  V30 4719 H 430.292 -3.51544 0.104852 0
M  V30 4720 H 430.166 -3.39619 -1.64131 0
M  V30 4721 H 432.553 -2.40658 -1.70786 0
M  V30 4722 H 432.634 -2.55745 0.0532466 0
M  V30 4723 H 432.278 -5.0762 -0.168504 0
M  V30 4724 H 432.208 -4.89583 -1.93948 0
M  V30 4725 H 434.699 -3.64191 -1.00864 0
M  V30 4726 H 435.012 -7.59012 -1.4533 0
M  V30 4727 H 433.357 -6.82469 -1.31382 0
M  V30 4728 H 436.548 -4.53294 -1.168 0
M  V30 4729 H 436.721 -6.33331 -1.37098 0
M  V30 4730 N 430.127 0.543554 -1.4793 0
M  V30 4731 C 431.057 1.65888 -1.64327 0
M  V30 4732 C 432.038 1.62818 -0.492383 0
M  V30 4733 O 433.223 1.80226 -0.723338 0
M  V30 4734 C 430.353 3.04506 -1.67013 0
M  V30 4735 C 429.307 3.2243 -2.81466 0
M  V30 4736 C 428.633 4.61972 -2.69233 0
M  V30 4737 C 429.933 3.06496 -4.22915 0
M  V30 4738 H 431.627 1.52421 -2.57698 0
M  V30 4739 H 429.173 0.731849 -1.24016 0
M  V30 4740 H 431.126 3.82391 -1.77074 0
M  V30 4741 H 429.85 3.18964 -0.70212 0
M  V30 4742 H 428.509 2.46957 -2.70938 0
M  V30 4743 H 428.157 4.73247 -1.7043 0
M  V30 4744 H 427.857 4.74911 -3.46025 0
M  V30 4745 H 429.381 5.41974 -2.81242 0
M  V30 4746 H 430.795 3.74186 -4.34348 0
M  V30 4747 H 429.192 3.30938 -5.006 0
M  V30 4748 H 430.262 2.03077 -4.40327 0
M  V30 4749 N 431.605 1.3629 0.791371 0
M  V30 4750 C 432.851 1.30605 1.55146 0
M  V30 4751 C 433.184 -0.115042 1.93859 0
M  V30 4752 O 432.459 -1.06798 1.62556 0
M  V30 4753 C 432.742 2.22692 2.82985 0
M  V30 4754 C 432.595 3.73489 2.50651 0
M  V30 4755 C 433.914 2.13588 3.84796 0
M  V30 4756 H 431.033 0.475761 0.562868 0
M  V30 4757 H 433.675 1.66825 0.909358 0
M  V30 4758 H 431.825 1.91933 3.37778 0
M  V30 4759 H 433.497 4.14758 2.01924 0
M  V30 4760 H 431.74 3.93021 1.83622 0
M  V30 4761 H 432.411 4.3333 3.41949 0
M  V30 4762 H 434.887 2.40659 3.39445 0
M  V30 4763 H 433.763 2.80195 4.71998 0
M  V30 4764 H 434.024 1.12256 4.27611 0
M  V30 4765 N 433.083 -1.0153 1.20538 0
M  V30 4766 C 433.993 -2.13557 0.971113 0
M  V30 4767 C 435.009 -1.73845 -0.0734366 0
M  V30 4768 O 436.185 -2.01075 0.114299 0
M  V30 4769 C 433.25 -3.42661 0.527639 0
M  V30 4770 C 432.311 -3.96608 1.64319 0
M  V30 4771 C 431.544 -5.1955 1.22078 0
M  V30 4772 O 431.767 -5.70329 0.0900198 0
M  V30 4773 O 430.701 -5.66681 2.02871 0
M  V30 4774 H 434.527 -2.3619 1.90913 0
M  V30 4775 H 432.112 -1.11946 0.989362 0
M  V30 4776 H 433.994 -4.20404 0.289621 0
M  V30 4777 H 432.669 -3.21441 -0.381779 0
M  V30 4778 H 431.576 -3.20139 1.93551 0
M  V30 4779 H 432.909 -4.22219 2.52966 0
M  V30 4780 N 434.561 -1.01147 -1.20859 0
M  V30 4781 C 435.524 -0.582224 -2.21682 0
M  V30 4782 C 436.524 0.344887 -1.57058 0
M  V30 4783 O 437.714 0.134281 -1.73682 0
M  V30 4784 C 434.846 0.150496 -3.40568 0
M  V30 4785 H 436.039 -1.47408 -2.61172 0
M  V30 4786 H 433.592 -0.800695 -1.34233 0
M  V30 4787 H 434.327 1.0575 -3.06574 0
M  V30 4788 H 434.112 -0.515444 -3.88697 0
M  V30 4789 H 435.602 0.438344 -4.15293 0
M  V30 4790 N 436.039 1.36541 -0.78704 0
M  V30 4791 C 436.949 2.3387 -0.184896 0
M  V30 4792 C 437.965 1.60927 0.661697 0
M  V30 4793 O 439.141 1.92927 0.57804 0
M  V30 4794 C 436.206 3.40122 0.672145 0
M  V30 4795 C 435.267 4.28867 -0.19267 0
M  V30 4796 C 434.5 5.30045 0.623561 0
M  V30 4797 O 434.723 5.39232 1.8597 0
M  V30 4798 O 433.657 6.01895 0.0247068 0
M  V30 4799 H 437.483 2.87126 -0.989562 0
M  V30 4800 H 435.068 1.38969 -0.548455 0
M  V30 4801 H 436.95 4.05093 1.16094 0
M  V30 4802 H 435.625 2.89169 1.45474 0
M  V30 4803 H 434.532 3.66945 -0.728166 0
M  V30 4804 H 435.865 4.83165 -0.938722 0
M  V30 4805 N 437.518 0.538854 1.48102 0
M  V30 4806 C 438.764 0.00801365 2.02798 0
M  V30 4807 C 439.097 -1.3309 1.41424 0
M  V30 4808 O 438.372 -1.86169 0.563158 0
M  V30 4809 C 438.655 -0.104589 3.59948 0
M  V30 4810 C 438.508 1.26012 4.31788 0
M  V30 4811 C 439.827 -0.827055 4.32259 0
M  V30 4812 H 436.946 0.00438624 0.736987 0
M  V30 4813 H 439.588 0.6976 1.7673 0
M  V30 4814 H 437.738 -0.691893 3.82289 0
M  V30 4815 H 439.41 1.88922 4.2084 0
M  V30 4816 H 437.653 1.83968 3.92859 0
M  V30 4817 H 438.324 1.13424 5.40221 0
M  V30 4818 H 440.8 -0.328578 4.14801 0
M  V30 4819 H 439.676 -0.87476 5.41885 0
M  V30 4820 H 439.937 -1.87927 4.0017 0
M  V30 4821 N 438.996 -1.55193 0.274407 0
M  V30 4822 C 439.946 -2.19184 -0.627882 0
M  V30 4823 C 440.93 -1.15625 -1.11892 0
M  V30 4824 O 442.122 -1.41441 -1.06411 0
M  V30 4825 C 439.251 -2.91591 -1.81189 0
M  V30 4826 C 438.337 -4.02438 -1.33807 0
M  V30 4827 N 438.728 -5.0246 -0.580349 0
M  V30 4828 C 437.026 -4.15496 -1.62109 0
M  V30 4829 C 437.727 -5.80756 -0.331344 0
M  V30 4830 N 436.703 -5.36038 -0.903556 0
M  V30 4831 H 440.505 -2.93871 -0.0411216 0
M  V30 4832 H 438.019 -1.62213 0.0779348 0
M  V30 4833 H 440.016 -3.35883 -2.46957 0
M  V30 4834 H 438.676 -2.18414 -2.40261 0
M  V30 4835 H 439.687 -5.17399 -0.227762 0
M  V30 4836 H 436.364 -3.53509 -2.22121 0
M  V30 4837 H 437.754 -6.71335 0.275454 0
M  V30 4838 N 440.474 -0.00167713 -1.576 0
M  V30 4839 C 441.89 0.354422 -1.55615 0
M  V30 4840 C 442.09 1.74679 -1.00447 0
M  V30 4841 O 441.146 2.4428 -0.639022 0
M  V30 4842 C 442.459 0.22812 -2.99833 0
M  V30 4843 C 444.007 0.302934 -3.11531 0
M  V30 4844 C 444.482 0.205737 -4.57538 0
M  V30 4845 N 445.973 0.263584 -4.62449 0
M  V30 4846 C 446.708 0.211742 -5.73009 0
M  V30 4847 N 446.204 0.110399 -6.92712 0
M  V30 4848 N 447.997 0.263729 -5.61481 0
M  V30 4849 H 440.148 -0.912498 -1.918 0
M  V30 4850 H 442.411 -0.349928 -0.881053 0
M  V30 4851 H 442.117 -0.729934 -3.44042 0
M  V30 4852 H 441.991 1.00951 -3.6344 0
M  V30 4853 H 444.378 1.25143 -2.67251 0
M  V30 4854 H 444.459 -0.508357 -2.50698 0
M  V30 4855 H 444.103 -0.739225 -5.02492 0
M  V30 4856 H 444.033 1.03554 -5.16318 0
M  V30 4857 H 446.524 0.343173 -3.76339 0
M  V30 4858 H 446.837 0.0767828 -7.72762 0
M  V30 4859 H 445.182 0.0760025 -6.94958 0
M  V30 4860 H 448.373 0.34111 -4.66855 0
M  V30 4861 H 448.546 0.219862 -6.47627 0
M  V30 4862 N 441.952 1.55251 0.271103 0
M  V30 4863 C 442.882 1.9127 1.33933 0
M  V30 4864 C 443.863 0.77478 1.5143 0
M  V30 4865 O 445.048 1.03307 1.64442 0
M  V30 4866 C 442.178 2.18627 2.69851 0
M  V30 4867 C 441.132 3.34442 2.67081 0
M  V30 4868 C 440.458 3.47284 4.06569 0
M  V30 4869 C 441.758 4.70784 2.26185 0
M  V30 4870 H 443.452 2.80744 1.04035 0
M  V30 4871 H 440.998 1.35077 0.499017 0
M  V30 4872 H 442.951 2.42413 3.44694 0
M  V30 4873 H 441.675 1.25955 3.01335 0
M  V30 4874 H 440.334 3.10627 1.94695 0
M  V30 4875 H 439.982 2.52074 4.35279 0
M  V30 4876 H 439.682 4.25152 4.0561 0
M  V30 4877 H 441.206 3.73363 4.83148 0
M  V30 4878 H 442.62 4.94102 2.90751 0
M  V30 4879 H 441.017 5.51582 2.36384 0
M  V30 4880 H 442.087 4.69478 1.21319 0
M  V30 4881 N 443.43 -0.535701 1.48216 0
M  V30 4882 C 444.676 -1.29375 1.56173 0
M  V30 4883 C 445.009 -1.92804 0.232429 0
M  V30 4884 O 444.284 -1.78992 -0.761048 0
M  V30 4885 C 444.567 -2.38747 2.69577 0
M  V30 4886 C 444.42 -1.80046 4.12193 0
M  V30 4887 C 445.739 -3.40551 2.78771 0
M  V30 4888 H 442.858 -0.469027 0.568491 0
M  V30 4889 H 445.5 -0.597358 1.80365 0
M  V30 4890 H 443.65 -2.98147 2.4908 0
M  V30 4891 H 445.322 -1.24742 4.44114 0
M  V30 4892 H 443.565 -1.10609 4.19462 0
M  V30 4893 H 444.236 -2.59212 4.87353 0
M  V30 4894 H 446.712 -2.91099 2.97322 0
M  V30 4895 H 445.588 -4.1448 3.59857 0
M  V30 4896 H 445.849 -4.00746 1.86696 0
M  V30 4897 N 444.908 -1.36708 -0.784132 0
M  V30 4898 C 446.154 -1.31426 -1.54451 0
M  V30 4899 C 446.487 0.10476 -1.93917 0
M  V30 4900 O 445.762 1.05934 -1.6312 0
M  V30 4901 C 446.045 -2.24189 -2.818 0
M  V30 4902 C 445.898 -3.74813 -2.48667 0
M  V30 4903 C 447.217 -2.15626 -3.83658 0
M  V30 4904 H 444.336 -0.478739 -0.560337 0
M  V30 4905 H 446.978 -1.67305 -0.900498 0
M  V30 4906 H 445.128 -1.93722 -3.36755 0
M  V30 4907 H 446.8 -4.15823 -1.99722 0
M  V30 4908 H 445.043 -3.93989 -1.81535 0
M  V30 4909 H 445.714 -4.35138 -3.39646 0
M  V30 4910 H 448.19 -2.42456 -3.38163 0
M  V30 4911 H 447.066 -2.82694 -4.70506 0
M  V30 4912 H 447.327 -1.14522 -4.27009 0
M  V30 4913 N 446.386 1.0089 -1.21074 0
M  V30 4914 C 447.632 1.74866 -1.02712 0
M  V30 4915 C 447.965 1.89178 0.438787 0
M  V30 4916 O 447.24 1.42325 1.32567 0
M  V30 4917 C 447.523 3.16347 -1.72036 0
M  V30 4918 C 447.376 3.09782 -3.26121 0
M  V30 4919 C 448.695 4.15187 -1.45973 0
M  V30 4920 H 445.814 0.634736 -0.374539 0
M  V30 4921 H 448.456 1.17646 -1.49196 0
M  V30 4922 H 446.606 3.65201 -1.32517 0
M  V30 4923 H 448.278 2.68673 -3.74983 0
M  V30 4924 H 446.521 2.46982 -3.56626 0
M  V30 4925 H 447.192 4.09829 -3.6979 0
M  V30 4926 H 449.668 3.75022 -1.80272 0
M  V30 4927 H 448.544 5.12331 -1.96999 0
M  V30 4928 H 448.805 4.40386 -0.388924 0
M  V30 4929 N 447.864 1.01787 1.20321 0
M  V30 4930 C 449.141 0.622978 1.85414 0
M  V30 4931 C 449.521 -0.898887 1.91006 0
M  V30 4932 O 448.869 -1.79112 1.41884 0
M  V30 4933 C 449.079 1.27226 3.24984 0
M  V30 4934 C 450.427 1.3885 4.01255 0
M  V30 4935 O 451.451 1.22857 3.34342 0
M  V30 4936 O 450.31 1.64705 5.2109 0
M  V30 4937 H 447.404 0.215116 0.798533 0
M  V30 4938 H 449.95 1.11533 1.27901 0
M  V30 4939 H 448.722 2.31209 3.15687 0
M  V30 4940 H 448.345 0.767069 3.90131 0
M  V30 4941 N 449.342 -1.36122 0.79427 0
M  V30 4942 C 450.252 -2.33769 0.197296 0
M  V30 4943 C 451.268 -1.61276 -0.653153 0
M  V30 4944 O 452.444 -1.9323 -0.5678 0
M  V30 4945 C 449.509 -3.40474 -0.654098 0
M  V30 4946 C 448.57 -4.28759 0.215411 0
M  V30 4947 C 447.803 -5.30368 -0.595443 0
M  V30 4948 O 448.026 -5.40211 -1.83107 0
M  V30 4949 O 446.96 -6.019 0.00721351 0
M  V30 4950 H 450.786 -2.86597 1.00478 0
M  V30 4951 H 448.371 -1.38676 0.555818 0
M  V30 4952 H 450.253 -4.05703 -1.13944 0
M  V30 4953 H 448.928 -2.89937 -1.43938 0
M  V30 4954 H 447.835 -3.66554 0.747615 0
M  V30 4955 H 449.168 -4.82661 0.964332 0
M  V30 4956 N 450.82 -0.546701 -1.47814 0
M  V30 4957 C 451.768 0.220048 -2.31557 0
M  V30 4958 C 452.762 0.919472 -1.42275 0
M  V30 4959 O 453.968 0.841953 -1.59095 0
M  V30 4960 H 450.343 0.0898334 -0.746615 0
M  V30 4961 H 452.314 -0.505589 -2.94086 0
M  V30 4962 C 451.063 1.24353 -3.24702 0
M  V30 4963 H 450.386 0.714758 -3.93359 0
M  V30 4964 H 451.826 1.75112 -3.8615 0
M  V30 4965 C 450.285 2.28593 -2.47481 0
M  V30 4966 O 450.815 3.35334 -2.21165 0
M  V30 4967 N 449.021 2.02244 -2.08676 0
M  V30 4968 H 448.568 1.15455 -2.30278 0
M  V30 4969 H 448.526 2.72207 -1.57323 0
M  V30 4970 N 452.299 1.55045 -0.282633 0
M  V30 4971 C 453.576 1.9179 0.384166 0
M  V30 4972 C 453.956 1.20778 1.73136 0
M  V30 4973 O 453.304 0.33719 2.25998 0
M  V30 4974 C 453.514 3.45149 0.517014 0
M  V30 4975 C 454.862 4.17064 0.796427 0
M  V30 4976 O 455.886 3.51084 0.601535 0
M  V30 4977 O 454.745 5.33837 1.16962 0
M  V30 4978 H 451.839 0.799483 0.211558 0
M  V30 4979 H 454.385 1.66474 -0.32934 0
M  V30 4980 H 453.157 3.88922 -0.430772 0
M  V30 4981 H 452.78 3.76443 1.2797 0
M  V30 4982 N 453.777 0.010035 1.57597 0
M  V30 4983 C 455.023 -0.673697 1.91283 0
M  V30 4984 C 455.356 -1.72863 0.884979 0
M  V30 4985 O 454.631 -1.94268 -0.0949487 0
M  V30 4986 C 454.914 -1.30766 3.35518 0
M  V30 4987 C 454.767 -0.263578 4.49027 0
M  V30 4988 C 456.086 -2.23105 3.79358 0
M  V30 4989 H 453.205 -0.243439 0.695634 0
M  V30 4990 H 455.847 0.0633864 1.89894 0
M  V30 4991 H 453.997 -1.93588 3.36832 0
M  V30 4992 H 455.669 0.365738 4.59848 0
M  V30 4993 H 453.912 0.413077 4.31829 0
M  V30 4994 H 454.583 -0.746398 5.4693 0
M  V30 4995 H 457.059 -1.70289 3.79659 0
M  V30 4996 H 455.935 -2.64424 4.81011 0
M  V30 4997 H 456.196 -3.11433 3.13787 0
M  V30 4998 N 455.255 -1.55392 -0.262866 0
M  V30 4999 C 456.501 -1.76737 -0.99458 0
M  V30 5000 C 456.834 -0.572453 -1.85571 0
M  V30 5001 O 456.109 0.429732 -1.89693 0
M  V30 5002 C 456.392 -3.07824 -1.8686 0
M  V30 5003 C 456.245 -4.3769 -1.03672 0
M  V30 5004 C 457.564 -3.35021 -2.85393 0
M  V30 5005 H 454.683 -0.643005 -0.360157 0
M  V30 5006 H 457.325 -1.88126 -0.266216 0
M  V30 5007 H 455.475 -2.98245 -2.48962 0
M  V30 5008 H 457.147 -4.59238 -0.43563 0
M  V30 5009 H 455.39 -4.32461 -0.340513 0
M  V30 5010 H 456.061 -5.25759 -1.6817 0
M  V30 5011 H 458.537 -3.44458 -2.33426 0
M  V30 5012 H 457.413 -4.27989 -3.43681 0
M  V30 5013 H 457.674 -2.55153 -3.61039 0
M  V30 5014 N 456.733 0.527833 -1.48498 0
M  V30 5015 C 457.68 1.6322 -1.6318 0
M  V30 5016 C 458.65 1.59199 -0.473815 0
M  V30 5017 O 459.835 1.77591 -0.697563 0
M  V30 5018 C 456.975 3.01474 -1.67951 0
M  V30 5019 C 456.088 3.15713 -2.94871 0
M  V30 5020 C 455.223 4.44539 -2.90789 0
M  V30 5021 C 454.262 4.52315 -4.12404 0
M  V30 5022 N 453.399 5.72533 -4.06387 0
M  V30 5023 H 458.239 1.50011 -2.57489 0
M  V30 5024 H 455.776 0.730298 -1.27691 0
M  V30 5025 H 457.734 3.81572 -1.68698 0
M  V30 5026 H 456.364 3.1345 -0.771306 0
M  V30 5027 H 455.416 2.28854 -3.03859 0
M  V30 5028 H 456.728 3.1732 -3.8485 0
M  V30 5029 H 455.882 5.3293 -2.89949 0
M  V30 5030 H 454.621 4.45457 -1.98542 0
M  V30 5031 H 453.626 3.62331 -4.13517 0
M  V30 5032 H 454.851 4.53134 -5.05812 0
M  V30 5033 H 452.797 5.74344 -3.16962 0
M  V30 5034 H 452.714 5.75643 -4.90073 0
M  V30 5035 H 453.982 6.63204 -4.0961 0
M  V30 5036 N 458.211 1.37122 0.776871 0
M  V30 5037 C 459.459 1.31787 1.53221 0
M  V30 5038 C 459.78 -0.0987589 1.9475 0
M  V30 5039 O 459.05 -1.0417 1.65908 0
M  V30 5040 H 457.63 0.484839 0.568278 0
M  V30 5041 H 460.292 1.71556 0.924917 0
M  V30 5042 H 459.388 1.95355 2.43398 0
M  V30 5043 N 459.689 -1.00246 1.21608 0
M  V30 5044 C 460.938 -1.73476 1.02902 0
M  V30 5045 C 461.251 -1.90643 -0.437561 0
M  V30 5046 O 462.457 -2.61105 -0.74407 0
M  V30 5047 C 460.913 -3.12079 1.79261 0
M  V30 5048 C 460.521 -3.02877 3.30106 0
M  V30 5049 C 462.265 -3.89421 1.68972 0
M  V30 5050 C 460.172 -4.36575 3.98944 0
M  V30 5051 H 459.102 -0.650408 0.381425 0
M  V30 5052 H 461.753 -1.11985 1.45367 0
M  V30 5053 H 460.135 -3.74196 1.2959 0
M  V30 5054 H 461.309 -2.49983 3.87098 0
M  V30 5055 H 459.624 -2.39022 3.40965 0
M  V30 5056 H 462.221 -4.88362 2.17731 0
M  V30 5057 H 462.564 -4.1122 0.648397 0
M  V30 5058 H 463.097 -3.33963 2.16133 0
M  V30 5059 H 459.836 -4.19978 5.03288 0
M  V30 5060 H 459.356 -4.8942 3.4674 0
M  V30 5061 H 461.035 -5.05364 4.04 0
M  V30 5062 N 461.167 -1.02423 -1.1978 0
M  V30 5063 C 462.413 -0.719051 -1.89625 0
M  V30 5064 C 462.746 0.750083 -1.7913 0
M  V30 5065 O 462.021 1.54574 -1.18056 0
M  V30 5066 C 462.304 -1.16499 -3.40735 0
M  V30 5067 C 462.157 -2.695 -3.60125 0
M  V30 5068 C 463.476 -0.742166 -4.33797 0
M  V30 5069 H 460.595 -0.26269 -0.688595 0
M  V30 5070 H 463.237 -1.27333 -1.41018 0
M  V30 5071 H 461.387 -0.69341 -3.82262 0
M  V30 5072 H 463.059 -3.24569 -3.278 0
M  V30 5073 H 461.302 -3.10113 -3.03336 0
M  V30 5074 H 461.973 -2.95757 -4.66081 0
M  V30 5075 H 464.449 -1.1477 -3.99959 0
M  V30 5076 H 463.325 -1.08213 -5.38127 0
M  V30 5077 H 463.586 0.355747 -4.40666 0
M  V30 5078 N 462.645 1.35699 -0.801477 0
M  V30 5079 C 463.87 2.03687 -0.390678 0
M  V30 5080 C 464.295 1.60015 0.988778 0
M  V30 5081 O 463.653 0.774357 1.63931 0
M  V30 5082 C 463.701 3.57439 -0.476404 0
M  V30 5083 O 462.805 4.09208 0.512106 0
M  V30 5084 H 462.146 0.64344 -0.163956 0
M  V30 5085 H 464.676 1.73403 -1.08594 0
M  V30 5086 H 464.686 4.06544 -0.344357 0
M  V30 5087 H 463.361 3.88576 -1.48262 0
M  V30 5088 H 461.938 3.7134 0.340721 0
M  V30 5089 N 464.123 0.554532 1.47522 0
M  V30 5090 C 465.053 -0.182974 2.32782 0
M  V30 5091 C 466.034 -0.911377 1.43624 0
M  V30 5092 O 467.219 -0.892366 1.72483 0
M  V30 5093 C 464.349 -1.21513 3.25349 0
M  V30 5094 C 463.303 -0.603355 4.23726 0
M  V30 5095 C 462.629 -1.73995 5.05598 0
M  V30 5096 C 463.929 0.441121 5.20434 0
M  V30 5097 H 465.623 0.52882 2.94693 0
M  V30 5098 H 463.169 0.255759 1.41711 0
M  V30 5099 H 465.122 -1.73922 3.83835 0
M  V30 5100 H 463.846 -1.95683 2.61487 0
M  V30 5101 H 462.505 -0.10059 3.66462 0
M  V30 5102 H 462.153 -2.47063 4.38143 0
M  V30 5103 H 461.853 -1.3364 5.72201 0
M  V30 5104 H 463.377 -2.26735 5.66942 0
M  V30 5105 H 464.791 0.00319931 5.733 0
M  V30 5106 H 463.188 0.763402 5.95224 0
M  V30 5107 H 464.258 1.33799 4.66075 0
M  V30 5108 N 465.601 -1.54893 0.290851 0
M  V30 5109 C 466.826 -2.04804 -0.32712 0
M  V30 5110 C 467.251 -1.16721 -1.47506 0
M  V30 5111 O 466.609 -0.169107 -1.8051 0
M  V30 5112 C 466.657 -3.52268 -0.770689 0
M  V30 5113 O 465.761 -3.67236 -1.87647 0
M  V30 5114 H 465.102 -0.660789 -0.0652227 0
M  V30 5115 H 467.632 -2.00036 0.429739 0
M  V30 5116 H 467.642 -3.9393 -1.06223 0
M  V30 5117 H 466.317 -4.15843 0.069096 0
M  V30 5118 H 464.894 -3.37479 -1.58626 0
M  V30 5119 N 467.08 -0.0183926 -1.57589 0
M  V30 5120 C 468.357 0.700621 -1.82622 0
M  V30 5121 C 468.737 1.90951 -0.90005 0
M  V30 5122 O 468.085 2.28452 0.0469145 0
M  V30 5123 C 468.295 1.08899 -3.31575 0
M  V30 5124 C 469.643 1.48514 -3.9778 0
M  V30 5125 O 470.667 1.18227 -3.36007 0
M  V30 5126 O 469.526 2.04903 -5.06633 0
M  V30 5127 H 466.62 0.342743 -0.752633 0
M  V30 5128 H 469.166 -0.0452548 -1.6964 0
M  V30 5129 H 467.938 0.228113 -3.90635 0
M  V30 5130 H 467.561 1.89338 -3.49624 0
M  V30 5131 N 468.558 1.5553 0.254621 0
M  V30 5132 C 469.807 1.76202 0.981612 0
M  V30 5133 C 470.12 0.580883 1.86776 0
M  V30 5134 O 471.326 0.670448 2.63092 0
M  V30 5135 C 469.782 3.11921 1.79537 0
M  V30 5136 C 469.39 4.37659 0.956991 0
M  V30 5137 C 471.134 3.41936 2.51555 0
M  V30 5138 C 469.041 5.64411 1.76619 0
M  V30 5139 H 467.971 0.656841 0.370237 0
M  V30 5140 H 470.622 1.81969 0.236556 0
M  V30 5141 H 469.004 3.00241 2.58208 0
M  V30 5142 H 470.178 4.60307 0.21315 0
M  V30 5143 H 468.493 4.14922 0.350497 0
M  V30 5144 H 471.09 4.33849 3.12536 0
M  V30 5145 H 471.433 2.62905 3.22779 0
M  V30 5146 H 471.966 3.54797 1.799 0
M  V30 5147 H 468.705 6.46241 1.09783 0
M  V30 5148 H 468.225 5.45877 2.48551 0
M  V30 5149 H 469.904 6.03386 2.33527 0
M  V30 5150 N 470.036 -0.519951 1.48776 0
M  V30 5151 C 470.966 -1.63253 1.66945 0
M  V30 5152 C 471.947 -1.62014 0.518224 0
M  V30 5153 O 473.132 -1.79053 0.751919 0
M  V30 5154 C 470.262 -3.0181 1.71836 0
M  V30 5155 C 469.216 -3.17911 2.8656 0
M  V30 5156 C 468.542 -4.5763 2.76548 0
M  V30 5157 C 469.842 -2.99729 4.27738 0
M  V30 5158 H 471.536 -1.48302 2.6009 0
M  V30 5159 H 469.082 -0.712026 1.25165 0
M  V30 5160 H 471.035 -3.79525 1.83135 0
M  V30 5161 H 469.759 -3.17806 0.752775 0
M  V30 5162 H 468.418 -2.42616 2.74833 0
M  V30 5163 H 468.066 -4.70476 1.77937 0
M  V30 5164 H 467.766 -4.69346 3.53536 0
M  V30 5165 H 469.29 -5.37431 2.89828 0
M  V30 5166 H 470.704 -3.67228 4.40246 0
M  V30 5167 H 469.101 -3.22932 5.05801 0
M  V30 5168 H 470.171 -1.96047 4.43502 0
M  V30 5169 N 471.514 -1.37532 -0.769588 0
M  V30 5170 C 472.446 -1.29347 -1.89214 0
M  V30 5171 C 473.459 -0.208842 -1.61455 0
M  V30 5172 O 474.648 -0.465158 -1.72333 0
M  V30 5173 C 471.748 -0.977649 -3.24492 0
M  V30 5174 C 470.921 -2.16817 -3.7988 0
M  V30 5175 C 469.98 -1.82229 -4.93639 0
M  V30 5176 O 469.006 -2.54548 -5.09111 0
M  V30 5177 N 470.208 -0.767696 -5.75401 0
M  V30 5178 H 472.973 -2.26073 -1.96751 0
M  V30 5179 H 470.534 -1.31185 -0.948795 0
M  V30 5180 H 472.526 -0.727065 -3.98115 0
M  V30 5181 H 471.096 -0.0988777 -3.12444 0
M  V30 5182 H 470.316 -2.58038 -2.9801 0
M  V30 5183 H 471.604 -2.96308 -4.13617 0
M  V30 5184 H 471.002 -0.167626 -5.65452 0
M  V30 5185 H 469.559 -0.576973 -6.49241 0
M  V30 5186 N 472.992 0.995999 -1.22138 0
M  V30 5187 C 473.955 2.06711 -0.990109 0
M  V30 5188 C 474.955 1.60744 0.0422978 0
M  V30 5189 O 476.145 1.73095 -0.195895 0
M  V30 5190 C 473.277 3.37288 -0.49491 0
M  V30 5191 H 474.47 2.28661 -1.94047 0
M  V30 5192 H 472.023 1.16711 -1.03963 0
M  V30 5193 H 472.758 3.21022 0.459948 0
M  V30 5194 H 472.543 3.71986 -1.23971 0
M  V30 5195 H 474.033 4.16103 -0.353253 0
M  V30 5196 N 474.47 1.03057 1.19235 0
M  V30 5197 C 475.4 0.633497 2.24742 0
M  V30 5198 C 476.381 -0.358335 1.66283 0
M  V30 5199 O 477.566 -0.240676 1.92703 0
M  V30 5200 C 474.696 -0.0147648 3.47297 0
M  V30 5201 C 473.65 0.899527 4.18441 0
M  V30 5202 C 472.976 0.116281 5.34574 0
M  V30 5203 C 474.276 2.21404 4.73051 0
M  V30 5204 H 475.97 1.5155 2.58211 0
M  V30 5205 H 473.516 0.73014 1.24117 0
M  V30 5206 H 475.469 -0.304202 4.20301 0
M  V30 5207 H 474.193 -0.931577 3.13032 0
M  V30 5208 H 472.852 1.17319 3.47321 0
M  V30 5209 H 472.5 -0.802619 4.96555 0
M  V30 5210 H 472.2 0.725293 5.83107 0
M  V30 5211 H 473.724 -0.166376 6.10373 0
M  V30 5212 H 475.138 1.98601 5.37802 0
M  V30 5213 H 473.535 2.77512 5.32078 0
M  V30 5214 H 474.605 2.86752 3.91026 0
M  V30 5215 N 475.948 -1.35272 0.808662 0
M  V30 5216 C 477.194 -1.99003 0.390581 0
M  V30 5217 C 477.527 -1.63999 -1.0401 0
M  V30 5218 O 476.802 -0.904368 -1.72196 0
M  V30 5219 C 477.085 -3.55454 0.576566 0
M  V30 5220 C 476.938 -4.00249 2.05233 0
M  V30 5221 C 478.257 -4.401 0.00354277 0
M  V30 5222 H 475.376 -0.722917 0.143388 0
M  V30 5223 H 478.018 -1.6039 1.01858 0
M  V30 5224 H 476.168 -3.88477 0.0419766 0
M  V30 5225 H 477.84 -3.77626 2.64946 0
M  V30 5226 H 476.083 -3.51082 2.54801 0
M  V30 5227 H 476.754 -5.0911 2.13333 0
M  V30 5228 H 479.23 -4.13548 0.460117 0
M  V30 5229 H 478.106 -5.48656 0.163575 0
M  V30 5230 H 478.367 -4.28444 -1.09032 0
M  V30 5231 N 477.426 -0.562348 -1.47226 0
M  V30 5232 C 478.356 0.170627 -2.32876 0
M  V30 5233 C 479.337 0.903748 -1.44106 0
M  V30 5234 O 480.522 0.883206 -1.72954 0
M  V30 5235 C 477.652 1.19786 -3.25989 0
M  V30 5236 C 476.606 0.580875 -4.2404 0
M  V30 5237 C 475.932 1.71311 -5.06514 0
M  V30 5238 C 477.232 -0.468714 -5.20193 0
M  V30 5239 H 478.926 -0.544441 -2.94408 0
M  V30 5240 H 476.472 -0.263271 -1.41573 0
M  V30 5241 H 478.425 1.71884 -3.84752 0
M  V30 5242 H 477.149 1.94294 -2.62521 0
M  V30 5243 H 475.808 0.0811538 -3.6651 0
M  V30 5244 H 475.456 2.44736 -4.39447 0
M  V30 5245 H 475.156 1.30604 -5.72902 0
M  V30 5246 H 476.68 2.23725 -5.68137 0
M  V30 5247 H 478.094 -0.0336028 -5.7329 0
M  V30 5248 H 476.491 -0.794957 -5.94811 0
M  V30 5249 H 477.561 -1.36269 -4.65359 0
M  V30 5250 N 478.904 1.54736 -0.299062 0
M  V30 5251 C 480.132 2.04512 0.313447 0
M  V30 5252 C 480.547 1.17643 1.47667 0
M  V30 5253 O 479.904 0.20164 1.81383 0
M  V30 5254 C 479.955 3.53171 0.771542 0
M  V30 5255 O 479.676 4.36736 -0.345379 0
M  V30 5256 C 481.177 4.18936 1.4494 0
M  V30 5257 H 478.397 0.667507 0.0683784 0
M  V30 5258 H 480.941 1.99752 -0.438129 0
M  V30 5259 H 479.096 3.58298 1.47314 0
M  V30 5260 H 479.51 5.24499 0.0109219 0
M  V30 5261 H 480.984 5.24482 1.72111 0
M  V30 5262 H 481.461 3.68554 2.38883 0
M  V30 5263 H 482.067 4.17879 0.791028 0
M  V30 5264 N 480.382 0.0267497 1.57577 0
M  V30 5265 C 481.63 -0.651116 1.91324 0
M  V30 5266 C 481.951 -1.72804 0.90353 0
M  V30 5267 O 481.221 -1.95822 -0.0552946 0
M  V30 5268 H 479.801 -0.243491 0.706202 0
M  V30 5269 H 482.463 0.0739935 1.94759 0
M  V30 5270 H 481.559 -1.10536 2.9187 0
M  V30 5271 N 481.861 -1.55662 -0.24637 0
M  V30 5272 C 483.109 -1.77168 -0.972411 0
M  V30 5273 C 483.43 -0.590827 -1.85834 0
M  V30 5274 O 482.7 0.393365 -1.9191 0
M  V30 5275 H 481.28 -0.653405 -0.362038 0
M  V30 5276 H 483.942 -1.93101 -0.264189 0
M  V30 5277 H 483.038 -2.68335 -1.59382 0
M  V30 5278 N 483.339 0.512053 -1.4905 0
M  V30 5279 C 484.249 1.64139 -1.67617 0
M  V30 5280 C 485.265 1.64786 -0.558701 0
M  V30 5281 O 486.441 1.8341 -0.832034 0
M  V30 5282 C 483.506 3.00548 -1.72835 0
M  V30 5283 C 482.567 3.10615 -2.96339 0
M  V30 5284 C 481.8 4.40517 -3.01298 0
M  V30 5285 O 482.023 5.28671 -2.14157 0
M  V30 5286 O 480.957 4.55325 -3.93653 0
M  V30 5287 H 484.783 1.51407 -2.63267 0
M  V30 5288 H 482.368 0.687131 -1.32661 0
M  V30 5289 H 484.25 3.81641 -1.78683 0
M  V30 5290 H 482.925 3.13566 -0.803616 0
M  V30 5291 H 481.832 2.2875 -2.96014 0
M  V30 5292 H 483.165 3.0252 -3.88256 0
M  V30 5293 N 484.817 1.37938 0.762283 0
M  V30 5294 C 485.764 1.34467 1.87583 0
M  V30 5295 C 486.734 0.208633 1.64785 0
M  V30 5296 O 487.919 0.399494 1.86571 0
M  V30 5297 C 485.059 1.16692 3.24772 0
M  V30 5298 C 484.172 2.39608 3.59461 0
M  V30 5299 C 483.307 2.14631 4.85908 0
M  V30 5300 C 482.346 3.33364 5.13357 0
M  V30 5301 N 481.483 3.07877 6.30996 0
M  V30 5302 H 486.323 2.29669 1.89885 0
M  V30 5303 H 483.86 1.14116 0.928219 0
M  V30 5304 H 485.818 1.04405 4.03925 0
M  V30 5305 H 484.448 0.251333 3.2182 0
M  V30 5306 H 483.5 2.626 2.75219 0
M  V30 5307 H 484.812 3.28128 3.75678 0
M  V30 5308 H 483.966 1.99429 5.72986 0
M  V30 5309 H 482.705 1.23463 4.71814 0
M  V30 5310 H 481.71 3.49094 4.24751 0
M  V30 5311 H 482.935 4.25395 5.29354 0
M  V30 5312 H 480.881 2.19348 6.18241 0
M  V30 5313 H 480.798 3.89944 6.47673 0
M  V30 5314 H 482.066 2.96313 7.20985 0
M  V30 5315 N 486.295 -0.989507 1.22664 0
M  V30 5316 C 487.242 -2.08024 0.999733 0
M  V30 5317 C 488.212 -1.65909 -0.0797047 0
M  V30 5318 O 489.397 -1.90669 0.0705715 0
M  V30 5319 C 486.537 -3.40067 0.587234 0
M  V30 5320 C 485.65 -3.95505 1.73781 0
M  V30 5321 C 484.785 -5.15722 1.27297 0
M  V30 5322 C 483.824 -5.63305 2.39488 0
M  V30 5323 N 482.961 -6.74758 1.94026 0
M  V30 5324 H 487.801 -2.26768 1.9334 0
M  V30 5325 H 485.338 -1.11171 0.963297 0
M  V30 5326 H 487.296 -4.15899 0.329227 0
M  V30 5327 H 485.926 -3.21314 -0.309426 0
M  V30 5328 H 484.978 -3.16513 2.11006 0
M  V30 5329 H 486.29 -4.26797 2.58158 0
M  V30 5330 H 485.444 -5.98854 0.972546 0
M  V30 5331 H 484.183 -4.86061 0.399445 0
M  V30 5332 H 483.188 -4.78759 2.70315 0
M  V30 5333 H 484.413 -5.94988 3.27362 0
M  V30 5334 H 482.359 -6.46874 1.09041 0
M  V30 5335 H 482.276 -7.05386 2.71968 0
M  V30 5336 H 483.544 -7.61387 1.67062 0
M  V30 5337 N 487.773 -1.03688 -1.18687 0
M  V30 5338 C 489.184 -0.766488 -1.70241 0
M  V30 5339 C 489.535 0.713052 -1.82784 0
M  V30 5340 O 488.66 1.55529 -1.50465 0
M  V30 5341 C 489.255 -1.38475 -3.09209 0
M  V30 5342 C 487.814 -1.16276 -3.5799 0
M  V30 5343 C 486.961 -1.4778 -2.34641 0
M  V30 5344 H 489.912 -1.20378 -1.03415 0
M  V30 5345 H 489.933 -0.785939 -3.72295 0
M  V30 5346 H 489.445 -2.46157 -3.00048 0
M  V30 5347 H 487.546 -0.104508 -3.72453 0
M  V30 5348 H 487.659 -1.8571 -4.41643 0
M  V30 5349 H 486.023 -0.897366 -2.38368 0
M  V30 5350 H 486.806 -2.56562 -2.28102 0
M  V30 5351 O 489.29 1.30511 -0.951271 0
M  V30 5352 H 489.981 1.84711 -0.583235 0
M  V30 END ATOM
M  V30 BEGIN BOND
M  V30 END BOND
M  V30 END CTAB
M  END
$$$$
