drugbank_target|Q8TBX8 Phosphatidylinositol 5-phosphate 4-kinase type-2 gamma (DB12010)
 OpenBabel12092121183D

  0  0  0     0  0            999 V3000
M  V30 BEGIN CTAB
M  V30 COUNTS 6641 6722 0 0 0
M  V30 BEGIN ATOM
M  V30 1 H -0.908 1.98254 -0.117106 0
M  V30 2 N 0 1.576 0 0
M  V30 3 C 0.933 2.03868 1.02534 0
M  V30 4 C 1.911 0.928543 1.3348 0
M  V30 5 O 3.095 1.19667 1.45644 0
M  V30 6 C 0.222 2.43627 2.35294 0
M  V30 7 C -0.732 3.65373 2.2001 0
M  V30 8 S 0.101 5.13292 1.52614 0
M  V30 9 C 1.257 5.56322 2.86805 0
M  V30 10 H 1.49 2.90518 0.631377 0
M  V30 11 H -0.977 1.52953 0.210867 0
M  V30 12 H 0.981 2.67203 3.11629 0
M  V30 13 H -0.358 1.57376 2.7183 0
M  V30 14 H -1.165 3.90944 3.18086 0
M  V30 15 H -1.563 3.418 1.51819 0
M  V30 16 H 0.729 5.58782 3.83104 0
M  V30 17 H 1.672 6.56266 2.65933 0
M  V30 18 H 2.08 4.83886 2.90714 0
M  V30 19 N 1.4781 -0.272755 1.55222 0
M  V30 20 C 2.4411 -1.32041 1.87344 0
M  V30 21 C 3.4411 -1.42342 0.74803 0
M  V30 22 O 4.6311 -1.41488 1.0162 0
M  V30 23 C 1.7631 -2.70173 2.07893 0
M  V30 24 H 2.9561 -1.04789 2.80997 0
M  V30 25 H 0.5091 -0.51083 1.47717 0
M  V30 26 H 1.2441 -3.02605 1.16622 0
M  V30 27 H 1.0291 -2.64082 2.89833 0
M  V30 28 H 2.5191 -3.45869 2.34017 0
M  V30 29 N 2.9562 -1.48159 -0.537278 0
M  V30 30 C 4.1812 -1.59707 -1.32319 0
M  V30 31 C 4.6062 -0.254859 -1.86365 0
M  V30 32 O 3.9642 0.772378 -1.64024 0
M  V30 33 C 4.0122 -2.6412 -2.45505 0
M  V30 34 O 3.1162 -2.20774 -3.48328 0
M  V30 35 H 2.4572 -0.535791 -0.392204 0
M  V30 36 H 4.9872 -1.94092 -0.647268 0
M  V30 37 H 4.9972 -2.85166 -2.91795 0
M  V30 38 H 3.6722 -3.61567 -2.05528 0
M  V30 39 H 2.2492 -2.09911 -3.08207 0
M  V30 40 N 4.4343 0.785586 -1.36625 0
M  V30 41 C 5.6593 1.57963 -1.34397 0
M  V30 42 C 6.0843 1.87964 0.071526 0
M  V30 43 O 5.4423 1.48182 1.0446 0
M  V30 44 C 5.4903 2.87511 -2.17646 0
M  V30 45 O 4.5943 3.81281 -1.57158 0
M  V30 46 H 3.9353 0.479014 -0.459828 0
M  V30 47 H 6.4653 0.973411 -1.79961 0
M  V30 48 H 6.4753 3.36745 -2.30362 0
M  V30 49 H 5.1503 2.65002 -3.20541 0
M  V30 50 H 3.7273 3.39885 -1.53403 0
M  V30 51 N 5.9124 1.20967 1.01018 0
M  V30 52 C 7.1374 1.0503 1.78839 0
M  V30 53 C 7.5624 -0.395752 1.8389 0
M  V30 54 O 6.9204 -1.28529 1.27867 0
M  V30 55 C 6.9684 1.64602 3.2084 0
M  V30 56 O 6.0724 0.887988 4.02726 0
M  V30 57 H 5.4134 0.369987 0.551367 0
M  V30 58 H 7.9434 1.60399 1.27018 0
M  V30 59 H 7.9534 1.68607 3.71532 0
M  V30 60 H 6.6284 2.69841 3.16479 0
M  V30 61 H 5.2054 0.922648 3.61305 0
M  V30 62 N 7.3905 -1.2043 1.01659 0
M  V30 63 C 8.6365 -1.90079 0.706963 0
M  V30 64 C 8.9695 -1.78648 -0.761474 0
M  V30 65 O 8.2445 -1.17069 -1.55323 0
M  V30 66 C 8.5275 -3.41469 1.14327 0
M  V30 67 C 8.3805 -3.61833 2.67201 0
M  V30 68 C 9.6995 -4.34261 0.714529 0
M  V30 69 H 6.8185 -0.690254 0.2583 0
M  V30 70 H 9.4605 -1.41826 1.26433 0
M  V30 71 H 7.6105 -3.82696 0.669056 0
M  V30 72 H 9.2825 -3.2986 3.22475 0
M  V30 73 H 7.5255 -3.05304 3.08175 0
M  V30 74 H 8.1965 -4.67955 2.92783 0
M  V30 75 H 10.6725 -4.00682 1.12221 0
M  V30 76 H 9.5485 -5.38806 1.04784 0
M  V30 77 H 9.8095 -4.40431 -0.383799 0
M  V30 78 N 8.8686 -0.792821 -1.36206 0
M  V30 79 C 10.2796 -0.429513 -1.81692 0
M  V30 80 C 10.6306 1.04695 -1.65932 0
M  V30 81 O 9.7556 1.81256 -1.18218 0
M  V30 82 C 10.3506 -0.772831 -3.29868 0
M  V30 83 C 8.9096 -0.462307 -3.7355 0
M  V30 84 C 8.0566 -1.00569 -2.5842 0
M  V30 85 H 11.0076 -0.985672 -1.24379 0
M  V30 86 H 11.0286 -0.0651928 -3.80444 0
M  V30 87 H 10.5406 -1.84747 -3.41307 0
M  V30 88 H 8.6416 0.604158 -3.67669 0
M  V30 89 H 8.7546 -0.985299 -4.68859 0
M  V30 90 H 7.1186 -0.428734 -2.51066 0
M  V30 91 H 7.9016 -2.08616 -2.72643 0
M  V30 92 N 10.3467 1.47872 -0.545128 0
M  V30 93 C 11.7577 1.86384 -0.108581 0
M  V30 94 C 12.1087 1.45309 1.31832 0
M  V30 95 O 11.2337 0.850641 1.9898 0
M  V30 96 C 11.8287 3.38265 -0.190274 0
M  V30 97 C 10.3877 3.75914 0.191164 0
M  V30 98 C 9.5347 2.71926 -0.543273 0
M  V30 99 H 12.4857 1.39561 -0.755537 0
M  V30 100 H 12.5067 3.75831 0.594217 0
M  V30 101 H 12.0187 3.6813 -1.2289 0
M  V30 102 H 10.1197 3.51665 1.23136 0
M  V30 103 H 10.2327 4.78836 -0.158987 0
M  V30 104 H 8.5967 2.54697 0.0122495 0
M  V30 105 H 9.3797 3.04634 -1.58282 0
M  V30 106 N 11.8248 0.280983 1.55075 0
M  V30 107 C 12.7878 -0.590896 2.21452 0
M  V30 108 C 13.7878 -1.07682 1.19421 0
M  V30 109 O 14.9778 -0.97605 1.44288 0
M  V30 110 C 12.1098 -1.81587 2.88511 0
M  V30 111 H 13.3028 -0.0112554 2.99898 0
M  V30 112 H 10.8558 0.0316438 1.56268 0
M  V30 113 H 11.5908 -2.43587 2.14093 0
M  V30 114 H 11.3758 -1.4753 3.63287 0
M  V30 115 H 12.8658 -2.43575 3.39206 0
M  V30 116 N 13.3029 -1.57598 0.00835791 0
M  V30 117 C 14.5309 -1.95214 -0.68549 0
M  V30 118 C 14.9459 -0.883706 -1.66841 0
M  V30 119 O 14.3029 0.136565 -1.81988 0
M  V30 120 C 14.3539 -3.32865 -1.41007 0
M  V30 121 O 14.0749 -4.35609 -0.466552 0
M  V30 122 C 15.5759 -3.84991 -2.19765 0
M  V30 123 H 12.7959 -0.643422 -0.190392 0
M  V30 124 H 15.3399 -2.04406 0.0619607 0
M  V30 125 H 13.4949 -3.24956 -2.10908 0
M  V30 126 H 13.9089 -5.15288 -0.978699 0
M  V30 127 H 15.3829 -4.8371 -2.65948 0
M  V30 128 H 15.8599 -3.18137 -3.02796 0
M  V30 129 H 16.4659 -3.96103 -1.54864 0
M  V30 130 N 14.781 0.264519 -1.55364 0
M  V30 131 C 16.027 0.99646 -1.76631 0
M  V30 132 C 16.36 1.85632 -0.570478 0
M  V30 133 O 15.635 1.89647 0.43175 0
M  V30 134 C 15.918 1.87187 -3.07625 0
M  V30 135 C 15.771 1.04138 -4.37579 0
M  V30 136 C 17.09 2.85749 -3.34717 0
M  V30 137 H 14.209 0.360841 -0.642622 0
M  V30 138 H 16.851 0.268218 -1.88097 0
M  V30 139 H 15.001 2.49279 -2.9798 0
M  V30 140 H 16.673 0.440517 -4.59192 0
M  V30 141 H 14.916 0.345115 -4.32425 0
M  V30 142 H 15.587 1.68729 -5.2558 0
M  V30 143 H 18.063 2.33793 -3.4421 0
M  V30 144 H 16.939 3.44136 -4.27623 0
M  V30 145 H 17.2 3.61311 -2.54768 0
M  V30 146 N 16.2591 1.48442 0.529413 0
M  V30 147 C 17.4841 1.60406 1.31471 0
M  V30 148 C 17.9091 0.264738 1.86228 0
M  V30 149 O 17.2671 -0.763668 1.64432 0
M  V30 150 C 17.3151 2.65419 2.44101 0
M  V30 151 O 16.4191 2.22618 3.47153 0
M  V30 152 H 15.7601 0.537863 0.389357 0
M  V30 153 H 18.2901 1.94432 0.636965 0
M  V30 154 H 18.3001 2.86709 2.90279 0
M  V30 155 H 16.9751 3.62652 2.03608 0
M  V30 156 H 15.5521 2.11543 3.0709 0
M  V30 157 N 17.7372 -0.778329 1.37039 0
M  V30 158 C 18.7002 -1.87301 1.32102 0
M  V30 159 C 19.7002 -1.59198 0.226405 0
M  V30 160 O 20.8902 -1.67403 0.481861 0
M  V30 161 C 18.0222 -3.24309 1.05055 0
M  V30 162 H 19.2152 -1.93093 2.29467 0
M  V30 163 H 16.7682 -0.977358 1.21973 0
M  V30 164 H 17.5032 -3.24196 0.0819373 0
M  V30 165 H 17.2882 -3.46098 1.84279 0
M  V30 166 H 18.7782 -4.04382 1.04234 0
M  V30 167 N 19.2153 -1.21501 -1.00376 0
M  V30 168 C 20.1783 -0.976927 -2.07337 0
M  V30 169 C 21.1783 0.0525322 -1.60714 0
M  V30 170 O 22.3683 -0.184869 -1.73216 0
M  V30 171 C 19.5003 -0.473423 -3.37597 0
M  V30 172 H 20.6933 -1.92587 -2.29892 0
M  V30 173 H 18.2463 -1.03217 -1.17371 0
M  V30 174 H 18.9813 0.480379 -3.20722 0
M  V30 175 H 18.7663 -1.216 -3.72768 0
M  V30 176 H 20.2563 -0.32675 -4.1632 0
M  V30 177 N 20.6934 1.19889 -1.02296 0
M  V30 178 C 21.9214 1.9339 -0.735399 0
M  V30 179 C 22.3364 1.75148 0.704887 0
M  V30 180 O 21.6934 1.06954 1.47875 0
M  V30 181 C 21.7444 3.45313 -1.06962 0
M  V30 182 O 21.4654 3.62964 -2.45334 0
M  V30 183 C 22.9664 4.35948 -0.804021 0
M  V30 184 H 20.1864 0.61448 -0.269546 0
M  V30 185 H 22.7304 1.522 -1.36585 0
M  V30 186 H 20.8854 3.84359 -0.484455 0
M  V30 187 H 21.2994 4.56886 -2.57595 0
M  V30 188 H 22.7734 5.41174 -1.0879 0
M  V30 189 H 23.2504 4.3842 0.261691 0
M  V30 190 H 23.8564 4.02574 -1.37164 0
M  V30 191 N 22.1715 0.800033 1.35784 0
M  V30 192 C 23.1345 0.211565 2.28221 0
M  V30 193 C 24.1345 -0.59728 1.49296 0
M  V30 194 O 25.3245 -0.416721 1.69142 0
M  V30 195 C 22.4565 -0.705846 3.33513 0
M  V30 196 H 23.6495 1.02677 2.81776 0
M  V30 197 H 21.2025 0.570211 1.45528 0
M  V30 198 H 21.9375 -1.54498 2.85133 0
M  V30 199 H 21.7225 -0.127655 3.91892 0
M  V30 200 H 23.2125 -1.11211 4.02519 0
M  V30 201 N 23.6496 -1.47581 0.552962 0
M  V30 202 C 24.8976 -2.02082 0.0272703 0
M  V30 203 C 25.2186 -1.4301 -1.32563 0
M  V30 204 O 24.4886 -0.603745 -1.86365 0
M  V30 205 H 23.0686 -0.746966 0.00709182 0
M  V30 206 H 25.7306 -1.81033 0.722008 0
M  V30 207 H 24.8266 -3.12034 -0.0639951 0
M  V30 208 N 25.1277 -0.289203 -1.54924 0
M  V30 209 C 26.5387 0.205791 -1.85562 0
M  V30 210 C 26.8897 1.54351 -1.2112 0
M  V30 211 O 26.0147 2.10435 -0.504601 0
M  V30 212 C 26.6097 0.380177 -3.3666 0
M  V30 213 C 25.1687 0.819395 -3.67373 0
M  V30 214 C 24.3157 -0.079159 -2.77187 0
M  V30 215 H 27.2667 -0.510577 -1.50262 0
M  V30 216 H 27.2877 1.21659 -3.60526 0
M  V30 217 H 26.7997 -0.593589 -3.83534 0
M  V30 218 H 24.9007 1.80413 -3.26009 0
M  V30 219 H 25.0137 0.646957 -4.74712 0
M  V30 220 H 23.3777 0.439565 -2.50878 0
M  V30 221 H 24.1607 -1.04906 -3.26878 0
M  V30 222 N 26.6058 1.57591 -0.0167156 0
M  V30 223 C 27.8538 1.90906 0.663285 0
M  V30 224 C 28.1748 0.892509 1.73376 0
M  V30 225 O 27.4448 -0.0677623 1.95783 0
M  V30 226 H 26.0248 0.704637 0.247983 0
M  V30 227 H 28.6868 1.94803 -0.0615909 0
M  V30 228 H 27.7828 2.9116 1.12393 0
M  V30 229 N 28.0839 -0.256276 1.55502 0
M  V30 230 C 29.4949 -0.826068 1.67431 0
M  V30 231 C 29.8459 -1.86396 0.612446 0
M  V30 232 O 28.9709 -2.15031 -0.243025 0
M  V30 233 C 29.5659 -1.50512 3.03532 0
M  V30 234 C 28.1249 -2.02273 3.17431 0
M  V30 235 C 27.2719 -0.870548 2.63281 0
M  V30 236 H 30.2229 -0.0322728 1.58667 0
M  V30 237 H 30.2439 -2.37279 2.97454 0
M  V30 238 H 29.7559 -0.749484 3.80794 0
M  V30 239 H 27.8569 -2.80746 2.44974 0
M  V30 240 H 27.9699 -2.22655 4.24219 0
M  V30 241 H 26.3339 -1.26851 2.20864 0
M  V30 242 H 27.1169 -0.128149 3.43061 0
M  V30 243 N 29.562 -1.4872 -0.521534 0
M  V30 244 C 30.81 -1.56857 -1.27437 0
M  V30 245 C 31.131 -0.247982 -1.93417 0
M  V30 246 O 30.401 0.731151 -1.81744 0
M  V30 247 H 28.981 -0.577885 -0.473347 0
M  V30 248 H 31.643 -1.85233 -0.606205 0
M  V30 249 H 30.739 -2.35402 -2.0492 0
M  V30 250 N 31.0401 0.771051 -1.3745 0
M  V30 251 C 32.2871 1.52963 -1.32697 0
M  V30 252 C 32.6151 1.94299 0.0883274 0
M  V30 253 O 31.8701 1.64397 1.0617 0
M  V30 254 C 32.1691 2.80676 -2.2126 0
M  V30 255 C 31.8351 2.58389 -3.69521 0
M  V30 256 C 30.4971 2.52019 -4.09927 0
M  V30 257 C 32.8491 2.38469 -4.63446 0
M  V30 258 C 30.1771 2.23721 -5.42371 0
M  V30 259 C 32.5291 2.11694 -5.96128 0
M  V30 260 C 31.1931 2.03769 -6.35637 0
M  V30 261 H 30.4631 0.559732 -0.485573 0
M  V30 262 H 33.1101 0.888083 -1.69662 0
M  V30 263 H 31.4151 3.49392 -1.77291 0
M  V30 264 H 33.1121 3.38557 -2.14895 0
M  V30 265 H 29.7021 2.6421 -3.37478 0
M  V30 266 H 33.8861 2.4238 -4.33089 0
M  V30 267 H 29.1421 2.16081 -5.71943 0
M  V30 268 H 33.3161 1.9528 -6.6846 0
M  V30 269 H 30.9431 1.81606 -7.38189 0
M  V30 270 N 32.5182 1.22032 0.997298 0
M  V30 271 C 33.7662 1.04016 1.73278 0
M  V30 272 C 34.0872 -0.426255 1.90284 0
M  V30 273 O 33.3572 -1.30694 1.45931 0
M  V30 274 H 31.9372 0.381897 0.642 0
M  V30 275 H 34.5992 1.5347 1.20137 0
M  V30 276 H 33.6952 1.51441 2.72896 0
M  V30 277 N 33.9963 -1.19345 1.0293 0
M  V30 278 C 35.2433 -1.89038 0.726008 0
M  V30 279 C 35.5713 -1.79649 -0.745427 0
M  V30 280 O 34.8263 -1.18354 -1.55855 0
M  V30 281 C 35.1253 -3.39292 1.12319 0
M  V30 282 C 34.7913 -3.68885 2.59297 0
M  V30 283 C 33.4533 -3.76671 2.99453 0
M  V30 284 C 35.8053 -3.82178 3.54386 0
M  V30 285 C 33.1333 -3.9522 4.33611 0
M  V30 286 C 35.4853 -4.0224 4.88248 0
M  V30 287 C 34.1493 -4.08259 5.28092 0
M  V30 288 H 33.4193 -0.691739 0.265665 0
M  V30 289 H 36.0663 -1.41328 1.29223 0
M  V30 290 H 34.3713 -3.88903 0.475584 0
M  V30 291 H 36.0683 -3.91536 0.866037 0
M  V30 292 H 32.6583 -3.63433 2.27189 0
M  V30 293 H 36.8423 -3.75505 3.24514 0
M  V30 294 H 32.0983 -3.98119 4.64016 0
M  V30 295 H 36.2723 -4.11468 5.61843 0
M  V30 296 H 33.8993 -4.22384 6.32057 0
M  V30 297 N 35.4744 -0.807222 -1.35358 0
M  V30 298 C 36.4374 -0.223665 -2.28106 0
M  V30 299 C 37.4374 0.589354 -1.4961 0
M  V30 300 O 38.6274 0.407745 -1.69361 0
M  V30 301 C 35.7594 0.688149 -3.33882 0
M  V30 302 H 36.9524 -1.04169 -2.81227 0
M  V30 303 H 34.5054 -0.577921 -1.45223 0
M  V30 304 H 35.2404 1.52984 -2.85948 0
M  V30 305 H 35.0254 0.10687 -3.91954 0
M  V30 306 H 36.5154 1.09075 -4.03104 0
M  V30 307 N 36.9525 1.47285 -0.560781 0
M  V30 308 C 38.1775 2.07359 -0.0410566 0
M  V30 309 C 38.6025 1.41017 1.24483 0
M  V30 310 O 37.9605 0.486368 1.74654 0
M  V30 311 C 38.0085 3.6035 0.134123 0
M  V30 312 O 37.1125 3.94681 1.19587 0
M  V30 313 H 36.4535 0.661887 -0.0529291 0
M  V30 314 H 38.9835 1.89252 -0.777482 0
M  V30 315 H 38.9935 4.0652 0.347207 0
M  V30 316 H 37.6685 4.08034 -0.805047 0
M  V30 317 H 36.2455 3.60251 0.962987 0
M  V30 318 N 38.4306 0.297415 1.54768 0
M  V30 319 C 39.3776 -0.580276 2.23386 0
M  V30 320 C 40.3476 -1.13238 1.21517 0
M  V30 321 O 41.5326 -1.17757 1.50126 0
M  V30 322 C 38.6726 -1.74801 2.97555 0
M  V30 323 C 37.7856 -1.22764 4.1419 0
M  V30 324 C 36.9206 -2.35895 4.75949 0
M  V30 325 C 35.9596 -1.80974 5.84735 0
M  V30 326 N 35.0966 -2.87664 6.40464 0
M  V30 327 H 39.9366 0.0114833 2.97998 0
M  V30 328 H 37.4736 0.0174361 1.4709 0
M  V30 329 H 39.4316 -2.43475 3.38786 0
M  V30 330 H 38.0616 -2.31145 2.25326 0
M  V30 331 H 37.1136 -0.433271 3.77924 0
M  V30 332 H 38.4256 -0.785551 4.92575 0
M  V30 333 H 37.5796 -3.12523 5.20014 0
M  V30 334 H 36.3186 -2.83429 3.96887 0
M  V30 335 H 35.3236 -1.02834 5.40097 0
M  V30 336 H 36.5486 -1.34348 6.65678 0
M  V30 337 H 34.4946 -3.34538 5.64287 0
M  V30 338 H 34.4116 -2.4794 7.14186 0
M  V30 339 H 35.6796 -3.642 6.89187 0
M  V30 340 N 39.9087 -1.5758 0.0250728 0
M  V30 341 C 41.1367 -1.9593 -0.664747 0
M  V30 342 C 41.5517 -0.901352 -1.65895 0
M  V30 343 O 40.9087 0.117255 -1.82123 0
M  V30 344 C 40.9597 -3.34342 -1.37468 0
M  V30 345 O 40.6807 -4.36079 -0.420324 0
M  V30 346 C 42.1817 -3.873 -2.1567 0
M  V30 347 H 39.4017 -0.645405 -0.183557 0
M  V30 348 H 41.9457 -2.04329 0.0836372 0
M  V30 349 H 40.1007 -3.27175 -2.0745 0
M  V30 350 H 40.5147 -5.16297 -0.923991 0
M  V30 351 H 41.9887 -4.86504 -2.60803 0
M  V30 352 H 42.4657 -3.21331 -2.99405 0
M  V30 353 H 43.0717 -3.97723 -1.50654 0
M  V30 354 N 41.3868 0.248026 -1.55636 0
M  V30 355 C 42.3338 1.30707 -1.90222 0
M  V30 356 C 43.3038 1.47881 -0.756332 0
M  V30 357 O 44.4888 1.61883 -1.00988 0
M  V30 358 C 41.6288 2.65769 -2.20138 0
M  V30 359 C 40.7418 2.56612 -3.47526 0
M  V30 360 C 39.8768 3.8402 -3.67017 0
M  V30 361 C 38.9158 3.69476 -4.8801 0
M  V30 362 N 38.0528 4.88774 -5.04029 0
M  V30 363 H 42.8928 1.00512 -2.80538 0
M  V30 364 H 40.4298 0.485055 -1.38873 0
M  V30 365 H 42.3878 3.44386 -2.35487 0
M  V30 366 H 41.0178 2.94115 -1.33027 0
M  V30 367 H 40.0698 1.69571 -3.40514 0
M  V30 368 H 41.3818 2.41774 -4.36287 0
M  V30 369 H 40.5358 4.7108 -3.8232 0
M  V30 370 H 39.2748 4.01754 -2.76487 0
M  V30 371 H 38.2798 2.80799 -4.72686 0
M  V30 372 H 39.5048 3.53238 -5.8 0
M  V30 373 H 37.4508 5.0687 -4.16435 0
M  V30 374 H 37.3678 4.76562 -5.86877 0
M  V30 375 H 38.6358 5.77335 -5.23741 0
M  V30 376 N 42.8649 1.48995 0.513639 0
M  V30 377 C 43.8119 1.6473 1.61656 0
M  V30 378 C 44.7819 0.488984 1.58739 0
M  V30 379 O 45.9669 0.714478 1.76918 0
M  V30 380 C 43.1069 1.7082 2.99858 0
M  V30 381 C 42.2199 2.9787 3.12885 0
M  V30 382 C 41.3549 2.95017 4.41744 0
M  V30 383 C 40.3939 4.16702 4.48359 0
M  V30 384 N 39.5309 4.11832 5.68629 0
M  V30 385 H 44.3709 2.58909 1.47547 0
M  V30 386 H 41.9079 1.28382 0.71808 0
M  V30 387 H 43.8659 1.72331 3.79944 0
M  V30 388 H 42.4959 0.801181 3.12699 0
M  V30 389 H 41.5479 3.06029 2.25944 0
M  V30 390 H 42.8599 3.8786 3.13633 0
M  V30 391 H 42.0139 2.95021 5.30139 0
M  V30 392 H 40.7529 2.02784 4.43542 0
M  V30 393 H 39.7579 4.16955 3.58369 0
M  V30 394 H 40.9829 5.10113 4.48287 0
M  V30 395 H 38.9289 3.22428 5.71293 0
M  V30 396 H 38.8459 4.95543 5.7094 0
M  V30 397 H 40.1139 4.1592 6.59266 0
M  V30 398 N 44.343 -0.763751 1.37857 0
M  V30 399 C 45.29 -1.87726 1.34267 0
M  V30 400 C 46.26 -1.64807 0.206879 0
M  V30 401 O 47.445 -1.86613 0.397508 0
M  V30 402 C 44.585 -3.24896 1.16346 0
M  V30 403 C 43.698 -3.59716 2.39225 0
M  V30 404 C 42.833 -4.86137 2.14114 0
M  V30 405 C 41.872 -5.13711 3.32817 0
M  V30 406 N 41.009 -6.31323 3.07206 0
M  V30 407 H 45.849 -1.90129 2.29466 0
M  V30 408 H 43.386 -0.929433 1.14017 0
M  V30 409 H 45.344 -4.04036 1.03975 0
M  V30 410 H 43.974 -3.21847 0.247909 0
M  V30 411 H 43.026 -2.75498 2.62307 0
M  V30 412 H 44.338 -3.76027 3.27728 0
M  V30 413 H 43.492 -5.73198 1.9882 0
M  V30 414 H 42.231 -4.71945 1.22961 0
M  V30 415 H 41.236 -4.25123 3.48641 0
M  V30 416 H 42.461 -5.29807 4.24832 0
M  V30 417 H 40.407 -6.18474 2.1869 0
M  V30 418 H 40.324 -6.48087 3.89254 0
M  V30 419 H 41.592 -7.213 2.95546 0
M  V30 420 N 45.8211 -1.22559 -0.990812 0
M  V30 421 C 46.7711 -0.964807 -2.0658 0
M  V30 422 C 47.7551 0.0853472 -1.60673 0
M  V30 423 O 48.9471 -0.125443 -1.76555 0
M  V30 424 C 46.0761 -0.546707 -3.38919 0
M  V30 425 C 45.1621 -1.6317 -3.91454 0
M  V30 426 N 45.5531 -2.85985 -4.17189 0
M  V30 427 C 43.8511 -1.50387 -4.19881 0
M  V30 428 C 44.5521 -3.56159 -4.59919 0
M  V30 429 N 43.5281 -2.83637 -4.63736 0
M  V30 430 H 47.3301 -1.89769 -2.24421 0
M  V30 431 H 44.8441 -1.12343 -1.17273 0
M  V30 432 H 46.8411 -0.34119 -4.15502 0
M  V30 433 H 45.5011 0.379254 -3.22478 0
M  V30 434 H 46.5121 -3.22392 -4.05319 0
M  V30 435 H 43.1891 -0.644254 -4.12499 0
M  V30 436 H 44.5791 -4.6139 -4.88435 0
M  V30 437 N 47.2992 1.18797 -1.03562 0
M  V30 438 C 48.5462 1.8865 -0.736023 0
M  V30 439 C 48.8742 1.80041 0.735889 0
M  V30 440 O 48.1292 1.19179 1.55225 0
M  V30 441 C 48.4282 3.38692 -1.14117 0
M  V30 442 C 48.0942 3.67504 -2.6125 0
M  V30 443 C 46.7562 3.75078 -3.01447 0
M  V30 444 C 49.1082 3.80293 -3.56408 0
M  V30 445 C 46.4362 3.92915 -4.35701 0
M  V30 446 C 48.7882 3.99645 -4.90374 0
M  V30 447 C 47.4522 4.05453 -5.30249 0
M  V30 448 H 46.7222 0.690321 -0.26933 0
M  V30 449 H 49.3692 1.40641 -1.29971 0
M  V30 450 H 47.6742 3.88645 -0.496202 0
M  V30 451 H 49.3712 3.91072 -0.886789 0
M  V30 452 H 45.9612 3.62223 -2.29113 0
M  V30 453 H 50.1452 3.73779 -3.26501 0
M  V30 454 H 45.4012 3.95653 -4.66121 0
M  V30 455 H 49.5752 4.08482 -5.64017 0
M  V30 456 H 47.2022 4.19027 -6.34288 0
M  V30 457 N 48.7773 0.814389 1.34928 0
M  V30 458 C 50.0233 0.399013 1.98836 0
M  V30 459 C 50.3563 -1.03314 1.64438 0
M  V30 460 O 49.6313 -1.71811 0.911659 0
M  V30 461 C 49.9143 0.591629 3.55207 0
M  V30 462 C 49.7673 2.06928 3.99376 0
M  V30 463 C 51.0863 0.022199 4.40094 0
M  V30 464 H 48.2053 0.146451 0.722303 0
M  V30 465 H 50.8473 1.02537 1.59957 0
M  V30 466 H 48.9973 0.0584441 3.88456 0
M  V30 467 H 50.6693 2.66544 3.76499 0
M  V30 468 H 48.9123 2.56287 3.49999 0
M  V30 469 H 49.5833 2.1549 5.08201 0
M  V30 470 H 52.0593 0.477643 4.13349 0
M  V30 471 H 50.9353 0.186832 5.48582 0
M  V30 472 H 51.1963 -1.07215 4.28902 0
M  V30 473 N 50.2554 -1.46986 0.568584 0
M  V30 474 C 51.1874 -2.28233 -0.210337 0
M  V30 475 C 52.2004 -1.37682 -0.868767 0
M  V30 476 O 53.3894 -1.62406 -0.740705 0
M  V30 477 C 50.4894 -3.12293 -1.3163 0
M  V30 478 C 49.6624 -4.30878 -0.7525 0
M  V30 479 C 48.7214 -4.96445 -1.74439 0
M  V30 480 O 47.7474 -5.54482 -1.286 0
M  V30 481 N 48.9494 -4.92171 -3.07812 0
M  V30 482 H 51.7144 -2.95723 0.486648 0
M  V30 483 H 49.2754 -1.56742 0.405409 0
M  V30 484 H 51.2674 -3.53022 -1.97883 0
M  V30 485 H 49.8374 -2.46971 -1.91636 0
M  V30 486 H 49.0574 -3.94104 0.0871128 0
M  V30 487 H 50.3454 -5.07558 -0.35536 0
M  V30 488 H 49.7434 -4.46239 -3.47688 0
M  V30 489 H 48.3004 -5.36884 -3.69592 0
M  V30 490 N 51.7335 -0.305618 -1.54608 0
M  V30 491 C 52.6655 0.602161 -2.21149 0
M  V30 492 C 53.6785 1.09394 -1.20569 0
M  V30 493 O 54.8675 1.0106 -1.47136 0
M  V30 494 C 51.9675 1.83692 -2.84799 0
M  V30 495 C 51.1405 1.48686 -4.11353 0
M  V30 496 C 50.1995 2.57725 -4.58764 0
M  V30 497 O 49.2255 2.22623 -5.23858 0
M  V30 498 N 50.4275 3.88346 -4.31471 0
M  V30 499 H 53.1925 0.0324966 -2.99682 0
M  V30 500 H 50.7535 -0.128021 -1.61393 0
M  V30 501 H 52.7455 2.55994 -3.13448 0
M  V30 502 H 51.3155 2.31486 -2.10078 0
M  V30 503 H 50.5355 0.596269 -3.89664 0
M  V30 504 H 51.8235 1.22842 -4.93748 0
M  V30 505 H 51.2215 4.19671 -3.79331 0
M  V30 506 H 49.7785 4.56932 -4.64818 0
M  V30 507 N 53.2116 1.57565 -0.0334293 0
M  V30 508 C 54.1586 2.10478 0.946981 0
M  V30 509 C 55.1286 1.00787 1.32027 0
M  V30 510 O 56.3136 1.28232 1.41284 0
M  V30 511 C 53.4536 2.63994 2.22263 0
M  V30 512 C 52.5666 3.87709 1.90541 0
M  V30 513 C 51.7016 4.29604 3.12433 0
M  V30 514 C 50.7406 5.46065 2.76549 0
M  V30 515 N 49.8776 5.83096 3.9108 0
M  V30 516 H 54.7176 2.93963 0.488846 0
M  V30 517 H 52.2546 1.45296 0.22969 0
M  V30 518 H 54.2126 2.93114 2.96884 0
M  V30 519 H 52.8426 1.83333 2.65685 0
M  V30 520 H 51.8946 3.65291 1.06144 0
M  V30 521 H 53.2066 4.72403 1.60116 0
M  V30 522 H 52.3606 4.60182 3.9537 0
M  V30 523 H 51.0996 3.43685 3.46023 0
M  V30 524 H 50.1046 5.15176 1.92026 0
M  V30 525 H 51.3296 6.33685 2.44171 0
M  V30 526 H 49.2756 5.00132 4.24504 0
M  V30 527 H 49.1926 6.6244 3.64293 0
M  V30 528 H 50.4606 6.18282 4.74708 0
M  V30 529 N 54.6897 -0.239769 1.55765 0
M  V30 530 C 55.9357 -0.968234 1.78194 0
M  V30 531 C 56.2687 -1.84701 0.599938 0
M  V30 532 O 55.5437 -1.9031 -0.401524 0
M  V30 533 C 55.8267 -1.8227 3.10564 0
M  V30 534 C 55.6797 -0.971633 4.3918 0
M  V30 535 C 56.9987 -2.80388 3.39221 0
M  V30 536 H 54.1177 -0.350572 0.648281 0
M  V30 537 H 56.7597 -0.238259 1.885 0
M  V30 538 H 54.9097 -2.44507 3.01908 0
M  V30 539 H 56.5817 -0.367408 4.59835 0
M  V30 540 H 54.8247 -0.276276 4.32919 0
M  V30 541 H 55.4957 -1.60346 5.28198 0
M  V30 542 H 57.9717 -2.28287 3.47885 0
M  V30 543 H 56.8477 -3.3729 4.33044 0
M  V30 544 H 57.1087 -3.57212 2.60484 0
M  V30 545 N 56.1678 -1.49265 -0.50573 0
M  V30 546 C 57.1148 -1.65585 -1.6078 0
M  V30 547 C 58.0848 -0.497396 -1.58478 0
M  V30 548 O 59.2698 -0.72385 -1.76536 0
M  V30 549 C 56.4098 -1.72408 -2.98948 0
M  V30 550 C 55.5228 -2.99525 -3.11301 0
M  V30 551 C 54.6578 -2.97356 -4.40174 0
M  V30 552 C 53.6968 -4.19074 -4.46143 0
M  V30 553 N 52.8338 -4.14841 -5.66437 0
M  V30 554 H 57.6738 -2.59688 -1.46172 0
M  V30 555 H 55.2108 -1.28761 -0.711261 0
M  V30 556 H 57.1688 -1.74344 -3.79025 0
M  V30 557 H 55.7988 -0.817753 -3.1227 0
M  V30 558 H 54.8508 -3.07222 -2.24318 0
M  V30 559 H 56.1628 -3.89518 -3.11572 0
M  V30 560 H 55.3168 -2.97829 -5.28567 0
M  V30 561 H 54.0558 -2.05133 -4.42461 0
M  V30 562 H 53.0608 -4.1885 -3.56153 0
M  V30 563 H 54.2858 -5.12483 -4.45575 0
M  V30 564 H 52.2318 -3.25453 -5.69575 0
M  V30 565 H 52.1488 -4.98564 -5.68304 0
M  V30 566 H 53.4168 -4.1941 -6.57051 0
M  V30 567 N 57.6459 0.756429 -1.3826 0
M  V30 568 C 58.8919 1.51772 -1.34511 0
M  V30 569 C 59.2249 1.94089 0.0656691 0
M  V30 570 O 58.4999 1.65221 1.02626 0
M  V30 571 C 58.7829 2.77226 -2.29821 0
M  V30 572 C 58.6359 2.41065 -3.79747 0
M  V30 573 C 59.9549 3.79236 -2.23312 0
M  V30 574 H 57.0739 0.550578 -0.489931 0
M  V30 575 H 59.7159 0.866607 -1.69086 0
M  V30 576 H 57.8659 3.32784 -2.00467 0
M  V30 577 H 59.5379 1.91303 -4.19763 0
M  V30 578 H 57.7809 1.7356 -3.97567 0
M  V30 579 H 58.4519 3.3081 -4.41892 0
M  V30 580 H 60.9279 3.3321 -2.49219 0
M  V30 581 H 59.8039 4.64714 -2.92116 0
M  V30 582 H 60.0649 4.24615 -1.23102 0
M  V30 583 N 59.124 1.23083 0.984299 0
M  V30 584 C 60.371 1.06057 1.72505 0
M  V30 585 C 60.699 -0.403105 1.90277 0
M  V30 586 O 59.954 -1.3149 1.44944 0
M  V30 587 C 60.253 1.72673 3.1292 0
M  V30 588 C 59.919 3.22586 3.15038 0
M  V30 589 C 58.581 3.63489 3.15324 0
M  V30 590 C 60.933 4.185 3.10657 0
M  V30 591 C 58.261 4.98772 3.08939 0
M  V30 592 C 60.613 5.53769 3.05814 0
M  V30 593 C 59.277 5.94041 3.04419 0
M  V30 594 H 58.547 0.388091 0.631242 0
M  V30 595 H 61.194 1.52963 1.15215 0
M  V30 596 H 59.499 1.18116 3.73572 0
M  V30 597 H 61.196 1.56982 3.68996 0
M  V30 598 H 57.786 2.90022 3.15571 0
M  V30 599 H 61.97 3.87911 3.09579 0
M  V30 600 H 57.226 5.29193 3.0621 0
M  V30 601 H 61.4 6.27808 3.0138 0
M  V30 602 H 59.027 6.98833 2.99227 0
M  V30 603 N 60.6021 -1.18246 1.0419 0
M  V30 604 C 62.0181 -1.40269 0.761366 0
M  V30 605 C 62.2181 -1.90777 -0.648578 0
M  V30 606 O 61.2741 -2.0929 -1.41258 0
M  V30 607 C 62.5871 -2.40237 1.8085 0
M  V30 608 C 64.1351 -2.53961 1.82955 0
M  V30 609 C 64.6101 -3.57194 2.86664 0
M  V30 610 N 66.1011 -3.64702 2.85563 0
M  V30 611 C 66.8361 -4.44309 3.6246 0
M  V30 612 N 66.3321 -5.27514 4.49111 0
M  V30 613 N 68.1251 -4.39084 3.50944 0
M  V30 614 H 60.2761 -0.837882 1.95175 0
M  V30 615 H 62.5391 -0.430608 0.84456 0
M  V30 616 H 62.2451 -2.10176 2.81991 0
M  V30 617 H 62.1191 -3.39601 1.64168 0
M  V30 618 H 64.5061 -2.83338 0.824855 0
M  V30 619 H 64.5871 -1.54706 2.03715 0
M  V30 620 H 64.2311 -3.28558 3.87314 0
M  V30 621 H 64.1611 -4.5613 2.6316 0
M  V30 622 H 66.6521 -3.05289 2.22727 0
M  V30 623 H 66.9651 -5.85411 5.04493 0
M  V30 624 H 65.3101 -5.2693 4.53178 0
M  V30 625 H 68.5011 -3.7313 2.82651 0
M  V30 626 H 68.6741 -5.00883 4.11121 0
M  V30 627 N 62.0802 -0.821533 -1.34494 0
M  V30 628 C 63.0432 -0.247847 -2.27856 0
M  V30 629 C 64.0432 0.573453 -1.50227 0
M  V30 630 O 65.2332 0.389759 -1.69784 0
M  V30 631 C 62.3652 0.652698 -3.34593 0
M  V30 632 H 63.5582 -1.07146 -2.80107 0
M  V30 633 H 61.1112 -0.593291 -1.44602 0
M  V30 634 H 61.8462 1.49943 -2.87555 0
M  V30 635 H 61.6312 0.065292 -3.92046 0
M  V30 636 H 63.1212 1.04793 -4.04238 0
M  V30 637 N 63.5583 1.46682 -0.576371 0
M  V30 638 C 64.5213 2.28707 0.150239 0
M  V30 639 C 65.5213 1.38035 0.824794 0
M  V30 640 O 66.7113 1.60476 0.677719 0
M  V30 641 C 63.8433 3.18248 1.22192 0
M  V30 642 H 65.0363 2.94423 -0.570521 0
M  V30 643 H 62.5893 1.52688 -0.334078 0
M  V30 644 H 63.3243 2.57265 1.97447 0
M  V30 645 H 63.1093 3.85 0.742812 0
M  V30 646 H 64.5993 3.80001 1.73172 0
M  V30 647 N 65.0364 0.313813 1.54444 0
M  V30 648 C 66.3134 -0.345447 1.92525 0
M  V30 649 C 66.6934 -1.70667 1.24242 0
M  V30 650 O 66.0414 -2.25273 0.382654 0
M  V30 651 C 66.2514 -0.44737 3.46121 0
M  V30 652 C 67.5994 -0.712238 4.18584 0
M  V30 653 O 68.6234 -0.530678 3.52225 0
M  V30 654 O 67.4824 -1.06183 5.36085 0
M  V30 655 H 64.5764 -0.195407 0.803583 0
M  V30 656 H 67.1224 0.362813 1.65776 0
M  V30 657 H 65.8944 0.509043 3.87975 0
M  V30 658 H 65.5174 -1.20359 3.78945 0
M  V30 659 N 66.5145 -1.57545 0.0417849 0
M  V30 660 C 67.9255 -1.80011 -0.495259 0
M  V30 661 C 68.2765 -0.953199 -1.71489 0
M  V30 662 O 67.4015 -0.167138 -2.15754 0
M  V30 663 C 67.9965 -3.26482 -0.905265 0
M  V30 664 C 66.5555 -3.499 -1.38734 0
M  V30 665 C 65.7025 -2.74979 -0.358056 0
M  V30 666 H 68.6535 -1.56425 0.267736 0
M  V30 667 H 68.6745 -3.36887 -1.76882 0
M  V30 668 H 68.1865 -3.88096 -0.017401 0
M  V30 669 H 66.2875 -2.93553 -2.29471 0
M  V30 670 H 66.4005 -4.58615 -1.38598 0
M  V30 671 H 64.7645 -2.40834 -0.828912 0
M  V30 672 H 65.5475 -3.39315 0.521561 0
M  V30 673 N 67.9926 0.231505 -1.5589 0
M  V30 674 C 68.9226 1.29022 -1.94617 0
M  V30 675 C 69.9036 1.4941 -0.813067 0
M  V30 676 O 71.0886 1.6176 -1.07459 0
M  V30 677 C 68.2186 2.64199 -2.25424 0
M  V30 678 C 67.1726 2.58484 -3.41131 0
M  V30 679 C 66.4986 3.97599 -3.57518 0
M  V30 680 C 67.7986 2.1413 -4.76388 0
M  V30 681 H 69.4926 0.968563 -2.83301 0
M  V30 682 H 67.0386 0.464479 -1.36303 0
M  V30 683 H 68.9916 3.38413 -2.51107 0
M  V30 684 H 67.7156 2.98032 -1.33583 0
M  V30 685 H 66.3746 1.86727 -3.15481 0
M  V30 686 H 66.0226 4.28723 -2.6307 0
M  V30 687 H 65.7226 3.94659 -4.35337 0
M  V30 688 H 67.2466 4.7349 -3.85538 0
M  V30 689 H 68.6606 2.78083 -5.01341 0
M  V30 690 H 67.0576 2.2227 -5.57419 0
M  V30 691 H 68.1276 1.09331 -4.72414 0
M  V30 692 N 69.4707 1.49531 0.497807 0
M  V30 693 C 70.7167 1.59415 1.25358 0
M  V30 694 C 71.0497 0.281422 1.9215 0
M  V30 695 O 70.3247 -0.715249 1.80871 0
M  V30 696 C 70.6077 2.75566 2.3181 0
M  V30 697 C 70.4607 4.16642 1.69498 0
M  V30 698 C 71.7797 2.87347 3.33346 0
M  V30 699 H 68.8987 0.580244 0.454408 0
M  V30 700 H 71.5407 1.81827 0.551262 0
M  V30 701 H 69.6907 2.56587 2.91711 0
M  V30 702 H 71.3627 4.47145 1.13399 0
M  V30 703 H 69.6057 4.22141 0.998978 0
M  V30 704 H 70.2767 4.93792 2.46725 0
M  V30 705 H 72.7527 3.04634 2.83438 0
M  V30 706 H 71.6287 3.70289 4.05188 0
M  V30 707 H 71.8897 1.96834 3.95865 0
M  V30 708 N 70.9488 -0.749086 1.3866 0
M  V30 709 C 72.1968 -1.50535 1.34847 0
M  V30 710 C 72.5178 -1.94909 -0.0595016 0
M  V30 711 O 71.7878 -1.67973 -1.00806 0
M  V30 712 H 70.3678 -0.558395 0.49619 0
M  V30 713 H 73.0298 -0.890165 1.73384 0
M  V30 714 H 72.1258 -2.39413 2.00219 0
M  V30 715 N 72.4269 -1.23603 -0.977757 0
M  V30 716 C 73.6729 -1.07129 -1.72195 0
M  V30 717 C 74.0059 0.390501 -1.90233 0
M  V30 718 O 73.2809 1.28902 -1.45653 0
M  V30 719 C 73.5639 -1.80031 -3.11867 0
M  V30 720 C 73.4169 -3.33899 -3.01383 0
M  V30 721 C 74.7359 -1.56492 -4.11337 0
M  V30 722 H 71.8549 -0.390571 -0.624999 0
M  V30 723 H 74.4969 -1.52142 -1.13811 0
M  V30 724 H 72.6469 -1.41768 -3.6171 0
M  V30 725 H 74.3189 -3.81699 -2.59043 0
M  V30 726 H 72.5619 -3.62796 -2.37827 0
M  V30 727 H 73.2329 -3.801 -4.00285 0
M  V30 728 H 75.7089 -1.89757 -3.70313 0
M  V30 729 H 74.5849 -2.09973 -5.07151 0
M  V30 730 H 74.8459 -0.500874 -4.39254 0
M  V30 731 N 73.905 1.17692 -1.04816 0
M  V30 732 C 75.152 1.87859 -0.75599 0
M  V30 733 C 75.48 1.80812 0.716752 0
M  V30 734 O 74.735 1.20819 1.53952 0
M  V30 735 C 75.034 3.37462 -1.17703 0
M  V30 736 C 74.7 3.64713 -2.65133 0
M  V30 737 C 73.362 3.71859 -3.05408 0
M  V30 738 C 75.714 3.76492 -3.60421 0
M  V30 739 C 73.042 3.88271 -4.39843 0
M  V30 740 C 75.394 3.94421 -4.94585 0
M  V30 741 C 74.058 3.99806 -5.3452 0
M  V30 742 H 73.328 0.687425 -0.276636 0
M  V30 743 H 75.975 1.39255 -1.31455 0
M  V30 744 H 74.28 3.88097 -0.537395 0
M  V30 745 H 75.977 3.90109 -0.928218 0
M  V30 746 H 72.567 3.59772 -2.32942 0
M  V30 747 H 76.751 3.70295 -3.30447 0
M  V30 748 H 72.007 3.90687 -4.70291 0
M  V30 749 H 76.181 4.02477 -5.68318 0
M  V30 750 H 73.808 4.12276 -6.38696 0
M  V30 751 N 75.3831 0.828654 1.34056 0
M  V30 752 C 76.3131 0.269443 2.3194 0
M  V30 753 C 77.2941 -0.617247 1.58506 0
M  V30 754 O 78.4791 -0.542931 1.86456 0
M  V30 755 C 75.6091 -0.564793 3.42677 0
M  V30 756 C 74.5631 0.225241 4.27407 0
M  V30 757 C 73.8891 -0.7321 5.29664 0
M  V30 758 C 75.1891 1.43663 5.02154 0
M  V30 759 H 76.8831 1.08728 2.7896 0
M  V30 760 H 74.4291 0.524283 1.34117 0
M  V30 761 H 76.3821 -0.966233 4.10173 0
M  V30 762 H 75.1061 -1.41574 2.9432 0
M  V30 763 H 73.7651 0.608117 3.61521 0
M  V30 764 H 73.4131 -1.57916 4.77568 0
M  V30 765 H 73.1131 -0.20767 5.87233 0
M  V30 766 H 74.6371 -1.13128 6.00029 0
M  V30 767 H 76.0511 1.1089 5.62473 0
M  V30 768 H 74.4481 1.89711 5.69324 0
M  V30 769 H 75.5181 2.21181 4.31517 0
M  V30 770 N 76.8612 -1.46375 0.584142 0
M  V30 771 C 78.1072 -2.03248 0.0787103 0
M  V30 772 C 78.4622 -1.44737 -1.26763 0
M  V30 773 O 77.7552 -0.603625 -1.81843 0
M  V30 774 C 77.9492 -3.57373 -0.0439342 0
M  V30 775 C 77.7782 -4.30831 1.28897 0
M  V30 776 C 76.5482 -4.69683 1.8635 0
M  V30 777 C 78.7462 -4.64278 2.21248 0
M  V30 778 N 76.7282 -5.27898 3.13365 0
M  V30 779 C 78.0992 -5.23078 3.32851 0
M  V30 780 C 80.1542 -4.46209 2.20911 0
M  V30 781 C 78.8572 -5.65715 4.44251 0
M  V30 782 C 80.8832 -4.89864 3.31341 0
M  V30 783 C 80.2452 -5.48736 4.41665 0
M  V30 784 H 76.3442 -0.778714 0.0716144 0
M  V30 785 H 78.9282 -1.78509 0.777355 0
M  V30 786 H 77.0992 -3.81823 -0.711749 0
M  V30 787 H 78.8312 -4.00892 -0.553881 0
M  V30 788 H 75.5862 -4.52488 1.39826 0
M  V30 789 H 76.0102 -5.61525 3.78178 0
M  V30 790 H 80.6522 -4.00027 1.36888 0
M  V30 791 H 78.3702 -6.10875 5.29015 0
M  V30 792 H 81.9562 -4.77634 3.322 0
M  V30 793 H 80.8362 -5.81898 5.25704 0
M  V30 794 N 78.3393 -0.321999 -1.54275 0
M  V30 795 C 79.5873 0.280489 -2.00144 0
M  V30 796 C 79.9083 1.52777 -1.21178 0
M  V30 797 O 79.1783 1.9338 -0.313187 0
M  V30 798 H 77.7583 0.106632 -0.73935 0
M  V30 799 H 80.4203 -0.438184 -1.8991 0
M  V30 800 H 79.5163 0.537972 -3.07428 0
M  V30 801 N 79.8174 1.5752 -0.0501392 0
M  V30 802 C 81.0634 1.92936 0.624798 0
M  V30 803 C 81.3964 0.928685 1.70555 0
M  V30 804 O 80.6714 -0.0454779 1.94447 0
M  V30 805 C 80.9544 3.38737 1.22185 0
M  V30 806 C 80.8074 4.49552 0.149218 0
M  V30 807 C 82.1264 3.84913 2.13378 0
M  V30 808 H 79.2454 0.701604 0.225657 0
M  V30 809 H 81.8874 1.89671 -0.111693 0
M  V30 810 H 80.0374 3.4165 1.84953 0
M  V30 811 H 81.7094 4.58768 -0.482648 0
M  V30 812 H 79.9524 4.30638 -0.522841 0
M  V30 813 H 80.6234 5.48653 0.606966 0
M  V30 814 H 83.0994 3.8387 1.60572 0
M  V30 815 H 81.9754 4.87584 2.52097 0
M  V30 816 H 82.2364 3.21611 3.03346 0
M  V30 817 N 81.2955 -0.223234 1.56011 0
M  V30 818 C 82.2585 -1.26014 1.9145 0
M  V30 819 C 83.2585 -1.3989 0.792937 0
M  V30 820 O 84.4485 -1.38184 1.0607 0
M  V30 821 C 81.5805 -2.63422 2.16383 0
M  V30 822 H 82.7735 -0.95796 2.84189 0
M  V30 823 H 80.3265 -0.463576 1.49267 0
M  V30 824 H 81.0615 -2.98741 1.2619 0
M  V30 825 H 80.8465 -2.54728 2.98088 0
M  V30 826 H 82.3365 -3.38249 2.44903 0
M  V30 827 N 82.7736 -1.49793 -0.48987 0
M  V30 828 C 83.7236 -1.63673 -1.5873 0
M  V30 829 C 84.7076 -0.491956 -1.53195 0
M  V30 830 O 85.8996 -0.745461 -1.60536 0
M  V30 831 C 83.0286 -1.71689 -2.97284 0
M  V30 832 C 82.1146 -2.91781 -3.07774 0
M  V30 833 N 82.5056 -4.15714 -2.88124 0
M  V30 834 C 80.8036 -2.89949 -3.38889 0
M  V30 835 C 81.5046 -4.965 -3.03088 0
M  V30 836 N 80.4806 -4.30083 -3.3246 0
M  V30 837 H 84.2826 -2.57204 -1.42208 0
M  V30 838 H 81.7966 -1.46719 -0.69623 0
M  V30 839 H 83.7936 -1.79732 -3.76168 0
M  V30 840 H 82.4536 -0.793024 -3.14867 0
M  V30 841 H 83.4646 -4.45515 -2.64077 0
M  V30 842 H 80.1416 -2.06987 -3.62578 0
M  V30 843 H 81.5316 -6.04991 -2.92294 0
M  V30 844 N 84.2517 0.741722 -1.39055 0
M  V30 845 C 85.4767 1.53607 -1.39354 0
M  V30 846 C 85.9017 1.88096 0.0116905 0
M  V30 847 O 85.2597 1.5143 0.996924 0
M  V30 848 C 85.3077 2.80441 -2.26682 0
M  V30 849 O 84.4117 3.76088 -1.69208 0
M  V30 850 H 83.7527 0.464142 -0.474835 0
M  V30 851 H 86.2827 0.915665 -1.82967 0
M  V30 852 H 86.2927 3.29246 -2.40959 0
M  V30 853 H 84.9677 2.5467 -3.2881 0
M  V30 854 H 83.5447 3.34833 -1.64138 0
M  V30 855 N 85.7298 1.2412 0.971189 0
M  V30 856 C 86.9788 1.07284 1.70801 0
M  V30 857 C 87.2918 -0.388902 1.91695 0
M  V30 858 O 88.4978 -0.677379 2.62914 0
M  V30 859 C 86.9538 1.87145 3.07416 0
M  V30 860 C 86.5618 3.37707 2.94377 0
M  V30 861 C 88.3058 1.78828 3.84995 0
M  V30 862 C 86.2128 4.09925 4.26281 0
M  V30 863 H 85.1428 0.397854 0.64049 0
M  V30 864 H 87.7938 1.4817 1.0825 0
M  V30 865 H 86.1758 1.39071 3.70777 0
M  V30 866 H 87.3498 3.93335 2.4005 0
M  V30 867 H 85.6648 3.46938 2.30267 0
M  V30 868 H 88.2618 2.30089 4.82662 0
M  V30 869 H 88.6048 0.75284 4.09436 0
M  V30 870 H 89.1378 2.24563 3.28354 0
M  V30 871 H 85.8768 5.13813 4.07033 0
M  V30 872 H 85.3968 3.59083 4.80437 0
M  V30 873 H 87.0758 4.1673 4.94919 0
M  V30 874 N 87.2079 -1.17134 1.05439 0
M  V30 875 C 88.1559 -2.23289 0.651511 0
M  V30 876 C 89.1499 -1.66186 -0.328411 0
M  V30 877 O 90.3559 -1.78949 -0.194206 0
M  V30 878 H 86.7309 -0.726938 0.192523 0
M  V30 879 H 88.7019 -2.54565 1.55689 0
M  V30 880 C 87.4509 -3.47671 0.0448436 0
M  V30 881 H 86.7739 -3.91918 0.78996 0
M  V30 882 H 88.2139 -4.2353 -0.19964 0
M  V30 883 C 86.6729 -3.14453 -1.20918 0
M  V30 884 O 87.2029 -3.29459 -2.29825 0
M  V30 885 N 85.4089 -2.68657 -1.10779 0
M  V30 886 H 84.9559 -2.56646 -0.221526 0
M  V30 887 H 84.9139 -2.46804 -1.9477 0
M  V30 888 N 88.686 -0.835752 -1.33615 0
M  V30 889 C 89.596 -0.269088 -2.33052 0
M  V30 890 C 90.612 0.603251 -1.63208 0
M  V30 891 O 91.788 0.508112 -1.94885 0
M  V30 892 C 88.853 0.549091 -3.42324 0
M  V30 893 C 87.914 -0.347156 -4.27894 0
M  V30 894 C 87.147 0.43207 -5.31948 0
M  V30 895 O 87.37 1.66409 -5.45586 0
M  V30 896 O 86.304 -0.192298 -6.01593 0
M  V30 897 H 90.13 -1.09243 -2.83372 0
M  V30 898 H 87.715 -0.598198 -1.36901 0
M  V30 899 H 89.597 1.01414 -4.09015 0
M  V30 900 H 88.272 1.34955 -2.94226 0
M  V30 901 H 87.179 -0.859979 -3.64081 0
M  V30 902 H 88.512 -1.1123 -4.79467 0
M  V30 903 N 90.1641 1.46063 -0.591896 0
M  V30 904 C 91.0941 2.33172 0.123673 0
M  V30 905 C 92.0751 1.45897 0.87453 0
M  V30 906 O 93.2601 1.74698 0.848181 0
M  V30 907 C 90.3901 3.28336 1.13194 0
M  V30 908 C 89.3441 4.25124 0.495324 0
M  V30 909 C 88.6701 5.09863 1.61071 0
M  V30 910 C 89.9701 5.19143 -0.573425 0
M  V30 911 H 91.6641 2.93252 -0.603646 0
M  V30 912 H 89.2101 1.41014 -0.291741 0
M  V30 913 H 91.1631 3.88137 1.64097 0
M  V30 914 H 89.8871 2.66383 1.88965 0
M  V30 915 H 88.5461 3.66599 0.00729452 0
M  V30 916 H 88.1941 4.44288 2.35832 0
M  V30 917 H 87.8941 5.75417 1.19035 0
M  V30 918 H 89.4181 5.72529 2.12233 0
M  V30 919 H 90.8321 5.73106 -0.1491 0
M  V30 920 H 89.2291 5.93089 -0.914636 0
M  V30 921 H 90.2991 4.62519 -1.45617 0
M  V30 922 N 91.6422 0.330177 1.54103 0
M  V30 923 C 92.8672 -0.274893 2.0557 0
M  V30 924 C 93.2922 -1.44487 1.20437 0
M  V30 925 O 92.6502 -1.80021 0.214991 0
M  V30 926 C 92.6982 -0.68079 3.54115 0
M  V30 927 O 91.8022 -1.7824 3.71893 0
M  V30 928 H 91.1432 -0.0483849 0.662235 0
M  V30 929 H 93.6732 0.480508 1.98878 0
M  V30 930 H 93.6832 -0.961635 3.96505 0
M  V30 931 H 92.3582 0.174903 4.15532 0
M  V30 932 H 90.9352 -1.49985 3.41407 0
M  V30 933 N 93.1203 -1.57491 0.0584922 0
M  V30 934 C 94.0523 -2.08916 -0.942694 0
M  V30 935 C 95.0653 -1.0185 -1.27006 0
M  V30 936 O 96.2543 -1.29398 -1.22957 0
M  V30 937 C 93.3543 -2.52341 -2.26224 0
M  V30 938 C 92.5273 -3.82827 -2.1157 0
M  V30 939 C 91.5863 -4.12487 -3.26712 0
M  V30 940 O 90.6123 -4.82295 -3.02292 0
M  V30 941 N 91.8143 -3.64978 -4.5141 0
M  V30 942 H 94.5793 -2.95437 -0.503722 0
M  V30 943 H 92.1403 -1.61397 -0.12757 0
M  V30 944 H 94.1323 -2.69254 -3.02133 0
M  V30 945 H 92.7023 -1.7103 -2.61663 0
M  V30 946 H 91.9223 -3.75425 -1.20208 0
M  V30 947 H 93.2103 -4.68263 -1.99015 0
M  V30 948 H 92.6083 -3.08558 -4.7414 0
M  V30 949 H 91.1653 -3.87115 -5.2439 0
M  V30 950 N 94.5984 0.214957 -1.56127 0
M  V30 951 C 95.8444 0.939762 -1.79712 0
M  V30 952 C 96.1774 1.83723 -0.629247 0
M  V30 953 O 95.4524 1.90925 0.371197 0
M  V30 954 C 95.7354 1.77306 -3.13424 0
M  V30 955 C 95.5884 0.90164 -4.40671 0
M  V30 956 C 96.9074 2.74956 -3.43638 0
M  V30 957 H 94.0264 0.340214 -0.653776 0
M  V30 958 H 96.6684 0.20824 -1.88855 0
M  V30 959 H 94.8184 2.39673 -3.0576 0
M  V30 960 H 96.4904 0.294206 -4.60361 0
M  V30 961 H 94.7334 0.207368 -4.33304 0
M  V30 962 H 95.4044 1.51923 -5.30682 0
M  V30 963 H 97.8804 2.22724 -3.51473 0
M  V30 964 H 96.7564 3.30358 -4.38355 0
M  V30 965 H 97.0174 3.53023 -2.66134 0
M  V30 966 N 96.0765 1.50051 0.48192 0
M  V30 967 C 97.4875 1.5348 1.06305 0
M  V30 968 C 97.8385 0.331997 1.93371 0
M  V30 969 O 96.9635 -0.556256 2.09129 0
M  V30 970 C 97.5585 2.7813 1.93466 0
M  V30 971 C 96.1175 2.84275 2.46707 0
M  V30 972 C 95.2645 2.47637 1.24785 0
M  V30 973 H 98.2155 1.56472 0.264995 0
M  V30 974 H 98.2365 2.59372 2.78399 0
M  V30 975 H 97.7485 3.65654 1.30072 0
M  V30 976 H 95.8495 2.01077 3.13686 0
M  V30 977 H 95.9625 3.8691 2.82555 0
M  V30 978 H 94.3265 1.99835 1.57918 0
M  V30 979 H 95.1095 3.37457 0.630694 0
M  V30 980 N 97.5546 -0.734337 1.39446 0
M  V30 981 C 98.9656 -1.31264 1.32766 0
M  V30 982 C 99.3166 -1.96198 -0.00767497 0
M  V30 983 O 98.4416 -1.96346 -0.909796 0
M  V30 984 C 99.0366 -2.38682 2.4045 0
M  V30 985 C 97.5956 -2.92184 2.37288 0
M  V30 986 C 96.7426 -1.6576 2.22304 0
M  V30 987 H 99.6936 -0.531799 1.49525 0
M  V30 988 H 99.7146 -3.19087 2.07276 0
M  V30 989 H 99.2266 -1.91392 3.37625 0
M  V30 990 H 97.3276 -3.43752 1.43754 0
M  V30 991 H 97.4406 -3.45253 3.3217 0
M  V30 992 H 95.8046 -1.9012 1.69489 0
M  V30 993 H 96.5876 -1.20521 3.21449 0
M  V30 994 N 99.0327 -1.24633 -0.964593 0
M  V30 995 C 100.444 -1.08045 -1.5226 0
M  V30 996 C 100.795 0.347116 -1.93105 0
M  V30 997 O 99.9197 1.23588 -1.77637 0
M  V30 998 C 100.515 -1.95514 -2.76695 0
M  V30 999 C 99.0737 -1.8314 -3.28841 0
M  V30 1000 C 98.2207 -1.90262 -2.01732 0
M  V30 1001 H 101.172 -1.38064 -0.782553 0
M  V30 1002 H 101.193 -1.48925 -3.50145 0
M  V30 1003 H 100.705 -2.99407 -2.46936 0
M  V30 1004 H 98.8057 -0.82092 -3.63444 0
M  V30 1005 H 98.9187 -2.67406 -3.97531 0
M  V30 1006 H 97.2827 -1.34027 -2.16584 0
M  V30 1007 H 98.0657 -2.9574 -1.74334 0
M  V30 1008 N 100.511 1.16574 -1.06058 0
M  V30 1009 C 101.757 1.87324 -0.777022 0
M  V30 1010 C 102.09 1.81351 0.694645 0
M  V30 1011 O 101.365 1.22753 1.50871 0
M  V30 1012 C 101.648 3.36991 -1.26922 0
M  V30 1013 C 101.501 3.51667 -2.80447 0
M  V30 1014 C 102.82 4.3131 -0.87521 0
M  V30 1015 H 99.9388 0.680191 -0.28374 0
M  V30 1016 H 102.581 1.37036 -1.3161 0
M  V30 1017 H 100.731 3.79949 -0.81063 0
M  V30 1018 H 102.403 3.17664 -3.34495 0
M  V30 1019 H 100.646 2.93656 -3.19294 0
M  V30 1020 H 101.317 4.56766 -3.0995 0
M  V30 1021 H 103.793 3.9624 -1.27014 0
M  V30 1022 H 102.669 5.34545 -1.2471 0
M  V30 1023 H 102.93 4.41552 0.220071 0
M  V30 1024 N 101.989 0.842826 1.3317 0
M  V30 1025 C 102.922 0.223862 2.27099 0
M  V30 1026 C 103.9 -0.631311 1.49844 0
M  V30 1027 O 105.084 -0.590708 1.79005 0
M  V30 1028 C 102.211 -0.685313 3.31694 0
M  V30 1029 C 101.257 0.094919 4.26394 0
M  V30 1030 S 102.09 1.45546 5.15341 0
M  V30 1031 C 103.246 0.551685 6.23464 0
M  V30 1032 H 103.479 1.02015 2.79249 0
M  V30 1033 H 101.012 0.639797 1.4052 0
M  V30 1034 H 102.97 -1.20426 3.92438 0
M  V30 1035 H 101.631 -1.4553 2.78352 0
M  V30 1036 H 100.824 -0.597059 5.00451 0
M  V30 1037 H 100.426 0.545054 3.70007 0
M  V30 1038 H 102.718 -0.248877 6.77043 0
M  V30 1039 H 103.661 1.26253 6.96754 0
M  V30 1040 H 104.069 0.131275 5.64347 0
M  V30 1041 N 103.467 -1.45747 0.599634 0
M  V30 1042 C 104.397 -2.33235 -0.111306 0
M  V30 1043 C 105.378 -1.46359 -0.866781 0
M  V30 1044 O 106.563 -1.75146 -0.838904 0
M  V30 1045 C 103.693 -3.28932 -1.11451 0
M  V30 1046 C 102.647 -4.25381 -0.472772 0
M  V30 1047 C 101.973 -5.1071 -1.58365 0
M  V30 1048 C 103.273 -5.18831 0.600948 0
M  V30 1049 H 104.967 -2.92927 0.61919 0
M  V30 1050 H 102.513 -1.40857 0.299215 0
M  V30 1051 H 104.466 -3.89002 -1.62036 0
M  V30 1052 H 103.19 -2.67381 -1.8755 0
M  V30 1053 H 101.849 -3.66598 0.0121472 0
M  V30 1054 H 101.497 -4.45533 -2.33473 0
M  V30 1055 H 101.197 -5.7604 -1.15982 0
M  V30 1056 H 102.721 -5.73647 -2.09194 0
M  V30 1057 H 104.135 -5.73019 0.179491 0
M  V30 1058 H 102.532 -5.92595 0.946076 0
M  V30 1059 H 103.602 -4.6174 1.48068 0
M  V30 1060 N 104.945 -0.338344 -1.53925 0
M  V30 1061 C 105.875 0.51328 -2.27789 0
M  V30 1062 C 106.856 1.107 -1.29149 0
M  V30 1063 O 108.041 1.12937 -1.57984 0
M  V30 1064 C 105.171 1.66697 -3.04679 0
M  V30 1065 C 104.125 1.20183 -4.1078 0
M  V30 1066 C 103.451 2.44363 -4.75595 0
M  V30 1067 C 104.751 0.30605 -5.21403 0
M  V30 1068 H 106.445 -0.102883 -2.99223 0
M  V30 1069 H 103.991 -0.0509219 -1.4391 0
M  V30 1070 H 105.944 2.26915 -3.55088 0
M  V30 1071 H 104.668 2.30995 -2.30887 0
M  V30 1072 H 103.327 0.622499 -3.61276 0
M  V30 1073 H 102.975 3.07057 -3.98403 0
M  V30 1074 H 102.675 2.13925 -5.47275 0
M  V30 1075 H 104.199 3.05317 -5.28786 0
M  V30 1076 H 105.613 0.814929 -5.67478 0
M  V30 1077 H 104.01 0.0937929 -6.00027 0
M  V30 1078 H 105.08 -0.65921 -4.80398 0
M  V30 1079 N 106.423 1.57458 -0.0668435 0
M  V30 1080 C 107.834 1.80776 0.466558 0
M  V30 1081 C 108.185 0.980361 1.69951 0
M  V30 1082 O 107.31 0.201441 2.1546 0
M  V30 1083 C 107.905 3.27881 0.85321 0
M  V30 1084 C 106.464 3.52062 1.3315 0
M  V30 1085 C 105.611 2.75513 0.314264 0
M  V30 1086 H 108.562 1.5598 -0.292588 0
M  V30 1087 H 108.583 3.39659 1.715 0
M  V30 1088 H 108.095 3.88075 -0.0443439 0
M  V30 1089 H 106.196 2.97167 2.24772 0
M  V30 1090 H 106.309 4.60762 1.31285 0
M  V30 1091 H 104.673 2.42123 0.790492 0
M  V30 1092 H 105.456 3.38442 -0.575477 0
M  V30 1093 N 107.901 -0.206675 1.56239 0
M  V30 1094 C 109.178 -0.954051 1.70755 0
M  V30 1095 C 109.558 -2.01841 0.618353 0
M  V30 1096 O 108.906 -2.25444 -0.372434 0
M  V30 1097 C 109.116 -1.551 3.12642 0
M  V30 1098 C 110.464 -2.03757 3.72516 0
M  V30 1099 O 111.488 -1.64965 3.15698 0
M  V30 1100 O 110.347 -2.75103 4.72208 0
M  V30 1101 H 107.441 -0.446636 0.696021 0
M  V30 1102 H 109.987 -0.197283 1.68549 0
M  V30 1103 H 108.759 -0.783212 3.83382 0
M  V30 1104 H 108.382 -2.37291 3.19028 0
M  V30 1105 N 109.379 -1.50304 -0.473955 0
M  V30 1106 C 110.656 -1.51667 -1.23518 0
M  V30 1107 C 111.036 -0.259701 -2.09496 0
M  V30 1108 O 110.384 0.756986 -2.15597 0
M  V30 1109 C 110.594 -2.81082 -2.06868 0
M  V30 1110 C 111.942 -3.31631 -2.65153 0
M  V30 1111 O 112.966 -2.82384 -2.17113 0
M  V30 1112 O 111.825 -4.17471 -3.52675 0
M  V30 1113 H 108.919 -0.60822 -0.560355 0
M  V30 1114 H 111.465 -1.62592 -0.486011 0
M  V30 1115 H 110.237 -3.64041 -1.4349 0
M  V30 1116 H 109.86 -2.73146 -2.88924 0
M  V30 1117 N 110.857 0.726932 -1.39834 0
M  V30 1118 C 112.104 1.48664 -1.37496 0
M  V30 1119 C 112.432 1.94482 0.0264678 0
M  V30 1120 O 111.687 1.67692 1.00886 0
M  V30 1121 C 111.986 2.73495 -2.30077 0
M  V30 1122 C 111.652 2.46502 -3.77555 0
M  V30 1123 C 110.314 2.3885 -4.17737 0
M  V30 1124 C 112.666 2.23604 -4.70798 0
M  V30 1125 C 109.994 2.06352 -5.49214 0
M  V30 1126 C 112.346 1.92622 -6.02561 0
M  V30 1127 C 111.01 1.83444 -6.41798 0
M  V30 1128 H 110.28 0.544001 -0.503135 0
M  V30 1129 H 112.927 0.833657 -1.72402 0
M  V30 1130 H 111.232 3.43575 -1.88317 0
M  V30 1131 H 112.929 3.31549 -2.25558 0
M  V30 1132 H 109.519 2.5334 -3.45712 0
M  V30 1133 H 113.703 2.28479 -4.40581 0
M  V30 1134 H 108.959 1.97776 -5.78528 0
M  V30 1135 H 113.133 1.73914 -6.74334 0
M  V30 1136 H 110.76 1.58029 -7.43593 0
M  V30 1137 N 112.336 1.25143 0.95797 0
M  V30 1138 C 113.283 1.05235 2.05412 0
M  V30 1139 C 114.253 -0.0374561 1.66058 0
M  V30 1140 O 115.438 0.119073 1.90428 0
M  V30 1141 C 112.578 0.673589 3.38462 0
M  V30 1142 C 111.691 1.8379 3.90954 0
M  V30 1143 C 110.826 1.40381 5.12315 0
M  V30 1144 C 109.865 2.53746 5.57027 0
M  V30 1145 N 109.002 2.11136 6.69601 0
M  V30 1146 H 113.842 1.99048 2.21774 0
M  V30 1147 H 111.379 0.991277 1.08683 0
M  V30 1148 H 113.337 0.434964 4.14926 0
M  V30 1149 H 111.967 -0.227554 3.21997 0
M  V30 1150 H 111.019 2.18992 3.11041 0
M  V30 1151 H 112.331 2.68937 4.20089 0
M  V30 1152 H 111.485 1.12464 5.96185 0
M  V30 1153 H 110.224 0.523015 4.84887 0
M  V30 1154 H 109.229 2.82412 4.71724 0
M  V30 1155 H 110.454 3.42398 5.86464 0
M  V30 1156 H 108.4 1.25468 6.4389 0
M  V30 1157 H 108.317 2.89832 6.98236 0
M  V30 1158 H 109.585 1.86385 7.56889 0
M  V30 1159 N 113.814 -1.1601 1.06675 0
M  V30 1160 C 114.777 -2.18724 0.685001 0
M  V30 1161 C 115.777 -1.58496 -0.271246 0
M  V30 1162 O 116.967 -1.74119 -0.0531156 0
M  V30 1163 C 114.099 -3.40899 0.00853648 0
M  V30 1164 H 115.292 -2.54011 1.59431 0
M  V30 1165 H 112.845 -1.30352 0.862441 0
M  V30 1166 H 113.58 -3.11173 -0.913337 0
M  V30 1167 H 113.365 -3.8587 0.696204 0
M  V30 1168 H 114.855 -4.16886 -0.24414 0
M  V30 1169 N 115.292 -0.849877 -1.32721 0
M  V30 1170 C 116.517 -0.463856 -2.02146 0
M  V30 1171 C 116.942 0.930449 -1.63476 0
M  V30 1172 O 116.3 1.61033 -0.832952 0
M  V30 1173 C 116.348 -0.604955 -3.55489 0
M  V30 1174 O 115.452 0.36425 -4.10788 0
M  V30 1175 H 114.793 -0.187046 -0.637111 0
M  V30 1176 H 117.323 -1.14775 -1.69375 0
M  V30 1177 H 117.333 -0.490696 -4.05038 0
M  V30 1178 H 116.008 -1.62174 -3.82978 0
M  V30 1179 H 114.585 0.206628 -3.72327 0
M  V30 1180 N 116.77 1.45427 -0.607355 0
M  V30 1181 C 117.995 2.07124 -0.107006 0
M  V30 1182 C 118.42 1.44906 1.19933 0
M  V30 1183 O 117.778 0.541687 1.73019 0
M  V30 1184 C 117.826 3.60595 0.0194119 0
M  V30 1185 O 116.93 3.98285 1.0697 0
M  V30 1186 H 116.271 0.659868 -0.0739597 0
M  V30 1187 H 118.801 1.86683 -0.837297 0
M  V30 1188 H 118.811 4.07419 0.2177 0
M  V30 1189 H 117.486 4.05266 -0.934453 0
M  V30 1190 H 116.063 3.63133 0.847889 0
M  V30 1191 N 118.248 0.346503 1.53744 0
M  V30 1192 C 119.195 -0.508914 2.25119 0
M  V30 1193 C 120.165 -1.09315 1.25058 0
M  V30 1194 O 121.35 -1.12921 1.53797 0
M  V30 1195 C 118.49 -1.65246 3.02965 0
M  V30 1196 C 117.603 -1.09525 4.17886 0
M  V30 1197 C 116.738 -2.20634 4.83212 0
M  V30 1198 C 115.777 -1.62279 5.90196 0
M  V30 1199 N 114.914 -2.67143 6.49291 0
M  V30 1200 H 119.754 0.106283 2.9781 0
M  V30 1201 H 117.291 0.0642227 1.4696 0
M  V30 1202 H 119.249 -2.32574 3.4636 0
M  V30 1203 H 117.879 -2.2386 2.32565 0
M  V30 1204 H 116.931 -0.312818 3.79112 0
M  V30 1205 H 118.243 -0.628444 4.94825 0
M  V30 1206 H 117.397 -2.95821 5.29693 0
M  V30 1207 H 116.136 -2.70659 4.05703 0
M  V30 1208 H 115.141 -0.855989 5.43096 0
M  V30 1209 H 116.366 -1.13102 6.69615 0
M  V30 1210 H 114.312 -3.16417 5.74645 0
M  V30 1211 H 114.229 -2.25093 7.21713 0
M  V30 1212 H 115.497 -3.4209 7.00425 0
M  V30 1213 N 119.726 -1.57421 0.075193 0
M  V30 1214 C 120.975 -1.92794 -0.592731 0
M  V30 1215 C 121.288 -0.957478 -1.70563 0
M  V30 1216 O 122.494 -1.20417 -2.43335 0
M  V30 1217 C 120.95 -3.42495 -1.10569 0
M  V30 1218 C 120.558 -4.47994 -0.0236121 0
M  V30 1219 C 122.302 -3.86864 -1.74748 0
M  V30 1220 C 120.209 -5.88829 -0.550803 0
M  V30 1221 H 119.139 -0.719591 -0.225177 0
M  V30 1222 H 121.79 -1.82902 0.147978 0
M  V30 1223 H 120.172 -3.47471 -1.89947 0
M  V30 1224 H 121.346 -4.54637 0.751099 0
M  V30 1225 H 119.661 -4.13113 0.522159 0
M  V30 1226 H 122.258 -4.8947 -2.15229 0
M  V30 1227 H 122.601 -3.24417 -2.60882 0
M  V30 1228 H 123.134 -3.84504 -1.01986 0
M  V30 1229 H 119.873 -6.54929 0.273457 0
M  V30 1230 H 119.393 -5.85698 -1.29296 0
M  V30 1231 H 121.072 -6.38811 -1.02613 0
M  V30 1232 N 121.204 0.198386 -1.56346 0
M  V30 1233 C 122.151 1.24589 -1.94284 0
M  V30 1234 C 123.121 1.454 -0.802997 0
M  V30 1235 O 124.306 1.58588 -1.06087 0
M  V30 1236 C 121.446 2.58631 -2.28482 0
M  V30 1237 C 120.559 2.45426 -3.55514 0
M  V30 1238 C 119.694 3.7215 -3.79049 0
M  V30 1239 C 118.733 3.53763 -4.99518 0
M  V30 1240 N 117.87 4.72491 -5.19323 0
M  V30 1241 H 122.71 0.915356 -2.83593 0
M  V30 1242 H 120.247 0.440629 -1.40346 0
M  V30 1243 H 122.205 3.3672 -2.46324 0
M  V30 1244 H 120.835 2.89734 -1.42317 0
M  V30 1245 H 119.887 1.58652 -3.45737 0
M  V30 1246 H 121.199 2.27772 -4.43758 0
M  V30 1247 H 120.353 4.58679 -3.97113 0
M  V30 1248 H 119.092 3.92754 -2.89129 0
M  V30 1249 H 118.097 2.65619 -4.8138 0
M  V30 1250 H 119.322 3.34607 -5.90944 0
M  V30 1251 H 117.268 4.93365 -4.3235 0
M  V30 1252 H 117.185 4.5765 -6.01741 0
M  V30 1253 H 118.453 5.6038 -5.41843 0
M  V30 1254 N 122.682 1.50554 0.465978 0
M  V30 1255 C 123.928 1.62038 1.21949 0
M  V30 1256 C 124.261 0.322116 1.9151 0
M  V30 1257 O 123.536 -0.676723 1.82348 0
M  V30 1258 C 123.819 2.80421 2.25912 0
M  V30 1259 C 123.672 4.20144 1.60622 0
M  V30 1260 C 124.991 2.94354 3.27176 0
M  V30 1261 H 122.11 0.589752 0.441998 0
M  V30 1262 H 124.752 1.82956 0.51257 0
M  V30 1263 H 122.902 2.62717 2.86203 0
M  V30 1264 H 124.574 4.49449 1.03889 0
M  V30 1265 H 122.817 4.24165 0.909211 0
M  V30 1266 H 123.488 4.98914 2.36196 0
M  V30 1267 H 125.964 3.10578 2.76913 0
M  V30 1268 H 124.84 3.788 3.97242 0
M  V30 1269 H 125.101 2.05186 3.916 0
M  V30 1270 N 124.16 -0.719506 1.40217 0
M  V30 1271 C 125.108 -1.85493 1.40339 0
M  V30 1272 C 126.102 -1.66995 0.284415 0
M  V30 1273 O 127.308 -1.74148 0.455252 0
M  V30 1274 H 123.683 -0.610857 0.438586 0
M  V30 1275 H 125.654 -1.82506 2.36081 0
M  V30 1276 C 124.403 -3.23321 1.27901 0
M  V30 1277 H 123.726 -3.38159 2.1328 0
M  V30 1278 H 125.166 -4.02914 1.32045 0
M  V30 1279 C 123.625 -3.36898 -0.0111355 0
M  V30 1280 O 124.155 -3.89674 -0.975538 0
M  V30 1281 N 122.361 -2.90492 -0.0793393 0
M  V30 1282 H 121.908 -2.47731 0.706183 0
M  V30 1283 H 121.866 -2.99955 -0.942038 0
M  V30 1284 N 125.638 -1.25649 -0.95132 0
M  V30 1285 C 126.586 -1.06118 -2.06982 0
M  V30 1286 C 127.58 0.00889169 -1.69398 0
M  V30 1287 O 128.786 -0.146988 -1.79399 0
M  V30 1288 H 125.161 -0.326248 -0.677544 0
M  V30 1289 H 127.132 -2.00932 -2.2061 0
M  V30 1290 C 125.881 -0.700145 -3.40578 0
M  V30 1291 H 125.204 -1.51537 -3.69968 0
M  V30 1292 H 126.644 -0.603211 -4.19687 0
M  V30 1293 C 125.103 0.59403 -3.31622 0
M  V30 1294 O 125.633 1.63522 -3.66911 0
M  V30 1295 N 123.839 0.58089 -2.84735 0
M  V30 1296 H 123.386 -0.266783 -2.56215 0
M  V30 1297 H 123.344 1.44695 -2.79125 0
M  V30 1298 N 127.117 1.15442 -1.07289 0
M  V30 1299 C 128.067 2.18164 -0.662467 0
M  V30 1300 C 129.051 1.57845 0.312074 0
M  V30 1301 O 130.243 1.76552 0.125905 0
M  V30 1302 C 127.372 3.43246 -0.0611295 0
M  V30 1303 C 126.458 4.1062 -1.06077 0
M  V30 1304 N 126.849 4.53491 -2.24008 0
M  V30 1305 C 125.147 4.36949 -0.893964 0
M  V30 1306 C 125.848 5.05731 -2.87422 0
M  V30 1307 N 124.824 4.99236 -2.15091 0
M  V30 1308 H 128.626 2.49038 -1.56068 0
M  V30 1309 H 126.14 1.32003 -0.945988 0
M  V30 1310 H 128.137 4.16145 0.250792 0
M  V30 1311 H 126.797 3.13854 0.832207 0
M  V30 1312 H 127.808 4.46898 -2.6173 0
M  V30 1313 H 124.485 4.17466 -0.0534693 0
M  V30 1314 H 125.875 5.48865 -3.87553 0
M  V30 1315 N 128.595 0.856903 1.32268 0
M  V30 1316 C 129.525 0.31858 2.31316 0
M  V30 1317 C 130.506 -0.583487 1.59779 0
M  V30 1318 O 131.691 -0.503259 1.87566 0
M  V30 1319 C 128.821 -0.491979 3.43798 0
M  V30 1320 C 127.775 0.315849 4.26833 0
M  V30 1321 C 127.101 -0.619586 5.31098 0
M  V30 1322 C 128.401 1.54282 4.98993 0
M  V30 1323 H 130.095 1.14621 2.76591 0
M  V30 1324 H 127.641 0.552613 1.32974 0
M  V30 1325 H 129.594 -0.879012 4.1213 0
M  V30 1326 H 128.318 -1.35299 2.97257 0
M  V30 1327 H 126.977 0.684664 3.6015 0
M  V30 1328 H 126.625 -1.47751 4.8081 0
M  V30 1329 H 126.325 -0.0830621 5.87541 0
M  V30 1330 H 127.849 -1.00375 6.02293 0
M  V30 1331 H 129.263 1.22796 5.59995 0
M  V30 1332 H 127.66 2.01745 5.65172 0
M  V30 1333 H 128.73 2.30285 4.26728 0
M  V30 1334 N 130.073 -1.45103 0.615059 0
M  V30 1335 C 131.32 -2.02183 0.113179 0
M  V30 1336 C 131.648 -1.48249 -1.25906 0
M  V30 1337 O 130.903 -0.650265 -1.84581 0
M  V30 1338 C 131.202 -3.57386 0.0318797 0
M  V30 1339 C 130.868 -4.30505 1.34077 0
M  V30 1340 C 129.53 -4.50197 1.69929 0
M  V30 1341 C 131.882 -4.72238 2.20546 0
M  V30 1342 C 129.21 -5.08881 2.91988 0
M  V30 1343 C 131.562 -5.32272 3.41861 0
M  V30 1344 C 130.226 -5.50187 3.77956 0
M  V30 1345 H 129.496 -0.739842 0.0414151 0
M  V30 1346 H 132.143 -1.74073 0.798168 0
M  V30 1347 H 130.448 -3.84817 -0.736409 0
M  V30 1348 H 132.145 -3.99264 -0.372712 0
M  V30 1349 H 128.735 -4.15496 1.05173 0
M  V30 1350 H 132.919 -4.56751 1.94146 0
M  V30 1351 H 128.175 -5.20939 3.2005 0
M  V30 1352 H 132.349 -5.63563 4.09109 0
M  V30 1353 H 129.976 -5.95427 4.72622 0
M  V30 1354 N 131.551 -0.354651 -1.53558 0
M  V30 1355 C 132.501 0.513179 -2.2215 0
M  V30 1356 C 133.485 1.05734 -1.21281 0
M  V30 1357 O 134.677 0.989202 -1.46778 0
M  V30 1358 C 131.806 1.65798 -3.00609 0
M  V30 1359 C 130.892 1.12722 -4.08845 0
M  V30 1360 N 131.283 0.318563 -5.04796 0
M  V30 1361 C 129.581 1.40307 -4.23356 0
M  V30 1362 C 130.282 0.0292224 -5.81693 0
M  V30 1363 N 129.258 0.623891 -5.40008 0
M  V30 1364 H 133.06 -0.111586 -2.93688 0
M  V30 1365 H 130.574 -0.162091 -1.61589 0
M  V30 1366 H 132.571 2.29176 -3.48258 0
M  V30 1367 H 131.231 2.28591 -2.306 0
M  V30 1368 H 132.242 -0.0413091 -5.17884 0
M  V30 1369 H 128.919 2.03458 -3.6457 0
M  V30 1370 H 130.309 -0.623808 -6.68998 0
M  V30 1371 N 133.029 1.57378 -0.0835403 0
M  V30 1372 C 134.445 1.57246 0.273109 0
M  V30 1373 C 134.645 1.09385 1.69225 0
M  V30 1374 O 133.701 0.765051 2.40631 0
M  V30 1375 C 135.014 3.00614 0.0720628 0
M  V30 1376 C 136.562 3.12684 0.1407 0
M  V30 1377 C 137.037 4.57989 -0.0322094 0
M  V30 1378 N 138.528 4.63194 0.0230085 0
M  V30 1379 C 139.263 5.73335 -0.0861941 0
M  V30 1380 N 138.759 6.9235 -0.24958 0
M  V30 1381 N 140.552 5.62093 -0.0282886 0
M  V30 1382 H 132.703 1.86801 -1.0109 0
M  V30 1383 H 134.966 0.861687 -0.395222 0
M  V30 1384 H 134.672 3.39786 -0.907662 0
M  V30 1385 H 134.546 3.68193 0.81936 0
M  V30 1386 H 136.933 2.73391 1.11092 0
M  V30 1387 H 137.014 2.47719 -0.637896 0
M  V30 1388 H 136.658 4.97973 -0.999247 0
M  V30 1389 H 136.588 5.21 0.765937 0
M  V30 1390 H 139.079 3.77613 0.14722 0
M  V30 1391 H 139.392 7.72117 -0.324733 0
M  V30 1392 H 137.737 6.94415 -0.285097 0
M  V30 1393 H 140.928 4.67997 0.0981408 0
M  V30 1394 H 141.101 6.47895 -0.116845 0
M  V30 1395 N 134.507 -0.190092 1.56449 0
M  V30 1396 C 135.417 -1.25591 1.98152 0
M  V30 1397 C 136.433 -1.49519 0.889944 0
M  V30 1398 O 137.609 -1.62036 1.19609 0
M  V30 1399 C 134.674 -2.57916 2.3169 0
M  V30 1400 C 133.735 -2.42015 3.5458 0
M  V30 1401 C 132.968 -3.6803 3.8651 0
M  V30 1402 O 133.191 -4.72413 3.1966 0
M  V30 1403 O 132.125 -3.6326 4.79923 0
M  V30 1404 H 135.951 -0.931988 2.89046 0
M  V30 1405 H 133.536 -0.395488 1.4407 0
M  V30 1406 H 135.418 -3.36008 2.54316 0
M  V30 1407 H 134.093 -2.89925 1.43963 0
M  V30 1408 H 133 -1.62017 3.37196 0
M  V30 1409 H 134.333 -2.14937 4.4279 0
M  V30 1410 N 135.985 -1.50799 -0.457987 0
M  V30 1411 C 136.933 -1.71162 -1.575 0
M  V30 1412 C 137.927 -0.577592 -1.59249 0
M  V30 1413 O 139.133 -0.758443 -1.63241 0
M  V30 1414 H 135.508 -0.540468 -0.522875 0
M  V30 1415 H 137.479 -2.64837 -1.37492 0
M  V30 1416 C 136.228 -1.83496 -2.95338 0
M  V30 1417 H 135.551 -2.70153 -2.94716 0
M  V30 1418 H 136.991 -2.01765 -3.72917 0
M  V30 1419 C 135.45 -0.589694 -3.31699 0
M  V30 1420 O 135.98 0.265163 -4.00824 0
M  V30 1421 N 134.186 -0.439845 -2.87252 0
M  V30 1422 H 133.733 -1.13655 -2.31172 0
M  V30 1423 H 133.691 0.392159 -3.11945 0
M  V30 1424 N 137.463 0.71206 -1.40597 0
M  V30 1425 C 138.393 1.83889 -1.43899 0
M  V30 1426 C 139.374 1.67442 -0.299504 0
M  V30 1427 O 140.559 1.87421 -0.508624 0
M  V30 1428 C 137.689 3.21877 -1.30431 0
M  V30 1429 C 136.643 3.53002 -2.42019 0
M  V30 1430 C 135.969 4.90172 -2.13626 0
M  V30 1431 C 137.269 3.53643 -3.84362 0
M  V30 1432 H 138.963 1.81383 -2.38203 0
M  V30 1433 H 136.509 0.871237 -1.14654 0
M  V30 1434 H 138.462 4.00404 -1.31357 0
M  V30 1435 H 137.186 3.24968 -0.326049 0
M  V30 1436 H 135.845 2.76818 -2.40349 0
M  V30 1437 H 135.493 4.89869 -1.14182 0
M  V30 1438 H 135.193 5.11962 -2.88389 0
M  V30 1439 H 136.717 5.71028 -2.1624 0
M  V30 1440 H 138.131 4.22203 -3.87837 0
M  V30 1441 H 136.528 3.86961 -4.58673 0
M  V30 1442 H 137.598 2.52954 -4.13693 0
M  V30 1443 N 138.941 1.26152 0.944643 0
M  V30 1444 C 140.352 1.10454 1.50522 0
M  V30 1445 C 140.703 -0.31635 1.93633 0
M  V30 1446 O 139.828 -1.20746 1.79581 0
M  V30 1447 C 140.423 1.99891 2.73549 0
M  V30 1448 C 138.982 1.88348 3.25886 0
M  V30 1449 C 138.129 1.93447 1.9868 0
M  V30 1450 H 141.08 1.39292 0.760489 0
M  V30 1451 H 141.101 1.54477 3.47732 0
M  V30 1452 H 140.613 3.03297 2.42141 0
M  V30 1453 H 138.714 0.878636 3.62092 0
M  V30 1454 H 138.827 2.73696 3.93227 0
M  V30 1455 H 137.191 1.37456 2.14425 0
M  V30 1456 H 137.974 2.98476 1.69607 0
M  V30 1457 N 140.419 -1.14872 1.07899 0
M  V30 1458 C 141.644 -1.90202 0.826926 0
M  V30 1459 C 142.069 -1.77774 -0.614664 0
M  V30 1460 O 141.427 -1.11431 -1.43013 0
M  V30 1461 C 141.475 -3.38352 1.24702 0
M  V30 1462 O 140.579 -4.10497 0.39575 0
M  V30 1463 H 139.92 -0.591968 0.300782 0
M  V30 1464 H 142.45 -1.45437 1.43907 0
M  V30 1465 H 142.46 -3.89156 1.22563 0
M  V30 1466 H 141.135 -3.46715 2.29698 0
M  V30 1467 H 139.712 -3.69796 0.480117 0
M  V30 1468 N 141.898 -0.863906 -1.31812 0
M  V30 1469 C 142.848 -0.286898 -2.26188 0
M  V30 1470 C 143.832 0.572577 -1.50367 0
M  V30 1471 O 145.024 0.420447 -1.71934 0
M  V30 1472 C 142.153 0.515849 -3.39402 0
M  V30 1473 C 141.239 -0.356531 -4.22599 0
M  V30 1474 N 141.63 -1.44716 -4.84656 0
M  V30 1475 C 139.928 -0.147898 -4.45755 0
M  V30 1476 C 140.629 -1.98462 -5.46798 0
M  V30 1477 N 139.605 -1.28247 -5.28255 0
M  V30 1478 H 143.407 -1.12055 -2.717 0
M  V30 1479 H 140.921 -0.711012 -1.46008 0
M  V30 1480 H 142.918 0.945701 -4.06032 0
M  V30 1481 H 141.578 1.34718 -2.95434 0
M  V30 1482 H 142.589 -1.83008 -4.84488 0
M  V30 1483 H 139.266 0.647973 -4.12441 0
M  V30 1484 H 140.656 -2.89932 -6.06126 0
M  V30 1485 N 143.376 1.44774 -0.622745 0
M  V30 1486 C 144.623 2.02121 -0.1239 0
M  V30 1487 C 144.951 1.48915 1.25118 0
M  V30 1488 O 144.206 0.660045 1.84233 0
M  V30 1489 C 144.505 3.57364 -0.0508323 0
M  V30 1490 C 144.171 4.29787 -1.36358 0
M  V30 1491 C 142.833 4.4929 -1.72314 0
M  V30 1492 C 145.185 4.71062 -2.23048 0
M  V30 1493 C 142.513 5.07325 -2.94682 0
M  V30 1494 C 144.865 5.30452 -3.44679 0
M  V30 1495 C 143.529 5.48175 -3.80868 0
M  V30 1496 H 142.799 0.739612 -0.0453381 0
M  V30 1497 H 145.446 1.73648 -0.807389 0
M  V30 1498 H 143.751 3.85202 0.715991 0
M  V30 1499 H 145.448 3.99456 0.351533 0
M  V30 1500 H 142.038 4.14932 -1.07375 0
M  V30 1501 H 146.222 4.55715 -1.96565 0
M  V30 1502 H 141.478 5.19235 -3.22809 0
M  V30 1503 H 145.652 5.61385 -4.12092 0
M  V30 1504 H 143.279 5.92912 -4.75773 0
M  V30 1505 N 144.854 0.36279 1.53368 0
M  V30 1506 C 145.801 -0.485008 2.25646 0
M  V30 1507 C 146.771 -1.07982 1.2621 0
M  V30 1508 O 147.956 -1.11284 1.54986 0
M  V30 1509 C 145.096 -1.62023 3.04701 0
M  V30 1510 C 144.209 -1.05086 4.19024 0
M  V30 1511 C 143.344 -2.15496 4.85525 0
M  V30 1512 C 142.383 -1.5601 5.91884 0
M  V30 1513 N 141.52 -2.60241 6.52088 0
M  V30 1514 H 146.36 0.137864 2.97681 0
M  V30 1515 H 143.897 0.0798061 1.46883 0
M  V30 1516 H 145.855 -2.28887 3.48807 0
M  V30 1517 H 144.485 -2.2138 2.34927 0
M  V30 1518 H 143.537 -0.27259 3.79422 0
M  V30 1519 H 144.849 -0.575926 4.95464 0
M  V30 1520 H 144.003 -2.90186 5.32801 0
M  V30 1521 H 142.742 -2.66341 4.08551 0
M  V30 1522 H 141.747 -0.798338 5.43973 0
M  V30 1523 H 142.972 -1.05994 6.70777 0
M  V30 1524 H 140.918 -3.10304 5.77968 0
M  V30 1525 H 140.835 -2.17426 7.24059 0
M  V30 1526 H 142.103 -3.34641 7.04014 0
M  V30 1527 N 146.332 -1.57332 0.0918853 0
M  V30 1528 C 147.579 -1.94236 -0.572577 0
M  V30 1529 C 147.907 -0.973398 -1.6839 0
M  V30 1530 O 147.162 0.00756912 -1.95699 0
M  V30 1531 C 147.461 -3.37689 -1.17051 0
M  V30 1532 C 147.127 -4.50527 -0.183304 0
M  V30 1533 C 145.789 -4.81119 0.0882276 0
M  V30 1534 C 148.141 -5.18883 0.49095 0
M  V30 1535 C 145.469 -5.77395 1.04076 0
M  V30 1536 C 147.821 -6.1618 1.43193 0
M  V30 1537 C 146.485 -6.45179 1.71173 0
M  V30 1538 H 145.755 -0.710762 -0.209521 0
M  V30 1539 H 148.402 -1.9077 0.167036 0
M  V30 1540 H 146.707 -3.37718 -1.9863 0
M  V30 1541 H 148.404 -3.63543 -1.69227 0
M  V30 1542 H 144.994 -4.26681 -0.405124 0
M  V30 1543 H 149.178 -4.95427 0.294312 0
M  V30 1544 H 144.434 -5.98179 1.26457 0
M  V30 1545 H 148.608 -6.68243 1.96023 0
M  V30 1546 H 146.235 -7.1959 2.4514 0
M  V30 1547 N 147.81 0.181792 -1.56548 0
M  V30 1548 C 148.757 1.22521 -1.95595 0
M  V30 1549 C 149.727 1.4454 -0.818373 0
M  V30 1550 O 150.912 1.57454 -1.07763 0
M  V30 1551 C 148.052 2.56193 -2.31212 0
M  V30 1552 C 147.165 2.41641 -3.58097 0
M  V30 1553 C 146.3 3.68108 -3.82975 0
M  V30 1554 C 145.339 3.48445 -5.03242 0
M  V30 1555 N 144.476 4.66956 -5.24306 0
M  V30 1556 H 149.316 0.885226 -2.84548 0
M  V30 1557 H 146.853 0.425718 -1.40805 0
M  V30 1558 H 148.811 3.34088 -2.49882 0
M  V30 1559 H 147.441 2.88208 -1.45382 0
M  V30 1560 H 146.493 1.54976 -3.474 0
M  V30 1561 H 147.805 2.23052 -4.46149 0
M  V30 1562 H 146.959 4.54441 -4.01956 0
M  V30 1563 H 145.698 3.89666 -2.93278 0
M  V30 1564 H 144.703 2.60499 -4.8417 0
M  V30 1565 H 145.928 3.2832 -5.9446 0
M  V30 1566 H 143.874 4.88752 -4.37559 0
M  V30 1567 H 143.791 4.51242 -6.06561 0
M  V30 1568 H 145.059 5.54602 -5.47756 0
M  V30 1569 N 149.288 1.51039 0.449983 0
M  V30 1570 C 150.198 1.74261 1.57067 0
M  V30 1571 C 151.214 0.626363 1.62335 0
M  V30 1572 O 152.39 0.907162 1.79812 0
M  V30 1573 C 149.455 1.85114 2.93144 0
M  V30 1574 C 148.516 3.0893 2.98095 0
M  V30 1575 C 147.749 3.19256 4.27681 0
M  V30 1576 O 147.972 2.35835 5.19363 0
M  V30 1577 O 146.906 4.12144 4.38658 0
M  V30 1578 H 150.732 2.69303 1.40391 0
M  V30 1579 H 148.317 1.35389 0.631688 0
M  V30 1580 H 150.199 1.94311 3.73926 0
M  V30 1581 H 148.874 0.932588 3.09975 0
M  V30 1582 H 147.781 3.0522 2.16314 0
M  V30 1583 H 149.114 4.00433 2.86206 0
M  V30 1584 N 150.766 -0.704594 1.40972 0
M  V30 1585 C 151.996 -1.49138 1.42974 0
M  V30 1586 C 152.404 -1.89175 0.0308406 0
M  V30 1587 O 151.747 -1.56734 -0.958138 0
M  V30 1588 C 151.809 -2.79016 2.26694 0
M  V30 1589 C 151.473 -2.61236 3.74973 0
M  V30 1590 C 152.47 -2.27773 4.67349 0
M  V30 1591 C 150.155 -2.77158 4.18914 0
M  V30 1592 C 152.149 -2.10457 6.01653 0
M  V30 1593 C 149.836 -2.59459 5.53285 0
M  V30 1594 C 150.834 -2.26158 6.4447 0
M  V30 1595 O 150.522 -2.08605 7.76363 0
M  V30 1596 H 150.254 -0.466443 0.489292 0
M  V30 1597 H 152.808 -0.8758 1.85793 0
M  V30 1598 H 151.038 -3.42947 1.78673 0
M  V30 1599 H 152.727 -3.40782 2.20504 0
M  V30 1600 H 153.493 -2.15095 4.34694 0
M  V30 1601 H 149.372 -3.02064 3.48251 0
M  V30 1602 H 152.916 -1.84387 6.72791 0
M  V30 1603 H 148.813 -2.71725 5.85522 0
M  V30 1604 H 149.581 -2.23439 7.87412 0
M  V30 1605 N 152.244 -1.26651 -0.937939 0
M  V30 1606 C 153.484 -1.13611 -1.69917 0
M  V30 1607 C 153.848 0.314687 -1.89404 0
M  V30 1608 O 155.049 0.567285 -2.62746 0
M  V30 1609 C 153.32 -1.88742 -3.03498 0
M  V30 1610 S 154.879 -1.91794 -3.94665 0
M  V30 1611 H 151.697 -0.405767 -0.583844 0
M  V30 1612 H 154.299 -1.60416 -1.11745 0
M  V30 1613 H 153.003 -2.9336 -2.86999 0
M  V30 1614 H 152.534 -1.42391 -3.66727 0
M  V30 1615 H 154.549 -1.00698 -4.85875 0
M  V30 1616 N 153.722 1.14298 -1.08507 0
M  V30 1617 C 155.133 1.66926 -0.836227 0
M  V30 1618 C 155.484 1.85576 0.63686 0
M  V30 1619 O 154.609 1.56767 1.49175 0
M  V30 1620 C 155.204 3.03219 -1.51142 0
M  V30 1621 C 153.763 3.52876 -1.30979 0
M  V30 1622 C 152.91 2.2833 -1.57356 0
M  V30 1623 H 155.861 0.983491 -1.24552 0
M  V30 1624 H 155.882 3.68726 -0.939211 0
M  V30 1625 H 155.394 2.89612 -2.58353 0
M  V30 1626 H 153.495 3.71703 -0.258429 0
M  V30 1627 H 153.608 4.33586 -2.03814 0
M  V30 1628 H 151.972 2.34454 -0.995164 0
M  V30 1629 H 152.755 2.17298 -2.65775 0
M  V30 1630 N 155.201 0.870884 1.31352 0
M  V30 1631 C 156.133 0.28455 2.27427 0
M  V30 1632 C 157.146 -0.552927 1.53123 0
M  V30 1633 O 158.335 -0.374771 1.74521 0
M  V30 1634 C 155.435 -0.615164 3.3327 0
M  V30 1635 C 154.608 0.190079 4.36987 0
M  V30 1636 C 153.667 -0.637917 5.22319 0
M  V30 1637 O 152.693 -0.065626 5.69162 0
M  V30 1638 N 153.895 -1.94973 5.46778 0
M  V30 1639 H 156.66 1.11017 2.7838 0
M  V30 1640 H 154.221 0.732458 1.44384 0
M  V30 1641 H 156.213 -1.1748 3.87273 0
M  V30 1642 H 154.783 -1.34146 2.82354 0
M  V30 1643 H 154.003 0.931165 3.83044 0
M  V30 1644 H 155.291 0.742579 5.03352 0
M  V30 1645 H 154.689 -2.4378 5.10478 0
M  V30 1646 H 153.246 -2.45713 6.03712 0
M  V30 1647 N 156.679 -1.44442 0.630414 0
M  V30 1648 C 157.925 -2.02351 0.134816 0
M  V30 1649 C 158.258 -1.4947 -1.23986 0
M  V30 1650 O 157.533 -0.678475 -1.82283 0
M  V30 1651 C 157.816 -3.59898 0.120707 0
M  V30 1652 C 157.669 -4.23063 1.52767 0
M  V30 1653 C 158.988 -4.36585 -0.555127 0
M  V30 1654 H 156.107 -0.73527 0.0504646 0
M  V30 1655 H 158.749 -1.72022 0.806751 0
M  V30 1656 H 156.899 -3.85868 -0.451477 0
M  V30 1657 H 158.571 -4.08202 2.14869 0
M  V30 1658 H 156.814 -3.80586 2.08175 0
M  V30 1659 H 157.485 -5.32071 1.46984 0
M  V30 1660 H 159.961 -4.16044 -0.0685429 0
M  V30 1661 H 158.837 -5.46294 -0.534185 0
M  V30 1662 H 159.098 -4.11138 -1.62535 0
M  V30 1663 N 158.157 -0.370918 -1.53173 0
M  V30 1664 C 159.404 0.217102 -2.01333 0
M  V30 1665 C 159.732 1.48338 -1.25802 0
M  V30 1666 O 158.987 1.92698 -0.34146 0
M  V30 1667 C 159.286 0.549696 -3.53147 0
M  V30 1668 C 158.952 -0.622872 -4.46577 0
M  V30 1669 C 157.614 -0.944595 -4.71838 0
M  V30 1670 C 159.966 -1.40819 -5.01816 0
M  V30 1671 C 157.294 -2.05351 -5.49589 0
M  V30 1672 C 159.646 -2.50757 -5.80778 0
M  V30 1673 C 158.31 -2.83458 -6.04324 0
M  V30 1674 H 157.58 0.0794431 -0.736729 0
M  V30 1675 H 160.227 -0.504481 -1.84736 0
M  V30 1676 H 158.532 1.35237 -3.6772 0
M  V30 1677 H 160.229 1.017 -3.87889 0
M  V30 1678 H 156.819 -0.36209 -4.27068 0
M  V30 1679 H 161.003 -1.17289 -4.82242 0
M  V30 1680 H 156.259 -2.3108 -5.6605 0
M  V30 1681 H 160.433 -3.12022 -6.22588 0
M  V30 1682 H 158.06 -3.69508 -6.64355 0
M  V30 1683 N 159.635 1.57281 -0.100228 0
M  V30 1684 C 161.051 1.57527 0.256416 0
M  V30 1685 C 161.251 1.11173 1.68056 0
M  V30 1686 O 160.307 0.79053 2.39806 0
M  V30 1687 C 161.62 3.00673 0.0401747 0
M  V30 1688 C 163.168 3.12815 0.107528 0
M  V30 1689 C 163.643 4.57929 -0.0807834 0
M  V30 1690 N 165.134 4.63193 -0.0261207 0
M  V30 1691 C 165.869 5.73212 -0.146999 0
M  V30 1692 N 165.365 6.92047 -0.322999 0
M  V30 1693 N 167.158 5.62031 -0.0879044 0
M  V30 1694 H 159.309 1.85718 -1.03065 0
M  V30 1695 H 161.572 0.857446 -0.404339 0
M  V30 1696 H 161.278 3.38804 -0.943649 0
M  V30 1697 H 161.152 3.69042 0.780262 0
M  V30 1698 H 163.539 2.74554 1.08186 0
M  V30 1699 H 163.62 2.47028 -0.664134 0
M  V30 1700 H 163.264 4.96886 -1.05201 0
M  V30 1701 H 163.194 5.21783 0.710635 0
M  V30 1702 H 165.685 3.77748 0.107161 0
M  V30 1703 H 165.998 7.7173 -0.406608 0
M  V30 1704 H 164.343 6.94074 -0.358733 0
M  V30 1705 H 167.534 4.68075 0.048498 0
M  V30 1706 H 167.707 6.47734 -0.185557 0
M  V30 1707 N 161.113 -0.173488 1.56642 0
M  V30 1708 C 162.061 -1.23417 1.97157 0
M  V30 1709 C 163.055 -1.45946 0.860013 0
M  V30 1710 O 164.261 -1.46551 1.04512 0
M  V30 1711 H 160.636 -0.414818 0.62724 0
M  V30 1712 H 162.607 -0.865582 2.8557 0
M  V30 1713 C 161.356 -2.5665 2.34576 0
M  V30 1714 H 160.679 -2.40137 3.19647 0
M  V30 1715 H 162.119 -3.2956 2.6677 0
M  V30 1716 C 160.578 -3.15245 1.18836 0
M  V30 1717 O 161.108 -3.98883 0.474869 0
M  V30 1718 N 159.314 -2.74303 0.959497 0
M  V30 1719 H 158.861 -2.0639 1.54146 0
M  V30 1720 H 158.819 -3.13844 0.186932 0
M  V30 1721 N 162.591 -1.51276 -0.441967 0
M  V30 1722 C 163.521 -1.752 -1.54361 0
M  V30 1723 C 164.502 -0.601682 -1.59103 0
M  V30 1724 O 165.687 -0.843913 -1.74905 0
M  V30 1725 C 162.817 -1.87282 -2.92477 0
M  V30 1726 C 161.771 -3.02687 -3.02596 0
M  V30 1727 C 161.097 -2.99947 -4.42647 0
M  V30 1728 C 162.397 -4.4273 -2.77106 0
M  V30 1729 H 164.091 -2.67442 -1.34592 0
M  V30 1730 H 161.637 -1.28694 -0.646048 0
M  V30 1731 H 163.59 -2.02602 -3.695 0
M  V30 1732 H 162.314 -0.916844 -3.13467 0
M  V30 1733 H 160.973 -2.87065 -2.28012 0
M  V30 1734 H 160.621 -2.02136 -4.60597 0
M  V30 1735 H 160.321 -3.77439 -4.50348 0
M  V30 1736 H 161.845 -3.17354 -5.2165 0
M  V30 1737 H 163.259 -4.58727 -3.43864 0
M  V30 1738 H 161.656 -5.21893 -2.96222 0
M  V30 1739 H 162.726 -4.53087 -1.72744 0
M  V30 1740 N 164.069 0.697108 -1.41344 0
M  V30 1741 C 165.485 1.00751 -1.2378 0
M  V30 1742 C 165.685 2.01105 -0.126066 0
M  V30 1743 O 164.741 2.47295 0.51004 0
M  V30 1744 C 166.054 1.53359 -2.58653 0
M  V30 1745 C 167.602 1.6525 -2.65822 0
M  V30 1746 C 168.077 2.2126 -4.01009 0
M  V30 1747 N 169.568 2.28622 -4.02847 0
M  V30 1748 C 170.303 2.72984 -5.04249 0
M  V30 1749 N 169.799 3.16962 -6.16041 0
M  V30 1750 N 171.592 2.72534 -4.91611 0
M  V30 1751 H 163.743 0.0322662 -2.12375 0
M  V30 1752 H 166.006 0.0768853 -0.944877 0
M  V30 1753 H 165.712 0.870773 -3.4075 0
M  V30 1754 H 165.586 2.51597 -2.81032 0
M  V30 1755 H 167.973 2.30644 -1.84086 0
M  V30 1756 H 168.054 0.655614 -2.47256 0
M  V30 1757 H 167.698 1.56482 -4.83193 0
M  V30 1758 H 167.628 3.21698 -4.16915 0
M  V30 1759 H 170.119 1.97585 -3.22131 0
M  V30 1760 H 170.432 3.49434 -6.89287 0
M  V30 1761 H 168.777 3.14875 -6.1958 0
M  V30 1762 H 171.968 2.37525 -4.0336 0
M  V30 1763 H 172.141 3.06789 -5.70775 0
M  V30 1764 N 165.547 1.27147 0.931209 0
M  V30 1765 C 166.824 1.0401 1.65654 0
M  V30 1766 C 167.204 -0.426297 2.06751 0
M  V30 1767 O 166.552 -1.40879 1.79904 0
M  V30 1768 C 166.762 1.99834 2.86125 0
M  V30 1769 C 168.11 2.29007 3.57549 0
M  V30 1770 O 169.134 1.97779 2.96246 0
M  V30 1771 O 167.993 2.82222 4.67989 0
M  V30 1772 H 165.087 0.396239 0.725895 0
M  V30 1773 H 167.633 1.38397 0.982056 0
M  V30 1774 H 166.405 2.98744 2.52721 0
M  V30 1775 H 166.028 1.65987 3.61295 0
M  V30 1776 N 167.025 -1.13721 1.09112 0
M  V30 1777 C 168.441 -1.36914 0.820174 0
M  V30 1778 C 168.641 -1.93356 -0.567079 0
M  V30 1779 O 167.697 -2.15093 -1.32255 0
M  V30 1780 C 169.01 -2.3235 1.90877 0
M  V30 1781 C 170.558 -2.45973 1.93562 0
M  V30 1782 C 171.033 -3.44714 3.01556 0
M  V30 1783 N 172.524 -3.52263 3.00775 0
M  V30 1784 C 173.259 -4.28536 3.80978 0
M  V30 1785 N 172.755 -5.07991 4.71081 0
M  V30 1786 N 174.548 -4.23804 3.69251 0
M  V30 1787 H 166.699 -0.754348 1.98553 0
M  V30 1788 H 168.962 -0.3944 0.862063 0
M  V30 1789 H 168.668 -1.98027 2.90651 0
M  V30 1790 H 168.542 -3.32332 1.78424 0
M  V30 1791 H 170.929 -2.79584 0.944286 0
M  V30 1792 H 171.01 -1.45926 2.10093 0
M  V30 1793 H 170.654 -3.11835 4.00901 0
M  V30 1794 H 170.584 -4.44558 2.82269 0
M  V30 1795 H 173.075 -2.95567 2.35475 0
M  V30 1796 H 173.388 -5.63487 5.28869 0
M  V30 1797 H 171.733 -5.07235 4.75119 0
M  V30 1798 H 174.924 -3.60806 2.98222 0
M  V30 1799 H 175.097 -4.82995 4.31995 0
M  V30 1800 N 168.503 -0.877838 -1.30888 0
M  V30 1801 C 169.75 -0.492696 -1.96415 0
M  V30 1802 C 170.078 0.956671 -1.69346 0
M  V30 1803 O 169.333 1.68993 -0.986913 0
M  V30 1804 C 169.632 -0.705748 -3.50363 0
M  V30 1805 C 169.298 -2.1291 -3.97467 0
M  V30 1806 C 167.96 -2.51834 -4.1004 0
M  V30 1807 C 170.312 -3.05702 -4.22132 0
M  V30 1808 C 167.64 -3.82775 -4.44635 0
M  V30 1809 C 169.992 -4.36166 -4.58194 0
M  V30 1810 C 168.656 -4.74993 -4.68975 0
M  V30 1811 H 167.926 -0.18029 -0.718733 0
M  V30 1812 H 170.573 -1.11233 -1.55883 0
M  V30 1813 H 168.878 -0.00303058 -3.918 0
M  V30 1814 H 170.575 -0.387456 -3.99124 0
M  V30 1815 H 167.165 -1.81694 -3.88182 0
M  V30 1816 H 171.349 -2.76853 -4.11906 0
M  V30 1817 H 166.605 -4.12609 -4.51181 0
M  V30 1818 H 170.779 -5.08111 -4.76231 0
M  V30 1819 H 168.406 -5.76495 -4.95537 0
M  V30 1820 N 169.982 1.44106 -0.638065 0
M  V30 1821 C 171.23 2.01579 -0.145043 0
M  V30 1822 C 171.551 1.50496 1.24 0
M  V30 1823 O 170.821 0.711374 1.82527 0
M  V30 1824 H 169.401 0.745282 -0.05063 0
M  V30 1825 H 172.063 1.76516 -0.826327 0
M  V30 1826 H 171.159 3.11877 -0.118039 0
M  V30 1827 N 171.46 0.379036 1.52974 0
M  V30 1828 C 172.709 -0.207612 2.00629 0
M  V30 1829 C 173.022 -1.48758 1.27006 0
M  V30 1830 O 174.228 -2.15365 1.65318 0
M  V30 1831 C 172.684 -0.42053 3.57435 0
M  V30 1832 C 172.292 0.845587 4.39948 0
M  V30 1833 C 174.036 -0.964102 4.13407 0
M  V30 1834 C 171.943 0.601513 5.88333 0
M  V30 1835 H 170.873 -0.0813591 0.749598 0
M  V30 1836 H 173.524 0.499853 1.76561 0
M  V30 1837 H 171.906 -1.18959 3.7771 0
M  V30 1838 H 173.08 1.61848 4.31442 0
M  V30 1839 H 171.395 1.31336 3.95145 0
M  V30 1840 H 173.992 -1.16225 5.21916 0
M  V30 1841 H 174.335 -1.93019 3.68849 0
M  V30 1842 H 174.868 -0.25487 3.96983 0
M  V30 1843 H 171.607 1.53831 6.37194 0
M  V30 1844 H 171.127 -0.132628 5.99653 0
M  V30 1845 H 172.806 0.232134 6.46583 0
M  V30 1846 N 172.938 -1.57226 0.108567 0
M  V30 1847 C 174.215 -1.86333 -0.594939 0
M  V30 1848 C 174.595 -1.00788 -1.85486 0
M  V30 1849 O 173.943 -0.0839293 -2.28346 0
M  V30 1850 C 174.153 -3.37265 -0.897405 0
M  V30 1851 C 175.501 -4.05629 -1.25501 0
M  V30 1852 O 176.525 -3.42224 -0.987998 0
M  V30 1853 O 175.384 -5.17531 -1.75567 0
M  V30 1854 H 172.478 -0.771018 -0.2991 0
M  V30 1855 H 175.024 -1.69102 0.142283 0
M  V30 1856 H 173.796 -3.913 -0.00413806 0
M  V30 1857 H 173.419 -3.59889 -1.69014 0
M  V30 1858 N 174.416 0.165178 -1.56732 0
M  V30 1859 C 175.693 0.908443 -1.73224 0
M  V30 1860 C 176.073 2.0013 -0.67165 0
M  V30 1861 O 175.421 2.26353 0.31253 0
M  V30 1862 C 175.631 1.46756 -3.16644 0
M  V30 1863 C 176.979 1.93809 -3.77787 0
M  V30 1864 O 178.003 1.56537 -3.1996 0
M  V30 1865 O 176.862 2.62486 -4.79336 0
M  V30 1866 H 173.956 0.428025 -0.707618 0
M  V30 1867 H 176.502 0.152526 -1.69013 0
M  V30 1868 H 175.274 0.68129 -3.85323 0
M  V30 1869 H 174.897 2.28749 -3.25207 0
M  V30 1870 N 175.894 1.51508 0.433938 0
M  V30 1871 C 176.826 1.69266 1.54537 0
M  V30 1872 C 177.839 0.573276 1.52373 0
M  V30 1873 O 179.028 0.847698 1.57087 0
M  V30 1874 C 176.128 1.69524 2.93453 0
M  V30 1875 C 175.301 2.98101 3.20085 0
M  V30 1876 C 174.36 2.90502 4.38742 0
M  V30 1877 O 173.386 3.64442 4.3723 0
M  V30 1878 N 174.588 2.06586 5.42496 0
M  V30 1879 H 177.353 2.65145 1.39708 0
M  V30 1880 H 174.914 1.49437 0.622922 0
M  V30 1881 H 176.906 1.62004 3.70859 0
M  V30 1882 H 175.476 0.812245 3.01863 0
M  V30 1883 H 174.696 3.19464 2.30947 0
M  V30 1884 H 175.984 3.83207 3.34708 0
M  V30 1885 H 175.382 1.45896 5.46563 0
M  V30 1886 H 173.939 2.04943 6.18742 0
M  V30 1887 N 177.372 -0.689602 1.41712 0
M  V30 1888 C 178.649 -1.44457 1.31877 0
M  V30 1889 C 179.029 -2.11039 -0.0508537 0
M  V30 1890 O 178.377 -2.02138 -1.06547 0
M  V30 1891 C 178.587 -2.45913 2.47645 0
M  V30 1892 C 179.935 -3.10991 2.89084 0
M  V30 1893 O 180.959 -2.56238 2.47428 0
M  V30 1894 O 179.818 -4.10174 3.61137 0
M  V30 1895 H 176.912 -0.64362 0.519309 0
M  V30 1896 H 179.458 -0.719576 1.53689 0
M  V30 1897 H 178.23 -1.95409 3.39015 0
M  V30 1898 H 177.853 -3.25913 2.27742 0
M  V30 1899 N 178.85 -1.27639 -0.924453 0
M  V30 1900 C 180.08 -1.16819 -1.70402 0
M  V30 1901 C 180.488 0.277191 -1.87158 0
M  V30 1902 O 179.831 1.20025 -1.39067 0
M  V30 1903 C 179.893 -1.78305 -3.12166 0
M  V30 1904 C 179.557 -3.27502 -3.18734 0
M  V30 1905 C 180.554 -4.2409 -3.00738 0
M  V30 1906 C 178.239 -3.68269 -3.4159 0
M  V30 1907 C 180.233 -5.59422 -3.05492 0
M  V30 1908 C 177.92 -5.0373 -3.45977 0
M  V30 1909 C 178.918 -5.99116 -3.27946 0
M  V30 1910 O 178.606 -7.32108 -3.32074 0
M  V30 1911 H 178.338 -0.406931 -0.539799 0
M  V30 1912 H 180.892 -1.69078 -1.16626 0
M  V30 1913 H 179.122 -1.20528 -3.67437 0
M  V30 1914 H 180.811 -1.62154 -3.72103 0
M  V30 1915 H 181.577 -3.93931 -2.82919 0
M  V30 1916 H 177.456 -2.94496 -3.54673 0
M  V30 1917 H 181 -6.33852 -2.91337 0
M  V30 1918 H 176.897 -5.33543 -3.63321 0
M  V30 1919 H 177.665 -7.40598 -3.48507 0
M  V30 1920 N 180.328 1.1314 -1.09713 0
M  V30 1921 C 181.258 2.20748 -0.761102 0
M  V30 1922 C 182.239 1.68061 0.262566 0
M  V30 1923 O 183.424 1.93765 0.129977 0
M  V30 1924 C 180.554 3.46812 -0.184054 0
M  V30 1925 C 179.508 4.12606 -1.13757 0
M  V30 1926 C 178.834 5.33031 -0.422083 0
M  V30 1927 C 180.134 4.59603 -2.48118 0
M  V30 1928 H 181.828 2.49113 -1.66082 0
M  V30 1929 H 179.374 1.19734 -0.799987 0
M  V30 1930 H 181.327 4.21353 0.0631215 0
M  V30 1931 H 180.051 3.17851 0.750868 0
M  V30 1932 H 178.71 3.40036 -1.37007 0
M  V30 1933 H 178.358 5.00335 0.517072 0
M  V30 1934 H 178.058 5.77999 -1.05788 0
M  V30 1935 H 179.582 6.10325 -0.183277 0
M  V30 1936 H 180.996 5.25552 -2.29059 0
M  V30 1937 H 179.393 5.15321 -3.07514 0
M  V30 1938 H 180.463 3.73971 -3.08665 0
M  V30 1939 N 181.806 0.884767 1.30421 0
M  V30 1940 C 183.052 0.503851 1.96441 0
M  V30 1941 C 183.385 -0.944518 1.69684 0
M  V30 1942 O 182.66 -1.66737 1.00145 0
M  V30 1943 C 182.943 0.779085 3.51571 0
M  V30 1944 C 182.796 2.27807 3.87846 0
M  V30 1945 C 184.115 0.255452 4.39358 0
M  V30 1946 H 181.234 0.184533 0.713524 0
M  V30 1947 H 183.876 1.10872 1.54297 0
M  V30 1948 H 182.026 0.264274 3.876 0
M  V30 1949 H 183.698 2.86127 3.61841 0
M  V30 1950 H 181.941 2.74479 3.35922 0
M  V30 1951 H 182.612 2.42125 4.96064 0
M  V30 1952 H 185.088 0.696079 4.10236 0
M  V30 1953 H 183.964 0.477361 5.4682 0
M  V30 1954 H 184.225 -0.843293 4.33983 0
M  V30 1955 N 183.284 -1.43765 0.645699 0
M  V30 1956 C 184.509 -2.06767 0.161883 0
M  V30 1957 C 184.934 -1.48034 -1.16049 0
M  V30 1958 O 184.292 -0.587369 -1.71522 0
M  V30 1959 C 184.34 -3.60519 0.0762003 0
M  V30 1960 O 183.444 -4.00982 -0.963721 0
M  V30 1961 H 182.785 -0.657675 0.091429 0
M  V30 1962 H 185.315 -1.84397 0.886499 0
M  V30 1963 H 185.325 -4.07853 -0.109604 0
M  V30 1964 H 184 -4.02646 1.04157 0
M  V30 1965 H 182.577 -3.65253 -0.751312 0
M  V30 1966 N 184.763 -0.387143 -1.52771 0
M  V30 1967 C 185.693 0.440551 -2.29306 0
M  V30 1968 C 186.674 1.06535 -1.32606 0
M  V30 1969 O 187.859 1.07853 -1.61497 0
M  V30 1970 C 184.989 1.56919 -3.09829 0
M  V30 1971 C 183.943 1.07054 -4.14395 0
M  V30 1972 C 183.269 2.29109 -4.83129 0
M  V30 1973 C 184.569 0.140015 -5.22112 0
M  V30 1974 H 186.263 -0.198026 -2.98744 0
M  V30 1975 H 183.809 -0.09668 -1.43675 0
M  V30 1976 H 185.762 2.15503 -3.62128 0
M  V30 1977 H 184.486 2.23532 -2.3812 0
M  V30 1978 H 183.145 0.507247 -3.63074 0
M  V30 1979 H 182.793 2.94227 -4.0797 0
M  V30 1980 H 182.493 1.96406 -5.53804 0
M  V30 1981 H 184.017 2.88339 -5.38231 0
M  V30 1982 H 185.431 0.633978 -5.69784 0
M  V30 1983 H 183.828 -0.0971485 -6.00021 0
M  V30 1984 H 184.898 -0.811711 -4.78058 0
M  V30 1985 N 186.241 1.57166 -0.116904 0
M  V30 1986 C 187.469 1.99473 0.549383 0
M  V30 1987 C 187.884 0.996541 1.60357 0
M  V30 1988 O 187.241 -0.0108731 1.82497 0
M  V30 1989 C 187.292 3.41788 1.17741 0
M  V30 1990 O 187.013 4.37788 0.165362 0
M  V30 1991 C 188.514 3.99216 1.92722 0
M  V30 1992 H 185.734 0.655009 0.145616 0
M  V30 1993 H 188.278 2.03494 -0.202625 0
M  V30 1994 H 186.433 3.38713 1.88021 0
M  V30 1995 H 186.847 5.20806 0.621403 0
M  V30 1996 H 188.321 5.00882 2.31995 0
M  V30 1997 H 188.798 3.3824 2.80161 0
M  V30 1998 H 189.404 4.0583 1.27209 0
M  V30 1999 N 187.719 -0.156864 1.56817 0
M  V30 2000 C 189.135 -0.50916 1.5126 0
M  V30 2001 C 189.335 -1.83897 0.823658 0
M  V30 2002 O 188.391 -2.49469 0.390055 0
M  V30 2003 C 189.704 -0.52857 2.96018 0
M  V30 2004 C 191.252 -0.614771 3.06903 0
M  V30 2005 C 191.727 -0.664938 4.53147 0
M  V30 2006 N 193.218 -0.727433 4.57452 0
M  V30 2007 C 193.953 -0.787067 5.67973 0
M  V30 2008 N 193.449 -0.806649 6.88088 0
M  V30 2009 N 195.242 -0.827195 5.5598 0
M  V30 2010 H 187.393 0.714935 2.00006 0
M  V30 2011 H 189.656 0.259526 0.911784 0
M  V30 2012 H 189.362 0.380154 3.49639 0
M  V30 2013 H 189.236 -1.36998 3.51442 0
M  V30 2014 H 191.623 -1.51392 2.53307 0
M  V30 2015 H 191.704 0.253597 2.5454 0
M  V30 2016 H 191.348 0.230011 5.07379 0
M  V30 2017 H 191.278 -1.54966 5.03282 0
M  V30 2018 H 193.769 -0.719998 3.70978 0
M  V30 2019 H 194.082 -0.853727 7.6807 0
M  V30 2020 H 192.427 -0.774687 6.90669 0
M  V30 2021 H 195.618 -0.808998 4.61056 0
M  V30 2022 H 195.791 -0.870206 6.4213 0
M  V30 2023 N 189.197 -1.51736 -0.425897 0
M  V30 2024 C 190.145 -1.74464 -1.53834 0
M  V30 2025 C 191.139 -0.611241 -1.57988 0
M  V30 2026 O 192.345 -0.792899 -1.61596 0
M  V30 2027 H 188.72 -0.551437 -0.511293 0
M  V30 2028 H 190.691 -2.67694 -1.31843 0
M  V30 2029 C 189.44 -1.8972 -2.91379 0
M  V30 2030 H 188.763 -2.76344 -2.88919 0
M  V30 2031 H 190.203 -2.09629 -3.68553 0
M  V30 2032 C 188.662 -0.65992 -3.30374 0
M  V30 2033 O 189.192 0.180083 -4.01296 0
M  V30 2034 N 187.398 -0.500677 -2.86254 0
M  V30 2035 H 186.945 -1.18532 -2.28709 0
M  V30 2036 H 186.903 0.325903 -3.12706 0
M  V30 2037 N 190.675 0.682077 -1.42076 0
M  V30 2038 C 192.086 1.26246 -1.37546 0
M  V30 2039 C 192.437 1.96092 -0.0651481 0
M  V30 2040 O 191.562 1.99587 0.836297 0
M  V30 2041 C 192.157 2.29594 -2.49143 0
M  V30 2042 C 190.716 2.83175 -2.47969 0
M  V30 2043 C 189.863 1.57395 -2.28303 0
M  V30 2044 H 192.814 0.475937 -1.51395 0
M  V30 2045 H 192.835 3.11175 -2.18976 0
M  V30 2046 H 192.347 1.78729 -3.44496 0
M  V30 2047 H 190.448 3.3818 -1.56413 0
M  V30 2048 H 190.561 3.32687 -3.44755 0
M  V30 2049 H 188.925 1.83699 -1.76428 0
M  V30 2050 H 189.708 1.08507 -3.25701 0
M  V30 2051 N 192.153 1.28127 0.917671 0
M  V30 2052 C 193.564 1.13622 1.48145 0
M  V30 2053 C 193.915 -0.275207 1.9426 0
M  V30 2054 O 193.04 -1.1691 1.82102 0
M  V30 2055 C 193.635 2.05648 2.69248 0
M  V30 2056 C 192.194 1.95219 3.21818 0
M  V30 2057 C 191.341 1.97618 1.94532 0
M  V30 2058 H 194.292 1.40874 0.730772 0
M  V30 2059 H 194.313 1.61818 3.44377 0
M  V30 2060 H 193.825 3.08365 2.35653 0
M  V30 2061 H 191.926 0.955244 3.60147 0
M  V30 2062 H 192.039 2.81976 3.87333 0
M  V30 2063 H 190.403 1.41973 2.11461 0
M  V30 2064 H 191.186 3.02007 1.63238 0
M  V30 2065 N 193.631 -1.12557 1.10312 0
M  V30 2066 C 194.856 -1.88405 0.867085 0
M  V30 2067 C 195.281 -1.79038 -0.576817 0
M  V30 2068 O 194.639 -1.14439 -1.40618 0
M  V30 2069 C 194.687 -3.3563 1.31851 0
M  V30 2070 O 193.791 -4.09565 0.482734 0
M  V30 2071 H 193.132 -0.585455 0.313271 0
M  V30 2072 H 195.662 -1.42352 1.4696 0
M  V30 2073 H 195.672 -3.86469 1.3079 0
M  V30 2074 H 194.347 -3.41765 2.37001 0
M  V30 2075 H 192.924 -3.68695 0.558448 0
M  V30 2076 N 195.109 -0.891671 -1.2995 0
M  V30 2077 C 196.019 -0.367691 -2.31701 0
M  V30 2078 C 197.035 0.533486 -1.6562 0
M  V30 2079 O 198.211 0.424997 -1.96865 0
M  V30 2080 C 195.276 0.403406 -3.44345 0
M  V30 2081 C 194.337 -0.528328 -4.26037 0
M  V30 2082 C 193.57 0.206063 -5.33302 0
M  V30 2083 O 193.793 1.43119 -5.52153 0
M  V30 2084 O 192.727 -0.447281 -6.00236 0
M  V30 2085 H 196.553 -1.21163 -2.78484 0
M  V30 2086 H 194.138 -0.655725 -1.34241 0
M  V30 2087 H 196.02 0.839753 -4.12948 0
M  V30 2088 H 194.695 1.22354 -2.99685 0
M  V30 2089 H 193.602 -1.01362 -3.60106 0
M  V30 2090 H 194.935 -1.31465 -4.74318 0
M  V30 2091 N 196.587 1.43421 -0.653314 0
M  V30 2092 C 197.812 2.06678 -0.172846 0
M  V30 2093 C 198.237 1.48648 1.15262 0
M  V30 2094 O 197.595 0.596457 1.71208 0
M  V30 2095 C 197.643 3.60474 -0.0953184 0
M  V30 2096 O 196.747 4.01487 0.942442 0
M  V30 2097 H 196.088 0.657181 -0.0949155 0
M  V30 2098 H 198.618 1.83925 -0.896265 0
M  V30 2099 H 198.628 4.07905 0.0879728 0
M  V30 2100 H 197.303 4.02088 -1.06291 0
M  V30 2101 H 195.88 3.65646 0.731932 0
M  V30 2102 N 198.065 0.39524 1.52563 0
M  V30 2103 C 198.975 -0.444232 2.30356 0
M  V30 2104 C 199.991 -1.06615 1.37511 0
M  V30 2105 O 201.167 -1.07067 1.70583 0
M  V30 2106 C 198.232 -1.55315 3.09964 0
M  V30 2107 C 197.293 -0.955734 4.18526 0
M  V30 2108 C 196.526 -2.01181 4.9433 0
M  V30 2109 O 196.749 -3.22781 4.70285 0
M  V30 2110 O 195.683 -1.62579 5.79527 0
M  V30 2111 H 199.509 0.189667 3.03107 0
M  V30 2112 H 197.094 0.1588 1.48554 0
M  V30 2113 H 198.976 -2.19724 3.59582 0
M  V30 2114 H 197.651 -2.17191 2.4002 0
M  V30 2115 H 196.558 -0.274743 3.7309 0
M  V30 2116 H 197.891 -0.381109 4.90722 0
M  V30 2117 N 199.544 -1.57102 0.125237 0
M  V30 2118 C 200.792 -1.95021 -0.530198 0
M  V30 2119 C 201.113 -1.00982 -1.66816 0
M  V30 2120 O 200.383 -0.0672693 -1.95784 0
M  V30 2121 H 198.963 -0.720046 -0.198853 0
M  V30 2122 H 201.625 -1.93916 0.19564 0
M  V30 2123 H 200.721 -2.98211 -0.920681 0
M  V30 2124 N 201.022 0.148545 -1.56898 0
M  V30 2125 C 202.247 0.880385 -1.87787 0
M  V30 2126 C 202.672 1.74018 -0.714093 0
M  V30 2127 O 202.03 1.78153 0.336343 0
M  V30 2128 C 202.078 1.71422 -3.17249 0
M  V30 2129 O 201.182 2.8183 -3.01074 0
M  V30 2130 H 200.523 0.245301 -0.617028 0
M  V30 2131 H 203.053 0.139826 -2.04122 0
M  V30 2132 H 203.063 2.10954 -3.49231 0
M  V30 2133 H 201.738 1.08284 -4.01556 0
M  V30 2134 H 200.315 2.45715 -2.80497 0
M  V30 2135 N 202.5 1.5196 0.417844 0
M  V30 2136 C 203.777 1.56146 1.17803 0
M  V30 2137 C 204.157 0.337275 2.08388 0
M  V30 2138 O 203.505 -0.676447 2.18258 0
M  V30 2139 C 203.715 2.88566 1.96293 0
M  V30 2140 C 205.063 3.41244 2.52662 0
M  V30 2141 O 206.087 2.90247 2.06483 0
M  V30 2142 O 204.946 4.30273 3.36938 0
M  V30 2143 H 202.04 0.628598 0.537395 0
M  V30 2144 H 204.586 1.64283 0.425331 0
M  V30 2145 H 203.358 3.69116 1.2988 0
M  V30 2146 H 202.981 2.83681 2.78587 0
M  V30 2147 N 203.978 -0.674533 1.42435 0
M  V30 2148 C 205.226 -1.43175 1.42637 0
M  V30 2149 C 205.547 -1.94951 0.0438992 0
M  V30 2150 O 204.817 -1.7308 -0.917607 0
M  V30 2151 H 203.397 -0.531307 0.525092 0
M  V30 2152 H 206.059 -0.797006 1.77859 0
M  V30 2153 H 205.155 -2.28463 2.12629 0
M  V30 2154 N 205.456 -1.28612 -0.910864 0
M  V30 2155 C 206.872 -1.06381 -1.18976 0
M  V30 2156 C 207.072 0.191998 -2.00583 0
M  V30 2157 O 206.128 0.892869 -2.36187 0
M  V30 2158 C 207.441 -2.31295 -1.92154 0
M  V30 2159 C 208.989 -2.36503 -2.05025 0
M  V30 2160 C 209.464 -3.61191 -2.81612 0
M  V30 2161 N 210.955 -3.61847 -2.89172 0
M  V30 2162 C 211.69 -4.55004 -3.4894 0
M  V30 2163 N 211.186 -5.58482 -4.09963 0
M  V30 2164 N 212.979 -4.42594 -3.46506 0
M  V30 2165 H 205.13 -2.09221 -0.366094 0
M  V30 2166 H 207.393 -0.921003 -0.224629 0
M  V30 2167 H 207.099 -3.228 -1.39618 0
M  V30 2168 H 206.973 -2.37934 -2.9269 0
M  V30 2169 H 209.36 -1.45494 -2.5674 0
M  V30 2170 H 209.441 -2.33857 -1.03657 0
M  V30 2171 H 209.085 -4.52545 -2.30576 0
M  V30 2172 H 209.015 -3.61092 -3.83302 0
M  V30 2173 H 211.506 -2.87022 -2.45819 0
M  V30 2174 H 211.819 -6.25704 -4.53557 0
M  V30 2175 H 210.164 -5.62305 -4.08459 0
M  V30 2176 H 213.355 -3.60953 -2.98045 0
M  V30 2177 H 213.528 -5.15381 -3.92793 0
M  V30 2178 N 206.934 1.1197 -1.10907 0
M  V30 2179 C 208.181 1.83588 -0.854507 0
M  V30 2180 C 208.509 1.84357 0.6199 0
M  V30 2181 O 207.764 1.28809 1.47332 0
M  V30 2182 C 208.063 3.30749 -1.35425 0
M  V30 2183 C 207.729 3.50146 -2.84093 0
M  V30 2184 C 206.391 3.55148 -3.2469 0
M  V30 2185 C 208.743 3.56857 -3.79872 0
M  V30 2186 C 206.071 3.6441 -4.59806 0
M  V30 2187 C 208.423 3.6765 -5.14797 0
M  V30 2188 C 207.087 3.7091 -5.54961 0
M  V30 2189 H 206.357 0.671795 -0.312686 0
M  V30 2190 H 209.004 1.32091 -1.38652 0
M  V30 2191 H 207.309 3.84703 -0.742361 0
M  V30 2192 H 209.006 3.8464 -1.1337 0
M  V30 2193 H 205.596 3.46919 -2.51685 0
M  V30 2194 H 209.78 3.52258 -3.49611 0
M  V30 2195 H 205.036 3.65208 -4.9034 0
M  V30 2196 H 209.21 3.71786 -5.88853 0
M  V30 2197 H 206.837 3.7784 -6.59652 0
M  V30 2198 N 208.412 0.89855 1.29475 0
M  V30 2199 C 209.342 0.39201 2.30186 0
M  V30 2200 C 210.323 -0.532359 1.61555 0
M  V30 2201 O 211.508 -0.443331 1.89072 0
M  V30 2202 C 208.638 -0.382353 3.45189 0
M  V30 2203 C 207.592 0.451483 4.25612 0
M  V30 2204 C 206.918 -0.450307 5.328 0
M  V30 2205 C 208.218 1.70079 4.93832 0
M  V30 2206 H 209.912 1.23362 2.72804 0
M  V30 2207 H 207.458 0.594638 1.31149 0
M  V30 2208 H 209.411 -0.747451 4.14718 0
M  V30 2209 H 208.135 -1.25774 3.01411 0
M  V30 2210 H 206.794 0.798897 3.57789 0
M  V30 2211 H 206.442 -1.32379 4.85268 0
M  V30 2212 H 206.142 0.103902 5.87508 0
M  V30 2213 H 207.666 -0.811623 6.05182 0
M  V30 2214 H 209.08 1.40549 5.55805 0
M  V30 2215 H 207.477 2.19623 5.58467 0
M  V30 2216 H 208.547 2.43744 4.19186 0
M  V30 2217 N 209.89 -1.43072 0.660911 0
M  V30 2218 C 211.139 -2.00942 0.174735 0
M  V30 2219 C 211.452 -1.52797 -1.22117 0
M  V30 2220 O 212.658 -2.02991 -1.80297 0
M  V30 2221 C 211.114 -3.58948 0.261559 0
M  V30 2222 C 210.722 -4.16085 1.66064 0
M  V30 2223 C 212.466 -4.24173 -0.166617 0
M  V30 2224 C 210.373 -5.6641 1.70098 0
M  V30 2225 H 209.303 -0.751483 0.0615631 0
M  V30 2226 H 211.954 -1.63955 0.824069 0
M  V30 2227 H 210.336 -3.93372 -0.455421 0
M  V30 2228 H 211.51 -3.93147 2.40359 0
M  V30 2229 H 209.825 -3.6326 2.03546 0
M  V30 2230 H 212.422 -5.34471 -0.156433 0
M  V30 2231 H 212.765 -3.98647 -1.19943 0
M  V30 2232 H 213.298 -3.94659 0.498875 0
M  V30 2233 H 210.037 -5.96715 2.71315 0
M  V30 2234 H 209.557 -5.91382 1.00139 0
M  V30 2235 H 211.236 -6.30585 1.44816 0
M  V30 2236 N 211.368 -0.403325 -1.52352 0
M  V30 2237 C 212.593 0.176499 -2.06648 0
M  V30 2238 C 213.018 1.38577 -1.27193 0
M  V30 2239 O 212.376 1.7879 -0.300637 0
M  V30 2240 C 212.424 0.511061 -3.5696 0
M  V30 2241 O 211.528 1.60294 -3.79973 0
M  V30 2242 H 210.869 0.0167337 -0.663789 0
M  V30 2243 H 213.399 -0.574848 -1.96359 0
M  V30 2244 H 213.409 0.771362 -4.00642 0
M  V30 2245 H 212.084 -0.37296 -4.14224 0
M  V30 2246 H 210.661 1.33526 -3.48174 0
M  V30 2247 N 212.846 1.57033 -0.133567 0
M  V30 2248 C 214.076 1.99754 0.527429 0
M  V30 2249 C 214.484 1.01245 1.59832 0
M  V30 2250 O 213.827 -0.000645496 1.837 0
M  V30 2251 C 213.889 3.38903 1.19939 0
M  V30 2252 C 213.553 4.56174 0.274709 0
M  V30 2253 C 214.55 5.17563 -0.492398 0
M  V30 2254 C 212.235 5.01972 0.18153 0
M  V30 2255 C 214.229 6.2315 -1.34027 0
M  V30 2256 C 211.916 6.07416 -0.669958 0
M  V30 2257 C 212.914 6.67874 -1.42947 0
M  V30 2258 O 212.602 7.71279 -2.2668 0
M  V30 2259 H 212.334 0.660702 0.142999 0
M  V30 2260 H 214.888 2.04207 -0.221099 0
M  V30 2261 H 213.118 3.31248 1.99528 0
M  V30 2262 H 214.807 3.65818 1.75875 0
M  V30 2263 H 215.573 4.83087 -0.430367 0
M  V30 2264 H 211.452 4.54652 0.762422 0
M  V30 2265 H 214.996 6.70268 -1.93357 0
M  V30 2266 H 210.893 6.41321 -0.73333 0
M  V30 2267 H 211.661 7.88441 -2.1978 0
M  V30 2268 N 214.325 -0.140222 1.56975 0
M  V30 2269 C 215.602 -0.880769 1.74648 0
M  V30 2270 C 215.982 -1.99036 0.703404 0
M  V30 2271 O 215.33 -2.26821 -0.27648 0
M  V30 2272 C 215.54 -1.417 3.18939 0
M  V30 2273 C 216.888 -1.87774 3.80823 0
M  V30 2274 O 217.912 -1.51427 3.2241 0
M  V30 2275 O 216.771 -2.54827 4.83452 0
M  V30 2276 H 213.865 -0.416713 0.714338 0
M  V30 2277 H 216.411 -0.125618 1.69234 0
M  V30 2278 H 215.183 -0.619902 3.86359 0
M  V30 2279 H 214.806 -2.23546 3.28805 0
M  V30 2280 N 215.803 -1.52179 -0.40978 0
M  V30 2281 C 217.219 -1.40968 -0.74835 0
M  V30 2282 C 217.419 -0.513657 -1.94843 0
M  V30 2283 O 216.475 0.0208026 -2.52491 0
M  V30 2284 C 217.788 -2.83483 -1.0029 0
M  V30 2285 C 219.336 -2.92821 -1.10565 0
M  V30 2286 C 219.811 -4.36303 -1.39296 0
M  V30 2287 N 221.302 -4.39535 -1.46162 0
M  V30 2288 C 222.037 -5.47614 -1.70018 0
M  V30 2289 N 221.533 -6.65812 -1.91483 0
M  V30 2290 N 223.326 -5.35129 -1.72027 0
M  V30 2291 H 215.477 -2.0897 0.380186 0
M  V30 2292 H 217.74 -0.94185 0.107805 0
M  V30 2293 H 217.446 -3.51168 -0.193461 0
M  V30 2294 H 217.32 -3.24487 -1.92323 0
M  V30 2295 H 219.707 -2.25318 -1.90568 0
M  V30 2296 H 219.788 -2.55276 -0.16369 0
M  V30 2297 H 219.432 -5.04366 -0.598109 0
M  V30 2298 H 219.362 -4.71385 -2.34743 0
M  V30 2299 H 221.853 -3.54332 -1.31367 0
M  V30 2300 H 222.166 -7.43964 -2.09134 0
M  V30 2301 H 220.511 -6.68879 -1.88749 0
M  V30 2302 H 223.702 -4.41764 -1.54796 0
M  V30 2303 H 223.875 -6.19433 -1.9028 0
M  V30 2304 N 217.281 0.66697 -1.42791 0
M  V30 2305 C 218.509 1.45505 -1.47091 0
M  V30 2306 C 218.924 1.8861 -0.0845873 0
M  V30 2307 O 218.281 1.58632 0.90234 0
M  V30 2308 C 218.332 2.69906 -2.40485 0
M  V30 2309 O 218.053 2.28608 -3.73725 0
M  V30 2310 C 219.554 3.63396 -2.53886 0
M  V30 2311 H 216.774 0.447459 -0.500022 0
M  V30 2312 H 219.318 0.818866 -1.8739 0
M  V30 2313 H 217.473 3.29696 -2.03419 0
M  V30 2314 H 217.887 3.08997 -4.23817 0
M  V30 2315 H 219.361 4.47387 -3.2334 0
M  V30 2316 H 219.838 4.09824 -1.57927 0
M  V30 2317 H 220.444 3.09495 -2.91706 0
M  V30 2318 N 218.759 1.29093 0.90403 0
M  V30 2319 C 219.689 1.16401 2.02418 0
M  V30 2320 C 220.67 0.0593085 1.69997 0
M  V30 2321 O 221.855 0.238021 1.92736 0
M  V30 2322 C 218.985 0.835233 3.37107 0
M  V30 2323 C 217.939 1.89578 3.83724 0
M  V30 2324 C 217.265 1.42041 5.15489 0
M  V30 2325 C 218.565 3.30394 4.04521 0
M  V30 2326 H 220.259 2.10109 2.13295 0
M  V30 2327 H 217.805 1.01157 1.02486 0
M  V30 2328 H 219.758 0.733169 4.14973 0
M  V30 2329 H 218.482 -0.137543 3.2631 0
M  V30 2330 H 217.141 1.98715 3.08071 0
M  V30 2331 H 216.789 0.436426 5.01103 0
M  V30 2332 H 216.489 2.12964 5.4765 0
M  V30 2333 H 218.013 1.33176 5.959 0
M  V30 2334 H 219.427 3.24123 4.72882 0
M  V30 2335 H 217.824 3.99237 4.48029 0
M  V30 2336 H 218.894 3.73692 3.09002 0
M  V30 2337 N 220.237 -1.11381 1.11499 0
M  V30 2338 C 221.483 -1.83403 0.865512 0
M  V30 2339 C 221.816 -1.84459 -0.607329 0
M  V30 2340 O 221.091 -1.29811 -1.44842 0
M  V30 2341 C 221.374 -3.30552 1.42855 0
M  V30 2342 C 221.227 -3.37886 2.96906 0
M  V30 2343 C 222.546 -4.26643 1.08 0
M  V30 2344 H 219.665 -0.665879 0.31587 0
M  V30 2345 H 222.307 -1.30601 1.37998 0
M  V30 2346 H 220.457 -3.75648 0.990985 0
M  V30 2347 H 222.129 -3.01343 3.49271 0
M  V30 2348 H 220.372 -2.78088 3.32941 0
M  V30 2349 H 221.043 -4.41458 3.31389 0
M  V30 2350 H 223.519 -3.89729 1.45775 0
M  V30 2351 H 222.395 -5.27986 1.50072 0
M  V30 2352 H 222.656 -4.42099 -0.00915037 0
M  V30 2353 N 221.715 -0.905404 -1.28997 0
M  V30 2354 C 222.964 -0.530191 -1.94607 0
M  V30 2355 C 223.277 0.929185 -1.72121 0
M  V30 2356 O 224.483 1.41218 -2.31883 0
M  V30 2357 C 222.939 -0.897333 -3.48534 0
M  V30 2358 C 222.547 -2.37587 -3.79811 0
M  V30 2359 C 224.291 -0.592304 -4.20347 0
M  V30 2360 C 222.198 -2.68357 -5.27009 0
M  V30 2361 H 221.128 -0.194558 -0.728466 0
M  V30 2362 H 223.779 -1.10318 -1.46636 0
M  V30 2363 H 222.161 -0.253214 -3.9519 0
M  V30 2364 H 223.335 -3.06602 -3.43994 0
M  V30 2365 H 221.65 -2.6505 -3.2115 0
M  V30 2366 H 224.247 -0.798975 -5.28697 0
M  V30 2367 H 224.59 0.469474 -4.13644 0
M  V30 2368 H 225.123 -1.19452 -3.79442 0
M  V30 2369 H 221.862 -3.73355 -5.38782 0
M  V30 2370 H 221.382 -2.03971 -5.64053 0
M  V30 2371 H 223.061 -2.54922 -5.94663 0
M  V30 2372 N 223.193 1.4272 -0.668489 0
M  V30 2373 C 224.14 2.30796 0.0137489 0
M  V30 2374 C 225.11 1.4561 0.799177 0
M  V30 2375 O 226.295 1.74453 0.772702 0
M  V30 2376 C 223.435 3.31377 0.963507 0
M  V30 2377 C 222.548 4.31655 0.172569 0
M  V30 2378 C 221.683 5.19312 1.1175 0
M  V30 2379 C 220.722 6.11274 0.317886 0
M  V30 2380 N 219.859 6.91504 1.2152 0
M  V30 2381 H 224.699 2.88585 -0.743161 0
M  V30 2382 H 222.236 1.42154 -0.378226 0
M  V30 2383 H 224.194 3.88214 1.52792 0
M  V30 2384 H 222.824 2.75202 1.68712 0
M  V30 2385 H 221.876 3.76988 -0.508374 0
M  V30 2386 H 223.188 4.96779 -0.448527 0
M  V30 2387 H 222.342 5.80851 1.75206 0
M  V30 2388 H 221.081 4.5435 1.77249 0
M  V30 2389 H 220.086 5.48809 -0.329918 0
M  V30 2390 H 221.311 6.78283 -0.332917 0
M  V30 2391 H 219.257 6.29176 1.85671 0
M  V30 2392 H 219.174 7.53209 0.649036 0
M  V30 2393 H 220.442 7.57535 1.83742 0
M  V30 2394 N 224.671 0.411399 1.52136 0
M  V30 2395 C 225.581 -0.419774 2.30814 0
M  V30 2396 C 226.597 -1.0515 1.38634 0
M  V30 2397 O 227.773 -1.05252 1.71709 0
M  V30 2398 C 224.838 -1.52019 3.11594 0
M  V30 2399 C 223.899 -0.91129 4.19516 0
M  V30 2400 C 223.132 -1.95927 4.96436 0
M  V30 2401 O 223.355 -3.17775 4.73683 0
M  V30 2402 O 222.289 -1.56423 5.81219 0
M  V30 2403 H 226.115 0.221805 3.02889 0
M  V30 2404 H 223.7 0.174547 1.48377 0
M  V30 2405 H 225.582 -2.15898 3.61892 0
M  V30 2406 H 224.257 -2.14633 2.42311 0
M  V30 2407 H 223.164 -0.235157 3.7336 0
M  V30 2408 H 224.497 -0.32904 4.91099 0
M  V30 2409 N 226.149 -1.5696 0.141893 0
M  V30 2410 C 227.395 -1.9625 -0.511248 0
M  V30 2411 C 227.728 -1.02654 -1.64851 0
M  V30 2412 O 227.003 -0.0679676 -1.94381 0
M  V30 2413 C 227.286 -3.45285 -1.02227 0
M  V30 2414 C 227.139 -4.49658 0.113138 0
M  V30 2415 C 228.458 -3.96698 -1.90574 0
M  V30 2416 H 225.577 -0.713567 -0.184367 0
M  V30 2417 H 228.219 -1.88698 0.222087 0
M  V30 2418 H 226.369 -3.51852 -1.64719 0
M  V30 2419 H 228.041 -4.55174 0.749302 0
M  V30 2420 H 226.284 -4.26857 0.773026 0
M  V30 2421 H 226.955 -5.51258 -0.286053 0
M  V30 2422 H 229.431 -3.92578 -1.37918 0
M  V30 2423 H 228.307 -5.01453 -2.2324 0
M  V30 2424 H 228.568 -3.3875 -2.84079 0
M  V30 2425 N 227.627 0.131896 -1.57047 0
M  V30 2426 C 228.852 0.860418 -1.8871 0
M  V30 2427 C 229.277 1.73251 -0.73251 0
M  V30 2428 O 228.635 1.785 0.317429 0
M  V30 2429 C 228.683 1.68047 -3.19049 0
M  V30 2430 O 227.787 2.7862 -3.04047 0
M  V30 2431 H 227.128 0.238743 -0.619595 0
M  V30 2432 H 229.658 0.118169 -2.04258 0
M  V30 2433 H 229.668 2.07238 -3.51449 0
M  V30 2434 H 228.343 1.04018 -4.02682 0
M  V30 2435 H 226.92 2.42726 -2.83088 0
M  V30 2436 N 229.106 1.52395 0.401703 0
M  V30 2437 C 230.331 1.70972 1.17403 0
M  V30 2438 C 230.756 0.421615 1.83314 0
M  V30 2439 O 230.114 -0.621564 1.70312 0
M  V30 2440 C 230.162 2.85151 2.20728 0
M  V30 2441 O 229.266 2.51238 3.27037 0
M  V30 2442 H 228.607 0.568927 0.342372 0
M  V30 2443 H 231.137 1.99131 0.469891 0
M  V30 2444 H 231.147 3.10279 2.64936 0
M  V30 2445 H 229.822 3.78603 1.7214 0
M  V30 2446 H 228.399 2.36808 2.88057 0
M  V30 2447 N 230.584 -0.659388 1.43143 0
M  V30 2448 C 231.494 -1.80167 1.50256 0
M  V30 2449 C 232.51 -1.69571 0.390106 0
M  V30 2450 O 233.686 -1.90849 0.643319 0
M  V30 2451 C 230.751 -3.16409 1.41725 0
M  V30 2452 C 229.812 -3.38848 2.63591 0
M  V30 2453 C 229.045 -4.68591 2.55458 0
M  V30 2454 O 229.268 -5.47532 1.59891 0
M  V30 2455 O 228.202 -4.92614 3.45854 0
M  V30 2456 H 232.028 -1.77121 2.46702 0
M  V30 2457 H 229.613 -0.817092 1.25076 0
M  V30 2458 H 231.495 -3.9768 1.39387 0
M  V30 2459 H 230.17 -3.20059 0.484118 0
M  V30 2460 H 229.077 -2.57366 2.71502 0
M  V30 2461 H 230.41 -3.4004 3.55856 0
M  V30 2462 N 232.062 -1.29571 -0.897171 0
M  V30 2463 C 233.339 -1.08365 -1.62839 0
M  V30 2464 C 233.719 0.371331 -2.07808 0
M  V30 2465 O 233.067 1.3606 -1.83576 0
M  V30 2466 C 233.277 -2.0735 -2.80726 0
M  V30 2467 C 234.625 -2.38406 -3.51351 0
M  V30 2468 O 235.649 -2.05564 -2.90898 0
M  V30 2469 O 234.508 -2.9453 -4.60341 0
M  V30 2470 H 231.602 -0.415345 -0.715134 0
M  V30 2471 H 234.148 -1.40952 -0.945018 0
M  V30 2472 H 232.92 -3.05339 -2.44711 0
M  V30 2473 H 232.543 -1.75507 -3.56767 0
M  V30 2474 N 233.54 1.10788 -1.12088 0
M  V30 2475 C 234.789 1.82036 -0.868659 0
M  V30 2476 C 235.102 1.85929 0.607426 0
M  V30 2477 O 236.308 2.53346 0.97613 0
M  V30 2478 C 234.764 3.26951 -1.50435 0
M  V30 2479 C 234.372 3.31367 -3.01496 0
M  V30 2480 C 236.116 4.03053 -1.33225 0
M  V30 2481 C 234.023 4.7072 -3.58017 0
M  V30 2482 H 232.953 0.682108 -0.321318 0
M  V30 2483 H 235.604 1.24618 -1.34694 0
M  V30 2484 H 233.986 3.84343 -0.953735 0
M  V30 2485 H 235.16 2.83819 -3.6302 0
M  V30 2486 H 233.475 2.6875 -3.18061 0
M  V30 2487 H 236.072 5.05981 -1.72878 0
M  V30 2488 H 236.415 4.15387 -0.275529 0
M  V30 2489 H 236.948 3.52066 -1.85188 0
M  V30 2490 H 233.687 4.63585 -4.63432 0
M  V30 2491 H 233.207 5.1865 -3.01268 0
M  V30 2492 H 234.886 5.39685 -3.56859 0
M  V30 2493 N 235.018 0.912232 1.28515 0
M  V30 2494 C 235.981 0.404223 2.25607 0
M  V30 2495 C 236.981 -0.468602 1.53821 0
M  V30 2496 O 238.171 -0.271873 1.72065 0
M  V30 2497 C 235.303 -0.420653 3.38295 0
M  V30 2498 H 236.496 1.26188 2.7206 0
M  V30 2499 H 234.049 0.691495 1.40171 0
M  V30 2500 H 234.784 -1.29777 2.97201 0
M  V30 2501 H 234.569 0.204935 3.91564 0
M  V30 2502 H 236.059 -0.766971 4.10496 0
M  V30 2503 N 236.496 -1.42363 0.676048 0
M  V30 2504 C 237.773 -1.95183 0.127726 0
M  V30 2505 C 238.153 -1.61641 -1.35777 0
M  V30 2506 O 237.501 -0.913216 -2.09458 0
M  V30 2507 C 237.711 -3.46721 0.398199 0
M  V30 2508 C 239.059 -4.23427 0.315383 0
M  V30 2509 O 240.083 -3.54649 0.332016 0
M  V30 2510 O 238.942 -5.45888 0.25865 0
M  V30 2511 H 236.036 -0.826992 0.00359427 0
M  V30 2512 H 238.582 -1.52184 0.750864 0
M  V30 2513 H 237.354 -3.64344 1.4272 0
M  V30 2514 H 236.977 -3.96769 -0.256885 0
M  V30 2515 N 237.974 -0.419461 -1.51915 0
M  V30 2516 C 238.907 0.445751 -2.23804 0
M  V30 2517 C 239.885 1.03951 -1.25031 0
M  V30 2518 O 241.069 1.08541 -1.54114 0
M  V30 2519 C 238.196 1.61964 -2.97465 0
M  V30 2520 C 237.242 1.14828 -4.10751 0
M  V30 2521 S 238.075 0.104938 -5.35397 0
M  V30 2522 C 239.231 1.28391 -6.1259 0
M  V30 2523 H 239.464 -0.164627 -2.96844 0
M  V30 2524 H 236.997 -0.203833 -1.53049 0
M  V30 2525 H 238.955 2.29271 -3.40507 0
M  V30 2526 H 237.616 2.20139 -2.24048 0
M  V30 2527 H 236.809 2.02561 -4.61503 0
M  V30 2528 H 236.411 0.553712 -3.69878 0
M  V30 2529 H 238.703 2.20563 -6.40592 0
M  V30 2530 H 239.646 0.816724 -7.03374 0
M  V30 2531 H 240.054 1.51439 -5.43807 0
M  V30 2532 N 239.452 1.56882 -0.150215 0
M  V30 2533 C 240.402 2.13501 0.800071 0
M  V30 2534 C 241.386 1.06368 1.20726 0
M  V30 2535 O 242.578 1.32538 1.17314 0
M  V30 2536 C 239.707 2.76271 2.03787 0
M  V30 2537 C 238.793 3.90533 1.65364 0
M  V30 2538 N 239.184 4.96259 0.977794 0
M  V30 2539 C 237.482 4.013 1.94613 0
M  V30 2540 C 238.183 5.76286 0.791794 0
M  V30 2541 N 237.159 5.27163 1.32666 0
M  V30 2542 H 240.961 2.92615 0.274517 0
M  V30 2543 H 238.475 1.62319 0.0512144 0
M  V30 2544 H 240.472 3.15197 2.72867 0
M  V30 2545 H 239.132 1.98631 2.56857 0
M  V30 2546 H 240.143 5.13953 0.638193 0
M  V30 2547 H 236.82 3.3474 2.4951 0
M  V30 2548 H 238.21 6.71401 0.258894 0
M  V30 2549 N 240.93 -0.123565 1.57115 0
M  V30 2550 C 242.155 -0.850398 1.89164 0
M  V30 2551 C 242.58 -1.7286 0.741688 0
M  V30 2552 O 241.938 -1.78665 -0.307958 0
M  V30 2553 C 241.986 -1.66353 3.19936 0
M  V30 2554 O 241.09 -2.77004 3.0552 0
M  V30 2555 H 240.431 -0.235454 0.620852 0
M  V30 2556 H 242.961 -0.107335 2.04318 0
M  V30 2557 H 242.971 -2.05372 3.52543 0
M  V30 2558 H 241.646 -1.01881 4.03228 0
M  V30 2559 H 240.223 -2.41221 2.84371 0
M  V30 2560 N 242.408 -1.52605 -0.393616 0
M  V30 2561 C 243.356 -1.77688 -1.50099 0
M  V30 2562 C 244.35 -0.644615 -1.56656 0
M  V30 2563 O 245.556 -0.826997 -1.59877 0
M  V30 2564 H 241.931 -0.562159 -0.499481 0
M  V30 2565 H 243.902 -2.7043 -1.26135 0
M  V30 2566 C 242.651 -1.95858 -2.87289 0
M  V30 2567 H 241.974 -2.8241 -2.82992 0
M  V30 2568 H 243.414 -2.174 -3.64024 0
M  V30 2569 C 241.873 -0.729848 -3.28899 0
M  V30 2570 O 242.403 0.0949217 -4.01588 0
M  V30 2571 N 240.609 -0.561283 -2.85128 0
M  V30 2572 H 240.156 -1.23357 -2.26143 0
M  V30 2573 H 240.114 0.2595 -3.13327 0
M  V30 2574 N 243.887 0.651787 -1.4349 0
M  V30 2575 C 244.817 1.77621 -1.51569 0
M  V30 2576 C 245.798 1.66022 -0.370253 0
M  V30 2577 O 246.983 1.85095 -0.587658 0
M  V30 2578 C 244.113 3.16056 -1.43966 0
M  V30 2579 C 243.067 3.4242 -2.56774 0
M  V30 2580 C 242.393 4.8067 -2.34223 0
M  V30 2581 C 243.693 3.37023 -3.99015 0
M  V30 2582 H 245.387 1.71117 -2.45681 0
M  V30 2583 H 242.933 0.821825 -1.18246 0
M  V30 2584 H 244.886 3.94472 -1.48221 0
M  V30 2585 H 243.61 3.23293 -0.463586 0
M  V30 2586 H 242.269 2.66375 -2.51873 0
M  V30 2587 H 241.917 4.84585 -1.34856 0
M  V30 2588 H 241.617 4.9927 -3.09844 0
M  V30 2589 H 243.141 5.61342 -2.40265 0
M  V30 2590 H 244.555 4.05374 -4.05395 0
M  V30 2591 H 242.952 3.67159 -4.74673 0
M  V30 2592 H 244.022 2.3518 -4.2405 0
M  V30 2593 N 245.365 1.30045 0.890287 0
M  V30 2594 C 246.59 1.21598 1.68014 0
M  V30 2595 C 247.015 -0.218678 1.86825 0
M  V30 2596 O 246.373 -1.15756 1.39536 0
M  V30 2597 C 246.421 1.94434 3.03691 0
M  V30 2598 O 245.525 1.2678 3.92429 0
M  V30 2599 H 244.866 0.420856 0.513592 0
M  V30 2600 H 247.396 1.71775 1.11151 0
M  V30 2601 H 247.406 2.03251 3.5377 0
M  V30 2602 H 246.081 2.98777 2.89318 0
M  V30 2603 H 244.658 1.26282 3.50866 0
M  V30 2604 N 246.843 -1.10192 1.12674 0
M  V30 2605 C 247.791 -2.18694 0.792196 0
M  V30 2606 C 248.785 -1.67938 -0.222058 0
M  V30 2607 O 249.991 -1.79822 -0.0800074 0
M  V30 2608 H 246.366 -0.713223 0.238364 0
M  V30 2609 H 248.337 -2.44149 1.71564 0
M  V30 2610 C 247.086 -3.46682 0.265859 0
M  V30 2611 H 246.409 -3.86101 1.03761 0
M  V30 2612 H 247.849 -4.23942 0.0701128 0
M  V30 2613 C 246.308 -3.21506 -1.00675 0
M  V30 2614 O 246.838 -3.43408 -2.08408 0
M  V30 2615 N 245.044 -2.75158 -0.934692 0
M  V30 2616 H 244.591 -2.57535 -0.0578604 0
M  V30 2617 H 244.549 -2.58691 -1.7868 0
M  V30 2618 N 248.321 -0.919034 -1.28029 0
M  V30 2619 C 249.551 -0.570143 -1.98577 0
M  V30 2620 C 249.959 0.854172 -1.68821 0
M  V30 2621 O 249.302 1.57807 -0.940351 0
M  V30 2622 C 249.364 -0.705734 -3.52505 0
M  V30 2623 C 249.028 -2.10057 -4.05863 0
M  V30 2624 C 250.025 -3.07385 -4.19298 0
M  V30 2625 C 247.71 -2.41517 -4.40426 0
M  V30 2626 C 249.704 -4.34287 -4.66555 0
M  V30 2627 C 247.391 -3.68657 -4.87376 0
M  V30 2628 C 248.389 -4.64856 -5.00398 0
M  V30 2629 O 248.077 -5.89735 -5.46322 0
M  V30 2630 H 247.809 -0.215592 -0.6407 0
M  V30 2631 H 250.363 -1.23583 -1.64062 0
M  V30 2632 H 248.593 0.0170414 -3.86696 0
M  V30 2633 H 250.282 -0.363172 -4.04272 0
M  V30 2634 H 251.048 -2.84398 -3.92865 0
M  V30 2635 H 246.927 -1.67389 -4.29537 0
M  V30 2636 H 250.471 -5.09377 -4.76635 0
M  V30 2637 H 246.368 -3.91466 -5.13249 0
M  V30 2638 H 247.136 -5.92599 -5.64596 0
M  V30 2639 N 249.799 1.42003 -0.683588 0
M  V30 2640 C 250.749 2.27997 0.0121992 0
M  V30 2641 C 251.733 1.4156 0.764822 0
M  V30 2642 O 252.925 1.64935 0.642287 0
M  V30 2643 C 250.054 3.29706 0.956482 0
M  V30 2644 C 249.14 4.23625 0.200739 0
M  V30 2645 N 249.531 4.99448 -0.799087 0
M  V30 2646 C 247.829 4.43845 0.437937 0
M  V30 2647 C 248.53 5.68102 -1.25041 0
M  V30 2648 N 247.506 5.40511 -0.578648 0
M  V30 2649 H 251.308 2.84048 -0.754564 0
M  V30 2650 H 248.822 1.54071 -0.513398 0
M  V30 2651 H 250.819 3.90124 1.47 0
M  V30 2652 H 249.479 2.75216 1.72297 0
M  V30 2653 H 250.49 5.04303 -1.17893 0
M  V30 2654 H 247.167 4.00382 1.18325 0
M  V30 2655 H 248.557 6.38913 -2.07942 0
M  V30 2656 N 251.277 0.427512 1.51691 0
M  V30 2657 C 252.209 -0.424521 2.25234 0
M  V30 2658 C 253.222 -0.994671 1.2888 0
M  V30 2659 O 254.411 -0.890483 1.54702 0
M  V30 2660 C 251.511 -1.60479 2.98496 0
M  V30 2661 C 250.684 -1.15527 4.21868 0
M  V30 2662 C 249.743 -2.20454 4.77793 0
M  V30 2663 O 248.769 -1.8029 5.39893 0
M  V30 2664 N 249.971 -3.52831 4.60967 0
M  V30 2665 H 252.736 0.205749 2.98993 0
M  V30 2666 H 250.297 0.255867 1.59865 0
M  V30 2667 H 252.289 -2.30276 3.32799 0
M  V30 2668 H 250.859 -2.14061 2.27809 0
M  V30 2669 H 250.079 -0.284736 3.9317 0
M  V30 2670 H 251.367 -0.832173 5.01949 0
M  V30 2671 H 250.765 -3.88201 4.11481 0
M  V30 2672 H 249.322 -4.18551 4.99658 0
M  V30 2673 N 252.755 -1.56801 0.158532 0
M  V30 2674 C 253.985 -2.00568 -0.495583 0
M  V30 2675 C 254.393 -1.03774 -1.58201 0
M  V30 2676 O 253.736 -0.0285797 -1.83678 0
M  V30 2677 C 253.798 -3.40768 -1.14532 0
M  V30 2678 C 253.462 -4.56553 -0.202101 0
M  V30 2679 C 254.459 -5.16714 0.574675 0
M  V30 2680 C 252.144 -5.02197 -0.101648 0
M  V30 2681 C 254.138 -6.20939 1.43924 0
M  V30 2682 C 251.825 -6.06274 0.766508 0
M  V30 2683 C 252.823 -6.65515 1.53555 0
M  V30 2684 O 252.511 -7.67575 2.38922 0
M  V30 2685 H 252.243 -0.662893 -0.13247 0
M  V30 2686 H 254.797 -2.03829 0.253559 0
M  V30 2687 H 253.027 -3.34381 -1.94233 0
M  V30 2688 H 254.716 -3.6857 -1.70033 0
M  V30 2689 H 255.482 -4.82341 0.507167 0
M  V30 2690 H 251.361 -4.55807 -0.689994 0
M  V30 2691 H 254.905 -6.67107 2.03996 0
M  V30 2692 H 250.802 -6.40073 0.835266 0
M  V30 2693 H 251.57 -7.84844 2.32296 0
M  V30 2694 N 254.233 0.115231 -1.57178 0
M  V30 2695 C 255.482 0.820945 -1.84237 0
M  V30 2696 C 255.795 1.80866 -0.744761 0
M  V30 2697 O 257.001 2.56083 -0.901871 0
M  V30 2698 C 255.457 1.51072 -3.26658 0
M  V30 2699 C 255.065 0.563795 -4.44438 0
M  V30 2700 C 256.809 2.20134 -3.62962 0
M  V30 2701 C 254.716 1.25701 -5.77887 0
M  V30 2702 H 253.646 0.310328 -0.687177 0
M  V30 2703 H 256.297 0.0737134 -1.83352 0
M  V30 2704 H 254.679 2.30471 -3.22024 0
M  V30 2705 H 255.853 -0.197247 -4.60378 0
M  V30 2706 H 254.168 -0.0200638 -4.16395 0
M  V30 2707 H 256.765 2.72696 -4.59936 0
M  V30 2708 H 257.108 2.98107 -2.90582 0
M  V30 2709 H 257.641 1.47619 -3.69396 0
M  V30 2710 H 254.38 0.518493 -6.53446 0
M  V30 2711 H 253.9 1.98997 -5.65827 0
M  V30 2712 H 255.579 1.78915 -6.2177 0
M  V30 2713 N 255.711 1.52812 0.385517 0
M  V30 2714 C 256.957 1.68275 1.13188 0
M  V30 2715 C 257.29 0.423179 1.89533 0
M  V30 2716 O 256.565 -0.579113 1.85679 0
M  V30 2717 C 256.848 2.92001 2.1073 0
M  V30 2718 C 256.701 4.28067 1.38125 0
M  V30 2719 C 258.02 3.11283 3.11113 0
M  V30 2720 H 255.139 0.612352 0.410115 0
M  V30 2721 H 257.781 1.85415 0.414869 0
M  V30 2722 H 255.931 2.77519 2.71874 0
M  V30 2723 H 257.603 4.54324 0.799187 0
M  V30 2724 H 255.846 4.28388 0.683092 0
M  V30 2725 H 256.517 5.10733 2.09417 0
M  V30 2726 H 258.993 3.2482 2.6006 0
M  V30 2727 H 257.869 3.99325 3.76605 0
M  V30 2728 H 258.13 2.25656 3.80173 0
M  V30 2729 N 257.189 -0.644168 1.43834 0
M  V30 2730 C 258.136 -1.75671 1.49694 0
M  V30 2731 C 259.106 -1.6246 0.345809 0
M  V30 2732 O 260.291 -1.82573 0.554234 0
M  V30 2733 C 257.431 -3.13867 1.43463 0
M  V30 2734 C 256.544 -3.38147 2.6885 0
M  V30 2735 C 255.679 -4.66241 2.54544 0
M  V30 2736 C 254.718 -4.83657 3.75157 0
M  V30 2737 N 253.855 -6.03016 3.59605 0
M  V30 2738 H 258.695 -1.69998 2.44754 0
M  V30 2739 H 256.232 -0.829458 1.21484 0
M  V30 2740 H 258.19 -3.9377 1.37843 0
M  V30 2741 H 256.82 -3.18588 0.519783 0
M  V30 2742 H 255.872 -2.52276 2.84712 0
M  V30 2743 H 257.184 -3.46899 3.58417 0
M  V30 2744 H 256.338 -5.54285 2.46683 0
M  V30 2745 H 255.077 -4.59826 1.62516 0
M  V30 2746 H 254.082 -3.94046 3.83416 0
M  V30 2747 H 255.307 -4.91896 4.68204 0
M  V30 2748 H 253.253 -5.97715 2.7032 0
M  V30 2749 H 253.17 -6.12766 4.42779 0
M  V30 2750 H 254.438 -6.93657 3.55613 0
M  V30 2751 N 258.668 -1.30515 -0.883378 0
M  V30 2752 C 259.908 -1.20716 -1.64946 0
M  V30 2753 C 260.272 0.234072 -1.90568 0
M  V30 2754 O 261.473 0.455335 -2.64915 0
M  V30 2755 C 259.744 -2.01444 -2.9522 0
M  V30 2756 S 261.303 -2.0836 -3.86175 0
M  V30 2757 H 258.121 -0.430165 -0.566109 0
M  V30 2758 H 260.723 -1.65011 -1.04841 0
M  V30 2759 H 259.427 -3.05268 -2.74298 0
M  V30 2760 H 258.958 -1.57817 -3.60357 0
M  V30 2761 H 260.973 -1.21215 -4.81167 0
M  V30 2762 N 260.146 1.09593 -1.13257 0
M  V30 2763 C 261.096 2.14345 -0.777179 0
M  V30 2764 C 262.08 1.59277 0.227966 0
M  V30 2765 O 263.272 1.76971 0.0321413 0
M  V30 2766 C 260.401 3.42439 -0.242991 0
M  V30 2767 C 259.487 4.04419 -1.27694 0
M  V30 2768 N 259.878 4.40979 -2.47732 0
M  V30 2769 C 258.176 4.31596 -1.12432 0
M  V30 2770 C 258.877 4.89784 -3.13826 0
M  V30 2771 N 257.853 4.87133 -2.41252 0
M  V30 2772 H 261.655 2.40415 -1.69049 0
M  V30 2773 H 259.169 1.26803 -1.01463 0
M  V30 2774 H 261.166 4.16889 0.0298496 0
M  V30 2775 H 259.826 3.17824 0.66467 0
M  V30 2776 H 260.837 4.32396 -2.85051 0
M  V30 2777 H 257.514 4.16595 -0.274684 0
M  V30 2778 H 258.904 5.2755 -4.16102 0
M  V30 2779 N 261.624 0.925811 1.2754 0
M  V30 2780 C 262.872 0.564138 1.94067 0
M  V30 2781 C 263.193 -0.897188 1.73134 0
M  V30 2782 O 262.463 -1.63573 1.07799 0
M  V30 2783 H 261.043 0.205645 0.718136 0
M  V30 2784 H 263.705 1.1778 1.55287 0
M  V30 2785 H 262.801 0.76881 3.02483 0
M  V30 2786 N 263.102 -1.41638 0.69111 0
M  V30 2787 C 264.05 -2.32597 0.0115199 0
M  V30 2788 C 265.044 -1.5072 -0.773296 0
M  V30 2789 O 266.25 -1.66685 -0.67942 0
M  V30 2790 H 262.625 -0.751849 -0.0150746 0
M  V30 2791 H 264.596 -2.87593 0.795791 0
M  V30 2792 C 263.345 -3.35467 -0.914172 0
M  V30 2793 H 262.668 -3.9852 -0.319687 0
M  V30 2794 H 264.108 -4.01662 -1.35808 0
M  V30 2795 C 262.567 -2.69004 -2.02826 0
M  V30 2796 O 263.097 -2.53444 -3.11655 0
M  V30 2797 N 261.303 -2.2777 -1.80469 0
M  V30 2798 H 260.85 -2.40626 -0.919615 0
M  V30 2799 H 260.808 -1.83635 -2.55197 0
M  V30 2800 N 264.58 -0.43555 -1.51462 0
M  V30 2801 C 265.808 0.130242 -2.0649 0
M  V30 2802 C 266.223 1.36614 -1.30315 0
M  V30 2803 O 265.58 1.78869 -0.362223 0
M  V30 2804 C 265.631 0.454253 -3.58635 0
M  V30 2805 O 265.352 -0.73259 -4.31931 0
M  V30 2806 C 266.853 1.07091 -4.3017 0
M  V30 2807 H 264.073 0.00871669 -0.670943 0
M  V30 2808 H 266.617 -0.614117 -1.95061 0
M  V30 2809 H 264.772 1.14851 -3.69984 0
M  V30 2810 H 265.186 -0.455787 -5.22516 0
M  V30 2811 H 266.66 1.24764 -5.37716 0
M  V30 2812 H 267.137 2.05144 -3.88346 0
M  V30 2813 H 267.743 0.416089 -4.2326 0
M  V30 2814 N 266.058 1.56714 -0.166846 0
M  V30 2815 C 266.988 2.20754 0.760913 0
M  V30 2816 C 267.969 1.16178 1.24244 0
M  V30 2817 O 269.154 1.44592 1.29641 0
M  V30 2818 C 266.284 2.84478 1.99223 0
M  V30 2819 C 265.238 3.95053 1.64672 0
M  V30 2820 C 264.564 4.45805 2.95232 0
M  V30 2821 C 265.864 5.14865 0.878155 0
M  V30 2822 H 267.558 2.98537 0.22713 0
M  V30 2823 H 265.104 1.43596 0.107805 0
M  V30 2824 H 267.057 3.27951 2.64624 0
M  V30 2825 H 265.781 2.04056 2.55007 0
M  V30 2826 H 264.44 3.52228 1.01641 0
M  V30 2827 H 264.088 3.62181 3.49047 0
M  V30 2828 H 263.788 5.204 2.7287 0
M  V30 2829 H 265.312 4.91962 3.6167 0
M  V30 2830 H 266.726 5.55059 1.43466 0
M  V30 2831 H 265.123 5.95348 0.753738 0
M  V30 2832 H 266.193 4.84735 -0.126377 0
M  V30 2833 N 267.536 -0.106894 1.57237 0
M  V30 2834 C 268.466 -1.13148 2.04254 0
M  V30 2835 C 269.447 -1.42476 0.929224 0
M  V30 2836 O 270.632 -1.52709 1.19973 0
M  V30 2837 C 267.762 -2.4545 2.45706 0
M  V30 2838 C 266.716 -2.30558 3.60592 0
M  V30 2839 C 266.042 -3.67931 3.87983 0
M  V30 2840 C 267.342 -1.75597 4.91897 0
M  V30 2841 H 269.036 -0.740374 2.90101 0
M  V30 2842 H 266.582 -0.354696 1.39563 0
M  V30 2843 H 268.535 -3.17389 2.77205 0
M  V30 2844 H 267.259 -2.86475 1.56843 0
M  V30 2845 H 265.918 -1.61067 3.29322 0
M  V30 2846 H 265.566 -4.06462 2.96306 0
M  V30 2847 H 265.266 -3.58817 4.65322 0
M  V30 2848 H 266.79 -4.41356 4.21945 0
M  V30 2849 H 268.204 -2.37364 5.21854 0
M  V30 2850 H 266.601 -1.77272 5.73319 0
M  V30 2851 H 267.671 -0.714451 4.79608 0
M  V30 2852 N 269.014 -1.53014 -0.377408 0
M  V30 2853 C 270.425 -1.60438 -0.954798 0
M  V30 2854 C 270.776 -0.464418 -1.90624 0
M  V30 2855 O 269.901 0.41087 -2.12464 0
M  V30 2856 C 270.496 -2.90797 -1.73847 0
M  V30 2857 C 269.055 -3.00595 -2.26538 0
M  V30 2858 C 268.202 -2.55645 -1.07429 0
M  V30 2859 H 271.153 -1.57926 -0.156575 0
M  V30 2860 H 271.174 -2.77935 -2.5987 0
M  V30 2861 H 270.686 -3.73746 -1.04574 0
M  V30 2862 H 268.787 -2.22208 -2.99089 0
M  V30 2863 H 268.9 -4.05456 -2.5523 0
M  V30 2864 H 267.264 -2.10239 -1.43777 0
M  V30 2865 H 268.047 -3.41 -0.396728 0
M  V30 2866 N 270.492 0.636531 -1.44174 0
M  V30 2867 C 271.424 1.7618 -1.46606 0
M  V30 2868 C 272.437 1.58768 -0.360091 0
M  V30 2869 O 273.626 1.67181 -0.625518 0
M  V30 2870 C 270.726 3.13833 -1.27915 0
M  V30 2871 C 269.899 3.57753 -2.51658 0
M  V30 2872 C 268.958 4.74265 -2.27945 0
M  V30 2873 O 267.984 4.82852 -3.01401 0
M  V30 2874 N 269.186 5.65604 -1.30662 0
M  V30 2875 H 271.951 1.74567 -2.43612 0
M  V30 2876 H 269.512 0.820924 -1.39544 0
M  V30 2877 H 271.504 3.8949 -1.09907 0
M  V30 2878 H 270.074 3.10121 -0.39293 0
M  V30 2879 H 269.294 2.72362 -2.84978 0
M  V30 2880 H 270.582 3.83847 -3.33974 0
M  V30 2881 H 269.98 5.61354 -0.699844 0
M  V30 2882 H 268.537 6.40913 -1.18634 0
M  V30 2883 N 271.97 1.30982 0.876444 0
M  V30 2884 C 273.217 1.20296 1.62896 0
M  V30 2885 C 273.545 -0.240395 1.93009 0
M  V30 2886 O 272.8 -1.18733 1.55567 0
M  V30 2887 C 273.099 1.98572 2.9716 0
M  V30 2888 C 272.765 3.48125 2.86566 0
M  V30 2889 C 271.427 3.88905 2.83383 0
M  V30 2890 C 273.779 4.43322 2.74071 0
M  V30 2891 C 271.107 5.2316 2.65556 0
M  V30 2892 C 273.459 5.77695 2.57781 0
M  V30 2893 C 272.123 6.17704 2.52979 0
M  V30 2894 H 271.393 0.440193 0.59608 0
M  V30 2895 H 274.04 1.62177 1.01837 0
M  V30 2896 H 272.345 1.49352 3.62217 0
M  V30 2897 H 274.042 1.8769 3.54364 0
M  V30 2898 H 270.632 3.15723 2.89856 0
M  V30 2899 H 274.816 4.12752 2.75589 0
M  V30 2900 H 270.072 5.53241 2.60259 0
M  V30 2901 H 274.246 6.51091 2.47089 0
M  V30 2902 H 271.873 7.21678 2.38924 0
M  V30 2903 N 273.449 -1.08991 1.13837 0
M  V30 2904 C 274.379 -2.17771 0.842507 0
M  V30 2905 C 275.36 -1.6892 -0.20001 0
M  V30 2906 O 276.545 -1.94113 -0.0579731 0
M  V30 2907 C 273.675 -3.4589 0.312644 0
M  V30 2908 C 272.629 -4.08099 1.28992 0
M  V30 2909 C 271.955 -5.31098 0.619623 0
M  V30 2910 C 273.255 -4.50077 2.65005 0
M  V30 2911 H 274.949 -2.42777 1.75213 0
M  V30 2912 H 272.495 -1.16682 0.843875 0
M  V30 2913 H 274.448 -4.21297 0.0933043 0
M  V30 2914 H 273.172 -3.20419 -0.632382 0
M  V30 2915 H 271.831 -3.34717 1.49533 0
M  V30 2916 H 271.479 -5.0191 -0.33102 0
M  V30 2917 H 271.179 -5.73674 1.27167 0
M  V30 2918 H 272.703 -6.09224 0.409669 0
M  V30 2919 H 274.117 -5.16688 2.48407 0
M  V30 2920 H 272.514 -5.03553 3.26427 0
M  V30 2921 H 273.584 -3.62257 3.22332 0
M  V30 2922 N 274.927 -0.932562 -1.27047 0
M  V30 2923 C 276.175 -0.574422 -1.93765 0
M  V30 2924 C 276.496 0.887993 -1.73608 0
M  V30 2925 O 275.766 1.62999 -1.08665 0
M  V30 2926 H 274.346 -0.209451 -0.717035 0
M  V30 2927 H 277.008 -1.18601 -1.5466 0
M  V30 2928 H 276.104 -0.784841 -3.02071 0
M  V30 2929 N 276.405 1.4127 -0.698611 0
M  V30 2930 C 277.338 2.28195 0.0153898 0
M  V30 2931 C 278.316 1.42402 0.784883 0
M  V30 2932 O 279.5 1.71828 0.775067 0
M  V30 2933 C 276.627 3.22685 1.02918 0
M  V30 2934 C 275.673 4.25041 0.352501 0
M  V30 2935 S 276.506 5.27757 -0.907322 0
M  V30 2936 C 277.662 6.25812 0.104796 0
M  V30 2937 H 277.895 2.88403 -0.721858 0
M  V30 2938 H 275.428 1.46452 -0.488996 0
M  V30 2939 H 277.386 3.77655 1.60893 0
M  V30 2940 H 276.047 2.61566 1.73902 0
M  V30 2941 H 275.24 4.91437 1.11828 0
M  V30 2942 H 274.842 3.73682 -0.154254 0
M  V30 2943 H 277.134 6.70705 0.957103 0
M  V30 2944 H 278.077 7.06149 -0.525323 0
M  V30 2945 H 278.485 5.62615 0.460931 0
M  V30 2946 N 277.883 0.443576 1.51229 0
M  V30 2947 C 279.113 -0.119117 2.06256 0
M  V30 2948 C 279.521 -1.36471 1.31043 0
M  V30 2949 O 278.864 -1.80034 0.365151 0
M  V30 2950 C 278.926 -0.500546 3.55998 0
M  V30 2951 C 278.59 0.639125 4.52509 0
M  V30 2952 C 279.587 1.51311 4.97394 0
M  V30 2953 C 277.272 0.821632 4.95535 0
M  V30 2954 C 279.266 2.55425 5.83984 0
M  V30 2955 C 276.953 1.86603 5.81913 0
M  V30 2956 C 277.951 2.73072 6.26036 0
M  V30 2957 O 277.639 3.75718 7.10698 0
M  V30 2958 H 277.371 -0.00857665 0.675946 0
M  V30 2959 H 279.925 0.623288 1.95715 0
M  V30 2960 H 278.155 -1.29575 3.64345 0
M  V30 2961 H 279.844 -0.995116 3.93513 0
M  V30 2962 H 280.61 1.38367 4.64844 0
M  V30 2963 H 276.489 0.158149 4.60729 0
M  V30 2964 H 280.033 3.22949 6.18344 0
M  V30 2965 H 275.93 1.99564 6.13876 0
M  V30 2966 H 276.698 3.72374 7.2889 0
M  V30 2967 N 279.361 -1.56624 0.175154 0
M  V30 2968 C 280.777 -1.58571 -0.180966 0
M  V30 2969 C 280.977 -1.19065 -1.6256 0
M  V30 2970 O 280.033 -0.904044 -2.35761 0
M  V30 2971 C 281.346 -3.00522 0.103326 0
M  V30 2972 C 282.894 -3.12972 0.0418426 0
M  V30 2973 C 283.369 -4.57022 0.299175 0
M  V30 2974 N 284.86 -4.62541 0.247086 0
M  V30 2975 C 285.595 -5.71857 0.420318 0
M  V30 2976 N 285.091 -6.89717 0.652816 0
M  V30 2977 N 286.884 -5.60972 0.355957 0
M  V30 2978 H 279.035 -1.80589 1.11809 0
M  V30 2979 H 281.298 -0.837178 0.444788 0
M  V30 2980 H 281.004 -3.33916 1.10422 0
M  V30 2981 H 280.878 -3.72344 -0.603299 0
M  V30 2982 H 283.265 -2.79403 -0.949636 0
M  V30 2983 H 283.346 -2.43578 0.781238 0
M  V30 2984 H 282.99 -4.913 1.28788 0
M  V30 2985 H 282.92 -5.24579 -0.460876 0
M  V30 2986 H 285.411 -3.77829 0.0731895 0
M  V30 2987 H 285.724 -7.68911 0.774347 0
M  V30 2988 H 284.069 -6.91572 0.689476 0
M  V30 2989 H 287.26 -4.67773 0.174882 0
M  V30 2990 H 287.433 -6.46111 0.494388 0
M  V30 2991 N 280.839 0.0985539 -1.57292 0
M  V30 2992 C 282.085 0.803867 -1.86188 0
M  V30 2993 C 282.418 1.78549 -0.763794 0
M  V30 2994 O 281.693 1.93153 0.22855 0
M  V30 2995 C 281.976 1.53568 -3.25713 0
M  V30 2996 C 281.829 0.572277 -4.46145 0
M  V30 2997 C 283.148 2.48708 -3.63087 0
M  V30 2998 H 280.267 0.290781 -0.677211 0
M  V30 2999 H 282.909 0.0675783 -1.8988 0
M  V30 3000 H 281.059 2.16332 -3.22696 0
M  V30 3001 H 282.731 -0.0480894 -4.61275 0
M  V30 3002 H 280.974 -0.114618 -4.33649 0
M  V30 3003 H 281.645 1.12139 -5.40489 0
M  V30 3004 H 284.121 1.96039 -3.67026 0
M  V30 3005 H 282.997 2.96932 -4.61652 0
M  V30 3006 H 283.258 3.32309 -2.91588 0
M  V30 3007 N 282.317 1.53212 0.369288 0
M  V30 3008 C 283.542 1.73423 1.1375 0
M  V30 3009 C 283.967 0.460404 1.82378 0
M  V30 3010 O 283.325 -0.585298 1.71592 0
M  V30 3011 C 283.373 2.89769 2.1463 0
M  V30 3012 O 282.477 2.58119 3.21634 0
M  V30 3013 H 281.818 0.576061 0.330227 0
M  V30 3014 H 284.348 2.00083 0.427547 0
M  V30 3015 H 284.358 3.15829 2.58294 0
M  V30 3016 H 283.033 3.8217 1.64071 0
M  V30 3017 H 281.61 2.42864 2.82969 0
M  V30 3018 N 283.795 -0.628877 1.44509 0
M  V30 3019 C 285.041 -1.39045 1.47629 0
M  V30 3020 C 285.374 -1.93892 0.109343 0
M  V30 3021 O 284.649 -1.7379 -0.87334 0
M  V30 3022 C 284.932 -2.55408 2.53848 0
M  V30 3023 C 284.785 -2.05896 3.99909 0
M  V30 3024 C 286.104 -3.5759 2.56549 0
M  V30 3025 H 283.223 -0.504232 0.537512 0
M  V30 3026 H 285.865 -0.710854 1.76201 0
M  V30 3027 H 284.015 -3.13384 2.29615 0
M  V30 3028 H 285.687 -1.52734 4.35282 0
M  V30 3029 H 283.93 -1.37061 4.11578 0
M  V30 3030 H 284.601 -2.89681 4.69882 0
M  V30 3031 H 287.077 -3.09419 2.78207 0
M  V30 3032 H 285.953 -4.36527 3.32769 0
M  V30 3033 H 286.214 -4.11808 1.60832 0
M  V30 3034 N 285.273 -1.31445 -0.869486 0
M  V30 3035 C 286.55 -1.11795 -1.60503 0
M  V30 3036 C 286.93 0.327168 -2.08549 0
M  V30 3037 O 286.278 1.32135 -1.8642 0
M  V30 3038 C 286.488 -2.13258 -2.76265 0
M  V30 3039 C 287.836 -2.45805 -3.46215 0
M  V30 3040 O 288.86 -2.11688 -2.86473 0
M  V30 3041 O 287.719 -3.04228 -4.5399 0
M  V30 3042 H 284.813 -0.430421 -0.706163 0
M  V30 3043 H 287.359 -1.42925 -0.914907 0
M  V30 3044 H 286.131 -3.10461 -2.3818 0
M  V30 3045 H 285.754 -1.83035 -3.52964 0
M  V30 3046 N 286.751 1.08385 -1.14413 0
M  V30 3047 C 287.699 2.17406 -0.826888 0
M  V30 3048 C 288.693 1.6827 0.195312 0
M  V30 3049 O 289.899 1.79927 0.0513892 0
M  V30 3050 H 286.274 0.70934 -0.249681 0
M  V30 3051 H 288.245 2.41388 -1.75426 0
M  V30 3052 C 286.994 3.46215 -0.320979 0
M  V30 3053 H 286.317 3.84401 -1.0989 0
M  V30 3054 H 287.757 4.23777 -0.137549 0
M  V30 3055 C 286.216 3.23067 0.955472 0
M  V30 3056 O 286.746 3.4668 2.02918 0
M  V30 3057 N 284.952 2.7661 0.890798 0
M  V30 3058 H 284.499 2.57594 0.0168815 0
M  V30 3059 H 284.457 2.61501 1.74542 0
M  V30 3060 N 288.23 0.939286 1.26551 0
M  V30 3061 C 289.14 0.453432 2.30176 0
M  V30 3062 C 290.156 -0.471649 1.67486 0
M  V30 3063 O 291.332 -0.35164 1.98306 0
M  V30 3064 C 288.397 -0.275326 3.45605 0
M  V30 3065 C 287.458 0.686084 4.23782 0
M  V30 3066 C 286.691 -0.00798994 5.33699 0
M  V30 3067 O 286.914 -1.22528 5.57085 0
M  V30 3068 O 285.848 0.669746 5.98162 0
M  V30 3069 H 289.674 1.31416 2.73795 0
M  V30 3070 H 287.259 0.705095 1.31715 0
M  V30 3071 H 289.141 -0.685911 4.1578 0
M  V30 3072 H 287.816 -1.11147 3.0402 0
M  V30 3073 H 286.723 1.14658 3.56096 0
M  V30 3074 H 288.056 1.48979 4.69112 0
M  V30 3075 N 289.708 -1.40897 0.706093 0
M  V30 3076 C 290.985 -1.94868 0.169099 0
M  V30 3077 C 291.365 -1.64485 -1.32318 0
M  V30 3078 O 290.713 -0.95744 -2.07474 0
M  V30 3079 C 290.923 -3.45798 0.471654 0
M  V30 3080 C 292.271 -4.22663 0.405127 0
M  V30 3081 O 293.295 -3.53865 0.407168 0
M  V30 3082 O 292.154 -5.45216 0.374383 0
M  V30 3083 H 289.248 -0.82673 0.0211352 0
M  V30 3084 H 291.794 -1.50558 0.782976 0
M  V30 3085 H 290.566 -3.61235 1.50416 0
M  V30 3086 H 290.189 -3.97225 -0.172666 0
M  V30 3087 N 291.186 -0.45159 -1.50991 0
M  V30 3088 C 292.411 0.110667 -2.07105 0
M  V30 3089 C 292.836 1.3446 -1.31538 0
M  V30 3090 O 292.194 1.77743 -0.357365 0
M  V30 3091 C 292.242 0.397238 -3.58405 0
M  V30 3092 O 291.346 1.48124 -3.84881 0
M  V30 3093 H 290.687 -0.00439271 -0.663985 0
M  V30 3094 H 293.217 -0.637026 -1.9443 0
M  V30 3095 H 293.227 0.64351 -4.02893 0
M  V30 3096 H 291.902 -0.504553 -4.12828 0
M  V30 3097 H 290.479 1.22381 -3.52246 0
M  V30 3098 N 292.664 1.56529 -0.183458 0
M  V30 3099 C 293.894 2.01331 0.463612 0
M  V30 3100 C 294.302 1.06278 1.5653 0
M  V30 3101 O 293.645 0.0577976 1.83609 0
M  V30 3102 C 293.707 3.42547 1.09096 0
M  V30 3103 C 293.371 4.56817 0.129442 0
M  V30 3104 C 294.368 5.15734 -0.656807 0
M  V30 3105 C 292.053 5.02295 0.02174 0
M  V30 3106 C 294.047 6.1857 -1.53784 0
M  V30 3107 C 291.734 6.04978 -0.862864 0
M  V30 3108 C 292.732 6.62988 -1.64123 0
M  V30 3109 O 292.42 7.63677 -2.51103 0
M  V30 3110 H 292.152 0.664917 0.121907 0
M  V30 3111 H 294.706 2.034 -0.285954 0
M  V30 3112 H 292.936 3.37428 1.88889 0
M  V30 3113 H 294.625 3.71228 1.64148 0
M  V30 3114 H 295.391 4.81473 -0.583839 0
M  V30 3115 H 291.27 4.56847 0.617392 0
M  V30 3116 H 294.814 6.63777 -2.14583 0
M  V30 3117 H 290.711 6.38663 -0.93699 0
M  V30 3118 H 291.479 7.81049 -2.44753 0
M  V30 3119 N 294.142 -0.090211 1.57342 0
M  V30 3120 C 295.075 -1.14035 1.97664 0
M  V30 3121 C 296.053 -1.38576 0.850616 0
M  V30 3122 O 297.237 -1.52255 1.11134 0
M  V30 3123 C 294.364 -2.48854 2.2976 0
M  V30 3124 C 293.41 -2.40564 3.52181 0
M  V30 3125 S 294.243 -1.81745 5.03715 0
M  V30 3126 C 295.399 -3.18178 5.38993 0
M  V30 3127 H 295.632 -0.796636 2.86428 0
M  V30 3128 H 293.165 -0.298072 1.51496 0
M  V30 3129 H 295.123 -3.26413 2.48927 0
M  V30 3130 H 293.784 -2.80393 1.41558 0
M  V30 3131 H 292.977 -3.39942 3.72096 0
M  V30 3132 H 292.579 -1.71135 3.32549 0
M  V30 3133 H 294.871 -4.14461 5.35937 0
M  V30 3134 H 295.814 -3.03062 6.39968 0
M  V30 3135 H 296.222 -3.17935 4.66452 0
M  V30 3136 N 295.62 -1.53406 -0.361157 0
M  V30 3137 C 296.55 -1.83136 -1.44857 0
M  V30 3138 C 297.531 -0.685174 -1.5569 0
M  V30 3139 O 298.716 -0.93544 -1.70186 0
M  V30 3140 C 295.846 -2.02522 -2.82138 0
M  V30 3141 C 294.8 -3.18302 -2.86126 0
M  V30 3142 C 294.126 -3.22989 -4.26125 0
M  V30 3143 C 295.426 -4.56796 -2.53248 0
M  V30 3144 H 297.12 -2.74201 -1.20226 0
M  V30 3145 H 294.666 -1.31938 -0.576922 0
M  V30 3146 H 296.619 -2.21904 -3.58241 0
M  V30 3147 H 295.343 -1.08172 -3.08166 0
M  V30 3148 H 294.002 -2.98747 -2.12475 0
M  V30 3149 H 293.65 -2.26267 -4.49235 0
M  V30 3150 H 293.35 -4.00781 -4.29708 0
M  V30 3151 H 294.874 -3.44559 -5.04094 0
M  V30 3152 H 296.288 -4.7631 -3.19064 0
M  V30 3153 H 294.685 -5.36862 -2.68141 0
M  V30 3154 H 295.755 -4.61606 -1.48484 0
M  V30 3155 N 297.098 0.621204 -1.44841 0
M  V30 3156 C 298.344 1.3826 -1.48365 0
M  V30 3157 C 298.677 1.93831 -0.119624 0
M  V30 3158 O 297.952 1.74251 0.864111 0
M  V30 3159 C 298.235 2.54058 -2.55199 0
M  V30 3160 C 298.088 2.03772 -4.00995 0
M  V30 3161 C 299.407 3.56225 -2.58442 0
M  V30 3162 H 296.526 0.501374 -0.540179 0
M  V30 3163 H 299.168 0.7015 -1.76576 0
M  V30 3164 H 297.318 3.12162 -2.31274 0
M  V30 3165 H 298.99 1.50423 -4.36086 0
M  V30 3166 H 297.233 1.34876 -4.12299 0
M  V30 3167 H 297.904 2.87185 -4.71411 0
M  V30 3168 H 300.38 3.07939 -2.79844 0
M  V30 3169 H 299.256 4.34756 -3.3508 0
M  V30 3170 H 299.517 4.10949 -1.63013 0
M  V30 3171 N 298.576 1.31904 0.862503 0
M  V30 3172 C 299.509 1.14514 1.97388 0
M  V30 3173 C 300.487 0.0466493 1.62533 0
M  V30 3174 O 301.671 0.204484 1.87388 0
M  V30 3175 C 298.798 0.751347 3.30261 0
M  V30 3176 C 297.844 1.85395 3.84098 0
M  V30 3177 S 298.677 3.46081 4.08642 0
M  V30 3178 C 299.833 3.08655 5.44502 0
M  V30 3179 H 300.066 2.08597 2.11836 0
M  V30 3180 H 297.599 1.16475 1.01356 0
M  V30 3181 H 299.557 0.530901 4.07052 0
M  V30 3182 H 298.218 -0.170493 3.13637 0
M  V30 3183 H 297.411 1.53122 4.80177 0
M  V30 3184 H 297.013 2.02984 3.14123 0
M  V30 3185 H 299.305 2.58012 6.26447 0
M  V30 3186 H 300.248 4.03726 5.81731 0
M  V30 3187 H 300.656 2.45891 5.08132 0
M  V30 3188 N 300.054 -1.07777 1.14986 0
M  V30 3189 C 301.47 -1.32373 0.891596 0
M  V30 3190 C 301.67 -1.9609 -0.463788 0
M  V30 3191 O 300.726 -2.21801 -1.20667 0
M  V30 3192 C 302.039 -2.21905 2.02925 0
M  V30 3193 C 303.587 -2.35367 2.06329 0
M  V30 3194 C 304.062 -3.28245 3.19405 0
M  V30 3195 N 305.553 -3.35824 3.19024 0
M  V30 3196 C 306.288 -4.07739 4.03158 0
M  V30 3197 N 305.784 -4.82306 4.97346 0
M  V30 3198 N 307.577 -4.03635 3.91197 0
M  V30 3199 H 299.728 -0.648039 2.02273 0
M  V30 3200 H 301.991 -0.348149 0.881757 0
M  V30 3201 H 301.697 -1.82342 3.0074 0
M  V30 3202 H 301.571 -3.22407 1.95789 0
M  V30 3203 H 303.958 -2.74186 1.09116 0
M  V30 3204 H 304.039 -1.34585 2.17533 0
M  V30 3205 H 303.683 -2.90146 4.16867 0
M  V30 3206 H 303.613 -4.28971 3.05437 0
M  V30 3207 H 306.104 -2.8267 2.50811 0
M  V30 3208 H 306.417 -5.34661 5.57994 0
M  V30 3209 H 304.762 -4.81337 5.01338 0
M  V30 3210 H 307.953 -3.44491 3.16928 0
M  V30 3211 H 308.126 -4.59417 4.5699 0
M  V30 3212 N 301.532 -0.945985 -1.26051 0
M  V30 3213 C 302.48 -0.450259 -2.282 0
M  V30 3214 C 303.474 0.47497 -1.62605 0
M  V30 3215 O 304.68 0.352653 -1.76512 0
M  V30 3216 H 301.055 -0.127081 -0.741184 0
M  V30 3217 H 303.026 -1.32422 -2.67408 0
M  V30 3218 C 301.775 0.26467 -3.46691 0
M  V30 3219 H 301.098 -0.438123 -3.97392 0
M  V30 3220 H 302.538 0.575678 -4.20074 0
M  V30 3221 C 300.997 1.48416 -3.02447 0
M  V30 3222 O 301.527 2.58227 -3.07704 0
M  V30 3223 N 299.733 1.34243 -2.57735 0
M  V30 3224 H 299.28 0.448994 -2.53657 0
M  V30 3225 H 299.238 2.15957 -2.28495 0
M  V30 3226 N 303.011 1.40521 -0.713556 0
M  V30 3227 C 303.944 2.28198 -0.00881422 0
M  V30 3228 C 304.922 1.43227 0.769735 0
M  V30 3229 O 306.106 1.72641 0.756799 0
M  V30 3230 C 303.233 3.23758 0.994899 0
M  V30 3231 C 302.279 4.25391 0.3074 0
M  V30 3232 S 303.112 5.26765 -0.963247 0
M  V30 3233 C 304.268 6.25888 0.0384143 0
M  V30 3234 H 304.501 2.87622 -0.752407 0
M  V30 3235 H 302.034 1.45925 -0.504502 0
M  V30 3236 H 303.992 3.79341 1.56879 0
M  V30 3237 H 302.653 2.63396 1.71118 0
M  V30 3238 H 301.846 4.92596 1.0661 0
M  V30 3239 H 301.448 3.73497 -0.193879 0
M  V30 3240 H 303.74 6.71683 0.885912 0
M  V30 3241 H 304.683 7.05552 -0.60019 0
M  V30 3242 H 305.091 5.63072 0.401233 0
M  V30 3243 N 304.489 0.459591 1.5075 0
M  V30 3244 C 305.736 -0.0993495 2.02256 0
M  V30 3245 C 306.064 -1.40751 1.34237 0
M  V30 3246 O 305.319 -1.90379 0.453228 0
M  V30 3247 C 305.618 -0.342866 3.55752 0
M  V30 3248 C 305.284 0.88218 4.42186 0
M  V30 3249 C 303.946 1.21808 4.65528 0
M  V30 3250 C 306.298 1.69837 4.92752 0
M  V30 3251 C 303.626 2.37045 5.36681 0
M  V30 3252 C 305.978 2.84192 5.65171 0
M  V30 3253 C 304.642 3.1821 5.8677 0
M  V30 3254 H 303.912 -0.0363545 0.740108 0
M  V30 3255 H 306.559 0.611329 1.8148 0
M  V30 3256 H 304.864 -1.13567 3.7498 0
M  V30 3257 H 306.561 -0.789121 3.93159 0
M  V30 3258 H 303.151 0.610467 4.2423 0
M  V30 3259 H 307.335 1.45205 4.74583 0
M  V30 3260 H 302.591 2.63689 5.51614 0
M  V30 3261 H 306.765 3.4779 6.03337 0
M  V30 3262 H 304.392 4.07613 6.41682 0
M  V30 3263 N 305.967 -1.56429 0.191757 0
M  V30 3264 C 307.192 -2.02309 -0.456706 0
M  V30 3265 C 307.617 -1.07103 -1.5463 0
M  V30 3266 O 306.975 -0.0539677 -1.8122 0
M  V30 3267 C 307.023 -3.46654 -0.993159 0
M  V30 3268 O 306.127 -3.54559 -2.10622 0
M  V30 3269 H 305.468 -0.655303 -0.107114 0
M  V30 3270 H 307.998 -2.02364 0.301653 0
M  V30 3271 H 308.008 -3.86377 -1.31061 0
M  V30 3272 H 306.683 -4.1544 -0.195504 0
M  V30 3273 H 305.26 -3.26708 -1.79767 0
M  V30 3274 N 307.445 0.0818655 -1.57387 0
M  V30 3275 C 308.395 1.10501 -1.99433 0
M  V30 3276 C 309.379 1.35041 -0.874798 0
M  V30 3277 O 310.571 1.35511 -1.13868 0
M  V30 3278 C 307.7 2.42159 -2.43339 0
M  V30 3279 C 306.786 2.20937 -3.62005 0
M  V30 3280 N 307.177 1.69616 -4.76512 0
M  V30 3281 C 305.475 2.51451 -3.68359 0
M  V30 3282 C 306.176 1.62973 -5.58404 0
M  V30 3283 N 305.152 2.08664 -5.01956 0
M  V30 3284 H 308.954 0.701373 -2.85408 0
M  V30 3285 H 306.468 0.289096 -1.59806 0
M  V30 3286 H 308.465 3.16208 -2.71695 0
M  V30 3287 H 307.125 2.83249 -1.58746 0
M  V30 3288 H 308.136 1.38624 -4.99003 0
M  V30 3289 H 304.813 2.95975 -2.94457 0
M  V30 3290 H 306.203 1.24233 -6.60315 0
M  V30 3291 N 308.923 1.53595 0.353017 0
M  V30 3292 C 310.339 1.43648 0.695516 0
M  V30 3293 C 310.539 0.585617 1.92802 0
M  V30 3294 O 309.595 0.0729223 2.52395 0
M  V30 3295 C 310.908 2.8701 0.896991 0
M  V30 3296 C 312.456 2.96723 0.996209 0
M  V30 3297 C 312.931 4.41173 1.23007 0
M  V30 3298 N 314.422 4.44657 1.29749 0
M  V30 3299 C 315.157 5.53547 1.49577 0
M  V30 3300 N 314.653 6.72461 1.66639 0
M  V30 3301 N 316.446 5.41145 1.52048 0
M  V30 3302 H 308.597 2.07415 -0.457481 0
M  V30 3303 H 310.86 0.9372 -0.142687 0
M  V30 3304 H 310.566 3.51644 0.0629938 0
M  V30 3305 H 310.44 3.31401 1.80148 0
M  V30 3306 H 312.827 2.32235 1.82074 0
M  V30 3307 H 312.908 2.55707 0.0688331 0
M  V30 3308 H 312.552 5.06238 0.410505 0
M  V30 3309 H 312.482 4.79772 2.17086 0
M  V30 3310 H 314.973 3.58963 1.18126 0
M  V30 3311 H 315.286 7.51214 1.81378 0
M  V30 3312 H 313.631 6.75423 1.63794 0
M  V30 3313 H 316.822 4.47205 1.38294 0
M  V30 3314 H 316.995 6.26068 1.67159 0
M  V30 3315 N 310.401 -0.613514 1.45168 0
M  V30 3316 C 311.331 -1.7354 1.56225 0
M  V30 3317 C 312.312 -1.64981 0.41414 0
M  V30 3318 O 313.497 -1.83472 0.636526 0
M  V30 3319 C 310.627 -3.12128 1.52295 0
M  V30 3320 C 309.581 -3.35491 2.65762 0
M  V30 3321 C 308.907 -4.74291 2.46885 0
M  V30 3322 C 310.207 -3.26325 4.0781 0
M  V30 3323 H 311.901 -1.64543 2.50132 0
M  V30 3324 H 309.447 -0.790185 1.20383 0
M  V30 3325 H 311.4 -3.90404 1.58628 0
M  V30 3326 H 310.124 -3.2195 0.549139 0
M  V30 3327 H 308.783 -2.59603 2.58847 0
M  V30 3328 H 308.431 -4.80839 1.47657 0
M  V30 3329 H 308.131 -4.9088 3.22972 0
M  V30 3330 H 309.655 -5.54775 2.55063 0
M  V30 3331 H 311.069 -3.94483 4.16 0
M  V30 3332 H 309.466 -3.54445 4.8424 0
M  V30 3333 H 310.536 -2.23855 4.30136 0
M  V30 3334 N 311.879 -1.3236 -0.855495 0
M  V30 3335 C 313.29 -1.2056 -1.42556 0
M  V30 3336 C 313.641 0.182209 -1.95352 0
M  V30 3337 O 312.766 1.08088 -1.87472 0
M  V30 3338 C 313.361 -2.1826 -2.59129 0
M  V30 3339 C 311.92 -2.10351 -3.12137 0
M  V30 3340 C 311.067 -2.06674 -1.84882 0
M  V30 3341 H 314.018 -1.442 -0.662727 0
M  V30 3342 H 314.039 -1.78064 -3.36264 0
M  V30 3343 H 313.551 -3.19257 -2.20673 0
M  V30 3344 H 311.652 -1.12599 -3.55179 0
M  V30 3345 H 311.765 -3.00135 -3.73438 0
M  V30 3346 H 310.129 -1.51901 -2.04446 0
M  V30 3347 H 310.912 -3.09451 -1.48643 0
M  V30 3348 N 313.357 1.07166 -1.15556 0
M  V30 3349 C 314.603 1.80065 -0.932984 0
M  V30 3350 C 314.936 1.86586 0.53845 0
M  V30 3351 O 314.211 1.35098 1.39924 0
M  V30 3352 C 314.494 3.25022 -1.55025 0
M  V30 3353 C 314.347 3.26634 -3.09242 0
M  V30 3354 C 315.666 4.22341 -1.2376 0
M  V30 3355 H 312.785 0.653697 -0.340366 0
M  V30 3356 H 315.427 1.25389 -1.4275 0
M  V30 3357 H 313.577 3.71712 -1.12972 0
M  V30 3358 H 315.249 2.88173 -3.60214 0
M  V30 3359 H 313.492 2.65539 -3.43033 0
M  V30 3360 H 314.163 4.28854 -3.47546 0
M  V30 3361 H 316.639 3.8405 -1.60139 0
M  V30 3362 H 315.515 5.22053 -1.69564 0
M  V30 3363 H 315.776 4.41828 -0.154938 0
M  V30 3364 N 314.835 0.952656 1.25548 0
M  V30 3365 C 315.785 0.442033 2.23674 0
M  V30 3366 C 316.769 -0.467632 1.53955 0
M  V30 3367 O 317.961 -0.301006 1.74422 0
M  V30 3368 C 315.09 -0.280816 3.4215 0
M  V30 3369 C 314.176 0.646803 4.19139 0
M  V30 3370 N 314.567 1.77759 4.73535 0
M  V30 3371 C 312.865 0.454617 4.43677 0
M  V30 3372 C 313.566 2.35658 5.31827 0
M  V30 3373 N 312.542 1.64333 5.18166 0
M  V30 3374 H 316.344 1.30505 2.63336 0
M  V30 3375 H 313.858 0.809904 1.40763 0
M  V30 3376 H 315.855 -0.663747 4.11582 0
M  V30 3377 H 314.515 -1.14046 3.04012 0
M  V30 3378 H 315.526 2.15949 4.7073 0
M  V30 3379 H 312.203 -0.362312 4.15925 0
M  V30 3380 H 313.593 3.30998 5.84713 0
M  V30 3381 N 316.313 -1.40141 0.720998 0
M  V30 3382 C 317.729 -1.54632 0.395113 0
M  V30 3383 C 317.929 -1.69115 -1.09555 0
M  V30 3384 O 316.985 -1.68377 -1.88163 0
M  V30 3385 C 318.298 -2.77177 1.1659 0
M  V30 3386 C 319.846 -2.91 1.15274 0
M  V30 3387 C 320.321 -4.16465 1.90579 0
M  V30 3388 N 321.812 -4.23476 1.87675 0
M  V30 3389 C 322.547 -5.19475 2.42762 0
M  V30 3390 N 322.043 -6.21348 3.06428 0
M  V30 3391 N 323.836 -5.11592 2.32874 0
M  V30 3392 H 315.987 -1.28986 1.68749 0
M  V30 3393 H 318.25 -0.62412 0.713567 0
M  V30 3394 H 317.956 -2.72771 2.22011 0
M  V30 3395 H 317.83 -3.69442 0.76108 0
M  V30 3396 H 320.217 -2.94907 0.106702 0
M  V30 3397 H 320.298 -1.99838 1.59682 0
M  V30 3398 H 319.942 -4.1332 2.95176 0
M  V30 3399 H 319.872 -5.06646 1.43587 0
M  V30 3400 H 322.363 -3.50497 1.41281 0
M  V30 3401 H 322.676 -6.91034 3.45965 0
M  V30 3402 H 321.021 -6.21777 3.10514 0
M  V30 3403 H 324.212 -4.30936 1.82789 0
M  V30 3404 H 324.385 -5.86233 2.76106 0
M  V30 3405 N 317.792 -0.46758 -1.50504 0
M  V30 3406 C 318.739 0.328413 -2.28452 0
M  V30 3407 C 319.709 0.990313 -1.33349 0
M  V30 3408 O 320.894 1.00343 -1.62284 0
M  V30 3409 C 318.034 1.40648 -3.15138 0
M  V30 3410 C 317.147 0.759709 -4.25267 0
M  V30 3411 C 316.282 1.81537 -4.99217 0
M  V30 3412 C 315.321 1.14866 -6.01226 0
M  V30 3413 N 314.458 2.14702 -6.68467 0
M  V30 3414 H 319.298 -0.342603 -2.96024 0
M  V30 3415 H 316.835 -0.180801 -1.45985 0
M  V30 3416 H 318.793 2.04315 -3.63746 0
M  V30 3417 H 317.423 2.04671 -2.49619 0
M  V30 3418 H 316.475 0.0105671 -3.80399 0
M  V30 3419 H 317.787 0.233243 -4.98254 0
M  V30 3420 H 316.941 2.52793 -5.51526 0
M  V30 3421 H 315.68 2.37564 -4.25928 0
M  V30 3422 H 314.685 0.42171 -5.4818 0
M  V30 3423 H 315.91 0.595334 -6.76485 0
M  V30 3424 H 313.856 2.69752 -5.97972 0
M  V30 3425 H 313.773 1.6703 -7.37317 0
M  V30 3426 H 315.041 2.85348 -7.25394 0
M  V30 3427 N 319.27 1.56325 -0.20005 0
M  V30 3428 C 320.5 2.01811 0.442232 0
M  V30 3429 C 320.908 1.07932 1.55394 0
M  V30 3430 O 320.251 0.0772685 1.83537 0
M  V30 3431 C 320.313 3.43685 1.05457 0
M  V30 3432 C 319.977 4.56928 0.0809833 0
M  V30 3433 C 320.974 5.15009 -0.711471 0
M  V30 3434 C 318.659 5.0229 -0.0315364 0
M  V30 3435 C 320.653 6.16904 -1.60336 0
M  V30 3436 C 318.34 6.04028 -0.926981 0
M  V30 3437 C 319.338 6.6121 -1.71146 0
M  V30 3438 O 319.026 7.60971 -2.59189 0
M  V30 3439 H 318.758 0.666173 0.114848 0
M  V30 3440 H 321.312 2.03085 -0.307511 0
M  V30 3441 H 319.542 3.39413 1.85299 0
M  V30 3442 H 321.231 3.72948 1.60201 0
M  V30 3443 H 321.997 4.80827 -0.634873 0
M  V30 3444 H 317.876 4.57476 0.568902 0
M  V30 3445 H 321.42 6.61464 -2.21611 0
M  V30 3446 H 317.317 6.37634 -1.00468 0
M  V30 3447 H 318.085 7.7841 -2.53023 0
M  V30 3448 N 320.748 -0.0735177 1.57428 0
M  V30 3449 C 322.025 -0.805903 1.78226 0
M  V30 3450 C 322.405 -1.95874 0.787189 0
M  V30 3451 O 321.753 -2.2779 -0.180029 0
M  V30 3452 C 321.963 -1.28045 3.24662 0
M  V30 3453 C 323.311 -1.71453 3.88444 0
M  V30 3454 O 324.335 -1.37616 3.28543 0
M  V30 3455 O 323.194 -2.34093 4.93825 0
M  V30 3456 H 320.288 -0.386041 0.73137 0
M  V30 3457 H 322.834 -0.0537269 1.69615 0
M  V30 3458 H 321.606 -0.455476 3.8864 0
M  V30 3459 H 321.229 -2.094 3.37991 0
M  V30 3460 N 322.226 -1.5378 -0.344866 0
M  V30 3461 C 323.156 -1.84662 -1.42906 0
M  V30 3462 C 324.137 -0.701648 -1.54955 0
M  V30 3463 O 325.322 -0.953438 -1.69184 0
M  V30 3464 C 322.452 -2.05503 -2.79974 0
M  V30 3465 C 321.406 -3.21318 -2.82734 0
M  V30 3466 C 320.732 -3.2749 -4.22675 0
M  V30 3467 C 322.032 -4.59456 -2.48389 0
M  V30 3468 H 323.726 -2.75461 -1.17311 0
M  V30 3469 H 321.272 -1.32542 -0.562896 0
M  V30 3470 H 323.225 -2.25691 -3.55867 0
M  V30 3471 H 321.949 -1.11434 -3.07002 0
M  V30 3472 H 320.608 -3.00984 -2.09294 0
M  V30 3473 H 320.256 -2.31019 -4.4681 0
M  V30 3474 H 319.956 -4.05316 -4.25433 0
M  V30 3475 H 321.48 -3.49887 -5.00412 0
M  V30 3476 H 322.894 -4.79667 -3.13995 0
M  V30 3477 H 321.291 -5.39675 -2.62432 0
M  V30 3478 H 322.361 -4.63155 -1.4358 0
M  V30 3479 N 323.704 0.605807 -1.45491 0
M  V30 3480 C 324.651 1.7164 -1.54299 0
M  V30 3481 C 325.621 1.61486 -0.388761 0
M  V30 3482 O 326.806 1.81039 -0.602445 0
M  V30 3483 C 323.946 3.09953 -1.51734 0
M  V30 3484 C 323.059 3.309 -2.77721 0
M  V30 3485 C 322.194 4.59329 -2.66816 0
M  V30 3486 C 321.233 4.7354 -3.87848 0
M  V30 3487 N 320.37 5.9327 -3.75467 0
M  V30 3488 H 325.21 1.63449 -2.49176 0
M  V30 3489 H 322.747 0.796957 -1.23641 0
M  V30 3490 H 324.705 3.89977 -1.48235 0
M  V30 3491 H 323.335 3.17098 -0.604068 0
M  V30 3492 H 322.387 2.44639 -2.913 0
M  V30 3493 H 323.699 3.37274 -3.67488 0
M  V30 3494 H 322.853 5.4755 -2.61292 0
M  V30 3495 H 321.592 4.55355 -1.74651 0
M  V30 3496 H 320.597 3.83741 -3.93729 0
M  V30 3497 H 321.822 4.79309 -4.81082 0
M  V30 3498 H 319.768 5.90338 -2.86072 0
M  V30 3499 H 319.685 6.00811 -4.5887 0
M  V30 3500 H 320.953 6.83984 -3.73879 0
M  V30 3501 N 325.182 1.32811 0.848464 0
M  V30 3502 C 326.43 1.23479 1.59991 0
M  V30 3503 C 326.751 -0.201853 1.93952 0
M  V30 3504 O 326.021 -1.12818 1.60153 0
M  V30 3505 H 324.601 0.454034 0.593179 0
M  V30 3506 H 327.263 1.66412 1.01455 0
M  V30 3507 H 326.359 1.82178 2.53412 0
M  V30 3508 N 326.66 -1.06551 1.16123 0
M  V30 3509 C 327.885 -1.83544 0.965735 0
M  V30 3510 C 328.31 -1.81843 -0.481102 0
M  V30 3511 O 327.668 -1.21732 -1.34354 0
M  V30 3512 C 327.716 -3.28169 1.49457 0
M  V30 3513 O 326.82 -4.0643 0.699157 0
M  V30 3514 H 326.161 -0.568026 0.343864 0
M  V30 3515 H 328.691 -1.34362 1.54299 0
M  V30 3516 H 328.701 -3.78992 1.51092 0
M  V30 3517 H 327.376 -3.28722 2.54784 0
M  V30 3518 H 325.953 -3.65216 0.7531 0
M  V30 3519 N 328.138 -0.959301 -1.25041 0
M  V30 3520 C 329.068 -0.501388 -2.28053 0
M  V30 3521 C 330.049 0.454673 -1.63911 0
M  V30 3522 O 331.234 0.352618 -1.90972 0
M  V30 3523 C 328.364 0.217224 -3.4662 0
M  V30 3524 C 327.318 -0.654034 -4.22973 0
M  V30 3525 C 326.644 0.195589 -5.34342 0
M  V30 3526 C 327.944 -1.93447 -4.85155 0
M  V30 3527 H 329.638 -1.36238 -2.66608 0
M  V30 3528 H 327.184 -0.656534 -1.28163 0
M  V30 3529 H 329.137 0.548732 -4.17812 0
M  V30 3530 H 327.861 1.1125 -3.07068 0
M  V30 3531 H 326.52 -0.968693 -3.5357 0
M  V30 3532 H 326.168 1.09076 -4.91031 0
M  V30 3533 H 325.868 -0.384091 -5.86343 0
M  V30 3534 H 327.392 0.521958 -6.08365 0
M  V30 3535 H 328.806 -1.66908 -5.48466 0
M  V30 3536 H 327.203 -2.46018 -5.47353 0
M  V30 3537 H 328.273 -2.63466 -4.07079 0
M  V30 3538 N 329.616 1.39756 -0.72842 0
M  V30 3539 C 330.862 2.00942 -0.273892 0
M  V30 3540 C 331.195 1.57656 1.13394 0
M  V30 3541 O 330.47 0.802434 1.77176 0
M  V30 3542 C 330.753 3.58211 -0.368346 0
M  V30 3543 C 330.606 4.11534 -1.81548 0
M  V30 3544 C 331.925 4.39372 0.253054 0
M  V30 3545 H 329.044 0.730047 -0.100996 0
M  V30 3546 H 331.686 1.66056 -0.923337 0
M  V30 3547 H 329.836 3.88061 0.184588 0
M  V30 3548 H 331.508 3.92431 -2.42478 0
M  V30 3549 H 329.751 3.65341 -2.33898 0
M  V30 3550 H 330.422 5.20682 -1.83288 0
M  V30 3551 H 332.898 4.15527 -0.218224 0
M  V30 3552 H 331.774 5.48677 0.156585 0
M  V30 3553 H 332.035 4.21358 1.33826 0
M  V30 3554 N 331.094 0.475555 1.50254 0
M  V30 3555 C 332.319 -0.0777042 2.07254 0
M  V30 3556 C 332.744 -1.3235 1.3366 0
M  V30 3557 O 332.102 -1.77152 0.385597 0
M  V30 3558 C 332.15 -0.340169 3.58992 0
M  V30 3559 O 331.254 -1.41982 3.87188 0
M  V30 3560 H 330.595 0.0149556 0.663832 0
M  V30 3561 H 333.125 0.667878 1.93392 0
M  V30 3562 H 333.135 -0.579332 4.03866 0
M  V30 3563 H 331.81 0.570167 4.11973 0
M  V30 3564 H 330.387 -1.16762 3.54148 0
M  V30 3565 N 332.573 -1.56217 0.208337 0
M  V30 3566 C 333.989 -1.58919 -0.14729 0
M  V30 3567 C 334.189 -1.22486 -1.59998 0
M  V30 3568 O 333.245 -0.953849 -2.3379 0
M  V30 3569 C 334.558 -3.00236 0.167048 0
M  V30 3570 C 336.106 -3.12813 0.108219 0
M  V30 3571 C 336.581 -4.56284 0.396049 0
M  V30 3572 N 338.072 -4.61912 0.345142 0
M  V30 3573 C 338.807 -5.70837 0.541523 0
M  V30 3574 N 338.303 -6.88178 0.798968 0
M  V30 3575 N 340.096 -5.60091 0.474867 0
M  V30 3576 H 332.247 -1.78177 1.15614 0
M  V30 3577 H 334.51 -0.827555 0.462446 0
M  V30 3578 H 334.216 -3.31499 1.1748 0
M  V30 3579 H 334.09 -3.7354 -0.524184 0
M  V30 3580 H 336.477 -2.81354 -0.890157 0
M  V30 3581 H 336.558 -2.41866 0.832729 0
M  V30 3582 H 336.202 -4.88458 1.3918 0
M  V30 3583 H 336.132 -5.25439 -0.349502 0
M  V30 3584 H 338.623 -3.77589 0.153316 0
M  V30 3585 H 338.936 -7.67095 0.93727 0
M  V30 3586 H 337.281 -6.89953 0.836013 0
M  V30 3587 H 340.472 -4.67297 0.274064 0
M  V30 3588 H 340.645 -6.44917 0.631326 0
M  V30 3589 N 334.051 0.0651679 -1.57465 0
M  V30 3590 C 334.961 1.09448 -2.07505 0
M  V30 3591 C 335.977 1.41974 -1.00595 0
M  V30 3592 O 337.153 1.52018 -1.32107 0
M  V30 3593 C 334.218 2.38689 -2.51453 0
M  V30 3594 C 333.279 2.13073 -3.72691 0
M  V30 3595 C 332.512 3.36152 -4.14533 0
M  V30 3596 O 332.735 4.45517 -3.56189 0
M  V30 3597 O 331.669 3.23974 -5.07272 0
M  V30 3598 H 335.495 0.69935 -2.95538 0
M  V30 3599 H 333.08 0.279752 -1.46757 0
M  V30 3600 H 334.962 3.14736 -2.80212 0
M  V30 3601 H 333.637 2.77568 -1.66546 0
M  V30 3602 H 332.544 1.34709 -3.49005 0
M  V30 3603 H 333.877 1.79071 -4.5847 0
M  V30 3604 N 335.529 1.53961 0.336706 0
M  V30 3605 C 336.492 1.81724 1.39675 0
M  V30 3606 C 337.492 0.688532 1.45313 0
M  V30 3607 O 338.682 0.956829 1.45569 0
M  V30 3608 C 335.814 1.96543 2.78538 0
M  V30 3609 H 337.007 2.76424 1.16318 0
M  V30 3610 H 334.56 1.45478 0.571474 0
M  V30 3611 H 335.295 1.0401 3.07168 0
M  V30 3612 H 335.08 2.78665 2.75841 0
M  V30 3613 H 336.57 2.19516 3.5525 0
M  V30 3614 N 337.007 -0.598083 1.45811 0
M  V30 3615 C 338.232 -1.3881 1.54099 0
M  V30 3616 C 338.657 -1.8726 0.177578 0
M  V30 3617 O 338.015 -1.6069 -0.839541 0
M  V30 3618 C 338.063 -2.56217 2.53743 0
M  V30 3619 O 337.167 -3.5716 2.06182 0
M  V30 3620 H 336.508 -0.414024 0.519115 0
M  V30 3621 H 339.038 -0.726971 1.91249 0
M  V30 3622 H 339.048 -3.03337 2.72856 0
M  V30 3623 H 337.723 -2.20303 3.5276 0
M  V30 3624 H 336.3 -3.16624 1.96987 0
M  V30 3625 N 338.485 -1.33259 -0.841409 0
M  V30 3626 C 339.762 -1.15174 -1.58096 0
M  V30 3627 C 340.142 0.282858 -2.09196 0
M  V30 3628 O 339.49 1.28151 -1.89181 0
M  V30 3629 C 339.7 -2.1907 -2.71679 0
M  V30 3630 C 341.048 -2.53093 -3.40924 0
M  V30 3631 O 342.072 -2.17717 -2.81918 0
M  V30 3632 O 340.931 -3.1379 -4.47435 0
M  V30 3633 H 338.025 -0.445303 -0.696875 0
M  V30 3634 H 340.571 -1.44833 -0.884385 0
M  V30 3635 H 339.343 -3.15443 -2.31541 0
M  V30 3636 H 338.966 -1.90481 -3.49002 0
M  V30 3637 N 339.963 1.05934 -1.16686 0
M  V30 3638 C 340.91 2.13499 -0.876748 0
M  V30 3639 C 341.88 1.65162 0.176299 0
M  V30 3640 O 343.065 1.90757 0.0407143 0
M  V30 3641 C 340.205 3.42912 -0.387967 0
M  V30 3642 C 339.318 4.04964 -1.50426 0
M  V30 3643 C 338.453 5.22266 -0.970125 0
M  V30 3644 C 337.492 5.76309 -2.06238 0
M  V30 3645 N 336.629 6.84922 -1.54356 0
M  V30 3646 H 341.469 2.37654 -1.7979 0
M  V30 3647 H 339.006 1.16598 -0.896843 0
M  V30 3648 H 340.964 4.17111 -0.086186 0
M  V30 3649 H 339.594 3.18963 0.496235 0
M  V30 3650 H 338.646 3.28277 -1.92193 0
M  V30 3651 H 339.958 4.41122 -2.32836 0
M  V30 3652 H 339.112 6.03506 -0.621743 0
M  V30 3653 H 337.851 4.87564 -0.115377 0
M  V30 3654 H 336.856 4.93704 -2.41942 0
M  V30 3655 H 338.081 6.13062 -2.92115 0
M  V30 3656 H 336.027 6.52131 -0.711406 0
M  V30 3657 H 335.944 7.20043 -2.30379 0
M  V30 3658 H 337.212 7.69832 -1.22387 0
M  V30 3659 N 341.441 0.965919 1.2453 0
M  V30 3660 C 342.351 0.502154 2.29163 0
M  V30 3661 C 343.367 -0.436017 1.68448 0
M  V30 3662 O 344.543 -0.309497 1.99008 0
M  V30 3663 C 341.608 -0.201956 3.46111 0
M  V30 3664 C 340.669 0.775821 4.22232 0
M  V30 3665 C 339.902 0.105217 5.33596 0
M  V30 3666 O 340.125 -1.10683 5.59558 0
M  V30 3667 O 339.059 0.796475 5.96607 0
M  V30 3668 H 342.885 1.37194 2.70946 0
M  V30 3669 H 340.47 0.732875 1.30189 0
M  V30 3670 H 342.352 -0.597564 4.17142 0
M  V30 3671 H 341.027 -1.04673 3.06309 0
M  V30 3672 H 339.934 1.22185 3.53584 0
M  V30 3673 H 341.267 1.58896 4.65846 0
M  V30 3674 N 342.919 -1.39368 0.735821 0
M  V30 3675 C 343.866 -2.30599 0.0963825 0
M  V30 3676 C 344.836 -1.49257 -0.728794 0
M  V30 3677 O 346.021 -1.77941 -0.688588 0
M  V30 3678 C 343.161 -3.35596 -0.804305 0
M  V30 3679 C 342.274 -4.31987 0.0335761 0
M  V30 3680 C 341.409 -5.24053 -0.868461 0
M  V30 3681 C 340.448 -6.12095 -0.0258776 0
M  V30 3682 N 339.585 -6.96514 -0.883893 0
M  V30 3683 H 344.425 -2.8471 0.880002 0
M  V30 3684 H 341.962 -1.40188 0.445619 0
M  V30 3685 H 343.92 -3.95062 -1.34096 0
M  V30 3686 H 342.55 -2.82938 -1.55389 0
M  V30 3687 H 341.602 -3.74133 0.68766 0
M  V30 3688 H 342.914 -4.94074 0.685036 0
M  V30 3689 H 342.068 -5.88549 -1.47293 0
M  V30 3690 H 340.807 -4.62289 -1.5537 0
M  V30 3691 H 339.812 -5.4661 0.591386 0
M  V30 3692 H 341.037 -6.75923 0.656156 0
M  V30 3693 H 338.983 -6.37318 -1.55441 0
M  V30 3694 H 338.9 -7.55448 -0.288931 0
M  V30 3695 H 340.168 -7.65439 -1.4739 0
M  V30 3696 N 344.397 -0.483516 -1.5 0
M  V30 3697 C 345.643 0.0672592 -2.02688 0
M  V30 3698 C 345.976 1.38247 -1.36387 0
M  V30 3699 O 345.251 1.88131 -0.493675 0
M  V30 3700 C 345.534 0.238109 -3.59312 0
M  V30 3701 C 345.387 -1.099 -4.36168 0
M  V30 3702 C 346.706 0.986916 -4.28892 0
M  V30 3703 H 343.825 0.0229696 -0.736642 0
M  V30 3704 H 346.467 -0.631527 -1.79197 0
M  V30 3705 H 344.617 0.8333 -3.79458 0
M  V30 3706 H 346.289 -1.73172 -4.27562 0
M  V30 3707 H 344.532 -1.69261 -3.99416 0
M  V30 3708 H 345.203 -0.932954 -5.44059 0
M  V30 3709 H 347.679 0.482302 -4.13295 0
M  V30 3710 H 346.555 1.07527 -5.38265 0
M  V30 3711 H 346.816 2.0265 -3.92919 0
M  V30 3712 N 345.875 1.56104 -0.216619 0
M  V30 3713 C 346.822 2.2007 0.695531 0
M  V30 3714 C 347.792 1.15471 1.19397 0
M  V30 3715 O 348.977 1.43807 1.25396 0
M  V30 3716 C 346.117 2.88073 1.90021 0
M  V30 3717 C 345.23 4.07253 1.44113 0
M  V30 3718 C 344.365 4.63052 2.603 0
M  V30 3719 C 343.404 5.74545 2.11103 0
M  V30 3720 N 342.541 6.24656 3.20545 0
M  V30 3721 H 347.381 2.97655 0.143327 0
M  V30 3722 H 344.918 1.46982 0.0589934 0
M  V30 3723 H 346.876 3.25681 2.60745 0
M  V30 3724 H 345.506 2.13015 2.42538 0
M  V30 3725 H 344.558 3.75164 0.628999 0
M  V30 3726 H 345.87 4.8783 1.04036 0
M  V30 3727 H 345.024 5.03078 3.39113 0
M  V30 3728 H 343.763 3.81628 3.03663 0
M  V30 3729 H 342.768 5.34027 1.3075 0
M  V30 3730 H 343.993 6.57801 1.68746 0
M  V30 3731 H 341.939 5.46148 3.63399 0
M  V30 3732 H 341.856 7.00343 2.84704 0
M  V30 3733 H 343.124 6.69338 3.99508 0
M  V30 3734 N 347.353 -0.0568162 1.57498 0
M  V30 3735 C 348.263 -1.08346 2.08083 0
M  V30 3736 C 349.279 -1.41439 1.01346 0
M  V30 3737 O 350.455 -1.51316 1.32912 0
M  V30 3738 C 347.52 -2.37352 2.52715 0
M  V30 3739 C 346.581 -2.11093 3.73816 0
M  V30 3740 C 345.814 -3.33949 4.1631 0
M  V30 3741 O 346.037 -4.43622 3.58547 0
M  V30 3742 O 344.971 -3.21279 5.08983 0
M  V30 3743 H 348.797 -0.683667 2.95905 0
M  V30 3744 H 346.382 -0.271965 1.46904 0
M  V30 3745 H 348.264 -3.13246 2.81877 0
M  V30 3746 H 346.939 -2.76681 1.68016 0
M  V30 3747 H 345.846 -1.32856 3.49714 0
M  V30 3748 H 347.179 -1.76637 4.59413 0
M  V30 3749 N 348.832 -1.54138 -0.328536 0
M  V30 3750 C 349.762 -1.86167 -1.40939 0
M  V30 3751 C 350.743 -0.718044 -1.54202 0
M  V30 3752 O 351.928 -0.971328 -1.68163 0
M  V30 3753 C 349.058 -2.08461 -2.77779 0
M  V30 3754 C 348.012 -3.24299 -2.7931 0
M  V30 3755 C 347.338 -3.31955 -4.19178 0
M  V30 3756 C 348.638 -4.62065 -2.43502 0
M  V30 3757 H 350.332 -2.76689 -1.14383 0
M  V30 3758 H 347.878 -1.33132 -0.548806 0
M  V30 3759 H 349.831 -2.29453 -3.53454 0
M  V30 3760 H 348.555 -1.14684 -3.05802 0
M  V30 3761 H 347.214 -3.03187 -2.0609 0
M  V30 3762 H 346.862 -2.35745 -4.44335 0
M  V30 3763 H 346.562 -4.09805 -4.2111 0
M  V30 3764 H 348.086 -3.55175 -4.96672 0
M  V30 3765 H 349.5 -4.8297 -3.08889 0
M  V30 3766 H 347.897 -5.42429 -2.56693 0
M  V30 3767 H 348.967 -4.64652 -1.38659 0
M  V30 3768 N 350.31 0.590341 -1.46126 0
M  V30 3769 C 351.721 1.17243 -1.45296 0
M  V30 3770 C 352.072 1.95281 -0.189723 0
M  V30 3771 O 351.197 2.04502 0.707674 0
M  V30 3772 C 351.792 2.13284 -2.6324 0
M  V30 3773 C 350.351 2.66832 -2.65476 0
M  V30 3774 C 349.498 1.42557 -2.3785 0
M  V30 3775 H 352.449 0.378692 -1.54116 0
M  V30 3776 H 352.47 2.96619 -2.38323 0
M  V30 3777 H 351.982 1.56459 -3.55165 0
M  V30 3778 H 350.083 3.27548 -1.77603 0
M  V30 3779 H 350.196 3.10088 -3.65215 0
M  V30 3780 H 348.56 1.72107 -1.87753 0
M  V30 3781 H 349.343 0.875741 -3.31942 0
M  V30 3782 N 351.788 1.33704 0.83433 0
M  V30 3783 C 353.016 1.28467 1.62185 0
M  V30 3784 C 353.431 -0.143526 1.88254 0
M  V30 3785 O 352.788 -1.08709 1.4659 0
M  V30 3786 C 352.839 2.06174 2.96942 0
M  V30 3787 O 352.56 3.43422 2.72016 0
M  V30 3788 C 354.061 2.08201 3.91366 0
M  V30 3789 H 351.281 0.4424 0.504503 0
M  V30 3790 H 353.825 1.76145 1.03891 0
M  V30 3791 H 351.98 1.62167 3.51825 0
M  V30 3792 H 352.394 3.83453 3.57861 0
M  V30 3793 H 353.868 2.67017 4.83121 0
M  V30 3794 H 354.345 1.07343 4.2588 0
M  V30 3795 H 354.951 2.52246 3.42421 0
M  V30 3796 N 353.266 -1.05314 1.17247 0
M  V30 3797 C 354.196 -2.1498 0.911362 0
M  V30 3798 C 355.177 -1.69471 -0.146169 0
M  V30 3799 O 356.362 -1.942 0.003812 0
M  V30 3800 C 353.492 -3.4472 0.422528 0
M  V30 3801 C 352.446 -4.03789 1.4191 0
M  V30 3802 C 351.772 -5.28858 0.788274 0
M  V30 3803 C 353.072 -4.41418 2.7919 0
M  V30 3804 H 354.766 -2.3708 1.82848 0
M  V30 3805 H 352.312 -1.13938 0.880569 0
M  V30 3806 H 354.265 -4.20787 0.227289 0
M  V30 3807 H 352.989 -3.22269 -0.530123 0
M  V30 3808 H 351.648 -3.2979 1.60106 0
M  V30 3809 H 351.296 -5.02709 -0.171173 0
M  V30 3810 H 350.996 -5.69338 1.45353 0
M  V30 3811 H 352.52 -6.07612 0.603282 0
M  V30 3812 H 353.934 -5.08524 2.64719 0
M  V30 3813 H 352.331 -4.92913 3.42282 0
M  V30 3814 H 353.401 -3.51819 3.33693 0
M  V30 3815 N 354.744 -0.972509 -1.24016 0
M  V30 3816 C 355.691 -0.505969 -2.25186 0
M  V30 3817 C 356.661 0.451009 -1.5986 0
M  V30 3818 O 357.846 0.360307 -1.87367 0
M  V30 3819 C 354.986 0.193089 -3.44559 0
M  V30 3820 C 354.099 -0.803222 -4.24467 0
M  V30 3821 C 353.234 -0.0797793 -5.3114 0
M  V30 3822 C 352.273 -1.06583 -6.02749 0
M  V30 3823 N 351.41 -0.372074 -7.01113 0
M  V30 3824 H 356.25 -1.37351 -2.64459 0
M  V30 3825 H 353.787 -0.688419 -1.29997 0
M  V30 3826 H 355.745 0.615125 -4.1264 0
M  V30 3827 H 354.375 1.02455 -3.06109 0
M  V30 3828 H 353.427 -1.34368 -3.55878 0
M  V30 3829 H 354.739 -1.55494 -4.73944 0
M  V30 3830 H 353.893 0.400015 -6.0538 0
M  V30 3831 H 352.632 0.704597 -4.82583 0
M  V30 3832 H 351.637 -1.55645 -5.27309 0
M  V30 3833 H 352.862 -1.85074 -6.53395 0
M  V30 3834 H 350.808 0.393238 -6.5482 0
M  V30 3835 H 350.725 -1.06258 -7.48495 0
M  V30 3836 H 351.993 0.0855932 -7.79453 0
M  V30 3837 N 356.222 1.38976 -0.743202 0
M  V30 3838 C 357.499 1.94351 -0.220705 0
M  V30 3839 C 357.879 1.67935 1.2791 0
M  V30 3840 O 357.227 1.01211 2.04862 0
M  V30 3841 C 357.437 3.44426 -0.563171 0
M  V30 3842 C 358.785 4.2144 -0.517046 0
M  V30 3843 O 359.809 3.52661 -0.500846 0
M  V30 3844 O 358.668 5.44032 -0.518806 0
M  V30 3845 H 355.762 0.825879 -0.043047 0
M  V30 3846 H 358.308 1.48429 -0.822618 0
M  V30 3847 H 357.08 3.5712 -1.59941 0
M  V30 3848 H 356.703 3.97543 0.0672883 0
M  V30 3849 N 357.7 0.491464 1.49741 0
M  V30 3850 C 358.633 -0.338464 2.25676 0
M  V30 3851 C 359.611 -0.978676 1.29849 0
M  V30 3852 O 360.795 -1.01064 1.59117 0
M  V30 3853 C 357.922 -1.47588 3.04853 0
M  V30 3854 C 356.968 -0.951 4.15762 0
M  V30 3855 S 357.801 0.150626 5.35288 0
M  V30 3856 C 358.957 -0.990178 6.18018 0
M  V30 3857 H 359.19 0.306068 2.9572 0
M  V30 3858 H 356.723 0.276622 1.51902 0
M  V30 3859 H 358.681 -2.12764 3.51058 0
M  V30 3860 H 357.342 -2.09199 2.34296 0
M  V30 3861 H 356.535 -1.80311 4.70642 0
M  V30 3862 H 356.137 -0.376607 3.72099 0
M  V30 3863 H 358.429 -1.89748 6.50386 0
M  V30 3864 H 359.372 -0.480205 7.0647 0
M  V30 3865 H 359.78 -1.25321 5.50413 0
M  V30 3866 N 359.178 -1.55987 0.224894 0
M  V30 3867 C 360.455 -1.90232 -0.455083 0
M  V30 3868 C 360.835 -1.14269 -1.77499 0
M  V30 3869 O 360.183 -0.253079 -2.27094 0
M  V30 3870 C 360.393 -3.42993 -0.644758 0
M  V30 3871 C 361.741 -4.13821 -0.950669 0
M  V30 3872 O 362.765 -3.4861 -0.731423 0
M  V30 3873 O 361.624 -5.29128 -1.36695 0
M  V30 3874 H 358.718 -0.79108 -0.241084 0
M  V30 3875 H 361.264 -1.67581 0.267327 0
M  V30 3876 H 360.036 -3.90252 0.28613 0
M  V30 3877 H 359.659 -3.71434 -1.41853 0
M  V30 3878 N 360.656 0.0484629 -1.57525 0
M  V30 3879 C 361.903 0.743125 -1.88372 0
M  V30 3880 C 362.231 1.76383 -0.819715 0
M  V30 3881 O 361.486 1.94855 0.181659 0
M  V30 3882 C 361.785 1.46632 -3.25935 0
M  V30 3883 C 361.451 0.583427 -4.4711 0
M  V30 3884 C 360.113 0.340191 -4.79996 0
M  V30 3885 C 362.465 -0.0273345 -5.21193 0
M  V30 3886 C 359.793 -0.522903 -5.84365 0
M  V30 3887 C 362.145 -0.878017 -6.26477 0
M  V30 3888 C 360.809 -1.1309 -6.5785 0
M  V30 3889 H 360.079 0.271929 -0.689301 0
M  V30 3890 H 362.726 0.00336166 -1.915 0
M  V30 3891 H 361.031 2.2789 -3.18706 0
M  V30 3892 H 362.728 2.00902 -3.47044 0
M  V30 3893 H 359.318 0.783151 -4.21384 0
M  V30 3894 H 363.502 0.147654 -4.9608 0
M  V30 3895 H 358.758 -0.727335 -6.07058 0
M  V30 3896 H 362.932 -1.35789 -6.83033 0
M  V30 3897 H 360.559 -1.80144 -7.38547 0
M  V30 3898 N 362.134 1.5431 0.320358 0
M  V30 3899 C 363.064 1.86912 1.3995 0
M  V30 3900 C 364.045 0.726211 1.53819 0
M  V30 3901 O 365.23 0.980233 1.67646 0
M  V30 3902 C 362.36 2.09932 2.7667 0
M  V30 3903 C 361.314 3.25776 2.77586 0
M  V30 3904 C 360.64 3.34173 4.17412 0
M  V30 3905 C 361.94 4.6335 2.41048 0
M  V30 3906 H 363.634 2.77292 1.12914 0
M  V30 3907 H 361.18 1.33421 0.541738 0
M  V30 3908 H 363.133 2.31324 3.52232 0
M  V30 3909 H 361.857 1.16304 3.0519 0
M  V30 3910 H 360.516 3.04276 2.04479 0
M  V30 3911 H 360.164 2.38098 4.43078 0
M  V30 3912 H 359.864 4.12033 4.18931 0
M  V30 3913 H 361.388 3.57803 4.94782 0
M  V30 3914 H 362.802 4.84602 3.06324 0
M  V30 3915 H 361.199 5.43782 2.53813 0
M  V30 3916 H 362.269 4.65381 1.36193 0
M  V30 3917 N 363.613 -0.582584 1.46437 0
M  V30 3918 C 364.561 -1.71272 1.5738 0
M  V30 3919 C 365.555 -1.63524 0.44229 0
M  V30 3920 O 366.761 -1.69016 0.619166 0
M  V30 3921 H 363.136 -0.566273 0.494813 0
M  V30 3922 H 365.107 -1.59174 2.52401 0
M  V30 3923 C 363.856 -3.09658 1.58136 0
M  V30 3924 H 363.179 -3.16291 2.44541 0
M  V30 3925 H 364.619 -3.88494 1.69847 0
M  V30 3926 C 363.078 -3.3547 0.310026 0
M  V30 3927 O 363.608 -3.97199 -0.599683 0
M  V30 3928 N 361.814 -2.89925 0.197901 0
M  V30 3929 H 361.361 -2.39873 0.93909 0
M  V30 3930 H 361.319 -3.07568 -0.65185 0
M  V30 3931 N 365.091 -1.34144 -0.827227 0
M  V30 3932 C 366.038 -1.25364 -1.93785 0
M  V30 3933 C 367.008 -0.129774 -1.65592 0
M  V30 3934 O 368.193 -0.310024 -1.88264 0
M  V30 3935 C 365.333 -1.01064 -3.2997 0
M  V30 3936 C 364.446 -2.22185 -3.70484 0
M  V30 3937 C 363.581 -1.91203 -4.95595 0
M  V30 3938 C 362.62 -3.08491 -5.28677 0
M  V30 3939 N 361.757 -2.77421 -6.44967 0
M  V30 3940 H 366.597 -2.20347 -2.00627 0
M  V30 3941 H 364.134 -1.09558 -0.981608 0
M  V30 3942 H 366.092 -0.850139 -4.08446 0
M  V30 3943 H 364.722 -0.0975026 -3.22653 0
M  V30 3944 H 363.774 -2.4917 -2.87434 0
M  V30 3945 H 365.086 -3.0983 -3.90905 0
M  V30 3946 H 364.24 -1.71864 -5.81848 0
M  V30 3947 H 362.979 -1.00812 -4.77167 0
M  V30 3948 H 361.984 -3.28431 -4.40923 0
M  V30 3949 H 363.209 -3.99655 -5.49047 0
M  V30 3950 H 361.155 -1.89601 -6.28003 0
M  V30 3951 H 361.072 -3.58598 -6.6554 0
M  V30 3952 H 362.34 -2.61577 -7.34301 0
M  V30 3953 N 366.569 1.04691 -1.17803 0
M  V30 3954 C 367.517 2.14665 -0.895635 0
M  V30 3955 C 368.511 1.68806 0.141679 0
M  V30 3956 O 369.717 1.79999 -0.00587914 0
M  V30 3957 H 366.092 0.701038 -0.272121 0
M  V30 3958 H 368.063 2.35685 -1.83017 0
M  V30 3959 C 366.812 3.45019 -0.430962 0
M  V30 3960 H 366.135 3.8071 -1.22064 0
M  V30 3961 H 367.575 4.23125 -0.272301 0
M  V30 3962 C 366.034 3.25943 0.852207 0
M  V30 3963 O 366.564 3.5296 1.91786 0
M  V30 3964 N 364.77 2.79304 0.802346 0
M  V30 3965 H 364.317 2.57518 -0.0650788 0
M  V30 3966 H 364.275 2.66921 1.66134 0
M  V30 3967 N 368.047 0.979072 1.23499 0
M  V30 3968 C 368.979 0.476271 2.24197 0
M  V30 3969 C 369.992 -0.421166 1.57258 0
M  V30 3970 O 371.181 -0.225515 1.7707 0
M  V30 3971 C 368.281 -0.330503 3.37285 0
M  V30 3972 C 367.454 0.559744 4.33804 0
M  V30 3973 C 366.513 -0.192954 5.25846 0
M  V30 3974 O 365.539 0.416978 5.67671 0
M  V30 3975 N 366.741 -1.47932 5.61334 0
M  V30 3976 H 369.506 1.34211 2.67969 0
M  V30 3977 H 367.067 0.852189 1.37657 0
M  V30 3978 H 369.059 -0.842361 3.95836 0
M  V30 3979 H 367.629 -1.09734 2.92707 0
M  V30 3980 H 366.849 1.25245 3.73775 0
M  V30 3981 H 368.137 1.1665 4.95248 0
M  V30 3982 H 367.535 -1.9964 5.29302 0
M  V30 3983 H 366.092 -1.93664 6.22364 0
M  V30 3984 N 369.525 -1.3858 0.750561 0
M  V30 3985 C 370.472 -2.30483 0.120835 0
M  V30 3986 C 371.442 -1.50022 -0.712923 0
M  V30 3987 O 372.627 -1.78662 -0.669676 0
M  V30 3988 C 369.767 -3.36431 -0.768666 0
M  V30 3989 C 368.88 -4.31927 0.0793922 0
M  V30 3990 C 368.015 -5.24944 -0.81283 0
M  V30 3991 C 367.054 -6.12088 0.0390447 0
M  V30 3992 N 366.191 -6.97412 -0.809969 0
M  V30 3993 H 371.031 -2.83761 0.91015 0
M  V30 3994 H 368.568 -1.39707 0.460463 0
M  V30 3995 H 370.526 -3.96462 -1.29898 0
M  V30 3996 H 369.156 -2.8457 -1.5238 0
M  V30 3997 H 368.208 -3.73382 0.727303 0
M  V30 3998 H 369.52 -4.93319 0.737401 0
M  V30 3999 H 368.674 -5.90078 -1.41042 0
M  V30 4000 H 367.413 -4.63911 -1.50458 0
M  V30 4001 H 366.418 -5.45952 0.649328 0
M  V30 4002 H 367.643 -6.75189 0.727809 0
M  V30 4003 H 365.589 -6.38931 -1.48672 0
M  V30 4004 H 365.506 -7.55712 -0.208789 0
M  V30 4005 H 366.774 -7.66959 -1.39263 0
M  V30 4006 N 371.003 -0.499398 -1.49478 0
M  V30 4007 C 372.249 0.0457576 -2.02748 0
M  V30 4008 C 372.582 1.36793 -1.37846 0
M  V30 4009 O 371.857 1.87596 -0.513601 0
M  V30 4010 C 372.14 0.199986 -3.59544 0
M  V30 4011 C 371.993 -1.1452 -4.34977 0
M  V30 4012 C 373.312 0.94137 -4.29914 0
M  V30 4013 H 370.431 0.0151552 -0.736844 0
M  V30 4014 H 373.073 -0.650498 -1.78518 0
M  V30 4015 H 371.223 0.793007 -3.8032 0
M  V30 4016 H 372.895 -1.77697 -4.25701 0
M  V30 4017 H 371.138 -1.73488 -3.97598 0
M  V30 4018 H 371.809 -0.990607 -5.43039 0
M  V30 4019 H 374.285 0.43844 -4.13784 0
M  V30 4020 H 373.161 1.01812 -5.39375 0
M  V30 4021 H 373.422 1.98471 -3.95046 0
M  V30 4022 N 372.481 1.55866 -0.233164 0
M  V30 4023 C 373.711 2.02704 0.399325 0
M  V30 4024 C 374.119 1.11204 1.53069 0
M  V30 4025 O 373.462 0.116182 1.83332 0
M  V30 4026 C 373.524 3.45844 0.981429 0
M  V30 4027 C 373.188 4.56997 -0.0159561 0
M  V30 4028 C 374.185 5.13384 -0.820552 0
M  V30 4029 C 371.87 5.0211 -0.138072 0
M  V30 4030 C 373.864 6.13365 -1.73386 0
M  V30 4031 C 371.551 6.01926 -1.0549 0
M  V30 4032 C 372.549 6.57431 -1.85132 0
M  V30 4033 O 372.237 7.55302 -2.75272 0
M  V30 4034 H 371.969 0.668459 0.100692 0
M  V30 4035 H 374.523 2.02387 -0.35052 0
M  V30 4036 H 372.753 3.43267 1.78058 0
M  V30 4037 H 374.442 3.76262 1.52255 0
M  V30 4038 H 375.208 4.79372 -0.736721 0
M  V30 4039 H 371.087 4.5858 0.471737 0
M  V30 4040 H 374.631 6.56614 -2.35592 0
M  V30 4041 H 370.528 6.35359 -1.1397 0
M  V30 4042 H 371.296 7.72867 -2.69477 0
M  V30 4043 N 373.959 -0.0401083 1.57549 0
M  V30 4044 C 375.208 -0.732108 1.87944 0
M  V30 4045 C 375.521 -1.77107 0.830206 0
M  V30 4046 O 376.727 -2.51488 1.02302 0
M  V30 4047 C 375.183 -1.35315 3.33494 0
M  V30 4048 C 374.791 -0.351105 4.46622 0
M  V30 4049 C 376.535 -2.02566 3.73051 0
M  V30 4050 C 374.442 -0.979859 5.83226 0
M  V30 4051 H 373.372 -0.277188 0.701201 0
M  V30 4052 H 376.023 0.0138501 1.83495 0
M  V30 4053 H 374.405 -2.14844 3.32653 0
M  V30 4054 H 375.579 0.416674 4.58912 0
M  V30 4055 H 373.894 0.218708 4.15825 0
M  V30 4056 H 376.491 -2.50441 4.72423 0
M  V30 4057 H 376.834 -2.83904 3.04474 0
M  V30 4058 H 377.367 -1.29827 3.76018 0
M  V30 4059 H 374.106 -0.206135 6.55176 0
M  V30 4060 H 373.626 -1.71774 5.74677 0
M  V30 4061 H 375.305 -1.49046 6.29599 0
M  V30 4062 N 375.437 -1.54477 -0.31217 0
M  V30 4063 C 376.685 -1.72884 -1.04668 0
M  V30 4064 C 377.006 -0.511477 -1.88173 0
M  V30 4065 O 376.276 0.474407 -1.90069 0
M  V30 4066 H 374.856 -0.637461 -0.389425 0
M  V30 4067 H 377.518 -1.91807 -0.345852 0
M  V30 4068 H 376.614 -2.61334 -1.70619 0
M  V30 4069 N 376.915 0.57481 -1.46744 0
M  V30 4070 C 377.825 1.711 -1.60505 0
M  V30 4071 C 378.841 1.67008 -0.488307 0
M  V30 4072 O 380.017 1.86774 -0.753495 0
M  V30 4073 C 377.082 3.07608 -1.59932 0
M  V30 4074 C 376.143 3.22904 -2.82898 0
M  V30 4075 C 375.376 4.529 -2.82343 0
M  V30 4076 O 375.599 5.37278 -1.91542 0
M  V30 4077 O 374.533 4.71611 -3.73987 0
M  V30 4078 H 378.359 1.62436 -2.56609 0
M  V30 4079 H 375.944 0.742779 -1.29627 0
M  V30 4080 H 377.826 3.88877 -1.62336 0
M  V30 4081 H 376.501 3.16692 -0.669898 0
M  V30 4082 H 375.408 2.41099 -2.86046 0
M  V30 4083 H 376.741 3.18715 -3.75076 0
M  V30 4084 N 378.394 1.34581 0.820102 0
M  V30 4085 C 379.304 1.28471 1.96297 0
M  V30 4086 C 380.32 0.191902 1.72939 0
M  V30 4087 O 381.496 0.418879 1.96996 0
M  V30 4088 C 378.561 1.04281 3.30645 0
M  V30 4089 C 377.622 2.22745 3.66992 0
M  V30 4090 C 376.855 1.997 4.9493 0
M  V30 4091 O 377.078 0.956656 5.6232 0
M  V30 4092 O 376.012 2.86723 5.2922 0
M  V30 4093 H 379.838 2.24624 2.04396 0
M  V30 4094 H 377.423 1.14816 0.955913 0
M  V30 4095 H 379.305 0.925841 4.11104 0
M  V30 4096 H 377.98 0.111697 3.23507 0
M  V30 4097 H 376.887 2.40003 2.86966 0
M  V30 4098 H 378.22 3.14257 3.78819 0
M  V30 4099 N 379.872 -1.04064 1.18357 0
M  V30 4100 C 380.782 -2.15569 0.925596 0
M  V30 4101 C 381.798 -1.7365 -0.110295 0
M  V30 4102 O 382.974 -2.01273 0.0716218 0
M  V30 4103 C 380.039 -3.43704 0.454836 0
M  V30 4104 C 379.1 -4.00004 1.55869 0
M  V30 4105 C 378.333 -5.22023 1.1103 0
M  V30 4106 O 378.556 -5.70392 -0.0309756 0
M  V30 4107 O 377.49 -5.70856 1.90805 0
M  V30 4108 H 381.316 -2.40187 1.8586 0
M  V30 4109 H 378.901 -1.1402 0.965394 0
M  V30 4110 H 380.783 -4.20923 0.200382 0
M  V30 4111 H 379.458 -3.20559 -0.449876 0
M  V30 4112 H 378.365 -3.24172 1.86716 0
M  V30 4113 H 379.698 -4.2749 2.43953 0
M  V30 4114 N 381.35 -0.985608 -1.22978 0
M  V30 4115 C 382.297 -0.529825 -2.24636 0
M  V30 4116 C 383.267 0.434028 -1.60329 0
M  V30 4117 O 384.452 0.340414 -1.87739 0
M  V30 4118 C 381.592 0.156533 -3.44745 0
M  V30 4119 C 380.705 -0.848197 -4.23591 0
M  V30 4120 C 379.84 -0.136109 -5.31026 0
M  V30 4121 C 378.879 -1.1297 -6.01585 0
M  V30 4122 N 378.016 -0.446415 -7.00679 0
M  V30 4123 H 382.856 -1.40148 -2.62988 0
M  V30 4124 H 380.393 -0.702168 -1.29259 0
M  V30 4125 H 382.351 0.571324 -4.1327 0
M  V30 4126 H 380.981 0.992025 -3.07179 0
M  V30 4127 H 380.033 -1.38135 -3.54433 0
M  V30 4128 H 381.345 -1.60512 -4.72268 0
M  V30 4129 H 380.499 0.335784 -6.0577 0
M  V30 4130 H 379.238 0.653373 -4.83304 0
M  V30 4131 H 378.243 -1.6123 -5.25628 0
M  V30 4132 H 379.468 -1.91993 -6.51395 0
M  V30 4133 H 377.414 0.323763 -6.55201 0
M  V30 4134 H 377.331 -1.1419 -7.47326 0
M  V30 4135 H 378.599 0.00291697 -7.795 0
M  V30 4136 N 382.828 1.3818 -0.7579 0
M  V30 4137 C 383.775 2.30416 -0.133057 0
M  V30 4138 C 384.745 1.50398 0.704957 0
M  V30 4139 O 385.93 1.79014 0.660192 0
M  V30 4140 C 383.07 3.36834 0.750813 0
M  V30 4141 C 382.183 4.31879 -0.102297 0
M  V30 4142 C 381.318 5.25368 0.784979 0
M  V30 4143 C 380.357 6.12058 -0.0715046 0
M  V30 4144 N 379.494 6.97832 0.772972 0
M  V30 4145 H 384.334 2.83274 -0.925186 0
M  V30 4146 H 381.871 1.39461 -0.467866 0
M  V30 4147 H 383.829 3.97145 1.27794 0
M  V30 4148 H 382.459 2.85374 1.50868 0
M  V30 4149 H 381.511 3.72991 -0.747095 0
M  V30 4150 H 382.823 4.92921 -0.763552 0
M  V30 4151 H 381.977 5.90818 1.37911 0
M  V30 4152 H 380.716 4.64703 1.47996 0
M  V30 4153 H 379.721 5.456 -0.678272 0
M  V30 4154 H 380.946 6.74793 -0.763606 0
M  V30 4155 H 378.892 6.3971 1.45282 0
M  V30 4156 H 378.809 7.55812 0.168709 0
M  V30 4157 H 380.077 7.67687 1.35194 0
M  V30 4158 N 384.306 0.507319 1.49211 0
M  V30 4159 C 385.555 -0.0368315 2.01666 0
M  V30 4160 C 385.868 -1.37459 1.39156 0
M  V30 4161 O 387.074 -2.00579 1.82976 0
M  V30 4162 C 385.53 -0.116089 3.59713 0
M  V30 4163 C 385.138 1.2154 4.31198 0
M  V30 4164 C 386.882 -0.610268 4.2009 0
M  V30 4165 C 384.789 1.09796 5.81119 0
M  V30 4166 H 383.719 -0.0175376 0.753796 0
M  V30 4167 H 386.37 0.647691 1.71689 0
M  V30 4168 H 384.752 -0.8652 3.86433 0
M  V30 4169 H 385.926 1.9783 4.16173 0
M  V30 4170 H 384.241 1.64352 3.82593 0
M  V30 4171 H 386.838 -0.715742 5.29888 0
M  V30 4172 H 387.181 -1.61064 3.8388 0
M  V30 4173 H 387.714 0.0824916 3.97714 0
M  V30 4174 H 384.453 2.0728 6.21864 0
M  V30 4175 H 383.973 0.376058 5.9862 0
M  V30 4176 H 385.652 0.779281 6.4229 0
M  V30 4177 N 385.784 -1.5574 0.241426 0
M  V30 4178 C 387.031 -1.9881 -0.384836 0
M  V30 4179 C 387.359 -1.12947 -1.58346 0
M  V30 4180 O 386.614 -0.178993 -1.9488 0
M  V30 4181 C 386.913 -3.47308 -0.843317 0
M  V30 4182 C 386.579 -4.50223 0.246946 0
M  V30 4183 C 385.241 -4.78088 0.546399 0
M  V30 4184 C 387.593 -5.11841 0.983282 0
M  V30 4185 C 384.921 -5.64846 1.58636 0
M  V30 4186 C 387.273 -5.99727 2.01272 0
M  V30 4187 C 385.937 -6.25927 2.31888 0
M  V30 4188 H 385.207 -0.727496 -0.140821 0
M  V30 4189 H 387.854 -1.8831 0.348106 0
M  V30 4190 H 386.159 -3.55112 -1.65537 0
M  V30 4191 H 387.856 -3.78017 -1.33806 0
M  V30 4192 H 384.446 -4.286 0.00340639 0
M  V30 4193 H 388.63 -4.90366 0.765182 0
M  V30 4194 H 383.886 -5.83403 1.82896 0
M  V30 4195 H 388.06 -6.46517 2.58823 0
M  V30 4196 H 385.687 -6.92949 3.12611 0
M  V30 4197 N 387.262 0.0317525 -1.57568 0
M  V30 4198 C 388.192 1.03274 -2.0942 0
M  V30 4199 C 389.173 1.3788 -0.996143 0
M  V30 4200 O 390.358 1.46811 -1.27122 0
M  V30 4201 C 387.488 2.33448 -2.57137 0
M  V30 4202 C 386.442 2.13091 -3.71182 0
M  V30 4203 C 385.768 3.49001 -4.05095 0
M  V30 4204 C 387.068 1.51928 -4.99715 0
M  V30 4205 H 388.762 0.60112 -2.93303 0
M  V30 4206 H 386.308 0.287705 -1.41097 0
M  V30 4207 H 388.261 3.03802 -2.92032 0
M  V30 4208 H 386.985 2.78665 -1.70333 0
M  V30 4209 H 385.644 1.45171 -3.36632 0
M  V30 4210 H 385.292 3.91862 -3.15362 0
M  V30 4211 H 384.992 3.36207 -4.81911 0
M  V30 4212 H 386.516 4.20721 -4.42522 0
M  V30 4213 H 387.93 2.12196 -5.32584 0
M  V30 4214 H 386.327 1.49716 -5.81124 0
M  V30 4215 H 387.397 0.484811 -4.8247 0
M  V30 4216 N 388.74 1.54641 0.303973 0
M  V30 4217 C 389.65 1.88439 1.39743 0
M  V30 4218 C 390.666 0.778239 1.55626 0
M  V30 4219 O 391.842 1.07442 1.70347 0
M  V30 4220 C 388.907 2.12212 2.74166 0
M  V30 4221 C 387.968 3.35936 2.67293 0
M  V30 4222 C 387.201 3.58566 3.95305 0
M  V30 4223 O 387.424 2.84263 4.9452 0
M  V30 4224 O 386.358 4.52078 3.97378 0
M  V30 4225 H 390.184 2.81458 1.14083 0
M  V30 4226 H 387.769 1.40793 0.499768 0
M  V30 4227 H 389.651 2.29067 3.53704 0
M  V30 4228 H 388.326 1.22379 2.99675 0
M  V30 4229 H 387.233 3.24448 1.86237 0
M  V30 4230 H 388.566 4.2589 2.46736 0
M  V30 4231 N 390.218 -0.567019 1.47046 0
M  V30 4232 C 391.165 -1.67489 1.58796 0
M  V30 4233 C 392.135 -1.60399 0.43144 0
M  V30 4234 O 393.32 -1.79378 0.650233 0
M  V30 4235 C 390.46 -3.05821 1.59899 0
M  V30 4236 C 389.573 -3.2342 2.86397 0
M  V30 4237 C 388.708 -4.52093 2.789 0
M  V30 4238 C 387.747 -4.6309 4.00267 0
M  V30 4239 N 386.884 -5.83106 3.91064 0
M  V30 4240 H 391.724 -1.56785 2.53422 0
M  V30 4241 H 389.261 -0.763896 1.2571 0
M  V30 4242 H 391.219 -3.8591 1.58522 0
M  V30 4243 H 389.849 -3.15384 0.687929 0
M  V30 4244 H 388.901 -2.3683 2.97684 0
M  V30 4245 H 390.213 -3.27412 3.76301 0
M  V30 4246 H 389.367 -5.4043 2.75718 0
M  V30 4247 H 388.106 -4.50565 1.86662 0
M  V30 4248 H 387.111 -3.73168 4.03765 0
M  V30 4249 H 388.336 -4.66386 4.93621 0
M  V30 4250 H 386.282 -5.82546 3.01623 0
M  V30 4251 H 386.199 -5.88434 4.74638 0
M  V30 4252 H 387.467 -6.73831 3.91882 0
M  V30 4253 N 391.696 -1.35014 -0.812953 0
M  V30 4254 C 392.626 -1.30069 -1.93919 0
M  V30 4255 C 393.607 -0.176275 -1.69184 0
M  V30 4256 O 394.792 -0.370227 -1.90638 0
M  V30 4257 C 391.922 -1.06547 -3.30552 0
M  V30 4258 C 390.876 -2.15561 -3.69753 0
M  V30 4259 C 390.202 -1.77214 -5.04479 0
M  V30 4260 C 391.502 -3.57476 -3.808 0
M  V30 4261 H 393.196 -2.24303 -1.98314 0
M  V30 4262 H 390.742 -1.07977 -0.952736 0
M  V30 4263 H 392.695 -1.01729 -4.08937 0
M  V30 4264 H 391.419 -0.0875719 -3.26483 0
M  V30 4265 H 390.078 -2.19466 -2.9365 0
M  V30 4266 H 389.726 -0.780589 -4.96906 0
M  V30 4267 H 389.426 -2.50184 -5.31678 0
M  V30 4268 H 390.95 -1.7391 -5.8531 0
M  V30 4269 H 392.364 -3.55929 -4.4943 0
M  V30 4270 H 390.761 -4.29152 -4.19462 0
M  V30 4271 H 391.831 -3.94091 -2.82525 0
M  V30 4272 N 393.175 1.03435 -1.18907 0
M  V30 4273 C 394.122 2.11591 -0.921837 0
M  V30 4274 C 395.092 1.65499 0.141226 0
M  V30 4275 O 396.277 1.908 0.000242829 0
M  V30 4276 C 393.417 3.42012 -0.460616 0
M  V30 4277 C 392.53 4.01682 -1.58982 0
M  V30 4278 C 391.665 5.20091 -1.08069 0
M  V30 4279 C 390.704 5.71805 -2.18416 0
M  V30 4280 N 389.841 6.81494 -1.68849 0
M  V30 4281 H 394.681 2.33787 -1.8479 0
M  V30 4282 H 392.218 1.1467 -0.921373 0
M  V30 4283 H 394.176 4.16834 -0.174642 0
M  V30 4284 H 392.806 3.19944 0.428467 0
M  V30 4285 H 391.858 3.24127 -1.99113 0
M  V30 4286 H 393.17 4.36084 -2.4214 0
M  V30 4287 H 392.324 6.02051 -0.749615 0
M  V30 4288 H 391.063 4.87209 -0.218771 0
M  V30 4289 H 390.068 4.88461 -2.5236 0
M  V30 4290 H 391.293 6.06728 -3.05054 0
M  V30 4291 H 389.239 6.50475 -0.849572 0
M  V30 4292 H 389.156 7.14994 -2.45601 0
M  V30 4293 H 390.424 7.67063 -1.38689 0
M  V30 4294 N 394.653 0.992116 1.22453 0
M  V30 4295 C 396.069 0.702713 1.43297 0
M  V30 4296 C 396.269 -0.726909 1.87932 0
M  V30 4297 O 395.325 -1.49792 2.0327 0
M  V30 4298 C 396.638 1.70762 2.47509 0
M  V30 4299 C 398.186 1.72298 2.61309 0
M  V30 4300 C 398.661 2.71649 3.68742 0
M  V30 4301 N 400.152 2.70239 3.76199 0
M  V30 4302 C 400.887 3.43778 4.58917 0
M  V30 4303 N 400.383 4.26914 5.45633 0
M  V30 4304 N 402.176 3.32487 4.5322 0
M  V30 4305 H 394.327 1.91543 0.917871 0
M  V30 4306 H 396.59 0.826031 0.465162 0
M  V30 4307 H 396.296 2.73059 2.21657 0
M  V30 4308 H 396.17 1.49985 3.46099 0
M  V30 4309 H 398.557 0.706989 2.86506 0
M  V30 4310 H 398.638 1.97143 1.62997 0
M  V30 4311 H 398.282 3.73397 3.44292 0
M  V30 4312 H 398.212 2.44074 4.66622 0
M  V30 4313 H 400.703 2.09912 3.14237 0
M  V30 4314 H 401.016 4.79855 6.05771 0
M  V30 4315 H 399.361 4.31002 5.45218 0
M  V30 4316 H 402.552 2.6698 3.84499 0
M  V30 4317 H 402.725 3.90058 5.17454 0
M  V30 4318 N 396.131 -1.37776 0.765217 0
M  V30 4319 C 397.408 -1.93975 0.251596 0
M  V30 4320 C 397.788 -1.69949 -1.25222 0
M  V30 4321 O 397.136 -1.04457 -2.03226 0
M  V30 4322 C 397.346 -3.43487 0.617895 0
M  V30 4323 C 398.694 -4.20564 0.584029 0
M  V30 4324 O 399.718 -3.5182 0.556888 0
M  V30 4325 O 398.577 -5.43138 0.605291 0
M  V30 4326 H 395.671 -0.82509 0.0561806 0
M  V30 4327 H 398.217 -1.47101 0.846128 0
M  V30 4328 H 396.989 -3.5453 1.65602 0
M  V30 4329 H 396.612 -3.976 -0.00403411 0
M  V30 4330 N 397.609 -0.515225 -1.4894 0
M  V30 4331 C 398.855 0.0242508 -2.02785 0
M  V30 4332 C 399.188 1.35323 -1.39289 0
M  V30 4333 O 398.463 1.87041 -0.533469 0
M  V30 4334 C 398.746 0.16184 -3.59736 0
M  V30 4335 C 398.599 -1.19127 -4.33738 0
M  V30 4336 C 399.918 0.895719 -4.30888 0
M  V30 4337 H 397.037 0.00733914 -0.736963 0
M  V30 4338 H 399.679 -0.669395 -1.77818 0
M  V30 4339 H 397.829 0.752624 -3.8114 0
M  V30 4340 H 399.501 -1.82202 -4.23792 0
M  V30 4341 H 397.744 -1.77695 -3.95736 0
M  V30 4342 H 398.415 -1.04815 -5.41957 0
M  V30 4343 H 400.891 0.394528 -4.14225 0
M  V30 4344 H 399.767 0.960859 -5.40425 0
M  V30 4345 H 400.028 1.9427 -3.97129 0
M  V30 4346 N 399.087 1.5561 -0.249682 0
M  V30 4347 C 399.997 2.25143 0.659375 0
M  V30 4348 C 401.013 1.2685 1.19101 0
M  V30 4349 O 402.189 1.59732 1.22669 0
M  V30 4350 C 399.254 2.93945 1.8384 0
M  V30 4351 C 398.315 4.07655 1.34596 0
M  V30 4352 C 397.548 4.73167 2.46878 0
M  V30 4353 O 397.771 4.37768 3.65671 0
M  V30 4354 O 396.705 5.61623 2.16478 0
M  V30 4355 H 400.531 3.03545 0.0968698 0
M  V30 4356 H 398.116 1.49389 -0.018074 0
M  V30 4357 H 399.998 3.37271 2.52638 0
M  V30 4358 H 398.673 2.18481 2.38847 0
M  V30 4359 H 397.58 3.68839 0.625174 0
M  V30 4360 H 398.913 4.84946 0.841941 0
M  V30 4361 N 400.565 -0.0233959 1.57583 0
M  V30 4362 C 401.812 -0.713063 1.8953 0
M  V30 4363 C 402.14 -1.75056 0.847673 0
M  V30 4364 O 401.395 -1.95119 -0.150636 0
M  V30 4365 C 401.694 -1.41428 3.28227 0
M  V30 4366 C 401.36 -0.512222 4.47981 0
M  V30 4367 C 400.022 -0.263785 4.80476 0
M  V30 4368 C 402.374 0.110248 5.21083 0
M  V30 4369 C 399.702 0.615804 5.83459 0
M  V30 4370 C 402.054 0.977573 6.25001 0
M  V30 4371 C 400.718 1.23542 6.55968 0
M  V30 4372 H 399.988 -0.260928 0.69354 0
M  V30 4373 H 402.635 0.0271047 1.91481 0
M  V30 4374 H 400.94 -2.22791 3.22291 0
M  V30 4375 H 402.637 -1.95355 3.50196 0
M  V30 4376 H 399.227 -0.716013 4.22577 0
M  V30 4377 H 403.411 -0.0687137 4.96252 0
M  V30 4378 H 398.667 0.82382 6.05824 0
M  V30 4379 H 402.841 1.46638 6.80786 0
M  V30 4380 H 400.468 1.91871 7.35588 0
M  V30 4381 N 402.043 -1.548 -0.295768 0
M  V30 4382 C 402.973 -1.89115 -1.36959 0
M  V30 4383 C 403.954 -0.75059 -1.52644 0
M  V30 4384 O 405.139 -1.00678 -1.66065 0
M  V30 4385 C 402.269 -2.14307 -2.73295 0
M  V30 4386 C 401.223 -3.30151 -2.72368 0
M  V30 4387 C 400.549 -3.40772 -4.12042 0
M  V30 4388 C 401.849 -4.67126 -2.33646 0
M  V30 4389 H 403.543 -2.79053 -1.08488 0
M  V30 4390 H 401.089 -1.34266 -0.520443 0
M  V30 4391 H 403.042 -2.36898 -3.48507 0
M  V30 4392 H 401.766 -1.21145 -3.03301 0
M  V30 4393 H 400.425 -3.0749 -1.99613 0
M  V30 4394 H 400.073 -2.45117 -4.39234 0
M  V30 4395 H 399.773 -4.18645 -4.12322 0
M  V30 4396 H 401.297 -3.6563 -4.89027 0
M  V30 4397 H 402.711 -4.89414 -2.98575 0
M  V30 4398 H 401.108 -5.47751 -2.45129 0
M  V30 4399 H 402.178 -4.67489 -1.28772 0
M  V30 4400 N 403.521 0.559213 -1.47345 0
M  V30 4401 C 404.767 1.31843 -1.54095 0
M  V30 4402 C 405.1 1.93149 -0.201726 0
M  V30 4403 O 404.375 1.77759 0.789428 0
M  V30 4404 C 404.658 2.43006 -2.65744 0
M  V30 4405 C 404.511 1.86581 -4.09277 0
M  V30 4406 C 405.83 3.44943 -2.73318 0
M  V30 4407 H 402.949 0.478012 -0.560957 0
M  V30 4408 H 405.591 0.625977 -1.79392 0
M  V30 4409 H 403.741 3.02072 -2.44305 0
M  V30 4410 H 405.413 1.31792 -4.42073 0
M  V30 4411 H 403.656 1.17268 -4.17649 0
M  V30 4412 H 404.327 2.66933 -4.83168 0
M  V30 4413 H 406.803 2.95793 -2.92653 0
M  V30 4414 H 405.679 4.20153 -3.53218 0
M  V30 4415 H 405.94 4.03665 -1.80296 0
M  V30 4416 N 404.999 1.35443 0.805782 0
M  V30 4417 C 405.931 1.24285 1.92577 0
M  V30 4418 C 406.944 0.165962 1.61952 0
M  V30 4419 O 408.133 0.419303 1.73505 0
M  V30 4420 C 405.233 0.891272 3.2697 0
M  V30 4421 C 404.406 2.06669 3.85495 0
M  V30 4422 C 403.465 1.69077 4.98297 0
M  V30 4423 O 402.491 2.4096 5.15681 0
M  V30 4424 N 403.693 0.614869 5.77234 0
M  V30 4425 H 406.458 2.20777 2.02676 0
M  V30 4426 H 404.019 1.28623 0.983243 0
M  V30 4427 H 406.011 0.621256 3.99903 0
M  V30 4428 H 404.581 0.016004 3.12596 0
M  V30 4429 H 403.801 2.50046 3.04747 0
M  V30 4430 H 405.089 2.85237 4.21328 0
M  V30 4431 H 404.487 0.017648 5.65697 0
M  V30 4432 H 403.044 0.404636 6.50543 0
M  V30 4433 N 406.477 -1.02803 1.19454 0
M  V30 4434 C 407.407 -2.12999 0.956758 0
M  V30 4435 C 408.388 -1.69743 -0.110188 0
M  V30 4436 O 409.573 -1.94148 0.0450038 0
M  V30 4437 C 406.703 -3.43746 0.495553 0
M  V30 4438 C 405.657 -4.00688 1.50443 0
M  V30 4439 C 404.983 -5.27067 0.900275 0
M  V30 4440 C 406.283 -4.35397 2.8849 0
M  V30 4441 H 407.977 -2.33148 1.87836 0
M  V30 4442 H 405.523 -1.12045 0.904539 0
M  V30 4443 H 407.476 -4.2021 0.316493 0
M  V30 4444 H 406.2 -3.23321 -0.461646 0
M  V30 4445 H 404.859 -3.2632 1.67065 0
M  V30 4446 H 404.507 -5.02959 -0.064503 0
M  V30 4447 H 404.207 -5.66127 1.57397 0
M  V30 4448 H 405.731 -6.06196 0.73203 0
M  V30 4449 H 407.145 -5.02795 2.75446 0
M  V30 4450 H 405.542 -4.85541 3.52661 0
M  V30 4451 H 406.612 -3.44662 3.41081 0
M  V30 4452 N 407.956 -0.998596 -1.21925 0
M  V30 4453 C 408.903 -0.553621 -2.24062 0
M  V30 4454 C 409.873 0.416999 -1.6078 0
M  V30 4455 O 411.058 0.320482 -1.88089 0
M  V30 4456 C 408.198 0.119959 -3.44891 0
M  V30 4457 C 407.311 -0.893077 -4.22668 0
M  V30 4458 C 406.446 -0.192424 -5.30851 0
M  V30 4459 C 405.485 -1.19344 -6.00353 0
M  V30 4460 N 404.622 -0.520707 -7.00166 0
M  V30 4461 H 409.462 -1.4293 -2.61486 0
M  V30 4462 H 406.999 -0.715838 -1.28507 0
M  V30 4463 H 408.957 0.527459 -4.13852 0
M  V30 4464 H 407.587 0.959389 -3.08214 0
M  V30 4465 H 406.639 -1.41886 -3.52948 0
M  V30 4466 H 407.951 -1.65512 -4.70539 0
M  V30 4467 H 407.105 0.271515 -6.06092 0
M  V30 4468 H 405.844 0.602075 -4.83969 0
M  V30 4469 H 404.849 -1.66795 -5.23889 0
M  V30 4470 H 406.074 -1.98891 -6.49322 0
M  V30 4471 H 404.02 0.254252 -6.55507 0
M  V30 4472 H 403.937 -1.2211 -7.46073 0
M  V30 4473 H 405.205 -0.0797596 -7.79459 0
M  V30 4474 N 409.434 1.37368 -0.772513 0
M  V30 4475 C 410.683 1.98918 -0.333861 0
M  V30 4476 C 410.996 1.62017 1.09589 0
M  V30 4477 O 412.202 2.16676 1.63596 0
M  V30 4478 C 410.658 3.55735 -0.545971 0
M  V30 4479 C 410.266 4.01573 -1.98603 0
M  V30 4480 C 412.01 4.24156 -0.170979 0
M  V30 4481 C 409.917 5.51102 -2.1457 0
M  V30 4482 H 408.847 0.744214 -0.121085 0
M  V30 4483 H 411.498 1.56888 -0.95175 0
M  V30 4484 H 409.88 3.95748 0.141387 0
M  V30 4485 H 411.054 3.72803 -2.7084 0
M  V30 4486 H 409.369 3.45937 -2.31769 0
M  V30 4487 H 411.966 5.34024 -0.26878 0
M  V30 4488 H 412.309 4.06917 0.878855 0
M  V30 4489 H 412.842 3.89447 -0.810914 0
M  V30 4490 H 409.581 5.73268 -3.17875 0
M  V30 4491 H 409.101 5.81554 -1.46817 0
M  V30 4492 H 410.78 6.17083 -1.94468 0
M  V30 4493 N 410.912 0.523116 1.48665 0
M  V30 4494 C 411.845 -0.290518 2.26343 0
M  V30 4495 C 412.823 -0.950913 1.31895 0
M  V30 4496 O 414.007 -0.976662 1.61225 0
M  V30 4497 C 411.134 -1.41088 3.07915 0
M  V30 4498 C 410.18 -0.862597 4.17686 0
M  V30 4499 S 411.013 0.264135 5.34848 0
M  V30 4500 C 412.169 -0.858864 6.19979 0
M  V30 4501 H 412.402 0.368726 2.95005 0
M  V30 4502 H 409.935 0.30878 1.51281 0
M  V30 4503 H 411.893 -2.0527 3.55492 0
M  V30 4504 H 410.554 -2.04182 2.38681 0
M  V30 4505 H 409.747 -1.70287 4.74361 0
M  V30 4506 H 409.349 -0.297595 3.72814 0
M  V30 4507 H 411.641 -1.7591 6.54264 0
M  V30 4508 H 412.584 -0.330244 7.07329 0
M  V30 4509 H 412.992 -1.13617 5.52948 0
M  V30 4510 N 412.39 -1.55475 0.257931 0
M  V30 4511 C 413.667 -1.91155 -0.414629 0
M  V30 4512 C 414.047 -1.18008 -1.75035 0
M  V30 4513 O 413.395 -0.301193 -2.26506 0
M  V30 4514 C 413.605 -3.44283 -0.571859 0
M  V30 4515 C 414.953 -4.15744 -0.862678 0
M  V30 4516 O 415.977 -3.50083 -0.657314 0
M  V30 4517 O 414.836 -5.31909 -1.2544 0
M  V30 4518 H 411.93 -0.796016 -0.22425 0
M  V30 4519 H 414.476 -1.66976 0.302814 0
M  V30 4520 H 413.248 -3.89558 0.368844 0
M  V30 4521 H 412.871 -3.7436 -1.33943 0
M  V30 4522 N 413.868 0.0150385 -1.57593 0
M  V30 4523 C 415.098 0.713359 -1.93894 0
M  V30 4524 C 415.506 1.68663 -0.857289 0
M  V30 4525 O 414.849 1.82876 0.173788 0
M  V30 4526 C 414.911 1.51348 -3.26089 0
M  V30 4527 C 414.575 0.703451 -4.51554 0
M  V30 4528 C 415.572 -0.00237924 -5.199 0
M  V30 4529 C 413.257 0.653854 -4.98026 0
M  V30 4530 C 415.251 -0.746955 -6.33008 0
M  V30 4531 C 412.938 -0.0944578 -6.11027 0
M  V30 4532 C 413.936 -0.793609 -6.78374 0
M  V30 4533 O 413.624 -1.52974 -7.89211 0
M  V30 4534 H 413.356 0.204637 -0.644282 0
M  V30 4535 H 415.91 -0.0276411 -2.05381 0
M  V30 4536 H 414.14 2.29862 -3.10967 0
M  V30 4537 H 415.829 2.09572 -3.47612 0
M  V30 4538 H 416.595 0.0268803 -4.84993 0
M  V30 4539 H 412.474 1.18756 -4.45441 0
M  V30 4540 H 416.018 -1.2932 -6.85509 0
M  V30 4541 H 411.915 -0.125591 -6.45378 0
M  V30 4542 H 412.683 -1.44488 -8.05646 0
M  V30 4543 N 415.346 1.54954 0.287554 0
M  V30 4544 C 416.571 1.79209 1.04397 0
M  V30 4545 C 416.996 0.556431 1.79682 0
M  V30 4546 O 416.354 -0.493518 1.74454 0
M  V30 4547 C 416.402 3.00739 1.98969 0
M  V30 4548 O 415.506 2.74805 3.075 0
M  V30 4549 H 414.847 0.592755 0.299227 0
M  V30 4550 H 417.377 2.02068 0.320886 0
M  V30 4551 H 417.387 3.29077 2.4119 0
M  V30 4552 H 416.062 3.90329 1.43582 0
M  V30 4553 H 414.639 2.57523 2.69697 0
M  V30 4554 N 416.824 -0.551391 1.4764 0
M  V30 4555 C 417.754 -1.66757 1.63445 0
M  V30 4556 C 418.735 -1.63077 0.483742 0
M  V30 4557 O 419.92 -1.80607 0.71377 0
M  V30 4558 C 417.05 -3.05387 1.65396 0
M  V30 4559 C 416.004 -3.23918 2.79752 0
M  V30 4560 C 415.33 -4.63393 2.66779 0
M  V30 4561 C 416.63 -3.08735 4.21284 0
M  V30 4562 H 418.324 -1.53786 2.56886 0
M  V30 4563 H 415.87 -0.738415 1.23626 0
M  V30 4564 H 417.823 -3.83325 1.75043 0
M  V30 4565 H 416.547 -3.19332 0.685195 0
M  V30 4566 H 415.206 -2.48391 2.69625 0
M  V30 4567 H 414.854 -4.74144 1.67918 0
M  V30 4568 H 414.554 -4.7674 3.43501 0
M  V30 4569 H 416.078 -5.43458 2.78364 0
M  V30 4570 H 417.492 -3.76484 4.32357 0
M  V30 4571 H 415.889 -3.33588 4.98838 0
M  V30 4572 H 416.959 -2.0541 4.39243 0
M  V30 4573 N 418.302 -1.35869 -0.798587 0
M  V30 4574 C 419.232 -1.32118 -1.92528 0
M  V30 4575 C 420.213 -0.194209 -1.68988 0
M  V30 4576 O 421.398 -0.390426 -1.90235 0
M  V30 4577 C 418.528 -1.10047 -3.29404 0
M  V30 4578 C 417.482 -2.19471 -3.67446 0
M  V30 4579 C 416.808 -1.82555 -5.02571 0
M  V30 4580 C 418.108 -3.61495 -3.76987 0
M  V30 4581 H 419.802 -2.26394 -1.95924 0
M  V30 4582 H 417.348 -1.08981 -0.94123 0
M  V30 4583 H 419.301 -1.06061 -4.07835 0
M  V30 4584 H 418.025 -0.122195 -3.26371 0
M  V30 4585 H 416.684 -2.22568 -2.91306 0
M  V30 4586 H 416.332 -0.833249 -4.9605 0
M  V30 4587 H 416.032 -2.5581 -5.28995 0
M  V30 4588 H 417.556 -1.80108 -5.83432 0
M  V30 4589 H 418.97 -3.60676 -4.4563 0
M  V30 4590 H 417.367 -4.33577 -4.14887 0
M  V30 4591 H 418.437 -3.97065 -2.78329 0
M  V30 4592 N 419.78 1.02168 -1.19998 0
M  V30 4593 C 420.71 2.12488 -0.96804 0
M  V30 4594 C 421.691 1.69799 0.101185 0
M  V30 4595 O 422.876 1.94121 -0.0552993 0
M  V30 4596 C 420.006 3.43479 -0.513776 0
M  V30 4597 C 418.96 3.99884 -1.52566 0
M  V30 4598 C 418.286 5.26582 -0.928214 0
M  V30 4599 C 419.586 4.33861 -2.90795 0
M  V30 4600 H 421.28 2.32149 -1.89069 0
M  V30 4601 H 418.826 1.11564 -0.910468 0
M  V30 4602 H 420.779 4.20036 -0.338774 0
M  V30 4603 H 419.503 3.23561 0.444493 0
M  V30 4604 H 418.162 3.25429 -1.68794 0
M  V30 4605 H 417.81 5.02986 0.0378289 0
M  V30 4606 H 417.51 5.65284 -1.60397 0
M  V30 4607 H 419.034 6.05799 -0.764167 0
M  V30 4608 H 420.448 5.01327 -2.78109 0
M  V30 4609 H 418.845 4.83664 -3.55231 0
M  V30 4610 H 419.915 3.42848 -3.42904 0
M  V30 4611 N 421.258 1.00505 1.21394 0
M  V30 4612 C 422.506 0.686415 1.90086 0
M  V30 4613 C 422.827 -0.785264 1.7849 0
M  V30 4614 O 422.097 -1.56387 1.17983 0
M  V30 4615 H 420.677 0.2509 0.703604 0
M  V30 4616 H 423.339 1.27417 1.47482 0
M  V30 4617 H 422.435 0.959621 2.96981 0
M  V30 4618 N 422.737 -1.36956 0.779787 0
M  V30 4619 C 423.986 -1.98738 0.344405 0
M  V30 4620 C 424.299 -1.62596 -1.08728 0
M  V30 4621 O 425.505 -2.1754 -1.62445 0
M  V30 4622 C 423.961 -3.5544 0.564829 0
M  V30 4623 C 423.569 -4.00514 2.0073 0
M  V30 4624 C 425.313 -4.24059 0.193471 0
M  V30 4625 C 423.22 -5.49957 2.17489 0
M  V30 4626 H 422.15 -0.743561 0.12503 0
M  V30 4627 H 424.801 -1.56381 0.960057 0
M  V30 4628 H 423.183 -3.95817 -0.120397 0
M  V30 4629 H 424.357 -3.71362 2.72814 0
M  V30 4630 H 422.672 -3.44703 2.336 0
M  V30 4631 H 425.269 -5.33874 0.297097 0
M  V30 4632 H 425.612 -4.07378 -0.857263 0
M  V30 4633 H 426.145 -3.89012 0.831556 0
M  V30 4634 H 422.884 -5.71574 3.2091 0
M  V30 4635 H 422.404 -5.80767 1.49899 0
M  V30 4636 H 424.083 -6.16043 1.97738 0
M  V30 4637 N 424.215 -0.530993 -1.48385 0
M  V30 4638 C 425.165 0.251092 -2.26613 0
M  V30 4639 C 426.149 0.908977 -1.32765 0
M  V30 4640 O 427.341 0.811616 -1.57295 0
M  V30 4641 C 424.47 1.29677 -3.17866 0
M  V30 4642 C 423.556 0.643627 -4.19188 0
M  V30 4643 N 423.947 -0.271223 -5.05072 0
M  V30 4644 C 422.245 0.900711 -4.3681 0
M  V30 4645 C 422.946 -0.648109 -5.78078 0
M  V30 4646 N 421.922 -0.00895987 -5.43599 0
M  V30 4647 H 425.724 -0.452702 -2.90393 0
M  V30 4648 H 423.238 -0.349091 -1.58604 0
M  V30 4649 H 425.235 1.87079 -3.72568 0
M  V30 4650 H 423.895 2.00193 -2.55642 0
M  V30 4651 H 424.906 -0.643883 -5.13882 0
M  V30 4652 H 421.583 1.59636 -3.85775 0
M  V30 4653 H 422.973 -1.39833 -6.57188 0
M  V30 4654 N 425.693 1.55336 -0.266172 0
M  V30 4655 C 426.97 1.91372 0.404486 0
M  V30 4656 C 427.35 1.18935 1.74407 0
M  V30 4657 O 426.698 0.3132 2.26343 0
M  V30 4658 C 426.908 3.44581 0.553593 0
M  V30 4659 C 428.256 4.16196 0.840618 0
M  V30 4660 O 429.28 3.50426 0.638739 0
M  V30 4661 O 428.139 5.32567 1.22618 0
M  V30 4662 H 425.233 0.797194 0.220025 0
M  V30 4663 H 427.779 1.66813 -0.311664 0
M  V30 4664 H 426.551 3.89357 -0.389498 0
M  V30 4665 H 426.174 3.75065 1.31955 0
M  V30 4666 N 427.171 -0.0066808 1.57599 0
M  V30 4667 C 428.42 -0.692078 1.89455 0
M  V30 4668 C 428.733 -1.75306 0.867586 0
M  V30 4669 O 429.939 -2.49262 1.07614 0
M  V30 4670 C 428.395 -1.2821 3.36289 0
M  V30 4671 C 428.003 -0.256291 4.47266 0
M  V30 4672 C 429.747 -1.94608 3.77264 0
M  V30 4673 C 427.654 -0.855927 5.85173 0
M  V30 4674 H 426.584 -0.262252 0.706923 0
M  V30 4675 H 429.235 0.052769 1.83424 0
M  V30 4676 H 427.617 -2.0774 3.37135 0
M  V30 4677 H 428.791 0.513923 4.57925 0
M  V30 4678 H 427.106 0.306862 4.15268 0
M  V30 4679 H 429.703 -2.40364 4.77629 0
M  V30 4680 H 430.046 -2.77382 3.10427 0
M  V30 4681 H 430.579 -1.21822 3.78688 0
M  V30 4682 H 427.318 -0.0671161 6.55466 0
M  V30 4683 H 426.838 -1.59546 5.78191 0
M  V30 4684 H 428.517 -1.35658 6.32618 0
M  V30 4685 N 428.649 -1.55105 -0.279332 0
M  V30 4686 C 429.898 -1.74618 -1.00952 0
M  V30 4687 C 430.211 -0.551096 -1.87676 0
M  V30 4688 O 431.417 -0.628507 -2.64125 0
M  V30 4689 C 429.873 -3.09025 -1.84476 0
M  V30 4690 C 429.481 -4.36081 -1.0265 0
M  V30 4691 C 431.225 -3.37891 -2.56963 0
M  V30 4692 C 429.132 -5.6153 -1.85576 0
M  V30 4693 H 428.062 -0.650868 -0.38064 0
M  V30 4694 H 430.713 -1.81569 -0.265475 0
M  V30 4695 H 429.095 -2.96095 -2.62952 0
M  V30 4696 H 430.269 -4.59909 -0.286354 0
M  V30 4697 H 428.584 -4.14312 -0.416464 0
M  V30 4698 H 431.181 -4.28822 -3.19399 0
M  V30 4699 H 431.524 -2.57737 -3.26921 0
M  V30 4700 H 432.057 -3.5189 -1.85522 0
M  V30 4701 H 428.796 -6.44413 -1.2005 0
M  V30 4702 H 428.316 -5.41854 -2.57204 0
M  V30 4703 H 429.995 -5.99594 -2.43096 0
M  V30 4704 N 430.127 0.543554 -1.4793 0
M  V30 4705 C 431.543 0.870806 -1.3375 0
M  V30 4706 C 431.743 1.9864 -0.338261 0
M  V30 4707 O 430.799 2.51305 0.245371 0
M  V30 4708 C 432.112 1.25114 -2.73435 0
M  V30 4709 C 433.66 1.3618 -2.81823 0
M  V30 4710 C 434.135 1.77563 -4.22179 0
M  V30 4711 N 435.626 1.8469 -4.24787 0
M  V30 4712 C 436.361 2.18067 -5.30315 0
M  V30 4713 N 435.857 2.49963 -6.46135 0
M  V30 4714 N 437.65 2.18958 -5.17701 0
M  V30 4715 H 429.801 -0.19275 -2.11524 0
M  V30 4716 H 432.064 -0.0235777 -0.947707 0
M  V30 4717 H 431.77 0.50514 -3.48053 0
M  V30 4718 H 431.644 2.20431 -3.06088 0
M  V30 4719 H 434.031 2.09859 -2.07468 0
M  V30 4720 H 434.112 0.390169 -2.52807 0
M  V30 4721 H 433.756 1.04449 -4.97044 0
M  V30 4722 H 433.686 2.75753 -4.48629 0
M  V30 4723 H 436.177 1.62372 -3.41239 0
M  V30 4724 H 436.49 2.74497 -7.22406 0
M  V30 4725 H 434.835 2.47513 -6.49432 0
M  V30 4726 H 438.026 1.93488 -4.2624 0
M  V30 4727 H 438.199 2.44639 -6.00047 0
M  V30 4728 N 431.605 1.3629 0.791371 0
M  V30 4729 C 432.853 1.30154 1.5461 0
M  V30 4730 C 433.174 -0.119409 1.94634 0
M  V30 4731 O 432.444 -1.05924 1.64794 0
M  V30 4732 H 431.024 0.478784 0.573389 0
M  V30 4733 H 433.686 1.70565 0.94306 0
M  V30 4734 H 432.782 1.92762 2.45457 0
M  V30 4735 N 433.083 -1.0153 1.20538 0
M  V30 4736 C 434.308 -1.79283 1.04271 0
M  V30 4737 C 434.733 -1.8372 -0.403544 0
M  V30 4738 O 434.091 -1.27321 -1.2907 0
M  V30 4739 C 434.139 -3.21535 1.63241 0
M  V30 4740 O 433.243 -4.03099 0.870908 0
M  V30 4741 H 432.584 -0.55293 0.367647 0
M  V30 4742 H 435.114 -1.27696 1.59859 0
M  V30 4743 H 435.124 -3.72243 1.6703 0
M  V30 4744 H 433.799 -3.1762 2.68497 0
M  V30 4745 H 432.376 -3.61693 0.907323 0
M  V30 4746 N 434.561 -1.01147 -1.20859 0
M  V30 4747 C 435.471 -0.58686 -2.27141 0
M  V30 4748 C 436.487 0.373198 -1.69951 0
M  V30 4749 O 437.663 0.235423 -2.00019 0
M  V30 4750 C 434.728 0.0733602 -3.46622 0
M  V30 4751 C 433.789 -0.931995 -4.19061 0
M  V30 4752 C 433.022 -0.303186 -5.32838 0
M  V30 4753 O 433.245 0.898395 -5.63281 0
M  V30 4754 O 432.179 -1.01735 -5.9324 0
M  V30 4755 H 436.005 -1.47155 -2.65667 0
M  V30 4756 H 433.59 -0.780689 -1.2738 0
M  V30 4757 H 435.472 0.442333 -4.19072 0
M  V30 4758 H 434.147 0.932329 -3.09983 0
M  V30 4759 H 433.054 -1.35224 -3.48805 0
M  V30 4760 H 434.387 -1.76076 -4.59628 0
M  V30 4761 N 436.039 1.36541 -0.78704 0
M  V30 4762 C 437.45 1.81873 -0.421807 0
M  V30 4763 C 437.801 1.65487 1.05397 0
M  V30 4764 O 436.926 1.17448 1.81755 0
M  V30 4765 C 437.521 3.30192 -0.758841 0
M  V30 4766 C 436.08 3.73743 -0.446468 0
M  V30 4767 C 435.227 2.58844 -0.994728 0
M  V30 4768 H 438.178 1.24796 -0.98039 0
M  V30 4769 H 438.199 3.80468 -0.0490648 0
M  V30 4770 H 437.711 3.42087 -1.83299 0
M  V30 4771 H 435.812 3.6741 0.619739 0
M  V30 4772 H 435.925 4.69272 -0.965415 0
M  V30 4773 H 434.289 2.51245 -0.418087 0
M  V30 4774 H 435.072 2.73525 -2.07458 0
M  V30 4775 N 437.518 0.538854 1.48102 0
M  V30 4776 C 438.428 -0.222648 2.33541 0
M  V30 4777 C 439.444 -0.930225 1.47047 0
M  V30 4778 O 440.62 -0.903211 1.80011 0
M  V30 4779 C 437.685 -1.25064 3.23357 0
M  V30 4780 C 436.746 -0.552469 4.2573 0
M  V30 4781 C 435.979 -1.53149 5.11254 0
M  V30 4782 O 436.202 -2.76487 4.9891 0
M  V30 4783 O 435.136 -1.06602 5.92385 0
M  V30 4784 H 438.962 0.477707 2.99919 0
M  V30 4785 H 436.547 0.299669 1.46364 0
M  V30 4786 H 438.429 -1.8445 3.78888 0
M  V30 4787 H 437.104 -1.93325 2.59629 0
M  V30 4788 H 436.011 0.082114 3.7401 0
M  V30 4789 H 437.344 0.0883526 4.92121 0
M  V30 4790 N 438.996 -1.55193 0.274407 0
M  V30 4791 C 439.906 -2.26164 -0.623473 0
M  V30 4792 C 440.922 -1.28729 -1.17068 0
M  V30 4793 O 442.098 -1.61663 -1.20112 0
M  V30 4794 C 439.163 -2.96833 -1.7914 0
M  V30 4795 C 438.224 -4.09745 -1.28093 0
M  V30 4796 C 437.457 -4.77034 -2.3932 0
M  V30 4797 O 437.68 -4.4353 -3.5866 0
M  V30 4798 O 436.614 -5.64996 -2.07516 0
M  V30 4799 H 440.44 -3.03661 -0.0485661 0
M  V30 4800 H 438.025 -1.49341 0.0418382 0
M  V30 4801 H 439.907 -3.41248 -2.4724 0
M  V30 4802 H 438.582 -2.22253 -2.35341 0
M  V30 4803 H 437.489 -3.69787 -0.566416 0
M  V30 4804 H 438.822 -4.86224 -0.764683 0
M  V30 4805 N 440.474 -0.00167713 -1.576 0
M  V30 4806 C 441.384 1.00548 -2.1196 0
M  V30 4807 C 442.4 1.3758 -1.06526 0
M  V30 4808 O 443.576 1.46278 -1.38436 0
M  V30 4809 C 440.641 2.27809 -2.6135 0
M  V30 4810 C 439.702 1.97074 -3.81393 0
M  V30 4811 C 438.935 3.18267 -4.28417 0
M  V30 4812 O 439.158 4.30009 -3.74765 0
M  V30 4813 O 438.092 3.02167 -5.20556 0
M  V30 4814 H 441.918 0.573373 -2.98238 0
M  V30 4815 H 439.503 0.217255 -1.47812 0
M  V30 4816 H 441.385 3.02568 -2.93309 0
M  V30 4817 H 440.06 2.70254 -1.78169 0
M  V30 4818 H 438.967 1.19785 -3.54404 0
M  V30 4819 H 440.3 1.59464 -4.65652 0
M  V30 4820 N 441.952 1.55251 0.271103 0
M  V30 4821 C 442.915 1.87484 1.31842 0
M  V30 4822 C 443.915 0.749545 1.42262 0
M  V30 4823 O 445.105 1.01771 1.4138 0
M  V30 4824 C 442.237 2.0818 2.69951 0
M  V30 4825 H 443.43 2.81108 1.0449 0
M  V30 4826 H 440.983 1.47771 0.509258 0
M  V30 4827 H 441.718 1.16944 3.02481 0
M  V30 4828 H 441.503 2.90114 2.63774 0
M  V30 4829 H 442.993 2.34385 3.4562 0
M  V30 4830 N 443.43 -0.535701 1.48216 0
M  V30 4831 C 444.841 -1.11769 1.49548 0
M  V30 4832 C 445.192 -1.94442 0.26207 0
M  V30 4833 O 444.317 -2.06987 -0.631287 0
M  V30 4834 C 444.912 -2.03367 2.70975 0
M  V30 4835 C 443.471 -2.56795 2.75196 0
M  V30 4836 C 442.618 -1.33631 2.42977 0
M  V30 4837 H 445.569 -0.321232 1.55415 0
M  V30 4838 H 445.59 -2.87569 2.49167 0
M  V30 4839 H 445.102 -1.43169 3.60727 0
M  V30 4840 H 443.203 -3.20731 1.89638 0
M  V30 4841 H 443.316 -2.9632 3.76472 0
M  V30 4842 H 441.68 -1.6502 1.94012 0
M  V30 4843 H 442.463 -0.75194 3.34964 0
M  V30 4844 N 444.908 -1.36708 -0.784132 0
M  V30 4845 C 446.154 -1.31426 -1.54451 0
M  V30 4846 C 446.487 0.10476 -1.93917 0
M  V30 4847 O 445.762 1.05934 -1.6312 0
M  V30 4848 C 446.045 -2.24189 -2.818 0
M  V30 4849 C 445.898 -3.74813 -2.48667 0
M  V30 4850 C 447.217 -2.15626 -3.83658 0
M  V30 4851 H 444.336 -0.478739 -0.560337 0
M  V30 4852 H 446.978 -1.67305 -0.900498 0
M  V30 4853 H 445.128 -1.93722 -3.36755 0
M  V30 4854 H 446.8 -4.15823 -1.99722 0
M  V30 4855 H 445.043 -3.93989 -1.81535 0
M  V30 4856 H 445.714 -4.35138 -3.39646 0
M  V30 4857 H 448.19 -2.42456 -3.38163 0
M  V30 4858 H 447.066 -2.82694 -4.70506 0
M  V30 4859 H 447.327 -1.14522 -4.27009 0
M  V30 4860 N 446.386 1.0089 -1.21074 0
M  V30 4861 C 447.802 1.2695 -0.967257 0
M  V30 4862 C 448.002 1.9846 0.348673 0
M  V30 4863 O 447.058 2.28459 1.0753 0
M  V30 4864 C 448.371 2.09697 -2.15517 0
M  V30 4865 C 449.919 2.22937 -2.197 0
M  V30 4866 C 450.394 3.09064 -3.37999 0
M  V30 4867 N 451.885 3.16653 -3.38061 0
M  V30 4868 C 452.62 3.8354 -4.26245 0
M  V30 4869 N 452.116 4.52488 -5.2462 0
M  V30 4870 N 453.909 3.80141 -4.14064 0
M  V30 4871 H 446.06 0.529005 -2.05707 0
M  V30 4872 H 448.323 0.296148 -0.900556 0
M  V30 4873 H 448.029 1.64497 -3.10859 0
M  V30 4874 H 447.903 3.10444 -2.14253 0
M  V30 4875 H 450.29 2.67357 -1.24916 0
M  V30 4876 H 450.371 1.21673 -2.2501 0
M  V30 4877 H 450.015 2.65347 -4.33074 0
M  V30 4878 H 449.945 4.10433 -3.29928 0
M  V30 4879 H 452.436 2.67566 -2.66865 0
M  V30 4880 H 452.749 5.01219 -5.88217 0
M  V30 4881 H 451.094 4.51288 -5.28549 0
M  V30 4882 H 454.285 3.25427 -3.36474 0
M  V30 4883 H 454.458 4.31992 -4.82998 0
M  V30 4884 N 447.864 1.01787 1.20321 0
M  V30 4885 C 448.774 0.598898 2.26827 0
M  V30 4886 C 449.79 -0.36418 1.70146 0
M  V30 4887 O 450.966 -0.224812 2.00141 0
M  V30 4888 C 448.031 -0.0549769 3.46656 0
M  V30 4889 C 447.092 0.954205 4.18561 0
M  V30 4890 C 446.325 0.331439 5.3267 0
M  V30 4891 O 446.548 -0.86851 5.63749 0
M  V30 4892 O 445.482 1.0488 5.92692 0
M  V30 4893 H 449.308 1.48562 2.64883 0
M  V30 4894 H 446.893 0.787434 1.26964 0
M  V30 4895 H 448.775 -0.420102 4.19301 0
M  V30 4896 H 447.45 -0.915876 3.10473 0
M  V30 4897 H 446.357 1.37072 3.48083 0
M  V30 4898 H 447.69 1.78511 4.58688 0
M  V30 4899 N 449.342 -1.36122 0.79427 0
M  V30 4900 C 450.619 -1.93398 0.292685 0
M  V30 4901 C 450.999 -1.72567 -1.21589 0
M  V30 4902 O 450.347 -1.08745 -2.00965 0
M  V30 4903 C 450.557 -3.42099 0.690614 0
M  V30 4904 C 451.905 -4.19231 0.673105 0
M  V30 4905 O 452.929 -3.50559 0.631389 0
M  V30 4906 O 451.788 -5.41732 0.720362 0
M  V30 4907 H 448.882 -0.823712 0.0736693 0
M  V30 4908 H 451.428 -1.45273 0.87714 0
M  V30 4909 H 450.2 -3.50938 1.73085 0
M  V30 4910 H 449.823 -3.97519 0.0803036 0
M  V30 4911 N 450.82 -0.546701 -1.47814 0
M  V30 4912 C 451.73 0.21026 -2.33656 0
M  V30 4913 C 452.746 0.922413 -1.47538 0
M  V30 4914 O 453.922 0.893652 -1.80488 0
M  V30 4915 C 450.987 1.23348 -3.24016 0
M  V30 4916 C 450.048 0.529883 -4.26017 0
M  V30 4917 C 449.281 1.50435 -5.12059 0
M  V30 4918 O 449.504 2.73837 -5.00369 0
M  V30 4919 O 448.438 1.03459 -5.92942 0
M  V30 4920 H 452.264 -0.493605 -2.99662 0
M  V30 4921 H 449.849 -0.307427 -1.46203 0
M  V30 4922 H 451.731 1.82438 -3.79861 0
M  V30 4923 H 450.406 1.91945 -2.60651 0
M  V30 4924 H 449.313 -0.101948 -3.73961 0
M  V30 4925 H 450.646 -0.11445 -4.92067 0
M  V30 4926 N 452.299 1.55045 -0.282633 0
M  V30 4927 C 453.524 2.04628 0.337977 0
M  V30 4928 C 453.949 1.15937 1.48123 0
M  V30 4929 O 453.307 0.159532 1.80597 0
M  V30 4930 C 453.355 3.51854 0.78936 0
M  V30 4931 O 452.459 3.66236 1.89592 0
M  V30 4932 H 451.8 0.660434 0.0687261 0
M  V30 4933 H 454.33 2.00261 -0.419124 0
M  V30 4934 H 454.34 3.93361 1.08311 0
M  V30 4935 H 453.015 4.15873 -0.0470419 0
M  V30 4936 H 451.592 3.36633 1.60413 0
M  V30 4937 N 453.777 0.010035 1.57597 0
M  V30 4938 C 454.687 -0.994226 2.12491 0
M  V30 4939 C 455.703 -1.37013 1.07254 0
M  V30 4940 O 456.879 -1.45542 1.3921 0
M  V30 4941 C 453.944 -2.2642 2.62555 0
M  V30 4942 C 453.005 -1.95049 3.82432 0
M  V30 4943 C 452.238 -3.15991 4.30099 0
M  V30 4944 O 452.461 -4.28015 3.7704 0
M  V30 4945 O 451.395 -2.99403 5.22151 0
M  V30 4946 H 455.221 -0.557549 2.98538 0
M  V30 4947 H 452.806 -0.209413 1.47925 0
M  V30 4948 H 454.688 -3.01009 2.9491 0
M  V30 4949 H 453.363 -2.69306 1.796 0
M  V30 4950 H 452.27 -1.17904 3.55034 0
M  V30 4951 H 453.603 -1.56992 4.66491 0
M  V30 4952 N 455.255 -1.55392 -0.262866 0
M  V30 4953 C 456.501 -1.76737 -0.99458 0
M  V30 4954 C 456.834 -0.572453 -1.85571 0
M  V30 4955 O 456.109 0.429732 -1.89693 0
M  V30 4956 C 456.392 -3.07824 -1.8686 0
M  V30 4957 C 456.245 -4.3769 -1.03672 0
M  V30 4958 C 457.564 -3.35021 -2.85393 0
M  V30 4959 H 454.683 -0.643005 -0.360157 0
M  V30 4960 H 457.325 -1.88126 -0.266216 0
M  V30 4961 H 455.475 -2.98245 -2.48962 0
M  V30 4962 H 457.147 -4.59238 -0.43563 0
M  V30 4963 H 455.39 -4.32461 -0.340513 0
M  V30 4964 H 456.061 -5.25759 -1.6817 0
M  V30 4965 H 458.537 -3.44458 -2.33426 0
M  V30 4966 H 457.413 -4.27989 -3.43681 0
M  V30 4967 H 457.674 -2.55153 -3.61039 0
M  V30 4968 N 456.733 0.527833 -1.48498 0
M  V30 4969 C 458.01 1.28905 -1.47115 0
M  V30 4970 C 458.39 2.10297 -0.184007 0
M  V30 4971 O 457.738 2.12728 0.834218 0
M  V30 4972 C 457.948 2.16866 -2.73441 0
M  V30 4973 C 459.296 2.76936 -3.21857 0
M  V30 4974 O 460.32 2.27152 -2.74373 0
M  V30 4975 O 459.179 3.67496 -4.04486 0
M  V30 4976 H 456.273 0.581918 -0.587623 0
M  V30 4977 H 458.819 0.544311 -1.60734 0
M  V30 4978 H 457.591 1.56521 -3.58632 0
M  V30 4979 H 457.214 2.98583 -2.62553 0
M  V30 4980 N 458.211 1.37122 0.776871 0
M  V30 4981 C 459.459 1.31787 1.53221 0
M  V30 4982 C 459.78 -0.0987589 1.9475 0
M  V30 4983 O 459.05 -1.0417 1.65908 0
M  V30 4984 H 457.63 0.484839 0.568278 0
M  V30 4985 H 460.292 1.71556 0.924917 0
M  V30 4986 H 459.388 1.95355 2.43398 0
M  V30 4987 N 459.689 -1.00246 1.21608 0
M  V30 4988 C 460.966 -1.71336 0.943568 0
M  V30 4989 C 461.346 -2.03972 -0.543943 0
M  V30 4990 O 460.694 -1.71545 -1.50946 0
M  V30 4991 C 460.904 -2.97094 1.83128 0
M  V30 4992 C 462.252 -3.70071 2.08165 0
M  V30 4993 O 463.276 -3.07081 1.80498 0
M  V30 4994 O 462.135 -4.83376 2.54971 0
M  V30 4995 H 459.229 -0.747386 0.354039 0
M  V30 4996 H 461.775 -1.05967 1.32549 0
M  V30 4997 H 460.547 -2.69407 2.83788 0
M  V30 4998 H 460.17 -3.70204 1.45034 0
M  V30 4999 N 461.167 -1.02423 -1.1978 0
M  V30 5000 C 462.407 -0.726635 -1.91048 0
M  V30 5001 C 462.771 0.730947 -1.77542 0
M  V30 5002 O 463.972 1.14141 -2.43362 0
M  V30 5003 C 462.243 -1.15964 -3.38064 0
M  V30 5004 S 463.802 -0.985172 -4.27598 0
M  V30 5005 H 460.62 -0.264679 -0.659899 0
M  V30 5006 H 463.222 -1.31309 -1.44838 0
M  V30 5007 H 461.926 -2.21619 -3.45417 0
M  V30 5008 H 461.457 -0.566274 -3.89303 0
M  V30 5009 H 463.472 0.106946 -4.96085 0
M  V30 5010 N 462.645 1.35699 -0.801477 0
M  V30 5011 C 463.87 2.03687 -0.390678 0
M  V30 5012 C 464.295 1.60015 0.988778 0
M  V30 5013 O 463.653 0.774357 1.63931 0
M  V30 5014 C 463.701 3.57439 -0.476404 0
M  V30 5015 O 462.805 4.09208 0.512106 0
M  V30 5016 H 462.146 0.64344 -0.163956 0
M  V30 5017 H 464.676 1.73403 -1.08594 0
M  V30 5018 H 464.686 4.06544 -0.344357 0
M  V30 5019 H 463.361 3.88576 -1.48262 0
M  V30 5020 H 461.938 3.7134 0.340721 0
M  V30 5021 N 464.123 0.554532 1.47522 0
M  V30 5022 C 465.053 -0.182974 2.32782 0
M  V30 5023 C 466.034 -0.911377 1.43624 0
M  V30 5024 O 467.219 -0.892366 1.72483 0
M  V30 5025 C 464.349 -1.21513 3.25349 0
M  V30 5026 C 463.303 -0.603355 4.23726 0
M  V30 5027 C 462.629 -1.73995 5.05598 0
M  V30 5028 C 463.929 0.441121 5.20434 0
M  V30 5029 H 465.623 0.52882 2.94693 0
M  V30 5030 H 463.169 0.255759 1.41711 0
M  V30 5031 H 465.122 -1.73922 3.83835 0
M  V30 5032 H 463.846 -1.95683 2.61487 0
M  V30 5033 H 462.505 -0.10059 3.66462 0
M  V30 5034 H 462.153 -2.47063 4.38143 0
M  V30 5035 H 461.853 -1.3364 5.72201 0
M  V30 5036 H 463.377 -2.26735 5.66942 0
M  V30 5037 H 464.791 0.00319931 5.733 0
M  V30 5038 H 463.188 0.763402 5.95224 0
M  V30 5039 H 464.258 1.33799 4.66075 0
M  V30 5040 N 465.601 -1.54893 0.290851 0
M  V30 5041 C 466.829 -2.04343 -0.324288 0
M  V30 5042 C 467.244 -1.16859 -1.48289 0
M  V30 5043 O 466.601 -0.192018 -1.81487 0
M  V30 5044 C 466.652 -3.52756 -0.79026 0
M  V30 5045 O 466.373 -4.36913 0.322213 0
M  V30 5046 C 467.874 -4.18161 -1.4716 0
M  V30 5047 H 465.094 -0.667135 -0.0719173 0
M  V30 5048 H 467.638 -1.99981 0.427529 0
M  V30 5049 H 465.793 -3.57511 -1.49213 0
M  V30 5050 H 466.207 -5.24486 -0.0387372 0
M  V30 5051 H 467.681 -5.23562 -1.7489 0
M  V30 5052 H 468.158 -3.67282 -2.40834 0
M  V30 5053 H 468.764 -4.17454 -0.813178 0
M  V30 5054 N 467.08 -0.0183926 -1.57589 0
M  V30 5055 C 468.328 0.661253 -1.90976 0
M  V30 5056 C 468.649 1.73281 -0.894353 0
M  V30 5057 O 467.919 1.9579 0.0656788 0
M  V30 5058 H 466.499 0.247233 -0.704901 0
M  V30 5059 H 469.161 -0.0636639 -1.94796 0
M  V30 5060 H 468.257 1.12083 -2.9128 0
M  V30 5061 N 468.558 1.5553 0.254621 0
M  V30 5062 C 469.969 1.67518 0.824286 0
M  V30 5063 C 470.32 0.614429 1.86331 0
M  V30 5064 O 469.445 -0.240736 2.15057 0
M  V30 5065 C 470.04 3.03692 1.50189 0
M  V30 5066 C 468.599 3.17646 2.01935 0
M  V30 5067 C 467.746 2.63373 0.867746 0
M  V30 5068 H 470.697 1.58671 0.0305843 0
M  V30 5069 H 470.718 2.97706 2.36962 0
M  V30 5070 H 470.23 3.80874 0.745431 0
M  V30 5071 H 468.331 2.45273 2.80485 0
M  V30 5072 H 468.444 4.24455 2.22204 0
M  V30 5073 H 466.808 2.20999 1.26616 0
M  V30 5074 H 467.591 3.43074 0.124498 0
M  V30 5075 N 470.036 -0.519951 1.48776 0
M  V30 5076 C 471.447 -1.10177 1.50725 0
M  V30 5077 C 471.798 -1.94153 0.282678 0
M  V30 5078 O 470.923 -2.07645 -0.609298 0
M  V30 5079 C 471.518 -2.00482 2.73116 0
M  V30 5080 C 470.077 -2.53862 2.77905 0
M  V30 5081 C 469.224 -1.31047 2.44381 0
M  V30 5082 H 472.175 -0.30473 1.55747 0
M  V30 5083 H 472.196 -2.8491 2.52203 0
M  V30 5084 H 471.708 -1.39335 3.62225 0
M  V30 5085 H 469.809 -3.18702 1.93029 0
M  V30 5086 H 469.922 -2.9231 3.79594 0
M  V30 5087 H 468.286 -1.62953 1.95751 0
M  V30 5088 H 469.069 -0.71637 3.35743 0
M  V30 5089 N 471.514 -1.37532 -0.769588 0
M  V30 5090 C 472.477 -1.33292 -1.86456 0
M  V30 5091 C 473.477 -0.236537 -1.59051 0
M  V30 5092 O 474.667 -0.492511 -1.67093 0
M  V30 5093 C 471.799 -1.07118 -3.23633 0
M  V30 5094 H 472.992 -2.30692 -1.91628 0
M  V30 5095 H 470.545 -1.22593 -0.969572 0
M  V30 5096 H 471.28 -0.102578 -3.24138 0
M  V30 5097 H 471.065 -1.86479 -3.44917 0
M  V30 5098 H 472.555 -1.06806 -4.03711 0
M  V30 5099 N 472.992 0.995999 -1.22138 0
M  V30 5100 C 473.922 2.10387 -1.01289 0
M  V30 5101 C 474.903 1.69975 0.0651454 0
M  V30 5102 O 476.088 1.9396 -0.0964628 0
M  V30 5103 C 473.218 3.42312 -0.586517 0
M  V30 5104 C 472.172 3.96558 -1.61014 0
M  V30 5105 C 471.498 5.24494 -1.0397 0
M  V30 5106 C 472.798 4.27595 -2.99933 0
M  V30 5107 H 474.492 2.28086 -1.93951 0
M  V30 5108 H 472.038 1.09607 -0.933928 0
M  V30 5109 H 473.991 4.19223 -0.427793 0
M  V30 5110 H 472.715 3.24431 0.375761 0
M  V30 5111 H 471.374 3.21776 -1.75658 0
M  V30 5112 H 471.022 5.02953 -0.0688703 0
M  V30 5113 H 470.722 5.61755 -1.72352 0
M  V30 5114 H 472.246 6.04042 -0.892494 0
M  V30 5115 H 473.66 4.95315 -2.8868 0
M  V30 5116 H 472.057 4.76021 -3.6541 0
M  V30 5117 H 473.127 3.35498 -3.50099 0
M  V30 5118 N 474.47 1.03057 1.19235 0
M  V30 5119 C 475.716 0.729098 1.89241 0
M  V30 5120 C 476.049 -0.740573 1.79525 0
M  V30 5121 O 475.324 -1.53946 1.18874 0
M  V30 5122 C 475.607 1.18304 3.40112 0
M  V30 5123 C 475.46 2.71406 3.5869 0
M  V30 5124 C 476.779 0.765161 4.33397 0
M  V30 5125 H 473.898 0.266338 0.687192 0
M  V30 5126 H 476.54 1.28079 1.40341 0
M  V30 5127 H 474.69 0.713672 3.81889 0
M  V30 5128 H 476.362 3.26303 3.26074 0
M  V30 5129 H 474.605 3.11717 3.01687 0
M  V30 5130 H 475.276 2.98225 4.64506 0
M  V30 5131 H 477.752 1.16889 3.99345 0
M  V30 5132 H 476.628 1.11065 5.37546 0
M  V30 5133 H 476.889 -0.332372 4.40849 0
M  V30 5134 N 475.948 -1.35272 0.808662 0
M  V30 5135 C 477.196 -1.98316 0.389233 0
M  V30 5136 C 477.517 -1.64465 -1.04767 0
M  V30 5137 O 476.787 -0.928175 -1.72516 0
M  V30 5138 H 475.367 -0.733585 0.140935 0
M  V30 5139 H 478.029 -1.6515 1.03496 0
M  V30 5140 H 477.125 -3.08123 0.496631 0
M  V30 5141 N 477.426 -0.562348 -1.47226 0
M  V30 5142 C 478.651 -0.0432632 -2.07355 0
M  V30 5143 C 479.076 1.24332 -1.41149 0
M  V30 5144 O 478.434 1.74603 -0.488226 0
M  V30 5145 C 478.482 0.130288 -3.60365 0
M  V30 5146 O 477.586 1.19166 -3.94808 0
M  V30 5147 H 476.927 -0.0536334 -0.66183 0
M  V30 5148 H 479.457 -0.779495 -1.89169 0
M  V30 5149 H 479.467 0.342881 -4.06557 0
M  V30 5150 H 478.142 -0.809389 -4.07948 0
M  V30 5151 H 476.719 0.959153 -3.60354 0
M  V30 5152 N 478.904 1.54736 -0.299062 0
M  V30 5153 C 480.134 2.04215 0.312992 0
M  V30 5154 C 480.542 1.17596 1.48215 0
M  V30 5155 O 479.885 0.193835 1.82674 0
M  V30 5156 C 479.947 3.49696 0.833862 0
M  V30 5157 C 479.611 4.56518 -0.20977 0
M  V30 5158 C 480.608 5.09442 -1.03756 0
M  V30 5159 C 478.293 5.01073 -0.35091 0
M  V30 5160 C 480.287 6.05459 -1.99244 0
M  V30 5161 C 477.974 5.9691 -1.30924 0
M  V30 5162 C 478.972 6.48987 -2.1285 0
M  V30 5163 O 478.66 7.42947 -3.07059 0
M  V30 5164 H 478.392 0.672128 0.0722494 0
M  V30 5165 H 480.946 2.00718 -0.436043 0
M  V30 5166 H 479.176 3.5051 1.63339 0
M  V30 5167 H 480.865 3.82381 1.36159 0
M  V30 5168 H 481.631 4.75816 -0.939376 0
M  V30 5169 H 477.51 4.60168 0.276813 0
M  V30 5170 H 481.054 6.46031 -2.63229 0
M  V30 5171 H 476.951 6.29953 -1.40815 0
M  V30 5172 H 477.719 7.60743 -3.02015 0
M  V30 5173 N 480.382 0.0267497 1.57577 0
M  V30 5174 C 481.63 -0.651116 1.91324 0
M  V30 5175 C 481.951 -1.72804 0.90353 0
M  V30 5176 O 481.221 -1.95822 -0.0552946 0
M  V30 5177 H 479.801 -0.243491 0.706202 0
M  V30 5178 H 482.463 0.0739935 1.94759 0
M  V30 5179 H 481.559 -1.10536 2.9187 0
M  V30 5180 N 481.861 -1.55662 -0.24637 0
M  V30 5181 C 483.089 -1.81575 -0.991876 0
M  V30 5182 C 483.504 -0.602545 -1.78927 0
M  V30 5183 O 482.861 0.428795 -1.77391 0
M  V30 5184 C 482.912 -3.05711 -1.92933 0
M  V30 5185 O 482.633 -4.22348 -1.1642 0
M  V30 5186 C 484.134 -3.44428 -2.79078 0
M  V30 5187 H 481.354 -0.604209 -0.291844 0
M  V30 5188 H 483.898 -2.02722 -0.269095 0
M  V30 5189 H 482.053 -2.86612 -2.60638 0
M  V30 5190 H 482.467 -4.92706 -1.79835 0
M  V30 5191 H 483.941 -4.34388 -3.40603 0
M  V30 5192 H 484.418 -2.65037 -3.50217 0
M  V30 5193 H 485.024 -3.65879 -2.16824 0
M  V30 5194 N 483.339 0.512053 -1.4905 0
M  V30 5195 C 484.564 1.2959 -1.6193 0
M  V30 5196 C 484.989 1.85906 -0.286454 0
M  V30 5197 O 484.347 1.65312 0.744426 0
M  V30 5198 C 484.395 2.40987 -2.68249 0
M  V30 5199 O 483.499 3.44531 -2.26654 0
M  V30 5200 H 482.84 0.383053 -0.542371 0
M  V30 5201 H 485.37 0.614231 -1.95162 0
M  V30 5202 H 485.38 2.86913 -2.90078 0
M  V30 5203 H 484.055 1.99361 -3.65004 0
M  V30 5204 H 482.632 3.046 -2.15112 0
M  V30 5205 N 484.817 1.37938 0.762283 0
M  V30 5206 C 486.228 1.30094 1.33912 0
M  V30 5207 C 486.579 -0.0472026 1.96143 0
M  V30 5208 O 485.704 -0.94917 1.94473 0
M  V30 5209 C 486.299 2.35592 2.43478 0
M  V30 5210 C 484.858 2.31353 2.96905 0
M  V30 5211 C 484.005 2.18919 1.70205 0
M  V30 5212 H 486.956 1.48423 0.561816 0
M  V30 5213 H 486.977 2.00806 3.23199 0
M  V30 5214 H 486.489 3.33701 1.98155 0
M  V30 5215 H 484.59 1.36799 3.46579 0
M  V30 5216 H 484.703 3.25147 3.51875 0
M  V30 5217 H 483.067 1.65624 1.93496 0
M  V30 5218 H 483.85 3.18956 1.26973 0
M  V30 5219 N 486.295 -0.989507 1.22664 0
M  V30 5220 C 487.205 -2.11449 1.01619 0
M  V30 5221 C 488.221 -1.73962 -0.036545 0
M  V30 5222 O 489.397 -2.00788 0.156924 0
M  V30 5223 C 486.462 -3.41465 0.600204 0
M  V30 5224 C 485.523 -3.93033 1.72695 0
M  V30 5225 C 484.756 -5.16844 1.33071 0
M  V30 5226 O 484.979 -5.7001 0.210975 0
M  V30 5227 O 483.913 -5.6225 2.14845 0
M  V30 5228 H 487.739 -2.32088 1.9588 0
M  V30 5229 H 485.324 -1.09823 1.01289 0
M  V30 5230 H 487.206 -4.19695 0.37873 0
M  V30 5231 H 485.881 -3.22178 -0.313511 0
M  V30 5232 H 484.788 -3.15961 2.00298 0
M  V30 5233 H 486.121 -4.16758 2.61865 0
M  V30 5234 N 487.773 -1.03688 -1.18687 0
M  V30 5235 C 489.021 -0.736572 -1.88199 0
M  V30 5236 C 489.342 0.737665 -1.80509 0
M  V30 5237 O 488.612 1.53204 -1.22088 0
M  V30 5238 H 487.192 -0.269466 -0.696704 0
M  V30 5239 H 489.854 -1.31282 -1.44052 0
M  V30 5240 H 488.95 -1.03802 -2.94332 0
M  V30 5241 N 489.251 1.34841 -0.815825 0
M  V30 5242 C 490.5 1.97755 -0.396976 0
M  V30 5243 C 490.813 1.65422 1.04379 0
M  V30 5244 O 492.019 2.21771 1.5662 0
M  V30 5245 C 490.475 3.53818 -0.658869 0
M  V30 5246 C 490.083 3.95051 -2.11278 0
M  V30 5247 C 491.827 4.23397 -0.305834 0
M  V30 5248 C 489.734 5.43997 -2.31994 0
M  V30 5249 H 488.664 0.739985 -0.1447 0
M  V30 5250 H 491.315 1.53781 -1.00118 0
M  V30 5251 H 489.697 3.95997 0.0154112 0
M  V30 5252 H 490.871 3.63998 -2.82564 0
M  V30 5253 H 489.186 3.38388 -2.42657 0
M  V30 5254 H 491.783 5.32899 -0.43854 0
M  V30 5255 H 492.126 4.09508 0.748952 0
M  V30 5256 H 492.659 3.8667 -0.934403 0
M  V30 5257 H 489.398 5.62865 -3.35952 0
M  V30 5258 H 488.918 5.76589 -1.65244 0
M  V30 5259 H 490.597 6.10584 -2.14001 0
M  V30 5260 N 490.729 0.570148 1.46925 0
M  V30 5261 C 491.977 0.0508523 2.02036 0
M  V30 5262 C 492.298 -1.30885 1.44548 0
M  V30 5263 O 491.568 -1.85647 0.625453 0
M  V30 5264 H 490.148 0.0158088 0.746833 0
M  V30 5265 H 492.81 0.743086 1.80178 0
M  V30 5266 H 491.906 -0.027575 3.12088 0
M  V30 5267 N 492.207 -1.54576 0.307264 0
M  V30 5268 C 493.455 -1.99867 -0.299574 0
M  V30 5269 C 493.776 -1.19714 -1.53927 0
M  V30 5270 O 493.046 -0.29472 -1.9367 0
M  V30 5271 H 491.626 -0.738299 -0.113683 0
M  V30 5272 H 494.288 -1.9032 0.420042 0
M  V30 5273 H 493.384 -3.06901 -0.567283 0
M  V30 5274 N 493.685 -0.035106 -1.57561 0
M  V30 5275 C 494.915 0.651312 -1.96065 0
M  V30 5276 C 495.323 1.6585 -0.910514 0
M  V30 5277 O 494.666 1.83336 0.11552 0
M  V30 5278 C 494.728 1.40897 -3.30739 0
M  V30 5279 C 494.392 0.559436 -4.53563 0
M  V30 5280 C 495.389 -0.16778 -5.19629 0
M  V30 5281 C 493.074 0.495079 -4.99854 0
M  V30 5282 C 495.068 -0.947963 -6.30311 0
M  V30 5283 C 492.755 -0.288804 -6.10417 0
M  V30 5284 C 493.753 -1.00903 -6.75505 0
M  V30 5285 O 493.441 -1.78005 -7.83945 0
M  V30 5286 H 493.173 0.184036 -0.650467 0
M  V30 5287 H 495.727 -0.0929677 -2.05189 0
M  V30 5288 H 493.957 2.19852 -3.18123 0
M  V30 5289 H 495.646 1.98407 -3.54104 0
M  V30 5290 H 496.412 -0.12743 -4.84833 0
M  V30 5291 H 492.291 1.04524 -4.48994 0
M  V30 5292 H 495.835 -1.51064 -6.81047 0
M  V30 5293 H 491.732 -0.33085 -6.44652 0
M  V30 5294 H 492.5 -1.70046 -8.00641 0
M  V30 5295 N 495.163 1.55791 0.238111 0
M  V30 5296 C 496.412 1.77234 0.962868 0
M  V30 5297 C 496.725 0.600661 1.86149 0
M  V30 5298 O 497.931 0.698315 2.62366 0
M  V30 5299 C 496.387 3.13808 1.76218 0
M  V30 5300 C 495.995 4.3865 0.910518 0
M  V30 5301 C 497.739 3.44585 2.47914 0
M  V30 5302 C 495.646 5.66252 1.70623 0
M  V30 5303 H 494.576 0.660731 0.36325 0
M  V30 5304 H 497.227 1.8221 0.217242 0
M  V30 5305 H 495.609 3.02963 2.55009 0
M  V30 5306 H 496.783 4.60507 0.164316 0
M  V30 5307 H 495.098 4.15271 0.30647 0
M  V30 5308 H 497.695 4.3714 3.07917 0
M  V30 5309 H 498.038 2.66314 3.19973 0
M  V30 5310 H 498.571 3.56685 1.76127 0
M  V30 5311 H 495.31 6.47369 1.02923 0
M  V30 5312 H 494.83 5.48483 2.42748 0
M  V30 5313 H 496.509 6.05829 2.27114 0
M  V30 5314 N 496.642 -0.504142 1.49319 0
M  V30 5315 C 497.592 -1.60284 1.62151 0
M  V30 5316 C 498.576 -1.53657 0.477315 0
M  V30 5317 O 499.768 -1.6124 0.730108 0
M  V30 5318 C 496.897 -2.98909 1.68844 0
M  V30 5319 C 495.983 -3.10544 2.8883 0
M  V30 5320 N 496.374 -2.92078 4.12946 0
M  V30 5321 C 494.672 -3.4164 2.86702 0
M  V30 5322 C 495.373 -3.07812 4.93585 0
M  V30 5323 N 494.349 -3.36549 4.26891 0
M  V30 5324 H 498.151 -1.44656 2.55835 0
M  V30 5325 H 495.665 -0.710198 1.46048 0
M  V30 5326 H 497.662 -3.77865 1.76134 0
M  V30 5327 H 496.322 -3.15609 0.762943 0
M  V30 5328 H 497.333 -2.68316 4.42975 0
M  V30 5329 H 494.01 -3.64537 2.03517 0
M  V30 5330 H 495.4 -2.98054 6.02174 0
M  V30 5331 N 498.12 -1.38341 -0.754957 0
M  V30 5332 C 499.345 -1.37882 -1.5493 0
M  V30 5333 C 499.77 0.0296385 -1.88077 0
M  V30 5334 O 499.128 1.01133 -1.50472 0
M  V30 5335 C 499.176 -2.23996 -2.82592 0
M  V30 5336 O 498.28 -1.65612 -3.77686 0
M  V30 5337 H 497.621 -0.470384 -0.468652 0
M  V30 5338 H 500.151 -1.82084 -0.933082 0
M  V30 5339 H 500.161 -2.37806 -3.3153 0
M  V30 5340 H 498.836 -3.26365 -2.57796 0
M  V30 5341 H 497.413 -1.60936 -3.36384 0
M  V30 5342 N 499.598 0.982988 -1.23187 0
M  V30 5343 C 500.548 2.05962 -0.977942 0
M  V30 5344 C 501.532 1.60725 0.0751148 0
M  V30 5345 O 502.724 1.76471 -0.136683 0
M  V30 5346 C 499.853 3.38564 -0.568276 0
M  V30 5347 C 498.939 3.90407 -1.6566 0
M  V30 5348 N 499.33 4.15359 -2.88635 0
M  V30 5349 C 497.628 4.18915 -1.53058 0
M  V30 5350 C 498.329 4.57642 -3.5908 0
M  V30 5351 N 497.305 4.6192 -2.86584 0
M  V30 5352 H 501.107 2.23208 -1.91195 0
M  V30 5353 H 498.621 1.16555 -1.13087 0
M  V30 5354 H 500.618 4.15276 -0.36764 0
M  V30 5355 H 499.278 3.22712 0.358713 0
M  V30 5356 H 500.289 4.03258 -3.24966 0
M  V30 5357 H 496.966 4.12081 -0.670506 0
M  V30 5358 H 498.356 4.85488 -4.6449 0
M  V30 5359 N 501.076 1.04316 1.18135 0
M  V30 5360 C 502.492 0.762858 1.40188 0
M  V30 5361 C 502.692 -0.646547 1.90846 0
M  V30 5362 O 501.748 -1.41036 2.0944 0
M  V30 5363 C 503.061 1.81106 2.40044 0
M  V30 5364 C 504.609 1.83226 2.53766 0
M  V30 5365 C 505.084 2.87044 3.56889 0
M  V30 5366 N 506.575 2.85951 3.64398 0
M  V30 5367 C 507.31 3.62932 4.43923 0
M  V30 5368 N 506.806 4.49672 5.27036 0
M  V30 5369 N 508.599 3.51411 4.38711 0
M  V30 5370 H 500.75 1.95264 0.835805 0
M  V30 5371 H 503.013 0.845017 0.429709 0
M  V30 5372 H 502.719 2.82214 2.09876 0
M  V30 5373 H 502.593 1.64529 3.39426 0
M  V30 5374 H 504.98 0.827869 2.8325 0
M  V30 5375 H 505.061 2.03879 1.54489 0
M  V30 5376 H 504.705 3.87663 3.28145 0
M  V30 5377 H 504.635 2.63645 4.5585 0
M  V30 5378 H 507.126 2.23051 3.05052 0
M  V30 5379 H 507.439 5.05116 5.84874 0
M  V30 5380 H 505.784 4.53738 5.26447 0
M  V30 5381 H 508.975 2.83047 3.72829 0
M  V30 5382 H 509.148 4.11654 5.00445 0
M  V30 5383 N 502.554 -1.34406 0.822964 0
M  V30 5384 C 503.965 -1.8069 0.469879 0
M  V30 5385 C 504.316 -1.68223 -1.00972 0
M  V30 5386 O 503.441 -1.22226 -1.78577 0
M  V30 5387 C 504.036 -3.28064 0.846118 0
M  V30 5388 C 502.595 -3.72428 0.545402 0
M  V30 5389 C 501.742 -2.56116 1.06301 0
M  V30 5390 H 504.693 -1.22153 1.01313 0
M  V30 5391 H 504.714 -3.80205 0.149922 0
M  V30 5392 H 504.226 -3.37107 1.92304 0
M  V30 5393 H 502.327 -3.68924 -0.522109 0
M  V30 5394 H 502.44 -4.66548 1.0895 0
M  V30 5395 H 500.804 -2.50048 0.484554 0
M  V30 5396 H 501.587 -2.67928 2.14638 0
M  V30 5397 N 504.032 -0.577932 -1.46621 0
M  V30 5398 C 504.962 0.145917 -2.33044 0
M  V30 5399 C 505.943 0.888412 -1.45056 0
M  V30 5400 O 507.128 0.864812 -1.73881 0
M  V30 5401 C 504.258 1.16322 -3.27241 0
M  V30 5402 C 503.212 0.535868 -4.24632 0
M  V30 5403 C 502.538 1.65929 -5.08303 0
M  V30 5404 C 503.838 -0.523861 -5.19666 0
M  V30 5405 H 505.532 -0.575636 -2.93814 0
M  V30 5406 H 503.078 -0.278272 -1.41286 0
M  V30 5407 H 505.031 1.67793 -3.86553 0
M  V30 5408 H 503.755 1.91498 -2.64567 0
M  V30 5409 H 502.414 0.0422759 -3.66576 0
M  V30 5410 H 502.062 2.40061 -4.42018 0
M  V30 5411 H 501.762 1.2452 -5.74255 0
M  V30 5412 H 503.286 2.17686 -5.70478 0
M  V30 5413 H 504.7 -0.0944059 -5.73222 0
M  V30 5414 H 503.097 -0.858 -5.93935 0
M  V30 5415 H 504.167 -1.41197 -4.63887 0
M  V30 5416 N 505.51 1.54411 -0.315457 0
M  V30 5417 C 506.758 2.00023 0.288971 0
M  V30 5418 C 507.079 1.20529 1.5329 0
M  V30 5419 O 506.349 0.304986 1.93511 0
M  V30 5420 H 504.929 0.738891 0.109766 0
M  V30 5421 H 507.591 1.90094 -0.430129 0
M  V30 5422 H 506.687 3.07198 0.550999 0
M  V30 5423 N 506.988 0.0434614 1.5754 0
M  V30 5424 C 508.399 -0.493343 1.80064 0
M  V30 5425 C 508.75 -1.71388 0.955023 0
M  V30 5426 O 507.875 -2.15736 0.169434 0
M  V30 5427 C 508.47 -0.90179 3.26578 0
M  V30 5428 C 507.029 -1.38362 3.50047 0
M  V30 5429 C 506.176 -0.355129 2.75017 0
M  V30 5430 H 509.127 0.2694 1.56397 0
M  V30 5431 H 509.148 -1.76523 3.37075 0
M  V30 5432 H 508.66 -0.013271 3.88098 0
M  V30 5433 H 506.761 -2.29159 2.93798 0
M  V30 5434 H 506.874 -1.3811 4.58762 0
M  V30 5435 H 505.238 -0.826348 2.40922 0
M  V30 5436 H 506.021 0.525172 3.39259 0
M  V30 5437 N 508.466 -1.55915 -0.229846 0
M  V30 5438 C 509.714 -1.7819 -0.953565 0
M  V30 5439 C 510.035 -0.610504 -1.85197 0
M  V30 5440 O 509.305 0.372988 -1.92316 0
M  V30 5441 H 507.885 -0.657208 -0.355087 0
M  V30 5442 H 510.547 -1.9337 -0.243693 0
M  V30 5443 H 509.643 -2.70011 -1.56527 0
M  V30 5444 N 509.944 0.496216 -1.49584 0
M  V30 5445 C 510.854 1.62352 -1.69349 0
M  V30 5446 C 511.87 1.64184 -0.576147 0
M  V30 5447 O 513.046 1.82517 -0.85144 0
M  V30 5448 C 510.111 2.98698 -1.76013 0
M  V30 5449 C 509.172 3.07454 -2.99617 0
M  V30 5450 C 508.405 4.37296 -3.05953 0
M  V30 5451 O 508.628 5.2637 -2.19752 0
M  V30 5452 O 507.562 4.51124 -3.9846 0
M  V30 5453 H 511.388 1.48606 -2.64859 0
M  V30 5454 H 508.973 0.673022 -1.33382 0
M  V30 5455 H 510.855 3.79725 -1.82721 0
M  V30 5456 H 509.53 3.12696 -0.836828 0
M  V30 5457 H 508.437 2.25597 -2.98424 0
M  V30 5458 H 509.77 2.98385 -3.91443 0
M  V30 5459 N 511.423 1.38739 0.74761 0
M  V30 5460 C 512.67 1.35274 1.50689 0
M  V30 5461 C 512.998 -0.0553359 1.94421 0
M  V30 5462 O 512.253 -1.03365 1.66175 0
M  V30 5463 C 512.552 2.25992 2.7688 0
M  V30 5464 C 512.218 3.73854 2.5208 0
M  V30 5465 C 510.88 4.14145 2.45025 0
M  V30 5466 C 513.232 4.67427 2.30568 0
M  V30 5467 C 510.56 5.4609 2.14483 0
M  V30 5468 C 512.912 5.99635 2.01545 0
M  V30 5469 C 511.576 6.39004 1.92951 0
M  V30 5470 H 510.846 0.495003 0.55141 0
M  V30 5471 H 513.493 1.71145 0.859158 0
M  V30 5472 H 511.798 1.83196 3.46333 0
M  V30 5473 H 513.495 2.20611 3.34861 0
M  V30 5474 H 510.085 3.41913 2.58444 0
M  V30 5475 H 514.269 4.3714 2.34994 0
M  V30 5476 H 509.525 5.75528 2.06342 0
M  V30 5477 H 513.699 6.71678 1.83906 0
M  V30 5478 H 511.326 7.41165 1.6905 0
M  V30 5479 N 512.901 -0.976442 1.23707 0
M  V30 5480 C 513.811 -2.10359 1.03856 0
M  V30 5481 C 514.827 -1.73991 -0.0180919 0
M  V30 5482 O 516.003 -2.0061 0.178211 0
M  V30 5483 C 513.068 -3.40809 0.636387 0
M  V30 5484 C 512.129 -3.91179 1.76854 0
M  V30 5485 C 511.362 -5.15404 1.38546 0
M  V30 5486 O 511.585 -5.69754 0.27142 0
M  V30 5487 O 510.519 -5.5994 2.20797 0
M  V30 5488 H 514.345 -2.29997 1.98331 0
M  V30 5489 H 511.93 -1.08742 1.02448 0
M  V30 5490 H 513.812 -4.19269 0.423223 0
M  V30 5491 H 512.487 -3.22493 -0.279322 0
M  V30 5492 H 511.394 -3.13819 2.03638 0
M  V30 5493 H 512.727 -4.13958 2.6627 0
M  V30 5494 N 514.379 -1.04941 -1.1758 0
M  V30 5495 C 515.604 -0.778253 -1.92245 0
M  V30 5496 C 516.029 0.659707 -1.76152 0
M  V30 5497 O 515.387 1.45803 -1.07755 0
M  V30 5498 C 515.435 -1.16051 -3.41416 0
M  V30 5499 O 514.539 -0.291153 -4.11371 0
M  V30 5500 H 513.88 -0.285619 -0.599431 0
M  V30 5501 H 516.41 -1.40159 -1.49052 0
M  V30 5502 H 516.42 -1.12619 -3.92149 0
M  V30 5503 H 515.095 -2.208 -3.52449 0
M  V30 5504 H 513.672 -0.385851 -3.70898 0
M  V30 5505 N 515.857 1.33968 -0.830081 0
M  V30 5506 C 517.104 1.98063 -0.421566 0
M  V30 5507 C 517.432 1.65787 1.0171 0
M  V30 5508 O 516.687 0.925348 1.72441 0
M  V30 5509 C 516.986 3.52679 -0.57898 0
M  V30 5510 C 516.652 4.04884 -1.98443 0
M  V30 5511 C 515.314 4.18852 -2.36888 0
M  V30 5512 C 517.666 4.32879 -2.90285 0
M  V30 5513 C 514.994 4.58145 -3.66497 0
M  V30 5514 C 517.346 4.7362 -4.19364 0
M  V30 5515 C 516.01 4.85794 -4.57778 0
M  V30 5516 H 515.28 0.724765 -0.154262 0
M  V30 5517 H 517.927 1.59792 -1.05541 0
M  V30 5518 H 516.232 3.91556 0.138219 0
M  V30 5519 H 517.929 4.00261 -0.243317 0
M  V30 5520 H 514.519 3.9448 -1.67581 0
M  V30 5521 H 518.703 4.21619 -2.61823 0
M  V30 5522 H 513.959 4.65762 -3.96075 0
M  V30 5523 H 518.133 4.9424 -4.90612 0
M  V30 5524 H 515.76 5.15998 -5.58256 0
M  V30 5525 N 517.335 0.585699 1.46312 0
M  V30 5526 C 518.584 0.0701192 2.01578 0
M  V30 5527 C 518.897 -1.29889 1.46247 0
M  V30 5528 O 520.103 -1.90598 1.93351 0
M  V30 5529 C 518.559 0.0747499 3.59822 0
M  V30 5530 C 518.167 1.44226 4.24149 0
M  V30 5531 C 519.911 -0.38673 4.22735 0
M  V30 5532 C 517.818 1.40446 5.74481 0
M  V30 5533 H 516.748 0.0224441 0.753666 0
M  V30 5534 H 519.399 0.737789 1.68015 0
M  V30 5535 H 517.781 -0.659144 3.90476 0
M  V30 5536 H 518.955 2.19612 4.05101 0
M  V30 5537 H 517.27 1.84401 3.73343 0
M  V30 5538 H 519.867 -0.433853 5.32937 0
M  V30 5539 H 520.21 -1.40489 3.91878 0
M  V30 5540 H 520.743 0.293195 3.96718 0
M  V30 5541 H 517.482 2.39952 6.10003 0
M  V30 5542 H 517.002 0.692845 5.95785 0
M  V30 5543 H 518.681 1.11865 6.37256 0
M  V30 5544 N 518.813 -1.54241 0.323641 0
M  V30 5545 C 520.09 -1.92741 -0.333181 0
M  V30 5546 C 520.47 -1.25326 -1.69872 0
M  V30 5547 O 519.818 -0.396991 -2.25025 0
M  V30 5548 C 520.028 -3.46399 -0.425322 0
M  V30 5549 C 521.376 -4.19029 -0.68557 0
M  V30 5550 O 522.4 -3.52555 -0.50824 0
M  V30 5551 O 521.259 -5.36751 -1.02767 0
M  V30 5552 H 518.353 -0.804811 -0.190286 0
M  V30 5553 H 520.899 -1.65542 0.373361 0
M  V30 5554 H 519.671 -3.87643 0.533737 0
M  V30 5555 H 519.294 -3.79704 -1.17944 0
M  V30 5556 N 520.291 -0.0518155 -1.57515 0
M  V30 5557 C 521.537 0.622745 -1.93002 0
M  V30 5558 C 521.87 1.70456 -0.930499 0
M  V30 5559 O 521.145 1.94452 0.0434086 0
M  V30 5560 C 521.428 1.21824 -3.38867 0
M  V30 5561 C 521.281 0.144434 -4.49568 0
M  V30 5562 C 522.6 2.12968 -3.8514 0
M  V30 5563 H 519.719 0.22491 -0.701844 0
M  V30 5564 H 522.361 -0.113711 -1.89659 0
M  V30 5565 H 520.511 1.8459 -3.41846 0
M  V30 5566 H 522.183 -0.48753 -4.58717 0
M  V30 5567 H 520.426 -0.527424 -4.30582 0
M  V30 5568 H 521.097 0.601127 -5.48717 0
M  V30 5569 H 523.573 1.60163 -3.8404 0
M  V30 5570 H 522.449 2.51578 -4.87852 0
M  V30 5571 H 522.71 3.03004 -3.21934 0
M  V30 5572 N 521.769 1.56035 0.221574 0
M  V30 5573 C 522.999 1.82864 0.961468 0
M  V30 5574 C 523.407 0.628703 1.78449 0
M  V30 5575 O 522.75 -0.412109 1.79018 0
M  V30 5576 C 522.812 3.03425 1.92804 0
M  V30 5577 C 522.476 4.38429 1.28954 0
M  V30 5578 C 523.473 5.15441 0.679431 0
M  V30 5579 C 521.158 4.85151 1.30131 0
M  V30 5580 C 523.152 6.37337 0.0896148 0
M  V30 5581 C 520.839 6.06989 0.707651 0
M  V30 5582 C 521.837 6.82923 0.102855 0
M  V30 5583 O 521.525 8.02456 -0.48157 0
M  V30 5584 H 521.257 0.611883 0.28736 0
M  V30 5585 H 523.811 2.0397 0.241932 0
M  V30 5586 H 522.041 2.78138 2.68656 0
M  V30 5587 H 523.73 3.17127 2.53348 0
M  V30 5588 H 524.496 4.80452 0.662661 0
M  V30 5589 H 520.375 4.26021 1.76145 0
M  V30 5590 H 523.919 6.96547 -0.383069 0
M  V30 5591 H 519.816 6.41451 0.721834 0
M  V30 5592 H 520.584 8.17636 -0.375887 0
M  V30 5593 N 523.247 -0.488276 1.49845 0
M  V30 5594 C 524.21 -1.57069 1.66919 0
M  V30 5595 C 525.21 -1.51445 0.540479 0
M  V30 5596 O 526.4 -1.5437 0.807188 0
M  V30 5597 C 523.532 -2.96718 1.67844 0
M  V30 5598 H 524.725 -1.43254 2.63474 0
M  V30 5599 H 522.278 -0.713435 1.39068 0
M  V30 5600 H 523.013 -3.15996 0.7292 0
M  V30 5601 H 522.798 -3.02208 2.49826 0
M  V30 5602 H 524.288 -3.75335 1.83066 0
M  V30 5603 N 524.725 -1.39134 -0.740242 0
M  V30 5604 C 525.974 -1.35384 -1.49512 0
M  V30 5605 C 526.287 0.04919 -1.95538 0
M  V30 5606 O 527.493 0.209257 -2.70692 0
M  V30 5607 C 525.949 -2.37812 -2.70136 0
M  V30 5608 C 525.557 -3.83804 -2.31081 0
M  V30 5609 C 527.301 -2.4313 -3.47977 0
M  V30 5610 C 525.208 -4.77886 -3.48395 0
M  V30 5611 H 524.138 -0.503297 -0.561434 0
M  V30 5612 H 526.789 -1.64754 -0.807974 0
M  V30 5613 H 525.171 -2.01505 -3.40899 0
M  V30 5614 H 526.345 -4.29123 -1.67898 0
M  V30 5615 H 524.66 -3.81732 -1.66343 0
M  V30 5616 H 527.257 -3.10614 -4.35228 0
M  V30 5617 H 527.6 -1.45423 -3.90074 0
M  V30 5618 H 528.133 -2.78304 -2.84239 0
M  V30 5619 H 524.872 -5.76836 -3.11353 0
M  V30 5620 H 524.392 -4.3725 -4.10576 0
M  V30 5621 H 526.071 -4.96538 -4.148 0
M  V30 5622 N 526.204 0.969867 -1.24223 0
M  V30 5623 C 527.62 1.23809 -1.00716 0
M  V30 5624 C 527.82 1.99469 0.285358 0
M  V30 5625 O 526.876 2.31764 1.00207 0
M  V30 5626 C 528.189 2.02734 -2.2208 0
M  V30 5627 C 529.737 2.15834 -2.26681 0
M  V30 5628 C 530.212 2.98154 -3.47661 0
M  V30 5629 N 531.703 3.05737 -3.47964 0
M  V30 5630 C 532.438 3.69785 -4.38231 0
M  V30 5631 N 531.934 4.35569 -5.3875 0
M  V30 5632 N 533.727 3.66775 -4.25949 0
M  V30 5633 H 525.878 0.463294 -2.07286 0
M  V30 5634 H 528.141 0.267348 -0.909521 0
M  V30 5635 H 527.847 1.54524 -3.15935 0
M  V30 5636 H 527.721 3.0347 -2.24021 0
M  V30 5637 H 530.108 2.63248 -1.33359 0
M  V30 5638 H 530.189 1.14453 -2.28767 0
M  V30 5639 H 529.833 2.51435 -4.41297 0
M  V30 5640 H 529.763 3.99729 -3.42818 0
M  V30 5641 H 532.254 2.58941 -2.75242 0
M  V30 5642 H 532.567 4.82251 -6.03866 0
M  V30 5643 H 530.912 4.34244 -5.42639 0
M  V30 5644 H 534.103 3.14558 -3.46657 0
M  V30 5645 H 534.276 4.16407 -4.96497 0
M  V30 5646 N 527.682 1.05563 1.17022 0
M  V30 5647 C 528.907 0.788437 1.91829 0
M  V30 5648 C 529.332 -0.650356 1.76499 0
M  V30 5649 O 528.69 -1.45229 1.08527 0
M  V30 5650 C 528.738 1.1786 3.40795 0
M  V30 5651 O 527.842 0.312965 4.11211 0
M  V30 5652 H 527.183 0.288794 0.597908 0
M  V30 5653 H 529.713 1.40948 1.48307 0
M  V30 5654 H 529.723 1.14697 3.91546 0
M  V30 5655 H 528.398 2.22666 3.51273 0
M  V30 5656 H 526.975 0.405515 3.70689 0
M  V30 5657 N 529.16 -1.33526 0.837174 0
M  V30 5658 C 530.123 -2.27551 0.274421 0
M  V30 5659 C 531.123 -1.50886 -0.555881 0
M  V30 5660 O 532.313 -1.70227 -0.369918 0
M  V30 5661 C 529.445 -3.35332 -0.613605 0
M  V30 5662 H 530.638 -2.78837 1.10408 0
M  V30 5663 H 528.191 -1.439 0.610126 0
M  V30 5664 H 528.926 -2.89285 -1.46577 0
M  V30 5665 H 528.711 -3.92095 -0.0195341 0
M  V30 5666 H 530.201 -4.05433 -1.00068 0
M  V30 5667 N 530.638 -0.59345 -1.46 0
M  V30 5668 C 531.548 0.135817 -2.34207 0
M  V30 5669 C 532.564 0.875008 -1.50398 0
M  V30 5670 O 533.74 0.835778 -1.83239 0
M  V30 5671 C 530.805 1.12977 -3.27776 0
M  V30 5672 C 529.866 0.394081 -4.27487 0
M  V30 5673 C 529.099 1.34068 -5.16586 0
M  V30 5674 O 529.322 2.5778 -5.08828 0
M  V30 5675 O 528.256 0.845426 -5.95933 0
M  V30 5676 H 532.082 -0.588691 -2.9794 0
M  V30 5677 H 529.667 -0.353784 -1.45151 0
M  V30 5678 H 531.549 1.70261 -3.85473 0
M  V30 5679 H 530.224 1.83556 -2.66625 0
M  V30 5680 H 529.131 -0.220869 -3.73447 0
M  V30 5681 H 530.464 -0.270939 -4.91454 0
M  V30 5682 N 532.116 1.54067 -0.331816 0
M  V30 5683 C 533.364 2.00319 0.267739 0
M  V30 5684 C 533.685 1.22148 1.52003 0
M  V30 5685 O 532.955 0.325494 1.93177 0
M  V30 5686 H 531.535 0.740014 0.101922 0
M  V30 5687 H 534.197 1.89628 -0.450267 0
M  V30 5688 H 533.293 3.07765 0.518385 0
M  V30 5689 N 533.594 0.0601682 1.57485 0
M  V30 5690 C 534.557 -0.896373 2.10945 0
M  V30 5691 C 535.557 -1.23402 1.03095 0
M  V30 5692 O 536.747 -1.16921 1.29132 0
M  V30 5693 C 533.879 -2.20346 2.60116 0
M  V30 5694 H 535.072 -0.432778 2.96761 0
M  V30 5695 H 532.625 -0.188372 1.55161 0
M  V30 5696 H 533.36 -2.71268 1.7772 0
M  V30 5697 H 533.145 -1.9714 3.38937 0
M  V30 5698 H 534.635 -2.88846 3.01592 0
M  V30 5699 N 535.072 -1.5615 -0.213296 0
M  V30 5700 C 536.483 -1.69645 -0.779582 0
M  V30 5701 C 536.834 -0.663615 -1.84636 0
M  V30 5702 O 535.959 0.183633 -2.15619 0
M  V30 5703 C 536.554 -3.07567 -1.42084 0
M  V30 5704 C 535.113 -3.22889 -1.93442 0
M  V30 5705 C 534.26 -2.65581 -0.797612 0
M  V30 5706 H 537.211 -1.58696 0.0114951 0
M  V30 5707 H 537.232 -3.03884 -2.28986 0
M  V30 5708 H 536.744 -3.82716 -0.644187 0
M  V30 5709 H 534.845 -2.52623 -2.73884 0
M  V30 5710 H 534.958 -4.30197 -2.10872 0
M  V30 5711 H 533.322 -2.24278 -1.20712 0
M  V30 5712 H 534.105 -3.43284 -0.033494 0
M  V30 5713 N 536.55 0.480323 -1.50102 0
M  V30 5714 C 537.482 1.59669 -1.64433 0
M  V30 5715 C 538.495 1.54063 -0.52615 0
M  V30 5716 O 539.684 1.59619 -0.798992 0
M  V30 5717 C 536.784 2.98527 -1.6042 0
M  V30 5718 C 535.957 3.291 -2.88117 0
M  V30 5719 C 535.016 4.47468 -2.76873 0
M  V30 5720 O 534.042 4.4823 -3.50825 0
M  V30 5721 N 535.244 5.48593 -1.89806 0
M  V30 5722 H 538.009 1.47795 -2.60723 0
M  V30 5723 H 535.57 0.66858 -1.4745 0
M  V30 5724 H 537.562 3.75666 -1.50523 0
M  V30 5725 H 536.132 3.04218 -0.719036 0
M  V30 5726 H 535.352 2.40662 -3.12211 0
M  V30 5727 H 536.64 3.46334 -3.72734 0
M  V30 5728 H 536.038 5.50791 -1.2902 0
M  V30 5729 H 534.595 6.24752 -1.85819 0
M  V30 5730 N 538.028 1.39524 0.732853 0
M  V30 5731 C 538.975 1.38416 1.84688 0
M  V30 5732 C 539.945 0.243539 1.64305 0
M  V30 5733 O 541.13 0.438979 1.85681 0
M  V30 5734 C 538.27 1.23555 3.22224 0
M  V30 5735 C 537.383 2.47179 3.54298 0
M  V30 5736 C 536.518 2.2489 4.81246 0
M  V30 5737 C 535.557 3.44178 5.0617 0
M  V30 5738 N 534.694 3.21192 6.24323 0
M  V30 5739 H 539.534 2.33645 1.84971 0
M  V30 5740 H 537.071 1.16059 0.903804 0
M  V30 5741 H 539.029 1.12949 4.0162 0
M  V30 5742 H 537.659 0.31954 3.21215 0
M  V30 5743 H 536.711 2.68379 2.69587 0
M  V30 5744 H 538.023 3.36022 3.68633 0
M  V30 5745 H 537.177 2.11538 5.68627 0
M  V30 5746 H 535.916 1.33443 4.69089 0
M  V30 5747 H 534.921 3.58025 4.17251 0
M  V30 5748 H 536.146 4.36528 5.20212 0
M  V30 5749 H 534.092 2.32413 6.1345 0
M  V30 5750 H 534.009 4.03594 6.39256 0
M  V30 5751 H 535.277 3.1154 7.14537 0
M  V30 5752 N 539.506 -0.963266 1.24736 0
M  V30 5753 C 540.416 -2.09246 1.06082 0
M  V30 5754 C 541.432 -1.74 0.000363101 0
M  V30 5755 O 542.608 -2.0041 0.199479 0
M  V30 5756 C 539.673 -3.40115 0.672498 0
M  V30 5757 C 538.734 -3.89282 1.80993 0
M  V30 5758 C 537.967 -5.13905 1.44004 0
M  V30 5759 O 538.19 -5.69434 0.331835 0
M  V30 5760 O 537.124 -5.57566 2.26723 0
M  V30 5761 H 540.95 -2.27881 2.00759 0
M  V30 5762 H 538.535 -1.07649 1.03595 0
M  V30 5763 H 540.417 -4.18797 0.467668 0
M  V30 5764 H 539.092 -3.22771 -0.245102 0
M  V30 5765 H 537.999 -3.11642 2.06955 0
M  V30 5766 H 539.332 -4.1111 2.70646 0
M  V30 5767 N 540.985 -1.06182 -1.16461 0
M  V30 5768 C 542.231 -0.779015 -1.87241 0
M  V30 5769 C 542.564 0.692715 -1.81425 0
M  V30 5770 O 541.839 1.5074 -1.22913 0
M  V30 5771 C 542.122 -1.2728 -3.36856 0
M  V30 5772 C 541.975 -2.80821 -3.51368 0
M  V30 5773 C 543.294 -0.879799 -4.31216 0
M  V30 5774 H 540.413 -0.284464 -0.679889 0
M  V30 5775 H 543.055 -1.31755 -1.36896 0
M  V30 5776 H 541.205 -0.814673 -3.79862 0
M  V30 5777 H 542.877 -3.34833 -3.17308 0
M  V30 5778 H 541.12 -3.19606 -2.93316 0
M  V30 5779 H 541.791 -3.10435 -4.56436 0
M  V30 5780 H 544.267 -1.27436 -3.96105 0
M  V30 5781 H 543.143 -1.25278 -5.34412 0
M  V30 5782 H 543.404 0.215372 -4.41575 0
M  V30 5783 N 542.463 1.3308 -0.844243 0
M  V30 5784 C 543.693 2.01515 -0.455541 0
M  V30 5785 C 544.101 1.63655 0.949406 0
M  V30 5786 O 543.444 0.84848 1.62931 0
M  V30 5787 C 543.506 3.55967 -0.502801 0
M  V30 5788 C 543.17 4.17222 -1.86481 0
M  V30 5789 C 544.167 4.36205 -2.8288 0
M  V30 5790 C 541.852 4.53528 -2.15911 0
M  V30 5791 C 543.846 4.90649 -4.06869 0
M  V30 5792 C 541.533 5.07679 -3.40155 0
M  V30 5793 C 542.531 5.26186 -4.35451 0
M  V30 5794 O 542.219 5.79183 -5.57496 0
M  V30 5795 H 541.951 0.65199 -0.178565 0
M  V30 5796 H 544.505 1.70867 -1.1399 0
M  V30 5797 H 542.735 3.85965 0.23836 0
M  V30 5798 H 544.424 4.05688 -0.131169 0
M  V30 5799 H 545.19 4.085 -2.61444 0
M  V30 5800 H 541.069 4.38414 -1.42528 0
M  V30 5801 H 544.613 5.0501 -4.81259 0
M  V30 5802 H 540.51 5.34815 -3.61446 0
M  V30 5803 H 541.278 5.97591 -5.5931 0
M  V30 5804 N 543.941 0.601185 1.45683 0
M  V30 5805 C 545.188 0.0938811 2.02282 0
M  V30 5806 C 545.516 -1.27315 1.47041 0
M  V30 5807 O 544.771 -1.85193 0.632623 0
M  V30 5808 C 545.07 -0.00222425 3.574 0
M  V30 5809 C 544.736 1.29963 4.31764 0
M  V30 5810 C 543.398 1.65625 4.51798 0
M  V30 5811 C 545.75 2.1603 4.74321 0
M  V30 5812 C 543.078 2.87119 5.11644 0
M  V30 5813 C 545.43 3.36766 5.3551 0
M  V30 5814 C 544.094 3.72689 5.53768 0
M  V30 5815 H 543.364 0.0343535 0.740203 0
M  V30 5816 H 546.011 0.781522 1.74827 0
M  V30 5817 H 544.316 -0.773096 3.84097 0
M  V30 5818 H 546.013 -0.410794 3.9889 0
M  V30 5819 H 542.603 1.01204 4.1648 0
M  V30 5820 H 546.787 1.89778 4.58582 0
M  V30 5821 H 542.043 3.15065 5.2397 0
M  V30 5822 H 546.217 4.03713 5.67441 0
M  V30 5823 H 543.844 4.66918 5.99909 0
M  V30 5824 N 545.419 -1.53889 0.339982 0
M  V30 5825 C 546.352 -2.21187 -0.561405 0
M  V30 5826 C 547.33 -1.19463 -1.10306 0
M  V30 5827 O 548.514 -1.48268 -1.164 0
M  V30 5828 C 545.641 -2.8865 -1.77198 0
M  V30 5829 C 544.687 -4.04232 -1.3601 0
M  V30 5830 S 545.52 -5.34129 -0.382909 0
M  V30 5831 C 546.676 -6.05094 -1.60039 0
M  V30 5832 H 546.909 -2.97298 0.0102092 0
M  V30 5833 H 544.442 -1.53901 0.124056 0
M  V30 5834 H 546.4 -3.28138 -2.4665 0
M  V30 5835 H 545.061 -2.12311 -2.3148 0
M  V30 5836 H 544.254 -4.50358 -2.2626 0
M  V30 5837 H 543.856 -3.66503 -0.745098 0
M  V30 5838 H 546.148 -6.2827 -2.53541 0
M  V30 5839 H 547.091 -6.98182 -1.18099 0
M  V30 5840 H 547.499 -5.35207 -1.79483 0
M  V30 5841 N 546.897 -0.0685191 -1.57451 0
M  V30 5842 C 548.145 0.60016 -1.92983 0
M  V30 5843 C 548.466 1.70348 -0.949028 0
M  V30 5844 O 547.736 1.959 0.00335647 0
M  V30 5845 H 546.316 0.224682 -0.712409 0
M  V30 5846 H 548.978 -0.125605 -1.94495 0
M  V30 5847 H 548.074 1.02759 -2.94698 0
M  V30 5848 N 548.375 1.56261 0.205012 0
M  V30 5849 C 549.305 1.96779 1.257 0
M  V30 5850 C 550.286 0.838309 1.48008 0
M  V30 5851 O 551.471 1.10189 1.59913 0
M  V30 5852 C 548.601 2.29876 2.60335 0
M  V30 5853 C 547.555 3.45469 2.52656 0
M  V30 5854 C 546.881 3.64215 3.91473 0
M  V30 5855 C 548.181 4.79954 2.06014 0
M  V30 5856 H 549.875 2.84904 0.920338 0
M  V30 5857 H 547.421 1.37072 0.441277 0
M  V30 5858 H 549.374 2.56814 3.34102 0
M  V30 5859 H 548.098 1.38622 2.95722 0
M  V30 5860 H 546.757 3.18605 1.81345 0
M  V30 5861 H 546.405 2.70309 4.24196 0
M  V30 5862 H 546.105 4.41973 3.87213 0
M  V30 5863 H 547.629 3.93519 4.66878 0
M  V30 5864 H 549.043 5.05989 2.69533 0
M  V30 5865 H 547.44 5.61111 2.12777 0
M  V30 5866 H 548.51 4.74201 1.01297 0
M  V30 5867 N 549.853 -0.472356 1.50355 0
M  V30 5868 C 551.102 -1.2213 1.60522 0
M  V30 5869 C 551.415 -1.9312 0.310466 0
M  V30 5870 O 552.621 -2.69936 0.291029 0
M  V30 5871 C 551.077 -2.21909 2.83345 0
M  V30 5872 C 550.685 -1.56727 4.19691 0
M  V30 5873 C 552.429 -2.97453 3.02856 0
M  V30 5874 C 550.336 -2.54785 5.33703 0
M  V30 5875 H 549.266 -0.459543 0.597776 0
M  V30 5876 H 551.917 -0.491922 1.76783 0
M  V30 5877 H 550.299 -2.98133 2.60639 0
M  V30 5878 H 551.473 -0.863007 4.52646 0
M  V30 5879 H 549.788 -0.934685 4.05774 0
M  V30 5880 H 552.385 -3.70838 3.85205 0
M  V30 5881 H 552.728 -3.56764 2.14534 0
M  V30 5882 H 553.261 -2.28342 3.25737 0
M  V30 5883 H 550 -2.00214 6.24175 0
M  V30 5884 H 549.52 -3.23367 5.05167 0
M  V30 5885 H 551.199 -3.16639 5.64224 0
M  V30 5886 N 551.331 -1.39911 -0.725443 0
M  V30 5887 C 552.608 -1.28158 -1.47766 0
M  V30 5888 C 552.988 0.104545 -2.10841 0
M  V30 5889 O 552.336 1.11657 -1.99361 0
M  V30 5890 C 552.546 -2.41306 -2.52135 0
M  V30 5891 C 553.894 -2.81076 -3.18247 0
M  V30 5892 O 554.918 -2.40827 -2.62452 0
M  V30 5893 O 553.777 -3.50581 -4.19231 0
M  V30 5894 H 550.871 -0.502761 -0.656628 0
M  V30 5895 H 553.417 -1.51808 -0.758456 0
M  V30 5896 H 552.189 -3.33932 -2.03974 0
M  V30 5897 H 551.812 -2.19374 -3.31603 0
M  V30 5898 N 552.809 0.956637 -1.25245 0
M  V30 5899 C 554.058 1.69537 -1.0927 0
M  V30 5900 C 554.371 1.92136 0.366503 0
M  V30 5901 O 555.577 2.63687 0.64665 0
M  V30 5902 C 554.033 3.05211 -1.9072 0
M  V30 5903 C 553.641 2.90416 -3.41119 0
M  V30 5904 C 555.385 3.82882 -1.83308 0
M  V30 5905 C 553.292 4.21468 -4.14872 0
M  V30 5906 H 552.222 0.635804 -0.405302 0
M  V30 5907 H 554.873 1.06513 -1.49423 0
M  V30 5908 H 553.255 3.69128 -1.43389 0
M  V30 5909 H 554.429 2.35444 -3.9611 0
M  V30 5910 H 552.744 2.26203 -3.49602 0
M  V30 5911 H 555.341 4.79944 -2.35706 0
M  V30 5912 H 555.684 4.0853 -0.800572 0
M  V30 5913 H 556.217 3.25711 -2.28379 0
M  V30 5914 H 552.956 4.01009 -5.18529 0
M  V30 5915 H 552.476 4.76213 -3.64665 0
M  V30 5916 H 554.155 4.90022 -4.22478 0
M  V30 5917 N 554.287 1.06798 1.15896 0
M  V30 5918 C 555.217 0.704677 2.22613 0
M  V30 5919 C 556.198 -0.305252 1.67339 0
M  V30 5920 O 557.383 -0.179247 1.93371 0
M  V30 5921 C 554.513 0.0957325 3.47168 0
M  V30 5922 C 553.467 1.0322 4.15367 0
M  V30 5923 C 552.793 0.286293 5.33933 0
M  V30 5924 C 554.093 2.36341 4.65768 0
M  V30 5925 H 555.787 1.59688 2.53259 0
M  V30 5926 H 553.333 0.769257 1.21731 0
M  V30 5927 H 555.286 -0.170333 4.21056 0
M  V30 5928 H 554.01 -0.831516 3.15838 0
M  V30 5929 H 552.669 1.28309 3.43413 0
M  V30 5930 H 552.317 -0.644237 4.98857 0
M  V30 5931 H 552.017 0.910436 5.80504 0
M  V30 5932 H 553.541 0.0278938 6.10594 0
M  V30 5933 H 554.955 2.1561 5.31211 0
M  V30 5934 H 553.352 2.94299 5.2298 0
M  V30 5935 H 554.422 2.99047 3.81705 0
M  V30 5936 N 555.766 -1.3263 0.851289 0
M  V30 5937 C 556.994 -2.01563 0.466899 0
M  V30 5938 C 557.409 -1.63996 -0.935447 0
M  V30 5939 O 556.766 -0.85957 -1.6099 0
M  V30 5940 C 556.817 -3.56613 0.592433 0
M  V30 5941 O 556.538 -3.92828 1.93954 0
M  V30 5942 C 558.039 -4.42818 0.206612 0
M  V30 5943 H 555.259 -0.645307 0.183902 0
M  V30 5944 H 557.803 -1.69285 1.1473 0
M  V30 5945 H 555.958 -3.87379 -0.0401936 0
M  V30 5946 H 556.372 -4.87545 1.9339 0
M  V30 5947 H 557.846 -5.50918 0.345462 0
M  V30 5948 H 558.323 -4.30844 -0.85264 0
M  V30 5949 H 558.929 -4.17434 0.814176 0
M  V30 5950 N 557.244 -0.608902 -1.45362 0
M  V30 5951 C 558.176 0.147318 -2.28726 0
M  V30 5952 C 559.189 0.830468 -1.40025 0
M  V30 5953 O 560.378 0.695636 -1.64387 0
M  V30 5954 C 557.478 1.22968 -3.15804 0
M  V30 5955 C 556.651 0.633391 -4.3279 0
M  V30 5956 C 555.71 1.60682 -5.01067 0
M  V30 5957 O 554.736 1.13261 -5.57818 0
M  V30 5958 N 555.938 2.94123 -5.00472 0
M  V30 5959 H 558.703 -0.568014 -2.94268 0
M  V30 5960 H 556.264 -0.448479 -1.55564 0
M  V30 5961 H 558.256 1.88072 -3.58345 0
M  V30 5962 H 556.826 1.84752 -2.52162 0
M  V30 5963 H 556.046 -0.195762 -3.93714 0
M  V30 5964 H 557.334 0.215255 -5.08344 0
M  V30 5965 H 556.732 3.3525 -4.55657 0
M  V30 5966 H 555.289 3.54646 -5.46872 0
M  V30 5967 N 558.722 1.53707 -0.348139 0
M  V30 5968 C 559.952 2.05108 0.247864 0
M  V30 5969 C 560.36 1.22252 1.44399 0
M  V30 5970 O 559.703 0.251853 1.81965 0
M  V30 5971 C 559.765 3.52171 0.722187 0
M  V30 5972 C 559.429 4.5562 -0.354902 0
M  V30 5973 C 560.426 5.05883 -1.19911 0
M  V30 5974 C 558.111 4.99703 -0.510145 0
M  V30 5975 C 560.105 5.98814 -2.18406 0
M  V30 5976 C 557.792 5.92443 -1.49848 0
M  V30 5977 C 558.79 6.41887 -2.33389 0
M  V30 5978 O 558.478 7.32802 -3.3054 0
M  V30 5979 H 558.21 0.674086 0.0508296 0
M  V30 5980 H 560.764 1.99229 -0.49968 0
M  V30 5981 H 558.994 3.55529 1.52105 0
M  V30 5982 H 560.683 3.8652 1.23925 0
M  V30 5983 H 561.449 4.72586 -1.09028 0
M  V30 5984 H 557.328 4.60816 0.130274 0
M  V30 5985 H 560.872 6.3733 -2.83649 0
M  V30 5986 H 556.769 6.25155 -1.60786 0
M  V30 5987 H 557.537 7.50749 -3.26064 0
M  V30 5988 N 560.2 0.0768682 1.57412 0
M  V30 5989 C 561.477 -0.632359 1.85096 0
M  V30 5990 C 561.857 -1.87479 0.9703 0
M  V30 5991 O 561.205 -2.28469 0.0379062 0
M  V30 5992 C 561.415 -0.965174 3.35388 0
M  V30 5993 C 562.763 -1.33648 4.03018 0
M  V30 5994 O 563.787 -1.05675 3.40164 0
M  V30 5995 O 562.646 -1.85959 5.13889 0
M  V30 5996 H 559.74 -0.314574 0.764835 0
M  V30 5997 H 562.286 0.108184 1.69355 0
M  V30 5998 H 561.058 -0.0829745 3.91212 0
M  V30 5999 H 560.681 -1.76231 3.5641 0
M  V30 6000 N 561.678 -1.56367 -0.196722 0
M  V30 6001 C 562.641 -1.93561 -1.22746 0
M  V30 6002 C 563.641 -0.816566 -1.38524 0
M  V30 6003 O 564.831 -1.084 -1.36363 0
M  V30 6004 C 561.963 -2.20823 -2.59712 0
M  V30 6005 H 563.156 -2.85774 -0.909586 0
M  V30 6006 H 560.709 -1.50032 -0.438174 0
M  V30 6007 H 561.444 -1.31243 -2.96557 0
M  V30 6008 H 561.229 -3.02368 -2.49632 0
M  V30 6009 H 562.719 -2.50608 -3.34044 0
M  V30 6010 N 563.156 0.464375 -1.50603 0
M  V30 6011 C 564.103 1.56152 -1.69956 0
M  V30 6012 C 565.073 1.57046 -0.54091 0
M  V30 6013 O 566.258 1.74473 -0.772258 0
M  V30 6014 C 563.398 2.94079 -1.80586 0
M  V30 6015 C 562.511 3.02923 -3.07996 0
M  V30 6016 C 561.646 4.31806 -3.09382 0
M  V30 6017 C 560.685 4.34417 -4.31218 0
M  V30 6018 N 559.822 5.54782 -4.30304 0
M  V30 6019 H 564.662 1.38955 -2.6362 0
M  V30 6020 H 562.199 0.675482 -1.30674 0
M  V30 6021 H 564.157 3.74073 -1.8473 0
M  V30 6022 H 562.787 3.09896 -0.903556 0
M  V30 6023 H 561.839 2.1576 -3.13292 0
M  V30 6024 H 563.151 3.00712 -3.97962 0
M  V30 6025 H 562.305 5.20153 -3.12292 0
M  V30 6026 H 561.044 4.36636 -2.17257 0
M  V30 6027 H 560.049 3.44467 -4.28512 0
M  V30 6028 H 561.274 4.31273 -5.24576 0
M  V30 6029 H 559.22 5.60384 -3.41037 0
M  V30 6030 H 559.137 5.54339 -5.14047 0
M  V30 6031 H 560.405 6.45235 -4.3737 0
M  V30 6032 N 564.634 1.40294 0.718013 0
M  V30 6033 C 565.581 1.40367 1.8321 0
M  V30 6034 C 566.551 0.260952 1.64037 0
M  V30 6035 O 567.736 0.458648 1.85205 0
M  V30 6036 C 564.876 1.26965 3.20895 0
M  V30 6037 C 563.989 2.50922 3.51656 0
M  V30 6038 C 563.124 2.29981 4.78834 0
M  V30 6039 C 562.163 3.49527 5.02491 0
M  V30 6040 N 561.3 3.27796 6.20882 0
M  V30 6041 H 566.14 2.35593 1.82482 0
M  V30 6042 H 563.677 1.17012 0.891444 0
M  V30 6043 H 565.635 1.17202 4.00399 0
M  V30 6044 H 564.265 0.353591 3.20858 0
M  V30 6045 H 563.317 2.71223 2.66725 0
M  V30 6046 H 564.629 3.39913 3.65048 0
M  V30 6047 H 563.783 2.17558 5.66351 0
M  V30 6048 H 562.522 1.38411 4.67647 0
M  V30 6049 H 561.527 3.6243 4.1343 0
M  V30 6050 H 562.752 4.42021 5.15553 0
M  V30 6051 H 560.698 2.38906 6.1095 0
M  V30 6052 H 560.615 4.10351 6.34939 0
M  V30 6053 H 561.883 3.19101 7.11193 0
M  V30 6054 N 566.112 -0.949982 1.2575 0
M  V30 6055 C 567.059 -2.04738 1.06541 0
M  V30 6056 C 568.029 -1.66078 -0.0268818 0
M  V30 6057 O 569.214 -1.90348 0.131196 0
M  V30 6058 C 566.354 -3.38027 0.695127 0
M  V30 6059 C 565.467 -3.89776 1.86276 0
M  V30 6060 C 564.602 -5.11411 1.4364 0
M  V30 6061 C 563.641 -5.554 2.57287 0
M  V30 6062 N 562.778 -6.68244 2.15395 0
M  V30 6063 H 567.618 -2.20502 2.00457 0
M  V30 6064 H 565.155 -1.0805 0.998178 0
M  V30 6065 H 567.113 -4.14641 0.461375 0
M  V30 6066 H 565.743 -3.22135 -0.207046 0
M  V30 6067 H 564.795 -3.0964 2.20969 0
M  V30 6068 H 566.107 -4.18368 2.71606 0
M  V30 6069 H 565.261 -5.95457 1.16257 0
M  V30 6070 H 564 -4.84545 0.553879 0
M  V30 6071 H 563.005 -4.69916 2.85409 0
M  V30 6072 H 564.23 -5.84272 3.46125 0
M  V30 6073 H 562.176 -6.43078 1.29565 0
M  V30 6074 H 562.093 -6.96377 2.94272 0
M  V30 6075 H 563.361 -7.55687 1.91201 0
M  V30 6076 N 567.59 -1.07411 -1.15328 0
M  V30 6077 C 568.553 -0.698914 -2.18284 0
M  V30 6078 C 569.553 0.261149 -1.58665 0
M  V30 6079 O 570.743 0.0420277 -1.74149 0
M  V30 6080 C 567.875 -0.0302427 -3.40887 0
M  V30 6081 H 569.068 -1.61045 -2.52991 0
M  V30 6082 H 566.621 -0.870724 -1.298 0
M  V30 6083 H 567.356 0.893505 -3.11748 0
M  V30 6084 H 567.141 -0.720759 -3.85419 0
M  V30 6085 H 568.631 0.21759 -4.17033 0
M  V30 6086 N 569.068 1.32177 -0.85831 0
M  V30 6087 C 570.031 2.27086 -0.310588 0
M  V30 6088 C 571.031 1.51751 0.531806 0
M  V30 6089 O 572.221 1.70794 0.34279 0
M  V30 6090 C 569.353 3.36266 0.560179 0
M  V30 6091 H 570.546 2.77045 -1.1483 0
M  V30 6092 H 568.099 1.42911 -0.632942 0
M  V30 6093 H 568.834 2.9158 1.41956 0
M  V30 6094 H 568.619 3.92077 -0.0428473 0
M  V30 6095 H 570.109 4.06974 0.936056 0
M  V30 6096 N 570.547 0.616602 1.45037 0
M  V30 6097 C 571.497 -0.118543 2.27692 0
M  V30 6098 C 572.481 -0.830025 1.37838 0
M  V30 6099 O 573.673 -0.718528 1.6176 0
M  V30 6100 C 570.802 -1.10924 3.24886 0
M  V30 6101 C 569.888 -0.398134 4.22227 0
M  V30 6102 N 570.279 0.565233 5.02632 0
M  V30 6103 C 568.577 -0.644506 4.41319 0
M  V30 6104 C 569.278 0.984043 5.73316 0
M  V30 6105 N 568.254 0.325879 5.42622 0
M  V30 6106 H 572.056 0.621239 2.87259 0
M  V30 6107 H 569.57 0.440968 1.56299 0
M  V30 6108 H 571.567 -1.65038 3.82842 0
M  V30 6109 H 570.227 -1.84948 2.66879 0
M  V30 6110 H 571.238 0.942395 5.09254 0
M  V30 6111 H 567.915 -1.36873 3.94426 0
M  V30 6112 H 569.305 1.77911 6.47918 0
M  V30 6113 N 572.025 -1.5352 0.356285 0
M  V30 6114 C 572.988 -2.24071 -0.482182 0
M  V30 6115 C 573.988 -1.24531 -1.01729 0
M  V30 6116 O 575.178 -1.48876 -0.904513 0
M  V30 6117 C 572.31 -2.97025 -1.67299 0
M  V30 6118 H 573.503 -2.99596 0.135031 0
M  V30 6119 H 571.056 -1.55928 0.107825 0
M  V30 6120 H 571.791 -2.25719 -2.32855 0
M  V30 6121 H 571.576 -3.7005 -1.29636 0
M  V30 6122 H 573.066 -3.50683 -2.26741 0
M  V30 6123 N 573.503 -0.0852151 -1.57369 0
M  V30 6124 C 574.466 0.8627 -2.12344 0
M  V30 6125 C 575.466 1.21746 -1.05046 0
M  V30 6126 O 576.656 1.14852 -1.30976 0
M  V30 6127 C 573.788 2.1618 -2.63589 0
M  V30 6128 H 574.981 0.385511 -2.97412 0
M  V30 6129 H 572.534 0.163663 -1.55441 0
M  V30 6130 H 573.269 2.68406 -1.82013 0
M  V30 6131 H 573.054 1.91723 -3.4203 0
M  V30 6132 H 574.544 2.84011 -3.06149 0
M  V30 6133 N 574.981 1.5647 0.188427 0
M  V30 6134 C 575.928 1.95073 1.23349 0
M  V30 6135 C 576.898 0.812238 1.44886 0
M  V30 6136 O 578.083 1.07095 1.57909 0
M  V30 6137 C 575.223 2.30124 2.57171 0
M  V30 6138 C 574.336 3.57069 2.43157 0
M  V30 6139 C 573.471 3.81411 3.69729 0
M  V30 6140 C 572.51 5.0176 3.50575 0
M  V30 6141 N 571.647 5.22321 4.69175 0
M  V30 6142 H 576.487 2.84171 0.89728 0
M  V30 6143 H 574.024 1.40623 0.431683 0
M  V30 6144 H 575.982 2.48463 3.35145 0
M  V30 6145 H 574.612 1.44159 2.88822 0
M  V30 6146 H 573.664 3.4674 1.56447 0
M  V30 6147 H 574.976 4.452 2.24942 0
M  V30 6148 H 574.13 4.00026 4.56141 0
M  V30 6149 H 572.869 2.91624 3.90905 0
M  V30 6150 H 571.874 4.83061 2.62549 0
M  V30 6151 H 573.099 5.93063 3.30837 0
M  V30 6152 H 571.045 4.35483 4.90602 0
M  V30 6153 H 570.962 6.04643 4.53809 0
M  V30 6154 H 572.23 5.45401 5.56919 0
M  V30 6155 N 576.459 -0.456382 1.50847 0
M  V30 6156 C 577.687 -1.23026 1.66349 0
M  V30 6157 C 578.102 -1.85473 0.352868 0
M  V30 6158 O 577.459 -1.69885 -0.666739 0
M  V30 6159 C 577.51 -2.32827 2.76539 0
M  V30 6160 O 577.231 -1.72938 4.02522 0
M  V30 6161 C 578.732 -3.23448 3.03144 0
M  V30 6162 H 575.952 -0.371527 0.558756 0
M  V30 6163 H 578.496 -0.543082 1.97157 0
M  V30 6164 H 576.651 -2.97294 2.48384 0
M  V30 6165 H 577.065 -2.45357 4.63573 0
M  V30 6166 H 578.539 -3.96669 3.83872 0
M  V30 6167 H 579.016 -3.83094 2.14793 0
M  V30 6168 H 579.622 -2.64702 3.32886 0
M  V30 6169 N 577.937 -1.40673 -0.710563 0
M  V30 6170 C 579.183 -1.39428 -1.47267 0
M  V30 6171 C 579.516 0.00182129 -1.942 0
M  V30 6172 O 578.791 0.971387 -1.68506 0
M  V30 6173 C 579.074 -2.38812 -2.6952 0
M  V30 6174 C 578.927 -3.87467 -2.28449 0
M  V30 6175 C 580.246 -2.3566 -3.71689 0
M  V30 6176 H 577.365 -0.507768 -0.534173 0
M  V30 6177 H 580.007 -1.71843 -0.810547 0
M  V30 6178 H 578.157 -2.113 -3.26013 0
M  V30 6179 H 579.829 -4.25825 -1.77399 0
M  V30 6180 H 578.072 -4.03058 -1.60395 0
M  V30 6181 H 578.743 -4.5253 -3.16103 0
M  V30 6182 H 581.219 -2.6004 -3.24836 0
M  V30 6183 H 580.095 -3.07237 -4.54859 0
M  V30 6184 H 580.356 -1.36996 -4.20339 0
M  V30 6185 N 579.415 0.9433 -1.26252 0
M  V30 6186 C 580.362 2.0417 -1.07625 0
M  V30 6187 C 581.332 1.6609 0.0180738 0
M  V30 6188 O 582.517 1.90276 -0.141289 0
M  V30 6189 C 579.657 3.37653 -0.713043 0
M  V30 6190 C 578.77 3.88783 -1.8834 0
M  V30 6191 C 577.905 5.10642 -1.4635 0
M  V30 6192 C 576.944 5.54028 -2.60229 0
M  V30 6193 N 576.081 6.67092 -2.18936 0
M  V30 6194 H 580.921 2.19436 -2.01623 0
M  V30 6195 H 578.458 1.07519 -1.00389 0
M  V30 6196 H 580.416 4.14391 -0.483358 0
M  V30 6197 H 579.046 3.22241 0.18996 0
M  V30 6198 H 578.098 3.08464 -2.22608 0
M  V30 6199 H 579.41 4.16922 -2.73821 0
M  V30 6200 H 578.564 5.94832 -1.19414 0
M  V30 6201 H 577.303 4.84244 -0.579568 0
M  V30 6202 H 576.308 4.68396 -2.87898 0
M  V30 6203 H 577.533 5.82429 -3.49219 0
M  V30 6204 H 575.479 6.42381 -1.32974 0
M  V30 6205 H 575.396 6.94806 -2.97961 0
M  V30 6206 H 576.664 7.54662 -1.95206 0
M  V30 6207 N 580.893 1.08022 1.14757 0
M  V30 6208 C 581.843 0.676345 2.17737 0
M  V30 6209 C 582.827 -0.302018 1.5804 0
M  V30 6210 O 584.019 -0.11466 1.76628 0
M  V30 6211 C 581.148 0.082984 3.432 0
M  V30 6212 C 580.234 1.0869 4.09936 0
M  V30 6213 N 580.625 2.26891 4.52055 0
M  V30 6214 C 578.923 0.921768 4.36371 0
M  V30 6215 C 579.624 2.90636 5.0389 0
M  V30 6216 N 578.6 2.18266 4.97856 0
M  V30 6217 H 582.402 1.5765 2.4804 0
M  V30 6218 H 579.916 0.954374 1.31398 0
M  V30 6219 H 581.913 -0.224289 4.16296 0
M  V30 6220 H 580.573 -0.812206 3.14378 0
M  V30 6221 H 581.584 2.6457 4.45223 0
M  V30 6222 H 578.261 0.0800499 4.17423 0
M  V30 6223 H 579.651 3.9104 5.46386 0
M  V30 6224 N 582.371 -1.3172 0.865308 0
M  V30 6225 C 583.619 -1.96487 0.472995 0
M  V30 6226 C 583.94 -1.68761 -0.976975 0
M  V30 6227 O 583.21 -1.00051 -1.68424 0
M  V30 6228 H 581.79 -0.726947 0.171922 0
M  V30 6229 H 584.452 -1.60612 1.10407 0
M  V30 6230 H 583.548 -3.0574 0.62687 0
M  V30 6231 N 583.85 -0.624285 -1.44708 0
M  V30 6232 C 584.812 0.0749638 -2.29077 0
M  V30 6233 C 585.812 0.778965 -1.40673 0
M  V30 6234 O 587.003 0.624591 -1.62618 0
M  V30 6235 C 584.135 1.11663 -3.22094 0
M  V30 6236 H 585.327 -0.667013 -2.92388 0
M  V30 6237 H 582.88 -0.384098 -1.51507 0
M  V30 6238 H 583.615 1.88881 -2.63618 0
M  V30 6239 H 583.401 0.61583 -3.87234 0
M  V30 6240 H 584.891 1.60585 -3.8549 0
M  V30 6241 N 585.328 1.53329 -0.364422 0
M  V30 6242 C 586.576 2.00842 0.225189 0
M  V30 6243 C 586.897 1.25345 1.49378 0
M  V30 6244 O 586.167 0.366396 1.92443 0
M  V30 6245 H 584.747 0.742009 0.0862027 0
M  V30 6246 H 587.409 1.8863 -0.490389 0
M  V30 6247 H 586.505 3.08795 0.452987 0
M  V30 6248 N 586.806 0.0935595 1.57322 0
M  V30 6249 C 587.769 -0.851426 2.12799 0
M  V30 6250 C 588.769 -1.21187 1.0569 0
M  V30 6251 O 589.959 -1.14156 1.31583 0
M  V30 6252 C 587.091 -2.14779 2.64731 0
M  V30 6253 H 588.284 -0.369733 2.97612 0
M  V30 6254 H 585.837 -0.155417 1.55525 0
M  V30 6255 H 586.572 -2.67437 1.83434 0
M  V30 6256 H 586.357 -1.89907 3.43042 0
M  V30 6257 H 587.847 -2.82383 3.07651 0
M  V30 6258 N 588.284 -1.56567 -0.180126 0
M  V30 6259 C 589.194 -1.98947 -1.24327 0
M  V30 6260 C 590.21 -0.899446 -1.4895 0
M  V30 6261 O 591.386 -1.20639 -1.61271 0
M  V30 6262 C 588.451 -2.33328 -2.56435 0
M  V30 6263 C 587.512 -3.56114 -2.39752 0
M  V30 6264 C 586.745 -3.88845 -3.65561 0
M  V30 6265 O 586.968 -3.22662 -4.70368 0
M  V30 6266 O 585.902 -4.82226 -3.60197 0
M  V30 6267 H 589.728 -2.89634 -0.913565 0
M  V30 6268 H 587.313 -1.44319 -0.386306 0
M  V30 6269 H 589.195 -2.5645 -3.34382 0
M  V30 6270 H 587.87 -1.45806 -2.89002 0
M  V30 6271 H 586.777 -3.38221 -1.59866 0
M  V30 6272 H 588.11 -4.4415 -2.12113 0
M  V30 6273 N 589.762 0.448376 -1.51087 0
M  V30 6274 C 591.011 1.19561 -1.62444 0
M  V30 6275 C 591.324 1.92602 -0.341151 0
M  V30 6276 O 592.53 2.69439 -0.333936 0
M  V30 6277 C 590.986 2.17373 -2.8684 0
M  V30 6278 C 590.594 1.5003 -4.22131 0
M  V30 6279 C 592.338 2.92597 -3.0755 0
M  V30 6280 C 590.245 2.46262 -5.37689 0
M  V30 6281 H 589.175 0.449975 -0.605011 0
M  V30 6282 H 591.826 0.463735 -1.77544 0
M  V30 6283 H 590.208 2.93948 -2.65349 0
M  V30 6284 H 591.382 0.790886 -4.53962 0
M  V30 6285 H 589.697 0.870011 -4.0721 0
M  V30 6286 H 592.294 3.64663 -3.91056 0
M  V30 6287 H 592.637 3.53306 -2.20183 0
M  V30 6288 H 593.17 2.23131 -3.29329 0
M  V30 6289 H 589.909 1.90258 -6.27281 0
M  V30 6290 H 589.429 3.15289 -5.10248 0
M  V30 6291 H 591.108 3.07623 -5.6919 0
M  V30 6292 N 591.24 1.41047 0.703093 0
M  V30 6293 C 592.465 1.43537 1.49706 0
M  V30 6294 C 592.89 0.0401853 1.88057 0
M  V30 6295 O 592.248 -0.954785 1.54122 0
M  V30 6296 C 592.296 2.3433 2.74084 0
M  V30 6297 O 591.4 1.79515 3.71279 0
M  V30 6298 H 590.741 0.487454 0.450871 0
M  V30 6299 H 593.271 1.85422 0.86486 0
M  V30 6300 H 593.281 2.49947 3.22476 0
M  V30 6301 H 591.956 3.35708 2.45506 0
M  V30 6302 H 590.533 1.7331 3.30179 0
M  V30 6303 N 592.718 -0.936591 1.26751 0
M  V30 6304 C 593.946 -1.71758 1.15355 0
M  V30 6305 C 594.361 -1.86549 -0.290683 0
M  V30 6306 O 593.718 -1.37616 -1.19868 0
M  V30 6307 C 593.769 -3.12193 1.82258 0
M  V30 6308 O 593.49 -2.98105 3.21038 0
M  V30 6309 C 594.991 -4.06485 1.76875 0
M  V30 6310 H 592.211 -0.537636 0.401483 0
M  V30 6311 H 594.755 -1.17382 1.67457 0
M  V30 6312 H 592.91 -3.63456 1.34083 0
M  V30 6313 H 593.324 -3.86824 3.54214 0
M  V30 6314 H 594.798 -5.02569 2.28316 0
M  V30 6315 H 595.275 -4.32986 0.736216 0
M  V30 6316 H 595.881 -3.61144 2.24623 0
M  V30 6317 N 594.196 -1.08629 -1.14182 0
M  V30 6318 C 595.442 -0.818556 -1.85546 0
M  V30 6319 C 595.775 0.654076 -1.82854 0
M  V30 6320 O 595.05 1.48099 -1.26083 0
M  V30 6321 C 595.333 -1.34397 -3.3408 0
M  V30 6322 C 595.186 -2.8821 -3.45333 0
M  V30 6323 C 596.505 -0.971069 -4.29253 0
M  V30 6324 H 593.624 -0.298821 -0.673702 0
M  V30 6325 H 596.266 -1.34629 -1.34071 0
M  V30 6326 H 594.416 -0.895064 -3.78049 0
M  V30 6327 H 596.088 -3.41488 -3.10134 0
M  V30 6328 H 594.331 -3.25756 -2.86471 0
M  V30 6329 H 595.002 -3.20047 -4.49749 0
M  V30 6330 H 597.478 -1.35809 -3.93313 0
M  V30 6331 H 596.354 -1.36586 -5.31635 0
M  V30 6332 H 596.615 0.121659 -4.41933 0
M  V30 6333 N 595.674 1.31259 -0.872281 0
M  V30 6334 C 596.624 2.26 -0.301295 0
M  V30 6335 C 597.608 1.50729 0.562991 0
M  V30 6336 O 598.8 1.72198 0.40949 0
M  V30 6337 C 595.929 3.39724 0.494227 0
M  V30 6338 C 595.015 4.22363 -0.383432 0
M  V30 6339 N 595.406 4.83724 -1.47799 0
M  V30 6340 C 593.704 4.45652 -0.176278 0
M  V30 6341 C 594.405 5.45523 -2.01939 0
M  V30 6342 N 593.381 5.27428 -1.31608 0
M  V30 6343 H 597.183 2.70981 -1.13782 0
M  V30 6344 H 594.697 1.45552 -0.720294 0
M  V30 6345 H 596.694 4.06626 0.919828 0
M  V30 6346 H 595.354 2.96286 1.32834 0
M  V30 6347 H 596.365 4.83313 -1.8609 0
M  V30 6348 H 593.042 4.12845 0.621698 0
M  V30 6349 H 594.432 6.04268 -2.93786 0
M  V30 6350 N 597.152 0.631951 1.44375 0
M  V30 6351 C 598.563 0.219036 1.85411 0
M  V30 6352 C 598.914 -1.22974 1.52879 0
M  V30 6353 O 598.039 -1.93579 0.967266 0
M  V30 6354 C 598.634 0.39075 3.36539 0
M  V30 6355 C 597.193 0.0323351 3.76386 0
M  V30 6356 C 596.34 0.703744 2.68221 0
M  V30 6357 H 599.291 0.837056 1.3483 0
M  V30 6358 H 599.312 -0.370056 3.78696 0
M  V30 6359 H 598.824 1.44527 3.60185 0
M  V30 6360 H 596.925 -1.02042 3.58355 0
M  V30 6361 H 597.038 0.442969 4.77048 0
M  V30 6362 H 595.402 0.138974 2.54321 0
M  V30 6363 H 596.185 1.76088 2.947 0
M  V30 6364 N 598.631 -1.53133 0.372548 0
M  V30 6365 C 599.541 -2.29671 -0.478379 0
M  V30 6366 C 600.557 -1.35913 -1.08644 0
M  V30 6367 O 601.733 -1.68975 -1.09588 0
M  V30 6368 C 598.798 -3.07625 -1.599 0
M  V30 6369 C 597.859 -4.17061 -1.01776 0
M  V30 6370 C 597.092 -4.91289 -2.08497 0
M  V30 6371 O 597.315 -4.65442 -3.29727 0
M  V30 6372 O 596.249 -5.7705 -1.71164 0
M  V30 6373 H 600.075 -3.03355 0.144649 0
M  V30 6374 H 597.66 -1.48773 0.136729 0
M  V30 6375 H 599.542 -3.56281 -2.25038 0
M  V30 6376 H 598.217 -2.3677 -2.2073 0
M  V30 6377 H 597.124 -3.72641 -0.330098 0
M  V30 6378 H 598.457 -4.90102 -0.453915 0
M  V30 6379 N 600.109 -0.101901 -1.5727 0
M  V30 6380 C 601.041 0.884723 -2.11436 0
M  V30 6381 C 602.054 1.24149 -1.05314 0
M  V30 6382 O 603.243 1.19341 -1.3274 0
M  V30 6383 C 600.343 2.19179 -2.58484 0
M  V30 6384 C 599.516 2.00933 -3.88516 0
M  V30 6385 C 598.575 3.15213 -4.2134 0
M  V30 6386 O 597.601 2.88877 -4.90448 0
M  V30 6387 N 598.803 4.41174 -3.77288 0
M  V30 6388 H 601.568 0.422058 -2.96713 0
M  V30 6389 H 599.129 0.0830128 -1.61687 0
M  V30 6390 H 601.121 2.94593 -2.77484 0
M  V30 6391 H 599.691 2.56847 -1.7818 0
M  V30 6392 H 598.911 1.09809 -3.78597 0
M  V30 6393 H 600.199 1.86026 -4.73573 0
M  V30 6394 H 599.597 4.6545 -3.21516 0
M  V30 6395 H 598.154 5.13515 -4.01429 0
M  V30 6396 N 601.587 1.56661 0.17182 0
M  V30 6397 C 602.817 1.85831 0.902804 0
M  V30 6398 C 603.225 0.685157 1.76358 0
M  V30 6399 O 602.568 -0.354947 1.80238 0
M  V30 6400 C 602.63 3.09406 1.83053 0
M  V30 6401 C 602.294 4.4231 1.1494 0
M  V30 6402 C 603.291 5.17342 0.515104 0
M  V30 6403 C 600.976 4.89045 1.14631 0
M  V30 6404 C 602.97 6.37299 -0.113194 0
M  V30 6405 C 600.657 6.08933 0.514184 0
M  V30 6406 C 601.655 6.82904 -0.114463 0
M  V30 6407 O 601.343 8.00518 -0.736622 0
M  V30 6408 H 601.075 0.620715 0.267748 0
M  V30 6409 H 603.629 2.04637 0.176918 0
M  V30 6410 H 601.859 2.86544 2.59672 0
M  V30 6411 H 603.548 3.25027 2.4313 0
M  V30 6412 H 604.314 4.82317 0.509474 0
M  V30 6413 H 600.193 4.31409 1.62502 0
M  V30 6414 H 603.737 6.94976 -0.604477 0
M  V30 6415 H 599.634 6.43423 0.517395 0
M  V30 6416 H 600.402 8.16027 -0.635822 0
M  V30 6417 N 603.065 -0.440357 1.51323 0
M  V30 6418 C 604.028 -1.51679 1.71832 0
M  V30 6419 C 605.028 -1.49648 0.588386 0
M  V30 6420 O 606.218 -1.51724 0.855891 0
M  V30 6421 C 603.35 -2.91228 1.77199 0
M  V30 6422 H 604.543 -1.34799 2.67898 0
M  V30 6423 H 602.096 -0.66883 1.41267 0
M  V30 6424 H 602.831 -3.13516 0.829363 0
M  V30 6425 H 602.616 -2.94107 2.59314 0
M  V30 6426 H 604.106 -3.69321 1.94915 0
M  V30 6427 N 604.543 -1.41418 -0.695603 0
M  V30 6428 C 605.49 -1.43264 -1.80954 0
M  V30 6429 C 606.46 -0.287016 -1.63601 0
M  V30 6430 O 607.645 -0.488054 -1.84452 0
M  V30 6431 C 604.785 -1.32054 -3.18835 0
M  V30 6432 C 603.898 -2.56485 -3.4762 0
M  V30 6433 C 603.033 -2.3757 -4.75115 0
M  V30 6434 C 602.072 -3.57477 -4.96867 0
M  V30 6435 N 601.209 -3.37632 -6.15588 0
M  V30 6436 H 606.049 -2.38467 -1.78711 0
M  V30 6437 H 603.586 -1.18415 -0.872715 0
M  V30 6438 H 605.544 -1.23558 -3.98484 0
M  V30 6439 H 604.174 -0.404592 -3.20254 0
M  V30 6440 H 603.226 -2.75432 -2.62376 0
M  V30 6441 H 604.538 -3.45678 -3.59594 0
M  V30 6442 H 603.692 -2.2654 -5.62818 0
M  V30 6443 H 602.431 -1.45834 -4.65386 0
M  V30 6444 H 601.436 -3.68961 -4.07612 0
M  V30 6445 H 602.661 -4.50167 -5.08455 0
M  V30 6446 H 600.607 -2.48596 -6.07072 0
M  V30 6447 H 600.524 -4.20401 -6.2833 0
M  V30 6448 H 601.792 -3.30375 -7.06026 0
M  V30 6449 N 606.021 0.929856 -1.27246 0
M  V30 6450 C 607.437 1.20542 -1.04603 0
M  V30 6451 C 607.637 2.00276 0.221754 0
M  V30 6452 O 606.693 2.34835 0.927833 0
M  V30 6453 C 608.006 1.95566 -2.28417 0
M  V30 6454 C 609.554 2.08513 -2.33433 0
M  V30 6455 C 610.029 2.86943 -3.5697 0
M  V30 6456 N 611.52 2.94512 -3.57515 0
M  V30 6457 C 612.255 3.55656 -4.49774 0
M  V30 6458 N 611.751 4.18209 -5.52334 0
M  V30 6459 N 613.544 3.53038 -4.37402 0
M  V30 6460 H 605.695 0.397113 -2.08655 0
M  V30 6461 H 607.958 0.238277 -0.917566 0
M  V30 6462 H 607.664 1.44395 -3.20691 0
M  V30 6463 H 607.538 2.9619 -2.33563 0
M  V30 6464 H 609.925 2.58872 -1.41666 0
M  V30 6465 H 610.006 1.07117 -2.32292 0
M  V30 6466 H 609.65 2.37268 -4.49072 0
M  V30 6467 H 609.58 3.8862 -3.55362 0
M  V30 6468 H 612.071 2.50053 -2.83341 0
M  V30 6469 H 612.384 4.62796 -6.18902 0
M  V30 6470 H 610.729 4.16761 -5.56179 0
M  V30 6471 H 613.92 3.0337 -3.56489 0
M  V30 6472 H 614.093 4.004 -5.09493 0
M  V30 6473 N 607.499 1.09233 1.13605 0
M  V30 6474 C 608.746 0.827159 1.84836 0
M  V30 6475 C 609.074 -0.647199 1.83416 0
M  V30 6476 O 608.329 -1.49228 1.26608 0
M  V30 6477 C 608.628 1.305 3.32723 0
M  V30 6478 C 608.294 2.78864 3.54325 0
M  V30 6479 C 606.956 3.19382 3.59928 0
M  V30 6480 C 609.308 3.74532 3.62457 0
M  V30 6481 C 606.636 4.54346 3.71196 0
M  V30 6482 C 608.988 5.09283 3.75252 0
M  V30 6483 C 607.652 5.49394 3.79108 0
M  V30 6484 H 606.922 0.302679 0.676363 0
M  V30 6485 H 609.569 1.36676 1.34134 0
M  V30 6486 H 607.874 0.68517 3.85762 0
M  V30 6487 H 609.571 1.07648 3.86281 0
M  V30 6488 H 606.161 2.46507 3.50617 0
M  V30 6489 H 610.345 3.44343 3.57409 0
M  V30 6490 H 605.601 4.84864 3.72447 0
M  V30 6491 H 609.775 5.83269 3.80487 0
M  V30 6492 H 607.402 6.5397 3.87591 0
M  V30 6493 N 608.977 -1.30795 0.87923 0
M  V30 6494 C 609.907 -2.30742 0.357796 0
M  V30 6495 C 610.888 -1.60747 -0.556283 0
M  V30 6496 O 612.073 -1.88393 -0.47135 0
M  V30 6497 C 609.203 -3.44583 -0.433555 0
M  V30 6498 C 608.157 -4.26235 0.388251 0
M  V30 6499 C 607.483 -5.32073 -0.529352 0
M  V30 6500 C 608.783 -4.96303 1.62729 0
M  V30 6501 H 610.477 -2.74605 1.19299 0
M  V30 6502 H 608.023 -1.32017 0.575104 0
M  V30 6503 H 609.976 -4.13563 -0.808934 0
M  V30 6504 H 608.7 -2.99511 -1.30234 0
M  V30 6505 H 607.359 -3.58936 0.745695 0
M  V30 6506 H 607.007 -4.83249 -1.39569 0
M  V30 6507 H 606.707 -5.87598 0.0166741 0
M  V30 6508 H 608.231 -6.0391 -0.901373 0
M  V30 6509 H 609.645 -5.5783 1.32283 0
M  V30 6510 H 608.042 -5.61666 2.11309 0
M  V30 6511 H 609.112 -4.22758 2.37494 0
M  V30 6512 N 610.455 -0.639598 -1.44038 0
M  V30 6513 C 611.732 -0.078012 -1.95444 0
M  V30 6514 C 612.112 1.39847 -1.58133 0
M  V30 6515 O 611.46 2.11714 -0.859614 0
M  V30 6516 C 611.67 -0.309832 -3.47622 0
M  V30 6517 C 613.018 -0.207521 -4.24093 0
M  V30 6518 O 614.042 -0.241653 -3.55379 0
M  V30 6519 O 612.901 -0.119641 -5.46369 0
M  V30 6520 H 609.995 0.0174534 -0.826816 0
M  V30 6521 H 612.541 -0.711891 -1.54046 0
M  V30 6522 H 611.313 -1.33401 -3.67858 0
M  V30 6523 H 610.936 0.357777 -3.95987 0
M  V30 6524 N 611.933 1.52934 -0.380664 0
M  V30 6525 C 613.18 2.01467 0.204278 0
M  V30 6526 C 613.508 1.26744 1.47533 0
M  V30 6527 O 612.763 0.353723 1.92477 0
M  V30 6528 C 613.062 3.5349 0.527199 0
M  V30 6529 C 612.728 4.46171 -0.651295 0
M  V30 6530 C 611.39 4.71227 -0.974619 0
M  V30 6531 C 613.742 5.00909 -1.44012 0
M  V30 6532 C 611.07 5.4827 -2.08847 0
M  V30 6533 C 613.422 5.7917 -2.5445 0
M  V30 6534 C 612.086 6.02507 -2.87301 0
M  V30 6535 H 611.356 0.73722 0.0747504 0
M  V30 6536 H 614.003 1.84411 -0.516234 0
M  V30 6537 H 612.308 3.68574 1.32892 0
M  V30 6538 H 614.005 3.88529 0.992283 0
M  V30 6539 H 610.595 4.26829 -0.389276 0
M  V30 6540 H 614.779 4.81485 -1.20357 0
M  V30 6541 H 610.035 5.64567 -2.34679 0
M  V30 6542 H 614.209 6.20588 -3.1598 0
M  V30 6543 H 611.836 6.61989 -3.7373 0
M  V30 6544 N 613.412 0.11024 1.57214 0
M  V30 6545 C 614.661 -0.549638 1.94067 0
M  V30 6546 C 614.974 -1.68388 0.995234 0
M  V30 6547 O 616.18 -2.40593 1.25807 0
M  V30 6548 C 614.636 -1.02912 3.44873 0
M  V30 6549 C 614.244 0.0761861 4.47935 0
M  V30 6550 C 615.988 -1.66087 3.9066 0
M  V30 6551 C 613.895 -0.419502 5.8991 0
M  V30 6552 H 612.825 -0.209092 0.724428 0
M  V30 6553 H 615.476 0.188683 1.82527 0
M  V30 6554 H 613.858 -1.82159 3.51616 0
M  V30 6555 H 615.032 0.852185 4.52851 0
M  V30 6556 H 613.347 0.614052 4.11847 0
M  V30 6557 H 615.944 -2.04272 4.94143 0
M  V30 6558 H 616.287 -2.53591 3.30148 0
M  V30 6559 H 616.82 -0.933959 3.86681 0
M  V30 6560 H 613.559 0.419277 6.54158 0
M  V30 6561 H 613.079 -1.16217 5.88433 0
M  V30 6562 H 614.758 -0.883577 6.40938 0
M  V30 6563 N 614.89 -1.56749 -0.16351 0
M  V30 6564 C 616.118 -1.86577 -0.894233 0
M  V30 6565 C 616.533 -0.696543 -1.75481 0
M  V30 6566 O 615.89 0.334161 -1.79415 0
M  V30 6567 C 615.941 -3.15508 -1.76456 0
M  V30 6568 O 615.662 -4.27926 -0.938685 0
M  V30 6569 C 617.163 -3.58737 -2.60428 0
M  V30 6570 H 614.383 -0.618829 -0.259405 0
M  V30 6571 H 616.927 -2.03863 -0.161259 0
M  V30 6572 H 615.082 -3.00025 -2.45079 0
M  V30 6573 H 615.496 -5.01546 -1.53465 0
M  V30 6574 H 616.97 -4.51832 -3.17099 0
M  V30 6575 H 617.447 -2.83229 -3.35675 0
M  V30 6576 H 618.053 -3.76858 -1.97125 0
M  V30 6577 N 616.368 0.432326 -1.51554 0
M  V30 6578 C 617.316 1.54572 -1.73811 0
M  V30 6579 C 618.31 1.58246 -0.604539 0
M  V30 6580 O 619.516 1.6193 -0.786041 0
M  V30 6581 H 615.891 0.513626 -0.549265 0
M  V30 6582 H 617.862 1.32977 -2.67132 0
M  V30 6583 C 616.611 2.92181 -1.88483 0
M  V30 6584 H 615.934 2.90088 -2.75116 0
M  V30 6585 H 617.374 3.69439 -2.08065 0
M  V30 6586 C 615.833 3.3065 -0.645909 0
M  V30 6587 O 616.363 4.01216 0.197093 0
M  V30 6588 N 614.569 2.86464 -0.488538 0
M  V30 6589 H 614.116 2.29209 -1.17562 0
M  V30 6590 H 614.074 3.12565 0.339156 0
M  V30 6591 N 617.846 1.41785 0.688094 0
M  V30 6592 C 619.095 1.4084 1.44385 0
M  V30 6593 C 619.408 0.0234166 1.95586 0
M  V30 6594 O 620.614 -0.108647 2.71283 0
M  V30 6595 C 619.07 2.47675 2.61123 0
M  V30 6596 C 618.678 3.92116 2.16677 0
M  V30 6597 C 620.422 2.55877 3.38714 0
M  V30 6598 C 618.329 4.90487 3.30419 0
M  V30 6599 H 617.259 0.523787 0.542368 0
M  V30 6600 H 619.91 1.6764 0.74627 0
M  V30 6601 H 618.292 2.14018 3.33185 0
M  V30 6602 H 619.466 4.35059 1.51856 0
M  V30 6603 H 617.781 3.87642 1.5206 0
M  V30 6604 H 620.378 3.26553 4.234 0
M  V30 6605 H 620.721 1.59801 3.84408 0
M  V30 6606 H 621.254 2.88662 2.73714 0
M  V30 6607 H 617.993 5.87994 2.89729 0
M  V30 6608 H 617.513 4.52187 3.94065 0
M  V30 6609 H 619.192 5.11591 3.96085 0
M  V30 6610 N 619.324 -0.923095 1.27737 0
M  V30 6611 C 620.571 -1.67127 1.14345 0
M  V30 6612 C 620.899 -1.92017 -0.30982 0
M  V30 6613 O 620.154 -1.51185 -1.24264 0
M  V30 6614 C 620.453 -3.04125 1.8773 0
M  V30 6615 C 620.119 -2.98929 3.37568 0
M  V30 6616 C 618.781 -2.9722 3.78436 0
M  V30 6617 C 621.133 -2.89875 4.33154 0
M  V30 6618 C 618.461 -2.84244 5.13247 0
M  V30 6619 C 620.813 -2.7844 5.68026 0
M  V30 6620 C 619.477 -2.75083 6.08182 0
M  V30 6621 H 618.747 -0.611562 0.418417 0
M  V30 6622 H 621.394 -1.07618 1.584 0
M  V30 6623 H 619.699 -3.67366 1.36196 0
M  V30 6624 H 621.396 -3.609 1.74792 0
M  V30 6625 H 617.986 -3.0105 3.05069 0
M  V30 6626 H 622.17 -2.9029 4.02548 0
M  V30 6627 H 617.426 -2.80034 5.43499 0
M  V30 6628 H 621.6 -2.70401 6.4176 0
M  V30 6629 H 619.227 -2.64786 7.12596 0
M  V30 6630 N 620.802 -1.09834 -1.13024 0
M  V30 6631 C 621.765 -0.745058 -2.16752 0
M  V30 6632 C 622.765 0.227435 -1.59183 0
M  V30 6633 O 623.955 0.0050786 -1.74199 0
M  V30 6634 C 621.087 -0.102543 -3.40746 0
M  V30 6635 H 622.28 -1.66375 -2.49518 0
M  V30 6636 H 619.833 -0.898061 -1.27924 0
M  V30 6637 H 620.568 0.827177 -3.13573 0
M  V30 6638 H 620.353 -0.80235 -3.83803 0
M  V30 6639 H 621.843 0.129082 -4.174 0
M  V30 6640 O 622.319 1.25285 -1.01911 0
M  V30 6641 H 623.01 1.81359 -0.680326 0
M  V30 END ATOM
M  V30 BEGIN BOND
M  V30 END BOND
M  V30 END CTAB
M  END
$$$$
