drugbank_target|Q08828 Adenylate cyclase type 1 (DB00131; DB00171; DB09121)
 OpenBabel12092119283D

  0  0  0     0  0            999 V3000
M  V30 BEGIN CTAB
M  V30 COUNTS 17529 17704 0 0 0
M  V30 BEGIN ATOM
M  V30 1 H -0.908 1.98254 -0.117106 0
M  V30 2 N 0 1.576 0 0
M  V30 3 C 0.933 2.03868 1.02534 0
M  V30 4 C 1.911 0.928543 1.3348 0
M  V30 5 O 3.095 1.19667 1.45644 0
M  V30 6 C 0.222 2.43627 2.35294 0
M  V30 7 C -0.732 3.65373 2.2001 0
M  V30 8 S 0.101 5.13292 1.52614 0
M  V30 9 C 1.257 5.56322 2.86805 0
M  V30 10 H 1.49 2.90518 0.631377 0
M  V30 11 H -0.977 1.52953 0.210867 0
M  V30 12 H 0.981 2.67203 3.11629 0
M  V30 13 H -0.358 1.57376 2.7183 0
M  V30 14 H -1.165 3.90944 3.18086 0
M  V30 15 H -1.563 3.418 1.51819 0
M  V30 16 H 0.729 5.58782 3.83104 0
M  V30 17 H 1.672 6.56266 2.65933 0
M  V30 18 H 2.08 4.83886 2.90714 0
M  V30 19 N 1.4781 -0.272755 1.55222 0
M  V30 20 C 2.4411 -1.32041 1.87344 0
M  V30 21 C 3.4411 -1.42342 0.74803 0
M  V30 22 O 4.6311 -1.41488 1.0162 0
M  V30 23 C 1.7631 -2.70173 2.07893 0
M  V30 24 H 2.9561 -1.04789 2.80997 0
M  V30 25 H 0.5091 -0.51083 1.47717 0
M  V30 26 H 1.2441 -3.02605 1.16622 0
M  V30 27 H 1.0291 -2.64082 2.89833 0
M  V30 28 H 2.5191 -3.45869 2.34017 0
M  V30 29 N 2.9562 -1.48159 -0.537278 0
M  V30 30 C 4.2042 -1.55497 -1.29094 0
M  V30 31 C 4.5252 -0.227454 -1.93669 0
M  V30 32 O 3.7952 0.750386 -1.80959 0
M  V30 33 H 2.3752 -0.572832 -0.47945 0
M  V30 34 H 5.0372 -1.84579 -0.625818 0
M  V30 35 H 4.1332 -2.33216 -2.07405 0
M  V30 36 N 4.4343 0.785586 -1.36625 0
M  V30 37 C 5.3973 1.87999 -1.31107 0
M  V30 38 C 6.3973 1.59316 -0.217959 0
M  V30 39 O 7.5873 1.67656 -0.472977 0
M  V30 40 C 4.7193 3.24861 -1.03334 0
M  V30 41 H 5.9123 1.94307 -2.2844 0
M  V30 42 H 3.4653 0.983813 -1.21453 0
M  V30 43 H 4.2003 3.24235 -0.0647432 0
M  V30 44 H 3.9853 3.4707 -1.82441 0
M  V30 45 H 5.4753 4.04929 -1.02088 0
M  V30 46 N 5.9124 1.20967 1.01018 0
M  V30 47 C 7.3234 1.02319 1.56165 0
M  V30 48 C 7.6744 -0.418546 1.91684 0
M  V30 49 O 6.7994 -1.30096 1.72928 0
M  V30 50 C 7.3944 1.85109 2.8376 0
M  V30 51 C 5.9534 1.70809 3.35412 0
M  V30 52 C 5.1004 1.82643 2.08655 0
M  V30 53 H 8.0514 1.35065 0.833255 0
M  V30 54 H 8.0724 1.35827 3.55431 0
M  V30 55 H 7.5844 2.90035 2.57878 0
M  V30 56 H 5.6854 0.685464 3.66241 0
M  V30 57 H 5.7984 2.52467 4.07182 0
M  V30 58 H 4.1624 1.25896 2.21409 0
M  V30 59 H 4.9454 2.89066 1.85191 0
M  V30 60 N 7.3905 -1.2043 1.01659 0
M  V30 61 C 8.8065 -1.41852 0.731442 0
M  V30 62 C 9.0065 -1.89358 -0.688898 0
M  V30 63 O 8.0625 -2.06247 -1.45666 0
M  V30 64 C 9.3755 -2.44019 1.75714 0
M  V30 65 C 10.9235 -2.57785 1.77527 0
M  V30 66 C 11.3985 -3.63194 2.79023 0
M  V30 67 N 12.8895 -3.70678 2.77763 0
M  V30 68 C 13.6245 -4.51897 3.52954 0
M  V30 69 N 13.1205 -5.36921 4.37821 0
M  V30 70 N 14.9135 -4.4643 3.41551 0
M  V30 71 H 7.0645 -0.879093 1.93354 0
M  V30 72 H 9.3275 -0.448425 0.835236 0
M  V30 73 H 9.0335 -2.1611 2.77469 0
M  V30 74 H 8.9075 -3.43007 1.56927 0
M  V30 75 H 11.2945 -2.85023 0.764569 0
M  V30 76 H 11.3755 -1.58992 2.00387 0
M  V30 77 H 11.0195 -3.36699 3.80258 0
M  V30 78 H 10.9495 -4.61609 2.53425 0
M  V30 79 H 13.4405 -3.09944 2.16201 0
M  V30 80 H 13.7535 -5.95981 4.91962 0
M  V30 81 H 12.0985 -5.36424 4.41899 0
M  V30 82 H 15.2895 -3.79042 2.74672 0
M  V30 83 H 15.4625 -5.09491 4.00404 0
M  V30 84 N 8.8686 -0.792821 -1.36206 0
M  V30 85 C 10.1166 -0.366062 -1.98757 0
M  V30 86 C 10.4376 1.0668 -1.63231 0
M  V30 87 O 9.7076 1.73587 -0.907978 0
M  V30 88 H 8.2876 -0.132364 -0.735179 0
M  V30 89 H 10.9496 -1.01562 -1.66347 0
M  V30 90 H 10.0456 -0.460638 -3.08682 0
M  V30 91 N 10.3467 1.47872 -0.545128 0
M  V30 92 C 11.5947 2.02093 -0.016553 0
M  V30 93 C 11.9157 1.42305 1.3332 0
M  V30 94 O 11.1857 0.593853 1.86682 0
M  V30 95 H 9.7657 0.746993 -0.00313038 0
M  V30 96 H 12.4277 1.81414 -0.712397 0
M  V30 97 H 11.5237 3.11996 0.0805422 0
M  V30 98 N 11.8248 0.280983 1.55075 0
M  V30 99 C 13.0728 -0.333455 1.9933 0
M  V30 100 C 13.3938 -1.55937 1.17085 0
M  V30 101 O 12.6638 -1.94143 0.261805 0
M  V30 102 H 11.2438 -0.126197 0.736263 0
M  V30 103 H 13.9058 0.387678 1.91005 0
M  V30 104 H 13.0018 -0.619292 3.05894 0
M  V30 105 N 13.3029 -1.57598 0.00835791 0
M  V30 106 C 14.5509 -1.90551 -0.6734 0
M  V30 107 C 14.8719 -0.883301 -1.73847 0
M  V30 108 O 14.1419 0.0781442 -1.95744 0
M  V30 109 H 12.7219 -0.703312 -0.251717 0
M  V30 110 H 15.3839 -1.94833 0.0512592 0
M  V30 111 H 14.4799 -2.9056 -1.13935 0
M  V30 112 N 14.781 0.264519 -1.55364 0
M  V30 113 C 16.029 0.993021 -1.76021 0
M  V30 114 C 16.35 1.86511 -0.569099 0
M  V30 115 O 15.62 1.91438 0.415735 0
M  V30 116 H 14.2 0.369639 -0.649135 0
M  V30 117 H 16.862 0.286707 -1.9278 0
M  V30 118 H 15.958 1.62502 -2.66457 0
M  V30 119 N 16.2591 1.48442 0.529413 0
M  V30 120 C 17.5071 1.56179 1.28267 0
M  V30 121 C 17.8281 0.237721 1.93546 0
M  V30 122 O 17.0981 -0.740779 1.81354 0
M  V30 123 H 15.6781 0.575367 0.476405 0
M  V30 124 H 18.3401 1.84909 0.61602 0
M  V30 125 H 17.4361 2.34312 2.06165 0
M  V30 126 N 17.7372 -0.778329 1.37039 0
M  V30 127 C 18.9852 -1.53361 1.31623 0
M  V30 128 C 19.3062 -1.94739 -0.100831 0
M  V30 129 O 18.5762 -1.65797 -1.04347 0
M  V30 130 H 17.1562 -0.568794 0.484234 0
M  V30 131 H 19.8182 -0.926742 1.71457 0
M  V30 132 H 18.9142 -2.43606 1.95096 0
M  V30 133 N 19.2153 -1.21501 -1.00376 0
M  V30 134 C 20.4633 -1.03095 -1.73827 0
M  V30 135 C 20.7843 0.436341 -1.90055 0
M  V30 136 O 20.0543 1.31466 -1.45236 0
M  V30 137 H 18.6343 -0.378487 -0.644016 0
M  V30 138 H 21.2963 -1.52831 -1.20949 0
M  V30 139 H 20.3923 -1.49991 -2.73695 0
M  V30 140 N 20.6934 1.19889 -1.02296 0
M  V30 141 C 21.6564 2.21116 -0.603351 0
M  V30 142 C 22.6564 1.5738 0.329884 0
M  V30 143 O 23.8464 1.73802 0.117702 0
M  V30 144 C 20.9784 3.40696 0.117992 0
M  V30 145 H 22.1714 2.59754 -1.49893 0
M  V30 146 H 19.7244 1.33463 -0.813468 0
M  V30 147 H 20.4594 3.07569 1.0282 0
M  V30 148 H 20.2444 3.88188 -0.552511 0
M  V30 149 H 21.7344 4.15692 0.398696 0
M  V30 150 N 22.1715 0.800033 1.35784 0
M  V30 151 C 23.4195 0.376597 1.9856 0
M  V30 152 C 23.7405 -1.05812 1.63795 0
M  V30 153 O 23.0105 -1.73103 0.917171 0
M  V30 154 H 21.5905 0.136261 0.734467 0
M  V30 155 H 24.2525 1.02442 1.65806 0
M  V30 156 H 23.3485 0.477002 3.08433 0
M  V30 157 N 23.6496 -1.47581 0.552962 0
M  V30 158 C 24.5596 -2.33743 -0.200353 0
M  V30 159 C 25.5756 -1.47928 -0.916151 0
M  V30 160 O 26.7516 -1.80865 -0.885993 0
M  V30 161 C 23.8166 -3.24536 -1.21973 0
M  V30 162 C 22.8776 -4.26238 -0.511819 0
M  V30 163 C 22.1106 -5.12693 -1.48263 0
M  V30 164 O 22.3336 -5.01525 -2.71714 0
M  V30 165 O 21.2676 -5.93375 -1.00945 0
M  V30 166 H 25.0936 -2.9945 0.506304 0
M  V30 167 H 22.6786 -1.46071 0.313622 0
M  V30 168 H 24.5606 -3.80631 -1.80827 0
M  V30 169 H 23.2356 -2.61462 -1.90839 0
M  V30 170 H 22.1426 -3.73914 0.117799 0
M  V30 171 H 23.4756 -4.92014 0.135308 0
M  V30 172 N 25.1277 -0.289203 -1.54924 0
M  V30 173 C 26.5387 0.205791 -1.85562 0
M  V30 174 C 26.8897 1.54351 -1.2112 0
M  V30 175 O 26.0147 2.10435 -0.504601 0
M  V30 176 C 26.6097 0.380177 -3.3666 0
M  V30 177 C 25.1687 0.819395 -3.67373 0
M  V30 178 C 24.3157 -0.079159 -2.77187 0
M  V30 179 H 27.2667 -0.510577 -1.50262 0
M  V30 180 H 27.2877 1.21659 -3.60526 0
M  V30 181 H 26.7997 -0.593589 -3.83534 0
M  V30 182 H 24.9007 1.80413 -3.26009 0
M  V30 183 H 25.0137 0.646957 -4.74712 0
M  V30 184 H 23.3777 0.439565 -2.50878 0
M  V30 185 H 24.1607 -1.04906 -3.26878 0
M  V30 186 N 26.6058 1.57591 -0.0167156 0
M  V30 187 C 27.8538 1.90906 0.663285 0
M  V30 188 C 28.1748 0.892509 1.73376 0
M  V30 189 O 27.4448 -0.0677623 1.95783 0
M  V30 190 H 26.0248 0.704637 0.247983 0
M  V30 191 H 28.6868 1.94803 -0.0615909 0
M  V30 192 H 27.7828 2.9116 1.12393 0
M  V30 193 N 28.0839 -0.256276 1.55502 0
M  V30 194 C 29.3319 -0.983672 1.76545 0
M  V30 195 C 29.6529 -1.86206 0.578982 0
M  V30 196 O 28.9229 -1.91656 -0.405577 0
M  V30 197 H 27.5029 -0.366191 0.651086 0
M  V30 198 H 30.1649 -0.276479 1.92929 0
M  V30 199 H 29.2609 -1.61087 2.67315 0
M  V30 200 N 29.562 -1.4872 -0.521534 0
M  V30 201 C 30.525 -1.63379 -1.60748 0
M  V30 202 C 31.525 -0.50661 -1.52611 0
M  V30 203 O 32.715 -0.772601 -1.5613 0
M  V30 204 C 29.847 -1.61192 -3.00383 0
M  V30 205 H 31.04 -2.60217 -1.49087 0
M  V30 206 H 28.593 -1.37444 -0.744235 0
M  V30 207 H 29.328 -0.65863 -3.17541 0
M  V30 208 H 29.113 -2.43032 -3.07698 0
M  V30 209 H 30.603 -1.7466 -3.7932 0
M  V30 210 N 31.0401 0.771051 -1.3745 0
M  V30 211 C 31.9501 1.91538 -1.35464 0
M  V30 212 C 32.9661 1.72134 -0.254123 0
M  V30 213 O 34.1421 1.95358 -0.489626 0
M  V30 214 C 31.2071 3.26671 -1.16134 0
M  V30 215 C 30.2681 3.58723 -2.35831 0
M  V30 216 C 29.5011 4.87409 -2.17413 0
M  V30 217 O 29.7241 5.58506 -1.15876 0
M  V30 218 O 28.6581 5.18539 -3.05615 0
M  V30 219 H 32.4841 1.96165 -2.31847 0
M  V30 220 H 30.0691 0.9139 -1.18187 0
M  V30 221 H 31.9511 4.07499 -1.07345 0
M  V30 222 H 30.6261 3.22894 -0.228251 0
M  V30 223 H 29.5331 2.78127 -2.50192 0
M  V30 224 H 30.8661 3.67243 -3.27709 0
M  V30 225 N 32.5182 1.22032 0.997298 0
M  V30 226 C 33.9342 0.979326 1.26021 0
M  V30 227 C 34.1342 -0.32972 1.98784 0
M  V30 228 O 33.1902 -1.05345 2.29475 0
M  V30 229 C 34.5032 2.17509 2.07631 0
M  V30 230 C 36.0512 2.21817 2.2083 0
M  V30 231 C 36.5262 3.40933 3.05825 0
M  V30 232 N 38.0172 3.41067 3.13412 0
M  V30 233 C 38.7522 4.29885 3.79455 0
M  V30 234 N 38.2482 5.28914 4.47462 0
M  V30 235 N 40.0412 4.17673 3.76173 0
M  V30 236 H 32.1922 2.06202 0.509352 0
M  V30 237 H 34.4552 0.90334 0.287541 0
M  V30 238 H 34.1612 3.12415 1.61524 0
M  V30 239 H 34.0352 2.17206 3.08385 0
M  V30 240 H 36.4222 1.27462 2.66153 0
M  V30 241 H 36.5032 2.2616 1.1952 0
M  V30 242 H 36.1472 4.35586 2.61203 0
M  V30 243 H 36.0772 3.33829 4.07266 0
M  V30 244 H 38.5682 2.69406 2.65007 0
M  V30 245 H 38.8812 5.92973 4.95583 0
M  V30 246 H 37.2262 5.32831 4.46224 0
M  V30 247 H 40.4172 3.39564 3.22202 0
M  V30 248 H 40.5902 4.87098 4.27363 0
M  V30 249 N 33.9963 -1.19345 1.0293 0
M  V30 250 C 34.9593 -2.20793 0.615069 0
M  V30 251 C 35.9593 -1.57553 -0.321533 0
M  V30 252 O 37.1493 -1.73862 -0.108483 0
M  V30 253 C 34.2813 -3.40754 -0.0999222 0
M  V30 254 H 35.4743 -2.58955 1.51269 0
M  V30 255 H 33.0273 -1.3303 0.820534 0
M  V30 256 H 33.7623 -3.0811 -1.01187 0
M  V30 257 H 33.5473 -3.87889 0.57309 0
M  V30 258 H 35.0373 -4.15898 -0.376645 0
M  V30 259 N 35.4744 -0.807222 -1.35358 0
M  V30 260 C 36.4374 -0.223665 -2.28106 0
M  V30 261 C 37.4374 0.589354 -1.4961 0
M  V30 262 O 38.6274 0.407745 -1.69361 0
M  V30 263 C 35.7594 0.688149 -3.33882 0
M  V30 264 H 36.9524 -1.04169 -2.81227 0
M  V30 265 H 34.5054 -0.577921 -1.45223 0
M  V30 266 H 35.2404 1.52984 -2.85948 0
M  V30 267 H 35.0254 0.10687 -3.91954 0
M  V30 268 H 36.5154 1.09075 -4.03104 0
M  V30 269 N 36.9525 1.47285 -0.560781 0
M  V30 270 C 38.2005 2.02064 -0.0379868 0
M  V30 271 C 38.5215 1.43711 1.31803 0
M  V30 272 O 37.7915 0.61362 1.86042 0
M  V30 273 H 36.3715 0.746918 -0.0110531 0
M  V30 274 H 39.0335 1.80648 -0.731598 0
M  V30 275 H 38.1295 3.12064 0.0474463 0
M  V30 276 N 38.4306 0.297415 1.54768 0
M  V30 277 C 39.6586 -0.315623 2.04478 0
M  V30 278 C 40.0736 -1.47792 1.17486 0
M  V30 279 O 39.4306 -1.81404 0.19971 0
M  V30 280 C 39.4816 -0.7753 3.53088 0
M  V30 281 O 39.2026 0.340732 4.36773 0
M  V30 282 C 40.7036 -1.45386 4.18781 0
M  V30 283 H 37.9236 -0.0690887 0.667434 0
M  V30 284 H 40.4676 0.436003 1.99798 0
M  V30 285 H 38.6226 -1.47696 3.58141 0
M  V30 286 H 39.0366 -0.0165035 5.24497 0
M  V30 287 H 40.5106 -1.72669 5.24299 0
M  V30 288 H 40.9876 -2.39275 3.68299 0
M  V30 289 H 41.5936 -0.795475 4.17795 0
M  V30 290 N 39.9087 -1.5758 0.0250728 0
M  V30 291 C 41.1337 -1.96337 -0.668317 0
M  V30 292 C 41.5587 -0.901314 -1.651 0
M  V30 293 O 40.9167 0.138187 -1.80773 0
M  V30 294 C 40.9647 -3.34191 -1.35457 0
M  V30 295 O 40.0687 -3.30269 -2.46974 0
M  V30 296 H 39.4097 -0.640281 -0.175887 0
M  V30 297 H 41.9397 -2.0442 0.0857224 0
M  V30 298 H 41.9497 -3.70331 -1.71228 0
M  V30 299 H 40.6247 -4.11036 -0.634218 0
M  V30 300 H 39.2017 -3.05841 -2.13344 0
M  V30 301 N 41.3868 0.248026 -1.55636 0
M  V30 302 C 42.8028 0.596483 -1.48035 0
M  V30 303 C 43.0028 1.88386 -0.715039 0
M  V30 304 O 42.0588 2.51319 -0.243944 0
M  V30 305 C 43.3718 0.700258 -2.92433 0
M  V30 306 C 44.9198 0.792659 -3.02797 0
M  V30 307 C 45.3948 0.928005 -4.485 0
M  V30 308 N 46.8858 0.992903 -4.52433 0
M  V30 309 C 47.6208 1.11687 -5.62418 0
M  V30 310 N 47.1168 1.20645 -6.82214 0
M  V30 311 N 48.9098 1.14994 -5.50212 0
M  V30 312 H 41.0608 -0.597109 -2.03834 0
M  V30 313 H 43.3238 -0.205925 -0.925364 0
M  V30 314 H 43.0298 -0.175658 -3.51261 0
M  V30 315 H 42.9038 1.57255 -3.42857 0
M  V30 316 H 45.2908 1.65903 -2.4405 0
M  V30 317 H 45.3718 -0.104762 -2.55585 0
M  V30 318 H 45.0158 0.0661971 -5.07857 0
M  V30 319 H 44.9458 1.84045 -4.93391 0
M  V30 320 H 47.4368 0.935064 -3.66149 0
M  V30 321 H 47.7498 1.30008 -7.61786 0
M  V30 322 H 46.0948 1.17605 -6.84977 0
M  V30 323 H 49.2858 1.07643 -4.55555 0
M  V30 324 H 49.4588 1.24311 -6.35965 0
M  V30 325 N 42.8649 1.48995 0.513639 0
M  V30 326 C 44.2809 1.35478 0.843682 0
M  V30 327 C 44.4809 0.378213 1.97919 0
M  V30 328 O 43.5369 -0.194689 2.51748 0
M  V30 329 C 44.8499 2.75901 1.1958 0
M  V30 330 C 46.3979 2.84509 1.30474 0
M  V30 331 C 46.8729 4.25671 1.69021 0
M  V30 332 N 48.3639 4.28422 1.76094 0
M  V30 333 C 49.0989 5.34601 2.07338 0
M  V30 334 N 48.5949 6.5104 2.36894 0
M  V30 335 N 50.3879 5.22007 2.08483 0
M  V30 336 H 42.5389 2.11092 -0.235328 0
M  V30 337 H 44.8019 0.947039 -0.0426669 0
M  V30 338 H 44.5079 3.49001 0.434913 0
M  V30 339 H 44.3819 3.10467 2.1422 0
M  V30 340 H 46.7689 2.11655 2.05637 0
M  V30 341 H 46.8499 2.53542 0.339155 0
M  V30 342 H 46.4939 4.99048 0.944135 0
M  V30 343 H 46.4239 4.54094 2.66658 0
M  V30 344 H 48.9149 3.44441 1.55464 0
M  V30 345 H 49.2279 7.2779 2.59887 0
M  V30 346 H 47.5729 6.54287 2.34378 0
M  V30 347 H 50.7639 4.30051 1.84861 0
M  V30 348 H 50.9369 6.04854 2.325 0
M  V30 349 N 44.343 -0.763751 1.37857 0
M  V30 350 C 45.759 -1.06542 1.18832 0
M  V30 351 C 45.959 -2.01478 0.0299722 0
M  V30 352 O 45.015 -2.4458 -0.627447 0
M  V30 353 C 46.328 -1.65525 2.51042 0
M  V30 354 C 47.876 -1.77745 2.57635 0
M  V30 355 C 48.351 -2.4014 3.89996 0
M  V30 356 N 49.842 -2.47582 3.91481 0
M  V30 357 C 50.577 -2.96732 4.9065 0
M  V30 358 N 50.073 -3.45993 6.00217 0
M  V30 359 N 51.866 -2.95679 4.78048 0
M  V30 360 H 44.017 -0.133556 2.1198 0
M  V30 361 H 46.28 -0.121879 0.940133 0
M  V30 362 H 45.986 -1.03236 3.36207 0
M  V30 363 H 45.86 -2.64719 2.68707 0
M  V30 364 H 48.247 -2.39164 1.72872 0
M  V30 365 H 48.328 -0.772836 2.43846 0
M  V30 366 H 47.972 -1.79358 4.75177 0
M  V30 367 H 47.902 -3.41223 4.01092 0
M  V30 368 H 50.393 -2.1273 3.12337 0
M  V30 369 H 50.706 -3.81922 6.7183 0
M  V30 370 H 49.051 -3.44077 6.03851 0
M  V30 371 H 52.242 -2.56499 3.91568 0
M  V30 372 H 52.415 -3.33672 5.55488 0
M  V30 373 N 45.8211 -1.22559 -0.990812 0
M  V30 374 C 47.0691 -1.04933 -1.72724 0
M  V30 375 C 47.3901 0.416158 -1.90508 0
M  V30 376 O 46.6601 1.29918 -1.46622 0
M  V30 377 H 45.2401 -0.385296 -0.639965 0
M  V30 378 H 47.9021 -1.54105 -1.19322 0
M  V30 379 H 46.9981 -1.52886 -2.72089 0
M  V30 380 N 47.2992 1.18797 -1.03562 0
M  V30 381 C 48.2292 2.24472 -0.643019 0
M  V30 382 C 49.2102 1.66433 0.351283 0
M  V30 383 O 50.3952 1.92803 0.232505 0
M  V30 384 C 47.5252 3.473 4.24935e-05 0
M  V30 385 C 46.4792 4.18055 -0.917257 0
M  V30 386 C 45.8052 5.34519 -0.138941 0
M  V30 387 C 47.1052 4.72109 -2.23407 0
M  V30 388 H 48.7992 2.57566 -1.52643 0
M  V30 389 H 46.3452 1.23806 -0.735394 0
M  V30 390 H 48.2982 4.20426 0.286383 0
M  V30 391 H 47.0222 3.13424 0.918299 0
M  V30 392 H 45.6812 3.46821 -1.1879 0
M  V30 393 H 45.3292 4.96891 0.781562 0
M  V30 394 H 45.0292 5.82794 -0.750005 0
M  V30 395 H 46.5532 6.10438 0.1405 0
M  V30 396 H 47.9672 5.36955 -2.00879 0
M  V30 397 H 46.3642 5.30897 -2.79765 0
M  V30 398 H 47.4342 3.89807 -2.88407 0
M  V30 399 N 48.7773 0.814389 1.34928 0
M  V30 400 C 50.1933 0.499084 1.51596 0
M  V30 401 C 50.3933 -0.978319 1.76157 0
M  V30 402 O 49.4493 -1.76309 1.80752 0
M  V30 403 C 50.7623 1.35121 2.68631 0
M  V30 404 C 52.3103 1.34746 2.82511 0
M  V30 405 C 52.7853 2.18388 4.0258 0
M  V30 406 N 54.2763 2.15966 4.09772 0
M  V30 407 C 55.0113 2.77437 5.01813 0
M  V30 408 N 54.5073 3.47866 5.99134 0
M  V30 409 N 56.3003 2.67037 4.94619 0
M  V30 410 H 48.4513 1.7711 1.17243 0
M  V30 411 H 50.7143 0.754256 0.574284 0
M  V30 412 H 50.4203 2.40001 2.57085 0
M  V30 413 H 50.2943 1.00991 3.63429 0
M  V30 414 H 52.6813 0.30648 2.93504 0
M  V30 415 H 52.7623 1.72869 1.88547 0
M  V30 416 H 52.4063 3.2253 3.92347 0
M  V30 417 H 52.3363 1.77621 4.9574 0
M  V30 418 H 54.8273 1.64729 3.40107 0
M  V30 419 H 55.1403 3.92038 6.65977 0
M  V30 420 H 53.4853 3.51972 5.99284 0
M  V30 421 H 56.6763 2.11597 4.17546 0
M  V30 422 H 56.8493 3.15232 5.66156 0
M  V30 423 N 50.2554 -1.46986 0.568584 0
M  V30 424 C 51.2184 -2.28624 -0.162366 0
M  V30 425 C 52.2184 -1.37596 -0.832103 0
M  V30 426 O 53.4084 -1.60115 -0.68622 0
M  V30 427 C 50.5404 -3.17596 -1.23878 0
M  V30 428 H 51.7334 -2.94722 0.554899 0
M  V30 429 H 49.2864 -1.52863 0.325976 0
M  V30 430 H 50.0214 -2.56214 -1.98808 0
M  V30 431 H 49.8064 -3.846 -0.763219 0
M  V30 432 H 51.2964 -3.79078 -1.75185 0
M  V30 433 N 51.7335 -0.305618 -1.54608 0
M  V30 434 C 52.9735 0.303114 -2.0214 0
M  V30 435 C 53.3375 1.50737 -1.18921 0
M  V30 436 O 54.5385 2.18778 -1.56172 0
M  V30 437 C 52.8095 0.646332 -3.51507 0
M  V30 438 S 54.3685 1.23727 -4.20995 0
M  V30 439 H 51.1865 0.0927643 -0.704923 0
M  V30 440 H 53.7885 -0.434566 -1.90609 0
M  V30 441 H 52.4925 -0.238541 -4.09706 0
M  V30 442 H 52.0235 1.41468 -3.67084 0
M  V30 443 H 54.0385 2.52489 -4.27158 0
M  V30 444 N 53.2116 1.57565 -0.0334293 0
M  V30 445 C 54.4886 1.83282 0.683163 0
M  V30 446 C 54.8686 0.91823 1.90084 0
M  V30 447 O 54.2166 -0.025113 2.28486 0
M  V30 448 C 54.4266 3.32599 1.0573 0
M  V30 449 C 55.7746 3.99179 1.44711 0
M  V30 450 O 56.7986 3.3712 1.15015 0
M  V30 451 O 55.6576 5.08565 2.0006 0
M  V30 452 H 52.7516 0.755869 0.335546 0
M  V30 453 H 55.2976 1.69589 -0.0614402 0
M  V30 454 H 54.0696 3.90834 0.190828 0
M  V30 455 H 53.6926 3.51415 1.85993 0
M  V30 456 N 54.6897 -0.239769 1.55765 0
M  V30 457 C 55.5997 -1.31831 1.94056 0
M  V30 458 C 56.6157 -1.52275 0.841925 0
M  V30 459 O 57.7917 -1.65759 1.14394 0
M  V30 460 C 54.8567 -2.65156 2.23368 0
M  V30 461 C 53.9177 -2.53173 3.46701 0
M  V30 462 C 53.1507 -3.8014 3.74606 0
M  V30 463 O 53.3737 -4.82343 3.04469 0
M  V30 464 O 52.3077 -3.78344 4.68123 0
M  V30 465 H 56.1337 -1.02347 2.85935 0
M  V30 466 H 53.7187 -0.441123 1.42739 0
M  V30 467 H 55.6007 -3.43929 2.43497 0
M  V30 468 H 54.2757 -2.94358 1.34666 0
M  V30 469 H 53.1827 -1.72662 3.31871 0
M  V30 470 H 54.5157 -2.28915 4.35728 0
M  V30 471 N 56.1678 -1.49265 -0.50573 0
M  V30 472 C 57.0778 -1.68312 -1.63427 0
M  V30 473 C 58.0938 -0.565682 -1.64548 0
M  V30 474 O 59.2698 -0.839801 -1.83055 0
M  V30 475 C 56.3348 -1.74107 -2.99813 0
M  V30 476 C 55.3958 -2.97653 -3.09356 0
M  V30 477 C 54.6288 -3.03163 -4.39236 0
M  V30 478 O 54.8518 -2.16396 -5.27758 0
M  V30 479 O 53.7858 -3.9558 -4.53652 0
M  V30 480 H 57.6118 -2.63907 -1.50289 0
M  V30 481 H 55.1968 -1.32951 -0.681502 0
M  V30 482 H 57.0788 -1.803 -3.80881 0
M  V30 483 H 55.7538 -0.816901 -3.13223 0
M  V30 484 H 54.6608 -2.96981 -2.27493 0
M  V30 485 H 55.9938 -3.89535 -3.00871 0
M  V30 486 N 57.6459 0.756429 -1.3826 0
M  V30 487 C 58.8929 1.51547 -1.34312 0
M  V30 488 C 59.2209 1.94382 0.0677144 0
M  V30 489 O 58.4759 1.65514 1.04421 0
M  V30 490 C 58.7749 2.78313 -2.24224 0
M  V30 491 C 58.4409 2.54455 -3.72241 0
M  V30 492 C 57.1029 2.47657 -4.12576 0
M  V30 493 C 59.4549 2.3354 -4.65949 0
M  V30 494 C 56.7829 2.17956 -5.44713 0
M  V30 495 C 59.1349 2.05359 -5.9834 0
M  V30 496 C 57.7989 1.97016 -6.37762 0
M  V30 497 H 57.0689 0.55455 -0.491482 0
M  V30 498 H 59.7159 0.870039 -1.70595 0
M  V30 499 H 58.0209 3.47492 -1.80987 0
M  V30 500 H 59.7179 3.36259 -2.18474 0
M  V30 501 H 56.3079 2.60616 -3.40261 0
M  V30 502 H 60.4919 2.37772 -4.35635 0
M  V30 503 H 55.7479 2.10003 -5.74203 0
M  V30 504 H 59.9219 1.88179 -6.70494 0
M  V30 505 H 57.5489 1.73766 -7.40074 0
M  V30 506 N 59.124 1.23083 0.984299 0
M  V30 507 C 60.087 1.00979 2.05757 0
M  V30 508 C 61.087 -0.0269573 1.60777 0
M  V30 509 O 62.277 0.212403 1.729 0
M  V30 510 C 59.409 0.527072 3.36801 0
M  V30 511 H 60.602 1.9622 2.26799 0
M  V30 512 H 58.155 1.05072 1.15714 0
M  V30 513 H 58.89 -0.429294 3.21446 0
M  V30 514 H 58.675 1.27515 3.70786 0
M  V30 515 H 60.165 0.392942 4.15747 0
M  V30 516 N 60.6021 -1.18246 1.0419 0
M  V30 517 C 61.8421 -1.89948 0.754916 0
M  V30 518 C 62.2061 -1.78608 -0.70451 0
M  V30 519 O 63.4071 -2.4503 -1.10516 0
M  V30 520 C 61.6781 -3.36305 1.20969 0
M  V30 521 S 63.2371 -4.26088 1.04854 0
M  V30 522 H 60.0551 -0.655897 0.274446 0
M  V30 523 H 62.6571 -1.42873 1.33445 0
M  V30 524 H 61.3611 -3.42089 2.26722 0
M  V30 525 H 60.8921 -3.8842 0.624004 0
M  V30 526 H 62.9071 -4.96189 -0.0332896 0
M  V30 527 N 62.0802 -0.821533 -1.34494 0
M  V30 528 C 63.4912 -0.467956 -1.8074 0
M  V30 529 C 63.8422 1.01151 -1.68116 0
M  V30 530 O 62.9672 1.78707 -1.22036 0
M  V30 531 C 63.5622 -0.842627 -3.28154 0
M  V30 532 C 62.1212 -0.541439 -3.72485 0
M  V30 533 C 61.2682 -1.06028 -2.56229 0
M  V30 534 H 64.2192 -1.01183 -1.22261 0
M  V30 535 H 64.2402 -0.145876 -3.8022 0
M  V30 536 H 63.7522 -1.91945 -3.37311 0
M  V30 537 H 61.8532 0.526034 -3.68868 0
M  V30 538 H 61.9662 -1.08453 -4.66663 0
M  V30 539 H 60.3302 -0.481892 -2.501 0
M  V30 540 H 61.1132 -2.14352 -2.68157 0
M  V30 541 N 63.5583 1.46682 -0.576371 0
M  V30 542 C 64.4683 2.34032 0.163141 0
M  V30 543 C 65.4843 1.49367 0.892501 0
M  V30 544 O 66.6603 1.82252 0.857106 0
M  V30 545 C 63.7253 3.26435 1.16795 0
M  V30 546 C 62.7863 4.26998 0.443944 0
M  V30 547 C 62.0193 5.14986 1.40088 0
M  V30 548 O 62.2423 5.05785 2.637 0
M  V30 549 O 61.1763 5.94906 0.914917 0
M  V30 550 H 65.0023 2.98607 -0.55388 0
M  V30 551 H 62.5873 1.45554 -0.336821 0
M  V30 552 H 64.4693 3.83459 1.74748 0
M  V30 553 H 63.1443 2.64465 1.86655 0
M  V30 554 H 62.0513 3.7368 -0.177271 0
M  V30 555 H 63.3843 4.91736 -0.213566 0
M  V30 556 N 65.0364 0.313813 1.54444 0
M  V30 557 C 65.9664 -0.549454 2.26943 0
M  V30 558 C 66.9474 -1.12741 1.27372 0
M  V30 559 O 68.1324 -1.15436 1.56167 0
M  V30 560 C 65.2624 -1.71523 3.01989 0
M  V30 561 C 64.2164 -1.26703 4.08816 0
M  V30 562 C 63.5424 -2.51898 4.71647 0
M  V30 563 C 64.8424 -0.388962 5.2085 0
M  V30 564 H 66.5364 0.0552661 2.99349 0
M  V30 565 H 64.0824 0.0280207 1.43973 0
M  V30 566 H 66.0354 -2.32535 3.51433 0
M  V30 567 H 64.7594 -2.34639 2.27183 0
M  V30 568 H 63.4184 -0.679896 3.6024 0
M  V30 569 H 63.0664 -3.13356 3.93468 0
M  V30 570 H 62.7664 -2.22605 5.43802 0
M  V30 571 H 64.2904 -3.1369 5.23861 0
M  V30 572 H 65.7044 -0.905107 5.6611 0
M  V30 573 H 64.1014 -0.18924 5.99802 0
M  V30 574 H 65.1714 0.582699 4.81386 0
M  V30 575 N 66.5145 -1.57545 0.0417849 0
M  V30 576 C 67.4245 -2.14451 -0.951213 0
M  V30 577 C 68.4405 -1.09992 -1.34825 0
M  V30 578 O 69.6165 -1.42114 -1.42708 0
M  V30 579 C 66.6815 -2.67063 -2.21084 0
M  V30 580 C 65.7425 -3.86284 -1.87304 0
M  V30 581 C 64.9755 -4.36378 -3.07261 0
M  V30 582 O 65.1985 -3.85587 -4.20332 0
M  V30 583 O 64.1325 -5.28077 -2.88822 0
M  V30 584 H 67.9585 -2.99601 -0.497287 0
M  V30 585 H 65.5435 -1.48317 -0.179567 0
M  V30 586 H 67.4255 -3.00914 -2.95006 0
M  V30 587 H 66.1005 -1.84989 -2.65633 0
M  V30 588 H 65.0075 -3.57338 -1.10727 0
M  V30 589 H 66.3405 -4.6956 -1.47562 0
M  V30 590 N 67.9926 0.231505 -1.5589 0
M  V30 591 C 68.9556 1.27028 -1.90779 0
M  V30 592 C 69.9556 1.40308 -0.785507 0
M  V30 593 O 71.1456 1.38744 -1.05336 0
M  V30 594 C 68.2776 2.64566 -2.14983 0
M  V30 595 H 69.4706 0.973017 -2.83677 0
M  V30 596 H 67.0236 0.471486 -1.49019 0
M  V30 597 H 67.7586 2.99406 -1.24604 0
M  V30 598 H 67.5436 2.56305 -2.96732 0
M  V30 599 H 69.0336 3.39543 -2.43105 0
M  V30 600 N 69.4707 1.49531 0.497807 0
M  V30 601 C 70.4007 1.6935 1.60757 0
M  V30 602 C 71.3817 0.542218 1.61227 0
M  V30 603 O 72.5667 0.778417 1.77917 0
M  V30 604 C 69.6967 1.76298 2.99226 0
M  V30 605 C 68.6507 2.91248 3.13622 0
M  V30 606 C 67.9767 2.83312 4.53474 0
M  V30 607 C 69.2767 4.3214 2.93346 0
M  V30 608 H 70.9707 2.62263 1.44425 0
M  V30 609 H 68.5167 1.26208 0.693367 0
M  V30 610 H 70.4697 1.88749 3.76765 0
M  V30 611 H 69.1937 0.799871 3.16654 0
M  V30 612 H 67.8527 2.78404 2.38509 0
M  V30 613 H 67.5007 1.84902 4.67782 0
M  V30 614 H 67.2007 3.60465 4.64046 0
M  V30 615 H 68.7247 2.97775 5.33069 0
M  V30 616 H 70.1387 4.45649 3.60652 0
M  V30 617 H 68.5357 5.1054 3.15387 0
M  V30 618 H 69.6057 4.46363 1.89441 0
M  V30 619 N 70.9488 -0.749086 1.3866 0
M  V30 620 C 72.1958 -1.50833 1.35114 0
M  V30 621 C 72.5238 -1.94415 -0.0574049 0
M  V30 622 O 71.7788 -1.66065 -1.03541 0
M  V30 623 C 72.0778 -2.7712 2.25697 0
M  V30 624 C 71.7438 -2.52477 3.73585 0
M  V30 625 C 70.4058 -2.45466 4.13884 0
M  V30 626 C 72.7578 -2.31066 4.67181 0
M  V30 627 C 70.0858 -2.15064 5.45861 0
M  V30 628 C 72.4378 -2.02183 5.9942 0
M  V30 629 C 71.1018 -1.93631 6.38798 0
M  V30 630 H 70.3718 -0.551936 0.494416 0
M  V30 631 H 73.0188 -0.860979 1.71054 0
M  V30 632 H 71.3238 -3.46528 1.82827 0
M  V30 633 H 73.0208 -3.35096 2.20254 0
M  V30 634 H 69.6108 -2.58807 3.41638 0
M  V30 635 H 73.7948 -2.35459 4.3689 0
M  V30 636 H 69.0508 -2.06954 5.75308 0
M  V30 637 H 73.2248 -1.8462 6.71482 0
M  V30 638 H 70.8518 -1.69839 7.40985 0
M  V30 639 N 72.4269 -1.23603 -0.977757 0
M  V30 640 C 73.8429 -0.999251 -1.24447 0
M  V30 641 C 74.0429 0.298053 -1.99283 0
M  V30 642 O 73.0989 1.01681 -2.31122 0
M  V30 643 C 74.4119 -2.20784 -2.04144 0
M  V30 644 C 75.9599 -2.25303 -2.17273 0
M  V30 645 C 76.4349 -3.45755 -3.00362 0
M  V30 646 N 77.9259 -3.4601 -3.07947 0
M  V30 647 C 78.6609 -4.35868 -3.72568 0
M  V30 648 N 78.1569 -5.35966 -4.38991 0
M  V30 649 N 79.9499 -4.23605 -3.6948 0
M  V30 650 H 72.1009 -2.06986 -0.476483 0
M  V30 651 H 74.3639 -0.907801 -0.273134 0
M  V30 652 H 74.0699 -3.14945 -1.56533 0
M  V30 653 H 73.9439 -2.22085 -3.04891 0
M  V30 654 H 76.3309 -1.3168 -2.64092 0
M  V30 655 H 76.4119 -2.28033 -1.15907 0
M  V30 656 H 76.0559 -4.39687 -2.5424 0
M  V30 657 H 75.9859 -3.40266 -4.01904 0
M  V30 658 H 78.4769 -2.73588 -2.60688 0
M  V30 659 H 78.7899 -6.00783 -4.86086 0
M  V30 660 H 77.1349 -5.39863 -4.37691 0
M  V30 661 H 80.3259 -3.44647 -3.16759 0
M  V30 662 H 80.4989 -4.93836 -4.1956 0
M  V30 663 N 73.905 1.17692 -1.04816 0
M  V30 664 C 75.153 1.87488 -0.754497 0
M  V30 665 C 75.474 1.81205 0.720407 0
M  V30 666 O 74.744 1.23544 1.52032 0
M  V30 667 H 73.324 0.694101 -0.276102 0
M  V30 668 H 75.986 1.42793 -1.32651 0
M  V30 669 H 75.082 2.93328 -1.06606 0
M  V30 670 N 75.3831 0.828654 1.34056 0
M  V30 671 C 76.6131 0.431993 2.02033 0
M  V30 672 C 77.0211 -0.96844 1.62536 0
M  V30 673 O 76.3641 -1.6391 0.829408 0
M  V30 674 C 76.4261 0.461224 3.56529 0
M  V30 675 C 76.0901 1.81599 4.1937 0
M  V30 676 C 77.0871 2.7777 4.39477 0
M  V30 677 C 74.7721 2.10604 4.56017 0
M  V30 678 C 76.7661 4.01115 4.95364 0
M  V30 679 C 74.4531 3.34207 5.11614 0
M  V30 680 C 75.4511 4.2928 5.31232 0
M  V30 681 O 75.1391 5.50699 5.8565 0
M  V30 682 H 74.8711 0.170943 0.654029 0
M  V30 683 H 77.4251 1.11988 1.72185 0
M  V30 684 H 75.6551 -0.283388 3.8566 0
M  V30 685 H 77.3441 0.0838149 4.05813 0
M  V30 686 H 78.1101 2.56659 4.11523 0
M  V30 687 H 73.9891 1.37402 4.40047 0
M  V30 688 H 77.5331 4.75333 5.10592 0
M  V30 689 H 73.4301 3.55179 5.38997 0
M  V30 690 H 74.1981 5.52298 6.04077 0
M  V30 691 N 76.8612 -1.46375 0.584142 0
M  V30 692 C 78.0892 -2.06761 0.0759296 0
M  V30 693 C 78.5042 -1.43266 -1.22965 0
M  V30 694 O 77.8612 -0.538458 -1.74376 0
M  V30 695 C 77.9122 -3.61375 -0.0950384 0
M  V30 696 O 77.6332 -4.22495 1.15887 0
M  V30 697 C 79.1342 -4.38693 -0.637434 0
M  V30 698 H 76.3542 -0.668479 0.0581075 0
M  V30 699 H 78.8982 -1.8798 0.805218 0
M  V30 700 H 77.0532 -3.79578 -0.774554 0
M  V30 701 H 77.4672 -5.15385 0.973598 0
M  V30 702 H 78.9412 -5.47464 -0.706237 0
M  V30 703 H 79.4182 -4.06836 -1.65472 0
M  V30 704 H 80.0242 -4.25299 0.00725967 0
M  V30 705 N 78.3393 -0.321999 -1.54275 0
M  V30 706 C 79.2693 0.537411 -2.27231 0
M  V30 707 C 80.2503 1.12064 -1.27968 0
M  V30 708 O 81.4353 1.14606 -1.56777 0
M  V30 709 C 78.5653 1.69919 -3.02894 0
M  V30 710 C 77.5193 1.24534 -4.09482 0
M  V30 711 C 76.8453 2.49394 -4.72977 0
M  V30 712 C 78.1453 0.361335 -5.21049 0
M  V30 713 H 79.8393 -0.0711406 -2.99315 0
M  V30 714 H 77.3853 -0.0356555 -1.43956 0
M  V30 715 H 79.3383 2.30668 -3.52662 0
M  V30 716 H 78.0623 2.33431 -2.28424 0
M  V30 717 H 76.7213 0.660782 -3.60596 0
M  V30 718 H 76.3693 3.11265 -3.95124 0
M  V30 719 H 76.0693 2.19718 -5.44975 0
M  V30 720 H 77.5933 3.10908 -5.25517 0
M  V30 721 H 79.0073 0.875072 -5.66582 0
M  V30 722 H 77.4043 0.157428 -5.99893 0
M  V30 723 H 78.4743 -0.60822 -4.8107 0
M  V30 724 N 79.8174 1.5752 -0.0501392 0
M  V30 725 C 81.2334 1.56631 0.306402 0
M  V30 726 C 81.4334 1.0577 1.71508 0
M  V30 727 O 80.4894 0.713837 2.422 0
M  V30 728 C 81.8024 3.00393 0.135811 0
M  V30 729 C 83.3504 3.12315 0.206993 0
M  V30 730 C 83.8254 4.57954 0.064944 0
M  V30 731 N 85.3164 4.63041 0.121254 0
M  V30 732 C 86.0514 5.73389 0.0354381 0
M  V30 733 N 85.5474 6.92724 -0.102666 0
M  V30 734 N 87.3404 5.62026 0.090946 0
M  V30 735 H 79.4914 1.88903 -0.971046 0
M  V30 736 H 81.7544 0.869876 -0.376855 0
M  V30 737 H 81.4604 3.41635 -0.835384 0
M  V30 738 H 81.3344 3.66373 0.897275 0
M  V30 739 H 83.7214 2.70973 1.16866 0
M  V30 740 H 83.8024 2.49016 -0.585208 0
M  V30 741 H 83.4464 4.99981 -0.893394 0
M  V30 742 H 83.3764 5.19258 0.876277 0
M  V30 743 H 85.8674 3.77216 0.227284 0
M  V30 744 H 86.1804 7.72633 -0.160882 0
M  V30 745 H 84.5254 6.94864 -0.137737 0
M  V30 746 H 87.7164 4.67684 0.197388 0
M  V30 747 H 87.8894 6.47997 0.0206089 0
M  V30 748 N 81.2955 -0.223234 1.56011 0
M  V30 749 C 82.2255 -1.27988 1.95298 0
M  V30 750 C 83.2065 -1.48976 0.820979 0
M  V30 751 O 84.3915 -1.61188 1.08315 0
M  V30 752 C 81.5215 -2.63 2.26822 0
M  V30 753 C 80.4755 -2.56671 3.42497 0
M  V30 754 C 79.8015 -3.95697 3.59622 0
M  V30 755 C 81.1015 -2.11601 4.77517 0
M  V30 756 H 82.7955 -0.953525 2.8381 0
M  V30 757 H 80.3415 -0.457244 1.36548 0
M  V30 758 H 82.2945 -3.37077 2.52898 0
M  V30 759 H 81.0185 -2.9732 1.35161 0
M  V30 760 H 79.6775 -1.85051 3.16467 0
M  V30 761 H 79.3255 -4.27322 2.6534 0
M  V30 762 H 79.0255 -3.92345 4.37424 0
M  V30 763 H 80.5495 -4.71438 3.88044 0
M  V30 764 H 81.9635 -2.7542 5.02809 0
M  V30 765 H 80.3605 -2.19311 5.5859 0
M  V30 766 H 81.4305 -1.06824 4.72987 0
M  V30 767 N 82.7736 -1.49793 -0.48987 0
M  V30 768 C 83.6836 -1.70036 -1.61632 0
M  V30 769 C 84.6996 -0.583102 -1.63939 0
M  V30 770 O 85.8756 -0.859169 -1.82154 0
M  V30 771 C 82.9406 -1.77277 -2.97949 0
M  V30 772 C 82.0016 -3.00918 -3.06181 0
M  V30 773 C 81.2346 -3.07804 -4.35996 0
M  V30 774 O 81.4576 -2.21982 -5.25433 0
M  V30 775 O 80.3916 -4.00369 -4.49431 0
M  V30 776 H 84.2176 -2.65486 -1.47482 0
M  V30 777 H 81.8026 -1.33666 -0.667362 0
M  V30 778 H 83.6846 -1.84329 -3.78947 0
M  V30 779 H 82.3596 -0.850076 -3.12339 0
M  V30 780 H 81.2666 -2.99377 -2.2433 0
M  V30 781 H 82.5996 -3.92704 -2.96723 0
M  V30 782 N 84.2517 0.741722 -1.39055 0
M  V30 783 C 85.1837 1.8657 -1.33133 0
M  V30 784 C 86.1967 1.61001 -0.241329 0
M  V30 785 O 87.3857 1.7136 -0.499784 0
M  V30 786 C 84.4857 3.22457 -1.04283 0
M  V30 787 C 83.6587 3.75435 -2.24427 0
M  V30 788 C 82.7177 4.89867 -1.92138 0
M  V30 789 O 81.7437 5.03879 -2.64754 0
M  V30 790 N 82.9457 5.73738 -0.88347 0
M  V30 791 H 85.7107 1.92156 -2.29991 0
M  V30 792 H 83.2717 0.922172 -1.3307 0
M  V30 793 H 85.2637 3.9657 -0.807128 0
M  V30 794 H 83.8337 3.12181 -0.161807 0
M  V30 795 H 83.0537 2.92751 -2.6399 0
M  V30 796 H 84.3417 4.07563 -3.04581 0
M  V30 797 H 83.7397 5.64999 -0.281517 0
M  V30 798 H 82.2967 6.47947 -0.707662 0
M  V30 799 N 85.7298 1.2412 0.971189 0
M  V30 800 C 86.6928 1.03156 2.04674 0
M  V30 801 C 87.6928 -0.00990322 1.60797 0
M  V30 802 O 88.8828 0.230729 1.72665 0
M  V30 803 C 86.0148 0.562765 3.36223 0
M  V30 804 H 87.2078 1.98614 2.24705 0
M  V30 805 H 84.7608 1.06293 1.14593 0
M  V30 806 H 85.4958 -0.395176 3.21883 0
M  V30 807 H 85.2808 1.31441 3.69413 0
M  V30 808 H 86.7708 0.437015 4.15307 0
M  V30 809 N 87.2079 -1.17134 1.05439 0
M  V30 810 C 88.1709 -2.19439 0.661764 0
M  V30 811 C 89.1709 -1.58199 -0.288042 0
M  V30 812 O 90.3609 -1.74053 -0.0715803 0
M  V30 813 C 87.4929 -3.40889 -0.0276209 0
M  V30 814 H 88.6859 -2.55688 1.56728 0
M  V30 815 H 86.2389 -1.31259 0.848567 0
M  V30 816 H 86.9739 -3.10187 -0.94629 0
M  V30 817 H 86.7589 -3.86586 0.655238 0
M  V30 818 H 88.2489 -4.16603 -0.288342 0
M  V30 819 N 88.686 -0.835752 -1.33615 0
M  V30 820 C 89.914 -0.443344 -2.02094 0
M  V30 821 C 90.329 0.954522 -1.62894 0
M  V30 822 O 89.686 1.61982 -0.840723 0
M  V30 823 C 89.737 -0.550775 -3.5728 0
M  V30 824 O 89.458 -1.89356 -3.95065 0
M  V30 825 C 90.959 -0.154919 -4.43029 0
M  V30 826 H 88.179 -0.176359 -0.647409 0
M  V30 827 H 90.723 -1.12746 -1.70612 0
M  V30 828 H 88.878 0.0853997 -3.87306 0
M  V30 829 H 89.292 -1.87687 -4.89769 0
M  V30 830 H 90.766 -0.281144 -5.51284 0
M  V30 831 H 91.243 0.902863 -4.2982 0
M  V30 832 H 91.849 -0.765404 -4.18356 0
M  V30 833 N 90.1641 1.46063 -0.591896 0
M  V30 834 C 91.0941 2.33172 0.123673 0
M  V30 835 C 92.0751 1.45897 0.87453 0
M  V30 836 O 93.2601 1.74698 0.848181 0
M  V30 837 C 90.3901 3.28336 1.13194 0
M  V30 838 C 89.3441 4.25124 0.495324 0
M  V30 839 C 88.6701 5.09863 1.61071 0
M  V30 840 C 89.9701 5.19143 -0.573425 0
M  V30 841 H 91.6641 2.93252 -0.603646 0
M  V30 842 H 89.2101 1.41014 -0.291741 0
M  V30 843 H 91.1631 3.88137 1.64097 0
M  V30 844 H 89.8871 2.66383 1.88965 0
M  V30 845 H 88.5461 3.66599 0.00729452 0
M  V30 846 H 88.1941 4.44288 2.35832 0
M  V30 847 H 87.8941 5.75417 1.19035 0
M  V30 848 H 89.4181 5.72529 2.12233 0
M  V30 849 H 90.8321 5.73106 -0.1491 0
M  V30 850 H 89.2291 5.93089 -0.914636 0
M  V30 851 H 90.2991 4.62519 -1.45617 0
M  V30 852 N 91.6422 0.330177 1.54103 0
M  V30 853 C 92.5892 -0.532762 2.24567 0
M  V30 854 C 93.5592 -1.10635 1.23892 0
M  V30 855 O 94.7442 -1.14546 1.5259 0
M  V30 856 C 91.8842 -1.6845 3.01195 0
M  V30 857 C 90.9972 -1.13951 4.167 0
M  V30 858 C 90.1322 -2.25746 4.80845 0
M  V30 859 C 89.1712 -1.6853 5.88442 0
M  V30 860 N 88.3082 -2.74014 6.46421 0
M  V30 861 H 93.1482 0.0746905 2.97906 0
M  V30 862 H 90.6852 0.048632 1.4702 0
M  V30 863 H 92.6432 -2.36234 3.43874 0
M  V30 864 H 91.2732 -2.26314 2.30178 0
M  V30 865 H 90.3252 -0.35301 3.78758 0
M  V30 866 H 91.6372 -0.680892 4.94131 0
M  V30 867 H 90.7912 -3.01422 5.26526 0
M  V30 868 H 89.5302 -2.74947 4.0281 0
M  V30 869 H 88.5352 -0.913543 5.42157 0
M  V30 870 H 89.7602 -1.20198 6.68378 0
M  V30 871 H 87.7062 -3.22494 5.71256 0
M  V30 872 H 87.6232 -2.32735 7.19285 0
M  V30 873 H 88.8912 -3.49499 6.96757 0
M  V30 874 N 93.1203 -1.57491 0.0584922 0
M  V30 875 C 94.0833 -2.1085 -0.898617 0
M  V30 876 C 95.0833 -1.02964 -1.23511 0
M  V30 877 O 96.2733 -1.29007 -1.17059 0
M  V30 878 C 93.4053 -2.59881 -2.20623 0
M  V30 879 H 94.5983 -2.96715 -0.435936 0
M  V30 880 H 92.1513 -1.55141 -0.190023 0
M  V30 881 H 92.8863 -1.77431 -2.71457 0
M  V30 882 H 92.6713 -3.38727 -1.97501 0
M  V30 883 H 94.1613 -3.01285 -2.89166 0
M  V30 884 N 94.5984 0.214957 -1.56127 0
M  V30 885 C 95.5284 1.2695 -1.95974 0
M  V30 886 C 96.5094 1.48539 -0.828868 0
M  V30 887 O 97.6944 1.60611 -1.09168 0
M  V30 888 C 94.8244 2.61794 -2.28214 0
M  V30 889 C 93.7784 2.54851 -3.43853 0
M  V30 890 C 93.1044 3.93785 -3.61715 0
M  V30 891 C 94.4044 2.09065 -4.78632 0
M  V30 892 H 96.0984 0.93846 -2.84312 0
M  V30 893 H 93.6444 0.449996 -1.36788 0
M  V30 894 H 95.5974 3.35731 -2.54682 0
M  V30 895 H 94.3214 2.96599 -1.36736 0
M  V30 896 H 92.9804 1.8337 -3.17444 0
M  V30 897 H 92.6284 4.25908 -2.67602 0
M  V30 898 H 92.3284 3.90019 -4.39498 0
M  V30 899 H 93.8524 4.69374 -3.90539 0
M  V30 900 H 95.2664 2.7275 -5.04262 0
M  V30 901 H 93.6634 2.16346 -5.59745 0
M  V30 902 H 94.7334 1.04315 -4.73547 0
M  V30 903 N 96.0765 1.50051 0.48192 0
M  V30 904 C 97.0395 1.67584 1.5636 0
M  V30 905 C 98.0395 0.546894 1.51214 0
M  V30 906 O 99.2295 0.813725 1.54026 0
M  V30 907 C 96.3615 1.691 2.96003 0
M  V30 908 H 97.5545 2.64078 1.42136 0
M  V30 909 H 95.1075 1.39369 0.707533 0
M  V30 910 H 95.8425 0.742589 3.15684 0
M  V30 911 H 95.6275 2.51105 3.01146 0
M  V30 912 H 97.1175 1.84656 3.74556 0
M  V30 913 N 97.5546 -0.734337 1.39446 0
M  V30 914 C 98.8006 -1.49613 1.36908 0
M  V30 915 C 99.1336 -1.94169 -0.0347829 0
M  V30 916 O 98.4086 -1.66833 -0.999847 0
M  V30 917 C 98.6916 -2.73534 2.34203 0
M  V30 918 C 98.5446 -2.34993 3.83534 0
M  V30 919 C 99.8636 -3.75635 2.29317 0
M  V30 920 H 96.9826 -0.542714 0.498629 0
M  V30 921 H 99.6246 -0.839597 1.70443 0
M  V30 922 H 97.7746 -3.29553 2.05736 0
M  V30 923 H 99.4466 -1.84601 4.22753 0
M  V30 924 H 97.6896 -1.67213 4.00278 0
M  V30 925 H 98.3606 -3.23738 4.47099 0
M  V30 926 H 100.837 -3.29203 2.54489 0
M  V30 927 H 99.7126 -4.60008 2.99472 0
M  V30 928 H 99.9736 -4.22603 1.29842 0
M  V30 929 N 99.0327 -1.24633 -0.964593 0
M  V30 930 C 99.9627 -1.06611 -2.07741 0
M  V30 931 C 100.944 0.0218666 -1.70086 0
M  V30 932 O 102.129 -0.145793 -1.93652 0
M  V30 933 C 99.2587 -0.673444 -3.40708 0
M  V30 934 C 98.2127 -1.71054 -3.92332 0
M  V30 935 C 97.5387 -1.17285 -5.21678 0
M  V30 936 C 98.8387 -3.10718 -4.19824 0
M  V30 937 H 100.533 -1.99693 -2.23076 0
M  V30 938 H 98.0787 -0.96152 -1.07195 0
M  V30 939 H 100.032 -0.534345 -4.17998 0
M  V30 940 H 98.7557 0.293073 -3.25282 0
M  V30 941 H 97.4147 -1.83791 -3.17201 0
M  V30 942 H 97.0627 -0.196847 -5.02615 0
M  V30 943 H 96.7627 -1.86592 -5.57187 0
M  V30 944 H 98.2867 -1.04593 -6.01575 0
M  V30 945 H 99.7007 -3.01192 -4.87808 0
M  V30 946 H 98.0977 -3.77406 -4.66567 0
M  V30 947 H 99.1677 -3.58524 -3.26479 0
M  V30 948 N 100.511 1.16574 -1.06058 0
M  V30 949 C 101.736 1.91493 -0.796562 0
M  V30 950 C 102.161 1.76773 0.642868 0
M  V30 951 O 101.519 1.09142 1.44768 0
M  V30 952 C 101.567 3.40293 -1.19303 0
M  V30 953 O 100.671 4.11074 -0.330394 0
M  V30 954 H 100.012 0.596678 -0.291326 0
M  V30 955 H 102.542 1.47708 -1.41575 0
M  V30 956 H 102.552 3.91057 -1.16356 0
M  V30 957 H 101.227 3.50326 -2.24153 0
M  V30 958 H 99.8038 3.70513 -0.421225 0
M  V30 959 N 101.989 0.842826 1.3317 0
M  V30 960 C 102.919 0.294028 2.31641 0
M  V30 961 C 103.9 -0.600401 1.59151 0
M  V30 962 O 105.085 -0.523124 1.87022 0
M  V30 963 C 102.215 -0.528416 3.43257 0
M  V30 964 C 101.169 0.27056 4.27144 0
M  V30 965 C 100.495 -0.675881 5.30411 0
M  V30 966 C 101.795 1.48981 5.00602 0
M  V30 967 H 103.489 1.11681 2.77791 0
M  V30 968 H 101.035 0.538478 1.33553 0
M  V30 969 H 102.988 -0.922674 4.11175 0
M  V30 970 H 101.712 -1.38445 2.95805 0
M  V30 971 H 100.371 0.646427 3.60856 0
M  V30 972 H 100.019 -1.52842 4.79216 0
M  V30 973 H 99.7189 -0.145374 5.8742 0
M  V30 974 H 101.243 -1.06757 6.01195 0
M  V30 975 H 102.657 1.16849 5.61266 0
M  V30 976 H 101.054 1.95739 5.6728 0
M  V30 977 H 102.124 2.25746 4.29147 0
M  V30 978 N 103.467 -1.45747 0.599634 0
M  V30 979 C 104.397 -2.33235 -0.111306 0
M  V30 980 C 105.378 -1.46359 -0.866781 0
M  V30 981 O 106.563 -1.75146 -0.838904 0
M  V30 982 C 103.693 -3.28932 -1.11451 0
M  V30 983 C 102.647 -4.25381 -0.472772 0
M  V30 984 C 101.973 -5.1071 -1.58365 0
M  V30 985 C 103.273 -5.18831 0.600948 0
M  V30 986 H 104.967 -2.92927 0.61919 0
M  V30 987 H 102.513 -1.40857 0.299215 0
M  V30 988 H 104.466 -3.89002 -1.62036 0
M  V30 989 H 103.19 -2.67381 -1.8755 0
M  V30 990 H 101.849 -3.66598 0.0121472 0
M  V30 991 H 101.497 -4.45533 -2.33473 0
M  V30 992 H 101.197 -5.7604 -1.15982 0
M  V30 993 H 102.721 -5.73647 -2.09194 0
M  V30 994 H 104.135 -5.73019 0.179491 0
M  V30 995 H 102.532 -5.92595 0.946076 0
M  V30 996 H 103.602 -4.6174 1.48068 0
M  V30 997 N 104.945 -0.338344 -1.53925 0
M  V30 998 C 105.908 0.508299 -2.23493 0
M  V30 999 C 106.908 1.03175 -1.23335 0
M  V30 1000 O 108.098 0.921826 -1.47811 0
M  V30 1001 C 105.23 1.70754 -2.95052 0
M  V30 1002 H 106.423 -0.100058 -2.99733 0
M  V30 1003 H 103.976 -0.0896198 -1.56043 0
M  V30 1004 H 104.711 2.35474 -2.22986 0
M  V30 1005 H 104.496 1.33946 -3.68512 0
M  V30 1006 H 105.986 2.30818 -3.48013 0
M  V30 1007 N 106.423 1.57458 -0.0668435 0
M  V30 1008 C 107.671 1.92919 0.602214 0
M  V30 1009 C 107.992 0.947215 1.70449 0
M  V30 1010 O 107.262 -0.00544117 1.95899 0
M  V30 1011 H 105.842 0.71217 0.22544 0
M  V30 1012 H 108.504 1.94508 -0.123535 0
M  V30 1013 H 107.6 2.94589 1.03073 0
M  V30 1014 N 107.901 -0.206675 1.56239 0
M  V30 1015 C 108.864 -1.23976 1.92776 0
M  V30 1016 C 109.864 -1.39041 0.807729 0
M  V30 1017 O 111.054 -1.37051 1.0753 0
M  V30 1018 C 108.186 -2.61112 2.19165 0
M  V30 1019 H 109.379 -0.927764 2.85189 0
M  V30 1020 H 106.932 -0.447718 1.4975 0
M  V30 1021 H 107.667 -2.97386 1.29352 0
M  V30 1022 H 107.452 -2.51552 3.00772 0
M  V30 1023 H 108.942 -3.35633 2.48476 0
M  V30 1024 N 109.379 -1.50304 -0.473955 0
M  V30 1025 C 110.309 -1.71886 -1.58042 0
M  V30 1026 C 111.29 -0.567799 -1.60344 0
M  V30 1027 O 112.475 -0.806623 -1.76656 0
M  V30 1028 C 109.605 -1.81036 -2.96384 0
M  V30 1029 C 108.559 -2.962 -3.08949 0
M  V30 1030 C 107.885 -2.9049 -4.48909 0
M  V30 1031 C 109.185 -4.36752 -2.86434 0
M  V30 1032 H 110.879 -2.64527 -1.40234 0
M  V30 1033 H 108.425 -1.27295 -0.673201 0
M  V30 1034 H 110.378 -1.94719 -3.73714 0
M  V30 1035 H 109.102 -0.850147 -3.15341 0
M  V30 1036 H 107.761 -2.82164 -2.3405 0
M  V30 1037 H 107.409 -1.92321 -4.64781 0
M  V30 1038 H 107.109 -3.67802 -4.58253 0
M  V30 1039 H 108.633 -3.06218 -5.28264 0
M  V30 1040 H 110.047 -4.5133 -3.53517 0
M  V30 1041 H 108.444 -5.15493 -3.07225 0
M  V30 1042 H 109.514 -4.49321 -1.82316 0
M  V30 1043 N 110.857 0.726932 -1.39834 0
M  V30 1044 C 111.82 1.82269 -1.38962 0
M  V30 1045 C 112.82 1.58248 -0.285334 0
M  V30 1046 O 114.01 1.65499 -0.54366 0
M  V30 1047 C 111.142 3.20186 -1.17019 0
M  V30 1048 H 112.335 1.84443 -2.36476 0
M  V30 1049 H 109.888 0.931416 -1.25516 0
M  V30 1050 H 110.623 3.23669 -0.202204 0
M  V30 1051 H 110.408 3.3902 -1.96998 0
M  V30 1052 H 111.898 4.00235 -1.1917 0
M  V30 1053 N 112.336 1.25143 0.95797 0
M  V30 1054 C 113.266 1.07711 2.07173 0
M  V30 1055 C 114.247 -0.0128462 1.70095 0
M  V30 1056 O 115.432 0.156061 1.93572 0
M  V30 1057 C 112.562 0.691503 3.40346 0
M  V30 1058 C 111.516 1.73132 3.9142 0
M  V30 1059 C 110.842 1.20049 5.21049 0
M  V30 1060 C 112.142 3.1294 4.1817 0
M  V30 1061 H 113.836 2.00873 2.22014 0
M  V30 1062 H 111.382 0.967191 1.06684 0
M  V30 1063 H 113.335 0.556505 4.17709 0
M  V30 1064 H 112.059 -0.275819 3.25433 0
M  V30 1065 H 110.718 1.8547 3.16222 0
M  V30 1066 H 110.366 0.223499 5.02503 0
M  V30 1067 H 110.066 1.89545 5.56189 0
M  V30 1068 H 111.59 1.07782 6.01012 0
M  V30 1069 H 113.004 3.03775 4.86203 0
M  V30 1070 H 111.401 3.79875 4.64559 0
M  V30 1071 H 112.471 3.6025 3.24573 0
M  V30 1072 N 113.814 -1.1601 1.06675 0
M  V30 1073 C 114.777 -2.18724 0.685001 0
M  V30 1074 C 115.777 -1.58496 -0.271246 0
M  V30 1075 O 116.967 -1.74119 -0.0531156 0
M  V30 1076 C 114.099 -3.40899 0.00853648 0
M  V30 1077 H 115.292 -2.54011 1.59431 0
M  V30 1078 H 112.845 -1.30352 0.862441 0
M  V30 1079 H 113.58 -3.11173 -0.913337 0
M  V30 1080 H 113.365 -3.8587 0.696204 0
M  V30 1081 H 114.855 -4.16886 -0.24414 0
M  V30 1082 N 115.292 -0.849877 -1.32721 0
M  V30 1083 C 116.202 -0.293791 -2.32753 0
M  V30 1084 C 117.218 0.585906 -1.63839 0
M  V30 1085 O 118.394 0.487413 -1.95413 0
M  V30 1086 C 115.459 0.512752 -3.42887 0
M  V30 1087 C 114.52 -0.39252 -4.27502 0
M  V30 1088 C 113.753 0.375625 -5.32377 0
M  V30 1089 O 113.976 1.60613 -5.4732 0
M  V30 1090 O 112.91 -0.256094 -6.01355 0
M  V30 1091 H 116.736 -1.12242 -2.82197 0
M  V30 1092 H 114.321 -0.612685 -1.36259 0
M  V30 1093 H 116.203 0.970704 -4.10067 0
M  V30 1094 H 114.878 1.31826 -2.95641 0
M  V30 1095 H 113.785 -0.898547 -3.63149 0
M  V30 1096 H 115.118 -1.16309 -4.7826 0
M  V30 1097 N 116.77 1.45427 -0.607355 0
M  V30 1098 C 117.7 2.3329 0.0989352 0
M  V30 1099 C 118.681 1.46816 0.859007 0
M  V30 1100 O 119.866 1.75588 0.829604 0
M  V30 1101 C 116.996 3.29518 1.09705 0
M  V30 1102 C 115.95 4.25626 0.450206 0
M  V30 1103 C 115.276 5.11542 1.55655 0
M  V30 1104 C 116.576 5.18505 -0.628455 0
M  V30 1105 H 118.27 2.92595 -0.634716 0
M  V30 1106 H 115.816 1.40696 -0.306681 0
M  V30 1107 H 117.769 3.89855 1.59971 0
M  V30 1108 H 116.493 2.68372 1.86129 0
M  V30 1109 H 115.152 3.66586 -0.0315886 0
M  V30 1110 H 114.8 4.46765 2.31107 0
M  V30 1111 H 114.5 5.76647 1.12925 0
M  V30 1112 H 116.024 5.74748 2.06148 0
M  V30 1113 H 117.438 5.72916 -0.209877 0
M  V30 1114 H 115.835 5.92085 -0.977489 0
M  V30 1115 H 116.905 4.60948 -1.50514 0
M  V30 1116 N 118.248 0.346503 1.53744 0
M  V30 1117 C 119.178 -0.501193 2.28058 0
M  V30 1118 C 120.159 -1.10014 1.29734 0
M  V30 1119 O 121.344 -1.12097 1.58581 0
M  V30 1120 C 118.474 -1.65078 3.05559 0
M  V30 1121 C 117.428 -1.18003 4.11411 0
M  V30 1122 C 116.754 -2.41837 4.76884 0
M  V30 1123 C 118.054 -0.278394 5.21558 0
M  V30 1124 H 119.748 0.11875 2.99164 0
M  V30 1125 H 117.294 0.0585531 1.43881 0
M  V30 1126 H 119.247 -2.25028 3.56287 0
M  V30 1127 H 117.971 -2.29767 2.32109 0
M  V30 1128 H 116.63 -0.603331 3.61601 0
M  V30 1129 H 116.278 -3.0494 4.00026 0
M  V30 1130 H 115.978 -2.1102 5.48402 0
M  V30 1131 H 117.502 -3.02508 5.30397 0
M  V30 1132 H 118.916 -0.784823 5.67903 0
M  V30 1133 H 117.313 -0.0619707 6.00068 0
M  V30 1134 H 118.383 0.684677 4.80042 0
M  V30 1135 N 119.726 -1.57421 0.075193 0
M  V30 1136 C 120.974 -1.93236 -0.591974 0
M  V30 1137 C 121.295 -0.956241 -1.69944 0
M  V30 1138 O 120.565 -0.00494792 -1.95899 0
M  V30 1139 H 119.145 -0.713355 -0.22166 0
M  V30 1140 H 121.807 -1.9444 0.133848 0
M  V30 1141 H 120.903 -2.95131 -1.01509 0
M  V30 1142 N 121.204 0.198386 -1.56346 0
M  V30 1143 C 122.167 1.22952 -1.93431 0
M  V30 1144 C 123.167 1.38611 -0.815092 0
M  V30 1145 O 124.357 1.36479 -1.08255 0
M  V30 1146 C 121.489 2.59946 -2.20546 0
M  V30 1147 H 122.682 0.912626 -2.85677 0
M  V30 1148 H 120.235 0.43977 -1.49986 0
M  V30 1149 H 120.97 2.96696 -1.30927 0
M  V30 1150 H 120.755 2.49953 -3.02102 0
M  V30 1151 H 122.245 3.3431 -2.50253 0
M  V30 1152 N 122.682 1.50554 0.465978 0
M  V30 1153 C 124.093 1.54599 1.04671 0
M  V30 1154 C 124.444 0.352488 1.93008 0
M  V30 1155 O 123.569 -0.534044 2.09707 0
M  V30 1156 C 124.164 2.80166 1.90505 0
M  V30 1157 C 122.723 2.86876 2.43678 0
M  V30 1158 C 121.87 2.48947 1.22151 0
M  V30 1159 H 124.821 1.56744 0.248384 0
M  V30 1160 H 124.842 2.62311 2.75633 0
M  V30 1161 H 124.354 3.67013 1.26186 0
M  V30 1162 H 122.455 2.04393 3.11536 0
M  V30 1163 H 122.568 3.89885 2.78436 0
M  V30 1164 H 120.932 2.01498 1.5579 0
M  V30 1165 H 121.715 3.38107 0.594866 0
M  V30 1166 N 124.16 -0.719506 1.40217 0
M  V30 1167 C 125.408 -1.47641 1.3801 0
M  V30 1168 C 125.729 -1.94992 -0.018145 0
M  V30 1169 O 124.999 -1.70073 -0.972207 0
M  V30 1170 H 123.579 -0.547744 0.507923 0
M  V30 1171 H 126.241 -0.853187 1.75233 0
M  V30 1172 H 125.337 -2.35112 2.05253 0
M  V30 1173 N 125.638 -1.25649 -0.95132 0
M  V30 1174 C 127.049 -1.09654 -1.51106 0
M  V30 1175 C 127.4 0.326615 -1.93462 0
M  V30 1176 O 126.525 1.21697 -1.78938 0
M  V30 1177 C 127.12 -1.98437 -2.74605 0
M  V30 1178 C 125.679 -1.86618 -3.2688 0
M  V30 1179 C 124.826 -1.9239 -1.99703 0
M  V30 1180 H 127.777 -1.38887 -0.767865 0
M  V30 1181 H 127.798 -1.5263 -3.48546 0
M  V30 1182 H 127.31 -3.02009 -2.43746 0
M  V30 1183 H 125.411 -0.859421 -3.62553 0
M  V30 1184 H 125.524 -2.71607 -3.94673 0
M  V30 1185 H 123.888 -1.36317 -2.15151 0
M  V30 1186 H 124.671 -2.97573 -1.71188 0
M  V30 1187 N 127.117 1.15442 -1.07289 0
M  V30 1188 C 128.08 2.18358 -0.696591 0
M  V30 1189 C 129.08 1.58637 0.262837 0
M  V30 1190 O 130.27 1.74145 0.0438809 0
M  V30 1191 C 127.402 3.4089 -0.0266151 0
M  V30 1192 H 128.595 2.53162 -1.60776 0
M  V30 1193 H 126.148 1.29893 -0.869342 0
M  V30 1194 H 126.883 3.11653 0.896822 0
M  V30 1195 H 126.668 3.85495 -0.716657 0
M  V30 1196 H 128.158 4.17009 0.222028 0
M  V30 1197 N 128.595 0.856903 1.32268 0
M  V30 1198 C 130.006 0.515711 1.79436 0
M  V30 1199 C 130.357 -0.966586 1.70738 0
M  V30 1200 O 129.482 -1.75409 1.26731 0
M  V30 1201 C 130.077 0.929335 3.25805 0
M  V30 1202 C 128.636 0.640006 3.70919 0
M  V30 1203 C 127.783 1.12784 2.53328 0
M  V30 1204 H 130.734 1.04389 1.19535 0
M  V30 1205 H 130.755 0.246633 3.797 0
M  V30 1206 H 130.267 2.00821 3.32103 0
M  V30 1207 H 128.368 -0.428051 3.70133 0
M  V30 1208 H 128.481 1.20788 4.63624 0
M  V30 1209 H 126.845 0.548033 2.48734 0
M  V30 1210 H 127.628 2.21387 2.62379 0
M  V30 1211 N 130.073 -1.45103 0.615059 0
M  V30 1212 C 131.321 -2.01784 0.112955 0
M  V30 1213 C 131.642 -1.48504 -1.26378 0
M  V30 1214 O 130.912 -0.682245 -1.83636 0
M  V30 1215 H 129.492 -0.745993 0.0387668 0
M  V30 1216 H 132.154 -1.77808 0.798141 0
M  V30 1217 H 131.25 -3.12025 0.0684069 0
M  V30 1218 N 131.551 -0.354651 -1.53558 0
M  V30 1219 C 132.481 0.489091 -2.2832 0
M  V30 1220 C 133.462 1.09324 -1.30316 0
M  V30 1221 O 134.647 1.11255 -1.59173 0
M  V30 1222 C 131.777 1.63456 -3.0643 0
M  V30 1223 C 130.731 1.1582 -4.12031 0
M  V30 1224 C 130.057 2.39305 -4.7816 0
M  V30 1225 C 131.357 0.250731 -5.21698 0
M  V30 1226 H 133.051 -0.134614 -2.99097 0
M  V30 1227 H 130.597 -0.0661826 -1.43848 0
M  V30 1228 H 132.55 2.23136 -3.57475 0
M  V30 1229 H 131.274 2.28533 -2.33325 0
M  V30 1230 H 129.933 0.584146 -3.61916 0
M  V30 1231 H 129.581 3.02814 -4.01637 0
M  V30 1232 H 129.281 2.08109 -5.49513 0
M  V30 1233 H 130.805 2.99691 -5.31994 0
M  V30 1234 H 132.219 0.754695 -5.68311 0
M  V30 1235 H 130.616 0.0301468 -6.00092 0
M  V30 1236 H 131.686 -0.710125 -4.79672 0
M  V30 1237 N 133.029 1.57378 -0.0835403 0
M  V30 1238 C 133.992 2.12252 0.864959 0
M  V30 1239 C 134.992 1.04916 1.21858 0
M  V30 1240 O 136.182 1.30853 1.14991 0
M  V30 1241 C 133.314 2.63358 2.16461 0
M  V30 1242 H 134.507 2.97371 0.388676 0
M  V30 1243 H 132.06 1.55423 0.165317 0
M  V30 1244 H 132.795 1.81727 2.686 0
M  V30 1245 H 132.58 3.41826 1.92087 0
M  V30 1246 H 134.07 3.05847 2.84337 0
M  V30 1247 N 134.507 -0.190092 1.56449 0
M  V30 1248 C 135.454 -1.23557 1.94942 0
M  V30 1249 C 136.424 -1.44972 0.810696 0
M  V30 1250 O 137.609 -1.58023 1.06927 0
M  V30 1251 C 134.749 -2.57416 2.2985 0
M  V30 1252 C 133.862 -2.43537 3.5681 0
M  V30 1253 C 132.997 -3.70134 3.81017 0
M  V30 1254 C 132.036 -3.51109 5.01387 0
M  V30 1255 N 131.173 -4.6973 5.21822 0
M  V30 1256 H 136.013 -0.900304 2.84075 0
M  V30 1257 H 133.55 -0.43318 1.40577 0
M  V30 1258 H 135.508 -3.35409 2.48106 0
M  V30 1259 H 134.138 -2.88975 1.43852 0
M  V30 1260 H 133.19 -1.56816 3.46573 0
M  V30 1261 H 134.502 -2.25415 4.4496 0
M  V30 1262 H 133.656 -4.56566 3.9954 0
M  V30 1263 H 132.395 -3.91215 2.91207 0
M  V30 1264 H 131.4 -2.63063 4.82782 0
M  V30 1265 H 132.625 -3.31468 5.9271 0
M  V30 1266 H 130.571 -4.91065 4.34961 0
M  V30 1267 H 130.488 -4.54452 6.0416 0
M  V30 1268 H 131.756 -5.57499 5.44808 0
M  V30 1269 N 135.985 -1.50799 -0.457987 0
M  V30 1270 C 137.233 -1.62121 -1.2067 0
M  V30 1271 C 137.554 -0.329793 -1.92191 0
M  V30 1272 O 136.824 0.653409 -1.84682 0
M  V30 1273 H 135.404 -0.597441 -0.448411 0
M  V30 1274 H 138.066 -1.87637 -0.527096 0
M  V30 1275 H 137.162 -2.43882 -1.94751 0
M  V30 1276 N 137.463 0.71206 -1.40597 0
M  V30 1277 C 138.688 1.50617 -1.42581 0
M  V30 1278 C 139.113 1.88079 -0.0282102 0
M  V30 1279 O 138.471 1.53511 0.964579 0
M  V30 1280 C 138.519 2.7557 -2.3258 0
M  V30 1281 O 137.623 3.72414 -1.77148 0
M  V30 1282 H 136.964 0.453966 -0.484573 0
M  V30 1283 H 139.494 0.876649 -1.84868 0
M  V30 1284 H 139.504 3.2406 -2.47889 0
M  V30 1285 H 138.179 2.47639 -3.34138 0
M  V30 1286 H 136.756 3.31276 -1.71204 0
M  V30 1287 N 138.941 1.26152 0.944643 0
M  V30 1288 C 139.891 1.04081 2.02857 0
M  V30 1289 C 140.875 -0.0256555 1.6088 0
M  V30 1290 O 142.067 0.190884 1.75968 0
M  V30 1291 C 139.196 0.672118 3.36656 0
M  V30 1292 C 138.282 1.77586 3.85128 0
M  V30 1293 N 138.673 3.01272 4.06287 0
M  V30 1294 C 136.971 1.65867 4.1401 0
M  V30 1295 C 137.672 3.72983 4.46384 0
M  V30 1296 N 136.648 3.00653 4.52889 0
M  V30 1297 H 140.45 1.97968 2.17223 0
M  V30 1298 H 137.964 1.16618 1.13022 0
M  V30 1299 H 139.961 0.495166 4.13949 0
M  V30 1300 H 138.621 -0.259307 3.23663 0
M  V30 1301 H 139.632 3.37213 3.93075 0
M  V30 1302 H 136.309 0.796907 4.09824 0
M  V30 1303 H 137.699 4.792 4.70975 0
M  V30 1304 N 140.419 -1.14872 1.07899 0
M  V30 1305 C 141.83 -1.67367 0.827363 0
M  V30 1306 C 142.181 -1.85236 -0.646693 0
M  V30 1307 O 141.306 -1.55974 -1.50004 0
M  V30 1308 C 141.901 -3.04016 1.49532 0
M  V30 1309 C 140.46 -3.53566 1.29106 0
M  V30 1310 C 139.607 -2.29161 1.56143 0
M  V30 1311 H 142.558 -0.990083 1.24028 0
M  V30 1312 H 142.579 -3.69219 0.919643 0
M  V30 1313 H 142.091 -2.90978 2.56814 0
M  V30 1314 H 140.192 -3.71835 0.238713 0
M  V30 1315 H 140.305 -4.34661 2.01511 0
M  V30 1316 H 138.669 -2.34978 0.982717 0
M  V30 1317 H 139.452 -2.18705 2.64619 0
M  V30 1318 N 141.898 -0.863906 -1.31812 0
M  V30 1319 C 143.144 -0.472535 -1.97218 0
M  V30 1320 C 143.477 0.971394 -1.68159 0
M  V30 1321 O 142.752 1.68309 -0.974798 0
M  V30 1322 C 143.035 -0.723054 -3.52766 0
M  V30 1323 C 142.888 -2.21608 -3.91421 0
M  V30 1324 C 144.207 -0.185522 -4.39709 0
M  V30 1325 H 141.326 -0.173158 -0.71637 0
M  V30 1326 H 143.968 -1.08403 -1.56041 0
M  V30 1327 H 142.118 -0.202577 -3.87971 0
M  V30 1328 H 143.79 -2.80334 -3.66347 0
M  V30 1329 H 142.033 -2.691 -3.40246 0
M  V30 1330 H 142.704 -2.34203 -4.99853 0
M  V30 1331 H 145.18 -0.630726 -4.11292 0
M  V30 1332 H 144.056 -0.390306 -5.47511 0
M  V30 1333 H 144.317 0.912229 -4.32586 0
M  V30 1334 N 143.376 1.44774 -0.622745 0
M  V30 1335 C 144.326 2.2774 0.108889 0
M  V30 1336 C 145.31 1.38189 0.824175 0
M  V30 1337 O 146.502 1.62063 0.711664 0
M  V30 1338 C 143.631 3.25353 1.09546 0
M  V30 1339 C 142.717 4.22392 0.380232 0
M  V30 1340 N 143.108 5.02388 -0.586535 0
M  V30 1341 C 141.406 4.41588 0.625792 0
M  V30 1342 C 142.107 5.72894 -1.00834 0
M  V30 1343 N 141.083 5.42479 -0.348878 0
M  V30 1344 H 144.885 2.86993 -0.63341 0
M  V30 1345 H 142.399 1.5611 -0.447589 0
M  V30 1346 H 144.396 3.83538 1.63414 0
M  V30 1347 H 143.056 2.6766 1.83815 0
M  V30 1348 H 144.067 5.0885 -0.963975 0
M  V30 1349 H 140.744 3.95003 1.352 0
M  V30 1350 H 142.134 6.47158 -1.80656 0
M  V30 1351 N 144.854 0.36279 1.53368 0
M  V30 1352 C 146.094 -0.227882 2.03126 0
M  V30 1353 C 146.458 -1.4622 1.24434 0
M  V30 1354 O 147.659 -2.12831 1.64184 0
M  V30 1355 C 145.93 -0.515427 3.53664 0
M  V30 1356 S 147.489 -1.08017 4.25297 0
M  V30 1357 H 144.307 -0.0665377 0.70788 0
M  V30 1358 H 146.909 0.50501 1.88865 0
M  V30 1359 H 145.613 0.390436 4.08539 0
M  V30 1360 H 145.144 -1.27747 3.72081 0
M  V30 1361 H 147.159 -2.36462 4.36234 0
M  V30 1362 N 146.332 -1.57332 0.0918853 0
M  V30 1363 C 147.578 -1.94524 -0.573425 0
M  V30 1364 C 147.911 -0.973578 -1.68033 0
M  V30 1365 O 147.186 -0.00609226 -1.94499 0
M  V30 1366 C 147.469 -3.41858 -1.13161 0
M  V30 1367 C 147.322 -4.4979 -0.0299747 0
M  V30 1368 C 148.641 -3.90435 -2.03098 0
M  V30 1369 H 145.76 -0.70734 -0.206975 0
M  V30 1370 H 148.402 -1.89309 0.161942 0
M  V30 1371 H 146.552 -3.46433 -1.7583 0
M  V30 1372 H 148.224 -4.57327 0.604112 0
M  V30 1373 H 146.467 -4.291 0.636833 0
M  V30 1374 H 147.138 -5.50069 -0.461287 0
M  V30 1375 H 149.614 -3.87992 -1.50338 0
M  V30 1376 H 148.49 -4.94097 -2.39081 0
M  V30 1377 H 148.751 -3.29541 -2.94712 0
M  V30 1378 N 147.81 0.181792 -1.56548 0
M  V30 1379 C 148.74 1.22765 -1.98623 0
M  V30 1380 C 149.721 1.46747 -0.860189 0
M  V30 1381 O 150.906 1.58259 -1.12551 0
M  V30 1382 C 148.036 2.56894 -2.33715 0
M  V30 1383 C 146.99 2.475 -3.49182 0
M  V30 1384 C 146.316 3.86023 -3.69986 0
M  V30 1385 C 147.616 1.98866 -4.82959 0
M  V30 1386 H 149.31 0.877942 -2.86239 0
M  V30 1387 H 146.856 0.42088 -1.37712 0
M  V30 1388 H 148.809 3.30253 -2.61746 0
M  V30 1389 H 147.533 2.93632 -1.42997 0
M  V30 1390 H 146.192 1.76596 -3.21262 0
M  V30 1391 H 145.84 4.20136 -2.76576 0
M  V30 1392 H 145.54 3.80609 -4.47672 0
M  V30 1393 H 147.064 4.60984 -4.00407 0
M  V30 1394 H 148.478 2.61992 -5.09934 0
M  V30 1395 H 146.875 2.04424 -5.64208 0
M  V30 1396 H 147.945 0.942465 -4.75653 0
M  V30 1397 N 149.288 1.51039 0.449983 0
M  V30 1398 C 150.535 1.63081 1.20045 0
M  V30 1399 C 150.863 0.341024 1.91487 0
M  V30 1400 O 150.118 -0.674276 1.83717 0
M  V30 1401 C 150.417 2.77556 2.25161 0
M  V30 1402 C 150.083 4.17289 1.70823 0
M  V30 1403 C 148.745 4.55305 1.55725 0
M  V30 1404 C 151.097 5.04536 1.3074 0
M  V30 1405 C 148.425 5.78287 0.989999 0
M  V30 1406 C 150.777 6.28085 0.754482 0
M  V30 1407 C 149.441 6.64885 0.590308 0
M  V30 1408 H 148.711 0.596755 0.439277 0
M  V30 1409 H 151.358 1.85037 0.49333 0
M  V30 1410 H 149.663 2.49771 3.01863 0
M  V30 1411 H 151.36 2.84073 2.83026 0
M  V30 1412 H 147.95 3.8731 1.83546 0
M  V30 1413 H 152.134 4.75782 1.41229 0
M  V30 1414 H 147.39 6.05456 0.850451 0
M  V30 1415 H 151.564 6.95038 0.435324 0
M  V30 1416 H 149.191 7.60055 0.14862 0
M  V30 1417 N 150.766 -0.704594 1.40972 0
M  V30 1418 C 151.696 -1.83124 1.44872 0
M  V30 1419 C 152.677 -1.67281 0.30838 0
M  V30 1420 O 153.862 -1.87149 0.518556 0
M  V30 1421 C 150.992 -3.21181 1.32136 0
M  V30 1422 C 149.946 -3.51714 2.43888 0
M  V30 1423 C 149.272 -4.89032 2.16222 0
M  V30 1424 C 150.572 -3.516 3.86232 0
M  V30 1425 H 152.266 -1.80117 2.39161 0
M  V30 1426 H 149.812 -0.865145 1.15114 0
M  V30 1427 H 151.765 -3.99702 1.33479 0
M  V30 1428 H 150.489 -3.24791 0.343279 0
M  V30 1429 H 149.148 -2.75539 2.41813 0
M  V30 1430 H 148.796 -4.89256 1.16778 0
M  V30 1431 H 148.496 -5.10426 2.911 0
M  V30 1432 H 150.02 -5.69873 2.19265 0
M  V30 1433 H 151.434 -4.2014 3.9007 0
M  V30 1434 H 149.831 -3.84523 4.60719 0
M  V30 1435 H 150.901 -2.50757 4.15029 0
M  V30 1436 N 152.244 -1.26651 -0.937939 0
M  V30 1437 C 153.207 -1.08546 -2.01867 0
M  V30 1438 C 154.207 -0.0327327 -1.60767 0
M  V30 1439 O 155.397 -0.276427 -1.71993 0
M  V30 1440 C 152.529 -0.651711 -3.34613 0
M  V30 1441 H 153.722 -2.04502 -2.1936 0
M  V30 1442 H 151.275 -1.09294 -1.11734 0
M  V30 1443 H 152.01 0.309696 -3.22818 0
M  V30 1444 H 151.795 -1.41189 -3.65798 0
M  V30 1445 H 153.285 -0.546973 -4.14002 0
M  V30 1446 N 153.722 1.14298 -1.08507 0
M  V30 1447 C 154.652 2.21542 -0.737646 0
M  V30 1448 C 155.633 1.67773 0.280377 0
M  V30 1449 O 156.818 1.93616 0.150521 0
M  V30 1450 C 153.948 3.46988 -0.147259 0
M  V30 1451 C 152.902 4.13789 -1.09374 0
M  V30 1452 C 152.228 5.33449 -0.365524 0
M  V30 1453 C 153.528 4.62208 -2.4323 0
M  V30 1454 H 155.222 2.5086 -1.6343 0
M  V30 1455 H 152.768 1.20576 -0.787243 0
M  V30 1456 H 154.721 4.21262 0.107808 0
M  V30 1457 H 153.445 3.17037 0.784538 0
M  V30 1458 H 152.104 3.4147 -1.33393 0
M  V30 1459 H 151.752 4.99759 0.57011 0
M  V30 1460 H 151.452 5.79088 -0.996512 0
M  V30 1461 H 152.976 6.10485 -0.118534 0
M  V30 1462 H 154.39 5.27952 -2.23472 0
M  V30 1463 H 152.787 5.18553 -3.02031 0
M  V30 1464 H 153.857 3.77224 -3.04681 0
M  V30 1465 N 155.201 0.870884 1.31352 0
M  V30 1466 C 156.131 0.343096 2.30966 0
M  V30 1467 C 157.112 -0.566507 1.60389 0
M  V30 1468 O 158.297 -0.483336 1.88089 0
M  V30 1469 C 155.427 -0.455487 3.443 0
M  V30 1470 C 154.381 0.361103 4.26474 0
M  V30 1471 C 153.707 -0.563221 5.31725 0
M  V30 1472 C 155.007 1.59566 4.97329 0
M  V30 1473 H 156.701 1.17548 2.75359 0
M  V30 1474 H 154.247 0.566686 1.32381 0
M  V30 1475 H 156.2 -0.83525 4.13039 0
M  V30 1476 H 154.924 -1.32139 2.98675 0
M  V30 1477 H 153.583 0.722825 3.59403 0
M  V30 1478 H 153.231 -1.42643 4.82351 0
M  V30 1479 H 152.931 -0.0207409 5.87596 0
M  V30 1480 H 154.455 -0.939808 6.03324 0
M  V30 1481 H 155.869 1.28728 5.58661 0
M  V30 1482 H 154.266 2.07728 5.63 0
M  V30 1483 H 155.336 2.34798 4.24262 0
M  V30 1484 N 156.679 -1.44442 0.630414 0
M  V30 1485 C 157.925 -2.02351 0.134816 0
M  V30 1486 C 158.258 -1.4947 -1.23986 0
M  V30 1487 O 157.533 -0.678475 -1.82283 0
M  V30 1488 C 157.816 -3.59898 0.120707 0
M  V30 1489 C 157.669 -4.23063 1.52767 0
M  V30 1490 C 158.988 -4.36585 -0.555127 0
M  V30 1491 H 156.107 -0.73527 0.0504646 0
M  V30 1492 H 158.749 -1.72022 0.806751 0
M  V30 1493 H 156.899 -3.85868 -0.451477 0
M  V30 1494 H 158.571 -4.08202 2.14869 0
M  V30 1495 H 156.814 -3.80586 2.08175 0
M  V30 1496 H 157.485 -5.32071 1.46984 0
M  V30 1497 H 159.961 -4.16044 -0.0685429 0
M  V30 1498 H 158.837 -5.46294 -0.534185 0
M  V30 1499 H 159.098 -4.11138 -1.62535 0
M  V30 1500 N 158.157 -0.370918 -1.53173 0
M  V30 1501 C 159.403 0.217423 -2.01631 0
M  V30 1502 C 159.736 1.47983 -1.25756 0
M  V30 1503 O 159.011 1.91274 -0.352764 0
M  V30 1504 C 159.294 0.503982 -3.56556 0
M  V30 1505 C 159.147 -0.77243 -4.43118 0
M  V30 1506 C 160.466 1.30234 -4.20389 0
M  V30 1507 H 157.585 0.0775486 -0.732909 0
M  V30 1508 H 160.227 -0.496863 -1.83388 0
M  V30 1509 H 158.377 1.11248 -3.72231 0
M  V30 1510 H 160.049 -1.4098 -4.39229 0
M  V30 1511 H 158.292 -1.39167 -4.10871 0
M  V30 1512 H 158.963 -0.526815 -5.4948 0
M  V30 1513 H 161.439 0.787546 -4.08579 0
M  V30 1514 H 160.315 1.47158 -5.28806 0
M  V30 1515 H 160.576 2.31237 -3.76805 0
M  V30 1516 N 159.635 1.57281 -0.100228 0
M  V30 1517 C 160.863 1.98879 0.570509 0
M  V30 1518 C 161.278 0.979476 1.61405 0
M  V30 1519 O 160.635 -0.0302288 1.82475 0
M  V30 1520 C 160.686 3.4052 1.2136 0
M  V30 1521 O 160.407 4.37588 0.211786 0
M  V30 1522 C 161.908 3.97149 1.96945 0
M  V30 1523 H 159.128 0.653428 0.152555 0
M  V30 1524 H 161.672 2.03697 -0.18103 0
M  V30 1525 H 159.827 3.367 1.91603 0
M  V30 1526 H 160.241 5.20118 0.676607 0
M  V30 1527 H 161.715 4.98393 2.37294 0
M  V30 1528 H 162.192 3.3525 2.83733 0
M  V30 1529 H 162.798 4.04458 1.31506 0
M  V30 1530 N 161.113 -0.173488 1.56642 0
M  V30 1531 C 162.061 -1.23417 1.97157 0
M  V30 1532 C 163.055 -1.45946 0.860013 0
M  V30 1533 O 164.261 -1.46551 1.04512 0
M  V30 1534 H 160.636 -0.414818 0.62724 0
M  V30 1535 H 162.607 -0.865582 2.8557 0
M  V30 1536 C 161.356 -2.5665 2.34576 0
M  V30 1537 H 160.679 -2.40137 3.19647 0
M  V30 1538 H 162.119 -3.2956 2.6677 0
M  V30 1539 C 160.578 -3.15245 1.18836 0
M  V30 1540 O 161.108 -3.98883 0.474869 0
M  V30 1541 N 159.314 -2.74303 0.959497 0
M  V30 1542 H 158.861 -2.0639 1.54146 0
M  V30 1543 H 158.819 -3.13844 0.186932 0
M  V30 1544 N 162.591 -1.51276 -0.441967 0
M  V30 1545 C 163.837 -1.63958 -1.19355 0
M  V30 1546 C 164.17 -0.352543 -1.90973 0
M  V30 1547 O 163.445 0.647627 -1.83401 0
M  V30 1548 C 163.728 -2.83979 -2.21422 0
M  V30 1549 C 163.581 -4.22646 -1.53918 0
M  V30 1550 C 164.9 -2.99521 -3.22451 0
M  V30 1551 H 162.019 -0.596709 -0.432559 0
M  V30 1552 H 164.661 -1.83748 -0.483398 0
M  V30 1553 H 162.811 -2.67237 -2.81987 0
M  V30 1554 H 164.483 -4.51045 -0.967256 0
M  V30 1555 H 162.726 -4.25558 -0.841615 0
M  V30 1556 H 163.397 -5.02609 -2.28229 0
M  V30 1557 H 165.873 -3.14944 -2.71937 0
M  V30 1558 H 164.749 -3.85072 -3.91166 0
M  V30 1559 H 165.01 -2.11391 -3.88287 0
M  V30 1560 N 164.069 0.697108 -1.41344 0
M  V30 1561 C 165.485 1.00751 -1.2378 0
M  V30 1562 C 165.685 2.01105 -0.126066 0
M  V30 1563 O 164.741 2.47295 0.51004 0
M  V30 1564 C 166.054 1.53359 -2.58653 0
M  V30 1565 C 167.602 1.6525 -2.65822 0
M  V30 1566 C 168.077 2.2126 -4.01009 0
M  V30 1567 N 169.568 2.28622 -4.02847 0
M  V30 1568 C 170.303 2.72984 -5.04249 0
M  V30 1569 N 169.799 3.16962 -6.16041 0
M  V30 1570 N 171.592 2.72534 -4.91611 0
M  V30 1571 H 163.743 0.0322662 -2.12375 0
M  V30 1572 H 166.006 0.0768853 -0.944877 0
M  V30 1573 H 165.712 0.870773 -3.4075 0
M  V30 1574 H 165.586 2.51597 -2.81032 0
M  V30 1575 H 167.973 2.30644 -1.84086 0
M  V30 1576 H 168.054 0.655614 -2.47256 0
M  V30 1577 H 167.698 1.56482 -4.83193 0
M  V30 1578 H 167.628 3.21698 -4.16915 0
M  V30 1579 H 170.119 1.97585 -3.22131 0
M  V30 1580 H 170.432 3.49434 -6.89287 0
M  V30 1581 H 168.777 3.14875 -6.1958 0
M  V30 1582 H 171.968 2.37525 -4.0336 0
M  V30 1583 H 172.141 3.06789 -5.70775 0
M  V30 1584 N 165.547 1.27147 0.931209 0
M  V30 1585 C 166.772 1.16191 1.71797 0
M  V30 1586 C 167.197 -0.278004 1.86034 0
M  V30 1587 O 166.555 -1.20137 1.35782 0
M  V30 1588 C 166.603 1.84673 3.09723 0
M  V30 1589 O 165.707 1.14231 3.96264 0
M  V30 1590 H 165.048 0.404303 0.526721 0
M  V30 1591 H 167.578 1.68152 1.1656 0
M  V30 1592 H 167.588 1.91893 3.60057 0
M  V30 1593 H 166.263 2.89421 2.98677 0
M  V30 1594 H 164.84 1.15056 3.54706 0
M  V30 1595 N 167.025 -1.13721 1.09112 0
M  V30 1596 C 167.955 -2.21148 0.749385 0
M  V30 1597 C 168.936 -1.6792 -0.271475 0
M  V30 1598 O 170.121 -1.93693 -0.140251 0
M  V30 1599 C 167.251 -3.46905 0.165659 0
M  V30 1600 C 166.205 -4.13203 1.11567 0
M  V30 1601 C 165.531 -5.33248 0.393809 0
M  V30 1602 C 166.831 -4.60912 2.45678 0
M  V30 1603 H 168.525 -2.4999 1.64758 0
M  V30 1604 H 166.071 -1.20156 0.793626 0
M  V30 1605 H 168.024 -4.21313 -0.085466 0
M  V30 1606 H 166.748 -3.17449 -0.767714 0
M  V30 1607 H 165.407 -3.40758 1.35202 0
M  V30 1608 H 165.055 -5.00054 -0.543599 0
M  V30 1609 H 164.755 -5.78552 1.02721 0
M  V30 1610 H 166.279 -6.10413 0.150908 0
M  V30 1611 H 167.693 -5.26759 2.26269 0
M  V30 1612 H 166.09 -5.16944 3.04776 0
M  V30 1613 H 167.16 -3.75603 3.06677 0
M  V30 1614 N 168.503 -0.877838 -1.30888 0
M  V30 1615 C 169.435 -0.296607 -2.27273 0
M  V30 1616 C 170.448 0.544799 -1.53414 0
M  V30 1617 O 171.637 0.365511 -1.74718 0
M  V30 1618 C 168.737 0.597481 -3.33592 0
M  V30 1619 C 167.91 -0.213251 -4.3688 0
M  V30 1620 C 166.969 0.610208 -5.2265 0
M  V30 1621 O 165.995 0.035441 -5.69189 0
M  V30 1622 N 167.197 1.92071 -5.47804 0
M  V30 1623 H 169.962 -1.12492 -2.77787 0
M  V30 1624 H 167.523 -0.740105 -1.43993 0
M  V30 1625 H 169.515 1.15425 -3.87891 0
M  V30 1626 H 168.085 1.32647 -2.83061 0
M  V30 1627 H 167.305 -0.951466 -3.82545 0
M  V30 1628 H 168.593 -0.769262 -5.02951 0
M  V30 1629 H 167.991 2.4107 -5.11763 0
M  V30 1630 H 166.548 2.42508 -6.05007 0
M  V30 1631 N 169.982 1.44106 -0.638065 0
M  V30 1632 C 171.228 2.02277 -0.145546 0
M  V30 1633 C 171.561 1.50125 1.23191 0
M  V30 1634 O 170.836 0.688133 1.8192 0
M  V30 1635 C 171.119 3.59829 -0.139791 0
M  V30 1636 C 170.972 4.22247 -1.55008 0
M  V30 1637 C 172.291 4.36873 0.531966 0
M  V30 1638 H 169.41 0.734992 -0.0543632 0
M  V30 1639 H 172.052 1.71592 -0.815863 0
M  V30 1640 H 170.202 3.86102 0.431007 0
M  V30 1641 H 171.874 4.07057 -2.1703 0
M  V30 1642 H 170.117 3.79476 -2.10191 0
M  V30 1643 H 170.788 5.31284 -1.49804 0
M  V30 1644 H 173.264 4.16074 0.0464781 0
M  V30 1645 H 172.14 5.4657 0.505206 0
M  V30 1646 H 172.401 4.11995 1.60352 0
M  V30 1647 N 171.46 0.379036 1.52974 0
M  V30 1648 C 172.871 -0.0972525 1.86447 0
M  V30 1649 C 173.222 -1.47027 1.29914 0
M  V30 1650 O 172.347 -2.07135 0.626433 0
M  V30 1651 C 172.942 -0.183248 3.38304 0
M  V30 1652 C 171.501 -0.603812 3.71525 0
M  V30 1653 C 170.648 0.240632 2.76254 0
M  V30 1654 H 173.599 0.597316 1.4703 0
M  V30 1655 H 173.62 -1.00432 3.67006 0
M  V30 1656 H 173.132 0.816191 3.79421 0
M  V30 1657 H 171.233 -1.61099 3.35973 0
M  V30 1658 H 171.346 -0.369086 4.77676 0
M  V30 1659 H 169.71 -0.292548 2.53014 0
M  V30 1660 H 170.493 1.23786 3.20206 0
M  V30 1661 N 172.938 -1.57226 0.108567 0
M  V30 1662 C 173.87 -2.11809 -0.875752 0
M  V30 1663 C 174.883 -1.05839 -1.23701 0
M  V30 1664 O 176.072 -1.33245 -1.18778 0
M  V30 1665 C 173.172 -2.59411 -2.18081 0
M  V30 1666 C 172.345 -3.89364 -1.99284 0
M  V30 1667 C 171.404 -4.22672 -3.13424 0
M  V30 1668 O 170.43 -4.91668 -2.86795 0
M  V30 1669 N 171.632 -3.79154 -4.3957 0
M  V30 1670 H 174.397 -2.9689 -0.409477 0
M  V30 1671 H 171.958 -1.61721 -0.076158 0
M  V30 1672 H 173.95 -2.7873 -2.93414 0
M  V30 1673 H 172.52 -1.79268 -2.5609 0
M  V30 1674 H 171.74 -3.79059 -1.08203 0
M  V30 1675 H 173.028 -4.74358 -1.84017 0
M  V30 1676 H 172.426 -3.23486 -4.64083 0
M  V30 1677 H 170.983 -4.03602 -5.11809 0
M  V30 1678 N 174.416 0.165178 -1.56732 0
M  V30 1679 C 175.346 1.20651 -1.99914 0
M  V30 1680 C 176.327 1.45827 -0.875705 0
M  V30 1681 O 177.512 1.57057 -1.14223 0
M  V30 1682 C 174.642 2.54401 -2.36427 0
M  V30 1683 C 173.596 2.43782 -3.51787 0
M  V30 1684 C 172.922 3.82078 -3.7406 0
M  V30 1685 C 174.222 1.93732 -4.85041 0
M  V30 1686 H 175.916 0.847534 -2.87154 0
M  V30 1687 H 173.462 0.40625 -1.38151 0
M  V30 1688 H 175.415 3.27458 -2.65234 0
M  V30 1689 H 174.139 2.92098 -1.46103 0
M  V30 1690 H 172.798 1.73178 -3.23117 0
M  V30 1691 H 172.446 4.17179 -2.81017 0
M  V30 1692 H 172.146 3.7584 -4.51684 0
M  V30 1693 H 173.67 4.56712 -4.05274 0
M  V30 1694 H 175.084 2.56569 -5.12684 0
M  V30 1695 H 173.481 1.98428 -5.66345 0
M  V30 1696 H 174.551 0.891962 -4.76626 0
M  V30 1697 N 175.894 1.51508 0.433938 0
M  V30 1698 C 176.826 1.69266 1.54537 0
M  V30 1699 C 177.839 0.573276 1.52373 0
M  V30 1700 O 179.028 0.847698 1.57087 0
M  V30 1701 C 176.128 1.69524 2.93453 0
M  V30 1702 C 175.301 2.98101 3.20085 0
M  V30 1703 C 174.36 2.90502 4.38742 0
M  V30 1704 O 173.386 3.64442 4.3723 0
M  V30 1705 N 174.588 2.06586 5.42496 0
M  V30 1706 H 177.353 2.65145 1.39708 0
M  V30 1707 H 174.914 1.49437 0.622922 0
M  V30 1708 H 176.906 1.62004 3.70859 0
M  V30 1709 H 175.476 0.812245 3.01863 0
M  V30 1710 H 174.696 3.19464 2.30947 0
M  V30 1711 H 175.984 3.83207 3.34708 0
M  V30 1712 H 175.382 1.45896 5.46563 0
M  V30 1713 H 173.939 2.04943 6.18742 0
M  V30 1714 N 177.372 -0.689602 1.41712 0
M  V30 1715 C 178.304 -1.815 1.39966 0
M  V30 1716 C 179.317 -1.59995 0.300917 0
M  V30 1717 O 180.506 -1.69387 0.563039 0
M  V30 1718 C 177.606 -3.18364 1.16179 0
M  V30 1719 C 176.779 -3.66847 2.38206 0
M  V30 1720 C 175.838 -4.82398 2.10186 0
M  V30 1721 O 174.864 -4.93706 2.83272 0
M  V30 1722 N 176.066 -5.70064 1.0958 0
M  V30 1723 H 178.831 -1.83488 2.36965 0
M  V30 1724 H 176.392 -0.872149 1.36401 0
M  V30 1725 H 178.384 -3.93301 0.953756 0
M  V30 1726 H 176.954 -3.11365 0.27756 0
M  V30 1727 H 176.174 -2.82751 2.74673 0
M  V30 1728 H 177.462 -3.95978 3.19498 0
M  V30 1729 H 176.86 -5.63565 0.491019 0
M  V30 1730 H 175.417 -6.44874 0.947656 0
M  V30 1731 N 178.85 -1.27639 -0.924453 0
M  V30 1732 C 180.096 -1.14336 -1.67497 0
M  V30 1733 C 180.429 0.309465 -1.91718 0
M  V30 1734 O 179.704 1.22608 -1.50989 0
M  V30 1735 C 179.987 -1.93096 -3.0395 0
M  V30 1736 C 179.84 -3.46381 -2.8695 0
M  V30 1737 C 181.159 -1.73798 -4.0433 0
M  V30 1738 H 178.278 -0.416728 -0.607871 0
M  V30 1739 H 180.92 -1.56832 -1.07256 0
M  V30 1740 H 179.07 -1.56982 -3.55372 0
M  V30 1741 H 180.742 -3.92343 -2.42621 0
M  V30 1742 H 178.985 -3.72557 -2.22225 0
M  V30 1743 H 179.656 -3.96735 -3.83804 0
M  V30 1744 H 182.132 -2.05293 -3.61931 0
M  V30 1745 H 181.008 -2.31294 -4.97789 0
M  V30 1746 H 181.269 -0.686725 -4.36734 0
M  V30 1747 N 180.328 1.1314 -1.09713 0
M  V30 1748 C 181.576 1.84119 -0.833338 0
M  V30 1749 C 181.897 1.84097 0.642904 0
M  V30 1750 O 181.167 1.29881 1.46655 0
M  V30 1751 H 179.747 0.681766 -0.305293 0
M  V30 1752 H 182.409 1.37038 -1.38588 0
M  V30 1753 H 181.505 2.88543 -1.18951 0
M  V30 1754 N 181.806 0.884767 1.30421 0
M  V30 1755 C 182.738 0.308655 2.27112 0
M  V30 1756 C 183.751 -0.536655 1.53701 0
M  V30 1757 O 184.94 -0.35624 1.74909 0
M  V30 1758 C 182.04 -0.579782 3.33904 0
M  V30 1759 C 181.213 0.236417 4.36761 0
M  V30 1760 C 180.272 -0.582482 5.22966 0
M  V30 1761 O 179.298 -0.00525502 5.692 0
M  V30 1762 N 180.5 -1.89163 5.48815 0
M  V30 1763 H 183.265 1.13964 2.77186 0
M  V30 1764 H 180.826 0.747731 1.43599 0
M  V30 1765 H 182.818 -1.13366 3.88497 0
M  V30 1766 H 181.388 -1.31144 2.83761 0
M  V30 1767 H 180.608 0.97174 3.82035 0
M  V30 1768 H 181.896 0.795924 5.02536 0
M  V30 1769 H 181.294 -2.38352 5.13035 0
M  V30 1770 H 179.851 -2.39296 6.06284 0
M  V30 1771 N 183.284 -1.43765 0.645699 0
M  V30 1772 C 184.214 -2.33471 -0.0370477 0
M  V30 1773 C 185.195 -1.49042 -0.819779 0
M  V30 1774 O 186.38 -1.77726 -0.782758 0
M  V30 1775 C 183.51 -3.32311 -1.0093 0
M  V30 1776 C 182.464 -4.2667 -0.337201 0
M  V30 1777 C 181.79 -5.1549 -1.42037 0
M  V30 1778 C 183.09 -5.16657 0.765706 0
M  V30 1779 H 184.784 -2.90809 0.712069 0
M  V30 1780 H 182.33 -1.39834 0.343876 0
M  V30 1781 H 184.283 -3.9396 -1.49578 0
M  V30 1782 H 183.007 -2.73213 -1.78948 0
M  V30 1783 H 181.666 -3.66374 0.128771 0
M  V30 1784 H 181.314 -4.52735 -2.1918 0
M  V30 1785 H 181.014 -5.79438 -0.975966 0
M  V30 1786 H 182.538 -5.80012 -1.90838 0
M  V30 1787 H 183.952 -5.72158 0.361702 0
M  V30 1788 H 182.349 -5.89286 1.13413 0
M  V30 1789 H 183.419 -4.56796 1.62683 0
M  V30 1790 N 184.763 -0.387143 -1.52771 0
M  V30 1791 C 185.726 0.436939 -2.24997 0
M  V30 1792 C 186.726 0.991991 -1.26555 0
M  V30 1793 O 187.916 0.874335 -1.50669 0
M  V30 1794 C 185.048 1.61281 -3.00335 0
M  V30 1795 H 186.241 -0.195365 -2.99263 0
M  V30 1796 H 183.794 -0.139218 -1.55679 0
M  V30 1797 H 184.529 2.2826 -2.30364 0
M  V30 1798 H 184.314 1.22154 -3.72587 0
M  V30 1799 H 185.804 2.19629 -3.5518 0
M  V30 1800 N 186.241 1.57166 -0.116904 0
M  V30 1801 C 187.171 2.18222 0.830759 0
M  V30 1802 C 188.152 1.12167 1.27877 0
M  V30 1803 O 189.337 1.40394 1.34176 0
M  V30 1804 C 186.467 2.77996 2.08172 0
M  V30 1805 C 185.421 3.89614 1.77157 0
M  V30 1806 C 184.747 4.36187 3.09265 0
M  V30 1807 C 186.047 5.1181 1.04151 0
M  V30 1808 H 187.741 2.97664 0.321992 0
M  V30 1809 H 185.287 1.4318 0.153434 0
M  V30 1810 H 187.24 3.19366 2.74924 0
M  V30 1811 H 185.964 1.9584 2.6137 0
M  V30 1812 H 184.623 3.48816 1.12796 0
M  V30 1813 H 184.271 3.50893 3.60393 0
M  V30 1814 H 183.971 5.11455 2.89288 0
M  V30 1815 H 185.495 4.80207 3.77139 0
M  V30 1816 H 186.909 5.50214 1.61052 0
M  V30 1817 H 185.306 5.92648 0.942762 0
M  V30 1818 H 186.376 4.84892 0.0279022 0
M  V30 1819 N 187.719 -0.156864 1.56817 0
M  V30 1820 C 188.649 -1.19589 2.00551 0
M  V30 1821 C 189.63 -1.4536 0.883426 0
M  V30 1822 O 190.815 -1.56449 1.15054 0
M  V30 1823 C 187.945 -2.53143 2.37773 0
M  V30 1824 C 186.899 -2.41913 3.53075 0
M  V30 1825 C 186.225 -3.80088 3.76081 0
M  V30 1826 C 187.525 -1.91157 4.86062 0
M  V30 1827 H 189.219 -0.832293 2.87599 0
M  V30 1828 H 186.765 -0.398918 1.38364 0
M  V30 1829 H 188.718 -3.26047 2.66967 0
M  V30 1830 H 187.442 -2.91319 1.4765 0
M  V30 1831 H 186.101 -1.71462 3.24031 0
M  V30 1832 H 185.749 -4.15683 2.83225 0
M  V30 1833 H 185.449 -3.73439 4.53671 0
M  V30 1834 H 186.973 -4.54556 4.0769 0
M  V30 1835 H 188.387 -2.53846 5.14038 0
M  V30 1836 H 186.784 -1.95422 5.67389 0
M  V30 1837 H 187.854 -0.866673 4.77092 0
M  V30 1838 N 189.197 -1.51736 -0.425897 0
M  V30 1839 C 190.444 -1.6497 -1.17436 0
M  V30 1840 C 190.772 -0.371445 -1.9092 0
M  V30 1841 O 190.027 0.644963 -1.84767 0
M  V30 1842 C 190.326 -2.81103 -2.20717 0
M  V30 1843 C 189.992 -4.19954 -1.64162 0
M  V30 1844 C 188.654 -4.57725 -1.48462 0
M  V30 1845 C 191.006 -5.06552 -1.22696 0
M  V30 1846 C 188.334 -5.79789 -0.897873 0
M  V30 1847 C 190.686 -6.29205 -0.654464 0
M  V30 1848 C 189.35 -6.6574 -0.484456 0
M  V30 1849 H 188.62 -0.603668 -0.429727 0
M  V30 1850 H 191.267 -1.85798 -0.463829 0
M  V30 1851 H 189.572 -2.54542 -2.97852 0
M  V30 1852 H 191.269 -2.8854 -2.78471 0
M  V30 1853 H 187.859 -3.90181 -1.77361 0
M  V30 1854 H 192.043 -4.77968 -1.33642 0
M  V30 1855 H 187.299 -6.06733 -0.75402 0
M  V30 1856 H 191.473 -6.95643 -0.324694 0
M  V30 1857 H 189.1 -7.60195 -0.0276833 0
M  V30 1858 N 190.675 0.682077 -1.42076 0
M  V30 1859 C 191.9 1.47558 -1.45744 0
M  V30 1860 C 192.325 1.87977 -0.0680981 0
M  V30 1861 O 191.683 1.55522 0.9318 0
M  V30 1862 C 191.731 2.70575 -2.38373 0
M  V30 1863 O 190.835 3.68573 -1.85007 0
M  V30 1864 H 190.176 0.443585 -0.494093 0
M  V30 1865 H 192.706 0.837238 -1.86686 0
M  V30 1866 H 192.716 3.18729 -2.54707 0
M  V30 1867 H 191.391 2.40495 -3.39315 0
M  V30 1868 H 189.968 3.2757 -1.78192 0
M  V30 1869 N 192.153 1.28127 0.917671 0
M  V30 1870 C 193.083 1.14248 2.03641 0
M  V30 1871 C 194.064 0.0412748 1.7005 0
M  V30 1872 O 195.249 0.217566 1.92977 0
M  V30 1873 C 192.379 0.799431 3.37974 0
M  V30 1874 C 191.333 1.85497 3.85713 0
M  V30 1875 C 190.659 1.36565 5.16966 0
M  V30 1876 C 191.959 3.26085 4.08002 0
M  V30 1877 H 193.653 2.07835 2.15511 0
M  V30 1878 H 191.199 1.00064 1.03553 0
M  V30 1879 H 193.152 0.689114 4.15727 0
M  V30 1880 H 191.876 -0.172145 3.26146 0
M  V30 1881 H 190.535 1.95437 3.10161 0
M  V30 1882 H 190.183 0.383253 5.01538 0
M  V30 1883 H 189.883 2.07143 5.49878 0
M  V30 1884 H 191.407 1.26848 5.97279 0
M  V30 1885 H 192.821 3.19089 4.76293 0
M  V30 1886 H 191.218 3.94462 4.52238 0
M  V30 1887 H 192.288 3.70394 3.12948 0
M  V30 1888 N 193.631 -1.12557 1.10312 0
M  V30 1889 C 194.859 -1.87864 0.866873 0
M  V30 1890 C 195.274 -1.79588 -0.582557 0
M  V30 1891 O 194.631 -1.16887 -1.40156 0
M  V30 1892 C 194.682 -3.37125 1.30496 0
M  V30 1893 O 194.403 -3.45201 2.69755 0
M  V30 1894 C 195.904 -4.29373 1.10243 0
M  V30 1895 H 193.124 -0.594452 0.311236 0
M  V30 1896 H 195.668 -1.42429 1.46745 0
M  V30 1897 H 193.823 -3.80109 0.748081 0
M  V30 1898 H 194.237 -4.38056 2.88457 0
M  V30 1899 H 195.711 -5.32394 1.45811 0
M  V30 1900 H 196.188 -4.39181 0.0409492 0
M  V30 1901 H 196.794 -3.92169 1.64571 0
M  V30 1902 N 195.109 -0.891671 -1.2995 0
M  V30 1903 C 196.356 -0.513501 -1.95881 0
M  V30 1904 C 196.684 0.938655 -1.70351 0
M  V30 1905 O 195.939 1.67936 -1.00478 0
M  V30 1906 C 196.238 -0.742868 -3.49594 0
M  V30 1907 C 195.904 -2.17114 -3.95186 0
M  V30 1908 C 194.566 -2.56169 -4.07346 0
M  V30 1909 C 196.918 -3.10162 -4.18866 0
M  V30 1910 C 194.246 -3.87469 -4.4055 0
M  V30 1911 C 196.598 -4.41001 -4.53542 0
M  V30 1912 C 195.262 -4.79941 -4.63911 0
M  V30 1913 H 194.532 -0.187903 -0.71678 0
M  V30 1914 H 197.179 -1.1288 -1.54694 0
M  V30 1915 H 195.484 -0.044586 -3.91775 0
M  V30 1916 H 197.181 -0.429767 -3.9869 0
M  V30 1917 H 193.771 -1.85801 -3.86233 0
M  V30 1918 H 197.955 -2.81206 -4.08946 0
M  V30 1919 H 193.211 -4.17371 -4.46779 0
M  V30 1920 H 197.385 -5.13133 -4.70815 0
M  V30 1921 H 195.012 -5.81719 -4.89395 0
M  V30 1922 N 196.587 1.43421 -0.653314 0
M  V30 1923 C 197.55 2.29182 0.0287951 0
M  V30 1924 C 198.55 1.42213 0.750465 0
M  V30 1925 O 199.74 1.63843 0.591701 0
M  V30 1926 C 196.872 3.24278 1.05151 0
M  V30 1927 H 198.065 2.90985 -0.725786 0
M  V30 1928 H 195.618 1.50702 -0.414545 0
M  V30 1929 H 196.353 2.6737 1.83532 0
M  V30 1930 H 196.138 3.88396 0.537687 0
M  V30 1931 H 197.628 3.88647 1.52786 0
M  V30 1932 N 198.065 0.39524 1.52563 0
M  V30 1933 C 198.995 -0.428384 2.29537 0
M  V30 1934 C 199.976 -1.05831 1.33169 0
M  V30 1935 O 201.161 -1.06995 1.62067 0
M  V30 1936 C 198.291 -1.55274 3.10656 0
M  V30 1937 C 197.245 -1.04855 4.14957 0
M  V30 1938 C 196.571 -2.26543 4.84337 0
M  V30 1939 C 197.871 -0.112324 5.22179 0
M  V30 1940 H 199.565 0.213867 2.98635 0
M  V30 1941 H 197.111 0.104298 1.43622 0
M  V30 1942 H 199.064 -2.1358 3.63265 0
M  V30 1943 H 197.788 -2.22266 2.39302 0
M  V30 1944 H 196.447 -0.487985 3.63338 0
M  V30 1945 H 196.095 -2.92059 4.09525 0
M  V30 1946 H 195.795 -1.93466 5.54837 0
M  V30 1947 H 197.319 -2.85481 5.39753 0
M  V30 1948 H 198.733 -0.603752 5.70112 0
M  V30 1949 H 197.13 0.128968 5.99961 0
M  V30 1950 H 198.2 0.837052 4.77621 0
M  V30 1951 N 199.544 -1.57102 0.125237 0
M  V30 1952 C 200.474 -2.18659 -0.819174 0
M  V30 1953 C 201.455 -1.12843 -1.27281 0
M  V30 1954 O 202.64 -1.41104 -1.33429 0
M  V30 1955 C 199.77 -2.79096 -2.06695 0
M  V30 1956 C 198.724 -3.90548 -1.75088 0
M  V30 1957 C 198.05 -4.37821 -3.06948 0
M  V30 1958 C 199.35 -5.12356 -1.01435 0
M  V30 1959 H 201.044 -2.9783 -0.306202 0
M  V30 1960 H 198.59 -1.4326 -0.145839 0
M  V30 1961 H 200.543 -3.2082 -2.73226 0
M  V30 1962 H 199.267 -1.97223 -2.60328 0
M  V30 1963 H 197.926 -3.49409 -1.10944 0
M  V30 1964 H 197.574 -3.52799 -3.58527 0
M  V30 1965 H 197.274 -5.12982 -2.86571 0
M  V30 1966 H 198.798 -4.822 -3.74587 0
M  V30 1967 H 200.212 -5.5106 -1.58132 0
M  V30 1968 H 198.609 -5.9314 -0.911319 0
M  V30 1969 H 199.679 -4.849 -0.00218681 0
M  V30 1970 N 201.022 0.148545 -1.56898 0
M  V30 1971 C 202.262 0.86765 -1.85071 0
M  V30 1972 C 202.626 1.78417 -0.709317 0
M  V30 1973 O 203.827 2.54261 -0.872049 0
M  V30 1974 C 202.098 1.62306 -3.1842 0
M  V30 1975 S 203.657 2.3878 -3.68143 0
M  V30 1976 H 200.475 0.290174 -0.649092 0
M  V30 1977 H 203.077 0.127755 -1.95082 0
M  V30 1978 H 201.781 0.941192 -3.99462 0
M  V30 1979 H 201.312 2.4039 -3.1141 0
M  V30 1980 H 203.327 3.63942 -3.37285 0
M  V30 1981 N 202.5 1.5196 0.417844 0
M  V30 1982 C 203.74 1.67262 1.17486 0
M  V30 1983 C 204.104 0.38983 1.88001 0
M  V30 1984 O 205.305 0.418845 2.65517 0
M  V30 1985 C 203.576 2.85526 2.14965 0
M  V30 1986 S 205.135 3.21263 2.98891 0
M  V30 1987 H 201.953 0.589077 0.398132 0
M  V30 1988 H 204.555 1.89927 0.463452 0
M  V30 1989 H 203.259 3.77145 1.61833 0
M  V30 1990 H 202.79 2.65107 2.90657 0
M  V30 1991 H 204.805 2.69208 4.16823 0
M  V30 1992 N 203.978 -0.674533 1.42435 0
M  V30 1993 C 205.389 -1.25514 1.38214 0
M  V30 1994 C 205.74 -1.96055 0.0755464 0
M  V30 1995 O 204.865 -2.00028 -0.8257 0
M  V30 1996 C 205.46 -2.28269 2.50357 0
M  V30 1997 C 204.019 -2.81856 2.49467 0
M  V30 1998 C 203.166 -1.56182 2.29134 0
M  V30 1999 H 206.117 -0.467902 1.51646 0
M  V30 2000 H 206.138 -3.10009 2.20624 0
M  V30 2001 H 205.65 -1.769 3.45439 0
M  V30 2002 H 203.751 -3.37346 1.58204 0
M  V30 2003 H 203.864 -3.30854 3.46515 0
M  V30 2004 H 202.228 -1.82761 1.774 0
M  V30 2005 H 203.011 -1.06778 3.26272 0
M  V30 2006 N 205.456 -1.28612 -0.910864 0
M  V30 2007 C 206.703 -1.15934 -1.66029 0
M  V30 2008 C 207.031 0.291483 -1.92303 0
M  V30 2009 O 206.286 1.22816 -1.52364 0
M  V30 2010 C 206.585 -1.90624 -3.0232 0
M  V30 2011 C 206.251 -3.40405 -2.95695 0
M  V30 2012 C 204.913 -3.81255 -2.93595 0
M  V30 2013 C 207.265 -4.359 -2.85728 0
M  V30 2014 C 204.593 -5.15936 -2.79334 0
M  V30 2015 C 206.945 -5.70657 -2.73007 0
M  V30 2016 C 205.609 -6.10779 -2.69267 0
M  V30 2017 H 204.879 -0.424234 -0.607541 0
M  V30 2018 H 207.526 -1.5942 -1.06101 0
M  V30 2019 H 205.831 -1.39696 -3.6605 0
M  V30 2020 H 207.528 -1.78228 -3.59215 0
M  V30 2021 H 204.118 -3.07927 -2.98125 0
M  V30 2022 H 208.302 -4.053 -2.86436 0
M  V30 2023 H 203.558 -5.46146 -2.74835 0
M  V30 2024 H 207.732 -6.44311 -2.64264 0
M  V30 2025 H 205.359 -7.1509 -2.57974 0
M  V30 2026 N 206.934 1.1197 -1.10907 0
M  V30 2027 C 207.897 2.16031 -0.765707 0
M  V30 2028 C 208.897 1.59393 0.212235 0
M  V30 2029 O 210.087 1.74196 -0.0115441 0
M  V30 2030 C 207.219 3.40632 -0.135053 0
M  V30 2031 H 208.412 2.47919 -1.68748 0
M  V30 2032 H 205.965 1.27061 -0.910226 0
M  V30 2033 H 206.7 3.14348 0.797218 0
M  V30 2034 H 206.485 3.8302 -0.838937 0
M  V30 2035 H 207.975 4.17505 0.0892469 0
M  V30 2036 N 208.412 0.89855 1.29475 0
M  V30 2037 C 209.342 0.39201 2.30186 0
M  V30 2038 C 210.323 -0.532359 1.61555 0
M  V30 2039 O 211.508 -0.443331 1.89072 0
M  V30 2040 C 208.638 -0.382353 3.45189 0
M  V30 2041 C 207.592 0.451483 4.25612 0
M  V30 2042 C 206.918 -0.450307 5.328 0
M  V30 2043 C 208.218 1.70079 4.93832 0
M  V30 2044 H 209.912 1.23362 2.72804 0
M  V30 2045 H 207.458 0.594638 1.31149 0
M  V30 2046 H 209.411 -0.747451 4.14718 0
M  V30 2047 H 208.135 -1.25774 3.01411 0
M  V30 2048 H 206.794 0.798897 3.57789 0
M  V30 2049 H 206.442 -1.32379 4.85268 0
M  V30 2050 H 206.142 0.103902 5.87508 0
M  V30 2051 H 207.666 -0.811623 6.05182 0
M  V30 2052 H 209.08 1.40549 5.55805 0
M  V30 2053 H 207.477 2.19623 5.58467 0
M  V30 2054 H 208.547 2.43744 4.19186 0
M  V30 2055 N 209.89 -1.43072 0.660911 0
M  V30 2056 C 211.138 -2.01323 0.177094 0
M  V30 2057 C 211.459 -1.5245 -1.2159 0
M  V30 2058 O 210.729 -0.740322 -1.81373 0
M  V30 2059 H 209.309 -0.744382 0.0624804 0
M  V30 2060 H 211.971 -1.75179 0.854305 0
M  V30 2061 H 211.067 -3.11649 0.167641 0
M  V30 2062 N 211.368 -0.403325 -1.52352 0
M  V30 2063 C 212.616 0.174003 -2.0135 0
M  V30 2064 C 212.937 1.46139 -1.29106 0
M  V30 2065 O 212.207 1.91448 -0.415253 0
M  V30 2066 H 210.787 0.0672911 -0.743963 0
M  V30 2067 H 213.449 -0.538235 -1.87321 0
M  V30 2068 H 212.545 0.374254 -3.09848 0
M  V30 2069 N 212.846 1.57033 -0.133567 0
M  V30 2070 C 214.257 1.82593 0.389464 0
M  V30 2071 C 214.608 1.05156 1.6564 0
M  V30 2072 O 213.733 0.292644 2.14412 0
M  V30 2073 C 214.328 3.31204 0.713377 0
M  V30 2074 C 212.887 3.57393 1.18098 0
M  V30 2075 C 212.034 2.76598 0.197126 0
M  V30 2076 H 214.985 1.54598 -0.358481 0
M  V30 2077 H 215.006 3.46627 1.56939 0
M  V30 2078 H 214.518 3.87537 -0.2089 0
M  V30 2079 H 212.619 3.06433 2.11966 0
M  V30 2080 H 212.732 4.65915 1.11624 0
M  V30 2081 H 211.096 2.45257 0.687088 0
M  V30 2082 H 211.879 3.35697 -0.718504 0
M  V30 2083 N 214.325 -0.140222 1.56975 0
M  V30 2084 C 215.288 -1.15689 1.97861 0
M  V30 2085 C 216.288 -1.3549 0.865974 0
M  V30 2086 O 217.478 -1.32367 1.13246 0
M  V30 2087 C 214.61 -2.51582 2.30042 0
M  V30 2088 H 215.803 -0.805971 2.88867 0
M  V30 2089 H 213.356 -0.383801 1.51515 0
M  V30 2090 H 214.091 -2.91632 1.41849 0
M  V30 2091 H 213.876 -2.38569 3.11171 0
M  V30 2092 H 215.366 -3.24792 2.62488 0
M  V30 2093 N 215.803 -1.52179 -0.40978 0
M  V30 2094 C 217.219 -1.40968 -0.74835 0
M  V30 2095 C 217.419 -0.513657 -1.94843 0
M  V30 2096 O 216.475 0.0208026 -2.52491 0
M  V30 2097 C 217.788 -2.83483 -1.0029 0
M  V30 2098 C 219.336 -2.92821 -1.10565 0
M  V30 2099 C 219.811 -4.36303 -1.39296 0
M  V30 2100 N 221.302 -4.39535 -1.46162 0
M  V30 2101 C 222.037 -5.47614 -1.70018 0
M  V30 2102 N 221.533 -6.65812 -1.91483 0
M  V30 2103 N 223.326 -5.35129 -1.72027 0
M  V30 2104 H 215.477 -2.0897 0.380186 0
M  V30 2105 H 217.74 -0.94185 0.107805 0
M  V30 2106 H 217.446 -3.51168 -0.193461 0
M  V30 2107 H 217.32 -3.24487 -1.92323 0
M  V30 2108 H 219.707 -2.25318 -1.90568 0
M  V30 2109 H 219.788 -2.55276 -0.16369 0
M  V30 2110 H 219.432 -5.04366 -0.598109 0
M  V30 2111 H 219.362 -4.71385 -2.34743 0
M  V30 2112 H 221.853 -3.54332 -1.31367 0
M  V30 2113 H 222.166 -7.43964 -2.09134 0
M  V30 2114 H 220.511 -6.68879 -1.88749 0
M  V30 2115 H 223.702 -4.41764 -1.54796 0
M  V30 2116 H 223.875 -6.19433 -1.9028 0
M  V30 2117 N 217.281 0.66697 -1.42791 0
M  V30 2118 C 218.529 1.42417 -1.43394 0
M  V30 2119 C 218.85 1.94925 -0.0542373 0
M  V30 2120 O 218.12 1.73564 0.908415 0
M  V30 2121 H 216.7 0.528515 -0.527902 0
M  V30 2122 H 219.362 0.787562 -1.78279 0
M  V30 2123 H 218.458 2.27333 -2.13837 0
M  V30 2124 N 218.759 1.29093 0.90403 0
M  V30 2125 C 219.984 1.19809 1.69294 0
M  V30 2126 C 220.409 -0.238481 1.86582 0
M  V30 2127 O 219.767 -1.1723 1.383 0
M  V30 2128 C 219.815 1.91202 3.05736 0
M  V30 2129 O 218.919 1.22611 3.93752 0
M  V30 2130 H 218.26 0.415385 0.518027 0
M  V30 2131 H 220.79 1.70586 1.12967 0
M  V30 2132 H 220.8 1.99487 3.55906 0
M  V30 2133 H 219.475 2.95692 2.92471 0
M  V30 2134 H 218.052 1.22554 3.52186 0
M  V30 2135 N 220.237 -1.11381 1.11499 0
M  V30 2136 C 221.2 -2.15622 0.777153 0
M  V30 2137 C 222.2 -1.59504 -0.203779 0
M  V30 2138 O 223.39 -1.74188 0.020782 0
M  V30 2139 C 220.522 -3.40556 0.153116 0
M  V30 2140 H 221.715 -2.47021 1.70061 0
M  V30 2141 H 219.268 -1.26577 0.916952 0
M  V30 2142 H 220.003 -3.14767 -0.780536 0
M  V30 2143 H 219.788 -3.8257 0.859238 0
M  V30 2144 H 221.278 -4.17546 -0.0671044 0
M  V30 2145 N 221.715 -0.905404 -1.28997 0
M  V30 2146 C 222.963 -0.533192 -1.9494 0
M  V30 2147 C 223.284 0.924618 -1.71685 0
M  V30 2148 O 222.554 1.65268 -1.05183 0
M  V30 2149 H 221.134 -0.194194 -0.721317 0
M  V30 2150 H 223.796 -1.15294 -1.57141 0
M  V30 2151 H 222.892 -0.72059 -3.03667 0
M  V30 2152 N 223.193 1.4272 -0.668489 0
M  V30 2153 C 224.156 2.292 0.00448567 0
M  V30 2154 C 225.156 1.43001 0.735339 0
M  V30 2155 O 226.346 1.64461 0.57429 0
M  V30 2156 C 223.478 3.25375 1.01705 0
M  V30 2157 H 224.671 2.90199 -0.756608 0
M  V30 2158 H 222.224 1.50254 -0.430506 0
M  V30 2159 H 222.959 2.69301 1.80686 0
M  V30 2160 H 222.744 3.88944 0.496463 0
M  V30 2161 H 224.234 3.90245 1.48655 0
M  V30 2162 N 224.671 0.411399 1.52136 0
M  V30 2163 C 225.634 -0.401089 2.25663 0
M  V30 2164 C 226.634 -0.971732 1.28117 0
M  V30 2165 O 227.824 -0.850254 1.52041 0
M  V30 2166 C 224.956 -1.56483 3.02863 0
M  V30 2167 H 226.149 0.24295 2.98914 0
M  V30 2168 H 223.702 0.163968 1.55438 0
M  V30 2169 H 224.437 -2.24567 2.33967 0
M  V30 2170 H 224.222 -1.16211 3.74483 0
M  V30 2171 H 225.712 -2.13951 3.58629 0
M  V30 2172 N 226.149 -1.5696 0.141893 0
M  V30 2173 C 227.397 -1.95573 -0.509484 0
M  V30 2174 C 227.718 -1.02746 -1.65736 0
M  V30 2175 O 226.988 -0.0880311 -1.95702 0
M  V30 2176 H 225.568 -0.722115 -0.191205 0
M  V30 2177 H 228.23 -1.93697 0.216196 0
M  V30 2178 H 227.326 -2.99171 -0.889 0
M  V30 2179 N 227.627 0.131896 -1.57047 0
M  V30 2180 C 228.875 0.840269 -1.83804 0
M  V30 2181 C 229.196 1.81017 -0.72512 0
M  V30 2182 O 228.466 1.94272 0.251995 0
M  V30 2183 H 227.046 0.313294 -0.678127 0
M  V30 2184 H 229.708 0.122294 -1.94516 0
M  V30 2185 H 228.804 1.39335 -2.79271 0
M  V30 2186 N 229.106 1.52395 0.401703 0
M  V30 2187 C 230.517 1.58899 0.980202 0
M  V30 2188 C 230.868 0.434032 1.91339 0
M  V30 2189 O 229.993 -0.444619 2.11783 0
M  V30 2190 C 230.588 2.87994 1.78451 0
M  V30 2191 C 229.147 2.96953 2.31292 0
M  V30 2192 C 228.294 2.53903 1.11483 0
M  V30 2193 H 231.245 1.57657 0.18168 0
M  V30 2194 H 231.266 2.73765 2.64259 0
M  V30 2195 H 230.778 3.72035 1.10506 0
M  V30 2196 H 228.879 2.17422 3.02586 0
M  V30 2197 H 228.992 4.01344 2.61649 0
M  V30 2198 H 227.356 2.07925 1.47104 0
M  V30 2199 H 228.139 3.40326 0.450928 0
M  V30 2200 N 230.584 -0.659388 1.43143 0
M  V30 2201 C 231.547 -1.75432 1.47501 0
M  V30 2202 C 232.547 -1.56707 0.360512 0
M  V30 2203 O 233.737 -1.62717 0.622002 0
M  V30 2204 C 230.869 -3.14239 1.32162 0
M  V30 2205 H 232.062 -1.7295 2.45006 0
M  V30 2206 H 229.615 -0.870469 1.29817 0
M  V30 2207 H 230.35 -3.22336 0.356401 0
M  V30 2208 H 230.135 -3.29235 2.12948 0
M  V30 2209 H 231.625 -3.94094 1.3813 0
M  V30 2210 N 232.062 -1.29571 -0.897171 0
M  V30 2211 C 233.29 -1.20583 -1.68129 0
M  V30 2212 C 233.705 0.233181 -1.87354 0
M  V30 2213 O 233.062 1.15579 -1.41236 0
M  V30 2214 C 233.113 -1.91772 -3.06441 0
M  V30 2215 O 232.834 -3.30053 -2.88091 0
M  V30 2216 C 234.335 -1.89291 -4.00854 0
M  V30 2217 H 231.555 -0.417826 -0.525036 0
M  V30 2218 H 234.099 -1.70987 -1.12177 0
M  V30 2219 H 232.254 -1.45196 -3.59161 0
M  V30 2220 H 232.668 -3.65942 -3.75748 0
M  V30 2221 H 234.142 -2.43662 -4.95311 0
M  V30 2222 H 234.619 -0.869014 -4.30517 0
M  V30 2223 H 235.225 -2.35622 -3.54066 0
M  V30 2224 N 233.54 1.10788 -1.12088 0
M  V30 2225 C 234.503 2.15207 -0.788577 0
M  V30 2226 C 235.503 1.59609 0.195317 0
M  V30 2227 O 236.693 1.74174 -0.0300193 0
M  V30 2228 C 233.825 3.4047 -0.171174 0
M  V30 2229 H 235.018 2.46116 -1.71368 0
M  V30 2230 H 232.571 1.26089 -0.923652 0
M  V30 2231 H 233.306 3.15176 0.763832 0
M  V30 2232 H 233.091 3.82109 -0.879514 0
M  V30 2233 H 234.581 4.17576 0.04496 0
M  V30 2234 N 235.018 0.912232 1.28515 0
M  V30 2235 C 235.928 0.404506 2.31086 0
M  V30 2236 C 236.944 -0.50707 1.66448 0
M  V30 2237 O 238.12 -0.393624 1.97516 0
M  V30 2238 C 235.185 -0.348572 3.44943 0
M  V30 2239 C 234.246 0.59604 4.25142 0
M  V30 2240 C 233.479 -0.121194 5.33562 0
M  V30 2241 O 233.702 -1.34317 5.5436 0
M  V30 2242 O 232.636 0.542716 5.99448 0
M  V30 2243 H 236.462 1.25579 2.76521 0
M  V30 2244 H 234.047 0.676998 1.33181 0
M  V30 2245 H 235.929 -0.77395 4.14232 0
M  V30 2246 H 234.604 -1.17571 3.01594 0
M  V30 2247 H 233.511 1.07079 3.58448 0
M  V30 2248 H 234.844 1.38995 4.72167 0
M  V30 2249 N 236.496 -1.42363 0.676048 0
M  V30 2250 C 237.428 -2.29164 -0.0404605 0
M  V30 2251 C 238.441 -1.43747 -0.764245 0
M  V30 2252 O 239.63 -1.67453 -0.618195 0
M  V30 2253 C 236.73 -3.21196 -1.08103 0
M  V30 2254 C 235.903 -4.35273 -0.430812 0
M  V30 2255 C 234.962 -5.08017 -1.37133 0
M  V30 2256 O 233.988 -5.62494 -0.87116 0
M  V30 2257 N 235.19 -5.13647 -2.70456 0
M  V30 2258 H 237.955 -2.91298 0.704667 0
M  V30 2259 H 235.516 -1.53303 0.520559 0
M  V30 2260 H 237.508 -3.66728 -1.71152 0
M  V30 2261 H 236.078 -2.60505 -1.72788 0
M  V30 2262 H 235.298 -3.92372 0.379209 0
M  V30 2263 H 236.586 -5.08795 0.0221132 0
M  V30 2264 H 235.984 -4.708 -3.1363 0
M  V30 2265 H 234.541 -5.62821 -3.28749 0
M  V30 2266 N 237.974 -0.419461 -1.51915 0
M  V30 2267 C 239.222 0.152637 -2.01523 0
M  V30 2268 C 239.543 1.44762 -1.30649 0
M  V30 2269 O 238.813 1.90997 -0.435535 0
M  V30 2270 H 237.393 0.0593966 -0.744635 0
M  V30 2271 H 240.055 -0.558073 -1.86739 0
M  V30 2272 H 239.151 0.341369 -3.10227 0
M  V30 2273 N 239.452 1.56882 -0.150215 0
M  V30 2274 C 240.698 1.96518 0.500834 0
M  V30 2275 C 241.031 1.03527 1.64304 0
M  V30 2276 O 240.306 0.0782751 1.94342 0
M  V30 2277 C 240.589 3.45822 1.00395 0
M  V30 2278 C 240.442 4.49591 -0.136983 0
M  V30 2279 C 241.761 3.97704 1.88467 0
M  V30 2280 H 238.88 0.714535 0.18058 0
M  V30 2281 H 241.522 1.88577 -0.232091 0
M  V30 2282 H 239.672 3.5272 1.62851 0
M  V30 2283 H 241.344 4.5477 -0.77343 0
M  V30 2284 H 239.587 4.26441 -0.795652 0
M  V30 2285 H 240.258 5.51402 0.256815 0
M  V30 2286 H 242.734 3.93304 1.35834 0
M  V30 2287 H 241.61 5.0263 2.20578 0
M  V30 2288 H 241.871 3.40252 2.82279 0
M  V30 2289 N 240.93 -0.123565 1.57115 0
M  V30 2290 C 242.176 -0.828428 1.85765 0
M  V30 2291 C 242.531 -1.77709 0.737371 0
M  V30 2292 O 241.824 -1.89787 -0.262978 0
M  V30 2293 C 242.018 -1.62016 3.18568 0
M  V30 2294 C 241.847 -0.749663 4.43407 0
M  V30 2295 C 240.617 -0.406251 5.03664 0
M  V30 2296 C 242.815 -0.0693505 5.14253 0
M  V30 2297 N 240.797 0.475389 6.12057 0
M  V30 2298 C 242.168 0.671474 6.16353 0
M  V30 2299 C 244.223 0.00754393 4.97899 0
M  V30 2300 C 242.926 1.48197 7.03868 0
M  V30 2301 C 244.952 0.804845 5.85898 0
M  V30 2302 C 244.314 1.53388 6.87497 0
M  V30 2303 H 240.413 -0.280219 0.73007 0
M  V30 2304 H 242.997 -0.0924183 1.94481 0
M  V30 2305 H 241.168 -2.32724 3.10957 0
M  V30 2306 H 242.9 -2.27 3.35042 0
M  V30 2307 H 239.655 -0.747446 4.67665 0
M  V30 2308 H 240.079 0.907924 6.70884 0
M  V30 2309 H 244.721 -0.541741 4.19315 0
M  V30 2310 H 242.439 2.04242 7.81864 0
M  V30 2311 H 246.025 0.866642 5.75309 0
M  V30 2312 H 244.905 2.1409 7.5441 0
M  V30 2313 N 242.408 -1.52605 -0.393616 0
M  V30 2314 C 243.34 -1.73303 -1.49995 0
M  V30 2315 C 244.353 -0.613473 -1.50799 0
M  V30 2316 O 245.542 -0.889049 -1.54784 0
M  V30 2317 C 242.642 -1.77245 -2.88855 0
M  V30 2318 C 241.815 -3.06483 -3.12069 0
M  V30 2319 C 240.874 -3.02033 -4.30886 0
M  V30 2320 O 239.9 -3.75907 -4.27414 0
M  V30 2321 N 241.102 -2.20897 -5.36828 0
M  V30 2322 H 243.867 -2.68756 -1.32629 0
M  V30 2323 H 241.428 -1.51036 -0.583083 0
M  V30 2324 H 243.42 -1.7178 -3.66434 0
M  V30 2325 H 241.99 -0.891993 -2.99603 0
M  V30 2326 H 241.21 -3.25474 -2.22396 0
M  V30 2327 H 242.498 -3.91947 -3.2443 0
M  V30 2328 H 241.896 -1.60336 -5.42502 0
M  V30 2329 H 240.453 -2.21275 -6.13091 0
M  V30 2330 N 243.887 0.651787 -1.4349 0
M  V30 2331 C 244.817 1.77621 -1.51569 0
M  V30 2332 C 245.798 1.66022 -0.370253 0
M  V30 2333 O 246.983 1.85095 -0.587658 0
M  V30 2334 C 244.113 3.16056 -1.43966 0
M  V30 2335 C 243.067 3.4242 -2.56774 0
M  V30 2336 C 242.393 4.8067 -2.34223 0
M  V30 2337 C 243.693 3.37023 -3.99015 0
M  V30 2338 H 245.387 1.71117 -2.45681 0
M  V30 2339 H 242.933 0.821825 -1.18246 0
M  V30 2340 H 244.886 3.94472 -1.48221 0
M  V30 2341 H 243.61 3.23293 -0.463586 0
M  V30 2342 H 242.269 2.66375 -2.51873 0
M  V30 2343 H 241.917 4.84585 -1.34856 0
M  V30 2344 H 241.617 4.9927 -3.09844 0
M  V30 2345 H 243.141 5.61342 -2.40265 0
M  V30 2346 H 244.555 4.05374 -4.05395 0
M  V30 2347 H 242.952 3.67159 -4.74673 0
M  V30 2348 H 244.022 2.3518 -4.2405 0
M  V30 2349 N 245.365 1.30045 0.890287 0
M  V30 2350 C 246.295 1.18541 2.01172 0
M  V30 2351 C 247.276 0.0773356 1.69924 0
M  V30 2352 O 248.461 0.25845 1.92473 0
M  V30 2353 C 245.591 0.870941 3.36202 0
M  V30 2354 C 244.545 1.93637 3.81692 0
M  V30 2355 C 243.871 1.475 5.13953 0
M  V30 2356 C 245.171 3.34666 4.00994 0
M  V30 2357 H 246.865 2.12359 2.11054 0
M  V30 2358 H 244.411 1.02238 1.01407 0
M  V30 2359 H 246.364 0.777141 4.14172 0
M  V30 2360 H 245.088 -0.102926 3.26438 0
M  V30 2361 H 243.747 2.01972 3.05946 0
M  V30 2362 H 243.395 0.489551 5.00612 0
M  V30 2363 H 243.095 2.1876 5.4536 0
M  V30 2364 H 244.619 1.39489 5.94454 0
M  V30 2365 H 246.033 3.2912 4.69417 0
M  V30 2366 H 244.43 4.03966 4.43769 0
M  V30 2367 H 245.5 3.76949 3.05021 0
M  V30 2368 N 246.843 -1.10192 1.12674 0
M  V30 2369 C 247.773 -2.18652 0.819362 0
M  V30 2370 C 248.754 -1.68698 -0.217915 0
M  V30 2371 O 249.939 -1.94041 -0.0785581 0
M  V30 2372 C 247.069 -3.46202 0.27594 0
M  V30 2373 C 246.023 -4.09444 1.24656 0
M  V30 2374 C 245.349 -5.31725 0.563258 0
M  V30 2375 C 246.649 -4.52863 2.60217 0
M  V30 2376 H 248.343 -2.44622 1.72628 0
M  V30 2377 H 245.889 -1.17571 0.831451 0
M  V30 2378 H 247.842 -4.21372 0.0486149 0
M  V30 2379 H 246.566 -3.1973 -0.666331 0
M  V30 2380 H 245.225 -3.36284 1.45974 0
M  V30 2381 H 244.873 -5.0153 -0.384235 0
M  V30 2382 H 244.573 -5.74991 1.21075 0
M  V30 2383 H 246.097 -6.09624 0.34503 0
M  V30 2384 H 247.511 -5.19294 2.42913 0
M  V30 2385 H 245.908 -5.06986 3.21068 0
M  V30 2386 H 246.978 -3.65656 3.18471 0
M  V30 2387 N 248.321 -0.919034 -1.28029 0
M  V30 2388 C 249.567 -0.555757 -1.95036 0
M  V30 2389 C 249.9 0.899198 -1.72128 0
M  V30 2390 O 249.175 1.64023 -1.04531 0
M  V30 2391 C 249.458 -0.872024 -3.49382 0
M  V30 2392 C 249.311 -2.3801 -3.81669 0
M  V30 2393 C 250.63 -0.37185 -4.38526 0
M  V30 2394 H 247.749 -0.203386 -0.708381 0
M  V30 2395 H 250.391 -1.14924 -1.51303 0
M  V30 2396 H 248.541 -0.366946 -3.86763 0
M  V30 2397 H 250.213 -2.9562 -3.54128 0
M  V30 2398 H 248.456 -2.83289 -3.28526 0
M  V30 2399 H 249.127 -2.55192 -4.8947 0
M  V30 2400 H 251.603 -0.804602 -4.08247 0
M  V30 2401 H 250.479 -0.622173 -5.45362 0
M  V30 2402 H 250.74 0.727934 -4.36066 0
M  V30 2403 N 249.799 1.42003 -0.683588 0
M  V30 2404 C 251.027 2.05746 -0.218182 0
M  V30 2405 C 251.442 1.51396 1.12804 0
M  V30 2406 O 250.799 0.657303 1.70252 0
M  V30 2407 C 250.85 3.61171 -0.154131 0
M  V30 2408 O 250.571 4.13508 -1.44716 0
M  V30 2409 C 252.072 4.42042 0.333713 0
M  V30 2410 H 249.292 0.662888 -0.10402 0
M  V30 2411 H 251.836 1.81987 -0.9328 0
M  V30 2412 H 249.991 3.84012 0.511231 0
M  V30 2413 H 250.405 5.07453 -1.32632 0
M  V30 2414 H 251.879 5.51028 0.327423 0
M  V30 2415 H 252.356 4.17269 1.37053 0
M  V30 2416 H 252.962 4.24239 -0.300222 0
M  V30 2417 N 251.277 0.427512 1.51691 0
M  V30 2418 C 252.524 -0.142229 2.02 0
M  V30 2419 C 252.852 -1.43566 1.31221 0
M  V30 2420 O 252.107 -1.91298 0.412744 0
M  V30 2421 C 252.406 -0.418249 3.54944 0
M  V30 2422 C 252.072 0.788187 4.43958 0
M  V30 2423 C 250.734 1.11906 4.68007 0
M  V30 2424 C 253.086 1.59347 4.96244 0
M  V30 2425 C 250.414 2.25608 5.41588 0
M  V30 2426 C 252.766 2.7214 5.71072 0
M  V30 2427 C 251.43 3.05692 5.93387 0
M  V30 2428 H 250.7 -0.0520451 0.73917 0
M  V30 2429 H 253.347 0.572697 1.82736 0
M  V30 2430 H 251.652 -1.21496 3.72486 0
M  V30 2431 H 253.349 -0.872339 3.91397 0
M  V30 2432 H 249.939 0.520344 4.2543 0
M  V30 2433 H 254.123 1.35106 4.77556 0
M  V30 2434 H 249.379 2.51929 5.57083 0
M  V30 2435 H 253.553 3.34914 6.10578 0
M  V30 2436 H 251.18 3.9391 6.50184 0
M  V30 2437 N 252.755 -1.56801 0.158532 0
M  V30 2438 C 254.001 -1.96781 -0.490405 0
M  V30 2439 C 254.334 -1.04397 -1.63753 0
M  V30 2440 O 253.609 -0.0885805 -1.94298 0
M  V30 2441 C 253.892 -3.4635 -0.985594 0
M  V30 2442 C 253.745 -4.49512 0.160824 0
M  V30 2443 C 255.064 -3.98697 -1.86355 0
M  V30 2444 H 252.183 -0.715482 -0.176788 0
M  V30 2445 H 254.825 -1.88451 0.242088 0
M  V30 2446 H 252.975 -3.53579 -1.60978 0
M  V30 2447 H 254.647 -4.54353 0.797537 0
M  V30 2448 H 252.89 -4.26013 0.818256 0
M  V30 2449 H 253.561 -5.51531 -0.227569 0
M  V30 2450 H 256.037 -3.94019 -1.33746 0
M  V30 2451 H 254.913 -5.03792 -2.17909 0
M  V30 2452 H 255.174 -3.41744 -2.8047 0
M  V30 2453 N 254.233 0.115231 -1.57178 0
M  V30 2454 C 255.458 0.840354 -1.89612 0
M  V30 2455 C 255.883 1.72464 -0.750845 0
M  V30 2456 O 255.241 1.78826 0.298478 0
M  V30 2457 C 255.289 1.64654 -3.20814 0
M  V30 2458 O 254.393 2.7538 -3.06985 0
M  V30 2459 H 253.734 0.232158 -0.622092 0
M  V30 2460 H 256.264 0.0964977 -2.04372 0
M  V30 2461 H 256.274 2.03499 -3.53627 0
M  V30 2462 H 254.949 0.997416 -4.03763 0
M  V30 2463 H 253.526 2.3971 -2.85646 0
M  V30 2464 N 255.711 1.52812 0.385517 0
M  V30 2465 C 256.941 1.71658 1.14966 0
M  V30 2466 C 257.349 0.436253 1.84102 0
M  V30 2467 O 256.692 -0.599313 1.73649 0
M  V30 2468 C 256.754 2.81309 2.23843 0
M  V30 2469 C 256.418 4.22313 1.74644 0
M  V30 2470 C 257.415 5.05352 1.22129 0
M  V30 2471 C 255.1 4.68648 1.80761 0
M  V30 2472 C 257.094 6.32807 0.763838 0
M  V30 2473 C 254.781 5.96086 1.34627 0
M  V30 2474 C 255.779 6.77996 0.825264 0
M  V30 2475 O 255.467 8.03045 0.370669 0
M  V30 2476 H 255.199 0.578022 0.350523 0
M  V30 2477 H 257.753 2.00263 0.456509 0
M  V30 2478 H 255.983 2.48133 2.96592 0
M  V30 2479 H 257.672 2.88524 2.85497 0
M  V30 2480 H 258.438 4.70736 1.16758 0
M  V30 2481 H 254.317 4.04979 2.20256 0
M  V30 2482 H 257.861 6.96689 0.356494 0
M  V30 2483 H 253.758 6.30205 1.39686 0
M  V30 2484 H 254.526 8.17021 0.491829 0
M  V30 2485 N 257.189 -0.644168 1.43834 0
M  V30 2486 C 258.152 -1.73857 1.49353 0
M  V30 2487 C 259.152 -1.56315 0.377112 0
M  V30 2488 O 260.342 -1.62048 0.639226 0
M  V30 2489 C 257.474 -3.12819 1.35488 0
M  V30 2490 H 258.667 -1.70342 2.46827 0
M  V30 2491 H 256.22 -0.856652 1.30733 0
M  V30 2492 H 256.955 -3.2194 0.390569 0
M  V30 2493 H 256.74 -3.26958 2.16428 0
M  V30 2494 H 258.23 -3.92606 1.42302 0
M  V30 2495 N 258.668 -1.30515 -0.883378 0
M  V30 2496 C 259.598 -1.19607 -2.00541 0
M  V30 2497 C 260.579 -0.086346 -1.69881 0
M  V30 2498 O 261.764 -0.268654 -1.92333 0
M  V30 2499 C 258.894 -0.888758 -3.35736 0
M  V30 2500 C 257.848 -1.95659 -3.8066 0
M  V30 2501 C 257.174 -1.50224 -5.13164 0
M  V30 2502 C 258.474 -3.36788 -3.99213 0
M  V30 2503 H 260.168 -2.13476 -2.09925 0
M  V30 2504 H 257.714 -1.02775 -1.00863 0
M  V30 2505 H 259.667 -0.799094 -4.13754 0
M  V30 2506 H 258.391 0.0856125 -3.26488 0
M  V30 2507 H 257.05 -2.03591 -3.04871 0
M  V30 2508 H 256.698 -0.516092 -5.00345 0
M  V30 2509 H 256.398 -2.2165 -5.44192 0
M  V30 2510 H 257.922 -1.42639 -5.93706 0
M  V30 2511 H 259.336 -3.31605 -4.67665 0
M  V30 2512 H 257.733 -4.06314 -4.41621 0
M  V30 2513 H 258.803 -3.78561 -3.03017 0
M  V30 2514 N 260.146 1.09593 -1.13257 0
M  V30 2515 C 261.076 2.18214 -0.830946 0
M  V30 2516 C 262.057 1.68812 0.208966 0
M  V30 2517 O 263.242 1.9408 0.0682666 0
M  V30 2518 C 260.372 3.46051 -0.294296 0
M  V30 2519 C 259.326 4.08778 -1.26826 0
M  V30 2520 C 258.652 5.31419 -0.591449 0
M  V30 2521 C 259.952 4.51476 -2.62615 0
M  V30 2522 H 261.646 2.43703 -1.73923 0
M  V30 2523 H 259.192 1.17128 -0.837675 0
M  V30 2524 H 261.145 4.2134 -0.0709606 0
M  V30 2525 H 259.869 3.20079 0.649366 0
M  V30 2526 H 258.528 3.35505 -1.47756 0
M  V30 2527 H 258.176 5.01727 0.357633 0
M  V30 2528 H 257.876 5.74341 -1.24123 0
M  V30 2529 H 259.4 6.09433 -0.377355 0
M  V30 2530 H 260.814 5.17999 -2.45663 0
M  V30 2531 H 259.211 5.05277 -3.23752 0
M  V30 2532 H 260.281 3.63962 -3.20406 0
M  V30 2533 N 261.624 0.925811 1.2754 0
M  V30 2534 C 263.035 0.610102 1.7645 0
M  V30 2535 C 263.386 -0.874723 1.75622 0
M  V30 2536 O 262.511 -1.68444 1.35851 0
M  V30 2537 C 263.106 1.10073 3.20421 0
M  V30 2538 C 261.665 0.835723 3.67005 0
M  V30 2539 C 260.812 1.26054 2.46993 0
M  V30 2540 H 263.763 1.10579 1.13833 0
M  V30 2541 H 263.784 0.447557 3.77859 0
M  V30 2542 H 263.296 2.18143 3.20991 0
M  V30 2543 H 261.397 -0.231249 3.71882 0
M  V30 2544 H 261.51 1.45193 4.56569 0
M  V30 2545 H 259.874 0.679111 2.45479 0
M  V30 2546 H 260.657 2.34984 2.50275 0
M  V30 2547 N 263.102 -1.41638 0.69111 0
M  V30 2548 C 264.348 -2.01598 0.220519 0
M  V30 2549 C 264.681 -1.54594 -1.17535 0
M  V30 2550 O 263.956 -0.755177 -1.79241 0
M  V30 2551 C 264.239 -3.59062 0.273243 0
M  V30 2552 C 264.092 -4.16203 1.70573 0
M  V30 2553 C 265.411 -4.38546 -0.369457 0
M  V30 2554 H 262.53 -0.732468 0.0816045 0
M  V30 2555 H 265.172 -1.68445 0.878986 0
M  V30 2556 H 263.322 -3.87435 -0.287411 0
M  V30 2557 H 264.994 -3.98722 2.31989 0
M  V30 2558 H 263.237 -3.71414 2.2413 0
M  V30 2559 H 263.908 -5.25358 1.69419 0
M  V30 2560 H 266.384 -4.1596 0.107977 0
M  V30 2561 H 265.26 -5.48069 -0.302002 0
M  V30 2562 H 265.521 -4.17662 -1.44951 0
M  V30 2563 N 264.58 -0.43555 -1.51462 0
M  V30 2564 C 265.996 -0.0877501 -1.59359 0
M  V30 2565 C 266.196 1.4027 -1.4466 0
M  V30 2566 O 265.252 2.17243 -1.28693 0
M  V30 2567 C 266.565 -0.606264 -2.94525 0
M  V30 2568 C 268.113 -0.566548 -3.0783 0
M  V30 2569 C 268.588 -1.06201 -4.45517 0
M  V30 2570 N 270.079 -1.01992 -4.51832 0
M  V30 2571 C 270.814 -1.37417 -5.5669 0
M  V30 2572 N 270.31 -1.80119 -6.68976 0
M  V30 2573 N 272.103 -1.29245 -5.47039 0
M  V30 2574 H 264.254 -1.40533 -1.59261 0
M  V30 2575 H 266.517 -0.578992 -0.750648 0
M  V30 2576 H 266.223 -1.64901 -3.10645 0
M  V30 2577 H 266.097 -0.0302097 -3.77188 0
M  V30 2578 H 268.484 0.467208 -2.91378 0
M  V30 2579 H 268.565 -1.17898 -2.2701 0
M  V30 2580 H 268.209 -2.09422 -4.62715 0
M  V30 2581 H 268.139 -0.426127 -5.24873 0
M  V30 2582 H 270.63 -0.706308 -3.71241 0
M  V30 2583 H 270.943 -2.05392 -7.45006 0
M  V30 2584 H 269.288 -1.84044 -6.70189 0
M  V30 2585 H 272.479 -0.957522 -4.58202 0
M  V30 2586 H 272.652 -1.57182 -6.28648 0
M  V30 2587 N 266.058 1.56714 -0.166846 0
M  V30 2588 C 267.283 2.01557 0.488833 0
M  V30 2589 C 267.708 1.0463 1.56314 0
M  V30 2590 O 267.066 0.0251304 1.81283 0
M  V30 2591 C 267.114 3.4503 1.04818 0
M  V30 2592 O 266.218 3.51163 2.16236 0
M  V30 2593 H 265.559 0.653516 0.117526 0
M  V30 2594 H 268.089 2.02818 -0.269421 0
M  V30 2595 H 268.099 3.84243 1.37191 0
M  V30 2596 H 266.774 4.15077 0.261572 0
M  V30 2597 H 265.351 3.23807 1.84942 0
M  V30 2598 N 267.536 -0.106894 1.57237 0
M  V30 2599 C 268.466 -1.13148 2.04254 0
M  V30 2600 C 269.447 -1.42476 0.929224 0
M  V30 2601 O 270.632 -1.52709 1.19973 0
M  V30 2602 C 267.762 -2.4545 2.45706 0
M  V30 2603 C 266.716 -2.30558 3.60592 0
M  V30 2604 C 266.042 -3.67931 3.87983 0
M  V30 2605 C 267.342 -1.75597 4.91897 0
M  V30 2606 H 269.036 -0.740374 2.90101 0
M  V30 2607 H 266.582 -0.354696 1.39563 0
M  V30 2608 H 268.535 -3.17389 2.77205 0
M  V30 2609 H 267.259 -2.86475 1.56843 0
M  V30 2610 H 265.918 -1.61067 3.29322 0
M  V30 2611 H 265.566 -4.06462 2.96306 0
M  V30 2612 H 265.266 -3.58817 4.65322 0
M  V30 2613 H 266.79 -4.41356 4.21945 0
M  V30 2614 H 268.204 -2.37364 5.21854 0
M  V30 2615 H 266.601 -1.77272 5.73319 0
M  V30 2616 H 267.671 -0.714451 4.79608 0
M  V30 2617 N 269.014 -1.53014 -0.377408 0
M  V30 2618 C 269.944 -1.81589 -1.46791 0
M  V30 2619 C 270.925 -0.668622 -1.56408 0
M  V30 2620 O 272.11 -0.917337 -1.71168 0
M  V30 2621 C 269.24 -1.99519 -2.8427 0
M  V30 2622 C 268.194 -3.15249 -2.89486 0
M  V30 2623 C 267.52 -3.18451 -4.29527 0
M  V30 2624 C 268.82 -4.54084 -2.58079 0
M  V30 2625 H 270.514 -2.7291 -1.23127 0
M  V30 2626 H 268.06 -1.31319 -0.590883 0
M  V30 2627 H 270.013 -2.18092 -3.60575 0
M  V30 2628 H 268.737 -1.04897 -3.09296 0
M  V30 2629 H 267.396 -2.96477 -2.15631 0
M  V30 2630 H 267.044 -2.2149 -4.5161 0
M  V30 2631 H 266.744 -3.962 -4.33934 0
M  V30 2632 H 268.268 -3.39193 -5.07721 0
M  V30 2633 H 269.682 -4.72899 -3.24098 0
M  V30 2634 H 268.079 -5.33987 -2.7382 0
M  V30 2635 H 269.149 -4.60006 -1.53372 0
M  V30 2636 N 270.492 0.636531 -1.44174 0
M  V30 2637 C 271.455 1.73063 -1.50273 0
M  V30 2638 C 272.455 1.56113 -0.385397 0
M  V30 2639 O 273.645 1.61707 -0.64781 0
M  V30 2640 C 270.777 3.12096 -1.37145 0
M  V30 2641 H 271.97 1.69031 -2.47727 0
M  V30 2642 H 269.523 0.849706 -1.31186 0
M  V30 2643 H 270.258 3.21728 -0.407636 0
M  V30 2644 H 270.043 3.25805 -2.18159 0
M  V30 2645 H 271.533 3.91846 -1.44382 0
M  V30 2646 N 271.97 1.30982 0.876444 0
M  V30 2647 C 273.219 1.19658 1.62373 0
M  V30 2648 C 273.532 -0.245636 1.94052 0
M  V30 2649 O 274.738 -0.48049 2.67214 0
M  V30 2650 C 273.194 2.09433 2.92687 0
M  V30 2651 C 272.802 3.58613 2.68516 0
M  V30 2652 C 274.546 2.06893 3.70669 0
M  V30 2653 C 272.453 4.40416 3.94699 0
M  V30 2654 H 271.383 0.444268 0.609214 0
M  V30 2655 H 274.034 1.55791 0.969605 0
M  V30 2656 H 272.416 1.66191 3.59439 0
M  V30 2657 H 273.59 4.10058 2.10212 0
M  V30 2658 H 271.905 3.63063 2.03898 0
M  V30 2659 H 274.502 2.65258 4.64265 0
M  V30 2660 H 274.845 1.05448 4.02724 0
M  V30 2661 H 275.378 2.48301 3.10792 0
M  V30 2662 H 272.117 5.42591 3.67798 0
M  V30 2663 H 271.637 3.93731 4.52477 0
M  V30 2664 H 273.316 4.52294 4.62644 0
M  V30 2665 N 273.449 -1.08991 1.13837 0
M  V30 2666 C 274.697 -1.80899 0.901098 0
M  V30 2667 C 275.018 -1.86356 -0.574134 0
M  V30 2668 O 274.288 -1.35235 -1.41733 0
M  V30 2669 H 272.868 -0.669966 0.330386 0
M  V30 2670 H 275.53 -1.318 1.43578 0
M  V30 2671 H 274.626 -2.83929 1.29578 0
M  V30 2672 N 274.927 -0.932562 -1.27047 0
M  V30 2673 C 276.174 -0.575559 -1.94148 0
M  V30 2674 C 276.502 0.883984 -1.73251 0
M  V30 2675 O 275.757 1.64655 -1.0577 0
M  V30 2676 C 276.056 -0.853713 -3.47054 0
M  V30 2677 C 275.722 -2.29577 -3.88079 0
M  V30 2678 C 274.384 -2.68999 -3.9899 0
M  V30 2679 C 276.736 -3.23331 -4.08787 0
M  V30 2680 C 274.064 -4.01289 -4.28 0
M  V30 2681 C 276.416 -4.55207 -4.39282 0
M  V30 2682 C 275.08 -4.94457 -4.48407 0
M  V30 2683 H 274.35 -0.210612 -0.710439 0
M  V30 2684 H 276.997 -1.17744 -1.51025 0
M  V30 2685 H 275.302 -0.169204 -3.91434 0
M  V30 2686 H 276.999 -0.55639 -3.97121 0
M  V30 2687 H 273.589 -1.97994 -3.80127 0
M  V30 2688 H 277.773 -2.94074 -3.99793 0
M  V30 2689 H 273.029 -4.31374 -4.33275 0
M  V30 2690 H 277.203 -5.27852 -4.54252 0
M  V30 2691 H 274.83 -5.96994 -4.7064 0
M  V30 2692 N 276.405 1.4127 -0.698611 0
M  V30 2693 C 277.653 2.00782 -0.230409 0
M  V30 2694 C 277.974 1.5562 1.17505 0
M  V30 2695 O 277.244 0.78815 1.79346 0
M  V30 2696 H 275.824 0.742464 -0.0821944 0
M  V30 2697 H 278.486 1.72852 -0.90045 0
M  V30 2698 H 277.582 3.11095 -0.25021 0
M  V30 2699 N 277.883 0.443576 1.51229 0
M  V30 2700 C 278.813 -0.355142 2.30783 0
M  V30 2701 C 279.794 -1.0154 1.36468 0
M  V30 2702 O 280.979 -1.01785 1.65389 0
M  V30 2703 C 278.109 -1.45312 3.15439 0
M  V30 2704 C 277.063 -0.916002 4.18083 0
M  V30 2705 C 276.389 -2.1102 4.91299 0
M  V30 2706 C 277.689 0.0538602 5.22272 0
M  V30 2707 H 279.383 0.308767 2.97804 0
M  V30 2708 H 276.929 0.149937 1.43217 0
M  V30 2709 H 278.882 -2.01914 3.69876 0
M  V30 2710 H 277.606 -2.14541 2.46252 0
M  V30 2711 H 276.265 -0.372145 3.64706 0
M  V30 2712 H 275.913 -2.78882 4.18609 0
M  V30 2713 H 275.613 -1.75717 5.60712 0
M  V30 2714 H 277.137 -2.68164 5.48562 0
M  V30 2715 H 278.551 -0.422069 5.71744 0
M  V30 2716 H 276.948 0.319776 5.99247 0
M  V30 2717 H 278.018 0.98858 4.74716 0
M  V30 2718 N 279.361 -1.56624 0.175154 0
M  V30 2719 C 280.607 -1.9729 -0.469506 0
M  V30 2720 C 280.94 -1.06128 -1.62636 0
M  V30 2721 O 280.215 -0.109183 -1.94193 0
M  V30 2722 C 280.498 -3.47375 -0.948804 0
M  V30 2723 C 280.351 -4.49317 0.208491 0
M  V30 2724 C 281.67 -4.00652 -1.82116 0
M  V30 2725 H 278.789 -0.717317 -0.16919 0
M  V30 2726 H 281.431 -1.88184 0.262062 0
M  V30 2727 H 279.581 -3.55267 -1.57219 0
M  V30 2728 H 281.253 -4.53482 0.845682 0
M  V30 2729 H 279.496 -4.25121 0.863395 0
M  V30 2730 H 280.167 -5.51741 -0.169059 0
M  V30 2731 H 282.643 -3.95416 -1.2956 0
M  V30 2732 H 281.519 -5.06075 -2.12554 0
M  V30 2733 H 281.78 -3.44699 -2.7683 0
M  V30 2734 N 280.839 0.0985539 -1.57292 0
M  V30 2735 C 282.085 0.803867 -1.86188 0
M  V30 2736 C 282.418 1.78549 -0.763794 0
M  V30 2737 O 281.693 1.93153 0.22855 0
M  V30 2738 C 281.976 1.53568 -3.25713 0
M  V30 2739 C 281.829 0.572277 -4.46145 0
M  V30 2740 C 283.148 2.48708 -3.63087 0
M  V30 2741 H 280.267 0.290781 -0.677211 0
M  V30 2742 H 282.909 0.0675783 -1.8988 0
M  V30 2743 H 281.059 2.16332 -3.22696 0
M  V30 2744 H 282.731 -0.0480894 -4.61275 0
M  V30 2745 H 280.974 -0.114618 -4.33649 0
M  V30 2746 H 281.645 1.12139 -5.40489 0
M  V30 2747 H 284.121 1.96039 -3.67026 0
M  V30 2748 H 282.997 2.96932 -4.61652 0
M  V30 2749 H 283.258 3.32309 -2.91588 0
M  V30 2750 N 282.317 1.53212 0.369288 0
M  V30 2751 C 283.28 1.7872 1.43498 0
M  V30 2752 C 284.28 0.657554 1.46741 0
M  V30 2753 O 285.47 0.925736 1.47566 0
M  V30 2754 C 282.602 1.90591 2.82645 0
M  V30 2755 H 283.795 2.73894 1.22156 0
M  V30 2756 H 281.348 1.44233 0.602203 0
M  V30 2757 H 282.083 0.974709 3.09306 0
M  V30 2758 H 281.868 2.72751 2.8169 0
M  V30 2759 H 283.358 2.11931 3.59826 0
M  V30 2760 N 283.795 -0.628877 1.44509 0
M  V30 2761 C 284.758 -1.72263 1.51188 0
M  V30 2762 C 285.758 -1.55907 0.39367 0
M  V30 2763 O 286.948 -1.61361 0.656377 0
M  V30 2764 C 284.08 -3.11365 1.38798 0
M  V30 2765 H 285.273 -1.67714 2.4862 0
M  V30 2766 H 282.826 -0.842737 1.31634 0
M  V30 2767 H 283.561 -3.21507 0.424693 0
M  V30 2768 H 283.346 -3.24644 2.19884 0
M  V30 2769 H 284.836 -3.91075 1.46458 0
M  V30 2770 N 285.273 -1.31445 -0.869486 0
M  V30 2771 C 286.498 -1.24256 -1.66058 0
M  V30 2772 C 286.923 0.188928 -1.87149 0
M  V30 2773 O 286.281 1.13522 -1.4136 0
M  V30 2774 C 286.329 -1.9924 -3.00559 0
M  V30 2775 O 285.433 -1.33007 -3.90362 0
M  V30 2776 H 284.774 -0.428973 -0.506831 0
M  V30 2777 H 287.304 -1.73521 -1.08404 0
M  V30 2778 H 287.314 -2.08854 -3.50491 0
M  V30 2779 H 285.989 -3.03342 -2.84528 0
M  V30 2780 H 284.566 -1.31848 -3.48813 0
M  V30 2781 N 286.751 1.08385 -1.14413 0
M  V30 2782 C 287.701 2.13509 -0.79987 0
M  V30 2783 C 288.685 1.5951 0.211059 0
M  V30 2784 O 289.877 1.76995 0.0133694 0
M  V30 2785 C 287.006 3.42162 -0.279297 0
M  V30 2786 C 286.092 4.03042 -1.31976 0
M  V30 2787 N 286.483 4.38327 -2.52395 0
M  V30 2788 C 284.781 4.30379 -1.17004 0
M  V30 2789 C 285.482 4.86428 -3.19003 0
M  V30 2790 N 284.458 4.84547 -2.46405 0
M  V30 2791 H 288.26 2.38609 -1.7159 0
M  V30 2792 H 285.774 1.2572 -1.02802 0
M  V30 2793 H 287.771 4.16898 -0.0143688 0
M  V30 2794 H 286.431 3.18511 0.630923 0
M  V30 2795 H 287.442 4.29349 -2.89621 0
M  V30 2796 H 284.119 4.16281 -0.318854 0
M  V30 2797 H 285.509 5.23107 -4.21674 0
M  V30 2798 N 288.23 0.939286 1.26551 0
M  V30 2799 C 289.16 0.465044 2.28822 0
M  V30 2800 C 290.141 -0.480692 1.63167 0
M  V30 2801 O 291.326 -0.382955 1.90387 0
M  V30 2802 C 288.456 -0.27234 3.46231 0
M  V30 2803 C 287.41 0.58666 4.2396 0
M  V30 2804 C 286.736 -0.280573 5.33963 0
M  V30 2805 C 288.036 1.85704 4.88171 0
M  V30 2806 H 289.73 1.31979 2.68741 0
M  V30 2807 H 287.276 0.636061 1.29191 0
M  V30 2808 H 289.229 -0.615133 4.16886 0
M  V30 2809 H 287.953 -1.16121 3.0526 0
M  V30 2810 H 286.612 0.91232 3.55067 0
M  V30 2811 H 286.26 -1.16874 4.89234 0
M  V30 2812 H 285.96 0.29076 5.8688 0
M  V30 2813 H 287.484 -0.618678 6.07458 0
M  V30 2814 H 288.898 1.58161 5.51052 0
M  V30 2815 H 287.295 2.37279 5.51197 0
M  V30 2816 H 288.365 2.56957 4.11219 0
M  V30 2817 N 289.708 -1.40897 0.706093 0
M  V30 2818 C 290.638 -2.33418 0.0620085 0
M  V30 2819 C 291.619 -1.52385 -0.755827 0
M  V30 2820 O 292.804 -1.80886 -0.706674 0
M  V30 2821 C 289.934 -3.36293 -0.867445 0
M  V30 2822 C 288.888 -4.27716 -0.155932 0
M  V30 2823 C 288.214 -5.2105 -1.20046 0
M  V30 2824 C 289.514 -5.12944 0.984149 0
M  V30 2825 H 291.208 -2.87527 0.83477 0
M  V30 2826 H 288.754 -1.38249 0.402875 0
M  V30 2827 H 290.707 -3.99949 -1.32735 0
M  V30 2828 H 289.431 -2.80556 -1.67199 0
M  V30 2829 H 288.09 -3.65498 0.284047 0
M  V30 2830 H 287.738 -4.61624 -1.99781 0
M  V30 2831 H 287.438 -5.83056 -0.729328 0
M  V30 2832 H 288.962 -5.87584 -1.66066 0
M  V30 2833 H 290.376 -5.70109 0.604048 0
M  V30 2834 H 288.773 -5.83945 1.38304 0
M  V30 2835 H 289.843 -4.49485 1.81911 0
M  V30 2836 N 291.186 -0.45159 -1.50991 0
M  V30 2837 C 292.432 0.110237 -2.025 0
M  V30 2838 C 292.765 1.41109 -1.33424 0
M  V30 2839 O 292.04 1.89135 -0.453659 0
M  V30 2840 C 292.323 0.314271 -3.58726 0
M  V30 2841 C 292.176 -1.00623 -4.38401 0
M  V30 2842 C 293.495 1.07767 -4.26702 0
M  V30 2843 H 290.614 0.0385897 -0.735989 0
M  V30 2844 H 293.256 -0.593374 -1.80497 0
M  V30 2845 H 291.406 0.913601 -3.77605 0
M  V30 2846 H 293.078 -1.64064 -4.31139 0
M  V30 2847 H 291.321 -1.6075 -4.02917 0
M  V30 2848 H 291.992 -0.817341 -5.45915 0
M  V30 2849 H 294.468 0.56986 -4.12179 0
M  V30 2850 H 293.344 1.18921 -5.35863 0
M  V30 2851 H 293.605 2.10939 -3.88532 0
M  V30 2852 N 292.664 1.56529 -0.183458 0
M  V30 2853 C 293.892 2.01623 0.464285 0
M  V30 2854 C 294.307 1.06366 1.55986 0
M  V30 2855 O 293.664 0.0665398 1.82379 0
M  V30 2856 C 293.715 3.46475 1.03139 0
M  V30 2857 O 293.436 4.38095 -0.0204675 0
M  V30 2858 C 294.937 4.0703 1.75617 0
M  V30 2859 H 292.157 0.660596 0.117704 0
M  V30 2860 H 294.701 2.02451 -0.288751 0
M  V30 2861 H 292.856 3.46383 1.73486 0
M  V30 2862 H 293.27 5.22973 0.399952 0
M  V30 2863 H 294.744 5.10271 2.10542 0
M  V30 2864 H 295.221 3.49819 2.65563 0
M  V30 2865 H 295.827 4.1086 1.09882 0
M  V30 2866 N 294.142 -0.090211 1.57342 0
M  V30 2867 C 295.105 -1.09335 2.01441 0
M  V30 2868 C 296.105 -1.32666 0.908641 0
M  V30 2869 O 297.295 -1.28697 1.174 0
M  V30 2870 C 294.427 -2.44136 2.3793 0
M  V30 2871 H 295.62 -0.713662 2.91285 0
M  V30 2872 H 293.173 -0.335404 1.52659 0
M  V30 2873 H 293.908 -2.86972 1.51055 0
M  V30 2874 H 293.693 -2.28548 3.18603 0
M  V30 2875 H 295.183 -3.16277 2.72688 0
M  V30 2876 N 295.62 -1.53406 -0.361157 0
M  V30 2877 C 296.848 -1.73717 -1.12383 0
M  V30 2878 C 297.263 -0.468161 -1.82904 0
M  V30 2879 O 296.62 0.559198 -1.73722 0
M  V30 2880 C 296.671 -2.90558 -2.15078 0
M  V30 2881 O 296.392 -4.12549 -1.47428 0
M  V30 2882 C 297.893 -3.22777 -3.03858 0
M  V30 2883 H 295.113 -0.580896 -0.335858 0
M  V30 2884 H 297.657 -2.00167 -0.418728 0
M  V30 2885 H 295.812 -2.66489 -2.8118 0
M  V30 2886 H 296.226 -4.78009 -2.15887 0
M  V30 2887 H 297.7 -4.07927 -3.71887 0
M  V30 2888 H 298.177 -2.38329 -3.68912 0
M  V30 2889 H 298.783 -3.48787 -2.43367 0
M  V30 2890 N 297.098 0.621204 -1.44841 0
M  V30 2891 C 298.028 1.74366 -1.55303 0
M  V30 2892 C 299.009 1.65199 -0.405385 0
M  V30 2893 O 300.194 1.83807 -0.626787 0
M  V30 2894 C 297.324 3.12931 -1.50637 0
M  V30 2895 C 296.278 3.36896 -2.63979 0
M  V30 2896 C 295.604 4.75594 -2.44366 0
M  V30 2897 C 296.904 3.28483 -4.06074 0
M  V30 2898 H 298.598 1.65867 -2.49256 0
M  V30 2899 H 296.144 0.796558 -1.19962 0
M  V30 2900 H 298.097 3.9124 -1.56555 0
M  V30 2901 H 296.821 3.22237 -0.532057 0
M  V30 2902 H 295.48 2.60972 -2.57467 0
M  V30 2903 H 295.128 4.81616 -1.45105 0
M  V30 2904 H 294.828 4.92586 -3.20364 0
M  V30 2905 H 296.352 5.5612 -2.52117 0
M  V30 2906 H 297.766 3.96684 -4.13902 0
M  V30 2907 H 296.163 3.57008 -4.82354 0
M  V30 2908 H 297.233 2.26133 -4.28943 0
M  V30 2909 N 298.576 1.31904 0.862503 0
M  V30 2910 C 299.822 1.22197 1.61851 0
M  V30 2911 C 300.155 -0.217641 1.92977 0
M  V30 2912 O 299.43 -1.15264 1.56666 0
M  V30 2913 C 299.713 2.07378 2.94391 0
M  V30 2914 C 299.566 3.59678 2.70096 0
M  V30 2915 C 300.885 1.92891 3.95577 0
M  V30 2916 H 298.004 0.445255 0.587296 0
M  V30 2917 H 300.646 1.6177 0.99651 0
M  V30 2918 H 298.796 1.73758 3.47477 0
M  V30 2919 H 300.468 4.03472 2.23625 0
M  V30 2920 H 298.711 3.82735 2.04197 0
M  V30 2921 H 299.382 4.14595 3.64438 0
M  V30 2922 H 301.858 2.22327 3.51724 0
M  V30 2923 H 300.734 2.54781 4.86187 0
M  V30 2924 H 300.995 0.894315 4.3296 0
M  V30 2925 N 300.054 -1.07777 1.14986 0
M  V30 2926 C 301.465 -1.61766 0.932127 0
M  V30 2927 C 301.816 -1.88974 -0.527581 0
M  V30 2928 O 300.941 -1.65198 -1.39781 0
M  V30 2929 C 301.536 -2.93891 1.68563 0
M  V30 2930 C 300.095 -3.44639 1.5133 0
M  V30 2931 C 299.242 -2.18767 1.704 0
M  V30 2932 H 302.193 -0.909201 1.30074 0
M  V30 2933 H 302.214 -3.62623 1.15259 0
M  V30 2934 H 301.726 -2.74057 2.74799 0
M  V30 2935 H 299.827 -3.69564 0.474702 0
M  V30 2936 H 299.94 -4.20966 2.28746 0
M  V30 2937 H 298.304 -2.28253 1.13016 0
M  V30 2938 H 299.087 -2.01433 2.77992 0
M  V30 2939 N 301.532 -0.945985 -1.26051 0
M  V30 2940 C 302.495 -0.463897 -2.24456 0
M  V30 2941 C 303.495 0.427655 -1.55009 0
M  V30 2942 O 304.685 0.226157 -1.72726 0
M  V30 2943 C 301.817 0.330812 -3.39291 0
M  V30 2944 H 303.01 -1.33357 -2.68619 0
M  V30 2945 H 300.563 -0.728416 -1.38289 0
M  V30 2946 H 301.298 1.21852 -3.00537 0
M  V30 2947 H 301.083 -0.308679 -3.90883 0
M  V30 2948 H 302.573 0.657865 -4.12386 0
M  V30 2949 N 303.011 1.40521 -0.713556 0
M  V30 2950 C 303.958 2.30723 -0.059684 0
M  V30 2951 C 304.928 1.48079 0.752448 0
M  V30 2952 O 306.113 1.76823 0.71681 0
M  V30 2953 C 303.253 3.34274 0.857594 0
M  V30 2954 C 302.366 4.31986 0.0351536 0
M  V30 2955 C 301.501 5.22605 0.951724 0
M  V30 2956 C 300.54 6.11976 0.123253 0
M  V30 2957 N 299.677 6.9502 0.99459 0
M  V30 2958 H 304.517 2.86074 -0.834596 0
M  V30 2959 H 302.054 1.40879 -0.42326 0
M  V30 2960 H 304.012 3.92879 1.40364 0
M  V30 2961 H 302.642 2.8043 1.59871 0
M  V30 2962 H 301.694 3.7518 -0.628052 0
M  V30 2963 H 303.006 4.95101 -0.606347 0
M  V30 2964 H 302.16 5.86131 1.56638 0
M  V30 2965 H 300.899 4.59759 1.62705 0
M  V30 2966 H 299.904 5.47482 -0.50435 0
M  V30 2967 H 301.129 6.76881 -0.548539 0
M  V30 2968 H 299.075 6.34764 1.6556 0
M  V30 2969 H 298.992 7.54892 0.40908 0
M  V30 2970 H 300.26 7.62997 1.59549 0
M  V30 2971 N 304.489 0.459591 1.5075 0
M  V30 2972 C 305.905 0.113092 1.59199 0
M  V30 2973 C 306.105 -1.37951 1.46874 0
M  V30 2974 O 305.161 -2.15168 1.32132 0
M  V30 2975 C 306.474 0.653043 2.93523 0
M  V30 2976 C 308.022 0.615449 3.0689 0
M  V30 2977 C 308.497 1.13275 4.43771 0
M  V30 2978 N 309.988 1.09167 4.50152 0
M  V30 2979 C 310.723 1.46256 5.54434 0
M  V30 2980 N 310.219 1.90739 6.66026 0
M  V30 2981 N 312.012 1.37932 5.44914 0
M  V30 2982 H 304.163 1.43049 1.57005 0
M  V30 2983 H 306.426 0.590861 0.741341 0
M  V30 2984 H 306.132 1.69822 3.07983 0
M  V30 2985 H 306.006 0.0902132 3.77092 0
M  V30 2986 H 308.393 -0.420793 2.92084 0
M  V30 2987 H 308.474 1.21495 2.25106 0
M  V30 2988 H 308.118 2.16757 4.59324 0
M  V30 2989 H 308.048 0.509576 5.24129 0
M  V30 2990 H 310.539 0.76528 3.7007 0
M  V30 2991 H 310.852 2.17218 7.41644 0
M  V30 2992 H 309.197 1.94683 6.67176 0
M  V30 2993 H 312.388 1.0303 4.56621 0
M  V30 2994 H 312.561 1.67164 6.26067 0
M  V30 2995 N 305.967 -1.56429 0.191757 0
M  V30 2996 C 307.378 -1.83912 -0.321428 0
M  V30 2997 C 307.729 -1.11231 -1.61623 0
M  V30 2998 O 306.854 -0.37202 -2.13178 0
M  V30 2999 C 307.449 -3.33624 -0.589961 0
M  V30 3000 C 306.008 -3.6153 -1.04753 0
M  V30 3001 C 305.155 -2.7714 -0.0943327 0
M  V30 3002 H 308.106 -1.53161 0.415612 0
M  V30 3003 H 308.127 -3.52213 -1.43966 0
M  V30 3004 H 307.639 -3.86495 0.352588 0
M  V30 3005 H 305.74 -3.14089 -2.00447 0
M  V30 3006 H 305.853 -4.69737 -0.942549 0
M  V30 3007 H 304.217 -2.47638 -0.595589 0
M  V30 3008 H 305 -3.32799 0.842601 0
M  V30 3009 N 307.445 0.0818655 -1.57387 0
M  V30 3010 C 308.861 0.436412 -1.53517 0
M  V30 3011 C 309.061 1.79758 -0.910459 0
M  V30 3012 O 308.117 2.47324 -0.508636 0
M  V30 3013 C 309.43 0.386734 -2.98203 0
M  V30 3014 C 310.978 0.467644 -3.09487 0
M  V30 3015 C 311.453 0.447978 -4.55804 0
M  V30 3016 N 312.944 0.508348 -4.60402 0
M  V30 3017 C 313.679 0.515184 -5.71081 0
M  V30 3018 N 313.175 0.477435 -6.91153 0
M  V30 3019 N 314.968 0.560988 -5.59294 0
M  V30 3020 H 307.119 -0.809546 -1.96367 0
M  V30 3021 H 309.382 -0.302733 -0.898363 0
M  V30 3022 H 309.088 -0.546539 -3.47427 0
M  V30 3023 H 308.962 1.20075 -3.57578 0
M  V30 3024 H 311.349 1.39134 -2.60242 0
M  V30 3025 H 311.43 -0.374753 -2.5304 0
M  V30 3026 H 311.074 -0.471826 -5.05704 0
M  V30 3027 H 311.004 1.30777 -5.10103 0
M  V30 3028 H 313.495 0.54218 -3.7399 0
M  V30 3029 H 313.808 0.486299 -7.71268 0
M  V30 3030 H 312.153 0.444278 -6.93579 0
M  V30 3031 H 315.344 0.5881 -4.64391 0
M  V30 3032 H 315.517 0.562846 -6.45551 0
M  V30 3033 N 308.923 1.53595 0.353017 0
M  V30 3034 C 309.853 1.83902 1.43883 0
M  V30 3035 C 310.834 0.693421 1.55324 0
M  V30 3036 O 312.019 0.944452 1.69687 0
M  V30 3037 C 309.149 2.04016 2.8106 0
M  V30 3038 C 308.103 3.19814 2.84434 0
M  V30 3039 C 307.429 3.25244 4.24406 0
M  V30 3040 C 308.729 4.58133 2.50822 0
M  V30 3041 H 310.423 2.74835 1.1877 0
M  V30 3042 H 307.969 1.32242 0.569917 0
M  V30 3043 H 309.922 2.238 3.57059 0
M  V30 3044 H 308.646 1.09804 3.07588 0
M  V30 3045 H 307.305 2.9987 2.10887 0
M  V30 3046 H 306.953 2.28646 4.48029 0
M  V30 3047 H 306.653 4.03054 4.27576 0
M  V30 3048 H 308.177 3.47228 5.0226 0
M  V30 3049 H 309.591 4.77995 3.16534 0
M  V30 3050 H 307.988 5.38276 2.6529 0
M  V30 3051 H 309.058 4.62387 1.46034 0
M  V30 3052 N 310.401 -0.613514 1.45168 0
M  V30 3053 C 311.647 -1.37279 1.50087 0
M  V30 3054 C 312.002 -1.91902 0.138294 0
M  V30 3055 O 311.295 -1.71764 -0.84899 0
M  V30 3056 C 311.489 -2.54347 2.51083 0
M  V30 3057 C 311.318 -2.11186 3.97027 0
M  V30 3058 C 310.088 -1.97636 4.65046 0
M  V30 3059 C 312.286 -1.69016 4.85735 0
M  V30 3060 N 310.268 -1.48224 5.95737 0
M  V30 3061 C 311.639 -1.30976 6.06008 0
M  V30 3062 C 313.694 -1.56555 4.72647 0
M  V30 3063 C 312.397 -0.817197 7.14643 0
M  V30 3064 C 314.423 -1.08702 5.81324 0
M  V30 3065 C 313.785 -0.716233 7.00749 0
M  V30 3066 H 309.884 -0.496478 0.60418 0
M  V30 3067 H 312.468 -0.701988 1.81605 0
M  V30 3068 H 310.639 -3.19031 2.21527 0
M  V30 3069 H 312.371 -3.21208 2.46187 0
M  V30 3070 H 309.126 -2.18638 4.20112 0
M  V30 3071 H 309.55 -1.25767 6.65216 0
M  V30 3072 H 314.192 -1.83849 3.80736 0
M  V30 3073 H 311.91 -0.531797 8.06348 0
M  V30 3074 H 315.496 -0.994943 5.7323 0
M  V30 3075 H 314.376 -0.351642 7.83411 0
M  V30 3076 N 311.879 -1.3236 -0.855495 0
M  V30 3077 C 313.295 -1.11332 -1.14356 0
M  V30 3078 C 313.495 0.106751 -2.01217 0
M  V30 3079 O 312.551 0.791891 -2.39761 0
M  V30 3080 C 313.864 -2.39237 -1.82171 0
M  V30 3081 C 315.412 -2.44986 -1.9481 0
M  V30 3082 C 315.887 -3.7281 -2.66039 0
M  V30 3083 N 317.378 -3.73787 -2.73565 0
M  V30 3084 C 318.113 -4.69394 -3.29327 0
M  V30 3085 N 317.609 -5.75367 -3.85907 0
M  V30 3086 N 319.402 -4.56893 -3.27423 0
M  V30 3087 H 311.553 -2.10586 -0.277027 0
M  V30 3088 H 313.816 -0.929701 -0.185364 0
M  V30 3089 H 313.522 -3.28431 -1.25802 0
M  V30 3090 H 313.396 -2.50134 -2.82335 0
M  V30 3091 H 315.783 -1.56252 -2.50338 0
M  V30 3092 H 315.864 -2.38043 -0.936448 0
M  V30 3093 H 315.508 -4.61918 -2.11174 0
M  V30 3094 H 315.438 -3.77024 -3.67642 0
M  V30 3095 H 317.929 -2.97189 -2.33424 0
M  V30 3096 H 318.242 -6.44378 -4.26611 0
M  V30 3097 H 316.587 -5.79123 -3.84242 0
M  V30 3098 H 319.778 -3.73269 -2.82467 0
M  V30 3099 H 319.951 -5.31577 -3.7058 0
M  V30 3100 N 313.357 1.07166 -1.15556 0
M  V30 3101 C 314.585 1.83514 -0.955519 0
M  V30 3102 C 315 1.82163 0.49621 0
M  V30 3103 O 314.357 1.23441 1.34419 0
M  V30 3104 C 314.408 3.30515 -1.46432 0
M  V30 3105 O 314.129 3.31937 -2.85918 0
M  V30 3106 C 315.63 4.23625 -1.30603 0
M  V30 3107 H 312.85 0.578926 -0.339244 0
M  V30 3108 H 315.394 1.35265 -1.53374 0
M  V30 3109 H 313.549 3.76106 -0.928584 0
M  V30 3110 H 313.963 4.23794 -3.09029 0
M  V30 3111 H 315.437 5.24831 -1.71047 0
M  V30 3112 H 315.914 4.38485 -0.250441 0
M  V30 3113 H 316.52 3.83871 -1.83094 0
M  V30 3114 N 314.835 0.952656 1.25548 0
M  V30 3115 C 315.765 0.489287 2.28316 0
M  V30 3116 C 316.746 -0.463359 1.63667 0
M  V30 3117 O 317.931 -0.36274 1.90782 0
M  V30 3118 C 315.061 -0.235603 3.465 0
M  V30 3119 C 314.015 0.631593 4.23314 0
M  V30 3120 C 313.341 -0.223923 5.34231 0
M  V30 3121 C 314.641 1.90871 4.86174 0
M  V30 3122 H 316.335 1.34822 2.67326 0
M  V30 3123 H 313.881 0.649728 1.28509 0
M  V30 3124 H 315.834 -0.570882 4.17515 0
M  V30 3125 H 314.558 -1.12877 3.06474 0
M  V30 3126 H 313.217 0.949929 3.54079 0
M  V30 3127 H 312.865 -1.11678 4.90446 0
M  V30 3128 H 312.565 0.35299 5.86539 0
M  V30 3129 H 314.089 -0.554214 6.0808 0
M  V30 3130 H 315.503 1.63997 5.49343 0
M  V30 3131 H 313.9 2.43112 5.4865 0
M  V30 3132 H 314.97 2.61304 4.08471 0
M  V30 3133 N 316.313 -1.40141 0.720998 0
M  V30 3134 C 317.561 -2.0039 0.262323 0
M  V30 3135 C 317.882 -1.57469 -1.15015 0
M  V30 3136 O 317.152 -0.816582 -1.78069 0
M  V30 3137 H 315.732 -0.741063 0.093996 0
M  V30 3138 H 318.394 -1.71398 0.927835 0
M  V30 3139 H 317.49 -3.10658 0.299671 0
M  V30 3140 N 317.792 -0.46758 -1.50504 0
M  V30 3141 C 318.755 0.317059 -2.26996 0
M  V30 3142 C 319.755 0.923513 -1.31635 0
M  V30 3143 O 320.945 0.793239 -1.55091 0
M  V30 3144 C 318.077 1.45134 -3.08462 0
M  V30 3145 H 319.27 -0.353723 -2.97807 0
M  V30 3146 H 316.823 -0.221545 -1.54722 0
M  V30 3147 H 317.558 2.15728 -2.4214 0
M  V30 3148 H 317.343 1.02232 -3.78538 0
M  V30 3149 H 318.833 2.00493 -3.66323 0
M  V30 3150 N 319.27 1.56325 -0.20005 0
M  V30 3151 C 320.218 2.20666 0.735482 0
M  V30 3152 C 321.212 1.17934 1.21605 0
M  V30 3153 O 322.418 1.36068 1.17837 0
M  V30 3154 H 318.793 0.70725 0.255542 0
M  V30 3155 H 320.764 2.9792 0.169166 0
M  V30 3156 C 319.513 2.88391 1.94232 0
M  V30 3157 H 318.836 3.67185 1.58161 0
M  V30 3158 H 320.276 3.3684 2.57517 0
M  V30 3159 C 318.735 1.89692 2.78421 0
M  V30 3160 O 319.265 1.40032 3.76502 0
M  V30 3161 N 317.471 1.57813 2.44015 0
M  V30 3162 H 317.018 1.9839 1.64314 0
M  V30 3163 H 316.976 0.920325 3.00628 0
M  V30 3164 N 320.748 -0.0735177 1.57428 0
M  V30 3165 C 321.711 -1.07192 2.02589 0
M  V30 3166 C 322.711 -1.31695 0.922661 0
M  V30 3167 O 323.901 -1.27445 1.18758 0
M  V30 3168 C 321.033 -2.41599 2.40506 0
M  V30 3169 H 322.226 -0.682727 2.92025 0
M  V30 3170 H 319.779 -0.319193 1.53006 0
M  V30 3171 H 320.514 -2.85354 1.5409 0
M  V30 3172 H 320.299 -2.25156 3.21009 0
M  V30 3173 H 321.789 -3.13367 2.76027 0
M  V30 3174 N 322.226 -1.5378 -0.344866 0
M  V30 3175 C 323.156 -1.84662 -1.42906 0
M  V30 3176 C 324.137 -0.701648 -1.54955 0
M  V30 3177 O 325.322 -0.953438 -1.69184 0
M  V30 3178 C 322.452 -2.05503 -2.79974 0
M  V30 3179 C 321.406 -3.21318 -2.82734 0
M  V30 3180 C 320.732 -3.2749 -4.22675 0
M  V30 3181 C 322.032 -4.59456 -2.48389 0
M  V30 3182 H 323.726 -2.75461 -1.17311 0
M  V30 3183 H 321.272 -1.32542 -0.562896 0
M  V30 3184 H 323.225 -2.25691 -3.55867 0
M  V30 3185 H 321.949 -1.11434 -3.07002 0
M  V30 3186 H 320.608 -3.00984 -2.09294 0
M  V30 3187 H 320.256 -2.31019 -4.4681 0
M  V30 3188 H 319.956 -4.05316 -4.25433 0
M  V30 3189 H 321.48 -3.49887 -5.00412 0
M  V30 3190 H 322.894 -4.79667 -3.13995 0
M  V30 3191 H 321.291 -5.39675 -2.62432 0
M  V30 3192 H 322.361 -4.63155 -1.4358 0
M  V30 3193 N 323.704 0.605807 -1.45491 0
M  V30 3194 C 324.634 1.72709 -1.57143 0
M  V30 3195 C 325.615 1.6476 -0.422884 0
M  V30 3196 O 326.8 1.83132 -0.646247 0
M  V30 3197 C 323.93 3.11316 -1.53948 0
M  V30 3198 C 322.884 3.34077 -2.67537 0
M  V30 3199 C 322.21 4.72975 -2.49397 0
M  V30 3200 C 323.51 3.24158 -4.09535 0
M  V30 3201 H 325.204 1.63214 -2.51001 0
M  V30 3202 H 322.75 0.78379 -1.208 0
M  V30 3203 H 324.703 3.89557 -1.60696 0
M  V30 3204 H 323.427 3.21655 -0.566205 0
M  V30 3205 H 322.086 2.58227 -2.6022 0
M  V30 3206 H 321.734 4.8005 -1.50205 0
M  V30 3207 H 321.434 4.8916 -3.25571 0
M  V30 3208 H 322.958 5.53414 -2.58002 0
M  V30 3209 H 324.372 3.92271 -4.18086 0
M  V30 3210 H 322.769 3.51872 -4.86113 0
M  V30 3211 H 323.839 2.2157 -4.31317 0
M  V30 3212 N 325.182 1.32811 0.848464 0
M  V30 3213 C 326.429 1.23724 1.60308 0
M  V30 3214 C 326.757 -0.1994 1.93475 0
M  V30 3215 O 326.012 -1.15406 1.5805 0
M  V30 3216 C 326.311 2.04831 2.92881 0
M  V30 3217 C 325.977 3.54125 2.79117 0
M  V30 3218 C 324.639 3.94829 2.7507 0
M  V30 3219 C 326.991 4.49036 2.64606 0
M  V30 3220 C 324.319 5.28675 2.544 0
M  V30 3221 C 326.671 5.83033 2.4547 0
M  V30 3222 C 325.335 6.22931 2.39819 0
M  V30 3223 H 324.605 0.452737 0.586609 0
M  V30 3224 H 327.252 1.64301 0.983743 0
M  V30 3225 H 325.557 1.57001 3.58968 0
M  V30 3226 H 327.254 1.95164 3.50303 0
M  V30 3227 H 323.844 3.21801 2.83094 0
M  V30 3228 H 328.028 4.18505 2.66772 0
M  V30 3229 H 323.284 5.58637 2.48465 0
M  V30 3230 H 327.458 6.56186 2.33222 0
M  V30 3231 H 325.085 7.26584 2.23562 0
M  V30 3232 N 326.66 -1.06551 1.16123 0
M  V30 3233 C 327.906 -1.79567 0.94252 0
M  V30 3234 C 328.239 -1.86869 -0.528547 0
M  V30 3235 O 327.514 -1.35838 -1.39206 0
M  V30 3236 C 327.797 -3.24195 1.56747 0
M  V30 3237 C 327.65 -3.24989 3.10969 0
M  V30 3238 C 328.969 -4.21678 1.25998 0
M  V30 3239 H 326.088 -0.651883 0.343828 0
M  V30 3240 H 328.73 -1.2463 1.43413 0
M  V30 3241 H 326.88 -3.71107 1.14942 0
M  V30 3242 H 328.552 -2.86258 3.61737 0
M  V30 3243 H 326.795 -2.63716 3.44436 0
M  V30 3244 H 327.466 -4.27005 3.49815 0
M  V30 3245 H 329.942 -3.83196 1.62174 0
M  V30 3246 H 328.818 -5.21146 1.7233 0
M  V30 3247 H 329.079 -4.4174 0.178367 0
M  V30 3248 N 328.138 -0.959301 -1.25041 0
M  V30 3249 C 329.386 -0.615393 -1.92503 0
M  V30 3250 C 329.707 0.850969 -1.75452 0
M  V30 3251 O 328.977 1.60658 -1.12098 0
M  V30 3252 H 327.557 -0.224613 -0.712431 0
M  V30 3253 H 330.219 -1.21855 -1.5211 0
M  V30 3254 H 329.315 -0.848738 -3.00338 0
M  V30 3255 N 329.616 1.39756 -0.72842 0
M  V30 3256 C 330.862 2.00942 -0.273892 0
M  V30 3257 C 331.195 1.57656 1.13394 0
M  V30 3258 O 330.47 0.802434 1.77176 0
M  V30 3259 C 330.753 3.58211 -0.368346 0
M  V30 3260 C 330.606 4.11534 -1.81548 0
M  V30 3261 C 331.925 4.39372 0.253054 0
M  V30 3262 H 329.044 0.730047 -0.100996 0
M  V30 3263 H 331.686 1.66056 -0.923337 0
M  V30 3264 H 329.836 3.88061 0.184588 0
M  V30 3265 H 331.508 3.92431 -2.42478 0
M  V30 3266 H 329.751 3.65341 -2.33898 0
M  V30 3267 H 330.422 5.20682 -1.83288 0
M  V30 3268 H 332.898 4.15527 -0.218224 0
M  V30 3269 H 331.774 5.48677 0.156585 0
M  V30 3270 H 332.035 4.21358 1.33826 0
M  V30 3271 N 331.094 0.475555 1.50254 0
M  V30 3272 C 332.042 -0.330276 2.30243 0
M  V30 3273 C 333.036 -0.986306 1.37726 0
M  V30 3274 O 334.242 -0.9169 1.54897 0
M  V30 3275 H 330.617 -0.125353 0.741479 0
M  V30 3276 H 332.588 0.364702 2.96163 0
M  V30 3277 C 331.337 -1.39704 3.18399 0
M  V30 3278 H 330.66 -0.901621 3.89501 0
M  V30 3279 H 332.1 -1.93336 3.77355 0
M  V30 3280 C 330.559 -2.4014 2.36293 0
M  V30 3281 O 331.089 -3.45504 2.04914 0
M  V30 3282 N 329.295 -2.1197 1.98789 0
M  V30 3283 H 328.842 -1.2631 2.24507 0
M  V30 3284 H 328.8 -2.79403 1.44157 0
M  V30 3285 N 332.573 -1.56217 0.208337 0
M  V30 3286 C 333.506 -2.15633 -0.746842 0
M  V30 3287 C 334.484 -1.09685 -1.20034 0
M  V30 3288 O 335.668 -1.3787 -1.28547 0
M  V30 3289 C 332.795 -2.72594 -2.01023 0
M  V30 3290 C 331.841 -3.91251 -1.69779 0
M  V30 3291 S 332.674 -5.28962 -0.834209 0
M  V30 3292 C 333.83 -5.89353 -2.10745 0
M  V30 3293 H 334.063 -2.96315 -0.241789 0
M  V30 3294 H 331.596 -1.54398 -0.00682183 0
M  V30 3295 H 333.554 -3.06053 -2.73572 0
M  V30 3296 H 332.215 -1.91929 -2.48641 0
M  V30 3297 H 331.408 -4.29562 -2.63614 0
M  V30 3298 H 331.01 -3.58869 -1.05303 0
M  V30 3299 H 333.302 -6.04522 -3.05875 0
M  V30 3300 H 334.245 -6.85661 -1.76845 0
M  V30 3301 H 334.653 -5.1807 -2.24196 0
M  V30 3302 N 334.051 0.0651679 -1.57465 0
M  V30 3303 C 335.281 0.774683 -1.91526 0
M  V30 3304 C 335.689 1.71305 -0.803196 0
M  V30 3305 O 335.032 1.82231 0.231881 0
M  V30 3306 C 335.094 1.61645 -3.21109 0
M  V30 3307 C 334.758 0.846753 -4.49087 0
M  V30 3308 C 335.755 0.163024 -5.19644 0
M  V30 3309 C 333.44 0.811966 -4.95694 0
M  V30 3310 C 335.434 -0.54519 -6.35064 0
M  V30 3311 C 333.121 0.0999836 -6.11018 0
M  V30 3312 C 334.119 -0.577388 -6.80555 0
M  V30 3313 O 333.807 -1.27789 -7.93678 0
M  V30 3314 H 333.539 0.225031 -0.637446 0
M  V30 3315 H 336.093 0.0377134 -2.05365 0
M  V30 3316 H 334.323 2.39638 -3.03497 0
M  V30 3317 H 336.012 2.20525 -3.40769 0
M  V30 3318 H 336.778 0.181163 -4.84662 0
M  V30 3319 H 332.657 1.32867 -4.41438 0
M  V30 3320 H 336.201 -1.07446 -6.89276 0
M  V30 3321 H 332.098 0.0797945 -6.45451 0
M  V30 3322 H 332.866 -1.18784 -8.09835 0
M  V30 3323 N 335.529 1.53961 0.336706 0
M  V30 3324 C 336.777 1.71197 1.07405 0
M  V30 3325 C 337.098 0.481475 1.88962 0
M  V30 3326 O 336.368 -0.504585 1.8929 0
M  V30 3327 H 334.948 0.631185 0.399517 0
M  V30 3328 H 337.61 1.91232 0.376323 0
M  V30 3329 H 336.706 2.58587 1.74755 0
M  V30 3330 N 337.007 -0.598083 1.45811 0
M  V30 3331 C 338.253 -1.35882 1.50545 0
M  V30 3332 C 338.586 -1.93616 0.150445 0
M  V30 3333 O 337.861 -1.75604 -0.83628 0
M  V30 3334 C 338.144 -2.49966 2.59208 0
M  V30 3335 C 337.997 -1.97367 4.04186 0
M  V30 3336 C 339.316 -3.52068 2.64076 0
M  V30 3337 H 336.435 -0.492717 0.548087 0
M  V30 3338 H 339.077 -0.673319 1.77669 0
M  V30 3339 H 337.227 -3.08443 2.3621 0
M  V30 3340 H 338.899 -1.43466 4.38423 0
M  V30 3341 H 337.142 -1.283 4.14393 0
M  V30 3342 H 337.813 -2.79649 4.75921 0
M  V30 3343 H 340.289 -3.03448 2.84708 0
M  V30 3344 H 339.165 -4.2937 3.41954 0
M  V30 3345 H 339.426 -4.08304 1.69531 0
M  V30 3346 N 338.485 -1.33259 -0.841409 0
M  V30 3347 C 339.732 -1.24572 -1.5965 0
M  V30 3348 C 340.06 0.189137 -1.93578 0
M  V30 3349 O 339.315 1.14566 -1.5866 0
M  V30 3350 C 339.614 -2.06381 -2.9179 0
M  V30 3351 C 339.28 -3.556 -2.77235 0
M  V30 3352 C 337.942 -3.96282 -2.72973 0
M  V30 3353 C 340.294 -4.50433 -2.62221 0
M  V30 3354 C 337.622 -5.30017 -2.51592 0
M  V30 3355 C 339.974 -5.84327 -2.42374 0
M  V30 3356 C 338.638 -6.24194 -2.36512 0
M  V30 3357 H 337.908 -0.455842 -0.5842 0
M  V30 3358 H 340.555 -1.6482 -0.975016 0
M  V30 3359 H 338.86 -1.58903 -3.5813 0
M  V30 3360 H 340.557 -1.97019 -3.49263 0
M  V30 3361 H 337.147 -3.23298 -2.81384 0
M  V30 3362 H 341.331 -4.19914 -2.64549 0
M  V30 3363 H 336.587 -5.59947 -2.45499 0
M  V30 3364 H 340.761 -6.57414 -2.29739 0
M  V30 3365 H 338.388 -7.27759 -2.19706 0
M  V30 3366 N 339.963 1.05934 -1.16686 0
M  V30 3367 C 341.209 1.79065 -0.95203 0
M  V30 3368 C 341.542 1.87147 0.518629 0
M  V30 3369 O 340.817 1.36574 1.38484 0
M  V30 3370 C 341.1 3.23359 -1.58464 0
M  V30 3371 C 340.953 3.23336 -3.12689 0
M  V30 3372 C 342.272 4.21004 -1.28232 0
M  V30 3373 H 339.391 0.65005 -0.34728 0
M  V30 3374 H 342.033 1.23868 -1.44072 0
M  V30 3375 H 340.183 3.70493 -1.16908 0
M  V30 3376 H 341.855 2.84336 -3.6325 0
M  V30 3377 H 340.098 2.61886 -3.4583 0
M  V30 3378 H 340.769 4.25144 -3.52075 0
M  V30 3379 H 343.245 3.8233 -1.64203 0
M  V30 3380 H 342.121 5.20225 -1.75092 0
M  V30 3381 H 342.382 4.41639 -0.201791 0
M  V30 3382 N 341.441 0.965919 1.2453 0
M  V30 3383 C 342.857 0.67216 1.44756 0
M  V30 3384 C 343.057 -0.766609 1.86347 0
M  V30 3385 O 342.113 -1.5407 2.00047 0
M  V30 3386 C 343.426 1.65473 2.51076 0
M  V30 3387 C 344.974 1.66716 2.64905 0
M  V30 3388 C 345.449 2.63766 3.74421 0
M  V30 3389 N 346.94 2.62198 3.81846 0
M  V30 3390 C 347.675 3.33966 4.66106 0
M  V30 3391 N 347.171 4.15245 5.54566 0
M  V30 3392 N 348.964 3.22799 4.60171 0
M  V30 3393 H 341.115 1.89553 0.958293 0
M  V30 3394 H 343.378 0.815979 0.482579 0
M  V30 3395 H 343.084 2.68296 2.27399 0
M  V30 3396 H 342.958 1.4261 3.49202 0
M  V30 3397 H 345.345 0.646057 2.87941 0
M  V30 3398 H 345.426 1.93642 1.67142 0
M  V30 3399 H 345.07 3.6601 3.52135 0
M  V30 3400 H 345 2.34121 4.71694 0
M  V30 3401 H 347.491 2.032 3.18619 0
M  V30 3402 H 347.804 4.66898 6.15814 0
M  V30 3403 H 346.149 4.1934 5.54237 0
M  V30 3404 H 349.34 2.58764 3.90075 0
M  V30 3405 H 349.513 3.78994 5.25612 0
M  V30 3406 N 342.919 -1.39368 0.735821 0
M  V30 3407 C 344.168 -1.99733 0.281004 0
M  V30 3408 C 344.481 -1.59055 -1.13846 0
M  V30 3409 O 345.687 -2.12262 -1.69284 0
M  V30 3410 C 344.143 -3.57057 0.451462 0
M  V30 3411 C 343.751 -4.06697 1.87886 0
M  V30 3412 C 345.495 -4.2446 0.0584616 0
M  V30 3413 C 343.402 -5.56598 1.99883 0
M  V30 3414 H 342.332 -0.747163 0.101311 0
M  V30 3415 H 344.983 -1.59357 0.909819 0
M  V30 3416 H 343.365 -3.95234 -0.246263 0
M  V30 3417 H 344.539 -3.79853 2.60861 0
M  V30 3418 H 342.854 -3.5196 2.22515 0
M  V30 3419 H 345.451 -5.34549 0.127099 0
M  V30 3420 H 345.794 -4.04444 -0.986433 0
M  V30 3421 H 346.327 -3.9146 0.707374 0
M  V30 3422 H 343.066 -5.81494 3.02564 0
M  V30 3423 H 342.586 -5.85242 1.31346 0
M  V30 3424 H 344.265 -6.22022 1.78039 0
M  V30 3425 N 344.397 -0.483516 -1.5 0
M  V30 3426 C 345.327 0.293829 -2.31644 0
M  V30 3427 C 346.308 0.978864 -1.39112 0
M  V30 3428 O 347.493 0.973644 -1.68029 0
M  V30 3429 C 344.623 1.36897 -3.19181 0
M  V30 3430 C 343.577 0.804833 -4.20365 0
M  V30 3431 C 342.903 1.9792 -4.96721 0
M  V30 3432 C 344.203 -0.192313 -5.21946 0
M  V30 3433 H 345.897 -0.387616 -2.9688 0
M  V30 3434 H 343.443 -0.187856 -1.42769 0
M  V30 3435 H 345.396 1.92037 -3.751 0
M  V30 3436 H 344.12 2.07936 -2.51853 0
M  V30 3437 H 342.779 0.275319 -3.65565 0
M  V30 3438 H 342.427 2.67686 -4.25856 0
M  V30 3439 H 342.127 1.60789 -5.65173 0
M  V30 3440 H 343.651 2.53526 -5.55479 0
M  V30 3441 H 345.065 0.270333 -5.72662 0
M  V30 3442 H 343.462 -0.478543 -5.98189 0
M  V30 3443 H 344.532 -1.11409 -4.71928 0
M  V30 3444 N 345.875 1.56104 -0.216619 0
M  V30 3445 C 347.103 2.02563 0.421413 0
M  V30 3446 C 347.518 1.0965 1.53695 0
M  V30 3447 O 346.875 0.10521 1.82196 0
M  V30 3448 C 346.926 3.48584 0.957665 0
M  V30 3449 O 346.647 4.37953 -0.113389 0
M  V30 3450 C 348.148 4.10664 1.66943 0
M  V30 3451 H 345.368 0.662944 0.103665 0
M  V30 3452 H 347.912 2.01793 -0.331629 0
M  V30 3453 H 346.067 3.49985 1.661 0
M  V30 3454 H 346.481 5.23704 0.288932 0
M  V30 3455 H 347.955 5.14622 1.99671 0
M  V30 3456 H 348.432 3.55373 2.58083 0
M  V30 3457 H 349.038 4.13098 1.01142 0
M  V30 3458 N 347.353 -0.0568162 1.57498 0
M  V30 3459 C 348.263 -1.08346 2.08083 0
M  V30 3460 C 349.279 -1.41439 1.01346 0
M  V30 3461 O 350.455 -1.51316 1.32912 0
M  V30 3462 C 347.52 -2.37352 2.52715 0
M  V30 3463 C 346.581 -2.11093 3.73816 0
M  V30 3464 C 345.814 -3.33949 4.1631 0
M  V30 3465 O 346.037 -4.43622 3.58547 0
M  V30 3466 O 344.971 -3.21279 5.08983 0
M  V30 3467 H 348.797 -0.683667 2.95905 0
M  V30 3468 H 346.382 -0.271965 1.46904 0
M  V30 3469 H 348.264 -3.13246 2.81877 0
M  V30 3470 H 346.939 -2.76681 1.68016 0
M  V30 3471 H 345.846 -1.32856 3.49714 0
M  V30 3472 H 347.179 -1.76637 4.59413 0
M  V30 3473 N 348.832 -1.54138 -0.328536 0
M  V30 3474 C 350.248 -1.44736 -0.672574 0
M  V30 3475 C 350.448 -0.616217 -1.91846 0
M  V30 3476 O 349.504 -0.113067 -2.52247 0
M  V30 3477 C 350.817 -2.884 -0.851217 0
M  V30 3478 C 352.365 -2.98271 -0.948877 0
M  V30 3479 C 352.84 -4.43074 -1.15973 0
M  V30 3480 N 354.331 -4.46665 -1.22658 0
M  V30 3481 C 355.066 -5.55857 -1.40751 0
M  V30 3482 N 354.562 -6.75026 -1.5592 0
M  V30 3483 N 356.355 -5.43495 -1.4342 0
M  V30 3484 H 348.506 -2.06661 0.490421 0
M  V30 3485 H 350.769 -0.934812 0.157579 0
M  V30 3486 H 350.475 -3.51699 -0.00704236 0
M  V30 3487 H 350.349 -3.34225 -1.74853 0
M  V30 3488 H 352.736 -2.35102 -1.78356 0
M  V30 3489 H 352.817 -2.55785 -0.0281435 0
M  V30 3490 H 352.461 -5.06827 -0.329915 0
M  V30 3491 H 352.391 -4.83165 -2.09426 0
M  V30 3492 H 354.882 -3.60797 -1.124 0
M  V30 3493 H 355.195 -7.54004 -1.69404 0
M  V30 3494 H 353.54 -6.77944 -1.53027 0
M  V30 3495 H 356.731 -4.49349 -1.31162 0
M  V30 3496 H 356.904 -6.28649 -1.57178 0
M  V30 3497 N 350.31 0.590341 -1.46126 0
M  V30 3498 C 351.535 1.37991 -1.54833 0
M  V30 3499 C 351.96 1.87163 -0.187506 0
M  V30 3500 O 351.318 1.61133 0.831008 0
M  V30 3501 C 351.366 2.54867 -2.55098 0
M  V30 3502 O 350.47 3.56061 -2.08073 0
M  V30 3503 H 349.811 0.411265 -0.521303 0
M  V30 3504 H 352.341 0.716819 -1.91632 0
M  V30 3505 H 352.351 3.01886 -2.74461 0
M  V30 3506 H 351.026 2.18429 -3.53923 0
M  V30 3507 H 349.603 3.15574 -1.98664 0
M  V30 3508 N 351.788 1.33704 0.83433 0
M  V30 3509 C 352.72 1.20172 1.9517 0
M  V30 3510 C 353.733 0.131572 1.62267 0
M  V30 3511 O 354.922 0.382406 1.74356 0
M  V30 3512 C 352.022 0.821716 3.28787 0
M  V30 3513 C 351.195 1.98446 3.89792 0
M  V30 3514 C 350.254 1.58469 5.01771 0
M  V30 3515 O 349.28 2.29968 5.20676 0
M  V30 3516 N 350.482 0.492291 5.78409 0
M  V30 3517 H 353.247 2.16429 2.07313 0
M  V30 3518 H 350.808 1.26509 1.0103 0
M  V30 3519 H 352.8 0.536291 4.01131 0
M  V30 3520 H 351.37 -0.0503058 3.1256 0
M  V30 3521 H 350.59 2.43526 3.09982 0
M  V30 3522 H 351.878 2.76236 4.27283 0
M  V30 3523 H 351.276 -0.102349 5.65607 0
M  V30 3524 H 349.833 0.266555 6.51255 0
M  V30 3525 N 353.266 -1.05314 1.17247 0
M  V30 3526 C 354.682 -1.30452 0.919473 0
M  V30 3527 C 354.882 -1.9703 -0.42209 0
M  V30 3528 O 353.938 -2.24311 -1.15935 0
M  V30 3529 C 355.251 -2.17551 2.07586 0
M  V30 3530 C 356.799 -2.30937 2.11275 0
M  V30 3531 C 357.274 -3.21396 3.26296 0
M  V30 3532 N 358.765 -3.28981 3.26076 0
M  V30 3533 C 359.5 -3.99095 4.11716 0
M  V30 3534 N 358.996 -4.71648 5.07465 0
M  V30 3535 N 360.789 -3.95247 3.9967 0
M  V30 3536 H 352.94 -0.604988 2.03602 0
M  V30 3537 H 355.203 -0.329368 0.888944 0
M  V30 3538 H 354.909 -1.75921 3.0454 0
M  V30 3539 H 354.783 -3.18182 2.02584 0
M  V30 3540 H 357.17 -2.71809 1.14907 0
M  V30 3541 H 357.251 -1.2994 2.20339 0
M  V30 3542 H 356.895 -2.81238 4.22927 0
M  V30 3543 H 356.825 -4.22395 3.14467 0
M  V30 3544 H 359.316 -2.77286 2.5675 0
M  V30 3545 H 359.629 -5.22705 5.6921 0
M  V30 3546 H 357.974 -4.70594 5.11435 0
M  V30 3547 H 361.165 -3.37691 3.24164 0
M  V30 3548 H 361.338 -4.4962 4.66632 0
M  V30 3549 N 354.744 -0.972509 -1.24016 0
M  V30 3550 C 355.691 -0.505969 -2.25186 0
M  V30 3551 C 356.661 0.451009 -1.5986 0
M  V30 3552 O 357.846 0.360307 -1.87367 0
M  V30 3553 C 354.986 0.193089 -3.44559 0
M  V30 3554 C 354.099 -0.803222 -4.24467 0
M  V30 3555 C 353.234 -0.0797793 -5.3114 0
M  V30 3556 C 352.273 -1.06583 -6.02749 0
M  V30 3557 N 351.41 -0.372074 -7.01113 0
M  V30 3558 H 356.25 -1.37351 -2.64459 0
M  V30 3559 H 353.787 -0.688419 -1.29997 0
M  V30 3560 H 355.745 0.615125 -4.1264 0
M  V30 3561 H 354.375 1.02455 -3.06109 0
M  V30 3562 H 353.427 -1.34368 -3.55878 0
M  V30 3563 H 354.739 -1.55494 -4.73944 0
M  V30 3564 H 353.893 0.400015 -6.0538 0
M  V30 3565 H 352.632 0.704597 -4.82583 0
M  V30 3566 H 351.637 -1.55645 -5.27309 0
M  V30 3567 H 352.862 -1.85074 -6.53395 0
M  V30 3568 H 350.808 0.393238 -6.5482 0
M  V30 3569 H 350.725 -1.06258 -7.48495 0
M  V30 3570 H 351.993 0.0855932 -7.79453 0
M  V30 3571 N 356.222 1.38976 -0.743202 0
M  V30 3572 C 357.185 2.28901 -0.117014 0
M  V30 3573 C 358.185 1.46698 0.658503 0
M  V30 3574 O 359.375 1.67274 0.486305 0
M  V30 3575 C 356.507 3.30309 0.84315 0
M  V30 3576 H 357.7 2.8578 -0.909373 0
M  V30 3577 H 355.253 1.47761 -0.509547 0
M  V30 3578 H 355.988 2.785 1.66157 0
M  V30 3579 H 355.773 3.91029 0.289594 0
M  V30 3580 H 357.263 3.97577 1.2776 0
M  V30 3581 N 357.7 0.491464 1.49741 0
M  V30 3582 C 358.947 -0.0564256 2.02421 0
M  V30 3583 C 359.275 -1.37872 1.37192 0
M  V30 3584 O 358.53 -1.89375 0.493508 0
M  V30 3585 C 358.829 -0.267329 3.56399 0
M  V30 3586 C 358.495 0.975775 4.40215 0
M  V30 3587 C 357.157 1.31655 4.62839 0
M  V30 3588 C 359.509 1.80251 4.89039 0
M  V30 3589 C 356.837 2.48375 5.31532 0
M  V30 3590 C 359.189 2.96116 5.59015 0
M  V30 3591 C 357.853 3.30585 5.79888 0
M  V30 3592 H 357.123 -0.0206476 0.740712 0
M  V30 3593 H 359.77 0.649686 1.80143 0
M  V30 3594 H 358.075 -1.05588 3.77304 0
M  V30 3595 H 359.772 -0.705549 3.94744 0
M  V30 3596 H 356.362 0.700315 4.2284 0
M  V30 3597 H 360.546 1.55239 4.71396 0
M  V30 3598 H 355.802 2.7533 5.45897 0
M  V30 3599 H 359.976 3.60509 5.95824 0
M  V30 3600 H 357.603 4.21132 6.32892 0
M  V30 3601 N 359.178 -1.55987 0.224894 0
M  V30 3602 C 360.108 -2.23426 -0.678457 0
M  V30 3603 C 361.089 -1.20709 -1.19847 0
M  V30 3604 O 362.274 -1.49304 -1.24186 0
M  V30 3605 C 359.404 -2.91676 -1.88527 0
M  V30 3606 C 358.358 -4.00893 -1.49896 0
M  V30 3607 C 357.684 -4.56455 -2.78483 0
M  V30 3608 C 358.984 -5.17769 -0.686461 0
M  V30 3609 H 360.678 -2.99175 -0.116173 0
M  V30 3610 H 358.224 -1.43897 -0.054436 0
M  V30 3611 H 360.177 -3.37547 -2.5227 0
M  V30 3612 H 358.901 -2.1338 -2.47258 0
M  V30 3613 H 357.56 -3.55758 -0.884985 0
M  V30 3614 H 357.208 -3.74886 -3.35365 0
M  V30 3615 H 356.908 -5.30169 -2.53368 0
M  V30 3616 H 358.432 -5.05047 -3.43162 0
M  V30 3617 H 359.846 -5.60001 -1.22767 0
M  V30 3618 H 358.243 -5.97735 -0.532259 0
M  V30 3619 H 359.313 -4.83932 0.306196 0
M  V30 3620 N 360.656 0.0484629 -1.57525 0
M  V30 3621 C 361.588 1.08222 -2.02041 0
M  V30 3622 C 362.601 1.33621 -0.930012 0
M  V30 3623 O 363.79 1.3145 -1.20761 0
M  V30 3624 C 360.89 2.42818 -2.36416 0
M  V30 3625 C 360.063 2.37049 -3.67596 0
M  V30 3626 C 359.122 3.53937 -3.89378 0
M  V30 3627 O 358.148 3.34308 -4.60681 0
M  V30 3628 N 359.35 4.75126 -3.3352 0
M  V30 3629 H 362.115 0.702946 -2.9134 0
M  V30 3630 H 359.676 0.236745 -1.6016 0
M  V30 3631 H 361.668 3.197 -2.48141 0
M  V30 3632 H 360.238 2.72661 -1.52888 0
M  V30 3633 H 359.458 1.45395 -3.66407 0
M  V30 3634 H 360.746 2.30318 -4.53686 0
M  V30 3635 H 360.144 4.93976 -2.75688 0
M  V30 3636 H 358.701 5.49439 -3.50656 0
M  V30 3637 N 362.134 1.5431 0.320358 0
M  V30 3638 C 363.097 1.83195 1.3774 0
M  V30 3639 C 364.097 0.703906 1.44575 0
M  V30 3640 O 365.287 0.972214 1.44546 0
M  V30 3641 C 362.419 1.99487 2.76438 0
M  V30 3642 H 363.612 2.77642 1.1338 0
M  V30 3643 H 361.165 1.46076 0.556012 0
M  V30 3644 H 361.9 1.07262 3.06048 0
M  V30 3645 H 361.685 2.81575 2.7287 0
M  V30 3646 H 363.175 2.23271 3.52902 0
M  V30 3647 N 363.613 -0.582584 1.46437 0
M  V30 3648 C 365.029 -0.905962 1.31394 0
M  V30 3649 C 365.229 -1.99468 0.285476 0
M  V30 3650 O 364.285 -2.50566 -0.311914 0
M  V30 3651 C 365.598 -1.3232 2.70022 0
M  V30 3652 C 367.146 -1.43604 2.78113 0
M  V30 3653 C 367.621 -1.88694 4.17323 0
M  V30 3654 N 369.112 -1.95887 4.19741 0
M  V30 3655 C 369.847 -2.32051 5.24347 0
M  V30 3656 N 369.343 -2.67006 6.39281 0
M  V30 3657 N 371.136 -2.32606 5.11713 0
M  V30 3658 H 363.287 0.1366 2.1196 0
M  V30 3659 H 365.55 -0.00155736 0.947999 0
M  V30 3660 H 365.256 -0.597242 3.46592 0
M  V30 3661 H 365.13 -2.28469 3.00136 0
M  V30 3662 H 367.517 -2.15286 2.01832 0
M  V30 3663 H 367.598 -0.457059 2.51684 0
M  V30 3664 H 367.242 -1.1759 4.941 0
M  V30 3665 H 367.172 -2.8755 4.4116 0
M  V30 3666 H 369.663 -1.71362 3.36814 0
M  V30 3667 H 369.976 -2.93554 7.14875 0
M  V30 3668 H 368.321 -2.64644 6.42642 0
M  V30 3669 H 371.512 -2.04721 4.2096 0
M  V30 3670 H 371.685 -2.60462 5.93349 0
M  V30 3671 N 365.091 -1.34144 -0.827227 0
M  V30 3672 C 366.316 -1.29476 -1.62021 0
M  V30 3673 C 366.741 0.129292 -1.87655 0
M  V30 3674 O 366.099 1.08967 -1.449 0
M  V30 3675 C 366.147 -2.08702 -2.94068 0
M  V30 3676 O 365.251 -1.45359 -3.85933 0
M  V30 3677 H 364.592 -0.444881 -0.492927 0
M  V30 3678 H 367.122 -1.76882 -1.02829 0
M  V30 3679 H 367.132 -2.19898 -3.43669 0
M  V30 3680 H 365.807 -3.12241 -2.74734 0
M  V30 3681 H 364.384 -1.42879 -3.44442 0
M  V30 3682 N 366.569 1.04691 -1.17803 0
M  V30 3683 C 367.809 1.79352 -0.980423 0
M  V30 3684 C 368.173 1.85853 0.481958 0
M  V30 3685 O 369.374 2.56656 0.798809 0
M  V30 3686 C 367.645 3.19088 -1.6099 0
M  V30 3687 S 369.204 4.10164 -1.55918 0
M  V30 3688 H 366.022 0.617631 -0.352211 0
M  V30 3689 H 368.624 1.25575 -1.49837 0
M  V30 3690 H 367.328 3.11962 -2.66661 0
M  V30 3691 H 366.859 3.77941 -1.09197 0
M  V30 3692 H 368.874 4.92907 -0.570685 0
M  V30 3693 N 368.047 0.979072 1.23499 0
M  V30 3694 C 369.296 0.642751 1.91185 0
M  V30 3695 C 369.609 -0.827253 1.77245 0
M  V30 3696 O 370.815 -1.27458 2.39722 0
M  V30 3697 C 369.271 1.09901 3.42709 0
M  V30 3698 C 368.879 2.59327 3.65313 0
M  V30 3699 C 370.623 0.836371 4.16179 0
M  V30 3700 C 368.53 2.98627 5.10467 0
M  V30 3701 H 367.46 0.236698 0.715884 0
M  V30 3702 H 370.111 1.1868 1.39955 0
M  V30 3703 H 368.493 0.48319 3.93041 0
M  V30 3704 H 369.667 3.26136 3.25533 0
M  V30 3705 H 367.982 2.83323 3.05151 0
M  V30 3706 H 370.579 1.10586 5.23139 0
M  V30 3707 H 370.922 -0.227509 4.15678 0
M  V30 3708 H 371.455 1.41371 3.71832 0
M  V30 3709 H 368.194 4.04133 5.16098 0
M  V30 3710 H 367.714 2.3651 5.51201 0
M  V30 3711 H 369.393 2.89159 5.78788 0
M  V30 3712 N 369.525 -1.3858 0.750561 0
M  V30 3713 C 370.435 -2.34278 0.122825 0
M  V30 3714 C 371.451 -1.59116 -0.704131 0
M  V30 3715 O 372.627 -1.91326 -0.628987 0
M  V30 3716 C 369.692 -3.38221 -0.762086 0
M  V30 3717 C 368.753 -4.29227 0.078896 0
M  V30 3718 C 367.986 -5.28205 -0.763874 0
M  V30 3719 O 368.209 -5.34112 -2.00201 0
M  V30 3720 O 367.143 -6.01618 -0.18428 0
M  V30 3721 H 370.969 -2.89649 0.913088 0
M  V30 3722 H 368.554 -1.40374 0.511417 0
M  V30 3723 H 370.436 -4.01872 -1.26793 0
M  V30 3724 H 369.111 -2.85211 -1.5309 0
M  V30 3725 H 368.018 -3.68747 0.630621 0
M  V30 3726 H 369.351 -4.85484 0.810289 0
M  V30 3727 N 371.003 -0.499398 -1.49478 0
M  V30 3728 C 372.28 0.108629 -1.95298 0
M  V30 3729 C 372.66 1.54282 -1.44084 0
M  V30 3730 O 372.008 2.18944 -0.653908 0
M  V30 3731 C 372.218 0.0229111 -3.48992 0
M  V30 3732 C 373.566 0.197643 -4.2414 0
M  V30 3733 O 374.59 0.0981735 -3.56065 0
M  V30 3734 O 373.449 0.401669 -5.45022 0
M  V30 3735 H 370.543 0.096181 -0.821388 0
M  V30 3736 H 373.089 -0.561822 -1.6013 0
M  V30 3737 H 371.861 -0.977321 -3.78899 0
M  V30 3738 H 371.484 0.733579 -3.90774 0
M  V30 3739 N 372.481 1.55866 -0.233164 0
M  V30 3740 C 373.897 1.59133 0.121988 0
M  V30 3741 C 374.097 1.25016 1.58029 0
M  V30 3742 O 373.153 0.990922 2.32243 0
M  V30 3743 C 374.466 2.99932 -0.214792 0
M  V30 3744 C 376.014 3.12601 -0.157971 0
M  V30 3745 C 376.489 4.55597 -0.46859 0
M  V30 3746 N 377.98 4.61305 -0.418585 0
M  V30 3747 C 378.715 5.69903 -0.63227 0
M  V30 3748 N 378.211 6.86819 -0.90835 0
M  V30 3749 N 380.004 5.59264 -0.563913 0
M  V30 3750 H 372.155 1.76315 -1.18434 0
M  V30 3751 H 374.418 0.820093 -0.475553 0
M  V30 3752 H 374.124 3.29588 -1.22739 0
M  V30 3753 H 373.998 3.74327 0.464691 0
M  V30 3754 H 376.385 2.82735 0.845283 0
M  V30 3755 H 376.466 2.40511 -0.871102 0
M  V30 3756 H 376.11 4.86182 -1.46934 0
M  V30 3757 H 376.04 5.25928 0.265865 0
M  V30 3758 H 378.531 3.77297 -0.213368 0
M  V30 3759 H 378.844 7.65507 -1.05919 0
M  V30 3760 H 377.189 6.88536 -0.945673 0
M  V30 3761 H 380.38 4.66802 -0.348372 0
M  V30 3762 H 380.553 6.43831 -0.733847 0
M  V30 3763 N 373.959 -0.0401083 1.57549 0
M  V30 3764 C 374.889 -1.04384 2.08869 0
M  V30 3765 C 375.87 -1.38407 0.988817 0
M  V30 3766 O 377.055 -1.47483 1.26342 0
M  V30 3767 C 374.185 -2.34808 2.55895 0
M  V30 3768 C 373.139 -2.15057 3.70047 0
M  V30 3769 C 372.465 -3.51145 4.03239 0
M  V30 3770 C 373.765 -1.54576 4.98902 0
M  V30 3771 H 375.459 -0.616666 2.92981 0
M  V30 3772 H 373.005 -0.295184 1.40942 0
M  V30 3773 H 374.958 -3.05346 2.90417 0
M  V30 3774 H 373.682 -2.79565 1.68853 0
M  V30 3775 H 372.341 -1.46954 3.35857 0
M  V30 3776 H 371.989 -3.93529 3.13279 0
M  V30 3777 H 371.689 -3.38758 4.80122 0
M  V30 3778 H 373.213 -4.23062 4.40285 0
M  V30 3779 H 374.627 -2.15017 5.31451 0
M  V30 3780 H 373.024 -1.52796 5.80322 0
M  V30 3781 H 374.094 -0.51039 4.82206 0
M  V30 3782 N 375.437 -1.54477 -0.31217 0
M  V30 3783 C 376.853 -1.45442 -0.657185 0
M  V30 3784 C 377.053 -0.63653 -1.91182 0
M  V30 3785 O 376.109 -0.139815 -2.52113 0
M  V30 3786 C 377.422 -2.89287 -0.82058 0
M  V30 3787 C 378.97 -2.9926 -0.917188 0
M  V30 3788 C 379.445 -4.44279 -1.11267 0
M  V30 3789 N 380.936 -4.4794 -1.17914 0
M  V30 3790 C 381.671 -5.57318 -1.34848 0
M  V30 3791 N 381.167 -6.76642 -1.48752 0
M  V30 3792 N 382.96 -5.44986 -1.37647 0
M  V30 3793 H 375.111 -2.06129 0.512313 0
M  V30 3794 H 377.374 -0.933088 0.167485 0
M  V30 3795 H 377.08 -3.51687 0.0302604 0
M  V30 3796 H 376.954 -3.36061 -1.71298 0
M  V30 3797 H 379.341 -2.36981 -1.75852 0
M  V30 3798 H 379.422 -2.558 -0.00101257 0
M  V30 3799 H 379.066 -5.07149 -0.27614 0
M  V30 3800 H 378.996 -4.85359 -2.04289 0
M  V30 3801 H 381.487 -3.61969 -1.08567 0
M  V30 3802 H 381.8 -7.55758 -1.61397 0
M  V30 3803 H 380.145 -6.79529 -1.45828 0
M  V30 3804 H 383.336 -4.50715 -1.26388 0
M  V30 3805 H 383.509 -6.3028 -1.50501 0
M  V30 3806 N 376.915 0.57481 -1.46744 0
M  V30 3807 C 377.845 1.69337 -1.60771 0
M  V30 3808 C 378.826 1.63825 -0.457736 0
M  V30 3809 O 380.011 1.8172 -0.684947 0
M  V30 3810 C 377.141 3.0798 -1.60517 0
M  V30 3811 C 376.095 3.28327 -2.74564 0
M  V30 3812 C 375.421 4.67578 -2.59373 0
M  V30 3813 C 376.721 3.15398 -4.16319 0
M  V30 3814 H 378.415 1.57853 -2.54407 0
M  V30 3815 H 375.961 0.75799 -1.22436 0
M  V30 3816 H 377.914 3.86061 -1.68923 0
M  V30 3817 H 376.638 3.20381 -0.634305 0
M  V30 3818 H 375.297 2.52649 -2.65639 0
M  V30 3819 H 374.945 4.76755 -1.60353 0
M  V30 3820 H 374.645 4.82144 -3.35873 0
M  V30 3821 H 376.169 5.47817 -2.69682 0
M  V30 3822 H 377.583 3.83315 -4.26313 0
M  V30 3823 H 375.98 3.41482 -4.93468 0
M  V30 3824 H 377.05 2.12372 -4.3592 0
M  V30 3825 N 378.394 1.34581 0.820102 0
M  V30 3826 C 379.304 1.28471 1.96297 0
M  V30 3827 C 380.32 0.191902 1.72939 0
M  V30 3828 O 381.496 0.418879 1.96996 0
M  V30 3829 C 378.561 1.04281 3.30645 0
M  V30 3830 C 377.622 2.22745 3.66992 0
M  V30 3831 C 376.855 1.997 4.9493 0
M  V30 3832 O 377.078 0.956656 5.6232 0
M  V30 3833 O 376.012 2.86723 5.2922 0
M  V30 3834 H 379.838 2.24624 2.04396 0
M  V30 3835 H 377.423 1.14816 0.955913 0
M  V30 3836 H 379.305 0.925841 4.11104 0
M  V30 3837 H 377.98 0.111697 3.23507 0
M  V30 3838 H 376.887 2.40003 2.86966 0
M  V30 3839 H 378.22 3.14257 3.78819 0
M  V30 3840 N 379.872 -1.04064 1.18357 0
M  V30 3841 C 381.149 -1.74252 0.888581 0
M  V30 3842 C 381.529 -2.02138 -0.60856 0
M  V30 3843 O 380.877 -1.66656 -1.56327 0
M  V30 3844 C 381.087 -3.0277 1.73584 0
M  V30 3845 C 382.435 -3.76506 1.96286 0
M  V30 3846 O 383.459 -3.12668 1.70637 0
M  V30 3847 O 382.318 -4.91243 2.39464 0
M  V30 3848 H 379.412 -0.758271 0.330082 0
M  V30 3849 H 381.958 -1.1013 1.2911 0
M  V30 3850 H 380.73 -2.78299 2.75073 0
M  V30 3851 H 380.353 -3.74631 1.33183 0
M  V30 3852 N 381.35 -0.985608 -1.22978 0
M  V30 3853 C 382.26 -0.538548 -2.28335 0
M  V30 3854 C 383.276 0.409163 -1.69121 0
M  V30 3855 O 384.452 0.277797 -1.99475 0
M  V30 3856 C 381.517 0.146867 -3.46389 0
M  V30 3857 C 380.578 -0.842896 -4.20944 0
M  V30 3858 C 379.811 -0.190095 -5.33361 0
M  V30 3859 O 380.034 1.01767 -5.61248 0
M  V30 3860 O 378.968 -0.891289 -5.95264 0
M  V30 3861 H 382.794 -1.41487 -2.68729 0
M  V30 3862 H 380.379 -0.753495 -1.29007 0
M  V30 3863 H 382.261 0.531125 -4.1804 0
M  V30 3864 H 380.936 0.997871 -3.07935 0
M  V30 3865 H 379.843 -1.27795 -3.51595 0
M  V30 3866 H 381.176 -1.66287 -4.6326 0
M  V30 3867 N 382.828 1.3818 -0.7579 0
M  V30 3868 C 383.776 2.32277 -0.122482 0
M  V30 3869 C 384.77 1.54238 0.700505 0
M  V30 3870 O 385.976 1.69737 0.599119 0
M  V30 3871 H 382.351 0.751712 -0.0208143 0
M  V30 3872 H 384.322 2.83469 -0.932099 0
M  V30 3873 C 383.071 3.39447 0.753076 0
M  V30 3874 H 382.394 3.99591 0.129184 0
M  V30 3875 H 383.834 4.07684 1.16489 0
M  V30 3876 C 382.293 2.78375 1.8976 0
M  V30 3877 O 382.823 2.68025 2.99208 0
M  V30 3878 N 381.029 2.36121 1.69397 0
M  V30 3879 H 380.576 2.4474 0.803762 0
M  V30 3880 H 380.534 1.95602 2.46145 0
M  V30 3881 N 384.306 0.507319 1.49211 0
M  V30 3882 C 385.216 -0.272136 2.33016 0
M  V30 3883 C 386.232 -0.961206 1.45041 0
M  V30 3884 O 387.408 -0.941191 1.78055 0
M  V30 3885 C 384.473 -1.31895 3.20631 0
M  V30 3886 C 383.534 -0.642648 4.24463 0
M  V30 3887 C 382.767 -1.63959 5.07891 0
M  V30 3888 O 382.99 -2.87007 4.92933 0
M  V30 3889 O 381.924 -1.19143 5.8999 0
M  V30 3890 H 385.75 0.413982 3.00865 0
M  V30 3891 H 383.335 0.268556 1.46966 0
M  V30 3892 H 385.217 -1.92446 3.7489 0
M  V30 3893 H 383.892 -1.98788 2.5547 0
M  V30 3894 H 382.799 0.00276252 3.741 0
M  V30 3895 H 384.132 -0.0160534 4.92197 0
M  V30 3896 N 385.784 -1.5574 0.241426 0
M  V30 3897 C 386.731 -2.21149 -0.660432 0
M  V30 3898 C 387.701 -1.17356 -1.17545 0
M  V30 3899 O 388.886 -1.45784 -1.23093 0
M  V30 3900 C 386.026 -2.91059 -1.85414 0
M  V30 3901 C 385.139 -4.09495 -1.37616 0
M  V30 3902 C 384.274 -4.67135 -2.529 0
M  V30 3903 C 383.313 -5.77831 -2.01936 0
M  V30 3904 N 382.45 -6.29677 -3.10566 0
M  V30 3905 H 387.29 -2.97845 -0.095955 0
M  V30 3906 H 384.827 -1.47057 -0.0356024 0
M  V30 3907 H 386.785 -3.29788 -2.5553 0
M  V30 3908 H 385.415 -2.16846 -2.39118 0
M  V30 3909 H 384.467 -3.76117 -0.569235 0
M  V30 3910 H 385.779 -4.89423 -0.962618 0
M  V30 3911 H 384.933 -5.08409 -3.31067 0
M  V30 3912 H 383.672 -3.86411 -2.97553 0
M  V30 3913 H 382.677 -5.36039 -1.22238 0
M  V30 3914 H 383.902 -6.60402 -1.58259 0
M  V30 3915 H 381.848 -5.5186 -3.54664 0
M  V30 3916 H 381.765 -7.04783 -2.73526 0
M  V30 3917 H 383.033 -6.75609 -3.88809 0
M  V30 3918 N 387.262 0.0317525 -1.57568 0
M  V30 3919 C 388.194 1.06073 -2.03178 0
M  V30 3920 C 389.207 1.32627 -0.944132 0
M  V30 3921 O 390.396 1.30162 -1.22148 0
M  V30 3922 C 387.496 2.40297 -2.38978 0
M  V30 3923 C 386.669 2.33137 -3.70089 0
M  V30 3924 C 385.728 3.49787 -3.9311 0
M  V30 3925 O 384.754 3.29403 -4.64201 0
M  V30 3926 N 385.956 4.71562 -3.38541 0
M  V30 3927 H 388.721 0.672006 -2.92069 0
M  V30 3928 H 386.282 0.219745 -1.60402 0
M  V30 3929 H 388.274 3.1705 -2.51518 0
M  V30 3930 H 386.844 2.71024 -1.55771 0
M  V30 3931 H 386.064 1.415 -3.67928 0
M  V30 3932 H 387.352 2.25493 -4.56104 0
M  V30 3933 H 386.75 4.91024 -2.80912 0
M  V30 3934 H 385.307 5.45689 -3.56464 0
M  V30 3935 N 388.74 1.54641 0.303973 0
M  V30 3936 C 389.65 1.88439 1.39743 0
M  V30 3937 C 390.666 0.778239 1.55626 0
M  V30 3938 O 391.842 1.07442 1.70347 0
M  V30 3939 C 388.907 2.12212 2.74166 0
M  V30 3940 C 387.968 3.35936 2.67293 0
M  V30 3941 C 387.201 3.58566 3.95305 0
M  V30 3942 O 387.424 2.84263 4.9452 0
M  V30 3943 O 386.358 4.52078 3.97378 0
M  V30 3944 H 390.184 2.81458 1.14083 0
M  V30 3945 H 387.769 1.40793 0.499768 0
M  V30 3946 H 389.651 2.29067 3.53704 0
M  V30 3947 H 388.326 1.22379 2.99675 0
M  V30 3948 H 387.233 3.24448 1.86237 0
M  V30 3949 H 388.566 4.2589 2.46736 0
M  V30 3950 N 390.218 -0.567019 1.47046 0
M  V30 3951 C 391.634 -0.891975 1.32348 0
M  V30 3952 C 391.834 -1.99154 0.306616 0
M  V30 3953 O 390.89 -2.50883 -0.28532 0
M  V30 3954 C 392.203 -1.29449 2.7141 0
M  V30 3955 C 393.751 -1.40646 2.79621 0
M  V30 3956 C 394.226 -1.84257 4.19301 0
M  V30 3957 N 395.717 -1.91424 4.21795 0
M  V30 3958 C 396.452 -2.26476 5.26779 0
M  V30 3959 N 395.948 -2.60211 6.42077 0
M  V30 3960 N 397.741 -2.27166 5.14152 0
M  V30 3961 H 389.892 0.159074 2.11803 0
M  V30 3962 H 392.155 0.00849752 0.947962 0
M  V30 3963 H 391.861 -0.560448 3.47206 0
M  V30 3964 H 391.735 -2.25273 3.02542 0
M  V30 3965 H 394.122 -2.13133 2.04104 0
M  V30 3966 H 394.203 -0.430339 2.52154 0
M  V30 3967 H 393.847 -1.12343 4.95319 0
M  V30 3968 H 393.777 -2.82855 4.44185 0
M  V30 3969 H 396.268 -1.6778 3.38612 0
M  V30 3970 H 396.581 -2.85956 7.17948 0
M  V30 3971 H 394.926 -2.57813 6.45413 0
M  V30 3972 H 398.117 -2.00244 4.23107 0
M  V30 3973 H 398.29 -2.54154 5.96079 0
M  V30 3974 N 391.696 -1.35014 -0.812953 0
M  V30 3975 C 392.626 -1.30069 -1.93919 0
M  V30 3976 C 393.607 -0.176275 -1.69184 0
M  V30 3977 O 394.792 -0.370227 -1.90638 0
M  V30 3978 C 391.922 -1.06547 -3.30552 0
M  V30 3979 C 390.876 -2.15561 -3.69753 0
M  V30 3980 C 390.202 -1.77214 -5.04479 0
M  V30 3981 C 391.502 -3.57476 -3.808 0
M  V30 3982 H 393.196 -2.24303 -1.98314 0
M  V30 3983 H 390.742 -1.07977 -0.952736 0
M  V30 3984 H 392.695 -1.01729 -4.08937 0
M  V30 3985 H 391.419 -0.0875719 -3.26483 0
M  V30 3986 H 390.078 -2.19466 -2.9365 0
M  V30 3987 H 389.726 -0.780589 -4.96906 0
M  V30 3988 H 389.426 -2.50184 -5.31678 0
M  V30 3989 H 390.95 -1.7391 -5.8531 0
M  V30 3990 H 392.364 -3.55929 -4.4943 0
M  V30 3991 H 390.761 -4.29152 -4.19462 0
M  V30 3992 H 391.831 -3.94091 -2.82525 0
M  V30 3993 N 393.175 1.03435 -1.18907 0
M  V30 3994 C 394.105 2.13503 -0.945448 0
M  V30 3995 C 395.086 1.69682 0.119189 0
M  V30 3996 O 396.271 1.94169 -0.034707 0
M  V30 3997 C 393.401 3.44004 -0.477316 0
M  V30 3998 C 392.355 4.0148 -1.48316 0
M  V30 3999 C 391.681 5.27537 -0.872311 0
M  V30 4000 C 392.981 4.36921 -2.86177 0
M  V30 4001 H 394.675 2.34141 -1.86597 0
M  V30 4002 H 392.221 1.12523 -0.898584 0
M  V30 4003 H 394.174 4.20372 -0.294204 0
M  V30 4004 H 392.898 3.23072 0.478786 0
M  V30 4005 H 391.557 3.27201 -1.65332 0
M  V30 4006 H 391.205 5.02917 0.0911752 0
M  V30 4007 H 390.905 5.66954 -1.54393 0
M  V30 4008 H 392.429 6.06576 -0.699871 0
M  V30 4009 H 393.843 5.04248 -2.72776 0
M  V30 4010 H 392.24 4.87405 -3.50081 0
M  V30 4011 H 393.31 3.46466 -3.39248 0
M  V30 4012 N 394.653 0.992116 1.22453 0
M  V30 4013 C 395.586 0.486701 2.22949 0
M  V30 4014 C 396.564 -0.45259 1.56174 0
M  V30 4015 O 397.748 -0.378317 1.84665 0
M  V30 4016 C 394.875 -0.294537 3.37417 0
M  V30 4017 C 393.921 0.590628 4.22391 0
M  V30 4018 S 394.754 2.04546 4.94895 0
M  V30 4019 C 395.91 1.27369 6.12803 0
M  V30 4020 H 396.143 1.33828 2.65475 0
M  V30 4021 H 393.676 0.799023 1.32117 0
M  V30 4022 H 395.634 -0.739241 4.03789 0
M  V30 4023 H 394.295 -1.12139 2.934 0
M  V30 4024 H 393.488 -0.0104375 5.03999 0
M  V30 4025 H 393.09 0.972064 3.61147 0
M  V30 4026 H 395.382 0.540943 6.75337 0
M  V30 4027 H 396.325 2.06502 6.7732 0
M  V30 4028 H 396.733 0.787324 5.58983 0
M  V30 4029 N 396.131 -1.37776 0.765217 0
M  V30 4030 C 397.356 -2.04651 0.336537 0
M  V30 4031 C 397.781 -1.57337 -1.03086 0
M  V30 4032 O 397.139 -0.730621 -1.65927 0
M  V30 4033 C 397.187 -3.58577 0.381468 0
M  V30 4034 O 396.291 -4.07706 -0.62042 0
M  V30 4035 H 395.632 -0.64756 0.146838 0
M  V30 4036 H 398.162 -1.76221 1.03959 0
M  V30 4037 H 398.172 -4.07314 0.236448 0
M  V30 4038 H 396.847 -3.9237 1.37907 0
M  V30 4039 H 395.424 -3.70306 -0.439056 0
M  V30 4040 N 397.609 -0.515225 -1.4894 0
M  V30 4041 C 398.539 0.244628 -2.32215 0
M  V30 4042 C 399.52 0.949136 -1.41157 0
M  V30 4043 O 400.705 0.937783 -1.70057 0
M  V30 4044 C 397.835 1.30096 -3.22013 0
M  V30 4045 C 396.789 0.715486 -4.21977 0
M  V30 4046 C 396.115 1.87339 -5.00808 0
M  V30 4047 C 397.415 -0.302982 -5.2142 0
M  V30 4048 H 399.109 -0.450501 -2.95991 0
M  V30 4049 H 396.655 -0.218098 -1.42339 0
M  V30 4050 H 398.608 1.84037 -3.79089 0
M  V30 4051 H 397.332 2.02547 -2.56207 0
M  V30 4052 H 395.991 0.197715 -3.66066 0
M  V30 4053 H 395.639 2.58592 -4.31438 0
M  V30 4054 H 395.339 1.48764 -5.68457 0
M  V30 4055 H 396.863 2.41686 -5.60732 0
M  V30 4056 H 398.277 0.148802 -5.73107 0
M  V30 4057 H 396.674 -0.60532 -5.97039 0
M  V30 4058 H 397.744 -1.21395 -4.69459 0
M  V30 4059 N 399.087 1.5561 -0.249682 0
M  V30 4060 C 400.017 2.24477 0.642826 0
M  V30 4061 C 400.998 1.22601 1.17911 0
M  V30 4062 O 402.183 1.5126 1.21795 0
M  V30 4063 C 399.313 2.94638 1.83863 0
M  V30 4064 C 398.267 4.03227 1.435 0
M  V30 4065 C 397.593 4.60828 2.71186 0
M  V30 4066 C 398.893 5.18796 0.604002 0
M  V30 4067 H 400.587 2.99321 0.0685625 0
M  V30 4068 H 398.133 1.43965 0.0315363 0
M  V30 4069 H 400.086 3.41517 2.46868 0
M  V30 4070 H 398.81 2.17287 2.43832 0
M  V30 4071 H 397.469 3.57121 0.828275 0
M  V30 4072 H 397.117 3.80174 3.29358 0
M  V30 4073 H 396.817 5.34132 2.44901 0
M  V30 4074 H 398.341 5.10442 3.35084 0
M  V30 4075 H 399.755 5.61883 1.13842 0
M  V30 4076 H 398.152 5.98506 0.437097 0
M  V30 4077 H 399.222 4.83384 -0.383147 0
M  V30 4078 N 400.565 -0.0233959 1.57583 0
M  V30 4079 C 401.976 -0.56927 1.77809 0
M  V30 4080 C 402.327 -1.75284 0.881472 0
M  V30 4081 O 401.452 -2.1626 0.0777805 0
M  V30 4082 C 402.047 -1.03949 3.22459 0
M  V30 4083 C 400.606 -1.53084 3.43864 0
M  V30 4084 C 399.753 -0.471454 2.73263 0
M  V30 4085 H 402.704 0.202825 1.57399 0
M  V30 4086 H 402.725 -1.90661 3.29285 0
M  V30 4087 H 402.237 -0.177865 3.87692 0
M  V30 4088 H 400.338 -2.41414 2.83814 0
M  V30 4089 H 400.451 -1.57443 4.52491 0
M  V30 4090 H 398.815 -0.927788 2.37201 0
M  V30 4091 H 399.598 0.380808 3.41181 0
M  V30 4092 N 402.043 -1.548 -0.295768 0
M  V30 4093 C 403.459 -1.4613 -0.641722 0
M  V30 4094 C 403.659 -0.656771 -1.90496 0
M  V30 4095 O 402.715 -0.166547 -2.5195 0
M  V30 4096 C 404.028 -2.90141 -0.789852 0
M  V30 4097 C 405.576 -3.00216 -0.885396 0
M  V30 4098 C 406.051 -4.45434 -1.06548 0
M  V30 4099 N 407.542 -4.49166 -1.13156 0
M  V30 4100 C 408.277 -5.58717 -1.28929 0
M  V30 4101 N 407.773 -6.78182 -1.41567 0
M  V30 4102 N 409.566 -5.46415 -1.31859 0
M  V30 4103 H 401.717 -2.05574 0.534147 0
M  V30 4104 H 403.98 -0.931259 0.177372 0
M  V30 4105 H 403.686 -3.51635 0.0675598 0
M  V30 4106 H 403.56 -3.37859 -1.67724 0
M  V30 4107 H 405.947 -2.38833 -1.73329 0
M  V30 4108 H 406.028 -2.55787 0.0261185 0
M  V30 4109 H 405.672 -5.07413 -0.222335 0
M  V30 4110 H 405.602 -4.87499 -1.9913 0
M  V30 4111 H 408.093 -3.631 -1.04721 0
M  V30 4112 H 408.406 -7.57428 -1.53372 0
M  V30 4113 H 406.751 -6.81037 -1.38613 0
M  V30 4114 H 409.942 -4.5203 -1.21601 0
M  V30 4115 H 410.115 -6.31841 -1.43808 0
M  V30 4116 N 403.521 0.559213 -1.47345 0
M  V30 4117 C 404.469 1.68747 -1.60085 0
M  V30 4118 C 405.463 1.628 -0.46825 0
M  V30 4119 O 406.669 1.68009 -0.645977 0
M  V30 4120 H 403.044 0.558329 -0.503759 0
M  V30 4121 H 405.015 1.55138 -2.54902 0
M  V30 4122 C 403.764 3.07103 -1.63042 0
M  V30 4123 H 403.087 3.12361 -2.49541 0
M  V30 4124 H 404.527 3.85743 -1.76006 0
M  V30 4125 C 402.986 3.34935 -0.363357 0
M  V30 4126 O 403.516 3.98102 0.536416 0
M  V30 4127 N 401.722 2.89574 -0.244 0
M  V30 4128 H 401.269 2.38348 -0.977133 0
M  V30 4129 H 401.227 3.08566 0.602836 0
M  V30 4130 N 404.999 1.35443 0.805782 0
M  V30 4131 C 406.245 1.28952 1.56522 0
M  V30 4132 C 406.578 -0.135597 1.93726 0
M  V30 4133 O 405.853 -1.08516 1.61414 0
M  V30 4134 C 406.136 2.19678 2.85331 0
M  V30 4135 C 405.989 3.7081 2.54598 0
M  V30 4136 C 407.308 2.09495 3.8704 0
M  V30 4137 H 404.427 0.469764 0.567883 0
M  V30 4138 H 407.069 1.65851 0.927001 0
M  V30 4139 H 405.219 1.8834 3.39795 0
M  V30 4140 H 406.891 4.12593 2.06312 0
M  V30 4141 H 405.134 3.91051 1.8778 0
M  V30 4142 H 405.805 4.29679 3.46525 0
M  V30 4143 H 408.281 2.37045 3.41978 0
M  V30 4144 H 407.157 2.75173 4.74943 0
M  V30 4145 H 407.418 1.07714 4.28777 0
M  V30 4146 N 406.477 -1.02803 1.19454 0
M  V30 4147 C 407.44 -2.09264 0.934955 0
M  V30 4148 C 408.44 -1.60576 -0.0849015 0
M  V30 4149 O 409.63 -1.73554 0.149933 0
M  V30 4150 C 406.762 -3.38482 0.40531 0
M  V30 4151 H 407.955 -2.33726 1.87916 0
M  V30 4152 H 405.508 -1.19426 1.00832 0
M  V30 4153 H 406.243 -3.19689 -0.544899 0
M  V30 4154 H 406.028 -3.75142 1.14065 0
M  V30 4155 H 407.518 -4.16894 0.242806 0
M  V30 4156 N 407.956 -0.998596 -1.21925 0
M  V30 4157 C 408.889 -0.498517 -2.22688 0
M  V30 4158 C 409.867 0.444301 -1.56412 0
M  V30 4159 O 411.051 0.368518 -1.84863 0
M  V30 4160 C 408.178 0.276639 -3.37568 0
M  V30 4161 C 407.224 -0.61302 -4.22071 0
M  V30 4162 S 408.057 -2.07168 -4.93803 0
M  V30 4163 C 409.213 -1.30617 -6.12119 0
M  V30 4164 H 409.446 -1.35234 -2.64762 0
M  V30 4165 H 406.979 -0.806018 -1.31692 0
M  V30 4166 H 408.937 0.717817 -4.04175 0
M  V30 4167 H 407.598 1.10581 -2.93991 0
M  V30 4168 H 406.791 -0.0162909 -5.03997 0
M  V30 4169 H 406.393 -0.991202 -3.60626 0
M  V30 4170 H 408.685 -0.57675 -6.75041 0
M  V30 4171 H 409.628 -2.10091 -6.76215 0
M  V30 4172 H 410.036 -0.816957 -5.58557 0
M  V30 4173 N 409.434 1.37368 -0.772513 0
M  V30 4174 C 410.344 2.34053 -0.160081 0
M  V30 4175 C 411.36 1.60216 0.678728 0
M  V30 4176 O 412.536 1.92303 0.59847 0
M  V30 4177 C 409.601 3.3939 0.708182 0
M  V30 4178 C 408.662 4.29048 -0.147172 0
M  V30 4179 C 407.895 5.29354 0.679744 0
M  V30 4180 O 408.118 5.3723 1.91678 0
M  V30 4181 O 407.052 6.01835 0.0885444 0
M  V30 4182 H 410.878 2.88159 -0.959053 0
M  V30 4183 H 408.463 1.39543 -0.533685 0
M  V30 4184 H 410.345 4.03839 1.20384 0
M  V30 4185 H 409.02 2.8761 1.48533 0
M  V30 4186 H 407.927 3.67697 -0.689205 0
M  V30 4187 H 409.26 4.84134 -0.887423 0
M  V30 4188 N 410.912 0.523116 1.48665 0
M  V30 4189 C 411.845 -0.290518 2.26343 0
M  V30 4190 C 412.823 -0.950913 1.31895 0
M  V30 4191 O 414.007 -0.976662 1.61225 0
M  V30 4192 C 411.134 -1.41088 3.07915 0
M  V30 4193 C 410.18 -0.862597 4.17686 0
M  V30 4194 S 411.013 0.264135 5.34848 0
M  V30 4195 C 412.169 -0.858864 6.19979 0
M  V30 4196 H 412.402 0.368726 2.95005 0
M  V30 4197 H 409.935 0.30878 1.51281 0
M  V30 4198 H 411.893 -2.0527 3.55492 0
M  V30 4199 H 410.554 -2.04182 2.38681 0
M  V30 4200 H 409.747 -1.70287 4.74361 0
M  V30 4201 H 409.349 -0.297595 3.72814 0
M  V30 4202 H 411.641 -1.7591 6.54264 0
M  V30 4203 H 412.584 -0.330244 7.07329 0
M  V30 4204 H 412.992 -1.13617 5.52948 0
M  V30 4205 N 412.39 -1.55475 0.257931 0
M  V30 4206 C 413.337 -2.21837 -0.636939 0
M  V30 4207 C 414.307 -1.18596 -1.16294 0
M  V30 4208 O 415.492 -1.47081 -1.21539 0
M  V30 4209 C 412.632 -2.9301 -1.82317 0
M  V30 4210 C 411.745 -4.10931 -1.33265 0
M  V30 4211 C 410.88 -4.69791 -2.47931 0
M  V30 4212 C 409.919 -5.7994 -1.95796 0
M  V30 4213 N 409.056 -6.32935 -3.0387 0
M  V30 4214 H 413.896 -2.9793 -0.0643591 0
M  V30 4215 H 411.433 -1.47086 -0.0200031 0
M  V30 4216 H 413.391 -3.3248 -2.52018 0
M  V30 4217 H 412.021 -2.1937 -2.36805 0
M  V30 4218 H 411.073 -3.76699 -0.52931 0
M  V30 4219 H 412.385 -4.90417 -0.910654 0
M  V30 4220 H 411.539 -5.11892 -3.25656 0
M  V30 4221 H 410.278 -3.89545 -2.93438 0
M  V30 4222 H 409.283 -5.37305 -1.16546 0
M  V30 4223 H 410.508 -6.62043 -1.51246 0
M  V30 4224 H 408.454 -5.55591 -3.48791 0
M  V30 4225 H 408.371 -7.07645 -2.66035 0
M  V30 4226 H 409.639 -6.79695 -3.81621 0
M  V30 4227 N 413.868 0.0150385 -1.57593 0
M  V30 4228 C 414.778 1.02791 -2.10882 0
M  V30 4229 C 415.794 1.38702 -1.0506 0
M  V30 4230 O 416.97 1.47739 -1.36877 0
M  V30 4231 C 414.035 2.30568 -2.58919 0
M  V30 4232 C 413.096 2.01108 -3.79281 0
M  V30 4233 C 412.329 3.22794 -4.25018 0
M  V30 4234 O 412.552 4.33959 -3.70183 0
M  V30 4235 O 411.486 3.07672 -5.17322 0
M  V30 4236 H 415.312 0.604973 -2.97613 0
M  V30 4237 H 412.897 0.23292 -1.47573 0
M  V30 4238 H 414.779 3.05662 -2.90084 0
M  V30 4239 H 413.454 2.72129 -1.75293 0
M  V30 4240 H 412.361 1.23537 -3.53114 0
M  V30 4241 H 413.694 1.64394 -4.63935 0
M  V30 4242 N 415.346 1.54954 0.287554 0
M  V30 4243 C 416.623 1.65569 1.04146 0
M  V30 4244 C 417.003 0.512672 2.0478 0
M  V30 4245 O 416.351 -0.489038 2.23205 0
M  V30 4246 C 416.561 3.04163 1.71131 0
M  V30 4247 C 417.909 3.61429 2.22832 0
M  V30 4248 O 418.933 3.06702 1.81141 0
M  V30 4249 O 417.792 4.57281 2.9926 0
M  V30 4250 H 414.886 0.671881 0.482188 0
M  V30 4251 H 417.432 1.67297 0.28457 0
M  V30 4252 H 416.204 3.78796 0.981303 0
M  V30 4253 H 415.827 3.06271 2.53543 0
M  V30 4254 N 416.824 -0.551391 1.4764 0
M  V30 4255 C 418.071 -1.3083 1.54563 0
M  V30 4256 C 418.399 -1.93359 0.210361 0
M  V30 4257 O 417.654 -1.78721 -0.797332 0
M  V30 4258 C 417.953 -2.43469 2.61644 0
M  V30 4259 C 417.619 -1.98732 4.04742 0
M  V30 4260 C 416.281 -1.86248 4.43695 0
M  V30 4261 C 418.633 -1.64659 4.94507 0
M  V30 4262 C 415.961 -1.37995 5.70241 0
M  V30 4263 C 418.313 -1.17875 6.21521 0
M  V30 4264 C 416.977 -1.03992 6.5935 0
M  V30 4265 H 416.247 -0.478741 0.565587 0
M  V30 4266 H 418.894 -0.617697 1.81264 0
M  V30 4267 H 417.199 -3.18109 2.28722 0
M  V30 4268 H 418.896 -3.01642 2.64222 0
M  V30 4269 H 415.486 -2.09393 3.73968 0
M  V30 4270 H 419.67 -1.73174 4.65107 0
M  V30 4271 H 414.926 -1.25915 5.98294 0
M  V30 4272 H 419.1 -0.905739 6.90485 0
M  V30 4273 H 416.727 -0.663794 7.57296 0
M  V30 4274 N 418.302 -1.35869 -0.798587 0
M  V30 4275 C 419.232 -1.32118 -1.92528 0
M  V30 4276 C 420.213 -0.194209 -1.68988 0
M  V30 4277 O 421.398 -0.390426 -1.90235 0
M  V30 4278 C 418.528 -1.10047 -3.29404 0
M  V30 4279 C 417.482 -2.19471 -3.67446 0
M  V30 4280 C 416.808 -1.82555 -5.02571 0
M  V30 4281 C 418.108 -3.61495 -3.76987 0
M  V30 4282 H 419.802 -2.26394 -1.95924 0
M  V30 4283 H 417.348 -1.08981 -0.94123 0
M  V30 4284 H 419.301 -1.06061 -4.07835 0
M  V30 4285 H 418.025 -0.122195 -3.26371 0
M  V30 4286 H 416.684 -2.22568 -2.91306 0
M  V30 4287 H 416.332 -0.833249 -4.9605 0
M  V30 4288 H 416.032 -2.5581 -5.28995 0
M  V30 4289 H 417.556 -1.80108 -5.83432 0
M  V30 4290 H 418.97 -3.60676 -4.4563 0
M  V30 4291 H 417.367 -4.33577 -4.14887 0
M  V30 4292 H 418.437 -3.97065 -2.78329 0
M  V30 4293 N 419.78 1.02168 -1.19998 0
M  V30 4294 C 420.727 2.10601 -0.944228 0
M  V30 4295 C 421.697 1.65639 0.123664 0
M  V30 4296 O 422.882 1.9079 -0.0199941 0
M  V30 4297 C 420.022 3.41504 -0.496865 0
M  V30 4298 C 419.135 3.99973 -1.63234 0
M  V30 4299 C 418.27 5.18915 -1.13579 0
M  V30 4300 C 417.309 5.69456 -2.24468 0
M  V30 4301 N 416.446 6.79665 -1.76068 0
M  V30 4302 H 421.286 2.31814 -1.8726 0
M  V30 4303 H 418.823 1.13686 -0.933483 0
M  V30 4304 H 420.781 4.16626 -0.218843 0
M  V30 4305 H 419.411 3.2038 0.394508 0
M  V30 4306 H 418.463 3.21997 -2.0254 0
M  V30 4307 H 419.775 4.33492 -2.46752 0
M  V30 4308 H 418.929 6.01222 -0.813429 0
M  V30 4309 H 417.668 4.8695 -0.270434 0
M  V30 4310 H 416.673 4.85757 -2.57526 0
M  V30 4311 H 417.898 6.03459 -3.11472 0
M  V30 4312 H 415.844 6.49538 -0.918516 0
M  V30 4313 H 415.761 7.12349 -2.5317 0
M  V30 4314 H 417.029 7.65549 -1.46817 0
M  V30 4315 N 421.258 1.00505 1.21394 0
M  V30 4316 C 422.669 0.721082 1.72213 0
M  V30 4317 C 423.02 -0.761263 1.80829 0
M  V30 4318 O 422.145 -1.59464 1.46288 0
M  V30 4319 C 422.74 1.30228 3.12772 0
M  V30 4320 C 421.299 1.06743 3.60947 0
M  V30 4321 C 420.446 1.41507 2.38477 0
M  V30 4322 H 423.397 1.17594 1.06571 0
M  V30 4323 H 423.418 0.686955 3.74247 0
M  V30 4324 H 422.93 2.38115 3.06468 0
M  V30 4325 H 421.031 0.00572162 3.726 0
M  V30 4326 H 421.144 1.73936 4.46411 0
M  V30 4327 H 419.508 0.833852 2.40664 0
M  V30 4328 H 420.291 2.50424 2.34824 0
M  V30 4329 N 422.737 -1.36956 0.779787 0
M  V30 4330 C 424.148 -1.82094 0.412156 0
M  V30 4331 C 424.499 -1.64926 -1.06273 0
M  V30 4332 O 423.624 -1.16483 -1.82375 0
M  V30 4333 C 424.219 -3.3059 0.741319 0
M  V30 4334 C 422.778 -3.73974 0.426641 0
M  V30 4335 C 421.925 -2.59368 0.980987 0
M  V30 4336 H 424.876 -1.25314 0.973758 0
M  V30 4337 H 424.897 -3.80489 0.028887 0
M  V30 4338 H 424.409 -3.43054 1.81482 0
M  V30 4339 H 422.51 -3.67076 -0.639215 0
M  V30 4340 H 422.623 -4.69778 0.940515 0
M  V30 4341 H 420.987 -2.51463 0.404757 0
M  V30 4342 H 421.77 -2.74621 2.06005 0
M  V30 4343 N 424.215 -0.530993 -1.48385 0
M  V30 4344 C 425.125 0.23503 -2.3342 0
M  V30 4345 C 426.141 0.93801 -1.46552 0
M  V30 4346 O 427.317 0.912745 -1.7953 0
M  V30 4347 C 424.382 1.26778 -3.22689 0
M  V30 4348 C 423.443 0.575038 -4.25431 0
M  V30 4349 C 422.676 1.55858 -5.10435 0
M  V30 4350 O 422.899 2.79129 -4.97437 0
M  V30 4351 O 421.833 1.09742 -5.91811 0
M  V30 4352 H 425.659 -0.461794 -3.00169 0
M  V30 4353 H 423.244 -0.291903 -1.46521 0
M  V30 4354 H 425.126 1.86457 -3.77904 0
M  V30 4355 H 423.801 1.94699 -2.586 0
M  V30 4356 H 422.708 -0.0622782 -3.74048 0
M  V30 4357 H 424.041 -0.062253 -4.92161 0
M  V30 4358 N 425.693 1.55336 -0.266172 0
M  V30 4359 C 427.109 1.59356 0.0882065 0
M  V30 4360 C 427.309 1.2834 1.55342 0
M  V30 4361 O 426.365 1.03996 2.30089 0
M  V30 4362 C 427.678 2.99409 -0.278364 0
M  V30 4363 C 429.226 3.12196 -0.224243 0
M  V30 4364 C 429.701 4.545 -0.565123 0
M  V30 4365 N 431.192 4.60313 -0.51634 0
M  V30 4366 C 431.927 5.68434 -0.753013 0
M  V30 4367 N 431.423 6.84738 -1.05383 0
M  V30 4368 N 433.216 5.57942 -0.682414 0
M  V30 4369 H 425.367 1.73764 -1.22147 0
M  V30 4370 H 427.63 0.809822 -0.492841 0
M  V30 4371 H 427.336 3.2691 -1.29703 0
M  V30 4372 H 427.21 3.75228 0.385186 0
M  V30 4373 H 429.597 2.84464 0.78512 0
M  V30 4374 H 429.678 2.38609 -0.921922 0
M  V30 4375 H 429.322 4.82956 -1.57213 0
M  V30 4376 H 429.252 5.26374 0.154248 0
M  V30 4377 H 431.743 3.7676 -0.29335 0
M  V30 4378 H 432.056 7.63088 -1.22133 0
M  V30 4379 H 430.401 6.86375 -1.09151 0
M  V30 4380 H 433.592 4.65958 -0.44731 0
M  V30 4381 H 433.765 6.4213 -0.870248 0
M  V30 4382 N 427.171 -0.0066808 1.57599 0
M  V30 4383 C 428.42 -0.692078 1.89455 0
M  V30 4384 C 428.733 -1.75306 0.867586 0
M  V30 4385 O 429.939 -2.49262 1.07614 0
M  V30 4386 C 428.395 -1.2821 3.36289 0
M  V30 4387 C 428.003 -0.256291 4.47266 0
M  V30 4388 C 429.747 -1.94608 3.77264 0
M  V30 4389 C 427.654 -0.855927 5.85173 0
M  V30 4390 H 426.584 -0.262252 0.706923 0
M  V30 4391 H 429.235 0.052769 1.83424 0
M  V30 4392 H 427.617 -2.0774 3.37135 0
M  V30 4393 H 428.791 0.513923 4.57925 0
M  V30 4394 H 427.106 0.306862 4.15268 0
M  V30 4395 H 429.703 -2.40364 4.77629 0
M  V30 4396 H 430.046 -2.77382 3.10427 0
M  V30 4397 H 430.579 -1.21822 3.78688 0
M  V30 4398 H 427.318 -0.0671161 6.55466 0
M  V30 4399 H 426.838 -1.59546 5.78191 0
M  V30 4400 H 428.517 -1.35658 6.32618 0
M  V30 4401 N 428.649 -1.55105 -0.279332 0
M  V30 4402 C 429.896 -1.75412 -1.01177 0
M  V30 4403 C 430.224 -0.551728 -1.86511 0
M  V30 4404 O 429.479 0.465919 -1.90073 0
M  V30 4405 C 429.778 -3.0086 -1.92919 0
M  V30 4406 C 429.444 -4.33689 -1.23387 0
M  V30 4407 C 428.106 -4.69792 -1.04159 0
M  V30 4408 C 430.458 -5.15941 -0.738562 0
M  V30 4409 C 427.786 -5.85707 -0.341166 0
M  V30 4410 C 430.138 -6.32579 -0.0517636 0
M  V30 4411 C 428.802 -6.67326 0.152292 0
M  V30 4412 H 428.072 -0.641879 -0.370233 0
M  V30 4413 H 430.719 -1.89373 -0.284627 0
M  V30 4414 H 429.024 -2.81773 -2.72234 0
M  V30 4415 H 430.721 -3.13768 -2.49701 0
M  V30 4416 H 427.311 -4.05309 -1.39364 0
M  V30 4417 H 431.495 -4.8853 -0.874764 0
M  V30 4418 H 426.751 -6.11157 -0.172287 0
M  V30 4419 H 430.925 -6.9557 0.339828 0
M  V30 4420 H 428.552 -7.56998 0.697014 0
M  V30 4421 N 430.127 0.543554 -1.4793 0
M  V30 4422 C 431.077 1.64527 -1.57844 0
M  V30 4423 C 432.061 1.54869 -0.436408 0
M  V30 4424 O 433.253 1.63119 -0.687101 0
M  V30 4425 C 430.382 3.03281 -1.6086 0
M  V30 4426 C 429.468 3.18093 -2.80495 0
M  V30 4427 N 429.859 3.02923 -4.05057 0
M  V30 4428 C 428.157 3.49121 -2.77543 0
M  V30 4429 C 428.858 3.20791 -4.85251 0
M  V30 4430 N 427.834 3.47749 -4.17818 0
M  V30 4431 H 431.636 1.51388 -2.5191 0
M  V30 4432 H 429.15 0.748671 -1.44113 0
M  V30 4433 H 431.147 3.82403 -1.66054 0
M  V30 4434 H 429.807 3.17521 -0.678996 0
M  V30 4435 H 430.818 2.79966 -4.35705 0
M  V30 4436 H 427.495 3.69804 -1.93781 0
M  V30 4437 H 428.885 3.13915 -5.9406 0
M  V30 4438 N 431.605 1.3629 0.791371 0
M  V30 4439 C 432.552 1.30458 1.90393 0
M  V30 4440 C 433.522 0.173632 1.6519 0
M  V30 4441 O 434.707 0.35983 1.87376 0
M  V30 4442 C 431.847 1.09777 3.27174 0
M  V30 4443 C 430.96 2.31929 3.64462 0
M  V30 4444 C 430.095 2.04276 4.90352 0
M  V30 4445 C 429.134 3.224 5.20312 0
M  V30 4446 N 428.271 2.94424 6.37385 0
M  V30 4447 H 433.111 2.25589 1.94714 0
M  V30 4448 H 430.648 1.12122 0.952216 0
M  V30 4449 H 432.606 0.958133 4.06049 0
M  V30 4450 H 431.236 0.183014 3.22281 0
M  V30 4451 H 430.288 2.56703 2.80727 0
M  V30 4452 H 431.6 3.20085 3.82553 0
M  V30 4453 H 430.754 1.87231 5.77087 0
M  V30 4454 H 429.493 1.13428 4.74326 0
M  V30 4455 H 428.498 3.40005 4.32061 0
M  V30 4456 H 429.723 4.14071 5.38258 0
M  V30 4457 H 427.669 2.06185 6.22755 0
M  V30 4458 H 427.586 3.76118 6.55798 0
M  V30 4459 H 428.854 2.80953 7.27108 0
M  V30 4460 N 433.083 -1.0153 1.20538 0
M  V30 4461 C 434.332 -1.74558 1.01057 0
M  V30 4462 C 434.645 -1.90168 -0.457756 0
M  V30 4463 O 435.851 -2.60301 -0.771722 0
M  V30 4464 C 434.307 -3.13963 1.75941 0
M  V30 4465 C 433.915 -3.06361 3.26875 0
M  V30 4466 C 435.659 -3.91191 1.64832 0
M  V30 4467 C 433.566 -4.40782 3.94291 0
M  V30 4468 H 432.496 -0.654417 0.374505 0
M  V30 4469 H 435.147 -1.13521 1.44171 0
M  V30 4470 H 433.529 -3.75549 1.25614 0
M  V30 4471 H 434.703 -2.54074 3.84425 0
M  V30 4472 H 433.018 -2.42625 3.38411 0
M  V30 4473 H 435.615 -4.90644 2.12539 0
M  V30 4474 H 435.958 -4.11884 0.604745 0
M  V30 4475 H 436.491 -3.36236 2.12579 0
M  V30 4476 H 433.23 -4.25292 4.98805 0
M  V30 4477 H 432.75 -4.9307 3.41529 0
M  V30 4478 H 434.429 -5.09621 3.98617 0
M  V30 4479 N 434.561 -1.01147 -1.20859 0
M  V30 4480 C 435.791 -0.715872 -1.93801 0
M  V30 4481 C 436.199 0.726592 -1.74692 0
M  V30 4482 O 435.542 1.50397 -1.05482 0
M  V30 4483 C 435.604 -0.965269 -3.46299 0
M  V30 4484 C 435.268 -2.39584 -3.89164 0
M  V30 4485 C 436.265 -3.3764 -3.95342 0
M  V30 4486 C 433.95 -2.73522 -4.21297 0
M  V30 4487 C 435.944 -4.67698 -4.33056 0
M  V30 4488 C 433.631 -4.03794 -4.58687 0
M  V30 4489 C 434.629 -5.00693 -4.64538 0
M  V30 4490 O 434.317 -6.28635 -5.01072 0
M  V30 4491 H 434.049 -0.262524 -0.622942 0
M  V30 4492 H 436.603 -1.35413 -1.54443 0
M  V30 4493 H 434.833 -0.269847 -3.85757 0
M  V30 4494 H 436.522 -0.662051 -4.00464 0
M  V30 4495 H 437.288 -3.12757 -3.70686 0
M  V30 4496 H 433.167 -1.9879 -4.15937 0
M  V30 4497 H 436.711 -5.4333 -4.37537 0
M  V30 4498 H 432.608 -4.28459 -4.82797 0
M  V30 4499 H 433.376 -6.32847 -5.19083 0
M  V30 4500 N 436.039 1.36541 -0.78704 0
M  V30 4501 C 437.288 1.98552 -0.35494 0
M  V30 4502 C 437.601 1.63171 1.07864 0
M  V30 4503 O 438.807 2.18399 1.61289 0
M  V30 4504 C 437.263 3.55136 -0.583671 0
M  V30 4505 C 436.871 3.99444 -2.02851 0
M  V30 4506 C 438.615 4.2395 -0.215957 0
M  V30 4507 C 436.522 5.48796 -2.20403 0
M  V30 4508 H 435.452 0.742888 -0.128972 0
M  V30 4509 H 438.103 1.5587 -0.968337 0
M  V30 4510 H 436.485 3.95875 0.0994046 0
M  V30 4511 H 437.659 3.6991 -2.74779 0
M  V30 4512 H 435.974 3.43459 -2.35425 0
M  V30 4513 H 438.571 5.33709 -0.325405 0
M  V30 4514 H 438.914 4.07827 0.835646 0
M  V30 4515 H 439.447 3.88565 -0.852175 0
M  V30 4516 H 436.186 5.69864 -3.23937 0
M  V30 4517 H 435.706 5.79964 -1.52977 0
M  V30 4518 H 437.385 6.14986 -2.01002 0
M  V30 4519 N 437.518 0.538854 1.48102 0
M  V30 4520 C 438.45 -0.256278 2.27763 0
M  V30 4521 C 439.463 -0.89633 1.35904 0
M  V30 4522 O 440.652 -0.773275 1.60881 0
M  V30 4523 C 437.752 -1.37896 3.09577 0
M  V30 4524 C 436.925 -0.839159 4.29275 0
M  V30 4525 C 435.984 -1.84405 4.9283 0
M  V30 4526 O 435.01 -1.39746 5.51779 0
M  V30 4527 N 436.212 -3.17666 4.85869 0
M  V30 4528 H 438.977 0.426968 2.96643 0
M  V30 4529 H 436.538 0.373747 1.57527 0
M  V30 4530 H 438.53 -2.04955 3.48963 0
M  V30 4531 H 437.1 -1.96572 2.4306 0
M  V30 4532 H 436.32 0.00769287 3.94199 0
M  V30 4533 H 437.608 -0.457548 5.06739 0
M  V30 4534 H 437.006 -3.56609 4.39143 0
M  V30 4535 H 435.563 -3.80334 5.29329 0
M  V30 4536 N 438.996 -1.55193 0.274407 0
M  V30 4537 C 440.412 -1.59401 -0.0797543 0
M  V30 4538 C 440.612 -1.29162 -1.54659 0
M  V30 4539 O 439.668 -1.05215 -2.29534 0
M  V30 4540 C 440.981 -2.99257 0.294238 0
M  V30 4541 C 442.529 -3.12072 0.240796 0
M  V30 4542 C 443.004 -4.54194 0.589218 0
M  V30 4543 N 444.495 -4.60033 0.540744 0
M  V30 4544 C 445.23 -5.68027 0.783147 0
M  V30 4545 N 444.726 -6.8417 1.09013 0
M  V30 4546 N 446.519 -5.57572 0.711993 0
M  V30 4547 H 438.67 -1.73113 1.23067 0
M  V30 4548 H 440.933 -0.807197 0.497129 0
M  V30 4549 H 440.639 -3.26217 1.31435 0
M  V30 4550 H 440.513 -3.75427 -0.365281 0
M  V30 4551 H 442.9 -2.84877 -0.770024 0
M  V30 4552 H 442.981 -2.38117 0.934563 0
M  V30 4553 H 442.625 -4.82115 1.59772 0
M  V30 4554 H 442.555 -5.26448 -0.126331 0
M  V30 4555 H 445.046 -3.76599 0.313327 0
M  V30 4556 H 445.359 -7.6243 1.26178 0
M  V30 4557 H 443.704 -6.85787 1.12789 0
M  V30 4558 H 446.895 -4.65714 0.472014 0
M  V30 4559 H 447.068 -6.41659 0.90429 0
M  V30 4560 N 440.474 -0.00167713 -1.576 0
M  V30 4561 C 441.424 0.997744 -2.0501 0
M  V30 4562 C 442.408 1.30214 -0.94515 0
M  V30 4563 O 443.6 1.29284 -1.20891 0
M  V30 4564 C 440.729 2.2892 -2.55833 0
M  V30 4565 C 439.815 2.01437 -3.73208 0
M  V30 4566 N 440.206 1.44119 -4.84833 0
M  V30 4567 C 438.504 2.31571 -3.8117 0
M  V30 4568 C 439.205 1.33145 -5.66257 0
M  V30 4569 N 438.181 1.81763 -5.12312 0
M  V30 4570 H 441.983 0.549098 -2.88725 0
M  V30 4571 H 439.497 0.20398 -1.61114 0
M  V30 4572 H 441.494 3.01361 -2.88075 0
M  V30 4573 H 440.154 2.74436 -1.73537 0
M  V30 4574 H 441.165 1.11978 -5.0565 0
M  V30 4575 H 437.842 2.7995 -3.09732 0
M  V30 4576 H 439.232 0.890567 -6.65972 0
M  V30 4577 N 441.952 1.55251 0.271103 0
M  V30 4578 C 443.229 1.66664 1.02384 0
M  V30 4579 C 443.609 0.534363 2.04225 0
M  V30 4580 O 442.957 -0.465337 2.23712 0
M  V30 4581 C 443.167 3.05961 1.67895 0
M  V30 4582 C 444.515 3.63772 2.18986 0
M  V30 4583 O 445.539 3.08606 1.77878 0
M  V30 4584 O 444.398 4.60429 2.94393 0
M  V30 4585 H 441.492 0.676957 0.475035 0
M  V30 4586 H 444.038 1.67589 0.26681 0
M  V30 4587 H 442.81 3.79815 0.941071 0
M  V30 4588 H 442.433 3.08943 2.5028 0
M  V30 4589 N 443.43 -0.535701 1.48216 0
M  V30 4590 C 444.378 -1.66179 1.62749 0
M  V30 4591 C 445.372 -1.62034 0.49409 0
M  V30 4592 O 446.578 -1.6696 0.672624 0
M  V30 4593 H 442.953 -0.550244 0.512578 0
M  V30 4594 H 444.924 -1.51063 2.57337 0
M  V30 4595 C 443.673 -3.04471 1.67907 0
M  V30 4596 H 442.996 -3.08351 2.54479 0
M  V30 4597 H 444.436 -3.82894 1.82121 0
M  V30 4598 C 442.895 -3.34314 0.416596 0
M  V30 4599 O 443.425 -3.98905 -0.473014 0
M  V30 4600 N 441.631 -2.89149 0.290038 0
M  V30 4601 H 441.178 -2.36764 1.01493 0
M  V30 4602 H 441.136 -3.09486 -0.55367 0
M  V30 4603 N 444.908 -1.36708 -0.784132 0
M  V30 4604 C 446.154 -1.31426 -1.54451 0
M  V30 4605 C 446.487 0.10476 -1.93917 0
M  V30 4606 O 445.762 1.05934 -1.6312 0
M  V30 4607 C 446.045 -2.24189 -2.818 0
M  V30 4608 C 445.898 -3.74813 -2.48667 0
M  V30 4609 C 447.217 -2.15626 -3.83658 0
M  V30 4610 H 444.336 -0.478739 -0.560337 0
M  V30 4611 H 446.978 -1.67305 -0.900498 0
M  V30 4612 H 445.128 -1.93722 -3.36755 0
M  V30 4613 H 446.8 -4.15823 -1.99722 0
M  V30 4614 H 445.043 -3.93989 -1.81535 0
M  V30 4615 H 445.714 -4.35138 -3.39646 0
M  V30 4616 H 448.19 -2.42456 -3.38163 0
M  V30 4617 H 447.066 -2.82694 -4.70506 0
M  V30 4618 H 447.327 -1.14522 -4.27009 0
M  V30 4619 N 446.386 1.0089 -1.21074 0
M  V30 4620 C 447.611 1.78727 -1.05221 0
M  V30 4621 C 448.036 1.83932 0.393795 0
M  V30 4622 O 447.394 1.28004 1.28393 0
M  V30 4623 C 447.442 3.20665 -1.64944 0
M  V30 4624 O 446.546 4.02632 -0.892273 0
M  V30 4625 H 445.887 0.550973 -0.370574 0
M  V30 4626 H 448.417 1.26847 -1.60534 0
M  V30 4627 H 448.427 3.71352 -1.69002 0
M  V30 4628 H 447.102 3.16191 -2.70177 0
M  V30 4629 H 445.679 3.61207 -0.926492 0
M  V30 4630 N 447.864 1.01787 1.20321 0
M  V30 4631 C 449.113 0.703249 1.89043 0
M  V30 4632 C 449.426 -0.770445 1.79787 0
M  V30 4633 O 450.632 -1.19767 2.43656 0
M  V30 4634 C 449.088 1.20749 3.3904 0
M  V30 4635 C 448.696 2.70817 3.56878 0
M  V30 4636 C 450.44 0.968352 4.13308 0
M  V30 4637 C 448.347 3.14716 5.00708 0
M  V30 4638 H 447.277 0.259354 0.707991 0
M  V30 4639 H 449.928 1.23072 1.36108 0
M  V30 4640 H 448.31 0.607989 3.91305 0
M  V30 4641 H 449.484 3.36327 3.14993 0
M  V30 4642 H 447.799 2.92888 2.95983 0
M  V30 4643 H 450.396 1.27173 5.19356 0
M  V30 4644 H 450.739 -0.095149 4.16191 0
M  V30 4645 H 451.272 1.53129 3.67146 0
M  V30 4646 H 448.011 4.20347 5.02979 0
M  V30 4647 H 447.531 2.53927 5.43398 0
M  V30 4648 H 449.21 3.07426 5.69296 0
M  V30 4649 N 449.342 -1.36122 0.79427 0
M  V30 4650 C 450.272 -2.32551 0.210328 0
M  V30 4651 C 451.253 -1.56884 -0.657386 0
M  V30 4652 O 452.438 -1.85014 -0.590207 0
M  V30 4653 C 449.568 -3.41128 -0.651819 0
M  V30 4654 C 448.522 -4.27842 0.116395 0
M  V30 4655 C 447.848 -5.2763 -0.86666 0
M  V30 4656 C 449.148 -5.05647 1.30837 0
M  V30 4657 H 450.842 -2.81636 1.01594 0
M  V30 4658 H 448.388 -1.35407 0.489981 0
M  V30 4659 H 450.341 -4.07581 -1.07031 0
M  V30 4660 H 449.065 -2.90622 -1.49019 0
M  V30 4661 H 447.724 -3.62952 0.515915 0
M  V30 4662 H 447.372 -4.73395 -1.70019 0
M  V30 4663 H 447.072 -5.86514 -0.35705 0
M  V30 4664 H 448.596 -5.96955 -1.28361 0
M  V30 4665 H 450.01 -5.65113 0.965393 0
M  V30 4666 H 448.407 -5.73967 1.75161 0
M  V30 4667 H 449.477 -4.37006 2.10128 0
M  V30 4668 N 450.82 -0.546701 -1.47814 0
M  V30 4669 C 452.067 -0.0187407 -2.02491 0
M  V30 4670 C 452.395 1.32685 -1.42215 0
M  V30 4671 O 451.65 1.87413 -0.563454 0
M  V30 4672 C 451.949 0.134869 -3.57145 0
M  V30 4673 C 451.615 -1.13849 -4.3629 0
M  V30 4674 C 450.277 -1.48743 -4.57634 0
M  V30 4675 C 452.629 -1.98277 -4.82012 0
M  V30 4676 C 449.957 -2.67932 -5.21948 0
M  V30 4677 C 452.309 -3.16659 -5.4764 0
M  V30 4678 C 450.973 -3.51879 -5.67219 0
M  V30 4679 H 450.243 -0.0068577 -0.740968 0
M  V30 4680 H 452.89 -0.716097 -1.77607 0
M  V30 4681 H 451.195 0.915118 -3.80963 0
M  V30 4682 H 452.892 0.558556 -3.97091 0
M  V30 4683 H 449.482 -0.856767 -4.19949 0
M  V30 4684 H 453.666 -1.72628 -4.6531 0
M  V30 4685 H 448.922 -2.95401 -5.35302 0
M  V30 4686 H 453.096 -3.82374 -5.82033 0
M  V30 4687 H 450.723 -4.44331 -6.16825 0
M  V30 4688 N 452.299 1.55045 -0.282633 0
M  V30 4689 C 453.262 2.21515 0.588539 0
M  V30 4690 C 454.262 1.19535 1.07554 0
M  V30 4691 O 455.452 1.44391 0.974514 0
M  V30 4692 C 452.584 2.88704 1.8128 0
M  V30 4693 H 453.777 2.99899 0.00806397 0
M  V30 4694 H 451.33 1.56265 -0.0333067 0
M  V30 4695 H 452.065 2.14352 2.43359 0
M  V30 4696 H 451.85 3.63443 1.47144 0
M  V30 4697 H 453.34 3.39465 2.43214 0
M  V30 4698 N 453.777 0.010035 1.57597 0
M  V30 4699 C 455.054 -0.710296 1.82248 0
M  V30 4700 C 455.434 -1.91426 0.889911 0
M  V30 4701 O 454.782 -2.28424 -0.0590292 0
M  V30 4702 C 454.992 -1.10655 3.30993 0
M  V30 4703 C 456.34 -1.50621 3.96987 0
M  V30 4704 O 457.364 -1.20007 3.35375 0
M  V30 4705 O 456.223 -2.07587 5.05539 0
M  V30 4706 H 453.317 -0.34673 0.750804 0
M  V30 4707 H 455.863 0.0362578 1.69661 0
M  V30 4708 H 454.635 -0.248826 3.90508 0
M  V30 4709 H 454.258 -1.91189 3.48615 0
M  V30 4710 N 455.255 -1.55392 -0.262866 0
M  V30 4711 C 456.504 -1.75679 -0.990943 0
M  V30 4712 C 456.817 -0.57097 -1.87081 0
M  V30 4713 O 458.023 -0.656486 -2.63444 0
M  V30 4714 C 456.479 -3.10964 -1.81188 0
M  V30 4715 C 456.087 -4.37146 -0.980188 0
M  V30 4716 C 457.831 -3.40597 -2.53365 0
M  V30 4717 C 455.738 -5.63466 -1.7961 0
M  V30 4718 H 454.668 -0.654868 -0.373716 0
M  V30 4719 H 457.319 -1.81841 -0.246203 0
M  V30 4720 H 455.701 -2.98867 -2.59797 0
M  V30 4721 H 456.875 -4.60187 -0.237558 0
M  V30 4722 H 455.19 -4.14731 -0.372497 0
M  V30 4723 H 457.787 -4.32186 -3.14833 0
M  V30 4724 H 458.13 -2.6119 -3.24169 0
M  V30 4725 H 458.663 -3.53838 -1.81779 0
M  V30 4726 H 455.402 -6.4565 -1.13209 0
M  V30 4727 H 454.922 -5.44552 -2.51443 0
M  V30 4728 H 456.601 -6.02139 -2.36723 0
M  V30 4729 N 456.733 0.527833 -1.48498 0
M  V30 4730 C 457.979 1.28545 -1.56857 0
M  V30 4731 C 458.312 1.92678 -0.242651 0
M  V30 4732 O 457.587 1.79394 0.751545 0
M  V30 4733 C 457.87 2.37314 -2.70839 0
M  V30 4734 C 457.723 1.77858 -4.13142 0
M  V30 4735 C 459.042 3.39068 -2.80573 0
M  V30 4736 H 456.161 0.466006 -0.570971 0
M  V30 4737 H 458.803 0.587784 -1.8068 0
M  V30 4738 H 456.953 2.96821 -2.50658 0
M  V30 4739 H 458.625 1.22385 -4.44769 0
M  V30 4740 H 456.868 1.08383 -4.20042 0
M  V30 4741 H 457.539 2.56624 -4.88721 0
M  V30 4742 H 460.015 2.89518 -2.98862 0
M  V30 4743 H 458.891 4.12566 -3.6205 0
M  V30 4744 H 459.152 3.9975 -1.88818 0
M  V30 4745 N 458.211 1.37122 0.776871 0
M  V30 4746 C 459.459 1.31787 1.53221 0
M  V30 4747 C 459.78 -0.0987589 1.9475 0
M  V30 4748 O 459.05 -1.0417 1.65908 0
M  V30 4749 H 457.63 0.484839 0.568278 0
M  V30 4750 H 460.292 1.71556 0.924917 0
M  V30 4751 H 459.388 1.95355 2.43398 0
M  V30 4752 N 459.689 -1.00246 1.21608 0
M  V30 4753 C 460.936 -1.74061 1.03485 0
M  V30 4754 C 461.264 -1.89658 -0.431308 0
M  V30 4755 O 460.519 -1.42976 -1.33627 0
M  V30 4756 C 460.818 -3.15448 1.68009 0
M  V30 4757 C 460.484 -3.19792 3.17874 0
M  V30 4758 C 459.146 -3.20685 3.58768 0
M  V30 4759 C 461.498 -3.16835 4.13842 0
M  V30 4760 C 458.826 -3.16309 4.94131 0
M  V30 4761 C 461.178 -3.14001 5.49169 0
M  V30 4762 C 459.842 -3.13204 5.89457 0
M  V30 4763 H 459.112 -0.636934 0.378677 0
M  V30 4764 H 461.759 -1.17473 1.51236 0
M  V30 4765 H 460.064 -3.75284 1.12557 0
M  V30 4766 H 461.761 -3.71285 1.51487 0
M  V30 4767 H 458.351 -3.19842 2.85305 0
M  V30 4768 H 462.535 -3.15303 3.83272 0
M  V30 4769 H 457.791 -3.14032 5.24589 0
M  V30 4770 H 461.965 -3.10667 6.23265 0
M  V30 4771 H 459.592 -3.09568 6.94314 0
M  V30 4772 N 461.167 -1.02423 -1.1978 0
M  V30 4773 C 462.395 -0.737456 -1.93311 0
M  V30 4774 C 462.81 0.703023 -1.75223 0
M  V30 4775 O 462.167 1.47761 -1.07112 0
M  V30 4776 C 462.218 -1.0733 -3.45199 0
M  V30 4777 O 461.939 -2.4572 -3.62702 0
M  V30 4778 C 463.44 -0.80866 -4.35862 0
M  V30 4779 H 460.66 -0.2702 -0.614193 0
M  V30 4780 H 463.204 -1.36747 -1.52054 0
M  V30 4781 H 461.359 -0.488545 -3.84307 0
M  V30 4782 H 461.773 -2.58081 -4.56612 0
M  V30 4783 H 463.247 -1.09365 -5.41057 0
M  V30 4784 H 463.724 0.257025 -4.38447 0
M  V30 4785 H 464.33 -1.37592 -4.02428 0
M  V30 4786 N 462.645 1.35699 -0.801477 0
M  V30 4787 C 463.893 1.9852 -0.37871 0
M  V30 4788 C 464.214 1.63907 1.05638 0
M  V30 4789 O 463.484 0.919013 1.73006 0
M  V30 4790 H 462.064 0.734322 -0.137042 0
M  V30 4791 H 464.726 1.65697 -1.02619 0
M  V30 4792 H 463.822 3.08382 -0.480284 0
M  V30 4793 N 464.123 0.554532 1.47522 0
M  V30 4794 C 465.053 -0.182974 2.32782 0
M  V30 4795 C 466.034 -0.911377 1.43624 0
M  V30 4796 O 467.219 -0.892366 1.72483 0
M  V30 4797 C 464.349 -1.21513 3.25349 0
M  V30 4798 C 463.303 -0.603355 4.23726 0
M  V30 4799 C 462.629 -1.73995 5.05598 0
M  V30 4800 C 463.929 0.441121 5.20434 0
M  V30 4801 H 465.623 0.52882 2.94693 0
M  V30 4802 H 463.169 0.255759 1.41711 0
M  V30 4803 H 465.122 -1.73922 3.83835 0
M  V30 4804 H 463.846 -1.95683 2.61487 0
M  V30 4805 H 462.505 -0.10059 3.66462 0
M  V30 4806 H 462.153 -2.47063 4.38143 0
M  V30 4807 H 461.853 -1.3364 5.72201 0
M  V30 4808 H 463.377 -2.26735 5.66942 0
M  V30 4809 H 464.791 0.00319931 5.733 0
M  V30 4810 H 463.188 0.763402 5.95224 0
M  V30 4811 H 464.258 1.33799 4.66075 0
M  V30 4812 N 465.601 -1.54893 0.290851 0
M  V30 4813 C 466.564 -2.21824 -0.576784 0
M  V30 4814 C 467.564 -1.20104 -1.06919 0
M  V30 4815 O 468.754 -1.44906 -0.966843 0
M  V30 4816 C 465.886 -2.89662 -1.79747 0
M  V30 4817 H 467.079 -2.99899 0.00784051 0
M  V30 4818 H 464.632 -1.56245 0.0415934 0
M  V30 4819 H 465.367 -2.15639 -2.42219 0
M  V30 4820 H 465.152 -3.64219 -1.45214 0
M  V30 4821 H 466.642 -3.4075 -2.4141 0
M  V30 4822 N 467.08 -0.0183926 -1.57589 0
M  V30 4823 C 468.305 0.676634 -1.96052 0
M  V30 4824 C 468.73 1.6548 -0.894307 0
M  V30 4825 O 468.088 1.80712 0.145849 0
M  V30 4826 C 468.136 1.36872 -3.33614 0
M  V30 4827 O 467.24 2.48372 -3.29219 0
M  V30 4828 H 466.581 0.1786 -0.63953 0
M  V30 4829 H 469.111 -0.077056 -2.04455 0
M  V30 4830 H 469.121 1.72797 -3.69601 0
M  V30 4831 H 467.796 0.651636 -4.10763 0
M  V30 4832 H 466.373 2.14639 -3.04934 0
M  V30 4833 N 468.558 1.5553 0.254621 0
M  V30 4834 C 469.49 1.86104 1.33783 0
M  V30 4835 C 470.503 0.746752 1.44663 0
M  V30 4836 O 471.692 1.0248 1.46151 0
M  V30 4837 C 468.792 2.02532 2.71724 0
M  V30 4838 C 467.965 3.33335 2.83208 0
M  V30 4839 C 467.024 3.396 4.01943 0
M  V30 4840 O 466.05 4.12862 3.91834 0
M  V30 4841 N 467.252 2.68332 5.1476 0
M  V30 4842 H 470.017 2.79605 1.07893 0
M  V30 4843 H 467.578 1.55672 0.444732 0
M  V30 4844 H 469.57 2.04074 3.4948 0
M  V30 4845 H 468.14 1.15811 2.90356 0
M  V30 4846 H 467.36 3.44176 1.92189 0
M  V30 4847 H 468.648 4.19565 2.87824 0
M  V30 4848 H 468.046 2.08528 5.25864 0
M  V30 4849 H 466.603 2.75575 5.90679 0
M  V30 4850 N 470.036 -0.519951 1.48776 0
M  V30 4851 C 471.276 -1.2856 1.58908 0
M  V30 4852 C 471.64 -1.90212 0.261418 0
M  V30 4853 O 472.841 -2.67746 0.237791 0
M  V30 4854 C 471.112 -2.33836 2.70288 0
M  V30 4855 S 472.671 -3.19992 3.0025 0
M  V30 4856 H 469.489 -0.43717 0.560717 0
M  V30 4857 H 472.091 -0.591205 1.86346 0
M  V30 4858 H 470.795 -1.87041 3.653 0
M  V30 4859 H 470.326 -3.07969 2.44783 0
M  V30 4860 H 472.341 -4.34122 2.40317 0
M  V30 4861 N 471.514 -1.37532 -0.769588 0
M  V30 4862 C 472.742 -1.36059 -1.55871 0
M  V30 4863 C 473.157 0.053544 -1.88724 0
M  V30 4864 O 472.514 1.01591 -1.5161 0
M  V30 4865 C 472.565 -2.20107 -2.86767 0
M  V30 4866 O 472.286 -3.56009 -2.55321 0
M  V30 4867 C 473.787 -2.26636 -3.80987 0
M  V30 4868 H 471.007 -0.465967 -0.482821 0
M  V30 4869 H 473.551 -1.80901 -0.953686 0
M  V30 4870 H 471.706 -1.78768 -3.43687 0
M  V30 4871 H 472.12 -4.0009 -3.39158 0
M  V30 4872 H 473.594 -2.89763 -4.69831 0
M  V30 4873 H 474.071 -1.2754 -4.20274 0
M  V30 4874 H 474.677 -2.68296 -3.29996 0
M  V30 4875 N 472.992 0.995999 -1.22138 0
M  V30 4876 C 473.955 2.06711 -0.990109 0
M  V30 4877 C 474.955 1.60744 0.0422978 0
M  V30 4878 O 476.145 1.73095 -0.195895 0
M  V30 4879 C 473.277 3.37288 -0.49491 0
M  V30 4880 H 474.47 2.28661 -1.94047 0
M  V30 4881 H 472.023 1.16711 -1.03963 0
M  V30 4882 H 472.758 3.21022 0.459948 0
M  V30 4883 H 472.543 3.71986 -1.23971 0
M  V30 4884 H 474.033 4.16103 -0.353253 0
M  V30 4885 N 474.47 1.03057 1.19235 0
M  V30 4886 C 475.402 0.570932 2.21975 0
M  V30 4887 C 476.415 -0.354088 1.58903 0
M  V30 4888 O 477.604 -0.150211 1.77867 0
M  V30 4889 C 474.704 -0.187152 3.38383 0
M  V30 4890 C 473.877 0.743231 4.31039 0
M  V30 4891 C 472.936 0.0302493 5.26191 0
M  V30 4892 O 471.962 0.657371 5.65391 0
M  V30 4893 N 473.164 -1.23991 5.67104 0
M  V30 4894 H 475.929 1.45456 2.62036 0
M  V30 4895 H 473.49 0.909807 1.33918 0
M  V30 4896 H 475.482 -0.673715 3.99053 0
M  V30 4897 H 474.052 -0.972205 2.97098 0
M  V30 4898 H 473.272 1.40985 3.68126 0
M  V30 4899 H 474.56 1.3755 4.89854 0
M  V30 4900 H 473.958 -1.77011 5.37293 0
M  V30 4901 H 472.515 -1.67093 6.30018 0
M  V30 4902 N 475.948 -1.35272 0.808662 0
M  V30 4903 C 476.858 -2.33546 0.222079 0
M  V30 4904 C 477.874 -1.6196 -0.636011 0
M  V30 4905 O 479.05 -1.93822 -0.547274 0
M  V30 4906 C 476.115 -3.41148 -0.61795 0
M  V30 4907 C 475.176 -4.28507 0.260875 0
M  V30 4908 C 474.409 -5.3097 -0.539156 0
M  V30 4909 O 474.632 -5.42123 -1.77367 0
M  V30 4910 O 473.566 -6.01858 0.0710526 0
M  V30 4911 H 477.392 -2.85515 1.03512 0
M  V30 4912 H 474.977 -1.38079 0.570495 0
M  V30 4913 H 476.859 -4.06889 -1.09634 0
M  V30 4914 H 475.534 -2.91447 -1.40855 0
M  V30 4915 H 474.441 -3.6574 0.786451 0
M  V30 4916 H 475.774 -4.81611 1.01547 0
M  V30 4917 N 477.426 -0.562348 -1.47226 0
M  V30 4918 C 478.356 0.170627 -2.32876 0
M  V30 4919 C 479.337 0.903748 -1.44106 0
M  V30 4920 O 480.522 0.883206 -1.72954 0
M  V30 4921 C 477.652 1.19786 -3.25989 0
M  V30 4922 C 476.606 0.580875 -4.2404 0
M  V30 4923 C 475.932 1.71311 -5.06514 0
M  V30 4924 C 477.232 -0.468714 -5.20193 0
M  V30 4925 H 478.926 -0.544441 -2.94408 0
M  V30 4926 H 476.472 -0.263271 -1.41573 0
M  V30 4927 H 478.425 1.71884 -3.84752 0
M  V30 4928 H 477.149 1.94294 -2.62521 0
M  V30 4929 H 475.808 0.0811538 -3.6651 0
M  V30 4930 H 475.456 2.44736 -4.39447 0
M  V30 4931 H 475.156 1.30604 -5.72902 0
M  V30 4932 H 476.68 2.23725 -5.68137 0
M  V30 4933 H 478.094 -0.0336028 -5.7329 0
M  V30 4934 H 476.491 -0.794957 -5.94811 0
M  V30 4935 H 477.561 -1.36269 -4.65359 0
M  V30 4936 N 478.904 1.54736 -0.299062 0
M  V30 4937 C 480.15 2.00397 0.311244 0
M  V30 4938 C 480.483 1.18716 1.53688 0
M  V30 4939 O 479.758 0.263154 1.92712 0
M  V30 4940 C 480.041 3.53817 0.669761 0
M  V30 4941 C 479.894 4.46239 -0.564882 0
M  V30 4942 C 481.213 4.13856 1.49702 0
M  V30 4943 H 478.332 0.728493 0.111653 0
M  V30 4944 H 480.974 1.85506 -0.410774 0
M  V30 4945 H 479.124 3.66637 1.28491 0
M  V30 4946 H 480.796 4.45328 -1.20337 0
M  V30 4947 H 479.039 4.16916 -1.19849 0
M  V30 4948 H 479.71 5.5134 -0.269918 0
M  V30 4949 H 482.186 4.04461 0.977284 0
M  V30 4950 H 481.062 5.21365 1.71666 0
M  V30 4951 H 481.323 3.65608 2.48563 0
M  V30 4952 N 480.382 0.0267497 1.57577 0
M  V30 4953 C 481.329 -0.955894 2.10075 0
M  V30 4954 C 482.299 -1.32453 1.00226 0
M  V30 4955 O 483.484 -1.41826 1.27632 0
M  V30 4956 C 480.624 -2.2338 2.6305 0
M  V30 4957 C 479.737 -1.92183 3.86898 0
M  V30 4958 C 478.872 -3.14251 4.28275 0
M  V30 4959 C 477.911 -2.78862 5.44888 0
M  V30 4960 N 477.048 -3.93548 5.81433 0
M  V30 4961 H 481.888 -0.501303 2.93753 0
M  V30 4962 H 479.425 -0.235847 1.45197 0
M  V30 4963 H 481.383 -2.98124 2.91853 0
M  V30 4964 H 480.013 -2.6646 1.82205 0
M  V30 4965 H 479.065 -1.07692 3.64838 0
M  V30 4966 H 480.377 -1.62117 4.7172 0
M  V30 4967 H 479.531 -3.97317 4.58502 0
M  V30 4968 H 478.27 -3.47476 3.42215 0
M  V30 4969 H 477.275 -1.94208 5.14357 0
M  V30 4970 H 478.5 -2.46855 6.32645 0
M  V30 4971 H 476.446 -4.2662 4.98328 0
M  V30 4972 H 476.363 -3.67098 6.6089 0
M  V30 4973 H 477.631 -4.77325 6.16264 0
M  V30 4974 N 481.861 -1.55662 -0.24637 0
M  V30 4975 C 482.791 -1.93377 -1.30873 0
M  V30 4976 C 483.772 -0.798773 -1.50179 0
M  V30 4977 O 484.957 -1.0591 -1.62778 0
M  V30 4978 C 482.087 -2.22893 -2.66338 0
M  V30 4979 C 481.041 -3.38649 -2.61727 0
M  V30 4980 C 480.367 -3.53708 -4.00992 0
M  V30 4981 C 481.667 -4.74323 -2.18666 0
M  V30 4982 H 483.361 -2.82363 -0.995552 0
M  V30 4983 H 480.907 -1.35854 -0.477464 0
M  V30 4984 H 482.86 -2.47866 -3.40794 0
M  V30 4985 H 481.584 -1.30733 -2.99293 0
M  V30 4986 H 480.243 -3.13685 -1.89729 0
M  V30 4987 H 479.891 -2.58967 -4.31214 0
M  V30 4988 H 479.591 -4.31551 -3.98795 0
M  V30 4989 H 481.115 -3.81003 -4.77147 0
M  V30 4990 H 482.529 -4.98665 -2.82854 0
M  V30 4991 H 480.926 -5.55273 -2.27579 0
M  V30 4992 H 481.996 -4.71349 -1.13834 0
M  V30 4993 N 483.339 0.512053 -1.4905 0
M  V30 4994 C 484.269 1.62365 -1.67809 0
M  V30 4995 C 485.25 1.61737 -0.526809 0
M  V30 4996 O 486.435 1.78651 -0.761404 0
M  V30 4997 C 483.565 3.00895 -1.73435 0
M  V30 4998 C 482.519 3.16387 -2.88242 0
M  V30 4999 C 481.845 4.56157 -2.78971 0
M  V30 5000 C 483.145 2.97457 -4.29321 0
M  V30 5001 H 484.839 1.46921 -2.60873 0
M  V30 5002 H 482.385 0.705379 -1.2554 0
M  V30 5003 H 484.338 3.78549 -1.85145 0
M  V30 5004 H 483.062 3.17403 -0.769619 0
M  V30 5005 H 481.721 2.41155 -2.76116 0
M  V30 5006 H 481.369 4.69525 -1.8043 0
M  V30 5007 H 481.069 4.67465 -3.5602 0
M  V30 5008 H 482.593 5.35886 -2.92675 0
M  V30 5009 H 484.007 3.64888 -4.42187 0
M  V30 5010 H 482.404 3.20245 -5.07507 0
M  V30 5011 H 483.474 1.93692 -4.44535 0
M  V30 5012 N 484.817 1.37938 0.762283 0
M  V30 5013 C 485.765 1.34569 1.89721 0
M  V30 5014 C 486.759 0.232929 1.67791 0
M  V30 5015 O 487.965 0.401485 1.75465 0
M  V30 5016 H 484.34 0.419594 0.624055 0
M  V30 5017 H 486.311 2.30357 1.8968 0
M  V30 5018 C 485.06 1.17898 3.27101 0
M  V30 5019 H 484.383 2.02781 3.44558 0
M  V30 5020 H 485.823 1.19593 4.06784 0
M  V30 5021 C 484.282 -0.114728 3.36705 0
M  V30 5022 O 484.812 -1.0949 3.8649 0
M  V30 5023 N 483.018 -0.16863 2.9011 0
M  V30 5024 H 482.565 0.62967 2.49786 0
M  V30 5025 H 482.523 -1.03383 2.96916 0
M  V30 5026 N 486.295 -0.989507 1.22664 0
M  V30 5027 C 487.205 -2.11449 1.01619 0
M  V30 5028 C 488.221 -1.73962 -0.036545 0
M  V30 5029 O 489.397 -2.00788 0.156924 0
M  V30 5030 C 486.462 -3.41465 0.600204 0
M  V30 5031 C 485.523 -3.93033 1.72695 0
M  V30 5032 C 484.756 -5.16844 1.33071 0
M  V30 5033 O 484.979 -5.7001 0.210975 0
M  V30 5034 O 483.913 -5.6225 2.14845 0
M  V30 5035 H 487.739 -2.32088 1.9588 0
M  V30 5036 H 485.324 -1.09823 1.01289 0
M  V30 5037 H 487.206 -4.19695 0.37873 0
M  V30 5038 H 485.881 -3.22178 -0.313511 0
M  V30 5039 H 484.788 -3.15961 2.00298 0
M  V30 5040 H 486.121 -4.16758 2.61865 0
M  V30 5041 N 487.773 -1.03688 -1.18687 0
M  V30 5042 C 488.703 -0.645407 -2.24403 0
M  V30 5043 C 489.684 0.349511 -1.66471 0
M  V30 5044 O 490.869 0.230453 -1.92828 0
M  V30 5045 C 487.999 -0.00365337 -3.473 0
M  V30 5046 C 486.953 -0.921705 -4.17958 0
M  V30 5047 C 486.279 -0.144629 -5.34504 0
M  V30 5048 C 487.579 -2.23909 -4.71871 0
M  V30 5049 H 489.273 -1.52917 -2.57404 0
M  V30 5050 H 486.819 -0.736711 -1.23728 0
M  V30 5051 H 488.772 0.281908 -4.20456 0
M  V30 5052 H 487.496 0.914963 -3.13522 0
M  V30 5053 H 486.155 -1.19159 -3.46694 0
M  V30 5054 H 485.803 0.776274 -4.96974 0
M  V30 5055 H 485.503 -0.756206 -5.82714 0
M  V30 5056 H 487.027 0.134004 -6.10453 0
M  V30 5057 H 488.441 -2.0145 -5.36741 0
M  V30 5058 H 486.838 -2.8033 -5.30599 0
M  V30 5059 H 487.908 -2.88822 -3.895 0
M  V30 5060 N 489.251 1.34841 -0.815825 0
M  V30 5061 C 490.498 1.98499 -0.400535 0
M  V30 5062 C 490.826 1.64699 1.03463 0
M  V30 5063 O 490.081 0.907006 1.73412 0
M  V30 5064 C 490.38 3.53273 -0.541541 0
M  V30 5065 C 490.046 4.06966 -1.94138 0
M  V30 5066 C 488.708 4.21341 -2.32433 0
M  V30 5067 C 491.06 4.35933 -2.85677 0
M  V30 5068 C 488.388 4.62007 -3.61617 0
M  V30 5069 C 490.74 4.78042 -4.14317 0
M  V30 5070 C 489.404 4.90622 -4.52599 0
M  V30 5071 H 488.674 0.72636 -0.146566 0
M  V30 5072 H 491.321 1.60902 -1.0384 0
M  V30 5073 H 489.626 3.91387 0.179741 0
M  V30 5074 H 491.323 4.00497 -0.20085 0
M  V30 5075 H 487.913 3.96235 -1.63388 0
M  V30 5076 H 492.097 4.24372 -2.57337 0
M  V30 5077 H 487.353 4.69937 -3.91113 0
M  V30 5078 H 491.527 4.99415 -4.85342 0
M  V30 5079 H 489.154 5.2189 -5.52752 0
M  V30 5080 N 490.729 0.570148 1.46925 0
M  V30 5081 C 491.977 0.0508523 2.02036 0
M  V30 5082 C 492.298 -1.30885 1.44548 0
M  V30 5083 O 491.568 -1.85647 0.625453 0
M  V30 5084 H 490.148 0.0158088 0.746833 0
M  V30 5085 H 492.81 0.743086 1.80178 0
M  V30 5086 H 491.906 -0.027575 3.12088 0
M  V30 5087 N 492.207 -1.54576 0.307264 0
M  V30 5088 C 493.154 -2.23751 -0.56604 0
M  V30 5089 C 494.124 -1.22235 -1.12462 0
M  V30 5090 O 495.309 -1.50873 -1.16799 0
M  V30 5091 C 492.449 -2.98661 -1.72903 0
M  V30 5092 C 491.562 -4.14963 -1.20124 0
M  V30 5093 C 490.697 -4.77441 -2.3286 0
M  V30 5094 C 489.736 -5.85875 -1.77247 0
M  V30 5095 N 488.873 -6.42282 -2.8358 0
M  V30 5096 H 493.713 -2.97984 0.0304578 0
M  V30 5097 H 491.25 -1.47076 0.0268015 0
M  V30 5098 H 493.208 -3.40329 -2.41313 0
M  V30 5099 H 491.838 -2.26793 -2.29706 0
M  V30 5100 H 490.89 -3.78193 -0.409198 0
M  V30 5101 H 492.202 -4.93066 -0.754171 0
M  V30 5102 H 491.356 -5.21993 -3.09205 0
M  V30 5103 H 490.095 -3.98684 -2.80896 0
M  V30 5104 H 489.1 -5.40741 -0.993926 0
M  V30 5105 H 490.325 -6.6652 -1.30107 0
M  V30 5106 H 488.271 -5.66406 -3.30939 0
M  V30 5107 H 488.188 -7.1575 -2.43388 0
M  V30 5108 H 489.456 -6.91492 -3.59804 0
M  V30 5109 N 493.685 -0.035106 -1.57561 0
M  V30 5110 C 494.932 0.642229 -1.92046 0
M  V30 5111 C 495.26 1.7179 -0.91206 0
M  V30 5112 O 494.515 1.95544 0.0781153 0
M  V30 5113 C 494.814 1.29149 -3.3325 0
M  V30 5114 C 494.48 0.345604 -4.49574 0
M  V30 5115 C 493.142 0.0852775 -4.81124 0
M  V30 5116 C 495.494 -0.303569 -5.20315 0
M  V30 5117 C 492.822 -0.831927 -5.80772 0
M  V30 5118 C 495.174 -1.20886 -6.20942 0
M  V30 5119 C 493.838 -1.47802 -6.50931 0
M  V30 5120 H 493.108 0.235008 -0.702746 0
M  V30 5121 H 495.755 -0.0981529 -1.91248 0
M  V30 5122 H 494.06 2.10676 -3.30337 0
M  V30 5123 H 495.757 1.82223 -3.57205 0
M  V30 5124 H 492.347 0.558683 -4.24943 0
M  V30 5125 H 496.531 -0.115515 -4.96166 0
M  V30 5126 H 491.787 -1.0481 -6.02349 0
M  V30 5127 H 495.961 -1.71804 -6.74875 0
M  V30 5128 H 493.588 -2.19039 -7.2796 0
M  V30 5129 N 495.163 1.55791 0.238111 0
M  V30 5130 C 496.44 1.68798 0.98826 0
M  V30 5131 C 496.82 0.577562 2.03045 0
M  V30 5132 O 496.168 -0.41778 2.24648 0
M  V30 5133 C 496.378 3.09454 1.61367 0
M  V30 5134 C 497.726 3.68335 2.11221 0
M  V30 5135 O 498.75 3.1231 1.71292 0
M  V30 5136 O 497.609 4.6657 2.84561 0
M  V30 5137 H 494.703 0.686881 0.460568 0
M  V30 5138 H 497.249 1.68118 0.231202 0
M  V30 5139 H 496.021 3.81726 0.860295 0
M  V30 5140 H 495.644 3.14182 2.4367 0
M  V30 5141 N 496.642 -0.504142 1.49319 0
M  V30 5142 C 497.552 -1.63248 1.68486 0
M  V30 5143 C 498.568 -1.64488 0.567432 0
M  V30 5144 O 499.744 -1.82966 0.841749 0
M  V30 5145 C 496.809 -2.99627 1.74426 0
M  V30 5146 C 495.87 -3.09039 2.97982 0
M  V30 5147 C 495.103 -4.38913 3.0363 0
M  V30 5148 O 495.326 -5.27528 2.16958 0
M  V30 5149 O 494.26 -4.53231 3.96062 0
M  V30 5150 H 498.086 -1.50008 2.64067 0
M  V30 5151 H 495.671 -0.680086 1.33023 0
M  V30 5152 H 497.553 -3.80689 1.80705 0
M  V30 5153 H 496.228 -3.13136 0.820233 0
M  V30 5154 H 495.135 -2.27177 2.97223 0
M  V30 5155 H 496.468 -3.00456 3.89855 0
M  V30 5156 N 498.12 -1.38341 -0.754957 0
M  V30 5157 C 499.05 -1.38176 -1.88227 0
M  V30 5158 C 500.031 -0.247873 -1.68284 0
M  V30 5159 O 501.216 -0.45075 -1.88896 0
M  V30 5160 C 498.346 -1.20471 -3.25736 0
M  V30 5161 C 497.3 -2.3105 -3.60278 0
M  V30 5162 C 496.626 -1.98452 -4.96509 0
M  V30 5163 C 497.926 -3.73305 -3.65295 0
M  V30 5164 H 499.62 -2.32512 -1.88622 0
M  V30 5165 H 497.166 -1.1192 -0.906082 0
M  V30 5166 H 499.119 -1.18982 -4.04254 0
M  V30 5167 H 497.843 -0.225965 -3.25817 0
M  V30 5168 H 496.502 -2.31723 -2.84078 0
M  V30 5169 H 496.15 -0.990641 -4.93148 0
M  V30 5170 H 495.85 -2.7251 -5.20588 0
M  V30 5171 H 497.374 -1.98578 -5.77407 0
M  V30 5172 H 498.788 -3.7467 -4.3393 0
M  V30 5173 H 497.185 -4.46557 -4.00883 0
M  V30 5174 H 498.255 -4.05719 -2.65556 0
M  V30 5175 N 499.598 0.982988 -1.23187 0
M  V30 5176 C 500.561 2.05649 -1.01198 0
M  V30 5177 C 501.561 1.6078 0.0252464 0
M  V30 5178 O 502.751 1.72878 -0.214243 0
M  V30 5179 C 499.883 3.36744 -0.530656 0
M  V30 5180 H 501.076 2.2659 -1.96461 0
M  V30 5181 H 498.629 1.15602 -1.05195 0
M  V30 5182 H 499.364 3.21492 0.425873 0
M  V30 5183 H 499.149 3.7065 -1.2791 0
M  V30 5184 H 500.639 4.15705 -0.397366 0
M  V30 5185 N 501.076 1.04316 1.18135 0
M  V30 5186 C 502.304 0.768117 1.92113 0
M  V30 5187 C 502.719 -0.675057 1.76319 0
M  V30 5188 O 502.076 -1.46038 1.09449 0
M  V30 5189 C 502.127 1.12808 3.43448 0
M  V30 5190 O 501.848 2.5146 3.58747 0
M  V30 5191 C 503.349 0.8779 4.3452 0
M  V30 5192 H 500.569 0.279937 0.609817 0
M  V30 5193 H 503.113 1.39149 1.49859 0
M  V30 5194 H 501.268 0.549623 3.83481 0
M  V30 5195 H 501.682 2.65313 4.52448 0
M  V30 5196 H 503.156 1.17959 5.39249 0
M  V30 5197 H 503.633 -0.187239 4.38801 0
M  V30 5198 H 504.239 1.43977 4.00188 0
M  V30 5199 N 502.554 -1.34406 0.822964 0
M  V30 5200 C 503.464 -2.33298 0.246838 0
M  V30 5201 C 504.48 -1.62625 -0.618797 0
M  V30 5202 O 505.656 -1.94391 -0.526685 0
M  V30 5203 C 502.721 -3.41785 -0.581731 0
M  V30 5204 C 501.782 -4.28206 0.306309 0
M  V30 5205 C 501.015 -5.31512 -0.48281 0
M  V30 5206 O 501.238 -5.43973 -1.71607 0
M  V30 5207 O 500.172 -6.01749 0.134884 0
M  V30 5208 H 503.998 -2.84401 1.06534 0
M  V30 5209 H 501.583 -1.37466 0.585108 0
M  V30 5210 H 503.465 -4.08028 -1.05313 0
M  V30 5211 H 502.14 -2.92925 -1.37756 0
M  V30 5212 H 501.047 -3.64885 0.825199 0
M  V30 5213 H 502.38 -4.80507 1.06649 0
M  V30 5214 N 504.032 -0.577932 -1.46621 0
M  V30 5215 C 504.98 0.170882 -2.31971 0
M  V30 5216 C 505.974 0.889086 -1.44193 0
M  V30 5217 O 507.18 0.808017 -1.60845 0
M  V30 5218 H 503.555 0.0739763 -0.748353 0
M  V30 5219 H 505.526 -0.567856 -2.92947 0
M  V30 5220 C 504.275 1.17438 -3.27267 0
M  V30 5221 H 503.598 0.63116 -3.94787 0
M  V30 5222 H 505.038 1.66882 -3.89778 0
M  V30 5223 C 503.497 2.23292 -2.52274 0
M  V30 5224 O 504.027 3.30567 -2.28229 0
M  V30 5225 N 502.233 1.97772 -2.12919 0
M  V30 5226 H 501.78 1.10545 -2.32675 0
M  V30 5227 H 501.738 2.68809 -1.63062 0
M  V30 5228 N 505.51 1.54411 -0.315457 0
M  V30 5229 C 506.46 2.20772 0.569549 0
M  V30 5230 C 507.444 1.18551 1.08787 0
M  V30 5231 O 508.636 1.44213 1.02624 0
M  V30 5232 C 505.765 2.96293 1.73394 0
M  V30 5233 C 504.851 4.05844 1.2309 0
M  V30 5234 N 505.242 5.03822 0.446927 0
M  V30 5235 C 503.54 4.19648 1.51035 0
M  V30 5236 C 504.241 5.8143 0.17725 0
M  V30 5237 N 503.217 5.38245 0.761118 0
M  V30 5238 H 507.019 2.93877 -0.0368076 0
M  V30 5239 H 504.533 1.61949 -0.120915 0
M  V30 5240 H 506.53 3.42313 2.37965 0
M  V30 5241 H 505.19 2.24708 2.34386 0
M  V30 5242 H 506.201 5.17821 0.0905027 0
M  V30 5243 H 502.878 3.59274 2.1267 0
M  V30 5244 H 504.268 6.70369 -0.45335 0
M  V30 5245 N 506.988 0.0434614 1.5754 0
M  V30 5246 C 508.228 -0.636023 1.94253 0
M  V30 5247 C 508.592 -1.68461 0.921132 0
M  V30 5248 O 509.793 -2.41762 1.17494 0
M  V30 5249 C 508.064 -1.22357 3.35803 0
M  V30 5250 S 509.623 -1.92213 3.94461 0
M  V30 5251 H 506.441 -0.209041 0.679575 0
M  V30 5252 H 509.043 0.110556 1.95187 0
M  V30 5253 H 507.747 -0.448162 4.07946 0
M  V30 5254 H 507.278 -2.00713 3.38346 0
M  V30 5255 H 509.293 -3.20199 3.79061 0
M  V30 5256 N 508.466 -1.55915 -0.229846 0
M  V30 5257 C 509.882 -1.48721 -0.579166 0
M  V30 5258 C 510.082 -0.736976 -1.87539 0
M  V30 5259 O 509.138 -0.273258 -2.51017 0
M  V30 5260 C 510.451 -2.9323 -0.666082 0
M  V30 5261 C 511.999 -3.03701 -0.757267 0
M  V30 5262 C 512.474 -4.49552 -0.8756 0
M  V30 5263 N 513.965 -4.53561 -0.940035 0
M  V30 5264 C 514.7 -5.63683 -1.05116 0
M  V30 5265 N 514.196 -6.83576 -1.12675 0
M  V30 5266 N 515.989 -5.51516 -1.08565 0
M  V30 5267 H 508.14 -2.03123 0.620857 0
M  V30 5268 H 510.403 -0.922898 0.21671 0
M  V30 5269 H 510.109 -3.51032 0.21664 0
M  V30 5270 H 509.983 -3.44668 -1.53243 0
M  V30 5271 H 512.37 -2.45969 -1.63043 0
M  V30 5272 H 512.451 -2.55446 0.134583 0
M  V30 5273 H 512.095 -5.079 -0.00692351 0
M  V30 5274 H 512.025 -4.95506 -1.78274 0
M  V30 5275 H 514.516 -3.67215 -0.892269 0
M  V30 5276 H 514.829 -7.63251 -1.21109 0
M  V30 5277 H 513.174 -6.86303 -1.09603 0
M  V30 5278 H 516.365 -4.5678 -1.02319 0
M  V30 5279 H 516.538 -6.37372 -1.1688 0
M  V30 5280 N 509.944 0.496216 -1.49584 0
M  V30 5281 C 511.36 0.827814 -1.36453 0
M  V30 5282 C 511.56 1.97464 -0.401285 0
M  V30 5283 O 510.616 2.51958 0.165296 0
M  V30 5284 C 511.929 1.16352 -2.77277 0
M  V30 5285 C 513.477 1.27145 -2.86013 0
M  V30 5286 C 513.952 1.64042 -4.27615 0
M  V30 5287 N 515.443 1.71082 -4.30448 0
M  V30 5288 C 516.178 2.01085 -5.36984 0
M  V30 5289 N 515.674 2.2928 -6.5376 0
M  V30 5290 N 517.467 2.02376 -5.24405 0
M  V30 5291 H 509.618 -0.259947 -2.10803 0
M  V30 5292 H 511.881 -0.0537163 -0.946477 0
M  V30 5293 H 511.587 0.394153 -3.49484 0
M  V30 5294 H 511.461 2.10582 -3.12946 0
M  V30 5295 H 513.848 2.03152 -2.1404 0
M  V30 5296 H 513.929 0.309542 -2.5392 0
M  V30 5297 H 513.573 0.88583 -5.00115 0
M  V30 5298 H 513.503 2.6134 -4.57175 0
M  V30 5299 H 515.994 1.51434 -3.46232 0
M  V30 5300 H 516.307 2.51376 -7.30774 0
M  V30 5301 H 514.652 2.26726 -6.56978 0
M  V30 5302 H 517.843 1.79829 -4.32179 0
M  V30 5303 H 518.016 2.25425 -6.07526 0
M  V30 5304 N 511.423 1.38739 0.74761 0
M  V30 5305 C 512.672 1.3459 1.50228 0
M  V30 5306 C 512.985 -0.0595592 1.95509 0
M  V30 5307 O 514.191 -0.22361 2.70578 0
M  V30 5308 C 512.647 2.36377 2.71393 0
M  V30 5309 C 512.255 3.82573 2.33113 0
M  V30 5310 C 513.999 2.41281 3.49262 0
M  V30 5311 C 511.906 4.76032 3.50924 0
M  V30 5312 H 510.836 0.500312 0.564096 0
M  V30 5313 H 513.487 1.64324 0.8167 0
M  V30 5314 H 511.869 1.99694 3.41962 0
M  V30 5315 H 513.043 4.28227 1.70171 0
M  V30 5316 H 511.358 3.80844 1.68365 0
M  V30 5317 H 513.955 3.08301 4.36869 0
M  V30 5318 H 514.298 1.43353 3.9084 0
M  V30 5319 H 514.831 2.76793 2.85711 0
M  V30 5320 H 511.57 5.75177 3.14408 0
M  V30 5321 H 511.09 4.35066 4.12889 0
M  V30 5322 H 512.769 4.94331 4.17427 0
M  V30 5323 N 512.901 -0.976442 1.23707 0
M  V30 5324 C 513.848 -2.06952 1.02174 0
M  V30 5325 C 514.818 -1.65984 -0.0621034 0
M  V30 5326 O 516.003 -1.90584 0.0907906 0
M  V30 5327 C 513.143 -3.39425 0.62327 0
M  V30 5328 C 512.256 -3.9364 1.77966 0
M  V30 5329 C 511.391 -5.14343 1.3276 0
M  V30 5330 C 510.43 -5.60733 2.45449 0
M  V30 5331 N 509.567 -6.72662 2.01172 0
M  V30 5332 H 514.407 -2.24704 1.95734 0
M  V30 5333 H 511.944 -1.10143 0.975034 0
M  V30 5334 H 513.902 -4.15526 0.37332 0
M  V30 5335 H 512.532 -3.21624 -0.275329 0
M  V30 5336 H 511.584 -3.14258 2.14351 0
M  V30 5337 H 512.896 -4.24035 2.62671 0
M  V30 5338 H 512.05 -5.97789 1.03601 0
M  V30 5339 H 510.789 -4.8561 0.450975 0
M  V30 5340 H 509.794 -4.75865 2.75378 0
M  V30 5341 H 511.019 -5.91483 3.33654 0
M  V30 5342 H 508.965 -6.45681 1.15895 0
M  V30 5343 H 508.882 -7.02462 2.79434 0
M  V30 5344 H 510.15 -7.59572 1.75129 0
M  V30 5345 N 514.379 -1.04941 -1.1758 0
M  V30 5346 C 515.628 -0.753124 -1.87112 0
M  V30 5347 C 515.941 0.722507 -1.81767 0
M  V30 5348 O 517.147 1.13265 -2.46746 0
M  V30 5349 C 515.603 -1.29695 -3.35719 0
M  V30 5350 C 515.211 -2.80184 -3.49572 0
M  V30 5351 C 516.955 -1.07759 -4.10595 0
M  V30 5352 C 514.862 -3.2788 -4.92187 0
M  V30 5353 H 513.792 -0.278034 -0.700866 0
M  V30 5354 H 516.443 -1.26637 -1.32798 0
M  V30 5355 H 514.825 -0.711522 -3.89555 0
M  V30 5356 H 515.999 -3.44561 -3.05965 0
M  V30 5357 H 514.314 -3.00632 -2.88113 0
M  V30 5358 H 516.911 -1.40899 -5.15802 0
M  V30 5359 H 517.254 -0.0152302 -4.16297 0
M  V30 5360 H 517.787 -1.62809 -3.62957 0
M  V30 5361 H 514.526 -4.33535 -4.91658 0
M  V30 5362 H 514.046 -2.68245 -5.36475 0
M  V30 5363 H 515.725 -3.22412 -5.60945 0
M  V30 5364 N 515.857 1.33968 -0.830081 0
M  V30 5365 C 516.787 2.31911 -0.271911 0
M  V30 5366 C 517.768 1.58571 0.61556 0
M  V30 5367 O 518.953 1.86514 0.540946 0
M  V30 5368 C 516.083 3.42737 0.561146 0
M  V30 5369 C 515.037 4.27383 -0.229789 0
M  V30 5370 C 514.363 5.29742 0.726463 0
M  V30 5371 C 515.663 5.02 -1.44197 0
M  V30 5372 H 517.357 2.78844 -1.09025 0
M  V30 5373 H 514.903 1.34061 -0.52571 0
M  V30 5374 H 516.856 4.10276 0.961867 0
M  V30 5375 H 515.58 2.94471 1.41261 0
M  V30 5376 H 514.239 3.61456 -0.611964 0
M  V30 5377 H 513.887 4.77736 1.57408 0
M  V30 5378 H 513.587 5.87255 0.20142 0
M  V30 5379 H 515.111 6.00149 1.12489 0
M  V30 5380 H 516.525 5.62355 -1.11488 0
M  V30 5381 H 514.922 5.69122 -1.90317 0
M  V30 5382 H 515.992 4.31281 -2.2164 0
M  V30 5383 N 517.335 0.585699 1.46312 0
M  V30 5384 C 518.583 0.072278 2.01971 0
M  V30 5385 C 518.904 -1.29345 1.45928 0
M  V30 5386 O 518.174 -1.84973 0.645109 0
M  V30 5387 H 516.754 0.023729 0.746623 0
M  V30 5388 H 519.416 0.762155 1.7938 0
M  V30 5389 H 518.512 0.00552767 3.121 0
M  V30 5390 N 518.813 -1.54241 0.323641 0
M  V30 5391 C 520.09 -1.92741 -0.333181 0
M  V30 5392 C 520.47 -1.25326 -1.69872 0
M  V30 5393 O 519.818 -0.396991 -2.25025 0
M  V30 5394 C 520.028 -3.46399 -0.425322 0
M  V30 5395 C 521.376 -4.19029 -0.68557 0
M  V30 5396 O 522.4 -3.52555 -0.50824 0
M  V30 5397 O 521.259 -5.36751 -1.02767 0
M  V30 5398 H 518.353 -0.804811 -0.190286 0
M  V30 5399 H 520.899 -1.65542 0.373361 0
M  V30 5400 H 519.671 -3.87643 0.533737 0
M  V30 5401 H 519.294 -3.79704 -1.17944 0
M  V30 5402 N 520.291 -0.0518155 -1.57515 0
M  V30 5403 C 521.531 0.625712 -1.94587 0
M  V30 5404 C 521.895 1.6797 -0.930053 0
M  V30 5405 O 523.096 2.41135 -1.18774 0
M  V30 5406 C 521.367 1.20574 -3.36447 0
M  V30 5407 S 522.926 1.90118 -3.95475 0
M  V30 5408 H 519.744 0.205434 -0.680675 0
M  V30 5409 H 522.346 -0.120906 -1.95126 0
M  V30 5410 H 521.05 0.426521 -4.08178 0
M  V30 5411 H 520.581 1.98916 -3.39405 0
M  V30 5412 H 522.596 3.18184 -3.80753 0
M  V30 5413 N 521.769 1.56035 0.221574 0
M  V30 5414 C 522.999 1.82864 0.961468 0
M  V30 5415 C 523.407 0.628703 1.78449 0
M  V30 5416 O 522.75 -0.412109 1.79018 0
M  V30 5417 C 522.812 3.03425 1.92804 0
M  V30 5418 C 522.476 4.38429 1.28954 0
M  V30 5419 C 523.473 5.15441 0.679431 0
M  V30 5420 C 521.158 4.85151 1.30131 0
M  V30 5421 C 523.152 6.37337 0.0896148 0
M  V30 5422 C 520.839 6.06989 0.707651 0
M  V30 5423 C 521.837 6.82923 0.102855 0
M  V30 5424 O 521.525 8.02456 -0.48157 0
M  V30 5425 H 521.257 0.611883 0.28736 0
M  V30 5426 H 523.811 2.0397 0.241932 0
M  V30 5427 H 522.041 2.78138 2.68656 0
M  V30 5428 H 523.73 3.17127 2.53348 0
M  V30 5429 H 524.496 4.80452 0.662661 0
M  V30 5430 H 520.375 4.26021 1.76145 0
M  V30 5431 H 523.919 6.96547 -0.383069 0
M  V30 5432 H 519.816 6.41451 0.721834 0
M  V30 5433 H 520.584 8.17636 -0.375887 0
M  V30 5434 N 523.247 -0.488276 1.49845 0
M  V30 5435 C 524.477 -1.26344 1.63465 0
M  V30 5436 C 524.885 -1.86637 0.310379 0
M  V30 5437 O 524.228 -1.69184 -0.715712 0
M  V30 5438 C 524.29 -2.42407 2.65479 0
M  V30 5439 C 523.954 -2.02886 4.09495 0
M  V30 5440 C 524.951 -1.56124 4.95904 0
M  V30 5441 C 522.636 -2.12131 4.55308 0
M  V30 5442 C 524.63 -1.19129 6.26169 0
M  V30 5443 C 522.317 -1.74747 5.85582 0
M  V30 5444 C 523.315 -1.28322 6.70837 0
M  V30 5445 O 523.003 -0.914491 7.98682 0
M  V30 5446 H 522.735 -0.388921 0.552916 0
M  V30 5447 H 525.289 -0.591288 1.96705 0
M  V30 5448 H 523.519 -3.12739 2.27445 0
M  V30 5449 H 525.208 -3.04409 2.68495 0
M  V30 5450 H 525.974 -1.48417 4.61733 0
M  V30 5451 H 521.853 -2.47217 3.89107 0
M  V30 5452 H 525.397 -0.828211 6.92666 0
M  V30 5453 H 521.294 -1.82109 6.19279 0
M  V30 5454 H 522.062 -1.04485 8.11804 0
M  V30 5455 N 524.725 -1.39134 -0.740242 0
M  V30 5456 C 525.965 -1.37499 -1.51239 0
M  V30 5457 C 526.329 0.0310084 -1.91975 0
M  V30 5458 O 527.53 0.172319 -2.68247 0
M  V30 5459 C 525.801 -2.31566 -2.72235 0
M  V30 5460 S 527.36 -2.48073 -3.61947 0
M  V30 5461 H 524.178 -0.48768 -0.517387 0
M  V30 5462 H 526.78 -1.75183 -0.867826 0
M  V30 5463 H 525.484 -3.32592 -2.40439 0
M  V30 5464 H 525.015 -1.9508 -3.41625 0
M  V30 5465 H 527.03 -1.71473 -4.6563 0
M  V30 5466 N 526.204 0.969867 -1.24223 0
M  V30 5467 C 527.45 1.7151 -1.08223 0
M  V30 5468 C 527.783 1.90478 0.37838 0
M  V30 5469 O 527.058 1.4647 1.27971 0
M  V30 5470 C 527.341 3.10714 -1.82013 0
M  V30 5471 C 527.194 2.9925 -3.35811 0
M  V30 5472 C 528.513 4.10332 -1.59108 0
M  V30 5473 H 525.632 0.622499 -0.394543 0
M  V30 5474 H 528.274 1.1284 -1.52863 0
M  V30 5475 H 526.424 3.608 -1.44068 0
M  V30 5476 H 528.096 2.56608 -3.83341 0
M  V30 5477 H 526.339 2.35512 -3.64303 0
M  V30 5478 H 527.01 3.97857 -3.82641 0
M  V30 5479 H 529.486 3.69097 -1.92111 0
M  V30 5480 H 528.362 5.05804 -2.13198 0
M  V30 5481 H 528.623 4.38926 -0.528832 0
M  V30 5482 N 527.682 1.05563 1.17022 0
M  V30 5483 C 528.907 0.788437 1.91829 0
M  V30 5484 C 529.332 -0.650356 1.76499 0
M  V30 5485 O 528.69 -1.45229 1.08527 0
M  V30 5486 C 528.738 1.1786 3.40795 0
M  V30 5487 O 527.842 0.312965 4.11211 0
M  V30 5488 H 527.183 0.288794 0.597908 0
M  V30 5489 H 529.713 1.40948 1.48307 0
M  V30 5490 H 529.723 1.14697 3.91546 0
M  V30 5491 H 528.398 2.22666 3.51273 0
M  V30 5492 H 526.975 0.405515 3.70689 0
M  V30 5493 N 529.16 -1.33526 0.837174 0
M  V30 5494 C 530.408 -1.97446 0.431211 0
M  V30 5495 C 530.729 -1.6665 -1.01255 0
M  V30 5496 O 529.999 -0.964559 -1.70508 0
M  V30 5497 H 528.579 -0.73043 0.156463 0
M  V30 5498 H 531.241 -1.62918 1.06976 0
M  V30 5499 H 530.337 -3.07001 0.561877 0
M  V30 5500 N 530.638 -0.59345 -1.46 0
M  V30 5501 C 531.568 0.121192 -2.33185 0
M  V30 5502 C 532.549 0.872977 -1.4599 0
M  V30 5503 O 533.734 0.846321 -1.74789 0
M  V30 5504 C 530.864 1.12844 -3.28456 0
M  V30 5505 C 529.818 0.4908 -4.25177 0
M  V30 5506 C 529.144 1.60529 -5.10034 0
M  V30 5507 C 530.444 -0.578949 -5.19081 0
M  V30 5508 H 532.138 -0.606767 -2.93187 0
M  V30 5509 H 529.684 -0.293242 -1.40983 0
M  V30 5510 H 531.637 1.63684 -3.88311 0
M  V30 5511 H 530.361 1.88681 -2.66584 0
M  V30 5512 H 529.02 0.00339328 -3.666 0
M  V30 5513 H 528.668 2.35359 -4.44539 0
M  V30 5514 H 528.368 1.18422 -5.75543 0
M  V30 5515 H 529.892 2.11623 -5.72755 0
M  V30 5516 H 531.306 -0.155199 -5.7309 0
M  V30 5517 H 529.703 -0.920947 -5.92991 0
M  V30 5518 H 530.773 -1.46109 -4.62364 0
M  V30 5519 N 532.116 1.54067 -0.331816 0
M  V30 5520 C 533.344 2.05131 0.269996 0
M  V30 5521 C 533.759 1.20749 1.45138 0
M  V30 5522 O 533.116 0.240069 1.80914 0
M  V30 5523 C 533.167 3.54728 0.696456 0
M  V30 5524 O 532.888 4.35906 -0.43794 0
M  V30 5525 C 534.389 4.21916 1.36021 0
M  V30 5526 H 531.609 0.668807 0.0542042 0
M  V30 5527 H 534.153 1.98777 -0.4804 0
M  V30 5528 H 532.308 3.61342 1.39681 0
M  V30 5529 H 532.722 5.24404 -0.100334 0
M  V30 5530 H 534.196 5.28015 1.60947 0
M  V30 5531 H 534.673 3.73538 2.31011 0
M  V30 5532 H 535.279 4.19463 0.702212 0
M  V30 5533 N 533.594 0.0601682 1.57485 0
M  V30 5534 C 534.526 -0.94047 2.09016 0
M  V30 5535 C 535.539 -1.26897 1.01985 0
M  V30 5536 O 536.728 -1.22819 1.29529 0
M  V30 5537 C 533.828 -2.25955 2.52582 0
M  V30 5538 C 533.001 -2.11163 3.83052 0
M  V30 5539 C 532.06 -3.26273 4.12835 0
M  V30 5540 O 531.086 -3.01779 4.82616 0
M  V30 5541 N 532.288 -4.51022 3.65458 0
M  V30 5542 H 535.053 -0.500578 2.9549 0
M  V30 5543 H 532.614 -0.125852 1.6141 0
M  V30 5544 H 534.606 -3.01846 2.69575 0
M  V30 5545 H 533.176 -2.61481 1.71308 0
M  V30 5546 H 532.396 -1.19808 3.75552 0
M  V30 5547 H 533.684 -1.98517 4.68475 0
M  V30 5548 H 533.082 -4.73811 3.09062 0
M  V30 5549 H 531.639 -5.23978 3.87673 0
M  V30 5550 N 535.072 -1.5615 -0.213296 0
M  V30 5551 C 536.483 -1.69645 -0.779582 0
M  V30 5552 C 536.834 -0.663615 -1.84636 0
M  V30 5553 O 535.959 0.183633 -2.15619 0
M  V30 5554 C 536.554 -3.07567 -1.42084 0
M  V30 5555 C 535.113 -3.22889 -1.93442 0
M  V30 5556 C 534.26 -2.65581 -0.797612 0
M  V30 5557 H 537.211 -1.58696 0.0114951 0
M  V30 5558 H 537.232 -3.03884 -2.28986 0
M  V30 5559 H 536.744 -3.82716 -0.644187 0
M  V30 5560 H 534.845 -2.52623 -2.73884 0
M  V30 5561 H 534.958 -4.30197 -2.10872 0
M  V30 5562 H 533.322 -2.24278 -1.20712 0
M  V30 5563 H 534.105 -3.43284 -0.033494 0
M  V30 5564 N 536.55 0.480323 -1.50102 0
M  V30 5565 C 537.497 1.57946 -1.6829 0
M  V30 5566 C 538.467 1.57611 -0.524223 0
M  V30 5567 O 539.652 1.75282 -0.753709 0
M  V30 5568 C 536.792 2.95978 -1.77457 0
M  V30 5569 C 535.905 3.06173 -3.04766 0
M  V30 5570 C 535.04 4.35063 -3.04784 0
M  V30 5571 C 534.079 4.38966 -4.26586 0
M  V30 5572 N 533.216 5.59314 -4.24396 0
M  V30 5573 H 538.056 1.41743 -2.62131 0
M  V30 5574 H 535.593 0.689304 -1.2995 0
M  V30 5575 H 537.551 3.76011 -1.80752 0
M  V30 5576 H 536.181 3.10837 -0.870637 0
M  V30 5577 H 535.233 2.19071 -3.10986 0
M  V30 5578 H 536.545 3.04916 -3.9475 0
M  V30 5579 H 535.699 5.23436 -3.06757 0
M  V30 5580 H 534.438 4.38915 -2.12614 0
M  V30 5581 H 533.443 3.48992 -4.24835 0
M  V30 5582 H 534.668 4.36813 -5.19972 0
M  V30 5583 H 532.614 5.63969 -3.35074 0
M  V30 5584 H 532.531 5.5976 -5.08138 0
M  V30 5585 H 533.799 6.49837 -4.30502 0
M  V30 5586 N 538.028 1.39524 0.732853 0
M  V30 5587 C 539.256 1.40143 1.52209 0
M  V30 5588 C 539.671 -0.00348836 1.888 0
M  V30 5589 O 539.028 -0.975357 1.5425 0
M  V30 5590 C 539.079 2.27632 2.8083 0
M  V30 5591 O 538.8 3.62654 2.45792 0
M  V30 5592 C 540.301 2.36658 3.74844 0
M  V30 5593 H 537.521 0.478604 0.470297 0
M  V30 5594 H 540.065 1.83366 0.905388 0
M  V30 5595 H 538.22 1.87818 3.38826 0
M  V30 5596 H 538.634 4.08941 3.28431 0
M  V30 5597 H 540.108 3.02118 4.61984 0
M  V30 5598 H 540.585 1.38638 4.16745 0
M  V30 5599 H 541.191 2.76951 3.22766 0
M  V30 5600 N 539.506 -0.963266 1.24736 0
M  V30 5601 C 540.783 -1.68248 0.9976 0
M  V30 5602 C 541.163 -2.05599 -0.478776 0
M  V30 5603 O 540.511 -1.7626 -1.45412 0
M  V30 5604 C 540.721 -2.91118 1.92487 0
M  V30 5605 C 542.069 -3.63261 2.19833 0
M  V30 5606 O 543.093 -3.01184 1.90176 0
M  V30 5607 O 541.952 -4.75019 2.7022 0
M  V30 5608 H 539.046 -0.735744 0.377637 0
M  V30 5609 H 541.592 -1.01696 1.35853 0
M  V30 5610 H 540.364 -2.60242 2.92215 0
M  V30 5611 H 539.987 -3.65402 1.56738 0
M  V30 5612 N 540.985 -1.06182 -1.16461 0
M  V30 5613 C 541.935 -0.641619 -2.18786 0
M  V30 5614 C 542.919 0.327122 -1.5754 0
M  V30 5615 O 544.111 0.142746 -1.76423 0
M  V30 5616 C 541.24 -0.0283734 -3.43288 0
M  V30 5617 C 540.326 -1.02154 -4.11613 0
M  V30 5618 N 540.717 -2.19671 -4.55608 0
M  V30 5619 C 539.015 -0.852229 -4.37782 0
M  V30 5620 C 539.716 -2.82583 -5.0845 0
M  V30 5621 N 538.692 -2.10318 -5.01266 0
M  V30 5622 H 542.494 -1.53684 -2.50516 0
M  V30 5623 H 540.008 -0.933349 -1.329 0
M  V30 5624 H 542.005 0.29049 -4.15887 0
M  V30 5625 H 540.665 0.862118 -3.13046 0
M  V30 5626 H 541.676 -2.57453 -4.49375 0
M  V30 5627 H 538.353 -0.0136314 -4.17498 0
M  V30 5628 H 539.743 -3.82298 -5.52538 0
M  V30 5629 N 542.463 1.3308 -0.844243 0
M  V30 5630 C 543.426 2.27403 -0.286485 0
M  V30 5631 C 544.426 1.51179 0.547872 0
M  V30 5632 O 545.616 1.70421 0.360886 0
M  V30 5633 C 542.748 3.35653 0.595813 0
M  V30 5634 H 543.941 2.78248 -1.11885 0
M  V30 5635 H 541.494 1.43574 -0.617749 0
M  V30 5636 H 542.229 2.90058 1.4504 0
M  V30 5637 H 542.014 3.921 -0.00125994 0
M  V30 5638 H 543.504 4.05958 0.979168 0
M  V30 5639 N 543.941 0.601185 1.45683 0
M  V30 5640 C 544.891 -0.142686 2.27553 0
M  V30 5641 C 545.875 -0.844598 1.3695 0
M  V30 5642 O 547.067 -0.735644 1.60988 0
M  V30 5643 C 544.196 -1.14364 3.23691 0
M  V30 5644 C 543.282 -0.442894 4.21781 0
M  V30 5645 N 543.673 0.51189 5.03203 0
M  V30 5646 C 541.971 -0.691277 4.4061 0
M  V30 5647 C 542.672 0.92318 5.74328 0
M  V30 5648 N 541.648 0.268308 5.42937 0
M  V30 5649 H 545.45 0.590736 2.87902 0
M  V30 5650 H 542.964 0.424365 1.56757 0
M  V30 5651 H 544.961 -1.6909 3.8107 0
M  V30 5652 H 543.621 -1.87768 2.64902 0
M  V30 5653 H 544.632 0.888329 5.10225 0
M  V30 5654 H 541.309 -1.41049 3.92952 0
M  V30 5655 H 542.699 1.71029 6.49768 0
M  V30 5656 N 545.419 -1.53889 0.339982 0
M  V30 5657 C 546.659 -2.02765 -0.258011 0
M  V30 5658 C 547.023 -1.22249 -1.48051 0
M  V30 5659 O 548.224 -1.61007 -2.15245 0
M  V30 5660 C 546.495 -3.5286 -0.567872 0
M  V30 5661 S 548.054 -4.23647 -1.14318 0
M  V30 5662 H 544.872 -0.706814 -0.0770389 0
M  V30 5663 H 547.474 -1.89594 0.476917 0
M  V30 5664 H 546.178 -4.09073 0.329745 0
M  V30 5665 H 545.709 -3.70144 -1.33256 0
M  V30 5666 H 547.724 -4.32676 -2.42911 0
M  V30 5667 N 546.897 -0.0685191 -1.57451 0
M  V30 5668 C 548.137 0.605038 -1.9524 0
M  V30 5669 C 548.501 1.66974 -0.947816 0
M  V30 5670 O 549.702 2.39862 -1.21325 0
M  V30 5671 C 547.973 1.16999 -3.37707 0
M  V30 5672 S 549.532 1.85913 -3.97469 0
M  V30 5673 H 546.35 0.198203 -0.682815 0
M  V30 5674 H 548.952 -0.141594 -1.94987 0
M  V30 5675 H 547.656 0.383205 -4.08607 0
M  V30 5676 H 547.187 1.95305 -3.41496 0
M  V30 5677 H 549.202 3.14128 -3.84107 0
M  V30 5678 N 548.375 1.56261 0.205012 0
M  V30 5679 C 549.621 1.80306 0.9283 0
M  V30 5680 C 549.954 0.640932 1.83319 0
M  V30 5681 O 549.229 -0.359032 1.91158 0
M  V30 5682 C 549.512 3.14547 1.75306 0
M  V30 5683 C 549.365 4.41236 0.873562 0
M  V30 5684 C 550.684 3.45382 2.72762 0
M  V30 5685 H 547.803 0.655929 0.336044 0
M  V30 5686 H 550.445 1.88984 0.196211 0
M  V30 5687 H 548.595 3.0728 2.37721 0
M  V30 5688 H 550.267 4.60539 0.264887 0
M  V30 5689 H 548.51 4.33427 0.179773 0
M  V30 5690 H 549.181 5.31639 1.48541 0
M  V30 5691 H 551.657 3.52884 2.20481 0
M  V30 5692 H 550.533 4.40449 3.2756 0
M  V30 5693 H 550.794 2.68377 3.51321 0
M  V30 5694 N 549.853 -0.472356 1.50355 0
M  V30 5695 C 550.763 -1.59637 1.7191 0
M  V30 5696 C 551.779 -1.63247 0.602195 0
M  V30 5697 O 552.955 -1.81139 0.880369 0
M  V30 5698 C 550.02 -2.9586 1.80742 0
M  V30 5699 C 549.081 -3.02649 3.04471 0
M  V30 5700 C 548.314 -4.32374 3.12872 0
M  V30 5701 O 548.537 -5.22807 2.28099 0
M  V30 5702 O 547.471 -4.44728 4.05587 0
M  V30 5703 H 551.297 -1.44373 2.67189 0
M  V30 5704 H 548.882 -0.651717 1.34436 0
M  V30 5705 H 550.764 -3.7677 1.88739 0
M  V30 5706 H 549.439 -3.11325 0.88647 0
M  V30 5707 H 548.346 -2.20821 3.01975 0
M  V30 5708 H 549.679 -2.92119 3.9614 0
M  V30 5709 N 551.331 -1.39911 -0.725443 0
M  V30 5710 C 552.264 -1.33788 -1.84867 0
M  V30 5711 C 553.242 -0.209907 -1.61239 0
M  V30 5712 O 554.426 -0.391943 -1.8438 0
M  V30 5713 C 551.553 -1.07975 -3.21028 0
M  V30 5714 C 550.599 -2.23092 -3.635 0
M  V30 5715 S 551.432 -3.85431 -3.71757 0
M  V30 5716 C 552.588 -3.61862 -5.10692 0
M  V30 5717 H 552.821 -2.28848 -1.89779 0
M  V30 5718 H 550.354 -1.26079 -0.891254 0
M  V30 5719 H 552.312 -0.937669 -3.99647 0
M  V30 5720 H 550.973 -0.145865 -3.13761 0
M  V30 5721 H 550.166 -2.00647 -4.62338 0
M  V30 5722 H 549.768 -2.33553 -2.92112 0
M  V30 5723 H 552.06 -3.19719 -5.97316 0
M  V30 5724 H 553.003 -4.60196 -5.38169 0
M  V30 5725 H 553.411 -2.95757 -4.8082 0
M  V30 5726 N 552.809 0.956637 -1.25245 0
M  V30 5727 C 554.057 1.69764 -1.09657 0
M  V30 5728 C 554.378 1.91583 0.363464 0
M  V30 5729 O 553.648 1.50149 1.25825 0
M  V30 5730 H 552.228 0.629097 -0.402798 0
M  V30 5731 H 554.89 1.15026 -1.57337 0
M  V30 5732 H 553.986 2.67769 -1.60331 0
M  V30 5733 N 554.287 1.06798 1.15896 0
M  V30 5734 C 555.217 0.704677 2.22613 0
M  V30 5735 C 556.198 -0.305252 1.67339 0
M  V30 5736 O 557.383 -0.179247 1.93371 0
M  V30 5737 C 554.513 0.0957325 3.47168 0
M  V30 5738 C 553.467 1.0322 4.15367 0
M  V30 5739 C 552.793 0.286293 5.33933 0
M  V30 5740 C 554.093 2.36341 4.65768 0
M  V30 5741 H 555.787 1.59688 2.53259 0
M  V30 5742 H 553.333 0.769257 1.21731 0
M  V30 5743 H 555.286 -0.170333 4.21056 0
M  V30 5744 H 554.01 -0.831516 3.15838 0
M  V30 5745 H 552.669 1.28309 3.43413 0
M  V30 5746 H 552.317 -0.644237 4.98857 0
M  V30 5747 H 552.017 0.910436 5.80504 0
M  V30 5748 H 553.541 0.0278938 6.10594 0
M  V30 5749 H 554.955 2.1561 5.31211 0
M  V30 5750 H 553.352 2.94299 5.2298 0
M  V30 5751 H 554.422 2.99047 3.81705 0
M  V30 5752 N 555.766 -1.3263 0.851289 0
M  V30 5753 C 557.043 -1.91982 0.374448 0
M  V30 5754 C 557.423 -1.77568 -1.14161 0
M  V30 5755 O 556.771 -1.1717 -1.96172 0
M  V30 5756 C 556.981 -3.38862 0.835088 0
M  V30 5757 C 558.329 -4.15999 0.850309 0
M  V30 5758 O 559.353 -3.47566 0.779505 0
M  V30 5759 O 558.212 -5.38189 0.949481 0
M  V30 5760 H 555.306 -0.819846 0.10854 0
M  V30 5761 H 557.852 -1.41422 0.937966 0
M  V30 5762 H 556.624 -3.43281 1.87814 0
M  V30 5763 H 556.247 -3.96821 0.248833 0
M  V30 5764 N 557.244 -0.608902 -1.45362 0
M  V30 5765 C 558.177 0.158059 -2.27652 0
M  V30 5766 C 559.155 0.872397 -1.37215 0
M  V30 5767 O 560.339 0.881002 -1.66645 0
M  V30 5768 C 557.466 1.22896 -3.15617 0
M  V30 5769 C 556.512 0.617607 -4.22005 0
M  V30 5770 S 557.345 -0.575518 -5.32398 0
M  V30 5771 C 558.501 0.495938 -6.23932 0
M  V30 5772 H 558.734 -0.540095 -2.92353 0
M  V30 5773 H 556.267 -0.396456 -1.49223 0
M  V30 5774 H 558.225 1.84195 -3.66855 0
M  V30 5775 H 556.886 1.89919 -2.50179 0
M  V30 5776 H 556.079 1.42341 -4.83482 0
M  V30 5777 H 555.681 0.0797273 -3.73915 0
M  V30 5778 H 557.973 1.37465 -6.63408 0
M  V30 5779 H 558.916 -0.0827108 -7.08052 0
M  V30 5780 H 559.324 0.811856 -5.58631 0
M  V30 5781 N 558.722 1.53707 -0.348139 0
M  V30 5782 C 559.971 2.0017 0.247992 0
M  V30 5783 C 560.284 1.23983 1.51286 0
M  V30 5784 O 561.49 1.60946 2.18652 0
M  V30 5785 C 559.946 3.56515 0.492459 0
M  V30 5786 C 559.554 4.41562 -0.756777 0
M  V30 5787 C 561.298 4.11381 1.0472 0
M  V30 5788 C 559.205 5.89426 -0.482856 0
M  V30 5789 H 558.135 0.747806 0.0964452 0
M  V30 5790 H 560.786 1.77532 -0.464179 0
M  V30 5791 H 559.168 3.75236 1.26545 0
M  V30 5792 H 560.342 4.34615 -1.53122 0
M  V30 5793 H 558.657 3.97711 -1.23348 0
M  V30 5794 H 561.254 5.19468 1.26717 0
M  V30 5795 H 561.597 3.64885 2.00411 0
M  V30 5796 H 562.13 3.96389 0.334801 0
M  V30 5797 H 558.869 6.40164 -1.40962 0
M  V30 5798 H 558.389 5.99264 0.253416 0
M  V30 5799 H 560.068 6.4692 -0.101816 0
M  V30 5800 N 560.2 0.0768682 1.57412 0
M  V30 5801 C 561.477 -0.632359 1.85096 0
M  V30 5802 C 561.857 -1.87479 0.9703 0
M  V30 5803 O 561.205 -2.28469 0.0379062 0
M  V30 5804 C 561.415 -0.965174 3.35388 0
M  V30 5805 C 562.763 -1.33648 4.03018 0
M  V30 5806 O 563.787 -1.05675 3.40164 0
M  V30 5807 O 562.646 -1.85959 5.13889 0
M  V30 5808 H 559.74 -0.314574 0.764835 0
M  V30 5809 H 562.286 0.108184 1.69355 0
M  V30 5810 H 561.058 -0.0829745 3.91212 0
M  V30 5811 H 560.681 -1.76231 3.5641 0
M  V30 5812 N 561.678 -1.56367 -0.196722 0
M  V30 5813 C 562.906 -1.84639 -0.933608 0
M  V30 5814 C 563.321 -0.659164 -1.76919 0
M  V30 5815 O 562.678 0.372142 -1.78665 0
M  V30 5816 C 562.729 -3.11694 -1.83109 0
M  V30 5817 O 562.45 -4.25838 -1.02924 0
M  V30 5818 C 563.951 -3.53132 -2.67979 0
M  V30 5819 H 561.171 -0.613188 -0.272473 0
M  V30 5820 H 563.715 -2.03475 -0.204465 0
M  V30 5821 H 561.87 -2.94759 -2.51387 0
M  V30 5822 H 562.284 -4.98178 -1.64069 0
M  V30 5823 H 563.758 -4.45005 -3.26611 0
M  V30 5824 H 564.235 -2.76045 -3.41608 0
M  V30 5825 H 564.841 -3.72592 -2.05074 0
M  V30 5826 N 563.156 0.464375 -1.50603 0
M  V30 5827 C 564.405 1.21277 -1.61167 0
M  V30 5828 C 564.718 1.92953 -0.320704 0
M  V30 5829 O 565.924 2.69778 -0.30534 0
M  V30 5830 C 564.38 2.20403 -2.84518 0
M  V30 5831 C 563.988 1.54499 -4.20516 0
M  V30 5832 C 565.732 2.95843 -3.0443 0
M  V30 5833 C 563.639 2.51951 -5.35047 0
M  V30 5834 H 562.569 0.456367 -0.600204 0
M  V30 5835 H 565.22 0.48254 -1.77042 0
M  V30 5836 H 563.602 2.96746 -2.62217 0
M  V30 5837 H 564.776 0.83899 -4.53098 0
M  V30 5838 H 563.091 0.913152 -4.06264 0
M  V30 5839 H 565.688 3.6879 -3.87167 0
M  V30 5840 H 566.031 3.55622 -2.16423 0
M  V30 5841 H 566.564 2.26611 -3.26944 0
M  V30 5842 H 563.303 1.96901 -6.25228 0
M  V30 5843 H 562.823 3.20683 -5.06875 0
M  V30 5844 H 564.502 3.13643 -5.65895 0
M  V30 5845 N 564.634 1.40294 0.718013 0
M  V30 5846 C 565.862 1.4175 1.50714 0
M  V30 5847 C 566.277 0.0165366 1.88793 0
M  V30 5848 O 565.634 -0.958942 1.55276 0
M  V30 5849 C 565.685 2.30598 2.784 0
M  V30 5850 O 565.406 3.6524 2.41932 0
M  V30 5851 C 566.907 2.4062 3.72313 0
M  V30 5852 H 564.127 0.483565 0.465194 0
M  V30 5853 H 566.671 1.84316 0.885889 0
M  V30 5854 H 564.826 1.91401 3.36815 0
M  V30 5855 H 565.24 4.12402 3.24076 0
M  V30 5856 H 566.714 3.07001 4.58753 0
M  V30 5857 H 567.191 1.4305 4.15251 0
M  V30 5858 H 567.797 2.80359 3.19811 0
M  V30 5859 N 566.112 -0.949982 1.2575 0
M  V30 5860 C 567.337 -1.73503 1.13628 0
M  V30 5861 C 567.762 -1.85601 -0.30559 0
M  V30 5862 O 567.12 -1.33984 -1.22139 0
M  V30 5863 C 567.168 -3.1243 1.80055 0
M  V30 5864 O 566.272 -3.97916 1.08336 0
M  V30 5865 H 565.613 -0.532665 0.396439 0
M  V30 5866 H 568.143 -1.19043 1.66403 0
M  V30 5867 H 568.153 -3.62866 1.86527 0
M  V30 5868 H 566.828 -3.02941 2.84956 0
M  V30 5869 H 565.405 -3.56375 1.09777 0
M  V30 5870 N 567.59 -1.07411 -1.15328 0
M  V30 5871 C 568.836 -0.798831 -1.86404 0
M  V30 5872 C 569.169 0.673433 -1.8215 0
M  V30 5873 O 568.444 1.49428 -1.24505 0
M  V30 5874 C 568.727 -1.30846 -3.35487 0
M  V30 5875 C 568.58 -2.84532 -3.4837 0
M  V30 5876 C 569.899 -0.925486 -4.30259 0
M  V30 5877 H 567.018 -0.291659 -0.676834 0
M  V30 5878 H 569.66 -1.332 -1.35491 0
M  V30 5879 H 567.81 -0.854916 -3.78977 0
M  V30 5880 H 569.482 -3.3818 -3.13739 0
M  V30 5881 H 567.725 -3.22699 -2.8991 0
M  V30 5882 H 568.396 -3.15259 -4.53118 0
M  V30 5883 H 570.872 -1.3163 -3.94731 0
M  V30 5884 H 569.748 -1.3094 -5.33053 0
M  V30 5885 H 570.009 0.168525 -4.41779 0
M  V30 5886 N 569.068 1.32177 -0.85831 0
M  V30 5887 C 570.031 2.27086 -0.310588 0
M  V30 5888 C 571.031 1.51751 0.531806 0
M  V30 5889 O 572.221 1.70794 0.34279 0
M  V30 5890 C 569.353 3.36266 0.560179 0
M  V30 5891 H 570.546 2.77045 -1.1483 0
M  V30 5892 H 568.099 1.42911 -0.632942 0
M  V30 5893 H 568.834 2.9158 1.41956 0
M  V30 5894 H 568.619 3.92077 -0.0428473 0
M  V30 5895 H 570.109 4.06974 0.936056 0
M  V30 5896 N 570.547 0.616602 1.45037 0
M  V30 5897 C 571.457 -0.0985401 2.34393 0
M  V30 5898 C 572.473 -0.850971 1.51771 0
M  V30 5899 O 573.649 -0.806521 1.84546 0
M  V30 5900 C 570.714 -1.07748 3.29532 0
M  V30 5901 C 569.775 -0.326022 4.2806 0
M  V30 5902 C 569.008 -1.25833 5.18654 0
M  V30 5903 O 569.231 -2.49652 5.12864 0
M  V30 5904 O 568.165 -0.750512 5.97203 0
M  V30 5905 H 571.991 0.636016 2.96966 0
M  V30 5906 H 569.576 0.376832 1.44569 0
M  V30 5907 H 571.458 -1.64107 3.88133 0
M  V30 5908 H 570.133 -1.79291 2.69512 0
M  V30 5909 H 569.04 0.280253 3.73049 0
M  V30 5910 H 570.373 0.349091 4.9096 0
M  V30 5911 N 572.025 -1.5352 0.356285 0
M  V30 5912 C 572.988 -2.24071 -0.482182 0
M  V30 5913 C 573.988 -1.24531 -1.01729 0
M  V30 5914 O 575.178 -1.48876 -0.904513 0
M  V30 5915 C 572.31 -2.97025 -1.67299 0
M  V30 5916 H 573.503 -2.99596 0.135031 0
M  V30 5917 H 571.056 -1.55928 0.107825 0
M  V30 5918 H 571.791 -2.25719 -2.32855 0
M  V30 5919 H 571.576 -3.7005 -1.29636 0
M  V30 5920 H 573.066 -3.50683 -2.26741 0
M  V30 5921 N 573.503 -0.0852151 -1.57369 0
M  V30 5922 C 574.731 0.58946 -1.98325 0
M  V30 5923 C 575.146 1.62333 -0.96403 0
M  V30 5924 O 574.503 1.82438 0.0476395 0
M  V30 5925 C 574.554 1.24604 -3.39347 0
M  V30 5926 O 574.275 0.253532 -4.37366 0
M  V30 5927 C 575.776 2.00726 -3.95252 0
M  V30 5928 H 572.996 0.158783 -0.651942 0
M  V30 5929 H 575.54 -0.161584 -2.03861 0
M  V30 5930 H 573.695 1.94808 -3.34856 0
M  V30 5931 H 574.109 0.726207 -5.19448 0
M  V30 5932 H 575.583 2.42039 -4.96106 0
M  V30 5933 H 576.06 2.86919 -3.32527 0
M  V30 5934 H 576.666 1.3536 -4.03185 0
M  V30 5935 N 574.981 1.5647 0.188427 0
M  V30 5936 C 575.891 1.98285 1.2538 0
M  V30 5937 C 576.907 0.891535 1.49424 0
M  V30 5938 O 578.083 1.19782 1.61908 0
M  V30 5939 C 575.148 2.31965 2.57669 0
M  V30 5940 C 574.209 3.54838 2.41638 0
M  V30 5941 C 573.442 3.86901 3.67618 0
M  V30 5942 O 573.665 3.20163 4.72072 0
M  V30 5943 O 572.599 4.80309 3.62749 0
M  V30 5944 H 576.425 2.89145 0.928912 0
M  V30 5945 H 574.01 1.44112 0.393955 0
M  V30 5946 H 575.892 2.54673 3.35737 0
M  V30 5947 H 574.567 1.44271 2.89771 0
M  V30 5948 H 573.474 3.37369 1.61658 0
M  V30 5949 H 574.807 4.43019 2.14465 0
M  V30 5950 N 576.459 -0.456382 1.50847 0
M  V30 5951 C 577.705 -1.20914 1.62811 0
M  V30 5952 C 578.038 -1.91301 0.334304 0
M  V30 5953 O 577.313 -1.82775 -0.665098 0
M  V30 5954 C 577.596 -2.24122 2.81853 0
M  V30 5955 C 577.449 -1.57944 4.21158 0
M  V30 5956 C 578.768 -3.25295 2.96431 0
M  V30 5957 H 575.887 -0.438233 0.592554 0
M  V30 5958 H 578.529 -0.50091 1.83278 0
M  V30 5959 H 576.679 -2.84524 2.64534 0
M  V30 5960 H 578.351 -1.01025 4.50102 0
M  V30 5961 H 576.594 -0.882185 4.24735 0
M  V30 5962 H 577.265 -2.33014 5.00408 0
M  V30 5963 H 579.741 -2.7493 3.12335 0
M  V30 5964 H 578.617 -3.94822 3.81322 0
M  V30 5965 H 578.878 -3.90286 2.07676 0
M  V30 5966 N 577.937 -1.40673 -0.710563 0
M  V30 5967 C 579.214 -1.29718 -1.46398 0
M  V30 5968 C 579.594 0.082177 -2.1094 0
M  V30 5969 O 578.942 1.09536 -2.00534 0
M  V30 5970 C 579.152 -2.43967 -2.49562 0
M  V30 5971 C 580.5 -2.84436 -3.15248 0
M  V30 5972 O 581.524 -2.43597 -2.59883 0
M  V30 5973 O 580.383 -3.55008 -4.1549 0
M  V30 5974 H 577.477 -0.509697 -0.651258 0
M  V30 5975 H 580.023 -1.52603 -0.742312 0
M  V30 5976 H 578.795 -3.36076 -2.0042 0
M  V30 5977 H 578.418 -2.22879 -3.29258 0
M  V30 5978 N 579.415 0.9433 -1.26252 0
M  V30 5979 C 580.345 2.05902 -1.10122 0
M  V30 5980 C 581.326 1.70099 -0.00700552 0
M  V30 5981 O 582.511 1.93377 -0.178641 0
M  V30 5982 C 579.641 3.39516 -0.731175 0
M  V30 5983 C 578.595 3.89372 -1.77688 0
M  V30 5984 C 577.921 5.19613 -1.26122 0
M  V30 5985 C 579.221 4.14489 -3.17799 0
M  V30 5986 H 580.915 2.19655 -2.03451 0
M  V30 5987 H 578.461 1.05548 -0.979576 0
M  V30 5988 H 580.414 4.17031 -0.605215 0
M  V30 5989 H 579.138 3.25733 0.23782 0
M  V30 5990 H 577.797 3.14036 -1.89148 0
M  V30 5991 H 577.445 5.02208 -0.282128 0
M  V30 5992 H 577.145 5.53939 -1.96023 0
M  V30 5993 H 578.669 5.99713 -1.14789 0
M  V30 5994 H 580.083 4.82625 -3.09428 0
M  V30 5995 H 578.48 4.60094 -3.85271 0
M  V30 5996 H 579.55 3.20347 -3.64014 0
M  V30 5997 N 580.893 1.08022 1.14757 0
M  V30 5998 C 581.841 0.701088 2.21783 0
M  V30 5999 C 582.835 -0.291311 1.66876 0
M  V30 6000 O 584.041 -0.154296 1.79337 0
M  V30 6001 H 580.416 0.208668 0.722469 0
M  V30 6002 H 582.387 1.61321 2.51034 0
M  V30 6003 C 581.136 0.122278 3.47485 0
M  V30 6004 H 580.459 0.877065 3.90061 0
M  V30 6005 H 581.899 -0.105248 4.23869 0
M  V30 6006 C 580.358 -1.13883 3.17068 0
M  V30 6007 O 580.888 -2.22429 3.34497 0
M  V30 6008 N 579.094 -1.04767 2.71058 0
M  V30 6009 H 578.641 -0.164302 2.57075 0
M  V30 6010 H 578.599 -1.89224 2.51081 0
M  V30 6011 N 582.371 -1.3172 0.865308 0
M  V30 6012 C 583.304 -2.26687 0.262376 0
M  V30 6013 C 584.282 -1.50894 -0.605787 0
M  V30 6014 O 585.466 -1.79982 -0.56024 0
M  V30 6015 C 582.593 -3.3281 -0.628915 0
M  V30 6016 C 581.639 -4.26172 0.167278 0
M  V30 6017 S 582.472 -5.12797 1.54272 0
M  V30 6018 C 583.628 -6.22438 0.657427 0
M  V30 6019 H 583.861 -2.77478 1.0674 0
M  V30 6020 H 581.394 -1.39414 0.663555 0
M  V30 6021 H 583.352 -3.94426 -1.13747 0
M  V30 6022 H 582.013 -2.80782 -1.40785 0
M  V30 6023 H 581.206 -5.01392 -0.51203 0
M  V30 6024 H 580.808 -3.69029 0.607777 0
M  V30 6025 H 583.1 -6.77368 -0.133925 0
M  V30 6026 H 584.043 -6.9451 1.38061 0
M  V30 6027 H 584.451 -5.64043 0.227044 0
M  V30 6028 N 583.85 -0.624285 -1.44708 0
M  V30 6029 C 585.266 -0.289322 -1.56956 0
M  V30 6030 C 585.466 1.20773 -1.61295 0
M  V30 6031 O 584.522 1.9915 -1.55227 0
M  V30 6032 C 585.835 -0.975215 -2.84447 0
M  V30 6033 C 587.383 -0.952709 -2.98148 0
M  V30 6034 C 587.858 -1.61893 -4.28433 0
M  V30 6035 N 589.349 -1.5852 -4.35231 0
M  V30 6036 C 590.084 -2.06969 -5.34744 0
M  V30 6037 N 589.58 -2.63579 -6.40701 0
M  V30 6038 N 591.373 -1.97638 -5.26209 0
M  V30 6039 H 583.524 -1.59612 -1.40135 0
M  V30 6040 H 585.787 -0.669592 -0.671081 0
M  V30 6041 H 585.493 -2.02999 -2.87201 0
M  V30 6042 H 585.367 -0.508749 -3.73753 0
M  V30 6043 H 587.754 0.093568 -2.94952 0
M  V30 6044 H 587.835 -1.4576 -2.10209 0
M  V30 6045 H 587.479 -2.66463 -4.32389 0
M  V30 6046 H 587.409 -1.08893 -5.15218 0
M  V30 6047 H 589.899 -1.17183 -3.59272 0
M  V30 6048 H 590.213 -2.98298 -7.12908 0
M  V30 6049 H 588.558 -2.67626 -6.41406 0
M  V30 6050 H 591.749 -1.5314 -4.42341 0
M  V30 6051 H 591.922 -2.35708 -6.03611 0
M  V30 6052 N 585.328 1.53329 -0.364422 0
M  V30 6053 C 586.574 2.01537 0.225969 0
M  V30 6054 C 586.907 1.25128 1.48515 0
M  V30 6055 O 586.182 0.344653 1.91422 0
M  V30 6056 C 586.465 3.56339 0.519092 0
M  V30 6057 C 586.318 4.43441 -0.753639 0
M  V30 6058 C 587.637 4.19833 1.32015 0
M  V30 6059 H 584.756 0.732573 0.0806548 0
M  V30 6060 H 587.398 1.83597 -0.489084 0
M  V30 6061 H 585.548 3.71756 1.12825 0
M  V30 6062 H 587.22 4.39823 -1.39116 0
M  V30 6063 H 585.463 4.11457 -1.37424 0
M  V30 6064 H 586.134 5.49699 -0.503517 0
M  V30 6065 H 588.61 4.08242 0.804859 0
M  V30 6066 H 587.486 5.28177 1.49399 0
M  V30 6067 H 587.747 3.75821 2.32832 0
M  V30 6068 N 586.806 0.0935595 1.57322 0
M  V30 6069 C 588.054 -0.569383 1.93913 0
M  V30 6070 C 588.375 -1.68817 0.976009 0
M  V30 6071 O 587.645 -1.9588 0.0278099 0
M  V30 6072 H 586.225 -0.21332 0.715894 0
M  V30 6073 H 588.887 0.156531 1.9427 0
M  V30 6074 H 587.983 -0.980577 2.96296 0
M  V30 6075 N 588.284 -1.56567 -0.180126 0
M  V30 6076 C 589.214 -1.98753 -1.22553 0
M  V30 6077 C 590.195 -0.86175 -1.46656 0
M  V30 6078 O 591.38 -1.12719 -1.58139 0
M  V30 6079 C 588.51 -2.33988 -2.56645 0
M  V30 6080 C 587.464 -3.49445 -2.47128 0
M  V30 6081 C 586.79 -3.70397 -3.8563 0
M  V30 6082 C 588.09 -4.83171 -1.98352 0
M  V30 6083 H 589.784 -2.86332 -0.874896 0
M  V30 6084 H 587.33 -1.37757 -0.419414 0
M  V30 6085 H 589.283 -2.62097 -3.29974 0
M  V30 6086 H 588.007 -1.43309 -2.93479 0
M  V30 6087 H 586.666 -3.2145 -1.76254 0
M  V30 6088 H 586.314 -2.77023 -4.19842 0
M  V30 6089 H 586.014 -4.48077 -3.80132 0
M  V30 6090 H 587.538 -4.00897 -4.60558 0
M  V30 6091 H 588.952 -5.10213 -2.61449 0
M  V30 6092 H 587.349 -5.64425 -2.03823 0
M  V30 6093 H 588.419 -4.75753 -0.937402 0
M  V30 6094 N 589.762 0.448376 -1.51087 0
M  V30 6095 C 590.712 1.54156 -1.67988 0
M  V30 6096 C 591.696 1.5178 -0.534015 0
M  V30 6097 O 592.888 1.58419 -0.789448 0
M  V30 6098 C 590.017 2.92437 -1.79822 0
M  V30 6099 C 589.103 2.99611 -3.00157 0
M  V30 6100 N 589.494 2.7655 -4.23502 0
M  V30 6101 C 587.792 3.30764 -2.99184 0
M  V30 6102 C 588.493 2.89281 -5.0467 0
M  V30 6103 N 587.469 3.20473 -4.39088 0
M  V30 6104 H 591.271 1.35061 -2.61028 0
M  V30 6105 H 588.785 0.655504 -1.48583 0
M  V30 6106 H 590.782 3.71068 -1.90037 0
M  V30 6107 H 589.442 3.1256 -0.879554 0
M  V30 6108 H 590.453 2.5169 -4.52628 0
M  V30 6109 H 587.13 3.56732 -2.16907 0
M  V30 6110 H 588.52 2.75499 -6.12821 0
M  V30 6111 N 591.24 1.41047 0.703093 0
M  V30 6112 C 592.468 1.4334 1.49202 0
M  V30 6113 C 592.883 0.0365596 1.88765 0
M  V30 6114 O 592.24 -0.942419 1.56284 0
M  V30 6115 C 592.291 2.33538 2.75939 0
M  V30 6116 O 592.012 3.67786 2.38045 0
M  V30 6117 C 593.513 2.44555 3.6974 0
M  V30 6118 H 590.733 0.488472 0.460039 0
M  V30 6119 H 593.277 1.85245 0.86629 0
M  V30 6120 H 591.432 1.94962 3.34766 0
M  V30 6121 H 591.846 4.15816 3.19683 0
M  V30 6122 H 593.32 3.11849 4.55471 0
M  V30 6123 H 593.797 1.47447 4.1371 0
M  V30 6124 H 594.403 2.83735 3.16819 0
M  V30 6125 N 592.718 -0.936591 1.26751 0
M  V30 6126 C 593.966 -1.67998 1.12343 0
M  V30 6127 C 594.287 -1.92137 -0.332938 0
M  V30 6128 O 593.557 -1.52132 -1.23421 0
M  V30 6129 H 592.137 -0.622609 0.412756 0
M  V30 6130 H 594.799 -1.12509 1.59147 0
M  V30 6131 H 593.895 -2.65185 1.64571 0
M  V30 6132 N 594.196 -1.08629 -1.14182 0
M  V30 6133 C 595.612 -0.814363 -1.3726 0
M  V30 6134 C 595.812 0.575271 -1.93114 0
M  V30 6135 O 594.868 1.33165 -2.1453 0
M  V30 6136 C 596.181 -1.8989 -2.33157 0
M  V30 6137 C 597.729 -1.92518 -2.46791 0
M  V30 6138 C 598.204 -3.00092 -3.45989 0
M  V30 6139 N 599.695 -2.99279 -3.53534 0
M  V30 6140 C 600.43 -3.79158 -4.30147 0
M  V30 6141 N 599.926 -4.68923 -5.09983 0
M  V30 6142 N 601.719 -3.67451 -4.25366 0
M  V30 6143 H 593.87 -1.98232 -0.762758 0
M  V30 6144 H 596.133 -0.860383 -0.398051 0
M  V30 6145 H 595.839 -2.89809 -1.99257 0
M  V30 6146 H 595.713 -1.77013 -3.33086 0
M  V30 6147 H 598.1 -0.932425 -2.79982 0
M  V30 6148 H 598.181 -2.09473 -1.46816 0
M  V30 6149 H 597.825 -3.99575 -3.13532 0
M  V30 6150 H 597.755 -2.80382 -4.45751 0
M  V30 6151 H 600.246 -2.3422 -2.96563 0
M  V30 6152 H 600.559 -5.26475 -5.65724 0
M  V30 6153 H 598.904 -4.72964 -5.09244 0
M  V30 6154 H 602.095 -2.9669 -3.62067 0
M  V30 6155 H 602.268 -4.29944 -4.84822 0
M  V30 6156 N 595.674 1.31259 -0.872281 0
M  V30 6157 C 596.92 1.96913 -0.485083 0
M  V30 6158 C 597.253 1.68774 0.960667 0
M  V30 6159 O 596.528 0.985495 1.67685 0
M  V30 6160 C 596.811 3.52299 -0.745502 0
M  V30 6161 C 596.664 3.90002 -2.24095 0
M  V30 6162 C 597.983 4.39582 -0.213516 0
M  V30 6163 H 595.102 0.715252 -0.177716 0
M  V30 6164 H 597.744 1.55347 -1.09395 0
M  V30 6165 H 595.894 3.87835 -0.227276 0
M  V30 6166 H 597.566 3.64555 -2.82661 0
M  V30 6167 H 595.809 3.38526 -2.71261 0
M  V30 6168 H 596.48 4.98352 -2.37381 0
M  V30 6169 H 598.956 4.10882 -0.656902 0
M  V30 6170 H 597.832 5.47251 -0.42516 0
M  V30 6171 H 598.093 4.33158 0.884666 0
M  V30 6172 N 597.152 0.631951 1.44375 0
M  V30 6173 C 598.082 -0.0593243 2.33425 0
M  V30 6174 C 599.063 -0.833964 1.48253 0
M  V30 6175 O 600.248 -0.799682 1.76971 0
M  V30 6176 C 597.378 -1.04096 3.31333 0
M  V30 6177 C 596.332 -0.377899 4.26328 0
M  V30 6178 C 595.658 -1.4695 5.14111 0
M  V30 6179 C 596.958 0.716371 5.17364 0
M  V30 6180 H 598.652 0.684287 2.91475 0
M  V30 6181 H 596.198 0.330518 1.40156 0
M  V30 6182 H 598.151 -1.53331 3.92514 0
M  V30 6183 H 596.875 -1.81547 2.71493 0
M  V30 6184 H 595.534 0.0938054 3.6648 0
M  V30 6185 H 595.182 -2.2349 4.50623 0
M  V30 6186 H 594.882 -1.03121 5.78481 0
M  V30 6187 H 596.406 -1.96363 5.78164 0
M  V30 6188 H 597.82 0.307089 5.72477 0
M  V30 6189 H 596.217 1.07784 5.90341 0
M  V30 6190 H 597.287 1.58316 4.58327 0
M  V30 6191 N 598.631 -1.53133 0.372548 0
M  V30 6192 C 599.871 -2.03267 -0.214943 0
M  V30 6193 C 600.235 -1.25362 -1.45425 0
M  V30 6194 O 601.436 -1.65536 -2.11781 0
M  V30 6195 C 599.707 -3.53985 -0.492897 0
M  V30 6196 S 601.266 -4.25977 -1.05307 0
M  V30 6197 H 598.084 -0.708289 -0.062029 0
M  V30 6198 H 600.686 -1.88539 0.517025 0
M  V30 6199 H 599.39 -4.08282 0.416442 0
M  V30 6200 H 598.921 -3.72887 -1.25375 0
M  V30 6201 H 600.936 -4.37731 -2.33679 0
M  V30 6202 N 600.109 -0.101901 -1.5727 0
M  V30 6203 C 601.357 0.559091 -1.94213 0
M  V30 6204 C 601.678 1.68297 -0.984948 0
M  V30 6205 O 600.948 1.95863 -0.0381975 0
M  V30 6206 H 599.528 0.20952 -0.717015 0
M  V30 6207 H 602.19 -0.166831 -1.94185 0
M  V30 6208 H 601.286 0.96485 -2.96811 0
M  V30 6209 N 601.587 1.56661 0.17182 0
M  V30 6210 C 602.833 1.82235 0.889845 0
M  V30 6211 C 603.166 0.679673 1.81918 0
M  V30 6212 O 602.441 -0.318404 1.91876 0
M  V30 6213 C 602.724 3.18195 1.68595 0
M  V30 6214 C 602.577 4.42989 0.779773 0
M  V30 6215 C 603.896 3.5109 2.65375 0
M  V30 6216 H 601.015 0.66291 0.322056 0
M  V30 6217 H 603.657 1.89358 0.15608 0
M  V30 6218 H 601.807 3.12253 2.3115 0
M  V30 6219 H 603.479 4.60997 0.16714 0
M  V30 6220 H 601.722 4.33711 0.0877964 0
M  V30 6221 H 602.393 5.3467 1.3723 0
M  V30 6222 H 604.869 3.57482 2.12946 0
M  V30 6223 H 603.745 4.47298 3.18144 0
M  V30 6224 H 604.006 2.75768 3.45549 0
M  V30 6225 N 603.065 -0.440357 1.51323 0
M  V30 6226 C 603.995 -1.54174 1.75364 0
M  V30 6227 C 604.976 -1.59039 0.603375 0
M  V30 6228 O 606.161 -1.74815 0.845774 0
M  V30 6229 C 603.291 -2.92277 1.87593 0
M  V30 6230 C 602.245 -3.02274 3.03009 0
M  V30 6231 C 601.571 -4.42327 3.00418 0
M  V30 6232 C 602.871 -2.76634 4.43024 0
M  V30 6233 H 604.565 -1.34307 2.67585 0
M  V30 6234 H 602.111 -0.644678 1.28763 0
M  V30 6235 H 604.064 -3.69284 2.02995 0
M  V30 6236 H 602.788 -3.13369 0.920179 0
M  V30 6237 H 601.447 -2.27706 2.87307 0
M  V30 6238 H 601.095 -4.60382 2.02626 0
M  V30 6239 H 600.795 -4.49946 3.77918 0
M  V30 6240 H 602.319 -5.21312 3.17909 0
M  V30 6241 H 603.733 -3.43376 4.59093 0
M  V30 6242 H 602.13 -2.95666 5.22208 0
M  V30 6243 H 603.2 -1.72262 4.5327 0
M  V30 6244 N 604.543 -1.41418 -0.695603 0
M  V30 6245 C 605.791 -1.40496 -1.45277 0
M  V30 6246 C 606.112 -0.0149538 -1.94994 0
M  V30 6247 O 605.382 0.9432 -1.71699 0
M  V30 6248 H 603.962 -0.517147 -0.539044 0
M  V30 6249 H 606.624 -1.76656 -0.823321 0
M  V30 6250 H 605.72 -2.09214 -2.31595 0
M  V30 6251 N 606.021 0.929856 -1.27246 0
M  V30 6252 C 606.951 2.04722 -1.12299 0
M  V30 6253 C 607.932 1.70082 -0.0250464 0
M  V30 6254 O 609.117 1.93176 -0.199141 0
M  V30 6255 C 606.247 3.38721 -0.767145 0
M  V30 6256 C 605.201 3.87466 -1.81808 0
M  V30 6257 C 604.527 5.18246 -1.31626 0
M  V30 6258 C 605.827 4.11095 -3.22177 0
M  V30 6259 H 607.521 2.17485 -2.05769 0
M  V30 6260 H 605.067 1.04503 -0.990715 0
M  V30 6261 H 607.02 4.16366 -0.649413 0
M  V30 6262 H 605.744 3.25967 0.203259 0
M  V30 6263 H 604.403 3.12012 -1.92468 0
M  V30 6264 H 604.051 5.01881 -0.335378 0
M  V30 6265 H 603.751 5.51829 -2.01887 0
M  V30 6266 H 605.275 5.98462 -1.21143 0
M  V30 6267 H 606.689 4.79316 -3.1453 0
M  V30 6268 H 605.086 4.55982 -3.90129 0
M  V30 6269 H 606.156 3.16468 -3.67391 0
M  V30 6270 N 607.499 1.09233 1.13605 0
M  V30 6271 C 608.915 0.82163 1.36826 0
M  V30 6272 C 609.115 -0.565021 1.93416 0
M  V30 6273 O 608.171 -1.32026 2.15234 0
M  V30 6274 C 609.484 1.91124 2.32147 0
M  V30 6275 C 611.032 1.93824 2.45767 0
M  V30 6276 C 611.507 3.01923 3.44393 0
M  V30 6277 N 612.998 3.01149 3.51942 0
M  V30 6278 C 613.733 3.81434 4.2813 0
M  V30 6279 N 613.229 4.71621 5.07489 0
M  V30 6280 N 615.022 3.69702 4.23411 0
M  V30 6281 H 607.173 1.98633 0.752234 0
M  V30 6282 H 609.436 0.862482 0.393482 0
M  V30 6283 H 609.142 2.90862 1.97717 0
M  V30 6284 H 609.016 1.78777 3.32142 0
M  V30 6285 H 611.403 0.94726 2.79483 0
M  V30 6286 H 611.484 2.10248 1.45703 0
M  V30 6287 H 611.128 4.01232 3.11408 0
M  V30 6288 H 611.058 2.82742 4.44257 0
M  V30 6289 H 613.549 2.35789 2.95317 0
M  V30 6290 H 613.862 5.29468 5.62924 0
M  V30 6291 H 612.207 4.75658 5.06729 0
M  V30 6292 H 615.398 2.98606 3.60489 0
M  V30 6293 H 615.571 4.32509 4.82535 0
M  V30 6294 N 608.977 -1.30795 0.87923 0
M  V30 6295 C 609.924 -2.28282 0.339968 0
M  V30 6296 C 610.894 -1.56134 -0.566685 0
M  V30 6297 O 612.079 -1.84231 -0.496338 0
M  V30 6298 C 609.219 -3.42225 -0.444501 0
M  V30 6299 C 608.332 -4.29204 0.490717 0
M  V30 6300 C 607.467 -5.30302 -0.308784 0
M  V30 6301 C 606.506 -6.08929 0.622272 0
M  V30 6302 N 605.643 -7.01957 -0.14155 0
M  V30 6303 H 610.483 -2.73794 1.17647 0
M  V30 6304 H 608.02 -1.34682 0.591527 0
M  V30 6305 H 609.978 -4.07038 -0.915186 0
M  V30 6306 H 608.608 -2.97799 -1.24562 0
M  V30 6307 H 607.66 -3.6475 1.07988 0
M  V30 6308 H 608.972 -4.84045 1.20425 0
M  V30 6309 H 608.126 -6.00835 -0.841575 0
M  V30 6310 H 606.865 -4.7614 -1.05556 0
M  V30 6311 H 605.87 -5.37278 1.16674 0
M  V30 6312 H 607.095 -6.65178 1.36804 0
M  V30 6313 H 605.041 -6.50192 -0.870966 0
M  V30 6314 H 604.958 -7.54261 0.51246 0
M  V30 6315 H 606.226 -7.76741 -0.655271 0
M  V30 6316 N 610.455 -0.639598 -1.44038 0
M  V30 6317 C 611.701 -0.156248 -2.02799 0
M  V30 6318 C 612.056 1.21145 -1.49471 0
M  V30 6319 O 611.349 1.79406 -0.672608 0
M  V30 6320 C 611.543 -0.0925348 -3.5728 0
M  V30 6321 C 611.372 -1.45252 -4.25596 0
M  V30 6322 C 610.142 -2.04145 -4.62226 0
M  V30 6323 C 612.34 -2.38812 -4.55492 0
M  V30 6324 N 610.322 -3.3329 -5.15549 0
M  V30 6325 C 611.693 -3.52578 -5.09989 0
M  V30 6326 C 613.748 -2.37785 -4.3745 0
M  V30 6327 C 612.451 -4.65525 -5.48342 0
M  V30 6328 C 614.477 -3.49802 -4.76857 0
M  V30 6329 C 613.839 -4.62292 -5.31475 0
M  V30 6330 H 609.938 -0.101292 -0.775412 0
M  V30 6331 H 612.522 -0.844938 -1.75411 0
M  V30 6332 H 610.693 0.565459 -3.84262 0
M  V30 6333 H 612.425 0.400426 -4.02714 0
M  V30 6334 H 609.18 -1.56999 -4.4682 0
M  V30 6335 H 609.604 -3.9934 -5.46678 0
M  V30 6336 H 614.246 -1.52061 -3.94509 0
M  V30 6337 H 611.964 -5.51951 -5.90233 0
M  V30 6338 H 615.55 -3.50193 -4.64603 0
M  V30 6339 H 614.43 -5.47536 -5.61403 0
M  V30 6340 N 611.933 1.52934 -0.380664 0
M  V30 6341 C 612.865 2.23822 0.493581 0
M  V30 6342 C 613.878 1.25761 1.03383 0
M  V30 6343 O 615.067 1.5189 0.937633 0
M  V30 6344 C 612.167 2.9342 1.69582 0
M  V30 6345 C 611.34 4.18115 1.28445 0
M  V30 6346 C 610.399 4.70788 2.35042 0
M  V30 6347 O 609.425 5.34093 1.96807 0
M  V30 6348 N 610.627 4.49899 3.66839 0
M  V30 6349 H 613.392 2.99484 -0.11371 0
M  V30 6350 H 610.953 1.60577 -0.206587 0
M  V30 6351 H 612.945 3.2556 2.40401 0
M  V30 6352 H 611.515 2.21119 2.20965 0
M  V30 6353 H 610.735 3.92109 0.405503 0
M  V30 6354 H 612.023 4.99152 0.986132 0
M  V30 6355 H 611.421 3.99349 4.0067 0
M  V30 6356 H 609.978 4.86551 4.33718 0
M  V30 6357 N 613.412 0.11024 1.57214 0
M  V30 6358 C 614.642 -0.557025 1.98949 0
M  V30 6359 C 615.05 -1.61317 0.988606 0
M  V30 6360 O 614.393 -1.83679 -0.0279159 0
M  V30 6361 C 614.455 -1.24956 3.37085 0
M  V30 6362 C 614.119 -0.342398 4.55716 0
M  V30 6363 C 615.116 0.415511 5.18237 0
M  V30 6364 C 612.801 -0.256029 5.01647 0
M  V30 6365 C 614.795 1.24761 6.25071 0
M  V30 6366 C 612.482 0.579713 6.08344 0
M  V30 6367 C 613.48 1.33017 6.69922 0
M  V30 6368 O 613.168 2.15205 7.74559 0
M  V30 6369 H 612.9 -0.152792 0.658506 0
M  V30 6370 H 615.454 0.19076 2.04512 0
M  V30 6371 H 613.684 -2.04424 3.2825 0
M  V30 6372 H 615.373 -1.81286 3.63167 0
M  V30 6373 H 616.139 0.358605 4.83672 0
M  V30 6374 H 612.018 -0.829831 4.5347 0
M  V30 6375 H 615.562 1.83386 6.73064 0
M  V30 6376 H 611.459 0.638044 6.42339 0
M  V30 6377 H 612.227 2.08052 7.91617 0
M  V30 6378 N 614.89 -1.56749 -0.16351 0
M  V30 6379 C 616.167 -1.73321 -0.906599 0
M  V30 6380 C 616.547 -0.673779 -2.00059 0
M  V30 6381 O 615.895 0.310121 -2.26386 0
M  V30 6382 C 616.105 -3.168 -1.46419 0
M  V30 6383 C 617.453 -3.77993 -1.93407 0
M  V30 6384 O 618.477 -3.20127 -1.56196 0
M  V30 6385 O 617.336 -4.79615 -2.61976 0
M  V30 6386 H 614.43 -0.708073 -0.427272 0
M  V30 6387 H 616.976 -1.69029 -0.150727 0
M  V30 6388 H 615.748 -3.85396 -0.677189 0
M  V30 6389 H 615.371 -3.2545 -2.28403 0
M  V30 6390 N 616.368 0.432326 -1.51554 0
M  V30 6391 C 617.614 1.18309 -1.64714 0
M  V30 6392 C 617.947 1.90745 -0.364696 0
M  V30 6393 O 617.222 1.8381 0.635936 0
M  V30 6394 C 617.505 2.1961 -2.85383 0
M  V30 6395 C 617.358 1.51223 -4.23617 0
M  V30 6396 C 618.677 3.20538 -3.01569 0
M  V30 6397 H 615.796 0.428751 -0.599451 0
M  V30 6398 H 618.438 0.471689 -1.84052 0
M  V30 6399 H 616.588 2.8028 -2.69027 0
M  V30 6400 H 618.26 0.938516 -4.51652 0
M  V30 6401 H 616.503 0.814501 -4.26085 0
M  V30 6402 H 617.174 2.25024 -5.04052 0
M  V30 6403 H 619.65 2.69926 -3.16669 0
M  V30 6404 H 618.526 3.88706 -3.87555 0
M  V30 6405 H 618.787 3.86933 -2.13859 0
M  V30 6406 N 617.846 1.41785 0.688094 0
M  V30 6407 C 619.092 1.42753 1.4489 0
M  V30 6408 C 619.447 0.0384235 1.92362 0
M  V30 6409 O 618.74 -0.937066 1.67122 0
M  V30 6410 C 618.934 2.37532 2.67046 0
M  V30 6411 C 618.763 3.85521 2.31525 0
M  V30 6412 C 617.533 4.54152 2.21527 0
M  V30 6413 C 619.731 4.76299 1.94019 0
M  V30 6414 N 617.713 5.87233 1.78969 0
M  V30 6415 C 619.084 5.98386 1.62279 0
M  V30 6416 C 621.139 4.63877 1.80895 0
M  V30 6417 C 619.842 7.09433 1.18732 0
M  V30 6418 C 621.868 5.74893 1.38752 0
M  V30 6419 C 621.23 6.96083 1.07927 0
M  V30 6420 H 617.329 0.577575 0.527192 0
M  V30 6421 H 619.913 1.77713 0.795375 0
M  V30 6422 H 618.084 2.04656 3.30107 0
M  V30 6423 H 619.816 2.29169 3.33562 0
M  V30 6424 H 616.571 4.08188 2.40166 0
M  V30 6425 H 616.995 6.57785 1.60151 0
M  V30 6426 H 621.637 3.70671 2.03378 0
M  V30 6427 H 619.355 8.02497 0.949937 0
M  V30 6428 H 622.941 5.67287 1.29136 0
M  V30 6429 H 621.821 7.80527 0.758111 0
M  V30 6430 N 619.324 -0.923095 1.27737 0
M  V30 6431 C 620.549 -1.71054 1.17283 0
M  V30 6432 C 620.974 -1.86208 -0.266153 0
M  V30 6433 O 620.332 -1.36545 -1.1927 0
M  V30 6434 C 620.38 -3.0854 1.86642 0
M  V30 6435 O 619.484 -3.95528 1.16752 0
M  V30 6436 H 618.825 -0.524136 0.407649 0
M  V30 6437 H 621.355 -1.15487 1.6889 0
M  V30 6438 H 621.365 -3.58828 1.94182 0
M  V30 6439 H 620.04 -2.96828 2.91317 0
M  V30 6440 H 618.617 -3.53967 1.17312 0
M  V30 6441 N 620.802 -1.09834 -1.13024 0
M  V30 6442 C 621.75 -0.736283 -2.20639 0
M  V30 6443 C 622.744 0.264725 -1.67319 0
M  V30 6444 O 623.95 0.125745 -1.7956 0
M  V30 6445 H 620.325 -0.220136 -0.719058 0
M  V30 6446 H 622.296 -1.65295 -2.48436 0
M  V30 6447 C 621.045 -0.177544 -3.47246 0
M  V30 6448 H 620.368 -0.939009 -3.88616 0
M  V30 6449 H 621.808 0.0378007 -4.23983 0
M  V30 6450 C 620.267 1.08824 -3.1884 0
M  V30 6451 O 620.797 2.1708 -3.37993 0
M  V30 6452 N 619.003 1.00442 -2.7269 0
M  V30 6453 H 618.55 0.123383 -2.57304 0
M  V30 6454 H 618.508 1.85206 -2.5406 0
M  V30 6455 N 622.28 1.30327 -0.886154 0
M  V30 6456 C 623.557 1.90922 -0.425217 0
M  V30 6457 C 623.937 1.80533 1.09413 0
M  V30 6458 O 623.285 1.2233 1.92996 0
M  V30 6459 C 623.495 3.36529 -0.924638 0
M  V30 6460 C 624.843 4.13598 -0.960305 0
M  V30 6461 O 625.867 3.45377 -0.871382 0
M  V30 6462 O 624.726 5.35482 -1.09184 0
M  V30 6463 H 621.82 0.81668 -0.130238 0
M  V30 6464 H 624.366 1.38886 -0.975132 0
M  V30 6465 H 623.138 3.38181 -1.96849 0
M  V30 6466 H 622.761 3.96021 -0.353955 0
M  V30 6467 N 623.758 0.647228 1.43697 0
M  V30 6468 C 625.004 0.158422 2.0218 0
M  V30 6469 C 625.337 -1.22233 1.50907 0
M  V30 6470 O 624.612 -1.81478 0.699702 0
M  V30 6471 C 624.895 0.1627 3.59732 0
M  V30 6472 C 624.748 1.57694 4.21251 0
M  V30 6473 C 626.067 -0.504138 4.37203 0
M  V30 6474 H 623.186 0.059042 0.734631 0
M  V30 6475 H 625.828 0.826772 1.71069 0
M  V30 6476 H 623.978 -0.406414 3.86368 0
M  V30 6477 H 625.65 2.19618 4.05667 0
M  V30 6478 H 623.893 2.12603 3.7813 0
M  V30 6479 H 624.564 1.53183 5.3032 0
M  V30 6480 H 627.04 -0.0199841 4.16095 0
M  V30 6481 H 625.916 -0.470394 5.46881 0
M  V30 6482 H 626.177 -1.57726 4.13007 0
M  V30 6483 N 625.236 -1.5273 0.388769 0
M  V30 6484 C 626.464 -2.05992 -0.193677 0
M  V30 6485 C 626.879 -1.26053 -1.40557 0
M  V30 6486 O 626.236 -0.307049 -1.79898 0
M  V30 6487 C 626.287 -3.57068 -0.564321 0
M  V30 6488 O 626.008 -4.3398 0.599422 0
M  V30 6489 C 627.509 -4.26674 -1.20269 0
M  V30 6490 H 624.729 -0.670358 -0.0293445 0
M  V30 6491 H 627.273 -1.96857 0.553844 0
M  V30 6492 H 625.428 -3.66277 -1.26174 0
M  V30 6493 H 625.842 -5.2367 0.294895 0
M  V30 6494 H 627.316 -5.33625 -1.4124 0
M  V30 6495 H 627.793 -3.81854 -2.16989 0
M  V30 6496 H 628.399 -4.2178 -0.546047 0
M  V30 6497 N 626.714 -0.118576 -1.57153 0
M  V30 6498 C 627.644 0.828436 -2.1831 0
M  V30 6499 C 628.625 1.27758 -1.12303 0
M  V30 6500 O 629.81 1.34026 -1.40537 0
M  V30 6501 C 626.94 2.07876 -2.78217 0
M  V30 6502 C 625.894 1.76742 -3.89803 0
M  V30 6503 C 625.22 3.08801 -4.36516 0
M  V30 6504 C 626.52 1.03606 -5.11921 0
M  V30 6505 H 628.214 0.318824 -2.97698 0
M  V30 6506 H 625.76 0.151911 -1.43196 0
M  V30 6507 H 627.713 2.74584 -3.19659 0
M  V30 6508 H 626.437 2.61161 -1.96118 0
M  V30 6509 H 625.096 1.12424 -3.48936 0
M  V30 6510 H 624.744 3.6002 -3.51276 0
M  V30 6511 H 624.444 2.88743 -5.11763 0
M  V30 6512 H 625.968 3.76627 -4.80608 0
M  V30 6513 H 627.382 1.60467 -5.50385 0
M  V30 6514 H 625.779 0.936454 -5.92748 0
M  V30 6515 H 626.849 0.0227421 -4.84895 0
M  V30 6516 N 628.193 1.56834 0.155195 0
M  V30 6517 C 629.156 1.96748 1.17571 0
M  V30 6518 C 630.156 0.853006 1.3631 0
M  V30 6519 O 631.346 1.11978 1.33441 0
M  V30 6520 C 628.478 2.27631 2.53765 0
M  V30 6521 H 629.671 2.88085 0.833498 0
M  V30 6522 H 627.224 1.51141 0.398242 0
M  V30 6523 H 627.959 1.39059 2.92973 0
M  V30 6524 H 627.744 3.0888 2.41527 0
M  V30 6525 H 629.234 2.59377 3.27282 0
M  V30 6526 N 629.671 -0.424282 1.51781 0
M  V30 6527 C 630.619 -1.53649 1.74628 0
M  V30 6528 C 631.613 -1.57923 0.612922 0
M  V30 6529 O 632.819 -1.61511 0.794618 0
M  V30 6530 H 629.194 -0.510706 0.551981 0
M  V30 6531 H 631.165 -1.31558 2.67834 0
M  V30 6532 C 629.914 -2.91177 1.9003 0
M  V30 6533 H 629.237 -2.88625 2.76651 0
M  V30 6534 H 630.677 -3.6833 2.10021 0
M  V30 6535 C 629.136 -3.30303 0.663435 0
M  V30 6536 O 629.666 -4.01315 -0.175812 0
M  V30 6537 N 627.872 -2.86201 0.503723 0
M  V30 6538 H 627.419 -2.28583 1.18776 0
M  V30 6539 H 627.377 -3.12741 -0.322575 0
M  V30 6540 N 631.149 -1.42148 -0.680565 0
M  V30 6541 C 632.395 -1.42521 -1.44277 0
M  V30 6542 C 632.728 -0.0393718 -1.9416 0
M  V30 6543 O 632.003 0.935425 -1.70529 0
M  V30 6544 C 632.286 -2.44475 -2.64394 0
M  V30 6545 C 632.139 -3.92226 -2.20179 0
M  V30 6546 C 633.458 -2.43491 -3.66606 0
M  V30 6547 H 630.577 -0.518985 -0.523282 0
M  V30 6548 H 633.219 -1.73524 -0.773914 0
M  V30 6549 H 631.369 -2.18168 -3.21458 0
M  V30 6550 H 633.041 -4.29493 -1.68327 0
M  V30 6551 H 631.284 -4.0637 -1.5181 0
M  V30 6552 H 631.955 -4.59133 -3.06433 0
M  V30 6553 H 634.431 -2.66872 -3.19247 0
M  V30 6554 H 633.307 -3.16816 -4.4824 0
M  V30 6555 H 633.568 -1.45881 -4.17338 0
M  V30 6556 N 632.627 0.916307 -1.28225 0
M  V30 6557 C 633.56 2.01954 -1.06254 0
M  V30 6558 C 634.538 1.62587 0.0205983 0
M  V30 6559 O 635.722 1.88073 -0.126824 0
M  V30 6560 C 632.849 3.33086 -0.614141 0
M  V30 6561 C 631.895 3.91435 -1.69354 0
M  V30 6562 S 632.728 4.22603 -3.28887 0
M  V30 6563 C 633.884 5.568 -2.85876 0
M  V30 6564 H 634.117 2.20281 -1.99659 0
M  V30 6565 H 631.65 1.06085 -1.12184 0
M  V30 6566 H 633.608 4.089 -0.36213 0
M  V30 6567 H 632.269 3.12664 0.300036 0
M  V30 6568 H 631.462 4.86098 -1.33136 0
M  V30 6569 H 631.064 3.22248 -1.89821 0
M  V30 6570 H 633.356 6.3658 -2.31888 0
M  V30 6571 H 634.299 5.97927 -3.79326 0
M  V30 6572 H 634.707 5.17865 -2.24669 0
M  V30 6573 N 634.105 1.10431 1.1244 0
M  V30 6574 C 635.015 0.765502 2.21759 0
M  V30 6575 C 636.031 -0.236966 1.72379 0
M  V30 6576 O 637.207 -0.0757329 2.01258 0
M  V30 6577 C 634.272 0.202316 3.46109 0
M  V30 6578 C 633.333 1.26205 4.1033 0
M  V30 6579 C 632.566 0.725648 5.28744 0
M  V30 6580 O 632.789 -0.447942 5.68638 0
M  V30 6581 O 631.723 1.48555 5.83279 0
M  V30 6582 H 635.549 1.67801 2.53133 0
M  V30 6583 H 633.134 0.879443 1.20773 0
M  V30 6584 H 635.016 -0.107918 4.21262 0
M  V30 6585 H 633.691 -0.683052 3.16411 0
M  V30 6586 H 632.598 1.62514 3.36957 0
M  V30 6587 H 633.931 2.12044 4.44183 0
M  V30 6588 N 635.583 -1.29855 0.893053 0
M  V30 6589 C 636.546 -2.26183 0.370687 0
M  V30 6590 C 637.546 -1.53108 -0.491385 0
M  V30 6591 O 638.736 -1.71643 -0.297386 0
M  V30 6592 C 635.868 -3.37633 -0.470827 0
M  V30 6593 H 637.061 -2.73903 1.22135 0
M  V30 6594 H 634.614 -1.41183 0.67061 0
M  V30 6595 H 635.349 -2.95241 -1.34175 0
M  V30 6596 H 635.134 -3.91825 0.146784 0
M  V30 6597 H 636.624 -4.09313 -0.827825 0
M  V30 6598 N 637.061 -0.65484 -1.43351 0
M  V30 6599 C 638.024 0.0263562 -2.29185 0
M  V30 6600 C 639.024 0.748951 -1.42293 0
M  V30 6601 O 640.214 0.589957 -1.63906 0
M  V30 6602 C 637.346 1.04806 -3.2439 0
M  V30 6603 H 638.539 -0.728883 -2.90908 0
M  V30 6604 H 636.092 -0.416149 -1.50658 0
M  V30 6605 H 636.827 1.83247 -2.67565 0
M  V30 6606 H 636.612 0.533554 -3.88453 0
M  V30 6607 H 638.102 1.52372 -3.88809 0
M  V30 6608 N 638.539 1.52521 -0.396863 0
M  V30 6609 C 639.787 2.01274 0.182536 0
M  V30 6610 C 640.108 1.28485 1.46685 0
M  V30 6611 O 639.378 0.407134 1.91623 0
M  V30 6612 H 637.958 0.743671 0.0704442 0
M  V30 6613 H 640.62 1.87547 -0.530289 0
M  V30 6614 H 639.716 3.09687 0.387385 0
M  V30 6615 N 640.017 0.126909 1.57088 0
M  V30 6616 C 640.947 -0.816847 2.18746 0
M  V30 6617 C 641.928 -1.27161 1.12979 0
M  V30 6618 O 643.113 -1.33279 1.41246 0
M  V30 6619 C 640.243 -2.06398 2.79315 0
M  V30 6620 C 639.197 -1.74673 3.90735 0
M  V30 6621 C 638.523 -3.06482 4.38147 0
M  V30 6622 C 639.823 -1.0089 5.12463 0
M  V30 6623 H 641.517 -0.303032 2.97863 0
M  V30 6624 H 639.063 -0.144314 1.43275 0
M  V30 6625 H 641.016 -2.72885 3.2111 0
M  V30 6626 H 639.74 -2.60118 1.975 0
M  V30 6627 H 638.399 -1.10572 3.49527 0
M  V30 6628 H 638.047 -3.58152 3.5318 0
M  V30 6629 H 637.747 -2.86025 5.13287 0
M  V30 6630 H 639.271 -3.74073 4.82599 0
M  V30 6631 H 640.685 -1.57546 5.51228 0
M  V30 6632 H 639.082 -0.905006 5.93237 0
M  V30 6633 H 640.152 0.00297335 4.849 0
M  V30 6634 N 641.495 -1.56914 -0.146875 0
M  V30 6635 C 642.906 -1.72799 -0.706928 0
M  V30 6636 C 643.257 -0.741329 -1.81656 0
M  V30 6637 O 642.382 0.0920162 -2.16204 0
M  V30 6638 C 642.977 -3.13317 -1.28911 0
M  V30 6639 C 641.536 -3.30803 -1.79573 0
M  V30 6640 C 640.683 -2.68725 -0.684252 0
M  V30 6641 H 643.634 -1.58504 0.0787931 0
M  V30 6642 H 643.655 -3.13323 -2.15891 0
M  V30 6643 H 643.167 -3.85104 -0.481284 0
M  V30 6644 H 641.268 -2.64012 -2.62923 0
M  V30 6645 H 641.381 -4.38754 -1.92436 0
M  V30 6646 H 639.745 -2.29196 -1.11091 0
M  V30 6647 H 640.528 -3.43117 0.112134 0
M  V30 6648 N 642.974 0.416227 -1.52004 0
M  V30 6649 C 644.222 1.16153 -1.65387 0
M  V30 6650 C 644.543 1.91208 -0.382669 0
M  V30 6651 O 643.813 1.86413 0.602231 0
M  V30 6652 H 642.393 0.431765 -0.60958 0
M  V30 6653 H 645.055 0.475151 -1.89019 0
M  V30 6654 H 644.151 1.87952 -2.4916 0
M  V30 6655 N 644.452 1.42507 0.673017 0
M  V30 6656 C 645.399 1.46124 1.78651 0
M  V30 6657 C 646.369 0.313007 1.63124 0
M  V30 6658 O 647.554 0.517337 1.83653 0
M  V30 6659 C 644.694 1.3711 3.16694 0
M  V30 6660 C 643.807 2.61983 3.43495 0
M  V30 6661 C 642.942 2.45098 4.71275 0
M  V30 6662 C 641.981 3.65336 4.91117 0
M  V30 6663 N 641.118 3.47383 6.10139 0
M  V30 6664 H 645.958 2.4128 1.74895 0
M  V30 6665 H 643.495 1.19788 0.853766 0
M  V30 6666 H 645.453 1.29881 3.96468 0
M  V30 6667 H 644.083 0.45549 3.1957 0
M  V30 6668 H 643.135 2.79571 2.57961 0
M  V30 6669 H 644.447 3.51355 3.5405 0
M  V30 6670 H 643.601 2.35466 5.59143 0
M  V30 6671 H 642.34 1.53219 4.63007 0
M  V30 6672 H 641.345 3.754 4.0169 0
M  V30 6673 H 642.57 4.58199 5.01229 0
M  V30 6674 H 640.516 2.58222 6.0304 0
M  V30 6675 H 640.433 4.30344 6.21563 0
M  V30 6676 H 641.701 3.41565 7.00681 0
M  V30 6677 N 645.93 -0.909495 1.28709 0
M  V30 6678 C 647.176 -1.66151 1.16283 0
M  V30 6679 C 647.509 -1.92067 -0.287069 0
M  V30 6680 O 646.784 -1.52409 -1.20837 0
M  V30 6681 C 647.067 -3.01676 1.9663 0
M  V30 6682 C 646.92 -2.82888 3.49707 0
M  V30 6683 C 648.239 -4.02274 1.78504 0
M  V30 6684 H 645.358 -0.602966 0.423793 0
M  V30 6685 H 648 -1.05418 1.58073 0
M  V30 6686 H 646.15 -3.53515 1.61119 0
M  V30 6687 H 647.822 -2.38026 3.95147 0
M  V30 6688 H 646.065 -2.17862 3.75125 0
M  V30 6689 H 646.736 -3.79147 4.01187 0
M  V30 6690 H 649.212 -3.59511 2.09503 0
M  V30 6691 H 648.088 -4.95056 2.37088 0
M  V30 6692 H 648.349 -4.35903 0.737647 0
M  V30 6693 N 647.408 -1.11026 -1.11852 0
M  V30 6694 C 648.358 -0.733836 -2.15868 0
M  V30 6695 C 649.342 0.26001 -1.58785 0
M  V30 6696 O 650.534 0.0677901 -1.7687 0
M  V30 6697 C 647.663 -0.173948 -3.42859 0
M  V30 6698 C 646.749 -1.1952 -4.0691 0
M  V30 6699 N 647.14 -2.38797 -4.45881 0
M  V30 6700 C 645.438 -1.03714 -4.33773 0
M  V30 6701 C 646.139 -3.03894 -4.96007 0
M  V30 6702 N 645.115 -2.31389 -4.91894 0
M  V30 6703 H 648.917 -1.64171 -2.43773 0
M  V30 6704 H 646.431 -0.988877 -1.28822 0
M  V30 6705 H 648.428 0.113836 -4.16745 0
M  V30 6706 H 647.088 0.728568 -3.16421 0
M  V30 6707 H 648.099 -2.76281 -4.38051 0
M  V30 6708 H 644.776 -0.190694 -4.17064 0
M  V30 6709 H 646.166 -4.05389 -5.35826 0
M  V30 6710 N 648.886 1.2938 -0.899927 0
M  V30 6711 C 650.135 1.9483 -0.521937 0
M  V30 6712 C 650.448 1.71725 0.936473 0
M  V30 6713 O 651.654 2.31282 1.42199 0
M  V30 6714 C 650.11 3.48911 -0.88255 0
M  V30 6715 C 649.718 3.80815 -2.35974 0
M  V30 6716 C 651.462 4.20595 -0.57448 0
M  V30 6717 C 649.369 5.28142 -2.66121 0
M  V30 6718 H 648.299 0.729285 -0.191468 0
M  V30 6719 H 650.95 1.47103 -1.09695 0
M  V30 6720 H 649.332 3.95293 -0.236459 0
M  V30 6721 H 650.506 3.45291 -3.05141 0
M  V30 6722 H 648.821 3.22271 -2.63686 0
M  V30 6723 H 651.418 5.29031 -0.776556 0
M  V30 6724 H 651.761 4.13442 0.487005 0
M  V30 6725 H 652.294 3.79945 -1.17842 0
M  V30 6726 H 649.033 5.4036 -3.71068 0
M  V30 6727 H 648.553 5.64913 -2.01578 0
M  V30 6728 H 650.232 5.95738 -2.52399 0
M  V30 6729 N 650.364 0.662433 1.43002 0
M  V30 6730 C 651.592 0.187615 2.06048 0
M  V30 6731 C 652.007 -1.15039 1.49705 0
M  V30 6732 O 651.364 -1.71209 0.631956 0
M  V30 6733 C 651.415 0.100498 3.6136 0
M  V30 6734 O 651.136 1.38562 4.15611 0
M  V30 6735 C 652.637 -0.399298 4.41498 0
M  V30 6736 H 649.857 0.0941675 0.664359 0
M  V30 6737 H 652.401 0.905681 1.83351 0
M  V30 6738 H 650.556 -0.568181 3.83211 0
M  V30 6739 H 650.97 1.25084 5.09366 0
M  V30 6740 H 652.444 -0.409187 5.50481 0
M  V30 6741 H 652.921 -1.43232 4.15188 0
M  V30 6742 H 653.527 0.23721 4.24638 0
M  V30 6743 N 651.842 -1.52309 0.404946 0
M  V30 6744 C 652.789 -2.26898 -0.422597 0
M  V30 6745 C 653.759 -1.2914 -1.04461 0
M  V30 6746 O 654.944 -1.57996 -1.06967 0
M  V30 6747 C 652.084 -3.09053 -1.53559 0
M  V30 6748 C 651.197 -4.21762 -0.934908 0
M  V30 6749 C 650.332 -4.91283 -2.02025 0
M  V30 6750 C 649.371 -5.95962 -1.39628 0
M  V30 6751 N 648.508 -6.59017 -2.42159 0
M  V30 6752 H 653.348 -2.97188 0.219903 0
M  V30 6753 H 650.885 -1.46607 0.120282 0
M  V30 6754 H 652.843 -3.54987 -2.19181 0
M  V30 6755 H 651.473 -2.40942 -2.14818 0
M  V30 6756 H 650.525 -3.80029 -0.167854 0
M  V30 6757 H 651.837 -4.96864 -0.439073 0
M  V30 6758 H 650.991 -5.40601 -2.75383 0
M  V30 6759 H 649.73 -4.15741 -2.54973 0
M  V30 6760 H 648.735 -5.45968 -0.648023 0
M  V30 6761 H 649.96 -6.73445 -0.874553 0
M  V30 6762 H 647.906 -5.86306 -2.94247 0
M  V30 6763 H 647.823 -7.2978 -1.97376 0
M  V30 6764 H 649.091 -7.12974 -3.15099 0
M  V30 6765 N 653.32 -0.135238 -1.57019 0
M  V30 6766 C 654.548 0.526066 -2.001 0
M  V30 6767 C 654.963 1.59184 -1.01519 0
M  V30 6768 O 654.32 1.82497 -0.0104258 0
M  V30 6769 C 654.371 1.13744 -3.43139 0
M  V30 6770 O 654.092 0.114259 -4.37951 0
M  V30 6771 C 655.593 1.8805 -4.01438 0
M  V30 6772 H 652.813 0.137962 -0.656664 0
M  V30 6773 H 655.357 -0.226359 -2.03243 0
M  V30 6774 H 653.512 1.84056 -3.40885 0
M  V30 6775 H 653.926 0.56058 -5.21496 0
M  V30 6776 H 655.4 2.26133 -5.03555 0
M  V30 6777 H 655.877 2.76194 -3.41487 0
M  V30 6778 H 656.483 1.22464 -4.07287 0
M  V30 6779 N 654.798 1.5699 0.138552 0
M  V30 6780 C 656.026 1.87976 0.864437 0
M  V30 6781 C 656.441 0.724372 1.74351 0
M  V30 6782 O 655.798 -0.305575 1.79924 0
M  V30 6783 C 655.849 3.18276 1.71414 0
M  V30 6784 O 655.57 4.29365 0.870487 0
M  V30 6785 C 657.071 3.62834 2.54688 0
M  V30 6786 H 654.291 0.622878 0.249528 0
M  V30 6787 H 656.835 2.04094 0.128805 0
M  V30 6788 H 654.99 3.03886 2.40274 0
M  V30 6789 H 655.404 5.03924 1.45466 0
M  V30 6790 H 656.878 4.5682 3.0987 0
M  V30 6791 H 657.355 2.88533 3.31127 0
M  V30 6792 H 657.961 3.79946 1.91105 0
M  V30 6793 N 656.276 -0.40816 1.52223 0
M  V30 6794 C 657.206 -1.5042 1.78595 0
M  V30 6795 C 658.187 -1.57723 0.636974 0
M  V30 6796 O 659.372 -1.72982 0.882664 0
M  V30 6797 C 656.502 -2.88232 1.93751 0
M  V30 6798 C 655.456 -2.95779 3.09352 0
M  V30 6799 C 654.782 -4.35855 3.09732 0
M  V30 6800 C 656.082 -2.67175 4.48793 0
M  V30 6801 H 657.776 -1.28601 2.70374 0
M  V30 6802 H 655.322 -0.617221 1.30101 0
M  V30 6803 H 657.275 -3.64895 2.10783 0
M  V30 6804 H 655.999 -3.11347 0.986443 0
M  V30 6805 H 654.658 -2.21561 2.92072 0
M  V30 6806 H 654.306 -4.55981 2.12346 0
M  V30 6807 H 654.006 -4.41829 3.87377 0
M  V30 6808 H 655.53 -5.14451 3.28895 0
M  V30 6809 H 656.944 -3.3356 4.66273 0
M  V30 6810 H 655.341 -2.84523 5.28362 0
M  V30 6811 H 656.411 -1.62609 4.56822 0
M  V30 6812 N 657.755 -1.42862 -0.66545 0
M  V30 6813 C 658.718 -1.46756 -1.76055 0
M  V30 6814 C 659.718 -0.353866 -1.56858 0
M  V30 6815 O 660.908 -0.615099 -1.62979 0
M  V30 6816 C 658.04 -1.30829 -3.14796 0
M  V30 6817 H 659.233 -2.44271 -1.73987 0
M  V30 6818 H 656.786 -1.29447 -0.875965 0
M  V30 6819 H 657.521 -0.342733 -3.22484 0
M  V30 6820 H 657.306 -2.11551 -3.30134 0
M  V30 6821 H 658.796 -1.36458 -3.94676 0
M  V30 6822 N 659.233 0.902656 -1.29189 0
M  V30 6823 C 660.473 1.6672 -1.18254 0
M  V30 6824 C 660.837 1.90199 0.262336 0
M  V30 6825 O 662.038 2.6421 0.494612 0
M  V30 6826 C 660.309 2.98178 -1.9704 0
M  V30 6827 S 661.868 3.89226 -2.02605 0
M  V30 6828 H 658.686 0.572432 -0.421714 0
M  V30 6829 H 661.288 1.07279 -1.63436 0
M  V30 6830 H 659.992 2.788 -3.01163 0
M  V30 6831 H 659.523 3.62661 -1.5245 0
M  V30 6832 H 661.538 4.82913 -1.14059 0
M  V30 6833 N 660.711 1.11618 1.11262 0
M  V30 6834 C 661.641 0.79846 2.19424 0
M  V30 6835 C 662.622 -0.234003 1.68483 0
M  V30 6836 O 663.807 -0.0970704 1.93957 0
M  V30 6837 C 660.937 0.242892 3.4645 0
M  V30 6838 C 659.891 1.20744 4.10615 0
M  V30 6839 C 659.217 0.512494 5.32238 0
M  V30 6840 C 660.517 2.55884 4.55325 0
M  V30 6841 H 662.211 1.70286 2.46258 0
M  V30 6842 H 659.757 0.820195 1.18359 0
M  V30 6843 H 661.71 0.00840447 4.21399 0
M  V30 6844 H 660.434 -0.696811 3.1908 0
M  V30 6845 H 659.093 1.42759 3.37662 0
M  V30 6846 H 658.741 -0.432075 5.01141 0
M  V30 6847 H 658.441 1.15583 5.7612 0
M  V30 6848 H 659.965 0.286842 6.09926 0
M  V30 6849 H 661.379 2.37946 5.21588 0
M  V30 6850 H 659.776 3.16216 5.10027 0
M  V30 6851 H 660.846 3.14968 3.68678 0
M  V30 6852 N 662.189 -1.289 0.906776 0
M  V30 6853 C 663.137 -2.29477 0.379873 0
M  V30 6854 C 664.131 -1.61068 -0.524747 0
M  V30 6855 O 665.337 -1.75344 -0.406765 0
M  V30 6856 H 661.712 -0.744742 0.10423 0
M  V30 6857 H 663.683 -2.71353 1.24137 0
M  V30 6858 C 662.432 -3.45713 -0.371154 0
M  V30 6859 H 661.755 -3.98551 0.315716 0
M  V30 6860 H 663.195 -4.18105 -0.704581 0
M  V30 6861 C 661.654 -2.9774 -1.57646 0
M  V30 6862 O 662.184 -2.99618 -2.67567 0
M  V30 6863 N 660.39 -2.53485 -1.42105 0
M  V30 6864 H 659.937 -2.52156 -0.526783 0
M  V30 6865 H 659.895 -2.21747 -2.22881 0
M  V30 6866 N 663.667 -0.670007 -1.42649 0
M  V30 6867 C 664.915 -0.18991 -2.01206 0
M  V30 6868 C 665.236 1.20617 -1.53221 0
M  V30 6869 O 664.506 1.80898 -0.751856 0
M  V30 6870 H 663.086 -0.0672189 -0.743969 0
M  V30 6871 H 665.748 -0.865442 -1.74631 0
M  V30 6872 H 664.844 -0.187481 -3.11536 0
M  V30 6873 N 665.145 1.52092 -0.413018 0
M  V30 6874 C 666.422 1.94356 0.22024 0
M  V30 6875 C 666.802 1.35017 1.62277 0
M  V30 6876 O 666.15 0.527511 2.22328 0
M  V30 6877 C 666.36 3.48289 0.222638 0
M  V30 6878 C 667.708 4.22313 0.440098 0
M  V30 6879 O 668.732 3.54919 0.301826 0
M  V30 6880 O 667.591 5.41829 0.712984 0
M  V30 6881 H 664.685 0.814536 0.14304 0
M  V30 6882 H 667.231 1.63083 -0.469242 0
M  V30 6883 H 666.003 3.83872 -0.758836 0
M  V30 6884 H 665.626 3.85934 0.956057 0
M  V30 6885 N 666.623 0.143563 1.56945 0
M  V30 6886 C 667.853 -0.514699 2.00086 0
M  V30 6887 C 668.261 -1.59184 1.0226 0
M  V30 6888 O 667.604 -1.83697 0.0110514 0
M  V30 6889 C 667.666 -1.17778 3.39659 0
M  V30 6890 C 667.33 -0.245657 4.56339 0
M  V30 6891 C 668.327 0.525343 5.17239 0
M  V30 6892 C 666.012 -0.149564 5.02077 0
M  V30 6893 C 668.006 1.37992 6.22284 0
M  V30 6894 C 665.693 0.708621 6.06978 0
M  V30 6895 C 666.691 1.47197 6.6695 0
M  V30 6896 O 666.379 2.31586 7.6982 0
M  V30 6897 H 666.111 -0.138789 0.661599 0
M  V30 6898 H 668.665 0.234098 2.04062 0
M  V30 6899 H 666.895 -1.97415 3.32512 0
M  V30 6900 H 668.584 -1.73542 3.6693 0
M  V30 6901 H 669.35 0.461118 4.82803 0
M  V30 6902 H 665.229 -0.733457 4.55128 0
M  V30 6903 H 668.773 1.97621 6.69023 0
M  V30 6904 H 664.67 0.77415 6.40841 0
M  V30 6905 H 665.438 2.24796 7.87025 0
M  V30 6906 N 668.101 -1.57061 -0.130224 0
M  V30 6907 C 669.011 -2.02802 -1.17934 0
M  V30 6908 C 670.027 -0.946378 -1.46013 0
M  V30 6909 O 671.203 -1.25708 -1.57351 0
M  V30 6910 C 668.268 -2.41368 -2.48882 0
M  V30 6911 C 667.329 -3.63561 -2.28301 0
M  V30 6912 C 666.562 -4.00279 -3.53005 0
M  V30 6913 O 666.785 -3.37463 -4.59864 0
M  V30 6914 O 665.719 -4.93441 -3.44673 0
M  V30 6915 H 669.545 -2.92394 -0.820958 0
M  V30 6916 H 667.13 -1.45475 -0.340197 0
M  V30 6917 H 669.012 -2.66958 -3.26054 0
M  V30 6918 H 667.687 -1.54926 -2.84217 0
M  V30 6919 H 666.594 -3.43136 -1.49025 0
M  V30 6920 H 667.927 -4.50673 -1.97875 0
M  V30 6921 N 669.579 0.400081 -1.52437 0
M  V30 6922 C 670.825 1.14788 -1.67187 0
M  V30 6923 C 671.158 1.89928 -0.405074 0
M  V30 6924 O 670.433 1.85118 0.596804 0
M  V30 6925 C 670.716 2.13507 -2.89977 0
M  V30 6926 C 670.569 1.42204 -4.2673 0
M  V30 6927 C 671.888 3.14069 -3.083 0
M  V30 6928 H 669.007 0.415939 -0.608411 0
M  V30 6929 H 671.649 0.432542 -1.85011 0
M  V30 6930 H 669.799 2.7451 -2.74912 0
M  V30 6931 H 671.471 0.842503 -4.53541 0
M  V30 6932 H 669.714 0.723939 -4.27717 0
M  V30 6933 H 670.385 2.14281 -5.08712 0
M  V30 6934 H 672.861 2.63148 -3.22323 0
M  V30 6935 H 671.737 3.80398 -3.95713 0
M  V30 6936 H 671.998 3.82309 -2.22018 0
M  V30 6937 N 671.057 1.43213 0.657864 0
M  V30 6938 C 671.967 1.50448 1.80007 0
M  V30 6939 C 672.983 0.39191 1.69529 0
M  V30 6940 O 674.159 0.645349 1.90781 0
M  V30 6941 C 671.224 1.42062 3.16258 0
M  V30 6942 C 670.285 2.63951 3.38568 0
M  V30 6943 C 669.518 2.55956 4.68318 0
M  V30 6944 O 669.741 1.60473 5.47361 0
M  V30 6945 O 668.675 3.46378 4.92245 0
M  V30 6946 H 672.501 2.4689 1.76858 0
M  V30 6947 H 670.086 1.25163 0.81576 0
M  V30 6948 H 671.968 1.3981 3.97531 0
M  V30 6949 H 670.643 0.487524 3.20008 0
M  V30 6950 H 669.55 2.71776 2.57077 0
M  V30 6951 H 670.883 3.56217 3.39662 0
M  V30 6952 N 672.536 -0.895792 1.29666 0
M  V30 6953 C 673.947 -1.46195 1.1612 0
M  V30 6954 C 674.298 -1.94699 -0.242195 0
M  V30 6955 O 673.423 -1.8406 -1.13802 0
M  V30 6956 C 674.018 -2.65718 2.10189 0
M  V30 6957 C 672.577 -3.18458 2.00653 0
M  V30 6958 C 671.724 -1.91149 2.00891 0
M  V30 6959 H 674.675 -0.706756 1.42094 0
M  V30 6960 H 674.696 -3.4158 1.6764 0
M  V30 6961 H 674.208 -2.30386 3.12321 0
M  V30 6962 H 672.309 -3.58474 1.01623 0
M  V30 6963 H 672.422 -3.82491 2.88509 0
M  V30 6964 H 670.786 -2.09021 1.45542 0
M  V30 6965 H 671.569 -1.58089 3.04734 0
M  V30 6966 N 674.014 -1.12206 -1.10668 0
M  V30 6967 C 675.262 -0.874144 -1.82217 0
M  V30 6968 C 675.583 0.601736 -1.85484 0
M  V30 6969 O 674.853 1.43725 -1.33116 0
M  V30 6970 H 673.433 -0.320404 -0.674797 0
M  V30 6971 H 676.095 -1.41606 -1.33917 0
M  V30 6972 H 675.191 -1.25349 -2.85822 0
M  V30 6973 N 675.492 1.28418 -0.913599 0
M  V30 6974 C 676.722 1.98817 -0.56172 0
M  V30 6975 C 677.13 1.68457 0.861321 0
M  V30 6976 O 676.473 0.933653 1.58204 0
M  V30 6977 C 676.535 3.52801 -0.690785 0
M  V30 6978 C 676.199 4.0675 -2.08334 0
M  V30 6979 C 677.196 4.20597 -3.05604 0
M  V30 6980 C 674.881 4.41445 -2.39648 0
M  V30 6981 C 676.875 4.68392 -4.32305 0
M  V30 6982 C 674.562 4.88934 -3.66588 0
M  V30 6983 C 675.56 5.02364 -4.6273 0
M  V30 6984 O 675.248 5.48817 -5.87414 0
M  V30 6985 H 674.98 0.641608 -0.212874 0
M  V30 6986 H 677.534 1.64584 -1.22887 0
M  V30 6987 H 675.764 3.86686 0.0334336 0
M  V30 6988 H 677.453 4.04422 -0.346031 0
M  V30 6989 H 678.219 3.94067 -2.8273 0
M  V30 6990 H 674.098 4.30242 -1.65567 0
M  V30 6991 H 677.642 4.7879 -5.07352 0
M  V30 6992 H 673.539 5.14904 -3.89287 0
M  V30 6993 H 674.307 5.67103 -5.90201 0
M  V30 6994 N 676.97 0.677563 1.42291 0
M  V30 6995 C 678.218 0.200578 2.01102 0
M  V30 6996 C 678.539 -1.19803 1.53858 0
M  V30 6997 O 677.809 -1.80496 0.761439 0
M  V30 6998 H 676.389 0.0711634 0.743603 0
M  V30 6999 H 679.051 0.874691 1.7417 0
M  V30 7000 H 678.147 0.204 3.11433 0
M  V30 7001 N 678.448 -1.51871 0.421078 0
M  V30 7002 C 679.398 -2.24171 -0.416111 0
M  V30 7003 C 680.382 -1.25763 -1.00362 0
M  V30 7004 O 681.574 -1.5094 -0.924452 0
M  V30 7005 C 678.703 -3.07533 -1.52571 0
M  V30 7006 C 677.789 -4.1336 -0.948399 0
M  V30 7007 N 678.18 -5.05704 -0.0987933 0
M  V30 7008 C 676.478 -4.29055 -1.21768 0
M  V30 7009 C 677.179 -5.8127 0.223705 0
M  V30 7010 N 676.155 -5.4221 -0.388524 0
M  V30 7011 H 679.957 -2.92925 0.239166 0
M  V30 7012 H 677.471 -1.60732 0.232191 0
M  V30 7013 H 679.468 -3.57893 -2.13819 0
M  V30 7014 H 678.128 -2.4032 -2.18349 0
M  V30 7015 H 679.139 -5.17214 0.266428 0
M  V30 7016 H 675.816 -3.73071 -1.87416 0
M  V30 7017 H 677.206 -6.65653 0.914076 0
M  V30 7018 N 679.926 -0.151884 -1.56866 0
M  V30 7019 C 680.836 0.798876 -2.20579 0
M  V30 7020 C 681.852 1.268 -1.19154 0
M  V30 7021 O 683.028 1.32418 -1.51748 0
M  V30 7022 C 680.093 2.01861 -2.81874 0
M  V30 7023 C 679.154 1.59825 -3.9844 0
M  V30 7024 C 678.387 2.75984 -4.56802 0
M  V30 7025 O 678.61 3.92331 -4.14044 0
M  V30 7026 O 677.544 2.51175 -5.46987 0
M  V30 7027 H 681.37 0.2865 -3.02346 0
M  V30 7028 H 678.955 0.0753806 -1.4921 0
M  V30 7029 H 680.837 2.73235 -3.20813 0
M  V30 7030 H 679.512 2.52042 -2.03117 0
M  V30 7031 H 678.419 0.854601 -3.64208 0
M  V30 7032 H 679.752 1.14355 -4.78731 0
M  V30 7033 N 681.404 1.57128 0.121893 0
M  V30 7034 C 682.82 1.52357 0.47534 0
M  V30 7035 C 683.02 0.864417 1.82017 0
M  V30 7036 O 682.076 0.445529 2.48538 0
M  V30 7037 C 683.389 2.97122 0.4625 0
M  V30 7038 C 684.937 3.08196 0.546255 0
M  V30 7039 C 685.412 4.54516 0.563833 0
M  V30 7040 N 686.903 4.58959 0.625353 0
M  V30 7041 C 687.638 5.69585 0.660354 0
M  V30 7042 N 687.134 6.89714 0.653175 0
M  V30 7043 N 688.927 5.57685 0.703143 0
M  V30 7044 H 681.078 1.98364 -0.75931 0
M  V30 7045 H 683.341 0.905777 -0.279772 0
M  V30 7046 H 683.047 3.48706 -0.457943 0
M  V30 7047 H 682.921 3.54406 1.29136 0
M  V30 7048 H 685.308 2.56617 1.45712 0
M  V30 7049 H 685.389 2.53912 -0.310234 0
M  V30 7050 H 685.033 5.06741 -0.342974 0
M  V30 7051 H 684.963 5.06609 1.43716 0
M  V30 7052 H 687.454 3.72489 0.637182 0
M  V30 7053 H 687.767 7.69781 0.682425 0
M  V30 7054 H 686.112 6.92223 0.620646 0
M  V30 7055 H 689.303 4.62744 0.706095 0
M  V30 7056 H 689.476 6.43909 0.726952 0
M  V30 7057 N 682.882 -0.391992 1.52647 0
M  V30 7058 C 683.83 -1.4991 1.77848 0
M  V30 7059 C 684.824 -1.56587 0.646282 0
M  V30 7060 O 686.03 -1.59789 0.828698 0
M  V30 7061 H 682.405 -0.498883 0.56269 0
M  V30 7062 H 684.376 -1.25847 2.70564 0
M  V30 7063 C 683.125 -2.87081 1.96163 0
M  V30 7064 H 682.448 -2.82692 2.82711 0
M  V30 7065 H 683.888 -3.63792 2.17787 0
M  V30 7066 C 682.347 -3.28822 0.733348 0
M  V30 7067 O 682.877 -4.01598 -0.0906481 0
M  V30 7068 N 681.083 -2.85068 0.564317 0
M  V30 7069 H 680.63 -2.26012 1.23598 0
M  V30 7070 H 680.588 -3.13355 -0.256166 0
M  V30 7071 N 684.36 -1.4356 -0.65026 0
M  V30 7072 C 685.585 -1.48995 -1.44275 0
M  V30 7073 C 686.01 -0.109954 -1.87778 0
M  V30 7074 O 685.368 0.896926 -1.57559 0
M  V30 7075 C 685.416 -2.44341 -2.65198 0
M  V30 7076 O 684.52 -1.93172 -3.6436 0
M  V30 7077 H 683.861 -0.503852 -0.432469 0
M  V30 7078 H 686.391 -1.88504 -0.795446 0
M  V30 7079 H 686.401 -2.61743 -3.12977 0
M  V30 7080 H 685.076 -3.44588 -2.32877 0
M  V30 7081 H 683.653 -1.85445 -3.23519 0
M  V30 7082 N 685.838 0.888903 -1.30139 0
M  V30 7083 C 687.085 1.64037 -1.18736 0
M  V30 7084 C 687.413 1.92771 0.258801 0
M  V30 7085 O 686.668 1.54427 1.20212 0
M  V30 7086 C 686.967 2.99041 -1.95728 0
M  V30 7087 C 686.633 2.89874 -3.45375 0
M  V30 7088 C 685.295 2.87082 -3.86183 0
M  V30 7089 C 687.647 2.78289 -4.40687 0
M  V30 7090 C 684.975 2.70536 -5.20603 0
M  V30 7091 C 687.327 2.63282 -5.75209 0
M  V30 7092 C 685.991 2.58861 -6.15262 0
M  V30 7093 H 685.261 0.600253 -0.434485 0
M  V30 7094 H 687.908 1.0338 -1.61198 0
M  V30 7095 H 686.213 3.63626 -1.45888 0
M  V30 7096 H 687.91 3.56139 -1.843 0
M  V30 7097 H 684.5 2.92856 -3.12943 0
M  V30 7098 H 688.684 2.79516 -4.10103 0
M  V30 7099 H 683.94 2.65526 -5.50732 0
M  V30 7100 H 688.114 2.5329 -6.48704 0
M  V30 7101 H 685.741 2.45799 -7.19366 0
M  V30 7102 N 687.317 1.12792 1.10072 0
M  V30 7103 C 688.247 0.821688 2.18565 0
M  V30 7104 C 689.228 -0.21612 1.68721 0
M  V30 7105 O 690.413 -0.0764932 1.94049 0
M  V30 7106 C 687.543 0.279624 3.46172 0
M  V30 7107 C 686.497 1.25092 4.09312 0
M  V30 7108 C 685.823 0.568916 5.31665 0
M  V30 7109 C 687.123 2.60699 4.52585 0
M  V30 7110 H 688.817 1.72888 2.44438 0
M  V30 7111 H 686.363 0.832702 1.17482 0
M  V30 7112 H 688.316 0.053099 4.21367 0
M  V30 7113 H 687.04 -0.662929 3.19801 0
M  V30 7114 H 685.699 1.46332 3.36129 0
M  V30 7115 H 685.347 -0.378898 5.01571 0
M  V30 7116 H 685.047 1.21687 5.74862 0
M  V30 7117 H 686.571 0.351517 6.09587 0
M  V30 7118 H 687.985 2.43465 5.19035 0
M  V30 7119 H 686.382 3.21608 5.06644 0
M  V30 7120 H 687.452 3.1886 3.65317 0
M  V30 7121 N 688.795 -1.27931 0.920396 0
M  V30 7122 C 689.742 -2.27085 0.412422 0
M  V30 7123 C 690.712 -1.57858 -0.516725 0
M  V30 7124 O 691.897 -1.85717 -0.437475 0
M  V30 7125 C 689.037 -3.43466 -0.335399 0
M  V30 7126 C 688.15 -4.27425 0.627017 0
M  V30 7127 C 687.285 -5.31016 -0.139916 0
M  V30 7128 C 686.324 -6.06641 0.815683 0
M  V30 7129 N 685.461 -7.02052 0.0818439 0
M  V30 7130 H 690.301 -2.69913 1.26298 0
M  V30 7131 H 687.838 -1.32732 0.634076 0
M  V30 7132 H 689.796 -4.09744 -0.785226 0
M  V30 7133 H 688.426 -3.01611 -1.15025 0
M  V30 7134 H 687.478 -3.6113 1.19537 0
M  V30 7135 H 688.79 -4.79969 1.35763 0
M  V30 7136 H 687.944 -6.03208 -0.649998 0
M  V30 7137 H 686.683 -4.79257 -0.903543 0
M  V30 7138 H 685.688 -5.33294 1.33708 0
M  V30 7139 H 686.913 -6.60489 1.57897 0
M  V30 7140 H 684.859 -6.52634 -0.663671 0
M  V30 7141 H 684.776 -7.52249 0.752163 0
M  V30 7142 H 686.044 -7.78432 -0.407825 0
M  V30 7143 N 690.273 -0.685099 -1.4193 0
M  V30 7144 C 691.501 -0.220372 -2.05723 0
M  V30 7145 C 691.916 1.12642 -1.51516 0
M  V30 7146 O 691.273 1.70182 -0.659114 0
M  V30 7147 C 691.324 -0.157974 -3.61155 0
M  V30 7148 O 691.045 -1.45156 -4.13354 0
M  V30 7149 C 692.546 0.329009 -4.42077 0
M  V30 7150 H 689.766 -0.104725 -0.662777 0
M  V30 7151 H 692.31 -0.934736 -1.81887 0
M  V30 7152 H 690.465 0.507144 -3.84066 0
M  V30 7153 H 690.879 -1.33172 -5.07312 0
M  V30 7154 H 692.353 0.321559 -5.51063 0
M  V30 7155 H 692.83 1.36608 -4.17414 0
M  V30 7156 H 693.436 -0.304737 -4.24207 0
M  V30 7157 N 691.751 1.51645 -0.429126 0
M  V30 7158 C 692.701 2.24388 0.404217 0
M  V30 7159 C 693.685 1.26294 0.996933 0
M  V30 7160 O 694.877 1.51428 0.916434 0
M  V30 7161 C 692.006 3.08338 1.50938 0
M  V30 7162 C 691.092 4.13857 0.926464 0
M  V30 7163 N 691.483 5.05749 0.0719732 0
M  V30 7164 C 689.781 4.29695 1.19491 0
M  V30 7165 C 690.482 5.81143 -0.254528 0
M  V30 7166 N 689.458 5.42408 0.359763 0
M  V30 7167 H 693.26 2.92794 -0.254697 0
M  V30 7168 H 690.774 1.60606 -0.240712 0
M  V30 7169 H 692.771 3.59022 2.11918 0
M  V30 7170 H 691.431 2.41475 2.17072 0
M  V30 7171 H 692.442 5.17066 -0.293854 0
M  V30 7172 H 689.119 3.74059 1.85434 0
M  V30 7173 H 690.509 6.65159 -0.949365 0
M  V30 7174 N 693.229 0.160201 1.56784 0
M  V30 7175 C 694.177 -0.791402 2.18723 0
M  V30 7176 C 695.171 -1.24567 1.14801 0
M  V30 7177 O 696.377 -1.21262 1.33025 0
M  V30 7178 H 692.752 -0.273458 0.700517 0
M  V30 7179 H 694.723 -0.244931 2.97393 0
M  V30 7180 C 693.472 -2.01509 2.83354 0
M  V30 7181 H 692.795 -1.67454 3.63041 0
M  V30 7182 H 694.235 -2.66006 3.30177 0
M  V30 7183 C 692.694 -2.83159 1.82545 0
M  V30 7184 O 693.224 -3.79944 1.30405 0
M  V30 7185 N 691.43 -2.47953 1.51552 0
M  V30 7186 H 690.977 -1.69309 1.94144 0
M  V30 7187 H 690.935 -3.02873 0.843519 0
M  V30 7188 N 694.707 -1.5719 -0.113559 0
M  V30 7189 C 695.956 -1.84325 -0.818984 0
M  V30 7190 C 696.269 -0.746685 -1.80787 0
M  V30 7191 O 697.475 -0.904596 -2.55987 0
M  V30 7192 C 695.931 -3.26818 -1.50724 0
M  V30 7193 C 695.539 -4.44498 -0.559065 0
M  V30 7194 C 697.283 -3.63196 -2.19748 0
M  V30 7195 C 695.19 -5.7802 -1.25086 0
M  V30 7196 H 694.12 -0.687507 -0.309596 0
M  V30 7197 H 696.771 -1.8336 -0.0717621 0
M  V30 7198 H 695.153 -3.22269 -2.30128 0
M  V30 7199 H 696.327 -4.60356 0.202146 0
M  V30 7200 H 694.642 -4.16393 0.024495 0
M  V30 7201 H 697.239 -4.60226 -2.72206 0
M  V30 7202 H 697.582 -2.90899 -2.97798 0
M  V30 7203 H 698.115 -3.69553 -1.47226 0
M  V30 7204 H 694.854 -6.53501 -0.511539 0
M  V30 7205 H 694.374 -5.66038 -1.98395 0
M  V30 7206 H 696.053 -6.2196 -1.78253 0
M  V30 7207 N 696.185 0.383891 -1.52853 0
M  V30 7208 C 697.095 1.49343 -1.80925 0
M  V30 7209 C 698.111 1.59458 -0.696348 0
M  V30 7210 O 699.287 1.75698 -0.984481 0
M  V30 7211 C 696.352 2.84819 -1.97684 0
M  V30 7212 C 695.413 2.84382 -3.21598 0
M  V30 7213 C 694.646 4.13397 -3.37548 0
M  V30 7214 O 694.869 5.08619 -2.58192 0
M  V30 7215 O 693.803 4.20325 -4.30826 0
M  V30 7216 H 697.629 1.2855 -2.75152 0
M  V30 7217 H 695.214 0.572229 -1.38007 0
M  V30 7218 H 697.096 3.65125 -2.10385 0
M  V30 7219 H 695.771 3.05627 -1.06647 0
M  V30 7220 H 694.678 2.0284 -3.14336 0
M  V30 7221 H 696.011 2.68526 -4.12498 0
M  V30 7222 N 697.663 1.43903 0.642637 0
M  V30 7223 C 698.891 1.4954 1.42988 0
M  V30 7224 C 699.306 0.116588 1.8844 0
M  V30 7225 O 698.663 -0.875285 1.60141 0
M  V30 7226 C 698.714 2.45031 2.65785 0
M  V30 7227 O 698.435 3.77551 2.22232 0
M  V30 7228 C 699.936 2.60017 3.59035 0
M  V30 7229 H 697.156 0.507544 0.438907 0
M  V30 7230 H 699.7 1.88752 0.786942 0
M  V30 7231 H 697.855 2.08985 3.26196 0
M  V30 7232 H 698.269 4.29001 3.01759 0
M  V30 7233 H 699.743 3.30887 4.41835 0
M  V30 7234 H 700.22 1.64861 4.07084 0
M  V30 7235 H 700.826 2.96918 3.045 0
M  V30 7236 N 699.141 -0.881989 1.30609 0
M  V30 7237 C 700.388 -1.63405 1.19604 0
M  V30 7238 C 700.716 -1.92905 -0.248574 0
M  V30 7239 O 699.971 -1.55062 -1.19391 0
M  V30 7240 C 700.27 -2.97999 1.97311 0
M  V30 7241 C 699.936 -2.88039 3.46907 0
M  V30 7242 C 698.598 -2.85029 3.877 0
M  V30 7243 C 700.95 -2.75948 4.42156 0
M  V30 7244 C 698.278 -2.67772 5.2203 0
M  V30 7245 C 700.63 -2.60228 5.76597 0
M  V30 7246 C 699.294 -2.55595 6.16626 0
M  V30 7247 H 698.564 -0.597941 0.437662 0
M  V30 7248 H 701.211 -1.02524 1.61744 0
M  V30 7249 H 699.516 -3.62847 1.47815 0
M  V30 7250 H 701.213 -3.55156 1.86186 0
M  V30 7251 H 697.803 -2.91192 3.14492 0
M  V30 7252 H 701.987 -2.77337 4.1158 0
M  V30 7253 H 697.243 -2.62601 5.52133 0
M  V30 7254 H 701.417 -2.49847 6.50038 0
M  V30 7255 H 699.044 -2.41981 7.20659 0
M  V30 7256 N 700.619 -1.13374 -1.09472 0
M  V30 7257 C 701.866 -0.89519 -1.81639 0
M  V30 7258 C 702.194 0.57868 -1.85692 0
M  V30 7259 O 701.449 1.44426 -1.32059 0
M  V30 7260 C 701.748 -1.42759 -3.2765 0
M  V30 7261 C 701.414 -2.91822 -3.43731 0
M  V30 7262 C 700.076 -3.32521 -3.47827 0
M  V30 7263 C 702.428 -3.87727 -3.48307 0
M  V30 7264 C 699.756 -4.6781 -3.54078 0
M  V30 7265 C 702.108 -5.22859 -3.56091 0
M  V30 7266 C 700.772 -5.63086 -3.58456 0
M  V30 7267 H 700.042 -0.327573 -0.664663 0
M  V30 7268 H 702.689 -1.4156 -1.28969 0
M  V30 7269 H 700.994 -0.827871 -3.82954 0
M  V30 7270 H 702.691 -1.2191 -3.8202 0
M  V30 7271 H 699.281 -2.5935 -3.41226 0
M  V30 7272 H 703.465 -3.57371 -3.44383 0
M  V30 7273 H 698.721 -4.98353 -3.54195 0
M  V30 7274 H 702.895 -5.96989 -3.58577 0
M  V30 7275 H 700.522 -6.67905 -3.63052 0
M  V30 7276 N 702.098 1.27442 -0.927168 0
M  V30 7277 C 703.347 1.93679 -0.563146 0
M  V30 7278 C 703.66 1.73673 0.899837 0
M  V30 7279 O 704.866 2.34247 1.37262 0
M  V30 7280 C 703.322 3.46961 -0.95636 0
M  V30 7281 C 702.93 3.75724 -2.43999 0
M  V30 7282 C 704.674 4.19282 -0.663565 0
M  V30 7283 C 702.581 5.22378 -2.77263 0
M  V30 7284 H 701.511 0.725059 -0.206894 0
M  V30 7285 H 704.162 1.44743 -1.12791 0
M  V30 7286 H 702.544 3.94703 -0.320254 0
M  V30 7287 H 703.718 3.38741 -3.12396 0
M  V30 7288 H 702.033 3.16605 -2.70463 0
M  V30 7289 H 704.63 5.27265 -0.888596 0
M  V30 7290 H 704.973 4.14382 0.399198 0
M  V30 7291 H 705.506 3.7736 -1.25875 0
M  V30 7292 H 702.245 5.32367 -3.82446 0
M  V30 7293 H 701.765 5.6051 -2.13516 0
M  V30 7294 H 703.444 5.9025 -2.64979 0
M  V30 7295 N 703.576 0.692616 1.41565 0
M  V30 7296 C 704.822 0.222664 2.01574 0
M  V30 7297 C 705.155 -1.1737 1.54719 0
M  V30 7298 O 704.43 -1.79161 0.757084 0
M  V30 7299 C 704.713 0.277064 3.59033 0
M  V30 7300 C 704.566 1.71016 4.16021 0
M  V30 7301 C 705.885 -0.36479 4.38586 0
M  V30 7302 H 703.004 0.0823839 0.732381 0
M  V30 7303 H 705.646 0.880778 1.68352 0
M  V30 7304 H 703.796 -0.283288 3.87466 0
M  V30 7305 H 705.468 2.32413 3.98475 0
M  V30 7306 H 703.711 2.24525 3.71175 0
M  V30 7307 H 704.382 1.69978 5.25178 0
M  V30 7308 H 706.858 0.112404 4.15948 0
M  V30 7309 H 705.734 -0.296169 5.481 0
M  V30 7310 H 705.995 -1.44506 4.17816 0
M  V30 7311 N 705.054 -1.51416 0.437162 0
M  V30 7312 C 706.465 -1.86682 -0.0260005 0
M  V30 7313 C 706.816 -1.35432 -1.4196 0
M  V30 7314 O 705.941 -0.705055 -2.04592 0
M  V30 7315 C 706.536 -3.38757 -0.0539577 0
M  V30 7316 C 705.095 -3.7356 -0.461532 0
M  V30 7317 C 704.242 -2.75134 0.345924 0
M  V30 7318 H 707.193 -1.44642 0.653013 0
M  V30 7319 H 707.214 -3.70573 -0.863478 0
M  V30 7320 H 706.726 -3.76028 0.96045 0
M  V30 7321 H 704.827 -3.41878 -1.48155 0
M  V30 7322 H 704.94 -4.78737 -0.186451 0
M  V30 7323 H 703.304 -2.53947 -0.195739 0
M  V30 7324 H 704.087 -3.15247 1.35921 0
M  V30 7325 N 706.532 -0.168513 -1.56696 0
M  V30 7326 C 707.757 0.486688 -2.01609 0
M  V30 7327 C 708.182 1.56203 -1.04796 0
M  V30 7328 O 707.54 1.8128 -0.0270596 0
M  V30 7329 C 707.588 1.04451 -3.45141 0
M  V30 7330 O 706.692 2.15862 -3.51393 0
M  V30 7331 H 706.033 0.116831 -0.653641 0
M  V30 7332 H 708.563 -0.271579 -2.0279 0
M  V30 7333 H 708.573 1.36782 -3.84389 0
M  V30 7334 H 707.248 0.257155 -4.15104 0
M  V30 7335 H 705.825 1.84597 -3.24004 0
M  V30 7336 N 708.01 1.57248 0.105221 0
M  V30 7337 C 708.96 1.9777 1.1345 0
M  V30 7338 C 709.944 0.854654 1.36325 0
M  V30 7339 O 711.136 1.11844 1.37186 0
M  V30 7340 C 708.265 2.39717 2.45745 0
M  V30 7341 C 707.351 3.58686 2.26286 0
M  V30 7342 N 707.742 4.73942 1.76671 0
M  V30 7343 C 706.04 3.64586 2.56891 0
M  V30 7344 C 706.741 5.55923 1.71245 0
M  V30 7345 N 705.717 4.98803 2.16093 0
M  V30 7346 H 709.519 2.84336 0.743664 0
M  V30 7347 H 707.033 1.59359 0.312787 0
M  V30 7348 H 709.03 2.66971 3.20206 0
M  V30 7349 H 707.69 1.54523 2.85574 0
M  V30 7350 H 708.701 4.9689 1.46016 0
M  V30 7351 H 705.378 2.90031 3.00314 0
M  V30 7352 H 706.768 6.58398 1.34022 0
M  V30 7353 N 709.488 -0.375779 1.53054 0
M  V30 7354 C 710.904 -0.716764 1.426 0
M  V30 7355 C 711.104 -1.93651 0.556931 0
M  V30 7356 O 710.16 -2.52475 0.0354461 0
M  V30 7357 C 711.473 -0.939499 2.85646 0
M  V30 7358 C 713.021 -1.04015 2.95212 0
M  V30 7359 C 713.496 -1.29543 4.39298 0
M  V30 7360 N 714.987 -1.36335 4.42682 0
M  V30 7361 C 715.722 -1.57778 5.51266 0
M  V30 7362 N 715.218 -1.76604 6.69913 0
M  V30 7363 N 717.011 -1.60065 5.38828 0
M  V30 7364 H 709.162 0.42664 2.08071 0
M  V30 7365 H 711.425 0.128758 0.939215 0
M  V30 7366 H 711.131 -0.115189 3.51511 0
M  V30 7367 H 711.005 -1.85048 3.2869 0
M  V30 7368 H 713.392 -1.85501 2.29507 0
M  V30 7369 H 713.473 -0.106785 2.55577 0
M  V30 7370 H 713.117 -0.485611 5.05573 0
M  V30 7371 H 713.047 -2.24184 4.76497 0
M  V30 7372 H 715.538 -1.23441 3.5717 0
M  V30 7373 H 715.851 -1.9251 7.48438 0
M  V30 7374 H 714.196 -1.73802 6.72917 0
M  V30 7375 H 717.387 -1.44917 4.45103 0
M  V30 7376 H 717.56 -1.76435 6.23518 0
M  V30 7377 N 710.966 -1.44241 -0.634997 0
M  V30 7378 C 712.382 -1.28043 -0.952742 0
M  V30 7379 C 712.582 -0.21338 -2.00367 0
M  V30 7380 O 711.638 0.402042 -2.49279 0
M  V30 7381 C 712.951 -2.65076 -1.41968 0
M  V30 7382 C 714.499 -2.72755 -1.53537 0
M  V30 7383 C 714.974 -4.10249 -2.03616 0
M  V30 7384 N 716.465 -4.12406 -2.10892 0
M  V30 7385 C 717.2 -5.15641 -2.50803 0
M  V30 7386 N 716.696 -6.29239 -2.89879 0
M  V30 7387 N 718.489 -5.02995 -2.50903 0
M  V30 7388 H 710.64 -2.12315 0.060098 0
M  V30 7389 H 712.903 -0.947326 -0.0357325 0
M  V30 7390 H 712.609 -3.44213 -0.721804 0
M  V30 7391 H 712.483 -2.91704 -2.39141 0
M  V30 7392 H 714.87 -1.93939 -2.22422 0
M  V30 7393 H 714.951 -2.49872 -0.547496 0
M  V30 7394 H 714.595 -4.8954 -1.35327 0
M  V30 7395 H 714.525 -4.30507 -3.03268 0
M  V30 7396 H 717.016 -3.30417 -1.83393 0
M  V30 7397 H 717.329 -7.03827 -3.19135 0
M  V30 7398 H 715.674 -6.32683 -2.8764 0
M  V30 7399 H 718.865 -4.13306 -2.19763 0
M  V30 7400 H 719.038 -5.83574 -2.81683 0
M  V30 7401 N 712.444 0.87505 -1.31075 0
M  V30 7402 C 713.391 1.98178 -1.18296 0
M  V30 7403 C 714.361 1.65952 -0.0699923 0
M  V30 7404 O 715.546 1.8926 -0.241951 0
M  V30 7405 C 712.686 3.33399 -0.891024 0
M  V30 7406 C 711.799 3.78253 -2.08684 0
M  V30 7407 C 710.934 5.02166 -1.73212 0
M  V30 7408 C 709.973 5.39455 -2.89231 0
M  V30 7409 N 709.11 6.54549 -2.53989 0
M  V30 7410 H 713.95 2.0844 -2.12971 0
M  V30 7411 H 711.487 1.02047 -1.05948 0
M  V30 7412 H 713.445 4.11246 -0.702338 0
M  V30 7413 H 712.075 3.22794 0.0188799 0
M  V30 7414 H 711.127 2.9623 -2.38646 0
M  V30 7415 H 712.439 4.01821 -2.95536 0
M  V30 7416 H 711.593 5.87666 -1.50777 0
M  V30 7417 H 710.332 4.80491 -0.83544 0
M  V30 7418 H 709.337 4.52477 -3.12321 0
M  V30 7419 H 710.562 5.63098 -3.79601 0
M  V30 7420 H 708.508 6.3443 -1.66838 0
M  V30 7421 H 708.425 6.78035 -3.34372 0
M  V30 7422 H 709.693 7.43254 -2.34934 0
M  V30 7423 N 713.922 1.13953 1.08869 0
M  V30 7424 C 715.171 0.899431 1.80536 0
M  V30 7425 C 715.484 -0.575781 1.86933 0
M  V30 7426 O 716.69 -0.932988 2.54966 0
M  V30 7427 C 715.146 1.55963 3.24351 0
M  V30 7428 C 714.754 3.07077 3.26202 0
M  V30 7429 C 716.498 1.40046 4.00733 0
M  V30 7430 C 714.405 3.65955 4.64576 0
M  V30 7431 H 713.335 0.332849 0.676556 0
M  V30 7432 H 715.986 1.3679 1.22314 0
M  V30 7433 H 714.368 1.01883 3.82669 0
M  V30 7434 H 715.542 3.67785 2.77617 0
M  V30 7435 H 713.857 3.22576 2.63312 0
M  V30 7436 H 716.454 1.81441 5.02974 0
M  V30 7437 H 716.797 0.345993 4.1486 0
M  V30 7438 H 717.33 1.91137 3.48872 0
M  V30 7439 H 714.069 4.71234 4.55652 0
M  V30 7440 H 713.589 3.10027 5.13462 0
M  V30 7441 H 715.268 3.65968 5.33551 0
M  V30 7442 N 715.4 -1.26948 0.933913 0
M  V30 7443 C 716.647 -1.94087 0.577625 0
M  V30 7444 C 716.975 -1.73345 -0.88214 0
M  V30 7445 O 716.23 -1.05945 -1.64542 0
M  V30 7446 C 716.529 -3.46963 0.857406 0
M  V30 7447 C 716.195 -3.87834 2.2999 0
M  V30 7448 C 714.857 -3.98704 2.69423 0
M  V30 7449 C 717.209 -4.08442 3.23766 0
M  V30 7450 C 714.537 -4.27573 4.01744 0
M  V30 7451 C 716.889 -4.38798 4.55675 0
M  V30 7452 C 715.553 -4.47881 4.94934 0
M  V30 7453 H 714.823 -0.710215 0.211368 0
M  V30 7454 H 717.47 -1.50899 1.17905 0
M  V30 7455 H 715.775 -3.91416 0.173369 0
M  V30 7456 H 717.472 -3.97062 0.560615 0
M  V30 7457 H 714.062 -3.79916 1.98399 0
M  V30 7458 H 718.246 -3.99479 2.94499 0
M  V30 7459 H 713.502 -4.32815 4.31834 0
M  V30 7460 H 717.676 -4.5369 5.28335 0
M  V30 7461 H 715.303 -4.70005 5.97495 0
M  V30 7462 N 716.879 -0.700114 -1.41195 0
M  V30 7463 C 718.29 -0.307249 -1.84154 0
M  V30 7464 C 718.641 1.15539 -1.58572 0
M  V30 7465 O 717.766 1.88744 -1.05852 0
M  V30 7466 C 718.361 -0.550872 -3.34292 0
M  V30 7467 C 716.92 -0.211877 -3.75803 0
M  V30 7468 C 716.067 -0.830915 -2.64558 0
M  V30 7469 H 719.018 -0.900431 -1.30683 0
M  V30 7470 H 719.039 0.188954 -3.80031 0
M  V30 7471 H 718.551 -1.61548 -3.5288 0
M  V30 7472 H 716.652 0.848283 -3.62815 0
M  V30 7473 H 716.765 -0.67007 -4.74391 0
M  V30 7474 H 715.129 -0.260155 -2.53368 0
M  V30 7475 H 715.912 -1.89948 -2.85963 0
M  V30 7476 N 718.357 1.51182 -0.445186 0
M  V30 7477 C 719.605 2.01753 0.11841 0
M  V30 7478 C 719.926 1.33087 1.42523 0
M  V30 7479 O 719.196 0.467891 1.9023 0
M  V30 7480 H 717.776 0.745536 0.0467492 0
M  V30 7481 H 720.438 1.85765 -0.589688 0
M  V30 7482 H 719.534 3.10762 0.288665 0
M  V30 7483 N 719.835 0.176821 1.56605 0
M  V30 7484 C 720.765 -0.746841 2.21234 0
M  V30 7485 C 721.746 -1.23502 1.16967 0
M  V30 7486 O 722.931 -1.28718 1.45414 0
M  V30 7487 C 720.061 -1.97407 2.8574 0
M  V30 7488 C 719.015 -1.62153 3.96094 0
M  V30 7489 C 718.341 -2.92387 4.47676 0
M  V30 7490 C 719.641 -0.845353 5.15413 0
M  V30 7491 H 721.335 -0.208116 2.98676 0
M  V30 7492 H 718.881 -0.0986594 1.43662 0
M  V30 7493 H 720.834 -2.62531 3.2963 0
M  V30 7494 H 719.558 -2.53703 2.05676 0
M  V30 7495 H 718.217 -0.993964 3.52868 0
M  V30 7496 H 717.865 -3.46734 3.64396 0
M  V30 7497 H 717.565 -2.69551 5.22127 0
M  V30 7498 H 719.089 -3.5853 4.94255 0
M  V30 7499 H 720.503 -1.39929 5.55961 0
M  V30 7500 H 718.9 -0.715814 5.95815 0
M  V30 7501 H 719.97 0.157239 4.84645 0
M  V30 7502 N 721.313 -1.57302 -0.09688 0
M  V30 7503 C 722.562 -1.85183 -0.799388 0
M  V30 7504 C 722.875 -0.765818 -1.79985 0
M  V30 7505 O 724.081 -0.931696 -2.55013 0
M  V30 7506 C 722.537 -3.28399 -1.47249 0
M  V30 7507 C 722.145 -4.45066 -0.511888 0
M  V30 7508 C 723.889 -3.65506 -2.15883 0
M  V30 7509 C 721.796 -5.79315 -1.18948 0
M  V30 7510 H 720.726 -0.690752 -0.302287 0
M  V30 7511 H 723.377 -1.83425 -0.0523104 0
M  V30 7512 H 721.759 -3.24692 -2.26697 0
M  V30 7513 H 722.933 -4.60116 0.250962 0
M  V30 7514 H 721.248 -4.16343 0.0686576 0
M  V30 7515 H 723.845 -4.63087 -2.67309 0
M  V30 7516 H 724.188 -2.94041 -2.94696 0
M  V30 7517 H 724.721 -3.71094 -1.43298 0
M  V30 7518 H 721.46 -6.54007 -0.442198 0
M  V30 7519 H 720.98 -5.68111 -1.9238 0
M  V30 7520 H 722.659 -6.23816 -1.71646 0
M  V30 7521 N 722.791 0.367657 -1.53252 0
M  V30 7522 C 723.721 1.45632 -1.8252 0
M  V30 7523 C 724.702 1.55979 -0.678568 0
M  V30 7524 O 725.887 1.70581 -0.928217 0
M  V30 7525 C 723.017 2.82994 -2.01325 0
M  V30 7526 C 721.971 2.87473 -3.17086 0
M  V30 7527 C 721.297 4.2749 -3.21179 0
M  V30 7528 C 722.597 2.55182 -4.55719 0
M  V30 7529 H 724.291 1.21387 -2.73689 0
M  V30 7530 H 721.837 0.58251 -1.31692 0
M  V30 7531 H 723.79 3.59179 -2.20383 0
M  V30 7532 H 722.514 3.08622 -1.06864 0
M  V30 7533 H 721.173 2.13739 -2.97844 0
M  V30 7534 H 720.821 4.5019 -2.24361 0
M  V30 7535 H 720.521 4.31403 -3.98955 0
M  V30 7536 H 722.045 5.0555 -3.42419 0
M  V30 7537 H 723.459 3.21081 -4.74953 0
M  V30 7538 H 721.856 2.70414 -5.3572 0
M  V30 7539 H 722.926 1.5044 -4.60973 0
M  V30 7540 N 724.269 1.44576 0.627338 0
M  V30 7541 C 725.494 1.51271 1.41887 0
M  V30 7542 C 725.919 0.139814 1.8758 0
M  V30 7543 O 725.277 -0.871746 1.58966 0
M  V30 7544 C 725.325 2.48529 2.61277 0
M  V30 7545 O 724.429 1.98944 3.61241 0
M  V30 7546 H 723.77 0.510668 0.424399 0
M  V30 7547 H 726.3 1.89746 0.765356 0
M  V30 7548 H 726.31 2.66689 3.08773 0
M  V30 7549 H 724.985 3.48249 2.27366 0
M  V30 7550 H 723.562 1.90568 3.20528 0
M  V30 7551 N 725.747 -0.868086 1.31537 0
M  V30 7552 C 727.024 -1.60384 1.11965 0
M  V30 7553 C 727.404 -2.08584 -0.324949 0
M  V30 7554 O 726.752 -1.86561 -1.31937 0
M  V30 7555 C 726.962 -2.76038 2.13551 0
M  V30 7556 C 728.31 -3.45954 2.46173 0
M  V30 7557 O 729.334 -2.86247 2.11993 0
M  V30 7558 O 728.193 -4.53666 3.04711 0
M  V30 7559 H 725.287 -0.705705 0.431172 0
M  V30 7560 H 727.833 -0.913385 1.43022 0
M  V30 7561 H 726.605 -2.37849 3.10714 0
M  V30 7562 H 726.228 -3.52769 1.83411 0
M  V30 7563 N 727.225 -1.14528 -1.08264 0
M  V30 7564 C 728.474 -0.908992 -1.80056 0
M  V30 7565 C 728.787 0.565859 -1.87236 0
M  V30 7566 O 729.993 0.919454 -2.55457 0
M  V30 7567 C 728.449 -1.57681 -3.23519 0
M  V30 7568 C 728.057 -3.08803 -3.24569 0
M  V30 7569 C 729.801 -1.4217 -3.99985 0
M  V30 7570 C 727.708 -3.68414 -4.62629 0
M  V30 7571 H 726.638 -0.336432 -0.674781 0
M  V30 7572 H 729.289 -1.37437 -1.21587 0
M  V30 7573 H 727.671 -1.03911 -3.82124 0
M  V30 7574 H 728.845 -3.69252 -2.75663 0
M  V30 7575 H 727.16 -3.23968 -2.61598 0
M  V30 7576 H 729.757 -1.84106 -5.02005 0
M  V30 7577 H 730.1 -0.367989 -4.1467 0
M  V30 7578 H 730.633 -1.92984 -3.47853 0
M  V30 7579 H 727.372 -4.73644 -4.53147 0
M  V30 7580 H 726.892 -3.12746 -5.11811 0
M  V30 7581 H 728.571 -3.68793 -5.31602 0
M  V30 7582 N 728.703 1.26451 -0.940633 0
M  V30 7583 C 729.65 2.264 -0.448497 0
M  V30 7584 C 730.62 1.5866 0.491546 0
M  V30 7585 O 731.805 1.86389 0.407874 0
M  V30 7586 C 728.945 3.43956 0.280715 0
M  V30 7587 C 728.058 4.26374 -0.694937 0
M  V30 7588 C 727.193 5.31171 0.0554186 0
M  V30 7589 C 726.232 6.05266 -0.912091 0
M  V30 7590 N 725.369 7.01833 -0.193524 0
M  V30 7591 H 730.209 2.67869 -1.30576 0
M  V30 7592 H 727.746 1.31707 -0.655112 0
M  V30 7593 H 729.704 4.10941 0.71994 0
M  V30 7594 H 728.334 3.03403 1.10212 0
M  V30 7595 H 727.386 3.59183 -1.25267 0
M  V30 7596 H 728.698 4.77748 -1.43382 0
M  V30 7597 H 727.852 6.04166 0.553951 0
M  V30 7598 H 726.591 4.80634 0.827183 0
M  V30 7599 H 725.596 5.31099 -1.42175 0
M  V30 7600 H 726.821 6.57893 -1.68385 0
M  V30 7601 H 724.767 6.53607 0.559758 0
M  V30 7602 H 724.684 7.50957 -0.871744 0
M  V30 7603 H 725.952 7.78983 0.283932 0
M  V30 7604 N 730.181 0.707592 1.40822 0
M  V30 7605 C 731.592 0.317011 1.83989 0
M  V30 7606 C 731.943 -1.14697 1.59182 0
M  V30 7607 O 731.068 -1.8818 1.06852 0
M  V30 7608 C 731.663 0.568593 3.33995 0
M  V30 7609 C 730.222 0.231804 3.75686 0
M  V30 7610 C 729.369 0.844933 2.64114 0
M  V30 7611 H 732.32 0.907349 1.30203 0
M  V30 7612 H 732.341 -0.168798 3.80125 0
M  V30 7613 H 731.853 1.63417 3.52018 0
M  V30 7614 H 729.954 -0.82903 3.6326 0
M  V30 7615 H 730.067 0.695219 4.74029 0
M  V30 7616 H 728.431 0.273588 2.53226 0
M  V30 7617 H 729.214 1.91462 2.84951 0
M  V30 7618 N 731.66 -1.50943 0.453197 0
M  V30 7619 C 732.623 -2.26684 -0.338705 0
M  V30 7620 C 733.623 -1.30748 -0.936032 0
M  V30 7621 O 734.813 -1.54327 -0.808002 0
M  V30 7622 C 731.945 -3.07063 -1.48071 0
M  V30 7623 H 733.138 -2.98131 0.325289 0
M  V30 7624 H 730.691 -1.54926 0.206771 0
M  V30 7625 H 731.426 -2.4007 -2.18029 0
M  V30 7626 H 731.211 -3.77545 -1.0584 0
M  V30 7627 H 732.701 -3.64393 -2.0398 0
M  V30 7628 N 733.138 -0.185124 -1.56509 0
M  V30 7629 C 734.085 0.739729 -2.18624 0
M  V30 7630 C 735.055 1.217 -1.13042 0
M  V30 7631 O 736.24 1.28268 -1.41251 0
M  V30 7632 C 733.38 1.95787 -2.84186 0
M  V30 7633 C 732.493 1.52289 -4.04267 0
M  V30 7634 C 731.628 2.69576 -4.57714 0
M  V30 7635 C 730.667 2.22636 -5.70175 0
M  V30 7636 N 729.804 3.33065 -6.18071 0
M  V30 7637 H 734.644 0.203269 -2.97306 0
M  V30 7638 H 732.181 0.0885946 -1.46833 0
M  V30 7639 H 734.139 2.67253 -3.20361 0
M  V30 7640 H 732.769 2.4678 -2.08085 0
M  V30 7641 H 731.821 0.704458 -3.7382 0
M  V30 7642 H 733.133 1.13843 -4.85635 0
M  V30 7643 H 732.287 3.4918 -4.96143 0
M  V30 7644 H 731.026 3.1129 -3.75433 0
M  V30 7645 H 730.031 1.41483 -5.31284 0
M  V30 7646 H 731.256 1.81964 -6.54267 0
M  V30 7647 H 729.202 3.74328 -5.38715 0
M  V30 7648 H 729.119 2.98756 -6.94464 0
M  V30 7649 H 730.387 4.12912 -6.61153 0
M  V30 7650 N 734.616 1.57351 0.0885366 0
M  V30 7651 C 736.032 1.53331 0.442916 0
M  V30 7652 C 736.232 0.902831 1.80142 0
M  V30 7653 O 735.288 0.498147 2.47537 0
M  V30 7654 C 736.601 2.98036 0.399372 0
M  V30 7655 C 738.149 3.09286 0.480759 0
M  V30 7656 C 738.624 4.5561 0.467296 0
M  V30 7657 N 740.115 4.60182 0.52786 0
M  V30 7658 C 740.85 5.70857 0.539388 0
M  V30 7659 N 740.346 6.90944 0.506729 0
M  V30 7660 N 742.139 5.59051 0.584691 0
M  V30 7661 H 734.29 1.96709 -0.801215 0
M  V30 7662 H 736.553 0.899639 -0.298922 0
M  V30 7663 H 736.259 3.47656 -0.531806 0
M  V30 7664 H 736.133 3.57066 1.21589 0
M  V30 7665 H 738.52 2.5965 1.40236 0
M  V30 7666 H 738.601 2.53197 -0.364023 0
M  V30 7667 H 738.245 5.05899 -0.450384 0
M  V30 7668 H 738.175 5.09544 1.32938 0
M  V30 7669 H 740.666 3.73757 0.558028 0
M  V30 7670 H 740.979 7.71055 0.518989 0
M  V30 7671 H 739.324 6.93384 0.473675 0
M  V30 7672 H 742.515 4.64138 0.607781 0
M  V30 7673 H 742.688 6.45307 0.590206 0
M  V30 7674 N 736.094 -0.359525 1.53444 0
M  V30 7675 C 737.027 -1.46338 1.75101 0
M  V30 7676 C 738.005 -1.51142 0.599559 0
M  V30 7677 O 739.189 -1.69102 0.832862 0
M  V30 7678 C 736.316 -2.84667 1.83527 0
M  V30 7679 C 735.362 -2.9756 3.05549 0
M  V30 7680 S 736.195 -2.65685 4.64943 0
M  V30 7681 C 737.351 -4.06153 4.76225 0
M  V30 7682 H 737.584 -1.27747 2.68455 0
M  V30 7683 H 735.117 -0.554231 1.4411 0
M  V30 7684 H 737.075 -3.64368 1.89067 0
M  V30 7685 H 735.736 -3.00564 0.912147 0
M  V30 7686 H 734.929 -3.98883 3.08072 0
M  V30 7687 H 734.531 -2.25789 2.98153 0
M  V30 7688 H 736.823 -5.00475 4.56652 0
M  V30 7689 H 737.766 -4.08632 5.78295 0
M  V30 7690 H 738.174 -3.93435 4.04808 0
M  V30 7691 N 737.572 -1.44907 -0.619662 0
M  V30 7692 C 738.519 -1.52654 -1.73105 0
M  V30 7693 C 739.489 -0.373334 -1.6185 0
M  V30 7694 O 740.674 -0.585143 -1.81606 0
M  V30 7695 C 737.814 -1.48769 -3.11387 0
M  V30 7696 C 736.927 -2.74551 -3.33535 0
M  V30 7697 C 736.062 -2.62421 -4.61854 0
M  V30 7698 C 735.101 -3.83312 -4.77219 0
M  V30 7699 N 734.238 -3.69789 -5.96826 0
M  V30 7700 H 739.078 -2.47605 -1.65819 0
M  V30 7701 H 736.615 -1.22875 -0.808719 0
M  V30 7702 H 738.573 -1.44507 -3.91374 0
M  V30 7703 H 737.203 -0.573783 -3.1766 0
M  V30 7704 H 736.255 -2.88953 -2.47408 0
M  V30 7705 H 737.567 -3.64253 -3.40765 0
M  V30 7706 H 736.721 -2.56056 -5.50019 0
M  V30 7707 H 735.46 -1.70298 -4.57001 0
M  V30 7708 H 734.465 -3.90049 -3.87481 0
M  V30 7709 H 735.69 -4.76486 -4.83878 0
M  V30 7710 H 733.636 -2.80426 -5.93041 0
M  V30 7711 H 733.553 -4.53116 -6.05163 0
M  V30 7712 H 734.821 -3.67335 -6.87521 0
M  V30 7713 N 739.05 0.861098 -1.31996 0
M  V30 7714 C 740.297 1.61481 -1.22188 0
M  V30 7715 C 740.625 1.93276 0.217853 0
M  V30 7716 O 739.88 1.56942 1.16909 0
M  V30 7717 C 740.179 2.94822 -2.02027 0
M  V30 7718 C 739.845 2.82483 -3.51446 0
M  V30 7719 C 738.507 2.78825 -3.92186 0
M  V30 7720 C 740.859 2.68878 -4.46491 0
M  V30 7721 C 738.187 2.59433 -5.26224 0
M  V30 7722 C 740.539 2.51022 -5.80664 0
M  V30 7723 C 739.203 2.45753 -6.20614 0
M  V30 7724 H 738.473 0.590902 -0.447119 0
M  V30 7725 H 741.12 0.999376 -1.63355 0
M  V30 7726 H 739.425 3.6045 -1.53569 0
M  V30 7727 H 741.122 3.52149 -1.91812 0
M  V30 7728 H 737.712 2.86152 -3.19085 0
M  V30 7729 H 741.896 2.70754 -4.1594 0
M  V30 7730 H 737.152 2.53784 -5.5624 0
M  V30 7731 H 741.326 2.39473 -6.53931 0
M  V30 7732 H 738.953 2.30485 -7.24417 0
M  V30 7733 N 740.528 1.15101 1.07655 0
M  V30 7734 C 741.475 0.844958 2.14777 0
M  V30 7735 C 742.445 -0.200798 1.64882 0
M  V30 7736 O 743.63 -0.0690278 1.90675 0
M  V30 7737 C 740.77 0.337018 3.4345 0
M  V30 7738 C 739.883 1.44398 4.07153 0
M  V30 7739 C 739.018 0.892487 5.23649 0
M  V30 7740 C 738.057 1.9766 5.79307 0
M  V30 7741 N 737.194 1.44171 6.87138 0
M  V30 7742 H 742.034 1.76242 2.40297 0
M  V30 7743 H 739.571 0.879435 1.17917 0
M  V30 7744 H 741.529 0.024256 4.17193 0
M  V30 7745 H 740.159 -0.543531 3.18191 0
M  V30 7746 H 739.211 1.87299 3.31094 0
M  V30 7747 H 740.523 2.26262 4.4453 0
M  V30 7748 H 739.677 0.532083 6.04362 0
M  V30 7749 H 738.416 0.0429854 4.87681 0
M  V30 7750 H 737.421 2.34586 4.97242 0
M  V30 7751 H 738.646 2.82982 6.17331 0
M  V30 7752 H 736.592 0.614518 6.53115 0
M  V30 7753 H 736.509 2.19665 7.23383 0
M  V30 7754 H 737.777 1.10945 7.71564 0
M  V30 7755 N 742.006 -1.2595 0.947325 0
M  V30 7756 C 743.234 -1.97544 0.615127 0
M  V30 7757 C 743.649 -1.70484 -0.811221 0
M  V30 7758 O 743.006 -0.97662 -1.5417 0
M  V30 7759 C 743.057 -3.51236 0.855328 0
M  V30 7760 O 742.778 -3.77359 2.22558 0
M  V30 7761 C 744.279 -4.40066 0.534515 0
M  V30 7762 H 741.499 -0.629888 0.231263 0
M  V30 7763 H 744.043 -1.60308 1.26971 0
M  V30 7764 H 742.198 -3.8661 0.247266 0
M  V30 7765 H 742.612 -4.71857 2.29022 0
M  V30 7766 H 744.086 -5.46838 0.753168 0
M  V30 7767 H 744.563 -4.35982 -0.530701 0
M  V30 7768 H 745.169 -4.10245 1.12158 0
M  V30 7769 N 743.484 -0.715051 -1.40445 0
M  V30 7770 C 744.73 -0.254705 -2.01194 0
M  V30 7771 C 745.063 1.14894 -1.56567 0
M  V30 7772 O 744.338 1.77933 -0.785491 0
M  V30 7773 C 744.621 -0.334148 -3.58546 0
M  V30 7774 C 744.474 -1.77613 -4.13248 0
M  V30 7775 C 745.793 0.294968 -4.3911 0
M  V30 7776 H 742.912 -0.094025 -0.730978 0
M  V30 7777 H 745.554 -0.907449 -1.66929 0
M  V30 7778 H 743.704 0.221609 -3.87867 0
M  V30 7779 H 745.376 -2.38723 -3.94727 0
M  V30 7780 H 743.619 -2.30402 -3.67556 0
M  V30 7781 H 744.29 -1.78311 -5.22407 0
M  V30 7782 H 746.766 -0.178563 -4.15717 0
M  V30 7783 H 745.642 0.208934 -5.48502 0
M  V30 7784 H 745.903 1.37841 -4.20062 0
M  V30 7785 N 744.962 1.50701 -0.461195 0
M  V30 7786 C 746.202 2.04174 0.0960673 0
M  V30 7787 C 746.566 1.33628 1.37868 0
M  V30 7788 O 747.767 1.77602 2.0177 0
M  V30 7789 C 746.038 3.56256 0.285676 0
M  V30 7790 S 747.597 4.31392 0.802917 0
M  V30 7791 H 744.415 0.710701 0.0206282 0
M  V30 7792 H 747.017 1.85204 -0.62607 0
M  V30 7793 H 745.721 4.05159 -0.653773 0
M  V30 7794 H 745.252 3.79562 1.03421 0
M  V30 7795 H 747.267 4.50611 2.07761 0
M  V30 7796 N 746.441 0.193421 1.56409 0
M  V30 7797 C 747.671 -0.450783 2.01622 0
M  V30 7798 C 748.079 -1.5585 1.07273 0
M  V30 7799 O 747.422 -1.83569 0.0694875 0
M  V30 7800 C 747.484 -1.06913 3.43235 0
M  V30 7801 C 747.148 -0.100352 4.5689 0
M  V30 7802 C 748.145 0.689633 5.15306 0
M  V30 7803 C 745.83 0.0102436 5.02299 0
M  V30 7804 C 747.824 1.5772 6.17579 0
M  V30 7805 C 745.511 0.901368 6.04416 0
M  V30 7806 C 746.509 1.68341 6.61929 0
M  V30 7807 O 746.197 2.5596 7.62063 0
M  V30 7808 H 745.929 -0.117671 0.66568 0
M  V30 7809 H 748.483 0.2989 2.03214 0
M  V30 7810 H 746.713 -1.86736 3.38624 0
M  V30 7811 H 748.402 -1.61781 3.72266 0
M  V30 7812 H 749.168 0.614485 4.81092 0
M  V30 7813 H 745.047 -0.58829 4.57231 0
M  V30 7814 H 748.591 2.18805 6.62397 0
M  V30 7815 H 744.488 0.977637 6.38054 0
M  V30 7816 H 745.256 2.49721 7.79475 0
M  V30 7817 N 747.919 -1.57396 -0.0801906 0
M  V30 7818 C 748.849 -2.06145 -1.09665 0
M  V30 7819 C 749.83 -0.953273 -1.40878 0
M  V30 7820 O 751.015 -1.22548 -1.50651 0
M  V30 7821 C 748.145 -2.49836 -2.41245 0
M  V30 7822 C 747.099 -3.64454 -2.24405 0
M  V30 7823 C 746.425 -3.94172 -3.61293 0
M  V30 7824 C 747.725 -4.94807 -1.67223 0
M  V30 7825 H 749.419 -2.91316 -0.691028 0
M  V30 7826 H 746.965 -1.40145 -0.330957 0
M  V30 7827 H 748.918 -2.82552 -3.12638 0
M  V30 7828 H 747.642 -1.61683 -2.83771 0
M  V30 7829 H 746.301 -3.32008 -1.55454 0
M  V30 7830 H 745.949 -3.03163 -4.01374 0
M  V30 7831 H 745.649 -4.71345 -3.50867 0
M  V30 7832 H 747.173 -4.29376 -4.3413 0
M  V30 7833 H 748.587 -5.25807 -2.28472 0
M  V30 7834 H 746.984 -5.76245 -1.67515 0
M  V30 7835 H 748.054 -4.80751 -0.632944 0
M  V30 7836 N 749.397 0.351382 -1.53633 0
M  V30 7837 C 750.327 1.43688 -1.84055 0
M  V30 7838 C 751.308 1.55251 -0.695073 0
M  V30 7839 O 752.493 1.69587 -0.946257 0
M  V30 7840 C 749.623 2.80843 -2.04315 0
M  V30 7841 C 748.577 2.84094 -3.20117 0
M  V30 7842 C 747.903 4.2406 -3.25696 0
M  V30 7843 C 749.203 2.50334 -4.58399 0
M  V30 7844 H 750.897 1.18478 -2.74961 0
M  V30 7845 H 748.443 0.568509 -1.32303 0
M  V30 7846 H 750.396 3.56821 -2.2418 0
M  V30 7847 H 749.12 3.07471 -1.10132 0
M  V30 7848 H 747.779 2.10568 -3.00094 0
M  V30 7849 H 747.427 4.47785 -2.29123 0
M  V30 7850 H 747.127 4.27147 -4.03509 0
M  V30 7851 H 748.651 5.0189 -3.47762 0
M  V30 7852 H 750.065 3.16025 -4.78332 0
M  V30 7853 H 748.462 2.64717 -5.38558 0
M  V30 7854 H 749.532 1.45542 -4.62543 0
M  V30 7855 N 750.875 1.45233 0.611969 0
M  V30 7856 C 752.121 1.49242 1.37312 0
M  V30 7857 C 752.454 0.131963 1.93751 0
M  V30 7858 O 751.729 -0.852999 1.74798 0
M  V30 7859 C 752.012 2.56811 2.52428 0
M  V30 7860 C 751.865 4.02284 2.01215 0
M  V30 7861 C 753.184 2.60705 3.54572 0
M  V30 7862 H 750.303 0.54336 0.497925 0
M  V30 7863 H 752.945 1.77019 0.690242 0
M  V30 7864 H 751.095 2.33256 3.10683 0
M  V30 7865 H 752.767 4.37035 1.47643 0
M  V30 7866 H 751.01 4.1315 1.32248 0
M  V30 7867 H 751.681 4.7323 2.84178 0
M  V30 7868 H 754.157 2.81799 3.06151 0
M  V30 7869 H 753.033 3.37841 4.32614 0
M  V30 7870 H 753.294 1.65627 4.09903 0
M  V30 7871 N 752.353 -0.854086 1.3245 0
M  V30 7872 C 753.285 -1.96932 1.17262 0
M  V30 7873 C 754.298 -1.62445 0.107469 0
M  V30 7874 O 755.487 -1.74904 0.356481 0
M  V30 7875 C 752.587 -3.29971 0.772817 0
M  V30 7876 C 751.76 -3.92695 1.92638 0
M  V30 7877 C 750.819 -5.04068 1.51003 0
M  V30 7878 O 749.845 -5.24032 2.22213 0
M  V30 7879 N 751.047 -5.79076 0.406371 0
M  V30 7880 H 753.812 -2.10503 2.13327 0
M  V30 7881 H 751.373 -1.02897 1.24995 0
M  V30 7882 H 753.365 -4.01883 0.476684 0
M  V30 7883 H 751.935 -3.1245 -0.0967 0
M  V30 7884 H 751.155 -3.13563 2.38897 0
M  V30 7885 H 752.443 -4.31337 2.69863 0
M  V30 7886 H 751.841 -5.65393 -0.186302 0
M  V30 7887 H 750.398 -6.51579 0.169846 0
M  V30 7888 N 753.831 -1.1567 -1.07043 0
M  V30 7889 C 754.761 -0.879348 -2.16309 0
M  V30 7890 C 755.742 0.171311 -1.69235 0
M  V30 7891 O 756.927 0.0250175 -1.94184 0
M  V30 7892 C 754.057 -0.371307 -3.45309 0
M  V30 7893 C 753.011 -1.359 -4.05851 0
M  V30 7894 C 752.337 -0.709678 -5.29969 0
M  V30 7895 C 753.637 -2.72606 -4.45514 0
M  V30 7896 H 755.331 -1.79308 -2.39768 0
M  V30 7897 H 752.877 -0.863558 -1.15233 0
M  V30 7898 H 754.83 -0.164798 -4.21078 0
M  V30 7899 H 753.554 0.577906 -3.21446 0
M  V30 7900 H 752.213 -1.55193 -3.32131 0
M  V30 7901 H 751.861 0.245782 -5.02399 0
M  V30 7902 H 751.561 -1.36886 -5.71433 0
M  V30 7903 H 753.085 -0.513015 -6.08441 0
M  V30 7904 H 754.499 -2.57141 -5.12398 0
M  V30 7905 H 752.896 -3.34927 -4.97939 0
M  V30 7906 H 753.966 -3.28434 -3.56734 0
M  V30 7907 N 755.309 1.25446 -0.953992 0
M  V30 7908 C 756.242 2.24341 -0.417912 0
M  V30 7909 C 757.22 1.54709 0.5004 0
M  V30 7910 O 758.404 1.83414 0.434923 0
M  V30 7911 C 755.531 3.36352 0.398155 0
M  V30 7912 C 754.577 4.24007 -0.460461 0
M  V30 7913 S 755.41 5.00951 -1.89231 0
M  V30 7914 C 756.566 6.1643 -1.08465 0
M  V30 7915 H 756.799 2.69465 -1.25602 0
M  V30 7916 H 754.332 1.34512 -0.758018 0
M  V30 7917 H 756.29 4.01325 0.863059 0
M  V30 7918 H 754.951 2.89813 1.21108 0
M  V30 7919 H 754.144 5.03728 0.165415 0
M  V30 7920 H 753.746 3.63965 -0.860549 0
M  V30 7921 H 756.038 6.76681 -0.333017 0
M  V30 7922 H 756.981 6.8335 -1.85577 0
M  V30 7923 H 757.389 5.61139 -0.615062 0
M  V30 7924 N 756.787 0.722489 1.40064 0
M  V30 7925 C 757.737 0.0506801 2.27944 0
M  V30 7926 C 758.721 -0.725493 1.43615 0
M  V30 7927 O 759.913 -0.596559 1.66644 0
M  V30 7928 C 757.042 -0.865195 3.32219 0
M  V30 7929 C 756.128 -0.0838393 4.24017 0
M  V30 7930 N 756.519 0.936516 4.97054 0
M  V30 7931 C 754.817 -0.315371 4.44884 0
M  V30 7932 C 755.518 1.4066 5.64437 0
M  V30 7933 N 754.494 0.727485 5.3871 0
M  V30 7934 H 758.296 0.832609 2.8186 0
M  V30 7935 H 755.81 0.555691 1.52597 0
M  V30 7936 H 757.807 -1.36186 3.94029 0
M  V30 7937 H 756.467 -1.64642 2.79862 0
M  V30 7938 H 757.478 1.31755 5.0086 0
M  V30 7939 H 754.155 -1.07238 4.03492 0
M  V30 7940 H 755.545 2.25482 6.32936 0
M  V30 7941 N 758.265 -1.50454 0.469181 0
M  V30 7942 C 759.505 -2.04222 -0.0852381 0
M  V30 7943 C 759.869 -1.34357 -1.37158 0
M  V30 7944 O 761.07 -1.78669 -2.00825 0
M  V30 7945 C 759.341 -3.56403 -0.266778 0
M  V30 7946 S 760.9 -4.31811 -0.780028 0
M  V30 7947 H 757.718 -0.7108 -0.0168589 0
M  V30 7948 H 760.32 -1.8487 0.635883 0
M  V30 7949 H 759.024 -4.04807 0.67525 0
M  V30 7950 H 758.555 -3.80106 -1.01407 0
M  V30 7951 H 760.57 -4.51706 -2.05368 0
M  V30 7952 N 759.743 -0.201713 -1.56304 0
M  V30 7953 C 761.159 0.154025 -1.58855 0
M  V30 7954 C 761.359 1.60516 -1.21807 0
M  V30 7955 O 760.415 2.34193 -0.94393 0
M  V30 7956 C 761.728 -0.154319 -3.00304 0
M  V30 7957 C 763.276 -0.0949578 -3.12856 0
M  V30 7958 C 763.751 -0.376703 -4.56448 0
M  V30 7959 N 765.242 -0.325558 -4.62054 0
M  V30 7960 C 765.977 -0.51732 -5.71062 0
M  V30 7961 N 765.473 -0.769789 -6.8851 0
M  V30 7962 N 767.266 -0.45112 -5.60287 0
M  V30 7963 H 759.417 -1.14858 -1.78666 0
M  V30 7964 H 761.68 -0.458934 -0.829508 0
M  V30 7965 H 761.386 -1.16074 -3.31994 0
M  V30 7966 H 761.26 0.540014 -3.73314 0
M  V30 7967 H 763.647 0.902075 -2.80974 0
M  V30 7968 H 763.728 -0.822468 -2.42217 0
M  V30 7969 H 763.372 -1.37108 -4.89044 0
M  V30 7970 H 763.302 0.371772 -5.25286 0
M  V30 7971 H 765.793 -0.137308 -3.7765 0
M  V30 7972 H 766.106 -0.904744 -7.67486 0
M  V30 7973 H 764.451 -0.806758 -6.90302 0
M  V30 7974 H 767.642 -0.254253 -4.67409 0
M  V30 7975 H 767.815 -0.603982 -6.45179 0
M  V30 7976 N 761.222 1.57436 0.0718424 0
M  V30 7977 C 762.169 2.03686 1.08539 0
M  V30 7978 C 763.139 0.917474 1.38462 0
M  V30 7979 O 764.324 1.18513 1.4953 0
M  V30 7980 C 761.464 2.48566 2.39393 0
M  V30 7981 C 760.577 3.74122 2.16001 0
M  V30 7982 C 759.712 4.07786 3.40418 0
M  V30 7983 C 758.751 5.26383 3.1239 0
M  V30 7984 N 757.888 5.55685 4.29138 0
M  V30 7985 H 762.728 2.90043 0.684018 0
M  V30 7986 H 760.265 1.43438 0.326183 0
M  V30 7987 H 762.223 2.72639 3.15791 0
M  V30 7988 H 760.853 1.65186 2.77333 0
M  V30 7989 H 759.905 3.57389 1.30296 0
M  V30 7990 H 761.217 4.60659 1.91298 0
M  V30 7991 H 760.371 4.32759 4.25211 0
M  V30 7992 H 759.11 3.19817 3.68197 0
M  V30 7993 H 758.115 5.01206 2.25993 0
M  V30 7994 H 759.34 6.1597 2.85934 0
M  V30 7995 H 757.286 4.70675 4.56948 0
M  V30 7996 H 757.203 6.3664 4.07708 0
M  V30 7997 H 758.471 5.85209 5.14928 0
M  V30 7998 N 762.7 -0.34323 1.53817 0
M  V30 7999 C 763.633 -1.44472 1.76644 0
M  V30 8000 C 764.611 -1.50498 0.615556 0
M  V30 8001 O 765.795 -1.6821 0.850751 0
M  V30 8002 C 762.922 -2.82705 1.86536 0
M  V30 8003 C 761.968 -2.94302 3.08688 0
M  V30 8004 S 762.801 -2.60739 4.67735 0
M  V30 8005 C 763.957 -4.01079 4.80506 0
M  V30 8006 H 764.19 -1.24893 2.69794 0
M  V30 8007 H 761.723 -0.538915 1.4469 0
M  V30 8008 H 763.681 -3.62342 1.92921 0
M  V30 8009 H 762.342 -2.9958 0.943975 0
M  V30 8010 H 761.535 -3.95593 3.12286 0
M  V30 8011 H 761.137 -2.22614 3.00531 0
M  V30 8012 H 763.429 -4.95603 4.61935 0
M  V30 8013 H 764.372 -4.02475 5.82597 0
M  V30 8014 H 764.78 -3.89119 4.08958 0
M  V30 8015 N 764.178 -1.45556 -0.604258 0
M  V30 8016 C 765.425 -1.49746 -1.36317 0
M  V30 8017 C 765.753 -0.140516 -1.93992 0
M  V30 8018 O 765.008 0.861244 -1.7573 0
M  V30 8019 C 765.307 -2.52697 -2.52743 0
M  V30 8020 C 764.973 -3.97315 -2.13195 0
M  V30 8021 C 763.635 -4.36692 -2.02123 0
M  V30 8022 C 765.987 -4.88249 -1.8238 0
M  V30 8023 C 763.315 -5.64895 -1.58463 0
M  V30 8024 C 765.667 -6.16867 -1.40205 0
M  V30 8025 C 764.331 -6.55172 -1.27694 0
M  V30 8026 H 763.601 -0.54796 -0.49882 0
M  V30 8027 H 766.248 -1.7892 -0.682643 0
M  V30 8028 H 764.553 -2.17105 -3.26148 0
M  V30 8029 H 766.25 -2.53176 -3.10971 0
M  V30 8030 H 762.84 -3.66176 -2.22739 0
M  V30 8031 H 767.024 -4.58561 -1.89829 0
M  V30 8032 H 762.28 -5.93365 -1.47402 0
M  V30 8033 H 766.454 -6.86771 -1.15408 0
M  V30 8034 H 764.081 -7.54411 -0.936375 0
M  V30 8035 N 765.656 0.84705 -1.32902 0
M  V30 8036 C 766.603 1.95624 -1.22473 0
M  V30 8037 C 767.573 1.65767 -0.105178 0
M  V30 8038 O 768.758 1.88704 -0.282042 0
M  V30 8039 C 765.898 3.31434 -0.961542 0
M  V30 8040 C 765.011 3.73741 -2.1666 0
M  V30 8041 C 764.146 4.98379 -1.83825 0
M  V30 8042 C 763.185 5.33199 -3.00609 0
M  V30 8043 N 762.322 6.49014 -2.67816 0
M  V30 8044 H 767.162 2.03875 -2.17345 0
M  V30 8045 H 764.699 0.997764 -1.08088 0
M  V30 8046 H 766.657 4.09663 -0.789411 0
M  V30 8047 H 765.287 3.22762 -0.0495938 0
M  V30 8048 H 764.339 2.91102 -2.44875 0
M  V30 8049 H 765.651 3.95462 -3.03993 0
M  V30 8050 H 764.805 5.84336 -1.63208 0
M  V30 8051 H 763.544 4.78611 -0.937172 0
M  V30 8052 H 762.549 4.4575 -3.21849 0
M  V30 8053 H 763.774 5.5492 -3.9146 0
M  V30 8054 H 761.72 6.30748 -1.80258 0
M  V30 8055 H 761.637 6.7079 -3.48679 0
M  V30 8056 H 762.905 7.38103 -2.50647 0
M  V30 8057 N 767.134 1.16236 1.06428 0
M  V30 8058 C 768.097 0.870163 2.1204 0
M  V30 8059 C 769.097 -0.134239 1.60239 0
M  V30 8060 O 770.287 0.0964932 1.73933 0
M  V30 8061 C 767.419 0.301033 3.39568 0
M  V30 8062 H 768.612 1.8064 2.39394 0
M  V30 8063 H 766.165 0.971116 1.2247 0
M  V30 8064 H 766.9 -0.642948 3.17863 0
M  V30 8065 H 766.685 1.02475 3.78472 0
M  V30 8066 H 768.175 0.114494 4.17443 0
M  V30 8067 N 768.612 -1.24939 0.960631 0
M  V30 8068 C 769.522 -2.29374 0.492435 0
M  V30 8069 C 770.538 -1.68262 -0.443154 0
M  V30 8070 O 771.714 -1.98875 -0.31793 0
M  V30 8071 C 768.779 -3.46023 -0.216626 0
M  V30 8072 C 767.84 -4.22557 0.757915 0
M  V30 8073 C 767.073 -5.33636 0.0825969 0
M  V30 8074 O 767.296 -5.59084 -1.13054 0
M  V30 8075 O 766.23 -5.96939 0.771177 0
M  V30 8076 H 770.056 -2.71525 1.36044 0
M  V30 8077 H 767.641 -1.30499 0.72735 0
M  V30 8078 H 769.523 -4.16885 -0.615241 0
M  V30 8079 H 768.198 -3.05862 -1.05971 0
M  V30 8080 H 767.105 -3.54099 1.20685 0
M  V30 8081 H 768.438 -4.66516 1.5692 0
M  V30 8082 N 770.09 -0.729906 -1.39679 0
M  V30 8083 C 771.339 -0.272534 -1.9985 0
M  V30 8084 C 771.652 1.14519 -1.58571 0
M  V30 8085 O 772.858 1.70182 -2.11543 0
M  V30 8086 C 771.314 -0.436322 -3.57245 0
M  V30 8087 C 770.922 -1.86161 -4.0749 0
M  V30 8088 C 772.666 -0.0404679 -4.24481 0
M  V30 8089 C 770.573 -1.97522 -5.5744 0
M  V30 8090 H 769.503 -0.0981428 -0.747585 0
M  V30 8091 H 772.154 -0.903056 -1.59741 0
M  V30 8092 H 770.536 0.263015 -3.95126 0
M  V30 8093 H 771.71 -2.59248 -3.80955 0
M  V30 8094 H 770.025 -2.21021 -3.529 0
M  V30 8095 H 772.622 -0.104437 -5.34598 0
M  V30 8096 H 772.965 1.00357 -4.04023 0
M  V30 8097 H 773.498 -0.690774 -3.91757 0
M  V30 8098 H 770.237 -3.00096 -5.82771 0
M  V30 8099 H 769.757 -1.28864 -5.85794 0
M  V30 8100 H 771.436 -1.754 -6.22771 0
M  V30 8101 N 771.568 1.50203 -0.477153 0
M  V30 8102 C 772.979 1.86685 -0.0235041 0
M  V30 8103 C 773.33 1.39148 1.38319 0
M  V30 8104 O 772.455 0.759051 2.02651 0
M  V30 8105 C 773.05 3.38781 -0.0358767 0
M  V30 8106 C 771.609 3.74652 0.362327 0
M  V30 8107 C 770.756 2.7412 -0.41875 0
M  V30 8108 H 773.707 1.4286 -0.691133 0
M  V30 8109 H 773.728 3.72732 0.764924 0
M  V30 8110 H 773.24 3.73349 -1.05981 0
M  V30 8111 H 771.341 3.45686 1.39039 0
M  V30 8112 H 771.454 4.79063 0.059457 0
M  V30 8113 H 769.818 2.54376 0.128341 0
M  V30 8114 H 770.601 3.11532 -1.44231 0
M  V30 8115 N 773.046 0.209999 1.56195 0
M  V30 8116 C 774.293 -0.424813 1.97994 0
M  V30 8117 C 774.621 -1.60589 1.09733 0
M  V30 8118 O 773.876 -1.95201 0.139693 0
M  V30 8119 C 774.175 -0.91312 3.45539 0
M  V30 8120 C 773.841 0.156187 4.50629 0
M  V30 8121 C 772.503 0.449966 4.79092 0
M  V30 8122 C 774.855 0.879959 5.13718 0
M  V30 8123 C 772.183 1.47223 5.67928 0
M  V30 8124 C 774.535 1.89148 6.0366 0
M  V30 8125 C 773.199 2.1923 6.30472 0
M  V30 8126 H 772.469 -0.15545 0.724511 0
M  V30 8127 H 775.116 0.310095 1.88973 0
M  V30 8128 H 773.421 -1.72658 3.51705 0
M  V30 8129 H 775.118 -1.41395 3.75245 0
M  V30 8130 H 771.708 -0.0829466 4.2852 0
M  V30 8131 H 775.892 0.66623 4.91808 0
M  V30 8132 H 771.148 1.71105 5.86969 0
M  V30 8133 H 775.322 2.45745 6.516 0
M  V30 8134 H 772.949 2.98587 6.99107 0
M  V30 8135 N 774.524 -1.57472 -0.0634922 0
M  V30 8136 C 775.749 -1.92273 -0.77756 0
M  V30 8137 C 776.174 -0.807141 -1.69902 0
M  V30 8138 O 775.532 0.239523 -1.79711 0
M  V30 8139 C 775.58 -3.26054 -1.54017 0
M  V30 8140 O 774.684 -3.15873 -2.65138 0
M  V30 8141 H 774.025 -0.629389 -0.211579 0
M  V30 8142 H 776.555 -2.04579 -0.0292523 0
M  V30 8143 H 776.565 -3.60127 -1.91763 0
M  V30 8144 H 775.24 -4.06824 -0.864128 0
M  V30 8145 H 773.817 -2.93373 -2.30189 0
M  V30 8146 N 776.003 0.335068 -1.53997 0
M  V30 8147 C 776.951 1.43206 -1.83289 0
M  V30 8148 C 777.945 1.54081 -0.703953 0
M  V30 8149 O 779.151 1.56603 -0.887432 0
M  V30 8150 H 775.526 0.477655 -0.580818 0
M  V30 8151 H 777.497 1.15719 -2.75049 0
M  V30 8152 C 776.246 2.79602 -2.06683 0
M  V30 8153 H 775.569 2.72004 -2.93008 0
M  V30 8154 H 777.009 3.55459 -2.31139 0
M  V30 8155 C 775.468 3.25873 -0.854883 0
M  V30 8156 O 775.998 4.01657 -0.0584648 0
M  V30 8157 N 774.204 2.82777 -0.669729 0
M  V30 8158 H 773.751 2.21269 -1.31901 0
M  V30 8159 H 773.709 3.1409 0.13969 0
M  V30 8160 N 777.481 1.45874 0.596531 0
M  V30 8161 C 778.727 1.5069 1.35722 0
M  V30 8162 C 779.06 0.152506 1.936 0
M  V30 8163 O 778.335 -0.834411 1.75692 0
M  V30 8164 C 778.618 2.59474 2.4969 0
M  V30 8165 C 778.471 4.04396 1.96937 0
M  V30 8166 C 779.79 2.64451 3.51787 0
M  V30 8167 H 776.909 0.548611 0.492133 0
M  V30 8168 H 779.551 1.77741 0.671428 0
M  V30 8169 H 777.701 2.36539 3.08191 0
M  V30 8170 H 779.373 4.38576 1.43 0
M  V30 8171 H 777.616 4.14529 1.27859 0
M  V30 8172 H 778.287 4.76218 2.79143 0
M  V30 8173 H 780.763 2.85031 3.03145 0
M  V30 8174 H 779.639 3.42411 4.29006 0
M  V30 8175 H 779.9 1.69965 4.08123 0
M  V30 8176 N 778.959 -0.83999 1.33349 0
M  V30 8177 C 779.892 -1.95415 1.17848 0
M  V30 8178 C 780.87 -1.6243 0.0742296 0
M  V30 8179 O 782.054 -1.87014 0.23626 0
M  V30 8180 C 779.181 -3.28938 0.807295 0
M  V30 8181 C 778.227 -3.80895 1.91888 0
M  V30 8182 S 779.06 -4.02709 3.52967 0
M  V30 8183 C 780.216 -5.39185 3.17853 0
M  V30 8184 H 780.449 -2.08265 2.12162 0
M  V30 8185 H 777.982 -0.993643 1.18178 0
M  V30 8186 H 779.94 -4.06093 0.599914 0
M  V30 8187 H 778.601 -3.13881 -0.117234 0
M  V30 8188 H 777.794 -4.77508 1.6125 0
M  V30 8189 H 777.396 -3.10633 2.08286 0
M  V30 8190 H 779.688 -6.21978 2.68608 0
M  V30 8191 H 780.631 -5.74795 4.13542 0
M  V30 8192 H 781.039 -5.03885 2.5448 0
M  V30 8193 N 780.437 -1.16799 -1.0581 0
M  V30 8194 C 781.665 -0.97687 -1.82387 0
M  V30 8195 C 782.08 0.474917 -1.82729 0
M  V30 8196 O 781.437 1.3297 -1.25001 0
M  V30 8197 C 781.488 -1.50279 -3.28783 0
M  V30 8198 O 781.209 -2.89772 -3.28578 0
M  V30 8199 C 782.71 -1.35538 -4.22071 0
M  V30 8200 H 779.93 -0.345977 -0.574927 0
M  V30 8201 H 782.474 -1.54942 -1.33466 0
M  V30 8202 H 780.629 -0.972414 -3.74997 0
M  V30 8203 H 781.043 -3.13954 -4.20159 0
M  V30 8204 H 782.517 -1.7716 -5.22799 0
M  V30 8205 H 782.994 -0.301598 -4.38163 0
M  V30 8206 H 783.6 -1.87562 -3.81708 0
M  V30 8207 N 781.915 1.24427 -0.967243 0
M  V30 8208 C 783.155 1.9423 -0.636723 0
M  V30 8209 C 783.519 1.73939 0.812971 0
M  V30 8210 O 784.72 2.37773 1.25369 0
M  V30 8211 C 782.991 3.43105 -1.00067 0
M  V30 8212 S 784.55 4.31728 -0.784633 0
M  V30 8213 H 781.368 0.671527 -0.233607 0
M  V30 8214 H 783.97 1.50806 -1.2441 0
M  V30 8215 H 782.674 3.5538 -2.05264 0
M  V30 8216 H 782.205 3.91521 -0.384054 0
M  V30 8217 H 784.22 4.95046 0.338244 0
M  V30 8218 N 783.393 0.737304 1.3929 0
M  V30 8219 C 784.303 0.100464 2.34385 0
M  V30 8220 C 785.319 -0.719282 1.58437 0
M  V30 8221 O 786.495 -0.647216 1.90717 0
M  V30 8222 C 783.56 -0.794325 3.37478 0
M  V30 8223 C 782.621 0.0379345 4.29283 0
M  V30 8224 C 781.854 -0.814241 5.27452 0
M  V30 8225 O 782.077 -2.05288 5.32177 0
M  V30 8226 O 781.011 -0.241679 6.01415 0
M  V30 8227 H 784.837 0.885407 2.90507 0
M  V30 8228 H 782.422 0.497999 1.40856 0
M  V30 8229 H 784.304 -1.30622 4.00644 0
M  V30 8230 H 782.979 -1.55804 2.83737 0
M  V30 8231 H 781.886 0.595405 3.69331 0
M  V30 8232 H 783.219 0.763926 4.86236 0
M  V30 8233 N 784.871 -1.49948 0.485112 0
M  V30 8234 C 786.148 -1.95186 -0.12726 0
M  V30 8235 C 786.528 -1.42605 -1.5565 0
M  V30 8236 O 785.876 -0.632986 -2.19558 0
M  V30 8237 C 786.086 -3.48955 -0.0562117 0
M  V30 8238 C 787.434 -4.23932 -0.238106 0
M  V30 8239 O 788.458 -3.55955 -0.132145 0
M  V30 8240 O 787.317 -5.44614 -0.453658 0
M  V30 8241 H 784.411 -0.820433 -0.104014 0
M  V30 8242 H 786.957 -1.60659 0.546517 0
M  V30 8243 H 785.729 -3.79814 0.941122 0
M  V30 8244 H 785.352 -3.90056 -0.770834 0
M  V30 8245 N 786.349 -0.21828 -1.56081 0
M  V30 8246 C 787.626 0.463143 -1.90038 0
M  V30 8247 C 788.006 1.77982 -1.13515 0
M  V30 8248 O 787.354 2.27199 -0.24345 0
M  V30 8249 C 787.564 0.659292 -3.42716 0
M  V30 8250 C 788.912 0.968203 -4.13414 0
M  V30 8251 O 789.936 0.746195 -3.48296 0
M  V30 8252 O 788.795 1.38936 -5.28544 0
M  V30 8253 H 785.889 0.244435 -0.790051 0
M  V30 8254 H 788.435 -0.260221 -1.67693 0
M  V30 8255 H 787.207 -0.269584 -3.9037 0
M  V30 8256 H 786.83 1.43426 -3.7083 0
M  V30 8257 N 787.827 1.57504 0.0551401 0
M  V30 8258 C 789.104 1.79155 0.785048 0
M  V30 8259 C 789.484 0.809995 1.94942 0
M  V30 8260 O 788.832 -0.153432 2.27984 0
M  V30 8261 C 789.042 3.26134 1.24247 0
M  V30 8262 C 790.39 3.90419 1.66908 0
M  V30 8263 O 791.414 3.30126 1.33772 0
M  V30 8264 O 790.273 4.96523 2.28314 0
M  V30 8265 H 787.367 0.735825 0.377479 0
M  V30 8266 H 789.913 1.69666 0.0339285 0
M  V30 8267 H 788.685 3.89145 0.410089 0
M  V30 8268 H 788.308 3.40411 2.05441 0
M  V30 8269 N 789.305 -0.326896 1.54172 0
M  V30 8270 C 790.252 -1.40216 1.83325 0
M  V30 8271 C 791.222 -1.51538 0.680107 0
M  V30 8272 O 792.407 -1.66811 0.926206 0
M  V30 8273 C 789.547 -2.76626 2.0633 0
M  V30 8274 C 788.66 -2.73963 3.34019 0
M  V30 8275 C 787.795 -4.02198 3.47002 0
M  V30 8276 C 786.834 -3.93828 4.68578 0
M  V30 8277 N 785.971 -5.13787 4.78506 0
M  V30 8278 H 790.811 -1.14656 2.7506 0
M  V30 8279 H 788.348 -0.555089 1.36225 0
M  V30 8280 H 790.306 -3.55922 2.17659 0
M  V30 8281 H 788.936 -3.00503 1.1789 0
M  V30 8282 H 787.988 -1.86677 3.31445 0
M  V30 8283 H 789.3 -2.6366 4.2342 0
M  V30 8284 H 788.454 -4.89923 3.57855 0
M  V30 8285 H 787.193 -4.15302 2.55687 0
M  V30 8286 H 786.198 -3.04487 4.57786 0
M  V30 8287 H 787.423 -3.82292 5.61275 0
M  V30 8288 H 785.369 -5.27403 3.90105 0
M  V30 8289 H 785.286 -5.05807 5.61868 0
M  V30 8290 H 786.554 -6.03236 4.93686 0
M  V30 8291 N 790.784 -1.46188 -0.588786 0
M  V30 8292 C 792.2 -1.31009 -0.911524 0
M  V30 8293 C 792.4 -0.277017 -1.99587 0
M  V30 8294 O 791.456 0.322532 -2.50432 0
M  V30 8295 C 792.769 -2.69459 -1.33463 0
M  V30 8296 C 794.317 -2.77502 -1.44782 0
M  V30 8297 C 794.792 -4.1652 -1.90461 0
M  V30 8298 N 796.283 -4.18907 -1.97665 0
M  V30 8299 C 797.018 -5.23359 -2.34271 0
M  V30 8300 N 796.514 -6.38143 -2.69714 0
M  V30 8301 N 798.307 -5.10723 -2.34774 0
M  V30 8302 H 790.458 -2.12016 0.127614 0
M  V30 8303 H 792.721 -0.947984 -0.00557599 0
M  V30 8304 H 792.427 -3.46336 -0.611929 0
M  V30 8305 H 792.301 -2.99165 -2.2974 0
M  V30 8306 H 794.688 -2.00917 -2.1614 0
M  V30 8307 H 794.769 -2.51488 -0.467724 0
M  V30 8308 H 794.413 -4.93597 -1.19684 0
M  V30 8309 H 794.343 -4.39937 -2.89418 0
M  V30 8310 H 796.834 -3.36084 -1.72789 0
M  V30 8311 H 797.147 -7.13624 -2.96582 0
M  V30 8312 H 795.492 -6.41514 -2.67366 0
M  V30 8313 H 798.683 -4.20088 -2.06503 0
M  V30 8314 H 798.856 -5.9224 -2.62975 0
M  V30 8315 N 792.262 0.832906 -1.33792 0
M  V30 8316 C 793.678 1.1245 -1.13257 0
M  V30 8317 C 793.878 2.01369 0.0725832 0
M  V30 8318 O 792.934 2.41071 0.751082 0
M  V30 8319 C 794.247 1.78084 -2.42294 0
M  V30 8320 C 795.795 1.90624 -2.48257 0
M  V30 8321 C 796.27 2.59673 -3.77271 0
M  V30 8322 N 797.761 2.67181 -3.78376 0
M  V30 8323 C 798.496 3.21313 -4.74916 0
M  V30 8324 N 797.992 3.76086 -5.81835 0
M  V30 8325 N 799.785 3.19621 -4.62384 0
M  V30 8326 H 791.936 0.241244 -2.11026 0
M  V30 8327 H 794.199 0.169557 -0.932713 0
M  V30 8328 H 793.905 1.20209 -3.30519 0
M  V30 8329 H 793.779 2.78049 -2.5489 0
M  V30 8330 H 796.166 2.4765 -1.60478 0
M  V30 8331 H 796.247 0.89591 -2.39598 0
M  V30 8332 H 795.891 2.03304 -4.65435 0
M  V30 8333 H 795.821 3.61189 -3.8321 0
M  V30 8334 H 798.312 2.28346 -3.01108 0
M  V30 8335 H 798.625 4.15612 -6.51526 0
M  V30 8336 H 796.97 3.74357 -5.85561 0
M  V30 8337 H 800.161 2.76091 -3.7801 0
M  V30 8338 H 800.334 3.61504 -5.37791 0
M  V30 8339 N 793.74 1.17359 1.05189 0
M  V30 8340 C 794.703 0.892604 2.11105 0
M  V30 8341 C 795.703 -0.117236 1.60372 0
M  V30 8342 O 796.893 0.114936 1.7382 0
M  V30 8343 C 794.025 0.337032 3.3923 0
M  V30 8344 H 795.218 1.83169 2.37464 0
M  V30 8345 H 792.771 0.984051 1.21434 0
M  V30 8346 H 793.506 -0.609198 3.18527 0
M  V30 8347 H 793.291 1.06484 3.77364 0
M  V30 8348 H 794.781 0.158763 4.17298 0
M  V30 8349 N 795.218 -1.23913 0.973828 0
M  V30 8350 C 796.148 -2.27453 0.527969 0
M  V30 8351 C 797.129 -1.6443 -0.435513 0
M  V30 8352 O 798.314 -1.9137 -0.330306 0
M  V30 8353 C 795.444 -3.4685 -0.176757 0
M  V30 8354 C 794.398 -4.22181 0.703352 0
M  V30 8355 C 793.724 -5.34534 -0.133215 0
M  V30 8356 C 795.024 -4.82865 1.99096 0
M  V30 8357 H 796.718 -2.65 1.3934 0
M  V30 8358 H 794.264 -1.27388 0.671446 0
M  V30 8359 H 796.217 -4.18424 -0.499934 0
M  V30 8360 H 794.941 -3.08346 -1.07659 0
M  V30 8361 H 793.6 -3.52416 1.00989 0
M  V30 8362 H 793.248 -4.92271 -1.03338 0
M  V30 8363 H 792.948 -5.85855 0.452494 0
M  V30 8364 H 794.472 -6.08933 -0.450924 0
M  V30 8365 H 795.886 -5.46481 1.73297 0
M  V30 8366 H 794.283 -5.44444 2.52389 0
M  V30 8367 H 795.353 -4.03977 2.68199 0
M  V30 8368 N 796.696 -0.74468 -1.38897 0
M  V30 8369 C 798.112 -0.421302 -1.53939 0
M  V30 8370 C 798.312 1.06668 -1.70951 0
M  V30 8371 O 797.368 1.85278 -1.71547 0
M  V30 8372 C 798.681 -1.21278 -2.75159 0
M  V30 8373 C 800.229 -1.20196 -2.89001 0
M  V30 8374 C 800.704 -1.97621 -4.13171 0
M  V30 8375 N 802.195 -1.94836 -4.2023 0
M  V30 8376 C 802.93 -2.51545 -5.15279 0
M  V30 8377 N 802.426 -3.1693 -6.16058 0
M  V30 8378 N 804.219 -2.41524 -5.07565 0
M  V30 8379 H 796.37 -1.70914 -1.26103 0
M  V30 8380 H 798.633 -0.724058 -0.611919 0
M  V30 8381 H 798.339 -2.26609 -2.68963 0
M  V30 8382 H 798.213 -0.823677 -3.68097 0
M  V30 8383 H 800.6 -0.156742 -2.94683 0
M  V30 8384 H 800.681 -1.63051 -1.97099 0
M  V30 8385 H 800.325 -3.02149 -4.0825 0
M  V30 8386 H 800.255 -1.52166 -5.04136 0
M  V30 8387 H 802.746 -1.4721 -3.48048 0
M  V30 8388 H 803.059 -3.57644 -6.85062 0
M  V30 8389 H 801.404 -3.21023 -6.16417 0
M  V30 8390 H 804.595 -1.90077 -4.27771 0
M  V30 8391 H 804.768 -2.86016 -5.81462 0
M  V30 8392 N 798.174 1.49689 -0.493057 0
M  V30 8393 C 799.402 2.06836 0.0513141 0
M  V30 8394 C 799.817 1.35436 1.31539 0
M  V30 8395 O 799.174 0.430248 1.77356 0
M  V30 8396 C 799.225 3.60107 0.317003 0
M  V30 8397 O 798.946 4.2882 -0.896957 0
M  V30 8398 C 800.447 4.33945 0.905902 0
M  V30 8399 H 797.667 0.670787 -0.0169048 0
M  V30 8400 H 800.211 1.92574 -0.688139 0
M  V30 8401 H 798.366 3.74099 1.00642 0
M  V30 8402 H 798.78 5.20395 -0.654939 0
M  V30 8403 H 800.254 5.42087 1.04144 0
M  V30 8404 H 800.731 3.95895 1.90168 0
M  V30 8405 H 801.337 4.2454 0.254195 0
M  V30 8406 N 799.652 0.226554 1.55963 0
M  V30 8407 C 800.615 -0.668015 2.19249 0
M  V30 8408 C 801.615 -1.11794 1.1558 0
M  V30 8409 O 802.805 -1.02593 1.40784 0
M  V30 8410 C 799.937 -1.91571 2.81981 0
M  V30 8411 H 801.13 -0.116175 2.99675 0
M  V30 8412 H 798.683 -0.0230497 1.56283 0
M  V30 8413 H 799.418 -2.50929 2.05439 0
M  V30 8414 H 799.203 -1.6015 3.57903 0
M  V30 8415 H 800.693 -2.55294 3.30477 0
M  V30 8416 N 801.13 -1.57531 -0.0467866 0
M  V30 8417 C 802.355 -1.93087 -0.757123 0
M  V30 8418 C 802.78 -0.825116 -1.69037 0
M  V30 8419 O 802.138 0.220449 -1.79955 0
M  V30 8420 C 802.186 -3.27669 -1.5055 0
M  V30 8421 O 801.29 -3.18667 -2.61773 0
M  V30 8422 H 800.631 -0.631597 -0.204892 0
M  V30 8423 H 803.161 -2.04599 -0.00755232 0
M  V30 8424 H 803.171 -3.6214 -1.87932 0
M  V30 8425 H 801.846 -4.07717 -0.820931 0
M  V30 8426 H 800.423 -2.95798 -2.27064 0
M  V30 8427 N 802.608 0.318715 -1.54344 0
M  V30 8428 C 803.518 1.41535 -1.87097 0
M  V30 8429 C 804.534 1.56361 -0.763353 0
M  V30 8430 O 805.71 1.71365 -1.05811 0
M  V30 8431 C 802.775 2.76178 -2.09587 0
M  V30 8432 C 801.836 2.70486 -3.3337 0
M  V30 8433 C 801.069 3.98708 -3.54778 0
M  V30 8434 O 801.292 4.9721 -2.79532 0
M  V30 8435 O 800.226 4.01674 -4.48266 0
M  V30 8436 H 804.052 1.16764 -2.80357 0
M  V30 8437 H 801.637 0.51318 -1.4031 0
M  V30 8438 H 803.519 3.55873 -2.25682 0
M  V30 8439 H 802.194 3.00829 -1.19514 0
M  V30 8440 H 801.101 1.89325 -3.22656 0
M  V30 8441 H 802.434 2.50789 -4.23516 0
M  V30 8442 N 804.086 1.46499 0.581025 0
M  V30 8443 C 805.033 1.5719 1.68997 0
M  V30 8444 C 806.003 0.416114 1.60803 0
M  V30 8445 O 807.188 0.633086 1.79991 0
M  V30 8446 C 804.328 1.56973 3.07333 0
M  V30 8447 C 803.441 2.83298 3.26139 0
M  V30 8448 C 802.576 2.74574 4.54734 0
M  V30 8449 C 801.615 3.9583 4.66889 0
M  V30 8450 N 800.752 3.85482 5.86811 0
M  V30 8451 H 805.592 2.51914 1.59196 0
M  V30 8452 H 803.129 1.24975 0.775857 0
M  V30 8453 H 805.087 1.54832 3.87405 0
M  V30 8454 H 803.717 0.657803 3.16027 0
M  V30 8455 H 802.769 2.95411 2.3966 0
M  V30 8456 H 804.081 3.7316 3.30988 0
M  V30 8457 H 803.235 2.70548 5.43036 0
M  V30 8458 H 801.974 1.82354 4.52325 0
M  V30 8459 H 800.979 4.00186 3.77003 0
M  V30 8460 H 802.204 4.89148 4.71075 0
M  V30 8461 H 800.15 2.96051 5.85397 0
M  V30 8462 H 800.067 4.69002 5.92936 0
M  V30 8463 H 801.335 3.85434 6.7754 0
M  V30 8464 N 805.565 -0.825799 1.34232 0
M  V30 8465 C 806.495 -1.95151 1.28212 0
M  V30 8466 C 807.476 -1.69345 0.160123 0
M  V30 8467 O 808.661 -1.90983 0.352019 0
M  V30 8468 C 805.791 -3.31554 1.03388 0
M  V30 8469 C 804.745 -3.71793 2.12023 0
M  V30 8470 C 804.071 -5.06147 1.72392 0
M  V30 8471 C 805.371 -3.84193 3.53826 0
M  V30 8472 H 807.065 -2.00445 2.22401 0
M  V30 8473 H 804.611 -0.962996 1.07063 0
M  V30 8474 H 806.564 -4.09889 0.978225 0
M  V30 8475 H 805.288 -3.26551 0.0564142 0
M  V30 8476 H 803.947 -2.95731 2.16654 0
M  V30 8477 H 803.595 -4.97628 0.733137 0
M  V30 8478 H 803.295 -5.34041 2.451 0
M  V30 8479 H 804.819 -5.86943 1.68317 0
M  V30 8480 H 806.233 -4.52806 3.51624 0
M  V30 8481 H 804.63 -4.23538 4.2513 0
M  V30 8482 H 805.7 -2.86272 3.91377 0
M  V30 8483 N 807.043 -1.17915 -1.04565 0
M  V30 8484 C 808.459 -0.927761 -1.29864 0
M  V30 8485 C 808.659 0.409536 -1.97294 0
M  V30 8486 O 807.715 1.14505 -2.25044 0
M  V30 8487 C 809.028 -2.08967 -2.16225 0
M  V30 8488 C 810.576 -2.12741 -2.29587 0
M  V30 8489 C 811.051 -3.28335 -3.19312 0
M  V30 8490 N 812.542 -3.28164 -3.26898 0
M  V30 8491 C 813.277 -4.14249 -3.96466 0
M  V30 8492 N 812.773 -5.10457 -4.68407 0
M  V30 8493 N 814.566 -4.02179 -3.92694 0
M  V30 8494 H 806.717 -2.03983 -0.592011 0
M  V30 8495 H 808.98 -0.891023 -0.323701 0
M  V30 8496 H 808.686 -3.05654 -1.73979 0
M  V30 8497 H 808.56 -2.04606 -3.16885 0
M  V30 8498 H 810.947 -1.16636 -2.71072 0
M  V30 8499 H 811.028 -2.21162 -1.28535 0
M  V30 8500 H 810.672 -4.2471 -2.78539 0
M  V30 8501 H 810.602 -3.17151 -4.20384 0
M  V30 8502 H 813.093 -2.58511 -2.75646 0
M  V30 8503 H 813.406 -5.72526 -5.1907 0
M  V30 8504 H 811.751 -5.14422 -4.67328 0
M  V30 8505 H 814.942 -3.26308 -3.3562 0
M  V30 8506 H 815.115 -4.69486 -4.4664 0
M  V30 8507 N 808.521 1.23394 -0.980386 0
M  V30 8508 C 809.469 2.26872 -0.513018 0
M  V30 8509 C 810.463 1.63853 0.429948 0
M  V30 8510 O 811.669 1.77417 0.303842 0
M  V30 8511 H 808.044 0.737398 -0.147473 0
M  V30 8512 H 810.015 2.63654 -1.39746 0
M  V30 8513 C 808.764 3.47289 0.168962 0
M  V30 8514 H 808.087 3.96033 -0.547546 0
M  V30 8515 H 809.527 4.21502 0.459616 0
M  V30 8516 C 807.986 3.06425 1.40019 0
M  V30 8517 O 808.516 3.14708 2.49643 0
M  V30 8518 N 806.722 2.61339 1.27084 0
M  V30 8519 H 806.269 2.54799 0.378872 0
M  V30 8520 H 806.227 2.34364 2.09573 0
M  V30 8521 N 809.999 0.752036 1.385 0
M  V30 8522 C 811.415 0.42946 1.53713 0
M  V30 8523 C 811.615 -1.0576 1.71514 0
M  V30 8524 O 810.671 -1.84366 1.72527 0
M  V30 8525 C 811.984 1.22735 2.74511 0
M  V30 8526 C 813.532 1.21727 2.8836 0
M  V30 8527 C 814.007 1.99809 4.12117 0
M  V30 8528 N 815.498 1.97062 4.19191 0
M  V30 8529 C 816.233 2.54274 5.13938 0
M  V30 8530 N 815.729 3.20193 6.14368 0
M  V30 8531 N 817.522 2.44212 5.06277 0
M  V30 8532 H 809.673 1.71581 1.25195 0
M  V30 8533 H 811.936 0.727293 0.60807 0
M  V30 8534 H 811.642 2.28032 2.67758 0
M  V30 8535 H 811.516 0.843186 3.67655 0
M  V30 8536 H 813.903 0.172367 2.94596 0
M  V30 8537 H 813.984 1.64094 1.96232 0
M  V30 8538 H 813.628 3.0431 4.06642 0
M  V30 8539 H 813.558 1.54837 5.03322 0
M  V30 8540 H 816.049 1.49054 3.47263 0
M  V30 8541 H 816.362 3.61272 6.83156 0
M  V30 8542 H 814.707 3.24287 6.14705 0
M  V30 8543 H 817.898 1.92343 4.26757 0
M  V30 8544 H 818.071 2.89096 5.79937 0
M  V30 8545 N 811.477 -1.49425 0.500989 0
M  V30 8546 C 812.702 -2.07356 -0.0425154 0
M  V30 8547 C 813.127 -1.35887 -1.30063 0
M  V30 8548 O 812.485 -0.41561 -1.76472 0
M  V30 8549 C 812.533 -3.59518 -0.279188 0
M  V30 8550 O 811.637 -3.89542 -1.3539 0
M  V30 8551 H 810.978 -0.663482 0.0262207 0
M  V30 8552 H 813.508 -1.92231 0.700607 0
M  V30 8553 H 813.518 -4.04791 -0.5107 0
M  V30 8554 H 812.193 -4.10946 0.640009 0
M  V30 8555 H 810.77 -3.56079 -1.10734 0
M  V30 8556 N 812.955 -0.234822 -1.55841 0
M  V30 8557 C 814.18 0.400741 -2.03492 0
M  V30 8558 C 814.605 1.51618 -1.11327 0
M  V30 8559 O 813.963 1.81002 -0.103922 0
M  V30 8560 C 814.011 0.897184 -3.49261 0
M  V30 8561 O 813.115 2.00764 -3.60233 0
M  V30 8562 H 812.456 0.0890023 -0.658008 0
M  V30 8563 H 814.986 -0.357345 -2.01455 0
M  V30 8564 H 814.996 1.20356 -3.89844 0
M  V30 8565 H 813.671 0.0808639 -4.15821 0
M  V30 8566 H 812.248 1.70689 -3.31541 0
M  V30 8567 N 814.433 1.57553 0.0384317 0
M  V30 8568 C 815.68 1.88841 0.731116 0
M  V30 8569 C 816.008 0.83093 1.75857 0
M  V30 8570 O 815.263 -0.169248 1.94967 0
M  V30 8571 C 815.562 3.26862 1.44554 0
M  V30 8572 C 815.228 4.47472 0.554946 0
M  V30 8573 C 813.89 4.80203 0.309621 0
M  V30 8574 C 816.242 5.21165 -0.0605204 0
M  V30 8575 C 813.57 5.8402 -0.560101 0
M  V30 8576 C 815.922 6.25905 -0.91789 0
M  V30 8577 C 814.586 6.57117 -1.17277 0
M  V30 8578 H 813.856 0.691018 0.267534 0
M  V30 8579 H 816.503 1.91498 -0.00883195 0
M  V30 8580 H 814.808 3.2015 2.25856 0
M  V30 8581 H 816.505 3.48316 1.98688 0
M  V30 8582 H 813.095 4.21874 0.756304 0
M  V30 8583 H 817.279 4.96164 0.116064 0
M  V30 8584 H 812.535 6.06583 -0.765974 0
M  V30 8585 H 816.709 6.82155 -1.40136 0
M  V30 8586 H 814.336 7.37385 -1.84843 0
M  V30 8587 N 815.911 -0.310526 1.54511 0
M  V30 8588 C 817.136 -1.07046 1.7764 0
M  V30 8589 C 817.561 -1.80488 0.529696 0
M  V30 8590 O 816.919 -1.73702 -0.519361 0
M  V30 8591 C 816.967 -2.03411 2.97752 0
M  V30 8592 O 816.071 -3.11545 2.7021 0
M  V30 8593 H 815.412 -0.307994 0.588248 0
M  V30 8594 H 817.942 -0.350848 2.01569 0
M  V30 8595 H 817.952 -2.46048 3.2546 0
M  V30 8596 H 816.627 -1.49361 3.88155 0
M  V30 8597 H 815.204 -2.7349 2.53491 0
M  V30 8598 N 817.389 -1.46805 -0.573248 0
M  V30 8599 C 818.617 -1.56191 -1.3569 0
M  V30 8600 C 819.032 -0.206362 -1.87669 0
M  V30 8601 O 818.389 0.797883 -1.64134 0
M  V30 8602 C 818.44 -2.57433 -2.53792 0
M  V30 8603 O 818.161 -3.87724 -2.03965 0
M  V30 8604 C 819.662 -2.76851 -3.4622 0
M  V30 8605 H 816.882 -0.527907 -0.414192 0
M  V30 8606 H 819.426 -1.92292 -0.695989 0
M  V30 8607 H 817.581 -2.24311 -3.15854 0
M  V30 8608 H 817.995 -4.42909 -2.80948 0
M  V30 8609 H 819.469 -3.5159 -4.25545 0
M  V30 8610 H 819.946 -1.84095 -3.98755 0
M  V30 8611 H 820.552 -3.11107 -2.89987 0
M  V30 8612 N 818.867 0.818669 -1.34668 0
M  V30 8613 C 819.815 1.95123 -1.26609 0
M  V30 8614 C 820.809 1.68611 -0.163348 0
M  V30 8615 O 822.015 1.76975 -0.328586 0
M  V30 8616 H 818.39 0.640871 -0.393431 0
M  V30 8617 H 820.361 1.99043 -2.22316 0
M  V30 8618 C 819.11 3.31697 -1.04272 0
M  V30 8619 H 818.433 3.52648 -1.8836 0
M  V30 8620 H 819.873 4.11382 -1.0267 0
M  V30 8621 C 818.332 3.35942 0.253858 0
M  V30 8622 O 818.862 3.81632 1.25378 0
M  V30 8623 N 817.068 2.89165 0.288447 0
M  V30 8624 H 816.615 2.52176 -0.525845 0
M  V30 8625 H 816.573 2.92387 1.15572 0
M  V30 8626 N 820.346 1.18468 1.03938 0
M  V30 8627 C 821.592 0.982286 1.77423 0
M  V30 8628 C 821.925 -0.48679 1.88 0
M  V30 8629 O 821.2 -1.36146 1.38905 0
M  V30 8630 C 821.483 1.63929 3.20623 0
M  V30 8631 C 821.336 3.18132 3.17982 0
M  V30 8632 C 822.655 1.3536 4.18767 0
M  V30 8633 H 819.774 0.358264 0.644062 0
M  V30 8634 H 822.416 1.46154 1.21405 0
M  V30 8635 H 820.566 1.2318 3.68455 0
M  V30 8636 H 822.238 3.68024 2.78129 0
M  V30 8637 H 820.481 3.50225 2.55978 0
M  V30 8638 H 821.152 3.5924 4.19107 0
M  V30 8639 H 823.628 1.70669 3.79488 0
M  V30 8640 H 822.504 1.83896 5.17178 0
M  V30 8641 H 822.765 0.276722 4.41233 0
M  V30 8642 N 821.824 -1.22873 0.986916 0
M  V30 8643 C 823.07 -1.91746 0.660401 0
M  V30 8644 C 823.403 -1.76738 -0.804812 0
M  V30 8645 O 822.678 -1.13246 -1.58131 0
M  V30 8646 C 822.961 -3.44156 1.05966 0
M  V30 8647 C 822.814 -3.68242 2.58298 0
M  V30 8648 C 824.133 -4.35874 0.60842 0
M  V30 8649 H 821.252 -0.696347 0.241391 0
M  V30 8650 H 823.894 -1.44867 1.22937 0
M  V30 8651 H 822.044 -3.84213 0.575534 0
M  V30 8652 H 823.716 -3.37626 3.14335 0
M  V30 8653 H 821.959 -3.12728 3.00638 0
M  V30 8654 H 822.63 -4.74956 2.81285 0
M  V30 8655 H 825.106 -4.03299 1.02417 0
M  V30 8656 H 823.982 -5.41201 0.916142 0
M  V30 8657 H 824.243 -4.39364 -0.491086 0
M  V30 8658 N 823.302 -0.75937 -1.38099 0
M  V30 8659 C 824.532 -0.328634 -2.0397 0
M  V30 8660 C 824.94 1.04989 -1.57398 0
M  V30 8661 O 824.283 1.67918 -0.744932 0
M  V30 8662 C 824.345 -0.279216 -3.58414 0
M  V30 8663 C 824.009 -1.60025 -4.28067 0
M  V30 8664 C 825.006 -2.55048 -4.53041 0
M  V30 8665 C 822.691 -1.87128 -4.66142 0
M  V30 8666 C 824.685 -3.7539 -5.15132 0
M  V30 8667 C 822.372 -3.07742 -5.27956 0
M  V30 8668 C 823.37 -4.01694 -5.52387 0
M  V30 8669 O 823.058 -5.20186 -6.12912 0
M  V30 8670 H 822.79 -0.137443 -0.66188 0
M  V30 8671 H 825.344 -1.03082 -1.77661 0
M  V30 8672 H 823.574 0.479254 -3.83719 0
M  V30 8673 H 825.263 0.122781 -4.05714 0
M  V30 8674 H 826.029 -2.35387 -4.24049 0
M  V30 8675 H 821.908 -1.14833 -4.46469 0
M  V30 8676 H 825.452 -4.48737 -5.34117 0
M  V30 8677 H 821.349 -3.27294 -5.56371 0
M  V30 8678 H 822.117 -5.20846 -6.31397 0
M  V30 8679 N 824.78 1.49157 -0.508906 0
M  V30 8680 C 826.008 2.06879 0.0293734 0
M  V30 8681 C 826.423 1.36823 1.30095 0
M  V30 8682 O 825.78 0.449034 1.7689 0
M  V30 8683 C 825.831 3.60423 0.278791 0
M  V30 8684 O 825.552 4.27844 -0.942389 0
M  V30 8685 C 827.053 4.34881 0.859825 0
M  V30 8686 H 824.273 0.67057 -0.0240184 0
M  V30 8687 H 826.817 1.91834 -0.708526 0
M  V30 8688 H 824.972 3.75145 0.966689 0
M  V30 8689 H 825.386 5.19671 -0.710097 0
M  V30 8690 H 826.86 5.43161 0.983884 0
M  V30 8691 H 827.337 3.9789 1.85958 0
M  V30 8692 H 827.943 4.24785 0.209152 0
M  V30 8693 N 826.258 0.243083 1.55714 0
M  V30 8694 C 827.486 -0.386971 2.03249 0
M  V30 8695 C 827.901 -1.51812 1.12243 0
M  V30 8696 O 827.258 -1.81992 0.136119 0
M  V30 8697 C 827.309 -0.898361 3.5016 0
M  V30 8698 O 827.03 0.187708 4.37698 0
M  V30 8699 C 828.531 -1.59949 4.13438 0
M  V30 8700 H 825.751 -0.0923981 0.664608 0
M  V30 8701 H 828.295 0.365832 2.01201 0
M  V30 8702 H 826.45 -1.60136 3.52754 0
M  V30 8703 H 826.864 -0.200001 5.24119 0
M  V30 8704 H 828.338 -1.90907 5.17937 0
M  V30 8705 H 828.815 -2.52014 3.59702 0
M  V30 8706 H 829.421 -0.941163 4.14756 0
M  V30 8707 N 827.736 -1.57571 -0.0300757 0
M  V30 8708 C 829.147 -1.77567 -0.576802 0
M  V30 8709 C 829.498 -0.874034 -1.75656 0
M  V30 8710 O 828.623 -0.0686124 -2.16291 0
M  V30 8711 C 829.218 -3.22016 -1.05315 0
M  V30 8712 C 827.777 -3.43212 -1.5454 0
M  V30 8713 C 826.924 -2.73061 -0.483033 0
M  V30 8714 H 829.875 -1.57483 0.196151 0
M  V30 8715 H 829.896 -3.28474 -1.92055 0
M  V30 8716 H 829.408 -3.87613 -0.194298 0
M  V30 8717 H 827.509 -2.82788 -2.42615 0
M  V30 8718 H 827.622 -4.5182 -1.5936 0
M  V30 8719 H 825.986 -2.36805 -0.937835 0
M  V30 8720 H 826.769 -3.4134 0.366341 0
M  V30 8721 N 829.214 0.302327 -1.54673 0
M  V30 8722 C 830.462 1.03565 -1.73547 0
M  V30 8723 C 830.783 1.87843 -0.523448 0
M  V30 8724 O 830.053 1.90367 0.462295 0
M  V30 8725 H 828.633 0.385358 -0.639928 0
M  V30 8726 H 831.295 0.333632 -1.92023 0
M  V30 8727 H 830.391 1.68952 -2.62415 0
M  V30 8728 N 830.692 1.47107 0.565454 0
M  V30 8729 C 831.92 1.56909 1.3486 0
M  V30 8730 C 832.335 0.216312 1.87557 0
M  V30 8731 O 831.692 -0.789168 1.64555 0
M  V30 8732 C 831.743 2.58776 2.52423 0
M  V30 8733 O 831.464 3.888 2.01906 0
M  V30 8734 C 832.965 2.78683 3.44747 0
M  V30 8735 H 830.185 0.530096 0.411387 0
M  V30 8736 H 832.729 1.92658 0.685782 0
M  V30 8737 H 830.884 2.25983 3.1466 0
M  V30 8738 H 831.298 4.44393 2.78595 0
M  V30 8739 H 832.772 3.53842 4.23674 0
M  V30 8740 H 833.249 1.86208 3.97773 0
M  V30 8741 H 833.855 3.12641 2.88333 0
M  V30 8742 N 832.17 -0.811516 1.35101 0
M  V30 8743 C 833.586 -1.10634 1.15031 0
M  V30 8744 C 833.786 -2.01459 -0.0405379 0
M  V30 8745 O 832.842 -2.42235 -0.712635 0
M  V30 8746 C 834.155 -1.74207 2.45097 0
M  V30 8747 C 835.703 -1.8665 2.51258 0
M  V30 8748 C 836.178 -2.53638 3.81355 0
M  V30 8749 N 837.669 -2.61128 3.82579 0
M  V30 8750 C 838.404 -3.13717 4.79968 0
M  V30 8751 N 837.9 -3.66782 5.87744 0
M  V30 8752 N 839.693 -3.12224 4.67411 0
M  V30 8753 H 831.844 -0.207641 2.11383 0
M  V30 8754 H 834.107 -0.154697 0.935293 0
M  V30 8755 H 833.813 -1.14936 3.32389 0
M  V30 8756 H 833.687 -2.73958 2.59281 0
M  V30 8757 H 836.074 -2.45066 1.64398 0
M  V30 8758 H 836.155 -0.857678 2.40993 0
M  V30 8759 H 835.799 -1.95873 4.68611 0
M  V30 8760 H 835.729 -3.55047 3.88907 0
M  V30 8761 H 838.22 -2.23527 3.04703 0
M  V30 8762 H 838.533 -4.05194 6.58056 0
M  V30 8763 H 836.878 -3.64994 5.91443 0
M  V30 8764 H 840.069 -2.70042 3.82354 0
M  V30 8765 H 840.242 -3.52903 5.43474 0
M  V30 8766 N 833.648 -1.19017 -1.03309 0
M  V30 8767 C 834.894 -0.991681 -1.769 0
M  V30 8768 C 835.227 0.476813 -1.88255 0
M  V30 8769 O 834.502 1.35407 -1.39625 0
M  V30 8770 C 834.785 -1.65627 -3.19749 0
M  V30 8771 C 834.638 -3.19813 -3.1629 0
M  V30 8772 C 835.957 -1.37579 -4.18043 0
M  V30 8773 H 833.076 -0.361674 -0.642153 0
M  V30 8774 H 835.718 -1.46795 -1.20628 0
M  V30 8775 H 833.868 -1.25132 -3.67796 0
M  V30 8776 H 835.54 -3.69494 -2.76174 0
M  V30 8777 H 833.783 -3.51578 -2.54117 0
M  V30 8778 H 834.454 -3.61457 -4.17196 0
M  V30 8779 H 836.93 -1.72679 -3.78578 0
M  V30 8780 H 835.806 -1.86636 -5.16196 0
M  V30 8781 H 836.067 -0.300118 -4.4108 0
M  V30 8782 N 835.127 1.22348 -0.993418 0
M  V30 8783 C 836.075 2.26315 -0.537052 0
M  V30 8784 C 837.069 1.643 0.412545 0
M  V30 8785 O 838.275 1.77729 0.285008 0
M  V30 8786 H 834.65 0.735792 -0.155286 0
M  V30 8787 H 836.621 2.62157 -1.42535 0
M  V30 8788 C 835.37 3.47449 0.132118 0
M  V30 8789 H 834.693 3.9543 -0.589519 0
M  V30 8790 H 836.133 4.21965 0.414884 0
M  V30 8791 C 834.592 3.07893 1.36761 0
M  V30 8792 O 835.122 3.17338 2.46291 0
M  V30 8793 N 833.328 2.62672 1.24305 0
M  V30 8794 H 832.875 2.55186 0.351826 0
M  V30 8795 H 832.833 2.36574 2.07076 0
M  V30 8796 N 836.605 0.766683 1.37694 0
M  V30 8797 C 838.021 0.445739 1.53249 0
M  V30 8798 C 838.221 -1.03935 1.72626 0
M  V30 8799 O 837.277 -1.82525 1.74473 0
M  V30 8800 C 838.59 1.2564 2.73194 0
M  V30 8801 C 840.138 1.24779 2.87053 0
M  V30 8802 C 840.613 2.04169 4.09974 0
M  V30 8803 N 842.104 2.01497 4.17077 0
M  V30 8804 C 842.839 2.5971 5.11212 0
M  V30 8805 N 842.335 3.26691 6.10938 0
M  V30 8806 N 844.128 2.49568 5.03659 0
M  V30 8807 H 836.279 1.72899 1.23368 0
M  V30 8808 H 838.542 0.733701 0.600322 0
M  V30 8809 H 838.248 2.30859 2.65324 0
M  V30 8810 H 838.122 0.882133 3.6674 0
M  V30 8811 H 840.509 0.203603 2.94397 0
M  V30 8812 H 840.59 1.66166 1.9448 0
M  V30 8813 H 840.234 3.08606 4.03392 0
M  V30 8814 H 840.164 1.60167 5.01651 0
M  V30 8815 H 842.655 1.52728 3.45662 0
M  V30 8816 H 842.968 3.68497 6.79286 0
M  V30 8817 H 841.313 3.30789 6.11231 0
M  V30 8818 H 844.504 1.96859 4.24693 0
M  V30 8819 H 844.677 2.95231 5.76839 0
M  V30 8820 N 838.083 -1.48885 0.516809 0
M  V30 8821 C 839.313 -2.06592 -0.018375 0
M  V30 8822 C 839.721 -1.37543 -1.29917 0
M  V30 8823 O 839.064 -0.452527 -1.78039 0
M  V30 8824 C 839.126 -3.58016 -0.326315 0
M  V30 8825 C 838.79 -4.48853 0.859072 0
M  V30 8826 C 839.787 -4.89422 1.75391 0
M  V30 8827 C 837.472 -4.90937 1.06235 0
M  V30 8828 C 839.466 -5.70831 2.83604 0
M  V30 8829 C 837.153 -5.72119 2.14763 0
M  V30 8830 C 838.151 -6.11972 3.03281 0
M  V30 8831 O 837.839 -6.91527 4.09934 0
M  V30 8832 H 837.571 -0.675559 0.0244023 0
M  V30 8833 H 840.125 -1.92442 0.718005 0
M  V30 8834 H 838.355 -3.70231 -1.1165 0
M  V30 8835 H 840.044 -3.97898 -0.801999 0
M  V30 8836 H 840.81 -4.57542 1.60875 0
M  V30 8837 H 836.689 -4.59409 0.382677 0
M  V30 8838 H 840.233 -6.01857 3.52724 0
M  V30 8839 H 836.13 -6.03412 2.29268 0
M  V30 8840 H 836.898 -7.0986 4.07482 0
M  V30 8841 N 839.561 -0.251338 -1.55583 0
M  V30 8842 C 840.81 0.372681 -1.98227 0
M  V30 8843 C 841.123 1.58743 -1.1428 0
M  V30 8844 O 842.329 2.28289 -1.46957 0
M  V30 8845 C 840.785 0.714439 -3.52738 0
M  V30 8846 C 840.393 -0.479168 -4.4543 0
M  V30 8847 C 842.137 1.3024 -4.04027 0
M  V30 8848 C 840.044 -0.113318 -5.91291 0
M  V30 8849 H 838.974 0.14302 -0.740312 0
M  V30 8850 H 841.625 -0.352253 -1.80087 0
M  V30 8851 H 840.007 1.49762 -3.66589 0
M  V30 8852 H 841.181 -1.25644 -4.4334 0
M  V30 8853 H 839.496 -0.982359 -4.04646 0
M  V30 8854 H 842.093 1.58953 -5.10527 0
M  V30 8855 H 842.436 2.22837 -3.51638 0
M  V30 8856 H 842.969 0.582024 -3.93519 0
M  V30 8857 H 839.708 -1.00654 -6.47726 0
M  V30 8858 H 839.228 0.627666 -5.96507 0
M  V30 8859 H 840.907 0.30293 -6.4629 0
M  V30 8860 N 841.039 1.57585 0.0217189 0
M  V30 8861 C 842.264 1.94267 0.726309 0
M  V30 8862 C 842.689 0.851904 1.67703 0
M  V30 8863 O 842.047 -0.191792 1.80283 0
M  V30 8864 C 842.095 3.30023 1.45318 0
M  V30 8865 O 841.199 3.22791 2.5667 0
M  V30 8866 H 840.54 0.634777 0.194818 0
M  V30 8867 H 843.07 2.04585 -0.0249985 0
M  V30 8868 H 843.08 3.65084 1.82147 0
M  V30 8869 H 841.755 4.08972 0.755962 0
M  V30 8870 H 840.332 2.99373 2.2233 0
M  V30 8871 N 842.517 -0.29412 1.54831 0
M  V30 8872 C 843.933 -0.640167 1.46199 0
M  V30 8873 C 844.133 -1.90426 0.658798 0
M  V30 8874 O 843.189 -2.51932 0.169228 0
M  V30 8875 C 844.502 -0.786763 2.90225 0
M  V30 8876 C 846.05 -0.882201 3.0031 0
M  V30 8877 C 846.525 -1.06074 4.45547 0
M  V30 8878 N 848.016 -1.12678 4.49286 0
M  V30 8879 C 848.751 -1.28334 5.58854 0
M  V30 8880 N 848.247 -1.40845 6.78332 0
M  V30 8881 N 850.04 -1.31277 5.46555 0
M  V30 8882 H 842.191 0.536334 2.05517 0
M  V30 8883 H 844.454 0.178363 0.93107 0
M  V30 8884 H 844.16 0.0713018 3.51628 0
M  V30 8885 H 844.034 -1.67364 3.38037 0
M  V30 8886 H 846.421 -1.73075 2.39017 0
M  V30 8887 H 846.502 0.0288405 2.55784 0
M  V30 8888 H 846.146 -0.216935 5.07437 0
M  V30 8889 H 846.076 -1.98611 4.8771 0
M  V30 8890 H 848.567 -1.04335 3.63212 0
M  V30 8891 H 848.88 -1.52566 7.57591 0
M  V30 8892 H 847.225 -1.37888 6.81184 0
M  V30 8893 H 850.416 -1.2112 4.52159 0
M  V30 8894 H 850.589 -1.43136 6.31994 0
M  V30 8895 N 843.995 -1.47404 -0.557645 0
M  V30 8896 C 844.925 -1.62736 -1.67449 0
M  V30 8897 C 845.906 -0.476824 -1.6328 0
M  V30 8898 O 847.091 -0.706108 -1.80908 0
M  V30 8899 C 844.221 -1.641 -3.06086 0
M  V30 8900 C 843.175 -2.78377 -3.25101 0
M  V30 8901 C 842.501 -2.64812 -4.6452 0
M  V30 8902 C 843.801 -4.19971 -3.10518 0
M  V30 8903 H 845.495 -2.56232 -1.54873 0
M  V30 8904 H 843.041 -1.23312 -0.743649 0
M  V30 8905 H 844.994 -1.73417 -3.84063 0
M  V30 8906 H 843.718 -0.671652 -3.19619 0
M  V30 8907 H 842.377 -2.6857 -2.49531 0
M  V30 8908 H 842.025 -1.65906 -4.74852 0
M  V30 8909 H 841.725 -3.41477 -4.78191 0
M  V30 8910 H 843.249 -2.76057 -5.44633 0
M  V30 8911 H 844.663 -4.30757 -3.78313 0
M  V30 8912 H 843.06 -4.97419 -3.35699 0
M  V30 8913 H 844.13 -4.38369 -2.0727 0
M  V30 8914 N 845.473 0.80434 -1.35529 0
M  V30 8915 C 846.403 1.93086 -1.31301 0
M  V30 8916 C 847.384 1.69068 -0.187044 0
M  V30 8917 O 848.569 1.90399 -0.382359 0
M  V30 8918 C 845.699 3.29867 -1.0865 0
M  V30 8919 C 844.653 3.68373 -2.17911 0
M  V30 8920 C 843.979 5.0334 -1.80423 0
M  V30 8921 C 845.279 3.78516 -3.59893 0
M  V30 8922 H 846.973 1.96882 -2.25561 0
M  V30 8923 H 844.519 0.945841 -1.08581 0
M  V30 8924 H 846.472 4.08281 -1.04331 0
M  V30 8925 H 845.196 3.2642 -0.108359 0
M  V30 8926 H 843.855 2.92247 -2.21331 0
M  V30 8927 H 843.503 4.96399 -0.812213 0
M  V30 8928 H 843.203 5.30074 -2.53565 0
M  V30 8929 H 844.727 5.84191 -1.77633 0
M  V30 8930 H 846.141 4.47155 -3.58783 0
M  V30 8931 H 844.538 4.16721 -4.31814 0
M  V30 8932 H 845.608 2.8001 -3.95882 0
M  V30 8933 N 846.951 1.19563 1.02676 0
M  V30 8934 C 847.861 0.950691 2.14474 0
M  V30 8935 C 848.877 -0.0900219 1.73767 0
M  V30 8936 O 850.053 0.0951063 2.01175 0
M  V30 8937 C 847.118 0.494917 3.43149 0
M  V30 8938 C 846.179 1.60527 3.98158 0
M  V30 8939 C 845.412 1.17115 5.20692 0
M  V30 8940 O 845.635 0.0355937 5.70389 0
M  V30 8941 O 844.569 1.97454 5.68591 0
M  V30 8942 H 848.395 1.88651 2.38001 0
M  V30 8943 H 845.98 0.978635 1.12885 0
M  V30 8944 H 847.862 0.249492 4.20661 0
M  V30 8945 H 846.537 -0.412434 3.21062 0
M  V30 8946 H 845.444 1.90487 3.21971 0
M  V30 8947 H 846.777 2.48925 4.24614 0
M  V30 8948 N 848.429 -1.21819 0.999893 0
M  V30 8949 C 849.392 -2.22227 0.561044 0
M  V30 8950 C 850.392 -1.56722 -0.359858 0
M  V30 8951 O 851.582 -1.73546 -0.150848 0
M  V30 8952 C 848.714 -3.40409 -0.182987 0
M  V30 8953 H 849.907 -2.62567 1.44909 0
M  V30 8954 H 847.46 -1.34991 0.78785 0
M  V30 8955 H 848.195 -3.05551 -1.08671 0
M  V30 8956 H 847.98 -3.89171 0.47833 0
M  V30 8957 H 849.47 -4.14856 -0.477952 0
M  V30 8958 N 849.908 -0.773975 -1.37286 0
M  V30 8959 C 851.324 -0.45386 -1.53011 0
M  V30 8960 C 851.524 1.03018 -1.73175 0
M  V30 8961 O 850.58 1.81597 -1.75438 0
M  V30 8962 C 851.893 -1.27087 -2.72524 0
M  V30 8963 C 853.441 -1.26299 -2.86387 0
M  V30 8964 C 853.916 -2.0634 -4.08886 0
M  V30 8965 N 855.407 -2.03706 -4.16003 0
M  V30 8966 C 856.142 -2.62418 -5.09828 0
M  V30 8967 N 855.638 -3.29926 -6.09197 0
M  V30 8968 N 857.431 -2.52236 -5.02328 0
M  V30 8969 H 849.582 -1.73551 -1.22449 0
M  V30 8970 H 851.845 -0.736874 -0.596423 0
M  V30 8971 H 851.551 -2.32263 -2.64096 0
M  V30 8972 H 851.425 -0.90157 -3.66267 0
M  V30 8973 H 853.812 -0.219213 -2.94285 0
M  V30 8974 H 853.893 -1.67195 -1.93596 0
M  V30 8975 H 853.537 -3.10741 -4.01749 0
M  V30 8976 H 853.467 -1.62825 -5.00795 0
M  V30 8977 H 855.958 -1.54559 -3.44848 0
M  V30 8978 H 856.271 -3.72095 -6.77322 0
M  V30 8979 H 854.616 -3.34026 -6.09469 0
M  V30 8980 H 857.807 -1.99108 -4.23643 0
M  V30 8981 H 857.98 -2.98286 -5.75265 0
M  V30 8982 N 851.386 1.48609 -0.524698 0
M  V30 8983 C 852.318 2.27508 0.278 0
M  V30 8984 C 853.331 1.35042 0.909258 0
M  V30 8985 O 854.52 1.60136 0.788592 0
M  V30 8986 C 851.62 3.08247 1.40843 0
M  V30 8987 C 850.793 4.28455 0.880083 0
M  V30 8988 C 849.852 4.91048 1.891 0
M  V30 8989 O 848.878 5.5042 1.45005 0
M  V30 8990 N 850.08 4.82816 3.22288 0
M  V30 8991 H 852.845 2.97037 -0.398642 0
M  V30 8992 H 850.406 1.57876 -0.358698 0
M  V30 8993 H 852.398 3.46992 2.08276 0
M  V30 8994 H 850.968 2.41173 1.98883 0
M  V30 8995 H 850.188 3.94189 0.0299228 0
M  V30 8996 H 851.476 5.06279 0.505881 0
M  V30 8997 H 850.874 4.3572 3.60783 0
M  V30 8998 H 849.431 5.25676 3.85368 0
M  V30 8999 N 852.864 0.259585 1.55447 0
M  V30 9000 C 854.092 -0.365392 2.03648 0
M  V30 9001 C 854.507 -1.50613 1.13847 0
M  V30 9002 O 853.864 -1.81837 0.155414 0
M  V30 9003 C 853.915 -0.861172 3.51093 0
M  V30 9004 O 853.636 0.234121 4.37474 0
M  V30 9005 C 855.137 -1.55555 4.15111 0
M  V30 9006 H 852.357 -0.0853439 0.66555 0
M  V30 9007 H 854.901 0.387151 2.00802 0
M  V30 9008 H 853.056 -1.56385 3.54433 0
M  V30 9009 H 853.47 -0.1444 5.24301 0
M  V30 9010 H 854.944 -1.85403 5.19932 0
M  V30 9011 H 855.421 -2.48185 3.62355 0
M  V30 9012 H 856.027 -0.89712 4.15731 0
M  V30 9013 N 854.342 -1.57594 -0.0133615 0
M  V30 9014 C 855.252 -2.10991 -1.02566 0
M  V30 9015 C 856.268 -1.05208 -1.3859 0
M  V30 9016 O 857.444 -1.37034 -1.47593 0
M  V30 9017 C 854.509 -2.59165 -2.30292 0
M  V30 9018 C 853.57 -3.79495 -2.00704 0
M  V30 9019 C 852.803 -4.25361 -3.22341 0
M  V30 9020 O 853.026 -3.70645 -4.33565 0
M  V30 9021 O 851.96 -5.17649 -3.07121 0
M  V30 9022 H 855.786 -2.97678 -0.601806 0
M  V30 9023 H 853.371 -1.47598 -0.23135 0
M  V30 9024 H 855.253 -2.90409 -3.05354 0
M  V30 9025 H 853.928 -1.75582 -2.71942 0
M  V30 9026 H 852.835 -3.53245 -1.23161 0
M  V30 9027 H 854.168 -4.64109 -1.639 0
M  V30 9028 N 855.82 0.285905 -1.54985 0
M  V30 9029 C 856.75 1.35752 -1.89983 0
M  V30 9030 C 857.731 1.52163 -0.760295 0
M  V30 9031 O 858.916 1.65421 -1.01733 0
M  V30 9032 C 856.046 2.71925 -2.16042 0
M  V30 9033 C 855 2.70261 -3.31878 0
M  V30 9034 C 854.326 4.09864 -3.43388 0
M  V30 9035 C 855.626 2.30667 -4.68604 0
M  V30 9036 H 857.32 1.06709 -2.79738 0
M  V30 9037 H 854.866 0.511884 -1.34595 0
M  V30 9038 H 856.819 3.46992 -2.39113 0
M  V30 9039 H 855.543 3.02523 -1.23074 0
M  V30 9040 H 854.202 1.97651 -3.08755 0
M  V30 9041 H 853.85 4.37664 -2.47909 0
M  V30 9042 H 853.55 4.09648 -4.21262 0
M  V30 9043 H 855.074 4.86689 -3.68736 0
M  V30 9044 H 856.488 2.95453 -4.91305 0
M  V30 9045 H 854.885 2.41637 -5.49301 0
M  V30 9046 H 855.955 1.25793 -4.68299 0
M  V30 9047 N 857.298 1.47698 0.54982 0
M  V30 9048 C 858.208 1.63386 1.68351 0
M  V30 9049 C 859.224 0.516583 1.66155 0
M  V30 9050 O 860.4 0.785088 1.85468 0
M  V30 9051 C 857.465 1.6513 3.04849 0
M  V30 9052 C 856.526 2.88338 3.18056 0
M  V30 9053 C 855.759 2.8999 4.48042 0
M  V30 9054 O 855.982 2.00633 5.3395 0
M  V30 9055 O 854.916 3.81938 4.65196 0
M  V30 9056 H 858.742 2.59329 1.58057 0
M  V30 9057 H 856.327 1.30869 0.72067 0
M  V30 9058 H 858.209 1.68913 3.86065 0
M  V30 9059 H 856.884 0.723555 3.1551 0
M  V30 9060 H 855.791 2.90097 2.36209 0
M  V30 9061 H 857.124 3.80431 3.12302 0
M  V30 9062 N 858.776 -0.797141 1.35954 0
M  V30 9063 C 859.709 -1.91567 1.24005 0
M  V30 9064 C 860.687 -1.62112 0.125868 0
M  V30 9065 O 861.871 -1.86167 0.295638 0
M  V30 9066 C 858.998 -3.26204 0.911535 0
M  V30 9067 C 858.044 -3.74598 2.03909 0
M  V30 9068 S 858.877 -3.91276 3.656 0
M  V30 9069 C 860.033 -5.288 3.34846 0
M  V30 9070 H 860.266 -2.0141 2.18681 0
M  V30 9071 H 857.799 -0.955542 1.2128 0
M  V30 9072 H 859.757 -4.03979 0.728805 0
M  V30 9073 H 858.418 -3.14095 -0.0173159 0
M  V30 9074 H 857.611 -4.72137 1.7636 0
M  V30 9075 H 857.213 -3.03849 2.18064 0
M  V30 9076 H 859.505 -6.13117 2.8826 0
M  V30 9077 H 860.448 -5.61347 4.31619 0
M  V30 9078 H 860.856 -4.95534 2.70382 0
M  V30 9079 N 860.254 -1.20106 -1.0204 0
M  V30 9080 C 861.217 -0.948261 -2.08664 0
M  V30 9081 C 862.217 0.0746753 -1.60627 0
M  V30 9082 O 863.407 -0.160981 -1.73455 0
M  V30 9083 C 860.539 -0.426854 -3.38217 0
M  V30 9084 H 861.732 -1.894 -2.32524 0
M  V30 9085 H 859.285 -1.0159 -1.18782 0
M  V30 9086 H 860.02 0.524532 -3.2003 0
M  V30 9087 H 859.805 -1.16451 -3.74408 0
M  V30 9088 H 861.295 -0.269346 -4.1673 0
M  V30 9089 N 861.732 1.21287 -1.00634 0
M  V30 9090 C 863.009 1.86 -0.605257 0
M  V30 9091 C 863.389 1.90139 0.917072 0
M  V30 9092 O 862.737 1.40169 1.80458 0
M  V30 9093 C 862.947 3.26183 -1.24119 0
M  V30 9094 C 864.295 4.02562 -1.35015 0
M  V30 9095 O 865.319 3.35499 -1.19661 0
M  V30 9096 O 864.178 5.22638 -1.59726 0
M  V30 9097 H 861.272 0.800549 -0.207486 0
M  V30 9098 H 863.818 1.28959 -1.10307 0
M  V30 9099 H 862.59 3.17878 -2.28186 0
M  V30 9100 H 862.213 3.90845 -0.729807 0
M  V30 9101 N 863.21 0.781244 1.36873 0
M  V30 9102 C 864.14 0.188128 2.32741 0
M  V30 9103 C 865.121 -0.672326 1.56249 0
M  V30 9104 O 866.306 -0.607835 1.84442 0
M  V30 9105 C 863.436 -0.684341 3.40491 0
M  V30 9106 C 862.39 0.0755641 4.27933 0
M  V30 9107 C 861.716 -0.916968 5.26779 0
M  V30 9108 C 863.016 1.26006 5.06873 0
M  V30 9109 H 864.71 0.989016 2.82593 0
M  V30 9110 H 862.256 0.477038 1.35869 0
M  V30 9111 H 864.209 -1.10915 4.06541 0
M  V30 9112 H 862.933 -1.51785 2.89187 0
M  V30 9113 H 861.592 0.481258 3.63427 0
M  V30 9114 H 861.24 -1.74528 4.71751 0
M  V30 9115 H 860.94 -0.413 5.86147 0
M  V30 9116 H 862.464 -1.34052 5.95703 0
M  V30 9117 H 863.878 0.911425 5.66009 0
M  V30 9118 H 862.275 1.69676 5.75613 0
M  V30 9119 H 863.345 2.05948 4.38991 0
M  V30 9120 N 864.689 -1.48329 0.532571 0
M  V30 9121 C 865.637 -2.31336 -0.242133 0
M  V30 9122 C 866.631 -1.41391 -0.933006 0
M  V30 9123 O 867.837 -1.58284 -0.857096 0
M  V30 9124 H 864.212 -0.745724 -0.0969536 0
M  V30 9125 H 866.183 -2.94555 0.477504 0
M  V30 9126 C 864.932 -3.23501 -1.27446 0
M  V30 9127 H 864.255 -3.92659 -0.752261 0
M  V30 9128 H 865.695 -3.84461 -1.78789 0
M  V30 9129 C 864.154 -2.45288 -2.30944 0
M  V30 9130 O 864.684 -2.17955 -3.37429 0
M  V30 9131 N 862.89 -2.06737 -2.04226 0
M  V30 9132 H 862.437 -2.29166 -1.17647 0
M  V30 9133 H 862.395 -1.54719 -2.73696 0
M  V30 9134 N 866.167 -0.267825 -1.55308 0
M  V30 9135 C 867.414 0.351036 -1.99434 0
M  V30 9136 C 867.742 1.56406 -1.15618 0
M  V30 9137 O 866.997 1.94548 -0.212045 0
M  V30 9138 C 867.296 0.784247 -3.48689 0
M  V30 9139 C 866.962 -0.323328 -4.49739 0
M  V30 9140 C 865.624 -0.627467 -4.77091 0
M  V30 9141 C 867.976 -1.07002 -5.10098 0
M  V30 9142 C 865.304 -1.682 -5.62073 0
M  V30 9143 C 867.656 -2.11422 -5.96224 0
M  V30 9144 C 866.32 -2.42479 -6.21901 0
M  V30 9145 H 865.59 0.128453 -0.729781 0
M  V30 9146 H 868.237 -0.380018 -1.87692 0
M  V30 9147 H 866.542 1.59485 -3.57871 0
M  V30 9148 H 868.239 1.2737 -3.80234 0
M  V30 9149 H 864.829 -0.0761528 -4.28532 0
M  V30 9150 H 869.013 -0.848302 -4.88996 0
M  V30 9151 H 864.269 -1.92772 -5.80215 0
M  V30 9152 H 868.443 -2.69759 -6.4203 0
M  V30 9153 H 866.07 -3.24328 -6.87543 0
M  V30 9154 N 867.645 1.57599 0.00500368 0
M  V30 9155 C 868.892 1.90349 0.690895 0
M  V30 9156 C 869.22 0.868045 1.74055 0
M  V30 9157 O 868.475 -0.127855 1.95282 0
M  V30 9158 C 868.774 3.29855 1.37588 0
M  V30 9159 C 868.44 4.48548 0.459906 0
M  V30 9160 C 867.102 4.80752 0.207693 0
M  V30 9161 C 869.454 5.20919 -0.171054 0
M  V30 9162 C 866.782 5.82701 -0.683855 0
M  V30 9163 C 869.134 6.23818 -1.05045 0
M  V30 9164 C 867.798 6.54481 -1.31189 0
M  V30 9165 H 867.068 0.696538 0.252816 0
M  V30 9166 H 869.715 1.91436 -0.0494495 0
M  V30 9167 H 868.02 3.24869 2.19015 0
M  V30 9168 H 869.717 3.52452 1.91255 0
M  V30 9169 H 866.307 4.23384 0.666648 0
M  V30 9170 H 870.491 4.96299 0.0107942 0
M  V30 9171 H 865.747 6.04822 -0.894467 0
M  V30 9172 H 869.921 6.79029 -1.54574 0
M  V30 9173 H 867.548 7.33299 -2.00442 0
M  V30 9174 N 869.123 -0.277682 1.55134 0
M  V30 9175 C 870.351 -1.02826 1.7954 0
M  V30 9176 C 870.766 -1.80105 0.566373 0
M  V30 9177 O 870.123 -1.76491 -0.464448 0
M  V30 9178 C 870.174 -1.99053 3.01762 0
M  V30 9179 O 869.895 -1.24906 4.19917 0
M  V30 9180 C 871.396 -2.85961 3.38735 0
M  V30 9181 H 868.616 -0.303958 0.598206 0
M  V30 9182 H 871.16 -0.309884 2.02138 0
M  V30 9183 H 869.315 -2.66359 2.81303 0
M  V30 9184 H 869.729 -1.89725 4.88983 0
M  V30 9185 H 871.203 -3.49286 4.27438 0
M  V30 9186 H 871.68 -3.55486 2.57928 0
M  V30 9187 H 872.286 -2.24152 3.61436 0
M  V30 9188 N 870.601 -1.47988 -0.541979 0
M  V30 9189 C 871.531 -1.64503 -1.65713 0
M  V30 9190 C 872.512 -0.494116 -1.62765 0
M  V30 9191 O 873.697 -0.725256 -1.80149 0
M  V30 9192 C 870.827 -1.67337 -3.04328 0
M  V30 9193 C 869.781 -2.81809 -3.2213 0
M  V30 9194 C 869.107 -2.69724 -4.61685 0
M  V30 9195 C 870.407 -4.23241 -3.06046 0
M  V30 9196 H 872.101 -2.5786 -1.52147 0
M  V30 9197 H 869.647 -1.24094 -0.730529 0
M  V30 9198 H 871.6 -1.77481 -3.82202 0
M  V30 9199 H 870.324 -0.705514 -3.18889 0
M  V30 9200 H 868.983 -2.71201 -2.46669 0
M  V30 9201 H 868.631 -1.70934 -4.73065 0
M  V30 9202 H 868.331 -3.4653 -4.74543 0
M  V30 9203 H 869.855 -2.81818 -5.41674 0
M  V30 9204 H 871.269 -4.34746 -3.73723 0
M  V30 9205 H 869.666 -5.00952 -3.30405 0
M  V30 9206 H 870.736 -4.40543 -2.02609 0
M  V30 9207 N 872.079 0.78992 -1.36375 0
M  V30 9208 C 873.026 1.90254 -1.3066 0
M  V30 9209 C 873.996 1.65171 -0.17539 0
M  V30 9210 O 875.181 1.87338 -0.361824 0
M  V30 9211 C 872.321 3.27057 -1.10125 0
M  V30 9212 C 871.434 3.64215 -2.32317 0
M  V30 9213 C 870.569 4.90134 -2.04798 0
M  V30 9214 C 869.608 5.19969 -3.22953 0
M  V30 9215 N 868.745 6.37071 -2.95102 0
M  V30 9216 H 873.585 1.94474 -2.25796 0
M  V30 9217 H 871.122 0.951022 -1.12223 0
M  V30 9218 H 873.08 4.05947 -0.962453 0
M  V30 9219 H 871.71 3.22261 -0.186444 0
M  V30 9220 H 870.762 2.80454 -2.57002 0
M  V30 9221 H 872.074 3.82212 -3.20492 0
M  V30 9222 H 871.228 5.76888 -1.87845 0
M  V30 9223 H 869.967 4.74205 -1.13932 0
M  V30 9224 H 868.972 4.31699 -3.40465 0
M  V30 9225 H 870.197 5.37817 -4.14644 0
M  V30 9226 H 868.143 6.22535 -2.06848 0
M  V30 9227 H 868.06 6.55398 -3.76815 0
M  V30 9228 H 869.328 7.26808 -2.81727 0
M  V30 9229 N 873.557 1.20646 1.01402 0
M  V30 9230 C 874.787 1.04238 1.78376 0
M  V30 9231 C 875.195 -0.411327 1.84675 0
M  V30 9232 O 874.538 -1.29734 1.30057 0
M  V30 9233 C 874.6 1.55349 3.24202 0
M  V30 9234 C 874.264 3.03684 3.41504 0
M  V30 9235 C 875.261 4.01318 3.30514 0
M  V30 9236 C 872.946 3.42698 3.67237 0
M  V30 9237 C 874.94 5.35956 3.45007 0
M  V30 9238 C 872.627 4.77491 3.81373 0
M  V30 9239 C 873.625 5.73929 3.70263 0
M  V30 9240 O 873.313 7.06277 3.83963 0
M  V30 9241 H 873.045 0.366978 0.567718 0
M  V30 9242 H 875.599 1.60235 1.28506 0
M  V30 9243 H 873.829 0.93739 3.75166 0
M  V30 9244 H 875.518 1.34921 3.8282 0
M  V30 9245 H 876.284 3.72522 3.10568 0
M  V30 9246 H 872.163 2.68175 3.74971 0
M  V30 9247 H 875.707 6.11212 3.36252 0
M  V30 9248 H 871.604 5.05977 4.00821 0
M  V30 9249 H 872.372 7.13561 4.00965 0
M  V30 9250 N 875.035 -1.20752 1.01276 0
M  V30 9251 C 875.982 -2.234 0.579732 0
M  V30 9252 C 876.952 -1.61256 -0.398206 0
M  V30 9253 O 878.137 -1.8845 -0.29851 0
M  V30 9254 C 875.277 -3.45008 -0.0797006 0
M  V30 9255 C 874.39 -4.21597 0.942343 0
M  V30 9256 C 873.525 -5.30591 0.254364 0
M  V30 9257 C 872.564 -5.98919 1.26343 0
M  V30 9258 N 871.701 -6.99511 0.602384 0
M  V30 9259 H 876.541 -2.59801 1.45971 0
M  V30 9260 H 874.078 -1.27663 0.730787 0
M  V30 9261 H 876.036 -4.1444 -0.479125 0
M  V30 9262 H 874.666 -3.09312 -0.923354 0
M  V30 9263 H 873.718 -3.51268 1.45996 0
M  V30 9264 H 875.03 -4.68576 1.70992 0
M  V30 9265 H 874.184 -6.06368 -0.200763 0
M  V30 9266 H 872.923 -4.84639 -0.545553 0
M  V30 9267 H 871.928 -5.21906 1.72898 0
M  V30 9268 H 873.153 -6.46957 2.06456 0
M  V30 9269 H 871.099 -6.55759 -0.177734 0
M  V30 9270 H 871.016 -7.44597 1.30809 0
M  V30 9271 H 872.284 -7.79313 0.17072 0
M  V30 9272 N 876.513 -0.788492 -1.36457 0
M  V30 9273 C 877.463 -0.159377 -2.27442 0
M  V30 9274 C 878.447 0.656146 -1.46913 0
M  V30 9275 O 879.639 0.516372 -1.693 0
M  V30 9276 C 876.768 0.705703 -3.35968 0
M  V30 9277 C 875.854 -0.11856 -4.23934 0
M  V30 9278 N 876.245 -1.1726 -4.9202 0
M  V30 9279 C 874.543 0.102752 -4.45882 0
M  V30 9280 C 875.244 -1.6743 -5.57083 0
M  V30 9281 N 874.22 -0.983682 -5.34626 0
M  V30 9282 H 878.022 -0.96614 -2.77566 0
M  V30 9283 H 875.536 -0.627864 -1.49772 0
M  V30 9284 H 877.533 1.17231 -4.00078 0
M  V30 9285 H 876.193 1.51102 -2.87399 0
M  V30 9286 H 877.204 -1.55502 -4.94004 0
M  V30 9287 H 873.881 0.878651 -4.08149 0
M  V30 9288 H 875.271 -2.55423 -6.21457 0
M  V30 9289 N 877.991 1.48044 -0.54043 0
M  V30 9290 C 879.237 2.02797 -0.0101718 0
M  V30 9291 C 879.57 1.41565 1.32939 0
M  V30 9292 O 878.845 0.565139 1.86109 0
M  V30 9293 C 879.128 3.59959 0.100758 0
M  V30 9294 C 878.981 4.31654 -1.26471 0
M  V30 9295 C 880.3 4.32347 0.822455 0
M  V30 9296 H 877.419 0.736982 -0.00517052 0
M  V30 9297 H 880.061 1.76656 -0.69948 0
M  V30 9298 H 878.211 3.82363 0.687824 0
M  V30 9299 H 879.883 4.20639 -1.89369 0
M  V30 9300 H 878.126 3.92663 -1.84386 0
M  V30 9301 H 878.797 5.401 -1.13998 0
M  V30 9302 H 881.273 4.14835 0.324164 0
M  V30 9303 H 880.149 5.41978 0.868993 0
M  V30 9304 H 880.41 4.00369 1.87501 0
M  V30 9305 N 879.47 0.276058 1.55163 0
M  V30 9306 C 880.38 -0.621066 2.2623 0
M  V30 9307 C 881.396 -1.16931 1.28853 0
M  V30 9308 O 882.572 -1.1994 1.61791 0
M  V30 9309 C 879.637 -1.78824 2.97023 0
M  V30 9310 C 878.698 -1.27657 4.09881 0
M  V30 9311 C 877.931 -2.38812 4.77289 0
M  V30 9312 O 878.154 -3.58188 4.43912 0
M  V30 9313 O 877.088 -2.06915 5.65217 0
M  V30 9314 H 880.914 -0.0453346 3.03666 0
M  V30 9315 H 878.499 0.0434275 1.49337 0
M  V30 9316 H 880.381 -2.46877 3.41511 0
M  V30 9317 H 879.056 -2.35104 2.22503 0
M  V30 9318 H 877.963 -0.56248 3.69847 0
M  V30 9319 H 879.296 -0.759509 4.86305 0
M  V30 9320 N 880.948 -1.576 0.00335426 0
M  V30 9321 C 882.364 -1.55653 -0.352766 0
M  V30 9322 C 882.564 -1.00632 -1.74572 0
M  V30 9323 O 881.62 -0.641621 -2.44212 0
M  V30 9324 C 882.933 -2.99858 -0.224929 0
M  V30 9325 C 884.481 -3.11563 -0.299619 0
M  V30 9326 C 884.956 -4.57559 -0.200868 0
M  V30 9327 N 886.447 -4.62477 -0.258663 0
M  V30 9328 C 887.182 -5.73031 -0.205644 0
M  V30 9329 N 886.678 -6.92723 -0.103027 0
M  V30 9330 N 888.471 -5.61509 -0.257754 0
M  V30 9331 H 880.622 -1.91703 0.914539 0
M  V30 9332 H 882.885 -0.88068 0.350865 0
M  V30 9333 H 882.591 -3.43964 0.733595 0
M  V30 9334 H 882.465 -3.63547 -1.00564 0
M  V30 9335 H 884.852 -2.67384 -1.24859 0
M  V30 9336 H 884.933 -2.50644 0.511025 0
M  V30 9337 H 884.577 -5.02413 0.744572 0
M  V30 9338 H 884.507 -5.16428 -1.03004 0
M  V30 9339 H 886.998 -3.76375 -0.339168 0
M  V30 9340 H 887.311 -7.7277 -0.0685593 0
M  V30 9341 H 885.656 -6.94966 -0.0686069 0
M  V30 9342 H 888.847 -4.66892 -0.336142 0
M  V30 9343 H 889.02 -6.4765 -0.21297 0
M  V30 9344 N 882.426 0.269451 -1.5528 0
M  V30 9345 C 883.336 1.35511 -1.91505 0
M  V30 9346 C 884.352 1.53854 -0.812712 0
M  V30 9347 O 885.528 1.67912 -1.1121 0
M  V30 9348 C 882.593 2.6937 -2.18267 0
M  V30 9349 C 881.654 2.59743 -3.41807 0
M  V30 9350 C 880.887 3.87219 -3.67283 0
M  V30 9351 O 881.11 4.88066 -2.95208 0
M  V30 9352 O 880.044 3.87209 -4.60818 0
M  V30 9353 H 883.87 1.07785 -2.8393 0
M  V30 9354 H 881.455 0.468282 -1.41871 0
M  V30 9355 H 883.337 3.48513 -2.36889 0
M  V30 9356 H 882.012 2.96874 -1.29024 0
M  V30 9357 H 880.919 1.78964 -3.28516 0
M  V30 9358 H 882.252 2.37188 -4.3128 0
M  V30 9359 N 883.904 1.48273 0.534124 0
M  V30 9360 C 884.836 1.5857 1.65494 0
M  V30 9361 C 885.849 0.470266 1.5586 0
M  V30 9362 O 887.038 0.740928 1.62396 0
M  V30 9363 C 884.138 1.49554 3.04117 0
M  V30 9364 C 883.311 2.76066 3.39273 0
M  V30 9365 C 882.37 2.60562 4.57159 0
M  V30 9366 O 881.396 3.34438 4.60587 0
M  V30 9367 N 882.598 1.69906 5.55079 0
M  V30 9368 H 885.363 2.55226 1.57099 0
M  V30 9369 H 882.924 1.44944 0.721303 0
M  V30 9370 H 884.916 1.36882 3.80848 0
M  V30 9371 H 883.486 0.608895 3.06613 0
M  V30 9372 H 882.706 3.03332 2.51761 0
M  V30 9373 H 883.994 3.60006 3.59546 0
M  V30 9374 H 883.392 1.09079 5.55084 0
M  V30 9375 H 881.949 1.63175 6.31044 0
M  V30 9376 N 885.382 -0.782676 1.36792 0
M  V30 9377 C 886.329 -1.89558 1.31667 0
M  V30 9378 C 887.299 -1.65076 0.184147 0
M  V30 9379 O 888.484 -1.87143 0.371753 0
M  V30 9380 C 885.624 -3.26469 1.11858 0
M  V30 9381 C 884.737 -3.62978 2.34245 0
M  V30 9382 C 883.872 -4.89041 2.07394 0
M  V30 9383 C 882.911 -5.18249 3.25706 0
M  V30 9384 N 882.048 -6.35497 2.98476 0
M  V30 9385 H 886.888 -1.93274 2.26824 0
M  V30 9386 H 884.425 -0.945057 1.12726 0
M  V30 9387 H 886.383 -4.05431 0.983968 0
M  V30 9388 H 885.013 -3.22158 0.203531 0
M  V30 9389 H 884.065 -2.79087 2.58485 0
M  V30 9390 H 885.377 -3.80507 3.22514 0
M  V30 9391 H 884.531 -5.75883 1.90901 0
M  V30 9392 H 883.27 -4.73594 1.16446 0
M  V30 9393 H 882.275 -4.29887 3.4275 0
M  V30 9394 H 883.5 -5.35611 4.1749 0
M  V30 9395 H 881.446 -6.21429 2.10146 0
M  V30 9396 H 881.363 -6.5339 3.80286 0
M  V30 9397 H 882.631 -7.25304 2.85577 0
M  V30 9398 N 886.86 -1.21182 -1.00761 0
M  V30 9399 C 888.09 -1.05182 -1.77821 0
M  V30 9400 C 888.498 0.401527 -1.8489 0
M  V30 9401 O 887.841 1.29042 -1.30743 0
M  V30 9402 C 887.903 -1.57066 -3.23374 0
M  V30 9403 C 887.567 -3.05491 -3.39889 0
M  V30 9404 C 888.564 -4.03065 -3.28381 0
M  V30 9405 C 886.249 -3.44641 -3.65415 0
M  V30 9406 C 888.243 -5.37778 -3.4216 0
M  V30 9407 C 885.93 -4.79507 -3.78836 0
M  V30 9408 C 886.928 -5.75884 -3.67214 0
M  V30 9409 O 886.616 -7.08304 -3.80212 0
M  V30 9410 H 886.348 -0.369983 -0.565763 0
M  V30 9411 H 888.902 -1.60914 -1.27655 0
M  V30 9412 H 887.132 -0.957273 -3.74664 0
M  V30 9413 H 888.821 -1.36949 -3.82099 0
M  V30 9414 H 889.587 -3.74163 -3.08588 0
M  V30 9415 H 885.466 -2.7016 -3.73544 0
M  V30 9416 H 889.01 -6.12987 -3.33005 0
M  V30 9417 H 884.907 -5.08096 -3.98132 0
M  V30 9418 H 885.675 -7.15677 -3.97175 0
M  V30 9419 N 888.338 1.20213 -1.01915 0
M  V30 9420 C 889.288 2.20957 -0.562327 0
M  V30 9421 C 890.272 1.56258 0.383704 0
M  V30 9422 O 891.464 1.75794 0.206255 0
M  V30 9423 C 888.593 3.43167 0.0954035 0
M  V30 9424 C 887.679 4.15028 -0.872487 0
M  V30 9425 N 888.07 4.63231 -2.03103 0
M  V30 9426 C 886.368 4.4057 -0.69385 0
M  V30 9427 C 887.069 5.18307 -2.64069 0
M  V30 9428 N 886.045 5.08522 -1.9211 0
M  V30 9429 H 889.847 2.55894 -1.44553 0
M  V30 9430 H 887.361 1.36178 -0.884831 0
M  V30 9431 H 889.358 4.14569 0.440232 0
M  V30 9432 H 888.018 3.09734 0.974413 0
M  V30 9433 H 889.029 4.58365 -2.41086 0
M  V30 9434 H 885.706 4.17276 0.136889 0
M  V30 9435 H 887.096 5.65961 -3.6213 0
M  V30 9436 N 889.816 0.795718 1.36037 0
M  V30 9437 C 890.748 0.156336 2.28666 0
M  V30 9438 C 891.761 -0.638075 1.49775 0
M  V30 9439 O 892.95 -0.472222 1.7214 0
M  V30 9440 C 890.05 -0.801417 3.29288 0
M  V30 9441 C 889.223 -0.0557118 4.37365 0
M  V30 9442 C 888.282 -0.930338 5.1791 0
M  V30 9443 O 887.308 -0.385266 5.67895 0
M  V30 9444 N 888.51 -2.25382 5.34961 0
M  V30 9445 H 891.275 0.952033 2.84177 0
M  V30 9446 H 888.836 0.650189 1.48271 0
M  V30 9447 H 890.828 -1.39051 3.80062 0
M  V30 9448 H 889.398 -1.49796 2.74372 0
M  V30 9449 H 888.618 0.714508 3.87671 0
M  V30 9450 H 889.906 0.458633 5.06729 0
M  V30 9451 H 889.304 -2.72073 4.95977 0
M  V30 9452 H 887.861 -2.79241 5.88955 0
M  V30 9453 N 891.294 -1.47756 0.548274 0
M  V30 9454 C 892.224 -2.32702 -0.19284 0
M  V30 9455 C 893.205 -1.43237 -0.917457 0
M  V30 9456 O 894.39 -1.72103 -0.89967 0
M  V30 9457 C 891.52 -3.24831 -1.22891 0
M  V30 9458 C 890.474 -4.23466 -0.621312 0
M  V30 9459 C 889.8 -5.04856 -1.76137 0
M  V30 9460 C 891.1 -5.20616 0.419055 0
M  V30 9461 H 892.794 -2.94914 0.516323 0
M  V30 9462 H 890.34 -1.41818 0.24975 0
M  V30 9463 H 892.293 -3.83094 -1.75547 0
M  V30 9464 H 891.017 -2.60656 -1.9679 0
M  V30 9465 H 889.676 -3.66416 -0.116123 0
M  V30 9466 H 889.324 -4.37091 -2.48918 0
M  V30 9467 H 889.024 -5.71629 -1.36065 0
M  V30 9468 H 890.548 -5.65976 -2.29136 0
M  V30 9469 H 891.962 -5.73296 -0.0211034 0
M  V30 9470 H 890.359 -5.95543 0.738163 0
M  V30 9471 H 891.429 -4.66638 1.31822 0
M  V30 9472 N 892.772 -0.284283 -1.55015 0
M  V30 9473 C 893.704 0.63258 -2.20298 0
M  V30 9474 C 894.717 1.11045 -1.1905 0
M  V30 9475 O 895.906 1.03078 -1.4573 0
M  V30 9476 C 893.006 1.87599 -2.82241 0
M  V30 9477 C 892.179 1.5434 -4.09265 0
M  V30 9478 C 891.238 2.64023 -4.55169 0
M  V30 9479 O 890.264 2.29821 -5.20741 0
M  V30 9480 N 891.466 3.94255 -4.26079 0
M  V30 9481 H 894.231 0.0737928 -2.99609 0
M  V30 9482 H 891.792 -0.105767 -1.61554 0
M  V30 9483 H 893.784 2.60289 -3.0989 0
M  V30 9484 H 892.354 2.3436 -2.06868 0
M  V30 9485 H 891.574 0.649912 -3.88806 0
M  V30 9486 H 892.862 1.29634 -4.92009 0
M  V30 9487 H 892.26 4.24859 -3.73512 0
M  V30 9488 H 890.817 4.63295 -4.58477 0
M  V30 9489 N 894.251 1.57596 -0.0117121 0
M  V30 9490 C 895.528 1.82323 0.708356 0
M  V30 9491 C 895.908 0.891947 1.91331 0
M  V30 9492 O 895.256 -0.0565984 2.2843 0
M  V30 9493 C 895.466 3.31111 1.10303 0
M  V30 9494 C 896.814 3.97147 1.50199 0
M  V30 9495 O 897.838 3.35503 1.1965 0
M  V30 9496 O 896.697 5.0576 2.07049 0
M  V30 9497 H 893.791 0.751173 0.345931 0
M  V30 9498 H 896.337 1.69657 -0.0380632 0
M  V30 9499 H 895.109 3.90534 0.24467 0
M  V30 9500 H 894.732 3.48818 1.90818 0
M  V30 9501 N 895.729 -0.261212 1.5542 0
M  V30 9502 C 896.639 -1.34493 1.92221 0
M  V30 9503 C 897.655 -1.53421 0.82086 0
M  V30 9504 O 898.831 -1.6732 1.12099 0
M  V30 9505 C 895.896 -2.68209 2.19692 0
M  V30 9506 C 894.957 -2.57927 3.43179 0
M  V30 9507 C 894.19 -3.85266 3.69331 0
M  V30 9508 O 894.413 -4.86493 2.97793 0
M  V30 9509 O 893.347 -3.8476 4.62865 0
M  V30 9510 H 897.173 -1.06278 2.84497 0
M  V30 9511 H 894.758 -0.460752 1.42118 0
M  V30 9512 H 896.64 -3.47252 2.38734 0
M  V30 9513 H 895.315 -2.96186 1.30597 0
M  V30 9514 H 894.222 -1.77219 3.2946 0
M  V30 9515 H 895.555 -2.34898 4.32532 0
M  V30 9516 N 897.207 -1.48554 -0.526253 0
M  V30 9517 C 898.437 -1.60197 -1.30463 0
M  V30 9518 C 898.845 -0.26278 -1.87366 0
M  V30 9519 O 898.188 0.758537 -1.67308 0
M  V30 9520 C 898.25 -2.59223 -2.49085 0
M  V30 9521 C 897.914 -4.04199 -2.13241 0
M  V30 9522 C 898.911 -4.91771 -1.68694 0
M  V30 9523 C 896.596 -4.49762 -2.2365 0
M  V30 9524 C 898.59 -6.22934 -1.35026 0
M  V30 9525 C 896.277 -5.80945 -1.89594 0
M  V30 9526 C 897.275 -6.67354 -1.45353 0
M  V30 9527 O 896.963 -7.96096 -1.11745 0
M  V30 9528 H 896.695 -0.54284 -0.402866 0
M  V30 9529 H 899.249 -1.95137 -0.641157 0
M  V30 9530 H 897.479 -2.19412 -3.18426 0
M  V30 9531 H 899.168 -2.60661 -3.11144 0
M  V30 9532 H 899.934 -4.57806 -1.6012 0
M  V30 9533 H 895.813 -3.8269 -2.5704 0
M  V30 9534 H 899.357 -6.90334 -1.00422 0
M  V30 9535 H 895.254 -6.14444 -1.9781 0
M  V30 9536 H 896.022 -8.08882 -1.25111 0
M  V30 9537 N 898.685 0.775411 -1.37205 0
M  V30 9538 C 899.932 1.53384 -1.32211 0
M  V30 9539 C 900.26 1.9427 0.0944958 0
M  V30 9540 O 899.515 1.64059 1.06692 0
M  V30 9541 C 899.814 2.81377 -2.20367 0
M  V30 9542 C 899.48 2.59561 -3.68699 0
M  V30 9543 C 898.142 2.53319 -4.09124 0
M  V30 9544 C 900.494 2.39939 -4.62686 0
M  V30 9545 C 897.822 2.25442 -5.41658 0
M  V30 9546 C 900.174 2.13586 -5.95453 0
M  V30 9547 C 898.838 2.05786 -6.34987 0
M  V30 9548 H 898.108 0.561271 -0.483793 0
M  V30 9549 H 900.755 0.893466 -1.6938 0
M  V30 9550 H 899.06 3.49954 -1.76181 0
M  V30 9551 H 900.757 3.39238 -2.13819 0
M  V30 9552 H 897.347 2.6528 -3.36637 0
M  V30 9553 H 901.531 2.43753 -4.32317 0
M  V30 9554 H 896.787 2.17896 -5.71254 0
M  V30 9555 H 900.961 1.97401 -6.67837 0
M  V30 9556 H 898.588 1.83948 -7.37609 0
M  V30 9557 N 900.163 1.21714 1.00117 0
M  V30 9558 C 901.391 1.06278 1.77518 0
M  V30 9559 C 901.806 -0.387193 1.84787 0
M  V30 9560 O 901.163 -1.26854 1.31203 0
M  V30 9561 C 901.214 1.65795 3.21239 0
M  V30 9562 O 900.935 3.05119 3.14378 0
M  V30 9563 C 902.436 1.55521 4.15124 0
M  V30 9564 H 899.656 0.373013 0.557765 0
M  V30 9565 H 902.2 1.61133 1.25922 0
M  V30 9566 H 900.355 1.15022 3.69931 0
M  V30 9567 H 900.769 3.33643 4.04701 0
M  V30 9568 H 902.243 2.01902 5.13751 0
M  V30 9569 H 902.72 0.510307 4.36225 0
M  V30 9570 H 903.326 2.0556 3.72324 0
M  V30 9571 N 901.641 -1.19671 1.02551 0
M  V30 9572 C 902.866 -1.93774 0.739363 0
M  V30 9573 C 903.291 -1.74787 -0.695064 0
M  V30 9574 O 902.649 -1.04796 -1.47944 0
M  V30 9575 C 902.697 -3.43684 1.09149 0
M  V30 9576 O 901.801 -4.11874 0.208213 0
M  V30 9577 H 901.142 -0.605064 0.273484 0
M  V30 9578 H 903.672 -1.51846 1.37128 0
M  V30 9579 H 903.682 -3.94339 1.04695 0
M  V30 9580 H 902.357 -3.56826 2.13654 0
M  V30 9581 H 900.934 -3.716 0.311045 0
M  V30 9582 N 903.119 -0.802921 -1.35613 0
M  V30 9583 C 904.082 -0.216422 -2.28176 0
M  V30 9584 C 905.082 0.594101 -1.49422 0
M  V30 9585 O 906.272 0.41312 -1.6923 0
M  V30 9586 C 903.404 0.698746 -3.33662 0
M  V30 9587 H 904.597 -1.03276 -2.81557 0
M  V30 9588 H 902.15 -0.573307 -1.45406 0
M  V30 9589 H 902.885 1.53891 -2.85461 0
M  V30 9590 H 902.67 0.119314 -3.91918 0
M  V30 9591 H 904.16 1.10354 -4.02755 0
M  V30 9592 N 904.597 1.47463 -0.556102 0
M  V30 9593 C 905.843 2.02775 -0.0316806 0
M  V30 9594 C 906.176 1.42967 1.3143 0
M  V30 9595 O 905.451 0.584847 1.85499 0
M  V30 9596 C 905.734 3.60046 0.0625742 0
M  V30 9597 C 905.587 4.30288 -1.31043 0
M  V30 9598 C 906.906 4.33195 0.776553 0
M  V30 9599 H 904.025 0.736886 -0.0129869 0
M  V30 9600 H 906.667 1.75904 -0.718177 0
M  V30 9601 H 904.817 3.83071 0.647231 0
M  V30 9602 H 906.489 4.18607 -1.9382 0
M  V30 9603 H 904.732 3.90685 -1.8854 0
M  V30 9604 H 905.403 5.38861 -1.1972 0
M  V30 9605 H 907.879 4.15156 0.280147 0
M  V30 9606 H 906.755 5.42869 0.81146 0
M  V30 9607 H 907.016 4.02336 1.83244 0
M  V30 9608 N 906.075 0.2925 1.54862 0
M  V30 9609 C 907.321 -0.319736 2.00264 0
M  V30 9610 C 907.654 -1.5419 1.18064 0
M  V30 9611 O 906.929 -1.92821 0.254983 0
M  V30 9612 C 907.212 -0.684753 3.5353 0
M  V30 9613 C 907.065 0.545961 4.46474 0
M  V30 9614 C 908.384 -1.51456 4.13218 0
M  V30 9615 H 905.503 -0.11474 0.728014 0
M  V30 9616 H 908.145 0.402907 1.85679 0
M  V30 9617 H 906.295 -1.30044 3.66089 0
M  V30 9618 H 907.967 1.18448 4.45834 0
M  V30 9619 H 906.21 1.1808 4.1742 0
M  V30 9620 H 906.881 0.246544 5.51449 0
M  V30 9621 H 909.357 -0.994421 4.04043 0
M  V30 9622 H 908.233 -1.73875 5.20633 0
M  V30 9623 H 908.494 -2.5011 3.64551 0
M  V30 9624 N 907.553 -1.57587 0.0200696 0
M  V30 9625 C 908.483 -2.12702 -0.963333 0
M  V30 9626 C 909.464 -1.04094 -1.34531 0
M  V30 9627 O 910.649 -1.31881 -1.42552 0
M  V30 9628 C 907.779 -2.64673 -2.24868 0
M  V30 9629 C 906.733 -3.77987 -2.00772 0
M  V30 9630 C 906.059 -4.16351 -3.35494 0
M  V30 9631 C 907.359 -5.0444 -1.35416 0
M  V30 9632 H 909.053 -2.95121 -0.504363 0
M  V30 9633 H 906.599 -1.41966 -0.24116 0
M  V30 9634 H 908.552 -3.01862 -2.94036 0
M  V30 9635 H 907.276 -1.79403 -2.72914 0
M  V30 9636 H 905.935 -3.41223 -1.34025 0
M  V30 9637 H 905.583 -3.28075 -3.81282 0
M  V30 9638 H 905.283 -4.92705 -3.20181 0
M  V30 9639 H 906.807 -4.56115 -4.05945 0
M  V30 9640 H 908.221 -5.39273 -1.94571 0
M  V30 9641 H 906.618 -5.85732 -1.30529 0
M  V30 9642 H 907.688 -4.83803 -0.325923 0
M  V30 9643 N 909.032 0.252966 -1.55557 0
M  V30 9644 C 910.26 0.999565 -1.81153 0
M  V30 9645 C 910.675 1.79181 -0.594955 0
M  V30 9646 O 910.032 1.77208 0.436311 0
M  V30 9647 C 910.083 1.94227 -3.04891 0
M  V30 9648 O 909.804 1.18209 -4.21851 0
M  V30 9649 C 911.305 2.80536 -3.43241 0
M  V30 9650 H 908.525 0.294402 -0.602966 0
M  V30 9651 H 911.069 0.277686 -2.02606 0
M  V30 9652 H 909.224 2.6185 -2.85505 0
M  V30 9653 H 909.638 1.81922 -4.9194 0
M  V30 9654 H 911.112 3.42442 -4.32941 0
M  V30 9655 H 911.589 3.51337 -2.6355 0
M  V30 9656 H 912.195 2.18373 -3.64956 0
M  V30 9657 N 910.51 1.48831 0.518367 0
M  V30 9658 C 911.44 1.67119 1.63075 0
M  V30 9659 C 912.421 0.519948 1.61958 0
M  V30 9660 O 913.606 0.753824 1.78972 0
M  V30 9661 C 910.736 1.72158 3.01627 0
M  V30 9662 C 909.69 2.86898 3.17606 0
M  V30 9663 C 909.016 2.77035 4.57335 0
M  V30 9664 C 910.316 4.28057 2.99274 0
M  V30 9665 H 912.01 2.60248 1.48025 0
M  V30 9666 H 909.556 1.2524 0.710694 0
M  V30 9667 H 911.509 1.83539 3.7933 0
M  V30 9668 H 910.233 0.756157 3.17726 0
M  V30 9669 H 908.892 2.75091 2.42323 0
M  V30 9670 H 908.54 1.78438 4.70286 0
M  V30 9671 H 908.24 3.54036 4.6897 0
M  V30 9672 H 909.764 2.904 5.37122 0
M  V30 9673 H 911.178 4.40636 3.6676 0
M  V30 9674 H 909.575 5.06145 3.22393 0
M  V30 9675 H 910.645 4.4371 1.95574 0
M  V30 9676 N 911.988 -0.768124 1.37614 0
M  V30 9677 C 913.237 -1.5221 1.32345 0
M  V30 9678 C 913.55 -1.95399 -0.0885761 0
M  V30 9679 O 914.756 -2.70216 -0.263752 0
M  V30 9680 C 913.212 -2.74872 2.32322 0
M  V30 9681 C 912.82 -2.38767 3.79071 0
M  V30 9682 C 914.564 -3.52805 2.36069 0
M  V30 9683 C 912.471 -3.57953 4.7077 0
M  V30 9684 H 911.401 -0.571461 0.491883 0
M  V30 9685 H 914.052 -0.841004 1.63093 0
M  V30 9686 H 912.434 -3.44889 1.94596 0
M  V30 9687 H 913.608 -1.7651 4.25654 0
M  V30 9688 H 911.923 -1.74 3.78303 0
M  V30 9689 H 914.52 -4.41397 3.01782 0
M  V30 9690 H 914.863 -3.92925 1.37535 0
M  V30 9691 H 915.396 -2.89788 2.72521 0
M  V30 9692 H 912.135 -3.22911 5.70446 0
M  V30 9693 H 911.655 -4.19302 4.28889 0
M  V30 9694 H 913.334 -4.2472 4.8808 0
M  V30 9695 N 913.466 -1.22244 -0.994698 0
M  V30 9696 C 914.396 -1.01513 -2.10279 0
M  V30 9697 C 915.377 0.0633365 -1.69982 0
M  V30 9698 O 916.562 -0.0985268 -1.9395 0
M  V30 9699 C 913.692 -0.59016 -3.42249 0
M  V30 9700 C 912.646 -1.61436 -3.96387 0
M  V30 9701 C 911.972 -1.04528 -5.24383 0
M  V30 9702 C 913.272 -3.00388 -4.27276 0
M  V30 9703 H 914.966 -1.94194 -2.2788 0
M  V30 9704 H 912.512 -0.935094 -1.09508 0
M  V30 9705 H 914.465 -0.432254 -4.19177 0
M  V30 9706 H 913.189 0.372308 -3.24471 0
M  V30 9707 H 911.848 -1.76001 -3.21589 0
M  V30 9708 H 911.496 -0.0742225 -5.02945 0
M  V30 9709 H 911.196 -1.72949 -5.61571 0
M  V30 9710 H 912.72 -0.898922 -6.03947 0
M  V30 9711 H 914.134 -2.89207 -4.95007 0
M  V30 9712 H 912.531 -3.65916 -4.75631 0
M  V30 9713 H 913.601 -3.50456 -3.35125 0
M  V30 9714 N 914.944 1.19125 -1.03184 0
M  V30 9715 C 915.907 2.20662 -0.619766 0
M  V30 9716 C 916.907 1.57621 0.318179 0
M  V30 9717 O 918.097 1.73885 0.104783 0
M  V30 9718 C 915.229 3.40774 0.0926696 0
M  V30 9719 H 916.422 2.58633 -1.5182 0
M  V30 9720 H 913.975 1.32855 -0.823364 0
M  V30 9721 H 914.71 3.08324 1.00531 0
M  V30 9722 H 914.495 3.87766 -0.581344 0
M  V30 9723 H 915.985 4.15977 0.367792 0
M  V30 9724 N 916.422 0.810101 1.35185 0
M  V30 9725 C 917.385 0.22852 2.28058 0
M  V30 9726 C 918.385 -0.586168 1.49735 0
M  V30 9727 O 919.575 -0.40414 1.69447 0
M  V30 9728 C 916.707 -0.681041 3.34028 0
M  V30 9729 H 917.9 1.04768 2.81005 0
M  V30 9730 H 915.453 0.58101 1.451 0
M  V30 9731 H 916.188 -1.52375 2.86273 0
M  V30 9732 H 915.973 -0.0985276 3.91976 0
M  V30 9733 H 917.463 -1.08217 4.03335 0
M  V30 9734 N 917.9 -1.47166 0.563914 0
M  V30 9735 C 918.83 -2.32894 -0.168148 0
M  V30 9736 C 919.811 -1.44202 -0.902214 0
M  V30 9737 O 920.996 -1.73048 -0.881365 0
M  V30 9738 C 918.126 -3.26116 -1.19439 0
M  V30 9739 C 917.08 -4.24101 -0.576363 0
M  V30 9740 C 916.406 -5.06696 -1.70772 0
M  V30 9741 C 917.706 -5.20142 0.47425 0
M  V30 9742 H 919.4 -2.9435 0.547573 0
M  V30 9743 H 916.946 -1.41545 0.264778 0
M  V30 9744 H 918.899 -3.84935 -1.71474 0
M  V30 9745 H 917.623 -2.62728 -1.94014 0
M  V30 9746 H 916.282 -3.66519 -0.0772534 0
M  V30 9747 H 915.93 -4.39707 -2.44268 0
M  V30 9748 H 915.63 -5.7304 -1.29994 0
M  V30 9749 H 917.154 -5.68375 -2.2312 0
M  V30 9750 H 918.568 -5.73286 0.0397035 0
M  V30 9751 H 916.965 -5.94726 0.801287 0
M  V30 9752 H 918.035 -4.65214 1.36764 0
M  V30 9753 N 919.378 -0.300708 -1.54705 0
M  V30 9754 C 920.625 0.308654 -2.00134 0
M  V30 9755 C 920.953 1.53918 -1.1891 0
M  V30 9756 O 920.208 1.94054 -0.253263 0
M  V30 9757 C 920.507 0.710108 -3.50275 0
M  V30 9758 C 920.173 -0.418651 -4.48952 0
M  V30 9759 C 918.835 -0.728524 -4.75653 0
M  V30 9760 C 921.187 -1.17797 -5.07714 0
M  V30 9761 C 918.515 -1.80085 -5.58378 0
M  V30 9762 C 920.867 -2.24022 -5.91606 0
M  V30 9763 C 919.531 -2.55616 -6.16617 0
M  V30 9764 H 918.801 0.112945 -0.732342 0
M  V30 9765 H 921.448 -0.419744 -1.86843 0
M  V30 9766 H 919.753 1.51859 -3.61173 0
M  V30 9767 H 921.45 1.19277 -3.8285 0
M  V30 9768 H 918.04 -0.167034 -4.28274 0
M  V30 9769 H 922.224 -0.951835 -4.87087 0
M  V30 9770 H 917.48 -2.05036 -5.75995 0
M  V30 9771 H 921.654 -2.83317 -6.36164 0
M  V30 9772 H 919.281 -3.38839 -6.80509 0
M  V30 9773 N 920.856 1.57574 -0.0284266 0
M  V30 9774 C 922.104 1.91393 0.649079 0
M  V30 9775 C 922.425 0.905368 1.72708 0
M  V30 9776 O 921.695 -0.0532107 1.95828 0
M  V30 9777 H 920.275 0.70646 0.24274 0
M  V30 9778 H 922.937 1.94752 -0.076066 0
M  V30 9779 H 922.033 2.91988 1.10226 0
M  V30 9780 N 922.334 -0.244713 1.55689 0
M  V30 9781 C 923.264 -1.30667 1.93516 0
M  V30 9782 C 924.245 -1.50094 0.800371 0
M  V30 9783 O 925.43 -1.62665 1.06083 0
M  V30 9784 C 922.56 -2.66101 2.23176 0
M  V30 9785 C 921.514 -2.61366 3.38927 0
M  V30 9786 C 920.84 -4.00616 3.54134 0
M  V30 9787 C 922.14 -2.18161 4.74555 0
M  V30 9788 H 923.834 -0.992546 2.82469 0
M  V30 9789 H 921.38 -0.476018 1.35905 0
M  V30 9790 H 923.333 -3.4053 2.48228 0
M  V30 9791 H 922.057 -2.99154 1.31051 0
M  V30 9792 H 920.716 -1.89395 3.13887 0
M  V30 9793 H 920.364 -4.30938 2.59426 0
M  V30 9794 H 920.064 -3.98335 4.31975 0
M  V30 9795 H 921.588 -4.76741 3.8151 0
M  V30 9796 H 923.002 -2.82323 4.98965 0
M  V30 9797 H 921.399 -2.26988 5.55515 0
M  V30 9798 H 922.469 -1.13333 4.7147 0
M  V30 9799 N 923.813 -1.49104 -0.510467 0
M  V30 9800 C 925.059 -1.58346 -1.26705 0
M  V30 9801 C 925.392 -0.265121 -1.92382 0
M  V30 9802 O 924.667 0.730558 -1.80258 0
M  V30 9803 C 924.95 -2.7359 -2.34137 0
M  V30 9804 C 924.803 -4.1519 -1.73024 0
M  V30 9805 C 926.122 -2.84511 -3.3577 0
M  V30 9806 H 923.241 -0.57637 -0.459311 0
M  V30 9807 H 925.883 -1.81353 -0.566658 0
M  V30 9808 H 924.033 -2.54105 -2.93876 0
M  V30 9809 H 925.705 -4.46167 -1.17186 0
M  V30 9810 H 923.948 -4.21279 -1.03473 0
M  V30 9811 H 924.619 -4.91683 -2.50903 0
M  V30 9812 H 927.095 -3.0222 -2.86011 0
M  V30 9813 H 925.971 -3.6684 -4.08313 0
M  V30 9814 H 926.232 -1.93471 -3.97519 0
M  V30 9815 N 925.291 0.760815 -1.38019 0
M  V30 9816 C 926.521 1.54776 -1.3685 0
M  V30 9817 C 926.929 1.89146 0.0453971 0
M  V30 9818 O 926.272 1.52746 1.0205 0
M  V30 9819 C 926.334 2.87923 -2.15269 0
M  V30 9820 C 925.998 2.76131 -3.64144 0
M  V30 9821 C 926.995 2.46417 -4.57794 0
M  V30 9822 C 924.68 2.9381 -4.07408 0
M  V30 9823 C 926.674 2.34525 -5.92686 0
M  V30 9824 C 924.361 2.81539 -5.42383 0
M  V30 9825 C 925.359 2.51938 -6.34836 0
M  V30 9826 O 925.047 2.39713 -7.67329 0
M  V30 9827 H 924.779 0.485776 -0.470104 0
M  V30 9828 H 927.333 0.949939 -1.82113 0
M  V30 9829 H 925.563 3.49867 -1.64712 0
M  V30 9830 H 927.252 3.49389 -2.06596 0
M  V30 9831 H 928.018 2.32433 -4.25676 0
M  V30 9832 H 923.897 3.15849 -3.35799 0
M  V30 9833 H 927.441 2.11342 -6.64816 0
M  V30 9834 H 923.338 2.95093 -5.741 0
M  V30 9835 H 924.106 2.5498 -7.77771 0
M  V30 9836 N 926.769 1.22769 0.988202 0
M  V30 9837 C 927.699 1.02627 2.09738 0
M  V30 9838 C 928.68 -0.0543211 1.70013 0
M  V30 9839 O 929.865 0.108811 1.93895 0
M  V30 9840 C 926.995 0.608302 3.41931 0
M  V30 9841 C 925.949 1.63536 3.95525 0
M  V30 9842 C 925.275 1.07308 5.23822 0
M  V30 9843 C 926.575 3.02649 4.25677 0
M  V30 9844 H 928.269 1.954 2.26847 0
M  V30 9845 H 925.815 0.940888 1.09011 0
M  V30 9846 H 927.768 0.454478 4.18942 0
M  V30 9847 H 926.492 -0.355095 3.24664 0
M  V30 9848 H 925.151 1.77704 3.20651 0
M  V30 9849 H 924.799 0.100894 5.02899 0
M  V30 9850 H 924.499 1.75925 5.60646 0
M  V30 9851 H 926.023 0.930938 6.03462 0
M  V30 9852 H 927.437 2.91828 4.93467 0
M  V30 9853 H 925.834 3.68434 4.73684 0
M  V30 9854 H 926.904 3.52228 3.33262 0
M  V30 9855 N 928.247 -1.18576 1.03814 0
M  V30 9856 C 929.177 -2.24334 0.647795 0
M  V30 9857 C 930.158 -1.66508 -0.34774 0
M  V30 9858 O 931.343 -1.92852 -0.228401 0
M  V30 9859 C 928.473 -3.47299 0.00734922 0
M  V30 9860 C 927.427 -4.17859 0.926152 0
M  V30 9861 C 926.753 -5.34489 0.150317 0
M  V30 9862 C 928.053 -4.71632 2.24411 0
M  V30 9863 H 929.747 -2.57241 1.53191 0
M  V30 9864 H 927.293 -1.23649 0.738028 0
M  V30 9865 H 929.246 -4.20486 -0.277434 0
M  V30 9866 H 927.97 -3.13619 -0.911626 0
M  V30 9867 H 926.629 -3.46567 1.19528 0
M  V30 9868 H 926.277 -4.97056 -0.770985 0
M  V30 9869 H 925.977 -5.82633 0.762407 0
M  V30 9870 H 927.501 -6.10467 -0.127508 0
M  V30 9871 H 928.915 -5.36526 2.02021 0
M  V30 9872 H 927.312 -5.303 2.80894 0
M  V30 9873 H 928.382 -3.89192 2.89236 0
M  V30 9874 N 929.725 -0.817259 -1.34754 0
M  V30 9875 C 930.974 -0.39908 -1.97713 0
M  V30 9876 C 931.287 1.04203 -1.65533 0
M  V30 9877 O 932.493 1.56384 -2.21937 0
M  V30 9878 C 930.949 -0.662634 -3.53747 0
M  V30 9879 C 930.557 -2.11699 -3.94826 0
M  V30 9880 C 932.301 -0.31034 -4.23364 0
M  V30 9881 C 930.208 -2.32573 -5.4375 0
M  V30 9882 H 929.138 -0.145488 -0.739831 0
M  V30 9883 H 931.789 -1.00282 -1.53674 0
M  V30 9884 H 930.171 0.0111972 -3.95998 0
M  V30 9885 H 931.345 -2.82951 -3.63697 0
M  V30 9886 H 929.66 -2.43017 -3.3813 0
M  V30 9887 H 932.257 -0.44421 -5.32852 0
M  V30 9888 H 932.6 0.744594 -4.09587 0
M  V30 9889 H 933.133 -0.938518 -3.8657 0
M  V30 9890 H 929.872 -3.36551 -5.62507 0
M  V30 9891 H 929.392 -1.65858 -5.76412 0
M  V30 9892 H 931.071 -2.14651 -6.10356 0
M  V30 9893 N 931.203 1.46865 -0.571711 0
M  V30 9894 C 932.45 2.0243 -0.0531071 0
M  V30 9895 C 932.778 1.44446 1.30252 0
M  V30 9896 O 932.033 0.595182 1.8643 0
M  V30 9897 C 932.332 3.57323 0.0742311 0
M  V30 9898 C 931.998 4.34295 -1.21237 0
M  V30 9899 C 930.66 4.55044 -1.56489 0
M  V30 9900 C 933.012 4.78577 -2.0643 0
M  V30 9901 C 930.34 5.17325 -2.76752 0
M  V30 9902 C 932.692 5.42186 -3.25909 0
M  V30 9903 C 931.356 5.61165 -3.61456 0
M  V30 9904 H 930.626 0.740745 -0.0194333 0
M  V30 9905 H 933.273 1.76366 -0.74614 0
M  V30 9906 H 931.578 3.82461 0.850325 0
M  V30 9907 H 933.275 3.97982 0.491077 0
M  V30 9908 H 929.865 4.18435 -0.927922 0
M  V30 9909 H 934.049 4.62313 -1.80501 0
M  V30 9910 H 929.305 5.30211 -3.04444 0
M  V30 9911 H 933.479 5.75459 -3.92198 0
M  V30 9912 H 931.106 6.09195 -4.54737 0
M  V30 9913 N 932.681 0.308908 1.54543 0
M  V30 9914 C 934.092 -0.182144 1.85809 0
M  V30 9915 C 934.443 -1.52796 1.23076 0
M  V30 9916 O 933.568 -2.09775 0.531358 0
M  V30 9917 C 934.163 -0.337275 3.37117 0
M  V30 9918 C 932.722 -0.772545 3.68387 0
M  V30 9919 C 931.869 0.114451 2.77064 0
M  V30 9920 H 934.82 0.529671 1.496 0
M  V30 9921 H 934.841 -1.17058 3.62046 0
M  V30 9922 H 934.353 0.642382 3.82747 0
M  V30 9923 H 932.454 -1.76247 3.2828 0
M  V30 9924 H 932.567 -0.586453 4.75497 0
M  V30 9925 H 930.931 -0.407581 2.51418 0
M  V30 9926 H 931.714 1.09061 3.25516 0
M  V30 9927 N 934.159 -1.57557 0.0367827 0
M  V30 9928 C 935.091 -2.07597 -0.971395 0
M  V30 9929 C 936.104 -1.0009 -1.28397 0
M  V30 9930 O 937.293 -1.27692 -1.24728 0
M  V30 9931 C 934.393 -2.492 -2.2968 0
M  V30 9932 C 933.566 -3.79875 -2.16826 0
M  V30 9933 C 932.625 -4.07946 -3.32366 0
M  V30 9934 O 931.651 -4.78083 -3.0891 0
M  V30 9935 N 932.853 -3.58722 -4.56397 0
M  V30 9936 H 935.618 -2.94714 -0.544389 0
M  V30 9937 H 933.179 -1.61205 -0.1498 0
M  V30 9938 H 935.171 -2.65065 -3.05815 0
M  V30 9939 H 933.741 -1.67407 -2.63995 0
M  V30 9940 H 932.961 -3.73732 -1.2537 0
M  V30 9941 H 934.249 -4.65476 -2.0545 0
M  V30 9942 H 933.647 -3.01994 -4.78347 0
M  V30 9943 H 932.204 -3.79852 -5.29675 0
M  V30 9944 N 935.637 0.236453 -1.55816 0
M  V30 9945 C 936.862 0.98449 -1.82545 0
M  V30 9946 C 937.287 1.77755 -0.615206 0
M  V30 9947 O 936.645 1.75982 0.435895 0
M  V30 9948 C 936.693 1.88973 -3.07118 0
M  V30 9949 O 935.797 2.98298 -2.84766 0
M  V30 9950 H 935.138 0.279577 -0.602273 0
M  V30 9951 H 937.668 0.254277 -2.03014 0
M  V30 9952 H 937.678 2.3024 -3.36829 0
M  V30 9953 H 936.353 1.30671 -3.94839 0
M  V30 9954 H 934.93 2.61085 -2.6625 0
M  V30 9955 N 937.115 1.49373 0.502552 0
M  V30 9956 C 938.361 1.59016 1.25864 0
M  V30 9957 C 938.694 0.27532 1.92238 0
M  V30 9958 O 937.969 -0.720988 1.80643 0
M  V30 9959 C 938.252 2.74828 2.32683 0
M  V30 9960 C 938.105 4.16102 1.7082 0
M  V30 9961 C 939.424 2.86288 3.34256 0
M  V30 9962 H 936.543 0.578798 0.456248 0
M  V30 9963 H 939.185 1.81651 0.557032 0
M  V30 9964 H 937.335 2.5566 2.92524 0
M  V30 9965 H 939.007 4.46782 1.14818 0
M  V30 9966 H 937.25 4.21822 1.01238 0
M  V30 9967 H 937.921 4.93006 2.48292 0
M  V30 9968 H 940.397 3.03733 2.84404 0
M  V30 9969 H 939.273 3.69001 4.06362 0
M  V30 9970 H 939.534 1.95576 3.96488 0
M  V30 9971 N 938.594 -0.753485 1.38421 0
M  V30 9972 C 939.84 -1.51485 1.34834 0
M  V30 9973 C 940.173 -1.94102 -0.0615381 0
M  V30 9974 O 939.448 -1.65439 -1.02274 0
M  V30 9975 C 939.731 -2.76736 2.30411 0
M  V30 9976 C 939.584 -2.40256 3.80259 0
M  V30 9977 C 940.903 -3.7876 2.24119 0
M  V30 9978 H 938.022 -0.549534 0.491102 0
M  V30 9979 H 940.664 -0.863006 1.6927 0
M  V30 9980 H 938.814 -3.32357 2.01175 0
M  V30 9981 H 940.486 -1.90409 4.20169 0
M  V30 9982 H 938.729 -1.72714 3.97935 0
M  V30 9983 H 939.4 -3.29869 4.42595 0
M  V30 9984 H 941.876 -3.32679 2.49928 0
M  V30 9985 H 940.752 -4.64092 2.93104 0
M  V30 9986 H 941.013 -4.24352 1.24006 0
M  V30 9987 N 940.072 -1.23292 -0.981677 0
M  V30 9988 C 941.318 -1.06582 -1.72535 0
M  V30 9989 C 941.651 0.396538 -1.90108 0
M  V30 9990 O 940.926 1.29363 -1.45243 0
M  V30 9991 C 941.209 -1.7904 -3.12437 0
M  V30 9992 C 941.062 -3.32941 -3.02441 0
M  V30 9993 C 942.381 -1.55185 -4.11832 0
M  V30 9994 H 939.5 -0.388585 -0.626236 0
M  V30 9995 H 942.142 -1.51779 -1.14293 0
M  V30 9996 H 940.292 -1.40619 -3.62158 0
M  V30 9997 H 941.964 -3.80875 -2.60254 0
M  V30 9998 H 940.207 -3.62039 -2.38977 0
M  V30 9999 H 940.878 -3.78827 -4.0149 0
M  V30 10000 H 943.354 -1.88581 -3.70913 0
M  V30 10001 H 942.23 -2.08362 -5.07815 0
M  V30 10002 H 942.491 -0.486925 -4.3941 0
M  V30 10003 N 941.55 1.18024 -1.04442 0
M  V30 10004 C 942.48 2.23988 -0.659683 0
M  V30 10005 C 943.461 1.6669 0.338904 0
M  V30 10006 O 944.646 1.92971 0.21817 0
M  V30 10007 C 941.776 3.4729 -0.0257672 0
M  V30 10008 C 940.73 4.17362 -0.948299 0
M  V30 10009 C 940.056 5.34401 -0.17866 0
M  V30 10010 C 941.356 4.70435 -2.26909 0
M  V30 10011 H 943.05 2.56425 -1.54553 0
M  V30 10012 H 940.596 1.23256 -0.744575 0
M  V30 10013 H 942.549 4.20627 0.255131 0
M  V30 10014 H 941.273 3.14098 0.894981 0
M  V30 10015 H 939.932 3.45928 -1.21364 0
M  V30 10016 H 939.58 4.97458 0.744614 0
M  V30 10017 H 939.28 5.8222 -0.793294 0
M  V30 10018 H 940.804 6.10526 0.0951315 0
M  V30 10019 H 942.218 5.35447 -2.04864 0
M  V30 10020 H 940.615 5.28803 -2.83703 0
M  V30 10021 H 941.685 3.87653 -2.91296 0
M  V30 10022 N 943.028 0.824394 1.34319 0
M  V30 10023 C 943.958 0.262077 2.32025 0
M  V30 10024 C 944.939 -0.622277 1.58309 0
M  V30 10025 O 946.124 -0.548848 1.86283 0
M  V30 10026 C 943.254 -0.57567 3.42496 0
M  V30 10027 C 942.208 0.21167 4.27476 0
M  V30 10028 C 941.534 -0.748913 5.29429 0
M  V30 10029 C 942.834 1.42068 5.02607 0
M  V30 10030 H 944.528 1.07842 2.79304 0
M  V30 10031 H 942.074 0.520022 1.34282 0
M  V30 10032 H 944.027 -0.979251 4.09864 0
M  V30 10033 H 942.751 -1.42508 2.93869 0
M  V30 10034 H 941.41 0.596636 3.61712 0
M  V30 10035 H 941.058 -1.59432 4.77064 0
M  V30 10036 H 940.758 -0.226313 5.87164 0
M  V30 10037 H 942.282 -1.15032 5.99667 0
M  V30 10038 H 943.696 1.09103 5.62823 0
M  V30 10039 H 942.093 1.87903 5.69923 0
M  V30 10040 H 943.163 2.1981 4.32217 0
M  V30 10041 N 944.506 -1.46559 0.579492 0
M  V30 10042 C 945.436 -2.33059 -0.143437 0
M  V30 10043 C 946.417 -1.4515 -0.886868 0
M  V30 10044 O 947.602 -1.73973 -0.862961 0
M  V30 10045 C 944.732 -3.27364 -1.15973 0
M  V30 10046 C 943.686 -4.24689 -0.531348 0
M  V30 10047 C 943.012 -5.08479 -1.65388 0
M  V30 10048 C 944.312 -5.1961 0.529391 0
M  V30 10049 H 946.006 -2.93753 0.578762 0
M  V30 10050 H 943.552 -1.41256 0.279775 0
M  V30 10051 H 945.505 -3.86732 -1.67382 0
M  V30 10052 H 944.229 -2.64771 -1.91217 0
M  V30 10053 H 942.888 -3.6658 -0.0383749 0
M  V30 10054 H 942.536 -4.42273 -2.3959 0
M  V30 10055 H 942.236 -5.74387 -1.23909 0
M  V30 10056 H 943.76 -5.70709 -2.17079 0
M  V30 10057 H 945.174 -5.73212 0.100506 0
M  V30 10058 H 943.571 -5.93843 0.86432 0
M  V30 10059 H 944.641 -4.63737 1.4169 0
M  V30 10060 N 945.984 -0.3171 -1.54377 0
M  V30 10061 C 946.914 0.544623 -2.2706 0
M  V30 10062 C 947.895 1.12469 -1.27611 0
M  V30 10063 O 949.08 1.15103 -1.56413 0
M  V30 10064 C 946.21 1.70879 -3.02353 0
M  V30 10065 C 945.164 1.25833 -4.09084 0
M  V30 10066 C 944.49 2.50894 -4.72182 0
M  V30 10067 C 945.79 0.377876 -5.20931 0
M  V30 10068 H 947.484 -0.0616372 -2.99337 0
M  V30 10069 H 945.03 -0.0310848 -1.43966 0
M  V30 10070 H 946.983 2.31787 -3.51927 0
M  V30 10071 H 945.707 2.34155 -2.27682 0
M  V30 10072 H 944.366 0.672228 -3.60384 0
M  V30 10073 H 944.014 3.12518 -3.94134 0
M  V30 10074 H 943.714 2.21447 -5.44275 0
M  V30 10075 H 945.238 3.12575 -5.24528 0
M  V30 10076 H 946.652 0.893056 -5.66302 0
M  V30 10077 H 945.049 0.176474 -5.9984 0
M  V30 10078 H 946.119 -0.592943 -4.81261 0
M  V30 10079 N 947.462 1.57535 -0.0451378 0
M  V30 10080 C 948.708 1.92736 0.630921 0
M  V30 10081 C 949.041 0.923265 1.70849 0
M  V30 10082 O 948.316 -0.0516512 1.94431 0
M  V30 10083 C 948.599 3.38348 1.23259 0
M  V30 10084 C 948.452 4.49503 0.16349 0
M  V30 10085 C 949.771 3.84233 2.14599 0
M  V30 10086 H 946.89 0.700884 0.227883 0
M  V30 10087 H 949.532 1.89706 -0.10567 0
M  V30 10088 H 947.682 3.41061 1.86037 0
M  V30 10089 H 949.354 4.58919 -0.46808 0
M  V30 10090 H 947.597 4.30802 -0.509166 0
M  V30 10091 H 948.268 5.48457 0.624382 0
M  V30 10092 H 950.744 3.83358 1.6179 0
M  V30 10093 H 949.62 4.86781 2.53644 0
M  V30 10094 H 949.881 3.20646 3.04366 0
M  V30 10095 N 948.94 -0.228186 1.55939 0
M  V30 10096 C 950.187 -0.953552 1.78644 0
M  V30 10097 C 950.515 -1.84596 0.61275 0
M  V30 10098 O 949.77 -1.91502 -0.403175 0
M  V30 10099 C 950.069 -1.82924 3.0704 0
M  V30 10100 C 949.735 -1.09062 4.37511 0
M  V30 10101 C 948.397 -0.886565 4.72962 0
M  V30 10102 C 950.749 -0.568533 5.1809 0
M  V30 10103 C 948.077 -0.148413 5.86512 0
M  V30 10104 C 950.429 0.156243 6.32407 0
M  V30 10105 C 949.093 0.371612 6.66465 0
M  V30 10106 H 948.363 -0.348929 0.653704 0
M  V30 10107 H 951.01 -0.222211 1.90206 0
M  V30 10108 H 949.315 -2.62823 2.90571 0
M  V30 10109 H 951.012 -2.3925 3.21808 0
M  V30 10110 H 947.602 -1.25963 4.09672 0
M  V30 10111 H 951.786 -0.713673 4.91142 0
M  V30 10112 H 947.042 0.0287418 6.11393 0
M  V30 10113 H 951.216 0.568333 6.94077 0
M  V30 10114 H 948.843 0.945522 7.54297 0
M  V30 10115 N 950.418 -1.49637 -0.494624 0
M  V30 10116 C 951.658 -1.61067 -1.25844 0
M  V30 10117 C 952.022 -0.293666 -1.89741 0
M  V30 10118 O 953.223 -0.283202 -2.67304 0
M  V30 10119 C 951.494 -2.74218 -2.29215 0
M  V30 10120 S 953.053 -3.05639 -3.1485 0
M  V30 10121 H 949.871 -0.568056 -0.42759 0
M  V30 10122 H 952.473 -1.87323 -0.559491 0
M  V30 10123 H 951.177 -3.68422 -1.80813 0
M  V30 10124 H 950.708 -2.49975 -3.0377 0
M  V30 10125 H 952.723 -2.47651 -4.29981 0
M  V30 10126 N 951.896 0.746133 -1.38819 0
M  V30 10127 C 953.145 1.50085 -1.34749 0
M  V30 10128 C 953.458 1.95516 0.0574786 0
M  V30 10129 O 954.664 2.70601 0.22073 0
M  V30 10130 C 953.12 2.71141 -2.36665 0
M  V30 10131 C 952.728 2.32706 -3.82821 0
M  V30 10132 C 954.472 3.49005 -2.41652 0
M  V30 10133 C 952.379 3.50418 -4.76405 0
M  V30 10134 H 951.309 0.563563 -0.500912 0
M  V30 10135 H 953.96 0.814951 -1.6441 0
M  V30 10136 H 952.342 3.4175 -2.00058 0
M  V30 10137 H 953.516 1.69715 -4.28408 0
M  V30 10138 H 951.831 1.67959 -3.81023 0
M  V30 10139 H 954.428 4.36541 -3.08766 0
M  V30 10140 H 954.771 3.90687 -1.43769 0
M  V30 10141 H 955.304 2.85416 -2.77097 0
M  V30 10142 H 952.043 3.13795 -5.75511 0
M  V30 10143 H 951.563 4.12426 -4.35505 0
M  V30 10144 H 953.242 4.16901 -4.94775 0
M  V30 10145 N 953.375 1.23811 0.975125 0
M  V30 10146 C 954.615 1.08517 1.73215 0
M  V30 10147 C 954.979 -0.370777 1.88386 0
M  V30 10148 O 956.18 -0.645036 2.60946 0
M  V30 10149 C 954.451 1.79649 3.08968 0
M  V30 10150 S 956.01 1.79993 4.00185 0
M  V30 10151 H 952.828 0.388256 0.595633 0
M  V30 10152 H 955.43 1.57028 1.16458 0
M  V30 10153 H 954.134 2.8471 2.95581 0
M  V30 10154 H 953.665 1.31441 3.70792 0
M  V30 10155 H 955.68 0.862294 4.8865 0
M  V30 10156 N 954.853 -1.17469 1.05066 0
M  V30 10157 C 956.1 -1.87698 0.759987 0
M  V30 10158 C 956.428 -1.80964 -0.712902 0
M  V30 10159 O 955.683 -1.21146 -1.53695 0
M  V30 10160 C 955.982 -3.37211 1.18421 0
M  V30 10161 C 955.648 -3.64148 2.65909 0
M  V30 10162 C 954.31 -3.71209 3.06199 0
M  V30 10163 C 956.662 -3.75724 3.61222 0
M  V30 10164 C 953.99 -3.87334 4.40669 0
M  V30 10165 C 956.342 -3.93368 4.95424 0
M  V30 10166 C 955.006 -3.98667 5.3537 0
M  V30 10167 H 954.276 -0.686835 0.278099 0
M  V30 10168 H 956.923 -1.38975 1.31751 0
M  V30 10169 H 955.228 -3.87982 0.545654 0
M  V30 10170 H 956.925 -3.89911 0.936518 0
M  V30 10171 H 953.515 -3.59276 2.33707 0
M  V30 10172 H 957.699 -3.69591 3.31235 0
M  V30 10173 H 952.955 -3.89685 4.71122 0
M  V30 10174 H 957.129 -4.01267 5.69173 0
M  V30 10175 H 954.756 -4.10915 6.39572 0
M  V30 10176 N 956.331 -0.831506 -1.3388 0
M  V30 10177 C 957.261 -0.274378 -2.31882 0
M  V30 10178 C 958.242 0.613872 -1.58637 0
M  V30 10179 O 959.427 0.538961 -1.86571 0
M  V30 10180 C 956.557 0.557498 -3.42796 0
M  V30 10181 C 955.511 -0.234337 -4.27358 0
M  V30 10182 C 954.837 0.720825 -5.29819 0
M  V30 10183 C 956.137 -1.44732 -5.01847 0
M  V30 10184 H 957.831 -1.09322 -2.78728 0
M  V30 10185 H 955.377 -0.527136 -1.34005 0
M  V30 10186 H 957.33 0.957501 -4.10378 0
M  V30 10187 H 956.054 1.40947 -2.94621 0
M  V30 10188 H 954.713 -0.61581 -3.61391 0
M  V30 10189 H 954.361 1.569 -4.77903 0
M  V30 10190 H 954.061 0.195171 -5.87276 0
M  V30 10191 H 955.585 1.1185 -6.00268 0
M  V30 10192 H 956.999 -1.12087 -5.62236 0
M  V30 10193 H 955.396 -1.90923 -5.68919 0
M  V30 10194 H 956.466 -2.22099 -4.31045 0
M  V30 10195 N 957.809 1.4625 -0.587256 0
M  V30 10196 C 959.055 2.02662 -0.0746851 0
M  V30 10197 C 959.388 1.45723 1.28368 0
M  V30 10198 O 958.663 0.624062 1.84216 0
M  V30 10199 C 958.946 3.60097 -0.0138109 0
M  V30 10200 C 958.799 4.27412 -1.4014 0
M  V30 10201 C 960.118 4.34744 0.684491 0
M  V30 10202 H 957.237 0.736444 -0.0286144 0
M  V30 10203 H 959.879 1.74341 -0.755328 0
M  V30 10204 H 958.029 3.84357 0.56583 0
M  V30 10205 H 959.701 4.14401 -2.02656 0
M  V30 10206 H 957.944 3.86598 -1.96785 0
M  V30 10207 H 958.615 5.362 -1.31124 0
M  V30 10208 H 961.091 4.15657 0.192023 0
M  V30 10209 H 959.967 5.44468 0.696127 0
M  V30 10210 H 960.228 4.06132 1.74669 0
M  V30 10211 N 959.287 0.325282 1.54207 0
M  V30 10212 C 960.25 -0.527228 2.23054 0
M  V30 10213 C 961.25 -1.04217 1.22456 0
M  V30 10214 O 962.44 -0.934325 1.47024 0
M  V30 10215 C 959.572 -1.7325 2.93594 0
M  V30 10216 H 960.765 0.0746423 2.99807 0
M  V30 10217 H 958.318 0.0763872 1.56113 0
M  V30 10218 H 959.053 -2.37356 2.20981 0
M  V30 10219 H 958.838 -1.37065 3.67363 0
M  V30 10220 H 960.328 -2.3376 3.46043 0
M  V30 10221 N 960.765 -1.57509 0.0534917 0
M  V30 10222 C 962.005 -1.94654 -0.623641 0
M  V30 10223 C 962.369 -0.93184 -1.67871 0
M  V30 10224 O 963.57 -1.19031 -2.41009 0
M  V30 10225 C 961.841 -3.36575 -1.20216 0
M  V30 10226 S 963.4 -3.95677 -1.89697 0
M  V30 10227 H 960.218 -0.680893 -0.20471 0
M  V30 10228 H 962.82 -1.95113 0.122982 0
M  V30 10229 H 961.524 -4.08223 -0.422177 0
M  V30 10230 H 961.055 -3.39617 -1.98555 0
M  V30 10231 H 963.07 -3.81092 -3.17779 0
M  V30 10232 N 962.243 0.219913 -1.56058 0
M  V30 10233 C 963.489 0.945463 -1.79412 0
M  V30 10234 C 963.822 1.83922 -0.62341 0
M  V30 10235 O 963.097 1.90806 0.377256 0
M  V30 10236 C 963.38 1.783 -3.1286 0
M  V30 10237 C 963.233 0.915626 -4.40382 0
M  V30 10238 C 964.552 2.76045 -3.42764 0
M  V30 10239 H 961.671 0.342288 -0.652693 0
M  V30 10240 H 964.313 0.214235 -1.88788 0
M  V30 10241 H 962.463 2.40642 -3.04998 0
M  V30 10242 H 964.135 0.30882 -4.60265 0
M  V30 10243 H 962.378 0.221124 -4.33236 0
M  V30 10244 H 963.049 1.53607 -5.30197 0
M  V30 10245 H 965.525 2.23838 -3.50764 0
M  V30 10246 H 964.401 3.31748 -4.37304 0
M  V30 10247 H 964.662 3.53866 -2.65012 0
M  V30 10248 N 963.721 1.49897 0.486681 0
M  V30 10249 C 964.651 1.7054 1.59494 0
M  V30 10250 C 965.632 0.554184 1.60819 0
M  V30 10251 O 966.817 0.791617 1.77333 0
M  V30 10252 C 963.947 1.78517 2.97908 0
M  V30 10253 C 962.901 2.93571 3.11449 0
M  V30 10254 C 962.227 2.86674 4.51356 0
M  V30 10255 C 963.527 4.34308 2.90127 0
M  V30 10256 H 965.221 2.63329 1.42472 0
M  V30 10257 H 962.767 1.2672 0.683969 0
M  V30 10258 H 964.72 1.91544 3.75352 0
M  V30 10259 H 963.444 0.823381 3.16051 0
M  V30 10260 H 962.103 2.80169 2.36433 0
M  V30 10261 H 961.751 1.88373 4.66395 0
M  V30 10262 H 961.451 3.63903 4.61355 0
M  V30 10263 H 962.975 3.01728 5.30841 0
M  V30 10264 H 964.389 4.48317 3.57331 0
M  V30 10265 H 962.786 5.12869 3.11585 0
M  V30 10266 H 963.856 4.47759 1.86119 0
M  V30 10267 N 965.199 -0.738761 1.39212 0
M  V30 10268 C 966.429 -1.5258 1.39295 0
M  V30 10269 C 966.837 -1.89194 -0.0153 0
M  V30 10270 O 966.18 -1.5435 -0.996073 0
M  V30 10271 C 966.242 -2.84462 2.19822 0
M  V30 10272 C 965.906 -2.70303 3.68491 0
M  V30 10273 C 966.903 -2.39102 4.61656 0
M  V30 10274 C 964.588 -2.87291 4.1203 0
M  V30 10275 C 966.582 -2.25066 5.96342 0
M  V30 10276 C 964.269 -2.72874 5.46793 0
M  V30 10277 C 965.267 -2.41807 6.38763 0
M  V30 10278 O 964.955 -2.27475 7.71045 0
M  V30 10279 H 964.687 -0.478236 0.477772 0
M  V30 10280 H 967.241 -0.920846 1.83602 0
M  V30 10281 H 965.471 -3.47202 1.70257 0
M  V30 10282 H 967.16 -3.46058 2.12129 0
M  V30 10283 H 967.926 -2.25632 4.2932 0
M  V30 10284 H 963.805 -3.10466 3.40781 0
M  V30 10285 H 967.349 -2.00739 6.68094 0
M  V30 10286 H 963.246 -2.85922 5.78722 0
M  V30 10287 H 964.014 -2.42574 7.81729 0
M  V30 10288 N 966.677 -1.24326 -0.968545 0
M  V30 10289 C 967.607 -1.05951 -2.08079 0
M  V30 10290 C 968.588 0.0272666 -1.70078 0
M  V30 10291 O 969.773 -0.139644 -1.93697 0
M  V30 10292 C 966.903 -0.662623 -3.4092 0
M  V30 10293 C 965.857 -1.69807 -3.92873 0
M  V30 10294 C 965.183 -1.15628 -5.22048 0
M  V30 10295 C 966.483 -3.09383 -4.20808 0
M  V30 10296 H 968.177 -1.98984 -2.23709 0
M  V30 10297 H 965.723 -0.958112 -1.075 0
M  V30 10298 H 967.676 -0.521071 -4.18166 0
M  V30 10299 H 966.4 0.303399 -3.25188 0
M  V30 10300 H 965.059 -1.82783 -3.17783 0
M  V30 10301 H 964.707 -0.180888 -5.02675 0
M  V30 10302 H 964.407 -1.84822 -5.57776 0
M  V30 10303 H 965.931 -1.02683 -6.01904 0
M  V30 10304 H 967.345 -2.99642 -4.88761 0
M  V30 10305 H 965.742 -3.75923 -4.67763 0
M  V30 10306 H 966.812 -3.57486 -3.27616 0
M  V30 10307 N 968.156 1.1691 -1.05688 0
M  V30 10308 C 969.106 2.19056 -0.632339 0
M  V30 10309 C 970.09 1.574 0.333797 0
M  V30 10310 O 971.282 1.76361 0.150223 0
M  V30 10311 C 968.411 3.43297 -0.0138209 0
M  V30 10312 C 967.497 4.12042 -1.00408 0
M  V30 10313 N 967.888 4.56535 -2.17737 0
M  V30 10314 C 966.186 4.38139 -0.833663 0
M  V30 10315 C 966.887 5.09644 -2.80425 0
M  V30 10316 N 965.863 5.02153 -2.08191 0
M  V30 10317 H 969.665 2.51165 -1.52621 0
M  V30 10318 H 967.179 1.33294 -0.927707 0
M  V30 10319 H 969.176 4.1576 0.308117 0
M  V30 10320 H 967.836 3.12677 0.87538 0
M  V30 10321 H 968.847 4.50463 -2.55546 0
M  V30 10322 H 965.524 4.175 0.00406684 0
M  V30 10323 H 966.914 5.54153 -3.79952 0
M  V30 10324 N 969.634 0.838594 1.33437 0
M  V30 10325 C 970.883 0.430484 1.97053 0
M  V30 10326 C 971.196 -1.01556 1.6717 0
M  V30 10327 O 972.402 -1.52834 2.24397 0
M  V30 10328 C 970.858 0.718828 3.52648 0
M  V30 10329 C 970.466 2.17953 3.91408 0
M  V30 10330 C 972.21 0.377654 4.22817 0
M  V30 10331 C 970.117 2.41194 5.39981 0
M  V30 10332 H 969.047 0.157239 0.737422 0
M  V30 10333 H 971.698 1.02714 1.5206 0
M  V30 10334 H 970.08 0.0518042 3.95966 0
M  V30 10335 H 971.254 2.88701 3.59149 0
M  V30 10336 H 969.569 2.48366 3.34221 0
M  V30 10337 H 972.166 0.528926 5.32077 0
M  V30 10338 H 972.509 -0.679338 4.1072 0
M  V30 10339 H 973.042 0.999899 3.85028 0
M  V30 10340 H 969.781 3.45457 5.57081 0
M  V30 10341 H 969.301 1.75007 5.73701 0
M  V30 10342 H 970.98 2.24334 6.06863 0
M  V30 10343 N 971.112 -1.45937 0.595003 0
M  V30 10344 C 972.34 -2.06698 0.091293 0
M  V30 10345 C 972.755 -1.44176 -1.21897 0
M  V30 10346 O 972.112 -0.551402 -1.73971 0
M  V30 10347 C 972.163 -3.61436 -0.0681801 0
M  V30 10348 O 971.884 -4.21622 1.19023 0
M  V30 10349 C 973.385 -4.39155 -0.604814 0
M  V30 10350 H 970.605 -0.668029 0.0630737 0
M  V30 10351 H 973.149 -1.87376 0.819165 0
M  V30 10352 H 971.304 -3.80143 -0.746324 0
M  V30 10353 H 971.718 -5.14647 1.01187 0
M  V30 10354 H 973.192 -5.47973 -0.665532 0
M  V30 10355 H 973.669 -4.08055 -1.62444 0
M  V30 10356 H 974.275 -4.25282 0.0388658 0
M  V30 10357 N 972.59 -0.333456 -1.54032 0
M  V30 10358 C 974.006 0.0188405 -1.59589 0
M  V30 10359 C 974.206 1.49615 -1.34972 0
M  V30 10360 O 973.262 2.2535 -1.13901 0
M  V30 10361 C 974.575 -0.408273 -2.97915 0
M  V30 10362 C 976.123 -0.359763 -3.10926 0
M  V30 10363 C 976.598 -0.76219 -4.51613 0
M  V30 10364 N 978.089 -0.715981 -4.57633 0
M  V30 10365 C 978.824 -0.999436 -5.64623 0
M  V30 10366 N 978.32 -1.35053 -6.79509 0
M  V30 10367 N 980.113 -0.924343 -5.54448 0
M  V30 10368 H 972.264 -1.29587 -1.68289 0
M  V30 10369 H 974.527 -0.527584 -0.787629 0
M  V30 10370 H 974.233 -1.43793 -3.20962 0
M  V30 10371 H 974.107 0.221685 -3.76548 0
M  V30 10372 H 976.494 0.660703 -2.87609 0
M  V30 10373 H 976.575 -1.02479 -2.34375 0
M  V30 10374 H 976.219 -1.78062 -4.75664 0
M  V30 10375 H 976.149 -0.0747478 -5.26547 0
M  V30 10376 H 978.64 -0.456875 -3.75128 0
M  V30 10377 H 978.953 -1.55194 -7.57057 0
M  V30 10378 H 977.298 -1.38889 -6.80981 0
M  V30 10379 H 980.489 -0.649469 -4.63573 0
M  V30 10380 H 980.662 -1.1486 -6.37739 0
M  V30 10381 N 974.068 1.57479 -0.061844 0
M  V30 10382 C 975.314 1.93395 0.610443 0
M  V30 10383 C 975.647 0.941334 1.6986 0
M  V30 10384 O 974.922 -0.0310262 1.94475 0
M  V30 10385 C 975.205 3.39636 1.19664 0
M  V30 10386 C 975.058 4.49651 0.115805 0
M  V30 10387 C 976.377 3.86488 2.10512 0
M  V30 10388 H 973.496 0.703262 0.220436 0
M  V30 10389 H 976.138 1.89583 -0.125785 0
M  V30 10390 H 974.288 3.43015 1.82409 0
M  V30 10391 H 975.96 4.58397 -0.516728 0
M  V30 10392 H 974.203 4.30237 -0.55483 0
M  V30 10393 H 974.874 5.49089 0.566176 0
M  V30 10394 H 977.35 3.85052 1.57715 0
M  V30 10395 H 976.226 4.89444 2.48466 0
M  V30 10396 H 976.487 3.23856 3.00948 0
M  V30 10397 N 975.546 -0.211634 1.56173 0
M  V30 10398 C 976.478 -1.286 1.89723 0
M  V30 10399 C 977.491 -1.42549 0.786361 0
M  V30 10400 O 978.68 -1.4327 1.06471 0
M  V30 10401 C 975.78 -2.66036 2.09948 0
M  V30 10402 C 974.953 -2.73908 3.41018 0
M  V30 10403 C 974.012 -3.92425 3.50555 0
M  V30 10404 O 973.038 -3.803 4.2351 0
M  V30 10405 N 974.24 -5.07165 2.82426 0
M  V30 10406 H 977.005 -1.00142 2.82474 0
M  V30 10407 H 974.566 -0.401633 1.56839 0
M  V30 10408 H 976.558 -3.43719 2.13634 0
M  V30 10409 H 975.128 -2.87052 1.23774 0
M  V30 10410 H 974.348 -1.82625 3.49345 0
M  V30 10411 H 975.636 -2.76145 4.27342 0
M  V30 10412 H 975.034 -5.19913 2.2295 0
M  V30 10413 H 973.591 -5.82855 2.9176 0
M  V30 10414 N 977.024 -1.50153 -0.478725 0
M  V30 10415 C 978.264 -1.62393 -1.24129 0
M  V30 10416 C 978.628 -0.313774 -1.89419 0
M  V30 10417 O 979.829 -0.311537 -2.66989 0
M  V30 10418 C 978.1 -2.76633 -2.26293 0
M  V30 10419 S 979.659 -3.08961 -3.11591 0
M  V30 10420 H 976.477 -0.572559 -0.421541 0
M  V30 10421 H 979.079 -1.87906 -0.539592 0
M  V30 10422 H 977.783 -3.70319 -1.76896 0
M  V30 10423 H 977.314 -2.53182 -3.01102 0
M  V30 10424 H 979.329 -2.52197 -4.2733 0
M  V30 10425 N 978.502 0.731368 -1.39602 0
M  V30 10426 C 979.749 1.491 -1.37024 0
M  V30 10427 C 980.077 1.94473 0.0326423 0
M  V30 10428 O 979.332 1.6737 1.01418 0
M  V30 10429 C 979.631 2.74224 -2.29208 0
M  V30 10430 C 979.297 2.477 -3.7677 0
M  V30 10431 C 977.959 2.40175 -4.16976 0
M  V30 10432 C 980.311 2.25098 -4.70086 0
M  V30 10433 C 977.639 2.08095 -5.48556 0
M  V30 10434 C 979.991 1.94534 -6.01946 0
M  V30 10435 C 978.655 1.85481 -6.41212 0
M  V30 10436 H 977.925 0.545595 -0.501405 0
M  V30 10437 H 980.572 0.839127 -1.72136 0
M  V30 10438 H 978.877 3.44171 -1.87225 0
M  V30 10439 H 980.574 3.32264 -2.24504 0
M  V30 10440 H 977.164 2.54436 -3.44906 0
M  V30 10441 H 981.348 2.29876 -4.39853 0
M  V30 10442 H 976.604 1.99611 -5.77897 0
M  V30 10443 H 980.778 1.76054 -6.73779 0
M  V30 10444 H 978.405 1.60389 -7.43088 0
M  V30 10445 N 979.98 1.24838 0.961938 0
M  V30 10446 C 981.391 1.08369 1.5203 0
M  V30 10447 C 981.742 -0.343005 1.93178 0
M  V30 10448 O 980.867 -1.2321 1.779 0
M  V30 10449 C 981.462 1.96102 2.76278 0
M  V30 10450 C 980.021 1.8384 3.28451 0
M  V30 10451 C 979.168 1.9069 2.01327 0
M  V30 10452 H 982.119 1.38231 0.779613 0
M  V30 10453 H 982.14 1.4967 3.49827 0
M  V30 10454 H 981.652 2.99931 2.46298 0
M  V30 10455 H 979.753 0.828653 3.63269 0
M  V30 10456 H 979.866 2.68251 3.96961 0
M  V30 10457 H 978.23 1.34488 2.16299 0
M  V30 10458 H 979.013 2.96111 1.73705 0
M  V30 10459 N 981.458 -1.16348 1.06306 0
M  V30 10460 C 982.706 -1.86512 0.778311 0
M  V30 10461 C 983.027 -1.82107 -0.697273 0
M  V30 10462 O 982.297 -1.2547 -1.50446 0
M  V30 10463 H 980.877 -0.690529 0.284919 0
M  V30 10464 H 983.539 -1.41092 1.34458 0
M  V30 10465 H 982.635 -2.91947 1.10333 0
M  V30 10466 N 982.937 -0.845659 -1.3299 0
M  V30 10467 C 984.177 -0.450819 -1.99366 0
M  V30 10468 C 984.541 0.973297 -1.65502 0
M  V30 10469 O 985.742 1.47222 -2.24898 0
M  V30 10470 C 984.013 -0.672825 -3.5101 0
M  V30 10471 S 985.572 -0.374216 -4.37201 0
M  V30 10472 H 982.39 -0.169273 -0.690556 0
M  V30 10473 H 984.992 -1.09642 -1.61861 0
M  V30 10474 H 983.696 -1.70855 -3.73145 0
M  V30 10475 H 983.227 -0.0133185 -3.93398 0
M  V30 10476 H 985.242 0.803342 -4.89654 0
M  V30 10477 N 984.415 1.45619 -0.602734 0
M  V30 10478 C 985.345 2.33258 0.106342 0
M  V30 10479 C 986.326 1.46543 0.863664 0
M  V30 10480 O 987.511 1.75324 0.835175 0
M  V30 10481 C 984.641 3.29168 1.10751 0
M  V30 10482 C 983.595 4.25481 0.463717 0
M  V30 10483 C 982.921 5.11046 1.57278 0
M  V30 10484 C 984.221 5.18702 -0.61199 0
M  V30 10485 H 985.915 2.92795 -0.625423 0
M  V30 10486 H 983.461 1.40793 -0.302213 0
M  V30 10487 H 985.414 3.89346 1.61208 0
M  V30 10488 H 984.138 2.6778 1.8698 0
M  V30 10489 H 982.797 3.66595 -0.0199496 0
M  V30 10490 H 982.445 4.46029 2.32524 0
M  V30 10491 H 982.145 5.76286 1.14755 0
M  V30 10492 H 983.669 5.74091 2.07972 0
M  V30 10493 H 985.083 5.72979 -0.191686 0
M  V30 10494 H 983.48 5.92393 -0.958686 0
M  V30 10495 H 984.55 4.61424 -1.4905 0
M  V30 10496 N 985.893 0.34162 1.53853 0
M  V30 10497 C 987.121 -0.256929 2.05299 0
M  V30 10498 C 987.536 -1.44366 1.21671 0
M  V30 10499 O 986.893 -1.80758 0.251584 0
M  V30 10500 C 986.944 -0.673854 3.55164 0
M  V30 10501 O 986.665 0.465687 4.35618 0
M  V30 10502 C 988.166 -1.33332 4.22773 0
M  V30 10503 H 985.386 -0.0499445 0.669139 0
M  V30 10504 H 987.93 0.493048 1.98467 0
M  V30 10505 H 986.085 -1.37378 3.62224 0
M  V30 10506 H 986.499 0.133723 5.2433 0
M  V30 10507 H 987.973 -1.57582 5.29029 0
M  V30 10508 H 988.45 -2.28628 3.75001 0
M  V30 10509 H 989.056 -0.675489 4.19901 0
M  V30 10510 N 987.371 -1.57444 0.0701946 0
M  V30 10511 C 988.62 -1.92605 -0.598849 0
M  V30 10512 C 988.933 -0.952058 -1.70866 0
M  V30 10513 O 990.139 -1.19643 -2.43716 0
M  V30 10514 C 988.595 -3.42142 -1.11655 0
M  V30 10515 C 988.203 -4.47984 -0.0378355 0
M  V30 10516 C 989.947 -3.86307 -1.75975 0
M  V30 10517 C 987.854 -5.88652 -0.569495 0
M  V30 10518 H 986.784 -0.718873 -0.22746 0
M  V30 10519 H 989.435 -1.82948 0.14217 0
M  V30 10520 H 987.817 -3.46866 -1.91049 0
M  V30 10521 H 988.991 -4.54874 0.736661 0
M  V30 10522 H 987.306 -4.13277 0.50904 0
M  V30 10523 H 989.903 -4.88784 -2.16782 0
M  V30 10524 H 990.246 -3.23587 -2.61911 0
M  V30 10525 H 990.779 -3.84179 -1.03206 0
M  V30 10526 H 987.518 -6.55013 0.252662 0
M  V30 10527 H 987.038 -5.85285 -1.31155 0
M  V30 10528 H 988.717 -6.38482 -1.04641 0
M  V30 10529 N 988.849 0.203349 -1.56283 0
M  V30 10530 C 989.781 1.27592 -1.90402 0
M  V30 10531 C 990.794 1.4213 -0.79391 0
M  V30 10532 O 991.983 1.42703 -1.07229 0
M  V30 10533 C 989.083 2.64919 -2.11356 0
M  V30 10534 C 988.256 2.72095 -3.42466 0
M  V30 10535 C 987.315 3.9056 -3.52631 0
M  V30 10536 O 986.341 3.78048 -4.25521 0
M  V30 10537 N 987.543 5.0566 -2.85111 0
M  V30 10538 H 990.308 0.986423 -2.83001 0
M  V30 10539 H 987.869 0.39331 -1.5705 0
M  V30 10540 H 989.861 3.42581 -2.15453 0
M  V30 10541 H 988.431 2.86391 -1.25295 0
M  V30 10542 H 987.651 1.8077 -3.50308 0
M  V30 10543 H 988.939 2.73874 -4.28801 0
M  V30 10544 H 988.337 5.18723 -2.25705 0
M  V30 10545 H 986.894 5.81299 -2.94847 0
M  V30 10546 N 990.327 1.50405 0.470755 0
M  V30 10547 C 991.576 1.60652 1.21959 0
M  V30 10548 C 991.889 0.312521 1.93087 0
M  V30 10549 O 993.095 0.293901 2.69905 0
M  V30 10550 C 991.551 2.83581 2.21607 0
M  V30 10551 C 991.159 4.19858 1.5628 0
M  V30 10552 C 992.903 3.03173 2.9713 0
M  V30 10553 C 990.81 5.33974 2.54217 0
M  V30 10554 H 989.74 0.598264 0.458907 0
M  V30 10555 H 992.391 1.76836 0.490041 0
M  V30 10556 H 990.773 2.60957 2.97855 0
M  V30 10557 H 991.947 4.52738 0.85819 0
M  V30 10558 H 990.262 4.05873 0.930366 0
M  V30 10559 H 992.859 3.856 3.70428 0
M  V30 10560 H 993.202 2.14914 3.56536 0
M  V30 10561 H 993.735 3.2598 2.27995 0
M  V30 10562 H 990.474 6.24388 1.99549 0
M  V30 10563 H 989.994 5.05511 3.22829 0
M  V30 10564 H 991.673 5.64561 3.16039 0
M  V30 10565 N 991.805 -0.723954 1.39988 0
M  V30 10566 C 993.221 -1.03095 1.21834 0
M  V30 10567 C 993.421 -2.01309 0.0876647 0
M  V30 10568 O 992.477 -2.46277 -0.55714 0
M  V30 10569 C 993.79 -1.58267 2.5568 0
M  V30 10570 C 995.338 -1.70293 2.6262 0
M  V30 10571 C 995.813 -2.28872 3.96713 0
M  V30 10572 N 997.304 -2.36269 3.98411 0
M  V30 10573 C 998.039 -2.82557 4.98948 0
M  V30 10574 N 997.535 -3.28661 6.0988 0
M  V30 10575 N 999.328 -2.81866 4.86321 0
M  V30 10576 H 991.479 -0.0727891 2.12275 0
M  V30 10577 H 993.742 -0.0949029 0.943238 0
M  V30 10578 H 993.448 -0.935642 3.39026 0
M  V30 10579 H 993.322 -2.56914 2.76179 0
M  V30 10580 H 995.709 -2.34115 1.7965 0
M  V30 10581 H 995.79 -0.70268 2.45959 0
M  V30 10582 H 995.434 -1.65675 4.80119 0
M  V30 10583 H 995.364 -3.29595 4.107 0
M  V30 10584 H 997.855 -2.03697 3.18302 0
M  V30 10585 H 998.168 -3.62524 6.82493 0
M  V30 10586 H 996.513 -3.26641 6.13458 0
M  V30 10587 H 999.704 -2.45179 3.98754 0
M  V30 10588 H 999.877 -3.17626 5.64817 0
M  V30 10589 N 993.283 -1.25346 -0.955304 0
M  V30 10590 C 994.511 -1.12793 -1.73451 0
M  V30 10591 C 994.926 0.318344 -1.86097 0
M  V30 10592 O 994.283 1.21897 -1.35821 0
M  V30 10593 C 994.334 -1.77603 -3.14864 0
M  V30 10594 O 994.055 -3.16577 -3.02837 0
M  V30 10595 C 995.556 -1.70821 -4.09066 0
M  V30 10596 H 992.776 -0.393457 -0.543537 0
M  V30 10597 H 995.32 -1.65696 -1.19855 0
M  V30 10598 H 993.475 -1.28673 -3.65407 0
M  V30 10599 H 993.889 -3.48433 -3.92039 0
M  V30 10600 H 995.363 -2.2083 -5.05903 0
M  V30 10601 H 995.84 -0.671858 -4.34031 0
M  V30 10602 H 996.446 -2.19237 -3.64438 0
M  V30 10603 N 994.761 1.15782 -1.06922 0
M  V30 10604 C 996.007 1.86741 -0.790922 0
M  V30 10605 C 996.34 1.81863 0.681149 0
M  V30 10606 O 995.615 1.23871 1.49954 0
M  V30 10607 C 995.898 3.36038 -1.29422 0
M  V30 10608 C 995.751 3.49573 -2.83052 0
M  V30 10609 C 997.07 4.30647 -0.907239 0
M  V30 10610 H 994.189 0.678064 -0.288787 0
M  V30 10611 H 996.831 1.36054 -1.32624 0
M  V30 10612 H 994.981 3.79336 -0.838843 0
M  V30 10613 H 996.653 3.1517 -3.36847 0
M  V30 10614 H 994.896 2.91275 -3.21467 0
M  V30 10615 H 995.567 4.5445 -3.13335 0
M  V30 10616 H 998.043 3.95286 -1.29956 0
M  V30 10617 H 996.919 5.33604 -1.28679 0
M  V30 10618 H 997.18 4.41703 0.187251 0
M  V30 10619 N 996.239 0.8527 1.3254 0
M  V30 10620 C 997.169 0.311234 2.31416 0
M  V30 10621 C 998.15 -0.588557 1.59593 0
M  V30 10622 O 999.335 -0.509211 1.87405 0
M  V30 10623 C 996.465 -0.502892 3.4364 0
M  V30 10624 C 995.419 0.302296 4.26931 0
M  V30 10625 C 994.745 -0.636445 5.30899 0
M  V30 10626 C 996.045 1.52697 4.99481 0
M  V30 10627 H 997.739 1.13742 2.76953 0
M  V30 10628 H 995.285 0.548389 1.33149 0
M  V30 10629 H 997.238 -0.892092 4.11849 0
M  V30 10630 H 995.962 -1.36242 2.96826 0
M  V30 10631 H 994.621 0.673226 3.60365 0
M  V30 10632 H 994.269 -1.49277 4.80339 0
M  V30 10633 H 993.969 -0.101716 5.87512 0
M  V30 10634 H 995.493 -1.02286 6.01972 0
M  V30 10635 H 996.907 1.21017 5.60382 0
M  V30 10636 H 995.304 1.9995 5.65809 0
M  V30 10637 H 996.374 2.28929 4.27457 0
M  V30 10638 N 997.718 -1.45297 0.610449 0
M  V30 10639 C 998.958 -2.04105 0.109802 0
M  V30 10640 C 999.322 -1.46818 -1.23727 0
M  V30 10641 O 1000.52 -1.96997 -1.82881 0
M  V30 10642 C 998.794 -3.57323 0.0741377 0
M  V30 10643 S 1000.35 -4.3728 -0.364901 0
M  V30 10644 H 997.171 -0.709171 0.050967 0
M  V30 10645 H 999.773 -1.77967 0.809194 0
M  V30 10646 H 998.477 -3.96528 1.05801 0
M  V30 10647 H 998.008 -3.8804 -0.647158 0
M  V30 10648 H 1000.02 -4.69224 -1.61379 0
M  V30 10649 N 999.196 -0.349774 -1.5367 0
M  V30 10650 C 1000.44 0.245862 -2.00196 0
M  V30 10651 C 1000.76 1.51154 -1.24144 0
M  V30 10652 O 1001.96 2.18481 -1.61178 0
M  V30 10653 C 1000.42 0.488665 -3.56567 0
M  V30 10654 C 1000.03 -0.761475 -4.41481 0
M  V30 10655 C 1001.77 1.04282 -4.11492 0
M  V30 10656 C 999.679 -0.489128 -5.89374 0
M  V30 10657 H 998.609 0.0956493 -0.747909 0
M  V30 10658 H 1001.26 -0.466068 -1.77483 0
M  V30 10659 H 999.642 1.26145 -3.75371 0
M  V30 10660 H 1000.82 -1.53585 -4.34452 0
M  V30 10661 H 999.131 -1.23771 -3.9758 0
M  V30 10662 H 1001.73 1.26164 -5.19603 0
M  V30 10663 H 1002.07 2.00023 -3.65098 0
M  V30 10664 H 1002.6 0.330582 -3.96424 0
M  V30 10665 H 999.343 -1.41643 -6.40014 0
M  V30 10666 H 998.863 0.247039 -5.99291 0
M  V30 10667 H 1000.54 -0.1087 -6.46909 0
M  V30 10668 N 1000.67 1.57404 -0.0785433 0
M  V30 10669 C 1001.92 1.93744 0.589024 0
M  V30 10670 C 1002.25 0.959087 1.69209 0
M  V30 10671 O 1001.5 -0.0241604 1.95685 0
M  V30 10672 C 1001.8 3.36684 1.1991 0
M  V30 10673 C 1001.47 4.50356 0.221493 0
M  V30 10674 C 1000.13 4.81177 -0.0474347 0
M  V30 10675 C 1002.48 5.1928 -0.446941 0
M  V30 10676 C 999.811 5.78257 -0.99177 0
M  V30 10677 C 1002.16 6.17372 -1.37964 0
M  V30 10678 C 1000.83 6.46607 -1.65697 0
M  V30 10679 H 1000.1 0.70896 0.215539 0
M  V30 10680 H 1002.74 1.90905 -0.150856 0
M  V30 10681 H 1001.05 3.36022 2.01486 0
M  V30 10682 H 1002.75 3.62095 1.72303 0
M  V30 10683 H 999.336 4.26322 0.441284 0
M  V30 10684 H 1003.52 4.95658 -0.252298 0
M  V30 10685 H 998.776 5.9923 -1.21381 0
M  V30 10686 H 1002.95 6.6988 -1.9035 0
M  V30 10687 H 1000.58 7.21643 -2.39031 0
M  V30 10688 N 1002.15 -0.195058 1.56388 0
M  V30 10689 C 1003.4 -0.913626 1.79821 0
M  V30 10690 C 1003.71 -1.84422 0.651767 0
M  V30 10691 O 1004.92 -2.6034 0.770402 0
M  V30 10692 C 1003.38 -1.67497 3.18548 0
M  V30 10693 C 1002.98 -0.789205 4.40994 0
M  V30 10694 C 1004.73 -2.38318 3.5129 0
M  V30 10695 C 1002.63 -1.54942 5.70742 0
M  V30 10696 H 1001.56 -0.344891 0.670497 0
M  V30 10697 H 1004.22 -0.166912 1.82739 0
M  V30 10698 H 1002.6 -2.46557 3.0988 0
M  V30 10699 H 1003.77 -0.0372595 4.60785 0
M  V30 10700 H 1002.09 -0.191834 4.15958 0
M  V30 10701 H 1004.68 -2.95745 4.45465 0
M  V30 10702 H 1005.03 -3.12507 2.75037 0
M  V30 10703 H 1005.56 -1.66224 3.61406 0
M  V30 10704 H 1002.3 -0.85031 6.49962 0
M  V30 10705 H 1001.82 -2.2753 5.54969 0
M  V30 10706 H 1003.5 -2.1032 6.11861 0
M  V30 10707 N 1003.63 -1.50653 -0.462772 0
M  V30 10708 C 1004.88 -1.62297 -1.21603 0
M  V30 10709 C 1005.21 -0.326191 -1.91441 0
M  V30 10710 O 1004.48 0.67284 -1.82491 0
M  V30 10711 C 1004.77 -2.80901 -2.25315 0
M  V30 10712 C 1004.62 -4.20484 -1.59728 0
M  V30 10713 C 1005.94 -2.95049 -3.26549 0
M  V30 10714 H 1003.06 -0.590691 -0.440741 0
M  V30 10715 H 1005.7 -1.83064 -0.508675 0
M  V30 10716 H 1003.85 -2.63325 -2.85643 0
M  V30 10717 H 1005.52 -4.49669 -1.02932 0
M  V30 10718 H 1003.76 -4.24357 -0.900181 0
M  V30 10719 H 1004.44 -4.99416 -2.35133 0
M  V30 10720 H 1006.91 -3.11166 -2.76251 0
M  V30 10721 H 1005.79 -3.79645 -3.96435 0
M  V30 10722 H 1006.05 -2.06019 -3.91163 0
M  V30 10723 N 1005.11 0.71652 -1.4037 0
M  V30 10724 C 1006.35 1.47857 -1.38803 0
M  V30 10725 C 1006.69 1.94197 0.0100536 0
M  V30 10726 O 1005.96 1.68093 0.978521 0
M  V30 10727 C 1006.25 2.7053 -2.37667 0
M  V30 10728 C 1006.1 2.3009 -3.86496 0
M  V30 10729 C 1007.42 3.72684 -2.34082 0
M  V30 10730 H 1004.54 0.53632 -0.505499 0
M  V30 10731 H 1007.18 0.817824 -1.71498 0
M  V30 10732 H 1005.33 3.26906 -2.09916 0
M  V30 10733 H 1007 1.79202 -4.2507 0
M  V30 10734 H 1005.24 1.62102 -4.02375 0
M  V30 10735 H 1005.91 3.18018 -4.51186 0
M  V30 10736 H 1008.39 3.25935 -2.58661 0
M  V30 10737 H 1007.27 4.56157 -3.05306 0
M  V30 10738 H 1007.53 4.20916 -1.35213 0
M  V30 10739 N 1006.59 1.25851 0.948643 0
M  V30 10740 C 1007.52 1.09248 2.06367 0
M  V30 10741 C 1008.5 -0.000205168 1.701 0
M  V30 10742 O 1009.68 0.170442 1.93451 0
M  V30 10743 C 1006.81 0.716777 3.39823 0
M  V30 10744 C 1005.77 1.76036 3.90122 0
M  V30 10745 C 1005.09 1.23918 5.20143 0
M  V30 10746 C 1006.39 3.16039 4.15833 0
M  V30 10747 H 1008.09 2.02518 2.20515 0
M  V30 10748 H 1005.63 0.975093 1.05962 0
M  V30 10749 H 1007.59 0.587531 4.17284 0
M  V30 10750 H 1006.31 -0.251626 3.25629 0
M  V30 10751 H 1004.97 1.87815 3.14835 0
M  V30 10752 H 1004.62 0.260836 5.02323 0
M  V30 10753 H 1004.32 1.93673 5.54765 0
M  V30 10754 H 1005.84 1.12245 6.00194 0
M  V30 10755 H 1007.25 3.0738 4.83933 0
M  V30 10756 H 1005.65 3.83317 4.61723 0
M  V30 10757 H 1006.72 3.62652 3.21887 0
M  V30 10758 N 1008.06 -1.15214 1.07534 0
M  V30 10759 C 1009.31 -1.85388 0.794617 0
M  V30 10760 C 1009.63 -1.83331 -0.681838 0
M  V30 10761 O 1010.83 -2.49207 -1.0774 0
M  V30 10762 C 1009.29 -3.32747 1.37141 0
M  V30 10763 C 1008.9 -3.43244 2.87902 0
M  V30 10764 C 1010.64 -4.08093 1.16879 0
M  V30 10765 C 1008.55 -4.84762 3.38763 0
M  V30 10766 H 1007.48 -0.694499 0.293577 0
M  V30 10767 H 1010.13 -1.29944 1.29564 0
M  V30 10768 H 1008.51 -3.87874 0.798121 0
M  V30 10769 H 1009.68 -2.98214 3.51291 0
M  V30 10770 H 1008 -2.81345 3.06975 0
M  V30 10771 H 1010.6 -5.12535 1.52353 0
M  V30 10772 H 1010.94 -4.1616 0.107958 0
M  V30 10773 H 1011.47 -3.59241 1.70854 0
M  V30 10774 H 1008.21 -4.81879 4.4438 0
M  V30 10775 H 1007.73 -5.30366 2.80128 0
M  V30 10776 H 1009.41 -5.53624 3.34827 0
M  V30 10777 N 1009.54 -0.859717 -1.32086 0
M  V30 10778 C 1010.77 -0.479028 -2.0097 0
M  V30 10779 C 1011.18 0.930242 -1.64752 0
M  V30 10780 O 1010.52 1.6193 -0.867437 0
M  V30 10781 C 1010.59 -0.54431 -3.55355 0
M  V30 10782 C 1010.25 -1.91337 -4.15017 0
M  V30 10783 C 1011.25 -2.87951 -4.32874 0
M  V30 10784 C 1008.93 -2.21189 -4.50977 0
M  V30 10785 C 1010.93 -4.12567 -4.85867 0
M  V30 10786 C 1008.61 -3.46057 -5.03674 0
M  V30 10787 C 1009.61 -4.41562 -5.21068 0
M  V30 10788 O 1009.3 -5.64218 -5.72637 0
M  V30 10789 H 1009.03 -0.186161 -0.649861 0
M  V30 10790 H 1011.58 -1.15976 -1.69525 0
M  V30 10791 H 1009.81 0.1933 -3.86217 0
M  V30 10792 H 1011.5 -0.178506 -4.05507 0
M  V30 10793 H 1012.27 -2.66194 -4.05421 0
M  V30 10794 H 1008.15 -1.47635 -4.36721 0
M  V30 10795 H 1011.69 -4.8712 -4.99359 0
M  V30 10796 H 1007.59 -3.67662 -5.30561 0
M  V30 10797 H 1008.36 -5.66246 -5.91023 0
M  V30 10798 N 1011.02 1.44971 -0.618145 0
M  V30 10799 C 1012.25 2.07039 -0.122395 0
M  V30 10800 C 1012.67 1.45793 1.18853 0
M  V30 10801 O 1012.03 0.55453 1.72611 0
M  V30 10802 C 1012.08 3.60599 -0.0073864 0
M  V30 10803 O 1011.18 3.99069 1.04007 0
M  V30 10804 H 1010.52 0.6593 -0.0788615 0
M  V30 10805 H 1013.05 1.86055 -0.851147 0
M  V30 10806 H 1013.06 4.07569 0.187417 0
M  V30 10807 H 1011.74 4.04561 -0.964544 0
M  V30 10808 H 1010.31 3.63753 0.820879 0
M  V30 10809 N 1012.5 0.357919 1.53482 0
M  V30 10810 C 1013.74 -0.23451 2.0144 0
M  V30 10811 C 1014.08 -1.49044 1.24497 0
M  V30 10812 O 1013.35 -1.91566 0.336535 0
M  V30 10813 C 1013.64 -0.534193 3.56116 0
M  V30 10814 C 1013.49 0.734834 4.43757 0
M  V30 10815 C 1014.81 -1.33793 4.1927 0
M  V30 10816 H 1011.93 -0.0837595 0.732225 0
M  V30 10817 H 1014.57 0.481297 1.83803 0
M  V30 10818 H 1012.72 -1.144 3.71275 0
M  V30 10819 H 1014.39 1.37251 4.40409 0
M  V30 10820 H 1012.63 1.35678 4.12036 0
M  V30 10821 H 1013.3 0.48021 5.49907 0
M  V30 10822 H 1015.78 -0.822158 4.07897 0
M  V30 10823 H 1014.66 -1.51636 5.27539 0
M  V30 10824 H 1014.92 -2.34423 3.74831 0
M  V30 10825 N 1013.98 -1.5736 0.0868897 0
M  V30 10826 C 1014.94 -2.12436 -0.860439 0
M  V30 10827 C 1015.94 -1.05175 -1.21634 0
M  V30 10828 O 1017.13 -1.31098 -1.14713 0
M  V30 10829 C 1014.26 -2.63818 -2.159 0
M  V30 10830 H 1015.45 -2.97453 -0.382346 0
M  V30 10831 H 1013.01 -1.55458 -0.162009 0
M  V30 10832 H 1013.74 -1.82298 -2.68212 0
M  V30 10833 H 1013.53 -3.42234 -1.91359 0
M  V30 10834 H 1015.02 -3.06452 -2.83685 0
M  V30 10835 N 1015.45 0.186762 -1.56489 0
M  V30 10836 C 1016.39 1.25565 -1.91745 0
M  V30 10837 C 1017.4 1.4128 -0.80894 0
M  V30 10838 O 1018.59 1.41558 -1.08737 0
M  V30 10839 C 1015.69 2.62662 -2.14154 0
M  V30 10840 C 1014.86 2.68448 -3.45333 0
M  V30 10841 C 1013.92 3.86798 -3.56754 0
M  V30 10842 O 1012.95 3.73514 -4.29507 0
M  V30 10843 N 1014.15 5.02607 -2.90459 0
M  V30 10844 H 1016.91 0.956351 -2.84032 0
M  V30 10845 H 1014.47 0.376631 -1.57458 0
M  V30 10846 H 1016.47 3.40277 -2.19075 0
M  V30 10847 H 1015.04 2.85046 -1.28326 0
M  V30 10848 H 1014.26 1.77044 -3.52206 0
M  V30 10849 H 1015.54 2.69311 -4.31682 0
M  V30 10850 H 1014.94 5.163 -2.31194 0
M  V30 10851 H 1013.5 5.78139 -3.00996 0
M  V30 10852 N 1016.93 1.50896 0.454776 0
M  V30 10853 C 1018.18 1.62378 1.20324 0
M  V30 10854 C 1018.5 0.333883 1.9212 0
M  V30 10855 O 1017.77 -0.649477 1.8482 0
M  V30 10856 H 1016.35 0.598395 0.447139 0
M  V30 10857 H 1019.01 1.87749 0.523102 0
M  V30 10858 H 1018.11 2.44296 1.94232 0
M  V30 10859 N 1018.41 -0.709066 1.40748 0
M  V30 10860 C 1019.65 -1.48139 1.40834 0
M  V30 10861 C 1020.01 -1.91996 0.0117625 0
M  V30 10862 O 1021.22 -2.68564 -0.112524 0
M  V30 10863 C 1019.49 -2.67009 2.37573 0
M  V30 10864 S 1021.05 -3.56331 2.56073 0
M  V30 10865 H 1017.86 -0.506396 0.499084 0
M  V30 10866 H 1020.47 -0.828588 1.77072 0
M  V30 10867 H 1019.17 -2.32971 3.37865 0
M  V30 10868 H 1018.7 -3.37195 2.02641 0
M  V30 10869 H 1020.72 -4.61695 1.81803 0
M  V30 10870 N 1019.89 -1.26353 -0.941956 0
M  V30 10871 C 1021.14 -1.12017 -1.69056 0
M  V30 10872 C 1021.47 0.335856 -1.91274 0
M  V30 10873 O 1020.74 1.24677 -1.49285 0
M  V30 10874 C 1021.03 -1.88889 -3.06583 0
M  V30 10875 C 1020.88 -3.42394 -2.91696 0
M  V30 10876 C 1022.2 -1.68209 -4.06686 0
M  V30 10877 H 1019.32 -0.408311 -0.613556 0
M  V30 10878 H 1021.96 -1.55339 -1.09407 0
M  V30 10879 H 1020.11 -1.5207 -3.57501 0
M  V30 10880 H 1021.78 -3.88962 -2.48005 0
M  V30 10881 H 1020.02 -3.69459 -2.27338 0
M  V30 10882 H 1020.7 -3.91408 -3.89235 0
M  V30 10883 H 1023.17 -2.00286 -3.64726 0
M  V30 10884 H 1022.05 -2.24412 -5.00929 0
M  V30 10885 H 1022.31 -0.626474 -4.37639 0
M  V30 10886 N 1021.37 1.14642 -1.08144 0
M  V30 10887 C 1022.61 1.85892 -0.810683 0
M  V30 10888 C 1022.95 1.82575 0.661821 0
M  V30 10889 O 1022.22 1.25454 1.48632 0
M  V30 10890 C 1022.5 3.34647 -1.32979 0
M  V30 10891 C 1022.36 3.46551 -2.86744 0
M  V30 10892 C 1023.68 4.29661 -0.952864 0
M  V30 10893 H 1020.8 0.674963 -0.295963 0
M  V30 10894 H 1023.44 1.3464 -1.3406 0
M  V30 10895 H 1021.59 3.78425 -0.87903 0
M  V30 10896 H 1023.26 3.11579 -3.40171 0
M  V30 10897 H 1021.5 2.87849 -3.24539 0
M  V30 10898 H 1022.17 4.51101 -3.18138 0
M  V30 10899 H 1024.65 3.93885 -1.34141 0
M  V30 10900 H 1023.53 5.32209 -1.34331 0
M  V30 10901 H 1023.79 4.41877 0.140392 0
M  V30 10902 N 1022.85 0.866709 1.31628 0
M  V30 10903 C 1024.09 0.475086 1.96437 0
M  V30 10904 C 1024.41 -0.975179 1.68865 0
M  V30 10905 O 1023.68 -1.68317 1.0023 0
M  V30 10906 H 1022.26 0.172695 0.726764 0
M  V30 10907 H 1024.93 1.10578 1.60494 0
M  V30 10908 H 1024.02 0.630123 3.05673 0
M  V30 10909 N 1024.32 -1.44642 0.625825 0
M  V30 10910 C 1025.56 -2.03977 0.131444 0
M  V30 10911 C 1025.93 -1.48122 -1.22163 0
M  V30 10912 O 1027.13 -1.98926 -1.80781 0
M  V30 10913 C 1025.4 -3.57224 0.112032 0
M  V30 10914 S 1026.96 -4.37643 -0.318501 0
M  V30 10915 H 1023.78 -0.70859 0.0584859 0
M  V30 10916 H 1026.38 -1.77099 0.828024 0
M  V30 10917 H 1025.08 -3.95383 1.10001 0
M  V30 10918 H 1024.61 -3.88705 -0.605965 0
M  V30 10919 H 1026.63 -4.70909 -1.56393 0
M  V30 10920 N 1025.8 -0.366053 -1.5329 0
M  V30 10921 C 1026.73 0.47211 -2.28677 0
M  V30 10922 C 1027.71 1.08353 -1.31125 0
M  V30 10923 O 1028.9 1.10069 -1.59995 0
M  V30 10924 C 1026.03 1.61174 -3.07637 0
M  V30 10925 C 1024.98 1.12755 -4.12881 0
M  V30 10926 C 1024.31 2.35745 -4.79925 0
M  V30 10927 C 1025.61 0.211954 -5.2187 0
M  V30 10928 H 1027.3 -0.156838 -2.98989 0
M  V30 10929 H 1024.85 -0.0768709 -1.43795 0
M  V30 10930 H 1026.8 2.20473 -3.59123 0
M  V30 10931 H 1025.52 2.26793 -2.35016 0
M  V30 10932 H 1024.18 0.557234 -3.6234 0
M  V30 10933 H 1023.83 2.99821 -4.03877 0
M  V30 10934 H 1023.53 2.04019 -5.51044 0
M  V30 10935 H 1025.06 2.95729 -5.34207 0
M  V30 10936 H 1026.47 0.71244 -5.68856 0
M  V30 10937 H 1024.87 -0.0144501 -6.00098 0
M  V30 10938 H 1025.94 -0.745753 -4.79131 0
M  V30 10939 N 1027.28 1.57312 -0.0952337 0
M  V30 10940 C 1028.69 1.81589 0.433875 0
M  V30 10941 C 1029.04 1.01086 1.68155 0
M  V30 10942 O 1028.17 0.240272 2.15062 0
M  V30 10943 C 1028.76 3.29366 0.793931 0
M  V30 10944 C 1027.32 3.54407 1.26778 0
M  V30 10945 C 1026.47 2.76035 0.264518 0
M  V30 10946 H 1029.42 1.55426 -0.320675 0
M  V30 10947 H 1029.44 3.42697 1.65345 0
M  V30 10948 H 1028.95 3.87932 -0.114334 0
M  V30 10949 H 1027.05 3.01173 2.19376 0
M  V30 10950 H 1027.17 4.63055 1.22952 0
M  V30 10951 H 1025.53 2.43509 0.746691 0
M  V30 10952 H 1026.31 3.37349 -0.636429 0
M  V30 10953 N 1028.76 -0.17846 1.56586 0
M  V30 10954 C 1030 -0.892915 1.82753 0
M  V30 10955 C 1030.36 -1.8018 0.674744 0
M  V30 10956 O 1029.65 -1.8875 -0.329219 0
M  V30 10957 C 1029.85 -1.73063 3.12704 0
M  V30 10958 C 1029.67 -0.904341 4.40513 0
M  V30 10959 C 1028.44 -0.582221 5.01935 0
M  V30 10960 C 1030.64 -0.249232 5.13696 0
M  V30 10961 N 1028.62 0.260955 6.13345 0
M  V30 10962 C 1030 0.455417 6.18325 0
M  V30 10963 C 1032.05 -0.166663 4.97621 0
M  V30 10964 C 1030.75 1.23479 7.08622 0
M  V30 10965 C 1032.78 0.599362 5.88355 0
M  V30 10966 C 1032.14 1.2924 6.92442 0
M  V30 10967 H 1028.24 -0.30559 0.719818 0
M  V30 10968 H 1030.82 -0.160405 1.94038 0
M  V30 10969 H 1029 -2.43461 3.02624 0
M  V30 10970 H 1030.73 -2.38584 3.26894 0
M  V30 10971 H 1027.48 -0.910612 4.64763 0
M  V30 10972 H 1027.91 0.672643 6.7365 0
M  V30 10973 H 1032.55 -0.688116 4.17163 0
M  V30 10974 H 1030.27 1.76762 7.88531 0
M  V30 10975 H 1033.85 0.664826 5.77989 0
M  V30 10976 H 1032.73 1.87564 7.61439 0
M  V30 10977 N 1030.24 -1.51135 -0.446768 0
M  V30 10978 C 1031.2 -1.71187 -1.52406 0
M  V30 10979 C 1032.2 -0.582037 -1.49897 0
M  V30 10980 O 1033.39 -0.849452 -1.52085 0
M  V30 10981 C 1030.52 -1.75962 -2.91976 0
M  V30 10982 H 1031.71 -2.67324 -1.35934 0
M  V30 10983 H 1029.27 -1.40982 -0.674813 0
M  V30 10984 H 1030 -0.816065 -3.13864 0
M  V30 10985 H 1029.79 -2.58065 -2.95203 0
M  V30 10986 H 1031.28 -1.93347 -3.70144 0
M  V30 10987 N 1031.71 0.701592 -1.41122 0
M  V30 10988 C 1032.96 1.46245 -1.41364 0
M  V30 10989 C 1033.31 1.9239 -0.0200662 0
M  V30 10990 O 1032.61 1.6622 0.952971 0
M  V30 10991 C 1032.8 2.693 -2.34973 0
M  V30 10992 C 1032.63 2.35193 -3.83294 0
M  V30 10993 C 1031.4 2.2585 -4.52018 0
M  V30 10994 C 1033.6 1.98555 -4.74426 0
M  V30 10995 N 1031.58 1.84565 -5.85499 0
M  V30 10996 C 1032.95 1.67981 -5.9681 0
M  V30 10997 C 1035.01 1.85313 -4.62129 0
M  V30 10998 C 1033.71 1.25496 -7.08268 0
M  V30 10999 C 1035.74 1.44232 -5.73543 0
M  V30 11000 C 1035.1 1.14564 -6.95021 0
M  V30 11001 H 1031.2 0.532679 -0.572518 0
M  V30 11002 H 1033.78 0.812296 -1.76946 0
M  V30 11003 H 1031.95 3.32045 -2.01496 0
M  V30 11004 H 1033.68 3.35734 -2.25976 0
M  V30 11005 H 1030.44 2.4405 -4.05878 0
M  V30 11006 H 1030.86 1.66421 -6.56226 0
M  V30 11007 H 1035.5 2.06905 -3.68714 0
M  V30 11008 H 1033.22 1.02647 -8.01554 0
M  V30 11009 H 1036.81 1.34544 -5.66029 0
M  V30 11010 H 1035.69 0.832556 -7.79768 0
M  V30 11011 N 1033.19 1.2685 0.935242 0
M  V30 11012 C 1034.42 1.15645 1.72165 0
M  V30 11013 C 1034.84 -0.283909 1.85945 0
M  V30 11014 O 1034.2 -1.20567 1.354 0
M  V30 11015 C 1034.25 1.83689 3.10307 0
M  V30 11016 O 1033.35 1.12972 3.96625 0
M  V30 11017 H 1032.69 0.402629 0.528002 0
M  V30 11018 H 1035.22 1.67781 1.17093 0
M  V30 11019 H 1035.23 1.90749 3.60664 0
M  V30 11020 H 1033.91 2.88472 2.99595 0
M  V30 11021 H 1032.48 1.13929 3.5507 0
M  V30 11022 N 1034.67 -1.14067 1.0875 0
M  V30 11023 C 1035.9 -1.89582 0.841038 0
M  V30 11024 C 1036.32 -1.78226 -0.601436 0
M  V30 11025 O 1035.68 -1.12491 -1.42181 0
M  V30 11026 C 1035.73 -3.37415 1.27213 0
M  V30 11027 O 1034.83 -4.10191 0.426246 0
M  V30 11028 H 1034.17 -0.589716 0.305173 0
M  V30 11029 H 1036.7 -1.44364 1.44984 0
M  V30 11030 H 1036.71 -3.88234 1.25451 0
M  V30 11031 H 1035.39 -3.44999 2.32268 0
M  V30 11032 H 1033.96 -3.69429 0.507585 0
M  V30 11033 N 1036.15 -0.873678 -1.31166 0
M  V30 11034 C 1037.1 -0.330288 -2.28424 0
M  V30 11035 C 1038.07 0.573299 -1.55893 0
M  V30 11036 O 1039.25 0.504143 -1.84019 0
M  V30 11037 C 1036.39 0.459004 -3.42034 0
M  V30 11038 C 1035.5 -0.472519 -4.29408 0
M  V30 11039 C 1034.64 0.331261 -5.30166 0
M  V30 11040 C 1033.68 -0.596453 -6.09187 0
M  V30 11041 N 1032.81 0.171305 -7.01891 0
M  V30 11042 H 1037.65 -1.16485 -2.7429 0
M  V30 11043 H 1035.19 -0.585813 -1.34932 0
M  V30 11044 H 1037.15 0.932432 -4.06647 0
M  V30 11045 H 1035.78 1.25824 -2.97268 0
M  V30 11046 H 1034.83 -1.06441 -3.65205 0
M  V30 11047 H 1036.14 -1.18372 -4.84551 0
M  V30 11048 H 1035.3 0.867038 -6.00473 0
M  V30 11049 H 1034.04 1.07573 -4.75688 0
M  V30 11050 H 1033.04 -1.14395 -5.37767 0
M  V30 11051 H 1034.27 -1.33983 -6.65752 0
M  V30 11052 H 1032.21 0.89852 -6.49817 0
M  V30 11053 H 1032.13 -0.480481 -7.54472 0
M  V30 11054 H 1033.4 0.688192 -7.76456 0
M  V30 11055 N 1037.63 1.44308 -0.633487 0
M  V30 11056 C 1039.04 1.85387 -0.221009 0
M  V30 11057 C 1039.39 1.5301 1.22811 0
M  V30 11058 O 1038.51 0.969325 1.93476 0
M  V30 11059 C 1039.11 3.36497 -0.394331 0
M  V30 11060 C 1037.67 3.76382 -0.0363405 0
M  V30 11061 C 1036.81 2.68146 -0.706598 0
M  V30 11062 H 1039.77 1.34741 -0.83849 0
M  V30 11063 H 1039.79 3.78735 0.366026 0
M  V30 11064 H 1039.3 3.60031 -1.44911 0
M  V30 11065 H 1037.4 3.58463 1.01661 0
M  V30 11066 H 1037.51 4.77 -0.448045 0
M  V30 11067 H 1035.88 2.54306 -0.14168 0
M  V30 11068 H 1036.66 2.94512 -1.76401 0
M  V30 11069 N 1039.1 0.374177 1.53094 0
M  V30 11070 C 1040.05 -0.48326 2.27524 0
M  V30 11071 C 1041.05 -1.07606 1.30833 0
M  V30 11072 O 1042.25 -1.01827 1.48429 0
M  V30 11073 H 1038.63 -0.174578 0.731455 0
M  V30 11074 H 1040.6 0.166156 2.97937 0
M  V30 11075 C 1039.35 -1.6065 3.08362 0
M  V30 11076 H 1038.67 -1.15966 3.82612 0
M  V30 11077 H 1040.11 -2.18099 3.63606 0
M  V30 11078 C 1038.57 -2.55381 2.19732 0
M  V30 11079 O 1039.1 -3.58414 1.8139 0
M  V30 11080 N 1037.31 -2.24769 1.84194 0
M  V30 11081 H 1036.85 -1.41018 2.15573 0
M  V30 11082 H 1036.81 -2.88404 1.25181 0
M  V30 11083 N 1040.58 -1.57259 0.103575 0
M  V30 11084 C 1041.81 -1.99424 -0.569638 0
M  V30 11085 C 1042.23 -0.982475 -1.60403 0
M  V30 11086 O 1041.59 0.0479231 -1.81237 0
M  V30 11087 C 1041.64 -3.40527 -1.18633 0
M  V30 11088 O 1040.74 -3.42167 -2.30208 0
M  V30 11089 H 1040.08 -0.648251 -0.143759 0
M  V30 11090 H 1042.61 -2.03739 0.187493 0
M  V30 11091 H 1042.62 -3.78404 -1.5256 0
M  V30 11092 H 1041.3 -4.13686 -0.428582 0
M  V30 11093 H 1039.88 -3.16093 -1.97837 0
M  V30 11094 N 1042.06 0.170153 -1.56679 0
M  V30 11095 C 1043.29 0.90618 -1.86556 0
M  V30 11096 C 1043.71 1.74986 -0.690044 0
M  V30 11097 O 1043.07 1.77672 0.360862 0
M  V30 11098 C 1043.12 1.75777 -3.14857 0
M  V30 11099 O 1042.22 2.85952 -2.97162 0
M  V30 11100 H 1041.56 0.253781 -0.613589 0
M  V30 11101 H 1044.09 0.167943 -2.0391 0
M  V30 11102 H 1044.1 2.15747 -3.46291 0
M  V30 11103 H 1042.78 1.13807 -4.00026 0
M  V30 11104 H 1041.35 2.49557 -2.77084 0
M  V30 11105 N 1043.54 1.5137 0.438746 0
M  V30 11106 C 1044.47 1.75528 1.53987 0
M  V30 11107 C 1045.45 0.605067 1.58975 0
M  V30 11108 O 1046.63 0.847634 1.74725 0
M  V30 11109 C 1043.76 1.87904 2.92078 0
M  V30 11110 C 1042.72 3.0333 3.01951 0
M  V30 11111 C 1042.04 3.00888 4.42007 0
M  V30 11112 C 1043.34 4.43319 2.76163 0
M  V30 11113 H 1045.04 2.67728 1.34022 0
M  V30 11114 H 1042.58 1.28831 0.643308 0
M  V30 11115 H 1044.54 2.03388 3.69068 0
M  V30 11116 H 1043.26 0.923514 3.13271 0
M  V30 11117 H 1041.92 2.87549 2.274 0
M  V30 11118 H 1041.57 2.03116 4.60166 0
M  V30 11119 H 1041.27 3.78397 4.49544 0
M  V30 11120 H 1042.79 3.18464 5.20973 0
M  V30 11121 H 1044.21 4.59458 3.42887 0
M  V30 11122 H 1042.6 5.22523 2.9511 0
M  V30 11123 H 1043.67 4.53453 1.71779 0
M  V30 11124 N 1045.02 -0.694098 1.41492 0
M  V30 11125 C 1046.26 -1.4563 1.41137 0
M  V30 11126 C 1046.6 -1.94189 0.0208428 0
M  V30 11127 O 1045.87 -1.69628 -0.951655 0
M  V30 11128 C 1046.15 -2.66714 2.41941 0
M  V30 11129 C 1046.01 -2.23912 3.90107 0
M  V30 11130 C 1047.33 -3.68913 2.39981 0
M  V30 11131 H 1044.44 -0.52821 0.513968 0
M  V30 11132 H 1047.09 -0.790437 1.72778 0
M  V30 11133 H 1045.24 -3.23525 2.1509 0
M  V30 11134 H 1046.91 -1.72417 4.27867 0
M  V30 11135 H 1045.15 -1.5568 4.04903 0
M  V30 11136 H 1045.82 -3.108 4.56188 0
M  V30 11137 H 1048.3 -3.21779 2.63813 0
M  V30 11138 H 1047.17 -4.51242 3.12524 0
M  V30 11139 H 1047.44 -4.18711 1.41892 0
M  V30 11140 N 1046.49 -1.27344 -0.928501 0
M  V30 11141 C 1047.74 -1.13804 -1.67859 0
M  V30 11142 C 1048.07 0.31555 -1.91619 0
M  V30 11143 O 1047.35 1.23087 -1.50599 0
M  V30 11144 C 1047.63 -1.9213 -3.04562 0
M  V30 11145 C 1047.48 -3.45468 -2.88048 0
M  V30 11146 C 1048.8 -1.72513 -4.04879 0
M  V30 11147 H 1045.92 -0.414796 -0.609191 0
M  V30 11148 H 1048.56 -1.5649 -1.07753 0
M  V30 11149 H 1046.71 -1.55853 -3.55868 0
M  V30 11150 H 1048.39 -3.9157 -2.43865 0
M  V30 11151 H 1046.63 -3.71849 -2.23407 0
M  V30 11152 H 1047.3 -3.95515 -3.85061 0
M  V30 11153 H 1049.78 -2.04143 -3.62581 0
M  V30 11154 H 1048.65 -2.29713 -4.98521 0
M  V30 11155 H 1048.91 -0.672856 -4.3695 0
M  V30 11156 N 1047.97 1.13488 -1.09353 0
M  V30 11157 C 1048.9 2.20988 -0.75409 0
M  V30 11158 C 1049.88 1.67977 0.267901 0
M  V30 11159 O 1051.07 1.93722 0.136128 0
M  V30 11160 C 1048.2 3.46869 -0.173042 0
M  V30 11161 C 1047.15 4.12965 -1.12446 0
M  V30 11162 C 1046.48 5.33163 -0.405157 0
M  V30 11163 C 1047.78 4.60388 -2.46658 0
M  V30 11164 H 1049.47 2.49639 -1.6529 0
M  V30 11165 H 1047.02 1.19987 -0.796182 0
M  V30 11166 H 1048.97 4.21331 0.0764988 0
M  V30 11167 H 1047.7 3.17611 0.760956 0
M  V30 11168 H 1046.35 3.40469 -1.35927 0
M  V30 11169 H 1046 5.00169 0.532955 0
M  V30 11170 H 1045.7 5.78332 -1.03952 0
M  V30 11171 H 1047.23 6.1038 -0.163899 0
M  V30 11172 H 1048.64 5.26276 -2.27389 0
M  V30 11173 H 1047.04 5.16294 -3.05876 0
M  V30 11174 H 1048.11 3.74949 -3.07476 0
M  V30 11175 N 1049.45 0.880621 1.30701 0
M  V30 11176 C 1050.68 0.510909 2.01009 0
M  V30 11177 C 1051.1 -0.892041 1.65603 0
M  V30 11178 O 1050.46 -1.59045 0.870309 0
M  V30 11179 C 1050.51 0.687759 3.53981 0
M  V30 11180 O 1049.61 -0.268275 4.11526 0
M  V30 11181 H 1048.95 0.201864 0.632572 0
M  V30 11182 H 1051.48 1.18697 1.6665 0
M  V30 11183 H 1051.49 0.585095 4.03783 0
M  V30 11184 H 1050.17 1.71068 3.79089 0
M  V30 11185 H 1048.74 -0.119673 3.72708 0
M  V30 11186 N 1050.93 -1.4397 0.641131 0
M  V30 11187 C 1052.15 -2.06818 0.155318 0
M  V30 11188 C 1052.58 -1.47665 -1.16519 0
M  V30 11189 O 1051.94 -0.58192 -1.71707 0
M  V30 11190 C 1051.99 -3.60542 0.0647537 0
M  V30 11191 O 1051.09 -4.00674 -0.976447 0
M  V30 11192 H 1050.43 -0.657962 0.0893404 0
M  V30 11193 H 1052.96 -1.84678 0.88064 0
M  V30 11194 H 1052.97 -4.07816 -0.122552 0
M  V30 11195 H 1051.65 -4.02975 1.02878 0
M  V30 11196 H 1050.22 -3.65013 -0.762905 0
M  V30 11197 N 1052.41 -0.382291 -1.52893 0
M  V30 11198 C 1053.66 0.201734 -2.01091 0
M  V30 11199 C 1053.98 1.47905 -1.2708 0
M  V30 11200 O 1053.25 1.92002 -0.38883 0
M  V30 11201 H 1051.83 0.0775373 -0.742965 0
M  V30 11202 H 1054.49 -0.512369 -1.88045 0
M  V30 11203 H 1053.58 0.416919 -3.09303 0
M  V30 11204 N 1053.89 1.57202 -0.111913 0
M  V30 11205 C 1055.13 1.94565 0.546713 0
M  V30 11206 C 1055.45 0.995644 1.67666 0
M  V30 11207 O 1054.72 0.0506681 1.95834 0
M  V30 11208 H 1053.3 0.718334 0.204951 0
M  V30 11209 H 1055.97 1.94074 -0.179193 0
M  V30 11210 H 1055.06 2.9742 0.945931 0
M  V30 11211 N 1055.36 -0.161842 1.56767 0
M  V30 11212 C 1056.3 -1.22499 1.93718 0
M  V30 11213 C 1057.31 -1.39975 0.831314 0
M  V30 11214 O 1058.5 -1.3981 1.10975 0
M  V30 11215 C 1055.6 -2.59222 2.18306 0
M  V30 11216 C 1054.77 -2.6292 3.4956 0
M  V30 11217 C 1053.83 -3.81074 3.62863 0
M  V30 11218 O 1052.86 -3.66633 4.35395 0
M  V30 11219 N 1054.06 -4.97923 2.98418 0
M  V30 11220 H 1056.82 -0.911043 2.85517 0
M  V30 11221 H 1054.38 -0.351533 1.58038 0
M  V30 11222 H 1056.38 -3.36749 2.24461 0
M  V30 11223 H 1054.95 -2.82969 1.32844 0
M  V30 11224 H 1054.17 -1.71418 3.54978 0
M  V30 11225 H 1055.45 -2.62409 4.35911 0
M  V30 11226 H 1054.85 -5.12557 2.39378 0
M  V30 11227 H 1053.41 -5.73277 3.10155 0
M  V30 11228 N 1056.84 -1.516 -0.430713 0
M  V30 11229 C 1058.26 -1.39923 -0.767706 0
M  V30 11230 C 1058.46 -0.486756 -1.95532 0
M  V30 11231 O 1057.51 0.0555965 -2.52439 0
M  V30 11232 C 1058.83 -2.82074 -1.04187 0
M  V30 11233 C 1060.37 -2.9127 -1.1459 0
M  V30 11234 C 1060.85 -4.34342 -1.45295 0
M  V30 11235 N 1062.34 -4.37479 -1.52206 0
M  V30 11236 C 1063.08 -5.45219 -1.77549 0
M  V30 11237 N 1062.57 -6.6311 -2.0064 0
M  V30 11238 N 1064.36 -5.32707 -1.79386 0
M  V30 11239 H 1056.52 -2.09474 0.351351 0
M  V30 11240 H 1058.78 -0.943247 0.0948151 0
M  V30 11241 H 1058.48 -3.50868 -0.241837 0
M  V30 11242 H 1058.36 -3.21805 -1.96777 0
M  V30 11243 H 1060.75 -2.2267 -1.93655 0
M  V30 11244 H 1060.83 -2.55026 -0.198854 0
M  V30 11245 H 1060.47 -5.03494 -0.667559 0
M  V30 11246 H 1060.4 -4.68105 -2.41217 0
M  V30 11247 H 1062.89 -3.52488 -1.36237 0
M  V30 11248 H 1063.2 -7.41012 -2.19366 0
M  V30 11249 H 1061.55 -6.66214 -1.97948 0
M  V30 11250 H 1064.74 -4.39589 -1.60869 0
M  V30 11251 H 1064.91 -6.16752 -1.98799 0
M  V30 11252 N 1058.32 0.686584 -1.41858 0
M  V30 11253 C 1059.55 1.47519 -1.45072 0
M  V30 11254 C 1059.96 1.88709 -0.0585868 0
M  V30 11255 O 1059.32 1.57373 0.924116 0
M  V30 11256 C 1059.37 2.73195 -2.36742 0
M  V30 11257 O 1059.09 2.33736 -3.70539 0
M  V30 11258 C 1060.59 3.66861 -2.48854 0
M  V30 11259 H 1057.81 0.454307 -0.493808 0
M  V30 11260 H 1060.36 0.844612 -1.86243 0
M  V30 11261 H 1058.51 3.32468 -1.98856 0
M  V30 11262 H 1058.93 3.14809 -4.19518 0
M  V30 11263 H 1060.4 4.51801 -3.17143 0
M  V30 11264 H 1060.88 4.11961 -1.52265 0
M  V30 11265 H 1061.48 3.13486 -2.87414 0
M  V30 11266 N 1059.8 1.27835 0.921735 0
M  V30 11267 C 1060.76 1.11108 2.00469 0
M  V30 11268 C 1061.76 0.053203 1.60712 0
M  V30 11269 O 1062.95 0.298308 1.71627 0
M  V30 11270 C 1060.08 0.694269 3.33755 0
M  V30 11271 H 1061.28 2.07279 2.16738 0
M  V30 11272 H 1058.83 1.10708 1.10333 0
M  V30 11273 H 1059.56 -0.268561 3.23186 0
M  V30 11274 H 1059.35 1.45836 3.6397 0
M  V30 11275 H 1060.84 0.59965 4.13272 0
M  V30 11276 N 1061.28 -1.12907 1.09954 0
M  V30 11277 C 1062.21 -2.20585 0.765799 0
M  V30 11278 C 1063.19 -1.68117 -0.258989 0
M  V30 11279 O 1064.37 -1.93792 -0.125853 0
M  V30 11280 C 1061.5 -3.46772 0.191435 0
M  V30 11281 C 1060.46 -4.12363 1.14635 0
M  V30 11282 C 1059.78 -5.3294 0.433426 0
M  V30 11283 C 1061.08 -4.59073 2.49096 0
M  V30 11284 H 1062.78 -2.48759 1.66612 0
M  V30 11285 H 1060.32 -1.19563 0.802534 0
M  V30 11286 H 1062.27 -4.21365 -0.0541535 0
M  V30 11287 H 1061 -3.18011 -0.744101 0
M  V30 11288 H 1059.66 -3.39744 1.37731 0
M  V30 11289 H 1059.31 -5.00444 -0.506422 0
M  V30 11290 H 1059.01 -5.77772 1.07018 0
M  V30 11291 H 1060.53 -6.10284 0.196267 0
M  V30 11292 H 1061.94 -5.25063 2.30177 0
M  V30 11293 H 1060.34 -5.14665 3.0861 0
M  V30 11294 H 1061.41 -3.73313 3.0946 0
M  V30 11295 N 1062.75 -0.88754 -1.30232 0
M  V30 11296 C 1064.16 -0.55745 -1.78184 0
M  V30 11297 C 1064.52 0.926474 -1.72948 0
M  V30 11298 O 1063.64 1.72403 -1.3079 0
M  V30 11299 C 1064.24 -1.00512 -3.23547 0
M  V30 11300 C 1062.79 -0.726402 -3.69324 0
M  V30 11301 C 1061.94 -1.18666 -2.50627 0
M  V30 11302 H 1064.89 -1.07151 -1.17066 0
M  V30 11303 H 1064.91 -0.335185 -3.79021 0
M  V30 11304 H 1064.43 -2.08517 -3.27326 0
M  V30 11305 H 1062.53 0.341548 -3.71031 0
M  V30 11306 H 1062.64 -1.31575 -4.60679 0
M  V30 11307 H 1061 -0.605936 -2.47387 0
M  V30 11308 H 1061.79 -2.2745 -2.57141 0
M  V30 11309 N 1064.23 1.43628 -0.648757 0
M  V30 11310 C 1065.46 2.06217 -0.167945 0
M  V30 11311 C 1065.88 1.486 1.16462 0
M  V30 11312 O 1065.23 0.61559 1.71804 0
M  V30 11313 C 1065.28 3.6144 -0.0660114 0
M  V30 11314 O 1065 4.16914 -1.34589 0
M  V30 11315 C 1066.51 4.41097 0.441408 0
M  V30 11316 H 1063.73 0.665228 -0.0878237 0
M  V30 11317 H 1066.27 1.84207 -0.888144 0
M  V30 11318 H 1064.42 3.82651 0.604722 0
M  V30 11319 H 1064.84 5.10537 -1.20218 0
M  V30 11320 H 1066.31 5.50066 0.461697 0
M  V30 11321 H 1066.79 4.13803 1.47187 0
M  V30 11322 H 1067.4 4.24845 -0.19668 0
M  V30 11323 N 1065.71 0.390394 1.52688 0
M  V30 11324 C 1066.64 -0.43567 2.294 0
M  V30 11325 C 1067.62 -1.06253 1.32832 0
M  V30 11326 O 1068.81 -1.07509 1.61726 0
M  V30 11327 C 1065.94 -1.56259 3.10162 0
M  V30 11328 C 1064.89 -1.06172 4.14622 0
M  V30 11329 C 1064.22 -2.2808 4.83615 0
M  V30 11330 C 1065.52 -0.128902 5.22141 0
M  V30 11331 H 1067.21 0.204384 2.98702 0
M  V30 11332 H 1064.76 0.0997377 1.43654 0
M  V30 11333 H 1066.71 -2.14732 3.62585 0
M  V30 11334 H 1065.43 -2.23025 2.38595 0
M  V30 11335 H 1064.09 -0.499518 3.63181 0
M  V30 11336 H 1063.74 -2.93358 4.08595 0
M  V30 11337 H 1063.44 -1.95227 5.5422 0
M  V30 11338 H 1064.96 -2.87193 5.38844 0
M  V30 11339 H 1066.38 -0.621849 5.69917 0
M  V30 11340 H 1064.78 0.109919 5.99999 0
M  V30 11341 H 1065.85 0.821884 4.77884 0
M  V30 11342 N 1067.19 -1.57141 0.120249 0
M  V30 11343 C 1068.6 -1.82256 -0.404931 0
M  V30 11344 C 1068.95 -1.03748 -1.66526 0
M  V30 11345 O 1068.08 -0.274456 -2.14653 0
M  V30 11346 C 1068.67 -3.30588 -0.741431 0
M  V30 11347 C 1067.23 -3.56379 -1.21124 0
M  V30 11348 C 1066.38 -2.76421 -0.220569 0
M  V30 11349 H 1069.33 -1.54897 0.345361 0
M  V30 11350 H 1069.35 -3.45284 -1.59872 0
M  V30 11351 H 1068.86 -3.87701 0.176036 0
M  V30 11352 H 1066.96 -3.04625 -2.14556 0
M  V30 11353 H 1067.07 -4.64952 -1.1557 0
M  V30 11354 H 1065.44 -2.44666 -0.707857 0
M  V30 11355 H 1066.22 -3.36294 0.690018 0
M  V30 11356 N 1068.67 0.153526 -1.5685 0
M  V30 11357 C 1069.91 0.873522 -1.84794 0
M  V30 11358 C 1070.27 1.78642 -0.703648 0
M  V30 11359 O 1071.47 2.54537 -0.863972 0
M  V30 11360 C 1069.74 1.63316 -3.17904 0
M  V30 11361 S 1071.3 2.39948 -3.67383 0
M  V30 11362 H 1068.12 0.292233 -0.648167 0
M  V30 11363 H 1070.72 0.133949 -1.95041 0
M  V30 11364 H 1069.43 0.95387 -3.99161 0
M  V30 11365 H 1068.96 2.41377 -3.10646 0
M  V30 11366 H 1070.97 3.65011 -3.36127 0
M  V30 11367 N 1070.14 1.51827 0.422667 0
M  V30 11368 C 1071.05 1.77066 1.53899 0
M  V30 11369 C 1072.07 0.655541 1.61179 0
M  V30 11370 O 1073.25 0.939448 1.78147 0
M  V30 11371 C 1070.31 1.90372 2.89758 0
M  V30 11372 C 1069.37 3.14256 2.92475 0
M  V30 11373 C 1068.61 3.26918 4.21853 0
M  V30 11374 O 1068.83 2.45164 5.15025 0
M  V30 11375 O 1067.76 4.19989 4.31153 0
M  V30 11376 H 1071.59 2.71791 1.35511 0
M  V30 11377 H 1069.17 1.36506 0.607165 0
M  V30 11378 H 1071.06 2.01024 3.70361 0
M  V30 11379 H 1069.73 0.988347 3.08242 0
M  V30 11380 H 1068.64 3.09072 2.10773 0
M  V30 11381 H 1069.97 4.0553 2.78937 0
M  V30 11382 N 1071.62 -0.679052 1.4222 0
M  V30 11383 C 1072.85 -1.47248 1.46058 0
M  V30 11384 C 1073.27 -1.87962 0.0720987 0
M  V30 11385 O 1072.63 -1.5572 -0.928488 0
M  V30 11386 C 1072.68 -2.70067 2.38948 0
M  V30 11387 O 1071.78 -3.68178 1.85791 0
M  V30 11388 H 1071.12 -0.442533 0.495036 0
M  V30 11389 H 1073.65 -0.833263 1.86863 0
M  V30 11390 H 1073.66 -3.18187 2.55385 0
M  V30 11391 H 1072.34 -2.39773 3.39826 0
M  V30 11392 H 1070.92 -3.2719 1.78889 0
M  V30 11393 N 1073.1 -1.28322 -0.914942 0
M  V30 11394 C 1074.33 -1.18254 -1.69775 0
M  V30 11395 C 1074.74 0.258978 -1.87015 0
M  V30 11396 O 1074.1 1.17514 -1.3963 0
M  V30 11397 C 1074.15 -1.8753 -3.09054 0
M  V30 11398 O 1073.87 -3.26051 -2.92613 0
M  V30 11399 C 1075.37 -1.83749 -4.03424 0
M  V30 11400 H 1072.59 -0.41055 -0.530744 0
M  V30 11401 H 1075.14 -1.69425 -1.14523 0
M  V30 11402 H 1073.29 -1.40233 -3.61128 0
M  V30 11403 H 1073.71 -3.60729 -3.80756 0
M  V30 11404 H 1075.18 -2.36813 -4.98622 0
M  V30 11405 H 1075.66 -0.809601 -4.31674 0
M  V30 11406 H 1076.26 -2.3072 -3.57279 0
M  V30 11407 N 1074.58 1.12322 -1.10551 0
M  V30 11408 C 1075.53 2.16177 -0.724679 0
M  V30 11409 C 1076.51 1.58674 0.266739 0
M  V30 11410 O 1077.7 1.7684 0.0752872 0
M  V30 11411 C 1074.83 3.4293 -0.159413 0
M  V30 11412 C 1073.92 4.07413 -1.17794 0
M  V30 11413 N 1074.31 4.46889 -2.36905 0
M  V30 11414 C 1072.61 4.34209 -1.01874 0
M  V30 11415 C 1073.31 4.97291 -3.01789 0
M  V30 11416 N 1072.29 4.92871 -2.29302 0
M  V30 11417 H 1076.09 2.44466 -1.63136 0
M  V30 11418 H 1073.6 1.2924 -0.983407 0
M  V30 11419 H 1075.6 4.16693 0.131502 0
M  V30 11420 H 1074.26 3.16109 0.741975 0
M  V30 11421 H 1075.27 4.39219 -2.74422 0
M  V30 11422 H 1071.95 4.17141 -0.173013 0
M  V30 11423 H 1073.34 5.3754 -4.03114 0
M  V30 11424 N 1076.06 0.894434 1.2976 0
M  V30 11425 C 1077.01 0.339611 2.25457 0
M  V30 11426 C 1077.99 -0.537326 1.51663 0
M  V30 11427 O 1079.18 -0.380204 1.72868 0
M  V30 11428 C 1076.31 -0.436494 3.40514 0
M  V30 11429 C 1075.4 0.455065 4.21651 0
M  V30 11430 N 1075.79 1.55988 4.81146 0
M  V30 11431 C 1074.09 0.251893 4.45288 0
M  V30 11432 C 1074.79 2.1117 5.42017 0
M  V30 11433 N 1073.76 1.40541 5.25118 0
M  V30 11434 H 1077.57 1.18365 2.69011 0
M  V30 11435 H 1075.08 0.744895 1.44309 0
M  V30 11436 H 1077.08 -0.850678 4.08129 0
M  V30 11437 H 1075.74 -1.27786 2.98498 0
M  V30 11438 H 1076.75 1.94266 4.80084 0
M  V30 11439 H 1073.42 -0.551536 4.13841 0
M  V30 11440 H 1074.81 3.04 5.99194 0
M  V30 11441 N 1077.53 -1.43282 0.656365 0
M  V30 11442 C 1078.5 -2.29188 -0.0239173 0
M  V30 11443 C 1079.5 -1.42373 -0.747436 0
M  V30 11444 O 1080.69 -1.63969 -0.588213 0
M  V30 11445 C 1077.82 -3.24501 -1.0446 0
M  V30 11446 H 1079.01 -2.9083 0.731978 0
M  V30 11447 H 1076.57 -1.50614 0.417752 0
M  V30 11448 H 1077.3 -2.6776 -1.82962 0
M  V30 11449 H 1077.09 -3.88509 -0.52942 0
M  V30 11450 H 1078.58 -3.88971 -1.51958 0
M  V30 11451 N 1079.01 -0.398486 -1.52479 0
M  V30 11452 C 1079.94 0.423498 -2.29627 0
M  V30 11453 C 1080.92 1.05547 -1.33394 0
M  V30 11454 O 1082.11 1.0665 -1.62294 0
M  V30 11455 C 1079.24 1.54612 -3.10986 0
M  V30 11456 C 1078.19 1.03971 -4.15179 0
M  V30 11457 C 1077.52 2.25512 -4.84818 0
M  V30 11458 C 1078.82 0.10121 -5.22202 0
M  V30 11459 H 1080.51 -0.220222 -2.98589 0
M  V30 11460 H 1078.06 -0.107355 -1.43599 0
M  V30 11461 H 1080.01 2.12806 -3.63719 0
M  V30 11462 H 1078.74 2.21756 -2.39774 0
M  V30 11463 H 1077.4 0.480251 -3.63441 0
M  V30 11464 H 1077.04 2.91187 -4.10145 0
M  V30 11465 H 1076.74 1.92285 -5.55248 0
M  V30 11466 H 1078.27 2.84331 -5.40359 0
M  V30 11467 H 1079.68 0.591617 -5.70239 0
M  V30 11468 H 1078.08 -0.141737 -5.99933 0
M  V30 11469 H 1079.15 -0.847216 -4.77441 0
M  V30 11470 N 1080.49 1.57075 -0.12858 0
M  V30 11471 C 1081.42 2.18833 0.814519 0
M  V30 11472 C 1082.4 1.13114 1.2704 0
M  V30 11473 O 1083.59 1.41387 1.33129 0
M  V30 11474 C 1080.72 2.79535 2.06101 0
M  V30 11475 C 1079.67 3.9092 1.74257 0
M  V30 11476 C 1079 4.38473 3.06015 0
M  V30 11477 C 1080.3 5.1257 1.00345 0
M  V30 11478 H 1081.99 2.97895 0.299862 0
M  V30 11479 H 1079.54 1.4329 0.14279 0
M  V30 11480 H 1081.49 3.21401 2.72543 0
M  V30 11481 H 1080.21 1.97777 2.59907 0
M  V30 11482 H 1078.87 3.49645 1.102 0
M  V30 11483 H 1078.52 3.53561 3.57776 0
M  V30 11484 H 1078.22 5.13591 2.85479 0
M  V30 11485 H 1079.75 4.82997 3.7356 0
M  V30 11486 H 1081.16 5.51395 1.56959 0
M  V30 11487 H 1079.56 5.93333 0.898693 0
M  V30 11488 H 1080.63 4.84899 -0.0081335 0
M  V30 11489 N 1081.97 -0.145205 1.5693 0
M  V30 11490 C 1083.21 -0.863709 1.85255 0
M  V30 11491 C 1083.57 -1.78266 0.713112 0
M  V30 11492 O 1084.77 -2.54075 0.877459 0
M  V30 11493 C 1083.05 -1.61628 3.18765 0
M  V30 11494 S 1084.6 -2.37996 3.68651 0
M  V30 11495 H 1081.42 -0.288792 0.649708 0
M  V30 11496 H 1084.02 -0.123603 1.95109 0
M  V30 11497 H 1082.73 -0.932688 3.99661 0
M  V30 11498 H 1082.26 -2.39726 3.11921 0
M  V30 11499 H 1084.27 -3.63223 3.38058 0
M  V30 11500 N 1083.45 -1.52049 -0.414609 0
M  V30 11501 C 1084.69 -1.67511 -1.17129 0
M  V30 11502 C 1085.05 -0.39383 -1.87917 0
M  V30 11503 O 1086.25 -0.424496 -2.65427 0
M  V30 11504 C 1084.52 -2.85982 -2.14357 0
M  V30 11505 S 1086.08 -3.21898 -2.98206 0
M  V30 11506 H 1082.9 -0.589923 -0.396877 0
M  V30 11507 H 1085.5 -1.90025 -0.459409 0
M  V30 11508 H 1084.21 -3.77488 -1.6103 0
M  V30 11509 H 1083.74 -2.65725 -2.90092 0
M  V30 11510 H 1085.75 -2.70095 -4.16249 0
M  V30 11511 N 1084.93 0.6715 -1.42579 0
M  V30 11512 C 1085.86 1.79693 -1.49107 0
M  V30 11513 C 1086.84 1.66516 -0.347338 0
M  V30 11514 O 1088.02 1.85887 -0.562094 0
M  V30 11515 C 1085.15 3.1801 -1.39596 0
M  V30 11516 C 1084.11 3.45926 -2.5203 0
M  V30 11517 C 1083.43 4.83852 -2.27577 0
M  V30 11518 C 1084.73 3.4249 -3.94333 0
M  V30 11519 H 1086.43 1.74486 -2.433 0
M  V30 11520 H 1083.97 0.838042 -1.17102 0
M  V30 11521 H 1085.92 3.96478 -1.42771 0
M  V30 11522 H 1084.65 3.23901 -0.418989 0
M  V30 11523 H 1083.31 2.6982 -2.48178 0
M  V30 11524 H 1082.96 4.86398 -1.28165 0
M  V30 11525 H 1082.66 5.03493 -3.02934 0
M  V30 11526 H 1084.18 5.646 -2.32506 0
M  V30 11527 H 1085.59 4.10922 -3.9977 0
M  V30 11528 H 1083.99 3.73666 -4.69568 0
M  V30 11529 H 1085.06 2.41002 -4.20768 0
M  V30 11530 N 1086.4 1.28806 0.908124 0
M  V30 11531 C 1087.65 1.1646 1.66027 0
M  V30 11532 C 1087.98 -0.285025 1.92097 0
M  V30 11533 O 1087.26 -1.20675 1.52538 0
M  V30 11534 C 1087.54 1.96951 3.01467 0
M  V30 11535 C 1087.39 3.50007 2.82515 0
M  V30 11536 C 1088.71 1.78932 4.02084 0
M  V30 11537 H 1085.83 0.424435 0.602515 0
M  V30 11538 H 1088.47 1.58185 1.0525 0
M  V30 11539 H 1086.62 1.61495 3.53344 0
M  V30 11540 H 1088.3 3.95401 2.37605 0
M  V30 11541 H 1086.54 3.75356 2.17463 0
M  V30 11542 H 1087.21 4.01591 3.7872 0
M  V30 11543 H 1089.69 2.09885 3.59287 0
M  V30 11544 H 1088.56 2.37615 4.94803 0
M  V30 11545 H 1088.82 0.742286 4.35824 0
M  V30 11546 N 1087.88 -1.11734 1.11145 0
M  V30 11547 C 1089.13 -1.83043 0.856717 0
M  V30 11548 C 1089.45 -1.84901 -0.619407 0
M  V30 11549 O 1088.72 -1.31738 -1.44989 0
M  V30 11550 H 1087.3 -0.677823 0.31395 0
M  V30 11551 H 1089.96 -1.35262 1.40322 0
M  V30 11552 H 1089.06 -2.87005 1.22616 0
M  V30 11553 N 1089.36 -0.901303 -1.29284 0
M  V30 11554 C 1090.59 -0.543511 -1.99634 0
M  V30 11555 C 1091 0.872154 -1.67448 0
M  V30 11556 O 1090.36 1.57591 -0.920406 0
M  V30 11557 C 1090.41 -0.728148 -3.54091 0
M  V30 11558 O 1090.13 -2.08809 -3.85137 0
M  V30 11559 C 1091.63 -0.375519 -4.41707 0
M  V30 11560 H 1088.85 -0.208405 -0.637815 0
M  V30 11561 H 1091.4 -1.21109 -1.64781 0
M  V30 11562 H 1089.55 -0.107728 -3.8725 0
M  V30 11563 H 1089.97 -2.11863 -4.79807 0
M  V30 11564 H 1091.44 -0.555538 -5.49197 0
M  V30 11565 H 1091.92 0.687532 -4.33785 0
M  V30 11566 H 1092.52 -0.972949 -4.14021 0
M  V30 11567 N 1090.84 1.42931 -0.663954 0
M  V30 11568 C 1091.77 2.33499 0.00731327 0
M  V30 11569 C 1092.75 1.50074 0.800733 0
M  V30 11570 O 1093.93 1.78708 0.760062 0
M  V30 11571 C 1091.06 3.33569 0.966897 0
M  V30 11572 C 1090.02 4.27064 0.282839 0
M  V30 11573 C 1089.34 5.17257 1.35461 0
M  V30 11574 C 1090.64 5.1564 -0.831438 0
M  V30 11575 H 1092.34 2.89879 -0.749044 0
M  V30 11576 H 1089.88 1.39385 -0.361656 0
M  V30 11577 H 1091.84 3.95833 1.44549 0
M  V30 11578 H 1090.56 2.75469 1.75455 0
M  V30 11579 H 1089.22 3.6618 -0.175417 0
M  V30 11580 H 1088.87 4.5549 2.13397 0
M  V30 11581 H 1088.57 5.80634 0.902098 0
M  V30 11582 H 1090.09 5.82395 1.83436 0
M  V30 11583 H 1091.51 5.71651 -0.434534 0
M  V30 11584 H 1089.9 5.87794 -1.20908 0
M  V30 11585 H 1090.97 4.54687 -1.68487 0
M  V30 11586 N 1092.32 0.406567 1.52266 0
M  V30 11587 C 1093.73 -0.063607 1.86592 0
M  V30 11588 C 1094.08 -1.4466 1.32544 0
M  V30 11589 O 1093.2 -2.05971 0.663692 0
M  V30 11590 C 1093.8 -0.122198 3.3858 0
M  V30 11591 C 1092.36 -0.536701 3.72554 0
M  V30 11592 C 1091.5 0.290422 2.75775 0
M  V30 11593 H 1094.45 0.623738 1.45929 0
M  V30 11594 H 1094.48 -0.937964 3.68758 0
M  V30 11595 H 1093.99 0.884495 3.77887 0
M  V30 11596 H 1092.09 -1.55013 3.38824 0
M  V30 11597 H 1092.2 -0.282867 4.78264 0
M  V30 11598 H 1090.57 -0.246864 2.53501 0
M  V30 11599 H 1091.35 1.29541 3.17921 0
M  V30 11600 N 1093.79 -1.57004 0.136909 0
M  V30 11601 C 1094.72 -2.19262 -0.802902 0
M  V30 11602 C 1095.71 -1.13786 -1.26439 0
M  V30 11603 O 1096.89 -1.42091 -1.32377 0
M  V30 11604 C 1094.02 -2.80624 -2.04615 0
M  V30 11605 C 1092.97 -3.91839 -1.72181 0
M  V30 11606 C 1092.3 -4.4009 -3.03686 0
M  V30 11607 C 1093.6 -5.13095 -0.976249 0
M  V30 11608 H 1095.29 -2.98049 -0.28406 0
M  V30 11609 H 1092.84 -1.43364 -0.135189 0
M  V30 11610 H 1094.79 -3.22842 -2.70834 0
M  V30 11611 H 1093.52 -1.99153 -2.58855 0
M  V30 11612 H 1092.18 -3.50224 -1.08344 0
M  V30 11613 H 1091.82 -3.55454 -3.55896 0
M  V30 11614 H 1091.52 -5.15098 -2.82751 0
M  V30 11615 H 1093.05 -4.84971 -3.70993 0
M  V30 11616 H 1094.46 -5.5222 -1.54033 0
M  V30 11617 H 1092.86 -5.93801 -0.867214 0
M  V30 11618 H 1093.93 -4.84888 0.0338488 0
M  V30 11619 N 1095.27 0.136881 -1.57004 0
M  V30 11620 C 1096.24 1.15267 -1.98106 0
M  V30 11621 C 1097.24 1.35305 -0.868856 0
M  V30 11622 O 1098.43 1.32126 -1.13527 0
M  V30 11623 C 1095.56 2.51092 -2.30577 0
M  V30 11624 H 1096.75 0.799821 -2.89038 0
M  V30 11625 H 1094.3 0.380576 -1.51596 0
M  V30 11626 H 1095.04 2.9133 -1.42469 0
M  V30 11627 H 1094.82 2.37906 -3.11678 0
M  V30 11628 H 1096.31 3.24232 -2.63179 0
M  V30 11629 N 1096.75 1.52266 0.40654 0
M  V30 11630 C 1098 1.6568 1.15035 0
M  V30 11631 C 1098.31 0.394135 1.91588 0
M  V30 11632 O 1099.52 0.408113 2.68415 0
M  V30 11633 C 1097.97 2.92725 2.0938 0
M  V30 11634 C 1097.58 4.26108 1.38332 0
M  V30 11635 C 1099.33 3.15502 2.84004 0
M  V30 11636 C 1097.23 5.44275 2.3134 0
M  V30 11637 H 1096.16 0.61719 0.43312 0
M  V30 11638 H 1098.81 1.78755 0.414598 0
M  V30 11639 H 1097.2 2.73355 2.86519 0
M  V30 11640 H 1098.37 4.55971 0.665396 0
M  V30 11641 H 1096.69 4.09454 0.757384 0
M  V30 11642 H 1099.28 4.00964 3.5374 0
M  V30 11643 H 1099.63 2.29842 3.471 0
M  V30 11644 H 1100.16 3.35357 2.13964 0
M  V30 11645 H 1096.9 6.3229 1.72887 0
M  V30 11646 H 1096.42 5.18749 3.01098 0
M  V30 11647 H 1098.1 5.77457 2.91809 0
M  V30 11648 N 1098.23 -0.663929 1.42933 0
M  V30 11649 C 1099.48 -1.42393 1.43981 0
M  V30 11650 C 1099.8 -1.94407 0.0601802 0
M  V30 11651 O 1099.06 -1.72019 -0.933172 0
M  V30 11652 C 1099.36 -2.62976 2.4203 0
M  V30 11653 C 1099.02 -2.29441 3.88159 0
M  V30 11654 C 1097.69 -2.20007 4.27961 0
M  V30 11655 C 1100.04 -2.02413 4.8029 0
M  V30 11656 C 1097.37 -1.81686 5.57859 0
M  V30 11657 C 1099.72 -1.65592 6.10542 0
M  V30 11658 C 1098.38 -1.54676 6.49332 0
M  V30 11659 H 1097.65 -0.521051 0.526865 0
M  V30 11660 H 1100.3 -0.756042 1.75944 0
M  V30 11661 H 1098.6 -3.34847 2.03433 0
M  V30 11662 H 1100.3 -3.21174 2.40101 0
M  V30 11663 H 1096.89 -2.3769 3.56653 0
M  V30 11664 H 1101.07 -2.08628 4.5032 0
M  V30 11665 H 1096.33 -1.71812 5.86763 0
M  V30 11666 H 1100.5 -1.43707 6.81411 0
M  V30 11667 H 1098.13 -1.24752 7.49894 0
M  V30 11668 N 1099.71 -1.29285 -0.901281 0
M  V30 11669 C 1100.95 -1.17165 -1.65162 0
M  V30 11670 C 1101.28 0.277184 -1.92515 0
M  V30 11671 O 1100.54 1.2168 -1.53273 0
M  V30 11672 C 1100.84 -1.92865 -3.00895 0
M  V30 11673 C 1100.5 -3.42593 -2.93157 0
M  V30 11674 C 1099.16 -3.83426 -2.90754 0
M  V30 11675 C 1101.52 -4.38011 -2.82481 0
M  V30 11676 C 1098.84 -5.17997 -2.75492 0
M  V30 11677 C 1101.2 -5.7267 -2.68759 0
M  V30 11678 C 1099.86 -6.12764 -2.64721 0
M  V30 11679 H 1099.13 -0.428737 -0.604372 0
M  V30 11680 H 1101.78 -1.60204 -1.04914 0
M  V30 11681 H 1100.08 -1.42412 -3.65001 0
M  V30 11682 H 1101.78 -1.80893 -3.57881 0
M  V30 11683 H 1098.37 -3.10134 -2.95829 0
M  V30 11684 H 1102.55 -4.07417 -2.83416 0
M  V30 11685 H 1097.81 -5.48173 -2.70769 0
M  V30 11686 H 1101.98 -6.46258 -2.59469 0
M  V30 11687 H 1099.61 -7.16987 -2.52652 0
M  V30 11688 N 1101.18 1.11143 -1.11736 0
M  V30 11689 C 1102.6 1.34962 -0.851905 0
M  V30 11690 C 1102.8 1.94627 0.521797 0
M  V30 11691 O 1101.86 2.18121 1.27198 0
M  V30 11692 C 1103.17 2.27832 -1.96248 0
M  V30 11693 C 1104.72 2.41388 -1.9925 0
M  V30 11694 C 1105.19 3.37582 -3.09519 0
M  V30 11695 N 1106.68 3.45147 -3.08914 0
M  V30 11696 C 1107.42 4.19527 -3.90876 0
M  V30 11697 N 1106.91 4.96858 -4.82809 0
M  V30 11698 N 1108.71 4.15071 -3.79042 0
M  V30 11699 H 1100.86 0.707801 -2.0026 0
M  V30 11700 H 1103.12 0.374172 -0.871033 0
M  V30 11701 H 1102.83 1.91189 -2.95194 0
M  V30 11702 H 1102.7 3.28078 -1.86132 0
M  V30 11703 H 1105.09 2.77304 -1.00928 0
M  V30 11704 H 1105.17 1.40983 -2.13442 0
M  V30 11705 H 1104.81 3.02393 -4.0807 0
M  V30 11706 H 1104.74 4.37849 -2.92568 0
M  V30 11707 H 1107.23 2.89991 -2.42309 0
M  V30 11708 H 1107.55 5.5099 -5.41876 0
M  V30 11709 H 1105.89 4.96008 -4.86828 0
M  V30 11710 H 1109.08 3.53748 -3.06562 0
M  V30 11711 H 1109.26 4.72781 -4.4315 0
M  V30 11712 N 1102.66 0.908147 1.28804 0
M  V30 11713 C 1103.91 0.539201 1.95501 0
M  V30 11714 C 1104.24 -0.913759 1.7136 0
M  V30 11715 O 1103.52 -1.64904 1.03136 0
M  V30 11716 C 1103.8 0.842372 3.50109 0
M  V30 11717 C 1103.65 2.34765 3.83673 0
M  V30 11718 C 1104.97 0.334658 4.38826 0
M  V30 11719 H 1102.09 0.197373 0.71008 0
M  V30 11720 H 1104.73 1.13637 1.52272 0
M  V30 11721 H 1102.88 0.334143 3.8706 0
M  V30 11722 H 1104.55 2.92607 3.56621 0
M  V30 11723 H 1102.8 2.80494 3.30916 0
M  V30 11724 H 1103.47 2.51034 4.91616 0
M  V30 11725 H 1105.94 0.769961 4.08914 0
M  V30 11726 H 1104.82 0.575914 5.4587 0
M  V30 11727 H 1105.08 -0.764878 4.35433 0
M  V30 11728 N 1104.14 -1.42577 0.671525 0
M  V30 11729 C 1105.37 -2.06442 0.199152 0
M  V30 11730 C 1105.79 -1.50104 -1.1336 0
M  V30 11731 O 1105.15 -0.618211 -1.70434 0
M  V30 11732 C 1105.2 -3.60323 0.141215 0
M  V30 11733 O 1104.3 -4.02655 -0.891238 0
M  V30 11734 H 1103.64 -0.655919 0.103277 0
M  V30 11735 H 1106.17 -1.82768 0.919614 0
M  V30 11736 H 1106.18 -4.07984 -0.0360209 0
M  V30 11737 H 1104.86 -4.00702 1.11403 0
M  V30 11738 H 1103.43 -3.66549 -0.685309 0
M  V30 11739 N 1105.62 -0.414636 -1.52048 0
M  V30 11740 C 1106.84 0.161137 -2.06773 0
M  V30 11741 C 1107.27 1.37628 -1.2822 0
M  V30 11742 O 1106.63 1.78562 -0.313915 0
M  V30 11743 C 1106.67 0.48452 -3.5733 0
M  V30 11744 O 1105.78 1.57466 -3.81154 0
M  V30 11745 H 1105.12 0.0118003 -0.663895 0
M  V30 11746 H 1107.65 -0.589424 -1.95926 0
M  V30 11747 H 1107.66 0.741567 -4.01204 0
M  V30 11748 H 1106.33 -0.403733 -4.13936 0
M  V30 11749 H 1104.91 1.30935 -3.49157 0
M  V30 11750 N 1107.1 1.56929 -0.145233 0
M  V30 11751 C 1108.03 2.19685 0.791263 0
M  V30 11752 C 1109.01 1.14455 1.25833 0
M  V30 11753 O 1110.19 1.42791 1.31622 0
M  V30 11754 C 1107.32 2.81705 2.03124 0
M  V30 11755 C 1106.28 3.92746 1.70101 0
M  V30 11756 C 1105.6 4.41694 3.01347 0
M  V30 11757 C 1106.9 5.13606 0.949025 0
M  V30 11758 H 1108.6 2.98196 0.26825 0
M  V30 11759 H 1106.14 1.43434 0.127584 0
M  V30 11760 H 1108.1 3.24273 2.69119 0
M  V30 11761 H 1106.82 2.00523 2.57795 0
M  V30 11762 H 1105.48 3.50794 1.06486 0
M  V30 11763 H 1105.13 3.57336 3.54006 0
M  V30 11764 H 1104.83 5.1659 2.80016 0
M  V30 11765 H 1106.35 4.86931 3.68416 0
M  V30 11766 H 1107.76 5.53029 1.51102 0
M  V30 11767 H 1106.16 5.94252 0.835711 0
M  V30 11768 H 1107.23 4.84863 -0.0595631 0
M  V30 11769 N 1108.58 -0.128553 1.57075 0
M  V30 11770 C 1109.99 -0.686713 1.73612 0
M  V30 11771 C 1110.34 -1.80778 0.762478 0
M  V30 11772 O 1109.46 -2.16297 -0.0667779 0
M  V30 11773 C 1110.06 -1.25246 3.148 0
M  V30 11774 C 1108.62 -1.757 3.32876 0
M  V30 11775 C 1107.76 -0.652844 2.69506 0
M  V30 11776 H 1110.71 0.0972859 1.58402 0
M  V30 11777 H 1110.74 -2.1222 3.15821 0
M  V30 11778 H 1110.25 -0.436308 3.8564 0
M  V30 11779 H 1108.35 -2.59824 2.67063 0
M  V30 11780 H 1108.46 -1.87302 4.4097 0
M  V30 11781 H 1106.83 -1.08408 2.30477 0
M  V30 11782 H 1107.61 0.15217 3.42963 0
M  V30 11783 N 1110.05 -1.5248 -0.398459 0
M  V30 11784 C 1111 -1.76585 -1.48615 0
M  V30 11785 C 1111.97 -0.608677 -1.54546 0
M  V30 11786 O 1113.16 -0.847383 -1.7095 0
M  V30 11787 C 1110.3 -1.93201 -2.8595 0
M  V30 11788 C 1109.41 -3.20875 -2.89246 0
M  V30 11789 C 1108.54 -3.27862 -4.17947 0
M  V30 11790 C 1107.58 -4.49697 -4.15258 0
M  V30 11791 N 1106.72 -4.54017 -5.35549 0
M  V30 11792 H 1111.56 -2.69412 -1.27362 0
M  V30 11793 H 1109.1 -1.33487 -0.618031 0
M  V30 11794 H 1111.05 -2.00819 -3.65688 0
M  V30 11795 H 1109.68 -1.03743 -3.05675 0
M  V30 11796 H 1108.74 -3.22376 -2.01935 0
M  V30 11797 H 1110.05 -4.1066 -2.83125 0
M  V30 11798 H 1109.2 -3.34611 -5.06083 0
M  V30 11799 H 1107.94 -2.36035 -4.26777 0
M  V30 11800 H 1106.95 -4.43083 -3.25511 0
M  V30 11801 H 1108.17 -5.42831 -4.08059 0
M  V30 11802 H 1106.12 -3.65078 -5.45027 0
M  V30 11803 H 1106.03 -5.37661 -5.31466 0
M  V30 11804 H 1107.3 -4.65009 -6.25609 0
M  V30 11805 N 1111.53 0.65634 -1.43283 0
M  V30 11806 C 1112.46 1.78122 -1.42646 0
M  V30 11807 C 1113.44 1.60024 -0.288301 0
M  V30 11808 O 1114.63 1.82249 -0.481407 0
M  V30 11809 C 1111.75 3.1538 -1.23505 0
M  V30 11810 C 1110.8 3.52186 -2.40556 0
M  V30 11811 S 1111.63 3.52515 -4.03105 0
M  V30 11812 C 1112.79 4.92435 -3.8634 0
M  V30 11813 H 1113.02 1.78391 -2.37832 0
M  V30 11814 H 1110.55 0.828699 -1.30276 0
M  V30 11815 H 1112.51 3.94598 -1.13148 0
M  V30 11816 H 1111.17 3.12676 -0.298726 0
M  V30 11817 H 1110.37 4.52002 -2.22959 0
M  V30 11818 H 1109.97 2.80373 -2.47522 0
M  V30 11819 H 1112.26 5.81011 -3.48472 0
M  V30 11820 H 1113.2 5.15082 -4.85897 0
M  V30 11821 H 1113.61 4.65823 -3.18857 0
M  V30 11822 N 1113.01 1.29761 0.894412 0
M  V30 11823 C 1114.26 1.17409 1.64006 0
M  V30 11824 C 1114.57 -0.272355 1.93695 0
M  V30 11825 O 1115.78 -0.517269 2.66527 0
M  V30 11826 C 1114.23 2.05379 2.95546 0
M  V30 11827 C 1113.84 3.54878 2.73433 0
M  V30 11828 C 1115.59 2.01765 3.73485 0
M  V30 11829 C 1113.49 4.34935 4.00731 0
M  V30 11830 H 1112.42 0.43583 0.615279 0
M  V30 11831 H 1115.07 1.5444 0.990983 0
M  V30 11832 H 1113.46 1.61222 3.61695 0
M  V30 11833 H 1114.63 4.07122 2.15844 0
M  V30 11834 H 1112.94 3.60218 2.08882 0
M  V30 11835 H 1115.54 2.58835 4.67877 0
M  V30 11836 H 1115.88 0.998876 4.04139 0
M  V30 11837 H 1116.42 2.43994 3.14184 0
M  V30 11838 H 1113.16 5.3747 3.75241 0
M  V30 11839 H 1112.68 3.87458 4.5786 0
M  V30 11840 H 1114.36 4.45875 4.68833 0
M  V30 11841 N 1114.49 -1.10549 1.12324 0
M  V30 11842 C 1115.42 -2.18911 0.812416 0
M  V30 11843 C 1116.4 -1.68628 -0.22327 0
M  V30 11844 O 1117.58 -1.94015 -0.0847184 0
M  V30 11845 C 1114.71 -3.46288 0.264947 0
M  V30 11846 C 1113.67 -4.09838 1.23356 0
M  V30 11847 C 1112.99 -5.31901 0.546374 0
M  V30 11848 C 1114.29 -4.53686 2.58778 0
M  V30 11849 H 1115.99 -2.45169 1.71851 0
M  V30 11850 H 1113.53 -1.17834 0.827715 0
M  V30 11851 H 1115.49 -4.21385 0.0352364 0
M  V30 11852 H 1114.21 -3.19517 -0.676479 0
M  V30 11853 H 1112.87 -3.36746 1.44906 0
M  V30 11854 H 1112.52 -5.01406 -0.400157 0
M  V30 11855 H 1112.22 -5.75372 1.19249 0
M  V30 11856 H 1113.74 -6.09731 0.325673 0
M  V30 11857 H 1115.16 -5.20063 2.41263 0
M  V30 11858 H 1113.55 -5.08003 3.19457 0
M  V30 11859 H 1114.62 -3.66665 3.17309 0
M  V30 11860 N 1115.97 -0.914965 -1.28321 0
M  V30 11861 C 1116.9 -0.421292 -2.29668 0
M  V30 11862 C 1117.88 0.511743 -1.6222 0
M  V30 11863 O 1119.06 0.419218 -1.89621 0
M  V30 11864 C 1116.19 0.338364 -3.45648 0
M  V30 11865 C 1115.15 -0.505646 -4.25003 0
M  V30 11866 C 1114.47 0.382421 -5.33331 0
M  V30 11867 C 1115.77 -1.76354 -4.91626 0
M  V30 11868 H 1117.47 -1.26826 -2.71211 0
M  V30 11869 H 1115.01 -0.611291 -1.30381 0
M  V30 11870 H 1116.96 0.694578 -4.15636 0
M  V30 11871 H 1115.69 1.21925 -3.02988 0
M  V30 11872 H 1114.35 -0.844395 -3.56743 0
M  V30 11873 H 1114 1.26189 -4.86914 0
M  V30 11874 H 1113.7 -0.17871 -5.87328 0
M  V30 11875 H 1115.22 0.73449 -6.06166 0
M  V30 11876 H 1116.63 -1.47616 -5.5397 0
M  V30 11877 H 1115.03 -2.26717 -5.55625 0
M  V30 11878 H 1116.1 -2.49063 -4.16048 0
M  V30 11879 N 1117.44 1.42219 -0.679077 0
M  V30 11880 C 1118.67 2.06333 -0.210097 0
M  V30 11881 C 1119.09 1.50703 1.12562 0
M  V30 11882 O 1118.45 0.627241 1.70104 0
M  V30 11883 C 1118.5 3.60243 -0.160322 0
M  V30 11884 O 1117.6 4.03122 0.869872 0
M  V30 11885 H 1116.94 0.655362 -0.106754 0
M  V30 11886 H 1119.47 1.82278 -0.929294 0
M  V30 11887 H 1119.48 4.07997 0.014384 0
M  V30 11888 H 1118.16 4.00106 -1.13526 0
M  V30 11889 H 1116.74 3.66907 0.66586 0
M  V30 11890 N 1118.92 0.422693 1.51826 0
M  V30 11891 C 1120.17 -0.148348 2.01555 0
M  V30 11892 C 1120.49 -1.44483 1.30956 0
M  V30 11893 O 1119.76 -1.90904 0.439599 0
M  V30 11894 H 1118.34 -0.0578116 0.74476 0
M  V30 11895 H 1121 0.562046 1.8662 0
M  V30 11896 H 1120.1 -0.334766 3.10299 0
M  V30 11897 N 1120.4 -1.5685 0.153553 0
M  V30 11898 C 1121.33 -2.20101 -0.779601 0
M  V30 11899 C 1122.31 -1.15121 -1.25225 0
M  V30 11900 O 1123.5 -1.43487 -1.30862 0
M  V30 11901 C 1120.63 -2.82778 -2.01628 0
M  V30 11902 C 1119.58 -3.93643 -1.68015 0
M  V30 11903 C 1118.91 -4.43286 -2.99001 0
M  V30 11904 C 1120.21 -5.14102 -0.921774 0
M  V30 11905 H 1121.9 -2.98334 -0.252432 0
M  V30 11906 H 1119.45 -1.43499 -0.119975 0
M  V30 11907 H 1121.4 -3.25696 -2.67395 0
M  V30 11908 H 1120.12 -2.01887 -2.56728 0
M  V30 11909 H 1118.78 -3.51354 -1.04624 0
M  V30 11910 H 1118.43 -3.59208 -3.52106 0
M  V30 11911 H 1118.13 -5.18068 -2.77272 0
M  V30 11912 H 1119.65 -4.88878 -3.65828 0
M  V30 11913 H 1121.07 -5.53823 -1.48167 0
M  V30 11914 H 1119.46 -5.94687 -0.804185 0
M  V30 11915 H 1120.53 -4.84825 0.0852757 0
M  V30 11916 N 1121.88 0.120221 -1.57141 0
M  V30 11917 C 1123.11 0.842441 -1.88972 0
M  V30 11918 C 1123.52 1.73494 -0.744671 0
M  V30 11919 O 1122.88 1.80268 0.284557 0
M  V30 11920 C 1122.93 1.67688 -3.20254 0
M  V30 11921 O 1122.65 0.820319 -4.30351 0
M  V30 11922 C 1124.15 2.50436 -3.65782 0
M  V30 11923 H 1121.37 0.242241 -0.625748 0
M  V30 11924 H 1123.91 0.104978 -2.0423 0
M  V30 11925 H 1122.07 2.36712 -3.0667 0
M  V30 11926 H 1122.48 1.39575 -5.05588 0
M  V30 11927 H 1123.96 3.04518 -4.60405 0
M  V30 11928 H 1124.43 3.27737 -2.92378 0
M  V30 11929 H 1125.04 1.86657 -3.82151 0
M  V30 11930 N 1123.36 1.52689 0.390367 0
M  V30 11931 C 1124.58 1.71541 1.15678 0
M  V30 11932 C 1125 0.433171 1.83764 0
M  V30 11933 O 1124.36 -0.592248 1.72623 0
M  V30 11934 C 1124.41 2.864 2.20584 0
M  V30 11935 O 1124.13 4.0966 1.55274 0
M  V30 11936 C 1125.63 3.1692 3.09962 0
M  V30 11937 H 1122.85 0.574381 0.346883 0
M  V30 11938 H 1125.39 1.99332 0.456851 0
M  V30 11939 H 1123.55 2.61075 2.86214 0
M  V30 11940 H 1123.96 4.73802 2.2497 0
M  V30 11941 H 1125.44 4.00755 3.79604 0
M  V30 11942 H 1125.91 2.31245 3.73393 0
M  V30 11943 H 1126.52 3.4408 2.49979 0
M  V30 11944 N 1124.83 -0.648732 1.43629 0
M  V30 11945 C 1126.06 -1.44117 1.49148 0
M  V30 11946 C 1126.48 -1.87767 0.111952 0
M  V30 11947 O 1125.84 -1.57655 -0.895249 0
M  V30 11948 C 1125.89 -2.64938 2.44623 0
M  V30 11949 O 1124.99 -3.64155 1.93559 0
M  V30 11950 H 1124.34 -0.431933 0.504312 0
M  V30 11951 H 1126.87 -0.793439 1.88589 0
M  V30 11952 H 1126.88 -3.12698 2.62076 0
M  V30 11953 H 1125.55 -2.3251 3.44836 0
M  V30 11954 H 1124.13 -3.23322 1.85789 0
M  V30 11955 N 1126.31 -1.30234 -0.887518 0
M  V30 11956 C 1127.54 -1.21652 -1.66986 0
M  V30 11957 C 1127.95 0.223473 -1.87876 0
M  V30 11958 O 1127.29 1.15993 -1.42448 0
M  V30 11959 C 1127.36 -1.87173 -3.06931 0
M  V30 11960 C 1127.02 -3.36496 -3.09224 0
M  V30 11961 C 1128.02 -4.3253 -2.88469 0
M  V30 11962 C 1125.7 -3.77901 -3.30902 0
M  V30 11963 C 1127.7 -5.67942 -2.89344 0
M  V30 11964 C 1125.38 -5.13432 -3.31407 0
M  V30 11965 C 1126.38 -6.08263 -3.10653 0
M  V30 11966 O 1126.07 -7.41318 -3.1097 0
M  V30 11967 H 1125.8 -0.422224 -0.527923 0
M  V30 11968 H 1128.35 -1.72349 -1.11736 0
M  V30 11969 H 1126.58 -1.31002 -3.63834 0
M  V30 11970 H 1128.27 -1.72745 -3.67306 0
M  V30 11971 H 1129.04 -4.01873 -2.7152 0
M  V30 11972 H 1124.92 -3.04534 -3.46093 0
M  V30 11973 H 1128.46 -6.41936 -2.73063 0
M  V30 11974 H 1124.36 -5.4373 -3.47891 0
M  V30 11975 H 1125.13 -7.50275 -3.27153 0
M  V30 11976 N 1127.79 1.09952 -1.12909 0
M  V30 11977 C 1129.04 1.81386 -0.882163 0
M  V30 11978 C 1129.35 1.86376 0.593592 0
M  V30 11979 O 1130.56 2.54064 0.957275 0
M  V30 11980 C 1129.01 3.25824 -1.52861 0
M  V30 11981 C 1128.62 3.29117 -3.0395 0
M  V30 11982 C 1130.37 4.02051 -1.36216 0
M  V30 11983 C 1128.27 4.68047 -3.61505 0
M  V30 11984 H 1127.2 0.679701 -0.326378 0
M  V30 11985 H 1129.85 1.23614 -1.35616 0
M  V30 11986 H 1128.24 3.83624 -0.982271 0
M  V30 11987 H 1129.41 2.81114 -3.65119 0
M  V30 11988 H 1127.73 2.66379 -3.20049 0
M  V30 11989 H 1130.32 5.04683 -1.76633 0
M  V30 11990 H 1130.67 4.15171 -0.306391 0
M  V30 11991 H 1131.2 3.5068 -1.87799 0
M  V30 11992 H 1127.94 4.60128 -4.66865 0
M  V30 11993 H 1127.46 5.16397 -3.05114 0
M  V30 11994 H 1129.14 5.37018 -3.6086 0
M  V30 11995 N 1129.27 0.921757 1.27833 0
M  V30 11996 C 1130.2 0.433466 2.29441 0
M  V30 11997 C 1131.18 -0.503133 1.62489 0
M  V30 11998 O 1132.36 -0.409156 1.89841 0
M  V30 11999 C 1129.49 -0.320029 3.45822 0
M  V30 12000 C 1128.45 0.528178 4.24728 0
M  V30 12001 C 1127.77 -0.354132 5.33526 0
M  V30 12002 C 1129.07 1.78959 4.90684 0
M  V30 12003 H 1130.77 1.28263 2.70535 0
M  V30 12004 H 1128.31 0.618197 1.30055 0
M  V30 12005 H 1130.27 -0.672526 4.15999 0
M  V30 12006 H 1128.99 -1.20317 3.0363 0
M  V30 12007 H 1127.65 0.863302 3.5629 0
M  V30 12008 H 1127.3 -1.23605 4.87576 0
M  V30 12009 H 1127 0.209855 5.87225 0
M  V30 12010 H 1128.52 -0.702333 6.06547 0
M  V30 12011 H 1129.94 1.50552 5.53179 0
M  V30 12012 H 1128.33 2.29661 5.54415 0
M  V30 12013 H 1129.4 2.51265 4.14721 0
M  V30 12014 N 1130.75 -1.41857 0.686609 0
M  V30 12015 C 1131.99 -2.01666 0.214118 0
M  V30 12016 C 1132.33 -1.5422 -1.18025 0
M  V30 12017 O 1131.6 -0.749482 -1.7948 0
M  V30 12018 C 1131.88 -3.59147 0.261841 0
M  V30 12019 C 1131.74 -4.16742 1.69251 0
M  V30 12020 C 1133.06 -4.38427 -0.383378 0
M  V30 12021 H 1130.17 -0.732724 0.0792785 0
M  V30 12022 H 1132.82 -1.68724 0.873633 0
M  V30 12023 H 1130.97 -3.87342 -0.29971 0
M  V30 12024 H 1132.64 -3.99456 2.30722 0
M  V30 12025 H 1130.88 -3.72124 2.2295 0
M  V30 12026 H 1131.55 -5.25894 1.6775 0
M  V30 12027 H 1134.03 -4.15992 0.0947701 0
M  V30 12028 H 1132.9 -5.4797 -0.319401 0
M  V30 12029 H 1133.17 -4.172 -1.46276 0
M  V30 12030 N 1132.22 -0.430739 -1.51599 0
M  V30 12031 C 1133.15 0.374695 -2.30474 0
M  V30 12032 C 1134.14 1.02694 -1.35602 0
M  V30 12033 O 1135.32 1.03184 -1.6452 0
M  V30 12034 C 1132.45 1.47981 -3.14196 0
M  V30 12035 C 1131.4 0.951415 -4.17291 0
M  V30 12036 C 1130.73 2.15177 -4.89492 0
M  V30 12037 C 1132.03 -0.00957951 -5.22299 0
M  V30 12038 H 1133.72 -0.283508 -2.98055 0
M  V30 12039 H 1131.27 -0.13779 -1.43339 0
M  V30 12040 H 1133.22 2.05043 -3.68151 0
M  V30 12041 H 1131.95 2.16621 -2.44424 0
M  V30 12042 H 1130.61 0.403052 -3.64378 0
M  V30 12043 H 1130.25 2.82421 -4.1623 0
M  V30 12044 H 1129.95 1.80464 -5.59202 0
M  V30 12045 H 1131.48 2.72806 -5.46269 0
M  V30 12046 H 1132.89 0.470527 -5.71366 0
M  V30 12047 H 1131.29 -0.268959 -5.99497 0
M  V30 12048 H 1132.36 -0.948297 -4.75537 0
M  V30 12049 N 1133.7 1.56767 -0.161869 0
M  V30 12050 C 1134.61 2.21083 0.784814 0
M  V30 12051 C 1135.63 1.19959 1.26039 0
M  V30 12052 O 1136.8 1.52588 1.31449 0
M  V30 12053 C 1133.87 2.83153 2.00063 0
M  V30 12054 C 1132.93 3.9945 1.57285 0
M  V30 12055 C 1132.16 4.5855 2.7307 0
M  V30 12056 O 1132.39 4.16534 3.89686 0
M  V30 12057 O 1131.32 5.48575 2.47688 0
M  V30 12058 H 1135.15 3.02522 0.267243 0
M  V30 12059 H 1132.73 1.49255 0.0658783 0
M  V30 12060 H 1134.61 3.22546 2.71186 0
M  V30 12061 H 1133.29 2.04718 2.50744 0
M  V30 12062 H 1132.2 3.64745 0.831393 0
M  V30 12063 H 1133.53 4.7945 1.11304 0
M  V30 12064 N 1135.18 -0.111886 1.57202 0
M  V30 12065 C 1136.11 -1.13796 2.03894 0
M  V30 12066 C 1137.09 -1.4277 0.924696 0
M  V30 12067 O 1138.28 -1.53089 1.19488 0
M  V30 12068 C 1135.41 -2.46229 2.44925 0
M  V30 12069 C 1134.36 -2.31702 3.59859 0
M  V30 12070 C 1133.69 -3.69161 3.86813 0
M  V30 12071 C 1134.99 -1.77158 4.91337 0
M  V30 12072 H 1136.68 -0.749581 2.89865 0
M  V30 12073 H 1134.23 -0.359126 1.3945 0
M  V30 12074 H 1136.18 -3.18267 2.76195 0
M  V30 12075 H 1134.9 -2.86971 1.55933 0
M  V30 12076 H 1133.56 -1.62112 3.28809 0
M  V30 12077 H 1133.21 -4.07401 2.95015 0
M  V30 12078 H 1132.91 -3.60292 4.6418 0
M  V30 12079 H 1134.43 -4.42693 4.20542 0
M  V30 12080 H 1135.85 -2.3902 5.21097 0
M  V30 12081 H 1134.25 -1.79091 5.72753 0
M  V30 12082 H 1135.32 -0.729675 4.79379 0
M  V30 12083 N 1136.66 -1.52894 -0.382264 0
M  V30 12084 C 1137.88 -1.72453 -1.15216 0
M  V30 12085 C 1138.31 -0.444925 -1.82762 0
M  V30 12086 O 1137.67 0.599825 -1.7109 0
M  V30 12087 C 1137.71 -2.87939 -2.17079 0
M  V30 12088 O 1136.82 -2.55383 -3.23811 0
M  V30 12089 H 1136.16 -0.57324 -0.335099 0
M  V30 12090 H 1138.69 -1.99713 -0.444495 0
M  V30 12091 H 1138.7 -3.13628 -2.60963 0
M  V30 12092 H 1137.37 -3.80765 -1.67305 0
M  V30 12093 H 1135.95 -2.40457 -2.85018 0
M  V30 12094 N 1138.14 0.641106 -1.43971 0
M  V30 12095 C 1139.39 1.39807 -1.4594 0
M  V30 12096 C 1139.71 1.94795 -0.0893874 0
M  V30 12097 O 1138.98 1.75175 0.876962 0
M  V30 12098 H 1137.56 0.518908 -0.537349 0
M  V30 12099 H 1140.22 0.755278 -1.79671 0
M  V30 12100 H 1139.31 2.23439 -2.17903 0
M  V30 12101 N 1139.62 1.30703 0.880598 0
M  V30 12102 C 1140.85 1.22536 1.66339 0
M  V30 12103 C 1141.25 -0.213507 1.87991 0
M  V30 12104 O 1140.6 -1.15236 1.43061 0
M  V30 12105 C 1140.66 1.88798 3.05934 0
M  V30 12106 C 1140.32 3.38131 3.07435 0
M  V30 12107 C 1141.32 4.34053 2.86171 0
M  V30 12108 C 1139 3.79651 3.28893 0
M  V30 12109 C 1141 5.69469 2.86328 0
M  V30 12110 C 1138.69 5.15182 3.2868 0
M  V30 12111 C 1139.68 6.09902 3.07423 0
M  V30 12112 O 1139.37 7.42957 3.07034 0
M  V30 12113 H 1139.1 0.425018 0.525677 0
M  V30 12114 H 1141.66 1.72939 1.1082 0
M  V30 12115 H 1139.89 1.3293 3.63134 0
M  V30 12116 H 1141.58 1.74691 3.66385 0
M  V30 12117 H 1142.34 4.03307 2.69385 0
M  V30 12118 H 1138.22 3.06365 3.44473 0
M  V30 12119 H 1141.77 6.43375 2.69655 0
M  V30 12120 H 1137.66 5.45567 3.45002 0
M  V30 12121 H 1138.43 7.52 3.23169 0
M  V30 12122 N 1141.09 -1.09351 1.1349 0
M  V30 12123 C 1142.32 -1.85304 0.920324 0
M  V30 12124 C 1142.74 -1.81182 -0.530883 0
M  V30 12125 O 1142.09 -1.20853 -1.36751 0
M  V30 12126 C 1142.14 -3.33249 1.40098 0
M  V30 12127 O 1141.87 -3.37333 2.79531 0
M  V30 12128 C 1143.37 -4.2604 1.22495 0
M  V30 12129 H 1140.59 -0.585294 0.328134 0
M  V30 12130 H 1143.13 -1.38168 1.50765 0
M  V30 12131 H 1141.29 -3.7781 0.85664 0
M  V30 12132 H 1141.7 -4.29614 3.00885 0
M  V30 12133 H 1143.17 -5.27999 1.61 0
M  V30 12134 H 1143.65 -4.38883 0.166717 0
M  V30 12135 H 1144.26 -3.87295 1.75735 0
M  V30 12136 N 1142.57 -0.928524 -1.27343 0
M  V30 12137 C 1143.99 -0.62889 -1.46687 0
M  V30 12138 C 1144.19 0.821592 -1.83989 0
M  V30 12139 O 1143.24 1.59941 -1.95385 0
M  V30 12140 C 1144.56 -1.57947 -2.55878 0
M  V30 12141 C 1146.1 -1.58778 -2.69738 0
M  V30 12142 C 1146.58 -2.52535 -3.82087 0
M  V30 12143 N 1148.07 -2.50747 -3.89462 0
M  V30 12144 C 1148.81 -3.19981 -4.75814 0
M  V30 12145 N 1148.3 -3.98598 -5.66649 0
M  V30 12146 N 1150.09 -3.08996 -4.69551 0
M  V30 12147 H 1142.25 -1.86625 -1.01414 0
M  V30 12148 H 1144.51 -0.801293 -0.50659 0
M  V30 12149 H 1144.21 -2.61427 -2.35264 0
M  V30 12150 H 1144.09 -1.3218 -3.53282 0
M  V30 12151 H 1146.48 -0.560292 -2.89732 0
M  V30 12152 H 1146.56 -1.88594 -1.72817 0
M  V30 12153 H 1146.2 -3.55395 -3.62846 0
M  V30 12154 H 1146.13 -2.20015 -4.78436 0
M  V30 12155 H 1148.62 -1.93651 -3.24511 0
M  V30 12156 H 1148.93 -4.4841 -6.29403 0
M  V30 12157 H 1147.28 -4.02701 -5.66442 0
M  V30 12158 H 1150.47 -2.4707 -3.97585 0
M  V30 12159 H 1150.64 -3.63223 -5.36631 0
M  V30 12160 N 1144.05 1.41491 -0.694123 0
M  V30 12161 C 1145.28 2.05579 -0.233466 0
M  V30 12162 C 1145.69 1.5223 1.11675 0
M  V30 12163 O 1145.05 0.669937 1.69759 0
M  V30 12164 C 1145.1 3.61047 -0.180967 0
M  V30 12165 O 1144.82 4.12421 -1.47785 0
M  V30 12166 C 1146.32 4.42278 0.300853 0
M  V30 12167 H 1143.54 0.662097 -0.108943 0
M  V30 12168 H 1146.09 1.81288 -0.946299 0
M  V30 12169 H 1144.24 3.84381 0.482678 0
M  V30 12170 H 1144.66 5.06454 -1.364 0
M  V30 12171 H 1146.13 5.51256 0.286464 0
M  V30 12172 H 1146.61 4.18276 1.33948 0
M  V30 12173 H 1147.21 4.24004 -0.331741 0
M  V30 12174 N 1145.53 0.438773 1.51369 0
M  V30 12175 C 1146.78 -0.126962 2.01701 0
M  V30 12176 C 1147.1 -1.43086 1.32481 0
M  V30 12177 O 1146.37 -1.90427 0.459823 0
M  V30 12178 H 1144.95 -0.0499092 0.745331 0
M  V30 12179 H 1147.61 0.581808 1.86013 0
M  V30 12180 H 1146.7 -0.301836 3.10637 0
M  V30 12181 N 1147.01 -1.56678 0.170181 0
M  V30 12182 C 1148.25 -1.9646 -0.474125 0
M  V30 12183 C 1148.57 -1.05719 -1.63855 0
M  V30 12184 O 1147.84 -0.123316 -1.95511 0
M  V30 12185 H 1146.42 -0.725446 -0.178149 0
M  V30 12186 H 1149.09 -1.93276 0.251099 0
M  V30 12187 H 1148.18 -3.00726 -0.834894 0
M  V30 12188 N 1148.48 0.103547 -1.57259 0
M  V30 12189 C 1149.73 0.806979 -1.8529 0
M  V30 12190 C 1150.05 1.79679 -0.757653 0
M  V30 12191 O 1149.32 1.94695 0.216913 0
M  V30 12192 H 1147.9 0.301012 -0.683667 0
M  V30 12193 H 1150.56 0.0871886 -1.94705 0
M  V30 12194 H 1149.66 1.34275 -2.81738 0
M  V30 12195 N 1149.96 1.53094 0.37415 0
M  V30 12196 C 1150.92 1.78264 1.44065 0
M  V30 12197 C 1151.92 0.652892 1.46949 0
M  V30 12198 O 1153.11 0.921046 1.47859 0
M  V30 12199 C 1150.25 1.89693 2.83248 0
M  V30 12200 H 1151.44 2.73505 1.23025 0
M  V30 12201 H 1148.99 1.44041 0.60678 0
M  V30 12202 H 1149.73 0.964884 3.09613 0
M  V30 12203 H 1149.51 2.71855 2.82554 0
M  V30 12204 H 1151 2.10787 3.60498 0
M  V30 12205 N 1151.44 -0.633461 1.44309 0
M  V30 12206 C 1152.69 -1.39513 1.47187 0
M  V30 12207 C 1153.02 -1.93926 0.103186 0
M  V30 12208 O 1152.29 -1.73512 -0.878853 0
M  V30 12209 C 1152.58 -2.56213 2.53036 0
M  V30 12210 C 1152.43 -2.07164 3.99253 0
M  V30 12211 C 1153.75 -3.58403 2.55412 0
M  V30 12212 H 1150.87 -0.505936 0.535908 0
M  V30 12213 H 1153.51 -0.716445 1.75975 0
M  V30 12214 H 1151.66 -3.14111 2.28619 0
M  V30 12215 H 1153.33 -1.54115 4.34795 0
M  V30 12216 H 1151.57 -1.38367 4.11141 0
M  V30 12217 H 1152.25 -2.91172 4.6896 0
M  V30 12218 H 1154.72 -3.103 2.77224 0
M  V30 12219 H 1153.6 -4.37581 3.31382 0
M  V30 12220 H 1153.86 -4.12316 1.59523 0
M  V30 12221 N 1152.92 -1.31168 -0.873655 0
M  V30 12222 C 1154.14 -1.23728 -1.66452 0
M  V30 12223 C 1154.57 0.194869 -1.87088 0
M  V30 12224 O 1153.93 1.1397 -1.40998 0
M  V30 12225 C 1153.97 -1.98285 -3.0119 0
M  V30 12226 O 1153.08 -1.31767 -3.90783 0
M  V30 12227 H 1152.42 -0.427362 -0.508191 0
M  V30 12228 H 1154.95 -1.73176 -1.08955 0
M  V30 12229 H 1154.96 -2.0774 -3.51153 0
M  V30 12230 H 1153.63 -3.02437 -2.8549 0
M  V30 12231 H 1152.21 -1.3074 -3.4923 0
M  V30 12232 N 1154.4 1.08748 -1.14068 0
M  V30 12233 C 1155.64 1.80707 -0.904947 0
M  V30 12234 C 1155.97 1.86478 0.570167 0
M  V30 12235 O 1155.24 1.35536 1.41445 0
M  V30 12236 H 1153.82 0.669261 -0.331811 0
M  V30 12237 H 1156.48 1.31494 -1.43859 0
M  V30 12238 H 1155.57 2.83653 -1.30182 0
M  V30 12239 N 1155.87 0.935264 1.26849 0
M  V30 12240 C 1157.29 0.636661 1.46352 0
M  V30 12241 C 1157.49 -0.811823 1.84423 0
M  V30 12242 O 1156.55 -1.58902 1.9623 0
M  V30 12243 C 1157.86 1.59301 2.55036 0
M  V30 12244 C 1159.41 1.60207 2.68892 0
M  V30 12245 C 1159.88 2.54558 3.80742 0
M  V30 12246 N 1161.37 2.52809 3.88126 0
M  V30 12247 C 1162.11 3.225 4.74111 0
M  V30 12248 N 1161.6 4.01598 5.64527 0
M  V30 12249 N 1163.4 3.11481 4.67906 0
M  V30 12250 H 1155.55 1.8716 1.00423 0
M  V30 12251 H 1157.81 0.803968 0.502334 0
M  V30 12252 H 1157.52 2.62671 2.33874 0
M  V30 12253 H 1157.39 1.34052 3.52576 0
M  V30 12254 H 1159.78 0.575649 2.89431 0
M  V30 12255 H 1159.86 1.89508 1.71815 0
M  V30 12256 H 1159.5 3.57314 3.60956 0
M  V30 12257 H 1159.43 2.22549 4.77263 0
M  V30 12258 H 1161.92 1.9537 3.2348 0
M  V30 12259 H 1162.24 4.51742 6.27016 0
M  V30 12260 H 1160.58 4.057 5.64298 0
M  V30 12261 H 1163.77 2.49175 3.9627 0
M  V30 12262 H 1163.95 3.66064 5.34697 0
M  V30 12263 N 1157.35 -1.41121 0.701616 0
M  V30 12264 C 1158.58 -2.05973 0.242896 0
M  V30 12265 C 1159 -1.52474 -1.10151 0
M  V30 12266 O 1158.36 -0.654224 -1.69085 0
M  V30 12267 C 1158.41 -3.59943 0.217614 0
M  V30 12268 O 1157.51 -4.04454 -0.805629 0
M  V30 12269 H 1156.85 -0.653581 0.117166 0
M  V30 12270 H 1159.38 -1.80777 0.958175 0
M  V30 12271 H 1159.39 -4.07969 0.0505267 0
M  V30 12272 H 1158.07 -3.98249 1.19877 0
M  V30 12273 H 1156.65 -3.6792 -0.607404 0
M  V30 12274 N 1158.83 -0.446794 -1.51134 0
M  V30 12275 C 1160.06 0.114727 -2.06281 0
M  V30 12276 C 1160.47 1.36192 -1.31333 0
M  V30 12277 O 1159.81 1.79956 -0.368982 0
M  V30 12278 C 1159.87 0.492968 -3.56104 0
M  V30 12279 C 1159.54 -0.648755 -4.52372 0
M  V30 12280 C 1160.53 -1.52369 -4.97071 0
M  V30 12281 C 1158.22 -0.832177 -4.95359 0
M  V30 12282 C 1160.21 -2.56667 -5.83439 0
M  V30 12283 C 1157.9 -1.87841 -5.81514 0
M  V30 12284 C 1158.9 -2.74404 -6.25453 0
M  V30 12285 O 1158.59 -3.7723 -7.09896 0
M  V30 12286 H 1158.32 0.007138 -0.675962 0
M  V30 12287 H 1160.87 -0.627452 -1.95582 0
M  V30 12288 H 1159.1 1.28799 -3.6462 0
M  V30 12289 H 1160.79 0.986739 -3.93724 0
M  V30 12290 H 1161.56 -1.39356 -4.64548 0
M  V30 12291 H 1157.44 -0.167954 -4.60694 0
M  V30 12292 H 1160.98 -3.24264 -6.17656 0
M  V30 12293 H 1156.88 -2.00871 -6.1345 0
M  V30 12294 H 1157.65 -3.73924 -7.28095 0
M  V30 12295 N 1160.31 1.56586 -0.178487 0
M  V30 12296 C 1161.22 2.21903 0.761321 0
M  V30 12297 C 1162.23 1.21289 1.2476 0
M  V30 12298 O 1163.41 1.53974 1.29823 0
M  V30 12299 C 1160.48 2.85259 1.97048 0
M  V30 12300 C 1159.54 4.01095 1.53039 0
M  V30 12301 C 1158.77 4.61421 2.68191 0
M  V30 12302 O 1158.99 4.20644 3.85247 0
M  V30 12303 O 1157.93 5.51171 2.41855 0
M  V30 12304 H 1161.75 3.02788 0.235141 0
M  V30 12305 H 1159.34 1.49316 0.0500442 0
M  V30 12306 H 1161.22 3.25404 2.6775 0
M  V30 12307 H 1159.89 2.07366 2.48558 0
M  V30 12308 H 1158.8 3.65606 0.792661 0
M  V30 12309 H 1160.13 4.80603 1.06213 0
M  V30 12310 N 1161.79 -0.095206 1.57312 0
M  V30 12311 C 1163.2 -0.649733 1.7503 0
M  V30 12312 C 1163.55 -1.7912 0.800652 0
M  V30 12313 O 1162.67 -2.1639 -0.0208831 0
M  V30 12314 C 1163.27 -1.18541 3.17386 0
M  V30 12315 C 1161.83 -1.686 3.36528 0
M  V30 12316 C 1160.97 -0.595531 2.7083 0
M  V30 12317 H 1163.93 0.130863 1.5816 0
M  V30 12318 H 1163.95 -2.05473 3.20252 0
M  V30 12319 H 1163.46 -0.35441 3.86478 0
M  V30 12320 H 1161.56 -2.541 2.72514 0
M  V30 12321 H 1161.67 -1.77907 4.44844 0
M  V30 12322 H 1160.04 -1.03495 2.32725 0
M  V30 12323 H 1160.82 0.224883 3.42563 0
M  V30 12324 N 1163.26 -1.53291 -0.366026 0
M  V30 12325 C 1164.51 -1.68671 -1.10602 0
M  V30 12326 C 1164.83 -0.444793 -1.90476 0
M  V30 12327 O 1166.03 -0.479135 -2.67239 0
M  V30 12328 C 1164.49 -2.98174 -2.01545 0
M  V30 12329 C 1164.1 -4.29626 -1.26986 0
M  V30 12330 C 1165.84 -3.22921 -2.7554 0
M  V30 12331 C 1163.75 -5.50218 -2.16828 0
M  V30 12332 H 1162.68 -0.628456 -0.416604 0
M  V30 12333 H 1165.33 -1.79791 -0.367058 0
M  V30 12334 H 1163.71 -2.80855 -2.79171 0
M  V30 12335 H 1164.88 -4.57574 -0.544269 0
M  V30 12336 H 1163.2 -4.11318 -0.648558 0
M  V30 12337 H 1165.8 -4.10202 -3.42985 0
M  V30 12338 H 1166.14 -2.38964 -3.40884 0
M  V30 12339 H 1166.67 -3.40912 -2.04997 0
M  V30 12340 H 1163.41 -6.36651 -1.56063 0
M  V30 12341 H 1162.93 -5.26549 -2.87238 0
M  V30 12342 H 1164.61 -5.84991 -2.76396 0
M  V30 12343 N 1164.74 0.6258 -1.44643 0
M  V30 12344 C 1165.99 1.3873 -1.47925 0
M  V30 12345 C 1166.32 1.93868 -0.113469 0
M  V30 12346 O 1165.6 1.73976 0.869639 0
M  V30 12347 C 1165.88 2.54867 -2.54391 0
M  V30 12348 C 1165.73 2.05044 -4.00346 0
M  V30 12349 C 1167.05 3.57043 -2.57309 0
M  V30 12350 H 1164.17 0.503087 -0.538584 0
M  V30 12351 H 1166.81 0.707102 -1.76352 0
M  V30 12352 H 1164.96 3.12894 -2.30281 0
M  V30 12353 H 1166.63 1.51807 -4.35606 0
M  V30 12354 H 1164.88 1.36185 -4.11869 0
M  V30 12355 H 1165.55 2.88681 -4.70497 0
M  V30 12356 H 1168.02 3.08826 -2.78865 0
M  V30 12357 H 1166.9 4.35818 -3.33698 0
M  V30 12358 H 1167.16 4.11464 -1.61708 0
M  V30 12359 N 1166.22 1.31629 0.866686 0
M  V30 12360 C 1167.18 1.1951 1.95576 0
M  V30 12361 C 1168.18 0.121319 1.60342 0
M  V30 12362 O 1169.37 0.370832 1.70207 0
M  V30 12363 C 1166.51 0.835201 3.30511 0
M  V30 12364 H 1167.7 2.16285 2.07752 0
M  V30 12365 H 1165.25 1.15288 1.05539 0
M  V30 12366 H 1165.99 -0.131245 3.24034 0
M  V30 12367 H 1165.77 1.61142 3.57457 0
M  V30 12368 H 1167.26 0.774393 4.10357 0
M  V30 12369 N 1167.7 -1.08142 1.14644 0
M  V30 12370 C 1168.95 -1.79959 0.910908 0
M  V30 12371 C 1169.26 -1.87296 -0.563866 0
M  V30 12372 O 1170.47 -2.55555 -0.916735 0
M  V30 12373 C 1168.92 -3.23351 1.58025 0
M  V30 12374 C 1168.53 -3.2424 3.09148 0
M  V30 12375 C 1170.28 -3.99834 1.42595 0
M  V30 12376 C 1168.18 -4.62236 3.68906 0
M  V30 12377 H 1167.11 -0.674423 0.33715 0
M  V30 12378 H 1169.76 -1.21441 1.37566 0
M  V30 12379 H 1168.15 -3.82013 1.04318 0
M  V30 12380 H 1169.32 -2.75269 3.69545 0
M  V30 12381 H 1167.63 -2.61253 3.24246 0
M  V30 12382 H 1170.23 -5.01809 1.8464 0
M  V30 12383 H 1170.57 -4.14631 0.372402 0
M  V30 12384 H 1171.11 -3.47648 1.93354 0
M  V30 12385 H 1167.85 -4.52642 4.74126 0
M  V30 12386 H 1167.37 -5.11477 3.1329 0
M  V30 12387 H 1169.05 -5.3121 3.69358 0
M  V30 12388 N 1169.18 -0.941978 -1.26351 0
M  V30 12389 C 1170.11 -0.469913 -2.28723 0
M  V30 12390 C 1171.09 0.477218 -1.63269 0
M  V30 12391 O 1172.27 0.378902 -1.90468 0
M  V30 12392 C 1169.4 0.264971 -3.46288 0
M  V30 12393 C 1168.36 -0.595682 -4.23834 0
M  V30 12394 C 1167.68 0.269208 -5.34022 0
M  V30 12395 C 1168.98 -1.86743 -4.87775 0
M  V30 12396 H 1170.68 -1.32551 -2.6846 0
M  V30 12397 H 1168.22 -0.638809 -1.29055 0
M  V30 12398 H 1170.18 0.606259 -4.17016 0
M  V30 12399 H 1168.9 1.15471 -3.05506 0
M  V30 12400 H 1167.56 -0.919875 -3.54872 0
M  V30 12401 H 1167.21 1.15832 -4.89481 0
M  V30 12402 H 1166.91 -0.30325 -5.86817 0
M  V30 12403 H 1168.43 0.605748 -6.07588 0
M  V30 12404 H 1169.85 -1.59333 -5.50714 0
M  V30 12405 H 1168.24 -2.38452 -5.50691 0
M  V30 12406 H 1169.31 -2.57831 -4.10671 0
M  V30 12407 N 1170.66 1.40747 -0.709091 0
M  V30 12408 C 1171.59 2.33404 -0.0669763 0
M  V30 12409 C 1172.57 1.52546 0.752582 0
M  V30 12410 O 1173.75 1.81036 0.702823 0
M  V30 12411 C 1170.88 3.36476 0.860285 0
M  V30 12412 C 1169.84 4.27748 0.146828 0
M  V30 12413 C 1169.16 5.21304 1.18937 0
M  V30 12414 C 1170.46 5.12734 -0.995064 0
M  V30 12415 H 1172.16 2.87349 -0.840888 0
M  V30 12416 H 1169.7 1.38163 -0.405817 0
M  V30 12417 H 1171.65 4.00231 1.31883 0
M  V30 12418 H 1170.38 2.80912 1.66602 0
M  V30 12419 H 1169.04 3.65437 -0.291826 0
M  V30 12420 H 1168.69 4.62048 1.98798 0
M  V30 12421 H 1168.39 5.8321 0.716917 0
M  V30 12422 H 1169.91 5.87936 1.64815 0
M  V30 12423 H 1171.32 5.69979 -0.61618 0
M  V30 12424 H 1169.72 5.83649 -1.39547 0
M  V30 12425 H 1170.79 4.49097 -1.82867 0
M  V30 12426 N 1172.13 0.454803 1.50895 0
M  V30 12427 C 1173.38 -0.10577 2.02224 0
M  V30 12428 C 1173.71 -1.41176 1.33789 0
M  V30 12429 O 1172.96 -1.90522 0.447181 0
M  V30 12430 C 1173.26 -0.354159 3.55641 0
M  V30 12431 C 1172.93 0.868136 4.42464 0
M  V30 12432 C 1171.59 1.2033 4.65912 0
M  V30 12433 C 1173.94 1.68272 4.93289 0
M  V30 12434 C 1171.27 2.3534 5.37431 0
M  V30 12435 C 1173.62 2.82396 5.6607 0
M  V30 12436 C 1172.29 3.16346 5.87777 0
M  V30 12437 H 1171.56 -0.0387041 0.739989 0
M  V30 12438 H 1174.2 0.605564 1.81673 0
M  V30 12439 H 1172.51 -1.14757 3.74617 0
M  V30 12440 H 1174.21 -0.8016 3.92906 0
M  V30 12441 H 1170.8 0.596995 4.24422 0
M  V30 12442 H 1174.98 1.43698 4.75042 0
M  V30 12443 H 1170.24 2.61936 5.52449 0
M  V30 12444 H 1174.41 3.45873 6.04438 0
M  V30 12445 H 1172.04 4.05574 6.42973 0
M  V30 12446 N 1173.61 -1.56489 0.186789 0
M  V30 12447 C 1174.84 -2.02163 -0.463126 0
M  V30 12448 C 1175.26 -1.06612 -1.54969 0
M  V30 12449 O 1174.62 -0.0482139 -1.81236 0
M  V30 12450 C 1174.67 -3.46337 -1.00416 0
M  V30 12451 O 1173.77 -3.53889 -2.11747 0
M  V30 12452 H 1173.11 -0.65496 -0.109194 0
M  V30 12453 H 1175.64 -2.02459 0.295227 0
M  V30 12454 H 1175.65 -3.85959 -1.32287 0
M  V30 12455 H 1174.33 -4.15376 -0.208693 0
M  V30 12456 H 1172.9 -3.26136 -1.80803 0
M  V30 12457 N 1175.09 0.086862 -1.5736 0
M  V30 12458 C 1176.33 0.794358 -1.88333 0
M  V30 12459 C 1176.69 1.75496 -0.778783 0
M  V30 12460 O 1177.89 2.50643 -0.971152 0
M  V30 12461 C 1176.17 1.49686 -3.24544 0
M  V30 12462 S 1177.72 2.2415 -3.7723 0
M  V30 12463 H 1174.54 0.264479 -0.659979 0
M  V30 12464 H 1177.14 0.0511046 -1.95433 0
M  V30 12465 H 1175.85 0.783713 -4.02847 0
M  V30 12466 H 1175.38 2.27984 -3.20604 0
M  V30 12467 H 1177.39 3.50426 -3.51306 0
M  V30 12468 N 1176.57 1.53483 0.357892 0
M  V30 12469 C 1177.53 1.79782 1.42166 0
M  V30 12470 C 1178.53 0.668441 1.46248 0
M  V30 12471 O 1179.72 0.936677 1.46874 0
M  V30 12472 C 1176.85 1.92686 2.8122 0
M  V30 12473 H 1178.05 2.74794 1.20117 0
M  V30 12474 H 1175.6 1.44677 0.591468 0
M  V30 12475 H 1176.33 0.997669 3.08573 0
M  V30 12476 H 1176.12 2.74837 2.79655 0
M  V30 12477 H 1177.61 2.14599 3.58242 0
M  V30 12478 N 1178.05 -0.61812 1.44973 0
M  V30 12479 C 1178.98 -1.74035 1.55673 0
M  V30 12480 C 1179.96 -1.65112 0.4089 0
M  V30 12481 O 1181.14 -1.83673 0.630698 0
M  V30 12482 C 1178.27 -3.1261 1.51303 0
M  V30 12483 C 1177.23 -3.36334 2.64696 0
M  V30 12484 C 1176.55 -4.75072 2.45378 0
M  V30 12485 C 1177.85 -3.27618 4.06772 0
M  V30 12486 H 1179.55 -1.65336 2.49608 0
M  V30 12487 H 1177.09 -0.794003 1.20132 0
M  V30 12488 H 1179.04 -3.90906 1.57388 0
M  V30 12489 H 1177.77 -3.22123 0.538914 0
M  V30 12490 H 1176.43 -2.60423 2.58022 0
M  V30 12491 H 1176.08 -4.81306 1.46129 0
M  V30 12492 H 1175.78 -4.91903 3.21412 0
M  V30 12493 H 1177.3 -5.55582 2.53301 0
M  V30 12494 H 1178.71 -3.95802 4.14746 0
M  V30 12495 H 1177.11 -3.55981 4.83113 0
M  V30 12496 H 1178.18 -2.25219 4.29423 0
M  V30 12497 N 1179.52 -1.32087 -0.859693 0
M  V30 12498 C 1180.49 -1.20546 -1.94939 0
M  V30 12499 C 1181.49 -0.12982 -1.60275 0
M  V30 12500 O 1182.68 -0.379853 -1.70008 0
M  V30 12501 C 1179.81 -0.852717 -3.30063 0
M  V30 12502 H 1181 -2.17384 -2.06602 0
M  V30 12503 H 1178.55 -1.15846 -1.04926 0
M  V30 12504 H 1179.29 0.114059 -3.24099 0
M  V30 12505 H 1179.07 -1.63035 -3.56598 0
M  V30 12506 H 1180.56 -0.796145 -4.09941 0
M  V30 12507 N 1181 1.07532 -1.15215 0
M  V30 12508 C 1181.93 2.1668 -0.870171 0
M  V30 12509 C 1182.91 1.69161 0.178483 0
M  V30 12510 O 1184.1 1.94172 0.0332489 0
M  V30 12511 C 1181.23 3.45464 -0.356666 0
M  V30 12512 C 1180.18 4.06424 -1.34179 0
M  V30 12513 C 1179.51 5.30266 -0.687206 0
M  V30 12514 C 1180.81 4.46666 -2.70715 0
M  V30 12515 H 1182.5 2.40526 -1.7829 0
M  V30 12516 H 1180.05 1.15598 -0.858665 0
M  V30 12517 H 1182 4.21144 -0.146947 0
M  V30 12518 H 1180.72 3.21199 0.591527 0
M  V30 12519 H 1179.38 3.32786 -1.53783 0
M  V30 12520 H 1179.03 5.0229 0.267077 0
M  V30 12521 H 1178.73 5.72009 -1.34462 0
M  V30 12522 H 1180.26 6.08653 -0.487218 0
M  V30 12523 H 1181.67 5.13483 -2.54966 0
M  V30 12524 H 1180.07 4.99355 -3.32813 0
M  V30 12525 H 1181.14 3.58123 -3.26919 0
M  V30 12526 N 1182.48 0.948665 1.2585 0
M  V30 12527 C 1183.43 0.434929 2.23813 0
M  V30 12528 C 1184.41 -0.472518 1.53805 0
M  V30 12529 O 1185.61 -0.306542 1.74325 0
M  V30 12530 C 1182.74 -0.291678 3.42059 0
M  V30 12531 C 1181.82 0.633493 4.19342 0
M  V30 12532 N 1182.21 1.76254 4.74097 0
M  V30 12533 C 1180.51 0.440528 4.43819 0
M  V30 12534 C 1181.21 2.33968 5.32573 0
M  V30 12535 N 1180.19 1.62687 5.18685 0
M  V30 12536 H 1183.99 1.29668 2.63749 0
M  V30 12537 H 1181.5 0.805431 1.4102 0
M  V30 12538 H 1183.5 -0.676811 4.1137 0
M  V30 12539 H 1182.16 -1.15011 3.03649 0
M  V30 12540 H 1183.17 2.14453 4.71413 0
M  V30 12541 H 1179.85 -0.375515 4.15808 0
M  V30 12542 H 1181.24 3.2914 5.85761 0
M  V30 12543 N 1183.96 -1.40369 0.716545 0
M  V30 12544 C 1184.92 -2.29083 0.0733105 0
M  V30 12545 C 1185.92 -1.45415 -0.686378 0
M  V30 12546 O 1187.11 -1.66316 -0.518139 0
M  V30 12547 C 1184.24 -3.28639 -0.906032 0
M  V30 12548 H 1185.44 -2.87464 0.85467 0
M  V30 12549 H 1182.99 -1.48706 0.481256 0
M  V30 12550 H 1183.72 -2.75279 -1.71441 0
M  V30 12551 H 1183.51 -3.90405 -0.364163 0
M  V30 12552 H 1185 -3.95066 -1.35324 0
M  V30 12553 N 1185.44 -0.462799 -1.50652 0
M  V30 12554 C 1186.85 -0.11648 -1.59174 0
M  V30 12555 C 1187.05 1.37638 -1.47167 0
M  V30 12556 O 1186.11 2.14886 -1.3259 0
M  V30 12557 C 1187.42 -0.659289 -2.93383 0
M  V30 12558 C 1188.97 -0.62198 -3.06758 0
M  V30 12559 C 1189.44 -1.14219 -4.43529 0
M  V30 12560 N 1190.94 -1.10125 -4.49919 0
M  V30 12561 C 1191.67 -1.47436 -5.54121 0
M  V30 12562 N 1191.17 -1.92156 -6.65618 0
M  V30 12563 N 1192.96 -1.39091 -5.44619 0
M  V30 12564 H 1185.11 -1.43383 -1.56701 0
M  V30 12565 H 1187.37 -0.592438 -0.740082 0
M  V30 12566 H 1187.08 -1.70477 -3.07621 0
M  V30 12567 H 1186.95 -0.0982388 -3.77072 0
M  V30 12568 H 1189.34 0.414576 -2.92173 0
M  V30 12569 H 1189.42 -1.21974 -2.24847 0
M  V30 12570 H 1189.07 -2.17734 -4.58862 0
M  V30 12571 H 1189 -0.52073 -5.24019 0
M  V30 12572 H 1191.49 -0.773154 -3.69906 0
M  V30 12573 H 1191.8 -2.18796 -7.4118 0
M  V30 12574 H 1190.14 -1.96103 -6.6676 0
M  V30 12575 H 1193.34 -1.04001 -4.564 0
M  V30 12576 H 1193.51 -1.68496 -6.2571 0
M  V30 12577 N 1186.91 1.56388 -0.195085 0
M  V30 12578 C 1187.85 2.16316 0.757643 0
M  V30 12579 C 1188.86 1.12498 1.17678 0
M  V30 12580 O 1190.05 1.39591 1.11251 0
M  V30 12581 C 1187.15 2.7104 2.03447 0
M  V30 12582 C 1186.32 3.99759 1.77514 0
M  V30 12583 C 1185.38 4.3931 2.89644 0
M  V30 12584 O 1184.41 5.06732 2.59252 0
M  V30 12585 N 1185.61 4.02813 4.17998 0
M  V30 12586 H 1188.37 2.98696 0.24517 0
M  V30 12587 H 1185.93 1.61895 -0.0131194 0
M  V30 12588 H 1187.93 2.94483 2.776 0
M  V30 12589 H 1186.5 1.93114 2.45817 0
M  V30 12590 H 1185.72 3.84448 0.8714 0
M  V30 12591 H 1187 4.83782 1.57585 0
M  V30 12592 H 1186.4 3.4858 4.45543 0
M  V30 12593 H 1184.96 4.31206 4.88779 0
M  V30 12594 N 1188.39 -0.0785156 1.57404 0
M  V30 12595 C 1189.64 -0.780092 1.87196 0
M  V30 12596 C 1189.97 -1.77562 0.78647 0
M  V30 12597 O 1189.25 -1.93428 -0.203935 0
M  V30 12598 C 1189.53 -1.49408 3.27642 0
M  V30 12599 C 1189.38 -0.515416 4.46837 0
M  V30 12600 C 1190.7 -2.44064 3.66225 0
M  V30 12601 H 1187.82 -0.282134 0.680859 0
M  V30 12602 H 1190.46 -0.0433926 1.8995 0
M  V30 12603 H 1188.61 -2.12205 3.25425 0
M  V30 12604 H 1190.28 0.106827 4.61176 0
M  V30 12605 H 1188.53 0.169832 4.33467 0
M  V30 12606 H 1189.2 -1.05247 5.41874 0
M  V30 12607 H 1191.67 -1.91349 3.69493 0
M  V30 12608 H 1190.55 -2.91029 4.65396 0
M  V30 12609 H 1190.81 -3.28569 2.95796 0
M  V30 12610 N 1189.87 -1.5367 -0.349747 0
M  V30 12611 C 1191.15 -1.61238 -1.10732 0
M  V30 12612 C 1191.53 -0.429756 -2.06679 0
M  V30 12613 O 1190.88 0.578564 -2.21054 0
M  V30 12614 C 1191.09 -2.97022 -1.83245 0
M  V30 12615 C 1192.43 -3.52158 -2.37212 0
M  V30 12616 O 1193.46 -2.99156 -1.9335 0
M  V30 12617 O 1192.32 -4.44853 -3.1744 0
M  V30 12618 H 1189.41 -0.65191 -0.508864 0
M  V30 12619 H 1191.96 -1.66015 -0.351738 0
M  V30 12620 H 1190.73 -3.74535 -1.13311 0
M  V30 12621 H 1190.35 -2.95808 -2.65675 0
M  V30 12622 N 1191.35 0.610423 -1.45298 0
M  V30 12623 C 1192.6 1.36558 -1.48441 0
M  V30 12624 C 1192.91 1.95173 -0.129137 0
M  V30 12625 O 1194.12 2.71473 -0.0381956 0
M  V30 12626 C 1192.57 2.47349 -2.61431 0
M  V30 12627 C 1192.18 1.95158 -4.03258 0
M  V30 12628 C 1193.92 3.24383 -2.73817 0
M  V30 12629 C 1191.83 3.03414 -5.07635 0
M  V30 12630 H 1190.76 0.513253 -0.552347 0
M  V30 12631 H 1193.41 0.654535 -1.7143 0
M  V30 12632 H 1191.79 3.21125 -2.31721 0
M  V30 12633 H 1192.97 1.2811 -4.42634 0
M  V30 12634 H 1191.28 1.30878 -3.95297 0
M  V30 12635 H 1193.88 4.05123 -3.48969 0
M  V30 12636 H 1194.22 3.75205 -1.80352 0
M  V30 12637 H 1194.76 2.57705 -3.03039 0
M  V30 12638 H 1191.5 2.57512 -6.028 0
M  V30 12639 H 1191.02 3.69039 -4.72833 0
M  V30 12640 H 1192.69 3.67844 -5.32259 0
M  V30 12641 N 1192.83 1.32541 0.852676 0
M  V30 12642 C 1194.24 1.11575 1.14119 0
M  V30 12643 C 1194.44 -0.102469 2.01239 0
M  V30 12644 O 1193.5 -0.786786 2.39929 0
M  V30 12645 C 1194.81 2.39624 1.81661 0
M  V30 12646 C 1196.36 2.454 1.94288 0
M  V30 12647 C 1196.83 3.73375 2.65245 0
M  V30 12648 N 1198.33 3.74368 2.72769 0
M  V30 12649 C 1199.06 4.70094 3.28328 0
M  V30 12650 N 1198.56 5.76187 3.84682 0
M  V30 12651 N 1200.35 4.57588 3.26449 0
M  V30 12652 H 1192.5 2.10644 0.272544 0
M  V30 12653 H 1194.76 0.930094 0.183385 0
M  V30 12654 H 1194.47 3.28698 1.25102 0
M  V30 12655 H 1194.34 2.50734 2.81802 0
M  V30 12656 H 1196.73 1.56784 2.50005 0
M  V30 12657 H 1196.81 2.38241 0.931379 0
M  V30 12658 H 1196.46 4.62366 2.10191 0
M  V30 12659 H 1196.39 3.77806 3.66838 0
M  V30 12660 H 1198.88 2.97685 2.32791 0
M  V30 12661 H 1199.19 6.45285 4.25238 0
M  V30 12662 H 1197.53 5.79939 3.83008 0
M  V30 12663 H 1200.73 3.7387 2.81672 0
M  V30 12664 H 1200.9 5.32365 3.69448 0
M  V30 12665 N 1194.3 -1.0692 1.15784 0
M  V30 12666 C 1195.23 -2.16216 0.881649 0
M  V30 12667 C 1196.22 -1.69253 -0.16951 0
M  V30 12668 O 1197.4 -1.94186 -0.0229511 0
M  V30 12669 C 1194.53 -3.4527 0.374982 0
M  V30 12670 C 1193.48 -4.05706 1.36332 0
M  V30 12671 C 1192.81 -5.29894 0.715317 0
M  V30 12672 C 1194.11 -4.45224 2.7308 0
M  V30 12673 H 1195.8 -2.39577 1.79563 0
M  V30 12674 H 1193.35 -1.15141 0.864784 0
M  V30 12675 H 1195.3 -4.2106 0.169279 0
M  V30 12676 H 1194.03 -3.21508 -0.574485 0
M  V30 12677 H 1192.69 -3.31965 1.55546 0
M  V30 12678 H 1192.33 -5.02425 -0.240436 0
M  V30 12679 H 1192.03 -5.71287 1.37494 0
M  V30 12680 H 1193.56 -6.08386 0.519489 0
M  V30 12681 H 1194.97 -5.12124 2.57686 0
M  V30 12682 H 1193.37 -4.97583 3.35457 0
M  V30 12683 H 1194.44 -3.56384 3.28813 0
M  V30 12684 N 1195.78 -0.955326 -1.25345 0
M  V30 12685 C 1197.2 -0.659863 -1.4532 0
M  V30 12686 C 1197.4 0.78238 -1.85691 0
M  V30 12687 O 1196.45 1.5576 -1.98734 0
M  V30 12688 C 1197.77 -1.63339 -2.5247 0
M  V30 12689 C 1199.32 -1.64464 -2.66309 0
M  V30 12690 C 1199.79 -2.60583 -3.76644 0
M  V30 12691 N 1201.28 -2.58951 -3.84055 0
M  V30 12692 C 1202.02 -3.30002 -4.6892 0
M  V30 12693 N 1201.51 -4.10528 -5.58067 0
M  V30 12694 N 1203.31 -3.18886 -4.62891 0
M  V30 12695 H 1195.46 -1.88734 -0.97433 0
M  V30 12696 H 1197.72 -0.811858 -0.48948 0
M  V30 12697 H 1197.43 -2.66358 -2.29665 0
M  V30 12698 H 1197.3 -1.39644 -3.50399 0
M  V30 12699 H 1199.69 -0.621622 -2.88479 0
M  V30 12700 H 1199.77 -1.92218 -1.68778 0
M  V30 12701 H 1199.41 -3.63011 -3.55226 0
M  V30 12702 H 1199.34 -2.30113 -4.73662 0
M  V30 12703 H 1201.83 -2.00491 -3.20331 0
M  V30 12704 H 1202.15 -4.6166 -6.1975 0
M  V30 12705 H 1200.49 -4.14626 -5.57773 0
M  V30 12706 H 1203.68 -2.55447 -3.92255 0
M  V30 12707 H 1203.85 -3.74524 -5.28806 0
M  V30 12708 N 1197.26 1.39987 -0.723979 0
M  V30 12709 C 1198.19 2.3332 -0.0917282 0
M  V30 12710 C 1199.17 1.53335 0.736361 0
M  V30 12711 O 1200.36 1.81771 0.683582 0
M  V30 12712 C 1197.49 3.3737 0.824549 0
M  V30 12713 C 1196.44 4.2788 0.101452 0
M  V30 12714 C 1195.77 5.22536 1.13401 0
M  V30 12715 C 1197.07 5.11649 -1.04939 0
M  V30 12716 H 1198.76 2.86441 -0.871318 0
M  V30 12717 H 1196.31 1.37725 -0.420448 0
M  V30 12718 H 1198.26 4.01607 1.27631 0
M  V30 12719 H 1196.98 2.82663 1.63613 0
M  V30 12720 H 1195.64 3.65107 -0.330569 0
M  V30 12721 H 1195.29 4.64131 1.93886 0
M  V30 12722 H 1194.99 5.83938 0.65502 0
M  V30 12723 H 1196.52 5.89651 1.58569 0
M  V30 12724 H 1197.93 5.69293 -0.6766 0
M  V30 12725 H 1196.33 5.82137 -1.45729 0
M  V30 12726 H 1197.4 4.47132 -1.8762 0
M  V30 12727 N 1198.74 0.470782 1.50404 0
M  V30 12728 C 1200.02 -0.145879 1.95055 0
M  V30 12729 C 1200.4 -1.57004 1.41114 0
M  V30 12730 O 1199.74 -2.20152 0.612006 0
M  V30 12731 C 1199.95 -0.0895071 3.48885 0
M  V30 12732 C 1201.3 -0.278548 4.23685 0
M  V30 12733 O 1202.33 -0.166105 3.55812 0
M  V30 12734 O 1201.19 -0.505606 5.44156 0
M  V30 12735 H 1198.28 -0.111838 0.819403 0
M  V30 12736 H 1200.83 0.531162 1.61173 0
M  V30 12737 H 1199.6 0.904836 3.80695 0
M  V30 12738 H 1199.22 -0.808019 3.89303 0
M  V30 12739 N 1200.22 -1.56282 0.203376 0
M  V30 12740 C 1201.45 -2.01905 -0.437936 0
M  V30 12741 C 1201.86 -1.08263 -1.55164 0
M  V30 12742 O 1201.2 -0.0811746 -1.83521 0
M  V30 12743 C 1201.26 -3.43908 -1.04725 0
M  V30 12744 C 1200.92 -4.56944 -0.0712582 0
M  V30 12745 C 1201.92 -5.14856 0.72243 0
M  V30 12746 C 1199.61 -5.02282 0.0422267 0
M  V30 12747 C 1201.6 -6.16562 1.61649 0
M  V30 12748 C 1199.29 -6.0383 0.939835 0
M  V30 12749 C 1200.29 -6.60844 1.72552 0
M  V30 12750 O 1199.97 -7.60417 2.60808 0
M  V30 12751 H 1199.71 -0.666416 -0.11343 0
M  V30 12752 H 1202.26 -2.03019 0.311833 0
M  V30 12753 H 1200.49 -3.39806 -1.84577 0
M  V30 12754 H 1202.18 -3.73288 -1.59407 0
M  V30 12755 H 1202.94 -4.80691 0.645105 0
M  V30 12756 H 1198.82 -4.57596 -0.559165 0
M  V30 12757 H 1202.37 -6.6099 2.23019 0
M  V30 12758 H 1198.26 -6.37418 1.01824 0
M  V30 12759 H 1199.03 -7.77869 2.54679 0
M  V30 12760 N 1201.7 0.070167 -1.57444 0
M  V30 12761 C 1202.63 1.08351 -2.06839 0
M  V30 12762 C 1203.61 1.40269 -0.962224 0
M  V30 12763 O 1204.79 1.49867 -1.23505 0
M  V30 12764 C 1201.92 2.39649 -2.51368 0
M  V30 12765 C 1200.88 2.22079 -3.65875 0
M  V30 12766 C 1200.2 3.58776 -3.96464 0
M  V30 12767 C 1201.5 1.64069 -4.95862 0
M  V30 12768 H 1203.2 0.672465 -2.9175 0
M  V30 12769 H 1200.74 0.322027 -1.40353 0
M  V30 12770 H 1202.69 3.10833 -2.84537 0
M  V30 12771 H 1201.42 2.82736 -1.63487 0
M  V30 12772 H 1200.08 1.53337 -3.32992 0
M  V30 12773 H 1199.73 3.99436 -3.05712 0
M  V30 12774 H 1199.43 3.47859 -4.7357 0
M  V30 12775 H 1200.95 4.31387 -4.32131 0
M  V30 12776 H 1202.36 2.2512 -5.27251 0
M  V30 12777 H 1200.76 1.63843 -5.773 0
M  V30 12778 H 1201.83 0.60232 -4.81145 0
M  V30 12779 N 1203.17 1.53854 0.341593 0
M  V30 12780 C 1204.42 1.72388 1.07954 0
M  V30 12781 C 1204.77 0.482184 1.8626 0
M  V30 12782 O 1204.07 -0.525232 1.8426 0
M  V30 12783 C 1204.26 2.92844 2.04884 0
M  V30 12784 C 1204.09 4.28609 1.36105 0
M  V30 12785 C 1202.86 4.93068 1.10508 0
M  V30 12786 C 1205.06 5.08254 0.786255 0
M  V30 12787 N 1203.04 6.12702 0.383319 0
M  V30 12788 C 1204.41 6.19693 0.195147 0
M  V30 12789 C 1206.47 4.93134 0.687293 0
M  V30 12790 C 1205.17 7.17661 -0.485298 0
M  V30 12791 C 1207.2 5.91396 0.0205841 0
M  V30 12792 C 1206.56 7.02174 -0.559545 0
M  V30 12793 H 1202.66 0.683826 0.37935 0
M  V30 12794 H 1205.24 1.91288 0.36289 0
M  V30 12795 H 1203.41 2.7544 2.73838 0
M  V30 12796 H 1205.14 3.00088 2.71531 0
M  V30 12797 H 1201.9 4.52659 1.39271 0
M  V30 12798 H 1202.32 6.7699 0.0371033 0
M  V30 12799 H 1206.96 4.07653 1.12155 0
M  V30 12800 H 1204.68 8.02714 -0.931438 0
M  V30 12801 H 1208.27 5.81774 -0.0553832 0
M  V30 12802 H 1207.15 7.76904 -1.06726 0
M  V30 12803 N 1204.65 -0.602709 1.4562 0
M  V30 12804 C 1205.61 -1.69508 1.54271 0
M  V30 12805 C 1206.61 -1.55171 0.421727 0
M  V30 12806 O 1207.8 -1.60151 0.685375 0
M  V30 12807 C 1204.94 -3.0881 1.44392 0
M  V30 12808 H 1206.13 -1.63203 2.51605 0
M  V30 12809 H 1203.68 -0.818857 1.33133 0
M  V30 12810 H 1204.42 -3.20689 0.482614 0
M  V30 12811 H 1204.2 -3.20625 2.25704 0
M  V30 12812 H 1205.69 -3.8837 1.53488 0
M  V30 12813 N 1206.13 -1.32992 -0.845635 0
M  V30 12814 C 1207.09 -1.22607 -1.9365 0
M  V30 12815 C 1208.09 -0.146812 -1.60128 0
M  V30 12816 O 1209.28 -0.397863 -1.69596 0
M  V30 12817 C 1206.41 -0.887677 -3.2914 0
M  V30 12818 H 1207.61 -2.19563 -2.04285 0
M  V30 12819 H 1205.16 -1.16952 -1.03691 0
M  V30 12820 H 1205.9 0.0796777 -3.24202 0
M  V30 12821 H 1205.68 -1.66808 -3.54849 0
M  V30 12822 H 1207.17 -0.83958 -4.09073 0
M  V30 12823 N 1207.61 1.06304 -1.1635 0
M  V30 12824 C 1208.54 2.13732 -0.827721 0
M  V30 12825 C 1209.55 1.61962 0.164983 0
M  V30 12826 O 1210.74 1.784 -0.0597591 0
M  V30 12827 C 1207.84 3.38239 -0.211623 0
M  V30 12828 C 1207.01 4.19325 -1.2444 0
M  V30 12829 C 1206.07 5.22193 -0.648127 0
M  V30 12830 O 1205.1 5.53755 -1.31695 0
M  V30 12831 N 1206.3 5.77742 0.565179 0
M  V30 12832 H 1209.07 2.43136 -1.75228 0
M  V30 12833 H 1206.63 1.22304 -1.06081 0
M  V30 12834 H 1208.62 4.04204 0.200306 0
M  V30 12835 H 1207.19 3.06461 0.616491 0
M  V30 12836 H 1206.41 3.49017 -1.83251 0
M  V30 12837 H 1207.7 4.70306 -1.94138 0
M  V30 12838 H 1207.1 5.54366 1.12673 0
M  V30 12839 H 1205.65 6.45284 0.919321 0
M  V30 12840 N 1209.09 0.96196 1.24836 0
M  V30 12841 C 1210.05 0.492443 2.23847 0
M  V30 12842 C 1211.05 -0.40788 1.55541 0
M  V30 12843 O 1212.24 -0.204143 1.73 0
M  V30 12844 C 1209.37 -0.287578 3.39685 0
M  V30 12845 H 1210.56 1.36767 2.66899 0
M  V30 12846 H 1208.12 0.745967 1.3735 0
M  V30 12847 H 1208.85 -1.18015 3.02064 0
M  V30 12848 H 1208.64 0.358431 3.90458 0
M  V30 12849 H 1210.13 -0.605297 4.1319 0
M  V30 12850 N 1210.56 -1.39601 0.731392 0
M  V30 12851 C 1211.47 -2.34425 0.090527 0
M  V30 12852 C 1212.49 -1.58131 -0.725992 0
M  V30 12853 O 1213.67 -1.90441 -0.655294 0
M  V30 12854 C 1210.73 -3.37138 -0.808624 0
M  V30 12855 C 1209.79 -4.29295 0.0197365 0
M  V30 12856 C 1209.02 -5.27102 -0.836593 0
M  V30 12857 O 1209.25 -5.31302 -2.07543 0
M  V30 12858 O 1208.18 -6.01307 -0.267172 0
M  V30 12859 H 1212.01 -2.9088 0.873084 0
M  V30 12860 H 1209.59 -1.41066 0.492024 0
M  V30 12861 H 1211.47 -4.00087 -1.32319 0
M  V30 12862 H 1210.15 -2.83074 -1.57006 0
M  V30 12863 H 1209.06 -3.69581 0.579744 0
M  V30 12864 H 1210.39 -4.86555 0.743308 0
M  V30 12865 N 1212.04 -0.478751 -1.50152 0
M  V30 12866 C 1212.95 0.316554 -2.32455 0
M  V30 12867 C 1213.97 0.98871 -1.4318 0
M  V30 12868 O 1215.14 0.974998 -1.76226 0
M  V30 12869 C 1212.21 1.3799 -3.18056 0
M  V30 12870 C 1211.27 0.723534 -4.23159 0
M  V30 12871 C 1210.5 1.73621 -5.0467 0
M  V30 12872 O 1210.73 2.96362 -4.87366 0
M  V30 12873 O 1209.66 1.30381 -5.87609 0
M  V30 12874 H 1213.49 -0.356491 -3.016 0
M  V30 12875 H 1211.07 -0.24046 -1.47452 0
M  V30 12876 H 1212.95 1.99565 -3.71149 0
M  V30 12877 H 1211.63 2.03627 -2.5163 0
M  V30 12878 H 1210.54 0.0686296 -3.74037 0
M  V30 12879 H 1211.87 0.109979 -4.92077 0
M  V30 12880 N 1213.52 1.56172 -0.211661 0
M  V30 12881 C 1214.43 2.23468 0.714081 0
M  V30 12882 C 1215.45 1.23908 1.22159 0
M  V30 12883 O 1216.62 1.56693 1.26528 0
M  V30 12884 C 1213.69 2.89375 1.90953 0
M  V30 12885 C 1212.75 4.04251 1.44497 0
M  V30 12886 C 1211.98 4.67006 2.58343 0
M  V30 12887 O 1212.2 4.28721 3.76237 0
M  V30 12888 O 1211.14 5.56177 2.3011 0
M  V30 12889 H 1214.96 3.03219 0.170862 0
M  V30 12890 H 1212.55 1.49389 0.0183607 0
M  V30 12891 H 1214.43 3.3101 2.60787 0
M  V30 12892 H 1213.11 2.12591 2.44104 0
M  V30 12893 H 1212.01 3.67205 0.714932 0
M  V30 12894 H 1213.35 4.82748 0.959947 0
M  V30 12895 N 1215 -0.0618163 1.57479 0
M  V30 12896 C 1216.41 -0.416827 1.54061 0
M  V30 12897 C 1216.61 -1.78584 0.933277 0
M  V30 12898 O 1215.67 -2.46656 0.54009 0
M  V30 12899 C 1216.98 -0.348728 2.98671 0
M  V30 12900 C 1218.53 -0.428194 3.10057 0
M  V30 12901 C 1219.01 -0.389898 4.56337 0
M  V30 12902 N 1220.5 -0.449677 4.61012 0
M  V30 12903 C 1221.23 -0.442418 5.71691 0
M  V30 12904 N 1220.73 -0.389381 6.91705 0
M  V30 12905 N 1222.52 -0.489719 5.59963 0
M  V30 12906 H 1214.67 0.834487 1.9532 0
M  V30 12907 H 1216.94 0.314149 0.894435 0
M  V30 12908 H 1216.64 0.590738 3.46703 0
M  V30 12909 H 1216.52 -1.15511 3.59078 0
M  V30 12910 H 1218.9 -1.35808 2.61992 0
M  V30 12911 H 1218.98 0.406946 2.52542 0
M  V30 12912 H 1218.63 0.536186 5.05062 0
M  V30 12913 H 1218.56 -1.24271 5.11727 0
M  V30 12914 H 1221.05 -0.49451 3.74651 0
M  V30 12915 H 1221.36 -0.388042 7.71825 0
M  V30 12916 H 1219.71 -0.355918 6.94088 0
M  V30 12917 H 1222.9 -0.528915 4.65102 0
M  V30 12918 H 1223.07 -0.480592 6.46215 0
M  V30 12919 N 1216.48 -1.54033 -0.333429 0
M  V30 12920 C 1217.39 -1.85737 -1.43314 0
M  V30 12921 C 1218.4 -0.748398 -1.57083 0
M  V30 12922 O 1219.58 -1.04171 -1.72367 0
M  V30 12923 C 1216.64 -2.06942 -2.78165 0
M  V30 12924 C 1215.7 -3.30774 -2.73655 0
M  V30 12925 C 1214.94 -3.50957 -4.02075 0
M  V30 12926 O 1215.16 -2.74774 -4.99855 0
M  V30 12927 O 1214.09 -4.44412 -4.05933 0
M  V30 12928 H 1217.92 -2.7923 -1.19434 0
M  V30 12929 H 1215.51 -1.39814 -0.526546 0
M  V30 12930 H 1217.39 -2.22276 -3.58011 0
M  V30 12931 H 1216.06 -1.16638 -3.01956 0
M  V30 12932 H 1214.97 -3.20835 -1.92395 0
M  V30 12933 H 1216.3 -4.21103 -2.54819 0
M  V30 12934 N 1217.95 0.594978 -1.45938 0
M  V30 12935 C 1219.23 1.35477 -1.41086 0
M  V30 12936 C 1219.61 2.10917 -0.0879512 0
M  V30 12937 O 1218.96 2.08704 0.930323 0
M  V30 12938 C 1219.17 2.29106 -2.63271 0
M  V30 12939 C 1220.52 2.9132 -3.08898 0
M  V30 12940 O 1221.54 2.39423 -2.63733 0
M  V30 12941 O 1220.4 3.85553 -3.87313 0
M  V30 12942 H 1217.49 0.6081 -0.560485 0
M  V30 12943 H 1220.04 0.617016 -1.58085 0
M  V30 12944 H 1218.81 1.72707 -3.51124 0
M  V30 12945 H 1218.44 3.10241 -2.48669 0
M  V30 12946 N 1219.43 1.33438 0.838571 0
M  V30 12947 C 1220.37 1.18055 1.9529 0
M  V30 12948 C 1221.34 0.075958 1.62422 0
M  V30 12949 O 1222.53 0.23825 1.86988 0
M  V30 12950 C 1219.65 0.810795 3.28852 0
M  V30 12951 C 1218.7 1.92293 3.80691 0
M  V30 12952 S 1219.53 3.53395 4.02334 0
M  V30 12953 C 1220.69 3.18426 5.38846 0
M  V30 12954 H 1220.92 2.12384 2.08039 0
M  V30 12955 H 1218.46 1.18284 0.992385 0
M  V30 12956 H 1220.41 0.604235 4.06029 0
M  V30 12957 H 1219.07 -0.113894 3.13893 0
M  V30 12958 H 1218.27 1.61758 4.77337 0
M  V30 12959 H 1217.87 2.08617 3.10411 0
M  V30 12960 H 1220.16 2.6927 6.21691 0
M  V30 12961 H 1221.1 4.14153 5.74354 0
M  V30 12962 H 1221.51 2.55016 5.03614 0
M  V30 12963 N 1220.91 -1.05686 1.16912 0
M  V30 12964 C 1221.82 -2.16824 0.8958 0
M  V30 12965 C 1222.84 -1.73482 -0.134215 0
M  V30 12966 O 1224.01 -2.01352 0.0438776 0
M  V30 12967 C 1221.08 -3.44298 0.407427 0
M  V30 12968 C 1220.14 -4.02114 1.50342 0
M  V30 12969 C 1219.37 -5.23503 1.03826 0
M  V30 12970 O 1219.59 -5.70295 -0.109579 0
M  V30 12971 O 1218.53 -5.73432 1.8292 0
M  V30 12972 H 1222.35 -2.42725 1.82533 0
M  V30 12973 H 1219.94 -1.15339 0.949589 0
M  V30 12974 H 1221.82 -4.21159 0.142356 0
M  V30 12975 H 1220.5 -3.19908 -0.494009 0
M  V30 12976 H 1219.4 -3.26715 1.82231 0
M  V30 12977 H 1220.74 -4.30811 2.38039 0
M  V30 12978 N 1222.39 -0.968567 -1.24324 0
M  V30 12979 C 1223.34 -0.498817 -2.25345 0
M  V30 12980 C 1224.31 0.456082 -1.59716 0
M  V30 12981 O 1225.49 0.366254 -1.87252 0
M  V30 12982 C 1222.63 0.204027 -3.44496 0
M  V30 12983 C 1221.74 -0.789741 -4.2472 0
M  V30 12984 C 1220.88 -0.0629156 -5.31163 0
M  V30 12985 C 1219.92 -1.04669 -6.03084 0
M  V30 12986 N 1219.05 -0.349812 -7.01228 0
M  V30 12987 H 1223.89 -1.36511 -2.64894 0
M  V30 12988 H 1221.43 -0.684288 -1.30215 0
M  V30 12989 H 1223.39 0.628223 -4.12443 0
M  V30 12990 H 1222.02 1.03426 -3.05782 0
M  V30 12991 H 1221.07 -1.33237 -3.56303 0
M  V30 12992 H 1222.38 -1.53988 -4.74436 0
M  V30 12993 H 1221.54 0.419233 -6.0525 0
M  V30 12994 H 1220.28 0.719915 -4.82357 0
M  V30 12995 H 1219.28 -1.53971 -5.278 0
M  V30 12996 H 1220.51 -1.82998 -6.53979 0
M  V30 12997 H 1218.45 0.414026 -6.54692 0
M  V30 12998 H 1218.37 -1.03881 -7.48829 0
M  V30 12999 H 1219.64 0.11034 -7.79422 0
M  V30 13000 N 1223.87 1.39211 -0.738786 0
M  V30 13001 C 1225.11 2.00733 -0.288817 0
M  V30 13002 C 1225.45 1.58494 1.1222 0
M  V30 13003 O 1224.72 0.815579 1.76575 0
M  V30 13004 C 1225 3.57928 -0.394956 0
M  V30 13005 C 1224.86 4.10174 -1.84601 0
M  V30 13006 C 1226.18 4.39548 0.220395 0
M  V30 13007 H 1223.29 0.729276 -0.106418 0
M  V30 13008 H 1225.94 1.65365 -0.935652 0
M  V30 13009 H 1224.09 3.88188 0.155744 0
M  V30 13010 H 1225.76 3.90618 -2.45388 0
M  V30 13011 H 1224 3.63593 -2.36607 0
M  V30 13012 H 1224.67 5.19305 -1.87152 0
M  V30 13013 H 1227.15 4.15354 -0.249098 0
M  V30 13014 H 1226.02 5.48778 0.115806 0
M  V30 13015 H 1226.29 4.22341 1.30691 0
M  V30 13016 N 1225.34 0.486708 1.49896 0
M  V30 13017 C 1226.29 -0.299294 2.28851 0
M  V30 13018 C 1227.26 -0.973251 1.346 0
M  V30 13019 O 1228.45 -0.982678 1.63548 0
M  V30 13020 C 1225.59 -1.36624 3.16904 0
M  V30 13021 C 1224.7 -0.705492 4.262 0
M  V30 13022 C 1223.83 -1.75165 5.01488 0
M  V30 13023 C 1222.87 -1.072 6.0264 0
M  V30 13024 N 1222.01 -2.06172 6.71147 0
M  V30 13025 H 1226.85 0.380272 2.95564 0
M  V30 13026 H 1224.39 0.199377 1.45743 0
M  V30 13027 H 1226.35 -1.99666 3.66319 0
M  V30 13028 H 1224.98 -2.01476 2.52205 0
M  V30 13029 H 1224.03 0.0378757 3.80381 0
M  V30 13030 H 1225.34 -0.169774 4.98511 0
M  V30 13031 H 1224.49 -2.45749 5.547 0
M  V30 13032 H 1223.23 -2.3212 4.28919 0
M  V30 13033 H 1222.24 -0.351868 5.48673 0
M  V30 13034 H 1223.46 -0.509139 6.77189 0
M  V30 13035 H 1221.41 -2.62115 6.01358 0
M  V30 13036 H 1221.33 -1.57627 7.39385 0
M  V30 13037 H 1222.59 -2.76088 7.28969 0
M  V30 13038 N 1226.82 -1.56058 0.219941 0
M  V30 13039 C 1227.75 -2.2321 -0.685547 0
M  V30 13040 C 1228.73 -1.20328 -1.20229 0
M  V30 13041 O 1229.92 -1.48909 -1.24659 0
M  V30 13042 C 1227.05 -2.91076 -1.89452 0
M  V30 13043 C 1226 -4.00415 -1.51169 0
M  V30 13044 C 1225.33 -4.55569 -2.79931 0
M  V30 13045 C 1226.63 -5.17549 -0.702896 0
M  V30 13046 H 1228.32 -2.99136 -0.125671 0
M  V30 13047 H 1225.87 -1.43879 -0.0590043 0
M  V30 13048 H 1227.82 -3.36744 -2.53341 0
M  V30 13049 H 1226.55 -2.12594 -2.47934 0
M  V30 13050 H 1225.21 -3.55475 -0.896275 0
M  V30 13051 H 1224.85 -3.73819 -3.36553 0
M  V30 13052 H 1224.55 -5.29361 -2.55049 0
M  V30 13053 H 1226.08 -5.03955 -3.44764 0
M  V30 13054 H 1227.49 -5.59608 -1.24544 0
M  V30 13055 H 1225.89 -5.97563 -0.551234 0
M  V30 13056 H 1226.96 -4.84027 0.29083 0
M  V30 13057 N 1228.3 0.053464 -1.57509 0
M  V30 13058 C 1229.58 0.783141 -1.79238 0
M  V30 13059 C 1229.96 1.94855 -0.812069 0
M  V30 13060 O 1229.31 2.28 0.151006 0
M  V30 13061 C 1229.52 1.239 -3.26266 0
M  V30 13062 C 1230.86 1.66492 -3.90596 0
M  V30 13063 O 1231.89 1.33421 -3.30269 0
M  V30 13064 O 1230.75 2.27785 -4.96766 0
M  V30 13065 H 1227.84 0.376696 -0.736226 0
M  V30 13066 H 1230.39 0.0321229 -1.6967 0
M  V30 13067 H 1229.16 0.405948 -3.89189 0
M  V30 13068 H 1228.78 2.05078 -3.4063 0
M  V30 13069 N 1229.78 1.54207 0.325255 0
M  V30 13070 C 1230.73 1.84197 1.42036 0
M  V30 13071 C 1231.72 0.71375 1.53629 0
M  V30 13072 O 1232.93 0.897385 1.56035 0
M  V30 13073 H 1229.3 0.583848 0.473947 0
M  V30 13074 H 1231.27 2.7578 1.13965 0
M  V30 13075 C 1230.02 2.08459 2.78281 0
M  V30 13076 H 1229.35 2.94734 2.70133 0
M  V30 13077 H 1230.79 2.33398 3.5398 0
M  V30 13078 C 1229.24 0.875615 3.25322 0
M  V30 13079 O 1229.77 0.0840387 4.01612 0
M  V30 13080 N 1227.98 0.687721 2.82345 0
M  V30 13081 H 1227.53 1.33307 2.20425 0
M  V30 13082 H 1227.49 -0.119687 3.14172 0
M  V30 13083 N 1231.26 -0.58723 1.46251 0
M  V30 13084 C 1232.67 -0.910129 1.31106 0
M  V30 13085 C 1232.87 -1.99557 0.279141 0
M  V30 13086 O 1231.93 -2.50466 -0.319867 0
M  V30 13087 C 1233.24 -1.33177 2.69601 0
M  V30 13088 C 1234.79 -1.44486 2.77656 0
M  V30 13089 C 1235.27 -1.90018 4.16722 0
M  V30 13090 N 1236.76 -1.97219 4.19117 0
M  V30 13091 C 1237.49 -2.33714 5.23608 0
M  V30 13092 N 1236.99 -2.69034 6.3843 0
M  V30 13093 N 1238.78 -2.3423 5.10972 0
M  V30 13094 H 1230.93 0.12987 2.12003 0
M  V30 13095 H 1233.19 -0.00456718 0.947989 0
M  V30 13096 H 1232.9 -0.608243 3.464 0
M  V30 13097 H 1232.77 -2.29421 2.99409 0
M  V30 13098 H 1235.16 -2.15926 2.01147 0
M  V30 13099 H 1235.24 -0.465047 2.51537 0
M  V30 13100 H 1234.89 -1.19159 4.93724 0
M  V30 13101 H 1234.82 -2.88949 4.40245 0
M  V30 13102 H 1237.31 -1.72431 3.36268 0
M  V30 13103 H 1237.62 -2.95822 7.13939 0
M  V30 13104 H 1235.97 -2.66683 6.41798 0
M  V30 13105 H 1239.16 -2.06056 4.20308 0
M  V30 13106 H 1239.33 -2.62345 5.92519 0
M  V30 13107 N 1232.74 -1.33881 -0.831482 0
M  V30 13108 C 1234.15 -1.13376 -1.1233 0
M  V30 13109 C 1234.35 0.0704402 -2.01377 0
M  V30 13110 O 1233.41 0.748516 -2.4115 0
M  V30 13111 C 1234.72 -2.42484 -1.77826 0
M  V30 13112 C 1236.27 -2.4846 -1.90359 0
M  V30 13113 C 1236.74 -3.77548 -2.59272 0
M  V30 13114 N 1238.23 -3.7866 -2.66778 0
M  V30 13115 C 1238.97 -4.75258 -3.20807 0
M  V30 13116 N 1238.47 -5.82234 -3.75466 0
M  V30 13117 N 1240.26 -4.62724 -3.19128 0
M  V30 13118 H 1232.41 -2.11051 -0.238998 0
M  V30 13119 H 1234.67 -0.932893 -0.168565 0
M  V30 13120 H 1234.38 -3.30647 -1.19857 0
M  V30 13121 H 1234.25 -2.55186 -2.77777 0
M  V30 13122 H 1236.64 -1.60742 -2.47479 0
M  V30 13123 H 1236.72 -2.39693 -0.893359 0
M  V30 13124 H 1236.36 -4.65651 -2.02808 0
M  V30 13125 H 1236.29 -3.83594 -3.60781 0
M  V30 13126 H 1238.79 -3.01351 -2.28026 0
M  V30 13127 H 1239.1 -6.51968 -4.14918 0
M  V30 13128 H 1237.44 -5.85959 -3.73733 0
M  V30 13129 H 1240.63 -3.78303 -2.75688 0
M  V30 13130 H 1240.81 -5.38175 -3.60932 0
M  V30 13131 N 1234.21 1.05064 -1.1747 0
M  V30 13132 C 1235.46 1.77481 -0.958301 0
M  V30 13133 C 1235.78 1.88725 0.51401 0
M  V30 13134 O 1236.98 2.57895 0.848657 0
M  V30 13135 C 1235.44 3.19048 -1.66543 0
M  V30 13136 C 1235.05 3.1593 -3.17636 0
M  V30 13137 C 1236.79 3.95912 -1.53146 0
M  V30 13138 C 1234.7 4.52293 -3.81032 0
M  V30 13139 H 1233.63 0.665247 -0.354913 0
M  V30 13140 H 1236.28 1.17751 -1.40737 0
M  V30 13141 H 1234.66 3.79113 -1.1441 0
M  V30 13142 H 1235.83 2.65375 -3.76713 0
M  V30 13143 H 1234.15 2.52564 -3.31059 0
M  V30 13144 H 1236.75 4.96737 -1.9788 0
M  V30 13145 H 1237.09 4.13498 -0.482203 0
M  V30 13146 H 1237.62 3.42399 -2.02504 0
M  V30 13147 H 1234.36 4.39913 -4.8596 0
M  V30 13148 H 1233.88 5.02991 -3.26741 0
M  V30 13149 H 1235.56 5.2123 -3.83312 0
M  V30 13150 N 1235.69 0.975146 1.23809 0
M  V30 13151 C 1236.62 0.530389 2.27396 0
M  V30 13152 C 1237.6 -0.433763 1.64476 0
M  V30 13153 O 1238.79 -0.32827 1.91405 0
M  V30 13154 C 1235.92 -0.173066 3.46869 0
M  V30 13155 C 1234.87 0.707844 4.22106 0
M  V30 13156 C 1234.2 -0.127527 5.34548 0
M  V30 13157 C 1235.5 1.99609 4.82652 0
M  V30 13158 H 1237.19 1.39622 2.64851 0
M  V30 13159 H 1234.74 0.672802 1.27316 0
M  V30 13160 H 1236.69 -0.495481 4.18477 0
M  V30 13161 H 1235.41 -1.0733 3.0846 0
M  V30 13162 H 1234.07 1.01364 3.52308 0
M  V30 13163 H 1233.72 -1.02814 4.9238 0
M  V30 13164 H 1233.42 0.458728 5.85807 0
M  V30 13165 H 1234.95 -0.444443 6.0898 0
M  V30 13166 H 1236.36 1.73878 5.46296 0
M  V30 13167 H 1234.76 2.52969 5.44175 0
M  V30 13168 H 1235.83 2.68629 4.03691 0
M  V30 13169 N 1237.17 -1.38817 0.746158 0
M  V30 13170 C 1238.42 -2.0028 0.299016 0
M  V30 13171 C 1238.74 -1.59221 -1.11709 0
M  V30 13172 O 1238 -0.817595 -1.77803 0
M  V30 13173 C 1238.3 -3.55571 0.361086 0
M  V30 13174 C 1237.96 -4.16317 1.73179 0
M  V30 13175 C 1236.63 -4.32622 2.10693 0
M  V30 13176 C 1238.98 -4.49905 2.63126 0
M  V30 13177 C 1236.31 -4.79808 3.3764 0
M  V30 13178 C 1238.66 -4.98504 3.89457 0
M  V30 13179 C 1237.32 -5.13016 4.27049 0
M  V30 13180 H 1236.59 -0.732877 0.109418 0
M  V30 13181 H 1239.24 -1.65977 0.955186 0
M  V30 13182 H 1237.54 -3.89966 -0.378655 0
M  V30 13183 H 1239.24 -4.01 -0.00319228 0
M  V30 13184 H 1235.83 -4.04035 1.43015 0
M  V30 13185 H 1240.02 -4.36916 2.3541 0
M  V30 13186 H 1235.27 -4.89229 3.66695 0
M  V30 13187 H 1239.45 -5.23464 4.59302 0
M  V30 13188 H 1237.07 -5.4934 5.25481 0
M  V30 13189 N 1238.65 -0.49465 -1.49636 0
M  V30 13190 C 1239.6 0.300929 -2.30645 0
M  V30 13191 C 1240.59 0.968687 -1.38971 0
M  V30 13192 O 1241.8 0.897101 -1.56052 0
M  V30 13193 H 1238.17 0.1159 -0.743015 0
M  V30 13194 H 1240.14 -0.402387 -2.95674 0
M  V30 13195 C 1238.89 1.35638 -3.20153 0
M  V30 13196 H 1238.21 0.851946 -3.90617 0
M  V30 13197 H 1239.65 1.88515 -3.79787 0
M  V30 13198 C 1238.11 2.37112 -2.39331 0
M  V30 13199 O 1238.64 3.42867 -2.09298 0
M  V30 13200 N 1236.85 2.09421 -2.01473 0
M  V30 13201 H 1236.4 1.23441 -2.26097 0
M  V30 13202 H 1236.35 2.77545 -1.47703 0
M  V30 13203 N 1240.13 1.55939 -0.228214 0
M  V30 13204 C 1241.06 2.2357 0.6737 0
M  V30 13205 C 1242.04 1.20964 1.1959 0
M  V30 13206 O 1243.22 1.49568 1.23867 0
M  V30 13207 C 1240.35 2.92076 1.87906 0
M  V30 13208 C 1239.31 4.01211 1.49043 0
M  V30 13209 C 1238.63 4.57047 2.77511 0
M  V30 13210 C 1239.93 5.17914 0.67544 0
M  V30 13211 H 1241.63 2.99199 0.109806 0
M  V30 13212 H 1239.17 1.43908 0.0513732 0
M  V30 13213 H 1241.12 3.38083 2.51551 0
M  V30 13214 H 1239.85 2.13906 2.46803 0
M  V30 13215 H 1238.51 3.55945 0.877411 0
M  V30 13216 H 1238.16 3.75599 3.34566 0
M  V30 13217 H 1237.86 5.30707 2.52239 0
M  V30 13218 H 1239.38 5.05776 3.42087 0
M  V30 13219 H 1240.79 5.60261 1.21575 0
M  V30 13220 H 1239.19 5.97847 0.519536 0
M  V30 13221 H 1240.26 4.83866 -0.316495 0
M  V30 13222 N 1241.6 -0.0451101 1.57535 0
M  V30 13223 C 1242.53 -1.05046 2.08537 0
M  V30 13224 C 1243.52 -1.3872 0.984418 0
M  V30 13225 O 1244.7 -1.47884 1.25873 0
M  V30 13226 C 1241.83 -2.3562 2.55148 0
M  V30 13227 C 1240.78 -2.16231 3.69362 0
M  V30 13228 C 1240.11 -3.52423 4.02122 0
M  V30 13229 C 1241.41 -1.56159 4.98409 0
M  V30 13230 H 1243.1 -0.625965 2.92783 0
M  V30 13231 H 1240.65 -0.299657 1.40848 0
M  V30 13232 H 1242.6 -3.06266 2.89446 0
M  V30 13233 H 1241.33 -2.80099 1.67964 0
M  V30 13234 H 1239.99 -1.4802 3.35389 0
M  V30 13235 H 1239.63 -3.94522 3.12028 0
M  V30 13236 H 1239.33 -3.4028 4.79044 0
M  V30 13237 H 1240.86 -4.24458 4.38939 0
M  V30 13238 H 1242.27 -2.16703 5.30766 0
M  V30 13239 H 1240.67 -1.54638 5.79834 0
M  V30 13240 H 1241.74 -0.525698 4.82042 0
M  V30 13241 N 1243.08 -1.54377 -0.317073 0
M  V30 13242 C 1244.49 -1.64062 -0.891105 0
M  V30 13243 C 1244.84 -0.538863 -1.88655 0
M  V30 13244 O 1243.97 0.32718 -2.13912 0
M  V30 13245 C 1244.56 -2.97395 -1.62302 0
M  V30 13246 C 1243.12 -3.09253 -2.14568 0
M  V30 13247 C 1242.27 -2.59664 -0.973146 0
M  V30 13248 H 1245.22 -1.58418 -0.0944829 0
M  V30 13249 H 1245.24 -2.87918 -2.48764 0
M  V30 13250 H 1244.75 -3.77562 -0.898268 0
M  V30 13251 H 1242.86 -2.33774 -2.90139 0
M  V30 13252 H 1242.97 -4.15159 -2.39123 0
M  V30 13253 H 1241.33 -2.15719 -1.35416 0
M  V30 13254 H 1242.12 -3.42294 -0.262611 0
M  V30 13255 N 1244.56 0.579466 -1.4656 0
M  V30 13256 C 1245.52 1.67033 -1.56948 0
M  V30 13257 C 1246.52 1.54481 -0.446361 0
M  V30 13258 O 1247.71 1.5904 -0.710767 0
M  V30 13259 C 1244.85 3.06474 -1.49286 0
M  V30 13260 H 1246.04 1.59179 -2.54169 0
M  V30 13261 H 1243.59 0.797573 -1.34419 0
M  V30 13262 H 1244.33 3.1988 -0.533572 0
M  V30 13263 H 1244.11 3.16993 -2.30776 0
M  V30 13264 H 1245.6 3.85879 -1.59648 0
M  V30 13265 N 1246.04 1.3432 0.824371 0
M  V30 13266 C 1246.99 1.22332 1.92403 0
M  V30 13267 C 1247.97 0.122709 1.60431 0
M  V30 13268 O 1249.16 0.352231 1.7346 0
M  V30 13269 C 1246.29 0.979497 3.2903 0
M  V30 13270 C 1245.38 2.12322 3.67124 0
M  V30 13271 N 1245.77 3.3743 3.76795 0
M  V30 13272 C 1244.07 2.03314 3.96963 0
M  V30 13273 C 1244.77 4.12532 4.10113 0
M  V30 13274 N 1243.75 3.41109 4.23256 0
M  V30 13275 H 1247.55 2.17143 1.98056 0
M  V30 13276 H 1245.06 1.26537 1.01795 0
M  V30 13277 H 1247.06 0.874525 4.07624 0
M  V30 13278 H 1245.72 0.0400611 3.24675 0
M  V30 13279 H 1246.73 3.72001 3.60327 0
M  V30 13280 H 1243.41 1.17118 4.00736 0
M  V30 13281 H 1244.8 5.20562 4.24811 0
M  V30 13282 N 1247.52 -1.0444 1.18026 0
M  V30 13283 C 1248.76 -1.77838 0.974756 0
M  V30 13284 C 1249.1 -1.87792 -0.494755 0
M  V30 13285 O 1248.37 -1.38327 -1.36733 0
M  V30 13286 C 1248.65 -3.21315 1.62569 0
M  V30 13287 C 1248.51 -3.19327 3.16781 0
M  V30 13288 C 1249.83 -4.19337 1.33583 0
M  V30 13289 H 1246.94 -0.645575 0.35553 0
M  V30 13290 H 1249.59 -1.22023 1.45638 0
M  V30 13291 H 1247.74 -3.68974 1.21617 0
M  V30 13292 H 1249.41 -2.79687 3.66842 0
M  V30 13293 H 1247.65 -2.57461 3.49137 0
M  V30 13294 H 1248.32 -4.20626 3.5746 0
M  V30 13295 H 1250.8 -3.80208 1.69059 0
M  V30 13296 H 1249.67 -5.17953 1.81702 0
M  V30 13297 H 1249.94 -4.41346 0.258016 0
M  V30 13298 N 1248.99 -0.981699 -1.2329 0
M  V30 13299 C 1249.96 -0.527992 -2.23036 0
M  V30 13300 C 1250.96 0.383083 -1.5617 0
M  V30 13301 O 1252.15 0.176595 -1.73303 0
M  V30 13302 C 1249.28 0.233501 -3.40099 0
M  V30 13303 H 1250.47 -1.40995 -2.64689 0
M  V30 13304 H 1248.03 -0.767724 -1.36146 0
M  V30 13305 H 1248.76 1.13194 -3.03904 0
M  V30 13306 H 1248.55 -0.420505 -3.89839 0
M  V30 13307 H 1250.04 0.539485 -4.14101 0
M  V30 13308 N 1250.47 1.3842 -0.753509 0
M  V30 13309 C 1251.4 2.29039 -0.0859463 0
M  V30 13310 C 1252.42 1.47742 0.68383 0
M  V30 13311 O 1253.61 1.70607 0.524933 0
M  V30 13312 C 1250.71 3.26668 0.902296 0
M  V30 13313 C 1249.88 4.36986 0.190178 0
M  V30 13314 C 1248.94 5.14805 1.08916 0
M  V30 13315 O 1247.96 5.66441 0.559715 0
M  V30 13316 N 1249.17 5.27777 2.41726 0
M  V30 13317 H 1251.93 2.8697 -0.864196 0
M  V30 13318 H 1249.49 1.502 -0.604288 0
M  V30 13319 H 1251.48 3.75606 1.50672 0
M  V30 13320 H 1250.05 2.69636 1.58163 0
M  V30 13321 H 1249.27 3.89684 -0.594959 0
M  V30 13322 H 1250.56 5.07899 -0.302594 0
M  V30 13323 H 1249.96 4.87376 2.87196 0
M  V30 13324 H 1248.52 5.8009 2.97219 0
M  V30 13325 N 1251.95 0.502579 1.49372 0
M  V30 13326 C 1252.9 -0.294292 2.26093 0
M  V30 13327 C 1253.88 -0.934147 1.31006 0
M  V30 13328 O 1255.08 -0.841486 1.55718 0
M  V30 13329 C 1252.21 -1.3572 3.15333 0
M  V30 13330 C 1251.29 -0.723506 4.17883 0
M  V30 13331 N 1251.68 0.174787 5.05498 0
M  V30 13332 C 1249.98 -0.983906 4.35012 0
M  V30 13333 C 1250.68 0.537673 5.7921 0
M  V30 13334 N 1249.66 -0.0947799 5.43517 0
M  V30 13335 H 1253.46 0.397202 2.91204 0
M  V30 13336 H 1250.97 0.31876 1.59241 0
M  V30 13337 H 1252.97 -1.94154 3.6893 0
M  V30 13338 H 1251.63 -2.05036 2.51775 0
M  V30 13339 H 1252.64 0.545699 5.15017 0
M  V30 13340 H 1249.32 -1.66969 3.82658 0
M  V30 13341 H 1250.71 1.27266 6.59737 0
M  V30 13342 N 1253.43 -1.55816 0.23648 0
M  V30 13343 C 1254.68 -1.98686 -0.391146 0
M  V30 13344 C 1255 -1.12443 -1.58703 0
M  V30 13345 O 1254.26 -0.172805 -1.94936 0
M  V30 13346 C 1254.56 -3.47039 -0.85434 0
M  V30 13347 C 1254.22 -4.50299 0.232651 0
M  V30 13348 C 1252.89 -4.78259 0.531218 0
M  V30 13349 C 1255.24 -5.1215 0.967027 0
M  V30 13350 C 1252.57 -5.65347 1.56842 0
M  V30 13351 C 1254.92 -6.00363 1.99367 0
M  V30 13352 C 1253.58 -6.2666 2.299 0
M  V30 13353 H 1252.85 -0.727045 -0.14313 0
M  V30 13354 H 1255.5 -1.88419 0.342125 0
M  V30 13355 H 1253.8 -3.54585 -1.66663 0
M  V30 13356 H 1255.5 -3.7759 -1.35005 0
M  V30 13357 H 1252.09 -4.28599 -0.0102014 0
M  V30 13358 H 1256.27 -4.90606 0.749609 0
M  V30 13359 H 1251.53 -5.83981 1.81043 0
M  V30 13360 H 1255.7 -6.47335 2.56769 0
M  V30 13361 H 1253.33 -6.93938 3.1041 0
M  V30 13362 N 1254.91 0.036755 -1.57557 0
M  V30 13363 C 1255.84 1.03939 -2.09091 0
M  V30 13364 C 1256.82 1.38196 -0.991761 0
M  V30 13365 O 1258 1.47214 -1.26656 0
M  V30 13366 C 1255.13 2.34263 -2.56394 0
M  V30 13367 C 1254.09 2.14269 -3.70504 0
M  V30 13368 C 1253.41 3.50286 -4.03985 0
M  V30 13369 C 1254.71 1.53514 -4.9923 0
M  V30 13370 H 1256.41 0.610429 -2.93111 0
M  V30 13371 H 1253.95 0.292183 -1.41005 0
M  V30 13372 H 1255.91 3.04727 -2.91066 0
M  V30 13373 H 1254.63 2.79205 -1.69447 0
M  V30 13374 H 1253.29 1.46239 -3.36169 0
M  V30 13375 H 1252.94 3.92861 -3.14116 0
M  V30 13376 H 1252.64 3.37735 -4.80842 0
M  V30 13377 H 1254.16 4.22124 -4.41184 0
M  V30 13378 H 1255.57 2.13885 -5.31908 0
M  V30 13379 H 1253.97 1.51561 -5.80646 0
M  V30 13380 H 1255.04 0.500126 -4.82314 0
M  V30 13381 N 1256.39 1.54543 0.308881 0
M  V30 13382 C 1257.32 1.79818 1.40502 0
M  V30 13383 C 1258.3 0.648927 1.4909 0
M  V30 13384 O 1259.48 0.888009 1.66273 0
M  V30 13385 C 1256.61 1.92787 2.7848 0
M  V30 13386 C 1255.65 3.15167 2.87353 0
M  V30 13387 S 1256.49 4.73427 2.50255 0
M  V30 13388 C 1257.64 4.89321 3.90276 0
M  V30 13389 H 1257.88 2.7251 1.18852 0
M  V30 13390 H 1255.41 1.45854 0.506551 0
M  V30 13391 H 1257.37 2.00944 3.57955 0
M  V30 13392 H 1256.03 1.01047 2.97403 0
M  V30 13393 H 1255.22 3.2102 3.88538 0
M  V30 13394 H 1254.82 3.05416 2.15864 0
M  V30 13395 H 1257.11 4.7286 4.8519 0
M  V30 13396 H 1258.06 5.91418 3.89398 0
M  V30 13397 H 1258.47 4.17524 3.79913 0
M  V30 13398 N 1257.86 -0.571685 1.46866 0
M  V30 13399 C 1259.09 -1.36008 1.56578 0
M  V30 13400 C 1259.51 -1.86909 0.211326 0
M  V30 13401 O 1258.87 -1.62179 -0.810421 0
M  V30 13402 C 1258.92 -2.51598 2.58323 0
M  V30 13403 O 1258.02 -3.53383 2.1259 0
M  V30 13404 H 1257.36 -0.404593 0.526498 0
M  V30 13405 H 1259.89 -0.692357 1.92529 0
M  V30 13406 H 1259.9 -2.98366 2.78283 0
M  V30 13407 H 1258.58 -2.13904 3.56676 0
M  V30 13408 H 1257.16 -3.13019 2.02666 0
M  V30 13409 N 1259.34 -1.34755 -0.817236 0
M  V30 13410 C 1260.29 -1.26816 -1.94988 0
M  V30 13411 C 1261.28 -0.165142 -1.68593 0
M  V30 13412 O 1262.49 -0.330469 -1.7694 0
M  V30 13413 H 1258.86 -0.394113 -0.640452 0
M  V30 13414 H 1260.84 -2.22528 -1.98806 0
M  V30 13415 C 1259.58 -1.04625 -3.31586 0
M  V30 13416 H 1258.91 -1.88735 -3.52447 0
M  V30 13417 H 1260.35 -1.03108 -4.11272 0
M  V30 13418 C 1258.81 0.250283 -3.35969 0
M  V30 13419 O 1259.34 1.24972 -3.81765 0
M  V30 13420 N 1257.54 0.285369 -2.89195 0
M  V30 13421 H 1257.09 -0.528528 -2.5212 0
M  V30 13422 H 1257.05 1.15261 -2.9251 0
M  V30 13423 N 1260.82 1.03812 -1.18578 0
M  V30 13424 C 1262.23 1.58509 -0.986496 0
M  V30 13425 C 1262.58 1.90655 0.463136 0
M  V30 13426 O 1261.71 1.69847 1.34093 0
M  V30 13427 C 1262.3 2.88 -1.78441 0
M  V30 13428 C 1260.86 3.39304 -1.6294 0
M  V30 13429 C 1260.01 2.12857 -1.77727 0
M  V30 13430 H 1262.96 0.864528 -1.33085 0
M  V30 13431 H 1262.98 3.58502 -1.27501 0
M  V30 13432 H 1262.49 2.64572 -2.83942 0
M  V30 13433 H 1260.59 3.6774 -0.599864 0
M  V30 13434 H 1260.71 4.12959 -2.42902 0
M  V30 13435 H 1259.07 2.24285 -1.20699 0
M  V30 13436 H 1259.85 1.91882 -2.84669 0
M  V30 13437 N 1262.3 0.988223 1.22768 0
M  V30 13438 C 1263.71 0.69816 1.4352 0
M  V30 13439 C 1263.91 -0.732872 1.877 0
M  V30 13440 O 1262.97 -1.50436 2.02793 0
M  V30 13441 C 1264.28 1.69975 2.4805 0
M  V30 13442 C 1265.83 1.71467 2.61855 0
M  V30 13443 C 1266.31 2.70477 3.69603 0
M  V30 13444 N 1267.8 2.69043 3.77055 0
M  V30 13445 C 1268.53 3.42319 4.60006 0
M  V30 13446 N 1268.03 4.2518 5.46986 0
M  V30 13447 N 1269.82 3.31047 4.54274 0
M  V30 13448 H 1261.97 1.91251 0.923948 0
M  V30 13449 H 1264.23 0.82455 0.467783 0
M  V30 13450 H 1263.94 2.72354 2.22523 0
M  V30 13451 H 1263.81 1.48885 3.46573 0
M  V30 13452 H 1266.2 0.697889 2.86729 0
M  V30 13453 H 1266.28 1.96625 1.63622 0
M  V30 13454 H 1265.93 3.72302 3.45476 0
M  V30 13455 H 1265.86 2.42591 4.67394 0
M  V30 13456 H 1268.35 2.08914 3.14902 0
M  V30 13457 H 1268.66 4.77929 6.07292 0
M  V30 13458 H 1267.01 4.29268 5.46584 0
M  V30 13459 H 1270.2 2.65758 3.85345 0
M  V30 13460 H 1270.37 3.88413 5.1869 0
M  V30 13461 N 1263.78 -1.38018 0.760839 0
M  V30 13462 C 1264.72 -2.32251 0.127425 0
M  V30 13463 C 1265.72 -1.54387 -0.69722 0
M  V30 13464 O 1266.92 -1.69864 -0.595505 0
M  V30 13465 H 1263.3 -0.751666 0.0224141 0
M  V30 13466 H 1265.27 -2.8327 0.93813 0
M  V30 13467 C 1264.02 -3.39606 -0.745849 0
M  V30 13468 H 1263.34 -3.99618 -0.120679 0
M  V30 13469 H 1264.78 -4.07931 -1.15621 0
M  V30 13470 C 1263.24 -2.78778 -1.89167 0
M  V30 13471 O 1263.77 -2.68661 -2.98637 0
M  V30 13472 N 1261.98 -2.36481 -1.68894 0
M  V30 13473 H 1261.52 -2.4491 -0.798551 0
M  V30 13474 H 1261.48 -1.96126 -2.45728 0
M  V30 13475 N 1265.25 -0.510493 -1.49103 0
M  V30 13476 C 1266.19 0.309697 -2.26089 0
M  V30 13477 C 1267.16 0.962061 -1.31084 0
M  V30 13478 O 1268.35 0.990296 -1.60391 0
M  V30 13479 C 1265.48 1.43693 -3.06708 0
M  V30 13480 C 1264.52 0.897978 -4.1694 0
M  V30 13481 S 1265.35 -0.218781 -5.35053 0
M  V30 13482 C 1266.51 0.911396 -6.19229 0
M  V30 13483 H 1266.74 -0.343702 -2.95307 0
M  V30 13484 H 1264.28 -0.295944 -1.51537 0
M  V30 13485 H 1266.23 2.08277 -3.53739 0
M  V30 13486 H 1264.9 2.06198 -2.36941 0
M  V30 13487 H 1264.09 1.74303 -4.729 0
M  V30 13488 H 1263.69 0.329192 -3.72548 0
M  V30 13489 H 1265.98 1.8145 -6.5275 0
M  V30 13490 H 1266.93 0.390201 -7.07024 0
M  V30 13491 H 1267.33 1.18301 -5.51965 0
M  V30 13492 N 1266.73 1.55688 -0.24474 0
M  V30 13493 C 1268.01 1.90796 0.430821 0
M  V30 13494 C 1268.39 1.1652 1.76029 0
M  V30 13495 O 1267.74 0.281978 2.26753 0
M  V30 13496 C 1267.95 3.43786 0.601027 0
M  V30 13497 C 1269.29 4.14998 0.897894 0
M  V30 13498 O 1270.32 3.49513 0.68697 0
M  V30 13499 O 1269.18 5.30826 1.29945 0
M  V30 13500 H 1266.27 0.794086 0.230991 0
M  V30 13501 H 1268.82 1.67227 -0.288646 0
M  V30 13502 H 1267.59 3.89856 -0.335804 0
M  V30 13503 H 1267.21 3.73211 1.37112 0
M  V30 13504 N 1268.21 -0.0283989 1.57574 0
M  V30 13505 C 1269.14 -1.02828 2.09639 0
M  V30 13506 C 1270.12 -1.37668 0.999076 0
M  V30 13507 O 1271.31 -1.4654 1.27435 0
M  V30 13508 C 1268.44 -2.329 2.57633 0
M  V30 13509 C 1267.39 -2.12301 3.71635 0
M  V30 13510 C 1266.72 -3.48138 4.05837 0
M  V30 13511 C 1268.02 -1.50864 5.00037 0
M  V30 13512 H 1269.71 -0.594876 2.93431 0
M  V30 13513 H 1267.26 -0.284701 1.41158 0
M  V30 13514 H 1269.21 -3.03179 2.92678 0
M  V30 13515 H 1267.93 -2.78302 1.70926 0
M  V30 13516 H 1266.59 -1.44454 3.3694 0
M  V30 13517 H 1266.24 -3.9119 3.16195 0
M  V30 13518 H 1265.94 -3.3518 4.82626 0
M  V30 13519 H 1267.46 -4.19779 4.43417 0
M  V30 13520 H 1268.88 -2.11062 5.33035 0
M  V30 13521 H 1267.27 -1.48479 5.81441 0
M  V30 13522 H 1268.34 -0.474541 4.82572 0
M  V30 13523 N 1269.69 -1.54705 -0.300681 0
M  V30 13524 C 1270.92 -1.77735 -1.05327 0
M  V30 13525 C 1271.33 -0.53709 -1.81417 0
M  V30 13526 O 1270.67 0.502663 -1.76689 0
M  V30 13527 C 1270.73 -2.93222 -2.07993 0
M  V30 13528 C 1270.39 -4.313 -1.51095 0
M  V30 13529 C 1271.39 -5.11317 -0.94082 0
M  V30 13530 C 1269.08 -4.77901 -1.54648 0
M  V30 13531 C 1271.07 -6.36055 -0.413791 0
M  V30 13532 C 1268.76 -6.02602 -1.01558 0
M  V30 13533 C 1269.76 -6.81515 -0.450209 0
M  V30 13534 O 1269.44 -8.03867 0.0726375 0
M  V30 13535 H 1269.18 -0.596468 -0.318122 0
M  V30 13536 H 1271.73 -2.02475 -0.345404 0
M  V30 13537 H 1269.96 -2.64108 -2.82461 0
M  V30 13538 H 1271.65 -3.03826 -2.69156 0
M  V30 13539 H 1272.41 -4.76458 -0.906268 0
M  V30 13540 H 1268.29 -4.16507 -1.97594 0
M  V30 13541 H 1271.84 -6.97594 0.0281534 0
M  V30 13542 H 1267.73 -6.36948 -1.04728 0
M  V30 13543 H 1268.5 -8.1849 -0.0406321 0
M  V30 13544 N 1271.17 0.563888 -1.47167 0
M  V30 13545 C 1272.4 1.34498 -1.56825 0
M  V30 13546 C 1272.8 1.87974 -0.215011 0
M  V30 13547 O 1272.15 1.65323 0.80087 0
M  V30 13548 C 1272.21 2.55602 -2.528 0
M  V30 13549 C 1271.87 2.23459 -3.98642 0
M  V30 13550 C 1272.87 1.81155 -4.87318 0
M  V30 13551 C 1270.56 2.35024 -4.43925 0
M  V30 13552 C 1272.55 1.50835 -6.19296 0
M  V30 13553 C 1270.24 2.04317 -5.75932 0
M  V30 13554 C 1271.23 1.6229 -6.63439 0
M  V30 13555 O 1270.92 1.31969 -7.92994 0
M  V30 13556 H 1270.65 0.416551 -0.532411 0
M  V30 13557 H 1273.21 0.690611 -1.93442 0
M  V30 13558 H 1271.44 3.23907 -2.11237 0
M  V30 13559 H 1273.13 3.17677 -2.52659 0
M  V30 13560 H 1273.89 1.71719 -4.53583 0
M  V30 13561 H 1269.77 2.66696 -3.76024 0
M  V30 13562 H 1273.32 1.17958 -6.87555 0
M  V30 13563 H 1269.21 2.13383 -6.09211 0
M  V30 13564 H 1269.98 1.45656 -8.05436 0
M  V30 13565 N 1272.64 1.35187 0.810078 0
M  V30 13566 C 1273.58 1.23673 1.92971 0
M  V30 13567 C 1274.59 0.160819 1.62004 0
M  V30 13568 O 1275.78 0.413793 1.73638 0
M  V30 13569 C 1272.88 0.880887 3.27252 0
M  V30 13570 C 1272.05 2.05444 3.86149 0
M  V30 13571 C 1271.11 1.67494 4.98831 0
M  V30 13572 O 1270.14 2.39322 5.16443 0
M  V30 13573 N 1271.34 0.596539 5.77427 0
M  V30 13574 H 1274.1 2.20133 2.03376 0
M  V30 13575 H 1271.66 1.2831 0.987322 0
M  V30 13576 H 1273.66 0.608556 4.00098 0
M  V30 13577 H 1272.23 0.00607926 3.12599 0
M  V30 13578 H 1271.45 2.49077 3.05539 0
M  V30 13579 H 1272.73 2.83898 4.22231 0
M  V30 13580 H 1272.13 -0.000312591 5.657 0
M  V30 13581 H 1270.69 0.383979 6.50668 0
M  V30 13582 N 1274.12 -1.03182 1.19127 0
M  V30 13583 C 1275.35 -1.80703 1.01791 0
M  V30 13584 C 1275.77 -1.83147 -0.428824 0
M  V30 13585 O 1275.13 -1.2553 -1.30812 0
M  V30 13586 C 1275.18 -3.23754 1.58794 0
M  V30 13587 O 1274.28 -4.04261 0.815274 0
M  V30 13588 H 1273.62 -0.557944 0.359992 0
M  V30 13589 H 1276.15 -1.29887 1.58084 0
M  V30 13590 H 1276.16 -3.7451 1.61884 0
M  V30 13591 H 1274.84 -3.2129 2.64094 0
M  V30 13592 H 1273.42 -3.62909 0.857392 0
M  V30 13593 N 1275.6 -0.99472 -1.22242 0
M  V30 13594 C 1276.83 -0.689096 -1.94769 0
M  V30 13595 C 1277.24 0.750597 -1.73674 0
M  V30 13596 O 1276.58 1.51836 -1.03399 0
M  V30 13597 C 1276.64 -0.917454 -3.47596 0
M  V30 13598 C 1276.31 -2.34198 -3.92429 0
M  V30 13599 C 1277.3 -3.3216 -3.99957 0
M  V30 13600 C 1274.99 -2.6769 -4.25026 0
M  V30 13601 C 1276.98 -4.61686 -4.3946 0
M  V30 13602 C 1274.67 -3.97435 -4.64208 0
M  V30 13603 C 1275.67 -4.94244 -4.71394 0
M  V30 13604 O 1275.36 -6.2167 -5.09688 0
M  V30 13605 H 1275.09 -0.253914 -0.626501 0
M  V30 13606 H 1277.64 -1.33271 -1.56294 0
M  V30 13607 H 1275.87 -0.21666 -3.86093 0
M  V30 13608 H 1277.56 -0.6068 -4.01339 0
M  V30 13609 H 1278.33 -3.07619 -3.74961 0
M  V30 13610 H 1274.21 -1.93039 -4.18637 0
M  V30 13611 H 1277.75 -5.37248 -4.44983 0
M  V30 13612 H 1273.65 -4.21765 -4.88656 0
M  V30 13613 H 1274.42 -6.25634 -5.27755 0
M  V30 13614 N 1277.08 1.37613 -0.768148 0
M  V30 13615 C 1278.3 2.04579 -0.340892 0
M  V30 13616 C 1278.73 1.57556 1.02751 0
M  V30 13617 O 1278.09 0.734151 1.65771 0
M  V30 13618 C 1278.13 3.58495 -0.389099 0
M  V30 13619 O 1277.24 4.07838 0.611741 0
M  V30 13620 H 1276.58 0.647246 -0.148216 0
M  V30 13621 H 1279.11 1.75999 -1.04333 0
M  V30 13622 H 1279.12 4.07263 -0.245116 0
M  V30 13623 H 1277.79 3.92076 -1.38742 0
M  V30 13624 H 1276.37 3.70399 0.431173 0
M  V30 13625 N 1278.56 0.518393 1.4883 0
M  V30 13626 C 1279.49 -0.287642 2.27388 0
M  V30 13627 C 1280.5 -0.914974 1.34655 0
M  V30 13628 O 1281.69 -0.795373 1.598 0
M  V30 13629 C 1278.79 -1.42149 3.07647 0
M  V30 13630 C 1277.96 -0.898238 4.28078 0
M  V30 13631 C 1277.02 -1.91179 4.90242 0
M  V30 13632 O 1276.05 -1.47337 5.498 0
M  V30 13633 N 1277.25 -3.24331 4.81445 0
M  V30 13634 H 1280.02 0.386047 2.97203 0
M  V30 13635 H 1277.58 0.352002 1.58027 0
M  V30 13636 H 1279.57 -2.09745 3.46106 0
M  V30 13637 H 1278.14 -1.99903 2.40328 0
M  V30 13638 H 1277.36 -0.0466326 3.94172 0
M  V30 13639 H 1278.65 -0.527338 5.0606 0
M  V30 13640 H 1278.04 -3.62627 4.34187 0
M  V30 13641 H 1276.6 -3.87593 5.24037 0
M  V30 13642 N 1280.03 -1.55556 0.252993 0
M  V30 13643 C 1281.28 -1.99385 -0.370599 0
M  V30 13644 C 1281.61 -1.14101 -1.57145 0
M  V30 13645 O 1280.89 -0.205828 -1.93408 0
M  V30 13646 C 1281.17 -3.51672 -0.774503 0
M  V30 13647 C 1281.02 -4.47719 0.432159 0
M  V30 13648 C 1282.34 -4.0923 -1.61923 0
M  V30 13649 H 1279.46 -0.724858 -0.133231 0
M  V30 13650 H 1282.1 -1.86644 0.355522 0
M  V30 13651 H 1280.25 -3.62661 -1.39318 0
M  V30 13652 H 1281.93 -4.48704 1.07063 0
M  V30 13653 H 1280.17 -4.2029 1.07419 0
M  V30 13654 H 1280.84 -5.51898 0.106123 0
M  V30 13655 H 1283.32 -4.01381 -1.09693 0
M  V30 13656 H 1282.19 -5.16039 -1.87068 0
M  V30 13657 H 1282.45 -3.58067 -2.59307 0
M  V30 13658 N 1281.51 0.0200419 -1.57587 0
M  V30 13659 C 1282.76 0.707627 -1.89307 0
M  V30 13660 C 1283.08 1.7541 -0.851831 0
M  V30 13661 O 1282.35 1.95571 0.113404 0
M  V30 13662 H 1280.93 0.264349 -0.698662 0
M  V30 13663 H 1283.59 -0.0161428 -1.94893 0
M  V30 13664 H 1282.69 1.19152 -2.8846 0
M  V30 13665 N 1282.99 1.54862 0.292472 0
M  V30 13666 C 1284.24 1.74807 1.02813 0
M  V30 13667 C 1284.57 0.536935 1.8663 0
M  V30 13668 O 1283.84 -0.465854 1.88839 0
M  V30 13669 C 1284.13 3.04202 1.927 0
M  V30 13670 C 1283.98 4.35631 1.12006 0
M  V30 13671 C 1285.3 3.29514 2.91734 0
M  V30 13672 H 1282.42 0.636015 0.372362 0
M  V30 13673 H 1285.06 1.87583 0.302069 0
M  V30 13674 H 1283.21 2.9344 2.54608 0
M  V30 13675 H 1284.88 4.58323 0.52319 0
M  V30 13676 H 1283.13 4.31733 0.42298 0
M  V30 13677 H 1283.8 5.22454 1.78172 0
M  V30 13678 H 1286.27 3.39941 2.39957 0
M  V30 13679 H 1285.15 4.21352 3.51786 0
M  V30 13680 H 1285.41 2.48216 3.65843 0
M  V30 13681 N 1284.47 -0.556076 1.47464 0
M  V30 13682 C 1285.4 -1.67872 1.54578 0
M  V30 13683 C 1286.38 -1.57658 0.397853 0
M  V30 13684 O 1287.56 -1.785 0.605811 0
M  V30 13685 C 1284.69 -3.06122 1.44937 0
M  V30 13686 C 1283.74 -3.34778 2.64246 0
M  V30 13687 S 1284.57 -3.23909 4.26431 0
M  V30 13688 C 1285.73 -4.64651 4.19345 0
M  V30 13689 H 1285.96 -1.61583 2.49556 0
M  V30 13690 H 1283.49 -0.736985 1.35676 0
M  V30 13691 H 1285.45 -3.85866 1.40062 0
M  V30 13692 H 1284.11 -3.09876 0.513412 0
M  V30 13693 H 1283.3 -4.35569 2.53567 0
M  V30 13694 H 1282.91 -2.62655 2.66248 0
M  V30 13695 H 1285.2 -5.55625 3.87669 0
M  V30 13696 H 1286.14 -4.80386 5.20225 0
M  V30 13697 H 1286.55 -4.42751 3.50189 0
M  V30 13698 N 1285.95 -1.35615 -0.802897 0
M  V30 13699 C 1287.19 -1.29094 -1.56016 0
M  V30 13700 C 1287.52 0.133617 -1.9404 0
M  V30 13701 O 1286.78 1.09975 -1.61876 0
M  V30 13702 C 1287.08 -2.14653 -2.8576 0
M  V30 13703 C 1286.74 -3.63395 -2.66936 0
M  V30 13704 C 1285.4 -4.03937 -2.61511 0
M  V30 13705 C 1287.76 -4.57758 -2.49212 0
M  V30 13706 C 1285.08 -5.37006 -2.36309 0
M  V30 13707 C 1287.44 -5.91029 -2.25539 0
M  V30 13708 C 1286.1 -6.30712 -2.18538 0
M  V30 13709 H 1285.37 -0.472387 -0.570904 0
M  V30 13710 H 1288.02 -1.67545 -0.92741 0
M  V30 13711 H 1286.32 -1.69095 -3.53432 0
M  V30 13712 H 1288.02 -2.06941 -3.43477 0
M  V30 13713 H 1284.61 -3.31224 -2.72009 0
M  V30 13714 H 1288.79 -4.27318 -2.52414 0
M  V30 13715 H 1284.05 -5.66748 -2.29361 0
M  V30 13716 H 1288.22 -6.63724 -2.10816 0
M  V30 13717 H 1285.85 -7.33753 -1.98772 0
M  V30 13718 N 1287.43 1.02549 -1.19673 0
M  V30 13719 C 1288.39 2.09064 -0.939407 0
M  V30 13720 C 1289.39 1.60593 0.0814837 0
M  V30 13721 O 1290.58 1.73521 -0.153626 0
M  V30 13722 C 1287.71 3.38395 -0.412513 0
M  V30 13723 H 1288.9 2.33325 -1.88413 0
M  V30 13724 H 1286.46 1.19211 -1.01086 0
M  V30 13725 H 1287.19 3.19805 0.538094 0
M  V30 13726 H 1286.98 3.74898 -1.14863 0
M  V30 13727 H 1288.47 4.16841 -0.251678 0
M  V30 13728 N 1288.9 1.00119 1.21713 0
M  V30 13729 C 1290.13 0.700172 1.95224 0
M  V30 13730 C 1290.55 -0.730138 1.73351 0
M  V30 13731 O 1289.91 -1.50026 1.01794 0
M  V30 13732 C 1289.96 1.02202 3.45814 0
M  V30 13733 O 1289.06 0.125188 4.1221 0
M  V30 13734 H 1288.4 0.261238 0.610451 0
M  V30 13735 H 1290.93 1.34041 1.54578 0
M  V30 13736 H 1290.94 0.967293 3.96368 0
M  V30 13737 H 1289.62 2.06422 3.61058 0
M  V30 13738 H 1288.2 0.236114 3.72152 0
M  V30 13739 N 1290.38 -1.37203 0.775435 0
M  V30 13740 C 1291.63 -1.98846 0.338093 0
M  V30 13741 C 1291.94 -1.6225 -1.09244 0
M  V30 13742 O 1293.15 -2.17024 -1.63135 0
M  V30 13743 C 1291.61 -3.55618 0.553541 0
M  V30 13744 C 1291.21 -4.01149 1.99457 0
M  V30 13745 C 1292.96 -4.24118 0.180006 0
M  V30 13746 C 1290.86 -5.50644 2.15742 0
M  V30 13747 H 1289.79 -0.743955 0.122669 0
M  V30 13748 H 1292.45 -1.56685 0.955087 0
M  V30 13749 H 1290.83 -3.95777 -0.132964 0
M  V30 13750 H 1292 -3.72226 2.71633 0
M  V30 13751 H 1290.32 -3.45443 2.32504 0
M  V30 13752 H 1292.91 -5.33966 0.280145 0
M  V30 13753 H 1293.26 -4.07104 -0.870192 0
M  V30 13754 H 1293.79 -3.89274 0.819201 0
M  V30 13755 H 1290.53 -5.7259 3.19094 0
M  V30 13756 H 1290.05 -5.8124 1.48054 0
M  V30 13757 H 1291.73 -6.16668 1.95781 0
M  V30 13758 N 1291.86 -0.526279 -1.48553 0
M  V30 13759 C 1293.27 -0.0848694 -1.86507 0
M  V30 13760 C 1293.62 1.3367 -1.43621 0
M  V30 13761 O 1292.75 2.00046 -0.825268 0
M  V30 13762 C 1293.34 -0.147241 -3.3848 0
M  V30 13763 C 1291.9 0.238954 -3.75641 0
M  V30 13764 C 1291.05 -0.508648 -2.72595 0
M  V30 13765 H 1294 -0.737728 -1.40511 0
M  V30 13766 H 1294.02 0.641964 -3.75045 0
M  V30 13767 H 1293.53 -1.18199 -3.69663 0
M  V30 13768 H 1291.63 1.27598 -3.50071 0
M  V30 13769 H 1291.75 -0.0980808 -4.79 0
M  V30 13770 H 1290.11 0.0446382 -2.54661 0
M  V30 13771 H 1290.89 -1.54395 -3.06622 0
M  V30 13772 N 1293.34 1.5542 -0.261239 0
M  V30 13773 C 1294.29 2.23382 0.648324 0
M  V30 13774 C 1295.28 1.22615 1.16884 0
M  V30 13775 O 1296.49 1.40587 1.12407 0
M  V30 13776 H 1292.86 0.716733 0.227592 0
M  V30 13777 H 1294.83 2.98354 0.0521289 0
M  V30 13778 C 1293.58 2.9579 1.82766 0
M  V30 13779 H 1292.9 3.73109 1.4363 0
M  V30 13780 H 1294.34 3.46686 2.441 0
M  V30 13781 C 1292.8 2.00472 2.70763 0
M  V30 13782 O 1293.33 1.54698 3.70717 0
M  V30 13783 N 1291.54 1.67267 2.37635 0
M  V30 13784 H 1291.09 2.04685 1.56402 0
M  V30 13785 H 1291.04 1.03759 2.96785 0
M  V30 13786 N 1294.82 -0.0116844 1.57596 0
M  V30 13787 C 1296.06 -0.698958 1.90055 0
M  V30 13788 C 1296.39 -1.74422 0.860659 0
M  V30 13789 O 1295.65 -1.95226 -0.136132 0
M  V30 13790 C 1295.94 -1.38985 3.29269 0
M  V30 13791 C 1295.61 -0.478916 4.48349 0
M  V30 13792 C 1294.27 -0.228071 4.80659 0
M  V30 13793 C 1296.62 0.14897 5.20987 0
M  V30 13794 C 1293.95 0.659147 5.82986 0
M  V30 13795 C 1296.3 1.02399 6.24257 0
M  V30 13796 C 1294.97 1.28413 6.55032 0
M  V30 13797 H 1294.24 -0.255767 0.69546 0
M  V30 13798 H 1296.89 0.0413339 1.91455 0
M  V30 13799 H 1295.19 -2.2039 3.23937 0
M  V30 13800 H 1296.89 -1.92747 3.51638 0
M  V30 13801 H 1293.48 -0.68459 4.23097 0
M  V30 13802 H 1297.66 -0.0318326 4.9629 0
M  V30 13803 H 1292.92 0.86882 6.05195 0
M  V30 13804 H 1297.09 1.51694 6.79678 0
M  V30 13805 H 1294.72 1.97332 7.34142 0
M  V30 13806 N 1296.29 -1.55015 -0.284256 0
M  V30 13807 C 1297.24 -1.87898 -1.37102 0
M  V30 13808 C 1298.24 -0.754231 -1.51683 0
M  V30 13809 O 1299.44 -0.93844 -1.53601 0
M  V30 13810 H 1295.82 -0.596208 -0.458301 0
M  V30 13811 H 1297.79 -2.78704 -1.06613 0
M  V30 13812 C 1296.54 -2.15764 -2.72656 0
M  V30 13813 H 1295.86 -3.01792 -2.62224 0
M  V30 13814 H 1297.3 -2.42701 -3.47667 0
M  V30 13815 C 1295.76 -0.961561 -3.22886 0
M  V30 13816 O 1296.29 -0.190489 -4.01248 0
M  V30 13817 N 1294.49 -0.762338 -2.80422 0
M  V30 13818 H 1294.04 -1.39104 -2.16813 0
M  V30 13819 H 1294 0.0363482 -3.14379 0
M  V30 13820 N 1297.77 0.548248 -1.47757 0
M  V30 13821 C 1299.05 1.3092 -1.45325 0
M  V30 13822 C 1299.43 2.1053 -0.155008 0
M  V30 13823 O 1298.78 2.11558 0.863455 0
M  V30 13824 C 1298.99 2.20614 -2.70426 0
M  V30 13825 C 1300.33 2.81345 -3.18009 0
M  V30 13826 O 1301.36 2.30911 -2.71216 0
M  V30 13827 O 1300.22 3.73036 -3.99383 0
M  V30 13828 H 1297.31 0.58996 -0.579548 0
M  V30 13829 H 1299.86 0.56641 -1.59968 0
M  V30 13830 H 1298.63 1.61449 -3.56441 0
M  V30 13831 H 1298.25 3.02173 -2.58413 0
M  V30 13832 N 1299.25 1.36039 0.795694 0
M  V30 13833 C 1300.5 1.29919 1.5533 0
M  V30 13834 C 1300.82 -0.123325 1.94109 0
M  V30 13835 O 1300.08 -1.09115 1.62457 0
M  V30 13836 C 1300.38 2.16166 2.84617 0
M  V30 13837 C 1300.04 3.64805 2.65006 0
M  V30 13838 C 1298.71 4.05319 2.59365 0
M  V30 13839 C 1301.06 4.59073 2.46781 0
M  V30 13840 C 1298.39 5.38251 2.33458 0
M  V30 13841 C 1300.74 5.92216 2.22402 0
M  V30 13842 C 1299.4 6.31862 2.1519 0
M  V30 13843 H 1298.67 0.475408 0.568391 0
M  V30 13844 H 1301.32 1.68035 0.918512 0
M  V30 13845 H 1299.62 1.70967 3.5253 0
M  V30 13846 H 1301.32 2.0876 3.42375 0
M  V30 13847 H 1297.91 3.32662 2.70248 0
M  V30 13848 H 1302.1 4.28651 2.50144 0
M  V30 13849 H 1297.35 5.67957 2.26352 0
M  V30 13850 H 1301.53 6.64833 2.07293 0
M  V30 13851 H 1299.15 7.34797 1.94878 0
M  V30 13852 N 1300.73 -1.01913 1.20215 0
M  V30 13853 C 1301.96 -1.78817 1.0348 0
M  V30 13854 C 1302.37 -1.84499 -0.419152 0
M  V30 13855 O 1301.71 -1.29506 -1.30284 0
M  V30 13856 C 1301.77 -3.24858 1.53973 0
M  V30 13857 C 1301.44 -3.42788 3.02234 0
M  V30 13858 C 1302.43 -3.32213 3.99914 0
M  V30 13859 C 1300.12 -3.68687 3.41138 0
M  V30 13860 C 1302.11 -3.47276 5.34489 0
M  V30 13861 C 1299.8 -3.83394 4.7587 0
M  V30 13862 C 1300.8 -3.72693 5.72354 0
M  V30 13863 O 1300.48 -3.86953 7.04643 0
M  V30 13864 H 1300.22 -0.569268 0.364568 0
M  V30 13865 H 1302.77 -1.29184 1.59689 0
M  V30 13866 H 1301 -3.7556 0.921478 0
M  V30 13867 H 1302.69 -3.83388 1.33297 0
M  V30 13868 H 1303.46 -3.12145 3.71202 0
M  V30 13869 H 1299.33 -3.76104 2.66583 0
M  V30 13870 H 1302.88 -3.3884 6.09782 0
M  V30 13871 H 1298.78 -4.02962 5.04273 0
M  V30 13872 H 1299.54 -4.03986 7.11855 0
M  V30 13873 N 1302.21 -1.00763 -1.2118 0
M  V30 13874 C 1303.46 -0.687197 -1.89633 0
M  V30 13875 C 1303.77 0.78566 -1.79128 0
M  V30 13876 O 1304.97 1.21828 -2.42632 0
M  V30 13877 C 1303.43 -1.1787 -3.40051 0
M  V30 13878 C 1303.04 -2.67782 -3.59161 0
M  V30 13879 C 1304.78 -0.933277 -4.14114 0
M  V30 13880 C 1302.69 -3.10459 -5.03358 0
M  V30 13881 H 1301.62 -0.253342 -0.710165 0
M  V30 13882 H 1304.27 -1.21914 -1.37147 0
M  V30 13883 H 1302.65 -0.574791 -3.91806 0
M  V30 13884 H 1303.83 -3.33645 -3.17833 0
M  V30 13885 H 1302.14 -2.90368 -2.98455 0
M  V30 13886 H 1304.74 -1.22766 -5.20416 0
M  V30 13887 H 1305.08 0.130431 -4.16096 0
M  V30 13888 H 1305.61 -1.50011 -3.68431 0
M  V30 13889 H 1302.35 -4.16068 -5.06525 0
M  V30 13890 H 1301.87 -2.4931 -5.45531 0
M  V30 13891 H 1303.55 -3.02589 -5.71882 0
M  V30 13892 N 1303.68 1.3679 -0.7827 0
M  V30 13893 C 1304.59 2.33928 -0.17747 0
M  V30 13894 C 1305.61 1.60716 0.666802 0
M  V30 13895 O 1306.79 1.92742 0.584162 0
M  V30 13896 C 1303.85 3.39907 0.68294 0
M  V30 13897 C 1302.91 4.28926 -0.179053 0
M  V30 13898 C 1302.15 5.29844 0.640386 0
M  V30 13899 O 1302.37 5.38639 1.87681 0
M  V30 13900 O 1301.3 6.01884 0.0438164 0
M  V30 13901 H 1305.13 2.87439 -0.980441 0
M  V30 13902 H 1302.71 1.39142 -0.54404 0
M  V30 13903 H 1304.6 4.04722 1.17379 0
M  V30 13904 H 1303.27 2.88706 1.46391 0
M  V30 13905 H 1302.18 3.67174 -0.716512 0
M  V30 13906 H 1303.51 4.83461 -0.923377 0
M  V30 13907 N 1305.16 0.53415 1.48272 0
M  V30 13908 C 1306.09 -0.215037 2.32508 0
M  V30 13909 C 1307.07 -0.931083 1.42355 0
M  V30 13910 O 1308.26 -0.916051 1.71237 0
M  V30 13911 C 1305.39 -1.25985 3.23643 0
M  V30 13912 C 1304.34 -0.661692 4.22854 0
M  V30 13913 C 1303.67 -1.80946 5.03153 0
M  V30 13914 C 1304.97 0.369358 5.20992 0
M  V30 13915 H 1306.66 0.488158 2.95394 0
M  V30 13916 H 1304.21 0.236206 1.4205 0
M  V30 13917 H 1306.16 -1.79195 3.81402 0
M  V30 13918 H 1304.89 -1.99268 2.58766 0
M  V30 13919 H 1303.54 -0.151082 3.66289 0
M  V30 13920 H 1303.19 -2.53077 4.34696 0
M  V30 13921 H 1302.89 -1.41513 5.70305 0
M  V30 13922 H 1304.42 -2.34526 5.63764 0
M  V30 13923 H 1305.83 -0.0758076 5.7325 0
M  V30 13924 H 1304.23 0.681301 5.9622 0
M  V30 13925 H 1305.3 1.27363 4.67875 0
M  V30 13926 N 1306.64 -1.55279 0.269478 0
M  V30 13927 C 1307.92 -1.91458 -0.400412 0
M  V30 13928 C 1308.3 -1.19306 -1.74153 0
M  V30 13929 O 1307.65 -0.318017 -2.26276 0
M  V30 13930 C 1307.86 -3.44698 -0.546258 0
M  V30 13931 C 1309.2 -4.16374 -0.831758 0
M  V30 13932 O 1310.23 -3.50561 -0.631279 0
M  V30 13933 O 1309.09 -5.32826 -1.21484 0
M  V30 13934 H 1306.18 -0.79766 -0.218328 0
M  V30 13935 H 1308.73 -1.66747 0.315214 0
M  V30 13936 H 1307.5 -3.89273 0.397784 0
M  V30 13937 H 1307.12 -3.75345 -1.31157 0
M  V30 13938 N 1308.12 0.00332656 -1.576 0
M  V30 13939 C 1309.37 0.687508 -1.90047 0
M  V30 13940 C 1309.69 1.74497 -0.870388 0
M  V30 13941 O 1308.96 1.95681 0.0926544 0
M  V30 13942 H 1307.54 0.256924 -0.701426 0
M  V30 13943 H 1310.2 -0.0368129 -1.94865 0
M  V30 13944 H 1309.3 1.16086 -2.89707 0
M  V30 13945 N 1309.6 1.55164 0.276031 0
M  V30 13946 C 1310.54 1.88623 1.36104 0
M  V30 13947 C 1311.54 0.762265 1.51281 0
M  V30 13948 O 1312.74 0.946573 1.53101 0
M  V30 13949 H 1309.12 0.59863 0.455133 0
M  V30 13950 H 1311.09 2.79266 1.05134 0
M  V30 13951 C 1309.84 2.17207 2.71508 0
M  V30 13952 H 1309.16 3.03179 2.6062 0
M  V30 13953 H 1310.6 2.44541 3.46375 0
M  V30 13954 C 1309.06 0.978671 3.22372 0
M  V30 13955 O 1309.59 0.211766 4.01141 0
M  V30 13956 N 1307.8 0.777199 2.80014 0
M  V30 13957 H 1307.34 1.40252 2.16072 0
M  V30 13958 H 1307.3 -0.0196754 3.14394 0
M  V30 13959 N 1311.07 -0.540404 1.48045 0
M  V30 13960 C 1312.02 -1.66695 1.62221 0
M  V30 13961 C 1313.02 -1.6219 0.488943 0
M  V30 13962 O 1314.22 -1.67173 0.66732 0
M  V30 13963 H 1310.6 -0.551868 0.510828 0
M  V30 13964 H 1312.57 -1.51879 2.56856 0
M  V30 13965 C 1311.32 -3.05002 1.6694 0
M  V30 13966 H 1310.64 -3.09157 2.53499 0
M  V30 13967 H 1312.08 -3.8347 1.80904 0
M  V30 13968 C 1310.54 -3.34445 0.40598 0
M  V30 13969 O 1311.07 -3.98753 -0.485676 0
M  V30 13970 N 1309.28 -2.8924 0.280857 0
M  V30 13971 H 1308.82 -2.37085 1.00741 0
M  V30 13972 H 1308.78 -3.09309 -0.563493 0
M  V30 13973 N 1312.55 -1.36459 -0.788468 0
M  V30 13974 C 1313.49 -1.25222 -1.90774 0
M  V30 13975 C 1314.46 -0.136188 -1.62029 0
M  V30 13976 O 1315.65 -0.307486 -1.85975 0
M  V30 13977 C 1312.77 -0.932287 -3.25616 0
M  V30 13978 C 1311.82 -2.0629 -3.73292 0
M  V30 13979 S 1312.65 -3.68084 -3.8894 0
M  V30 13980 C 1313.81 -3.38206 -5.26657 0
M  V30 13981 H 1314.04 -2.19959 -2.00013 0
M  V30 13982 H 1311.58 -1.21886 -0.947801 0
M  V30 13983 H 1313.53 -0.754514 -4.03506 0
M  V30 13984 H 1312.19 -0.00268413 -3.141 0
M  V30 13985 H 1311.39 -1.79363 -4.71004 0
M  V30 13986 H 1310.99 -2.19994 -3.02454 0
M  V30 13987 H 1313.28 -2.92158 -6.11269 0
M  V30 13988 H 1314.22 -4.35185 -5.58587 0
M  V30 13989 H 1314.63 -2.73531 -4.93802 0
M  V30 13990 N 1314.03 1.01274 -1.20754 0
M  V30 13991 C 1315.28 1.74586 -1.01804 0
M  V30 13992 C 1315.6 1.89727 0.450419 0
M  V30 13993 O 1314.87 1.44257 1.32539 0
M  V30 13994 H 1313.45 0.646804 -0.373702 0
M  V30 13995 H 1316.11 1.22079 -1.5193 0
M  V30 13996 H 1315.21 2.748 -1.47958 0
M  V30 13997 N 1315.51 1.01404 1.20644 0
M  V30 13998 C 1316.76 0.702949 1.90227 0
M  V30 13999 C 1317.09 -0.765243 1.78487 0
M  V30 14000 O 1316.36 -1.55569 1.16741 0
M  V30 14001 C 1316.65 1.13606 3.4171 0
M  V30 14002 C 1316.5 2.66437 3.62397 0
M  V30 14003 C 1317.82 0.705361 4.34411 0
M  V30 14004 H 1314.94 0.256842 0.690797 0
M  V30 14005 H 1317.58 1.26133 1.42093 0
M  V30 14006 H 1315.73 0.660977 3.82836 0
M  V30 14007 H 1317.4 3.21778 3.3054 0
M  V30 14008 H 1315.64 3.0753 3.05954 0
M  V30 14009 H 1316.32 2.91795 4.68572 0
M  V30 14010 H 1318.79 1.11375 4.00918 0
M  V30 14011 H 1317.67 1.03647 5.39026 0
M  V30 14012 H 1317.93 -0.393094 4.40349 0
M  V30 14013 N 1316.99 -1.36373 0.789944 0
M  V30 14014 C 1317.9 -2.3383 0.189873 0
M  V30 14015 C 1318.91 -1.61068 -0.65827 0
M  V30 14016 O 1320.09 -1.93049 -0.573932 0
M  V30 14017 C 1317.15 -3.40264 -0.664905 0
M  V30 14018 C 1316.22 -4.28825 0.201798 0
M  V30 14019 C 1315.45 -5.30176 -0.612278 0
M  V30 14020 O 1315.67 -5.39627 -1.84821 0
M  V30 14021 O 1314.61 -6.01899 -0.0118964 0
M  V30 14022 H 1318.43 -2.86915 0.995671 0
M  V30 14023 H 1316.02 -1.38852 0.551412 0
M  V30 14024 H 1317.9 -4.05339 -1.15231 0
M  V30 14025 H 1316.57 -2.89478 -1.44858 0
M  V30 14026 H 1315.48 -3.66789 0.735974 0
M  V30 14027 H 1316.81 -4.82965 0.949003 0
M  V30 14028 N 1318.47 -0.542005 -1.47987 0
M  V30 14029 C 1319.71 -0.0144711 -2.04395 0
M  V30 14030 C 1320.07 1.30441 -1.40887 0
M  V30 14031 O 1321.27 1.91872 -1.88252 0
M  V30 14032 C 1319.54 0.0926282 -3.5728 0
M  V30 14033 S 1321.1 0.568487 -4.35102 0
M  V30 14034 H 1317.92 -0.0178299 -0.710776 0
M  V30 14035 H 1320.52 -0.725294 -1.81548 0
M  V30 14036 H 1319.22 -0.871888 -4.01032 0
M  V30 14037 H 1318.76 0.827468 -3.84599 0
M  V30 14038 H 1320.77 1.83092 -4.61185 0
M  V30 14039 N 1319.94 1.55134 -0.277709 0
M  V30 14040 C 1320.87 2.256 0.602232 0
M  V30 14041 C 1321.85 1.24708 1.15681 0
M  V30 14042 O 1323.04 1.53433 1.19046 0
M  V30 14043 C 1320.17 2.97907 1.78519 0
M  V30 14044 C 1319.12 4.0575 1.36203 0
M  V30 14045 C 1318.45 4.65644 2.62829 0
M  V30 14046 C 1319.75 5.19801 0.510327 0
M  V30 14047 H 1321.44 2.99396 0.0145622 0
M  V30 14048 H 1318.99 1.43999 0.00556389 0
M  V30 14049 H 1320.94 3.45915 2.40668 0
M  V30 14050 H 1319.67 2.21649 2.39873 0
M  V30 14051 H 1318.33 3.58557 0.763726 0
M  V30 14052 H 1317.97 3.86053 3.22447 0
M  V30 14053 H 1317.67 5.38463 2.35227 0
M  V30 14054 H 1319.2 5.16403 3.25823 0
M  V30 14055 H 1320.61 5.63845 1.03689 0
M  V30 14056 H 1319.01 5.99197 0.329073 0
M  V30 14057 H 1320.08 4.82614 -0.470273 0
M  V30 14058 N 1321.42 0.00503138 1.57599 0
M  V30 14059 C 1322.84 -0.351109 1.5569 0
M  V30 14060 C 1323.04 -1.74465 1.00818 0
M  V30 14061 O 1322.09 -2.44144 0.64422 0
M  V30 14062 C 1323.41 -0.221738 2.99881 0
M  V30 14063 C 1324.95 -0.296303 3.11594 0
M  V30 14064 C 1325.43 -0.195998 4.5758 0
M  V30 14065 N 1326.92 -0.253741 4.62504 0
M  V30 14066 C 1327.66 -0.199546 5.73053 0
M  V30 14067 N 1327.15 -0.0956553 6.92734 0
M  V30 14068 N 1328.94 -0.251779 5.61536 0
M  V30 14069 H 1321.1 0.916578 1.91605 0
M  V30 14070 H 1323.36 0.351802 0.880306 0
M  V30 14071 H 1323.06 0.737255 3.43886 0
M  V30 14072 H 1322.94 -1.00178 3.63654 0
M  V30 14073 H 1325.33 -1.24574 2.67517 0
M  V30 14074 H 1325.41 0.513692 2.50589 0
M  V30 14075 H 1325.05 0.749918 5.02333 0
M  V30 14076 H 1324.98 -1.02455 5.16537 0
M  V30 14077 H 1327.47 -0.335163 3.76411 0
M  V30 14078 H 1327.78 -0.0603357 7.72776 0
M  V30 14079 H 1326.13 -0.0612113 6.94973 0
M  V30 14080 H 1329.32 -0.331173 4.66927 0
M  V30 14081 H 1329.49 -0.206078 6.47672 0
M  V30 14082 N 1322.9 -1.55308 -0.267798 0
M  V30 14083 C 1323.83 -1.91555 -1.33525 0
M  V30 14084 C 1324.81 -0.778001 -1.51265 0
M  V30 14085 O 1326 -1.03657 -1.64222 0
M  V30 14086 C 1323.13 -2.19201 -2.69385 0
M  V30 14087 C 1322.08 -3.3501 -2.66369 0
M  V30 14088 C 1321.41 -3.48148 -4.05829 0
M  V30 14089 C 1322.71 -4.71265 -2.25182 0
M  V30 14090 H 1324.4 -2.80965 -1.03437 0
M  V30 14091 H 1321.95 -1.35183 -0.496141 0
M  V30 14092 H 1323.9 -2.43146 -3.44177 0
M  V30 14093 H 1322.62 -1.26596 -3.01067 0
M  V30 14094 H 1321.28 -3.11041 -1.94034 0
M  V30 14095 H 1320.93 -2.53 -4.34741 0
M  V30 14096 H 1320.63 -4.26014 -4.04704 0
M  V30 14097 H 1322.15 -3.74391 -4.82352 0
M  V30 14098 H 1323.57 -4.94719 -2.89699 0
M  V30 14099 H 1321.96 -5.52084 -2.3521 0
M  V30 14100 H 1323.03 -4.69735 -1.20319 0
M  V30 14101 N 1324.38 0.532545 -1.4833 0
M  V30 14102 C 1325.31 1.64662 -1.65555 0
M  V30 14103 C 1326.29 1.62447 -0.50447 0
M  V30 14104 O 1327.47 1.79684 -0.736712 0
M  V30 14105 C 1324.6 3.03256 -1.69272 0
M  V30 14106 C 1323.56 3.20329 -2.83854 0
M  V30 14107 C 1322.88 4.59958 -2.72659 0
M  V30 14108 C 1324.18 3.03345 -4.25181 0
M  V30 14109 H 1325.88 1.50502 -2.58823 0
M  V30 14110 H 1323.42 0.722612 -1.24556 0
M  V30 14111 H 1325.38 3.81064 -1.79911 0
M  V30 14112 H 1324.1 3.18433 -0.725805 0
M  V30 14113 H 1322.76 2.44937 -2.72766 0
M  V30 14114 H 1322.41 4.71967 -1.73942 0
M  V30 14115 H 1322.11 4.72327 -3.49544 0
M  V30 14116 H 1323.63 5.39869 -2.85262 0
M  V30 14117 H 1325.05 3.70948 -4.37116 0
M  V30 14118 H 1323.44 3.27208 -5.03045 0
M  V30 14119 H 1324.51 1.998 -4.41824 0
M  V30 14120 N 1325.86 1.36875 0.78122 0
M  V30 14121 C 1326.8 1.31941 1.91557 0
M  V30 14122 C 1327.8 0.209783 1.68096 0
M  V30 14123 O 1329 0.377266 1.76002 0
M  V30 14124 H 1325.38 0.410955 0.629778 0
M  V30 14125 H 1327.35 2.27721 1.92836 0
M  V30 14126 C 1326.1 1.13379 3.28695 0
M  V30 14127 H 1325.42 1.98013 3.47319 0
M  V30 14128 H 1326.86 1.13976 4.08394 0
M  V30 14129 C 1325.32 -0.161119 3.36515 0
M  V30 14130 O 1325.85 -1.14806 3.84945 0
M  V30 14131 N 1324.06 -0.208594 2.8985 0
M  V30 14132 H 1323.6 0.595187 2.5063 0
M  V30 14133 H 1323.56 -1.07465 2.95463 0
M  V30 14134 N 1327.33 -1.00632 1.21289 0
M  V30 14135 C 1328.24 -2.12829 0.986957 0
M  V30 14136 C 1329.26 -1.73895 -0.0605152 0
M  V30 14137 O 1330.44 -2.00985 0.129238 0
M  V30 14138 C 1327.5 -3.4226 0.553089 0
M  V30 14139 C 1326.56 -3.95376 1.67262 0
M  V30 14140 C 1325.79 -5.18629 1.25936 0
M  V30 14141 O 1326.02 -5.70246 0.132402 0
M  V30 14142 O 1324.95 -5.65157 2.07077 0
M  V30 14143 H 1328.78 -2.34765 1.92663 0
M  V30 14144 H 1326.36 -1.11208 0.997654 0
M  V30 14145 H 1328.24 -4.20177 0.320856 0
M  V30 14146 H 1326.92 -3.21716 -0.357881 0
M  V30 14147 H 1325.83 -3.18692 1.95924 0
M  V30 14148 H 1327.16 -4.20328 2.56097 0
M  V30 14149 N 1328.81 -1.02043 -1.20104 0
M  V30 14150 C 1330.06 -0.707271 -1.88893 0
M  V30 14151 C 1330.37 0.766617 -1.79951 0
M  V30 14152 O 1331.58 1.19248 -2.4391 0
M  V30 14153 C 1330.04 -1.2147 -3.38782 0
M  V30 14154 C 1329.64 -2.71576 -3.56301 0
M  V30 14155 C 1331.39 -0.977146 -4.13101 0
M  V30 14156 C 1329.29 -3.15781 -5.00037 0
M  V30 14157 H 1328.22 -0.26086 -0.707438 0
M  V30 14158 H 1330.88 -1.23361 -1.35846 0
M  V30 14159 H 1329.26 -0.616315 -3.91175 0
M  V30 14160 H 1330.43 -3.36997 -3.14276 0
M  V30 14161 H 1328.75 -2.93517 -2.95359 0
M  V30 14162 H 1331.34 -1.28278 -5.19085 0
M  V30 14163 H 1331.69 0.0862909 -4.16211 0
M  V30 14164 H 1332.22 -1.5391 -3.6682 0
M  V30 14165 H 1328.96 -4.21417 -5.02084 0
M  V30 14166 H 1328.48 -2.55083 -5.42856 0
M  V30 14167 H 1330.16 -3.08637 -5.6864 0
M  V30 14168 N 1330.29 1.35952 -0.797165 0
M  V30 14169 C 1331.54 1.98283 -0.369685 0
M  V30 14170 C 1331.85 1.63968 1.06649 0
M  V30 14171 O 1333.06 2.19591 1.59662 0
M  V30 14172 C 1331.51 3.54692 -0.610046 0
M  V30 14173 C 1331.12 3.97925 -2.05814 0
M  V30 14174 C 1332.87 4.23778 -0.247457 0
M  V30 14175 C 1330.77 5.47142 -2.24475 0
M  V30 14176 H 1329.7 0.741909 -0.134489 0
M  V30 14177 H 1332.35 1.55146 -0.979893 0
M  V30 14178 H 1330.74 3.95938 0.0699822 0
M  V30 14179 H 1331.91 3.67857 -2.77521 0
M  V30 14180 H 1330.23 3.417 -2.37971 0
M  V30 14181 H 1332.82 5.33452 -0.365059 0
M  V30 14182 H 1333.17 4.08436 0.805315 0
M  V30 14183 H 1333.7 3.87921 -0.881028 0
M  V30 14184 H 1330.44 5.67441 -3.28163 0
M  V30 14185 H 1329.96 5.78811 -1.57282 0
M  V30 14186 H 1331.64 6.13475 -2.05567 0
M  V30 14187 N 1331.77 0.549846 1.47697 0
M  V30 14188 C 1332.73 -0.191427 2.28399 0
M  V30 14189 C 1333.73 -0.849533 1.36527 0
M  V30 14190 O 1334.92 -0.706526 1.59229 0
M  V30 14191 C 1332.05 -1.27907 3.15995 0
M  V30 14192 H 1333.25 0.517375 2.95404 0
M  V30 14193 H 1330.8 0.30651 1.53265 0
M  V30 14194 H 1331.53 -2.0205 2.53665 0
M  V30 14195 H 1331.32 -0.812066 3.83599 0
M  V30 14196 H 1332.81 -1.79992 3.76819 0
M  V30 14197 N 1333.25 -1.54984 0.285932 0
M  V30 14198 C 1334.52 -1.91872 -0.380083 0
M  V30 14199 C 1334.9 -1.21146 -1.72878 0
M  V30 14200 O 1334.25 -0.341999 -2.25926 0
M  V30 14201 C 1334.46 -3.45258 -0.509667 0
M  V30 14202 C 1335.81 -4.17232 -0.787549 0
M  V30 14203 O 1336.83 -3.51211 -0.594062 0
M  V30 14204 O 1335.69 -5.34085 -1.15826 0
M  V30 14205 H 1332.79 -0.799931 -0.209856 0
M  V30 14206 H 1335.33 -1.66403 0.332882 0
M  V30 14207 H 1334.1 -3.88829 0.439049 0
M  V30 14208 H 1333.73 -3.76715 -1.27168 0
M  V30 14209 N 1334.72 -0.0133892 -1.57594 0
M  V30 14210 C 1335.97 0.668634 -1.91143 0
M  V30 14211 C 1336.3 1.7303 -0.888299 0
M  V30 14212 O 1335.55 1.95418 0.105056 0
M  V30 14213 C 1335.85 1.33729 -3.31438 0
M  V30 14214 C 1335.52 0.407527 -4.49055 0
M  V30 14215 C 1334.18 0.151573 -4.80961 0
M  V30 14216 C 1336.53 -0.231835 -5.20684 0
M  V30 14217 C 1333.86 -0.751812 -5.81863 0
M  V30 14218 C 1336.21 -1.12318 -6.22549 0
M  V30 14219 C 1334.88 -1.38818 -6.52906 0
M  V30 14220 H 1334.15 0.24467 -0.699441 0
M  V30 14221 H 1336.79 -0.0717876 -1.91365 0
M  V30 14222 H 1335.1 2.15209 -3.27403 0
M  V30 14223 H 1336.8 1.87128 -3.5466 0
M  V30 14224 H 1333.39 0.617192 -4.24133 0
M  V30 14225 H 1337.57 -0.0471268 -4.96278 0
M  V30 14226 H 1332.83 -0.964991 -6.03737 0
M  V30 14227 H 1337 -1.62488 -6.77179 0
M  V30 14228 H 1334.63 -2.08986 -7.3091 0
M  V30 14229 N 1336.2 1.55448 0.259558 0
M  V30 14230 C 1337.48 1.6742 1.01143 0
M  V30 14231 C 1337.86 0.549525 2.03822 0
M  V30 14232 O 1337.21 -0.448699 2.24051 0
M  V30 14233 C 1337.42 3.07201 1.65616 0
M  V30 14234 C 1338.77 3.6539 2.16277 0
M  V30 14235 O 1339.79 3.0992 1.7558 0
M  V30 14236 O 1338.65 4.62604 2.90963 0
M  V30 14237 H 1335.74 0.680469 0.469991 0
M  V30 14238 H 1338.29 1.67783 0.254348 0
M  V30 14239 H 1337.06 3.80504 0.912819 0
M  V30 14240 H 1336.68 3.10794 2.47977 0
M  V30 14241 N 1337.68 -0.524672 1.4861 0
M  V30 14242 C 1338.59 -1.65554 1.6622 0
M  V30 14243 C 1339.61 -1.65254 0.54471 0
M  V30 14244 O 1340.78 -1.84109 0.816454 0
M  V30 14245 C 1337.85 -3.02003 1.7028 0
M  V30 14246 C 1336.91 -3.13116 2.93695 0
M  V30 14247 C 1336.14 -4.43055 2.97553 0
M  V30 14248 O 1336.36 -5.30468 2.09667 0
M  V30 14249 O 1335.3 -4.58646 3.89779 0
M  V30 14250 H 1339.12 -1.53633 2.61974 0
M  V30 14251 H 1336.71 -0.698354 1.32073 0
M  V30 14252 H 1338.59 -3.83143 1.75441 0
M  V30 14253 H 1337.27 -3.14236 0.777002 0
M  V30 14254 H 1336.17 -2.31251 2.94064 0
M  V30 14255 H 1337.51 -3.058 3.85677 0
M  V30 14256 N 1339.16 -1.37287 -0.77395 0
M  V30 14257 C 1340.09 -1.35569 -1.90114 0
M  V30 14258 C 1341.07 -0.224658 -1.6861 0
M  V30 14259 O 1342.25 -0.424676 -1.895 0
M  V30 14260 C 1339.38 -1.15971 -3.27365 0
M  V30 14261 C 1338.34 -2.26063 -3.63427 0
M  V30 14262 C 1337.66 -1.9159 -4.99197 0
M  V30 14263 C 1338.96 -3.68236 -3.70405 0
M  V30 14264 H 1340.66 -2.29891 -1.91808 0
M  V30 14265 H 1338.2 -1.10661 -0.92142 0
M  V30 14266 H 1340.16 -1.134 -4.05855 0
M  V30 14267 H 1338.88 -0.181043 -3.26098 0
M  V30 14268 H 1337.54 -2.27786 -2.87244 0
M  V30 14269 H 1337.19 -0.922586 -4.94467 0
M  V30 14270 H 1336.89 -2.65309 -5.24294 0
M  V30 14271 H 1338.41 -1.90602 -5.80089 0
M  V30 14272 H 1339.83 -3.68655 -4.39052 0
M  V30 14273 H 1338.22 -4.4099 -4.06999 0
M  V30 14274 H 1339.29 -4.02021 -2.71122 0
M  V30 14275 N 1340.64 0.999871 -1.21821 0
M  V30 14276 C 1341.57 2.08597 -0.925334 0
M  V30 14277 C 1342.55 1.62087 0.129103 0
M  V30 14278 O 1343.73 1.885 -0.000975316 0
M  V30 14279 C 1340.86 3.36443 -0.390388 0
M  V30 14280 C 1339.9 4.01869 -1.42842 0
M  V30 14281 S 1340.74 4.43618 -2.99938 0
M  V30 14282 C 1341.89 5.74644 -2.48064 0
M  V30 14283 H 1342.13 2.33119 -1.84507 0
M  V30 14284 H 1339.66 1.13339 -1.04851 0
M  V30 14285 H 1341.62 4.10405 -0.0883221 0
M  V30 14286 H 1340.28 3.09963 0.508115 0
M  V30 14287 H 1339.47 4.93902 -1.00385 0
M  V30 14288 H 1339.07 3.34202 -1.67883 0
M  V30 14289 H 1341.37 6.50642 -1.88869 0
M  V30 14290 H 1342.31 6.21919 -3.3856 0
M  V30 14291 H 1342.72 5.31709 -1.89593 0
M  V30 14292 N 1342.11 1.02678 1.19562 0
M  V30 14293 C 1343.02 0.615738 2.26375 0
M  V30 14294 C 1344.04 -0.351525 1.70412 0
M  V30 14295 O 1345.22 -0.209932 2.00303 0
M  V30 14296 C 1342.28 -0.0292135 3.46688 0
M  V30 14297 C 1341.34 0.985284 4.1784 0
M  V30 14298 C 1340.58 0.371016 5.32409 0
M  V30 14299 O 1340.8 -0.826591 5.64379 0
M  V30 14300 O 1339.73 1.09282 5.91896 0
M  V30 14301 H 1343.56 1.50526 2.63772 0
M  V30 14302 H 1341.14 0.796847 1.26375 0
M  V30 14303 H 1343.03 -0.38893 4.19601 0
M  V30 14304 H 1341.7 -0.892778 3.11145 0
M  V30 14305 H 1340.61 1.39655 3.47055 0
M  V30 14306 H 1341.94 1.81915 4.57349 0
M  V30 14307 N 1343.59 -1.35528 0.804364 0
M  V30 14308 C 1344.54 -2.29832 0.211186 0
M  V30 14309 C 1345.51 -1.52704 -0.653503 0
M  V30 14310 O 1346.69 -1.81152 -0.599052 0
M  V30 14311 C 1343.83 -3.39188 -0.636054 0
M  V30 14312 C 1342.95 -4.31283 0.248824 0
M  V30 14313 C 1342.08 -5.2773 -0.60621 0
M  V30 14314 C 1341.12 -6.11463 0.279205 0
M  V30 14315 N 1340.26 -7.00054 -0.535672 0
M  V30 14316 H 1345.1 -2.79971 1.0208 0
M  V30 14317 H 1342.64 -1.37793 0.514931 0
M  V30 14318 H 1344.59 -4.01254 -1.14241 0
M  V30 14319 H 1343.22 -2.90331 -1.41095 0
M  V30 14320 H 1342.28 -3.70241 0.873263 0
M  V30 14321 H 1343.59 -4.90046 0.930417 0
M  V30 14322 H 1342.74 -5.95158 -1.17778 0
M  V30 14323 H 1341.48 -4.69458 -1.32138 0
M  V30 14324 H 1340.49 -5.42984 0.863066 0
M  V30 14325 H 1341.71 -6.71813 0.9922 0
M  V30 14326 H 1339.66 -6.44273 -1.23486 0
M  V30 14327 H 1339.57 -7.55949 0.0879213 0
M  V30 14328 H 1340.84 -7.71833 -1.09059 0
M  V30 14329 N 1345.07 -0.557671 -1.47404 0
M  V30 14330 C 1346.35 0.031908 -1.95574 0
M  V30 14331 C 1346.73 1.48509 -1.50027 0
M  V30 14332 O 1346.08 2.16209 -0.73932 0
M  V30 14333 C 1346.29 -0.114055 -3.48814 0
M  V30 14334 C 1347.63 0.0310533 -4.24589 0
M  V30 14335 O 1348.66 -0.041626 -3.56176 0
M  V30 14336 O 1347.52 0.187487 -5.46178 0
M  V30 14337 H 1344.61 0.0638747 -0.82453 0
M  V30 14338 H 1347.16 -0.624227 -1.57802 0
M  V30 14339 H 1345.93 -1.12525 -3.74772 0
M  V30 14340 H 1345.55 0.57967 -3.93352 0
M  V30 14341 N 1346.55 1.54831 -0.294147 0
M  V30 14342 C 1347.8 2.00001 0.317135 0
M  V30 14343 C 1348.12 1.18256 1.54421 0
M  V30 14344 O 1347.38 0.245035 1.9416 0
M  V30 14345 C 1347.68 3.4997 0.72495 0
M  V30 14346 C 1347.34 4.49126 -0.399616 0
M  V30 14347 C 1346.01 4.75958 -0.708354 0
M  V30 14348 C 1348.36 5.08208 -1.15644 0
M  V30 14349 C 1345.69 5.59137 -1.77716 0
M  V30 14350 C 1348.04 5.9255 -2.21512 0
M  V30 14351 C 1346.7 6.17695 -2.52999 0
M  V30 14352 H 1345.97 0.731856 0.116048 0
M  V30 14353 H 1348.62 1.87019 -0.41182 0
M  V30 14354 H 1346.92 3.60526 1.53388 0
M  V30 14355 H 1348.62 3.82341 1.20898 0
M  V30 14356 H 1345.21 4.28341 -0.148877 0
M  V30 14357 H 1349.4 4.87486 -0.931178 0
M  V30 14358 H 1344.65 5.76859 -2.02592 0
M  V30 14359 H 1348.83 6.37359 -2.80617 0
M  V30 14360 H 1346.45 6.81939 -3.35951 0
M  V30 14361 N 1348.03 0.0217466 1.57585 0
M  V30 14362 C 1349.26 -0.667911 1.95506 0
M  V30 14363 C 1349.67 -1.66616 0.89642 0
M  V30 14364 O 1349.01 -1.83232 -0.131059 0
M  V30 14365 C 1349.07 -1.43696 3.29533 0
M  V30 14366 C 1348.73 -0.59787 4.53072 0
M  V30 14367 C 1349.73 0.12372 5.19753 0
M  V30 14368 C 1347.42 -0.53744 4.99417 0
M  V30 14369 C 1349.41 0.894491 6.31092 0
M  V30 14370 C 1347.1 0.237041 6.1064 0
M  V30 14371 C 1348.1 0.95172 6.76337 0
M  V30 14372 O 1347.78 1.71352 7.85426 0
M  V30 14373 H 1347.52 -0.189544 0.648883 0
M  V30 14374 H 1350.07 0.0755682 2.05261 0
M  V30 14375 H 1348.3 -2.22541 3.16247 0
M  V30 14376 H 1349.99 -2.01402 3.52409 0
M  V30 14377 H 1350.75 0.0863208 4.84923 0
M  V30 14378 H 1346.63 -1.08327 4.48092 0
M  V30 14379 H 1350.18 1.45285 6.82304 0
M  V30 14380 H 1346.07 0.276183 6.44909 0
M  V30 14381 H 1346.84 1.63252 8.02054 0
M  V30 14382 N 1349.51 -1.55583 -0.251311 0
M  V30 14383 C 1350.45 -1.89946 -1.31108 0
M  V30 14384 C 1351.42 -0.753209 -1.4804 0
M  V30 14385 O 1352.61 -1.00646 -1.62095 0
M  V30 14386 C 1349.75 -2.19576 -2.66233 0
M  V30 14387 C 1348.86 -3.46983 -2.57345 0
M  V30 14388 C 1348 -3.66206 -3.84794 0
M  V30 14389 C 1347.03 -4.87229 -3.70505 0
M  V30 14390 N 1346.17 -5.02996 -4.89836 0
M  V30 14391 H 1351.01 -2.80325 -1.01104 0
M  V30 14392 H 1348.55 -1.3877 -0.487986 0
M  V30 14393 H 1350.51 -2.3476 -3.44882 0
M  V30 14394 H 1349.14 -1.32406 -2.94395 0
M  V30 14395 H 1348.19 -3.40156 -1.70289 0
M  V30 14396 H 1349.5 -4.35776 -2.42695 0
M  V30 14397 H 1348.65 -3.81324 -4.71886 0
M  V30 14398 H 1347.39 -2.75638 -4.02337 0
M  V30 14399 H 1346.4 -4.72092 -2.81797 0
M  V30 14400 H 1347.62 -5.79253 -3.54462 0
M  V30 14401 H 1345.57 -4.15364 -5.07748 0
M  V30 14402 H 1345.49 -5.8587 -4.778 0
M  V30 14403 H 1346.75 -5.22521 -5.78439 0
M  V30 14404 N 1350.98 0.516783 -1.48886 0
M  V30 14405 C 1352.26 1.27808 -1.48069 0
M  V30 14406 C 1352.64 2.10154 -0.19963 0
M  V30 14407 O 1351.99 2.13342 0.818386 0
M  V30 14408 C 1352.2 2.14828 -2.75045 0
M  V30 14409 C 1353.55 2.74536 -3.23906 0
M  V30 14410 O 1354.57 2.25107 -2.76053 0
M  V30 14411 O 1353.43 3.6448 -4.07206 0
M  V30 14412 H 1350.52 0.577535 -0.591931 0
M  V30 14413 H 1353.07 0.532351 -1.61134 0
M  V30 14414 H 1351.84 1.53852 -3.59785 0
M  V30 14415 H 1351.46 2.96624 -2.64764 0
M  V30 14416 N 1352.46 1.37696 0.766659 0
M  V30 14417 C 1353.71 1.32507 1.52069 0
M  V30 14418 C 1354.02 -0.0864967 1.95409 0
M  V30 14419 O 1355.23 -0.260877 2.70244 0
M  V30 14420 C 1353.69 2.32614 2.74625 0
M  V30 14421 C 1353.29 3.79325 2.38363 0
M  V30 14422 C 1355.04 2.36445 3.52554 0
M  V30 14423 C 1352.94 4.7115 3.57451 0
M  V30 14424 H 1351.87 0.492491 0.570937 0
M  V30 14425 H 1354.53 1.63183 0.839268 0
M  V30 14426 H 1352.91 1.94963 3.44682 0
M  V30 14427 H 1354.08 4.25841 1.76056 0
M  V30 14428 H 1352.4 3.78488 1.73597 0
M  V30 14429 H 1354.99 3.02252 4.41076 0
M  V30 14430 H 1355.34 1.37953 3.92778 0
M  V30 14431 H 1355.87 2.72829 2.89498 0
M  V30 14432 H 1352.61 5.70789 3.22304 0
M  V30 14433 H 1352.13 4.29335 4.18846 0
M  V30 14434 H 1353.81 4.88532 4.242 0
M  V30 14435 N 1353.94 -0.993397 1.22349 0
M  V30 14436 C 1354.85 -2.11771 1.00947 0
M  V30 14437 C 1355.87 -1.73949 -0.0420679 0
M  V30 14438 O 1357.04 -2.00837 0.150548 0
M  V30 14439 C 1354.11 -3.41654 0.589359 0
M  V30 14440 C 1353.17 -3.93579 1.71446 0
M  V30 14441 C 1352.4 -5.17264 1.3143 0
M  V30 14442 O 1352.62 -5.70074 0.192876 0
M  V30 14443 O 1351.56 -5.62929 2.13059 0
M  V30 14444 H 1355.38 -2.32708 1.95142 0
M  V30 14445 H 1352.97 -1.10144 1.00939 0
M  V30 14446 H 1354.85 -4.19813 0.365403 0
M  V30 14447 H 1353.53 -3.22077 -0.323738 0
M  V30 14448 H 1352.43 -3.16596 1.99294 0
M  V30 14449 H 1353.77 -4.17588 2.6054 0
M  V30 14450 N 1355.42 -1.03311 -1.19015 0
M  V30 14451 C 1356.36 -0.617567 -2.22384 0
M  V30 14452 C 1357.33 0.370779 -1.61909 0
M  V30 14453 O 1358.52 0.266481 -1.8893 0
M  V30 14454 C 1355.66 0.0211303 -3.45094 0
M  V30 14455 C 1354.77 -1.01377 -4.19937 0
M  V30 14456 C 1353.91 -0.344385 -5.30082 0
M  V30 14457 C 1352.95 -1.3649 -5.96688 0
M  V30 14458 N 1352.08 -0.721026 -6.98388 0
M  V30 14459 H 1356.92 -1.5036 -2.57286 0
M  V30 14460 H 1354.46 -0.75235 -1.26405 0
M  V30 14461 H 1356.42 0.408713 -4.15193 0
M  V30 14462 H 1355.05 0.870721 -3.10835 0
M  V30 14463 H 1354.1 -1.51937 -3.4874 0
M  V30 14464 H 1355.41 -1.78921 -4.65606 0
M  V30 14465 H 1354.57 0.097814 -6.06621 0
M  V30 14466 H 1353.31 0.463216 -4.85495 0
M  V30 14467 H 1352.31 -1.81732 -5.18897 0
M  V30 14468 H 1353.54 -2.17407 -6.43359 0
M  V30 14469 H 1351.48 0.0664057 -6.55966 0
M  V30 14470 H 1351.4 -1.43428 -7.4227 0
M  V30 14471 H 1352.67 -0.30297 -7.78911 0
M  V30 14472 N 1356.9 1.35099 -0.81154 0
M  V30 14473 C 1358.14 1.9788 -0.390695 0
M  V30 14474 C 1358.46 1.6509 1.04903 0
M  V30 14475 O 1359.66 2.21273 1.57324 0
M  V30 14476 C 1358.12 3.54025 -0.647632 0
M  V30 14477 C 1357.73 3.9572 -2.10023 0
M  V30 14478 C 1359.47 4.23492 -0.29239 0
M  V30 14479 C 1357.38 5.44731 -2.30266 0
M  V30 14480 H 1356.31 0.740441 -0.14235 0
M  V30 14481 H 1358.96 1.54098 -0.996294 0
M  V30 14482 H 1357.34 3.9599 0.0279838 0
M  V30 14483 H 1358.52 3.64893 -2.81407 0
M  V30 14484 H 1356.83 3.39157 -2.41581 0
M  V30 14485 H 1359.43 5.33035 -0.421618 0
M  V30 14486 H 1359.77 4.09268 0.76195 0
M  V30 14487 H 1360.3 3.86965 -0.922122 0
M  V30 14488 H 1357.04 5.63928 -3.34163 0
M  V30 14489 H 1356.56 5.7711 -1.63413 0
M  V30 14490 H 1358.24 6.1126 -2.12062 0
M  V30 14491 N 1358.37 0.56548 1.47106 0
M  V30 14492 C 1359.32 -0.177564 2.30116 0
M  V30 14493 C 1360.29 -0.900534 1.39569 0
M  V30 14494 O 1361.48 -0.894603 1.68527 0
M  V30 14495 C 1358.62 -1.19633 3.237 0
M  V30 14496 C 1357.73 -0.47858 4.29341 0
M  V30 14497 C 1356.86 -1.48336 5.10068 0
M  V30 14498 C 1355.9 -0.751049 6.07475 0
M  V30 14499 N 1355.04 -1.70306 6.81132 0
M  V30 14500 H 1359.88 0.536409 2.93132 0
M  V30 14501 H 1357.42 0.276352 1.44481 0
M  V30 14502 H 1359.37 -1.79967 3.76388 0
M  V30 14503 H 1358 -1.87823 2.6253 0
M  V30 14504 H 1357.06 0.239454 3.79646 0
M  V30 14505 H 1358.37 0.0947147 4.9871 0
M  V30 14506 H 1357.52 -2.16 5.66947 0
M  V30 14507 H 1356.26 -2.09058 4.4062 0
M  V30 14508 H 1355.27 -0.0605336 5.49767 0
M  V30 14509 H 1356.49 -0.14946 6.78936 0
M  V30 14510 H 1354.44 -2.2987 6.14407 0
M  V30 14511 H 1354.35 -1.18213 7.46701 0
M  V30 14512 H 1355.62 -2.37058 7.42579 0
M  V30 14513 N 1359.85 -1.54672 0.302354 0
M  V30 14514 C 1361.08 -2.04578 -0.309093 0
M  V30 14515 C 1361.5 -1.17957 -1.47416 0
M  V30 14516 O 1360.85 -0.2055 -1.81339 0
M  V30 14517 C 1360.9 -3.53334 -0.764023 0
M  V30 14518 O 1360.62 -4.36662 0.354674 0
M  V30 14519 C 1362.13 -4.19243 -1.44048 0
M  V30 14520 H 1359.35 -0.667651 -0.0669575 0
M  V30 14521 H 1361.89 -1.99658 0.442379 0
M  V30 14522 H 1360.04 -3.5861 -1.46552 0
M  V30 14523 H 1360.46 -5.245 0.000241188 0
M  V30 14524 H 1361.93 -5.24847 -1.70995 0
M  V30 14525 H 1362.41 -3.69061 -2.38098 0
M  V30 14526 H 1363.02 -4.18046 -0.782132 0
M  V30 14527 N 1361.33 -0.0301034 -1.57571 0
M  V30 14528 C 1362.58 0.647672 -1.91019 0
M  V30 14529 C 1362.89 1.73234 -0.908265 0
M  V30 14530 O 1364.1 2.46682 -1.13402 0
M  V30 14531 C 1362.55 1.20327 -3.3919 0
M  V30 14532 C 1362.16 0.151833 -4.47743 0
M  V30 14533 C 1363.91 1.8575 -3.81703 0
M  V30 14534 C 1361.81 0.719119 -5.87012 0
M  V30 14535 H 1360.74 0.245682 -0.712851 0
M  V30 14536 H 1363.39 -0.0955645 -1.83251 0
M  V30 14537 H 1361.78 1.99814 -3.41892 0
M  V30 14538 H 1362.95 -0.620659 -4.56601 0
M  V30 14539 H 1361.27 -0.403699 -4.14438 0
M  V30 14540 H 1363.86 2.29151 -4.83109 0
M  V30 14541 H 1364.21 2.70061 -3.16817 0
M  V30 14542 H 1364.74 1.1295 -3.81428 0
M  V30 14543 H 1361.48 -0.0858832 -6.55444 0
M  V30 14544 H 1361 1.46008 -5.81758 0
M  V30 14545 H 1362.68 1.20856 -6.35612 0
M  V30 14546 N 1362.81 1.55714 0.243056 0
M  V30 14547 C 1364.06 1.77375 0.968638 0
M  V30 14548 C 1364.38 0.594781 1.85708 0
M  V30 14549 O 1363.65 -0.38928 1.91993 0
M  V30 14550 H 1362.23 0.654174 0.360646 0
M  V30 14551 H 1364.89 1.93157 0.260079 0
M  V30 14552 H 1363.99 2.68674 1.5881 0
M  V30 14553 N 1364.29 -0.50888 1.49158 0
M  V30 14554 C 1365.51 -1.29245 1.62205 0
M  V30 14555 C 1365.94 -1.85845 0.29041 0
M  V30 14556 O 1365.29 -1.6547 -0.740906 0
M  V30 14557 C 1365.34 -2.40415 2.68762 0
M  V30 14558 O 1364.45 -3.44048 2.27387 0
M  V30 14559 H 1363.79 -0.381898 0.543185 0
M  V30 14560 H 1366.32 -0.610076 1.95293 0
M  V30 14561 H 1366.33 -2.86295 2.90688 0
M  V30 14562 H 1365 -1.98584 3.65427 0
M  V30 14563 H 1363.58 -3.04141 2.1576 0
M  V30 14564 N 1365.76 -1.381 -0.759346 0
M  V30 14565 C 1366.99 -1.37213 -1.54855 0
M  V30 14566 C 1367.41 0.0395175 -1.88759 0
M  V30 14567 O 1366.76 1.00462 -1.5236 0
M  V30 14568 C 1366.82 -2.22232 -2.85123 0
M  V30 14569 O 1366.54 -3.57897 -2.52668 0
M  V30 14570 C 1368.04 -2.29461 -3.79292 0
M  V30 14571 H 1365.26 -0.469542 -0.479345 0
M  V30 14572 H 1367.8 -1.81604 -0.940216 0
M  V30 14573 H 1365.96 -1.81317 -3.42349 0
M  V30 14574 H 1366.37 -4.02599 -3.36176 0
M  V30 14575 H 1367.84 -2.93246 -4.67665 0
M  V30 14576 H 1368.32 -1.3066 -4.19315 0
M  V30 14577 H 1368.93 -2.70741 -3.27993 0
M  V30 14578 N 1367.24 0.986894 -1.22875 0
M  V30 14579 C 1368.47 1.7601 -1.08185 0
M  V30 14580 C 1368.88 1.85545 0.370088 0
M  V30 14581 O 1368.22 1.32915 1.26804 0
M  V30 14582 C 1368.29 3.20661 -1.62532 0
M  V30 14583 C 1367.95 3.34655 -3.11216 0
M  V30 14584 C 1368.95 3.21493 -4.08581 0
M  V30 14585 C 1366.63 3.59512 -3.50794 0
M  V30 14586 C 1368.63 3.32983 -5.43508 0
M  V30 14587 C 1366.31 3.70642 -4.85868 0
M  V30 14588 C 1367.31 3.57387 -5.82034 0
M  V30 14589 O 1367 3.68135 -7.14655 0
M  V30 14590 H 1366.73 0.559402 -0.379533 0
M  V30 14591 H 1369.28 1.24905 -1.63058 0
M  V30 14592 H 1367.51 3.72985 -1.02073 0
M  V30 14593 H 1369.2 3.7972 -1.43415 0
M  V30 14594 H 1369.97 3.02193 -3.79347 0
M  V30 14595 H 1365.85 3.68904 -2.76461 0
M  V30 14596 H 1369.39 3.22553 -6.18551 0
M  V30 14597 H 1365.29 3.89451 -5.1478 0
M  V30 14598 H 1366.06 3.84971 -7.22316 0
M  V30 14599 N 1368.72 1.0394 1.18466 0
M  V30 14600 C 1369.65 0.573814 2.20868 0
M  V30 14601 C 1370.63 -0.390956 1.5783 0
M  V30 14602 O 1371.82 -0.305561 1.86007 0
M  V30 14603 C 1368.94 -0.161904 3.38313 0
M  V30 14604 C 1367.99 0.755924 4.19748 0
M  V30 14605 S 1368.82 2.23809 4.86487 0
M  V30 14606 C 1369.98 1.51318 6.07333 0
M  V30 14607 H 1370.21 1.44143 2.60019 0
M  V30 14608 H 1367.74 0.850252 1.2888 0
M  V30 14609 H 1369.7 -0.58022 4.06379 0
M  V30 14610 H 1368.36 -1.00539 2.97575 0
M  V30 14611 H 1367.56 0.187345 5.03652 0
M  V30 14612 H 1367.16 1.11303 3.57054 0
M  V30 14613 H 1369.45 0.805536 6.72694 0
M  V30 14614 H 1370.39 2.32922 6.68695 0
M  V30 14615 H 1370.8 1.00607 5.55462 0
M  V30 14616 N 1370.2 -1.34667 0.818693 0
M  V30 14617 C 1371.16 -2.27908 0.243037 0
M  V30 14618 C 1372.16 -1.50106 -0.576622 0
M  V30 14619 O 1373.35 -1.69701 -0.393342 0
M  V30 14620 C 1370.48 -3.34455 -0.659759 0
M  V30 14621 H 1371.68 -2.80332 1.06555 0
M  V30 14622 H 1369.23 -1.44727 0.590237 0
M  V30 14623 H 1369.96 -2.87238 -1.50549 0
M  V30 14624 H 1369.75 -3.92031 -0.073567 0
M  V30 14625 H 1371.24 -4.04016 -1.05646 0
M  V30 14626 N 1371.68 -0.573274 -1.46804 0
M  V30 14627 C 1372.64 0.155066 -2.28675 0
M  V30 14628 C 1373.64 0.827706 -1.37861 0
M  V30 14629 O 1374.83 0.681105 -1.60333 0
M  V30 14630 C 1371.96 1.22864 -3.1799 0
M  V30 14631 H 1373.15 -0.564305 -2.94543 0
M  V30 14632 H 1370.71 -0.330855 -1.52758 0
M  V30 14633 H 1371.44 1.97989 -2.56848 0
M  V30 14634 H 1371.23 0.750936 -3.84842 0
M  V30 14635 H 1372.72 1.73974 -3.79635 0
M  V30 14636 N 1373.15 1.5451 -0.310553 0
M  V30 14637 C 1374.4 2.00623 0.296343 0
M  V30 14638 C 1374.73 1.19855 1.52802 0
M  V30 14639 O 1374.01 0.277468 1.92511 0
M  V30 14640 C 1374.29 3.54305 0.643448 0
M  V30 14641 C 1374.14 4.45807 -0.598029 0
M  V30 14642 C 1375.46 4.14958 1.46623 0
M  V30 14643 H 1372.58 0.729303 0.106236 0
M  V30 14644 H 1375.22 1.85196 -0.424549 0
M  V30 14645 H 1373.37 3.67581 1.25762 0
M  V30 14646 H 1375.05 4.44421 -1.23643 0
M  V30 14647 H 1373.29 4.16014 -1.22944 0
M  V30 14648 H 1373.96 5.51124 -0.310883 0
M  V30 14649 H 1376.44 4.05176 0.947199 0
M  V30 14650 H 1375.31 5.22627 1.67787 0
M  V30 14651 H 1375.57 3.67445 2.45839 0
M  V30 14652 N 1374.63 0.0384594 1.57553 0
M  V30 14653 C 1375.88 -0.636879 1.91803 0
M  V30 14654 C 1376.2 -1.72128 0.916347 0
M  V30 14655 O 1375.47 -1.95858 -0.0407405 0
M  V30 14656 H 1374.05 -0.238237 0.707992 0
M  V30 14657 H 1376.71 0.0884651 1.94699 0
M  V30 14658 H 1375.81 -1.08364 2.92683 0
M  V30 14659 N 1376.11 -1.55841 -0.234795 0
M  V30 14660 C 1377.04 -1.94344 -1.29432 0
M  V30 14661 C 1378.02 -0.809912 -1.49581 0
M  V30 14662 O 1379.21 -1.07117 -1.61986 0
M  V30 14663 C 1376.34 -2.24866 -2.64675 0
M  V30 14664 C 1375.29 -3.40584 -2.59203 0
M  V30 14665 C 1374.62 -3.56678 -3.98353 0
M  V30 14666 C 1375.92 -4.75935 -2.15135 0
M  V30 14667 H 1377.61 -2.83096 -0.97454 0
M  V30 14668 H 1375.16 -1.36205 -0.467355 0
M  V30 14669 H 1377.11 -2.50392 -3.38942 0
M  V30 14670 H 1375.83 -1.32953 -2.98314 0
M  V30 14671 H 1374.49 -3.15087 -1.87393 0
M  V30 14672 H 1374.14 -2.62164 -4.29277 0
M  V30 14673 H 1373.84 -4.34503 -3.95577 0
M  V30 14674 H 1375.37 -3.84538 -4.74302 0
M  V30 14675 H 1376.78 -5.00753 -2.7914 0
M  V30 14676 H 1375.18 -5.56949 -2.23446 0
M  V30 14677 H 1376.25 -4.72182 -1.10328 0
M  V30 14678 N 1377.59 0.500963 -1.49426 0
M  V30 14679 C 1378.55 1.58478 -1.65582 0
M  V30 14680 C 1379.55 1.51897 -0.52762 0
M  V30 14681 O 1380.74 1.55049 -0.794071 0
M  V30 14682 C 1377.87 2.9813 -1.65322 0
M  V30 14683 H 1379.07 1.45483 -2.6225 0
M  V30 14684 H 1376.62 0.725199 -1.38458 0
M  V30 14685 H 1377.36 3.16602 -0.702384 0
M  V30 14686 H 1377.14 3.04315 -2.47255 0
M  V30 14687 H 1378.63 3.76874 -1.79878 0
M  V30 14688 N 1379.07 1.38501 0.752011 0
M  V30 14689 C 1380.48 1.31086 1.32941 0
M  V30 14690 C 1380.83 -0.0326248 1.96173 0
M  V30 14691 O 1379.95 -0.934692 1.95173 0
M  V30 14692 C 1380.55 2.37395 2.41721 0
M  V30 14693 C 1379.11 2.33553 2.95177 0
M  V30 14694 C 1378.26 2.20178 1.68573 0
M  V30 14695 H 1381.21 1.48836 0.550771 0
M  V30 14696 H 1381.23 2.03202 3.21697 0
M  V30 14697 H 1380.74 3.35164 1.9567 0
M  V30 14698 H 1378.84 1.39371 3.45553 0
M  V30 14699 H 1378.95 3.27753 3.49449 0
M  V30 14700 H 1377.32 1.67057 1.9226 0
M  V30 14701 H 1378.1 3.19891 1.24599 0
M  V30 14702 N 1380.55 -0.980364 1.23396 0
M  V30 14703 C 1381.77 -1.75689 1.09275 0
M  V30 14704 C 1382.19 -1.85418 -0.355773 0
M  V30 14705 O 1381.55 -1.33337 -1.24609 0
M  V30 14706 C 1381.6 -3.18378 1.71223 0
M  V30 14707 O 1381.32 -3.09154 3.10411 0
M  V30 14708 C 1382.82 -4.12425 1.62545 0
M  V30 14709 H 1380.04 -0.551354 0.382427 0
M  V30 14710 H 1382.58 -1.23169 1.63247 0
M  V30 14711 H 1380.74 -3.67925 1.21285 0
M  V30 14712 H 1381.15 -3.9898 3.40464 0
M  V30 14713 H 1382.63 -5.1025 2.10592 0
M  V30 14714 H 1383.1 -4.35296 0.584275 0
M  V30 14715 H 1383.71 -3.68782 2.1185 0
M  V30 14716 N 1382.02 -1.04567 -1.17913 0
M  V30 14717 C 1383.25 -0.772146 -1.92491 0
M  V30 14718 C 1383.67 0.665297 -1.75942 0
M  V30 14719 O 1383.03 1.46144 -1.07292 0
M  V30 14720 C 1383.08 -1.14966 -3.41782 0
M  V30 14721 O 1382.18 -0.278091 -4.11461 0
M  V30 14722 H 1381.52 -0.283715 -0.600335 0
M  V30 14723 H 1384.05 -1.39685 -1.49496 0
M  V30 14724 H 1384.06 -1.11374 -3.92505 0
M  V30 14725 H 1382.74 -2.1968 -3.53148 0
M  V30 14726 H 1381.32 -0.374073 -3.71019 0
M  V30 14727 N 1383.5 1.34231 -0.825823 0
M  V30 14728 C 1384.75 1.97805 -0.414456 0
M  V30 14729 C 1385.07 1.65786 1.02664 0
M  V30 14730 O 1384.34 0.950069 1.7132 0
M  V30 14731 H 1382.92 0.73173 -0.150265 0
M  V30 14732 H 1385.58 1.63819 -1.05591 0
M  V30 14733 H 1384.68 3.07466 -0.535829 0
M  V30 14734 N 1384.98 0.581051 1.46498 0
M  V30 14735 C 1386.21 0.0715652 2.06776 0
M  V30 14736 C 1386.62 -1.23267 1.43006 0
M  V30 14737 O 1385.98 -1.74489 0.534776 0
M  V30 14738 C 1386.03 -0.102666 3.61354 0
M  V30 14739 O 1385.75 1.14995 4.22739 0
M  V30 14740 C 1387.25 -0.646692 4.38558 0
M  V30 14741 H 1384.47 0.0566964 0.6686 0
M  V30 14742 H 1387.02 0.801248 1.8815 0
M  V30 14743 H 1385.17 -0.782564 3.79414 0
M  V30 14744 H 1385.59 0.962718 5.15589 0
M  V30 14745 H 1387.06 -0.717791 5.47313 0
M  V30 14746 H 1387.54 -1.6633 4.06486 0
M  V30 14747 H 1388.14 -0.00171739 4.253 0
M  V30 14748 N 1386.46 -1.54343 0.318742 0
M  V30 14749 C 1387.4 -2.24166 -0.549397 0
M  V30 14750 C 1388.37 -1.23068 -1.1155 0
M  V30 14751 O 1389.56 -1.51737 -1.15674 0
M  V30 14752 C 1386.7 -2.99938 -1.70678 0
M  V30 14753 C 1385.81 -4.15844 -1.17037 0
M  V30 14754 C 1384.95 -4.79158 -2.29305 0
M  V30 14755 C 1383.99 -5.87176 -1.72888 0
M  V30 14756 N 1383.12 -6.44372 -2.78799 0
M  V30 14757 H 1387.96 -2.97954 0.0526018 0
M  V30 14758 H 1385.5 -1.47052 0.0377307 0
M  V30 14759 H 1387.46 -3.42113 -2.38777 0
M  V30 14760 H 1386.09 -2.28494 -2.28014 0
M  V30 14761 H 1385.14 -3.78486 -0.381082 0
M  V30 14762 H 1386.45 -4.93612 -0.717507 0
M  V30 14763 H 1385.61 -5.24277 -3.05317 0
M  V30 14764 H 1384.35 -4.0076 -2.77926 0
M  V30 14765 H 1383.35 -5.41465 -0.953714 0
M  V30 14766 H 1384.58 -6.67469 -1.2515 0
M  V30 14767 H 1382.52 -5.6885 -3.2672 0
M  V30 14768 H 1382.44 -7.17539 -2.38062 0
M  V30 14769 H 1383.71 -6.94147 -3.54655 0
M  V30 14770 N 1387.94 -0.0468143 -1.5753 0
M  V30 14771 C 1388.9 0.914225 -2.10177 0
M  V30 14772 C 1389.9 1.24271 -1.02045 0
M  V30 14773 O 1391.09 1.18012 -1.28136 0
M  V30 14774 C 1388.22 2.22544 -2.58238 0
M  V30 14775 H 1389.41 0.457922 -2.96383 0
M  V30 14776 H 1386.97 0.20152 -1.54995 0
M  V30 14777 H 1387.7 2.72765 -1.75413 0
M  V30 14778 H 1387.49 2.00007 -3.37253 0
M  V30 14779 H 1388.98 2.91392 -2.99133 0
M  V30 14780 N 1389.41 1.55964 0.226527 0
M  V30 14781 C 1390.36 1.92007 1.28069 0
M  V30 14782 C 1391.33 0.776666 1.46823 0
M  V30 14783 O 1392.52 1.03213 1.60474 0
M  V30 14784 C 1389.66 2.23784 2.62707 0
M  V30 14785 C 1388.77 3.51034 2.51792 0
M  V30 14786 C 1387.9 3.72281 3.7892 0
M  V30 14787 C 1386.94 4.93062 3.62707 0
M  V30 14788 N 1386.08 5.10725 4.81772 0
M  V30 14789 H 1390.92 2.81898 0.96631 0
M  V30 14790 H 1388.46 1.39529 0.465847 0
M  V30 14791 H 1390.42 2.40217 3.41104 0
M  V30 14792 H 1389.05 1.37073 2.92251 0
M  V30 14793 H 1388.1 3.42822 1.64856 0
M  V30 14794 H 1389.41 4.39582 2.35731 0
M  V30 14795 H 1388.56 3.88783 4.6576 0
M  V30 14796 H 1387.3 2.82004 3.97901 0
M  V30 14797 H 1386.31 4.76515 2.7425 0
M  V30 14798 H 1387.53 5.84819 3.45201 0
M  V30 14799 H 1385.48 4.2339 5.01076 0
M  V30 14800 H 1385.4 5.93397 4.68419 0
M  V30 14801 H 1386.66 5.31658 5.70053 0
M  V30 14802 N 1390.89 -0.493031 1.4969 0
M  V30 14803 C 1391.84 -1.59367 1.66945 0
M  V30 14804 C 1392.81 -1.58049 0.510842 0
M  V30 14805 O 1393.99 -1.75915 0.738822 0
M  V30 14806 C 1391.13 -2.97472 1.74941 0
M  V30 14807 C 1390.25 -3.08745 3.02159 0
M  V30 14808 C 1389.38 -4.37632 3.01085 0
M  V30 14809 C 1388.42 -4.42567 4.22849 0
M  V30 14810 N 1387.56 -5.62892 4.19639 0
M  V30 14811 H 1392.4 -1.4396 2.6092 0
M  V30 14812 H 1389.94 -0.700297 1.29361 0
M  V30 14813 H 1391.89 -3.7753 1.77558 0
M  V30 14814 H 1390.52 -3.11564 0.844252 0
M  V30 14815 H 1389.58 -2.217 3.09117 0
M  V30 14816 H 1390.89 -3.08251 3.92151 0
M  V30 14817 H 1390.04 -5.26018 3.02309 0
M  V30 14818 H 1388.78 -4.40702 2.08885 0
M  V30 14819 H 1387.79 -3.52581 4.21861 0
M  V30 14820 H 1389.01 -4.41205 5.1625 0
M  V30 14821 H 1386.96 -5.6679 3.30281 0
M  V30 14822 H 1386.87 -5.64048 5.03374 0
M  V30 14823 H 1388.14 -6.53464 4.24977 0
M  V30 14824 N 1392.37 -1.38898 -0.744656 0
M  V30 14825 C 1393.6 -1.3903 -1.53901 0
M  V30 14826 C 1394.02 0.0156607 -1.88093 0
M  V30 14827 O 1393.38 1.00012 -1.51219 0
M  V30 14828 C 1393.43 -2.2609 -2.80919 0
M  V30 14829 O 1392.53 -1.68414 -3.76444 0
M  V30 14830 H 1391.87 -0.473854 -0.465144 0
M  V30 14831 H 1394.4 -1.82773 -0.919525 0
M  V30 14832 H 1394.41 -2.40264 -3.29754 0
M  V30 14833 H 1393.09 -3.28271 -2.55364 0
M  V30 14834 H 1391.66 -1.63431 -3.35179 0
M  V30 14835 N 1393.85 0.973806 -1.23914 0
M  V30 14836 C 1395.1 1.71027 -1.06923 0
M  V30 14837 C 1395.41 1.91612 0.392947 0
M  V30 14838 O 1396.62 2.62771 0.682927 0
M  V30 14839 C 1395.07 3.07811 -1.86496 0
M  V30 14840 C 1394.68 2.9509 -3.37085 0
M  V30 14841 C 1396.42 3.85371 -1.78015 0
M  V30 14842 C 1394.33 4.27145 -4.09024 0
M  V30 14843 H 1393.26 0.641329 -0.396501 0
M  V30 14844 H 1395.91 1.08562 -1.47941 0
M  V30 14845 H 1394.29 3.71069 -1.38288 0
M  V30 14846 H 1395.47 2.4088 -3.92827 0
M  V30 14847 H 1393.78 2.30999 -3.46451 0
M  V30 14848 H 1396.38 4.83147 -2.2907 0
M  V30 14849 H 1396.72 4.09594 -0.744196 0
M  V30 14850 H 1397.26 3.28827 -2.23869 0
M  V30 14851 H 1394 4.08117 -5.12953 0
M  V30 14852 H 1393.52 4.81194 -3.58068 0
M  V30 14853 H 1395.19 4.95798 -4.15685 0
M  V30 14854 N 1395.33 1.05191 1.17357 0
M  V30 14855 C 1396.55 0.782343 1.92079 0
M  V30 14856 C 1396.98 -0.655957 1.76292 0
M  V30 14857 O 1396.33 -1.45573 1.08065 0
M  V30 14858 C 1396.38 1.16777 3.41168 0
M  V30 14859 O 1395.49 0.299908 4.11308 0
M  V30 14860 H 1394.83 0.286894 0.598822 0
M  V30 14861 H 1397.36 1.40476 1.48754 0
M  V30 14862 H 1397.37 1.13454 3.91909 0
M  V30 14863 H 1396.04 2.2155 3.51978 0
M  V30 14864 H 1394.62 0.393744 3.70815 0
M  V30 14865 N 1396.8 -1.33791 0.83293 0
M  V30 14866 C 1398.03 -2.0272 0.438111 0
M  V30 14867 C 1398.45 -1.62279 -0.951163 0
M  V30 14868 O 1397.81 -0.812406 -1.62079 0
M  V30 14869 C 1397.86 -3.5623 0.559698 0
M  V30 14870 O 1396.96 -4.10292 -0.41646 0
M  V30 14871 H 1396.31 -0.639438 0.178928 0
M  V30 14872 H 1398.84 -1.70821 1.12612 0
M  V30 14873 H 1398.85 -4.0563 0.439148 0
M  V30 14874 H 1397.52 -3.8501 1.5729 0
M  V30 14875 H 1396.1 -3.72034 -0.25396 0
M  V30 14876 N 1398.28 -0.588812 -1.46187 0
M  V30 14877 C 1399.23 0.161973 -2.27424 0
M  V30 14878 C 1400.22 0.856178 -1.36229 0
M  V30 14879 O 1401.41 0.749266 -1.60359 0
M  V30 14880 C 1398.54 1.17104 -3.2271 0
M  V30 14881 C 1397.62 0.478637 -4.2139 0
M  V30 14882 N 1398.01 -0.46921 -5.03619 0
M  V30 14883 C 1396.31 0.728608 -4.40008 0
M  V30 14884 C 1397.01 -0.874455 -5.7509 0
M  V30 14885 N 1395.99 -0.222267 -5.43145 0
M  V30 14886 H 1399.79 -0.566306 -2.88392 0
M  V30 14887 H 1397.31 -0.41106 -1.57112 0
M  V30 14888 H 1399.3 1.72314 -3.79623 0
M  V30 14889 H 1397.96 1.90008 -2.63301 0
M  V30 14890 H 1398.97 -0.84504 -5.10959 0
M  V30 14891 H 1395.65 1.44375 -3.91742 0
M  V30 14892 H 1397.04 -1.65514 -6.51195 0
M  V30 14893 N 1399.76 1.54172 -0.326923 0
M  V30 14894 C 1400.69 2.27402 0.530154 0
M  V30 14895 C 1401.67 1.28325 1.11655 0
M  V30 14896 O 1402.86 1.57142 1.14105 0
M  V30 14897 C 1399.99 3.03435 1.68951 0
M  V30 14898 C 1398.94 4.09877 1.23226 0
M  V30 14899 C 1398.27 4.7377 2.47882 0
M  V30 14900 C 1399.57 5.21161 0.344698 0
M  V30 14901 H 1401.26 2.99291 -0.0806959 0
M  V30 14902 H 1398.81 1.43944 -0.0402511 0
M  V30 14903 H 1400.76 3.53396 2.29541 0
M  V30 14904 H 1399.48 2.29169 2.327 0
M  V30 14905 H 1398.14 3.60805 0.649267 0
M  V30 14906 H 1397.79 3.96116 3.10002 0
M  V30 14907 H 1397.49 5.45674 2.17977 0
M  V30 14908 H 1399.01 5.26507 3.09229 0
M  V30 14909 H 1400.43 5.66859 0.856979 0
M  V30 14910 H 1398.83 5.99941 0.138276 0
M  V30 14911 H 1399.9 4.80874 -0.623575 0
M  V30 14912 N 1401.24 0.0551678 1.57503 0
M  V30 14913 C 1402.46 -0.630692 1.97578 0
M  V30 14914 C 1402.89 -1.63348 0.932686 0
M  V30 14915 O 1402.25 -1.81004 -0.103632 0
M  V30 14916 C 1402.29 -1.29049 3.36718 0
M  V30 14917 O 1401.4 -2.40621 3.34926 0
M  V30 14918 H 1400.74 -0.163625 0.643524 0
M  V30 14919 H 1403.27 0.124753 2.04219 0
M  V30 14920 H 1403.28 -1.64124 3.73534 0
M  V30 14921 H 1401.95 -0.55559 4.12172 0
M  V30 14922 H 1400.53 -2.07463 3.0986 0
M  V30 14923 N 1402.72 -1.56081 -0.218252 0
M  V30 14924 C 1403.94 -1.83334 -0.958964 0
M  V30 14925 C 1404.36 -0.63472 -1.77811 0
M  V30 14926 O 1403.72 0.396729 -1.78136 0
M  V30 14927 C 1403.77 -3.09141 -1.87387 0
M  V30 14928 O 1403.49 -4.24379 -1.08783 0
M  V30 14929 C 1404.99 -3.49405 -2.7282 0
M  V30 14930 H 1402.21 -0.609375 -0.280898 0
M  V30 14931 H 1404.75 -2.03174 -0.232486 0
M  V30 14932 H 1402.91 -2.91267 -2.55426 0
M  V30 14933 H 1403.32 -4.9587 -1.70919 0
M  V30 14934 H 1404.8 -4.40461 -3.32713 0
M  V30 14935 H 1405.27 -2.71311 -3.45379 0
M  V30 14936 H 1405.88 -3.6973 -2.1019 0
M  V30 14937 N 1404.2 0.485086 -1.49949 0
M  V30 14938 C 1405.13 1.59312 -1.7071 0
M  V30 14939 C 1406.11 1.6076 -0.555896 0
M  V30 14940 O 1407.29 1.77249 -0.793504 0
M  V30 14941 C 1404.42 2.97718 -1.78834 0
M  V30 14942 C 1403.38 3.11136 -2.93902 0
M  V30 14943 C 1402.7 4.51051 -2.87154 0
M  V30 14944 C 1404 2.89665 -4.34617 0
M  V30 14945 H 1405.7 1.42192 -2.6348 0
M  V30 14946 H 1403.24 0.68262 -1.26792 0
M  V30 14947 H 1405.19 3.75148 -1.91943 0
M  V30 14948 H 1403.92 3.15963 -0.826744 0
M  V30 14949 H 1402.58 2.36135 -2.80421 0
M  V30 14950 H 1402.23 4.66195 -1.88869 0
M  V30 14951 H 1401.93 4.60967 -3.64394 0
M  V30 14952 H 1403.45 5.3052 -3.02293 0
M  V30 14953 H 1404.86 3.56853 -4.48697 0
M  V30 14954 H 1403.26 3.11039 -5.13201 0
M  V30 14955 H 1404.33 1.85642 -4.47956 0
M  V30 14956 N 1405.67 1.39291 0.737279 0
M  V30 14957 C 1406.64 1.37607 1.83294 0
M  V30 14958 C 1407.64 0.273594 1.58455 0
M  V30 14959 O 1408.83 0.531375 1.65898 0
M  V30 14960 C 1405.96 1.14642 3.21045 0
M  V30 14961 H 1407.15 2.35102 1.86191 0
M  V30 14962 H 1404.7 1.24822 0.940696 0
M  V30 14963 H 1405.44 0.178202 3.2381 0
M  V30 14964 H 1405.22 1.94479 3.40471 0
M  V30 14965 H 1406.71 1.162 4.01108 0
M  V30 14966 N 1407.15 -0.967221 1.24429 0
M  V30 14967 C 1408.43 -1.68564 0.992253 0
M  V30 14968 C 1408.81 -2.05446 -0.485301 0
M  V30 14969 O 1408.16 -1.75798 -1.45971 0
M  V30 14970 C 1408.37 -2.91728 1.91562 0
M  V30 14971 C 1409.71 -3.63957 2.18678 0
M  V30 14972 O 1410.74 -3.01786 1.89219 0
M  V30 14973 O 1409.6 -4.75875 2.68711 0
M  V30 14974 H 1406.69 -0.736939 0.375299 0
M  V30 14975 H 1409.24 -1.02127 1.35529 0
M  V30 14976 H 1408.01 -2.61168 2.91388 0
M  V30 14977 H 1407.63 -3.65898 1.55577 0
M  V30 14978 N 1408.63 -1.05812 -1.16797 0
M  V30 14979 C 1409.88 -0.771923 -1.8721 0
M  V30 14980 C 1410.2 0.701365 -1.81414 0
M  V30 14981 O 1409.46 1.5292 -1.22122 0
M  V30 14982 C 1409.76 -1.20565 -3.3645 0
M  V30 14983 C 1409.42 -2.68222 -3.62447 0
M  V30 14984 C 1408.09 -3.08556 -3.69251 0
M  V30 14985 C 1410.44 -3.63607 -3.73416 0
M  V30 14986 C 1407.77 -4.43126 -3.84521 0
M  V30 14987 C 1410.12 -4.97918 -3.90205 0
M  V30 14988 C 1408.78 -5.37897 -3.9525 0
M  V30 14989 H 1408.05 -0.282467 -0.68505 0
M  V30 14990 H 1410.7 -1.32633 -1.38133 0
M  V30 14991 H 1409 -0.570347 -3.87626 0
M  V30 14992 H 1410.7 -0.961326 -3.89306 0
M  V30 14993 H 1407.29 -2.3599 -3.5778 0
M  V30 14994 H 1411.48 -3.33581 -3.67474 0
M  V30 14995 H 1406.73 -4.73593 -3.86677 0
M  V30 14996 H 1410.91 -5.71716 -3.97635 0
M  V30 14997 H 1408.53 -6.42176 -4.06834 0
M  V30 14998 N 1410.11 1.33347 -0.840014 0
M  V30 14999 C 1411.07 2.27492 -0.279264 0
M  V30 15000 C 1412.07 1.51004 0.552669 0
M  V30 15001 O 1413.26 1.70305 0.366295 0
M  V30 15002 C 1410.39 3.35462 0.606466 0
M  V30 15003 H 1411.59 2.78601 -1.11001 0
M  V30 15004 H 1409.14 1.4377 -0.613187 0
M  V30 15005 H 1409.87 2.89596 1.45961 0
M  V30 15006 H 1409.66 3.92098 0.0111889 0
M  V30 15007 H 1411.15 4.05645 0.992052 0
M  V30 15008 N 1411.59 0.596556 1.45873 0
M  V30 15009 C 1412.83 0.0850976 2.0152 0
M  V30 15010 C 1413.15 -1.28799 1.47208 0
M  V30 15011 O 1414.35 -1.89156 1.94762 0
M  V30 15012 C 1412.81 0.101488 3.59757 0
M  V30 15013 C 1412.42 1.47374 4.23066 0
M  V30 15014 C 1414.16 -0.355303 4.2301 0
M  V30 15015 C 1412.07 1.44711 5.73422 0
M  V30 15016 H 1411 0.0280444 0.753478 0
M  V30 15017 H 1413.65 0.750255 1.67462 0
M  V30 15018 H 1412.03 -0.630108 3.90955 0
M  V30 15019 H 1413.21 2.22617 4.03458 0
M  V30 15020 H 1411.52 1.87171 3.71962 0
M  V30 15021 H 1414.12 -0.394236 5.33245 0
M  V30 15022 H 1414.46 -1.37573 3.92911 0
M  V30 15023 H 1414.99 0.32267 3.96489 0
M  V30 15024 H 1411.73 2.44479 6.08203 0
M  V30 15025 H 1411.25 0.737102 5.95254 0
M  V30 15026 H 1412.93 1.16598 6.36407 0
M  V30 15027 N 1413.06 -1.53996 0.335095 0
M  V30 15028 C 1413.97 -2.28436 -0.534244 0
M  V30 15029 C 1414.99 -1.33224 -1.11926 0
M  V30 15030 O 1416.17 -1.66252 -1.13676 0
M  V30 15031 C 1413.23 -3.03634 -1.67354 0
M  V30 15032 C 1412.29 -4.14455 -1.11916 0
M  V30 15033 C 1411.52 -4.86058 -2.20416 0
M  V30 15034 O 1411.75 -4.57263 -3.40979 0
M  V30 15035 O 1410.68 -5.72704 -1.85185 0
M  V30 15036 H 1414.51 -3.03618 0.0706314 0
M  V30 15037 H 1412.09 -1.49062 0.100409 0
M  V30 15038 H 1413.97 -3.50687 -2.33659 0
M  V30 15039 H 1412.65 -2.31317 -2.26438 0
M  V30 15040 H 1411.56 -3.71725 -0.420871 0
M  V30 15041 H 1412.89 -4.8885 -0.573295 0
M  V30 15042 N 1414.54 -0.0635198 -1.57472 0
M  V30 15043 C 1415.47 0.942339 -2.07835 0
M  V30 15044 C 1416.45 1.29629 -0.981587 0
M  V30 15045 O 1417.64 1.40702 -1.25439 0
M  V30 15046 C 1414.76 2.25284 -2.52913 0
M  V30 15047 C 1413.81 2.05105 -3.73944 0
M  V30 15048 S 1414.64 1.31802 -5.19026 0
M  V30 15049 C 1415.8 2.64149 -5.67429 0
M  V30 15050 H 1416.03 0.513772 -2.92827 0
M  V30 15051 H 1413.56 0.149049 -1.53679 0
M  V30 15052 H 1415.52 3.00607 -2.79546 0
M  V30 15053 H 1414.18 2.65266 -1.68204 0
M  V30 15054 H 1413.38 3.02071 -4.03447 0
M  V30 15055 H 1412.98 1.3792 -3.47641 0
M  V30 15056 H 1415.27 3.60272 -5.73769 0
M  V30 15057 H 1416.21 2.39267 -6.66451 0
M  V30 15058 H 1416.62 2.70975 -4.9521 0
M  V30 15059 N 1416.02 1.56195 0.209972 0
M  V30 15060 C 1417.27 1.79745 0.932638 0
M  V30 15061 C 1417.59 0.634252 1.83868 0
M  V30 15062 O 1416.85 -0.380798 1.91959 0
M  V30 15063 C 1417.15 3.09154 1.79328 0
M  V30 15064 C 1416.81 4.38754 1.03949 0
M  V30 15065 C 1415.48 4.73965 0.831308 0
M  V30 15066 C 1417.83 5.18718 0.508031 0
M  V30 15067 C 1415.16 5.86646 0.0799547 0
M  V30 15068 C 1417.51 6.32182 -0.230037 0
M  V30 15069 C 1416.17 6.65986 -0.449366 0
M  V30 15070 H 1415.44 0.657732 0.341276 0
M  V30 15071 H 1418.09 1.90453 0.199998 0
M  V30 15072 H 1416.39 2.93618 2.59414 0
M  V30 15073 H 1418.09 3.24578 2.35478 0
M  V30 15074 H 1414.68 4.11114 1.21174 0
M  V30 15075 H 1418.87 4.91941 0.656306 0
M  V30 15076 H 1414.12 6.11318 -0.100092 0
M  V30 15077 H 1418.3 6.93367 -0.649296 0
M  V30 15078 H 1415.92 7.53142 -1.03349 0
M  V30 15079 N 1417.5 -0.477127 1.50204 0
M  V30 15080 C 1418.77 -1.23837 1.51406 0
M  V30 15081 C 1419.15 -2.09551 0.255278 0
M  V30 15082 O 1418.5 -2.15437 -0.761535 0
M  V30 15083 C 1418.71 -2.0746 2.80644 0
M  V30 15084 C 1420.06 -2.65852 3.31071 0
M  V30 15085 O 1421.08 -2.17708 2.81925 0
M  V30 15086 O 1419.94 -3.53556 4.16726 0
M  V30 15087 H 1417.04 -0.561638 0.607036 0
M  V30 15088 H 1419.58 -0.489442 1.62489 0
M  V30 15089 H 1418.36 -1.44258 3.63738 0
M  V30 15090 H 1417.98 -2.895 2.72536 0
M  V30 15091 N 1418.98 -1.3968 -0.729882 0
M  V30 15092 C 1420.22 -1.37385 -1.49175 0
M  V30 15093 C 1420.56 0.0285839 -1.94179 0
M  V30 15094 O 1419.83 0.994516 -1.67152 0
M  V30 15095 C 1420.11 -2.35075 -2.72785 0
M  V30 15096 C 1419.97 -3.84282 -2.33767 0
M  V30 15097 C 1421.29 -2.30515 -3.74901 0
M  V30 15098 H 1418.4 -0.500359 -0.541119 0
M  V30 15099 H 1421.05 -1.7071 -0.834152 0
M  V30 15100 H 1419.2 -2.06787 -3.28894 0
M  V30 15101 H 1420.87 -4.2334 -1.8325 0
M  V30 15102 H 1419.11 -4.00809 -1.65935 0
M  V30 15103 H 1419.78 -4.48131 -3.22309 0
M  V30 15104 H 1422.26 -2.55539 -3.28389 0
M  V30 15105 H 1421.13 -3.00939 -4.5905 0
M  V30 15106 H 1421.4 -1.3119 -4.22187 0
M  V30 15107 N 1420.45 0.960609 -1.2494 0
M  V30 15108 C 1421.38 2.074 -1.07274 0
M  V30 15109 C 1422.37 1.70092 0.0164365 0
M  V30 15110 O 1423.55 1.93604 -0.151975 0
M  V30 15111 C 1420.68 3.40491 -0.684317 0
M  V30 15112 C 1419.63 3.91784 -1.72306 0
M  V30 15113 C 1418.96 5.21301 -1.18949 0
M  V30 15114 C 1420.26 4.18829 -3.12056 0
M  V30 15115 H 1421.95 2.22438 -2.00404 0
M  V30 15116 H 1419.5 1.06888 -0.964937 0
M  V30 15117 H 1421.45 4.17826 -0.547686 0
M  V30 15118 H 1420.18 3.25374 0.282687 0
M  V30 15119 H 1418.84 3.16613 -1.84802 0
M  V30 15120 H 1418.48 5.02549 -0.212892 0
M  V30 15121 H 1418.18 5.56588 -1.8837 0
M  V30 15122 H 1419.71 6.01238 -1.06513 0
M  V30 15123 H 1421.12 4.86844 -3.02748 0
M  V30 15124 H 1419.52 4.6536 -3.78894 0
M  V30 15125 H 1420.59 3.25333 -3.59564 0
M  V30 15126 N 1421.93 1.0643 1.16234 0
M  V30 15127 C 1423.21 0.695256 1.82827 0
M  V30 15128 C 1423.59 -0.823242 1.94386 0
M  V30 15129 O 1422.94 -1.73406 1.48804 0
M  V30 15130 C 1423.15 1.3988 3.19741 0
M  V30 15131 C 1424.5 1.54489 3.95498 0
M  V30 15132 O 1425.52 1.35882 3.29264 0
M  V30 15133 O 1424.38 1.85027 5.14225 0
M  V30 15134 H 1421.47 0.246285 0.789476 0
M  V30 15135 H 1424.02 1.16466 1.23426 0
M  V30 15136 H 1422.79 2.43419 3.06371 0
M  V30 15137 H 1422.41 0.91957 3.8682 0
M  V30 15138 N 1423.41 -1.329 0.847073 0
M  V30 15139 C 1424.32 -2.32815 0.288878 0
M  V30 15140 C 1425.34 -1.63715 -0.589363 0
M  V30 15141 O 1426.51 -1.9531 -0.491537 0
M  V30 15142 C 1423.58 -3.42778 -0.519988 0
M  V30 15143 C 1422.64 -4.27584 0.383496 0
M  V30 15144 C 1421.87 -5.32296 -0.386862 0
M  V30 15145 O 1422.09 -5.4698 -1.61768 0
M  V30 15146 O 1421.03 -6.01408 0.2434 0
M  V30 15147 H 1424.85 -2.82434 1.11647 0
M  V30 15148 H 1422.44 -1.36388 0.609807 0
M  V30 15149 H 1424.32 -4.09862 -0.979357 0
M  V30 15150 H 1423 -2.95362 -1.3245 0
M  V30 15151 H 1421.9 -3.63338 0.890879 0
M  V30 15152 H 1423.24 -4.78505 1.15299 0
M  V30 15153 N 1424.89 -0.604284 -1.45555 0
M  V30 15154 C 1426.14 -0.0957836 -2.01472 0
M  V30 15155 C 1426.45 1.28016 -1.47889 0
M  V30 15156 O 1427.66 1.88121 -1.95762 0
M  V30 15157 C 1426.11 -0.120566 -3.59698 0
M  V30 15158 C 1425.72 -1.49616 -4.22278 0
M  V30 15159 C 1427.46 0.332865 -4.23193 0
M  V30 15160 C 1425.37 -1.4775 -5.72646 0
M  V30 15161 H 1424.3 -0.0320399 -0.753319 0
M  V30 15162 H 1426.95 -0.759125 -1.67061 0
M  V30 15163 H 1425.33 0.609365 -3.91283 0
M  V30 15164 H 1426.51 -2.24753 -4.02272 0
M  V30 15165 H 1424.82 -1.89141 -3.70965 0
M  V30 15166 H 1427.42 0.365951 -5.33446 0
M  V30 15167 H 1427.76 1.35487 -3.93635 0
M  V30 15168 H 1428.3 -0.343692 -3.96313 0
M  V30 15169 H 1425.04 -2.47701 -6.06898 0
M  V30 15170 H 1424.56 -0.768659 -5.94854 0
M  V30 15171 H 1426.23 -1.19971 -6.3578 0
M  V30 15172 N 1426.37 1.53816 -0.343257 0
M  V30 15173 C 1427.31 2.26505 0.529002 0
M  V30 15174 C 1428.31 1.28639 1.1022 0
M  V30 15175 O 1429.51 1.46348 1.04797 0
M  V30 15176 H 1425.89 0.727789 0.189279 0
M  V30 15177 H 1427.86 2.98211 -0.106096 0
M  V30 15178 C 1426.61 3.05062 1.6683 0
M  V30 15179 H 1425.93 3.80198 1.23651 0
M  V30 15180 H 1427.37 3.59138 2.2538 0
M  V30 15181 C 1425.83 2.14543 2.59756 0
M  V30 15182 O 1426.36 1.74132 3.61996 0
M  V30 15183 N 1424.57 1.79628 2.28434 0
M  V30 15184 H 1424.11 2.12688 1.45332 0
M  V30 15185 H 1424.07 1.19345 2.90868 0
M  V30 15186 N 1427.84 0.0718701 1.57436 0
M  V30 15187 C 1429.07 -0.605374 1.97532 0
M  V30 15188 C 1429.48 -1.6368 0.948974 0
M  V30 15189 O 1428.83 -1.83556 -0.0726987 0
M  V30 15190 C 1428.89 -1.33139 3.33937 0
M  V30 15191 C 1428.55 -0.453426 4.54745 0
M  V30 15192 C 1429.55 0.289012 5.19096 0
M  V30 15193 C 1427.23 -0.378282 5.00874 0
M  V30 15194 C 1429.23 1.09482 6.27927 0
M  V30 15195 C 1426.91 0.431192 6.09577 0
M  V30 15196 C 1427.91 1.16641 6.72966 0
M  V30 15197 O 1427.6 1.96253 7.79577 0
M  V30 15198 H 1427.33 -0.168804 0.654585 0
M  V30 15199 H 1429.89 0.140832 2.04917 0
M  V30 15200 H 1428.12 -2.12367 3.23167 0
M  V30 15201 H 1429.81 -1.90089 3.58638 0
M  V30 15202 H 1430.57 0.240552 4.84403 0
M  V30 15203 H 1426.45 -0.940166 4.51311 0
M  V30 15204 H 1429.99 1.66918 6.77336 0
M  V30 15205 H 1425.89 0.481217 6.43704 0
M  V30 15206 H 1426.66 1.88686 7.96455 0
M  V30 15207 N 1429.32 -1.56304 -0.201686 0
M  V30 15208 C 1430.25 -1.90538 -1.27389 0
M  V30 15209 C 1431.27 -0.795422 -1.42045 0
M  V30 15210 O 1432.46 -1.07381 -1.42589 0
M  V30 15211 C 1429.56 -2.11638 -2.64694 0
M  V30 15212 C 1428.73 -3.42755 -2.71731 0
M  V30 15213 C 1427.79 -3.53047 -3.90185 0
M  V30 15214 O 1426.81 -4.25923 -3.77595 0
M  V30 15215 N 1428.02 -2.85649 -5.05356 0
M  V30 15216 H 1430.78 -2.83106 -0.983411 0
M  V30 15217 H 1428.34 -1.57092 -0.391638 0
M  V30 15218 H 1430.33 -2.15818 -3.42352 0
M  V30 15219 H 1428.9 -1.256 -2.86258 0
M  V30 15220 H 1428.12 -3.50501 -1.80397 0
M  V30 15221 H 1429.41 -4.29092 -2.73418 0
M  V30 15222 H 1428.81 -2.26256 -5.18483 0
M  V30 15223 H 1427.37 -2.95465 -5.80985 0
M  V30 15224 N 1430.8 0.469154 -1.50455 0
M  V30 15225 C 1432.03 1.24899 -1.65575 0
M  V30 15226 C 1432.45 1.85009 -0.339581 0
M  V30 15227 O 1431.81 1.67376 0.696774 0
M  V30 15228 C 1431.86 2.33205 -2.75041 0
M  V30 15229 O 1430.96 3.37898 -2.36429 0
M  V30 15230 H 1430.3 0.367362 -0.553119 0
M  V30 15231 H 1432.83 0.558083 -1.96842 0
M  V30 15232 H 1432.84 2.78487 -2.98176 0
M  V30 15233 H 1431.52 1.88826 -3.70564 0
M  V30 15234 H 1430.09 2.98314 -2.23748 0
M  V30 15235 N 1432.28 1.40065 0.722464 0
M  V30 15236 C 1433.51 1.41066 1.50944 0
M  V30 15237 C 1433.92 0.00678083 1.89199 0
M  V30 15238 O 1433.26 -0.977992 1.55502 0
M  V30 15239 C 1433.32 2.23127 2.81877 0
M  V30 15240 C 1432.99 3.7162 2.65984 0
M  V30 15241 C 1433.98 4.64415 2.33698 0
M  V30 15242 C 1431.67 4.15355 2.82463 0
M  V30 15243 C 1433.66 5.98928 2.18091 0
M  V30 15244 C 1431.35 5.49941 2.66474 0
M  V30 15245 C 1432.35 6.41542 2.34335 0
M  V30 15246 O 1432.03 7.73647 2.18461 0
M  V30 15247 H 1431.77 0.483321 0.472628 0
M  V30 15248 H 1434.32 1.84664 0.899356 0
M  V30 15249 H 1432.55 1.74298 3.45192 0
M  V30 15250 H 1434.24 2.16153 3.43559 0
M  V30 15251 H 1435.01 4.31924 2.20606 0
M  V30 15252 H 1430.88 3.44381 3.06468 0
M  V30 15253 H 1434.43 6.70391 1.92928 0
M  V30 15254 H 1430.33 5.82019 2.79149 0
M  V30 15255 H 1431.09 7.84507 2.33434 0
M  V30 15256 N 1433.76 -0.95397 1.25448 0
M  V30 15257 C 1434.71 -2.07206 1.05681 0
M  V30 15258 C 1435.7 -1.69395 -0.0124672 0
M  V30 15259 O 1436.91 -1.79429 0.143201 0
M  V30 15260 H 1433.28 -0.678231 0.324817 0
M  V30 15261 H 1435.25 -2.21034 2.00466 0
M  V30 15262 C 1434 -3.40725 0.692955 0
M  V30 15263 H 1433.32 -3.70287 1.50756 0
M  V30 15264 H 1434.76 -4.19814 0.594351 0
M  V30 15265 C 1433.22 -3.31495 -0.601028 0
M  V30 15266 O 1433.75 -3.66565 -1.64296 0
M  V30 15267 N 1431.96 -2.84612 -0.586899 0
M  V30 15268 H 1431.51 -2.56271 0.261375 0
M  V30 15269 H 1431.46 -2.78819 -1.45284 0
M  V30 15270 N 1435.24 -1.07045 -1.15668 0
M  V30 15271 C 1436.51 -0.704942 -1.82455 0
M  V30 15272 C 1436.89 0.812921 -1.9482 0
M  V30 15273 O 1436.24 1.72615 -1.49721 0
M  V30 15274 C 1436.45 -1.41574 -3.18995 0
M  V30 15275 C 1437.8 -1.56584 -3.94673 0
M  V30 15276 O 1438.82 -1.37626 -3.28538 0
M  V30 15277 O 1437.68 -1.87751 -5.13237 0
M  V30 15278 H 1434.78 -0.250469 -0.788159 0
M  V30 15279 H 1437.32 -1.17118 -1.22806 0
M  V30 15280 H 1436.09 -2.4504 -3.05075 0
M  V30 15281 H 1435.72 -0.940071 -3.86327 0
M  V30 15282 N 1436.71 1.32449 -0.85411 0
M  V30 15283 C 1437.96 1.97271 -0.457223 0
M  V30 15284 C 1438.29 1.67595 0.987031 0
M  V30 15285 O 1437.54 0.956301 1.70744 0
M  V30 15286 C 1437.84 3.51577 -0.642499 0
M  V30 15287 C 1437.51 4.01239 -2.05714 0
M  V30 15288 C 1436.17 4.14512 -2.44405 0
M  V30 15289 C 1438.52 4.27573 -2.98046 0
M  V30 15290 C 1435.85 4.5146 -3.74701 0
M  V30 15291 C 1438.2 4.65979 -4.27839 0
M  V30 15292 C 1436.87 4.77458 -4.66465 0
M  V30 15293 H 1436.14 0.721865 -0.16731 0
M  V30 15294 H 1438.78 1.57862 -1.08406 0
M  V30 15295 H 1437.09 3.91742 0.0675706 0
M  V30 15296 H 1438.79 3.99757 -0.315473 0
M  V30 15297 H 1435.38 3.91393 -1.74669 0
M  V30 15298 H 1439.56 4.16827 -2.69386 0
M  V30 15299 H 1434.82 4.58542 -4.04412 0
M  V30 15300 H 1438.99 4.8531 -4.99447 0
M  V30 15301 H 1436.62 5.05845 -5.67472 0
M  V30 15302 N 1438.19 0.611994 1.45232 0
M  V30 15303 C 1439.44 0.109073 2.02506 0
M  V30 15304 C 1439.77 -1.25876 1.47881 0
M  V30 15305 O 1439.05 -1.83131 0.65524 0
M  V30 15306 C 1439.33 0.0749288 3.60022 0
M  V30 15307 C 1439.18 1.47374 4.24972 0
M  V30 15308 C 1440.5 -0.610602 4.35844 0
M  V30 15309 H 1437.62 0.0411101 0.735853 0
M  V30 15310 H 1440.26 0.78481 1.73034 0
M  V30 15311 H 1438.41 -0.500511 3.85262 0
M  V30 15312 H 1440.08 2.0966 4.10902 0
M  V30 15313 H 1438.33 2.03319 3.83202 0
M  V30 15314 H 1439 1.40206 5.33897 0
M  V30 15315 H 1441.47 -0.121445 4.15923 0
M  V30 15316 H 1440.35 -0.603614 5.45571 0
M  V30 15317 H 1440.61 -1.6775 4.09038 0
M  V30 15318 N 1439.67 -1.53632 0.351409 0
M  V30 15319 C 1440.6 -2.28217 -0.49391 0
M  V30 15320 C 1441.58 -1.30085 -1.09599 0
M  V30 15321 O 1442.77 -1.58938 -1.1159 0
M  V30 15322 C 1439.9 -3.06085 -1.64102 0
M  V30 15323 C 1438.85 -4.11786 -1.16689 0
M  V30 15324 C 1438.18 -4.77654 -2.40314 0
M  V30 15325 C 1439.48 -5.21644 -0.261742 0
M  V30 15326 H 1441.17 -2.99125 0.1283 0
M  V30 15327 H 1438.72 -1.43861 0.0631462 0
M  V30 15328 H 1440.67 -3.57003 -2.2389 0
M  V30 15329 H 1439.39 -2.32842 -2.29025 0
M  V30 15330 H 1438.05 -3.61792 -0.591784 0
M  V30 15331 H 1437.7 -4.00997 -3.03661 0
M  V30 15332 H 1437.4 -5.49072 -2.09268 0
M  V30 15333 H 1438.92 -5.3136 -3.00813 0
M  V30 15334 H 1440.34 -5.6815 -0.766689 0
M  V30 15335 H 1438.73 -6.00085 -0.0428132 0
M  V30 15336 H 1439.8 -4.79821 0.699999 0
M  V30 15337 N 1441.15 -0.0802183 -1.57396 0
M  V30 15338 C 1442.56 0.276428 -1.57188 0
M  V30 15339 C 1442.76 1.69456 -1.09027 0
M  V30 15340 O 1441.82 2.40792 -0.75997 0
M  V30 15341 C 1443.13 0.0784079 -3.00598 0
M  V30 15342 C 1444.68 0.1473 -3.12653 0
M  V30 15343 C 1445.16 -0.0225423 -4.57994 0
M  V30 15344 N 1446.65 0.0327854 -4.63188 0
M  V30 15345 C 1447.38 -0.0740922 -5.73352 0
M  V30 15346 N 1446.88 -0.234966 -6.92401 0
M  V30 15347 N 1448.67 -0.0164241 -5.62098 0
M  V30 15348 H 1440.82 -1.00695 -1.87014 0
M  V30 15349 H 1443.08 -0.393402 -0.862519 0
M  V30 15350 H 1442.79 -0.900488 -3.39977 0
M  V30 15351 H 1442.66 0.82713 -3.6802 0
M  V30 15352 H 1445.05 1.11669 -2.73156 0
M  V30 15353 H 1445.13 -0.632666 -2.47853 0
M  V30 15354 H 1444.78 -0.988733 -4.98183 0
M  V30 15355 H 1444.71 0.776933 -5.20837 0
M  V30 15356 H 1447.2 0.15519 -3.77581 0
M  V30 15357 H 1447.51 -0.308435 -7.72184 0
M  V30 15358 H 1445.86 -0.270439 -6.94474 0
M  V30 15359 H 1449.05 0.108019 -4.67975 0
M  V30 15360 H 1449.22 -0.10317 -6.47918 0
M  V30 15361 N 1442.63 1.56409 0.193394 0
M  V30 15362 C 1443.87 1.80991 0.914875 0
M  V30 15363 C 1444.2 0.654538 1.82837 0
M  V30 15364 O 1443.48 -0.344816 1.91419 0
M  V30 15365 C 1443.76 3.15841 1.72964 0
M  V30 15366 C 1443.62 4.41873 0.840748 0
M  V30 15367 C 1444.93 3.474 2.70188 0
M  V30 15368 H 1442.05 0.658408 0.331161 0
M  V30 15369 H 1444.7 1.89125 0.182161 0
M  V30 15370 H 1442.85 3.09038 2.35431 0
M  V30 15371 H 1444.52 4.60723 0.230654 0
M  V30 15372 H 1442.76 4.33549 0.147558 0
M  V30 15373 H 1443.43 5.32728 1.44586 0
M  V30 15374 H 1445.91 3.54513 2.17852 0
M  V30 15375 H 1444.78 4.42872 3.24278 0
M  V30 15376 H 1445.04 2.7098 3.49317 0
M  V30 15377 N 1444.1 -0.461169 1.50702 0
M  V30 15378 C 1445.35 -1.21012 1.61866 0
M  V30 15379 C 1445.67 -1.9226 0.325736 0
M  V30 15380 O 1444.94 -1.84543 -0.657306 0
M  V30 15381 H 1443.52 -0.449671 0.596494 0
M  V30 15382 H 1446.18 -0.531056 1.87525 0
M  V30 15383 H 1445.28 -1.95266 2.4347 0
M  V30 15384 N 1445.58 -1.40446 -0.715026 0
M  V30 15385 C 1446.83 -1.38059 -1.47046 0
M  V30 15386 C 1447.14 0.0139125 -1.95595 0
M  V30 15387 O 1448.35 0.160398 -2.71026 0
M  V30 15388 C 1446.81 -2.42646 -2.65802 0
M  V30 15389 C 1446.41 -3.8791 -2.2412 0
M  V30 15390 C 1448.16 -2.49367 -3.43535 0
M  V30 15391 C 1446.06 -4.84092 -3.39719 0
M  V30 15392 H 1444.99 -0.513341 -0.552265 0
M  V30 15393 H 1447.65 -1.66185 -0.778126 0
M  V30 15394 H 1446.03 -2.07621 -3.37208 0
M  V30 15395 H 1447.2 -4.32082 -1.6013 0
M  V30 15396 H 1445.52 -3.8467 -1.5943 0
M  V30 15397 H 1448.11 -3.18414 -4.29554 0
M  V30 15398 H 1448.46 -1.52436 -3.87388 0
M  V30 15399 H 1448.99 -2.83386 -2.79173 0
M  V30 15400 H 1445.73 -5.82358 -3.00898 0
M  V30 15401 H 1445.25 -4.44584 -4.02623 0
M  V30 15402 H 1446.93 -5.03939 -4.05776 0
M  V30 15403 N 1447.06 0.947303 -1.25952 0
M  V30 15404 C 1448.01 2.06642 -1.06779 0
M  V30 15405 C 1449 1.694 0.00348362 0
M  V30 15406 O 1450.21 1.79351 -0.152715 0
M  V30 15407 H 1446.58 0.676499 -0.32841 0
M  V30 15408 H 1448.55 2.19968 -2.01635 0
M  V30 15409 C 1447.3 3.40353 -0.711015 0
M  V30 15410 H 1446.63 3.69483 -1.52718 0
M  V30 15411 H 1448.07 4.19493 -0.616606 0
M  V30 15412 C 1446.52 3.3181 0.58344 0
M  V30 15413 O 1447.05 3.67431 1.6235 0
M  V30 15414 N 1445.26 2.84919 0.571797 0
M  V30 15415 H 1444.81 2.56128 -0.274962 0
M  V30 15416 H 1444.77 2.79586 1.43803 0
M  V30 15417 N 1448.54 1.07657 1.15099 0
M  V30 15418 C 1449.78 0.802796 1.86234 0
M  V30 15419 C 1450.12 -0.669555 1.82293 0
M  V30 15420 O 1449.39 -1.49162 1.24823 0
M  V30 15421 C 1449.68 1.3156 3.35208 0
M  V30 15422 C 1449.53 2.85272 3.47764 0
M  V30 15423 C 1450.85 0.934641 4.30061 0
M  V30 15424 H 1447.97 0.293099 0.676212 0
M  V30 15425 H 1450.61 1.33488 1.35207 0
M  V30 15426 H 1448.76 0.86298 3.78794 0
M  V30 15427 H 1450.43 3.38847 3.13018 0
M  V30 15428 H 1448.67 3.23316 2.89222 0
M  V30 15429 H 1449.34 3.16223 4.52446 0
M  V30 15430 H 1451.82 1.3247 3.9445 0
M  V30 15431 H 1450.7 1.32074 5.32774 0
M  V30 15432 H 1450.96 -0.159122 4.41814 0
M  V30 15433 N 1450.02 -1.31994 0.861122 0
M  V30 15434 C 1451.26 -1.96636 0.466754 0
M  V30 15435 C 1451.59 -1.6845 -0.982328 0
M  V30 15436 O 1450.86 -0.995157 -1.68741 0
M  V30 15437 H 1449.44 -0.727489 0.169613 0
M  V30 15438 H 1452.1 -1.60962 1.09897 0
M  V30 15439 H 1451.19 -3.05937 0.61716 0
M  V30 15440 N 1451.49 -0.619688 -1.44906 0
M  V30 15441 C 1452.91 -0.203309 -1.8559 0
M  V30 15442 C 1453.26 1.24265 -1.51831 0
M  V30 15443 O 1452.38 1.94392 -0.950819 0
M  V30 15444 C 1452.98 -0.362204 -3.36858 0
M  V30 15445 C 1451.54 -0.000423575 -3.764 0
M  V30 15446 C 1450.68 -0.680979 -2.68808 0
M  V30 15447 H 1453.63 -0.825595 -1.35535 0
M  V30 15448 H 1453.65 0.402149 -3.78369 0
M  V30 15449 H 1453.17 -1.41468 -3.61398 0
M  V30 15450 H 1451.27 1.05077 -3.57477 0
M  V30 15451 H 1451.38 -0.402508 -4.77406 0
M  V30 15452 H 1449.74 -0.117407 -2.54429 0
M  V30 15453 H 1450.53 -1.73583 -2.96182 0
M  V30 15454 N 1452.97 1.53444 -0.359552 0
M  V30 15455 C 1454.22 2.01464 0.232366 0
M  V30 15456 C 1454.55 1.24656 1.48911 0
M  V30 15457 O 1453.83 0.338574 1.9153 0
M  V30 15458 C 1454.11 3.56172 0.530403 0
M  V30 15459 C 1453.96 4.43678 -0.739556 0
M  V30 15460 C 1455.28 4.19412 1.33347 0
M  V30 15461 H 1452.4 0.732314 0.0829802 0
M  V30 15462 H 1455.04 1.83752 -0.483253 0
M  V30 15463 H 1453.19 3.71396 1.14004 0
M  V30 15464 H 1454.86 4.40263 -1.37719 0
M  V30 15465 H 1453.11 4.11892 -1.36117 0
M  V30 15466 H 1453.78 5.49856 -0.486062 0
M  V30 15467 H 1456.25 4.07984 0.817816 0
M  V30 15468 H 1455.13 5.277 1.51075 0
M  V30 15469 H 1455.39 3.7508 2.34024 0
M  V30 15470 N 1454.45 0.0885642 1.57351 0
M  V30 15471 C 1455.7 -0.57753 1.94403 0
M  V30 15472 C 1456.03 -1.68238 0.970029 0
M  V30 15473 O 1455.3 -1.945 0.00198684 0
M  V30 15474 C 1455.59 -1.13882 3.41618 0
M  V30 15475 C 1455.44 -0.0394686 4.49783 0
M  V30 15476 C 1456.76 -2.03922 3.90005 0
M  V30 15477 H 1453.88 -0.208468 0.706902 0
M  V30 15478 H 1456.52 0.157945 1.89342 0
M  V30 15479 H 1454.67 -1.76561 3.46061 0
M  V30 15480 H 1456.34 0.594458 4.57454 0
M  V30 15481 H 1454.59 0.627775 4.29234 0
M  V30 15482 H 1455.26 -0.472897 5.49971 0
M  V30 15483 H 1457.73 -1.51156 3.87674 0
M  V30 15484 H 1456.61 -2.40123 4.93591 0
M  V30 15485 H 1456.87 -2.95407 3.28918 0
M  V30 15486 N 1455.93 -1.56509 -0.185096 0
M  V30 15487 C 1456.89 -1.94468 -1.21305 0
M  V30 15488 C 1457.89 -0.826838 -1.37913 0
M  V30 15489 O 1459.08 -1.09411 -1.35554 0
M  V30 15490 C 1456.21 -2.22747 -2.58063 0
M  V30 15491 H 1457.41 -2.86442 -0.888323 0
M  V30 15492 H 1454.96 -1.50354 -0.427012 0
M  V30 15493 H 1455.69 -1.33443 -2.95573 0
M  V30 15494 H 1455.48 -3.04215 -2.47378 0
M  V30 15495 H 1456.97 -2.53084 -3.32172 0
M  V30 15496 N 1457.41 0.45317 -1.50944 0
M  V30 15497 C 1458.65 1.20151 -1.62506 0
M  V30 15498 C 1458.98 1.92085 -0.335927 0
M  V30 15499 O 1458.25 1.84889 0.64751 0
M  V30 15500 H 1456.83 0.446502 -0.59887 0
M  V30 15501 H 1459.49 0.521103 -1.87804 0
M  V30 15502 H 1458.58 1.93972 -2.44502 0
M  V30 15503 N 1458.88 1.40823 0.707568 0
M  V30 15504 C 1460.13 1.39741 1.4697 0
M  V30 15505 C 1460.46 0.00231194 1.942 0
M  V30 15506 O 1459.74 -0.967798 1.68713 0
M  V30 15507 C 1460.02 2.39385 2.69011 0
M  V30 15508 C 1459.87 3.87953 2.27624 0
M  V30 15509 C 1461.19 2.3645 3.71186 0
M  V30 15510 H 1458.31 0.508904 0.533091 0
M  V30 15511 H 1460.95 1.72015 0.806888 0
M  V30 15512 H 1459.1 2.11993 3.25563 0
M  V30 15513 H 1460.78 4.26202 1.76492 0
M  V30 15514 H 1459.02 4.03399 1.59537 0
M  V30 15515 H 1459.69 4.53201 3.15139 0
M  V30 15516 H 1462.17 2.60731 3.24282 0
M  V30 15517 H 1461.04 3.08204 4.54204 0
M  V30 15518 H 1461.3 1.3789 4.20046 0
M  V30 15519 N 1460.36 -0.94061 1.26453 0
M  V30 15520 C 1461.61 -1.68132 1.1142 0
M  V30 15521 C 1461.92 -1.92587 -0.342006 0
M  V30 15522 O 1463.13 -2.64489 -0.613018 0
M  V30 15523 C 1461.59 -3.02758 1.94591 0
M  V30 15524 C 1461.19 -2.86049 3.4479 0
M  V30 15525 C 1462.94 -3.80516 1.88169 0
M  V30 15526 C 1460.85 -4.1615 4.20206 0
M  V30 15527 H 1459.78 -0.630591 0.413366 0
M  V30 15528 H 1462.43 -1.04602 1.50767 0
M  V30 15529 H 1460.81 -3.67272 1.48078 0
M  V30 15530 H 1461.98 -2.3038 3.99076 0
M  V30 15531 H 1460.3 -2.21732 3.52454 0
M  V30 15532 H 1462.89 -4.76904 2.41799 0
M  V30 15533 H 1463.24 -4.07477 0.852531 0
M  V30 15534 H 1463.77 -3.22776 2.32509 0
M  V30 15535 H 1460.51 -3.94373 5.23593 0
M  V30 15536 H 1460.03 -4.71531 3.707 0
M  V30 15537 H 1461.71 -4.84602 4.28684 0
M  V30 15538 N 1461.84 -1.08266 -1.14527 0
M  V30 15539 C 1463.09 -0.809856 -1.85164 0
M  V30 15540 C 1463.41 0.666263 -1.83265 0
M  V30 15541 O 1462.68 1.48295 -1.28006 0
M  V30 15542 H 1461.26 -0.296598 -0.685594 0
M  V30 15543 H 1463.92 -1.36834 -1.38789 0
M  V30 15544 H 1463.02 -1.15272 -2.90032 0
M  V30 15545 N 1463.32 1.31536 -0.86811 0
M  V30 15546 C 1464.28 2.26849 -0.327456 0
M  V30 15547 C 1465.28 1.52142 0.520514 0
M  V30 15548 O 1466.47 1.71044 0.330088 0
M  V30 15549 C 1463.6 3.36673 0.535174 0
M  V30 15550 H 1464.8 2.76184 -1.16886 0
M  V30 15551 H 1462.35 1.42437 -0.643545 0
M  V30 15552 H 1463.09 2.92627 1.39785 0
M  V30 15553 H 1462.87 3.92034 -0.0719835 0
M  V30 15554 H 1464.36 4.07658 0.905786 0
M  V30 15555 N 1464.8 0.627364 1.44575 0
M  V30 15556 C 1466.21 0.292662 1.56894 0
M  V30 15557 C 1466.41 -1.20429 1.61552 0
M  V30 15558 O 1465.47 -1.98819 1.55651 0
M  V30 15559 C 1466.78 0.981267 2.84239 0
M  V30 15560 C 1468.33 0.959053 2.97945 0
M  V30 15561 C 1468.81 1.62805 4.28087 0
M  V30 15562 N 1470.3 1.59446 4.34892 0
M  V30 15563 C 1471.03 2.08107 5.34302 0
M  V30 15564 N 1470.53 2.64942 6.40139 0
M  V30 15565 N 1472.32 1.98758 5.25787 0
M  V30 15566 H 1464.47 1.5991 1.39795 0
M  V30 15567 H 1466.73 0.671019 0.669655 0
M  V30 15568 H 1466.44 2.0361 2.86768 0
M  V30 15569 H 1466.31 0.516703 3.73644 0
M  V30 15570 H 1468.7 -0.0872902 2.94971 0
M  V30 15571 H 1468.78 1.46207 2.09898 0
M  V30 15572 H 1468.43 2.67382 4.31821 0
M  V30 15573 H 1468.36 1.09989 5.14985 0
M  V30 15574 H 1470.85 1.17947 3.59022 0
M  V30 15575 H 1471.16 2.99814 7.12272 0
M  V30 15576 H 1469.51 2.68991 6.40835 0
M  V30 15577 H 1472.7 1.54081 4.42014 0
M  V30 15578 H 1472.87 2.36992 6.03107 0
M  V30 15579 N 1466.28 -1.53251 0.367684 0
M  V30 15580 C 1467.69 -1.59591 0.0167132 0
M  V30 15581 C 1467.89 -1.38272 -1.46571 0
M  V30 15582 O 1466.95 -1.18893 -2.22757 0
M  V30 15583 C 1468.26 -2.96932 0.474534 0
M  V30 15584 C 1469.81 -3.10047 0.428934 0
M  V30 15585 C 1470.28 -4.49804 0.862599 0
M  V30 15586 N 1471.77 -4.55925 0.817742 0
M  V30 15587 C 1472.51 -5.62256 1.12496 0
M  V30 15588 N 1472.01 -6.76332 1.50156 0
M  V30 15589 N 1473.8 -5.52251 1.04762 0
M  V30 15590 H 1465.95 -1.6536 1.33303 0
M  V30 15591 H 1468.21 -0.775681 0.544998 0
M  V30 15592 H 1467.92 -3.17679 1.50907 0
M  V30 15593 H 1467.79 -3.76948 -0.137752 0
M  V30 15594 H 1470.18 -2.89009 -0.596473 0
M  V30 15595 H 1470.26 -2.32034 1.07674 0
M  V30 15596 H 1469.9 -4.7158 1.88613 0
M  V30 15597 H 1469.83 -5.2625 0.19202 0
M  V30 15598 H 1472.33 -3.74017 0.540323 0
M  V30 15599 H 1472.64 -7.53412 1.72019 0
M  V30 15600 H 1470.98 -6.77718 1.54024 0
M  V30 15601 H 1474.17 -4.62011 0.752571 0
M  V30 15602 H 1474.35 -6.35022 1.29038 0
M  V30 15603 N 1467.75 -0.0969077 -1.57302 0
M  V30 15604 C 1469.16 0.431942 -1.81635 0
M  V30 15605 C 1469.52 1.68047 -1.01264 0
M  V30 15606 O 1468.64 2.15036 -0.24256 0
M  V30 15607 C 1469.24 0.790426 -3.29451 0
M  V30 15608 C 1467.79 1.26401 -3.54542 0
M  V30 15609 C 1466.94 0.26158 -2.76063 0
M  V30 15610 H 1469.89 -0.322328 -1.55392 0
M  V30 15611 H 1469.91 1.64981 -3.42873 0
M  V30 15612 H 1469.43 -0.118463 -3.87919 0
M  V30 15613 H 1467.53 2.19055 -3.01406 0
M  V30 15614 H 1467.64 1.22459 -4.63185 0
M  V30 15615 H 1466 0.7441 -2.43588 0
M  V30 15616 H 1466.79 -0.640018 -3.37281 0
M  V30 15617 N 1469.23 1.56605 0.176793 0
M  V30 15618 C 1470.16 1.9254 1.24342 0
M  V30 15619 C 1471.18 0.81792 1.40762 0
M  V30 15620 O 1472.37 1.09636 1.40862 0
M  V30 15621 C 1469.47 2.15822 2.61293 0
M  V30 15622 C 1468.64 3.47035 2.66243 0
M  V30 15623 C 1467.7 3.5921 3.84519 0
M  V30 15624 O 1466.72 4.31876 3.70771 0
M  V30 15625 N 1467.93 2.93653 5.00748 0
M  V30 15626 H 1470.69 2.84635 0.938246 0
M  V30 15627 H 1468.25 1.57695 0.366597 0
M  V30 15628 H 1470.24 2.21237 3.38875 0
M  V30 15629 H 1468.81 1.30138 2.84223 0
M  V30 15630 H 1468.03 3.53326 1.74798 0
M  V30 15631 H 1469.32 4.33388 2.66557 0
M  V30 15632 H 1468.72 2.34476 5.14818 0
M  V30 15633 H 1467.28 3.04671 5.76211 0
M  V30 15634 N 1470.71 -0.445159 1.51182 0
M  V30 15635 C 1471.94 -1.2161 1.67016 0
M  V30 15636 C 1472.35 -1.85671 0.363705 0
M  V30 15637 O 1471.69 -1.71165 -0.666963 0
M  V30 15638 C 1471.75 -2.34705 2.72312 0
M  V30 15639 C 1471.42 -1.91074 4.15138 0
M  V30 15640 C 1472.41 -1.41857 5.00173 0
M  V30 15641 C 1470.1 -1.99004 4.61197 0
M  V30 15642 C 1472.09 -1.01146 6.29324 0
M  V30 15643 C 1469.78 -1.57904 5.90347 0
M  V30 15644 C 1470.78 -1.09056 6.74237 0
M  V30 15645 O 1470.47 -0.685367 8.00973 0
M  V30 15646 H 1470.2 -0.372925 0.563829 0
M  V30 15647 H 1472.75 -0.534708 1.98318 0
M  V30 15648 H 1470.98 -3.06097 2.36309 0
M  V30 15649 H 1472.67 -2.96594 2.77104 0
M  V30 15650 H 1473.44 -1.35132 4.65794 0
M  V30 15651 H 1469.32 -2.35972 3.96028 0
M  V30 15652 H 1472.86 -0.629486 6.94754 0
M  V30 15653 H 1468.76 -1.64297 6.24241 0
M  V30 15654 H 1469.52 -0.811915 8.14463 0
M  V30 15655 N 1472.19 -1.41197 -0.700089 0
M  V30 15656 C 1473.46 -1.30803 -1.4543 0
M  V30 15657 C 1473.84 0.0664987 -2.10995 0
M  V30 15658 O 1473.19 1.08043 -2.01343 0
M  V30 15659 C 1473.4 -2.45815 -2.47742 0
M  V30 15660 C 1474.75 -2.86771 -3.13126 0
M  V30 15661 O 1475.77 -2.45521 -2.58065 0
M  V30 15662 O 1474.63 -3.58086 -4.1284 0
M  V30 15663 H 1471.73 -0.514523 -0.647453 0
M  V30 15664 H 1474.27 -1.53151 -0.73095 0
M  V30 15665 H 1473.05 -3.37557 -1.97917 0
M  V30 15666 H 1472.67 -2.25319 -3.27593 0
M  V30 15667 N 1473.67 0.933891 -1.2695 0
M  V30 15668 C 1474.91 1.67539 -1.1231 0
M  V30 15669 C 1475.23 1.92765 0.331788 0
M  V30 15670 O 1476.43 2.6481 0.598983 0
M  V30 15671 C 1474.89 3.01722 -1.96194 0
M  V30 15672 C 1474.5 2.84216 -3.46302 0
M  V30 15673 C 1476.24 3.79513 -1.90185 0
M  V30 15674 C 1474.15 4.13916 -4.22407 0
M  V30 15675 H 1473.08 0.62839 -0.416704 0
M  V30 15676 H 1475.73 1.03801 -1.5132 0
M  V30 15677 H 1474.11 3.66482 -1.50023 0
M  V30 15678 H 1475.29 2.28261 -4.00292 0
M  V30 15679 H 1473.6 2.1986 -3.53625 0
M  V30 15680 H 1476.2 4.75615 -2.44325 0
M  V30 15681 H 1476.54 4.07019 -0.874129 0
M  V30 15682 H 1477.07 3.21539 -2.34217 0
M  V30 15683 H 1473.81 3.91591 -5.25677 0
M  V30 15684 H 1473.33 4.69558 -3.73196 0
M  V30 15685 H 1475.01 4.82322 -4.31248 0
M  V30 15686 N 1475.14 1.08871 1.13951 0
M  V30 15687 C 1476.39 0.832367 1.85589 0
M  V30 15688 C 1476.74 -0.635083 1.81616 0
M  V30 15689 O 1476.04 -1.46123 1.2393 0
M  V30 15690 C 1476.23 1.29443 3.33135 0
M  V30 15691 C 1476.06 2.80527 3.51475 0
M  V30 15692 C 1474.83 3.48334 3.66048 0
M  V30 15693 C 1477.03 3.78686 3.47996 0
M  V30 15694 N 1475.01 4.87901 3.72593 0
M  V30 15695 C 1476.38 5.04176 3.60842 0
M  V30 15696 C 1478.44 3.71623 3.31362 0
M  V30 15697 C 1477.14 6.23438 3.58772 0
M  V30 15698 C 1479.17 4.90366 3.30598 0
M  V30 15699 C 1478.53 6.14696 3.43989 0
M  V30 15700 H 1474.63 0.357365 0.695568 0
M  V30 15701 H 1477.21 1.38799 1.36539 0
M  V30 15702 H 1475.38 0.766326 3.80765 0
M  V30 15703 H 1477.11 0.984006 3.92555 0
M  V30 15704 H 1473.87 2.98755 3.67481 0
M  V30 15705 H 1474.29 5.60584 3.79571 0
M  V30 15706 H 1478.93 2.7643 3.19916 0
M  V30 15707 H 1476.65 7.18937 3.68993 0
M  V30 15708 H 1480.24 4.86593 3.18933 0
M  V30 15709 H 1479.12 7.05039 3.43351 0
M  V30 15710 N 1476.62 -1.31073 0.875073 0
M  V30 15711 C 1477.87 -1.9613 0.487584 0
M  V30 15712 C 1478.19 -1.69482 -0.964407 0
M  V30 15713 O 1477.46 -1.013 -1.67676 0
M  V30 15714 H 1476.04 -0.725649 0.177319 0
M  V30 15715 H 1478.7 -1.59787 1.11598 0
M  V30 15716 H 1477.8 -3.05265 0.649574 0
M  V30 15717 N 1478.1 -0.635022 -1.4424 0
M  V30 15718 C 1479.05 0.0797218 -2.32463 0
M  V30 15719 C 1480.04 0.831818 -1.47571 0
M  V30 15720 O 1481.25 0.744277 -1.63892 0
M  V30 15721 H 1477.62 0.0445532 -0.750679 0
M  V30 15722 H 1479.59 -0.682374 -2.90493 0
M  V30 15723 C 1478.34 1.04505 -3.31623 0
M  V30 15724 H 1477.67 0.475755 -3.96959 0
M  V30 15725 H 1479.11 1.51458 -3.96026 0
M  V30 15726 C 1477.57 2.13221 -2.60842 0
M  V30 15727 O 1478.1 3.21357 -2.41025 0
M  V30 15728 N 1476.3 1.89264 -2.20516 0
M  V30 15729 H 1475.85 1.01329 -2.36834 0
M  V30 15730 H 1475.81 2.62203 -1.73484 0
M  V30 15731 N 1479.58 1.53054 -0.375806 0
M  V30 15732 C 1480.81 2.0582 0.211135 0
M  V30 15733 C 1481.22 1.24856 1.4162 0
M  V30 15734 O 1480.58 0.291786 1.80152 0
M  V30 15735 C 1480.63 3.56577 0.594573 0
M  V30 15736 O 1480.35 4.34472 -0.562607 0
M  V30 15737 C 1481.85 4.25639 1.23882 0
M  V30 15738 H 1479.07 0.670085 0.0350268 0
M  V30 15739 H 1481.62 1.9732 -0.537135 0
M  V30 15740 H 1479.77 3.65194 1.29275 0
M  V30 15741 H 1480.18 5.23902 -0.250487 0
M  V30 15742 H 1481.66 5.32408 1.45759 0
M  V30 15743 H 1482.14 3.80001 2.20218 0
M  V30 15744 H 1482.74 4.21302 0.581786 0
M  V30 15745 N 1481.06 0.105248 1.57248 0
M  V30 15746 C 1482.3 -0.556878 1.95004 0
M  V30 15747 C 1482.64 -1.672 0.987818 0
M  V30 15748 O 1481.91 -1.94487 0.022616 0
M  V30 15749 C 1482.19 -1.10252 3.42807 0
M  V30 15750 C 1482.05 0.00823908 4.49799 0
M  V30 15751 C 1483.37 -1.99774 3.92146 0
M  V30 15752 H 1480.48 -0.200959 0.709073 0
M  V30 15753 H 1483.13 0.178019 1.89164 0
M  V30 15754 H 1481.28 -1.7288 3.47915 0
M  V30 15755 H 1482.95 0.642944 4.56797 0
M  V30 15756 H 1481.19 0.673265 4.28544 0
M  V30 15757 H 1481.86 -0.414538 5.50441 0
M  V30 15758 H 1484.34 -1.47036 3.89255 0
M  V30 15759 H 1483.21 -2.34874 4.9611 0
M  V30 15760 H 1483.48 -2.91902 3.32033 0
M  V30 15761 N 1482.53 -1.56697 -0.168486 0
M  V30 15762 C 1483.48 -1.9755 -1.22787 0
M  V30 15763 C 1484.48 -0.864668 -1.4567 0
M  V30 15764 O 1485.68 -1.04979 -1.46217 0
M  V30 15765 H 1482.06 -0.628561 -0.412813 0
M  V30 15766 H 1484.03 -2.85845 -0.85646 0
M  V30 15767 C 1482.78 -2.35394 -2.559 0
M  V30 15768 H 1482.1 -3.20412 -2.39115 0
M  V30 15769 H 1483.54 -2.67821 -3.28706 0
M  V30 15770 C 1482 -1.19842 -3.14864 0
M  V30 15771 O 1482.53 -0.487601 -3.9873 0
M  V30 15772 N 1480.74 -0.968249 -2.73995 0
M  V30 15773 H 1480.28 -1.54804 -2.05897 0
M  V30 15774 H 1480.24 -0.196951 -3.13783 0
M  V30 15775 N 1484.01 0.437135 -1.51416 0
M  V30 15776 C 1485.26 1.18831 -1.64338 0
M  V30 15777 C 1485.59 1.9086 -0.358638 0
M  V30 15778 O 1484.87 1.83607 0.641769 0
M  V30 15779 C 1485.15 2.20515 -2.84685 0
M  V30 15780 C 1485 1.52568 -4.23135 0
M  V30 15781 C 1486.32 3.21494 -3.00549 0
M  V30 15782 H 1483.44 0.430652 -0.598087 0
M  V30 15783 H 1486.08 0.47753 -1.83901 0
M  V30 15784 H 1484.23 2.81132 -2.68136 0
M  V30 15785 H 1485.9 0.952851 -4.51352 0
M  V30 15786 H 1484.15 0.828025 -4.25824 0
M  V30 15787 H 1484.82 2.26623 -5.03335 0
M  V30 15788 H 1487.29 2.7093 -3.1581 0
M  V30 15789 H 1486.17 3.89934 -3.86319 0
M  V30 15790 H 1486.43 3.8761 -2.12629 0
M  V30 15791 N 1485.49 1.41566 0.692592 0
M  V30 15792 C 1486.45 1.43369 1.78824 0
M  V30 15793 C 1487.45 0.323867 1.57505 0
M  V30 15794 O 1488.64 0.583885 1.64123 0
M  V30 15795 C 1485.78 1.24798 3.17235 0
M  V30 15796 H 1486.97 2.40906 1.78617 0
M  V30 15797 H 1484.52 1.27752 0.900508 0
M  V30 15798 H 1485.26 0.281129 3.23079 0
M  V30 15799 H 1485.04 2.05212 3.34111 0
M  V30 15800 H 1486.53 1.28902 3.97208 0
M  V30 15801 N 1486.97 -0.927146 1.27443 0
M  V30 15802 C 1488.19 -1.71426 1.16739 0
M  V30 15803 C 1488.62 -1.86122 -0.272063 0
M  V30 15804 O 1487.98 -1.36165 -1.19703 0
M  V30 15805 C 1488.02 -3.09131 1.85661 0
M  V30 15806 O 1487.13 -3.95897 1.15495 0
M  V30 15807 H 1486.47 -0.525428 0.405983 0
M  V30 15808 H 1489 -1.16022 1.68523 0
M  V30 15809 H 1489.01 -3.59442 1.93042 0
M  V30 15810 H 1487.68 -2.97752 2.90373 0
M  V30 15811 H 1486.26 -3.54337 1.16187 0
M  V30 15812 N 1488.45 -1.09474 -1.13372 0
M  V30 15813 C 1489.86 -0.824541 -1.36651 0
M  V30 15814 C 1490.06 0.560903 -1.93536 0
M  V30 15815 O 1489.12 1.31567 -2.15514 0
M  V30 15816 C 1490.43 -1.91618 -2.31739 0
M  V30 15817 C 1491.98 -1.94346 -2.45354 0
M  V30 15818 C 1492.45 -3.02655 -3.4375 0
M  V30 15819 N 1493.95 -3.01898 -3.513 0
M  V30 15820 C 1494.68 -3.82344 -4.27318 0
M  V30 15821 N 1494.18 -4.727 -5.06484 0
M  V30 15822 N 1495.97 -3.70602 -4.22623 0
M  V30 15823 H 1488.12 -1.98793 -0.748005 0
M  V30 15824 H 1490.38 -0.863318 -0.391646 0
M  V30 15825 H 1490.09 -2.91282 -1.97098 0
M  V30 15826 H 1489.96 -1.79484 -3.31761 0
M  V30 15827 H 1492.35 -0.953206 -2.79281 0
M  V30 15828 H 1492.43 -2.10558 -1.45255 0
M  V30 15829 H 1492.08 -4.01894 -3.10553 0
M  V30 15830 H 1492.01 -2.83687 -4.43655 0
M  V30 15831 H 1494.5 -2.36417 -2.94814 0
M  V30 15832 H 1494.81 -5.30665 -5.61796 0
M  V30 15833 H 1493.15 -4.76736 -5.05715 0
M  V30 15834 H 1496.35 -2.99372 -3.59853 0
M  V30 15835 H 1496.52 -4.33535 -4.81614 0
M  V30 15836 N 1489.92 1.30607 -0.882012 0
M  V30 15837 C 1490.86 2.26334 -0.291222 0
M  V30 15838 C 1491.84 1.51653 0.586522 0
M  V30 15839 O 1493.02 1.80681 0.537275 0
M  V30 15840 C 1490.15 3.33584 0.586482 0
M  V30 15841 C 1489.19 4.25924 -0.221535 0
M  V30 15842 S 1490.03 5.10791 -1.6079 0
M  V30 15843 C 1491.18 6.2155 -0.736638 0
M  V30 15844 H 1491.41 2.76096 -1.10265 0
M  V30 15845 H 1488.95 1.38558 -0.681255 0
M  V30 15846 H 1490.91 3.95842 1.08715 0
M  V30 15847 H 1489.57 2.82552 1.37198 0
M  V30 15848 H 1488.76 5.02004 0.448139 0
M  V30 15849 H 1488.36 3.68225 -0.654722 0
M  V30 15850 H 1490.65 6.77483 0.0476549 0
M  V30 15851 H 1491.6 6.92696 -1.46894 0
M  V30 15852 H 1492 5.63708 -0.298853 0
M  V30 15853 N 1491.4 0.642663 1.43901 0
M  V30 15854 C 1492.68 0.0821715 1.95427 0
M  V30 15855 C 1493.06 -1.3951 1.58431 0
M  V30 15856 O 1492.41 -2.11531 0.864118 0
M  V30 15857 C 1492.62 0.317229 3.47555 0
M  V30 15858 C 1493.97 0.216547 4.24047 0
M  V30 15859 O 1494.99 0.249216 3.55327 0
M  V30 15860 O 1493.85 0.131269 5.46342 0
M  V30 15861 H 1490.94 -0.0156936 0.826851 0
M  V30 15862 H 1493.49 0.715168 1.53894 0
M  V30 15863 H 1492.26 1.34184 3.67574 0
M  V30 15864 H 1491.88 -0.349348 3.96062 0
M  V30 15865 N 1492.88 -1.52852 0.383918 0
M  V30 15866 C 1494.11 -2.06406 -0.202764 0
M  V30 15867 C 1494.53 -1.25421 -1.40183 0
M  V30 15868 O 1493.89 -0.277876 -1.79158 0
M  V30 15869 C 1493.94 -3.56281 -0.556414 0
M  V30 15870 O 1493.04 -3.77904 -1.65113 0
M  V30 15871 H 1492.38 -0.663523 -0.0251737 0
M  V30 15872 H 1494.91 -1.97074 0.54983 0
M  V30 15873 H 1494.92 -3.99629 -0.822249 0
M  V30 15874 H 1493.6 -4.14665 0.320253 0
M  V30 15875 H 1492.17 -3.46448 -1.37943 0
M  V30 15876 N 1494.36 -0.113586 -1.5719 0
M  V30 15877 C 1495.59 0.553592 -1.99356 0
M  V30 15878 C 1496 1.60567 -0.993154 0
M  V30 15879 O 1495.36 1.82494 0.0147252 0
M  V30 15880 C 1495.41 1.18462 -3.41539 0
M  V30 15881 O 1495.13 0.174602 -4.37752 0
M  V30 15882 C 1496.63 1.93564 -3.98808 0
M  V30 15883 H 1493.85 0.146998 -0.6547 0
M  V30 15884 H 1496.4 -0.198329 -2.03536 0
M  V30 15885 H 1494.55 1.88736 -3.38316 0
M  V30 15886 H 1494.97 0.632395 -5.20674 0
M  V30 15887 H 1496.44 2.33051 -5.00391 0
M  V30 15888 H 1496.92 2.80874 -3.37648 0
M  V30 15889 H 1497.52 1.28066 -4.0556 0
M  V30 15890 N 1495.84 1.56784 0.160173 0
M  V30 15891 C 1497.09 1.8226 0.873253 0
M  V30 15892 C 1497.41 0.692384 1.82294 0
M  V30 15893 O 1496.68 -0.286961 1.93787 0
M  V30 15894 H 1495.26 0.672371 0.325463 0
M  V30 15895 H 1497.92 1.94264 0.157325 0
M  V30 15896 H 1497.01 2.76714 1.44345 0
M  V30 15897 N 1497.32 -0.429099 1.51646 0
M  V30 15898 C 1498.56 -1.17958 1.64966 0
M  V30 15899 C 1498.89 -1.90667 0.368755 0
M  V30 15900 O 1498.17 -1.83945 -0.632023 0
M  V30 15901 C 1498.45 -2.19002 2.8585 0
M  V30 15902 C 1498.31 -1.50321 4.23938 0
M  V30 15903 C 1499.62 -3.19895 3.0225 0
M  V30 15904 H 1496.74 -0.427474 0.600362 0
M  V30 15905 H 1499.39 -0.46777 1.84152 0
M  V30 15906 H 1497.54 -2.79707 2.69623 0
M  V30 15907 H 1499.21 -0.928902 4.51851 0
M  V30 15908 H 1497.45 -0.805431 4.26257 0
M  V30 15909 H 1498.12 -2.2395 5.0453 0
M  V30 15910 H 1500.6 -2.69251 3.17243 0
M  V30 15911 H 1499.47 -3.8788 3.88381 0
M  V30 15912 H 1499.73 -3.86477 2.14682 0
M  V30 15913 N 1498.79 -1.41931 -0.685074 0
M  V30 15914 C 1499.73 -1.40545 -1.81052 0
M  V30 15915 C 1500.74 -0.306024 -1.59898 0
M  V30 15916 O 1501.93 -0.568444 -1.69207 0
M  V30 15917 C 1499.03 -1.17194 -3.17992 0
M  V30 15918 C 1498.2 -2.39376 -3.66084 0
M  V30 15919 C 1497.26 -2.11725 -4.81725 0
M  V30 15920 O 1496.29 -2.84847 -4.92799 0
M  V30 15921 N 1497.49 -1.11399 -5.69711 0
M  V30 15922 H 1500.25 -2.37549 -1.8273 0
M  V30 15923 H 1497.81 -1.36679 -0.86779 0
M  V30 15924 H 1499.81 -0.966307 -3.92994 0
M  V30 15925 H 1498.38 -0.287499 -3.11275 0
M  V30 15926 H 1497.6 -2.75575 -2.81873 0
M  V30 15927 H 1498.88 -3.2076 -3.94956 0
M  V30 15928 H 1498.28 -0.509008 -5.63405 0
M  V30 15929 H 1496.84 -0.968239 -6.44568 0
M  V30 15930 N 1500.27 0.920374 -1.27933 0
M  V30 15931 C 1501.52 1.66554 -1.14474 0
M  V30 15932 C 1501.84 1.92545 0.308444 0
M  V30 15933 O 1501.11 1.53691 1.21473 0
M  V30 15934 H 1499.69 0.617302 -0.420651 0
M  V30 15935 H 1502.35 1.10473 -1.60567 0
M  V30 15936 H 1501.45 2.63067 -1.67935 0
M  V30 15937 N 1501.75 1.10074 1.1279 0
M  V30 15938 C 1503.17 0.831776 1.36212 0
M  V30 15939 C 1503.37 -0.550632 1.93831 0
M  V30 15940 O 1502.42 -1.30422 2.16209 0
M  V30 15941 C 1503.73 1.92844 2.3072 0
M  V30 15942 C 1505.28 1.95645 2.4432 0
M  V30 15943 C 1505.76 3.04474 3.4214 0
M  V30 15944 N 1507.25 3.03756 3.49695 0
M  V30 15945 C 1507.98 3.84605 4.25284 0
M  V30 15946 N 1507.48 4.7538 5.0397 0
M  V30 15947 N 1509.27 3.72838 4.20652 0
M  V30 15948 H 1501.42 1.99187 0.737452 0
M  V30 15949 H 1503.69 0.865383 0.387062 0
M  V30 15950 H 1503.39 2.92323 1.9555 0
M  V30 15951 H 1503.27 1.81241 3.30805 0
M  V30 15952 H 1505.65 0.968004 2.78772 0
M  V30 15953 H 1505.73 2.11325 1.44136 0
M  V30 15954 H 1505.38 4.03536 3.08418 0
M  V30 15955 H 1505.31 2.86036 4.42144 0
M  V30 15956 H 1507.8 2.37977 2.93556 0
M  V30 15957 H 1508.11 5.33637 5.58974 0
M  V30 15958 H 1506.46 4.79411 5.0318 0
M  V30 15959 H 1509.65 3.01276 3.5826 0
M  V30 15960 H 1509.82 4.36083 4.79308 0
M  V30 15961 N 1503.23 -1.30138 0.888926 0
M  V30 15962 C 1504.48 -1.95265 0.5054 0
M  V30 15963 C 1504.79 -1.70925 -0.950998 0
M  V30 15964 O 1506 -2.30069 -1.44155 0
M  V30 15965 C 1504.45 -3.49647 0.852937 0
M  V30 15966 C 1504.06 -3.82802 2.32737 0
M  V30 15967 C 1505.8 -4.21067 0.538801 0
M  V30 15968 C 1503.71 -5.30379 2.61633 0
M  V30 15969 H 1502.64 -0.730882 0.185278 0
M  V30 15970 H 1505.29 -1.48027 1.08444 0
M  V30 15971 H 1503.67 -3.9548 0.202937 0
M  V30 15972 H 1504.85 -3.47866 3.02202 0
M  V30 15973 H 1503.16 -3.24495 2.60944 0
M  V30 15974 H 1505.76 -5.2967 0.731676 0
M  V30 15975 H 1506.1 -4.13014 -0.522039 0
M  V30 15976 H 1506.64 -3.8093 1.14617 0
M  V30 15977 H 1503.37 -5.43486 3.66473 0
M  V30 15978 H 1502.89 -5.66601 1.96782 0
M  V30 15979 H 1504.57 -5.97856 2.47339 0
M  V30 15980 N 1504.71 -0.650285 -1.43559 0
M  V30 15981 C 1505.64 0.0817484 -2.29054 0
M  V30 15982 C 1506.65 0.790023 -1.42346 0
M  V30 15983 O 1507.84 0.648269 -1.66312 0
M  V30 15984 C 1504.94 1.13873 -3.19196 0
M  V30 15985 C 1504.11 0.509177 -4.34426 0
M  V30 15986 C 1503.17 1.46265 -5.05463 0
M  V30 15987 O 1502.2 0.972378 -5.60833 0
M  V30 15988 N 1503.4 2.79668 -5.08691 0
M  V30 15989 H 1506.16 -0.652062 -2.92521 0
M  V30 15990 H 1503.73 -0.49285 -1.54216 0
M  V30 15991 H 1505.72 1.77732 -3.63584 0
M  V30 15992 H 1504.29 1.77454 -2.5735 0
M  V30 15993 H 1503.51 -0.308444 -3.92991 0
M  V30 15994 H 1504.8 0.0695732 -5.08752 0
M  V30 15995 H 1504.19 3.22062 -4.65072 0
M  V30 15996 H 1502.75 3.38838 -5.56805 0
M  V30 15997 N 1506.18 1.52647 -0.392018 0
M  V30 15998 C 1507.43 2.01912 0.18958 0
M  V30 15999 C 1507.76 1.27786 1.46234 0
M  V30 16000 O 1507.04 0.379124 1.90769 0
M  V30 16001 C 1507.32 3.57217 0.454734 0
M  V30 16002 C 1507.17 4.4201 -0.833501 0
M  V30 16003 C 1508.49 4.22146 1.24421 0
M  V30 16004 H 1505.61 0.733909 0.0674281 0
M  V30 16005 H 1508.25 1.82685 -0.52212 0
M  V30 16006 H 1506.4 3.73731 1.06101 0
M  V30 16007 H 1508.08 4.37242 -1.47027 0
M  V30 16008 H 1506.32 4.08912 -1.44823 0
M  V30 16009 H 1506.99 5.48701 -0.602585 0
M  V30 16010 H 1509.47 4.09627 0.731093 0
M  V30 16011 H 1508.34 5.30786 1.39848 0
M  V30 16012 H 1508.6 3.7996 2.26016 0
M  V30 16013 N 1507.66 0.121921 1.57128 0
M  V30 16014 C 1508.89 -0.543012 1.99647 0
M  V30 16015 C 1509.31 -1.60038 1.00165 0
M  V30 16016 O 1508.66 -1.82499 -0.00504688 0
M  V30 16017 C 1508.71 -1.1665 3.42162 0
M  V30 16018 O 1508.43 -0.151385 4.37838 0
M  V30 16019 C 1509.94 -1.91447 3.99829 0
M  V30 16020 H 1507.16 -0.143524 0.655471 0
M  V30 16021 H 1509.7 0.20912 2.03428 0
M  V30 16022 H 1507.85 -1.86939 3.39312 0
M  V30 16023 H 1508.27 -0.604773 5.21002 0
M  V30 16024 H 1509.74 -2.30394 5.0162 0
M  V30 16025 H 1510.22 -2.7908 3.39133 0
M  V30 16026 H 1510.83 -1.25913 4.06234 0
M  V30 16027 N 1509.14 -1.56867 -0.151857 0
M  V30 16028 C 1510.05 -2.01157 -1.20718 0
M  V30 16029 C 1511.07 -0.926166 -1.47303 0
M  V30 16030 O 1512.24 -1.23528 -1.59069 0
M  V30 16031 C 1509.31 -2.37915 -2.52185 0
M  V30 16032 C 1508.37 -3.60381 -2.3329 0
M  V30 16033 C 1507.6 -3.95376 -3.58488 0
M  V30 16034 O 1507.82 -3.31093 -4.64471 0
M  V30 16035 O 1506.76 -4.88645 -3.5144 0
M  V30 16036 H 1510.58 -2.91234 -0.861175 0
M  V30 16037 H 1508.17 -1.44993 -0.360213 0
M  V30 16038 H 1510.05 -2.6244 -3.29702 0
M  V30 16039 H 1508.73 -1.50995 -2.86325 0
M  V30 16040 H 1507.63 -3.4105 -1.5374 0
M  V30 16041 H 1508.97 -4.47903 -2.04067 0
M  V30 16042 N 1510.62 0.421051 -1.51871 0
M  V30 16043 C 1511.53 1.5371 -1.7723 0
M  V30 16044 C 1512.54 1.61109 -0.657256 0
M  V30 16045 O 1513.72 1.78047 -0.941343 0
M  V30 16046 C 1510.79 2.89555 -1.9068 0
M  V30 16047 C 1509.85 2.9214 -3.14567 0
M  V30 16048 C 1509.08 4.21505 -3.27367 0
M  V30 16049 O 1509.3 5.14764 -2.45712 0
M  V30 16050 O 1508.24 4.30706 -4.20448 0
M  V30 16051 H 1512.06 1.35221 -2.71935 0
M  V30 16052 H 1509.65 0.605712 -1.3657 0
M  V30 16053 H 1511.53 3.70147 -2.01418 0
M  V30 16054 H 1510.2 3.08137 -0.991627 0
M  V30 16055 H 1509.11 2.10444 -3.09296 0
M  V30 16056 H 1510.44 2.78505 -4.05827 0
M  V30 16057 N 1512.1 1.42293 0.677538 0
M  V30 16058 C 1513.34 1.42827 1.43973 0
M  V30 16059 C 1513.68 0.0435041 1.94151 0
M  V30 16060 O 1512.95 -0.931794 1.70727 0
M  V30 16061 C 1513.23 2.45037 2.63873 0
M  V30 16062 C 1513.09 3.92694 2.19344 0
M  V30 16063 C 1514.41 2.4427 3.66087 0
M  V30 16064 H 1511.52 0.520097 0.522176 0
M  V30 16065 H 1514.17 1.73688 0.770219 0
M  V30 16066 H 1512.32 2.18851 3.20993 0
M  V30 16067 H 1513.99 4.2985 1.67412 0
M  V30 16068 H 1512.23 4.06692 1.50944 0
M  V30 16069 H 1512.9 4.59784 3.05455 0
M  V30 16070 H 1515.38 2.67551 3.18678 0
M  V30 16071 H 1514.25 3.17769 4.47564 0
M  V30 16072 H 1514.52 1.46769 4.17027 0
M  V30 16073 N 1513.57 -0.913576 1.28419 0
M  V30 16074 C 1514.52 -2.00257 1.09001 0
M  V30 16075 C 1515.51 -1.60894 0.0136118 0
M  V30 16076 O 1516.7 -1.75449 0.233769 0
M  V30 16077 C 1513.83 -3.34916 0.754073 0
M  V30 16078 C 1512.92 -3.8068 1.86932 0
M  V30 16079 N 1513.31 -3.98814 3.11096 0
M  V30 16080 C 1511.6 -4.09839 1.75921 0
M  V30 16081 C 1512.31 -4.37149 3.83765 0
M  V30 16082 N 1511.28 -4.45417 3.11616 0
M  V30 16083 H 1515.08 -2.12327 2.0321 0
M  V30 16084 H 1512.6 -1.10143 1.19341 0
M  V30 16085 H 1514.59 -4.12617 0.596035 0
M  V30 16086 H 1513.25 -3.24199 -0.180246 0
M  V30 16087 H 1514.27 -3.84729 3.46705 0
M  V30 16088 H 1510.94 -4.07757 0.896679 0
M  V30 16089 H 1512.33 -4.5914 4.9055 0
M  V30 16090 N 1515.05 -1.1067 -1.12204 0
M  V30 16091 C 1516.47 -0.838988 -1.35769 0
M  V30 16092 C 1516.67 0.540345 -1.9412 0
M  V30 16093 O 1515.72 1.29274 -2.16897 0
M  V30 16094 C 1517.04 -1.94065 -2.29694 0
M  V30 16095 C 1518.59 -1.96938 -2.43279 0
M  V30 16096 C 1519.06 -3.06284 -3.4052 0
M  V30 16097 N 1520.55 -3.05607 -3.48079 0
M  V30 16098 C 1521.29 -3.86855 -4.23238 0
M  V30 16099 N 1520.78 -4.78046 -5.01442 0
M  V30 16100 N 1522.58 -3.75064 -4.18669 0
M  V30 16101 H 1514.73 -1.99575 -0.726878 0
M  V30 16102 H 1516.99 -0.867423 -0.382467 0
M  V30 16103 H 1516.7 -2.93356 -1.93997 0
M  V30 16104 H 1516.57 -1.82992 -3.29839 0
M  V30 16105 H 1518.96 -0.982774 -2.78254 0
M  V30 16106 H 1519.04 -2.12087 -1.43014 0
M  V30 16107 H 1518.68 -4.05165 -3.06273 0
M  V30 16108 H 1518.61 -2.88376 -4.40621 0
M  V30 16109 H 1521.1 -2.39531 -2.9229 0
M  V30 16110 H 1521.42 -5.36594 -5.56136 0
M  V30 16111 H 1519.76 -4.82073 -5.0063 0
M  V30 16112 H 1522.95 -3.03172 -3.56657 0
M  V30 16113 H 1523.12 -4.38618 -4.76988 0
M  V30 16114 N 1516.53 1.29665 -0.895815 0
M  V30 16115 C 1517.46 2.30268 -0.387151 0
M  V30 16116 C 1518.44 1.61442 0.535768 0
M  V30 16117 O 1519.63 1.88978 0.447321 0
M  V30 16118 C 1516.76 3.45107 0.389639 0
M  V30 16119 C 1515.71 4.25706 -0.442498 0
M  V30 16120 C 1515.04 5.32704 0.461552 0
M  V30 16121 C 1516.34 4.9419 -1.69036 0
M  V30 16122 H 1518.03 2.73064 -1.22786 0
M  V30 16123 H 1515.58 1.31274 -0.591869 0
M  V30 16124 H 1517.53 4.14559 0.756203 0
M  V30 16125 H 1516.25 3.01145 1.2641 0
M  V30 16126 H 1514.91 3.57957 -0.791343 0
M  V30 16127 H 1514.56 4.84987 1.33403 0
M  V30 16128 H 1514.26 5.87529 -0.0915006 0
M  V30 16129 H 1515.78 6.05009 0.824395 0
M  V30 16130 H 1517.2 5.561 -1.39376 0
M  V30 16131 H 1515.6 5.5893 -2.18444 0
M  V30 16132 H 1516.67 4.19699 -2.42859 0
M  V30 16133 N 1518.01 0.657889 1.43212 0
M  V30 16134 C 1518.94 -0.0172114 2.33494 0
M  V30 16135 C 1519.92 -0.807087 1.49733 0
M  V30 16136 O 1521.1 -0.767631 1.78385 0
M  V30 16137 C 1518.23 -0.981029 3.33156 0
M  V30 16138 C 1517.19 -0.30094 4.26941 0
M  V30 16139 C 1516.51 -1.37653 5.16678 0
M  V30 16140 C 1517.81 0.809572 5.15988 0
M  V30 16141 H 1519.51 0.736749 2.90194 0
M  V30 16142 H 1517.05 0.355744 1.39537 0
M  V30 16143 H 1519.01 -1.46226 3.95216 0
M  V30 16144 H 1517.73 -1.76621 2.74723 0
M  V30 16145 H 1516.39 0.159893 3.66251 0
M  V30 16146 H 1516.04 -2.15326 4.54581 0
M  V30 16147 H 1515.74 -0.926704 5.80246 0
M  V30 16148 H 1517.26 -1.85903 5.81612 0
M  V30 16149 H 1518.68 0.410297 5.7183 0
M  V30 16150 H 1517.07 1.18415 5.88301 0
M  V30 16151 H 1518.14 1.66558 4.55397 0
M  V30 16152 N 1519.49 -1.52437 0.400108 0
M  V30 16153 C 1520.9 -1.5952 0.0505611 0
M  V30 16154 C 1521.1 -1.4135 -1.43606 0
M  V30 16155 O 1520.16 -1.23591 -2.20185 0
M  V30 16156 C 1521.47 -2.95859 0.537411 0
M  V30 16157 C 1523.02 -3.09067 0.494603 0
M  V30 16158 C 1523.49 -4.47873 0.957815 0
M  V30 16159 N 1524.99 -4.54087 0.914267 0
M  V30 16160 C 1525.72 -5.59744 1.24397 0
M  V30 16161 N 1525.22 -6.72995 1.64469 0
M  V30 16162 N 1527.01 -5.49905 1.16452 0
M  V30 16163 H 1519.16 -1.62496 1.36781 0
M  V30 16164 H 1521.42 -0.763947 0.561328 0
M  V30 16165 H 1521.13 -3.14407 1.57611 0
M  V30 16166 H 1521 -3.77156 -0.0577652 0
M  V30 16167 H 1523.39 -2.90209 -0.535035 0
M  V30 16168 H 1523.47 -2.29698 1.12572 0
M  V30 16169 H 1523.12 -4.67473 1.98574 0
M  V30 16170 H 1523.05 -5.25724 0.303602 0
M  V30 16171 H 1525.54 -3.72787 0.619536 0
M  V30 16172 H 1525.85 -7.49594 1.87961 0
M  V30 16173 H 1524.19 -6.74298 1.68364 0
M  V30 16174 H 1527.39 -4.60311 0.850401 0
M  V30 16175 H 1527.56 -6.32142 1.42478 0
M  V30 16176 N 1520.96 -0.130252 -1.57061 0
M  V30 16177 C 1522.38 0.226279 -1.57988 0
M  V30 16178 C 1522.58 1.65902 -1.14363 0
M  V30 16179 O 1521.64 2.38252 -0.836191 0
M  V30 16180 C 1522.95 -0.0172647 -3.00695 0
M  V30 16181 C 1524.5 0.0477572 -3.12964 0
M  V30 16182 C 1524.97 -0.168238 -4.57691 0
M  V30 16183 N 1526.46 -0.114591 -4.63058 0
M  V30 16184 C 1527.2 -0.256462 -5.72826 0
M  V30 16185 N 1526.69 -0.455129 -6.91303 0
M  V30 16186 N 1528.49 -0.195243 -5.61761 0
M  V30 16187 H 1520.64 -1.06594 -1.83716 0
M  V30 16188 H 1522.9 -0.420643 -0.849567 0
M  V30 16189 H 1522.61 -1.00819 -3.3694 0
M  V30 16190 H 1522.48 0.709629 -3.70465 0
M  V30 16191 H 1524.87 1.02922 -2.7657 0
M  V30 16192 H 1524.95 -0.711198 -2.45714 0
M  V30 16193 H 1524.59 -1.14673 -4.94785 0
M  V30 16194 H 1524.52 0.610839 -5.23045 0
M  V30 16195 H 1527.01 0.0349873 -3.77884 0
M  V30 16196 H 1527.33 -0.553943 -7.70812 0
M  V30 16197 H 1525.67 -0.491244 -6.93262 0
M  V30 16198 H 1528.86 -0.0409186 -4.68082 0
M  V30 16199 H 1529.04 -0.309248 -6.47262 0
M  V30 16200 N 1522.44 1.56945 0.143535 0
M  V30 16201 C 1523.68 1.85347 0.861738 0
M  V30 16202 C 1524.05 0.715009 1.7819 0
M  V30 16203 O 1525.25 0.880162 2.53981 0
M  V30 16204 C 1523.52 3.18937 1.61288 0
M  V30 16205 S 1525.08 3.68904 2.37603 0
M  V30 16206 H 1521.9 0.650015 0.2881 0
M  V30 16207 H 1524.5 1.95122 0.121527 0
M  V30 16208 H 1523.2 3.9976 0.928434 0
M  V30 16209 H 1522.73 3.12176 2.39394 0
M  V30 16210 H 1524.75 3.38445 3.62863 0
M  V30 16211 N 1523.92 -0.412991 1.52093 0
M  V30 16212 C 1525.33 -0.991955 1.58168 0
M  V30 16213 C 1525.68 -1.91655 0.419834 0
M  V30 16214 O 1524.81 -2.11448 -0.460308 0
M  V30 16215 C 1525.4 -1.80581 2.86663 0
M  V30 16216 C 1523.96 -2.33487 2.9523 0
M  V30 16217 C 1523.11 -1.13362 2.5307 0
M  V30 16218 H 1526.06 -0.193364 1.57518 0
M  V30 16219 H 1526.08 -2.66282 2.71798 0
M  V30 16220 H 1525.59 -1.13262 3.71205 0
M  V30 16221 H 1523.69 -3.0419 2.15173 0
M  V30 16222 H 1523.81 -2.64617 3.99393 0
M  V30 16223 H 1522.17 -1.48641 2.06828 0
M  V30 16224 H 1522.95 -0.476148 3.39982 0
M  V30 16225 N 1525.4 -1.4265 -0.669982 0
M  V30 16226 C 1526.63 -1.46571 -1.45604 0
M  V30 16227 C 1527.04 -0.0769961 -1.89043 0
M  V30 16228 O 1526.38 0.919604 -1.59025 0
M  V30 16229 C 1526.44 -2.33435 -2.73401 0
M  V30 16230 C 1526.11 -3.81236 -2.52008 0
M  V30 16231 C 1527.1 -4.72768 -2.16301 0
M  V30 16232 C 1524.79 -4.25552 -2.66853 0
M  V30 16233 C 1526.78 -6.0661 -1.95712 0
M  V30 16234 C 1524.47 -5.59452 -2.4588 0
M  V30 16235 C 1525.47 -6.49797 -2.10364 0
M  V30 16236 O 1525.16 -7.81222 -1.89597 0
M  V30 16237 H 1524.89 -0.500529 -0.454364 0
M  V30 16238 H 1527.44 -1.87875 -0.830199 0
M  V30 16239 H 1525.67 -1.86989 -3.38485 0
M  V30 16240 H 1527.36 -2.28755 -3.353 0
M  V30 16241 H 1528.13 -4.39814 -2.04423 0
M  V30 16242 H 1524.01 -3.55518 -2.93475 0
M  V30 16243 H 1527.55 -6.7709 -1.67914 0
M  V30 16244 H 1523.45 -5.91978 -2.57355 0
M  V30 16245 H 1524.21 -7.9263 -2.04157 0
M  V30 16246 N 1526.88 0.906753 -1.28902 0
M  V30 16247 C 1527.83 1.99676 -1.10061 0
M  V30 16248 C 1528.81 1.60885 -0.0221442 0
M  V30 16249 O 1530 1.75323 -0.24307 0
M  V30 16250 C 1527.13 3.34511 -0.771823 0
M  V30 16251 C 1526.22 3.79683 -1.88948 0
M  V30 16252 N 1526.61 3.97159 -3.13207 0
M  V30 16253 C 1524.91 4.089 -1.78092 0
M  V30 16254 C 1525.61 4.35108 -3.86078 0
M  V30 16255 N 1524.58 4.43759 -3.13973 0
M  V30 16256 H 1528.39 2.11247 -2.04333 0
M  V30 16257 H 1525.9 1.09508 -1.19924 0
M  V30 16258 H 1527.9 4.12295 -0.617909 0
M  V30 16259 H 1526.56 3.2429 0.16305 0
M  V30 16260 H 1527.57 3.82884 -3.4874 0
M  V30 16261 H 1524.25 4.07276 -0.918291 0
M  V30 16262 H 1525.64 4.56533 -4.92978 0
M  V30 16263 N 1528.36 1.11264 1.11616 0
M  V30 16264 C 1529.6 0.860364 1.83314 0
M  V30 16265 C 1529.93 -0.614011 1.84554 0
M  V30 16266 O 1529.19 -1.4692 1.29279 0
M  V30 16267 C 1529.48 1.36481 3.30315 0
M  V30 16268 C 1529.15 2.85209 3.49237 0
M  V30 16269 C 1527.81 3.25822 3.54109 0
M  V30 16270 C 1530.16 3.81009 3.55642 0
M  V30 16271 C 1527.49 4.60968 3.62941 0
M  V30 16272 C 1529.84 5.15968 3.66005 0
M  V30 16273 C 1528.51 5.56142 3.69137 0
M  V30 16274 H 1527.78 0.314829 0.670793 0
M  V30 16275 H 1530.43 1.39073 1.31647 0
M  V30 16276 H 1528.73 0.754639 3.84464 0
M  V30 16277 H 1530.43 1.14597 3.84276 0
M  V30 16278 H 1527.02 2.52791 3.46114 0
M  V30 16279 H 1531.2 3.50734 3.5114 0
M  V30 16280 H 1526.46 4.91503 3.63641 0
M  V30 16281 H 1530.63 5.90037 3.69904 0
M  V30 16282 H 1528.26 6.60855 3.75732 0
M  V30 16283 N 1529.83 -1.29188 0.902679 0
M  V30 16284 C 1531.08 -1.95727 0.530909 0
M  V30 16285 C 1531.41 -1.70971 -0.921014 0
M  V30 16286 O 1530.69 -1.02436 -1.65339 0
M  V30 16287 C 1530.97 -3.50463 0.827523 0
M  V30 16288 C 1530.82 -3.84665 2.33137 0
M  V30 16289 C 1532.14 -4.38964 0.316053 0
M  V30 16290 H 1529.26 -0.71091 0.194361 0
M  V30 16291 H 1531.9 -1.52752 1.1299 0
M  V30 16292 H 1530.05 -3.87199 0.317732 0
M  V30 16293 H 1531.73 -3.57859 2.91093 0
M  V30 16294 H 1529.97 -3.32102 2.79088 0
M  V30 16295 H 1530.64 -4.92676 2.48947 0
M  V30 16296 H 1533.12 -4.09237 0.75262 0
M  V30 16297 H 1531.99 -5.4611 0.552769 0
M  V30 16298 H 1532.25 -4.35105 -0.783329 0
M  V30 16299 N 1531.31 -0.665475 -1.42861 0
M  V30 16300 C 1532.55 -0.187645 -2.03537 0
M  V30 16301 C 1532.92 1.18032 -1.51435 0
M  V30 16302 O 1534.12 1.75227 -2.03836 0
M  V30 16303 C 1532.39 -0.210502 -3.5678 0
M  V30 16304 S 1533.95 0.197691 -4.38354 0
M  V30 16305 H 1530.76 -0.0780044 -0.706708 0
M  V30 16306 H 1533.37 -0.876548 -1.74748 0
M  V30 16307 H 1532.07 -1.20863 -3.92199 0
M  V30 16308 H 1531.6 0.498541 -3.90228 0
M  V30 16309 H 1533.62 1.43348 -4.75043 0
M  V30 16310 N 1532.79 1.52222 -0.408187 0
M  V30 16311 C 1534.21 1.59491 -0.0590201 0
M  V30 16312 C 1534.41 1.42109 1.42854 0
M  V30 16313 O 1533.46 1.24757 2.19527 0
M  V30 16314 C 1534.77 2.9557 -0.553093 0
M  V30 16315 C 1536.32 3.08801 -0.510986 0
M  V30 16316 C 1536.8 4.47358 -0.981554 0
M  V30 16317 N 1538.29 4.53596 -0.938335 0
M  V30 16318 C 1539.02 5.59076 -1.27364 0
M  V30 16319 N 1538.52 6.72113 -1.68035 0
M  V30 16320 N 1540.31 5.49279 -1.19367 0
M  V30 16321 H 1532.46 1.61768 -1.37641 0
M  V30 16322 H 1534.73 0.760959 -0.565372 0
M  V30 16323 H 1534.43 3.13566 -1.59276 0
M  V30 16324 H 1534.31 3.77181 0.0377629 0
M  V30 16325 H 1536.69 2.90489 0.519637 0
M  V30 16326 H 1536.77 2.29098 -1.13788 0
M  V30 16327 H 1536.42 4.66413 -2.0105 0
M  V30 16328 H 1536.35 5.25556 -0.331478 0
M  V30 16329 H 1538.84 3.72453 -0.639297 0
M  V30 16330 H 1539.15 7.48586 -1.91934 0
M  V30 16331 H 1537.5 6.73396 -1.71938 0
M  V30 16332 H 1540.69 4.59853 -0.8748 0
M  V30 16333 H 1540.86 6.31378 -1.45829 0
M  V30 16334 N 1534.27 0.138579 1.5699 0
M  V30 16335 C 1535.52 -0.513611 1.95465 0
M  V30 16336 C 1535.84 -1.65952 1.02396 0
M  V30 16337 O 1535.11 -1.9572 0.0839001 0
M  V30 16338 H 1533.69 -0.192729 0.72171 0
M  V30 16339 H 1536.35 0.212107 1.93742 0
M  V30 16340 H 1535.44 -0.895313 2.98983 0
M  V30 16341 N 1535.75 -1.57019 -0.13521 0
M  V30 16342 C 1536.69 -1.99148 -1.16657 0
M  V30 16343 C 1537.66 -0.860947 -1.42045 0
M  V30 16344 O 1538.85 -1.12393 -1.54183 0
M  V30 16345 C 1535.99 -2.3872 -2.49212 0
M  V30 16346 C 1535.1 -3.65117 -2.30898 0
M  V30 16347 C 1534.24 -3.9374 -3.5657 0
M  V30 16348 C 1533.27 -5.1337 -3.33343 0
M  V30 16349 N 1532.41 -5.37945 -4.51176 0
M  V30 16350 H 1537.25 -2.87052 -0.800312 0
M  V30 16351 H 1534.79 -1.42007 -0.383705 0
M  V30 16352 H 1536.75 -2.59695 -3.26518 0
M  V30 16353 H 1535.38 -1.53879 -2.83762 0
M  V30 16354 H 1534.43 -3.5185 -1.44588 0
M  V30 16355 H 1535.74 -4.52578 -2.09701 0
M  V30 16356 H 1534.89 -4.15277 -4.423 0
M  V30 16357 H 1533.63 -3.04723 -3.80782 0
M  V30 16358 H 1532.64 -4.91694 -2.46002 0
M  V30 16359 H 1533.86 -6.0395 -3.10517 0
M  V30 16360 H 1531.81 -4.51884 -4.75539 0
M  V30 16361 H 1531.73 -6.19698 -4.33025 0
M  V30 16362 H 1532.99 -5.63989 -5.38086 0
M  V30 16363 N 1537.22 0.404919 -1.52309 0
M  V30 16364 C 1538.47 1.15319 -1.66822 0
M  V30 16365 C 1538.8 1.90056 -0.399041 0
M  V30 16366 O 1538.08 1.84927 0.602679 0
M  V30 16367 C 1538.36 2.14426 -2.89298 0
M  V30 16368 C 1538.21 1.43558 -4.26276 0
M  V30 16369 C 1539.53 3.15046 -3.07301 0
M  V30 16370 H 1536.65 0.417869 -0.607087 0
M  V30 16371 H 1539.29 0.438414 -1.84873 0
M  V30 16372 H 1537.44 2.75382 -2.74039 0
M  V30 16373 H 1539.12 0.856899 -4.53271 0
M  V30 16374 H 1537.36 0.737515 -4.27485 0
M  V30 16375 H 1538.03 2.15895 -5.08029 0
M  V30 16376 H 1540.51 2.6417 -3.21486 0
M  V30 16377 H 1539.38 3.81652 -3.94503 0
M  V30 16378 H 1539.64 3.83012 -2.20803 0
M  V30 16379 N 1538.7 1.43003 0.662408 0
M  V30 16380 C 1539.93 1.47766 1.45533 0
M  V30 16381 C 1540.35 0.0940298 1.87865 0
M  V30 16382 O 1539.71 -0.910252 1.56793 0
M  V30 16383 C 1539.76 2.42084 2.6726 0
M  V30 16384 O 1538.86 1.90076 3.65985 0
M  V30 16385 H 1538.2 0.500167 0.436725 0
M  V30 16386 H 1540.73 1.87823 0.811399 0
M  V30 16387 H 1540.74 2.5908 3.15185 0
M  V30 16388 H 1539.42 3.42601 2.3579 0
M  V30 16389 H 1538 1.82695 3.2508 0
M  V30 16390 N 1540.18 -0.899904 1.29381 0
M  V30 16391 C 1541.43 -1.65282 1.17515 0
M  V30 16392 C 1541.76 -1.92275 -0.272788 0
M  V30 16393 O 1541.03 -1.53303 -1.19701 0
M  V30 16394 C 1541.32 -3.00207 1.98867 0
M  V30 16395 C 1541.17 -2.80281 3.51799 0
M  V30 16396 C 1542.49 -4.00936 1.81489 0
M  V30 16397 H 1539.61 -0.5998 0.428263 0
M  V30 16398 H 1542.25 -1.04241 1.58852 0
M  V30 16399 H 1540.4 -3.52308 1.63741 0
M  V30 16400 H 1542.07 -2.35082 3.96905 0
M  V30 16401 H 1540.32 -2.15068 3.76733 0
M  V30 16402 H 1540.99 -3.76155 4.03994 0
M  V30 16403 H 1543.46 -3.57944 2.12169 0
M  V30 16404 H 1542.34 -4.9328 2.4076 0
M  V30 16405 H 1542.6 -4.35342 0.770021 0
M  V30 16406 N 1541.66 -1.11854 -1.11024 0
M  V30 16407 C 1542.61 -0.780825 -2.17191 0
M  V30 16408 C 1543.58 0.249657 -1.64213 0
M  V30 16409 O 1544.76 0.125603 -1.90386 0
M  V30 16410 C 1541.9 -0.23491 -3.443 0
M  V30 16411 C 1541.01 -1.32247 -4.1126 0
M  V30 16412 C 1540.15 -0.736638 -5.26068 0
M  V30 16413 C 1539.19 -1.80375 -5.8492 0
M  V30 16414 N 1538.32 -1.23709 -6.91115 0
M  V30 16415 H 1543.16 -1.69031 -2.45423 0
M  V30 16416 H 1540.7 -0.844041 -1.20476 0
M  V30 16417 H 1542.66 0.0996064 -4.17081 0
M  V30 16418 H 1541.29 0.637752 -3.16437 0
M  V30 16419 H 1540.34 -1.77387 -3.36509 0
M  V30 16420 H 1541.65 -2.12965 -4.51051 0
M  V30 16421 H 1540.81 -0.352432 -6.05675 0
M  V30 16422 H 1539.55 0.101811 -4.87594 0
M  V30 16423 H 1538.55 -2.19721 -5.03987 0
M  V30 16424 H 1539.78 -2.64531 -6.2546 0
M  V30 16425 H 1537.72 -0.420357 -6.54652 0
M  V30 16426 H 1537.64 -1.98093 -7.29586 0
M  V30 16427 H 1538.91 -0.879912 -7.74518 0
M  V30 16428 N 1543.14 1.28707 -0.909517 0
M  V30 16429 C 1544.38 1.94768 -0.539413 0
M  V30 16430 C 1544.71 1.7198 0.919133 0
M  V30 16431 O 1543.98 1.0571 1.64931 0
M  V30 16432 H 1542.56 0.720693 -0.196496 0
M  V30 16433 H 1545.22 1.56772 -1.15795 0
M  V30 16434 H 1544.31 3.03436 -0.730281 0
M  V30 16435 N 1544.61 0.673042 1.42506 0
M  V30 16436 C 1545.56 -0.00638067 2.30799 0
M  V30 16437 C 1546.53 -0.794524 1.45865 0
M  V30 16438 O 1547.72 -0.767129 1.74699 0
M  V30 16439 C 1544.86 -0.952923 3.31683 0
M  V30 16440 C 1543.97 -0.158787 4.31708 0
M  V30 16441 C 1543.1 -1.10092 5.19666 0
M  V30 16442 C 1542.14 -0.29837 6.11372 0
M  V30 16443 N 1541.28 -1.19312 6.91888 0
M  V30 16444 H 1546.12 0.75237 2.88346 0
M  V30 16445 H 1543.66 0.382763 1.42033 0
M  V30 16446 H 1545.62 -1.51552 3.887 0
M  V30 16447 H 1544.25 -1.67832 2.75739 0
M  V30 16448 H 1543.3 0.520406 3.76823 0
M  V30 16449 H 1544.61 0.464385 4.96634 0
M  V30 16450 H 1543.76 -1.7335 5.81407 0
M  V30 16451 H 1542.5 -1.75798 4.54914 0
M  V30 16452 H 1541.51 0.347437 5.48701 0
M  V30 16453 H 1542.73 0.354569 6.78174 0
M  V30 16454 H 1540.68 -1.83661 6.29765 0
M  V30 16455 H 1540.6 -0.624986 7.53412 0
M  V30 16456 H 1541.86 -1.81323 7.58118 0
M  V30 16457 N 1546.09 -1.52004 0.416254 0
M  V30 16458 C 1547.34 -2.0149 -0.15689 0
M  V30 16459 C 1547.66 -1.30343 -1.45037 0
M  V30 16460 O 1546.93 -0.431503 -1.91089 0
M  V30 16461 H 1545.51 -0.744508 -0.0609682 0
M  V30 16462 H 1548.17 -1.86857 0.55413 0
M  V30 16463 H 1547.27 -3.10155 -0.347917 0
M  V30 16464 N 1547.57 -0.146903 -1.56914 0
M  V30 16465 C 1548.48 0.805875 -2.20324 0
M  V30 16466 C 1549.5 1.27178 -1.18751 0
M  V30 16467 O 1550.67 1.32899 -1.51327 0
M  V30 16468 C 1547.74 2.02755 -2.81232 0
M  V30 16469 C 1546.8 1.61089 -3.97931 0
M  V30 16470 C 1546.03 2.77433 -4.55924 0
M  V30 16471 O 1546.25 3.93643 -4.12797 0
M  V30 16472 O 1545.19 2.52911 -5.46187 0
M  V30 16473 H 1549.01 0.296098 -3.02253 0
M  V30 16474 H 1546.6 0.0801175 -1.49185 0
M  V30 16475 H 1548.48 2.74252 -3.19944 0
M  V30 16476 H 1547.16 2.52686 -2.02316 0
M  V30 16477 H 1546.06 0.86616 -3.63935 0
M  V30 16478 H 1547.4 1.15874 -4.78366 0
M  V30 16479 N 1549.05 1.57088 0.126881 0
M  V30 16480 C 1549.98 1.94951 1.18614 0
M  V30 16481 C 1550.96 0.818067 1.40522 0
M  V30 16482 O 1552.14 1.07553 1.54805 0
M  V30 16483 C 1549.27 2.23893 2.54144 0
M  V30 16484 C 1548.32 3.46475 2.48712 0
M  V30 16485 S 1549.15 4.9934 1.93443 0
M  V30 16486 C 1550.31 5.31426 3.30662 0
M  V30 16487 H 1550.54 2.84492 0.863219 0
M  V30 16488 H 1548.07 1.50759 0.333323 0
M  V30 16489 H 1550.03 2.41247 3.3213 0
M  V30 16490 H 1548.69 1.3498 2.83618 0
M  V30 16491 H 1547.88 3.64067 3.48528 0
M  V30 16492 H 1547.49 3.28467 1.78844 0
M  V30 16493 H 1549.78 5.26125 4.26847 0
M  V30 16494 H 1550.72 6.32726 3.17905 0
M  V30 16495 H 1551.13 4.5891 3.28727 0
M  V30 16496 N 1550.53 -0.396836 1.52522 0
M  V30 16497 C 1551.46 -1.49088 1.79708 0
M  V30 16498 C 1552.44 -1.57246 0.648678 0
M  V30 16499 O 1553.62 -1.72321 0.895495 0
M  V30 16500 C 1550.75 -2.86785 1.95887 0
M  V30 16501 C 1549.71 -2.93472 3.11542 0
M  V30 16502 C 1549.03 -4.33542 3.12963 0
M  V30 16503 C 1550.33 -2.63832 4.50766 0
M  V30 16504 H 1552.03 -1.26588 2.71322 0
M  V30 16505 H 1549.57 -0.607535 1.30557 0
M  V30 16506 H 1551.53 -3.63319 2.13489 0
M  V30 16507 H 1550.25 -3.10605 1.00955 0
M  V30 16508 H 1548.91 -2.19384 2.93711 0
M  V30 16509 H 1548.56 -4.5439 2.15729 0
M  V30 16510 H 1548.26 -4.38938 3.9065 0
M  V30 16511 H 1549.78 -5.11993 3.32709 0
M  V30 16512 H 1551.19 -3.30086 4.68739 0
M  V30 16513 H 1549.59 -2.80589 5.30462 0
M  V30 16514 H 1550.66 -1.59209 4.58018 0
M  V30 16515 N 1552.01 -1.43353 -0.654814 0
M  V30 16516 C 1553.23 -1.48322 -1.4425 0
M  V30 16517 C 1553.65 -0.100608 -1.88532 0
M  V30 16518 O 1553.01 0.888831 -1.59393 0
M  V30 16519 C 1553.06 -2.42769 -2.67853 0
M  V30 16520 O 1552.78 -3.75653 -2.25424 0
M  V30 16521 C 1554.28 -2.56964 -3.61226 0
M  V30 16522 H 1551.5 -0.503805 -0.443195 0
M  V30 16523 H 1554.04 -1.88078 -0.802916 0
M  V30 16524 H 1552.2 -2.06212 -3.27956 0
M  V30 16525 H 1552.61 -4.26427 -3.05386 0
M  V30 16526 H 1554.09 -3.27129 -4.44624 0
M  V30 16527 H 1554.56 -1.61404 -4.08467 0
M  V30 16528 H 1555.17 -2.94325 -3.07006 0
M  V30 16529 N 1553.48 0.89303 -1.29857 0
M  V30 16530 C 1554.71 1.675 -1.20943 0
M  V30 16531 C 1555.12 1.87779 0.231435 0
M  V30 16532 O 1554.46 1.41955 1.16596 0
M  V30 16533 C 1554.53 3.07722 -1.8587 0
M  V30 16534 C 1554.19 3.10647 -3.35182 0
M  V30 16535 C 1555.19 2.903 -4.31303 0
M  V30 16536 C 1552.87 3.32501 -3.76495 0
M  V30 16537 C 1554.87 2.91749 -5.66711 0
M  V30 16538 C 1552.55 3.33581 -5.12022 0
M  V30 16539 C 1553.55 3.13228 -6.06941 0
M  V30 16540 O 1553.24 3.14109 -7.39994 0
M  V30 16541 H 1552.97 0.529708 -0.419982 0
M  V30 16542 H 1555.53 1.12466 -1.71874 0
M  V30 16543 H 1553.76 3.64386 -1.29459 0
M  V30 16544 H 1555.44 3.68035 -1.71187 0
M  V30 16545 H 1556.21 2.73221 -4.00718 0
M  V30 16546 H 1552.09 3.47381 -3.03064 0
M  V30 16547 H 1555.63 2.75782 -6.40773 0
M  V30 16548 H 1551.53 3.50193 -5.4225 0
M  V30 16549 H 1552.3 3.3033 -7.48882 0
M  V30 16550 N 1554.96 1.12442 1.10429 0
M  V30 16551 C 1556.21 0.879758 1.82391 0
M  V30 16552 C 1556.54 -0.594402 1.85195 0
M  V30 16553 O 1555.79 -1.4554 1.3083 0
M  V30 16554 C 1556.09 1.39976 3.28849 0
M  V30 16555 C 1555.76 2.88897 3.46192 0
M  V30 16556 C 1554.42 3.2956 3.50633 0
M  V30 16557 C 1556.77 3.8476 3.51581 0
M  V30 16558 C 1554.1 4.64791 3.58031 0
M  V30 16559 C 1556.45 5.19821 3.60512 0
M  V30 16560 C 1555.11 5.60026 3.63217 0
M  V30 16561 H 1554.38 0.321926 0.667416 0
M  V30 16562 H 1557.03 1.40461 1.30165 0
M  V30 16563 H 1555.34 0.795374 3.83642 0
M  V30 16564 H 1557.03 1.18667 3.83039 0
M  V30 16565 H 1553.62 2.56448 3.43413 0
M  V30 16566 H 1557.81 3.54439 3.474 0
M  V30 16567 H 1553.06 4.95332 3.58408 0
M  V30 16568 H 1557.24 5.93927 3.63625 0
M  V30 16569 H 1554.86 6.64803 3.68702 0
M  V30 16570 N 1556.44 -1.28223 0.91633 0
M  V30 16571 C 1557.37 -2.29623 0.423735 0
M  V30 16572 C 1558.35 -1.62274 -0.510016 0
M  V30 16573 O 1559.54 -1.89666 -0.4172 0
M  V30 16574 C 1556.67 -3.45684 -0.334686 0
M  V30 16575 C 1555.62 -4.24949 0.510169 0
M  V30 16576 C 1554.95 -5.33371 -0.376745 0
M  V30 16577 C 1556.25 -4.91438 1.76877 0
M  V30 16578 H 1557.94 -2.71076 1.27115 0
M  V30 16579 H 1555.49 -1.30316 0.612678 0
M  V30 16580 H 1557.44 -4.1571 -0.690154 0
M  V30 16581 H 1556.16 -3.03118 -1.21603 0
M  V30 16582 H 1554.82 -3.56653 0.848191 0
M  V30 16583 H 1554.47 -4.87048 -1.25671 0
M  V30 16584 H 1554.17 -5.87309 0.18496 0
M  V30 16585 H 1555.69 -6.06244 -0.728039 0
M  V30 16586 H 1557.11 -5.53812 1.48205 0
M  V30 16587 H 1555.5 -5.55384 2.27308 0
M  V30 16588 H 1556.57 -4.15783 2.49505 0
M  V30 16589 N 1557.92 -0.68059 -1.42147 0
M  V30 16590 C 1558.83 -0.00595573 -2.34599 0
M  V30 16591 C 1559.84 0.782528 -1.55411 0
M  V30 16592 O 1561.02 0.723524 -1.87955 0
M  V30 16593 C 1558.08 0.92964 -3.34004 0
M  V30 16594 C 1557.15 0.135041 -4.29088 0
M  V30 16595 C 1556.38 1.02607 -5.23744 0
M  V30 16596 O 1556.6 2.26562 -5.23475 0
M  V30 16597 O 1555.54 0.483774 -5.99953 0
M  V30 16598 H 1559.36 -0.767652 -2.93838 0
M  V30 16599 H 1556.95 -0.440849 -1.42748 0
M  V30 16600 H 1558.83 1.46657 -3.95057 0
M  V30 16601 H 1557.5 1.67109 -2.7723 0
M  V30 16602 H 1556.41 -0.44613 -3.7143 0
M  V30 16603 H 1557.74 -0.567417 -4.88918 0
M  V30 16604 N 1559.4 1.51781 -0.424309 0
M  V30 16605 C 1560.64 2.0157 0.146203 0
M  V30 16606 C 1560.96 1.3111 1.44344 0
M  V30 16607 O 1560.23 0.441631 1.90857 0
M  V30 16608 H 1558.81 0.744821 0.057019 0
M  V30 16609 H 1561.48 1.8656 -0.564031 0
M  V30 16610 H 1560.57 3.10335 0.331464 0
M  V30 16611 N 1560.87 0.155222 1.56834 0
M  V30 16612 C 1562.29 -0.201116 1.58328 0
M  V30 16613 C 1562.49 -1.64061 1.16988 0
M  V30 16614 O 1561.55 -2.36892 0.873989 0
M  V30 16615 C 1562.86 0.0651005 3.0063 0
M  V30 16616 C 1564.41 0.00203866 3.13 0
M  V30 16617 C 1564.88 0.241032 4.57365 0
M  V30 16618 N 1566.37 0.188245 4.62817 0
M  V30 16619 C 1567.11 0.347562 5.72346 0
M  V30 16620 N 1566.6 0.565052 6.90492 0
M  V30 16621 N 1568.4 0.284589 5.61379 0
M  V30 16622 H 1560.55 1.09503 1.81997 0
M  V30 16623 H 1562.81 0.434106 0.842767 0
M  V30 16624 H 1562.52 1.06167 3.35293 0
M  V30 16625 H 1562.39 -0.650601 3.71547 0
M  V30 16626 H 1564.78 -0.98509 2.78173 0
M  V30 16627 H 1564.86 0.750199 2.44552 0
M  V30 16628 H 1564.5 1.2253 4.92898 0
M  V30 16629 H 1564.43 -0.52755 5.23951 0
M  V30 16630 H 1566.92 0.0251352 3.77892 0
M  V30 16631 H 1567.24 0.676502 7.69833 0
M  V30 16632 H 1565.58 0.601473 6.92392 0
M  V30 16633 H 1568.77 0.115381 4.67958 0
M  V30 16634 H 1568.95 0.412182 6.46688 0
M  V30 16635 N 1562.35 -1.57153 -0.118549 0
M  V30 16636 C 1563.58 -1.89062 -0.840429 0
M  V30 16637 C 1563.99 -0.746516 -1.73414 0
M  V30 16638 O 1563.35 0.282638 -1.80298 0
M  V30 16639 C 1563.4 -3.20433 -1.67347 0
M  V30 16640 O 1563.12 -4.30439 -0.815739 0
M  V30 16641 C 1564.62 -3.66048 -2.50047 0
M  V30 16642 H 1561.84 -0.626005 -0.241575 0
M  V30 16643 H 1564.39 -2.04241 -0.102804 0
M  V30 16644 H 1562.54 -3.06922 -2.36385 0
M  V30 16645 H 1562.96 -5.05736 -1.39037 0
M  V30 16646 H 1564.43 -4.60729 -3.04028 0
M  V30 16647 H 1564.91 -2.92727 -3.27426 0
M  V30 16648 H 1565.51 -3.82349 -1.86251 0
M  V30 16649 N 1563.83 0.388742 -1.5273 0
M  V30 16650 C 1565.11 1.14799 -1.58368 0
M  V30 16651 C 1565.49 2.07706 -0.377018 0
M  V30 16652 O 1564.83 2.1951 0.634634 0
M  V30 16653 C 1565.04 1.90745 -2.92262 0
M  V30 16654 C 1566.39 2.46098 -3.46007 0
M  V30 16655 O 1567.42 2.00901 -2.94138 0
M  V30 16656 O 1566.28 3.28658 -4.3663 0
M  V30 16657 H 1563.37 0.52529 -0.638748 0
M  V30 16658 H 1565.92 0.393874 -1.65066 0
M  V30 16659 H 1564.69 1.22806 -3.7153 0
M  V30 16660 H 1564.31 2.73118 -2.88951 0
M  V30 16661 N 1565.31 1.43698 0.647203 0
M  V30 16662 C 1566.56 1.45346 1.40425 0
M  V30 16663 C 1566.88 0.081129 1.94831 0
M  V30 16664 O 1566.15 -0.884379 1.74801 0
M  V30 16665 H 1564.73 0.535145 0.521181 0
M  V30 16666 H 1567.39 1.79349 0.762887 0
M  V30 16667 H 1566.48 2.16954 2.2436 0
M  V30 16668 N 1566.79 -0.886131 1.30328 0
M  V30 16669 C 1567.73 -2.01312 1.16516 0
M  V30 16670 C 1568.73 -1.69223 0.0773431 0
M  V30 16671 O 1569.93 -1.78418 0.238111 0
M  V30 16672 H 1566.31 -0.66006 0.360312 0
M  V30 16673 H 1568.28 -2.10097 2.11901 0
M  V30 16674 C 1567.03 -3.36573 0.872592 0
M  V30 16675 H 1566.35 -3.61775 1.70172 0
M  V30 16676 H 1567.79 -4.16073 0.816049 0
M  V30 16677 C 1566.25 -3.34215 -0.424465 0
M  V30 16678 O 1566.78 -3.74758 -1.44634 0
M  V30 16679 N 1564.99 -2.87323 -0.435207 0
M  V30 16680 H 1564.53 -2.54525 0.396851 0
M  V30 16681 H 1564.49 -2.86128 -1.303 0
M  V30 16682 N 1568.26 -1.13026 -1.09832 0
M  V30 16683 C 1569.51 -0.887662 -1.81563 0
M  V30 16684 C 1569.83 0.587935 -1.85926 0
M  V30 16685 O 1569.1 1.42732 -1.3418 0
M  V30 16686 H 1567.68 -0.32541 -0.672397 0
M  V30 16687 H 1570.35 -1.42597 -1.32861 0
M  V30 16688 H 1569.44 -1.2747 -2.84882 0
M  V30 16689 N 1569.74 1.27735 -0.923117 0
M  V30 16690 C 1570.97 1.9922 -0.57672 0
M  V30 16691 C 1571.39 1.68446 0.837113 0
M  V30 16692 O 1570.75 0.922129 1.56098 0
M  V30 16693 C 1570.8 3.51528 -0.803768 0
M  V30 16694 O 1569.9 4.12186 0.132829 0
M  V30 16695 H 1569.24 0.625593 -0.222553 0
M  V30 16696 H 1571.77 1.62657 -1.24112 0
M  V30 16697 H 1571.78 4.01641 -0.717534 0
M  V30 16698 H 1570.46 3.7326 -1.83439 0
M  V30 16699 H 1569.04 3.729 -0.00292957 0
M  V30 16700 N 1571.22 0.688118 1.41784 0
M  V30 16701 C 1572.15 -0.02099 2.2919 0
M  V30 16702 C 1573.17 -0.752005 1.44391 0
M  V30 16703 O 1574.35 -0.603947 1.67972 0
M  V30 16704 C 1571.45 -1.0537 3.22103 0
M  V30 16705 C 1570.63 -0.393817 4.35624 0
M  V30 16706 C 1569.69 -1.32812 5.09163 0
M  V30 16707 O 1568.71 -0.823341 5.63214 0
M  V30 16708 N 1569.91 -2.66083 5.15927 0
M  V30 16709 H 1572.68 0.729389 2.90689 0
M  V30 16710 H 1570.24 0.533564 1.52855 0
M  V30 16711 H 1572.23 -1.6803 3.68169 0
M  V30 16712 H 1570.8 -1.70568 2.61964 0
M  V30 16713 H 1570.02 0.41253 3.92035 0
M  V30 16714 H 1571.31 0.065338 5.08758 0
M  V30 16715 H 1570.71 -3.09619 4.73448 0
M  V30 16716 H 1569.27 -3.23956 5.65593 0
M  V30 16717 N 1572.7 -1.51554 0.432352 0
M  V30 16718 C 1573.95 -2.01232 -0.137255 0
M  V30 16719 C 1574.26 -1.32135 -1.44221 0
M  V30 16720 O 1575.47 -1.72756 -2.09446 0
M  V30 16721 C 1573.92 -3.58688 -0.295152 0
M  V30 16722 C 1573.53 -4.36718 0.999072 0
M  V30 16723 C 1575.27 -4.16528 -0.818798 0
M  V30 16724 C 1573.18 -5.85867 0.80709 0
M  V30 16725 H 1572.11 -0.751986 -0.0550696 0
M  V30 16726 H 1574.76 -1.74703 0.561352 0
M  V30 16727 H 1573.14 -3.81643 -1.05664 0
M  V30 16728 H 1574.32 -4.25512 1.76851 0
M  V30 16729 H 1572.63 -3.90306 1.45087 0
M  V30 16730 H 1575.23 -5.25664 -0.978841 0
M  V30 16731 H 1575.57 -3.75379 -1.79989 0
M  V30 16732 H 1576.11 -3.97632 -0.11575 0
M  V30 16733 H 1572.85 -6.31419 1.76041 0
M  V30 16734 H 1572.37 -5.9975 0.0773617 0
M  V30 16735 H 1574.04 -6.45375 0.458328 0
M  V30 16736 N 1574.18 -0.163538 -1.56749 0
M  V30 16737 C 1575.59 0.192717 -1.58432 0
M  V30 16738 C 1575.79 1.63438 -1.17856 0
M  V30 16739 O 1574.85 2.36425 -0.88654 0
M  V30 16740 C 1576.16 -0.0810427 -3.00591 0
M  V30 16741 C 1577.71 -0.0186378 -3.12994 0
M  V30 16742 C 1578.18 -0.265283 -4.57231 0
M  V30 16743 N 1579.68 -0.212787 -4.62711 0
M  V30 16744 C 1580.41 -0.37791 -5.72153 0
M  V30 16745 N 1579.91 -0.601663 -6.90182 0
M  V30 16746 N 1581.7 -0.314357 -5.6122 0
M  V30 16747 H 1573.85 -1.10467 -1.81413 0
M  V30 16748 H 1576.11 -0.438569 -0.840453 0
M  V30 16749 H 1575.82 -1.07944 -3.34725 0
M  V30 16750 H 1575.69 0.630888 -3.71887 0
M  V30 16751 H 1578.08 0.970324 -2.78691 0
M  V30 16752 H 1578.16 -0.763158 -2.44151 0
M  V30 16753 H 1577.81 -1.25142 -4.92242 0
M  V30 16754 H 1577.74 0.499756 -5.24223 0
M  V30 16755 H 1580.23 -0.0451754 -3.77873 0
M  V30 16756 H 1580.54 -0.717319 -7.69464 0
M  V30 16757 H 1578.88 -0.638184 -6.92064 0
M  V30 16758 H 1582.08 -0.140197 -4.6789 0
M  V30 16759 H 1582.25 -0.446472 -6.4646 0
M  V30 16760 N 1575.65 1.57214 0.110213 0
M  V30 16761 C 1576.88 1.8988 0.834297 0
M  V30 16762 C 1577.3 0.756347 1.72224 0
M  V30 16763 O 1576.66 -0.292768 1.78921 0
M  V30 16764 C 1576.71 3.21338 1.63629 0
M  V30 16765 O 1575.81 3.07862 2.74399 0
M  V30 16766 H 1575.16 0.62283 0.23017 0
M  V30 16767 H 1577.69 2.04402 0.0899726 0
M  V30 16768 H 1577.7 3.54275 2.02369 0
M  V30 16769 H 1576.37 4.04079 0.984521 0
M  V30 16770 H 1574.95 2.8641 2.38797 0
M  V30 16771 N 1577.13 -0.380637 1.52934 0
M  V30 16772 C 1578.06 -1.47174 1.81279 0
M  V30 16773 C 1579.04 -1.56549 0.665319 0
M  V30 16774 O 1580.23 -1.71362 0.913722 0
M  V30 16775 C 1577.36 -2.84691 1.98918 0
M  V30 16776 C 1576.31 -2.90151 3.14637 0
M  V30 16777 C 1575.64 -4.30198 3.17544 0
M  V30 16778 C 1576.94 -2.59037 4.53539 0
M  V30 16779 H 1578.63 -1.23703 2.7265 0
M  V30 16780 H 1576.18 -0.593654 1.31194 0
M  V30 16781 H 1578.13 -3.61034 2.1733 0
M  V30 16782 H 1576.86 -3.09517 1.04244 0
M  V30 16783 H 1575.51 -2.16257 2.96021 0
M  V30 16784 H 1575.16 -4.52076 2.20536 0
M  V30 16785 H 1574.86 -4.3477 3.95284 0
M  V30 16786 H 1576.39 -5.08435 3.38121 0
M  V30 16787 H 1577.8 -3.25096 4.72214 0
M  V30 16788 H 1576.2 -2.74946 5.33408 0
M  V30 16789 H 1577.27 -1.54342 4.59681 0
M  V30 16790 N 1578.61 -1.44039 -0.639573 0
M  V30 16791 C 1579.86 -1.46088 -1.39652 0
M  V30 16792 C 1580.18 -0.0914602 -1.94785 0
M  V30 16793 O 1579.45 0.875097 -1.75268 0
M  V30 16794 H 1578.03 -0.537901 -0.518335 0
M  V30 16795 H 1580.69 -1.79751 -0.753365 0
M  V30 16796 H 1579.79 -2.1814 -2.23207 0
M  V30 16797 N 1580.09 0.879207 -1.30796 0
M  V30 16798 C 1581.02 2.00158 -1.20246 0
M  V30 16799 C 1582 1.69852 -0.091769 0
M  V30 16800 O 1583.18 1.92246 -0.274792 0
M  V30 16801 C 1580.31 3.3545 -0.899472 0
M  V30 16802 C 1579.27 3.80033 -1.96873 0
M  V30 16803 C 1578.59 5.12681 -1.51861 0
M  V30 16804 C 1579.89 3.98136 -3.38061 0
M  V30 16805 H 1581.59 2.09242 -2.14145 0
M  V30 16806 H 1579.13 1.00535 -1.03096 0
M  V30 16807 H 1581.09 4.13497 -0.812299 0
M  V30 16808 H 1579.81 3.26513 0.075189 0
M  V30 16809 H 1578.47 3.04219 -2.04564 0
M  V30 16810 H 1578.12 5.00178 -0.532063 0
M  V30 16811 H 1577.82 5.43482 -2.23386 0
M  V30 16812 H 1579.34 5.93247 -1.44534 0
M  V30 16813 H 1580.76 4.66604 -3.33096 0
M  V30 16814 H 1579.15 4.40321 -4.07722 0
M  V30 16815 H 1580.22 3.01807 -3.79526 0
M  V30 16816 N 1581.57 1.13606 1.09231 0
M  V30 16817 C 1582.84 0.81012 1.78035 0
M  V30 16818 C 1583.22 -0.697953 1.99228 0
M  V30 16819 O 1582.57 -1.63592 1.5953 0
M  V30 16820 C 1582.78 1.59932 3.10198 0
M  V30 16821 C 1584.13 1.79328 3.84872 0
M  V30 16822 O 1585.15 1.56547 3.19955 0
M  V30 16823 O 1584.01 2.17355 5.01417 0
M  V30 16824 H 1581.11 0.295995 0.772215 0
M  V30 16825 H 1583.65 1.24079 1.15769 0
M  V30 16826 H 1582.43 2.6241 2.9027 0
M  V30 16827 H 1582.05 1.16371 3.80189 0
M  V30 16828 N 1583.05 -1.27244 0.929878 0
M  V30 16829 C 1584.46 -1.4662 0.630451 0
M  V30 16830 C 1584.66 -1.84077 -0.819633 0
M  V30 16831 O 1583.72 -1.95555 -1.59733 0
M  V30 16832 C 1585.03 -2.55709 1.58219 0
M  V30 16833 C 1586.58 -2.69569 1.59065 0
M  V30 16834 C 1587.05 -3.81818 2.52941 0
M  V30 16835 N 1588.54 -3.89195 2.51161 0
M  V30 16836 C 1589.28 -4.75474 3.20488 0
M  V30 16837 N 1588.78 -5.66225 3.99201 0
M  V30 16838 N 1590.57 -4.69222 3.09495 0
M  V30 16839 H 1582.72 -1.01216 1.86733 0
M  V30 16840 H 1584.98 -0.505737 0.801832 0
M  V30 16841 H 1584.69 -2.34985 2.61677 0
M  V30 16842 H 1584.56 -3.53141 1.32556 0
M  V30 16843 H 1586.95 -2.89672 0.563375 0
M  V30 16844 H 1587.03 -1.72616 1.88778 0
M  V30 16845 H 1586.67 -3.62467 3.55781 0
M  V30 16846 H 1586.6 -4.78202 2.20524 0
M  V30 16847 H 1589.1 -3.24305 1.93997 0
M  V30 16848 H 1589.41 -6.28925 4.4908 0
M  V30 16849 H 1587.75 -5.66013 4.03304 0
M  V30 16850 H 1590.94 -3.97322 2.47493 0
M  V30 16851 H 1591.12 -5.36244 3.63794 0
M  V30 16852 N 1584.52 -0.695628 -1.41417 0
M  V30 16853 C 1585.47 -0.0303383 -2.3078 0
M  V30 16854 C 1586.44 0.771218 -1.4711 0
M  V30 16855 O 1587.63 0.739239 -1.75897 0
M  V30 16856 C 1584.77 0.900034 -3.33157 0
M  V30 16857 C 1583.88 0.0900862 -4.31906 0
M  V30 16858 C 1583.01 1.01811 -5.21352 0
M  V30 16859 C 1582.05 0.201068 -6.1177 0
M  V30 16860 N 1581.19 1.0829 -6.93699 0
M  V30 16861 H 1586.03 -0.798148 -2.87113 0
M  V30 16862 H 1583.57 -0.405311 -1.41406 0
M  V30 16863 H 1585.52 1.45349 -3.91062 0
M  V30 16864 H 1584.15 1.63424 -2.78375 0
M  V30 16865 H 1583.21 -0.58029 -3.75948 0
M  V30 16866 H 1584.52 -0.543336 -4.95832 0
M  V30 16867 H 1583.67 1.64079 -5.84092 0
M  V30 16868 H 1582.41 1.68538 -4.57653 0
M  V30 16869 H 1581.42 -0.434686 -5.48079 0
M  V30 16870 H 1582.64 -0.462416 -6.77524 0
M  V30 16871 H 1580.59 1.73619 -6.32608 0
M  V30 16872 H 1580.5 0.505046 -7.54311 0
M  V30 16873 H 1581.77 1.69239 -7.60906 0
M  V30 16874 N 1586 1.51322 -0.440383 0
M  V30 16875 C 1586.93 2.24398 0.414827 0
M  V30 16876 C 1587.91 1.26454 1.02216 0
M  V30 16877 O 1589.1 1.55597 1.06404 0
M  V30 16878 C 1586.22 2.99671 1.57844 0
M  V30 16879 C 1585.27 4.12297 1.0915 0
M  V30 16880 S 1586.1 5.35491 0.0310506 0
M  V30 16881 C 1587.26 6.14303 1.19926 0
M  V30 16882 H 1587.49 2.96588 -0.205572 0
M  V30 16883 H 1585.02 1.52753 -0.224932 0
M  V30 16884 H 1586.98 3.43638 2.24551 0
M  V30 16885 H 1585.64 2.27065 2.17027 0
M  V30 16886 H 1584.84 4.64254 1.96173 0
M  V30 16887 H 1584.44 3.70607 0.502621 0
M  V30 16888 H 1586.73 6.43575 2.11703 0
M  V30 16889 H 1587.67 7.04434 0.719591 0
M  V30 16890 H 1588.08 5.45845 1.43921 0
M  V30 16891 N 1587.48 0.171848 1.5666 0
M  V30 16892 C 1588.72 -0.475418 1.98794 0
M  V30 16893 C 1589.08 -1.60384 1.0555 0
M  V30 16894 O 1590.28 -2.3137 1.36827 0
M  V30 16895 C 1588.56 -0.945518 3.44666 0
M  V30 16896 S 1590.11 -1.59389 4.08828 0
M  V30 16897 H 1586.93 -0.1529 0.694365 0
M  V30 16898 H 1589.53 0.269434 1.93634 0
M  V30 16899 H 1588.24 -0.113839 4.10242 0
M  V30 16900 H 1587.77 -1.7244 3.53593 0
M  V30 16901 H 1589.78 -2.88205 4.03921 0
M  V30 16902 N 1588.96 -1.5727 -0.101874 0
M  V30 16903 C 1590.37 -1.74753 -0.657147 0
M  V30 16904 C 1590.72 -0.793052 -1.79458 0
M  V30 16905 O 1589.84 0.0300559 -2.16379 0
M  V30 16906 C 1590.44 -3.1688 -1.19885 0
M  V30 16907 C 1589 -3.3581 -1.70025 0
M  V30 16908 C 1588.15 -2.70575 -0.607007 0
M  V30 16909 H 1591.1 -1.58214 0.124158 0
M  V30 16910 H 1591.12 -3.19378 -2.06829 0
M  V30 16911 H 1590.63 -3.86325 -0.37079 0
M  V30 16912 H 1588.73 -2.71434 -2.55253 0
M  V30 16913 H 1588.84 -4.44086 -1.79791 0
M  V30 16914 H 1587.21 -2.32284 -1.04481 0
M  V30 16915 H 1587.99 -3.42655 0.21036 0
M  V30 16916 N 1590.44 0.372521 -1.53134 0
M  V30 16917 C 1591.68 1.11589 -1.6898 0
M  V30 16918 C 1592.01 1.89503 -0.438049 0
M  V30 16919 O 1591.27 1.86911 0.579891 0
M  V30 16920 C 1591.56 2.10742 -2.88656 0
M  V30 16921 C 1591.23 1.49361 -4.25443 0
M  V30 16922 C 1589.89 1.32348 -4.62642 0
M  V30 16923 C 1592.24 1.04889 -5.10537 0
M  V30 16924 C 1589.57 0.694368 -5.82577 0
M  V30 16925 C 1591.92 0.433809 -6.31111 0
M  V30 16926 C 1590.59 0.251118 -6.67027 0
M  V30 16927 H 1589.86 0.408333 -0.618341 0
M  V30 16928 H 1592.51 0.398507 -1.87308 0
M  V30 16929 H 1590.81 2.88759 -2.64812 0
M  V30 16930 H 1592.51 2.682 -2.98111 0
M  V30 16931 H 1589.1 1.63594 -3.9615 0
M  V30 16932 H 1593.28 1.16829 -4.82353 0
M  V30 16933 H 1588.54 0.541171 -6.09 0
M  V30 16934 H 1592.71 0.0809859 -6.96353 0
M  V30 16935 H 1590.34 -0.23844 -7.59826 0
M  V30 16936 N 1591.91 1.44376 0.631925 0
M  V30 16937 C 1593.16 1.46827 1.38875 0
M  V30 16938 C 1593.48 0.101789 1.94734 0
M  V30 16939 O 1592.75 -0.86579 1.7573 0
M  V30 16940 H 1591.33 0.540642 0.515475 0
M  V30 16941 H 1593.99 1.80148 0.743822 0
M  V30 16942 H 1593.09 2.19321 2.22047 0
M  V30 16943 N 1593.39 -0.872258 1.31261 0
M  V30 16944 C 1594.81 -1.15763 1.09868 0
M  V30 16945 C 1595.01 -2.01065 -0.132331 0
M  V30 16946 O 1594.06 -2.38735 -0.822317 0
M  V30 16947 C 1595.38 -1.85199 2.36901 0
M  V30 16948 C 1596.92 -1.9791 2.42489 0
M  V30 16949 C 1597.4 -2.70759 3.69396 0
M  V30 16950 N 1598.89 -2.78296 3.70278 0
M  V30 16951 C 1599.63 -3.3527 4.65168 0
M  V30 16952 N 1599.12 -3.93193 5.70413 0
M  V30 16953 N 1600.91 -3.33206 4.52692 0
M  V30 16954 H 1593.07 -0.303784 2.10216 0
M  V30 16955 H 1595.33 -0.197172 0.927269 0
M  V30 16956 H 1595.03 -1.29968 3.26804 0
M  V30 16957 H 1594.91 -2.85493 2.46523 0
M  V30 16958 H 1597.3 -2.52305 1.53056 0
M  V30 16959 H 1597.38 -0.966644 2.36833 0
M  V30 16960 H 1597.02 -2.17031 4.59195 0
M  V30 16961 H 1596.95 -3.72407 3.72318 0
M  V30 16962 H 1599.44 -2.37185 2.94197 0
M  V30 16963 H 1599.75 -4.34771 6.38901 0
M  V30 16964 H 1598.1 -3.91575 5.7419 0
M  V30 16965 H 1601.29 -2.87191 3.69647 0
M  V30 16966 H 1601.46 -3.7731 5.26822 0
M  V30 16967 N 1594.87 -1.14184 -1.08627 0
M  V30 16968 C 1595.83 -0.82954 -2.13662 0
M  V30 16969 C 1596.83 0.164794 -1.59953 0
M  V30 16970 O 1598.02 -0.0632831 -1.74085 0
M  V30 16971 C 1595.15 -0.236176 -3.40081 0
M  V30 16972 H 1596.35 -1.76038 -2.42797 0
M  V30 16973 H 1593.9 -0.947568 -1.24301 0
M  V30 16974 H 1594.64 0.70349 -3.16578 0
M  V30 16975 H 1594.42 -0.952341 -3.80359 0
M  V30 16976 H 1595.91 -0.03481 -4.17585 0
M  V30 16977 N 1596.35 1.26749 -0.936613 0
M  V30 16978 C 1597.6 1.9358 -0.580605 0
M  V30 16979 C 1597.92 1.7389 0.882446 0
M  V30 16980 O 1597.19 1.09185 1.62652 0
M  V30 16981 H 1595.77 0.716363 -0.211739 0
M  V30 16982 H 1598.43 1.54281 -1.19095 0
M  V30 16983 H 1597.53 3.01819 -0.79448 0
M  V30 16984 N 1597.83 0.703118 1.41046 0
M  V30 16985 C 1598.76 0.0570815 2.3343 0
M  V30 16986 C 1599.74 -0.759042 1.52225 0
M  V30 16987 O 1600.92 -0.710491 1.80736 0
M  V30 16988 C 1598.05 -0.874541 3.36109 0
M  V30 16989 C 1597.01 -0.16496 4.27682 0
M  V30 16990 C 1596.33 -1.21145 5.20795 0
M  V30 16991 C 1597.63 0.97332 5.13151 0
M  V30 16992 H 1599.33 0.828699 2.87703 0
M  V30 16993 H 1596.87 0.399956 1.38334 0
M  V30 16994 H 1598.83 -1.33579 3.99668 0
M  V30 16995 H 1597.55 -1.67791 2.80203 0
M  V30 16996 H 1596.21 0.276332 3.65557 0
M  V30 16997 H 1595.86 -2.00755 4.61201 0
M  V30 16998 H 1595.56 -0.741633 5.82901 0
M  V30 16999 H 1597.08 -1.67305 5.87232 0
M  V30 17000 H 1598.49 0.592013 5.70235 0
M  V30 17001 H 1596.89 1.37071 5.84236 0
M  V30 17002 H 1597.96 1.80961 4.49868 0
M  V30 17003 N 1599.3 -1.51086 0.448402 0
M  V30 17004 C 1600.24 -2.25799 -0.393401 0
M  V30 17005 C 1601.25 -1.30241 -0.976792 0
M  V30 17006 O 1602.44 -1.55916 -0.869051 0
M  V30 17007 C 1599.54 -3.00682 -1.56345 0
M  V30 17008 C 1598.71 -4.23421 -1.09695 0
M  V30 17009 C 1597.77 -4.8079 -2.1384 0
M  V30 17010 O 1596.8 -5.42329 -1.72823 0
M  V30 17011 N 1598 -4.65792 -3.46437 0
M  V30 17012 H 1600.76 -2.98681 0.246986 0
M  V30 17013 H 1598.32 -1.59497 0.277902 0
M  V30 17014 H 1600.32 -3.35945 -2.25662 0
M  V30 17015 H 1598.89 -2.30741 -2.10897 0
M  V30 17016 H 1598.11 -3.93526 -0.230457 0
M  V30 17017 H 1599.39 -5.03049 -0.762832 0
M  V30 17018 H 1598.79 -4.16799 -3.82486 0
M  V30 17019 H 1597.35 -5.05386 -4.11616 0
M  V30 17020 N 1600.78 -0.180154 -1.56567 0
M  V30 17021 C 1602.03 0.461606 -1.96758 0
M  V30 17022 C 1602.35 1.63179 -1.0676 0
M  V30 17023 O 1601.62 1.95429 -0.135762 0
M  V30 17024 H 1600.2 0.173526 -0.726566 0
M  V30 17025 H 1602.86 -0.2634 -1.93112 0
M  V30 17026 H 1601.96 0.815729 -3.01251 0
M  V30 17027 N 1602.26 1.57322 0.0935319 0
M  V30 17028 C 1603.68 1.5319 0.447781 0
M  V30 17029 C 1603.88 0.897107 1.80428 0
M  V30 17030 O 1602.93 0.490285 2.47694 0
M  V30 17031 C 1604.25 2.97908 0.408832 0
M  V30 17032 C 1605.79 3.09132 0.490576 0
M  V30 17033 C 1606.27 4.55459 0.481759 0
M  V30 17034 N 1607.76 4.60013 0.542468 0
M  V30 17035 C 1608.49 5.70683 0.557509 0
M  V30 17036 N 1607.99 6.9078 0.528664 0
M  V30 17037 N 1609.78 5.58862 0.602438 0
M  V30 17038 H 1601.93 1.96962 -0.794965 0
M  V30 17039 H 1604.2 0.900583 -0.296064 0
M  V30 17040 H 1603.9 3.47823 -0.520766 0
M  V30 17041 H 1603.78 3.56678 1.22722 0
M  V30 17042 H 1606.16 2.59203 1.41059 0
M  V30 17043 H 1606.25 2.53311 -0.355982 0
M  V30 17044 H 1605.89 5.0604 -0.43432 0
M  V30 17045 H 1605.82 5.09119 1.34555 0
M  V30 17046 H 1608.31 3.73578 0.569892 0
M  V30 17047 H 1608.62 7.70887 0.543467 0
M  V30 17048 H 1606.97 6.9323 0.495687 0
M  V30 17049 H 1610.16 4.63942 0.622514 0
M  V30 17050 H 1610.33 6.45116 0.610691 0
M  V30 17051 N 1603.74 -0.364395 1.53329 0
M  V30 17052 C 1605.15 -0.706147 1.43128 0
M  V30 17053 C 1605.35 -1.93231 0.571307 0
M  V30 17054 O 1604.41 -2.52442 0.0542079 0
M  V30 17055 C 1605.72 -0.918245 2.86337 0
M  V30 17056 C 1607.27 -1.01818 2.95976 0
M  V30 17057 C 1607.75 -1.26274 4.40249 0
M  V30 17058 N 1609.24 -1.33042 4.43683 0
M  V30 17059 C 1609.97 -1.53677 5.52423 0
M  V30 17060 N 1609.47 -1.7162 6.71207 0
M  V30 17061 N 1611.26 -1.56056 5.40003 0
M  V30 17062 H 1603.41 0.442091 2.07748 0
M  V30 17063 H 1605.68 0.135735 0.938232 0
M  V30 17064 H 1605.38 -0.0890628 3.51587 0
M  V30 17065 H 1605.26 -1.826 3.30056 0
M  V30 17066 H 1607.64 -1.83791 2.30879 0
M  V30 17067 H 1607.72 -0.0877892 2.55649 0
M  V30 17068 H 1607.37 -0.448026 5.0592 0
M  V30 17069 H 1607.3 -2.20637 4.78149 0
M  V30 17070 H 1609.79 -1.20784 3.58078 0
M  V30 17071 H 1610.1 -1.86942 7.49848 0
M  V30 17072 H 1608.45 -1.68797 6.7419 0
M  V30 17073 H 1611.64 -1.41605 4.46168 0
M  V30 17074 H 1611.81 -1.71796 6.24812 0
M  V30 17075 N 1605.22 -1.44709 -0.62426 0
M  V30 17076 C 1606.63 -1.42523 -1.20599 0
M  V30 17077 C 1606.98 -0.144129 -1.9567 0
M  V30 17078 O 1606.1 0.755175 -2.02796 0
M  V30 17079 C 1606.7 -2.58194 -2.19365 0
M  V30 17080 C 1605.26 -2.59181 -2.72951 0
M  V30 17081 C 1604.4 -2.34461 -1.48065 0
M  V30 17082 H 1607.36 -1.5319 -0.414532 0
M  V30 17083 H 1607.38 -2.3134 -3.02096 0
M  V30 17084 H 1606.89 -3.5142 -1.64699 0
M  V30 17085 H 1604.99 -1.69916 -3.31601 0
M  V30 17086 H 1605.1 -3.57884 -3.18521 0
M  V30 17087 H 1603.47 -1.83688 -1.76439 0
M  V30 17088 H 1604.25 -3.2981 -0.952918 0
M  V30 17089 N 1606.69 0.865285 -1.31722 0
M  V30 17090 C 1608.11 1.43445 -1.195 0
M  V30 17091 C 1608.46 1.95212 0.196688 0
M  V30 17092 O 1607.58 1.86666 1.09475 0
M  V30 17093 C 1608.18 2.6074 -2.16333 0
M  V30 17094 C 1606.74 3.13688 -2.08031 0
M  V30 17095 C 1605.88 1.86409 -2.05298 0
M  V30 17096 H 1608.83 0.6734 -1.43705 0
M  V30 17097 H 1608.85 3.37575 -1.75566 0
M  V30 17098 H 1608.37 2.23033 -3.17612 0
M  V30 17099 H 1606.47 3.56004 -1.09962 0
M  V30 17100 H 1606.58 3.75653 -2.97358 0
M  V30 17101 H 1604.94 2.05567 -1.50381 0
M  V30 17102 H 1605.73 1.50933 -3.08341 0
M  V30 17103 N 1608.17 1.14759 1.0802 0
M  V30 17104 C 1609.42 0.919609 1.80751 0
M  V30 17105 C 1609.75 -0.552268 1.86182 0
M  V30 17106 O 1609.03 -1.40922 1.34057 0
M  V30 17107 C 1609.31 1.52611 3.26162 0
M  V30 17108 C 1609.16 3.06811 3.28918 0
M  V30 17109 C 1610.48 1.20625 4.23246 0
M  V30 17110 H 1607.6 0.33551 0.656203 0
M  V30 17111 H 1610.24 1.41816 1.26444 0
M  V30 17112 H 1608.39 1.10213 3.72539 0
M  V30 17113 H 1610.06 3.58068 2.90835 0
M  V30 17114 H 1608.31 3.41055 2.68075 0
M  V30 17115 H 1608.98 3.44357 4.31419 0
M  V30 17116 H 1611.45 1.57287 3.85227 0
M  V30 17117 H 1610.33 1.65689 5.23296 0
M  V30 17118 H 1610.59 0.122177 4.41931 0
M  V30 17119 N 1609.65 -1.26251 0.943322 0
M  V30 17120 C 1610.89 -1.95409 0.599542 0
M  V30 17121 C 1611.25 -1.72356 -0.846017 0
M  V30 17122 O 1612.46 -2.35337 -1.29884 0
M  V30 17123 C 1610.73 -3.44953 0.935013 0
M  V30 17124 S 1612.29 -4.33147 0.702101 0
M  V30 17125 H 1609.1 -0.675863 0.22075 0
M  V30 17126 H 1611.71 -1.53153 1.21509 0
M  V30 17127 H 1610.41 -3.59232 1.98445 0
M  V30 17128 H 1609.94 -3.92182 0.309268 0
M  V30 17129 H 1611.96 -4.9431 -0.432655 0
M  V30 17130 N 1611.13 -0.710588 -1.40671 0
M  V30 17131 C 1612.54 -0.320926 -1.83921 0
M  V30 17132 C 1612.89 1.14358 -1.59426 0
M  V30 17133 O 1612.02 1.87952 -1.07252 0
M  V30 17134 C 1612.61 -0.5757 -3.33873 0
M  V30 17135 C 1611.17 -0.239799 -3.75635 0
M  V30 17136 C 1610.32 -0.850552 -2.63934 0
M  V30 17137 H 1613.27 -0.910118 -1.3001 0
M  V30 17138 H 1613.29 0.160707 -3.8016 0
M  V30 17139 H 1612.8 -1.64166 -3.51669 0
M  V30 17140 H 1610.9 0.821297 -3.63436 0
M  V30 17141 H 1611.02 -0.705306 -4.7388 0
M  V30 17142 H 1609.38 -0.278977 -2.53168 0
M  V30 17143 H 1610.16 -1.92068 -2.84543 0
M  V30 17144 N 1612.61 1.50847 -0.456408 0
M  V30 17145 C 1613.54 2.24825 0.391003 0
M  V30 17146 C 1614.52 1.27531 1.00869 0
M  V30 17147 O 1615.7 1.56717 1.04747 0
M  V30 17148 C 1612.83 3.01329 1.54657 0
M  V30 17149 C 1611.88 4.13431 1.0477 0
M  V30 17150 S 1612.71 5.35494 -0.0257471 0
M  V30 17151 C 1613.86 6.15541 1.13404 0
M  V30 17152 H 1614.1 2.96354 -0.237018 0
M  V30 17153 H 1611.63 1.52506 -0.241121 0
M  V30 17154 H 1613.59 3.46 2.20894 0
M  V30 17155 H 1612.25 2.29354 2.14606 0
M  V30 17156 H 1611.44 4.66309 1.91238 0
M  V30 17157 H 1611.04 3.71119 0.463285 0
M  V30 17158 H 1613.34 6.45784 2.04865 0
M  V30 17159 H 1614.28 7.05158 0.644835 0
M  V30 17160 H 1614.69 5.47341 1.38123 0
M  V30 17161 N 1614.09 0.188454 1.56469 0
M  V30 17162 C 1615.5 -0.325309 1.83844 0
M  V30 17163 C 1615.85 -1.61858 1.1089 0
M  V30 17164 O 1614.97 -2.13256 0.36752 0
M  V30 17165 C 1615.57 -0.597002 3.33499 0
M  V30 17166 C 1614.13 -1.05515 3.61308 0
M  V30 17167 C 1613.27 -0.100182 2.77119 0
M  V30 17168 H 1616.22 0.412378 1.53249 0
M  V30 17169 H 1616.25 -1.44709 3.51908 0
M  V30 17170 H 1615.76 0.344429 3.86569 0
M  V30 17171 H 1613.86 -2.01109 3.13665 0
M  V30 17172 H 1613.97 -0.952461 4.69537 0
M  V30 17173 H 1612.34 -0.600815 2.47512 0
M  V30 17174 H 1613.12 0.835574 3.32976 0
M  V30 17175 N 1615.56 -1.5737 -0.0851874 0
M  V30 17176 C 1616.81 -1.86219 -0.7853 0
M  V30 17177 C 1617.13 -0.77857 -1.78783 0
M  V30 17178 O 1616.4 0.194176 -1.94935 0
M  V30 17179 H 1614.98 -0.687134 -0.293013 0
M  V30 17180 H 1617.64 -1.94793 -0.0644597 0
M  V30 17181 H 1616.74 -2.83286 -1.30978 0
M  V30 17182 N 1617.04 0.356258 -1.53521 0
M  V30 17183 C 1618.29 1.09953 -1.70406 0
M  V30 17184 C 1618.62 1.8869 -0.459304 0
M  V30 17185 O 1617.9 1.86751 0.54354 0
M  V30 17186 C 1618.18 2.05114 -2.95973 0
M  V30 17187 C 1618.03 1.29924 -4.30627 0
M  V30 17188 C 1619.35 3.0511 -3.17168 0
M  V30 17189 H 1616.47 0.398343 -0.620074 0
M  V30 17190 H 1619.11 0.379376 -1.86174 0
M  V30 17191 H 1617.26 2.66524 -2.82661 0
M  V30 17192 H 1618.93 0.71226 -4.55768 0
M  V30 17193 H 1617.18 0.601141 -4.29615 0
M  V30 17194 H 1617.85 1.99624 -5.1464 0
M  V30 17195 H 1620.32 2.53809 -3.29728 0
M  V30 17196 H 1619.2 3.68908 -4.06445 0
M  V30 17197 H 1619.46 3.75794 -2.32876 0
M  V30 17198 N 1618.52 1.45038 0.616577 0
M  V30 17199 C 1619.74 1.52321 1.40759 0
M  V30 17200 C 1620.17 0.15375 1.87471 0
M  V30 17201 O 1619.53 -0.859908 1.5961 0
M  V30 17202 C 1619.58 2.50464 2.59423 0
M  V30 17203 O 1618.68 2.01623 3.59753 0
M  V30 17204 H 1618.02 0.513808 0.420592 0
M  V30 17205 H 1620.55 1.90309 0.751234 0
M  V30 17206 H 1620.56 2.68977 3.06783 0
M  V30 17207 H 1619.24 3.4993 2.24771 0
M  V30 17208 H 1617.81 1.92945 3.19103 0
M  V30 17209 N 1620 -0.858287 1.32179 0
M  V30 17210 C 1621.24 -1.6146 1.22713 0
M  V30 17211 C 1621.58 -1.93045 -0.211479 0
M  V30 17212 O 1620.85 -1.57034 -1.14764 0
M  V30 17213 C 1621.13 -2.93728 2.08317 0
M  V30 17214 C 1620.99 -2.68947 3.60538 0
M  V30 17215 C 1622.31 -3.94959 1.94153 0
M  V30 17216 H 1619.43 -0.585872 0.447128 0
M  V30 17217 H 1622.07 -0.99134 1.62088 0
M  V30 17218 H 1620.22 -3.4692 1.74867 0
M  V30 17219 H 1621.89 -2.22336 4.04183 0
M  V30 17220 H 1620.13 -2.02974 3.83385 0
M  V30 17221 H 1620.8 -3.63112 4.15756 0
M  V30 17222 H 1623.28 -3.51013 2.23449 0
M  V30 17223 H 1622.16 -4.85371 2.56332 0
M  V30 17224 H 1622.42 -4.32672 0.908132 0
M  V30 17225 N 1621.48 -1.1533 -1.07409 0
M  V30 17226 C 1622.89 -0.895817 -1.32088 0
M  V30 17227 C 1623.09 0.457526 -1.96237 0
M  V30 17228 O 1622.15 1.19958 -2.22185 0
M  V30 17229 C 1623.46 -2.03632 -2.21256 0
M  V30 17230 C 1625.01 -2.07079 -2.34707 0
M  V30 17231 C 1625.48 -3.20451 -3.27223 0
M  V30 17232 N 1626.97 -3.20095 -3.34804 0
M  V30 17233 C 1627.71 -4.04458 -4.0645 0
M  V30 17234 N 1627.21 -4.98883 -4.80715 0
M  V30 17235 N 1629 -3.92483 -4.02385 0
M  V30 17236 H 1621.15 -2.02478 -0.641578 0
M  V30 17237 H 1623.41 -0.882864 -0.345332 0
M  V30 17238 H 1623.12 -3.0132 -1.81381 0
M  V30 17239 H 1622.99 -1.96817 -3.21781 0
M  V30 17240 H 1625.38 -1.09991 -2.73836 0
M  V30 17241 H 1625.46 -2.17962 -1.3389 0
M  V30 17242 H 1625.1 -4.17791 -2.88813 0
M  V30 17243 H 1625.03 -3.06805 -4.27993 0
M  V30 17244 H 1627.53 -2.51712 -2.81868 0
M  V30 17245 H 1627.84 -5.59698 -5.32877 0
M  V30 17246 H 1626.18 -5.02872 -4.79734 0
M  V30 17247 H 1629.37 -3.18026 -3.43478 0
M  V30 17248 H 1629.55 -4.58454 -4.57956 0
M  V30 17249 N 1622.95 1.25748 -0.950004 0
M  V30 17250 C 1623.92 2.24307 -0.47106 0
M  V30 17251 C 1624.92 1.55145 0.422704 0
M  V30 17252 O 1626.11 1.72797 0.220642 0
M  V30 17253 C 1623.24 3.39395 0.319979 0
M  V30 17254 H 1624.43 2.68192 -1.34214 0
M  V30 17255 H 1621.98 1.38056 -0.732827 0
M  V30 17256 H 1622.72 3.00925 1.20892 0
M  V30 17257 H 1622.5 3.90783 -0.321157 0
M  V30 17258 H 1623.99 4.12594 0.644697 0
M  V30 17259 N 1624.43 0.718038 1.40292 0
M  V30 17260 C 1625.68 0.258092 2.00445 0
M  V30 17261 C 1626 -1.15347 1.57226 0
M  V30 17262 O 1625.27 -1.78241 0.812822 0
M  V30 17263 H 1623.85 0.0924316 0.741259 0
M  V30 17264 H 1626.51 0.924216 1.71593 0
M  V30 17265 H 1625.61 0.293113 3.10721 0
M  V30 17266 N 1625.91 -1.50602 0.464402 0
M  V30 17267 C 1626.84 -2.31252 -0.323263 0
M  V30 17268 C 1627.82 -1.37856 -0.996476 0
M  V30 17269 O 1629.01 -1.66777 -0.994933 0
M  V30 17270 C 1626.14 -3.17414 -1.40945 0
M  V30 17271 C 1625.09 -4.19307 -0.858226 0
M  V30 17272 C 1624.42 -4.94164 -2.0422 0
M  V30 17273 C 1625.72 -5.22148 0.125921 0
M  V30 17274 H 1627.41 -2.97349 0.34983 0
M  V30 17275 H 1624.96 -1.42997 0.169685 0
M  V30 17276 H 1626.91 -3.72627 -1.96791 0
M  V30 17277 H 1625.63 -2.49189 -2.11122 0
M  V30 17278 H 1624.29 -3.65185 -0.321785 0
M  V30 17279 H 1623.94 -4.22417 -2.7308 0
M  V30 17280 H 1623.64 -5.63083 -1.67963 0
M  V30 17281 H 1625.16 -5.5221 -2.60569 0
M  V30 17282 H 1626.58 -5.72272 -0.343136 0
M  V30 17283 H 1624.98 -5.98749 0.402433 0
M  V30 17284 H 1626.05 -4.73307 1.05399 0
M  V30 17285 N 1627.39 -0.19675 -1.56367 0
M  V30 17286 C 1628.8 0.315555 -1.84014 0
M  V30 17287 C 1629.15 1.61267 -1.11747 0
M  V30 17288 O 1628.28 2.13058 -0.378824 0
M  V30 17289 C 1628.87 0.579307 -3.33811 0
M  V30 17290 C 1627.43 1.03598 -3.61862 0
M  V30 17291 C 1626.58 0.0854845 -2.77168 0
M  V30 17292 H 1629.53 -0.4205 -1.53028 0
M  V30 17293 H 1629.55 1.42841 -3.52671 0
M  V30 17294 H 1629.06 -0.364925 -3.86381 0
M  V30 17295 H 1627.16 1.99443 -3.14727 0
M  V30 17296 H 1627.27 0.927547 -4.70035 0
M  V30 17297 H 1625.64 0.58768 -2.47827 0
M  V30 17298 H 1626.42 -0.853221 -3.32528 0
M  V30 17299 N 1628.87 1.57413 0.0768405 0
M  V30 17300 C 1630.28 1.75776 0.629262 0
M  V30 17301 C 1630.63 0.821502 1.78173 0
M  V30 17302 O 1629.75 0.00437198 2.164 0
M  V30 17303 C 1630.35 3.18747 1.14828 0
M  V30 17304 C 1628.91 3.38472 1.64661 0
M  V30 17305 C 1628.05 2.71506 0.563884 0
M  V30 17306 H 1631.01 1.57996 -0.149312 0
M  V30 17307 H 1631.03 3.22628 2.01722 0
M  V30 17308 H 1630.54 3.86866 0.309282 0
M  V30 17309 H 1628.64 2.75461 2.50903 0
M  V30 17310 H 1628.75 4.4689 1.72703 0
M  V30 17311 H 1627.12 2.33917 1.00772 0
M  V30 17312 H 1627.9 3.42277 -0.264847 0
M  V30 17313 N 1630.34 -0.348112 1.53707 0
M  V30 17314 C 1631.29 -1.42782 1.77756 0
M  V30 17315 C 1632.28 -1.47942 0.63261 0
M  V30 17316 O 1633.47 -1.52889 0.891855 0
M  V30 17317 C 1630.6 -2.79986 1.98652 0
M  V30 17318 C 1629.69 -2.79237 3.19199 0
M  V30 17319 N 1630.08 -2.4812 4.40761 0
M  V30 17320 C 1628.37 -3.10387 3.20275 0
M  V30 17321 C 1629.08 -2.55489 5.2259 0
M  V30 17322 N 1628.05 -2.90923 4.592 0
M  V30 17323 H 1631.85 -1.17615 2.6934 0
M  V30 17324 H 1629.37 -0.556438 1.5257 0
M  V30 17325 H 1631.36 -3.57777 2.14013 0
M  V30 17326 H 1630.02 -3.06104 1.08307 0
M  V30 17327 H 1631.04 -2.214 4.68191 0
M  V30 17328 H 1627.71 -3.41706 2.39882 0
M  V30 17329 H 1629.1 -2.34629 6.29602 0
M  V30 17330 N 1631.82 -1.45363 -0.608876 0
M  V30 17331 C 1633.05 -1.53066 -1.39949 0
M  V30 17332 C 1633.47 -0.16369 -1.87386 0
M  V30 17333 O 1632.83 0.851432 -1.60064 0
M  V30 17334 C 1632.88 -2.51836 -2.58091 0
M  V30 17335 O 1631.98 -2.03528 -3.58678 0
M  V30 17336 H 1631.32 -0.516031 -0.417861 0
M  V30 17337 H 1633.85 -1.90705 -0.74113 0
M  V30 17338 H 1633.86 -2.706 -3.05352 0
M  V30 17339 H 1632.54 -3.51117 -2.22912 0
M  V30 17340 H 1631.12 -1.94634 -3.18075 0
M  V30 17341 N 1633.3 0.851265 -1.32632 0
M  V30 17342 C 1634.71 1.4217 -1.21015 0
M  V30 17343 C 1635.06 1.95409 0.175972 0
M  V30 17344 O 1634.19 1.87816 1.07489 0
M  V30 17345 C 1634.78 2.58431 -2.19086 0
M  V30 17346 C 1633.34 3.11464 -2.11346 0
M  V30 17347 C 1632.49 1.84221 -2.07263 0
M  V30 17348 H 1635.44 0.65812 -1.44411 0
M  V30 17349 H 1635.46 3.35694 -1.79137 0
M  V30 17350 H 1634.97 2.19652 -3.1996 0
M  V30 17351 H 1633.07 3.54818 -1.13732 0
M  V30 17352 H 1633.19 3.72478 -3.01325 0
M  V30 17353 H 1631.55 2.0396 -1.52553 0
M  V30 17354 H 1632.33 1.47654 -3.09924 0
M  V30 17355 N 1634.78 1.15898 1.06796 0
M  V30 17356 C 1636.03 0.935488 1.79145 0
M  V30 17357 C 1636.35 -0.538433 1.87419 0
M  V30 17358 O 1635.62 -1.39124 1.37917 0
M  V30 17359 H 1634.2 0.343123 0.663533 0
M  V30 17360 H 1636.86 1.4607 1.29034 0
M  V30 17361 H 1635.96 1.34978 2.81402 0
M  V30 17362 N 1636.26 -1.25243 0.956659 0
M  V30 17363 C 1637.19 -2.25019 0.435795 0
M  V30 17364 C 1638.2 -1.56473 -0.449435 0
M  V30 17365 O 1639.39 -1.76635 -0.257386 0
M  V30 17366 C 1636.49 -3.36634 -0.391226 0
M  V30 17367 C 1635.66 -4.34742 0.481483 0
M  V30 17368 C 1634.72 -5.25413 -0.287678 0
M  V30 17369 O 1633.75 -5.6833 0.314618 0
M  V30 17370 N 1634.95 -5.58578 -1.58023 0
M  V30 17371 H 1637.72 -2.70344 1.2936 0
M  V30 17372 H 1635.28 -1.3917 0.827245 0
M  V30 17373 H 1637.27 -3.94254 -0.913552 0
M  V30 17374 H 1635.84 -2.90682 -1.14991 0
M  V30 17375 H 1635.06 -3.75971 1.18489 0
M  V30 17376 H 1636.35 -4.97269 1.07707 0
M  V30 17377 H 1635.74 -5.25618 -2.09146 0
M  V30 17378 H 1634.3 -6.18774 -2.04848 0
M  V30 17379 N 1637.73 -0.725468 -1.3991 0
M  V30 17380 C 1638.96 -0.278797 -2.0471 0
M  V30 17381 C 1639.37 1.08796 -1.54791 0
M  V30 17382 O 1638.72 1.69685 -0.703763 0
M  V30 17383 C 1638.78 -0.191732 -3.58988 0
M  V30 17384 C 1638.44 -1.49539 -4.31842 0
M  V30 17385 C 1639.44 -2.43925 -4.59126 0
M  V30 17386 C 1637.12 -1.75705 -4.70567 0
M  V30 17387 C 1639.12 -3.62717 -5.24133 0
M  V30 17388 C 1636.8 -2.94776 -5.35304 0
M  V30 17389 C 1637.8 -3.88104 -5.62018 0
M  V30 17390 O 1637.49 -5.05085 -6.25415 0
M  V30 17391 H 1637.22 -0.121262 -0.665035 0
M  V30 17392 H 1639.78 -0.987188 -1.80122 0
M  V30 17393 H 1638.01 0.572683 -3.82436 0
M  V30 17394 H 1639.7 0.22168 -4.05294 0
M  V30 17395 H 1640.46 -2.24977 -4.29663 0
M  V30 17396 H 1636.34 -1.03912 -4.49136 0
M  V30 17397 H 1639.88 -4.35579 -5.44901 0
M  V30 17398 H 1635.78 -3.13629 -5.64187 0
M  V30 17399 H 1636.55 -5.05294 -6.4391 0
M  V30 17400 N 1639.21 1.50354 -0.472382 0
M  V30 17401 C 1640.14 2.3142 0.310995 0
M  V30 17402 C 1641.12 1.38383 0.989151 0
M  V30 17403 O 1642.31 1.67303 0.986074 0
M  V30 17404 C 1639.44 3.18157 1.3926 0
M  V30 17405 C 1638.39 4.19756 0.835977 0
M  V30 17406 C 1637.72 4.9524 2.01597 0
M  V30 17407 C 1639.02 5.22074 -0.15361 0
M  V30 17408 H 1640.71 2.97159 -0.365595 0
M  V30 17409 H 1638.26 1.42905 -0.177266 0
M  V30 17410 H 1640.21 3.73666 1.94813 0
M  V30 17411 H 1638.94 2.50305 2.09798 0
M  V30 17412 H 1637.59 3.65351 0.302414 0
M  V30 17413 H 1637.24 4.2386 2.70836 0
M  V30 17414 H 1636.94 5.63966 1.64974 0
M  V30 17415 H 1638.47 5.53584 2.57637 0
M  V30 17416 H 1639.88 5.72446 0.312783 0
M  V30 17417 H 1638.28 5.98527 -0.43418 0
M  V30 17418 H 1639.35 4.72741 -1.07908 0
M  V30 17419 N 1640.69 0.205039 1.56261 0
M  V30 17420 C 1642.1 -0.305792 1.84179 0
M  V30 17421 C 1642.45 -1.60672 1.126 0
M  V30 17422 O 1641.58 -2.12855 0.390118 0
M  V30 17423 C 1642.17 -0.561596 3.34113 0
M  V30 17424 C 1640.73 -1.01677 3.62407 0
M  V30 17425 C 1639.88 -0.0707844 2.7721 0
M  V30 17426 H 1642.83 0.428609 1.52803 0
M  V30 17427 H 1642.85 -1.40969 3.53423 0
M  V30 17428 H 1642.36 0.38541 3.86182 0
M  V30 17429 H 1640.46 -1.97771 3.1578 0
M  V30 17430 H 1640.58 -0.902607 4.70521 0
M  V30 17431 H 1638.94 -0.574529 2.48136 0
M  V30 17432 H 1639.72 0.870844 3.32071 0
M  V30 17433 N 1642.17 -1.57451 -0.0684915 0
M  V30 17434 C 1643.39 -1.92025 -0.78366 0
M  V30 17435 C 1643.82 -0.801743 -1.70158 0
M  V30 17436 O 1643.18 0.245227 -1.79634 0
M  V30 17437 C 1643.23 -3.25563 -1.55051 0
M  V30 17438 O 1642.33 -3.15029 -2.6614 0
M  V30 17439 H 1641.67 -0.628714 -0.213576 0
M  V30 17440 H 1644.2 -2.04569 -0.0357474 0
M  V30 17441 H 1644.21 -3.59516 -1.92905 0
M  V30 17442 H 1642.89 -4.06547 -0.87704 0
M  V30 17443 H 1641.46 -2.9264 -2.31119 0
M  V30 17444 N 1643.65 0.339955 -1.5389 0
M  V30 17445 C 1644.61 1.40058 -1.81429 0
M  V30 17446 C 1645.61 1.45458 -0.685463 0
M  V30 17447 O 1646.8 1.45771 -0.953754 0
M  V30 17448 C 1643.93 2.78952 -1.95955 0
M  V30 17449 H 1645.13 1.16902 -2.76178 0
M  V30 17450 H 1642.68 0.574543 -1.45357 0
M  V30 17451 H 1643.41 3.07387 -1.03361 0
M  V30 17452 H 1643.2 2.76429 -2.78082 0
M  V30 17453 H 1644.69 3.55713 -2.18765 0
M  V30 17454 N 1645.13 1.45684 0.601159 0
M  V30 17455 C 1646.09 1.54451 1.69344 0
M  V30 17456 C 1647.09 0.423379 1.55126 0
M  V30 17457 O 1648.28 0.687079 1.60078 0
M  V30 17458 C 1645.41 1.4472 3.08657 0
M  V30 17459 H 1646.6 2.51778 1.62935 0
M  V30 17460 H 1644.16 1.3322 0.81744 0
M  V30 17461 H 1644.89 0.486027 3.20637 0
M  V30 17462 H 1644.68 2.26045 3.20384 0
M  V30 17463 H 1646.17 1.53902 3.88206 0
M  V30 17464 N 1646.6 -0.84422 1.33082 0
M  V30 17465 C 1647.57 -1.93519 1.22813 0
M  V30 17466 C 1648.57 -1.60113 0.148516 0
M  V30 17467 O 1649.76 -1.69553 0.399668 0
M  V30 17468 C 1646.89 -3.29045 0.891179 0
M  V30 17469 H 1648.08 -2.04051 2.1978 0
M  V30 17470 H 1645.63 -1.03567 1.17063 0
M  V30 17471 H 1646.37 -3.2421 -0.0762276 0
M  V30 17472 H 1646.15 -3.54671 1.67186 0
M  V30 17473 H 1647.64 -4.08984 0.843932 0
M  V30 17474 N 1648.08 -1.16463 -1.0618 0
M  V30 17475 C 1649.33 -0.944975 -1.78647 0
M  V30 17476 C 1649.65 0.528486 -1.87702 0
M  V30 17477 O 1648.92 1.38391 -1.38653 0
M  V30 17478 H 1647.5 -0.346637 -0.661704 0
M  V30 17479 H 1650.16 -1.46752 -1.28257 0
M  V30 17480 H 1649.26 -1.36469 -2.80683 0
M  V30 17481 N 1649.56 1.24734 -0.963288 0
M  V30 17482 C 1650.51 2.25555 -0.48926 0
M  V30 17483 C 1651.48 1.59521 0.462848 0
M  V30 17484 O 1652.66 1.87095 0.374188 0
M  V30 17485 C 1649.8 3.44407 0.218629 0
M  V30 17486 C 1648.91 4.25051 -0.77173 0
M  V30 17487 C 1648.05 5.31185 -0.0403986 0
M  V30 17488 C 1647.09 6.03523 -1.02112 0
M  V30 17489 N 1646.23 7.0137 -0.320083 0
M  V30 17490 H 1651.07 2.6547 -1.35386 0
M  V30 17491 H 1648.6 1.30504 -0.678762 0
M  V30 17492 H 1650.56 4.12173 0.645701 0
M  V30 17493 H 1649.19 3.05341 1.04722 0
M  V30 17494 H 1648.24 3.56865 -1.31726 0
M  V30 17495 H 1649.55 4.75084 -1.51976 0
M  V30 17496 H 1648.71 6.05067 0.444886 0
M  V30 17497 H 1647.45 4.82048 0.740356 0
M  V30 17498 H 1646.45 5.28448 -1.51732 0
M  V30 17499 H 1647.68 6.54749 -1.80224 0
M  V30 17500 H 1645.62 6.54511 0.441775 0
M  V30 17501 H 1645.54 7.49263 -1.00705 0
M  V30 17502 H 1646.81 7.79368 0.143379 0
M  V30 17503 N 1651.04 0.732878 1.39523 0
M  V30 17504 C 1651.95 0.0930216 2.34416 0
M  V30 17505 C 1652.96 -0.724309 1.58208 0
M  V30 17506 O 1654.14 -0.653267 1.90511 0
M  V30 17507 C 1651.2 -0.805036 3.37224 0
M  V30 17508 C 1650.27 0.0243049 4.29293 0
M  V30 17509 C 1649.5 -0.830984 5.27191 0
M  V30 17510 O 1649.72 -2.06977 5.31523 0
M  V30 17511 O 1648.66 -0.260772 6.01335 0
M  V30 17512 H 1652.48 0.876179 2.90786 0
M  V30 17513 H 1650.07 0.493525 1.41013 0
M  V30 17514 H 1651.95 -1.31894 4.00228 0
M  V30 17515 H 1650.62 -1.56704 2.83241 0
M  V30 17516 H 1649.53 0.583677 3.69519 0
M  V30 17517 H 1650.86 0.748485 4.86476 0
M  V30 17518 N 1652.52 -1.50101 0.480349 0
M  V30 17519 C 1653.48 -2.27258 -0.297763 0
M  V30 17520 C 1654.48 -1.32415 -0.912296 0
M  V30 17521 O 1655.67 -1.5576 -0.780035 0
M  V30 17522 C 1652.8 -3.09684 -1.42508 0
M  V30 17523 H 1653.99 -2.97495 0.379011 0
M  V30 17524 H 1651.55 -1.54528 0.234681 0
M  V30 17525 H 1652.28 -2.43964 -2.13663 0
M  V30 17526 H 1652.07 -3.79393 -0.990125 0
M  V30 17527 H 1653.56 -3.68013 -1.97374 0
M  V30 17528 O 1654.03 -0.354827 -1.57554 0
M  V30 17529 H 1654.72 0.198168 -1.92684 0
M  V30 END ATOM
M  V30 BEGIN BOND
M  V30 END BOND
M  V30 END CTAB
M  END
$$$$
