drugbank_target|P07741 Adenine phosphoribosyltransferase (DB00173; DB01632; DB03506; DB04272)
 OpenBabel12092119243D

  0  0  0     0  0            999 V3000
M  V30 BEGIN CTAB
M  V30 COUNTS 2802 2828 0 0 0
M  V30 BEGIN ATOM
M  V30 1 H -0.908 1.98254 -0.117106 0
M  V30 2 N 0 1.576 0 0
M  V30 3 C 0.933 2.03868 1.02534 0
M  V30 4 C 1.911 0.928543 1.3348 0
M  V30 5 O 3.095 1.19667 1.45644 0
M  V30 6 C 0.222 2.43627 2.35294 0
M  V30 7 C -0.732 3.65373 2.2001 0
M  V30 8 S 0.101 5.13292 1.52614 0
M  V30 9 C 1.257 5.56322 2.86805 0
M  V30 10 H 1.49 2.90518 0.631377 0
M  V30 11 H -0.977 1.52953 0.210867 0
M  V30 12 H 0.981 2.67203 3.11629 0
M  V30 13 H -0.358 1.57376 2.7183 0
M  V30 14 H -1.165 3.90944 3.18086 0
M  V30 15 H -1.563 3.418 1.51819 0
M  V30 16 H 0.729 5.58782 3.83104 0
M  V30 17 H 1.672 6.56266 2.65933 0
M  V30 18 H 2.08 4.83886 2.90714 0
M  V30 19 N 1.4781 -0.272755 1.55222 0
M  V30 20 C 2.4411 -1.32041 1.87344 0
M  V30 21 C 3.4411 -1.42342 0.74803 0
M  V30 22 O 4.6311 -1.41488 1.0162 0
M  V30 23 C 1.7631 -2.70173 2.07893 0
M  V30 24 H 2.9561 -1.04789 2.80997 0
M  V30 25 H 0.5091 -0.51083 1.47717 0
M  V30 26 H 1.2441 -3.02605 1.16622 0
M  V30 27 H 1.0291 -2.64082 2.89833 0
M  V30 28 H 2.5191 -3.45869 2.34017 0
M  V30 29 N 2.9562 -1.48159 -0.537278 0
M  V30 30 C 4.2332 -1.46291 -1.29839 0
M  V30 31 C 4.6132 -0.170613 -2.10409 0
M  V30 32 O 3.9612 0.847746 -2.12192 0
M  V30 33 C 4.1712 -2.72055 -2.18603 0
M  V30 34 C 5.5192 -3.20087 -2.7898 0
M  V30 35 O 6.5432 -2.72921 -2.28894 0
M  V30 36 O 5.4022 -4.02138 -3.70064 0
M  V30 37 H 2.4962 -0.583906 -0.585647 0
M  V30 38 H 5.0422 -1.60384 -0.554534 0
M  V30 39 H 3.8142 -3.57628 -1.58801 0
M  V30 40 H 3.4372 -2.60646 -3.00249 0
M  V30 41 N 4.4343 0.785586 -1.36625 0
M  V30 42 C 5.6593 1.57963 -1.34397 0
M  V30 43 C 6.0843 1.87964 0.071526 0
M  V30 44 O 5.4423 1.48182 1.0446 0
M  V30 45 C 5.4903 2.87511 -2.17646 0
M  V30 46 O 4.5943 3.81281 -1.57158 0
M  V30 47 H 3.9353 0.479014 -0.459828 0
M  V30 48 H 6.4653 0.973411 -1.79961 0
M  V30 49 H 6.4753 3.36745 -2.30362 0
M  V30 50 H 5.1503 2.65002 -3.20541 0
M  V30 51 H 3.7273 3.39885 -1.53403 0
M  V30 52 N 5.9124 1.20967 1.01018 0
M  V30 53 C 6.8224 0.980157 2.13143 0
M  V30 54 C 7.8384 -0.0660665 1.73875 0
M  V30 55 O 9.0144 0.122821 2.01025 0
M  V30 56 C 6.0794 0.54216 3.42435 0
M  V30 57 C 5.1404 1.65999 3.95908 0
M  V30 58 C 4.3734 1.2428 5.19028 0
M  V30 59 O 4.5964 0.114196 5.70286 0
M  V30 60 O 3.5304 2.05271 5.65816 0
M  V30 61 H 7.3564 1.91913 2.35379 0
M  V30 62 H 4.9414 0.994099 1.11526 0
M  V30 63 H 6.8234 0.30744 4.20277 0
M  V30 64 H 5.4984 -0.36815 3.216 0
M  V30 65 H 4.4054 1.94906 3.19316 0
M  V30 66 H 5.7384 2.54753 4.21143 0
M  V30 67 N 7.3905 -1.2043 1.01659 0
M  V30 68 C 8.3205 -2.25466 0.607226 0
M  V30 69 C 9.3015 -1.65853 -0.377716 0
M  V30 70 O 10.4865 -1.92409 -0.263149 0
M  V30 71 C 7.6165 -3.47256 -0.0552949 0
M  V30 72 C 6.5705 -4.19462 0.850632 0
M  V30 73 C 5.8965 -5.34673 0.0538859 0
M  V30 74 C 7.1965 -4.75603 2.15868 0
M  V30 75 H 8.8905 -2.59962 1.48526 0
M  V30 76 H 6.4365 -1.2496 0.715605 0
M  V30 77 H 8.3895 -4.19917 -0.353233 0
M  V30 78 H 7.1135 -3.11924 -0.968045 0
M  V30 79 H 5.7725 -3.48667 1.13257 0
M  V30 80 H 5.4205 -4.95585 -0.860514 0
M  V30 81 H 5.1205 -5.83913 0.657192 0
M  V30 82 H 6.6445 -6.10138 -0.237598 0
M  V30 83 H 8.0585 -5.40083 1.92311 0
M  V30 84 H 6.4555 -5.3528 2.71284 0
M  V30 85 H 7.5255 -3.94346 2.82169 0
M  V30 86 N 8.8686 -0.792821 -1.36206 0
M  V30 87 C 9.8006 -0.151469 -2.28699 0
M  V30 88 C 10.8136 0.641262 -1.49638 0
M  V30 89 O 12.0026 0.475885 -1.72039 0
M  V30 90 C 9.1026 0.808424 -3.29117 0
M  V30 91 C 8.2756 0.0650202 -4.37352 0
M  V30 92 C 7.3346 0.941358 -5.17711 0
M  V30 93 O 6.3606 0.397352 -5.67811 0
M  V30 94 N 7.5626 2.2652 -5.3448 0
M  V30 95 H 10.3276 -0.945982 -2.84379 0
M  V30 96 H 7.8886 -0.647032 -1.48409 0
M  V30 97 H 9.8806 1.3986 -3.79765 0
M  V30 98 H 8.4506 1.5038 -2.74052 0
M  V30 99 H 7.6706 -0.706255 -3.87822 0
M  V30 100 H 8.9586 -0.447847 -5.06825 0
M  V30 101 H 8.3566 2.73128 -4.95396 0
M  V30 102 H 6.9136 2.80493 -5.88359 0
M  V30 103 N 10.3467 1.47872 -0.545128 0
M  V30 104 C 11.2767 2.32661 0.197793 0
M  V30 105 C 12.2577 1.43041 0.920504 0
M  V30 106 O 13.4427 1.71912 0.90333 0
M  V30 107 C 10.5727 3.24569 1.23582 0
M  V30 108 C 9.5267 4.23333 0.630323 0
M  V30 109 C 8.8527 5.0448 1.77211 0
M  V30 110 C 10.1527 5.20704 -0.407974 0
M  V30 111 H 11.8467 2.95024 -0.510045 0
M  V30 112 H 9.3927 1.4187 -0.246731 0
M  V30 113 H 11.3457 3.8272 1.76362 0
M  V30 114 H 10.0697 2.60236 1.97344 0
M  V30 115 H 8.7287 3.6639 0.123922 0
M  V30 116 H 8.3767 4.36561 2.49847 0
M  V30 117 H 8.0767 5.71339 1.37281 0
M  V30 118 H 9.6007 5.65487 2.3034 0
M  V30 119 H 11.0147 5.7329 0.033305 0
M  V30 120 H 9.4117 5.95699 -0.725486 0
M  V30 121 H 10.4817 4.66917 -1.30828 0
M  V30 122 N 11.8248 0.280983 1.55075 0
M  V30 123 C 13.0708 -0.33461 2.00021 0
M  V30 124 C 13.4038 -1.55063 1.16915 0
M  V30 125 O 12.6788 -1.93006 0.240646 0
M  V30 126 C 12.9618 -0.711007 3.53011 0
M  V30 127 C 12.8148 0.512766 4.46868 0
M  V30 128 C 14.1338 -1.54522 4.12081 0
M  V30 129 H 11.2528 -0.120147 0.727141 0
M  V30 130 H 13.8948 0.389097 1.85973 0
M  V30 131 H 12.0448 -1.32761 3.65112 0
M  V30 132 H 13.7168 1.15131 4.46702 0
M  V30 133 H 11.9598 1.14975 4.18286 0
M  V30 134 H 12.6308 0.205556 5.51617 0
M  V30 135 H 15.1068 -1.02442 4.03293 0
M  V30 136 H 13.9828 -1.77739 5.19327 0
M  V30 137 H 14.2438 -2.52813 3.62682 0
M  V30 138 N 13.3029 -1.57598 0.00835791 0
M  V30 139 C 14.2129 -2.12385 -0.996487 0
M  V30 140 C 15.2289 -1.07108 -1.37127 0
M  V30 141 O 16.4049 -1.39055 -1.4569 0
M  V30 142 C 13.4699 -2.62314 -2.26699 0
M  V30 143 C 12.5309 -3.82225 -1.95456 0
M  V30 144 C 11.7639 -4.29763 -3.16449 0
M  V30 145 O 11.9869 -3.76584 -4.28416 0
M  V30 146 O 10.9209 -5.21832 -2.99958 0
M  V30 147 H 14.7469 -2.98479 -0.560725 0
M  V30 148 H 12.3319 -1.47903 -0.210987 0
M  V30 149 H 14.2139 -2.94589 -3.01322 0
M  V30 150 H 12.8889 -1.79313 -2.69497 0
M  V30 151 H 11.7959 -3.54909 -1.18282 0
M  V30 152 H 13.1289 -4.66324 -1.57489 0
M  V30 153 N 14.781 0.264519 -1.55364 0
M  V30 154 C 15.713 1.34965 -1.85248 0
M  V30 155 C 16.726 1.45136 -0.737525 0
M  V30 156 O 17.915 1.46801 -1.01547 0
M  V30 157 C 15.015 2.73008 -2.00797 0
M  V30 158 C 14.188 2.85324 -3.31525 0
M  V30 159 C 13.247 4.04097 -3.37034 0
M  V30 160 O 12.273 3.94455 -4.10358 0
M  V30 161 N 13.475 5.16458 -2.65049 0
M  V30 162 H 16.24 1.09672 -2.78913 0
M  V30 163 H 13.801 0.454635 -1.55386 0
M  V30 164 H 15.793 3.50772 -2.01844 0
M  V30 165 H 14.363 2.91087 -1.1396 0
M  V30 166 H 13.583 1.94377 -3.42945 0
M  V30 167 H 14.871 2.9049 -4.17724 0
M  V30 168 H 14.269 5.27181 -2.05175 0
M  V30 169 H 12.826 5.92422 -2.71809 0
M  V30 170 N 16.2591 1.48442 0.529413 0
M  V30 171 C 17.6751 1.34575 0.858004 0
M  V30 172 C 17.8751 0.3572 1.98309 0
M  V30 173 O 16.9311 -0.221379 2.51528 0
M  V30 174 C 18.2441 2.74617 1.22499 0
M  V30 175 C 19.7921 2.83109 1.33484 0
M  V30 176 C 20.2671 4.23854 1.73526 0
M  V30 177 N 21.7581 4.2653 1.80628 0
M  V30 178 C 22.4931 5.32372 2.12997 0
M  V30 179 N 21.9891 6.48491 2.43786 0
M  V30 180 N 23.7821 5.19766 2.14008 0
M  V30 181 H 15.9331 2.1133 -0.212925 0
M  V30 182 H 18.1961 0.947439 -0.0326199 0
M  V30 183 H 17.9021 3.4852 0.471905 0
M  V30 184 H 17.7761 3.08177 2.17501 0
M  V30 185 H 20.1631 2.09462 2.0787 0
M  V30 186 H 20.2441 2.53168 0.366027 0
M  V30 187 H 19.8881 4.98018 0.997013 0
M  V30 188 H 19.8181 4.5124 2.71459 0
M  V30 189 H 22.3091 3.42772 1.59108 0
M  V30 190 H 22.6221 7.24993 2.67592 0
M  V30 191 H 20.9671 6.51765 2.41304 0
M  V30 192 H 24.1581 4.28066 1.89412 0
M  V30 193 H 24.3311 6.02354 2.38902 0
M  V30 194 N 17.7372 -0.778329 1.37039 0
M  V30 195 C 18.9862 -1.53189 1.3121 0
M  V30 196 C 19.2992 -1.95328 -0.103095 0
M  V30 197 O 20.5052 -2.70012 -0.283826 0
M  V30 198 C 18.9612 -2.76591 2.30272 0
M  V30 199 C 18.5692 -2.41577 3.77286 0
M  V30 200 C 20.3132 -3.5455 2.33441 0
M  V30 201 C 18.2202 -3.61441 4.68096 0
M  V30 202 H 17.1502 -0.5751 0.487622 0
M  V30 203 H 19.8012 -0.853101 1.62464 0
M  V30 204 H 18.1832 -3.46326 1.92027 0
M  V30 205 H 19.3572 -1.79668 4.2433 0
M  V30 206 H 17.6722 -1.76806 3.76999 0
M  V30 207 H 20.2692 -4.43628 2.98493 0
M  V30 208 H 20.6122 -3.93936 1.34611 0
M  V30 209 H 21.1452 -2.91805 2.7036 0
M  V30 210 H 17.8842 -3.27142 5.6803 0
M  V30 211 H 17.4042 -4.22478 4.25761 0
M  V30 212 H 19.0832 -4.28335 4.8491 0
M  V30 213 N 19.2153 -1.21501 -1.00376 0
M  V30 214 C 20.6313 -0.972629 -1.26539 0
M  V30 215 C 20.8313 0.340257 -1.98606 0
M  V30 216 O 19.8873 1.06561 -2.28913 0
M  V30 217 C 21.2003 -2.16404 -2.08781 0
M  V30 218 C 22.7483 -2.20643 -2.22004 0
M  V30 219 C 23.2233 -3.39306 -3.07629 0
M  V30 220 N 24.7143 -3.39401 -3.15217 0
M  V30 221 C 25.4493 -4.27867 -3.81729 0
M  V30 222 N 24.9453 -5.26533 -4.5026 0
M  V30 223 N 26.7383 -4.15672 -3.78382 0
M  V30 224 H 18.8893 -2.05929 -0.520281 0
M  V30 225 H 21.1523 -0.901803 -0.292328 0
M  V30 226 H 20.8583 -3.11554 -1.63178 0
M  V30 227 H 20.7323 -2.15567 -3.09533 0
M  V30 228 H 23.1193 -1.26048 -2.66825 0
M  V30 229 H 23.2003 -2.25523 -1.20718 0
M  V30 230 H 22.8443 -4.34195 -2.63509 0
M  V30 231 H 22.7743 -3.31665 -4.09031 0
M  V30 232 H 25.2653 -2.67997 -2.66432 0
M  V30 233 H 25.5783 -5.90337 -4.98721 0
M  V30 234 H 23.9233 -5.30457 -4.49044 0
M  V30 235 H 27.1143 -3.3785 -3.23998 0
M  V30 236 H 27.2873 -4.84825 -4.2994 0
M  V30 237 N 20.6934 1.19889 -1.02296 0
M  V30 238 C 21.9184 1.9393 -0.735237 0
M  V30 239 C 22.3434 1.74639 0.698782 0
M  V30 240 O 21.7014 1.04481 1.48167 0
M  V30 241 C 21.7494 3.43916 -1.08417 0
M  V30 242 O 20.8534 4.11917 -0.199446 0
M  V30 243 H 20.1944 0.605645 -0.272196 0
M  V30 244 H 22.7244 1.52137 -1.36804 0
M  V30 245 H 22.7344 3.9456 -1.03856 0
M  V30 246 H 21.4094 3.5728 -2.12894 0
M  V30 247 H 19.9864 3.71666 -0.303136 0
M  V30 248 N 22.1715 0.800033 1.35784 0
M  V30 249 C 23.4185 0.377342 1.98953 0
M  V30 250 C 23.7465 -1.05378 1.6348 0
M  V30 251 O 23.0015 -1.74459 0.886707 0
M  V30 252 C 23.3005 0.500276 3.53881 0
M  V30 253 C 22.9665 1.89375 4.09204 0
M  V30 254 C 21.6285 2.27499 4.24025 0
M  V30 255 C 23.9805 2.8057 4.39238 0
M  V30 256 C 21.3085 3.562 4.66195 0
M  V30 257 C 23.6605 4.0871 4.82844 0
M  V30 258 C 22.3245 4.46843 4.95871 0
M  V30 259 H 21.5945 0.138079 0.728021 0
M  V30 260 H 24.2415 1.01955 1.62103 0
M  V30 261 H 22.5465 -0.225405 3.91151 0
M  V30 262 H 24.2435 0.154097 4.00704 0
M  V30 263 H 20.8335 1.58753 3.98115 0
M  V30 264 H 25.0175 2.52367 4.27346 0
M  V30 265 H 20.2735 3.85602 4.74469 0
M  V30 266 H 24.4475 4.79481 5.05046 0
M  V30 267 H 22.0745 5.46623 5.28306 0
M  V30 268 N 23.6496 -1.47581 0.552962 0
M  V30 269 C 25.0606 -1.86324 0.118463 0
M  V30 270 C 25.4116 -1.46006 -1.3106 0
M  V30 271 O 24.5366 -0.861182 -1.98526 0
M  V30 272 C 25.1316 -3.3816 0.20821 0
M  V30 273 C 23.6906 -3.7601 -0.171226 0
M  V30 274 C 22.8376 -2.71634 0.557686 0
M  V30 275 H 25.7886 -1.39159 0.762928 0
M  V30 276 H 25.8096 -3.76141 -0.574278 0
M  V30 277 H 25.3216 -3.67473 1.24841 0
M  V30 278 H 23.4226 -3.52313 -1.21269 0
M  V30 279 H 23.5356 -4.78745 0.184379 0
M  V30 280 H 21.8996 -2.547 0.00125792 0
M  V30 281 H 22.6826 -3.0379 1.59896 0
M  V30 282 N 25.1277 -0.289203 -1.54924 0
M  V30 283 C 26.4047 0.376032 -1.91951 0
M  V30 284 C 26.7847 1.72622 -1.21511 0
M  V30 285 O 26.1327 2.25853 -0.346767 0
M  V30 286 C 26.3427 0.502378 -3.45365 0
M  V30 287 C 27.6907 0.778741 -4.17398 0
M  V30 288 O 28.7147 0.586647 -3.51336 0
M  V30 289 O 27.5737 1.14698 -5.34328 0
M  V30 290 H 24.6677 0.208167 -0.800372 0
M  V30 291 H 27.2137 -0.336394 -1.66332 0
M  V30 292 H 25.9857 -0.447255 -3.88736 0
M  V30 293 H 25.6087 1.26373 -3.76982 0
M  V30 294 N 26.6058 1.57591 -0.0167156 0
M  V30 295 C 27.8528 1.91283 0.664597 0
M  V30 296 C 28.1808 0.891949 1.72842 0
M  V30 297 O 27.4358 -0.100931 1.9544 0
M  V30 298 C 27.7348 3.3172 1.33029 0
M  V30 299 C 27.4008 4.4914 0.398047 0
M  V30 300 C 26.0628 4.80992 0.141421 0
M  V30 301 C 28.4148 5.20634 -0.242825 0
M  V30 302 C 25.7428 5.81703 -0.764092 0
M  V30 303 C 28.0948 6.22311 -1.13632 0
M  V30 304 C 26.7588 6.52611 -1.40196 0
M  V30 305 H 26.0288 0.699956 0.243193 0
M  V30 306 H 28.6758 1.9135 -0.0758267 0
M  V30 307 H 26.9808 3.27856 2.14517 0
M  V30 308 H 28.6778 3.55055 1.86379 0
M  V30 309 H 25.2678 4.24262 0.608238 0
M  V30 310 H 29.4518 4.96267 -0.0576019 0
M  V30 311 H 24.7078 6.03532 -0.977732 0
M  V30 312 H 28.8818 6.76834 -1.63917 0
M  V30 313 H 26.5088 7.30467 -2.10529 0
M  V30 314 N 28.0839 -0.256276 1.55502 0
M  V30 315 C 29.4949 -0.826068 1.67431 0
M  V30 316 C 29.8459 -1.86396 0.612446 0
M  V30 317 O 28.9709 -2.15031 -0.243025 0
M  V30 318 C 29.5659 -1.50512 3.03532 0
M  V30 319 C 28.1249 -2.02273 3.17431 0
M  V30 320 C 27.2719 -0.870548 2.63281 0
M  V30 321 H 30.2229 -0.0322728 1.58667 0
M  V30 322 H 30.2439 -2.37279 2.97454 0
M  V30 323 H 29.7559 -0.749484 3.80794 0
M  V30 324 H 27.8569 -2.80746 2.44974 0
M  V30 325 H 27.9699 -2.22655 4.24219 0
M  V30 326 H 26.3339 -1.26851 2.20864 0
M  V30 327 H 27.1169 -0.128149 3.43061 0
M  V30 328 N 29.562 -1.4872 -0.521534 0
M  V30 329 C 30.79 -1.60843 -1.30142 0
M  V30 330 C 31.205 -0.271897 -1.86832 0
M  V30 331 O 30.562 0.739969 -1.66825 0
M  V30 332 C 30.613 -2.66155 -2.4463 0
M  V30 333 O 30.334 -3.94623 -1.90275 0
M  V30 334 C 31.835 -2.88795 -3.36322 0
M  V30 335 H 29.055 -0.542075 -0.395468 0
M  V30 336 H 31.599 -1.94609 -0.628285 0
M  V30 337 H 29.754 -2.35224 -3.07812 0
M  V30 338 H 30.168 -4.52468 -2.65279 0
M  V30 339 H 31.642 -3.66264 -4.12983 0
M  V30 340 H 32.119 -1.97934 -3.9207 0
M  V30 341 H 32.725 -3.21063 -2.78924 0
M  V30 342 N 31.0401 0.771051 -1.3745 0
M  V30 343 C 32.4511 1.34737 -1.29239 0
M  V30 344 C 32.8021 1.96109 0.0596908 0
M  V30 345 O 31.9271 1.93865 0.961534 0
M  V30 346 C 32.5221 2.44973 -2.34037 0
M  V30 347 C 31.0811 2.98372 -2.29458 0
M  V30 348 C 30.2281 1.71595 -2.17831 0
M  V30 349 H 33.1791 0.571256 -1.48062 0
M  V30 350 H 33.2001 3.24471 -1.98744 0
M  V30 351 H 32.7121 2.00276 -3.32432 0
M  V30 352 H 30.8131 3.47443 -1.34589 0
M  V30 353 H 30.9261 3.53939 -3.229 0
M  V30 354 H 29.2901 1.94547 -1.64388 0
M  V30 355 H 30.0731 1.29001 -3.18141 0
M  V30 356 N 32.5182 1.22032 0.997298 0
M  V30 357 C 33.7662 1.04016 1.73278 0
M  V30 358 C 34.0872 -0.426255 1.90284 0
M  V30 359 O 33.3572 -1.30694 1.45931 0
M  V30 360 H 31.9372 0.381897 0.642 0
M  V30 361 H 34.5992 1.5347 1.20137 0
M  V30 362 H 33.6952 1.51441 2.72896 0
M  V30 363 N 33.9963 -1.19345 1.0293 0
M  V30 364 C 35.2423 -1.89318 0.727083 0
M  V30 365 C 35.5753 -1.79446 -0.742483 0
M  V30 366 O 34.8503 -1.1871 -1.54072 0
M  V30 367 C 35.1333 -3.40238 1.17942 0
M  V30 368 C 34.9863 -3.58979 2.71024 0
M  V30 369 C 36.3053 -4.33479 0.760548 0
M  V30 370 H 33.4243 -0.687475 0.265606 0
M  V30 371 H 36.0663 -1.40477 1.2793 0
M  V30 372 H 34.2163 -3.81964 0.709608 0
M  V30 373 H 35.8883 -3.26421 3.25955 0
M  V30 374 H 34.1313 -3.02018 3.11396 0
M  V30 375 H 34.8023 -4.64823 2.9773 0
M  V30 376 H 37.2783 -3.99469 1.16464 0
M  V30 377 H 36.1543 -5.37664 1.10493 0
M  V30 378 H 36.4153 -4.40813 -0.337063 0
M  V30 379 N 35.4744 -0.807222 -1.35358 0
M  V30 380 C 36.7204 -0.388463 -1.99045 0
M  V30 381 C 37.0534 1.04184 -1.63888 0
M  V30 382 O 36.3284 1.72292 -0.902535 0
M  V30 383 C 36.6114 -0.572783 -3.55515 0
M  V30 384 C 36.4644 -2.04807 -4.00468 0
M  V30 385 C 37.7834 0.00114064 -4.401 0
M  V30 386 H 34.9024 -0.142619 -0.723069 0
M  V30 387 H 37.5444 -1.01687 -1.60498 0
M  V30 388 H 35.6944 -0.0378425 -3.88482 0
M  V30 389 H 37.3664 -2.64544 -3.77908 0
M  V30 390 H 35.6094 -2.54427 -3.51353 0
M  V30 391 H 36.2804 -2.12792 -5.09337 0
M  V30 392 H 38.7564 -0.455716 -4.13597 0
M  V30 393 H 37.6324 -0.157737 -5.48673 0
M  V30 394 H 37.8934 1.09488 -4.28328 0
M  V30 395 N 36.9525 1.47285 -0.560781 0
M  V30 396 C 38.1995 2.02464 -0.038062 0
M  V30 397 C 38.5275 1.43474 1.31322 0
M  V30 398 O 37.7825 0.581311 1.86867 0
M  V30 399 C 38.0815 3.57258 0.100784 0
M  V30 400 C 37.7475 4.35184 -1.18007 0
M  V30 401 C 36.4095 4.56194 -1.53103 0
M  V30 402 C 38.7615 4.80098 -2.02867 0
M  V30 403 C 36.0895 5.19367 -2.729 0
M  V30 404 C 38.4415 5.44593 -3.21871 0
M  V30 405 C 37.1055 5.63835 -3.57276 0
M  V30 406 H 36.3755 0.740869 -0.0139279 0
M  V30 407 H 39.0225 1.76916 -0.733012 0
M  V30 408 H 37.3275 3.81819 0.878724 0
M  V30 409 H 39.0245 3.97606 0.520639 0
M  V30 410 H 35.6145 4.19113 -0.8968 0
M  V30 411 H 39.7985 4.63642 -1.7706 0
M  V30 412 H 35.0545 5.32459 -3.00496 0
M  V30 413 H 39.2285 5.78358 -3.87911 0
M  V30 414 H 36.8555 6.12557 -4.50197 0
M  V30 415 N 38.4306 0.297415 1.54768 0
M  V30 416 C 39.8466 -0.0560823 1.59501 0
M  V30 417 C 40.0466 -1.52725 1.31444 0
M  V30 418 O 39.1026 -2.27947 1.08611 0
M  V30 419 C 40.4156 0.338631 2.98787 0
M  V30 420 C 41.9636 0.287097 3.11681 0
M  V30 421 C 42.4386 0.656579 4.53269 0
M  V30 422 N 43.9296 0.608977 4.59179 0
M  V30 423 C 44.6646 0.867385 5.66802 0
M  V30 424 N 44.1606 1.19157 6.82476 0
M  V30 425 N 45.9536 0.794687 5.56454 0
M  V30 426 H 38.1046 1.25624 1.71267 0
M  V30 427 H 40.3676 0.509057 0.799728 0
M  V30 428 H 40.0736 1.36263 3.2423 0
M  V30 429 H 39.9476 -0.309508 3.75928 0
M  V30 430 H 42.3346 -0.727649 2.85988 0
M  V30 431 H 42.4156 0.969809 2.36703 0
M  V30 432 H 42.0596 1.66912 4.7969 0
M  V30 433 H 41.9896 -0.0481649 5.26578 0
M  V30 434 H 44.4806 0.369198 3.76092 0
M  V30 435 H 44.7936 1.37482 7.60473 0
M  V30 436 H 43.1386 1.22958 6.84037 0
M  V30 437 H 46.3296 0.541098 4.64962 0
M  V30 438 H 46.5026 0.999445 6.40246 0
M  V30 439 N 39.9087 -1.5758 0.0250728 0
M  V30 440 C 41.1857 -1.82917 -0.692873 0
M  V30 441 C 41.5657 -0.908137 -1.90568 0
M  V30 442 O 40.9137 0.0372298 -2.2847 0
M  V30 443 C 41.1237 -3.32034 -1.07492 0
M  V30 444 C 42.4717 -3.98406 -1.46826 0
M  V30 445 O 43.4957 -3.36505 -1.16801 0
M  V30 446 O 42.3547 -5.07497 -2.02754 0
M  V30 447 H 39.4487 -0.754079 -0.33955 0
M  V30 448 H 41.9947 -1.69619 0.0524456 0
M  V30 449 H 40.7667 -3.90728 -0.211552 0
M  V30 450 H 40.3897 -3.50424 -1.87854 0
M  V30 451 N 41.3868 0.248026 -1.55636 0
M  V30 452 C 42.6358 0.974134 -1.76617 0
M  V30 453 C 42.9488 1.86528 -0.588796 0
M  V30 454 O 44.1548 2.62805 -0.681594 0
M  V30 455 C 42.6108 1.78213 -3.12679 0
M  V30 456 C 42.2188 0.93843 -4.38061 0
M  V30 457 C 43.9628 2.50104 -3.42999 0
M  V30 458 C 41.8698 1.74225 -5.65155 0
M  V30 459 H 40.7998 0.36745 -0.658405 0
M  V30 460 H 43.4508 0.22884 -1.82067 0
M  V30 461 H 41.8328 2.56933 -3.01333 0
M  V30 462 H 43.0068 0.193635 -4.60393 0
M  V30 463 H 41.3218 0.332905 -4.15067 0
M  V30 464 H 43.9188 3.10694 -4.3517 0
M  V30 465 H 44.2618 3.21662 -2.64271 0
M  V30 466 H 44.7948 1.78395 -3.55556 0
M  V30 467 H 41.5338 1.07043 -6.46701 0
M  V30 468 H 41.0538 2.46235 -5.46926 0
M  V30 469 H 42.7328 2.30967 -6.0437 0
M  V30 470 N 42.8649 1.48995 0.513639 0
M  V30 471 C 44.0899 1.61792 1.29762 0
M  V30 472 C 44.5149 0.284475 1.85936 0
M  V30 473 O 43.8729 -0.746185 1.65232 0
M  V30 474 C 43.9209 2.67993 2.41272 0
M  V30 475 O 43.0249 2.26287 3.44772 0
M  V30 476 H 42.3659 0.541963 0.38363 0
M  V30 477 H 44.8959 1.95097 0.616307 0
M  V30 478 H 44.9059 2.89772 2.87221 0
M  V30 479 H 43.5809 3.64791 1.9975 0
M  V30 480 H 42.1579 2.14788 3.04829 0
M  V30 481 N 44.343 -0.763751 1.37857 0
M  V30 482 C 45.754 -1.3405 1.29952 0
M  V30 483 C 46.105 -1.96138 -0.0492898 0
M  V30 484 O 45.23 -1.94372 -0.951239 0
M  V30 485 C 45.825 -2.43729 2.35333 0
M  V30 486 C 44.384 -2.97151 2.31037 0
M  V30 487 C 43.531 -1.70438 2.18738 0
M  V30 488 H 46.482 -0.563396 1.48363 0
M  V30 489 H 46.503 -3.23412 2.00462 0
M  V30 490 H 46.015 -1.9851 3.33489 0
M  V30 491 H 44.116 -3.46724 1.3643 0
M  V30 492 H 44.229 -3.52221 3.24772 0
M  V30 493 H 42.593 -1.93673 1.65418 0
M  V30 494 H 43.376 -1.27312 3.18821 0
M  V30 495 N 45.8211 -1.22559 -0.990812 0
M  V30 496 C 47.0671 -1.05297 -1.73322 0
M  V30 497 C 47.4001 0.410655 -1.89808 0
M  V30 498 O 46.6751 1.30439 -1.44277 0
M  V30 499 C 46.9581 -1.76713 -3.13759 0
M  V30 500 C 46.8111 -3.30684 -3.04907 0
M  V30 501 C 48.1301 -1.52121 -4.12974 0
M  V30 502 H 45.2491 -0.38392 -0.629106 0
M  V30 503 H 47.8911 -1.50926 -1.15418 0
M  V30 504 H 46.0411 -1.37924 -3.63193 0
M  V30 505 H 47.7131 -3.7893 -2.63077 0
M  V30 506 H 45.9561 -3.60253 -2.41661 0
M  V30 507 H 46.6271 -3.75833 -4.04294 0
M  V30 508 H 49.1031 -1.85819 -3.72304 0
M  V30 509 H 47.9791 -2.04582 -5.0935 0
M  V30 510 H 48.2401 -0.454257 -4.3976 0
M  V30 511 N 47.2992 1.18797 -1.03562 0
M  V30 512 C 48.2292 2.24472 -0.643019 0
M  V30 513 C 49.2102 1.66433 0.351283 0
M  V30 514 O 50.3952 1.92803 0.232505 0
M  V30 515 C 47.5252 3.473 4.24935e-05 0
M  V30 516 C 46.4792 4.18055 -0.917257 0
M  V30 517 C 45.8052 5.34519 -0.138941 0
M  V30 518 C 47.1052 4.72109 -2.23407 0
M  V30 519 H 48.7992 2.57566 -1.52643 0
M  V30 520 H 46.3452 1.23806 -0.735394 0
M  V30 521 H 48.2982 4.20426 0.286383 0
M  V30 522 H 47.0222 3.13424 0.918299 0
M  V30 523 H 45.6812 3.46821 -1.1879 0
M  V30 524 H 45.3292 4.96891 0.781562 0
M  V30 525 H 45.0292 5.82794 -0.750005 0
M  V30 526 H 46.5532 6.10438 0.1405 0
M  V30 527 H 47.9672 5.36955 -2.00879 0
M  V30 528 H 46.3642 5.30897 -2.79765 0
M  V30 529 H 47.4342 3.89807 -2.88407 0
M  V30 530 N 48.7773 0.814389 1.34928 0
M  V30 531 C 49.7243 0.22822 2.29669 0
M  V30 532 C 50.6943 -0.642164 1.53184 0
M  V30 533 O 51.8793 -0.585605 1.81591 0
M  V30 534 C 49.0193 -0.61089 3.3965 0
M  V30 535 C 48.1323 0.280792 4.31086 0
M  V30 536 C 47.2673 -0.567067 5.28165 0
M  V30 537 C 46.3063 0.324531 6.11239 0
M  V30 538 N 45.4433 -0.483756 7.00431 0
M  V30 539 H 50.2833 1.04153 2.79206 0
M  V30 540 H 47.8203 0.525133 1.37407 0
M  V30 541 H 49.7783 -1.11263 4.0209 0
M  V30 542 H 48.4083 -1.38939 2.91369 0
M  V30 543 H 47.4603 0.900688 3.69583 0
M  V30 544 H 48.7723 0.966723 4.89342 0
M  V30 545 H 47.9263 -1.13363 5.96015 0
M  V30 546 H 46.6653 -1.28654 4.70425 0
M  V30 547 H 45.6703 0.903298 5.42329 0
M  V30 548 H 46.8953 1.04198 6.71059 0
M  V30 549 H 44.8413 -1.18706 6.45171 0
M  V30 550 H 44.7583 0.143965 7.55863 0
M  V30 551 H 46.0263 -1.03334 7.7262 0
M  V30 552 N 50.2554 -1.46986 0.568584 0
M  V30 553 C 51.5324 -1.95592 -0.0174074 0
M  V30 554 C 51.9124 -1.51124 -1.47393 0
M  V30 555 O 51.2604 -0.755329 -2.15655 0
M  V30 556 C 51.4704 -3.48719 0.139913 0
M  V30 557 C 52.8184 -4.246 0.000426376 0
M  V30 558 O 53.8424 -3.56135 0.0680316 0
M  V30 559 O 52.7014 -5.46302 -0.146988 0
M  V30 560 H 49.7954 -0.82498 -0.0577599 0
M  V30 561 H 52.3414 -1.57335 0.635909 0
M  V30 562 H 51.1134 -3.73927 1.15301 0
M  V30 563 H 50.7364 -3.93771 -0.550491 0
M  V30 564 N 51.7335 -0.305618 -1.54608 0
M  V30 565 C 53.1445 0.186098 -1.8577 0
M  V30 566 C 53.4955 1.53058 -1.22751 0
M  V30 567 O 52.6205 2.09888 -0.526893 0
M  V30 568 C 53.2155 0.344449 -3.37044 0
M  V30 569 C 51.7745 0.780384 -3.68221 0
M  V30 570 C 50.9215 -0.108554 -2.77087 0
M  V30 571 H 53.8725 -0.526485 -1.49712 0
M  V30 572 H 53.8935 1.17828 -3.61796 0
M  V30 573 H 53.4055 -0.634235 -3.82883 0
M  V30 574 H 51.5065 1.76945 -3.27904 0
M  V30 575 H 51.6195 0.596572 -4.75371 0
M  V30 576 H 49.9835 0.412931 -2.5133 0
M  V30 577 H 50.7665 -1.08368 -3.25747 0
M  V30 578 N 53.2116 1.57565 -0.0334293 0
M  V30 579 C 54.1746 2.09393 0.932048 0
M  V30 580 C 55.1746 1.00986 1.25134 0
M  V30 581 O 56.3646 1.27129 1.19096 0
M  V30 582 C 53.4966 2.56338 2.2473 0
M  V30 583 H 54.6896 2.95984 0.483085 0
M  V30 584 H 52.2426 1.54819 0.21468 0
M  V30 585 H 52.9776 1.7309 2.74245 0
M  V30 586 H 52.7626 3.35542 2.02865 0
M  V30 587 H 54.2526 2.96646 2.93923 0
M  V30 588 N 54.6897 -0.239769 1.55765 0
M  V30 589 C 55.9147 -0.988373 1.82335 0
M  V30 590 C 56.3397 -1.77886 0.611421 0
M  V30 591 O 55.6977 -1.75889 -0.439639 0
M  V30 592 C 55.7457 -1.89627 3.06715 0
M  V30 593 O 54.8497 -2.98904 2.84131 0
M  V30 594 H 54.1907 -0.280858 0.601677 0
M  V30 595 H 56.7207 -0.258597 2.02959 0
M  V30 596 H 56.7307 -2.30957 3.36338 0
M  V30 597 H 55.4057 -1.31511 3.9456 0
M  V30 598 H 53.9827 -2.61651 2.65694 0
M  V30 599 N 56.1678 -1.49265 -0.50573 0
M  V30 600 C 57.4148 -1.58513 -1.26015 0
M  V30 601 C 57.7428 -0.26972 -1.92621 0
M  V30 602 O 56.9978 0.741997 -1.81088 0
M  V30 603 C 57.2968 -2.69008 -2.35308 0
M  V30 604 C 56.9628 -4.10662 -1.86192 0
M  V30 605 C 55.6248 -4.49212 -1.72516 0
M  V30 606 C 57.9768 -4.99336 -1.49375 0
M  V30 607 C 55.3048 -5.74214 -1.20394 0
M  V30 608 C 57.6568 -6.24852 -0.987072 0
M  V30 609 C 56.3208 -6.62236 -0.836669 0
M  V30 610 H 55.5908 -0.580041 -0.461122 0
M  V30 611 H 58.2378 -1.83078 -0.561665 0
M  V30 612 H 56.5428 -2.38396 -3.10926 0
M  V30 613 H 58.2398 -2.73373 -2.93374 0
M  V30 614 H 54.8298 -3.8023 -1.97795 0
M  V30 615 H 59.0138 -4.70212 -1.5879 0
M  V30 616 H 54.2698 -6.01883 -1.07458 0
M  V30 617 H 58.4438 -6.92944 -0.692983 0
M  V30 618 H 56.0708 -7.58979 -0.430607 0
M  V30 619 N 57.6459 0.756429 -1.3826 0
M  V30 620 C 59.0619 1.0591 -1.19395 0
M  V30 621 C 59.2619 2.01459 -0.0406567 0
M  V30 622 O 58.3179 2.44909 0.614467 0
M  V30 623 C 59.6309 1.64191 -2.51916 0
M  V30 624 C 61.1789 1.76376 -2.58574 0
M  V30 625 C 61.6539 2.38069 -3.91264 0
M  V30 626 N 63.1449 2.45503 -3.92788 0
M  V30 627 C 63.8799 2.94126 -4.92217 0
M  V30 628 N 63.3759 3.42805 -6.02043 0
M  V30 629 N 65.1689 2.9314 -4.7961 0
M  V30 630 H 57.3199 0.122313 -2.12048 0
M  V30 631 H 59.5829 0.116892 -0.940766 0
M  V30 632 H 59.2889 1.01451 -3.3675 0
M  V30 633 H 59.1629 2.6329 -2.70108 0
M  V30 634 H 61.5499 2.38244 -1.74137 0
M  V30 635 H 61.6309 0.759894 -2.44252 0
M  V30 636 H 61.2749 1.76835 -4.76121 0
M  V30 637 H 61.2049 3.39091 -4.02895 0
M  V30 638 H 63.6959 2.1107 -3.13461 0
M  V30 639 H 64.0089 3.78354 -6.73846 0
M  V30 640 H 62.3539 3.4087 -6.05667 0
M  V30 641 H 65.5449 2.54419 -3.92923 0
M  V30 642 H 65.7179 3.30721 -5.5725 0
M  V30 643 N 59.124 1.23083 0.984299 0
M  V30 644 C 60.087 1.00979 2.05757 0
M  V30 645 C 61.087 -0.0269573 1.60777 0
M  V30 646 O 62.277 0.212403 1.729 0
M  V30 647 C 59.409 0.527072 3.36801 0
M  V30 648 H 60.602 1.9622 2.26799 0
M  V30 649 H 58.155 1.05072 1.15714 0
M  V30 650 H 58.89 -0.429294 3.21446 0
M  V30 651 H 58.675 1.27515 3.70786 0
M  V30 652 H 60.165 0.392942 4.15747 0
M  V30 653 N 60.6021 -1.18246 1.0419 0
M  V30 654 C 61.5651 -2.20128 0.638452 0
M  V30 655 C 62.5651 -1.57885 -0.304805 0
M  V30 656 O 63.7551 -1.73967 -0.0900369 0
M  V30 657 C 60.8871 -3.4084 -0.0637751 0
M  V30 658 H 62.0801 -2.57336 1.54007 0
M  V30 659 H 59.6331 -1.32152 0.834598 0
M  V30 660 H 60.3681 -3.09166 -0.979136 0
M  V30 661 H 60.1531 -3.8726 0.614198 0
M  V30 662 H 61.6431 -4.16274 -0.332512 0
M  V30 663 N 62.0802 -0.821533 -1.34494 0
M  V30 664 C 63.3292 -0.405355 -1.97585 0
M  V30 665 C 63.6422 1.03677 -1.65863 0
M  V30 666 O 64.8482 1.55679 -2.22433 0
M  V30 667 C 63.3042 -0.673861 -3.53535 0
M  V30 668 C 62.9122 -2.12951 -3.94152 0
M  V30 669 C 64.6562 -0.32378 -4.23263 0
M  V30 670 C 62.5632 -2.34298 -5.43009 0
M  V30 671 H 61.4932 -0.147836 -0.739365 0
M  V30 672 H 64.1442 -1.00769 -1.53355 0
M  V30 673 H 62.5262 -0.00137554 -3.96 0
M  V30 674 H 63.7002 -2.84104 -3.62797 0
M  V30 675 H 62.0152 -2.44089 -3.37356 0
M  V30 676 H 64.6122 -0.461126 -5.32708 0
M  V30 677 H 64.9552 0.731586 -4.09821 0
M  V30 678 H 65.4882 -0.950786 -3.8627 0
M  V30 679 H 62.2272 -3.38335 -5.61435 0
M  V30 680 H 61.7472 -1.67687 -5.75883 0
M  V30 681 H 63.4262 -2.16588 -6.09671 0
M  V30 682 N 63.5583 1.46682 -0.576371 0
M  V30 683 C 64.8063 2.02013 -0.0594163 0
M  V30 684 C 65.1273 1.45101 1.30271 0
M  V30 685 O 64.3973 0.633317 1.8538 0
M  V30 686 H 62.9773 0.746759 -0.0189745 0
M  V30 687 H 65.6393 1.79862 -0.750717 0
M  V30 688 H 64.7353 3.12097 0.014345 0
M  V30 689 N 65.0364 0.313813 1.54444 0
M  V30 690 C 65.9664 -0.549454 2.26943 0
M  V30 691 C 66.9474 -1.12741 1.27372 0
M  V30 692 O 68.1324 -1.15436 1.56167 0
M  V30 693 C 65.2624 -1.71523 3.01989 0
M  V30 694 C 64.2164 -1.26703 4.08816 0
M  V30 695 C 63.5424 -2.51898 4.71647 0
M  V30 696 C 64.8424 -0.388962 5.2085 0
M  V30 697 H 66.5364 0.0552661 2.99349 0
M  V30 698 H 64.0824 0.0280207 1.43973 0
M  V30 699 H 66.0354 -2.32535 3.51433 0
M  V30 700 H 64.7594 -2.34639 2.27183 0
M  V30 701 H 63.4184 -0.679896 3.6024 0
M  V30 702 H 63.0664 -3.13356 3.93468 0
M  V30 703 H 62.7664 -2.22605 5.43802 0
M  V30 704 H 64.2904 -3.1369 5.23861 0
M  V30 705 H 65.7044 -0.905107 5.6611 0
M  V30 706 H 64.1014 -0.18924 5.99802 0
M  V30 707 H 65.1714 0.582699 4.81386 0
M  V30 708 N 66.5145 -1.57545 0.0417849 0
M  V30 709 C 67.4445 -2.14009 -0.933929 0
M  V30 710 C 68.4255 -1.05938 -1.33083 0
M  V30 711 O 69.6105 -1.33833 -1.40721 0
M  V30 712 C 66.7405 -2.67747 -2.21199 0
M  V30 713 C 65.6945 -3.80718 -1.95544 0
M  V30 714 C 65.0205 -4.20935 -3.29724 0
M  V30 715 C 66.3205 -5.06258 -1.28452 0
M  V30 716 H 68.0145 -2.95788 -0.463645 0
M  V30 717 H 65.5605 -1.42285 -0.221573 0
M  V30 718 H 67.5135 -3.05886 -2.89848 0
M  V30 719 H 66.2375 -1.83147 -2.70416 0
M  V30 720 H 64.8965 -3.43037 -1.2931 0
M  V30 721 H 64.5445 -3.33298 -3.76724 0
M  V30 722 H 64.2445 -4.9707 -3.13361 0
M  V30 723 H 65.7685 -4.61666 -3.9962 0
M  V30 724 H 67.1825 -5.41903 -1.8712 0
M  V30 725 H 65.5795 -5.87475 -1.22445 0
M  V30 726 H 66.6495 -4.84207 -0.259219 0
M  V30 727 N 67.9926 0.231505 -1.5589 0
M  V30 728 C 68.9556 1.27028 -1.90779 0
M  V30 729 C 69.9556 1.40308 -0.785507 0
M  V30 730 O 71.1456 1.38744 -1.05336 0
M  V30 731 C 68.2776 2.64566 -2.14983 0
M  V30 732 H 69.4706 0.973017 -2.83677 0
M  V30 733 H 67.0236 0.471486 -1.49019 0
M  V30 734 H 67.7586 2.99406 -1.24604 0
M  V30 735 H 67.5436 2.56305 -2.96732 0
M  V30 736 H 69.0336 3.39543 -2.43105 0
M  V30 737 N 69.4707 1.49531 0.497807 0
M  V30 738 C 70.8867 1.36365 0.829266 0
M  V30 739 C 71.0867 0.399184 1.97506 0
M  V30 740 O 70.1427 -0.167977 2.51941 0
M  V30 741 C 71.4557 2.77153 1.16647 0
M  V30 742 C 73.0037 2.85877 1.27449 0
M  V30 743 C 73.4787 4.2744 1.64497 0
M  V30 744 N 74.9697 4.30265 1.7154 0
M  V30 745 C 75.7047 5.3677 2.01656 0
M  V30 746 N 75.2007 6.53516 2.29976 0
M  V30 747 N 76.9937 5.24189 2.02934 0
M  V30 748 H 69.1447 2.10831 -0.257703 0
M  V30 749 H 71.4077 0.946534 -0.0527091 0
M  V30 750 H 71.1137 3.49442 0.397872 0
M  V30 751 H 70.9877 3.12722 2.10915 0
M  V30 752 H 73.3747 2.13824 2.0338 0
M  V30 753 H 73.4557 2.53887 0.312244 0
M  V30 754 H 73.0997 5.00021 0.891151 0
M  V30 755 H 73.0297 4.56896 2.61827 0
M  V30 756 H 75.5207 3.4607 1.51802 0
M  V30 757 H 75.8337 7.30506 2.52153 0
M  V30 758 H 74.1787 6.56737 2.27425 0
M  V30 759 H 77.3697 4.31988 1.80289 0
M  V30 760 H 77.5427 6.07286 2.26071 0
M  V30 761 N 70.9488 -0.749086 1.3866 0
M  V30 762 C 71.8988 -1.85368 1.32751 0
M  V30 763 C 72.8828 -1.59511 0.210945 0
M  V30 764 O 74.0748 -1.71255 0.447299 0
M  V30 765 C 71.2038 -3.23131 1.15935 0
M  V30 766 C 70.2898 -3.54864 2.32233 0
M  V30 767 N 70.6808 -3.57625 3.57684 0
M  V30 768 C 68.9788 -3.85154 2.24883 0
M  V30 769 C 69.6798 -3.86753 4.34508 0
M  V30 770 N 68.6558 -4.03812 3.63918 0
M  V30 771 H 72.4578 -1.85787 2.27729 0
M  V30 772 H 69.9718 -0.946658 1.31955 0
M  V30 773 H 71.9688 -4.02185 1.09786 0
M  V30 774 H 70.6288 -3.23961 0.218947 0
M  V30 775 H 71.6398 -3.39276 3.91295 0
M  V30 776 H 68.3168 -3.93672 1.39027 0
M  V30 777 H 69.7068 -3.95474 5.43185 0
M  V30 778 N 72.4269 -1.23603 -0.977757 0
M  V30 779 C 73.3569 -1.04401 -2.0886 0
M  V30 780 C 74.3379 0.0399052 -1.70053 0
M  V30 781 O 75.5229 -0.125246 -1.93796 0
M  V30 782 C 72.6529 -0.637269 -3.41403 0
M  V30 783 C 71.6069 -1.66883 -3.94124 0
M  V30 784 C 70.9329 -1.11745 -5.22893 0
M  V30 785 C 72.2329 -3.06247 -4.23096 0
M  V30 786 H 73.9269 -1.97316 -2.25182 0
M  V30 787 H 71.4729 -0.950096 -1.08209 0
M  V30 788 H 73.4259 -0.48998 -4.18542 0
M  V30 789 H 72.1499 0.327557 -3.24953 0
M  V30 790 H 70.8089 -1.80416 -3.19133 0
M  V30 791 H 70.4569 -0.143527 -5.02795 0
M  V30 792 H 70.1569 -1.80672 -5.59134 0
M  V30 793 H 71.6809 -0.982067 -6.02651 0
M  V30 794 H 73.0949 -2.96001 -4.90975 0
M  V30 795 H 71.4919 -3.72436 -4.70544 0
M  V30 796 H 72.5619 -3.55041 -3.30263 0
M  V30 797 N 73.905 1.17692 -1.04816 0
M  V30 798 C 74.852 2.21581 -0.645797 0
M  V30 799 C 75.822 1.62367 0.350159 0
M  V30 800 O 77.007 1.89254 0.242433 0
M  V30 801 C 74.147 3.45092 -0.0227568 0
M  V30 802 C 73.26 4.18613 -1.06709 0
M  V30 803 C 72.395 5.29602 -0.411767 0
M  V30 804 C 71.434 5.94904 -1.44067 0
M  V30 805 N 70.571 6.97414 -0.809781 0
M  V30 806 H 75.411 2.55353 -1.5362 0
M  V30 807 H 72.948 1.25438 -0.768364 0
M  V30 808 H 74.906 4.15679 0.35588 0
M  V30 809 H 73.536 3.11917 0.831122 0
M  V30 810 H 72.588 3.46779 -1.5636 0
M  V30 811 H 73.9 4.63293 -1.84827 0
M  V30 812 H 73.054 6.06696 0.0206623 0
M  V30 813 H 71.793 4.86045 0.401438 0
M  V30 814 H 70.798 5.16544 -1.88316 0
M  V30 815 H 72.023 6.40542 -2.25571 0
M  V30 816 H 69.969 6.55998 -0.0170186 0
M  V30 817 H 69.886 7.40386 -1.52856 0
M  V30 818 H 71.154 7.78463 -0.401999 0
M  V30 819 N 75.3831 0.828654 1.34056 0
M  V30 820 C 76.3461 0.259927 2.27721 0
M  V30 821 C 77.3461 -0.565478 1.50529 0
M  V30 822 O 78.5361 -0.38075 1.69988 0
M  V30 823 C 75.6681 -0.634944 3.34935 0
M  V30 824 H 76.8611 1.0863 2.79534 0
M  V30 825 H 74.4141 0.600951 1.44285 0
M  V30 826 H 75.1491 -1.48416 2.88346 0
M  V30 827 H 74.9341 -0.0444999 3.92075 0
M  V30 828 H 76.4241 -1.02648 4.04788 0
M  V30 829 N 76.8612 -1.46375 0.584142 0
M  V30 830 C 78.0892 -2.06761 0.0759296 0
M  V30 831 C 78.5042 -1.43266 -1.22965 0
M  V30 832 O 77.8612 -0.538458 -1.74376 0
M  V30 833 C 77.9122 -3.61375 -0.0950384 0
M  V30 834 O 77.6332 -4.22495 1.15887 0
M  V30 835 C 79.1342 -4.38693 -0.637434 0
M  V30 836 H 76.3542 -0.668479 0.0581075 0
M  V30 837 H 78.8982 -1.8798 0.805218 0
M  V30 838 H 77.0532 -3.79578 -0.774554 0
M  V30 839 H 77.4672 -5.15385 0.973598 0
M  V30 840 H 78.9412 -5.47464 -0.706237 0
M  V30 841 H 79.4182 -4.06836 -1.65472 0
M  V30 842 H 80.0242 -4.25299 0.00725967 0
M  V30 843 N 78.3393 -0.321999 -1.54275 0
M  V30 844 C 79.2893 0.560185 -2.21011 0
M  V30 845 C 80.2733 1.08283 -1.19011 0
M  V30 846 O 81.4653 1.02011 -1.44647 0
M  V30 847 C 78.5943 1.72137 -2.97025 0
M  V30 848 C 77.6803 1.21369 -4.06363 0
M  V30 849 N 78.0713 0.425566 -5.04007 0
M  V30 850 C 76.3693 1.49255 -4.20284 0
M  V30 851 C 77.0703 0.152601 -5.815 0
M  V30 852 N 76.0463 0.738294 -5.38563 0
M  V30 853 H 79.8483 -0.049265 -2.93859 0
M  V30 854 H 77.3623 -0.127779 -1.61897 0
M  V30 855 H 79.3593 2.36512 -3.43319 0
M  V30 856 H 78.0193 2.33431 -2.25699 0
M  V30 857 H 79.0303 0.068551 -5.17855 0
M  V30 858 H 75.7073 2.11145 -3.60172 0
M  V30 859 H 77.0973 -0.481764 -6.70171 0
M  V30 860 N 79.8174 1.5752 -0.0501392 0
M  V30 861 C 81.0654 1.9227 0.622642 0
M  V30 862 C 81.3864 0.929083 1.71444 0
M  V30 863 O 80.6564 -0.0262186 1.95882 0
M  V30 864 H 79.2364 0.709739 0.232981 0
M  V30 865 H 81.8984 1.94628 -0.102898 0
M  V30 866 H 80.9944 2.93479 1.06191 0
M  V30 867 N 81.2955 -0.223234 1.56011 0
M  V30 868 C 82.5435 -0.946003 1.78592 0
M  V30 869 C 82.8645 -1.84936 0.618349 0
M  V30 870 O 82.1345 -1.92473 -0.364833 0
M  V30 871 H 80.7145 -0.352298 0.658707 0
M  V30 872 H 83.3765 -0.235494 1.93472 0
M  V30 873 H 82.4725 -1.55381 2.70672 0
M  V30 874 N 82.7736 -1.49793 -0.48987 0
M  V30 875 C 84.1896 -1.36803 -0.822022 0
M  V30 876 C 84.3896 -0.409652 -1.97292 0
M  V30 877 O 83.4456 0.154614 -2.52026 0
M  V30 878 C 84.7586 -2.77768 -1.15175 0
M  V30 879 C 86.3066 -2.86549 -1.25931 0
M  V30 880 C 86.7816 -4.28306 -1.62228 0
M  V30 881 N 88.2726 -4.31169 -1.69256 0
M  V30 882 C 89.0076 -5.37832 -1.98807 0
M  V30 883 N 88.5036 -6.54726 -2.26507 0
M  V30 884 N 90.2966 -5.25258 -2.00152 0
M  V30 885 H 82.4476 -2.10691 0.268881 0
M  V30 886 H 84.7106 -0.946241 0.057728 0
M  V30 887 H 84.4166 -3.49648 -0.379335 0
M  V30 888 H 84.2906 -3.13836 -2.09253 0
M  V30 889 H 86.6776 -2.14899 -2.02243 0
M  V30 890 H 86.7586 -2.54049 -0.298776 0
M  V30 891 H 86.4026 -5.00486 -0.864622 0
M  V30 892 H 86.3326 -4.58279 -2.594 0
M  V30 893 H 88.8236 -3.4687 -1.49965 0
M  V30 894 H 89.1366 -7.31833 -2.48276 0
M  V30 895 H 87.4816 -6.57933 -2.23939 0
M  V30 896 H 90.6726 -4.32938 -1.77996 0
M  V30 897 H 90.8456 -6.08476 -2.22848 0
M  V30 898 N 84.2517 0.741722 -1.39055 0
M  V30 899 C 85.5007 1.49656 -1.35225 0
M  V30 900 C 85.8137 1.95533 0.0512708 0
M  V30 901 O 87.0197 2.7067 0.212138 0
M  V30 902 C 85.4757 2.70389 -2.37525 0
M  V30 903 C 85.0837 2.31489 -3.83558 0
M  V30 904 C 86.8277 3.48236 -2.42759 0
M  V30 905 C 84.7347 3.48903 -4.77515 0
M  V30 906 H 83.6647 0.56197 -0.502699 0
M  V30 907 H 86.3157 0.809727 -1.64668 0
M  V30 908 H 84.6977 3.41113 -2.01142 0
M  V30 909 H 85.8717 1.68354 -4.28945 0
M  V30 910 H 84.1867 1.66749 -3.81554 0
M  V30 911 H 86.7837 4.35558 -3.1015 0
M  V30 912 H 87.1267 3.90229 -1.45008 0
M  V30 913 H 87.6597 2.84535 -2.78002 0
M  V30 914 H 84.3987 3.11966 -5.76504 0
M  V30 915 H 83.9187 4.11041 -4.36813 0
M  V30 916 H 85.5977 4.15328 -4.96096 0
M  V30 917 N 85.7298 1.2412 0.971189 0
M  V30 918 C 87.0068 0.986867 1.6888 0
M  V30 919 C 87.3868 -0.491857 2.0529 0
M  V30 920 O 86.7348 -1.46531 1.75331 0
M  V30 921 C 86.9448 1.9063 2.92338 0
M  V30 922 C 88.2928 2.17515 3.64654 0
M  V30 923 O 89.3168 1.88254 3.02388 0
M  V30 924 O 88.1758 2.6719 4.7673 0
M  V30 925 H 85.2698 0.372944 0.738134 0
M  V30 926 H 87.8158 1.35203 1.02559 0
M  V30 927 H 86.5878 2.90552 2.62097 0
M  V30 928 H 86.2108 1.54408 3.66393 0
M  V30 929 N 87.2079 -1.17134 1.05439 0
M  V30 930 C 88.4379 -1.91094 0.785274 0
M  V30 931 C 88.8459 -1.77198 -0.663142 0
M  V30 932 O 88.1889 -1.10835 -1.46497 0
M  V30 933 C 88.2509 -3.42594 1.08949 0
M  V30 934 C 87.9149 -3.80274 2.53458 0
M  V30 935 C 88.9119 -3.82912 3.51673 0
M  V30 936 C 86.5969 -4.11162 2.88532 0
M  V30 937 C 88.5909 -4.15913 4.83006 0
M  V30 938 C 86.2779 -4.43831 4.20068 0
M  V30 939 C 87.2759 -4.46185 5.17115 0
M  V30 940 O 86.9639 -4.78083 6.46291 0
M  V30 941 H 86.6959 -0.613073 0.284811 0
M  V30 942 H 89.2499 -1.49461 1.40893 0
M  V30 943 H 87.4799 -3.84534 0.408741 0
M  V30 944 H 89.1689 -3.97817 0.805991 0
M  V30 945 H 89.9349 -3.5917 3.25917 0
M  V30 946 H 85.8139 -4.085 2.13656 0
M  V30 947 H 89.3579 -4.17665 5.5875 0
M  V30 948 H 85.2549 -4.67037 4.45586 0
M  V30 949 H 86.0229 -4.9593 6.51149 0
M  V30 950 N 88.686 -0.835752 -1.33615 0
M  V30 951 C 89.935 -0.426289 -1.97144 0
M  V30 952 C 90.248 1.01912 -1.66953 0
M  V30 953 O 91.454 1.53311 -2.24072 0
M  V30 954 C 89.91 -0.711321 -3.52801 0
M  V30 955 C 89.518 -2.1712 -3.91871 0
M  V30 956 C 91.262 -0.368654 -4.22896 0
M  V30 957 C 89.169 -2.40044 -5.40493 0
M  V30 958 H 88.099 -0.15567 -0.737755 0
M  V30 959 H 90.75 -1.0239 -1.52278 0
M  V30 960 H 89.132 -0.0433766 -3.95976 0
M  V30 961 H 90.306 -2.87936 -3.59763 0
M  V30 962 H 88.621 -2.47654 -3.34749 0
M  V30 963 H 91.218 -0.517601 -5.32189 0
M  V30 964 H 91.561 0.688078 -4.10574 0
M  V30 965 H 92.094 -0.991702 -3.8524 0
M  V30 966 H 88.833 -3.44271 -5.57815 0
M  V30 967 H 88.353 -1.73785 -5.74072 0
M  V30 968 H 90.032 -2.23042 -6.0734 0
M  V30 969 N 90.1641 1.46063 -0.591896 0
M  V30 970 C 91.1271 2.28854 0.125973 0
M  V30 971 C 92.1271 1.38903 0.810107 0
M  V30 972 O 93.3171 1.61186 0.66066 0
M  V30 973 C 90.4491 3.19526 1.1881 0
M  V30 974 H 91.6421 2.93802 -0.601717 0
M  V30 975 H 89.1951 1.52325 -0.350254 0
M  V30 976 H 89.9301 2.59345 1.94707 0
M  V30 977 H 89.7151 3.85766 0.701936 0
M  V30 978 H 91.2051 3.81817 1.69132 0
M  V30 979 N 91.6422 0.330177 1.54103 0
M  V30 980 C 92.8902 -0.269871 2.0029 0
M  V30 981 C 93.2112 -1.52133 1.21986 0
M  V30 982 O 92.4812 -1.93212 0.323438 0
M  V30 983 H 91.0612 -0.10271 0.739905 0
M  V30 984 H 93.7232 0.448249 1.89675 0
M  V30 985 H 92.8192 -0.52166 3.07709 0
M  V30 986 N 93.1203 -1.57491 0.0584922 0
M  V30 987 C 94.0503 -2.14988 -0.911178 0
M  V30 988 C 95.0313 -1.07343 -1.31952 0
M  V30 989 O 96.2163 -1.35318 -1.39294 0
M  V30 990 C 93.3463 -2.70078 -2.18347 0
M  V30 991 C 92.3003 -3.82771 -1.91495 0
M  V30 992 C 91.6263 -4.24408 -3.25241 0
M  V30 993 C 92.9263 -5.07592 -1.23075 0
M  V30 994 H 94.6203 -2.96263 -0.432246 0
M  V30 995 H 92.1663 -1.42512 -0.206469 0
M  V30 996 H 94.1193 -3.08943 -2.86587 0
M  V30 997 H 92.8433 -1.86005 -2.68458 0
M  V30 998 H 91.5023 -3.44389 -1.25664 0
M  V30 999 H 91.1503 -3.37275 -3.73168 0
M  V30 1000 H 90.8503 -5.00366 -3.08071 0
M  V30 1001 H 92.3743 -4.65879 -3.94701 0
M  V30 1002 H 93.7883 -5.43857 -1.81362 0
M  V30 1003 H 92.1853 -5.88741 -1.16207 0
M  V30 1004 H 93.2553 -4.84454 -0.207847 0
M  V30 1005 N 94.5984 0.214957 -1.56127 0
M  V30 1006 C 95.8754 0.963093 -1.70247 0
M  V30 1007 C 96.2554 2.02166 -0.60764 0
M  V30 1008 O 95.6034 2.25244 0.384385 0
M  V30 1009 C 95.8134 1.56756 -3.11815 0
M  V30 1010 C 97.1614 2.0573 -3.7143 0
M  V30 1011 O 98.1854 1.66637 -3.14818 0
M  V30 1012 O 97.0444 2.77603 -4.70743 0
M  V30 1013 H 94.1384 0.450321 -0.693643 0
M  V30 1014 H 96.6844 0.206219 -1.68442 0
M  V30 1015 H 95.4564 0.803533 -3.82961 0
M  V30 1016 H 95.0794 2.3898 -3.17765 0
M  V30 1017 N 96.0765 1.50051 0.48192 0
M  V30 1018 C 97.3015 1.64508 1.26301 0
M  V30 1019 C 97.7265 0.323851 1.85291 0
M  V30 1020 O 97.0845 -0.710969 1.66778 0
M  V30 1021 C 97.1325 2.7305 2.35533 0
M  V30 1022 O 96.2365 2.3355 3.39895 0
M  V30 1023 H 95.5775 0.549978 0.372048 0
M  V30 1024 H 98.1075 1.9636 0.574786 0
M  V30 1025 H 98.1175 2.95799 2.8101 0
M  V30 1026 H 96.7925 3.68946 1.91967 0
M  V30 1027 H 95.3695 2.21205 3.00204 0
M  V30 1028 N 97.5546 -0.734337 1.39446 0
M  V30 1029 C 98.9706 -1.03997 1.21065 0
M  V30 1030 C 99.1706 -2.01369 0.0727019 0
M  V30 1031 O 98.2266 -2.45856 -0.575426 0
M  V30 1032 C 99.5396 -1.60163 2.54496 0
M  V30 1033 C 101.088 -1.7224 2.61347 0
M  V30 1034 C 101.563 -2.31814 3.95002 0
M  V30 1035 N 103.054 -2.39223 3.96644 0
M  V30 1036 C 103.789 -2.86258 4.96834 0
M  V30 1037 N 103.285 -3.33184 6.07421 0
M  V30 1038 N 105.078 -2.85473 4.84213 0
M  V30 1039 H 97.2286 -0.0885624 2.12215 0
M  V30 1040 H 99.4916 -0.10191 0.942506 0
M  V30 1041 H 99.1976 -0.960811 3.38321 0
M  V30 1042 H 99.0716 -2.5896 2.74262 0
M  V30 1043 H 101.459 -2.35443 1.77906 0
M  V30 1044 H 101.54 -0.720939 2.4543 0
M  V30 1045 H 101.184 -1.69238 4.78875 0
M  V30 1046 H 101.114 -3.32638 4.08239 0
M  V30 1047 H 103.605 -2.06057 3.16779 0
M  V30 1048 H 103.918 -3.67586 6.7978 0
M  V30 1049 H 102.263 -3.31191 6.11013 0
M  V30 1050 H 105.454 -2.48136 3.96921 0
M  V30 1051 H 105.627 -3.21814 5.62441 0
M  V30 1052 N 99.0327 -1.24633 -0.964593 0
M  V30 1053 C 100.281 -1.08573 -1.70459 0
M  V30 1054 C 100.602 0.375655 -1.91347 0
M  V30 1055 O 99.8717 1.26779 -1.49345 0
M  V30 1056 H 98.4517 -0.398784 -0.631649 0
M  V30 1057 H 101.114 -1.56601 -1.16026 0
M  V30 1058 H 100.21 -1.58623 -2.68785 0
M  V30 1059 N 100.511 1.16574 -1.06058 0
M  V30 1060 C 101.758 1.87047 -0.775873 0
M  V30 1061 C 102.086 1.81562 0.697534 0
M  V30 1062 O 101.341 1.22445 1.52662 0
M  V30 1063 C 101.64 3.36195 -1.21275 0
M  V30 1064 C 101.306 3.6188 -2.68986 0
M  V30 1065 C 99.9678 3.68599 -3.09335 0
M  V30 1066 C 102.32 3.72648 -3.64394 0
M  V30 1067 C 99.6478 3.83584 -4.43937 0
M  V30 1068 C 102 3.89154 -4.98741 0
M  V30 1069 C 100.664 3.94114 -5.3873 0
M  V30 1070 H 99.9338 0.684452 -0.283912 0
M  V30 1071 H 102.581 1.37853 -1.32925 0
M  V30 1072 H 100.886 3.87505 -0.578528 0
M  V30 1073 H 102.583 3.89103 -0.969542 0
M  V30 1074 H 99.1728 3.57281 -2.36744 0
M  V30 1075 H 103.357 3.66769 -3.34356 0
M  V30 1076 H 98.6128 3.85677 -4.74409 0
M  V30 1077 H 102.787 3.96427 -5.72554 0
M  V30 1078 H 100.414 4.05478 -6.43033 0
M  V30 1079 N 101.989 0.842826 1.3317 0
M  V30 1080 C 102.919 0.294028 2.31641 0
M  V30 1081 C 103.9 -0.600401 1.59151 0
M  V30 1082 O 105.085 -0.523124 1.87022 0
M  V30 1083 C 102.215 -0.528416 3.43257 0
M  V30 1084 C 101.169 0.27056 4.27144 0
M  V30 1085 C 100.495 -0.675881 5.30411 0
M  V30 1086 C 101.795 1.48981 5.00602 0
M  V30 1087 H 103.489 1.11681 2.77791 0
M  V30 1088 H 101.035 0.538478 1.33553 0
M  V30 1089 H 102.988 -0.922674 4.11175 0
M  V30 1090 H 101.712 -1.38445 2.95805 0
M  V30 1091 H 100.371 0.646427 3.60856 0
M  V30 1092 H 100.019 -1.52842 4.79216 0
M  V30 1093 H 99.7189 -0.145374 5.8742 0
M  V30 1094 H 101.243 -1.06757 6.01195 0
M  V30 1095 H 102.657 1.16849 5.61266 0
M  V30 1096 H 101.054 1.95739 5.6728 0
M  V30 1097 H 102.124 2.25746 4.29147 0
M  V30 1098 N 103.467 -1.45747 0.599634 0
M  V30 1099 C 104.714 -2.02292 0.0917284 0
M  V30 1100 C 105.042 -1.46906 -1.27472 0
M  V30 1101 O 104.297 -0.630652 -1.8526 0
M  V30 1102 C 104.596 -3.57399 -0.00602758 0
M  V30 1103 C 104.262 -4.31902 1.29503 0
M  V30 1104 C 102.924 -4.51974 1.65144 0
M  V30 1105 C 105.276 -4.74551 2.15525 0
M  V30 1106 C 102.604 -5.11949 2.86574 0
M  V30 1107 C 104.956 -5.35868 3.36196 0
M  V30 1108 C 103.62 -5.54165 3.72099 0
M  V30 1109 H 102.89 -0.740239 0.0335658 0
M  V30 1110 H 105.537 -1.7491 0.779661 0
M  V30 1111 H 103.842 -3.84014 -0.777183 0
M  V30 1112 H 105.539 -3.98846 -0.415038 0
M  V30 1113 H 102.129 -4.16588 1.00761 0
M  V30 1114 H 106.313 -4.58784 1.8929 0
M  V30 1115 H 101.569 -5.24305 3.14507 0
M  V30 1116 H 105.743 -5.6787 4.03109 0
M  V30 1117 H 103.37 -6.00406 4.6628 0
M  V30 1118 N 104.945 -0.338344 -1.53925 0
M  V30 1119 C 106.193 0.259245 -2.0043 0
M  V30 1120 C 106.514 1.51484 -1.22791 0
M  V30 1121 O 105.784 1.93037 -0.33368 0
M  V30 1122 H 104.364 0.0987845 -0.740439 0
M  V30 1123 H 107.026 -0.458302 -1.89435 0
M  V30 1124 H 106.122 0.505334 -3.07982 0
M  V30 1125 N 106.423 1.57458 -0.0668435 0
M  V30 1126 C 107.834 1.80776 0.466558 0
M  V30 1127 C 108.185 0.980361 1.69951 0
M  V30 1128 O 107.31 0.201441 2.1546 0
M  V30 1129 C 107.905 3.27881 0.85321 0
M  V30 1130 C 106.464 3.52062 1.3315 0
M  V30 1131 C 105.611 2.75513 0.314264 0
M  V30 1132 H 108.562 1.5598 -0.292588 0
M  V30 1133 H 108.583 3.39659 1.715 0
M  V30 1134 H 108.095 3.88075 -0.0443439 0
M  V30 1135 H 106.196 2.97167 2.24772 0
M  V30 1136 H 106.309 4.60762 1.31285 0
M  V30 1137 H 104.673 2.42123 0.790492 0
M  V30 1138 H 105.456 3.38442 -0.575477 0
M  V30 1139 N 107.901 -0.206675 1.56239 0
M  V30 1140 C 109.126 -0.949474 1.8439 0
M  V30 1141 C 109.551 -1.76549 0.649016 0
M  V30 1142 O 108.909 -1.76782 -0.402231 0
M  V30 1143 C 108.957 -1.83078 3.10668 0
M  V30 1144 O 108.061 -2.9281 2.90407 0
M  V30 1145 H 107.402 -0.268033 0.607499 0
M  V30 1146 H 109.932 -0.215488 2.03462 0
M  V30 1147 H 109.942 -2.2377 3.41161 0
M  V30 1148 H 108.617 -1.23112 3.97261 0
M  V30 1149 H 107.194 -2.55956 2.71184 0
M  V30 1150 N 109.379 -1.50304 -0.473955 0
M  V30 1151 C 110.309 -1.71886 -1.58042 0
M  V30 1152 C 111.29 -0.567799 -1.60344 0
M  V30 1153 O 112.475 -0.806623 -1.76656 0
M  V30 1154 C 109.605 -1.81036 -2.96384 0
M  V30 1155 C 108.559 -2.962 -3.08949 0
M  V30 1156 C 107.885 -2.9049 -4.48909 0
M  V30 1157 C 109.185 -4.36752 -2.86434 0
M  V30 1158 H 110.879 -2.64527 -1.40234 0
M  V30 1159 H 108.425 -1.27295 -0.673201 0
M  V30 1160 H 110.378 -1.94719 -3.73714 0
M  V30 1161 H 109.102 -0.850147 -3.15341 0
M  V30 1162 H 107.761 -2.82164 -2.3405 0
M  V30 1163 H 107.409 -1.92321 -4.64781 0
M  V30 1164 H 107.109 -3.67802 -4.58253 0
M  V30 1165 H 108.633 -3.06218 -5.28264 0
M  V30 1166 H 110.047 -4.5133 -3.53517 0
M  V30 1167 H 108.444 -5.15493 -3.07225 0
M  V30 1168 H 109.514 -4.49321 -1.82316 0
M  V30 1169 N 110.857 0.726932 -1.39834 0
M  V30 1170 C 111.82 1.82269 -1.38962 0
M  V30 1171 C 112.82 1.58248 -0.285334 0
M  V30 1172 O 114.01 1.65499 -0.54366 0
M  V30 1173 C 111.142 3.20186 -1.17019 0
M  V30 1174 H 112.335 1.84443 -2.36476 0
M  V30 1175 H 109.888 0.931416 -1.25516 0
M  V30 1176 H 110.623 3.23669 -0.202204 0
M  V30 1177 H 110.408 3.3902 -1.96998 0
M  V30 1178 H 111.898 4.00235 -1.1917 0
M  V30 1179 N 112.336 1.25143 0.95797 0
M  V30 1180 C 113.268 1.01023 2.05735 0
M  V30 1181 C 114.281 -0.0236902 1.62783 0
M  V30 1182 O 115.47 0.21448 1.77207 0
M  V30 1183 C 112.57 0.504595 3.35122 0
M  V30 1184 C 111.743 1.6039 4.06932 0
M  V30 1185 C 110.802 1.09922 5.14591 0
M  V30 1186 O 109.828 1.79293 5.40225 0
M  V30 1187 N 111.03 -0.0612545 5.80468 0
M  V30 1188 H 113.795 1.95683 2.26998 0
M  V30 1189 H 111.356 1.16303 1.12629 0
M  V30 1190 H 113.348 0.151516 4.04416 0
M  V30 1191 H 111.918 -0.347989 3.10657 0
M  V30 1192 H 111.138 2.12872 3.31782 0
M  V30 1193 H 112.426 2.34252 4.51667 0
M  V30 1194 H 111.824 -0.640985 5.62057 0
M  V30 1195 H 110.381 -0.355395 6.5083 0
M  V30 1196 N 113.814 -1.1601 1.06675 0
M  V30 1197 C 114.724 -2.24156 0.692179 0
M  V30 1198 C 115.74 -1.71507 -0.293513 0
M  V30 1199 O 116.916 -2.009 -0.141861 0
M  V30 1200 C 113.981 -3.46587 0.0884131 0
M  V30 1201 C 113.042 -4.14257 1.12646 0
M  V30 1202 C 112.275 -5.30844 0.551416 0
M  V30 1203 O 112.498 -5.66858 -0.634656 0
M  V30 1204 O 111.432 -5.87848 1.29298 0
M  V30 1205 H 115.258 -2.58513 1.59388 0
M  V30 1206 H 112.843 -1.23599 0.83926 0
M  V30 1207 H 114.725 -4.20679 -0.246361 0
M  V30 1208 H 113.4 -3.13994 -0.786712 0
M  V30 1209 H 112.307 -3.42118 1.51348 0
M  V30 1210 H 113.64 -4.50914 1.97325 0
M  V30 1211 N 115.292 -0.849877 -1.32721 0
M  V30 1212 C 116.222 -0.306308 -2.31482 0
M  V30 1213 C 117.203 0.591952 -1.59468 0
M  V30 1214 O 118.388 0.513199 -1.87296 0
M  V30 1215 C 115.518 0.510204 -3.43532 0
M  V30 1216 C 114.472 -0.293209 -4.26994 0
M  V30 1217 C 113.798 0.647743 -5.30762 0
M  V30 1218 C 115.098 -1.51634 -4.99804 0
M  V30 1219 H 116.792 -1.13153 -2.77195 0
M  V30 1220 H 114.338 -0.545553 -1.33266 0
M  V30 1221 H 116.291 0.900856 -4.11658 0
M  V30 1222 H 115.015 1.36874 -2.96535 0
M  V30 1223 H 113.674 -0.665555 -3.60508 0
M  V30 1224 H 113.322 1.50299 -4.8002 0
M  V30 1225 H 113.022 0.11422 -5.87489 0
M  V30 1226 H 114.546 1.03567 -6.01753 0
M  V30 1227 H 115.96 -1.19824 -5.60638 0
M  V30 1228 H 114.357 -1.98745 -5.66234 0
M  V30 1229 H 115.427 -2.28018 -4.27943 0
M  V30 1230 N 116.77 1.45427 -0.607355 0
M  V30 1231 C 118.018 2.01841 -0.102253 0
M  V30 1232 C 118.339 1.47832 1.27164 0
M  V30 1233 O 117.609 0.672497 1.83995 0
M  V30 1234 H 116.189 0.746188 -0.0348101 0
M  V30 1235 H 118.851 1.78229 -0.7887 0
M  V30 1236 H 117.947 3.12057 -0.0518585 0
M  V30 1237 N 118.248 0.346503 1.53744 0
M  V30 1238 C 119.178 -0.501193 2.28058 0
M  V30 1239 C 120.159 -1.10014 1.29734 0
M  V30 1240 O 121.344 -1.12097 1.58581 0
M  V30 1241 C 118.474 -1.65078 3.05559 0
M  V30 1242 C 117.428 -1.18003 4.11411 0
M  V30 1243 C 116.754 -2.41837 4.76884 0
M  V30 1244 C 118.054 -0.278394 5.21558 0
M  V30 1245 H 119.748 0.11875 2.99164 0
M  V30 1246 H 117.294 0.0585531 1.43881 0
M  V30 1247 H 119.247 -2.25028 3.56287 0
M  V30 1248 H 117.971 -2.29767 2.32109 0
M  V30 1249 H 116.63 -0.603331 3.61601 0
M  V30 1250 H 116.278 -3.0494 4.00026 0
M  V30 1251 H 115.978 -2.1102 5.48402 0
M  V30 1252 H 117.502 -3.02508 5.30397 0
M  V30 1253 H 118.916 -0.784823 5.67903 0
M  V30 1254 H 117.313 -0.0619707 6.00068 0
M  V30 1255 H 118.383 0.684677 4.80042 0
M  V30 1256 N 119.726 -1.57421 0.075193 0
M  V30 1257 C 120.974 -1.93236 -0.591974 0
M  V30 1258 C 121.295 -0.956241 -1.69944 0
M  V30 1259 O 120.565 -0.00494792 -1.95899 0
M  V30 1260 H 119.145 -0.713355 -0.22166 0
M  V30 1261 H 121.807 -1.9444 0.133848 0
M  V30 1262 H 120.903 -2.95131 -1.01509 0
M  V30 1263 N 121.204 0.198386 -1.56346 0
M  V30 1264 C 122.444 0.92609 -1.82217 0
M  V30 1265 C 122.808 1.80584 -0.652195 0
M  V30 1266 O 124.009 2.56907 -0.790716 0
M  V30 1267 C 122.28 1.72354 -3.13096 0
M  V30 1268 S 123.839 2.50371 -3.6036 0
M  V30 1269 H 120.657 0.310677 -0.639532 0
M  V30 1270 H 123.259 0.189755 -1.94577 0
M  V30 1271 H 121.963 1.0678 -3.96265 0
M  V30 1272 H 121.494 2.50175 -3.03605 0
M  V30 1273 H 123.509 3.74488 -3.25535 0
M  V30 1274 N 122.682 1.50554 0.465978 0
M  V30 1275 C 123.928 1.62038 1.21949 0
M  V30 1276 C 124.261 0.322116 1.9151 0
M  V30 1277 O 123.536 -0.676723 1.82348 0
M  V30 1278 C 123.819 2.80421 2.25912 0
M  V30 1279 C 123.672 4.20144 1.60622 0
M  V30 1280 C 124.991 2.94354 3.27176 0
M  V30 1281 H 122.11 0.589752 0.441998 0
M  V30 1282 H 124.752 1.82956 0.51257 0
M  V30 1283 H 122.902 2.62717 2.86203 0
M  V30 1284 H 124.574 4.49449 1.03889 0
M  V30 1285 H 122.817 4.24165 0.909211 0
M  V30 1286 H 123.488 4.98914 2.36196 0
M  V30 1287 H 125.964 3.10578 2.76913 0
M  V30 1288 H 124.84 3.788 3.97242 0
M  V30 1289 H 125.101 2.05186 3.916 0
M  V30 1290 N 124.16 -0.719506 1.40217 0
M  V30 1291 C 125.09 -1.8465 1.42922 0
M  V30 1292 C 126.071 -1.67599 0.29062 0
M  V30 1293 O 127.256 -1.87688 0.498677 0
M  V30 1294 C 124.386 -3.22565 1.28722 0
M  V30 1295 C 123.34 -3.54281 2.40144 0
M  V30 1296 C 122.666 -4.91298 2.11023 0
M  V30 1297 C 123.966 -3.55676 3.82481 0
M  V30 1298 H 125.66 -1.82644 2.37237 0
M  V30 1299 H 123.206 -0.877305 1.1419 0
M  V30 1300 H 125.159 -4.01095 1.29232 0
M  V30 1301 H 123.883 -3.25137 0.308811 0
M  V30 1302 H 122.542 -2.78088 2.38877 0
M  V30 1303 H 122.19 -4.90468 1.11582 0
M  V30 1304 H 121.89 -5.13485 2.8567 0
M  V30 1305 H 123.414 -5.72166 2.13209 0
M  V30 1306 H 124.828 -4.24254 3.85592 0
M  V30 1307 H 123.225 -3.89388 4.56614 0
M  V30 1308 H 124.295 -2.55144 4.12346 0
M  V30 1309 N 125.638 -1.25649 -0.95132 0
M  V30 1310 C 126.887 -1.09988 -1.69073 0
M  V30 1311 C 127.2 0.358355 -1.92289 0
M  V30 1312 O 128.406 0.635466 -2.63958 0
M  V30 1313 C 126.862 -1.92012 -3.044 0
M  V30 1314 C 126.47 -3.42347 -2.88968 0
M  V30 1315 C 128.214 -1.8493 -3.82101 0
M  V30 1316 C 126.121 -4.16655 -4.19705 0
M  V30 1317 H 125.051 -0.407993 -0.63408 0
M  V30 1318 H 127.702 -1.49873 -1.05879 0
M  V30 1319 H 126.084 -1.44952 -3.68517 0
M  V30 1320 H 127.258 -3.97104 -2.33762 0
M  V30 1321 H 125.573 -3.50557 -2.24719 0
M  V30 1322 H 128.17 -2.37739 -4.78941 0
M  V30 1323 H 128.513 -0.817883 -4.08187 0
M  V30 1324 H 129.046 -2.29758 -3.2474 0
M  V30 1325 H 125.785 -5.20224 -3.98807 0
M  V30 1326 H 125.305 -3.66681 -4.74663 0
M  V30 1327 H 126.984 -4.24551 -4.88227 0
M  V30 1328 N 127.117 1.15442 -1.07289 0
M  V30 1329 C 128.533 1.38201 -0.798288 0
M  V30 1330 C 128.733 1.92429 0.597769 0
M  V30 1331 O 127.789 2.12962 1.3566 0
M  V30 1332 C 129.102 2.35357 -1.87156 0
M  V30 1333 C 130.65 2.49021 -1.89624 0
M  V30 1334 C 131.125 3.49468 -2.96034 0
M  V30 1335 N 132.616 3.57003 -2.95132 0
M  V30 1336 C 133.351 4.34543 -3.74112 0
M  V30 1337 N 132.847 5.15421 -4.6294 0
M  V30 1338 N 134.64 4.29625 -3.62462 0
M  V30 1339 H 126.791 0.78584 -1.97328 0
M  V30 1340 H 129.054 0.408065 -0.855679 0
M  V30 1341 H 128.76 2.02626 -2.87464 0
M  V30 1342 H 128.634 3.35129 -1.73114 0
M  V30 1343 H 131.021 2.81051 -0.899687 0
M  V30 1344 H 131.102 1.4925 -2.07745 0
M  V30 1345 H 130.746 3.18173 -3.95889 0
M  V30 1346 H 130.676 4.48992 -2.75161 0
M  V30 1347 H 133.167 2.99276 -2.30743 0
M  V30 1348 H 133.48 5.7183 -5.19837 0
M  V30 1349 H 131.825 5.14729 -4.66989 0
M  V30 1350 H 135.016 3.65505 -2.92444 0
M  V30 1351 H 135.189 4.89807 -4.24256 0
M  V30 1352 N 128.595 0.856903 1.32268 0
M  V30 1353 C 129.542 0.301172 2.28827 0
M  V30 1354 C 130.512 -0.593104 1.5515 0
M  V30 1355 O 131.697 -0.527537 1.83362 0
M  V30 1356 C 128.837 -0.502523 3.41422 0
M  V30 1357 C 127.95 0.417797 4.29975 0
M  V30 1358 C 127.085 -0.398749 5.29701 0
M  V30 1359 C 126.124 0.518827 6.09897 0
M  V30 1360 N 125.261 -0.260674 7.01616 0
M  V30 1361 H 130.101 1.12983 2.75751 0
M  V30 1362 H 127.638 0.568582 1.35667 0
M  V30 1363 H 129.596 -0.984141 4.05426 0
M  V30 1364 H 128.226 -1.29599 2.95642 0
M  V30 1365 H 127.278 1.01781 3.66531 0
M  V30 1366 H 128.59 1.12191 4.86019 0
M  V30 1367 H 127.744 -0.943435 5.9932 0
M  V30 1368 H 126.483 -1.13622 4.7428 0
M  V30 1369 H 125.488 1.07538 5.39181 0
M  V30 1370 H 126.713 1.25495 6.67404 0
M  V30 1371 H 124.659 -0.981198 6.4862 0
M  V30 1372 H 124.576 0.384364 7.55022 0
M  V30 1373 H 125.844 -0.787014 7.75517 0
M  V30 1374 N 130.073 -1.45103 0.615059 0
M  V30 1375 C 131.489 -1.57137 0.279322 0
M  V30 1376 C 131.689 -1.60523 -1.21797 0
M  V30 1377 O 130.745 -1.53956 -2.00134 0
M  V30 1378 C 132.058 -2.85062 0.957083 0
M  V30 1379 C 133.606 -2.98749 0.933706 0
M  V30 1380 C 134.081 -4.29455 1.59162 0
M  V30 1381 N 135.572 -4.36231 1.55746 0
M  V30 1382 C 136.307 -5.36051 2.0356 0
M  V30 1383 N 135.803 -6.42367 2.59494 0
M  V30 1384 N 137.596 -5.27456 1.94284 0
M  V30 1385 H 129.747 -1.41148 1.58717 0
M  V30 1386 H 132.01 -0.675331 0.665306 0
M  V30 1387 H 131.716 -2.88488 2.01166 0
M  V30 1388 H 131.59 -3.7407 0.48494 0
M  V30 1389 H 133.977 -2.94886 -0.112347 0
M  V30 1390 H 134.058 -2.11132 1.44419 0
M  V30 1391 H 133.702 -4.34077 2.63704 0
M  V30 1392 H 133.632 -5.15901 1.0561 0
M  V30 1393 H 136.123 -3.60011 1.14893 0
M  V30 1394 H 136.436 -7.14793 2.93752 0
M  V30 1395 H 134.781 -6.43097 2.63537 0
M  V30 1396 H 137.972 -4.43308 1.5032 0
M  V30 1397 H 138.145 -6.05099 2.3186 0
M  V30 1398 N 131.551 -0.354651 -1.53558 0
M  V30 1399 C 132.799 0.237972 -2.00694 0
M  V30 1400 C 133.12 1.50173 -1.24391 0
M  V30 1401 O 132.39 1.92673 -0.354135 0
M  V30 1402 H 130.97 0.0909256 -0.741446 0
M  V30 1403 H 133.632 -0.478368 -1.88938 0
M  V30 1404 H 132.728 0.47264 -3.085 0
M  V30 1405 N 133.029 1.57378 -0.0835403 0
M  V30 1406 C 133.976 2.13384 0.879539 0
M  V30 1407 C 134.946 1.04936 1.28754 0
M  V30 1408 O 136.131 1.32662 1.37133 0
M  V30 1409 C 133.271 2.70932 2.13752 0
M  V30 1410 C 132.384 3.93575 1.7811 0
M  V30 1411 C 131.519 4.39326 2.98607 0
M  V30 1412 C 130.558 5.54587 2.59037 0
M  V30 1413 N 129.695 5.95243 3.72331 0
M  V30 1414 H 134.535 2.9537 0.395076 0
M  V30 1415 H 132.072 1.45953 0.183349 0
M  V30 1416 H 134.03 3.02411 2.87408 0
M  V30 1417 H 132.66 1.91693 2.59718 0
M  V30 1418 H 131.712 3.68483 0.94469 0
M  V30 1419 H 133.024 4.77258 1.45005 0
M  V30 1420 H 132.178 4.72528 3.80529 0
M  V30 1421 H 130.917 3.5452 3.34913 0
M  V30 1422 H 129.922 5.21024 1.75539 0
M  V30 1423 H 131.147 6.41133 2.23887 0
M  V30 1424 H 129.093 5.13385 4.08378 0
M  V30 1425 H 129.01 6.73694 3.43034 0
M  V30 1426 H 130.278 6.33072 4.54797 0
M  V30 1427 N 134.507 -0.190092 1.56449 0
M  V30 1428 C 135.437 -1.23816 1.97969 0
M  V30 1429 C 136.418 -1.47201 0.852395 0
M  V30 1430 O 137.603 -1.58854 1.1171 0
M  V30 1431 C 134.733 -2.5813 2.3235 0
M  V30 1432 C 133.687 -2.49348 3.47864 0
M  V30 1433 C 133.013 -3.8798 3.67934 0
M  V30 1434 C 134.313 -2.01424 4.81898 0
M  V30 1435 H 136.007 -0.89311 2.85769 0
M  V30 1436 H 133.553 -0.428177 1.37487 0
M  V30 1437 H 135.506 -3.31637 2.59991 0
M  V30 1438 H 134.23 -2.94386 1.41438 0
M  V30 1439 H 132.889 -1.78297 3.20321 0
M  V30 1440 H 132.537 -4.21597 2.74344 0
M  V30 1441 H 132.237 -3.82978 4.45648 0
M  V30 1442 H 133.761 -4.63101 3.97957 0
M  V30 1443 H 135.175 -2.64693 5.08538 0
M  V30 1444 H 133.572 -2.07413 5.63116 0
M  V30 1445 H 134.642 -0.967677 4.75146 0
M  V30 1446 N 135.985 -1.50799 -0.457987 0
M  V30 1447 C 137.396 -1.55152 -1.0385 0
M  V30 1448 C 137.747 -0.362719 -1.92818 0
M  V30 1449 O 136.872 0.522915 -2.09987 0
M  V30 1450 C 137.467 -2.81173 -1.89017 0
M  V30 1451 C 136.026 -2.88164 -2.42154 0
M  V30 1452 C 135.173 -2.49591 -1.20829 0
M  V30 1453 H 138.124 -1.56874 -0.240068 0
M  V30 1454 H 138.145 -2.63769 -2.74238 0
M  V30 1455 H 137.657 -3.67677 -1.24238 0
M  V30 1456 H 135.758 -2.06042 -3.10447 0
M  V30 1457 H 135.871 -3.91356 -2.76364 0
M  V30 1458 H 134.235 -2.02322 -1.54719 0
M  V30 1459 H 135.018 -3.38418 -0.576927 0
M  V30 1460 N 137.463 0.71206 -1.40597 0
M  V30 1461 C 138.711 1.46907 -1.38791 0
M  V30 1462 C 139.032 1.94998 0.00780391 0
M  V30 1463 O 138.302 1.70587 0.963174 0
M  V30 1464 H 136.882 0.545043 -0.51082 0
M  V30 1465 H 139.544 0.843882 -1.75683 0
M  V30 1466 H 138.64 2.34021 -2.06496 0
M  V30 1467 N 138.941 1.26152 0.944643 0
M  V30 1468 C 140.352 1.10454 1.50522 0
M  V30 1469 C 140.703 -0.31635 1.93633 0
M  V30 1470 O 139.828 -1.20746 1.79581 0
M  V30 1471 C 140.423 1.99891 2.73549 0
M  V30 1472 C 138.982 1.88348 3.25886 0
M  V30 1473 C 138.129 1.93447 1.9868 0
M  V30 1474 H 141.08 1.39292 0.760489 0
M  V30 1475 H 141.101 1.54477 3.47732 0
M  V30 1476 H 140.613 3.03297 2.42141 0
M  V30 1477 H 138.714 0.878636 3.62092 0
M  V30 1478 H 138.827 2.73696 3.93227 0
M  V30 1479 H 137.191 1.37456 2.14425 0
M  V30 1480 H 137.974 2.98476 1.69607 0
M  V30 1481 N 140.419 -1.14872 1.07899 0
M  V30 1482 C 141.647 -1.89661 0.82683 0
M  V30 1483 C 142.062 -1.78312 -0.620519 0
M  V30 1484 O 141.419 -1.13888 -1.42604 0
M  V30 1485 C 141.47 -3.39817 1.23316 0
M  V30 1486 O 141.191 -3.50845 2.62372 0
M  V30 1487 C 142.692 -4.31615 1.0111 0
M  V30 1488 H 139.912 -0.60092 0.298557 0
M  V30 1489 H 142.456 -1.4551 1.43691 0
M  V30 1490 H 140.611 -3.8161 0.667286 0
M  V30 1491 H 141.025 -4.44076 2.79101 0
M  V30 1492 H 142.499 -5.35367 1.34486 0
M  V30 1493 H 142.976 -4.39169 -0.0522168 0
M  V30 1494 H 143.582 -3.95572 1.56215 0
M  V30 1495 N 141.898 -0.863906 -1.31812 0
M  V30 1496 C 142.828 -0.330843 -2.31144 0
M  V30 1497 C 143.809 0.575005 -1.60087 0
M  V30 1498 O 144.994 0.493304 -1.8783 0
M  V30 1499 C 142.124 0.47374 -3.44054 0
M  V30 1500 C 141.078 -0.338481 -4.26659 0
M  V30 1501 C 140.404 0.591412 -5.31419 0
M  V30 1502 C 141.704 -1.56926 -4.98168 0
M  V30 1503 H 143.398 -1.16086 -2.75979 0
M  V30 1504 H 140.944 -0.559657 -1.32679 0
M  V30 1505 H 142.897 0.857143 -4.12591 0
M  V30 1506 H 141.621 1.33721 -2.9797 0
M  V30 1507 H 140.28 -0.703754 -3.59782 0
M  V30 1508 H 139.928 1.45199 -4.81587 0
M  V30 1509 H 139.628 0.0519022 -5.87577 0
M  V30 1510 H 141.152 0.97179 -6.02817 0
M  V30 1511 H 142.566 -1.25764 -5.59336 0
M  V30 1512 H 140.963 -2.04739 -5.64094 0
M  V30 1513 H 142.033 -2.32544 -4.25501 0
M  V30 1514 N 143.376 1.44774 -0.622745 0
M  V30 1515 C 144.622 2.02968 -0.13257 0
M  V30 1516 C 144.977 1.48047 1.22881 0
M  V30 1517 O 144.27 0.651625 1.80179 0
M  V30 1518 C 144.464 3.57364 -0.0508323 0
M  V30 1519 C 144.293 4.27262 -1.40275 0
M  V30 1520 C 143.063 4.64577 -1.98737 0
M  V30 1521 C 145.261 4.58248 -2.3348 0
M  V30 1522 N 143.243 5.19404 -3.27251 0
M  V30 1523 C 144.614 5.14069 -3.46603 0
M  V30 1524 C 146.669 4.40195 -2.32664 0
M  V30 1525 C 145.372 5.53738 -4.59093 0
M  V30 1526 C 147.398 4.80907 -3.44213 0
M  V30 1527 C 146.76 5.36834 -4.56058 0
M  V30 1528 H 142.859 0.776541 -0.0922354 0
M  V30 1529 H 145.443 1.76385 -0.82441 0
M  V30 1530 H 143.614 3.83576 0.610265 0
M  V30 1531 H 145.346 4.02219 0.447397 0
M  V30 1532 H 142.101 4.48622 -1.51774 0
M  V30 1533 H 142.525 5.51301 -3.92933 0
M  V30 1534 H 147.167 3.96257 -1.47446 0
M  V30 1535 H 144.885 5.96635 -5.45025 0
M  V30 1536 H 148.471 4.68659 -3.44747 0
M  V30 1537 H 147.351 5.67755 -5.40947 0
M  V30 1538 N 144.854 0.36279 1.53368 0
M  V30 1539 C 145.817 -0.472679 2.24273 0
M  V30 1540 C 146.817 -1.012 1.24961 0
M  V30 1541 O 148.007 -0.898194 1.49259 0
M  V30 1542 C 145.139 -1.66039 2.97731 0
M  V30 1543 H 146.332 0.14773 2.99536 0
M  V30 1544 H 143.885 0.114434 1.55881 0
M  V30 1545 H 144.62 -2.31896 2.26704 0
M  V30 1546 H 144.405 -1.28066 3.70596 0
M  V30 1547 H 145.895 -2.25252 3.51641 0
M  V30 1548 N 146.332 -1.57332 0.0918853 0
M  V30 1549 C 147.557 -1.98995 -0.584442 0
M  V30 1550 C 147.982 -0.970528 -1.61128 0
M  V30 1551 O 147.34 0.0613904 -1.81196 0
M  V30 1552 C 147.388 -3.39636 -1.21161 0
M  V30 1553 O 146.492 -3.40447 -2.32744 0
M  V30 1554 H 145.833 -0.647165 -0.148572 0
M  V30 1555 H 148.363 -2.03873 0.172347 0
M  V30 1556 H 148.373 -3.7726 -1.55367 0
M  V30 1557 H 147.048 -4.13356 -0.459313 0
M  V30 1558 H 145.625 -3.14614 -2.0018 0
M  V30 1559 N 147.81 0.181792 -1.56548 0
M  V30 1560 C 149.04 0.914618 -1.85252 0
M  V30 1561 C 149.448 1.76791 -0.673914 0
M  V30 1562 O 148.791 1.80009 0.366416 0
M  V30 1563 C 148.853 1.85019 -3.08234 0
M  V30 1564 C 148.517 1.17754 -4.41569 0
M  V30 1565 C 149.514 0.548035 -5.17003 0
M  V30 1566 C 147.199 1.17742 -4.88305 0
M  V30 1567 C 149.193 -0.0726128 -6.37359 0
M  V30 1568 C 146.88 0.552946 -6.08593 0
M  V30 1569 C 147.878 -0.070978 -6.82963 0
M  V30 1570 O 147.566 -0.685635 -8.00971 0
M  V30 1571 H 147.298 0.271695 -0.618998 0
M  V30 1572 H 149.852 0.189944 -2.0452 0
M  V30 1573 H 148.082 2.61491 -2.84885 0
M  V30 1574 H 149.771 2.45195 -3.23472 0
M  V30 1575 H 150.537 0.540174 -4.81982 0
M  V30 1576 H 146.416 1.65246 -4.30366 0
M  V30 1577 H 149.96 -0.560213 -6.95347 0
M  V30 1578 H 145.857 0.558354 -6.43081 0
M  V30 1579 H 146.625 -0.58385 -8.16415 0
M  V30 1580 N 149.288 1.51039 0.449983 0
M  V30 1581 C 150.513 1.6715 1.22783 0
M  V30 1582 C 150.938 0.363081 1.84563 0
M  V30 1583 O 150.296 -0.675433 1.68249 0
M  V30 1584 C 150.344 2.77985 2.29689 0
M  V30 1585 O 149.448 2.40707 3.34864 0
M  V30 1586 H 148.789 0.557746 0.360299 0
M  V30 1587 H 151.319 1.97535 0.533005 0
M  V30 1588 H 151.329 3.01693 2.74673 0
M  V30 1589 H 150.004 3.72935 1.84098 0
M  V30 1590 H 148.581 2.27523 2.95445 0
M  V30 1591 N 150.766 -0.704594 1.40972 0
M  V30 1592 C 151.696 -1.83124 1.44872 0
M  V30 1593 C 152.677 -1.67281 0.30838 0
M  V30 1594 O 153.862 -1.87149 0.518556 0
M  V30 1595 C 150.992 -3.21181 1.32136 0
M  V30 1596 C 149.946 -3.51714 2.43888 0
M  V30 1597 C 149.272 -4.89032 2.16222 0
M  V30 1598 C 150.572 -3.516 3.86232 0
M  V30 1599 H 152.266 -1.80117 2.39161 0
M  V30 1600 H 149.812 -0.865145 1.15114 0
M  V30 1601 H 151.765 -3.99702 1.33479 0
M  V30 1602 H 150.489 -3.24791 0.343279 0
M  V30 1603 H 149.148 -2.75539 2.41813 0
M  V30 1604 H 148.796 -4.89256 1.16778 0
M  V30 1605 H 148.496 -5.10426 2.911 0
M  V30 1606 H 150.02 -5.69873 2.19265 0
M  V30 1607 H 151.434 -4.2014 3.9007 0
M  V30 1608 H 149.831 -3.84523 4.60719 0
M  V30 1609 H 150.901 -2.50757 4.15029 0
M  V30 1610 N 152.244 -1.26651 -0.937939 0
M  V30 1611 C 153.154 -1.10276 -2.07066 0
M  V30 1612 C 154.17 -0.0354197 -1.73964 0
M  V30 1613 O 155.346 -0.239816 -1.99967 0
M  V30 1614 C 152.411 -0.740887 -3.38691 0
M  V30 1615 C 151.472 -1.88799 -3.85556 0
M  V30 1616 C 150.705 -1.54329 -5.10899 0
M  V30 1617 O 150.928 -0.446494 -5.6865 0
M  V30 1618 O 149.862 -2.37911 -5.52885 0
M  V30 1619 H 153.688 -2.05309 -2.23789 0
M  V30 1620 H 151.273 -1.05743 -1.0554 0
M  V30 1621 H 153.155 -0.55195 -4.1777 0
M  V30 1622 H 151.83 0.180022 -3.23199 0
M  V30 1623 H 150.737 -2.13191 -3.07409 0
M  V30 1624 H 152.07 -2.78874 -4.05574 0
M  V30 1625 N 153.722 1.14298 -1.08507 0
M  V30 1626 C 154.952 1.88945 -0.835663 0
M  V30 1627 C 155.36 1.78894 0.615928 0
M  V30 1628 O 154.703 1.1468 1.43506 0
M  V30 1629 C 154.765 3.39585 -1.17994 0
M  V30 1630 C 154.429 3.7342 -2.63451 0
M  V30 1631 C 155.426 3.73454 -3.61702 0
M  V30 1632 C 153.111 4.03368 -2.99332 0
M  V30 1633 C 155.105 4.02961 -4.93864 0
M  V30 1634 C 152.792 4.32538 -4.31687 0
M  V30 1635 C 153.79 4.32318 -5.28763 0
M  V30 1636 O 153.478 4.6078 -6.58739 0
M  V30 1637 H 153.21 0.605307 -0.300965 0
M  V30 1638 H 155.764 1.45673 -1.44806 0
M  V30 1639 H 153.994 3.83315 -0.51055 0
M  V30 1640 H 155.683 3.9554 -0.911182 0
M  V30 1641 H 156.449 3.50403 -3.35325 0
M  V30 1642 H 152.328 4.02692 -2.24411 0
M  V30 1643 H 155.872 4.02704 -5.69627 0
M  V30 1644 H 151.769 4.55059 -4.57812 0
M  V30 1645 H 152.537 4.78492 -6.64069 0
M  V30 1646 N 155.201 0.870884 1.31352 0
M  V30 1647 C 156.449 0.48132 1.96285 0
M  V30 1648 C 156.77 -0.969813 1.69173 0
M  V30 1649 O 156.04 -1.67998 1.00764 0
M  V30 1650 H 154.62 0.175002 0.726212 0
M  V30 1651 H 157.282 1.11087 1.60143 0
M  V30 1652 H 156.378 0.639825 3.05471 0
M  V30 1653 N 156.679 -1.44442 0.630414 0
M  V30 1654 C 157.626 -2.30678 -0.0749355 0
M  V30 1655 C 158.596 -1.4344 -0.837502 0
M  V30 1656 O 159.781 -1.72343 -0.818684 0
M  V30 1657 C 156.921 -3.28706 -1.05103 0
M  V30 1658 C 156.034 -4.31046 -0.286954 0
M  V30 1659 C 155.169 -5.16167 -1.2548 0
M  V30 1660 C 154.208 -6.10216 -0.479843 0
M  V30 1661 N 153.345 -6.88039 -1.39811 0
M  V30 1662 H 158.185 -2.90454 0.666386 0
M  V30 1663 H 155.722 -1.43107 0.340404 0
M  V30 1664 H 157.68 -3.84027 -1.63031 0
M  V30 1665 H 156.31 -2.70632 -1.75949 0
M  V30 1666 H 155.362 -3.78203 0.408243 0
M  V30 1667 H 156.674 -4.97794 0.316657 0
M  V30 1668 H 155.828 -5.76002 -1.90544 0
M  V30 1669 H 154.567 -4.49491 -1.89233 0
M  V30 1670 H 153.572 -5.49491 0.184295 0
M  V30 1671 H 154.797 -6.78928 0.152965 0
M  V30 1672 H 152.743 -6.24032 -2.02287 0
M  V30 1673 H 152.66 -7.51223 -0.848508 0
M  V30 1674 H 153.928 -7.52397 -2.03762 0
M  V30 1675 N 158.157 -0.370918 -1.53173 0
M  V30 1676 C 159.12 0.460778 -2.24521 0
M  V30 1677 C 160.12 1.00536 -1.25496 0
M  V30 1678 O 161.31 0.890266 -1.49733 0
M  V30 1679 C 158.442 1.64457 -2.98608 0
M  V30 1680 H 159.635 -0.163613 -2.99453 0
M  V30 1681 H 157.188 -0.122699 -1.55818 0
M  V30 1682 H 157.923 2.30691 -2.2793 0
M  V30 1683 H 157.708 1.26099 -3.7127 0
M  V30 1684 H 159.198 2.23384 -3.5283 0
M  V30 1685 N 159.635 1.57281 -0.100228 0
M  V30 1686 C 160.545 2.17833 0.870965 0
M  V30 1687 C 161.561 1.14921 1.30649 0
M  V30 1688 O 162.737 1.47313 1.37335 0
M  V30 1689 C 159.802 2.75085 2.1102 0
M  V30 1690 C 158.863 3.9297 1.72838 0
M  V30 1691 C 158.096 4.47482 2.90854 0
M  V30 1692 O 158.319 4.00922 4.05731 0
M  V30 1693 O 157.253 5.38433 2.69023 0
M  V30 1694 H 161.079 3.0124 0.38575 0
M  V30 1695 H 158.664 1.48881 0.124397 0
M  V30 1696 H 160.546 3.11656 2.83634 0
M  V30 1697 H 159.221 1.94721 2.58584 0
M  V30 1698 H 158.128 3.61201 0.973883 0
M  V30 1699 H 159.461 4.74713 1.30033 0
M  V30 1700 N 161.113 -0.173488 1.56642 0
M  V30 1701 C 162.043 -1.2171 1.99271 0
M  V30 1702 C 163.024 -1.46289 0.867959 0
M  V30 1703 O 164.209 -1.5766 1.13388 0
M  V30 1704 C 161.339 -2.55651 2.35074 0
M  V30 1705 C 160.293 -2.45645 3.50489 0
M  V30 1706 C 159.619 -3.84056 3.72028 0
M  V30 1707 C 160.919 -1.96302 4.84007 0
M  V30 1708 H 162.613 -0.86275 2.867 0
M  V30 1709 H 160.159 -0.413571 1.37933 0
M  V30 1710 H 162.112 -3.2886 2.63494 0
M  V30 1711 H 160.836 -2.92869 1.44552 0
M  V30 1712 H 159.495 -1.7489 3.22194 0
M  V30 1713 H 159.143 -4.18664 2.788 0
M  V30 1714 H 158.843 -3.7823 4.49684 0
M  V30 1715 H 160.367 -4.58854 4.02846 0
M  V30 1716 H 161.781 -2.59284 5.11317 0
M  V30 1717 H 160.178 -2.01429 5.65284 0
M  V30 1718 H 161.248 -0.917226 4.76146 0
M  V30 1719 N 162.591 -1.51276 -0.441967 0
M  V30 1720 C 163.501 -1.75092 -1.56141 0
M  V30 1721 C 164.517 -0.634963 -1.62001 0
M  V30 1722 O 165.693 -0.916686 -1.79329 0
M  V30 1723 C 162.758 -1.86666 -2.92158 0
M  V30 1724 C 161.819 -3.10506 -2.96453 0
M  V30 1725 C 161.052 -3.21519 -4.25982 0
M  V30 1726 O 161.275 -2.38586 -5.18105 0
M  V30 1727 O 160.209 -4.14465 -4.36466 0
M  V30 1728 H 164.035 -2.70044 -1.38961 0
M  V30 1729 H 161.62 -1.35722 -0.624499 0
M  V30 1730 H 163.502 -1.96292 -3.72891 0
M  V30 1731 H 162.177 -0.949014 -3.09476 0
M  V30 1732 H 161.084 -3.06363 -2.14692 0
M  V30 1733 H 162.417 -4.01945 -2.84079 0
M  V30 1734 N 164.069 0.697108 -1.41344 0
M  V30 1735 C 165.318 1.45279 -1.39918 0
M  V30 1736 C 165.631 1.95597 -0.0109624 0
M  V30 1737 O 166.837 2.71208 0.125919 0
M  V30 1738 C 165.293 2.62695 -2.46007 0
M  V30 1739 C 164.901 2.19169 -3.90729 0
M  V30 1740 C 166.645 3.40336 -2.53715 0
M  V30 1741 C 164.552 3.33535 -4.88373 0
M  V30 1742 H 163.482 0.545692 -0.520323 0
M  V30 1743 H 166.133 0.756929 -1.67161 0
M  V30 1744 H 164.515 3.34541 -2.11892 0
M  V30 1745 H 165.689 1.54623 -4.34083 0
M  V30 1746 H 164.004 1.54525 -3.86666 0
M  V30 1747 H 166.601 4.2547 -3.2385 0
M  V30 1748 H 166.944 3.85418 -1.5735 0
M  V30 1749 H 167.477 2.75546 -2.86913 0
M  V30 1750 H 164.216 2.93468 -5.86137 0
M  V30 1751 H 163.736 3.96936 -4.49668 0
M  V30 1752 H 165.415 3.99335 -5.09059 0
M  V30 1753 N 165.547 1.27147 0.931209 0
M  V30 1754 C 166.479 1.05364 2.03546 0
M  V30 1755 C 167.492 0.0108438 1.62796 0
M  V30 1756 O 168.681 0.25202 1.76712 0
M  V30 1757 C 165.781 0.575566 3.33977 0
M  V30 1758 C 164.954 1.68985 4.03439 0
M  V30 1759 C 164.013 1.20813 5.12143 0
M  V30 1760 O 163.039 1.90712 5.363 0
M  V30 1761 N 164.241 0.0618851 5.80467 0
M  V30 1762 H 167.006 2.00454 2.22796 0
M  V30 1763 H 164.567 1.18666 1.10136 0
M  V30 1764 H 166.559 0.237264 4.04004 0
M  V30 1765 H 165.129 -0.282016 3.11325 0
M  V30 1766 H 164.349 2.19861 3.27192 0
M  V30 1767 H 165.637 2.4378 4.46597 0
M  V30 1768 H 165.035 -0.521621 5.6329 0
M  V30 1769 H 163.592 -0.217264 6.51438 0
M  V30 1770 N 167.025 -1.13721 1.09112 0
M  V30 1771 C 167.972 -2.19031 0.727591 0
M  V30 1772 C 168.942 -1.63555 -0.289656 0
M  V30 1773 O 170.127 -1.90023 -0.172026 0
M  V30 1774 C 167.267 -3.4477 0.15082 0
M  V30 1775 C 166.38 -4.14365 1.22172 0
M  V30 1776 C 165.515 -5.27709 0.608042 0
M  V30 1777 C 164.554 -5.89147 1.66047 0
M  V30 1778 N 163.691 -6.93929 1.06806 0
M  V30 1779 H 168.531 -2.49475 1.62991 0
M  V30 1780 H 166.068 -1.22499 0.81439 0
M  V30 1781 H 168.026 -4.16714 -0.201358 0
M  V30 1782 H 166.656 -3.14787 -0.714783 0
M  V30 1783 H 165.708 -3.40737 1.69122 0
M  V30 1784 H 167.02 -4.56114 2.01895 0
M  V30 1785 H 166.174 -6.06355 0.204523 0
M  V30 1786 H 164.913 -4.872 -0.220769 0
M  V30 1787 H 163.918 -5.09198 2.07357 0
M  V30 1788 H 165.143 -6.31729 2.49189 0
M  V30 1789 H 163.089 -6.55483 0.260476 0
M  V30 1790 H 163.006 -7.34202 1.8023 0
M  V30 1791 H 164.274 -7.76434 0.690644 0
M  V30 1792 N 168.503 -0.877838 -1.30888 0
M  V30 1793 C 169.78 -0.413052 -1.91189 0
M  V30 1794 C 170.16 1.1056 -1.79832 0
M  V30 1795 O 169.508 1.93771 -1.21099 0
M  V30 1796 C 169.718 -0.903191 -3.3711 0
M  V30 1797 C 171.066 -0.93395 -4.14201 0
M  V30 1798 O 172.09 -0.849373 -3.45925 0
M  V30 1799 O 170.949 -1.05772 -5.36167 0
M  V30 1800 H 168.043 -0.125035 -0.817493 0
M  V30 1801 H 170.589 -0.966269 -1.39504 0
M  V30 1802 H 169.361 -1.94692 -3.39427 0
M  V30 1803 H 168.984 -0.328732 -3.96239 0
M  V30 1804 N 169.982 1.44106 -0.638065 0
M  V30 1805 C 170.945 2.29138 0.0531013 0
M  V30 1806 C 171.945 1.41409 0.765506 0
M  V30 1807 O 173.135 1.63206 0.609046 0
M  V30 1808 C 170.267 3.23144 1.08584 0
M  V30 1809 H 171.46 2.91739 -0.694883 0
M  V30 1810 H 169.013 1.51134 -0.398538 0
M  V30 1811 H 169.748 2.65408 1.86357 0
M  V30 1812 H 169.533 3.87804 0.578852 0
M  V30 1813 H 171.023 3.87004 1.56899 0
M  V30 1814 N 171.46 0.379036 1.52974 0
M  V30 1815 C 172.39 -0.452706 2.29069 0
M  V30 1816 C 173.371 -1.07237 1.32039 0
M  V30 1817 O 174.556 -1.08708 1.60923 0
M  V30 1818 C 171.686 -1.5856 3.08992 0
M  V30 1819 C 170.64 -1.0925 4.13822 0
M  V30 1820 C 169.966 -2.31668 4.81907 0
M  V30 1821 C 171.266 -0.167702 5.22031 0
M  V30 1822 H 172.96 0.182181 2.98845 0
M  V30 1823 H 170.506 0.0890592 1.43724 0
M  V30 1824 H 172.459 -2.1742 3.6098 0
M  V30 1825 H 171.183 -2.24792 2.36931 0
M  V30 1826 H 169.842 -0.526494 3.628 0
M  V30 1827 H 169.49 -2.96386 4.06404 0
M  V30 1828 H 169.19 -1.9934 5.52754 0
M  V30 1829 H 170.714 -2.91189 5.36695 0
M  V30 1830 H 172.128 -0.664186 5.6944 0
M  V30 1831 H 170.525 0.0653265 6.00064 0
M  V30 1832 H 171.595 0.786347 4.78482 0
M  V30 1833 N 172.938 -1.57226 0.108567 0
M  V30 1834 C 173.848 -2.18292 -0.859401 0
M  V30 1835 C 174.864 -1.15612 -1.30038 0
M  V30 1836 O 176.04 -1.48039 -1.36552 0
M  V30 1837 C 173.105 -2.762 -2.09558 0
M  V30 1838 C 172.166 -3.93881 -1.70752 0
M  V30 1839 C 171.399 -4.49018 -2.88477 0
M  V30 1840 O 171.622 -4.03068 -4.036 0
M  V30 1841 O 170.556 -5.39852 -2.66164 0
M  V30 1842 H 174.382 -3.01441 -0.369769 0
M  V30 1843 H 171.967 -1.48945 -0.1165 0
M  V30 1844 H 173.849 -3.13156 -2.81978 0
M  V30 1845 H 172.524 -1.96089 -2.57548 0
M  V30 1846 H 171.431 -3.61713 -0.954714 0
M  V30 1847 H 172.764 -4.75396 -1.27513 0
M  V30 1848 N 174.416 0.165178 -1.56732 0
M  V30 1849 C 175.827 0.727046 -1.71962 0
M  V30 1850 C 176.178 1.82508 -0.720078 0
M  V30 1851 O 175.303 2.16082 0.117242 0
M  V30 1852 C 175.898 1.32559 -3.11791 0
M  V30 1853 C 174.457 1.83422 -3.28684 0
M  V30 1854 C 173.604 0.715567 -2.67908 0
M  V30 1855 H 176.555 -0.0602896 -1.58585 0
M  V30 1856 H 176.576 2.19533 -3.10782 0
M  V30 1857 H 176.088 0.526195 -3.84516 0
M  V30 1858 H 174.189 2.65986 -2.60926 0
M  V30 1859 H 174.302 1.97543 -4.36478 0
M  V30 1860 H 172.666 1.13758 -2.27884 0
M  V30 1861 H 173.449 -0.0720836 -3.43224 0
M  V30 1862 N 175.894 1.51508 0.433938 0
M  V30 1863 C 177.142 1.6402 1.18075 0
M  V30 1864 C 177.463 0.360328 1.91642 0
M  V30 1865 O 176.733 -0.623945 1.85698 0
M  V30 1866 H 175.313 0.6045 0.43885 0
M  V30 1867 H 177.975 1.88452 0.497178 0
M  V30 1868 H 177.071 2.46949 1.90847 0
M  V30 1869 N 177.372 -0.689602 1.41712 0
M  V30 1870 C 178.304 -1.815 1.39966 0
M  V30 1871 C 179.317 -1.59995 0.300917 0
M  V30 1872 O 180.506 -1.69387 0.563039 0
M  V30 1873 C 177.606 -3.18364 1.16179 0
M  V30 1874 C 176.779 -3.66847 2.38206 0
M  V30 1875 C 175.838 -4.82398 2.10186 0
M  V30 1876 O 174.864 -4.93706 2.83272 0
M  V30 1877 N 176.066 -5.70064 1.0958 0
M  V30 1878 H 178.831 -1.83488 2.36965 0
M  V30 1879 H 176.392 -0.872149 1.36401 0
M  V30 1880 H 178.384 -3.93301 0.953756 0
M  V30 1881 H 176.954 -3.11365 0.27756 0
M  V30 1882 H 176.174 -2.82751 2.74673 0
M  V30 1883 H 177.462 -3.95978 3.19498 0
M  V30 1884 H 176.86 -5.63565 0.491019 0
M  V30 1885 H 175.417 -6.44874 0.947656 0
M  V30 1886 N 178.85 -1.27639 -0.924453 0
M  V30 1887 C 180.266 -1.05113 -1.20097 0
M  V30 1888 C 180.466 0.213262 -2.00368 0
M  V30 1889 O 179.522 0.91787 -2.35226 0
M  V30 1890 C 180.835 -2.29244 -1.94596 0
M  V30 1891 C 182.383 -2.34315 -2.07522 0
M  V30 1892 C 182.858 -3.58183 -2.85427 0
M  V30 1893 N 184.349 -3.5876 -2.92994 0
M  V30 1894 C 185.084 -4.51277 -3.53746 0
M  V30 1895 N 184.58 -5.54102 -4.15863 0
M  V30 1896 N 186.373 -4.38894 -3.51181 0
M  V30 1897 H 178.524 -2.08821 -0.388264 0
M  V30 1898 H 180.787 -0.918568 -0.234385 0
M  V30 1899 H 180.493 -3.21301 -1.43034 0
M  V30 1900 H 180.367 -2.34816 -2.95197 0
M  V30 1901 H 182.754 -1.42762 -2.58269 0
M  V30 1902 H 182.835 -2.32744 -1.06131 0
M  V30 1903 H 182.479 -4.50074 -2.35363 0
M  V30 1904 H 182.409 -3.57006 -3.8711 0
M  V30 1905 H 184.9 -2.84398 -2.4885 0
M  V30 1906 H 185.213 -6.20859 -4.60168 0
M  V30 1907 H 183.558 -5.57941 -4.144 0
M  V30 1908 H 186.749 -3.57772 -3.01856 0
M  V30 1909 H 186.922 -5.11186 -3.98237 0
M  V30 1910 N 180.328 1.1314 -1.09713 0
M  V30 1911 C 181.574 1.84757 -0.836224 0
M  V30 1912 C 181.907 1.8347 0.636598 0
M  V30 1913 O 181.182 1.27491 1.46889 0
M  V30 1914 C 181.465 3.32782 -1.37578 0
M  V30 1915 C 181.318 3.42567 -2.91493 0
M  V30 1916 C 182.637 4.28307 -1.01198 0
M  V30 1917 H 179.756 0.67082 -0.305236 0
M  V30 1918 H 182.398 1.3278 -1.35903 0
M  V30 1919 H 180.548 3.77177 -0.931097 0
M  V30 1920 H 182.22 3.06862 -3.44432 0
M  V30 1921 H 180.463 2.83349 -3.28475 0
M  V30 1922 H 181.134 4.46674 -3.24324 0
M  V30 1923 H 183.61 3.91999 -1.39556 0
M  V30 1924 H 182.486 5.30307 -1.41653 0
M  V30 1925 H 182.747 4.42029 0.0794833 0
M  V30 1926 N 181.806 0.884767 1.30421 0
M  V30 1927 C 183.052 0.503851 1.96441 0
M  V30 1928 C 183.385 -0.944518 1.69684 0
M  V30 1929 O 182.66 -1.66737 1.00145 0
M  V30 1930 C 182.943 0.779085 3.51571 0
M  V30 1931 C 182.796 2.27807 3.87846 0
M  V30 1932 C 184.115 0.255452 4.39358 0
M  V30 1933 H 181.234 0.184533 0.713524 0
M  V30 1934 H 183.876 1.10872 1.54297 0
M  V30 1935 H 182.026 0.264274 3.876 0
M  V30 1936 H 183.698 2.86127 3.61841 0
M  V30 1937 H 181.941 2.74479 3.35922 0
M  V30 1938 H 182.612 2.42125 4.96064 0
M  V30 1939 H 185.088 0.696079 4.10236 0
M  V30 1940 H 183.964 0.477361 5.4682 0
M  V30 1941 H 184.225 -0.843293 4.33983 0
M  V30 1942 N 183.284 -1.43765 0.645699 0
M  V30 1943 C 184.53 -2.02197 0.156271 0
M  V30 1944 C 184.863 -1.50776 -1.22393 0
M  V30 1945 O 184.138 -0.697771 -1.81553 0
M  V30 1946 C 184.421 -3.59749 0.158872 0
M  V30 1947 C 184.274 -4.21419 1.57245 0
M  V30 1948 C 185.593 -4.37149 -0.50879 0
M  V30 1949 H 182.712 -0.734694 0.0582602 0
M  V30 1950 H 185.354 -1.71157 0.824951 0
M  V30 1951 H 183.504 -3.86325 -0.410525 0
M  V30 1952 H 185.176 -4.059 2.19186 0
M  V30 1953 H 183.419 -3.78356 2.122 0
M  V30 1954 H 184.09 -5.30482 1.52619 0
M  V30 1955 H 186.566 -4.16093 -0.024412 0
M  V30 1956 H 185.442 -5.4683 -0.476213 0
M  V30 1957 H 185.703 -4.12839 -1.58165 0
M  V30 1958 N 184.763 -0.387143 -1.52771 0
M  V30 1959 C 186.009 0.196025 -2.0185 0
M  V30 1960 C 186.342 1.46641 -1.27319 0
M  V30 1961 O 185.617 1.90889 -0.373032 0
M  V30 1962 C 185.9 0.466136 -3.5707 0
M  V30 1963 C 185.753 -0.819385 -4.42274 0
M  V30 1964 C 187.072 1.25768 -4.21747 0
M  V30 1965 H 184.191 0.0697708 -0.73369 0
M  V30 1966 H 186.833 -0.516286 -1.82851 0
M  V30 1967 H 184.983 1.07293 -3.7339 0
M  V30 1968 H 186.655 -1.4563 -4.37709 0
M  V30 1969 H 184.898 -1.43517 -4.09372 0
M  V30 1970 H 185.569 -0.585065 -5.48891 0
M  V30 1971 H 188.045 0.744167 -4.09391 0
M  V30 1972 H 186.921 1.41541 -5.30337 0
M  V30 1973 H 187.182 2.27228 -3.79236 0
M  V30 1974 N 186.241 1.57166 -0.116904 0
M  V30 1975 C 187.518 1.86645 0.585049 0
M  V30 1976 C 187.898 1.0177 1.84949 0
M  V30 1977 O 187.246 0.0960379 2.28298 0
M  V30 1978 C 187.456 3.37736 0.879507 0
M  V30 1979 C 188.804 4.06289 1.23348 0
M  V30 1980 O 189.828 3.42743 0.969836 0
M  V30 1981 O 188.687 5.18455 1.7282 0
M  V30 1982 H 185.781 0.772593 0.295007 0
M  V30 1983 H 188.327 1.69025 -0.151249 0
M  V30 1984 H 187.099 3.91296 -0.0166136 0
M  V30 1985 H 186.722 3.6078 1.67103 0
M  V30 1986 N 187.719 -0.156864 1.56817 0
M  V30 1987 C 188.996 -0.899244 1.73704 0
M  V30 1988 C 189.376 -1.99771 0.682254 0
M  V30 1989 O 188.724 -2.26515 -0.300522 0
M  V30 1990 C 188.934 -1.45075 3.17418 0
M  V30 1991 C 190.282 -1.91802 3.7881 0
M  V30 1992 O 191.306 -1.54838 3.20786 0
M  V30 1993 O 190.165 -2.5994 4.80722 0
M  V30 1994 H 187.259 -0.424267 0.709878 0
M  V30 1995 H 189.805 -0.143561 1.69092 0
M  V30 1996 H 188.577 -0.660846 3.85679 0
M  V30 1997 H 188.2 -2.27021 3.26416 0
M  V30 1998 N 189.197 -1.51736 -0.425897 0
M  V30 1999 C 190.127 -1.76827 -1.52494 0
M  V30 2000 C 191.108 -0.618524 -1.58456 0
M  V30 2001 O 192.293 -0.862416 -1.74 0
M  V30 2002 C 189.423 -1.90374 -2.90474 0
M  V30 2003 C 188.377 -3.0588 -2.99369 0
M  V30 2004 C 187.703 -3.04625 -4.3944 0
M  V30 2005 C 189.003 -4.45644 -2.72394 0
M  V30 2006 H 190.697 -2.68855 -1.31748 0
M  V30 2007 H 188.243 -1.29372 -0.632362 0
M  V30 2008 H 190.196 -2.0651 -3.6733 0
M  V30 2009 H 188.92 -0.95004 -3.12477 0
M  V30 2010 H 187.579 -2.89467 -2.24954 0
M  V30 2011 H 187.227 -2.0701 -4.58428 0
M  V30 2012 H 186.927 -3.82195 -4.46319 0
M  V30 2013 H 188.451 -3.22869 -5.18255 0
M  V30 2014 H 189.865 -4.62348 -3.38979 0
M  V30 2015 H 188.262 -5.25006 -2.9067 0
M  V30 2016 H 189.332 -4.54893 -1.67929 0
M  V30 2017 N 190.675 0.682077 -1.42076 0
M  V30 2018 C 191.605 1.80796 -1.47767 0
M  V30 2019 C 192.586 1.6677 -0.334954 0
M  V30 2020 O 193.771 1.863 -0.548264 0
M  V30 2021 C 190.901 3.19038 -1.37229 0
M  V30 2022 C 189.855 3.47789 -2.49453 0
M  V30 2023 C 189.181 4.8553 -2.23975 0
M  V30 2024 C 190.481 3.45411 -3.91776 0
M  V30 2025 H 192.175 1.7629 -2.41997 0
M  V30 2026 H 189.721 0.846721 -1.16476 0
M  V30 2027 H 191.674 3.97528 -1.39821 0
M  V30 2028 H 190.398 3.24204 -0.394907 0
M  V30 2029 H 189.057 2.71657 -2.46166 0
M  V30 2030 H 188.705 4.87337 -1.24547 0
M  V30 2031 H 188.405 5.0573 -2.99184 0
M  V30 2032 H 189.929 5.66312 -2.28304 0
M  V30 2033 H 191.343 4.13882 -3.96705 0
M  V30 2034 H 189.74 3.77145 -4.66778 0
M  V30 2035 H 190.81 2.44122 -4.18966 0
M  V30 2036 N 192.153 1.28127 0.917671 0
M  V30 2037 C 193.116 1.11744 2.00115 0
M  V30 2038 C 194.116 0.0583052 1.60694 0
M  V30 2039 O 195.306 0.303755 1.71531 0
M  V30 2040 C 192.438 0.704862 3.33533 0
M  V30 2041 H 193.631 2.07966 2.16079 0
M  V30 2042 H 191.184 1.11058 1.09981 0
M  V30 2043 H 191.919 -0.258299 3.2327 0
M  V30 2044 H 191.704 1.4699 3.63505 0
M  V30 2045 H 193.194 0.612768 4.1308 0
M  V30 2046 N 193.631 -1.12557 1.10312 0
M  V30 2047 C 194.859 -1.87864 0.866873 0
M  V30 2048 C 195.274 -1.79588 -0.582557 0
M  V30 2049 O 194.631 -1.16887 -1.40156 0
M  V30 2050 C 194.682 -3.37125 1.30496 0
M  V30 2051 O 194.403 -3.45201 2.69755 0
M  V30 2052 C 195.904 -4.29373 1.10243 0
M  V30 2053 H 193.124 -0.594452 0.311236 0
M  V30 2054 H 195.668 -1.42429 1.46745 0
M  V30 2055 H 193.823 -3.80109 0.748081 0
M  V30 2056 H 194.237 -4.38056 2.88457 0
M  V30 2057 H 195.711 -5.32394 1.45811 0
M  V30 2058 H 196.188 -4.39181 0.0409492 0
M  V30 2059 H 196.794 -3.92169 1.64571 0
M  V30 2060 N 195.109 -0.891671 -1.2995 0
M  V30 2061 C 196.357 -0.512486 -1.95494 0
M  V30 2062 C 196.678 0.942776 -1.70695 0
M  V30 2063 O 195.948 1.66374 -1.03424 0
M  V30 2064 H 194.528 -0.186533 -0.723336 0
M  V30 2065 H 197.19 -1.13621 -1.58355 0
M  V30 2066 H 196.286 -0.688342 -3.04415 0
M  V30 2067 N 196.587 1.43421 -0.653314 0
M  V30 2068 C 197.835 2.01414 -0.166415 0
M  V30 2069 C 198.156 1.51803 1.22397 0
M  V30 2070 O 197.426 0.730693 1.81763 0
M  V30 2071 H 196.006 0.744703 -0.0585319 0
M  V30 2072 H 198.668 1.75629 -0.845003 0
M  V30 2073 H 197.764 3.11734 -0.151111 0
M  V30 2074 N 198.065 0.39524 1.52563 0
M  V30 2075 C 199.293 -0.184943 2.06072 0
M  V30 2076 C 199.708 -1.40021 1.26647 0
M  V30 2077 O 199.065 -1.79767 0.314672 0
M  V30 2078 C 199.116 -0.549179 3.57304 0
M  V30 2079 O 198.837 0.617813 4.33722 0
M  V30 2080 C 200.338 -1.18459 4.2718 0
M  V30 2081 H 197.558 -0.0265025 0.670476 0
M  V30 2082 H 200.102 0.562184 1.96621 0
M  V30 2083 H 198.257 -1.2462 3.66809 0
M  V30 2084 H 198.671 0.317091 5.23541 0
M  V30 2085 H 200.145 -1.38976 5.34219 0
M  V30 2086 H 200.622 -2.15368 3.82771 0
M  V30 2087 H 201.228 -0.528163 4.22008 0
M  V30 2088 N 199.544 -1.57102 0.125237 0
M  V30 2089 C 200.477 -2.11371 -0.860094 0
M  V30 2090 C 201.455 -1.03168 -1.25679 0
M  V30 2091 O 202.639 -1.30862 -1.35674 0
M  V30 2092 C 199.766 -2.61555 -2.1519 0
M  V30 2093 C 198.812 -3.81701 -1.9028 0
M  V30 2094 S 199.645 -5.23797 -1.11343 0
M  V30 2095 C 200.801 -5.77353 -2.41689 0
M  V30 2096 H 201.034 -2.94617 -0.39852 0
M  V30 2097 H 198.567 -1.54145 -0.0886555 0
M  V30 2098 H 200.525 -2.91122 -2.89411 0
M  V30 2099 H 199.186 -1.78479 -2.58465 0
M  V30 2100 H 198.379 -4.14985 -2.86014 0
M  V30 2101 H 197.981 -3.52783 -1.24178 0
M  V30 2102 H 200.273 -5.87458 -3.37489 0
M  V30 2103 H 201.216 -6.75323 -2.12942 0
M  V30 2104 H 201.624 -5.05457 -2.51342 0
M  V30 2105 N 201.022 0.148545 -1.56898 0
M  V30 2106 C 201.97 1.20265 -1.99096 0
M  V30 2107 C 202.964 1.44559 -0.883123 0
M  V30 2108 O 204.17 1.4487 -1.0683 0
M  V30 2109 H 200.545 0.404786 -0.63376 0
M  V30 2110 H 202.516 0.82004 -2.86911 0
M  V30 2111 C 201.265 2.52886 -2.3863 0
M  V30 2112 H 200.588 2.35021 -3.23427 0
M  V30 2113 H 202.028 3.25274 -2.7198 0
M  V30 2114 C 200.487 3.13315 -1.23837 0
M  V30 2115 O 201.017 3.98077 -0.538268 0
M  V30 2116 N 199.223 2.72742 -1.00301 0
M  V30 2117 H 198.77 2.03912 -1.5741 0
M  V30 2118 H 198.728 3.13507 -0.236838 0
M  V30 2119 N 202.5 1.5196 0.417844 0
M  V30 2120 C 203.463 1.74065 1.49111 0
M  V30 2121 C 204.463 0.610537 1.48758 0
M  V30 2122 O 205.653 0.87832 1.50437 0
M  V30 2123 C 202.785 1.81502 2.88565 0
M  V30 2124 H 203.978 2.69869 1.30807 0
M  V30 2125 H 201.531 1.42244 0.647785 0
M  V30 2126 H 202.266 0.875813 3.1225 0
M  V30 2127 H 202.051 2.63651 2.90225 0
M  V30 2128 H 203.541 2.00376 3.66387 0
M  V30 2129 N 203.978 -0.674533 1.42435 0
M  V30 2130 C 204.941 -1.76986 1.45632 0
M  V30 2131 C 205.941 -1.5708 0.343871 0
M  V30 2132 O 207.131 -1.63367 0.604709 0
M  V30 2133 C 204.263 -3.15623 1.28822 0
M  V30 2134 H 205.456 -1.75539 2.43158 0
M  V30 2135 H 203.009 -0.884189 1.28887 0
M  V30 2136 H 203.744 -3.22696 0.322193 0
M  V30 2137 H 203.529 -3.31475 2.09444 0
M  V30 2138 H 205.019 -3.95537 1.33942 0
M  V30 2139 N 205.456 -1.28612 -0.910864 0
M  V30 2140 C 206.696 -1.1719 -1.67469 0
M  V30 2141 C 207.06 0.274441 -1.90028 0
M  V30 2142 O 208.261 0.511425 -2.6389 0
M  V30 2143 C 206.532 -1.95137 -2.99427 0
M  V30 2144 S 208.091 -2.00122 -3.90508 0
M  V30 2145 H 204.909 -0.41806 -0.575106 0
M  V30 2146 H 207.511 -1.6275 -1.08317 0
M  V30 2147 H 206.215 -2.99381 -2.80712 0
M  V30 2148 H 205.746 -1.50137 -3.63624 0
M  V30 2149 H 207.761 -1.10981 -4.8363 0
M  V30 2150 N 206.934 1.1197 -1.10907 0
M  V30 2151 C 207.844 2.21433 -0.774896 0
M  V30 2152 C 208.86 1.72478 0.229657 0
M  V30 2153 O 210.036 2.01288 0.0672008 0
M  V30 2154 C 207.101 3.4602 -0.216986 0
M  V30 2155 C 206.162 4.09791 -1.27944 0
M  V30 2156 C 205.395 5.28431 -0.748055 0
M  V30 2157 O 205.618 5.68823 0.423833 0
M  V30 2158 O 204.552 5.82644 -1.51027 0
M  V30 2159 H 208.378 2.5242 -1.68873 0
M  V30 2160 H 205.963 1.20399 -0.884555 0
M  V30 2161 H 207.845 4.21304 0.090059 0
M  V30 2162 H 206.52 3.16698 0.669633 0
M  V30 2163 H 205.427 3.36265 -1.63941 0
M  V30 2164 H 206.76 4.4328 -2.13925 0
M  V30 2165 N 208.412 0.89855 1.29475 0
M  V30 2166 C 209.342 0.39201 2.30186 0
M  V30 2167 C 210.323 -0.532359 1.61555 0
M  V30 2168 O 211.508 -0.443331 1.89072 0
M  V30 2169 C 208.638 -0.382353 3.45189 0
M  V30 2170 C 207.592 0.451483 4.25612 0
M  V30 2171 C 206.918 -0.450307 5.328 0
M  V30 2172 C 208.218 1.70079 4.93832 0
M  V30 2173 H 209.912 1.23362 2.72804 0
M  V30 2174 H 207.458 0.594638 1.31149 0
M  V30 2175 H 209.411 -0.747451 4.14718 0
M  V30 2176 H 208.135 -1.25774 3.01411 0
M  V30 2177 H 206.794 0.798897 3.57789 0
M  V30 2178 H 206.442 -1.32379 4.85268 0
M  V30 2179 H 206.142 0.103902 5.87508 0
M  V30 2180 H 207.666 -0.811623 6.05182 0
M  V30 2181 H 209.08 1.40549 5.55805 0
M  V30 2182 H 207.477 2.19623 5.58467 0
M  V30 2183 H 208.547 2.43744 4.19186 0
M  V30 2184 N 209.89 -1.43072 0.660911 0
M  V30 2185 C 210.82 -2.33497 -0.0122829 0
M  V30 2186 C 211.801 -1.49903 -0.803925 0
M  V30 2187 O 212.986 -1.78546 -0.763864 0
M  V30 2188 C 210.116 -3.33363 -0.973994 0
M  V30 2189 C 209.07 -4.27003 -0.291928 0
M  V30 2190 C 208.396 -5.16967 -1.36562 0
M  V30 2191 C 209.696 -5.15816 0.820462 0
M  V30 2192 H 211.39 -2.90038 0.742873 0
M  V30 2193 H 208.936 -1.39461 0.358688 0
M  V30 2194 H 210.889 -3.95524 -1.45392 0
M  V30 2195 H 209.613 -2.75095 -1.7604 0
M  V30 2196 H 208.272 -3.66217 0.167623 0
M  V30 2197 H 207.92 -4.55034 -2.14366 0
M  V30 2198 H 207.62 -5.80441 -0.914454 0
M  V30 2199 H 209.144 -5.82003 -1.84675 0
M  V30 2200 H 210.558 -5.71742 0.422366 0
M  V30 2201 H 208.955 -5.8805 1.19656 0
M  V30 2202 H 210.025 -4.55045 1.67518 0
M  V30 2203 N 211.368 -0.403325 -1.52352 0
M  V30 2204 C 212.616 0.174003 -2.0135 0
M  V30 2205 C 212.937 1.46139 -1.29106 0
M  V30 2206 O 212.207 1.91448 -0.415253 0
M  V30 2207 H 210.787 0.0672911 -0.743963 0
M  V30 2208 H 213.449 -0.538235 -1.87321 0
M  V30 2209 H 212.545 0.374254 -3.09848 0
M  V30 2210 N 212.846 1.57033 -0.133567 0
M  V30 2211 C 214.262 1.58035 0.222944 0
M  V30 2212 C 214.462 1.14713 1.6566 0
M  V30 2213 O 213.518 0.841218 2.38075 0
M  V30 2214 C 214.831 3.00691 -0.0236116 0
M  V30 2215 C 216.379 3.12973 0.0411512 0
M  V30 2216 C 216.854 4.57654 -0.177899 0
M  V30 2217 N 218.345 4.63033 -0.124365 0
M  V30 2218 C 219.08 5.72771 -0.268553 0
M  V30 2219 N 218.576 6.91206 -0.46972 0
M  V30 2220 N 220.369 5.61718 -0.2071 0
M  V30 2221 H 212.52 1.8349 -1.06981 0
M  V30 2222 H 214.783 0.848677 -0.422436 0
M  V30 2223 H 214.489 3.36726 -1.0153 0
M  V30 2224 H 214.363 3.70614 0.701808 0
M  V30 2225 H 216.75 2.76787 1.02338 0
M  V30 2226 H 216.831 2.45564 -0.716383 0
M  V30 2227 H 216.475 4.94542 -1.15717 0
M  V30 2228 H 216.405 5.23173 0.599797 0
M  V30 2229 H 218.896 3.7789 0.027011 0
M  V30 2230 H 219.209 7.70693 -0.570212 0
M  V30 2231 H 217.554 6.93156 -0.505876 0
M  V30 2232 H 220.745 4.68072 -0.0507986 0
M  V30 2233 H 220.918 6.47195 -0.322909 0
M  V30 2234 N 214.325 -0.140222 1.56975 0
M  V30 2235 C 215.255 -1.17456 2.01808 0
M  V30 2236 C 216.236 -1.44415 0.898794 0
M  V30 2237 O 217.421 -1.5522 1.16707 0
M  V30 2238 C 214.551 -2.50607 2.40444 0
M  V30 2239 C 213.505 -2.38155 3.55621 0
M  V30 2240 C 212.831 -3.76078 3.80091 0
M  V30 2241 C 214.131 -1.85991 4.88062 0
M  V30 2242 H 215.825 -0.801743 2.88466 0
M  V30 2243 H 213.371 -0.38422 1.38779 0
M  V30 2244 H 215.324 -3.23197 2.7041 0
M  V30 2245 H 214.048 -2.89737 1.50732 0
M  V30 2246 H 212.707 -1.68016 3.25832 0
M  V30 2247 H 212.355 -4.12656 2.87618 0
M  V30 2248 H 212.055 -3.68606 4.57606 0
M  V30 2249 H 213.579 -4.50206 4.12488 0
M  V30 2250 H 214.993 -2.4838 5.16701 0
M  V30 2251 H 213.39 -1.89393 5.6943 0
M  V30 2252 H 214.46 -0.816023 4.77984 0
M  V30 2253 N 215.803 -1.52179 -0.40978 0
M  V30 2254 C 216.735 -1.71703 -1.51825 0
M  V30 2255 C 217.748 -0.597445 -1.51441 0
M  V30 2256 O 218.937 -0.872582 -1.55719 0
M  V30 2257 C 216.037 -1.74171 -2.90719 0
M  V30 2258 C 215.21 -3.03156 -3.15302 0
M  V30 2259 C 214.269 -2.97445 -4.34065 0
M  V30 2260 O 213.295 -3.71352 -4.31377 0
M  V30 2261 N 214.497 -2.15191 -5.39141 0
M  V30 2262 H 217.262 -2.67334 -1.35472 0
M  V30 2263 H 214.823 -1.50409 -0.599069 0
M  V30 2264 H 216.815 -1.67884 -3.68235 0
M  V30 2265 H 215.385 -0.860166 -3.00533 0
M  V30 2266 H 214.605 -3.23097 -2.25836 0
M  V30 2267 H 215.893 -3.88484 -3.28569 0
M  V30 2268 H 215.291 -1.54573 -5.44173 0
M  V30 2269 H 213.848 -2.1476 -6.15403 0
M  V30 2270 N 217.281 0.66697 -1.42791 0
M  V30 2271 C 218.244 1.76211 -1.46568 0
M  V30 2272 C 219.244 1.56896 -0.352196 0
M  V30 2273 O 220.434 1.63044 -0.613364 0
M  V30 2274 C 217.566 3.14935 -1.30494 0
M  V30 2275 H 218.759 1.74247 -2.44086 0
M  V30 2276 H 216.312 0.877342 -1.29354 0
M  V30 2277 H 217.047 3.2252 -0.339301 0
M  V30 2278 H 216.832 3.30359 -2.11199 0
M  V30 2279 H 218.322 3.94821 -1.36038 0
M  V30 2280 N 218.759 1.29093 0.90403 0
M  V30 2281 C 219.669 1.15727 2.0407 0
M  V30 2282 C 220.685 0.0815308 1.73809 0
M  V30 2283 O 221.861 0.292749 1.99261 0
M  V30 2284 C 218.926 0.830424 3.36608 0
M  V30 2285 C 217.987 1.98955 3.80415 0
M  V30 2286 C 217.22 1.6782 5.06628 0
M  V30 2287 O 217.443 0.597105 5.67266 0
M  V30 2288 O 216.377 2.52486 5.46383 0
M  V30 2289 H 220.203 2.11171 2.18267 0
M  V30 2290 H 217.788 1.08504 1.027 0
M  V30 2291 H 219.67 0.662521 4.16159 0
M  V30 2292 H 218.345 -0.0942678 3.23563 0
M  V30 2293 H 217.252 2.21267 3.01648 0
M  V30 2294 H 218.585 2.89529 3.98037 0
M  V30 2295 N 220.237 -1.11381 1.11499 0
M  V30 2296 C 221.483 -1.83403 0.865512 0
M  V30 2297 C 221.816 -1.84459 -0.607329 0
M  V30 2298 O 221.091 -1.29811 -1.44842 0
M  V30 2299 C 221.374 -3.30552 1.42855 0
M  V30 2300 C 221.227 -3.37886 2.96906 0
M  V30 2301 C 222.546 -4.26643 1.08 0
M  V30 2302 H 219.665 -0.665879 0.31587 0
M  V30 2303 H 222.307 -1.30601 1.37998 0
M  V30 2304 H 220.457 -3.75648 0.990985 0
M  V30 2305 H 222.129 -3.01343 3.49271 0
M  V30 2306 H 220.372 -2.78088 3.32941 0
M  V30 2307 H 221.043 -4.41458 3.31389 0
M  V30 2308 H 223.519 -3.89729 1.45775 0
M  V30 2309 H 222.395 -5.27986 1.50072 0
M  V30 2310 H 222.656 -4.42099 -0.00915037 0
M  V30 2311 N 221.715 -0.905404 -1.28997 0
M  V30 2312 C 222.645 -0.404212 -2.29975 0
M  V30 2313 C 223.626 0.523784 -1.61835 0
M  V30 2314 O 224.811 0.433298 -1.89304 0
M  V30 2315 C 221.941 0.364042 -3.45387 0
M  V30 2316 C 220.895 -0.474048 -4.25367 0
M  V30 2317 C 220.221 0.422045 -5.33032 0
M  V30 2318 C 221.521 -1.72696 -4.92923 0
M  V30 2319 H 223.215 -1.24807 -2.72146 0
M  V30 2320 H 220.761 -0.601585 -1.30832 0
M  V30 2321 H 222.714 0.725447 -4.15109 0
M  V30 2322 H 221.438 1.24174 -3.02074 0
M  V30 2323 H 220.097 -0.81786 -3.57361 0
M  V30 2324 H 219.745 1.29804 -4.85963 0
M  V30 2325 H 219.445 -0.135057 -5.87445 0
M  V30 2326 H 220.969 0.779517 -6.05604 0
M  V30 2327 H 222.383 -1.43495 -5.55051 0
M  V30 2328 H 220.78 -2.22582 -5.57295 0
M  V30 2329 H 221.85 -2.45964 -4.17887 0
M  V30 2330 N 223.193 1.4272 -0.668489 0
M  V30 2331 C 224.103 2.34596 0.0139753 0
M  V30 2332 C 225.119 1.5474 0.795703 0
M  V30 2333 O 226.295 1.87334 0.739466 0
M  V30 2334 C 223.36 3.33202 0.957982 0
M  V30 2335 C 222.421 4.28957 0.17149 0
M  V30 2336 C 221.654 5.22853 1.07053 0
M  V30 2337 O 221.877 5.21531 2.31001 0
M  V30 2338 O 220.811 5.9952 0.534727 0
M  V30 2339 H 224.637 2.9448 -0.742661 0
M  V30 2340 H 222.222 1.43117 -0.428705 0
M  V30 2341 H 224.104 3.93796 1.50008 0
M  V30 2342 H 222.779 2.758 1.69458 0
M  V30 2343 H 221.686 3.71796 -0.414558 0
M  V30 2344 H 223.019 4.89383 -0.52586 0
M  V30 2345 N 224.671 0.411399 1.52136 0
M  V30 2346 C 225.911 -0.163143 2.03748 0
M  V30 2347 C 226.275 -1.42187 1.29022 0
M  V30 2348 O 227.476 -2.075 1.70872 0
M  V30 2349 C 225.747 -0.402651 3.55125 0
M  V30 2350 S 227.306 -0.944315 4.28519 0
M  V30 2351 H 224.124 -0.0439833 0.709638 0
M  V30 2352 H 226.726 0.56484 1.87163 0
M  V30 2353 H 225.43 0.520212 4.0709 0
M  V30 2354 H 224.961 -1.15844 3.75957 0
M  V30 2355 H 226.976 -2.22463 4.43536 0
M  V30 2356 N 226.149 -1.5696 0.141893 0
M  V30 2357 C 227.395 -1.9625 -0.511248 0
M  V30 2358 C 227.728 -1.02654 -1.64851 0
M  V30 2359 O 227.003 -0.0679676 -1.94381 0
M  V30 2360 C 227.286 -3.45285 -1.02227 0
M  V30 2361 C 227.139 -4.49658 0.113138 0
M  V30 2362 C 228.458 -3.96698 -1.90574 0
M  V30 2363 H 225.577 -0.713567 -0.184367 0
M  V30 2364 H 228.219 -1.88698 0.222087 0
M  V30 2365 H 226.369 -3.51852 -1.64719 0
M  V30 2366 H 228.041 -4.55174 0.749302 0
M  V30 2367 H 226.284 -4.26857 0.773026 0
M  V30 2368 H 226.955 -5.51258 -0.286053 0
M  V30 2369 H 229.431 -3.92578 -1.37918 0
M  V30 2370 H 228.307 -5.01453 -2.2324 0
M  V30 2371 H 228.568 -3.3875 -2.84079 0
M  V30 2372 N 227.627 0.131896 -1.57047 0
M  V30 2373 C 228.852 0.860418 -1.8871 0
M  V30 2374 C 229.277 1.73251 -0.73251 0
M  V30 2375 O 228.635 1.785 0.317429 0
M  V30 2376 C 228.683 1.68047 -3.19049 0
M  V30 2377 O 227.787 2.7862 -3.04047 0
M  V30 2378 H 227.128 0.238743 -0.619595 0
M  V30 2379 H 229.658 0.118169 -2.04258 0
M  V30 2380 H 229.668 2.07238 -3.51449 0
M  V30 2381 H 228.343 1.04018 -4.02682 0
M  V30 2382 H 226.92 2.42726 -2.83088 0
M  V30 2383 N 229.106 1.52395 0.401703 0
M  V30 2384 C 230.036 1.79231 1.49661 0
M  V30 2385 C 231.017 0.643654 1.57452 0
M  V30 2386 O 232.202 0.889989 1.72606 0
M  V30 2387 C 229.332 1.94971 2.87409 0
M  V30 2388 C 228.286 3.10604 2.94465 0
M  V30 2389 C 227.612 3.11577 4.34538 0
M  V30 2390 C 228.912 4.49921 2.6527 0
M  V30 2391 H 230.606 2.70917 1.27454 0
M  V30 2392 H 228.152 1.30362 0.6117 0
M  V30 2393 H 230.105 2.12328 3.63999 0
M  V30 2394 H 228.829 0.999632 3.10926 0
M  V30 2395 H 227.488 2.93009 2.20321 0
M  V30 2396 H 227.136 2.14277 4.55076 0
M  V30 2397 H 226.836 3.89247 4.40183 0
M  V30 2398 H 228.36 3.31073 5.13053 0
M  V30 2399 H 229.774 4.67683 3.31581 0
M  V30 2400 H 228.171 5.29564 2.82281 0
M  V30 2401 H 229.241 4.57507 1.60671 0
M  V30 2402 N 230.584 -0.659388 1.43143 0
M  V30 2403 C 231.83 -1.42145 1.44647 0
M  V30 2404 C 232.163 -1.9408 0.0681907 0
M  V30 2405 O 231.438 -1.71899 -0.910007 0
M  V30 2406 C 231.721 -2.60735 2.48373 0
M  V30 2407 C 231.574 -2.14332 3.95451 0
M  V30 2408 C 232.893 -3.62951 2.48906 0
M  V30 2409 H 230.012 -0.51552 0.526696 0
M  V30 2410 H 232.654 -0.748069 1.74654 0
M  V30 2411 H 230.804 -3.18184 2.22916 0
M  V30 2412 H 232.476 -1.61932 4.31944 0
M  V30 2413 H 230.719 -1.4576 4.08578 0
M  V30 2414 H 231.39 -2.99583 4.63631 0
M  V30 2415 H 233.866 -3.1525 2.71582 0
M  V30 2416 H 232.742 -4.43487 3.23435 0
M  V30 2417 H 233.003 -4.15126 1.52061 0
M  V30 2418 N 232.062 -1.29571 -0.897171 0
M  V30 2419 C 232.972 -1.16808 -2.03453 0
M  V30 2420 C 233.988 -0.0907471 -1.73763 0
M  V30 2421 O 235.164 -0.303312 -1.99103 0
M  V30 2422 C 232.229 -0.848264 -3.36163 0
M  V30 2423 C 231.29 -2.0097 -3.79354 0
M  V30 2424 C 230.523 -1.70505 -5.05731 0
M  V30 2425 O 230.746 -0.62718 -5.66941 0
M  V30 2426 O 229.68 -2.5538 -5.45036 0
M  V30 2427 H 233.506 -2.12325 -2.17144 0
M  V30 2428 H 231.091 -1.09047 -1.02123 0
M  V30 2429 H 232.973 -0.684581 -4.15802 0
M  V30 2430 H 231.648 0.0771071 -3.23608 0
M  V30 2431 H 230.555 -2.22863 -3.00471 0
M  V30 2432 H 231.888 -2.91636 -3.96496 0
M  V30 2433 N 233.54 1.10788 -1.12088 0
M  V30 2434 C 234.47 2.19083 -0.807755 0
M  V30 2435 C 235.451 1.6858 0.226859 0
M  V30 2436 O 236.636 1.93997 0.0888475 0
M  V30 2437 C 233.766 3.46344 -0.257576 0
M  V30 2438 C 232.72 4.101 -1.22483 0
M  V30 2439 C 232.046 5.32016 -0.535052 0
M  V30 2440 C 233.346 4.54236 -2.57811 0
M  V30 2441 H 235.04 2.45534 -1.71328 0
M  V30 2442 H 232.586 1.1801 -0.825205 0
M  V30 2443 H 234.539 4.21392 -0.0262679 0
M  V30 2444 H 233.263 3.19373 0.683278 0
M  V30 2445 H 231.922 3.37054 -1.44189 0
M  V30 2446 H 231.57 5.01319 0.410827 0
M  V30 2447 H 231.27 5.75625 -1.18024 0
M  V30 2448 H 232.794 6.09799 -0.312695 0
M  V30 2449 H 234.208 5.20575 -2.40155 0
M  V30 2450 H 232.605 5.08682 -3.18375 0
M  V30 2451 H 233.675 3.6734 -3.16528 0
M  V30 2452 N 235.018 0.912232 1.28515 0
M  V30 2453 C 236.246 0.560416 1.99166 0
M  V30 2454 C 236.661 -0.857927 1.68182 0
M  V30 2455 O 236.018 -1.56805 0.933733 0
M  V30 2456 C 236.069 0.758142 3.53461 0
M  V30 2457 O 235.79 2.12067 3.83352 0
M  V30 2458 C 237.291 0.412954 4.41372 0
M  V30 2459 H 234.511 0.213805 0.636026 0
M  V30 2460 H 237.055 1.22502 1.63749 0
M  V30 2461 H 235.21 0.140556 3.87145 0
M  V30 2462 H 235.624 2.15923 4.77993 0
M  V30 2463 H 237.098 0.60208 5.48707 0
M  V30 2464 H 237.575 -0.65073 4.34353 0
M  V30 2465 H 238.181 1.00802 4.13182 0
M  V30 2466 N 236.496 -1.42363 0.676048 0
M  V30 2467 C 237.721 -2.06377 0.205705 0
M  V30 2468 C 238.146 -1.50463 -1.12883 0
M  V30 2469 O 237.504 -0.623619 -1.70237 0
M  V30 2470 C 237.552 -3.60277 0.152655 0
M  V30 2471 O 236.656 -4.02935 -0.87845 0
M  V30 2472 H 235.997 -0.655588 0.105359 0
M  V30 2473 H 238.527 -1.82475 0.925412 0
M  V30 2474 H 238.537 -4.07993 -0.0230675 0
M  V30 2475 H 237.212 -4.00346 1.12675 0
M  V30 2476 H 235.789 -3.66764 -0.673668 0
M  V30 2477 N 237.974 -0.419461 -1.51915 0
M  V30 2478 C 238.904 0.391813 -2.30189 0
M  V30 2479 C 239.885 1.03699 -1.34836 0
M  V30 2480 O 241.07 1.04403 -1.63748 0
M  V30 2481 C 238.2 1.50312 -3.13087 0
M  V30 2482 C 237.154 0.9824 -4.16573 0
M  V30 2483 C 236.48 2.18809 -4.8788 0
M  V30 2484 C 237.78 0.0292356 -5.22292 0
M  V30 2485 H 239.474 -0.26135 -2.98257 0
M  V30 2486 H 237.02 -0.127134 -1.43438 0
M  V30 2487 H 238.973 2.07773 -3.66617 0
M  V30 2488 H 237.697 2.18431 -2.42807 0
M  V30 2489 H 236.356 0.430119 -3.64068 0
M  V30 2490 H 236.004 2.85507 -4.14119 0
M  V30 2491 H 235.704 1.84615 -5.57845 0
M  V30 2492 H 237.228 2.76858 -5.44226 0
M  V30 2493 H 238.642 0.512976 -5.71 0
M  V30 2494 H 237.039 -0.2244 -5.9968 0
M  V30 2495 H 238.109 -0.912931 -4.76228 0
M  V30 2496 N 239.452 1.56882 -0.150215 0
M  V30 2497 C 240.399 2.16922 0.788244 0
M  V30 2498 C 241.369 1.10303 1.24187 0
M  V30 2499 O 242.554 1.38359 1.31383 0
M  V30 2500 C 239.694 2.79754 2.02068 0
M  V30 2501 C 238.807 4.00775 1.61257 0
M  V30 2502 C 237.942 4.51595 2.79705 0
M  V30 2503 C 236.981 5.65074 2.35282 0
M  V30 2504 N 236.118 6.10499 3.4675 0
M  V30 2505 H 240.958 2.96779 0.269444 0
M  V30 2506 H 238.495 1.46599 0.12128 0
M  V30 2507 H 240.453 3.14329 2.74323 0
M  V30 2508 H 239.083 2.02536 2.51354 0
M  V30 2509 H 238.135 3.72158 0.787553 0
M  V30 2510 H 239.447 4.82978 1.24633 0
M  V30 2511 H 238.601 4.88242 3.60145 0
M  V30 2512 H 237.34 3.68406 3.19576 0
M  V30 2513 H 236.345 5.28 1.53283 0
M  V30 2514 H 237.57 6.50052 1.96493 0
M  V30 2515 H 235.516 5.30243 3.86236 0
M  V30 2516 H 235.433 6.87637 3.14152 0
M  V30 2517 H 236.701 6.51791 4.27537 0
M  V30 2518 N 240.93 -0.123565 1.57115 0
M  V30 2519 C 242.178 -0.83051 1.84247 0
M  V30 2520 C 242.499 -1.80629 0.73471 0
M  V30 2521 O 241.769 -1.94403 -0.241688 0
M  V30 2522 H 240.349 -0.309694 0.679778 0
M  V30 2523 H 243.011 -0.111976 1.94578 0
M  V30 2524 H 242.107 -1.37852 2.80006 0
M  V30 2525 N 242.408 -1.52605 -0.393616 0
M  V30 2526 C 243.824 -1.41753 -0.733357 0
M  V30 2527 C 244.024 -0.534293 -1.94287 0
M  V30 2528 O 243.08 -0.0059787 -2.52499 0
M  V30 2529 C 244.393 -2.84531 -0.972772 0
M  V30 2530 C 245.941 -2.93978 -1.07453 0
M  V30 2531 C 246.416 -4.37756 -1.3466 0
M  V30 2532 N 247.907 -4.4106 -1.41492 0
M  V30 2533 C 248.642 -5.49387 -1.642 0
M  V30 2534 N 248.138 -6.67806 -1.8441 0
M  V30 2535 N 249.931 -5.36923 -1.66342 0
M  V30 2536 H 242.082 -2.08555 0.402328 0
M  V30 2537 H 244.345 -0.940654 0.117789 0
M  V30 2538 H 244.051 -3.51353 -0.156204 0
M  V30 2539 H 243.925 -3.26508 -1.88871 0
M  V30 2540 H 246.312 -2.27326 -1.88167 0
M  V30 2541 H 246.393 -2.55435 -0.136605 0
M  V30 2542 H 246.037 -5.04972 -0.544581 0
M  V30 2543 H 245.967 -4.73848 -2.2973 0
M  V30 2544 H 248.458 -3.55705 -1.27601 0
M  V30 2545 H 248.771 -7.46141 -2.01231 0
M  V30 2546 H 247.116 -6.70843 -1.81644 0
M  V30 2547 H 250.307 -4.43381 -1.50102 0
M  V30 2548 H 250.48 -6.21416 -1.837 0
M  V30 2549 N 243.887 0.651787 -1.4349 0
M  V30 2550 C 244.797 1.79368 -1.5121 0
M  V30 2551 C 245.813 1.69361 -0.399093 0
M  V30 2552 O 246.989 1.90505 -0.653431 0
M  V30 2553 C 244.054 3.15653 -1.43401 0
M  V30 2554 C 243.115 3.37446 -2.65384 0
M  V30 2555 C 242.348 4.67229 -2.57939 0
M  V30 2556 O 242.571 5.46676 -1.62792 0
M  V30 2557 O 241.505 4.90773 -3.48462 0
M  V30 2558 H 245.331 1.7581 -2.47638 0
M  V30 2559 H 242.916 0.810447 -1.25507 0
M  V30 2560 H 244.798 3.96935 -1.41494 0
M  V30 2561 H 243.473 3.19798 -0.501085 0
M  V30 2562 H 242.38 2.55923 -2.72863 0
M  V30 2563 H 243.713 3.38148 -3.57654 0
M  V30 2564 N 245.365 1.30045 0.890287 0
M  V30 2565 C 246.312 1.15976 1.99545 0
M  V30 2566 C 247.282 0.0506202 1.66023 0
M  V30 2567 O 248.467 0.219847 1.89529 0
M  V30 2568 C 245.607 0.852054 3.34416 0
M  V30 2569 C 244.72 2.04255 3.80662 0
M  V30 2570 C 243.855 1.6734 5.04154 0
M  V30 2571 C 242.894 2.82916 5.42794 0
M  V30 2572 N 242.031 2.46333 6.57468 0
M  V30 2573 H 246.871 2.10524 2.10911 0
M  V30 2574 H 244.408 1.04749 1.03276 0
M  V30 2575 H 246.366 0.654296 4.12037 0
M  V30 2576 H 244.996 -0.0565502 3.2275 0
M  V30 2577 H 244.048 2.35172 2.98995 0
M  V30 2578 H 245.36 2.90826 4.05242 0
M  V30 2579 H 244.514 1.43908 5.89386 0
M  V30 2580 H 243.253 0.779308 4.81433 0
M  V30 2581 H 242.258 3.0702 4.56091 0
M  V30 2582 H 243.483 3.73004 5.6749 0
M  V30 2583 H 241.429 1.59423 6.36334 0
M  V30 2584 H 241.346 3.26436 6.81891 0
M  V30 2585 H 242.614 2.26244 7.45945 0
M  V30 2586 N 246.843 -1.10192 1.12674 0
M  V30 2587 C 247.773 -2.18652 0.819362 0
M  V30 2588 C 248.754 -1.68698 -0.217915 0
M  V30 2589 O 249.939 -1.94041 -0.0785581 0
M  V30 2590 C 247.069 -3.46202 0.27594 0
M  V30 2591 C 246.023 -4.09444 1.24656 0
M  V30 2592 C 245.349 -5.31725 0.563258 0
M  V30 2593 C 246.649 -4.52863 2.60217 0
M  V30 2594 H 248.343 -2.44622 1.72628 0
M  V30 2595 H 245.889 -1.17571 0.831451 0
M  V30 2596 H 247.842 -4.21372 0.0486149 0
M  V30 2597 H 246.566 -3.1973 -0.666331 0
M  V30 2598 H 245.225 -3.36284 1.45974 0
M  V30 2599 H 244.873 -5.0153 -0.384235 0
M  V30 2600 H 244.573 -5.74991 1.21075 0
M  V30 2601 H 246.097 -6.09624 0.34503 0
M  V30 2602 H 247.511 -5.19294 2.42913 0
M  V30 2603 H 245.908 -5.06986 3.21068 0
M  V30 2604 H 246.978 -3.65656 3.18471 0
M  V30 2605 N 248.321 -0.919034 -1.28029 0
M  V30 2606 C 249.284 -0.416182 -2.2539 0
M  V30 2607 C 250.284 0.460438 -1.54067 0
M  V30 2608 O 251.474 0.262744 -1.72207 0
M  V30 2609 C 248.606 0.402707 -3.38513 0
M  V30 2610 H 249.799 -1.27629 -2.71387 0
M  V30 2611 H 247.352 -0.698919 -1.39803 0
M  V30 2612 H 248.087 1.282 -2.97885 0
M  V30 2613 H 247.872 -0.225698 -3.9145 0
M  V30 2614 H 249.362 0.745191 -4.10897 0
M  V30 2615 N 249.799 1.42003 -0.683588 0
M  V30 2616 C 251.21 1.84501 -0.285736 0
M  V30 2617 C 251.561 1.57213 1.17382 0
M  V30 2618 O 250.686 1.03642 1.89966 0
M  V30 2619 C 251.281 3.34912 -0.511821 0
M  V30 2620 C 249.84 3.76025 -0.168005 0
M  V30 2621 C 248.987 2.6551 -0.799983 0
M  V30 2622 H 251.938 1.31724 -0.885119 0
M  V30 2623 H 251.959 3.79784 0.233292 0
M  V30 2624 H 251.471 3.54741 -1.57418 0
M  V30 2625 H 249.572 3.61801 0.890567 0
M  V30 2626 H 249.685 4.75141 -0.614661 0
M  V30 2627 H 248.049 2.53654 -0.230568 0
M  V30 2628 H 248.832 2.8816 -1.86597 0
M  V30 2629 N 251.277 0.427512 1.51691 0
M  V30 2630 C 252.523 -0.142439 2.02299 0
M  V30 2631 C 252.856 -1.43214 1.31162 0
M  V30 2632 O 252.131 -1.89833 0.423511 0
M  V30 2633 C 252.414 -0.371301 3.58181 0
M  V30 2634 C 252.267 0.936358 4.39946 0
M  V30 2635 C 253.586 -1.14542 4.24933 0
M  V30 2636 H 250.705 -0.0502937 0.735282 0
M  V30 2637 H 253.347 0.564584 1.81418 0
M  V30 2638 H 251.497 -0.973559 3.76104 0
M  V30 2639 H 253.169 1.57184 4.33694 0
M  V30 2640 H 251.412 1.5432 4.05423 0
M  V30 2641 H 252.083 0.730388 5.47147 0
M  V30 2642 H 254.559 -0.635362 4.11221 0
M  V30 2643 H 253.435 -1.27431 5.33903 0
M  V30 2644 H 253.696 -2.17093 3.85127 0
M  V30 2645 N 252.755 -1.56801 0.158532 0
M  V30 2646 C 254.166 -1.83189 -0.360366 0
M  V30 2647 C 254.517 -1.07778 -1.63946 0
M  V30 2648 O 253.642 -0.326718 -2.13919 0
M  V30 2649 C 254.237 -3.32297 -0.660595 0
M  V30 2650 C 252.796 -3.59227 -1.12398 0
M  V30 2651 C 251.943 -2.76877 -0.153097 0
M  V30 2652 H 254.894 -1.54008 0.383031 0
M  V30 2653 H 254.915 -3.4908 -1.51405 0
M  V30 2654 H 254.427 -3.87156 0.270527 0
M  V30 2655 H 252.528 -3.09766 -2.07064 0
M  V30 2656 H 252.641 -4.67632 -1.04197 0
M  V30 2657 H 251.005 -2.46319 -0.647983 0
M  V30 2658 H 251.788 -3.34511 0.77182 0
M  V30 2659 N 254.233 0.115231 -1.57178 0
M  V30 2660 C 255.48 0.822351 -1.8505 0
M  V30 2661 C 255.808 1.79701 -0.744168 0
M  V30 2662 O 255.063 1.93909 0.26414 0
M  V30 2663 C 255.362 1.60324 -3.19423 0
M  V30 2664 C 255.028 0.772536 -4.44233 0
M  V30 2665 C 253.69 0.543468 -4.78121 0
M  V30 2666 C 256.042 0.193746 -5.2084 0
M  V30 2667 C 253.37 -0.274583 -5.86057 0
M  V30 2668 C 255.722 -0.611517 -6.29637 0
M  V30 2669 C 254.386 -0.850867 -6.62055 0
M  V30 2670 H 253.656 0.30092 -0.677147 0
M  V30 2671 H 256.303 0.0845802 -1.91313 0
M  V30 2672 H 254.608 2.41203 -3.08753 0
M  V30 2673 H 256.305 2.1544 -3.38211 0
M  V30 2674 H 252.895 0.96117 -4.17683 0
M  V30 2675 H 257.079 0.357926 -4.95008 0
M  V30 2676 H 252.335 -0.469206 -6.09597 0
M  V30 2677 H 256.509 -1.06697 -6.88178 0
M  V30 2678 H 254.136 -1.48657 -7.45523 0
M  V30 2679 N 255.711 1.52812 0.385517 0
M  V30 2680 C 256.958 1.68026 1.1302 0
M  V30 2681 C 257.286 0.421934 1.89868 0
M  V30 2682 O 256.541 -0.595749 1.86412 0
M  V30 2683 C 256.84 2.86856 2.13187 0
M  V30 2684 C 256.506 4.24159 1.5297 0
M  V30 2685 C 255.168 4.61501 1.36274 0
M  V30 2686 C 257.52 5.09627 1.09223 0
M  V30 2687 C 254.848 5.81966 0.743837 0
M  V30 2688 C 257.2 6.30719 0.487411 0
M  V30 2689 C 255.864 6.6679 0.307777 0
M  V30 2690 H 255.134 0.614849 0.413571 0
M  V30 2691 H 257.781 1.86962 0.414405 0
M  V30 2692 H 256.086 2.6235 2.90998 0
M  V30 2693 H 257.783 2.95821 2.70722 0
M  V30 2694 H 254.373 3.94746 1.66954 0
M  V30 2695 H 258.557 4.81343 1.20922 0
M  V30 2696 H 253.813 6.08519 0.592891 0
M  V30 2697 H 257.987 6.96259 0.140143 0
M  V30 2698 H 255.614 7.60001 -0.173879 0
M  V30 2699 N 257.189 -0.644168 1.43834 0
M  V30 2700 C 258.414 -1.43642 1.49605 0
M  V30 2701 C 258.839 -1.8773 0.117913 0
M  V30 2702 O 258.197 -1.57938 -0.890239 0
M  V30 2703 C 258.245 -2.6416 2.45463 0
M  V30 2704 O 257.349 -3.63538 1.94714 0
M  V30 2705 H 256.69 -0.430329 0.50568 0
M  V30 2706 H 259.22 -0.787448 1.8884 0
M  V30 2707 H 259.23 -3.11864 2.63068 0
M  V30 2708 H 257.905 -2.31414 3.45572 0
M  V30 2709 H 256.482 -3.2273 1.86814 0
M  V30 2710 N 258.668 -1.30515 -0.883378 0
M  V30 2711 C 259.598 -1.19607 -2.00541 0
M  V30 2712 C 260.579 -0.086346 -1.69881 0
M  V30 2713 O 261.764 -0.268654 -1.92333 0
M  V30 2714 C 258.894 -0.888758 -3.35736 0
M  V30 2715 C 257.848 -1.95659 -3.8066 0
M  V30 2716 C 257.174 -1.50224 -5.13164 0
M  V30 2717 C 258.474 -3.36788 -3.99213 0
M  V30 2718 H 260.168 -2.13476 -2.09925 0
M  V30 2719 H 257.714 -1.02775 -1.00863 0
M  V30 2720 H 259.667 -0.799094 -4.13754 0
M  V30 2721 H 258.391 0.0856125 -3.26488 0
M  V30 2722 H 257.05 -2.03591 -3.04871 0
M  V30 2723 H 256.698 -0.516092 -5.00345 0
M  V30 2724 H 256.398 -2.2165 -5.44192 0
M  V30 2725 H 257.922 -1.42639 -5.93706 0
M  V30 2726 H 259.336 -3.31605 -4.67665 0
M  V30 2727 H 257.733 -4.06314 -4.41621 0
M  V30 2728 H 258.803 -3.78561 -3.03017 0
M  V30 2729 N 260.146 1.09593 -1.13257 0
M  V30 2730 C 261.076 2.18214 -0.830946 0
M  V30 2731 C 262.057 1.68812 0.208966 0
M  V30 2732 O 263.242 1.9408 0.0682666 0
M  V30 2733 C 260.372 3.46051 -0.294296 0
M  V30 2734 C 259.326 4.08778 -1.26826 0
M  V30 2735 C 258.652 5.31419 -0.591449 0
M  V30 2736 C 259.952 4.51476 -2.62615 0
M  V30 2737 H 261.646 2.43703 -1.73923 0
M  V30 2738 H 259.192 1.17128 -0.837675 0
M  V30 2739 H 261.145 4.2134 -0.0709606 0
M  V30 2740 H 259.869 3.20079 0.649366 0
M  V30 2741 H 258.528 3.35505 -1.47756 0
M  V30 2742 H 258.176 5.01727 0.357633 0
M  V30 2743 H 257.876 5.74341 -1.24123 0
M  V30 2744 H 259.4 6.09433 -0.377355 0
M  V30 2745 H 260.814 5.17999 -2.45663 0
M  V30 2746 H 259.211 5.05277 -3.23752 0
M  V30 2747 H 260.281 3.63962 -3.20406 0
M  V30 2748 N 261.624 0.925811 1.2754 0
M  V30 2749 C 262.556 0.380753 2.26015 0
M  V30 2750 C 263.569 -0.487485 1.5533 0
M  V30 2751 O 264.758 -0.300413 1.75954 0
M  V30 2752 C 261.858 -0.473259 3.35579 0
M  V30 2753 C 261.031 0.375249 4.35787 0
M  V30 2754 C 260.09 -0.415809 5.24555 0
M  V30 2755 O 259.116 0.175834 5.68928 0
M  V30 2756 N 260.318 -1.71607 5.54555 0
M  V30 2757 H 263.083 1.22725 2.73421 0
M  V30 2758 H 260.644 0.793037 1.41147 0
M  V30 2759 H 262.636 -1.00949 3.91907 0
M  V30 2760 H 261.206 -1.2205 2.87789 0
M  V30 2761 H 260.426 1.09279 3.7875 0
M  V30 2762 H 261.714 0.955399 4.99749 0
M  V30 2763 H 261.112 -2.2191 5.20358 0
M  V30 2764 H 259.669 -2.19887 6.1359 0
M  V30 2765 N 263.102 -1.41638 0.69111 0
M  V30 2766 C 264.332 -2.0533 0.228758 0
M  V30 2767 C 264.74 -1.52089 -1.12541 0
M  V30 2768 O 264.083 -0.662145 -1.71351 0
M  V30 2769 C 264.145 -3.59349 0.10407 0
M  V30 2770 C 263.809 -4.35362 1.38956 0
M  V30 2771 C 264.806 -4.64942 2.32648 0
M  V30 2772 C 262.491 -4.74714 1.64169 0
M  V30 2773 C 264.485 -5.32828 3.49818 0
M  V30 2774 C 262.172 -5.42338 2.81625 0
M  V30 2775 C 263.17 -5.71322 3.74273 0
M  V30 2776 O 262.858 -6.37554 4.89673 0
M  V30 2777 H 262.59 -0.667796 0.104997 0
M  V30 2778 H 265.144 -1.82477 0.942938 0
M  V30 2779 H 263.374 -3.80924 -0.665839 0
M  V30 2780 H 265.063 -4.04633 -0.320519 0
M  V30 2781 H 265.829 -4.35025 2.14425 0
M  V30 2782 H 261.708 -4.51538 0.929202 0
M  V30 2783 H 265.252 -5.55368 4.22152 0
M  V30 2784 H 261.149 -5.71673 2.99768 0
M  V30 2785 H 261.917 -6.56049 4.8943 0
M  V30 2786 N 264.58 -0.43555 -1.51462 0
M  V30 2787 C 265.49 0.383001 -2.31453 0
M  V30 2788 C 266.506 1.02931 -1.4029 0
M  V30 2789 O 267.682 1.02507 -1.73362 0
M  V30 2790 C 264.747 1.47043 -3.13973 0
M  V30 2791 C 263.808 0.844433 -4.20913 0
M  V30 2792 C 263.041 1.88004 -4.9949 0
M  V30 2793 O 263.264 3.10199 -4.78678 0
M  V30 2794 O 262.198 1.47157 -5.83634 0
M  V30 2795 H 266.024 -0.269964 -3.02498 0
M  V30 2796 H 263.609 -0.19813 -1.4808 0
M  V30 2797 H 265.491 2.10113 -3.65281 0
M  V30 2798 H 264.166 2.10751 -2.45695 0
M  V30 2799 H 263.073 0.175729 -3.73687 0
M  V30 2800 H 264.406 0.250869 -4.9156 0
M  V30 2801 O 266.097 1.58538 -0.30787 0
M  V30 2802 H 266.788 1.9201 0.255316 0
M  V30 END ATOM
M  V30 BEGIN BOND
M  V30 END BOND
M  V30 END CTAB
M  END
$$$$
