drugbank_target|P16499 Rod cGMP-specific 3',5'-cyclic phosphodiesterase subunit alpha (DB00201; DB09283)
 OpenBabel12092121003D

  0  0  0     0  0            999 V3000
M  V30 BEGIN CTAB
M  V30 COUNTS 13900 14057 0 0 0
M  V30 BEGIN ATOM
M  V30 1 H -0.908 1.98254 -0.117106 0
M  V30 2 N 0 1.576 0 0
M  V30 3 C 0.933 2.03868 1.02534 0
M  V30 4 C 1.911 0.928543 1.3348 0
M  V30 5 O 3.095 1.19667 1.45644 0
M  V30 6 C 0.222 2.43627 2.35294 0
M  V30 7 C -0.732 3.65373 2.2001 0
M  V30 8 S 0.101 5.13292 1.52614 0
M  V30 9 C 1.257 5.56322 2.86805 0
M  V30 10 H 1.49 2.90518 0.631377 0
M  V30 11 H -0.977 1.52953 0.210867 0
M  V30 12 H 0.981 2.67203 3.11629 0
M  V30 13 H -0.358 1.57376 2.7183 0
M  V30 14 H -1.165 3.90944 3.18086 0
M  V30 15 H -1.563 3.418 1.51819 0
M  V30 16 H 0.729 5.58782 3.83104 0
M  V30 17 H 1.672 6.56266 2.65933 0
M  V30 18 H 2.08 4.83886 2.90714 0
M  V30 19 N 1.4781 -0.272755 1.55222 0
M  V30 20 C 2.7261 -1.00234 1.75492 0
M  V30 21 C 3.0471 -1.8681 0.5592 0
M  V30 22 O 2.3171 -1.91215 -0.425882 0
M  V30 23 H 0.8971 -0.373076 0.647166 0
M  V30 24 H 3.5591 -0.296926 1.92625 0
M  V30 25 H 2.6551 -1.63913 2.65592 0
M  V30 26 N 2.9562 -1.48159 -0.537278 0
M  V30 27 C 3.8662 -1.64807 -1.6696 0
M  V30 28 C 4.8822 -0.530651 -1.65711 0
M  V30 29 O 6.0582 -0.800784 -1.84796 0
M  V30 30 C 3.1232 -1.67708 -3.03438 0
M  V30 31 C 2.1842 -2.91025 -3.156 0
M  V30 32 C 1.4172 -2.93778 -4.45567 0
M  V30 33 O 1.6402 -2.05153 -5.3223 0
M  V30 34 O 0.5742 -3.85868 -4.61941 0
M  V30 35 H 4.4002 -2.6066 -1.55853 0
M  V30 36 H 1.9852 -1.31475 -0.709549 0
M  V30 37 H 3.8672 -1.7218 -3.84619 0
M  V30 38 H 2.5422 -0.750278 -3.14885 0
M  V30 39 H 1.4492 -2.92089 -2.33741 0
M  V30 40 H 2.7822 -3.83065 -3.09066 0
M  V30 41 N 4.4343 0.785586 -1.36625 0
M  V30 42 C 5.6803 1.54591 -1.31261 0
M  V30 43 C 6.0133 1.93906 0.106823 0
M  V30 44 O 5.2883 1.63007 1.06108 0
M  V30 45 C 5.5713 2.82038 -2.23889 0
M  V30 46 C 5.4243 2.49066 -3.74548 0
M  V30 47 C 6.7433 3.83887 -2.15217 0
M  V30 48 H 3.8623 0.560846 -0.478143 0
M  V30 49 H 6.5043 0.902278 -1.67209 0
M  V30 50 H 4.6543 3.36961 -1.93363 0
M  V30 51 H 6.3263 2.00164 -4.15611 0
M  V30 52 H 4.5693 1.81954 -3.93796 0
M  V30 53 H 5.2403 3.40109 -4.34776 0
M  V30 54 H 7.7163 3.38421 -2.42096 0
M  V30 55 H 6.5923 4.70806 -2.82193 0
M  V30 56 H 6.8533 4.27131 -1.14068 0
M  V30 57 N 5.9124 1.20967 1.01018 0
M  V30 58 C 7.1404 1.04956 1.78303 0
M  V30 59 C 7.5554 -0.400915 1.84494 0
M  V30 60 O 6.9124 -1.27826 1.30257 0
M  V30 61 C 6.9634 1.63403 3.22462 0
M  V30 62 O 6.6844 3.02775 3.16637 0
M  V30 63 C 8.1854 1.52432 4.16268 0
M  V30 64 H 5.4054 0.368858 0.560522 0
M  V30 65 H 7.9494 1.60193 1.27116 0
M  V30 66 H 6.1044 1.1227 3.70775 0
M  V30 67 H 6.5184 3.30626 4.07169 0
M  V30 68 H 7.9924 1.98078 5.15237 0
M  V30 69 H 8.4694 0.477875 4.36592 0
M  V30 70 H 9.0754 2.02787 3.73841 0
M  V30 71 N 7.3905 -1.2043 1.01659 0
M  V30 72 C 8.3535 -2.21433 0.591616 0
M  V30 73 C 9.3535 -1.57203 -0.338226 0
M  V30 74 O 10.5435 -1.73737 -0.126918 0
M  V30 75 C 7.6755 -3.40628 -0.136058 0
M  V30 76 H 8.8685 -2.60545 1.48514 0
M  V30 77 H 6.4215 -1.33893 0.806379 0
M  V30 78 H 7.1565 -3.07019 -1.04449 0
M  V30 79 H 6.9415 -3.88475 0.531917 0
M  V30 80 H 8.4315 -4.15475 -0.420735 0
M  V30 81 N 8.8686 -0.792821 -1.36206 0
M  V30 82 C 9.7786 -0.194808 -2.3379 0
M  V30 83 C 10.7946 0.654869 -1.61206 0
M  V30 84 O 11.9706 0.569856 -1.9317 0
M  V30 85 C 9.0356 0.657721 -3.40404 0
M  V30 86 C 8.0966 -0.210849 -4.28782 0
M  V30 87 C 7.3296 0.601086 -5.30304 0
M  V30 88 O 7.5526 1.83682 -5.40016 0
M  V30 89 O 6.4866 -0.000808277 -6.019 0
M  V30 90 H 10.3126 -1.00172 -2.86704 0
M  V30 91 H 7.8976 -0.554341 -1.38735 0
M  V30 92 H 9.7796 1.14375 -4.05581 0
M  V30 93 H 8.4546 1.44247 -2.89784 0
M  V30 94 H 7.3616 -0.743714 -3.66633 0
M  V30 95 H 8.6946 -0.959195 -4.82763 0
M  V30 96 N 10.3467 1.47872 -0.545128 0
M  V30 97 C 11.2567 2.33633 0.212746 0
M  V30 98 C 12.2727 1.4744 0.923983 0
M  V30 99 O 13.4487 1.80393 0.895572 0
M  V30 100 C 10.5137 3.23884 1.23693 0
M  V30 101 C 9.5747 4.25961 0.534417 0
M  V30 102 C 8.8077 5.11899 1.5098 0
M  V30 103 O 9.0307 5.00077 2.7437 0
M  V30 104 O 7.9647 5.92831 1.0409 0
M  V30 105 H 11.7907 2.99714 -0.490416 0
M  V30 106 H 9.3757 1.46235 -0.305871 0
M  V30 107 H 11.2577 3.79666 1.82843 0
M  V30 108 H 9.9327 2.60446 1.92222 0
M  V30 109 H 8.8397 3.73972 -0.0979679 0
M  V30 110 H 10.1727 4.92079 -0.109213 0
M  V30 111 N 11.8248 0.280983 1.55075 0
M  V30 112 C 13.0708 -0.33461 2.00021 0
M  V30 113 C 13.4038 -1.55063 1.16915 0
M  V30 114 O 12.6788 -1.93006 0.240646 0
M  V30 115 C 12.9618 -0.711007 3.53011 0
M  V30 116 C 12.8148 0.512766 4.46868 0
M  V30 117 C 14.1338 -1.54522 4.12081 0
M  V30 118 H 11.2528 -0.120147 0.727141 0
M  V30 119 H 13.8948 0.389097 1.85973 0
M  V30 120 H 12.0448 -1.32761 3.65112 0
M  V30 121 H 13.7168 1.15131 4.46702 0
M  V30 122 H 11.9598 1.14975 4.18286 0
M  V30 123 H 12.6308 0.205556 5.51617 0
M  V30 124 H 15.1068 -1.02442 4.03293 0
M  V30 125 H 13.9828 -1.77739 5.19327 0
M  V30 126 H 14.2438 -2.52813 3.62682 0
M  V30 127 N 13.3029 -1.57598 0.00835791 0
M  V30 128 C 14.2129 -2.12385 -0.996487 0
M  V30 129 C 15.2289 -1.07108 -1.37127 0
M  V30 130 O 16.4049 -1.39055 -1.4569 0
M  V30 131 C 13.4699 -2.62314 -2.26699 0
M  V30 132 C 12.5309 -3.82225 -1.95456 0
M  V30 133 C 11.7639 -4.29763 -3.16449 0
M  V30 134 O 11.9869 -3.76584 -4.28416 0
M  V30 135 O 10.9209 -5.21832 -2.99958 0
M  V30 136 H 14.7469 -2.98479 -0.560725 0
M  V30 137 H 12.3319 -1.47903 -0.210987 0
M  V30 138 H 14.2139 -2.94589 -3.01322 0
M  V30 139 H 12.8889 -1.79313 -2.69497 0
M  V30 140 H 11.7959 -3.54909 -1.18282 0
M  V30 141 H 13.1289 -4.66324 -1.57489 0
M  V30 142 N 14.781 0.264519 -1.55364 0
M  V30 143 C 15.728 1.32717 -1.88825 0
M  V30 144 C 16.698 1.48675 -0.740605 0
M  V30 145 O 17.883 1.62945 -0.992657 0
M  V30 146 C 15.023 2.68089 -2.17307 0
M  V30 147 C 14.136 2.60284 -3.44785 0
M  V30 148 C 13.271 3.87892 -3.62924 0
M  V30 149 C 12.31 3.74631 -4.84064 0
M  V30 150 N 11.447 4.94092 -4.98816 0
M  V30 151 H 16.287 1.03481 -2.79456 0
M  V30 152 H 13.824 0.499757 -1.3835 0
M  V30 153 H 15.782 3.46864 -2.31821 0
M  V30 154 H 14.412 2.95509 -1.299 0
M  V30 155 H 13.464 1.73173 -3.38697 0
M  V30 156 H 14.776 2.46388 -4.33698 0
M  V30 157 H 13.93 4.75109 -3.77302 0
M  V30 158 H 12.669 4.04664 -2.7221 0
M  V30 159 H 11.674 2.85797 -4.69681 0
M  V30 160 H 12.899 3.5937 -5.76221 0
M  V30 161 H 10.845 5.11259 -4.11036 0
M  V30 162 H 10.762 4.8276 -5.81789 0
M  V30 163 H 12.03 5.82857 -5.17588 0
M  V30 164 N 16.2591 1.48442 0.529413 0
M  V30 165 C 17.5061 1.56488 1.28521 0
M  V30 166 C 17.8341 0.239042 1.93025 0
M  V30 167 O 17.0891 -0.770713 1.79885 0
M  V30 168 C 17.3881 2.6523 2.39558 0
M  V30 169 C 17.0541 4.07648 1.92702 0
M  V30 170 C 15.7161 4.46411 1.79641 0
M  V30 171 C 18.0681 4.96896 1.573 0
M  V30 172 C 15.3961 5.72226 1.29514 0
M  V30 173 C 17.7481 6.23202 1.08636 0
M  V30 174 C 16.4121 6.60821 0.941919 0
M  V30 175 H 15.6821 0.572631 0.470292 0
M  V30 176 H 18.3291 1.82161 0.59072 0
M  V30 177 H 16.6341 2.33419 3.14679 0
M  V30 178 H 18.3311 2.68671 2.97686 0
M  V30 179 H 14.9211 3.77036 2.03819 0
M  V30 180 H 19.1051 4.67626 1.66251 0
M  V30 181 H 14.3611 6.00097 1.17019 0
M  V30 182 H 18.5351 6.91753 0.803136 0
M  V30 183 H 16.1621 7.58198 0.5513 0
M  V30 184 N 17.7372 -0.778329 1.37039 0
M  V30 185 C 18.6672 -1.90546 1.34962 0
M  V30 186 C 19.6482 -1.68681 0.219274 0
M  V30 187 O 20.8332 -1.89634 0.418624 0
M  V30 188 C 17.9632 -3.27734 1.14925 0
M  V30 189 C 16.9172 -3.64147 2.24902 0
M  V30 190 C 16.2432 -4.99806 1.89996 0
M  V30 191 C 17.5432 -3.71579 3.67051 0
M  V30 192 H 19.2372 -1.92541 2.29277 0
M  V30 193 H 16.7832 -0.924948 1.10366 0
M  V30 194 H 18.7362 -4.06215 1.12104 0
M  V30 195 H 17.4602 -3.26154 0.170631 0
M  V30 196 H 16.1192 -2.8797 2.26868 0
M  V30 197 H 15.7672 -4.94759 0.906796 0
M  V30 198 H 15.4672 -5.25139 2.63634 0
M  V30 199 H 16.9912 -5.80694 1.88749 0
M  V30 200 H 18.4052 -4.40227 3.67251 0
M  V30 201 H 16.8022 -4.08405 4.39688 0
M  V30 202 H 17.8722 -2.72404 4.01154 0
M  V30 203 N 19.2153 -1.21501 -1.00376 0
M  V30 204 C 20.4923 -0.941745 -1.71437 0
M  V30 205 C 20.8723 0.546114 -2.03914 0
M  V30 206 O 20.2203 1.51128 -1.71384 0
M  V30 207 C 20.4303 -1.82812 -2.97289 0
M  V30 208 C 21.7783 -2.07771 -3.70292 0
M  V30 209 O 22.8023 -1.80171 -3.07273 0
M  V30 210 O 21.6613 -2.54456 -4.83647 0
M  V30 211 H 18.7553 -0.353243 -0.747762 0
M  V30 212 H 21.3013 -1.32436 -1.06108 0
M  V30 213 H 20.0733 -2.83501 -2.69709 0
M  V30 214 H 19.6963 -1.4464 -3.70358 0
M  V30 215 N 20.6934 1.19889 -1.02296 0
M  V30 216 C 21.9184 1.9393 -0.735237 0
M  V30 217 C 22.3434 1.74639 0.698782 0
M  V30 218 O 21.7014 1.04481 1.48167 0
M  V30 219 C 21.7494 3.43916 -1.08417 0
M  V30 220 O 20.8534 4.11917 -0.199446 0
M  V30 221 H 20.1944 0.605645 -0.272196 0
M  V30 222 H 22.7244 1.52137 -1.36804 0
M  V30 223 H 22.7344 3.9456 -1.03856 0
M  V30 224 H 21.4094 3.5728 -2.12894 0
M  V30 225 H 19.9864 3.71666 -0.303136 0
M  V30 226 N 22.1715 0.800033 1.35784 0
M  V30 227 C 23.1195 0.193851 2.31791 0
M  V30 228 C 24.1135 -0.652744 1.56319 0
M  V30 229 O 25.3195 -0.546641 1.71499 0
M  V30 230 H 21.6945 0.04392 0.750716 0
M  V30 231 H 23.6655 1.01883 2.80468 0
M  V30 232 C 22.4145 -0.648338 3.41602 0
M  V30 233 H 21.7375 -0.00624665 3.998 0
M  V30 234 H 23.1775 -1.03898 4.11073 0
M  V30 235 C 21.6365 -1.8111 2.84079 0
M  V30 236 O 22.1665 -2.90825 2.77099 0
M  V30 237 N 20.3725 -1.62056 2.41218 0
M  V30 238 H 19.9195 -0.728123 2.47095 0
M  V30 239 H 19.8775 -2.40013 2.03079 0
M  V30 240 N 23.6496 -1.47581 0.552962 0
M  V30 241 C 24.8986 -2.01684 0.0251995 0
M  V30 242 C 25.2116 -1.43317 -1.33115 0
M  V30 243 O 26.4176 -1.89057 -1.94858 0
M  V30 244 C 24.8736 -3.599 -0.00542052 0
M  V30 245 C 24.4816 -4.27257 1.34742 0
M  V30 246 C 26.2256 -4.21768 -0.4808 0
M  V30 247 C 24.1326 -5.77467 1.27614 0
M  V30 248 H 23.0626 -0.753979 0.00565033 0
M  V30 249 H 25.7136 -1.69616 0.70018 0
M  V30 250 H 24.0956 -3.88911 -0.745961 0
M  V30 251 H 25.2696 -4.09893 2.10534 0
M  V30 252 H 23.5846 -3.77358 1.76039 0
M  V30 253 H 26.1816 -5.31838 -0.55246 0
M  V30 254 H 26.5246 -3.88651 -1.49184 0
M  V30 255 H 27.0576 -3.97273 0.204752 0
M  V30 256 H 23.7966 -6.15196 2.26304 0
M  V30 257 H 23.3166 -5.9718 0.55996 0
M  V30 258 H 24.9956 -6.3959 0.976421 0
M  V30 259 N 25.1277 -0.289203 -1.54924 0
M  V30 260 C 26.3757 0.322879 -1.99504 0
M  V30 261 C 26.6967 1.55313 -1.1791 0
M  V30 262 O 25.9667 1.94001 -0.272097 0
M  V30 263 H 24.5467 0.122291 -0.736922 0
M  V30 264 H 27.2087 -0.397802 -1.90797 0
M  V30 265 H 26.3047 0.603061 -3.06218 0
M  V30 266 N 26.6058 1.57591 -0.0167156 0
M  V30 267 C 27.8528 1.91283 0.664597 0
M  V30 268 C 28.1808 0.891949 1.72842 0
M  V30 269 O 27.4358 -0.100931 1.9544 0
M  V30 270 C 27.7348 3.3172 1.33029 0
M  V30 271 C 27.4008 4.4914 0.398047 0
M  V30 272 C 26.0628 4.80992 0.141421 0
M  V30 273 C 28.4148 5.20634 -0.242825 0
M  V30 274 C 25.7428 5.81703 -0.764092 0
M  V30 275 C 28.0948 6.22311 -1.13632 0
M  V30 276 C 26.7588 6.52611 -1.40196 0
M  V30 277 H 26.0288 0.699956 0.243193 0
M  V30 278 H 28.6758 1.9135 -0.0758267 0
M  V30 279 H 26.9808 3.27856 2.14517 0
M  V30 280 H 28.6778 3.55055 1.86379 0
M  V30 281 H 25.2678 4.24262 0.608238 0
M  V30 282 H 29.4518 4.96267 -0.0576019 0
M  V30 283 H 24.7078 6.03532 -0.977732 0
M  V30 284 H 28.8818 6.76834 -1.63917 0
M  V30 285 H 26.5088 7.30467 -2.10529 0
M  V30 286 N 28.0839 -0.256276 1.55502 0
M  V30 287 C 29.0469 -1.30047 1.88734 0
M  V30 288 C 30.0469 -1.4154 0.763086 0
M  V30 289 O 31.2369 -1.40403 1.03115 0
M  V30 290 C 28.3689 -2.67953 2.10747 0
M  V30 291 H 29.5619 -1.01802 2.82093 0
M  V30 292 H 27.1149 -0.495134 1.4825 0
M  V30 293 H 27.8499 -3.01351 1.19825 0
M  V30 294 H 27.6349 -2.60993 2.92617 0
M  V30 295 H 29.1249 -3.43368 2.37673 0
M  V30 296 N 29.562 -1.4872 -0.521534 0
M  V30 297 C 30.509 -1.63871 -1.62527 0
M  V30 298 C 31.479 -0.480559 -1.58996 0
M  V30 299 O 32.664 -0.705085 -1.77294 0
M  V30 300 C 29.804 -1.69227 -3.00759 0
M  V30 301 C 28.917 -2.96207 -3.14461 0
M  V30 302 C 28.052 -2.92671 -4.43303 0
M  V30 303 C 27.091 -4.14318 -4.50563 0
M  V30 304 N 26.228 -4.0881 -5.70805 0
M  V30 305 H 31.068 -2.58123 -1.48918 0
M  V30 306 H 28.605 -1.28 -0.724878 0
M  V30 307 H 30.563 -1.70314 -3.80853 0
M  V30 308 H 29.193 -0.784586 -3.1312 0
M  V30 309 H 28.245 -3.04826 -2.27564 0
M  V30 310 H 29.557 -3.86192 -3.15686 0
M  V30 311 H 28.711 -2.92206 -5.31696 0
M  V30 312 H 27.45 -2.00429 -4.44612 0
M  V30 313 H 26.455 -4.15049 -3.60575 0
M  V30 314 H 27.68 -5.07729 -4.50986 0
M  V30 315 H 25.626 -3.19394 -5.72995 0
M  V30 316 H 25.543 -4.92509 -5.7356 0
M  V30 317 H 26.811 -4.12418 -6.61462 0
M  V30 318 N 31.0401 0.771051 -1.3745 0
M  V30 319 C 31.9721 1.89352 -1.29146 0
M  V30 320 C 32.9851 1.61477 -0.207124 0
M  V30 321 O 34.1741 1.72382 -0.463324 0
M  V30 322 C 31.2741 3.24596 -0.974195 0
M  V30 323 C 30.4471 3.80111 -2.16413 0
M  V30 324 C 29.5061 4.93832 -1.81703 0
M  V30 325 O 28.5321 5.09382 -2.54006 0
M  V30 326 N 29.7341 5.75483 -0.761573 0
M  V30 327 H 32.4991 1.96991 -2.25864 0
M  V30 328 H 30.0601 0.950191 -1.31084 0
M  V30 329 H 32.0521 3.98193 -0.722828 0
M  V30 330 H 30.6221 3.12454 -0.0955527 0
M  V30 331 H 29.8421 2.98284 -2.57721 0
M  V30 332 H 31.1301 4.13932 -2.95867 0
M  V30 333 H 30.5281 5.65469 -0.161609 0
M  V30 334 H 29.0851 6.49302 -0.570064 0
M  V30 335 N 32.5182 1.22032 0.997298 0
M  V30 336 C 33.7482 1.06686 1.76923 0
M  V30 337 C 34.1562 -0.385838 1.85224 0
M  V30 338 O 33.4992 -1.27929 1.31833 0
M  V30 339 C 33.5612 1.59802 3.22031 0
M  V30 340 C 33.2252 3.08362 3.37286 0
M  V30 341 C 34.2222 4.05835 3.24952 0
M  V30 342 C 31.9072 3.47727 3.6248 0
M  V30 343 C 33.9012 5.4066 3.37588 0
M  V30 344 C 31.5882 4.82701 3.74757 0
M  V30 345 C 32.5862 5.78977 3.62319 0
M  V30 346 O 32.2742 7.11502 3.74193 0
M  V30 347 H 32.0062 0.374767 0.562606 0
M  V30 348 H 34.5602 1.61991 1.26286 0
M  V30 349 H 32.7902 0.989003 3.73839 0
M  V30 350 H 34.4792 1.40184 3.80924 0
M  V30 351 H 35.2452 3.76766 3.05405 0
M  V30 352 H 31.1242 2.73317 3.7124 0
M  V30 353 H 34.6682 6.15788 3.27796 0
M  V30 354 H 30.5652 5.11453 3.9381 0
M  V30 355 H 31.3332 7.19019 3.91093 0
M  V30 356 N 33.9963 -1.19345 1.0293 0
M  V30 357 C 35.2263 -1.92717 0.744563 0
M  V30 358 C 35.6343 -1.75751 -0.700579 0
M  V30 359 O 34.9773 -1.07703 -1.48815 0
M  V30 360 C 35.0393 -3.44828 1.01657 0
M  V30 361 C 34.7033 -3.85564 2.45335 0
M  V30 362 C 35.7003 -3.90286 3.43472 0
M  V30 363 C 33.3853 -4.1719 2.79746 0
M  V30 364 C 35.3793 -4.26065 4.74075 0
M  V30 365 C 33.0663 -4.52642 4.10559 0
M  V30 366 C 34.0643 -4.57054 5.07534 0
M  V30 367 O 33.7523 -4.91685 6.36004 0
M  V30 368 H 33.4843 -0.618977 0.271742 0
M  V30 369 H 36.0383 -1.52415 1.37691 0
M  V30 370 H 34.2683 -3.85314 0.327084 0
M  V30 371 H 35.9573 -3.99437 0.721427 0
M  V30 372 H 36.7233 -3.66002 3.18225 0
M  V30 373 H 32.6023 -4.1294 2.04943 0
M  V30 374 H 36.1463 -4.29423 5.49765 0
M  V30 375 H 32.0433 -4.76383 4.35579 0
M  V30 376 H 32.8113 -5.09631 6.40483 0
M  V30 377 N 35.4744 -0.807222 -1.35358 0
M  V30 378 C 36.4224 -0.20614 -2.31685 0
M  V30 379 C 37.4164 0.644445 -1.56663 0
M  V30 380 O 38.6224 0.537538 -1.71786 0
M  V30 381 H 34.9974 -0.0479006 -0.750473 0
M  V30 382 H 36.9684 -1.03369 -2.79924 0
M  V30 383 C 35.7174 0.630212 -3.41941 0
M  V30 384 H 35.0404 -0.0149558 -3.99797 0
M  V30 385 H 36.4804 1.01716 -4.11619 0
M  V30 386 C 34.9394 1.79601 -2.85035 0
M  V30 387 O 35.4694 2.89351 -2.78637 0
M  V30 388 N 33.6754 1.60774 -2.42074 0
M  V30 389 H 33.2224 0.715009 -2.47478 0
M  V30 390 H 33.1804 2.38933 -2.04349 0
M  V30 391 N 36.9525 1.47285 -0.560781 0
M  V30 392 C 37.8825 2.32857 0.173105 0
M  V30 393 C 38.8635 1.44009 0.905281 0
M  V30 394 O 40.0485 1.7286 0.885046 0
M  V30 395 C 37.1785 3.25861 1.20133 0
M  V30 396 C 36.1325 4.23978 0.585388 0
M  V30 397 C 35.4585 5.06332 1.7185 0
M  V30 398 C 36.7585 5.20242 -0.463178 0
M  V30 399 H 38.4525 2.94466 -0.541307 0
M  V30 400 H 35.9985 1.41601 -0.261764 0
M  V30 401 H 37.9515 3.84569 1.72293 0
M  V30 402 H 36.6755 2.62315 1.94573 0
M  V30 403 H 35.3345 3.66501 0.085054 0
M  V30 404 H 34.9825 4.39186 2.45203 0
M  V30 405 H 34.6825 5.72762 1.31213 0
M  V30 406 H 36.2065 5.67899 2.24329 0
M  V30 407 H 37.6205 5.73293 -0.027502 0
M  V30 408 H 36.0175 5.94896 -0.788627 0
M  V30 409 H 37.0875 4.65504 -1.35773 0
M  V30 410 N 38.4306 0.297415 1.54768 0
M  V30 411 C 39.3806 -0.595275 2.20092 0
M  V30 412 C 40.3646 -1.10163 1.17273 0
M  V30 413 O 41.5566 -1.043 1.43006 0
M  V30 414 C 38.6856 -1.7684 2.94249 0
M  V30 415 C 37.7716 -1.27818 4.0438 0
M  V30 416 N 38.1626 -0.505695 5.03266 0
M  V30 417 C 36.4606 -1.55923 4.17857 0
M  V30 418 C 37.1616 -0.245094 5.81183 0
M  V30 419 N 36.1376 -0.823881 5.3732 0
M  V30 420 H 39.9396 0.00250837 2.939 0
M  V30 421 H 37.4536 0.102007 1.62079 0
M  V30 422 H 39.4506 -2.41944 3.39513 0
M  V30 423 H 38.1106 -2.36992 2.21957 0
M  V30 424 H 39.1216 -0.150928 5.1768 0
M  V30 425 H 35.7986 -2.16849 3.56767 0
M  V30 426 H 37.1886 0.375084 6.70852 0
M  V30 427 N 39.9087 -1.5758 0.0250728 0
M  V30 428 C 41.1387 -1.95646 -0.663783 0
M  V30 429 C 41.5467 -0.899935 -1.66427 0
M  V30 430 O 40.8897 0.127191 -1.83259 0
M  V30 431 C 40.9517 -3.29835 -1.43 0
M  V30 432 C 40.6157 -4.53197 -0.588305 0
M  V30 433 C 41.6127 -5.19726 0.13469 0
M  V30 434 C 39.2977 -4.99529 -0.526897 0
M  V30 435 C 41.2917 -6.30902 0.90781 0
M  V30 436 C 38.9787 -6.10589 0.24993 0
M  V30 437 C 39.9767 -6.76134 0.965994 0
M  V30 438 O 39.6647 -7.85062 1.7301 0
M  V30 439 H 39.3967 -0.649282 -0.188174 0
M  V30 440 H 41.9507 -2.05245 0.0799006 0
M  V30 441 H 40.1807 -3.16716 -2.21873 0
M  V30 442 H 41.8697 -3.52833 -2.00658 0
M  V30 443 H 42.6357 -4.84904 0.0965562 0
M  V30 444 H 38.5147 -4.48319 -1.07381 0
M  V30 445 H 42.0587 -6.81995 1.46724 0
M  V30 446 H 37.9557 -6.44849 0.289795 0
M  V30 447 H 38.7237 -8.01708 1.64944 0
M  V30 448 N 41.3868 0.248026 -1.55636 0
M  V30 449 C 42.8028 0.596483 -1.48035 0
M  V30 450 C 43.0028 1.88386 -0.715039 0
M  V30 451 O 42.0588 2.51319 -0.243944 0
M  V30 452 C 43.3718 0.700258 -2.92433 0
M  V30 453 C 44.9198 0.792659 -3.02797 0
M  V30 454 C 45.3948 0.928005 -4.485 0
M  V30 455 N 46.8858 0.992903 -4.52433 0
M  V30 456 C 47.6208 1.11687 -5.62418 0
M  V30 457 N 47.1168 1.20645 -6.82214 0
M  V30 458 N 48.9098 1.14994 -5.50212 0
M  V30 459 H 41.0608 -0.597109 -2.03834 0
M  V30 460 H 43.3238 -0.205925 -0.925364 0
M  V30 461 H 43.0298 -0.175658 -3.51261 0
M  V30 462 H 42.9038 1.57255 -3.42857 0
M  V30 463 H 45.2908 1.65903 -2.4405 0
M  V30 464 H 45.3718 -0.104762 -2.55585 0
M  V30 465 H 45.0158 0.0661971 -5.07857 0
M  V30 466 H 44.9458 1.84045 -4.93391 0
M  V30 467 H 47.4368 0.935064 -3.66149 0
M  V30 468 H 47.7498 1.30008 -7.61786 0
M  V30 469 H 46.0948 1.17605 -6.84977 0
M  V30 470 H 49.2858 1.07643 -4.55555 0
M  V30 471 H 49.4588 1.24311 -6.35965 0
M  V30 472 N 42.8649 1.48995 0.513639 0
M  V30 473 C 43.8279 1.64229 1.59879 0
M  V30 474 C 44.8279 0.514696 1.5234 0
M  V30 475 O 46.0179 0.78087 1.55718 0
M  V30 476 C 43.1499 1.62783 2.99524 0
M  V30 477 H 44.3429 2.61004 1.47705 0
M  V30 478 H 41.8959 1.37837 0.736936 0
M  V30 479 H 42.6309 0.675461 3.17188 0
M  V30 480 H 42.4159 2.4466 3.06404 0
M  V30 481 H 43.9059 1.76669 3.78388 0
M  V30 482 N 44.343 -0.763751 1.37857 0
M  V30 483 C 45.29 -1.87726 1.34267 0
M  V30 484 C 46.26 -1.64807 0.206879 0
M  V30 485 O 47.445 -1.86613 0.397508 0
M  V30 486 C 44.585 -3.24896 1.16346 0
M  V30 487 C 43.698 -3.59716 2.39225 0
M  V30 488 C 42.833 -4.86137 2.14114 0
M  V30 489 C 41.872 -5.13711 3.32817 0
M  V30 490 N 41.009 -6.31323 3.07206 0
M  V30 491 H 45.849 -1.90129 2.29466 0
M  V30 492 H 43.386 -0.929433 1.14017 0
M  V30 493 H 45.344 -4.04036 1.03975 0
M  V30 494 H 43.974 -3.21847 0.247909 0
M  V30 495 H 43.026 -2.75498 2.62307 0
M  V30 496 H 44.338 -3.76027 3.27728 0
M  V30 497 H 43.492 -5.73198 1.9882 0
M  V30 498 H 42.231 -4.71945 1.22961 0
M  V30 499 H 41.236 -4.25123 3.48641 0
M  V30 500 H 42.461 -5.29807 4.24832 0
M  V30 501 H 40.407 -6.18474 2.1869 0
M  V30 502 H 40.324 -6.48087 3.89254 0
M  V30 503 H 41.592 -7.213 2.95546 0
M  V30 504 N 45.8211 -1.22559 -0.990812 0
M  V30 505 C 46.7511 -1.0218 -2.09956 0
M  V30 506 C 47.7321 0.0579394 -1.70001 0
M  V30 507 O 48.9171 -0.104684 -1.93918 0
M  V30 508 C 46.0471 -0.601023 -3.4206 0
M  V30 509 C 45.0011 -1.62694 -3.95872 0
M  V30 510 C 44.3271 -1.06193 -5.24049 0
M  V30 511 C 45.6271 -3.01743 -4.2632 0
M  V30 512 H 47.3211 -1.94916 -2.27262 0
M  V30 513 H 44.8671 -0.938566 -1.09211 0
M  V30 514 H 46.8201 -0.445561 -4.19038 0
M  V30 515 H 45.5441 0.362005 -3.24588 0
M  V30 516 H 44.2031 -1.77021 -3.21028 0
M  V30 517 H 43.8511 -0.0901903 -5.02919 0
M  V30 518 H 43.5511 -1.74732 -5.61019 0
M  V30 519 H 45.0751 -0.918092 -6.03658 0
M  V30 520 H 46.4891 -2.90777 -4.94087 0
M  V30 521 H 44.8861 -3.67425 -4.74467 0
M  V30 522 H 45.9561 -3.51518 -3.34011 0
M  V30 523 N 47.2992 1.18797 -1.03562 0
M  V30 524 C 48.5482 1.87978 -0.731235 0
M  V30 525 C 48.8612 1.80911 0.743671 0
M  V30 526 O 50.0672 2.45407 1.16137 0
M  V30 527 C 48.5232 3.3721 -1.25768 0
M  V30 528 C 48.1312 3.52818 -2.76085 0
M  V30 529 C 49.8752 4.11825 -1.0296 0
M  V30 530 C 47.7822 4.9598 -3.22114 0
M  V30 531 H 46.7122 0.704063 -0.269835 0
M  V30 532 H 49.3632 1.34266 -1.25079 0
M  V30 533 H 47.7452 3.90359 -0.666011 0
M  V30 534 H 48.9192 3.09965 -3.40966 0
M  V30 535 H 47.2342 2.91602 -2.97249 0
M  V30 536 H 49.8312 5.17411 -1.34869 0
M  V30 537 H 50.1742 4.16287 0.0333546 0
M  V30 538 H 50.7072 3.64833 -1.58562 0
M  V30 539 H 47.4462 4.96684 -4.27768 0
M  V30 540 H 46.9662 5.39569 -2.61965 0
M  V30 541 H 48.6452 5.6467 -3.15844 0
M  V30 542 N 48.7773 0.814389 1.34928 0
M  V30 543 C 50.0023 0.410097 2.03305 0
M  V30 544 C 50.4273 -0.973464 1.60951 0
M  V30 545 O 49.7853 -1.63185 0.789964 0
M  V30 546 C 49.8333 0.51049 3.56968 0
M  V30 547 O 48.9373 -0.473035 4.09678 0
M  V30 548 H 48.2783 0.170088 0.641846 0
M  V30 549 H 50.8083 1.10244 1.72358 0
M  V30 550 H 50.8183 0.383135 4.06197 0
M  V30 551 H 49.4933 1.51963 3.87144 0
M  V30 552 H 48.0703 -0.305272 3.71648 0
M  V30 553 N 50.2554 -1.46986 0.568584 0
M  V30 554 C 51.5324 -1.95592 -0.0174074 0
M  V30 555 C 51.9124 -1.51124 -1.47393 0
M  V30 556 O 51.2604 -0.755329 -2.15655 0
M  V30 557 C 51.4704 -3.48719 0.139913 0
M  V30 558 C 52.8184 -4.246 0.000426376 0
M  V30 559 O 53.8424 -3.56135 0.0680316 0
M  V30 560 O 52.7014 -5.46302 -0.146988 0
M  V30 561 H 49.7954 -0.82498 -0.0577599 0
M  V30 562 H 52.3414 -1.57335 0.635909 0
M  V30 563 H 51.1134 -3.73927 1.15301 0
M  V30 564 H 50.7364 -3.93771 -0.550491 0
M  V30 565 N 51.7335 -0.305618 -1.54608 0
M  V30 566 C 52.6635 0.561482 -2.26649 0
M  V30 567 C 53.6445 1.13415 -1.26772 0
M  V30 568 O 54.8295 1.16262 -1.55553 0
M  V30 569 C 51.9595 1.73122 -3.01075 0
M  V30 570 C 50.9135 1.2887 -4.08138 0
M  V30 571 C 50.2395 2.54396 -4.70305 0
M  V30 572 C 51.5395 0.416578 -5.20636 0
M  V30 573 H 53.2335 -0.0393902 -2.99374 0
M  V30 574 H 50.7795 -0.020385 -1.43986 0
M  V30 575 H 52.7325 2.34396 -3.50195 0
M  V30 576 H 51.4565 2.3584 -2.25936 0
M  V30 577 H 50.1155 0.698991 -3.59875 0
M  V30 578 H 49.7635 3.15439 -3.918 0
M  V30 579 H 49.4635 2.25486 -5.42614 0
M  V30 580 H 50.9875 3.16464 -5.2219 0
M  V30 581 H 52.4015 0.935116 -5.65622 0
M  V30 582 H 50.7985 0.221046 -5.99693 0
M  V30 583 H 51.8685 -0.557162 -4.81688 0
M  V30 584 N 53.2116 1.57565 -0.0334293 0
M  V30 585 C 54.1416 2.13511 0.945265 0
M  V30 586 C 55.1226 1.05231 1.33643 0
M  V30 587 O 56.3076 1.33084 1.41429 0
M  V30 588 C 53.4376 2.6657 2.22616 0
M  V30 589 C 52.3916 3.79676 1.97561 0
M  V30 590 C 51.7176 4.1918 3.31952 0
M  V30 591 C 53.0176 5.0557 1.31135 0
M  V30 592 H 54.7116 2.95538 0.479325 0
M  V30 593 H 52.2576 1.42166 0.229115 0
M  V30 594 H 54.2106 3.04344 2.91466 0
M  V30 595 H 52.9346 1.8171 2.71384 0
M  V30 596 H 51.5936 3.42347 1.31127 0
M  V30 597 H 51.2416 3.31296 3.78487 0
M  V30 598 H 50.9416 4.95402 3.15992 0
M  V30 599 H 52.4656 4.59541 4.02063 0
M  V30 600 H 53.8796 5.40903 1.89992 0
M  V30 601 H 52.2766 5.86818 1.25559 0
M  V30 602 H 53.3466 4.84062 0.284894 0
M  V30 603 N 54.6897 -0.239769 1.55765 0
M  V30 604 C 55.9377 -0.964892 1.77579 0
M  V30 605 C 56.2587 -1.85582 0.598699 0
M  V30 606 O 55.5287 -1.92075 -0.385226 0
M  V30 607 H 54.1087 -0.359265 0.654933 0
M  V30 608 H 56.7707 -0.256001 1.93211 0
M  V30 609 H 55.8667 -1.58243 2.69009 0
M  V30 610 N 56.1678 -1.49265 -0.50573 0
M  V30 611 C 57.1308 -1.65075 -1.59006 0
M  V30 612 C 58.1308 -0.522768 -1.52065 0
M  V30 613 O 59.3208 -0.789117 -1.55302 0
M  V30 614 C 56.4528 -1.64369 -2.98656 0
M  V30 615 H 57.6458 -2.61784 -1.46319 0
M  V30 616 H 55.1988 -1.38226 -0.729616 0
M  V30 617 H 55.9338 -0.692272 -3.16825 0
M  V30 618 H 55.7188 -2.46282 -3.05103 0
M  V30 619 H 57.2088 -1.78674 -3.77446 0
M  V30 620 N 57.6459 0.756429 -1.3826 0
M  V30 621 C 58.5929 1.87011 -1.35261 0
M  V30 622 C 59.5629 1.64695 -0.215616 0
M  V30 623 O 60.7479 1.864 -0.407399 0
M  V30 624 C 57.8879 3.24275 -1.18068 0
M  V30 625 C 57.0009 3.58442 -2.41129 0
M  V30 626 C 56.1359 4.84994 -2.16689 0
M  V30 627 C 55.1749 5.11939 -3.35537 0
M  V30 628 N 54.3119 6.29685 -3.10549 0
M  V30 629 H 59.1519 1.8891 -2.30472 0
M  V30 630 H 56.6889 0.923373 -1.14509 0
M  V30 631 H 58.6469 4.03479 -1.06116 0
M  V30 632 H 57.2769 3.21711 -0.264973 0
M  V30 633 H 56.3289 2.74103 -2.63764 0
M  V30 634 H 57.6409 3.74283 -3.29717 0
M  V30 635 H 56.7949 5.72135 -2.01857 0
M  V30 636 H 55.5339 4.71286 -1.25462 0
M  V30 637 H 54.5389 4.23268 -3.50891 0
M  V30 638 H 55.7639 5.27546 -4.27635 0
M  V30 639 H 53.7099 6.17306 -2.21967 0
M  V30 640 H 53.6269 6.46014 -3.92686 0
M  V30 641 H 54.8949 7.19722 -2.99367 0
M  V30 642 N 59.124 1.23083 0.984299 0
M  V30 643 C 60.034 1.02515 2.11016 0
M  V30 644 C 61.05 -0.0291702 1.73976 0
M  V30 645 O 62.226 0.165434 2.00719 0
M  V30 646 C 59.291 0.614673 3.41208 0
M  V30 647 C 58.352 1.74359 3.92297 0
M  V30 648 C 57.585 1.35261 5.16275 0
M  V30 649 O 57.808 0.235136 5.69915 0
M  V30 650 O 56.742 2.17227 5.61334 0
M  V30 651 H 60.568 1.96862 2.31255 0
M  V30 652 H 58.153 1.01753 1.09392 0
M  V30 653 H 60.035 0.396518 4.1953 0
M  V30 654 H 58.71 -0.299851 3.22308 0
M  V30 655 H 57.617 2.01635 3.1511 0
M  V30 656 H 58.95 2.63629 4.15645 0
M  V30 657 N 60.6021 -1.18246 1.0419 0
M  V30 658 C 61.5651 -2.20128 0.638452 0
M  V30 659 C 62.5651 -1.57885 -0.304805 0
M  V30 660 O 63.7551 -1.73967 -0.0900369 0
M  V30 661 C 60.8871 -3.4084 -0.0637751 0
M  V30 662 H 62.0801 -2.57336 1.54007 0
M  V30 663 H 59.6331 -1.32152 0.834598 0
M  V30 664 H 60.3681 -3.09166 -0.979136 0
M  V30 665 H 60.1531 -3.8726 0.614198 0
M  V30 666 H 61.6431 -4.16274 -0.332512 0
M  V30 667 N 62.0802 -0.821533 -1.34494 0
M  V30 668 C 63.0432 -0.247847 -2.27856 0
M  V30 669 C 64.0432 0.573453 -1.50227 0
M  V30 670 O 65.2332 0.389759 -1.69784 0
M  V30 671 C 62.3652 0.652698 -3.34593 0
M  V30 672 H 63.5582 -1.07146 -2.80107 0
M  V30 673 H 61.1112 -0.593291 -1.44602 0
M  V30 674 H 61.8462 1.49943 -2.87555 0
M  V30 675 H 61.6312 0.065292 -3.92046 0
M  V30 676 H 63.1212 1.04793 -4.04238 0
M  V30 677 N 63.5583 1.46682 -0.576371 0
M  V30 678 C 64.8043 2.02712 -0.0596221 0
M  V30 679 C 65.1373 1.44765 1.29448 0
M  V30 680 O 64.4123 0.610355 1.84675 0
M  V30 681 C 64.6953 3.60098 0.0129503 0
M  V30 682 C 64.5483 4.28441 -1.3696 0
M  V30 683 C 65.8673 4.34224 0.71678 0
M  V30 684 H 62.9863 0.736637 -0.0231407 0
M  V30 685 H 65.6283 1.74898 -0.742351 0
M  V30 686 H 63.7783 3.83926 0.594378 0
M  V30 687 H 65.4503 4.15896 -1.9957 0
M  V30 688 H 63.6933 3.8805 -1.93907 0
M  V30 689 H 64.3643 5.3716 -1.27135 0
M  V30 690 H 66.8403 4.15503 0.222908 0
M  V30 691 H 65.7163 5.43936 0.73657 0
M  V30 692 H 65.9773 4.04823 1.77682 0
M  V30 693 N 65.0364 0.313813 1.54444 0
M  V30 694 C 66.3134 -0.345447 1.92525 0
M  V30 695 C 66.6934 -1.70667 1.24242 0
M  V30 696 O 66.0414 -2.25273 0.382654 0
M  V30 697 C 66.2514 -0.44737 3.46121 0
M  V30 698 C 67.5994 -0.712238 4.18584 0
M  V30 699 O 68.6234 -0.530678 3.52225 0
M  V30 700 O 67.4824 -1.06183 5.36085 0
M  V30 701 H 64.5764 -0.195407 0.803583 0
M  V30 702 H 67.1224 0.362813 1.65776 0
M  V30 703 H 65.8944 0.509043 3.87975 0
M  V30 704 H 65.5174 -1.20359 3.78945 0
M  V30 705 N 66.5145 -1.57545 0.0417849 0
M  V30 706 C 67.7615 -1.92317 -0.634082 0
M  V30 707 C 68.0895 -0.919334 -1.71402 0
M  V30 708 O 67.3445 0.0698253 -1.95575 0
M  V30 709 C 67.6435 -3.33794 -1.27735 0
M  V30 710 C 67.3095 -4.49716 -0.326543 0
M  V30 711 C 65.9715 -4.81156 -0.0648814 0
M  V30 712 C 68.3235 -5.20182 0.325623 0
M  V30 713 C 65.6515 -5.80414 0.856539 0
M  V30 714 C 68.0035 -6.20424 1.23518 0
M  V30 715 C 66.6675 -6.50298 1.5056 0
M  V30 716 H 65.9375 -0.703736 -0.232027 0
M  V30 717 H 68.5845 -1.91205 0.106259 0
M  V30 718 H 66.8895 -3.31228 -2.09274 0
M  V30 719 H 68.5865 -3.57975 -1.80707 0
M  V30 720 H 65.1765 -4.25176 -0.540665 0
M  V30 721 H 69.3605 -4.96112 0.136546 0
M  V30 722 H 64.6165 -6.019 1.07363 0
M  V30 723 H 68.7905 -6.74141 1.74664 0
M  V30 724 H 66.4175 -7.27025 2.22123 0
M  V30 725 N 67.9926 0.231505 -1.5589 0
M  V30 726 C 69.2176 0.978689 -1.82856 0
M  V30 727 C 69.6426 1.77559 -0.620846 0
M  V30 728 O 69.0006 1.76119 0.430305 0
M  V30 729 C 69.0486 1.87997 -3.07716 0
M  V30 730 O 68.1526 2.97393 -2.85712 0
M  V30 731 H 67.4936 0.277663 -0.603158 0
M  V30 732 H 70.0236 0.24783 -2.03093 0
M  V30 733 H 70.0336 2.2917 -3.37558 0
M  V30 734 H 68.7086 1.29417 -3.95252 0
M  V30 735 H 67.2856 2.60238 -2.67078 0
M  V30 736 N 69.4707 1.49531 0.497807 0
M  V30 737 C 70.4187 1.66926 1.61983 0
M  V30 738 C 71.4127 0.535167 1.60724 0
M  V30 739 O 72.6187 0.714896 1.65195 0
M  V30 740 H 68.9937 0.526415 0.537021 0
M  V30 741 H 70.9647 2.61098 1.44465 0
M  V30 742 C 69.7137 1.75602 3.00099 0
M  V30 743 H 69.0367 2.62244 3.01775 0
M  V30 744 H 70.4767 1.91807 3.78135 0
M  V30 745 C 68.9357 0.501543 3.33146 0
M  V30 746 O 69.4657 -0.371342 3.9998 0
M  V30 747 N 67.6717 0.363531 2.88317 0
M  V30 748 H 67.2187 1.07485 2.34104 0
M  V30 749 H 67.1767 -0.474728 3.10795 0
M  V30 750 N 70.9488 -0.749086 1.3866 0
M  V30 751 C 72.1788 -1.53611 1.38157 0
M  V30 752 C 72.5868 -1.89177 -0.0293595 0
M  V30 753 O 71.9298 -1.53606 -1.00752 0
M  V30 754 C 71.9918 -2.86087 2.17702 0
M  V30 755 C 71.6558 -2.73034 3.66472 0
M  V30 756 C 72.6528 -2.42526 4.59866 0
M  V30 757 C 70.3378 -2.90345 4.09884 0
M  V30 758 C 72.3318 -2.29492 5.94653 0
M  V30 759 C 70.0188 -2.7693 5.4475 0
M  V30 760 C 71.0168 -2.46547 6.36949 0
M  V30 761 O 70.7048 -2.33199 7.69333 0
M  V30 762 H 70.4368 -0.481773 0.474205 0
M  V30 763 H 72.9908 -0.934465 1.82912 0
M  V30 764 H 71.2208 -3.48458 1.67672 0
M  V30 765 H 72.9098 -3.47625 2.09551 0
M  V30 766 H 73.6758 -2.28816 4.27631 0
M  V30 767 H 69.5548 -3.1299 3.38464 0
M  V30 768 H 73.0988 -2.05698 6.66584 0
M  V30 769 H 68.9958 -2.90215 5.76581 0
M  V30 770 H 69.7638 -2.48376 7.79905 0
M  V30 771 N 72.4269 -1.23603 -0.977757 0
M  V30 772 C 73.3769 -0.986664 -2.05545 0
M  V30 773 C 74.3609 0.0683009 -1.60755 0
M  V30 774 O 75.5529 -0.144162 -1.76412 0
M  V30 775 C 72.6819 -0.582623 -3.3832 0
M  V30 776 C 71.7679 -1.67313 -3.89701 0
M  V30 777 N 72.1589 -2.90394 -4.14132 0
M  V30 778 C 70.4569 -1.54832 -4.18262 0
M  V30 779 C 71.1579 -3.61017 -4.56116 0
M  V30 780 N 70.1339 -2.8854 -4.60701 0
M  V30 781 H 73.9359 -1.92139 -2.22396 0
M  V30 782 H 71.4499 -1.1358 -1.16074 0
M  V30 783 H 73.4469 -0.38524 -4.15116 0
M  V30 784 H 72.1069 0.34503 -3.22862 0
M  V30 785 H 73.1179 -3.26673 -4.01877 0
M  V30 786 H 69.7949 -0.687969 -4.11793 0
M  V30 787 H 71.1849 -4.66544 -4.83514 0
M  V30 788 N 73.905 1.17692 -1.04816 0
M  V30 789 C 75.13 1.92327 -0.776207 0
M  V30 790 C 75.555 1.76082 0.661581 0
M  V30 791 O 74.913 1.076 1.45917 0
M  V30 792 C 74.961 3.41539 -1.15687 0
M  V30 793 O 74.065 4.11402 -0.286775 0
M  V30 794 H 73.406 0.599735 -0.284981 0
M  V30 795 H 75.936 1.49201 -1.4 0
M  V30 796 H 75.946 3.92269 -1.12202 0
M  V30 797 H 74.621 3.52684 -2.20425 0
M  V30 798 H 73.198 3.70939 -0.381903 0
M  V30 799 N 75.3831 0.828654 1.34056 0
M  V30 800 C 76.7941 0.477534 1.8049 0
M  V30 801 C 77.1451 -1.00258 1.6865 0
M  V30 802 O 76.2701 -1.78057 1.22982 0
M  V30 803 C 76.8651 0.860018 3.27703 0
M  V30 804 C 75.4241 0.561185 3.72193 0
M  V30 805 C 74.5711 1.07385 2.55663 0
M  V30 806 H 77.5221 1.0183 1.21722 0
M  V30 807 H 77.5431 0.166038 3.80138 0
M  V30 808 H 77.0551 1.93731 3.36288 0
M  V30 809 H 75.1561 -0.506465 3.69142 0
M  V30 810 H 75.2691 1.10926 4.66082 0
M  V30 811 H 73.6331 0.495149 2.49841 0
M  V30 812 H 74.4161 2.15771 2.67016 0
M  V30 813 N 76.8612 -1.46375 0.584142 0
M  V30 814 C 78.0862 -2.07268 0.0740405 0
M  V30 815 C 78.5112 -1.42979 -1.22223 0
M  V30 816 O 77.8692 -0.514092 -1.73859 0
M  V30 817 C 77.9172 -3.60518 -0.0767769 0
M  V30 818 O 77.0212 -3.96533 -1.13292 0
M  V30 819 H 76.3622 -0.660961 0.0634524 0
M  V30 820 H 78.8922 -1.87991 0.807492 0
M  V30 821 H 78.9022 -4.07021 -0.282489 0
M  V30 822 H 77.5772 -4.06702 0.86986 0
M  V30 823 H 76.1542 -3.61738 -0.905553 0
M  V30 824 N 78.3393 -0.321999 -1.54275 0
M  V30 825 C 79.5643 0.285791 -2.05422 0
M  V30 826 C 79.9893 1.45124 -1.19669 0
M  V30 827 O 79.3473 1.80132 -0.205441 0
M  V30 828 C 79.3953 0.69956 -3.53749 0
M  V30 829 O 78.4993 1.8021 -3.70942 0
M  V30 830 H 77.8403 0.0518962 -0.661969 0
M  V30 831 H 80.3703 -0.469954 -1.9913 0
M  V30 832 H 80.3803 0.982649 -3.9599 0
M  V30 833 H 79.0553 -0.152864 -4.15619 0
M  V30 834 H 77.6323 1.51794 -3.40607 0
M  V30 835 N 79.8174 1.5752 -0.0501392 0
M  V30 836 C 80.7504 2.07026 0.959962 0
M  V30 837 C 81.7284 0.970539 1.30458 0
M  V30 838 O 82.9124 1.2424 1.41763 0
M  V30 839 C 80.0394 2.5099 2.27424 0
M  V30 840 C 79.0854 3.72188 2.08275 0
M  V30 841 S 79.9184 5.17888 1.36207 0
M  V30 842 C 81.0744 5.65165 2.6896 0
M  V30 843 H 81.3074 2.9238 0.538631 0
M  V30 844 H 78.8404 1.53547 0.162099 0
M  V30 845 H 80.7984 2.76982 3.02971 0
M  V30 846 H 79.4594 1.65944 2.66686 0
M  V30 847 H 78.6524 4.00866 3.05487 0
M  V30 848 H 78.2544 3.46457 1.40868 0
M  V30 849 H 80.5464 5.70687 3.65133 0
M  V30 850 H 81.4894 6.64394 2.4492 0
M  V30 851 H 81.8974 4.9289 2.75172 0
M  V30 852 N 81.2955 -0.223234 1.56011 0
M  V30 853 C 82.2055 -1.29766 1.95443 0
M  V30 854 C 83.2215 -1.51373 0.858028 0
M  V30 855 O 84.3975 -1.64536 1.16146 0
M  V30 856 C 81.4625 -2.62772 2.26167 0
M  V30 857 C 80.5235 -2.49482 3.49367 0
M  V30 858 C 79.7565 -3.76145 3.78616 0
M  V30 859 O 79.9795 -4.79087 3.09568 0
M  V30 860 O 78.9135 -3.73358 4.72109 0
M  V30 861 H 82.7395 -0.99309 2.87004 0
M  V30 862 H 80.3245 -0.425958 1.43199 0
M  V30 863 H 82.2065 -3.41327 2.47131 0
M  V30 864 H 80.8815 -2.92913 1.37781 0
M  V30 865 H 79.7885 -1.69133 3.33684 0
M  V30 866 H 81.1215 -2.2428 4.38131 0
M  V30 867 N 82.7736 -1.49793 -0.48987 0
M  V30 868 C 83.6836 -1.70036 -1.61632 0
M  V30 869 C 84.6996 -0.583102 -1.63939 0
M  V30 870 O 85.8756 -0.859169 -1.82154 0
M  V30 871 C 82.9406 -1.77277 -2.97949 0
M  V30 872 C 82.0016 -3.00918 -3.06181 0
M  V30 873 C 81.2346 -3.07804 -4.35996 0
M  V30 874 O 81.4576 -2.21982 -5.25433 0
M  V30 875 O 80.3916 -4.00369 -4.49431 0
M  V30 876 H 84.2176 -2.65486 -1.47482 0
M  V30 877 H 81.8026 -1.33666 -0.667362 0
M  V30 878 H 83.6846 -1.84329 -3.78947 0
M  V30 879 H 82.3596 -0.850076 -3.12339 0
M  V30 880 H 81.2666 -2.99377 -2.2433 0
M  V30 881 H 82.5996 -3.92704 -2.96723 0
M  V30 882 N 84.2517 0.741722 -1.39055 0
M  V30 883 C 85.4767 1.53607 -1.39354 0
M  V30 884 C 85.9017 1.88096 0.0116905 0
M  V30 885 O 85.2597 1.5143 0.996924 0
M  V30 886 C 85.3077 2.80441 -2.26682 0
M  V30 887 O 84.4117 3.76088 -1.69208 0
M  V30 888 H 83.7527 0.464142 -0.474835 0
M  V30 889 H 86.2827 0.915665 -1.82967 0
M  V30 890 H 86.2927 3.29246 -2.40959 0
M  V30 891 H 84.9677 2.5467 -3.2881 0
M  V30 892 H 83.5447 3.34833 -1.64138 0
M  V30 893 N 85.7298 1.2412 0.971189 0
M  V30 894 C 86.6398 1.04747 2.09917 0
M  V30 895 C 87.6558 -0.0107162 1.73997 0
M  V30 896 O 88.8318 0.186714 2.00533 0
M  V30 897 C 85.8968 0.650828 3.40537 0
M  V30 898 C 84.9578 1.7851 3.90426 0
M  V30 899 C 84.1908 1.40729 5.14812 0
M  V30 900 O 84.4138 0.29557 5.69634 0
M  V30 901 O 83.3478 2.23168 5.58999 0
M  V30 902 H 87.1738 1.99304 2.29154 0
M  V30 903 H 84.7588 1.02908 1.08307 0
M  V30 904 H 86.6408 0.440992 4.19086 0
M  V30 905 H 85.3158 -0.265649 3.22608 0
M  V30 906 H 84.2228 2.04966 3.12953 0
M  V30 907 H 85.5558 2.68023 4.12825 0
M  V30 908 N 87.2079 -1.17134 1.05439 0
M  V30 909 C 88.4569 -1.86791 0.761049 0
M  V30 910 C 88.7699 -1.82072 -0.714795 0
M  V30 911 O 89.9759 -2.47223 -1.12218 0
M  V30 912 C 88.4319 -3.35166 1.31117 0
M  V30 913 C 88.0399 -3.48381 2.81664 0
M  V30 914 C 89.7839 -4.10134 1.09499 0
M  V30 915 C 87.6909 -4.90793 3.29964 0
M  V30 916 H 86.6209 -0.699681 0.281002 0
M  V30 917 H 89.2719 -1.3226 1.27199 0
M  V30 918 H 87.6539 -3.8925 0.72803 0
M  V30 919 H 88.8279 -3.04502 3.45855 0
M  V30 920 H 87.1429 -2.86836 3.01851 0
M  V30 921 H 89.7399 -5.152 1.43084 0
M  V30 922 H 90.0829 -4.16287 0.0328772 0
M  V30 923 H 90.6159 -3.62264 1.64346 0
M  V30 924 H 87.3549 -4.89816 4.35616 0
M  V30 925 H 86.8749 -5.35333 2.70516 0
M  V30 926 H 88.5539 -5.59573 3.24787 0
M  V30 927 N 88.686 -0.835752 -1.33615 0
M  V30 928 C 89.935 -0.426289 -1.97144 0
M  V30 929 C 90.248 1.01912 -1.66953 0
M  V30 930 O 91.454 1.53311 -2.24072 0
M  V30 931 C 89.91 -0.711321 -3.52801 0
M  V30 932 C 89.518 -2.1712 -3.91871 0
M  V30 933 C 91.262 -0.368654 -4.22896 0
M  V30 934 C 89.169 -2.40044 -5.40493 0
M  V30 935 H 88.099 -0.15567 -0.737755 0
M  V30 936 H 90.75 -1.0239 -1.52278 0
M  V30 937 H 89.132 -0.0433766 -3.95976 0
M  V30 938 H 90.306 -2.87936 -3.59763 0
M  V30 939 H 88.621 -2.47654 -3.34749 0
M  V30 940 H 91.218 -0.517601 -5.32189 0
M  V30 941 H 91.561 0.688078 -4.10574 0
M  V30 942 H 92.094 -0.991702 -3.8524 0
M  V30 943 H 88.833 -3.44271 -5.57815 0
M  V30 944 H 88.353 -1.73785 -5.74072 0
M  V30 945 H 90.032 -2.23042 -6.0734 0
M  V30 946 N 90.1641 1.46063 -0.591896 0
M  V30 947 C 91.4111 2.02338 -0.0809991 0
M  V30 948 C 91.7391 1.46228 1.28249 0
M  V30 949 O 90.9941 0.620818 1.85592 0
M  V30 950 C 91.2931 3.57391 0.0249813 0
M  V30 951 C 90.9591 4.32583 -1.27211 0
M  V30 952 C 89.6211 4.52844 -1.62745 0
M  V30 953 C 91.9731 4.75687 -2.13005 0
M  V30 954 C 89.3011 5.13462 -2.83855 0
M  V30 955 C 91.6531 5.37644 -3.3335 0
M  V30 956 C 90.3171 5.5613 -3.69155 0
M  V30 957 H 89.5871 0.740407 -0.0296397 0
M  V30 958 H 92.2341 1.75321 -0.770374 0
M  V30 959 H 90.5391 3.83597 0.797537 0
M  V30 960 H 92.2361 3.98621 0.436184 0
M  V30 961 H 88.8261 4.17116 -0.985499 0
M  V30 962 H 93.0101 4.59782 -1.86855 0
M  V30 963 H 88.2661 5.25965 -3.11722 0
M  V30 964 H 92.4401 5.7 -4.00092 0
M  V30 965 H 90.0671 6.0287 -4.63089 0
M  V30 966 N 91.6422 0.330177 1.54103 0
M  V30 967 C 92.9192 -0.325007 1.92881 0
M  V30 968 C 93.2992 -1.6934 1.26045 0
M  V30 969 O 92.6472 -2.24855 0.406526 0
M  V30 970 C 92.8572 -0.410634 3.46576 0
M  V30 971 C 94.2052 -0.667801 4.19316 0
M  V30 972 O 95.2292 -0.49329 3.52768 0
M  V30 973 O 94.0882 -1.00491 5.37181 0
M  V30 974 H 91.1822 -0.186873 0.80561 0
M  V30 975 H 93.7282 0.380376 1.65382 0
M  V30 976 H 92.5002 0.550164 3.87413 0
M  V30 977 H 92.1232 -1.16333 3.802 0
M  V30 978 N 93.1203 -1.57491 0.0584922 0
M  V30 979 C 94.0503 -2.14988 -0.911178 0
M  V30 980 C 95.0313 -1.07343 -1.31952 0
M  V30 981 O 96.2163 -1.35318 -1.39294 0
M  V30 982 C 93.3463 -2.70078 -2.18347 0
M  V30 983 C 92.3003 -3.82771 -1.91495 0
M  V30 984 C 91.6263 -4.24408 -3.25241 0
M  V30 985 C 92.9263 -5.07592 -1.23075 0
M  V30 986 H 94.6203 -2.96263 -0.432246 0
M  V30 987 H 92.1663 -1.42512 -0.206469 0
M  V30 988 H 94.1193 -3.08943 -2.86587 0
M  V30 989 H 92.8433 -1.86005 -2.68458 0
M  V30 990 H 91.5023 -3.44389 -1.25664 0
M  V30 991 H 91.1503 -3.37275 -3.73168 0
M  V30 992 H 90.8503 -5.00366 -3.08071 0
M  V30 993 H 92.3743 -4.65879 -3.94701 0
M  V30 994 H 93.7883 -5.43857 -1.81362 0
M  V30 995 H 92.1853 -5.88741 -1.16207 0
M  V30 996 H 93.2553 -4.84454 -0.207847 0
M  V30 997 N 94.5984 0.214957 -1.56127 0
M  V30 998 C 95.5284 1.2695 -1.95974 0
M  V30 999 C 96.5094 1.48539 -0.828868 0
M  V30 1000 O 97.6944 1.60611 -1.09168 0
M  V30 1001 C 94.8244 2.61794 -2.28214 0
M  V30 1002 C 93.7784 2.54851 -3.43853 0
M  V30 1003 C 93.1044 3.93785 -3.61715 0
M  V30 1004 C 94.4044 2.09065 -4.78632 0
M  V30 1005 H 96.0984 0.93846 -2.84312 0
M  V30 1006 H 93.6444 0.449996 -1.36788 0
M  V30 1007 H 95.5974 3.35731 -2.54682 0
M  V30 1008 H 94.3214 2.96599 -1.36736 0
M  V30 1009 H 92.9804 1.8337 -3.17444 0
M  V30 1010 H 92.6284 4.25908 -2.67602 0
M  V30 1011 H 92.3284 3.90019 -4.39498 0
M  V30 1012 H 93.8524 4.69374 -3.90539 0
M  V30 1013 H 95.2664 2.7275 -5.04262 0
M  V30 1014 H 93.6634 2.16346 -5.59745 0
M  V30 1015 H 94.7334 1.04315 -4.73547 0
M  V30 1016 N 96.0765 1.50051 0.48192 0
M  V30 1017 C 97.4925 1.37237 0.814756 0
M  V30 1018 C 97.6925 0.420109 1.97072 0
M  V30 1019 O 96.7485 -0.141246 2.52105 0
M  V30 1020 C 98.0615 2.78375 1.13701 0
M  V30 1021 C 99.6095 2.87213 1.2441 0
M  V30 1022 C 100.084 4.29161 1.59954 0
M  V30 1023 N 101.575 4.32061 1.66967 0
M  V30 1024 C 102.31 5.38879 1.95952 0
M  V30 1025 N 101.806 6.55918 2.23031 0
M  V30 1026 N 103.599 5.26312 1.97363 0
M  V30 1027 H 95.7505 2.10546 -0.28005 0
M  V30 1028 H 98.0135 0.945921 -0.0627454 0
M  V30 1029 H 97.7195 3.49845 0.360787 0
M  V30 1030 H 97.5935 3.14941 2.07586 0
M  V30 1031 H 99.9805 2.15969 2.01101 0
M  V30 1032 H 100.061 2.54204 0.285299 0
M  V30 1033 H 99.7055 5.00938 0.838067 0
M  V30 1034 H 99.6355 4.59648 2.56966 0
M  V30 1035 H 102.126 3.47661 1.48123 0
M  V30 1036 H 102.439 7.33139 2.44391 0
M  V30 1037 H 100.784 6.59112 2.20447 0
M  V30 1038 H 103.975 4.33876 1.75697 0
M  V30 1039 H 104.148 6.09649 2.19618 0
M  V30 1040 N 97.5546 -0.734337 1.39446 0
M  V30 1041 C 98.8316 -1.48579 1.27215 0
M  V30 1042 C 99.2116 -2.1077 -0.117968 0
M  V30 1043 O 98.5596 -1.98646 -1.12924 0
M  V30 1044 C 98.7696 -2.53667 2.39696 0
M  V30 1045 C 100.118 -3.20031 2.79044 0
M  V30 1046 O 101.142 -2.6398 2.39151 0
M  V30 1047 O 100.001 -4.21455 3.47905 0
M  V30 1048 H 97.0946 -0.659816 0.49857 0
M  V30 1049 H 99.6406 -0.768106 1.51322 0
M  V30 1050 H 98.4126 -2.06096 3.32626 0
M  V30 1051 H 98.0356 -3.32994 2.17258 0
M  V30 1052 N 99.0327 -1.24633 -0.964593 0
M  V30 1053 C 100.28 -1.08788 -1.70796 0
M  V30 1054 C 100.608 0.372783 -1.90894 0
M  V30 1055 O 99.8627 1.29167 -1.47018 0
M  V30 1056 C 100.162 -1.7763 -3.10133 0
M  V30 1057 C 99.8277 -3.27557 -3.09866 0
M  V30 1058 C 98.4897 -3.6846 -3.09501 0
M  V30 1059 C 100.842 -4.23389 -3.03959 0
M  V30 1060 C 98.1697 -5.03624 -3.00965 0
M  V30 1061 C 100.522 -5.58565 -2.96965 0
M  V30 1062 C 99.1857 -5.98809 -2.9493 0
M  V30 1063 H 98.4557 -0.398084 -0.624988 0
M  V30 1064 H 101.103 -1.54777 -1.12767 0
M  V30 1065 H 99.4077 -1.24044 -3.71645 0
M  V30 1066 H 101.105 -1.62832 -3.66451 0
M  V30 1067 H 97.6947 -2.95006 -3.10917 0
M  V30 1068 H 101.879 -3.92787 -3.03368 0
M  V30 1069 H 97.1347 -5.33998 -2.97752 0
M  V30 1070 H 101.309 -6.32523 -2.91354 0
M  V30 1071 H 98.9357 -7.03505 -2.88071 0
M  V30 1072 N 100.511 1.16574 -1.06058 0
M  V30 1073 C 101.443 2.2045 -0.627239 0
M  V30 1074 C 102.456 1.59752 0.313534 0
M  V30 1075 O 103.645 1.78192 0.104896 0
M  V30 1076 C 100.745 3.3875 0.100974 0
M  V30 1077 C 99.9178 4.29008 -0.852687 0
M  V30 1078 C 98.9768 5.25944 -0.164152 0
M  V30 1079 O 98.0028 5.63535 -0.801047 0
M  V30 1080 N 99.2048 5.70075 1.09518 0
M  V30 1081 H 101.97 2.58249 -1.52077 0
M  V30 1082 H 99.5308 1.3156 -0.943594 0
M  V30 1083 H 101.523 4.00638 0.57194 0
M  V30 1084 H 100.093 2.99476 0.89628 0
M  V30 1085 H 99.3128 3.64419 -1.50308 0
M  V30 1086 H 100.601 4.86195 -1.49972 0
M  V30 1087 H 99.9988 5.41624 1.6328 0
M  V30 1088 H 98.5558 6.34067 1.51006 0
M  V30 1089 N 101.989 0.842826 1.3317 0
M  V30 1090 C 102.899 0.281444 2.32906 0
M  V30 1091 C 103.915 -0.594587 1.63526 0
M  V30 1092 O 105.091 -0.49777 1.95152 0
M  V30 1093 C 102.156 -0.530929 3.42611 0
M  V30 1094 C 101.217 0.369843 4.27704 0
M  V30 1095 C 100.45 -0.403853 5.3217 0
M  V30 1096 O 100.673 -1.63513 5.46461 0
M  V30 1097 O 99.6069 0.224199 6.01482 0
M  V30 1098 H 103.433 1.10744 2.82789 0
M  V30 1099 H 101.018 0.60545 1.36582 0
M  V30 1100 H 102.9 -0.992437 4.09547 0
M  V30 1101 H 101.575 -1.33392 2.94938 0
M  V30 1102 H 100.482 0.879275 3.6362 0
M  V30 1103 H 101.815 1.13771 4.78871 0
M  V30 1104 N 103.467 -1.45747 0.599634 0
M  V30 1105 C 104.415 -2.322 -0.136426 0
M  V30 1106 C 105.409 -1.45497 -0.867583 0
M  V30 1107 O 106.615 -1.62027 -0.78405 0
M  V30 1108 H 102.99 -0.749368 -0.0628588 0
M  V30 1109 H 104.961 -2.92072 0.611281 0
M  V30 1110 C 103.71 -3.28974 -1.12567 0
M  V30 1111 H 103.033 -3.9568 -0.572484 0
M  V30 1112 H 104.473 -3.92212 -1.61077 0
M  V30 1113 C 102.932 -2.55561 -2.19523 0
M  V30 1114 O 103.462 -2.33111 -3.27143 0
M  V30 1115 N 101.668 -2.15832 -1.94589 0
M  V30 1116 H 101.215 -2.3429 -1.07078 0
M  V30 1117 H 101.173 -1.67034 -2.66359 0
M  V30 1118 N 104.945 -0.338344 -1.53925 0
M  V30 1119 C 105.875 0.51328 -2.27789 0
M  V30 1120 C 106.856 1.107 -1.29149 0
M  V30 1121 O 108.041 1.12937 -1.57984 0
M  V30 1122 C 105.171 1.66697 -3.04679 0
M  V30 1123 C 104.125 1.20183 -4.1078 0
M  V30 1124 C 103.451 2.44363 -4.75595 0
M  V30 1125 C 104.751 0.30605 -5.21403 0
M  V30 1126 H 106.445 -0.102883 -2.99223 0
M  V30 1127 H 103.991 -0.0509219 -1.4391 0
M  V30 1128 H 105.944 2.26915 -3.55088 0
M  V30 1129 H 104.668 2.30995 -2.30887 0
M  V30 1130 H 103.327 0.622499 -3.61276 0
M  V30 1131 H 102.975 3.07057 -3.98403 0
M  V30 1132 H 102.675 2.13925 -5.47275 0
M  V30 1133 H 104.199 3.05317 -5.28786 0
M  V30 1134 H 105.613 0.814929 -5.67478 0
M  V30 1135 H 104.01 0.0937929 -6.00027 0
M  V30 1136 H 105.08 -0.65921 -4.80398 0
M  V30 1137 N 106.423 1.57458 -0.0668435 0
M  V30 1138 C 107.355 2.09413 0.931601 0
M  V30 1139 C 108.368 1.02522 1.26464 0
M  V30 1140 O 109.557 1.30049 1.22269 0
M  V30 1141 C 106.657 2.53537 2.24882 0
M  V30 1142 C 105.83 3.83944 2.09537 0
M  V30 1143 C 104.889 4.14214 3.2452 0
M  V30 1144 O 103.915 4.83891 2.9973 0
M  V30 1145 N 105.117 3.67367 4.49469 0
M  V30 1146 H 107.882 2.95699 0.488048 0
M  V30 1147 H 105.443 1.61462 0.119009 0
M  V30 1148 H 107.435 2.70853 3.00701 0
M  V30 1149 H 106.005 1.72415 2.60753 0
M  V30 1150 H 105.225 3.76057 1.18215 0
M  V30 1151 H 106.513 4.69312 1.96529 0
M  V30 1152 H 105.911 3.11068 4.72497 0
M  V30 1153 H 104.468 3.89891 5.2233 0
M  V30 1154 N 107.901 -0.206675 1.56239 0
M  V30 1155 C 109.129 -0.945345 1.8404 0
M  V30 1156 C 109.544 -1.77336 0.647885 0
M  V30 1157 O 108.901 -1.78425 -0.383511 0
M  V30 1158 C 108.952 -1.8509 3.10522 0
M  V30 1159 O 108.673 -1.05634 4.25174 0
M  V30 1160 C 110.174 -2.70222 3.51418 0
M  V30 1161 H 107.394 -0.276372 0.61144 0
M  V30 1162 H 109.938 -0.217417 2.03341 0
M  V30 1163 H 108.093 -2.53259 2.93153 0
M  V30 1164 H 108.507 -1.67238 4.97124 0
M  V30 1165 H 109.981 -3.29438 4.42916 0
M  V30 1166 H 110.458 -3.43358 2.73864 0
M  V30 1167 H 111.064 -2.07443 3.71278 0
M  V30 1168 N 109.379 -1.50304 -0.473955 0
M  V30 1169 C 110.289 -1.7174 -1.5982 0
M  V30 1170 C 111.305 -0.600457 -1.63311 0
M  V30 1171 O 112.481 -0.878441 -1.81233 0
M  V30 1172 C 109.546 -1.80427 -2.96052 0
M  V30 1173 C 108.607 -3.04148 -3.02972 0
M  V30 1174 C 107.84 -3.12411 -4.32706 0
M  V30 1175 O 108.063 -2.27542 -5.23049 0
M  V30 1176 O 106.997 -4.05113 -4.45159 0
M  V30 1177 H 110.823 -2.67035 -1.44657 0
M  V30 1178 H 108.408 -1.34366 -0.653148 0
M  V30 1179 H 110.29 -1.88338 -3.7697 0
M  V30 1180 H 108.965 -0.883156 -3.11419 0
M  V30 1181 H 107.872 -3.0174 -2.21142 0
M  V30 1182 H 109.205 -3.95829 -2.92541 0
M  V30 1183 N 110.857 0.726932 -1.39834 0
M  V30 1184 C 111.804 1.841 -1.39197 0
M  V30 1185 C 112.774 1.642 -0.250502 0
M  V30 1186 O 113.959 1.85494 -0.446846 0
M  V30 1187 C 111.099 3.21697 -1.24919 0
M  V30 1188 C 110.212 3.53247 -2.48678 0
M  V30 1189 C 109.347 4.80289 -2.26928 0
M  V30 1190 C 108.386 5.04707 -3.4632 0
M  V30 1191 N 107.523 6.22956 -3.23836 0
M  V30 1192 H 112.363 1.83979 -2.34427 0
M  V30 1193 H 109.9 0.898876 -1.16442 0
M  V30 1194 H 111.858 4.01137 -1.1465 0
M  V30 1195 H 110.488 3.21076 -0.333153 0
M  V30 1196 H 109.54 2.68447 -2.69519 0
M  V30 1197 H 110.852 3.67205 -3.37582 0
M  V30 1198 H 110.006 5.67725 -2.13947 0
M  V30 1199 H 108.745 4.68519 -1.35431 0
M  V30 1200 H 107.75 4.1573 -3.5979 0
M  V30 1201 H 108.975 5.18357 -4.38729 0
M  V30 1202 H 106.921 6.12459 -2.35011 0
M  V30 1203 H 106.838 6.37539 -4.063 0
M  V30 1204 H 108.106 7.1321 -3.14566 0
M  V30 1205 N 112.336 1.25143 0.95797 0
M  V30 1206 C 113.576 1.10893 1.71703 0
M  V30 1207 C 113.94 -0.34478 1.88879 0
M  V30 1208 O 115.141 -0.609014 2.6181 0
M  V30 1209 C 113.412 1.83889 3.06463 0
M  V30 1210 S 114.971 1.85491 3.97666 0
M  V30 1211 H 111.789 0.396428 0.590226 0
M  V30 1212 H 114.391 1.58618 1.14283 0
M  V30 1213 H 113.095 2.88756 2.9163 0
M  V30 1214 H 112.626 1.36538 3.68946 0
M  V30 1215 H 114.641 0.929553 4.87415 0
M  V30 1216 N 113.814 -1.1601 1.06675 0
M  V30 1217 C 115.063 -1.85973 0.780818 0
M  V30 1218 C 115.376 -1.82819 -0.695444 0
M  V30 1219 O 116.582 -2.484 -1.09589 0
M  V30 1220 C 115.038 -3.33757 1.34665 0
M  V30 1221 C 114.646 -3.45374 2.85343 0
M  V30 1222 C 116.39 -4.0895 1.13843 0
M  V30 1223 C 114.297 -4.87266 3.35151 0
M  V30 1224 H 113.227 -0.696661 0.288407 0
M  V30 1225 H 115.878 -1.30903 1.28595 0
M  V30 1226 H 114.26 -3.88456 0.769274 0
M  V30 1227 H 115.434 -3.00816 3.49065 0
M  V30 1228 H 113.749 -2.83619 3.04876 0
M  V30 1229 H 116.346 -5.13654 1.4854 0
M  V30 1230 H 116.689 -4.16229 0.0770282 0
M  V30 1231 H 117.222 -3.605 1.68179 0
M  V30 1232 H 113.961 -4.85168 4.40786 0
M  V30 1233 H 113.481 -5.32433 2.76179 0
M  V30 1234 H 115.16 -5.56097 3.30704 0
M  V30 1235 N 115.292 -0.849877 -1.32721 0
M  V30 1236 C 116.539 -0.450923 -1.97416 0
M  V30 1237 C 116.867 0.992376 -1.67279 0
M  V30 1238 O 116.122 1.71048 -0.950845 0
M  V30 1239 C 116.421 -0.631272 -3.51781 0
M  V30 1240 C 116.087 -2.04432 -4.01894 0
M  V30 1241 C 114.749 -2.4308 -4.1529 0
M  V30 1242 C 117.101 -2.96679 -4.28522 0
M  V30 1243 C 114.429 -3.73257 -4.52654 0
M  V30 1244 C 116.781 -4.26349 -4.67343 0
M  V30 1245 C 115.445 -4.64939 -4.78945 0
M  V30 1246 H 114.715 -0.165004 -0.722395 0
M  V30 1247 H 117.362 -1.07901 -1.58207 0
M  V30 1248 H 115.667 0.0800767 -3.91718 0
M  V30 1249 H 117.364 -0.302709 -3.99856 0
M  V30 1250 H 113.954 -1.73419 -3.91949 0
M  V30 1251 H 118.138 -2.68054 -4.17685 0
M  V30 1252 H 113.394 -4.02946 -4.59831 0
M  V30 1253 H 117.568 -4.97895 -4.86902 0
M  V30 1254 H 115.195 -5.65855 -5.07654 0
M  V30 1255 N 116.77 1.45427 -0.607355 0
M  V30 1256 C 117.718 2.32269 0.12411 0
M  V30 1257 C 118.712 1.45955 0.859854 0
M  V30 1258 O 119.918 1.6244 0.775447 0
M  V30 1259 H 116.293 0.749691 0.0588839 0
M  V30 1260 H 118.264 2.91743 -0.626762 0
M  V30 1261 C 117.013 3.29567 1.1082 0
M  V30 1262 H 116.336 3.95978 0.551492 0
M  V30 1263 H 117.776 3.93061 1.58995 0
M  V30 1264 C 116.235 2.56722 2.18164 0
M  V30 1265 O 116.765 2.34842 3.25902 0
M  V30 1266 N 114.971 2.16861 1.93442 0
M  V30 1267 H 114.518 2.34855 1.05834 0
M  V30 1268 H 114.476 1.68444 2.65469 0
M  V30 1269 N 118.248 0.346503 1.53744 0
M  V30 1270 C 119.494 -0.249473 2.0126 0
M  V30 1271 C 119.827 -1.49965 1.23386 0
M  V30 1272 O 119.102 -1.91811 0.32229 0
M  V30 1273 C 119.385 -0.560643 3.55709 0
M  V30 1274 C 119.238 0.701836 4.44291 0
M  V30 1275 C 120.557 -1.36905 4.18264 0
M  V30 1276 H 117.676 -0.0891987 0.731582 0
M  V30 1277 H 120.318 0.467624 1.84156 0
M  V30 1278 H 118.468 -1.17156 3.70414 0
M  V30 1279 H 120.14 1.33974 4.41417 0
M  V30 1280 H 118.383 1.32612 4.13033 0
M  V30 1281 H 119.054 0.43933 5.50249 0
M  V30 1282 H 121.53 -0.852448 4.07275 0
M  V30 1283 H 120.406 -1.55553 5.26398 0
M  V30 1284 H 120.667 -2.37203 3.73078 0
M  V30 1285 N 119.726 -1.57421 0.075193 0
M  V30 1286 C 120.659 -2.08528 -0.926904 0
M  V30 1287 C 121.637 -0.991171 -1.28898 0
M  V30 1288 O 122.821 -1.26479 -1.39769 0
M  V30 1289 C 119.948 -2.54576 -2.23402 0
M  V30 1290 C 118.994 -3.75454 -2.02327 0
M  V30 1291 S 119.827 -5.19989 -1.27951 0
M  V30 1292 C 120.983 -5.69372 -2.59935 0
M  V30 1293 H 121.216 -2.932 -0.492048 0
M  V30 1294 H 118.749 -1.53785 -0.137651 0
M  V30 1295 H 120.707 -2.81767 -2.98526 0
M  V30 1296 H 119.368 -1.70166 -2.64012 0
M  V30 1297 H 118.561 -4.05675 -2.99071 0
M  V30 1298 H 118.163 -3.48654 -1.35339 0
M  V30 1299 H 120.455 -5.76424 -3.56008 0
M  V30 1300 H 121.398 -6.68207 -2.34319 0
M  V30 1301 H 121.806 -4.97205 -2.67296 0
M  V30 1302 N 121.204 0.198386 -1.56346 0
M  V30 1303 C 122.151 1.24589 -1.94284 0
M  V30 1304 C 123.121 1.454 -0.802997 0
M  V30 1305 O 124.306 1.58588 -1.06087 0
M  V30 1306 C 121.446 2.58631 -2.28482 0
M  V30 1307 C 120.559 2.45426 -3.55514 0
M  V30 1308 C 119.694 3.7215 -3.79049 0
M  V30 1309 C 118.733 3.53763 -4.99518 0
M  V30 1310 N 117.87 4.72491 -5.19323 0
M  V30 1311 H 122.71 0.915356 -2.83593 0
M  V30 1312 H 120.247 0.440629 -1.40346 0
M  V30 1313 H 122.205 3.3672 -2.46324 0
M  V30 1314 H 120.835 2.89734 -1.42317 0
M  V30 1315 H 119.887 1.58652 -3.45737 0
M  V30 1316 H 121.199 2.27772 -4.43758 0
M  V30 1317 H 120.353 4.58679 -3.97113 0
M  V30 1318 H 119.092 3.92754 -2.89129 0
M  V30 1319 H 118.097 2.65619 -4.8138 0
M  V30 1320 H 119.322 3.34607 -5.90944 0
M  V30 1321 H 117.268 4.93365 -4.3235 0
M  V30 1322 H 117.185 4.5765 -6.01741 0
M  V30 1323 H 118.453 5.6038 -5.41843 0
M  V30 1324 N 122.682 1.50554 0.465978 0
M  V30 1325 C 123.629 1.6979 1.56333 0
M  V30 1326 C 124.599 0.539239 1.57103 0
M  V30 1327 O 125.784 0.770401 1.74555 0
M  V30 1328 C 122.924 1.80273 2.94271 0
M  V30 1329 C 122.037 3.07674 3.0325 0
M  V30 1330 C 121.172 3.08922 4.32135 0
M  V30 1331 C 120.211 4.30755 4.34875 0
M  V30 1332 N 119.348 4.29714 5.55239 0
M  V30 1333 H 124.188 2.63472 1.39235 0
M  V30 1334 H 121.725 1.30602 0.676873 0
M  V30 1335 H 123.683 1.84332 3.74269 0
M  V30 1336 H 122.313 0.900258 3.09992 0
M  V30 1337 H 121.365 3.13062 2.16094 0
M  V30 1338 H 122.677 3.97642 3.01135 0
M  V30 1339 H 121.831 3.11738 5.20485 0
M  V30 1340 H 120.57 2.16792 4.36866 0
M  V30 1341 H 119.575 4.28146 3.44922 0
M  V30 1342 H 120.8 5.24117 4.31831 0
M  V30 1343 H 118.746 3.4044 5.60746 0
M  V30 1344 H 118.663 5.13456 5.54886 0
M  V30 1345 H 119.931 4.36683 6.457 0
M  V30 1346 N 124.16 -0.719506 1.40217 0
M  V30 1347 C 125.09 -1.8465 1.42922 0
M  V30 1348 C 126.071 -1.67599 0.29062 0
M  V30 1349 O 127.256 -1.87688 0.498677 0
M  V30 1350 C 124.386 -3.22565 1.28722 0
M  V30 1351 C 123.34 -3.54281 2.40144 0
M  V30 1352 C 122.666 -4.91298 2.11023 0
M  V30 1353 C 123.966 -3.55676 3.82481 0
M  V30 1354 H 125.66 -1.82644 2.37237 0
M  V30 1355 H 123.206 -0.877305 1.1419 0
M  V30 1356 H 125.159 -4.01095 1.29232 0
M  V30 1357 H 123.883 -3.25137 0.308811 0
M  V30 1358 H 122.542 -2.78088 2.38877 0
M  V30 1359 H 122.19 -4.90468 1.11582 0
M  V30 1360 H 121.89 -5.13485 2.8567 0
M  V30 1361 H 123.414 -5.72166 2.13209 0
M  V30 1362 H 124.828 -4.24254 3.85592 0
M  V30 1363 H 123.225 -3.89388 4.56614 0
M  V30 1364 H 124.295 -2.55144 4.12346 0
M  V30 1365 N 125.638 -1.25649 -0.95132 0
M  V30 1366 C 126.878 -1.11802 -1.71113 0
M  V30 1367 C 127.242 0.334758 -1.89059 0
M  V30 1368 O 128.443 0.595121 -2.62129 0
M  V30 1369 C 126.714 -1.85512 -3.05483 0
M  V30 1370 S 128.273 -1.87597 -3.96677 0
M  V30 1371 H 125.091 -0.399552 -0.588115 0
M  V30 1372 H 127.693 -1.59222 -1.1344 0
M  V30 1373 H 126.397 -2.90299 -2.90094 0
M  V30 1374 H 125.928 -1.38493 -3.68216 0
M  V30 1375 H 127.943 -0.955389 -4.86916 0
M  V30 1376 N 127.117 1.15442 -1.07289 0
M  V30 1377 C 128.364 1.86213 -0.795668 0
M  V30 1378 C 128.692 1.82291 0.678238 0
M  V30 1379 O 127.947 1.24057 1.51355 0
M  V30 1380 C 128.246 3.3489 -1.24834 0
M  V30 1381 C 127.912 3.59007 -2.72809 0
M  V30 1382 C 126.574 3.65298 -3.13227 0
M  V30 1383 C 128.926 3.68762 -3.68326 0
M  V30 1384 C 126.254 3.78854 -4.4798 0
M  V30 1385 C 128.606 3.83842 -5.0284 0
M  V30 1386 C 127.27 3.88378 -5.4288 0
M  V30 1387 H 126.54 0.681403 -0.291155 0
M  V30 1388 H 129.187 1.36435 -1.34379 0
M  V30 1389 H 127.492 3.8687 -0.619595 0
M  V30 1390 H 129.189 3.88052 -1.01076 0
M  V30 1391 H 125.779 3.5475 -2.40521 0
M  V30 1392 H 129.963 3.63202 -3.38227 0
M  V30 1393 H 125.219 3.80623 -4.78472 0
M  V30 1394 H 129.393 3.90332 -5.76727 0
M  V30 1395 H 127.02 3.98635 -6.47298 0
M  V30 1396 N 128.595 0.856903 1.32268 0
M  V30 1397 C 129.525 0.31858 2.31316 0
M  V30 1398 C 130.506 -0.583487 1.59779 0
M  V30 1399 O 131.691 -0.503259 1.87566 0
M  V30 1400 C 128.821 -0.491979 3.43798 0
M  V30 1401 C 127.775 0.315849 4.26833 0
M  V30 1402 C 127.101 -0.619586 5.31098 0
M  V30 1403 C 128.401 1.54282 4.98993 0
M  V30 1404 H 130.095 1.14621 2.76591 0
M  V30 1405 H 127.641 0.552613 1.32974 0
M  V30 1406 H 129.594 -0.879012 4.1213 0
M  V30 1407 H 128.318 -1.35299 2.97257 0
M  V30 1408 H 126.977 0.684664 3.6015 0
M  V30 1409 H 126.625 -1.47751 4.8081 0
M  V30 1410 H 126.325 -0.0830621 5.87541 0
M  V30 1411 H 127.849 -1.00375 6.02293 0
M  V30 1412 H 129.263 1.22796 5.59995 0
M  V30 1413 H 127.66 2.01745 5.65172 0
M  V30 1414 H 128.73 2.30285 4.26728 0
M  V30 1415 N 130.073 -1.45103 0.615059 0
M  V30 1416 C 131.003 -2.33339 -0.0865619 0
M  V30 1417 C 131.984 -1.4727 -0.851209 0
M  V30 1418 O 133.169 -1.76026 -0.820281 0
M  V30 1419 C 130.299 -3.30095 -1.07956 0
M  V30 1420 C 129.253 -4.25858 -0.427628 0
M  V30 1421 C 128.579 -5.12361 -1.5294 0
M  V30 1422 C 129.879 -5.18165 0.655944 0
M  V30 1423 H 131.573 -2.92254 0.650224 0
M  V30 1424 H 129.119 -1.40532 0.314138 0
M  V30 1425 H 131.072 -3.90698 -1.57901 0
M  V30 1426 H 129.796 -2.69355 -1.84703 0
M  V30 1427 H 128.455 -3.66564 0.0510292 0
M  V30 1428 H 128.103 -4.47984 -2.28734 0
M  V30 1429 H 127.803 -5.77238 -1.09865 0
M  V30 1430 H 129.327 -5.75833 -2.03098 0
M  V30 1431 H 130.741 -5.72796 0.240257 0
M  V30 1432 H 129.138 -5.91559 1.00888 0
M  V30 1433 H 130.208 -4.60144 1.52957 0
M  V30 1434 N 131.551 -0.354651 -1.53558 0
M  V30 1435 C 132.483 0.5315 -2.22952 0
M  V30 1436 C 133.496 1.05503 -1.23988 0
M  V30 1437 O 134.685 0.963279 -1.50277 0
M  V30 1438 C 131.785 1.74538 -2.90499 0
M  V30 1439 C 130.958 1.35524 -4.15875 0
M  V30 1440 C 130.017 2.42999 -4.66731 0
M  V30 1441 O 129.043 2.05844 -5.30676 0
M  V30 1442 N 130.245 3.74423 -4.43608 0
M  V30 1443 H 133.01 -0.0628615 -2.99634 0
M  V30 1444 H 130.571 -0.179302 -1.60904 0
M  V30 1445 H 132.563 2.45892 -3.21433 0
M  V30 1446 H 131.133 2.24686 -2.17336 0
M  V30 1447 H 130.353 0.471998 -3.91364 0
M  V30 1448 H 131.641 1.07071 -4.97406 0
M  V30 1449 H 131.039 4.07391 -3.92491 0
M  V30 1450 H 129.596 4.41913 -4.7912 0
M  V30 1451 N 133.029 1.57378 -0.0835403 0
M  V30 1452 C 133.992 2.12252 0.864959 0
M  V30 1453 C 134.992 1.04916 1.21858 0
M  V30 1454 O 136.182 1.30853 1.14991 0
M  V30 1455 C 133.314 2.63358 2.16461 0
M  V30 1456 H 134.507 2.97371 0.388676 0
M  V30 1457 H 132.06 1.55423 0.165317 0
M  V30 1458 H 132.795 1.81727 2.686 0
M  V30 1459 H 132.58 3.41826 1.92087 0
M  V30 1460 H 134.07 3.05847 2.84337 0
M  V30 1461 N 134.507 -0.190092 1.56449 0
M  V30 1462 C 135.784 -0.935886 1.71757 0
M  V30 1463 C 136.164 -2.01173 0.639726 0
M  V30 1464 O 135.512 -2.25827 -0.348502 0
M  V30 1465 C 135.722 -1.51775 3.1427 0
M  V30 1466 C 137.07 -1.99794 3.74656 0
M  V30 1467 O 138.094 -1.61607 3.1743 0
M  V30 1468 O 136.953 -2.70079 4.751 0
M  V30 1469 H 134.047 -0.439229 0.700719 0
M  V30 1470 H 136.593 -0.179395 1.68749 0
M  V30 1471 H 135.365 -0.742505 3.84191 0
M  V30 1472 H 134.988 -2.33894 3.21527 0
M  V30 1473 N 135.985 -1.50799 -0.457987 0
M  V30 1474 C 137.401 -1.38515 -0.792819 0
M  V30 1475 C 137.601 -0.451409 -1.96379 0
M  V30 1476 O 136.657 0.10112 -2.52297 0
M  V30 1477 C 137.97 -2.80149 -1.09258 0
M  V30 1478 C 139.518 -2.89156 -1.19825 0
M  V30 1479 C 139.993 -4.31651 -1.53106 0
M  V30 1480 N 141.484 -4.34662 -1.60072 0
M  V30 1481 C 142.219 -5.41928 -1.87354 0
M  V30 1482 N 141.715 -6.59384 -2.12568 0
M  V30 1483 N 143.508 -5.29385 -1.88965 0
M  V30 1484 H 135.659 -2.10073 0.313511 0
M  V30 1485 H 137.922 -0.944803 0.0777862 0
M  V30 1486 H 137.628 -3.50374 -0.305084 0
M  V30 1487 H 137.502 -3.18204 -2.02549 0
M  V30 1488 H 139.889 -2.19141 -1.97639 0
M  V30 1489 H 139.97 -2.54626 -0.244821 0
M  V30 1490 H 139.614 -5.02208 -0.758266 0
M  V30 1491 H 139.544 -4.63678 -2.49621 0
M  V30 1492 H 142.035 -3.49973 -1.42573 0
M  V30 1493 H 142.348 -7.36934 -2.32696 0
M  V30 1494 H 140.693 -6.62535 -2.09933 0
M  V30 1495 H 143.884 -4.36616 -1.68772 0
M  V30 1496 H 144.057 -6.13066 -2.09891 0
M  V30 1497 N 137.463 0.71206 -1.40597 0
M  V30 1498 C 138.396 1.83582 -1.35546 0
M  V30 1499 C 139.374 1.61032 -0.225284 0
M  V30 1500 O 140.558 1.83998 -0.409519 0
M  V30 1501 C 137.685 3.19983 -1.11034 0
M  V30 1502 C 136.731 3.61355 -2.2655 0
M  V30 1503 S 137.564 3.68062 -3.88961 0
M  V30 1504 C 138.72 5.07216 -3.66719 0
M  V30 1505 H 138.953 1.87586 -2.30648 0
M  V30 1506 H 136.486 0.879182 -1.26924 0
M  V30 1507 H 138.444 3.98734 -0.975761 0
M  V30 1508 H 137.105 3.13608 -0.175798 0
M  V30 1509 H 136.298 4.60403 -2.0505 0
M  V30 1510 H 135.9 2.8987 -2.36329 0
M  V30 1511 H 138.192 5.94238 -3.25404 0
M  V30 1512 H 139.135 5.33753 -4.6531 0
M  V30 1513 H 139.543 4.77976 -3.00332 0
M  V30 1514 N 138.941 1.26152 0.944643 0
M  V30 1515 C 140.166 1.14363 1.7302 0
M  V30 1516 C 140.591 -0.29772 1.85729 0
M  V30 1517 O 139.949 -1.2157 1.34501 0
M  V30 1518 C 139.997 1.81378 3.11664 0
M  V30 1519 O 139.101 1.10022 3.97453 0
M  V30 1520 H 138.442 0.398694 0.53098 0
M  V30 1521 H 140.972 1.66906 1.18337 0
M  V30 1522 H 140.982 1.88064 3.62072 0
M  V30 1523 H 139.657 2.86237 3.0173 0
M  V30 1524 H 138.234 1.11287 3.55907 0
M  V30 1525 N 140.419 -1.14872 1.07899 0
M  V30 1526 C 141.349 -2.2193 0.725887 0
M  V30 1527 C 142.33 -1.67622 -0.28927 0
M  V30 1528 O 143.515 -1.93533 -0.160787 0
M  V30 1529 C 140.645 -3.47061 0.128856 0
M  V30 1530 C 139.599 -4.14363 1.07178 0
M  V30 1531 C 138.925 -5.33636 0.337229 0
M  V30 1532 C 140.225 -4.63492 2.40775 0
M  V30 1533 H 141.919 -2.51724 1.62097 0
M  V30 1534 H 139.465 -1.20991 0.780838 0
M  V30 1535 H 141.418 -4.21199 -0.130147 0
M  V30 1536 H 140.142 -3.16617 -0.80134 0
M  V30 1537 H 138.801 -3.42173 1.3158 0
M  V30 1538 H 138.449 -4.99449 -0.596606 0
M  V30 1539 H 138.149 -5.79609 0.965788 0
M  V30 1540 H 139.673 -6.10539 0.0861567 0
M  V30 1541 H 141.087 -5.2913 2.20669 0
M  V30 1542 H 139.484 -5.20148 2.99276 0
M  V30 1543 H 140.554 -3.78834 3.02676 0
M  V30 1544 N 141.898 -0.863906 -1.31812 0
M  V30 1545 C 143.145 -0.471836 -1.96926 0
M  V30 1546 C 143.473 0.974578 -1.68322 0
M  V30 1547 O 142.728 1.7003 -0.968933 0
M  V30 1548 C 143.027 -0.668547 -3.51091 0
M  V30 1549 C 142.693 -2.08683 -3.99703 0
M  V30 1550 C 141.355 -2.47471 -4.12688 0
M  V30 1551 C 143.707 -3.01207 -4.25351 0
M  V30 1552 C 141.035 -3.78037 -4.4867 0
M  V30 1553 C 143.387 -4.31282 -4.62794 0
M  V30 1554 C 142.051 -4.69992 -4.73987 0
M  V30 1555 H 141.321 -0.172657 -0.720604 0
M  V30 1556 H 143.968 -1.09573 -1.57054 0
M  V30 1557 H 142.273 0.0385252 -3.91781 0
M  V30 1558 H 143.97 -0.345102 -3.99512 0
M  V30 1559 H 140.56 -1.77566 -3.90087 0
M  V30 1560 H 144.744 -2.72469 -4.14819 0
M  V30 1561 H 140 -4.078 -4.55532 0
M  V30 1562 H 144.174 -5.03031 -4.81594 0
M  V30 1563 H 141.801 -5.71207 -5.01624 0
M  V30 1564 N 143.376 1.44774 -0.622745 0
M  V30 1565 C 144.309 2.27792 0.136329 0
M  V30 1566 C 145.287 1.38041 0.859264 0
M  V30 1567 O 146.471 1.67478 0.86506 0
M  V30 1568 C 143.598 3.16776 1.19878 0
M  V30 1569 C 142.644 4.22575 0.57731 0
M  V30 1570 S 143.477 5.31825 -0.626294 0
M  V30 1571 C 144.633 6.24377 0.436378 0
M  V30 1572 H 144.866 2.91824 -0.567967 0
M  V30 1573 H 142.399 1.48838 -0.410677 0
M  V30 1574 H 144.357 3.68596 1.80686 0
M  V30 1575 H 143.018 2.5198 1.87523 0
M  V30 1576 H 142.211 4.84818 1.37721 0
M  V30 1577 H 141.813 3.73974 0.0440439 0
M  V30 1578 H 144.105 6.64689 1.31128 0
M  V30 1579 H 145.048 7.07941 -0.150271 0
M  V30 1580 H 145.456 5.59381 0.758513 0
M  V30 1581 N 144.854 0.36279 1.53368 0
M  V30 1582 C 146.084 -0.228281 2.05335 0
M  V30 1583 C 146.492 -1.43226 1.23625 0
M  V30 1584 O 145.835 -1.81717 0.269206 0
M  V30 1585 C 145.897 -0.688549 3.52845 0
M  V30 1586 C 145.561 0.398362 4.5526 0
M  V30 1587 C 146.558 1.24732 5.04716 0
M  V30 1588 C 144.243 0.557805 4.99193 0
M  V30 1589 C 146.237 2.2411 5.96702 0
M  V30 1590 C 143.924 1.55495 5.90986 0
M  V30 1591 C 144.922 2.39503 6.39631 0
M  V30 1592 O 144.61 3.37517 7.29615 0
M  V30 1593 H 144.342 -0.044395 0.674541 0
M  V30 1594 H 146.896 0.518668 1.98744 0
M  V30 1595 H 145.126 -1.48706 3.56964 0
M  V30 1596 H 146.815 -1.20231 3.87685 0
M  V30 1597 H 147.581 1.13532 4.71525 0
M  V30 1598 H 143.46 -0.0862959 4.60919 0
M  V30 1599 H 147.004 2.89718 6.34594 0
M  V30 1600 H 142.901 1.66744 6.23592 0
M  V30 1601 H 143.669 3.33213 7.47604 0
M  V30 1602 N 146.332 -1.57332 0.0918853 0
M  V30 1603 C 147.748 -1.57389 -0.264766 0
M  V30 1604 C 147.948 -1.10281 -1.68643 0
M  V30 1605 O 147.004 -0.777801 -2.40222 0
M  V30 1606 C 148.317 -3.00648 -0.0561195 0
M  V30 1607 C 149.865 -3.12754 -0.124116 0
M  V30 1608 C 150.34 -4.57965 0.0564972 0
M  V30 1609 N 151.831 -4.632 0.00155611 0
M  V30 1610 C 152.566 -5.73281 0.116598 0
M  V30 1611 N 152.062 -6.92208 0.286294 0
M  V30 1612 N 153.855 -5.6207 0.0580973 0
M  V30 1613 H 146.006 -1.86262 1.02079 0
M  V30 1614 H 148.269 -0.859579 0.399786 0
M  V30 1615 H 147.975 -3.393 0.925669 0
M  V30 1616 H 147.849 -3.68623 -0.799823 0
M  V30 1617 H 150.236 -2.73976 -1.09641 0
M  V30 1618 H 150.317 -2.47377 0.651024 0
M  V30 1619 H 149.961 -4.97436 1.02564 0
M  V30 1620 H 149.891 -5.21399 -0.738297 0
M  V30 1621 H 152.382 -3.77686 -0.127192 0
M  V30 1622 H 152.695 -7.71934 0.365676 0
M  V30 1623 H 151.04 -6.94254 0.32192 0
M  V30 1624 H 154.231 -4.68043 -0.0733204 0
M  V30 1625 H 154.404 -6.47824 0.151203 0
M  V30 1626 N 147.81 0.181792 -1.56548 0
M  V30 1627 C 149.038 0.915947 -1.85521 0
M  V30 1628 C 149.453 1.76282 -0.676016 0
M  V30 1629 O 148.81 1.79012 0.355077 0
M  V30 1630 C 148.861 1.80126 -3.13427 0
M  V30 1631 O 148.582 0.988562 -4.26801 0
M  V30 1632 C 150.083 2.64597 -3.55673 0
M  V30 1633 H 147.303 0.26661 -0.61576 0
M  V30 1634 H 149.847 0.185039 -2.03661 0
M  V30 1635 H 148.002 2.48563 -2.97145 0
M  V30 1636 H 148.416 1.59308 -4.99721 0
M  V30 1637 H 149.89 3.2235 -4.48101 0
M  V30 1638 H 150.367 3.38958 -2.79292 0
M  V30 1639 H 150.973 2.0151 -3.74532 0
M  V30 1640 N 149.288 1.51039 0.449983 0
M  V30 1641 C 150.704 1.38934 0.785462 0
M  V30 1642 C 150.904 0.461817 1.96136 0
M  V30 1643 O 149.96 -0.0877389 2.52348 0
M  V30 1644 C 151.273 2.80724 1.0777 0
M  V30 1645 C 152.821 2.89787 1.1829 0
M  V30 1646 C 153.296 4.32457 1.50815 0
M  V30 1647 N 154.787 4.35505 1.57764 0
M  V30 1648 C 155.522 5.42914 1.84477 0
M  V30 1649 N 155.018 6.60502 2.09068 0
M  V30 1650 N 156.811 5.3038 1.86155 0
M  V30 1651 H 148.962 2.09904 -0.324647 0
M  V30 1652 H 151.225 0.944378 -0.0827957 0
M  V30 1653 H 150.931 3.50531 0.286498 0
M  V30 1654 H 150.805 3.19273 2.00859 0
M  V30 1655 H 153.192 2.20186 1.96474 0
M  V30 1656 H 153.273 2.54752 0.231314 0
M  V30 1657 H 152.917 5.02603 0.731622 0
M  V30 1658 H 152.847 4.64995 2.47158 0
M  V30 1659 H 155.338 3.50724 1.40715 0
M  V30 1660 H 155.651 7.38158 2.28785 0
M  V30 1661 H 153.996 6.63639 2.06416 0
M  V30 1662 H 157.187 4.37505 1.66454 0
M  V30 1663 H 157.36 6.1417 2.06637 0
M  V30 1664 N 150.766 -0.704594 1.40972 0
M  V30 1665 C 151.714 -1.83994 1.42299 0
M  V30 1666 C 152.708 -1.66684 0.302111 0
M  V30 1667 O 153.914 -1.73655 0.473697 0
M  V30 1668 H 150.289 -0.606171 0.44504 0
M  V30 1669 H 152.26 -1.79992 2.38003 0
M  V30 1670 C 151.009 -3.21946 1.31323 0
M  V30 1671 H 150.332 -3.35878 2.16855 0
M  V30 1672 H 151.772 -4.01491 1.36311 0
M  V30 1673 C 150.231 -3.36891 0.0245977 0
M  V30 1674 O 150.761 -3.90687 -0.934153 0
M  V30 1675 N 148.967 -2.90559 -0.0485243 0
M  V30 1676 H 148.514 -2.46968 0.732419 0
M  V30 1677 H 148.472 -3.00937 -0.910171 0
M  V30 1678 N 152.244 -1.26651 -0.937939 0
M  V30 1679 C 153.492 -1.12165 -1.68118 0
M  V30 1680 C 153.813 0.334983 -1.92101 0
M  V30 1681 O 153.083 1.23583 -1.52 0
M  V30 1682 H 151.663 -0.412093 -0.623048 0
M  V30 1683 H 154.325 -1.59027 -1.12678 0
M  V30 1684 H 153.421 -1.64289 -2.6536 0
M  V30 1685 N 153.722 1.14298 -1.08507 0
M  V30 1686 C 154.971 1.84708 -0.810305 0
M  V30 1687 C 155.284 1.83903 0.666271 0
M  V30 1688 O 156.49 2.50112 1.05624 0
M  V30 1689 C 154.946 3.31572 -1.39957 0
M  V30 1690 C 154.554 3.40791 -2.90801 0
M  V30 1691 C 156.298 4.07087 -1.20334 0
M  V30 1692 C 154.205 4.81872 -3.4286 0
M  V30 1693 H 153.135 0.691985 -0.299454 0
M  V30 1694 H 155.786 1.28841 -1.30661 0
M  V30 1695 H 154.168 3.87183 -0.830976 0
M  V30 1696 H 155.342 2.95225 -3.53806 0
M  V30 1697 H 153.657 2.78732 -3.0935 0
M  V30 1698 H 156.254 5.11225 -1.56693 0
M  V30 1699 H 156.597 4.16054 -0.143237 0
M  V30 1700 H 157.13 3.57779 -1.73893 0
M  V30 1701 H 153.869 4.78094 -4.48449 0
M  V30 1702 H 153.389 5.27972 -2.84615 0
M  V30 1703 H 155.068 5.50765 -3.39509 0
M  V30 1704 N 155.201 0.870884 1.31352 0
M  V30 1705 C 156.164 0.332243 2.26779 0
M  V30 1706 C 157.164 -0.517302 1.52252 0
M  V30 1707 O 158.354 -0.326477 1.71113 0
M  V30 1708 C 155.486 -0.528066 3.36785 0
M  V30 1709 H 156.679 1.17469 2.75937 0
M  V30 1710 H 154.232 0.64655 1.423 0
M  V30 1711 H 154.967 -1.39167 2.92922 0
M  V30 1712 H 154.752 0.0802582 3.92018 0
M  V30 1713 H 156.242 -0.897179 4.07849 0
M  V30 1714 N 156.679 -1.44442 0.630414 0
M  V30 1715 C 157.589 -2.34476 -0.0761693 0
M  V30 1716 C 158.605 -1.52576 -0.836449 0
M  V30 1717 O 159.781 -1.85307 -0.788874 0
M  V30 1718 C 156.846 -3.30545 -1.04599 0
M  V30 1719 C 155.907 -4.28352 -0.28516 0
M  V30 1720 C 155.14 -5.19831 -1.20878 0
M  V30 1721 O 155.363 -5.15223 -2.44747 0
M  V30 1722 O 154.297 -5.97892 -0.693491 0
M  V30 1723 H 158.123 -2.96345 0.664324 0
M  V30 1724 H 155.708 -1.44203 0.39061 0
M  V30 1725 H 157.59 -3.89681 -1.60396 0
M  V30 1726 H 156.265 -2.7121 -1.76711 0
M  V30 1727 H 155.172 -3.72764 0.315837 0
M  V30 1728 H 156.505 -4.90605 0.395924 0
M  V30 1729 N 158.157 -0.370918 -1.53173 0
M  V30 1730 C 159.087 0.464847 -2.28826 0
M  V30 1731 C 160.068 1.07936 -1.31468 0
M  V30 1732 O 161.253 1.0956 -1.60344 0
M  V30 1733 C 158.383 1.60196 -3.08147 0
M  V30 1734 C 157.337 1.11443 -4.13237 0
M  V30 1735 C 156.663 2.3422 -4.80672 0
M  V30 1736 C 157.963 0.195384 -5.21934 0
M  V30 1737 H 159.657 -0.166329 -2.98938 0
M  V30 1738 H 157.203 -0.0814359 -1.4377 0
M  V30 1739 H 159.156 2.19332 -3.59822 0
M  V30 1740 H 157.88 2.26045 -2.35735 0
M  V30 1741 H 156.539 0.545727 -3.62515 0
M  V30 1742 H 156.187 2.98537 -4.04827 0
M  V30 1743 H 155.887 2.02269 -5.51689 0
M  V30 1744 H 157.411 2.94032 -5.35143 0
M  V30 1745 H 158.825 0.694375 -5.69079 0
M  V30 1746 H 157.222 -0.0335027 -6.00091 0
M  V30 1747 H 158.292 -0.760961 -4.78892 0
M  V30 1748 N 159.635 1.57281 -0.100228 0
M  V30 1749 C 160.598 2.13158 0.842398 0
M  V30 1750 C 161.598 1.06202 1.20738 0
M  V30 1751 O 162.788 1.32066 1.13597 0
M  V30 1752 C 159.92 2.65639 2.13655 0
M  V30 1753 H 161.113 2.97766 0.357114 0
M  V30 1754 H 158.666 1.5559 0.148823 0
M  V30 1755 H 159.401 1.84566 2.66657 0
M  V30 1756 H 159.186 3.43844 1.88451 0
M  V30 1757 H 160.676 3.08846 2.81077 0
M  V30 1758 N 161.113 -0.173488 1.56642 0
M  V30 1759 C 162.341 -0.906095 1.86004 0
M  V30 1760 C 162.756 -1.75921 0.685355 0
M  V30 1761 O 162.113 -1.79198 -0.345578 0
M  V30 1762 C 162.164 -1.78462 3.14378 0
M  V30 1763 O 161.885 -0.965914 4.27319 0
M  V30 1764 C 163.386 -2.62707 3.57071 0
M  V30 1765 H 160.606 -0.263341 0.617165 0
M  V30 1766 H 163.15 -0.174236 2.03756 0
M  V30 1767 H 161.305 -2.46984 2.98459 0
M  V30 1768 H 161.719 -1.56655 5.00559 0
M  V30 1769 H 163.193 -3.19969 4.49804 0
M  V30 1770 H 163.67 -3.37472 2.81086 0
M  V30 1771 H 164.276 -1.99521 3.75595 0
M  V30 1772 N 162.591 -1.51276 -0.441967 0
M  V30 1773 C 164.007 -1.39349 -0.778083 0
M  V30 1774 C 164.207 -0.472212 -1.95889 0
M  V30 1775 O 163.263 0.0743551 -2.5239 0
M  V30 1776 C 164.576 -2.81292 -1.0628 0
M  V30 1777 C 166.124 -2.9041 -1.16751 0
M  V30 1778 C 166.599 -4.33251 -1.48519 0
M  V30 1779 N 168.09 -4.36336 -1.55453 0
M  V30 1780 C 168.825 -5.43885 -1.81596 0
M  V30 1781 N 168.321 -6.61601 -2.05562 0
M  V30 1782 N 170.114 -5.3136 -1.8334 0
M  V30 1783 H 162.265 -2.09729 0.335774 0
M  V30 1784 H 164.528 -0.943925 0.0878028 0
M  V30 1785 H 164.234 -3.50678 -0.267905 0
M  V30 1786 H 164.108 -3.20334 -1.99163 0
M  V30 1787 H 166.495 -2.21225 -1.95304 0
M  V30 1788 H 166.576 -2.54871 -0.217801 0
M  V30 1789 H 166.22 -5.02984 -0.704958 0
M  V30 1790 H 166.15 -4.66299 -2.44689 0
M  V30 1791 H 168.641 -3.51466 -1.38853 0
M  V30 1792 H 168.954 -7.39361 -2.24867 0
M  V30 1793 H 167.299 -6.64725 -2.02894 0
M  V30 1794 H 170.49 -4.38382 -1.64132 0
M  V30 1795 H 170.663 -6.15258 -2.03377 0
M  V30 1796 N 164.069 0.697108 -1.41344 0
M  V30 1797 C 164.999 1.82353 -1.45841 0
M  V30 1798 C 165.98 1.67115 -0.317247 0
M  V30 1799 O 167.165 1.86871 -0.528474 0
M  V30 1800 C 164.295 3.20476 -1.33838 0
M  V30 1801 C 163.249 3.50415 -2.4575 0
M  V30 1802 C 162.575 4.87878 -2.18813 0
M  V30 1803 C 163.875 3.49546 -3.88091 0
M  V30 1804 H 165.569 1.78846 -2.40113 0
M  V30 1805 H 163.115 0.859028 -1.15571 0
M  V30 1806 H 165.068 3.98988 -1.35596 0
M  V30 1807 H 163.792 3.24604 -0.360498 0
M  V30 1808 H 162.451 2.74253 -2.43271 0
M  V30 1809 H 162.099 4.8863 -1.19371 0
M  V30 1810 H 161.799 5.08875 -2.93803 0
M  V30 1811 H 163.323 5.68702 -2.22284 0
M  V30 1812 H 164.737 4.18066 -3.92293 0
M  V30 1813 H 163.134 3.82075 -4.62751 0
M  V30 1814 H 164.204 2.48552 -4.16353 0
M  V30 1815 N 165.547 1.27147 0.931209 0
M  V30 1816 C 166.794 1.13278 1.67852 0
M  V30 1817 C 167.122 -0.32204 1.91815 0
M  V30 1818 O 166.377 -1.25224 1.50391 0
M  V30 1819 C 166.676 1.8579 3.05314 0
M  V30 1820 C 166.342 3.35657 3.01073 0
M  V30 1821 C 165.004 3.76536 2.99623 0
M  V30 1822 C 167.356 4.31299 2.92627 0
M  V30 1823 C 164.684 5.11426 2.87506 0
M  V30 1824 C 167.036 5.66242 2.82051 0
M  V30 1825 C 165.7 6.06418 2.7895 0
M  V30 1826 H 164.97 0.414515 0.614214 0
M  V30 1827 H 167.617 1.57712 1.08624 0
M  V30 1828 H 165.922 1.33854 3.68226 0
M  V30 1829 H 167.619 1.72491 3.62005 0
M  V30 1830 H 164.209 3.03146 3.02986 0
M  V30 1831 H 168.393 4.00692 2.92848 0
M  V30 1832 H 163.649 5.41705 2.83489 0
M  V30 1833 H 167.823 6.40026 2.74481 0
M  V30 1834 H 165.45 7.10895 2.69318 0
M  V30 1835 N 167.025 -1.13721 1.09112 0
M  V30 1836 C 167.973 -2.21103 0.722219 0
M  V30 1837 C 168.967 -1.67147 -0.275374 0
M  V30 1838 O 170.173 -1.79477 -0.137176 0
M  V30 1839 H 166.548 -0.720445 0.215553 0
M  V30 1840 H 168.519 -2.49483 1.63709 0
M  V30 1841 C 167.268 -3.47352 0.15543 0
M  V30 1842 H 166.591 -3.89206 0.914246 0
M  V30 1843 H 168.031 -4.2395 -0.0647967 0
M  V30 1844 C 166.49 -3.1814 -1.10852 0
M  V30 1845 O 167.02 -3.36604 -2.19227 0
M  V30 1846 N 165.226 -2.72045 -1.02176 0
M  V30 1847 H 164.773 -2.57221 -0.139764 0
M  V30 1848 H 164.731 -2.52875 -1.8682 0
M  V30 1849 N 168.503 -0.877838 -1.30888 0
M  V30 1850 C 169.749 -0.493426 -1.96706 0
M  V30 1851 C 170.082 0.953504 -1.6918 0
M  V30 1852 O 169.357 1.67266 -0.992594 0
M  V30 1853 C 169.64 -0.760429 -3.51979 0
M  V30 1854 C 169.493 -2.25747 -3.89048 0
M  V30 1855 C 170.812 -0.232148 -4.39487 0
M  V30 1856 H 167.931 -0.180746 -0.714493 0
M  V30 1857 H 170.573 -1.10052 -1.54882 0
M  V30 1858 H 168.723 -0.243715 -3.87735 0
M  V30 1859 H 170.395 -2.84204 -3.63354 0
M  V30 1860 H 168.638 -2.72694 -3.37373 0
M  V30 1861 H 169.309 -2.39491 -4.97341 0
M  V30 1862 H 171.785 -0.674314 -4.106 0
M  V30 1863 H 170.661 -0.448355 -5.47066 0
M  V30 1864 H 170.922 0.866297 -4.33529 0
M  V30 1865 N 169.982 1.44106 -0.638065 0
M  V30 1866 C 170.932 2.27843 0.0847285 0
M  V30 1867 C 171.916 1.39055 0.809471 0
M  V30 1868 O 173.108 1.62808 0.694435 0
M  V30 1869 C 170.237 3.26497 1.06089 0
M  V30 1870 C 169.323 4.22772 0.33541 0
M  V30 1871 N 169.714 5.01737 -0.639787 0
M  V30 1872 C 168.012 4.42227 0.578921 0
M  V30 1873 C 168.713 5.71792 -1.06904 0
M  V30 1874 N 167.689 5.42079 -0.406395 0
M  V30 1875 H 171.491 2.86305 -0.663814 0
M  V30 1876 H 169.005 1.55627 -0.464122 0
M  V30 1877 H 171.002 3.8525 1.59337 0
M  V30 1878 H 169.662 2.69595 1.80966 0
M  V30 1879 H 170.673 5.07799 -1.01789 0
M  V30 1880 H 167.35 3.96415 1.31003 0
M  V30 1881 H 168.74 6.45205 -1.8751 0
M  V30 1882 N 171.46 0.379036 1.52974 0
M  V30 1883 C 172.407 -0.461048 2.26148 0
M  V30 1884 C 173.377 -1.06637 1.27349 0
M  V30 1885 O 174.562 -1.09633 1.56157 0
M  V30 1886 C 171.702 -1.58782 3.06402 0
M  V30 1887 C 170.815 -1.00636 4.20115 0
M  V30 1888 C 169.95 -2.10334 4.87784 0
M  V30 1889 C 168.989 -1.49724 5.93506 0
M  V30 1890 N 168.126 -2.5331 6.54812 0
M  V30 1891 H 172.966 0.169429 2.97518 0
M  V30 1892 H 170.503 0.0953806 1.4679 0
M  V30 1893 H 172.461 -2.25174 3.51215 0
M  V30 1894 H 171.091 -2.18876 2.37261 0
M  V30 1895 H 170.143 -0.232332 3.7969 0
M  V30 1896 H 171.455 -0.523343 4.96047 0
M  V30 1897 H 170.609 -2.84519 5.35849 0
M  V30 1898 H 169.348 -2.61992 4.11353 0
M  V30 1899 H 168.353 -0.740598 5.44789 0
M  V30 1900 H 169.578 -0.988732 6.71864 0
M  V30 1901 H 167.524 -3.04156 5.81227 0
M  V30 1902 H 167.441 -2.09734 7.26325 0
M  V30 1903 H 168.709 -3.27155 7.07524 0
M  V30 1904 N 172.938 -1.57226 0.108567 0
M  V30 1905 C 174.215 -1.86333 -0.594939 0
M  V30 1906 C 174.595 -1.00788 -1.85486 0
M  V30 1907 O 173.943 -0.0839293 -2.28346 0
M  V30 1908 C 174.153 -3.37265 -0.897405 0
M  V30 1909 C 175.501 -4.05629 -1.25501 0
M  V30 1910 O 176.525 -3.42224 -0.987998 0
M  V30 1911 O 175.384 -5.17531 -1.75567 0
M  V30 1912 H 172.478 -0.771018 -0.2991 0
M  V30 1913 H 175.024 -1.69102 0.142283 0
M  V30 1914 H 173.796 -3.913 -0.00413806 0
M  V30 1915 H 173.419 -3.59889 -1.69014 0
M  V30 1916 N 174.416 0.165178 -1.56732 0
M  V30 1917 C 175.379 1.18822 -1.95995 0
M  V30 1918 C 176.379 1.3685 -0.84431 0
M  V30 1919 O 177.569 1.34152 -1.11126 0
M  V30 1920 C 174.701 2.5521 -2.26011 0
M  V30 1921 H 175.894 0.851825 -2.87548 0
M  V30 1922 H 173.447 0.407857 -1.50885 0
M  V30 1923 H 174.182 2.93852 -1.37191 0
M  V30 1924 H 173.967 2.43489 -3.07336 0
M  V30 1925 H 175.457 3.28927 -2.57288 0
M  V30 1926 N 175.894 1.51508 0.433938 0
M  V30 1927 C 177.14 1.64588 1.18484 0
M  V30 1928 C 177.473 0.362666 1.90784 0
M  V30 1929 O 176.748 -0.637892 1.83742 0
M  V30 1930 C 177.031 2.85149 2.19913 0
M  V30 1931 C 176.884 4.23456 1.51674 0
M  V30 1932 C 178.203 3.01227 3.20858 0
M  V30 1933 H 175.322 0.598994 0.429389 0
M  V30 1934 H 177.964 1.84002 0.473647 0
M  V30 1935 H 176.114 2.68729 2.80566 0
M  V30 1936 H 177.786 4.51552 0.943322 0
M  V30 1937 H 176.029 4.25998 0.819035 0
M  V30 1938 H 176.7 5.03812 2.2556 0
M  V30 1939 H 179.176 3.16382 2.70263 0
M  V30 1940 H 178.052 3.87141 3.89118 0
M  V30 1941 H 178.313 2.13447 3.8716 0
M  V30 1942 N 177.372 -0.689602 1.41712 0
M  V30 1943 C 178.302 -1.81577 1.46806 0
M  V30 1944 C 179.283 -1.66945 0.326105 0
M  V30 1945 O 180.468 -1.86588 0.538377 0
M  V30 1946 C 177.598 -3.19762 1.35535 0
M  V30 1947 C 176.552 -3.49107 2.47605 0
M  V30 1948 C 175.878 -4.86711 2.21397 0
M  V30 1949 C 177.178 -3.47483 3.89939 0
M  V30 1950 H 178.872 -1.7757 2.41058 0
M  V30 1951 H 176.418 -0.852887 1.16025 0
M  V30 1952 H 178.371 -3.98263 1.3771 0
M  V30 1953 H 177.095 -3.24409 0.377708 0
M  V30 1954 H 175.754 -2.72959 2.44722 0
M  V30 1955 H 175.402 -4.8799 1.21961 0
M  V30 1956 H 175.102 -5.0731 2.96497 0
M  V30 1957 H 176.626 -5.67515 2.25297 0
M  V30 1958 H 178.04 -4.1598 3.94505 0
M  V30 1959 H 176.437 -3.79615 4.64771 0
M  V30 1960 H 177.507 -2.46341 4.17665 0
M  V30 1961 N 178.85 -1.27639 -0.924453 0
M  V30 1962 C 179.76 -1.12466 -2.05885 0
M  V30 1963 C 180.776 -0.053869 -1.73917 0
M  V30 1964 O 181.952 -0.261012 -1.99702 0
M  V30 1965 C 179.017 -0.776768 -3.37886 0
M  V30 1966 C 178.078 -1.92878 -3.83532 0
M  V30 1967 C 177.311 -1.59739 -5.09234 0
M  V30 1968 O 177.534 -0.506782 -5.68144 0
M  V30 1969 O 176.468 -2.43761 -5.50331 0
M  V30 1970 H 180.294 -2.07671 -2.21599 0
M  V30 1971 H 177.879 -1.06857 -1.04413 0
M  V30 1972 H 179.761 -0.596229 -4.17161 0
M  V30 1973 H 178.436 0.145732 -3.23372 0
M  V30 1974 H 177.343 -2.1644 -3.0513 0
M  V30 1975 H 178.676 -2.8316 -4.02593 0
M  V30 1976 N 180.328 1.1314 -1.09713 0
M  V30 1977 C 181.605 1.80762 -0.747302 0
M  V30 1978 C 181.985 1.96663 0.767265 0
M  V30 1979 O 181.333 1.53706 1.69076 0
M  V30 1980 C 181.543 3.15606 -1.48975 0
M  V30 1981 C 182.891 3.90914 -1.65746 0
M  V30 1982 O 183.915 3.25239 -1.45251 0
M  V30 1983 O 182.774 5.08718 -1.9967 0
M  V30 1984 H 179.868 0.782103 -0.268782 0
M  V30 1985 H 182.414 1.20041 -1.19951 0
M  V30 1986 H 181.186 2.99278 -2.52088 0
M  V30 1987 H 180.809 3.84029 -1.02991 0
M  V30 1988 N 181.806 0.884767 1.30421 0
M  V30 1989 C 183.046 0.509806 1.9794 0
M  V30 1990 C 183.41 -0.923736 1.68319 0
M  V30 1991 O 184.611 -1.40481 2.29169 0
M  V30 1992 C 182.882 0.776732 3.48858 0
M  V30 1993 S 184.441 0.503843 4.35898 0
M  V30 1994 H 181.259 0.189699 0.685227 0
M  V30 1995 H 183.861 1.14399 1.58535 0
M  V30 1996 H 182.565 1.81857 3.67908 0
M  V30 1997 H 182.096 0.1301 3.93185 0
M  V30 1998 H 184.111 -0.657625 4.91823 0
M  V30 1999 N 183.284 -1.43765 0.645699 0
M  V30 2000 C 184.214 -2.33471 -0.0370477 0
M  V30 2001 C 185.195 -1.49042 -0.819779 0
M  V30 2002 O 186.38 -1.77726 -0.782758 0
M  V30 2003 C 183.51 -3.32311 -1.0093 0
M  V30 2004 C 182.464 -4.2667 -0.337201 0
M  V30 2005 C 181.79 -5.1549 -1.42037 0
M  V30 2006 C 183.09 -5.16657 0.765706 0
M  V30 2007 H 184.784 -2.90809 0.712069 0
M  V30 2008 H 182.33 -1.39834 0.343876 0
M  V30 2009 H 184.283 -3.9396 -1.49578 0
M  V30 2010 H 183.007 -2.73213 -1.78948 0
M  V30 2011 H 181.666 -3.66374 0.128771 0
M  V30 2012 H 181.314 -4.52735 -2.1918 0
M  V30 2013 H 181.014 -5.79438 -0.975966 0
M  V30 2014 H 182.538 -5.80012 -1.90838 0
M  V30 2015 H 183.952 -5.72158 0.361702 0
M  V30 2016 H 182.349 -5.89286 1.13413 0
M  V30 2017 H 183.419 -4.56796 1.62683 0
M  V30 2018 N 184.763 -0.387143 -1.52771 0
M  V30 2019 C 186.009 0.196025 -2.0185 0
M  V30 2020 C 186.342 1.46641 -1.27319 0
M  V30 2021 O 185.617 1.90889 -0.373032 0
M  V30 2022 C 185.9 0.466136 -3.5707 0
M  V30 2023 C 185.753 -0.819385 -4.42274 0
M  V30 2024 C 187.072 1.25768 -4.21747 0
M  V30 2025 H 184.191 0.0697708 -0.73369 0
M  V30 2026 H 186.833 -0.516286 -1.82851 0
M  V30 2027 H 184.983 1.07293 -3.7339 0
M  V30 2028 H 186.655 -1.4563 -4.37709 0
M  V30 2029 H 184.898 -1.43517 -4.09372 0
M  V30 2030 H 185.569 -0.585065 -5.48891 0
M  V30 2031 H 188.045 0.744167 -4.09391 0
M  V30 2032 H 186.921 1.41541 -5.30337 0
M  V30 2033 H 187.182 2.27228 -3.79236 0
M  V30 2034 N 186.241 1.57166 -0.116904 0
M  V30 2035 C 187.174 2.10912 0.871291 0
M  V30 2036 C 188.152 1.025 1.26224 0
M  V30 2037 O 189.336 1.3014 1.36366 0
M  V30 2038 C 186.463 2.6041 2.16574 0
M  V30 2039 C 185.509 3.80687 1.92302 0
M  V30 2040 S 186.342 5.23199 1.14119 0
M  V30 2041 C 187.498 5.76064 2.44748 0
M  V30 2042 H 187.731 2.94401 0.414138 0
M  V30 2043 H 185.264 1.54096 0.096829 0
M  V30 2044 H 187.222 2.89583 2.9095 0
M  V30 2045 H 185.883 1.77106 2.59408 0
M  V30 2046 H 185.076 4.13462 2.8821 0
M  V30 2047 H 184.678 3.5212 1.26047 0
M  V30 2048 H 186.97 5.8566 3.406 0
M  V30 2049 H 187.913 6.74184 2.16521 0
M  V30 2050 H 188.321 5.04117 2.54019 0
M  V30 2051 N 187.719 -0.156864 1.56817 0
M  V30 2052 C 189.13 -0.717916 1.72345 0
M  V30 2053 C 189.481 -1.82124 0.729747 0
M  V30 2054 O 188.606 -2.16141 -0.105781 0
M  V30 2055 C 189.201 -1.30904 3.12489 0
M  V30 2056 C 187.76 -1.81676 3.29653 0
M  V30 2057 C 186.907 -0.701349 2.68284 0
M  V30 2058 H 189.858 0.0686989 1.58551 0
M  V30 2059 H 189.879 -2.17882 3.11942 0
M  V30 2060 H 189.391 -0.505796 3.8479 0
M  V30 2061 H 187.492 -2.64598 2.62333 0
M  V30 2062 H 187.605 -1.95226 4.3752 0
M  V30 2063 H 185.969 -1.12548 2.28484 0
M  V30 2064 H 186.752 0.0902846 3.43181 0
M  V30 2065 N 189.197 -1.51736 -0.425897 0
M  V30 2066 C 190.474 -1.55519 -1.1863 0
M  V30 2067 C 190.854 -0.326219 -2.08564 0
M  V30 2068 O 190.202 0.688012 -2.17896 0
M  V30 2069 C 190.412 -2.87521 -1.9782 0
M  V30 2070 C 191.76 -3.39899 -2.54468 0
M  V30 2071 O 192.784 -2.89148 -2.08019 0
M  V30 2072 O 191.643 -4.2848 -3.39215 0
M  V30 2073 H 188.737 -0.625739 -0.540721 0
M  V30 2074 H 191.283 -1.64055 -0.434038 0
M  V30 2075 H 190.055 -3.68422 -1.31836 0
M  V30 2076 H 189.678 -2.822 -2.80088 0
M  V30 2077 N 190.675 0.682077 -1.42076 0
M  V30 2078 C 191.607 1.80755 -1.40926 0
M  V30 2079 C 192.62 1.59833 -0.309398 0
M  V30 2080 O 193.809 1.69087 -0.572014 0
M  V30 2081 C 190.909 3.17744 -1.17865 0
M  V30 2082 C 190.082 3.65578 -2.40149 0
M  V30 2083 C 189.141 4.81277 -2.12742 0
M  V30 2084 O 188.167 4.92197 -2.85887 0
M  V30 2085 N 189.369 5.69474 -1.12602 0
M  V30 2086 H 192.134 1.82229 -2.37935 0
M  V30 2087 H 189.695 0.864903 -1.36861 0
M  V30 2088 H 191.687 3.9279 -0.9746 0
M  V30 2089 H 190.257 3.11214 -0.294068 0
M  V30 2090 H 189.477 2.81291 -2.76169 0
M  V30 2091 H 190.765 3.94278 -3.21593 0
M  V30 2092 H 190.163 5.63297 -0.520899 0
M  V30 2093 H 188.72 6.44363 -0.981842 0
M  V30 2094 N 192.153 1.28127 0.917671 0
M  V30 2095 C 193.063 1.13556 2.05286 0
M  V30 2096 C 194.079 0.0630914 1.73886 0
M  V30 2097 O 195.255 0.271598 1.9956 0
M  V30 2098 C 192.32 0.794676 3.3747 0
M  V30 2099 C 191.381 1.94909 3.82504 0
M  V30 2100 C 190.614 1.62437 5.0838 0
M  V30 2101 O 190.837 0.536905 5.67867 0
M  V30 2102 O 189.771 2.46677 5.4903 0
M  V30 2103 H 193.597 2.08844 2.20495 0
M  V30 2104 H 191.182 1.07409 1.03845 0
M  V30 2105 H 193.064 0.618344 4.16839 0
M  V30 2106 H 191.739 -0.128581 3.23445 0
M  V30 2107 H 190.646 2.18055 3.03978 0
M  V30 2108 H 191.979 2.85291 4.01086 0
M  V30 2109 N 193.631 -1.12557 1.10312 0
M  V30 2110 C 194.88 -1.83395 0.839588 0
M  V30 2111 C 195.193 -1.84939 -0.636929 0
M  V30 2112 O 196.399 -2.51761 -1.01631 0
M  V30 2113 C 194.855 -3.29303 1.45215 0
M  V30 2114 C 194.463 -3.36122 2.96186 0
M  V30 2115 C 196.207 -4.05121 1.26796 0
M  V30 2116 C 194.114 -4.76357 3.50483 0
M  V30 2117 H 193.044 -0.687133 0.310425 0
M  V30 2118 H 195.695 -1.26746 1.32694 0
M  V30 2119 H 194.077 -3.85812 0.892469 0
M  V30 2120 H 195.251 -2.89559 3.58458 0
M  V30 2121 H 193.566 -2.73776 3.13745 0
M  V30 2122 H 196.163 -5.08668 1.64806 0
M  V30 2123 H 196.506 -4.15773 0.209409 0
M  V30 2124 H 197.039 -3.54967 1.79563 0
M  V30 2125 H 193.778 -4.70899 4.55998 0
M  V30 2126 H 193.298 -5.23377 2.92978 0
M  V30 2127 H 194.977 -5.45294 3.48228 0
M  V30 2128 N 195.109 -0.891671 -1.2995 0
M  V30 2129 C 196.355 -0.514261 -1.96171 0
M  V30 2130 C 196.688 0.935506 -1.70182 0
M  V30 2131 O 195.963 1.66204 -1.01028 0
M  V30 2132 C 196.246 -0.797719 -3.51153 0
M  V30 2133 C 196.099 -2.2986 -3.86632 0
M  V30 2134 C 197.418 -0.278749 -4.39216 0
M  V30 2135 H 194.537 -0.188314 -0.712535 0
M  V30 2136 H 197.179 -1.11689 -1.53706 0
M  V30 2137 H 195.329 -0.284826 -3.87455 0
M  V30 2138 H 197.001 -2.88042 -3.60319 0
M  V30 2139 H 195.244 -2.76257 -3.34462 0
M  V30 2140 H 195.915 -2.44753 -4.94773 0
M  V30 2141 H 198.391 -0.717825 -4.09862 0
M  V30 2142 H 197.267 -0.506353 -5.46559 0
M  V30 2143 H 197.528 0.820266 -4.34424 0
M  V30 2144 N 196.587 1.43421 -0.653314 0
M  V30 2145 C 197.834 2.01812 -0.166745 0
M  V30 2146 C 198.162 1.51535 1.21931 0
M  V30 2147 O 197.417 0.698975 1.82792 0
M  V30 2148 C 197.716 3.57176 -0.126623 0
M  V30 2149 C 197.382 4.26798 -1.45444 0
M  V30 2150 C 196.044 4.45534 -1.81805 0
M  V30 2151 C 198.396 4.66225 -2.32989 0
M  V30 2152 C 195.724 5.00961 -3.05377 0
M  V30 2153 C 198.076 5.23021 -3.55853 0
M  V30 2154 C 196.74 5.39973 -3.9241 0
M  V30 2155 H 196.01 0.738484 -0.0610162 0
M  V30 2156 H 198.657 1.71896 -0.84404 0
M  V30 2157 H 196.962 3.86634 0.634123 0
M  V30 2158 H 198.659 4.00112 0.266723 0
M  V30 2159 H 195.249 4.12561 -1.16153 0
M  V30 2160 H 199.433 4.51443 -2.06187 0
M  V30 2161 H 194.689 5.12271 -3.3375 0
M  V30 2162 H 198.863 5.52518 -4.23907 0
M  V30 2163 H 196.49 5.82687 -4.88242 0
M  V30 2164 N 198.065 0.39524 1.52563 0
M  V30 2165 C 199.476 -0.0774719 1.86539 0
M  V30 2166 C 199.827 -1.45641 1.31466 0
M  V30 2167 O 198.952 -2.06459 0.648367 0
M  V30 2168 C 199.547 -0.147356 3.38479 0
M  V30 2169 C 198.106 -0.564373 3.72145 0
M  V30 2170 C 197.253 0.269919 2.75983 0
M  V30 2171 H 200.204 0.612876 1.46388 0
M  V30 2172 H 200.225 -0.965343 3.68051 0
M  V30 2173 H 199.737 0.856387 3.78534 0
M  V30 2174 H 197.838 -1.57527 3.37663 0
M  V30 2175 H 197.951 -0.318402 4.78041 0
M  V30 2176 H 196.315 -0.265696 2.5331 0
M  V30 2177 H 197.098 1.27175 3.18875 0
M  V30 2178 N 199.544 -1.57102 0.125237 0
M  V30 2179 C 200.474 -2.18659 -0.819174 0
M  V30 2180 C 201.455 -1.12843 -1.27281 0
M  V30 2181 O 202.64 -1.41104 -1.33429 0
M  V30 2182 C 199.77 -2.79096 -2.06695 0
M  V30 2183 C 198.724 -3.90548 -1.75088 0
M  V30 2184 C 198.05 -4.37821 -3.06948 0
M  V30 2185 C 199.35 -5.12356 -1.01435 0
M  V30 2186 H 201.044 -2.9783 -0.306202 0
M  V30 2187 H 198.59 -1.4326 -0.145839 0
M  V30 2188 H 200.543 -3.2082 -2.73226 0
M  V30 2189 H 199.267 -1.97223 -2.60328 0
M  V30 2190 H 197.926 -3.49409 -1.10944 0
M  V30 2191 H 197.574 -3.52799 -3.58527 0
M  V30 2192 H 197.274 -5.12982 -2.86571 0
M  V30 2193 H 198.798 -4.822 -3.74587 0
M  V30 2194 H 200.212 -5.5106 -1.58132 0
M  V30 2195 H 198.609 -5.9314 -0.911319 0
M  V30 2196 H 199.679 -4.849 -0.00218681 0
M  V30 2197 N 201.022 0.148545 -1.56898 0
M  V30 2198 C 202.299 0.890019 -1.74178 0
M  V30 2199 C 202.679 1.99407 -0.692839 0
M  V30 2200 O 202.027 2.26671 0.288505 0
M  V30 2201 C 202.237 1.43389 -3.18183 0
M  V30 2202 C 203.585 1.89791 -3.79822 0
M  V30 2203 O 204.609 1.53134 -3.21603 0
M  V30 2204 O 203.468 2.57387 -4.82093 0
M  V30 2205 H 200.562 0.420496 -0.712118 0
M  V30 2206 H 203.108 0.134591 -1.69165 0
M  V30 2207 H 201.88 0.640383 -3.86024 0
M  V30 2208 H 201.503 2.25287 -3.27615 0
M  V30 2209 N 202.5 1.5196 0.417844 0
M  V30 2210 C 203.433 1.69387 1.52916 0
M  V30 2211 C 204.411 0.541419 1.53321 0
M  V30 2212 O 205.595 0.767695 1.72159 0
M  V30 2213 C 202.722 1.72525 2.91467 0
M  V30 2214 C 201.768 2.93967 3.09008 0
M  V30 2215 S 202.601 4.54461 2.83242 0
M  V30 2216 C 203.757 4.60372 4.24038 0
M  V30 2217 H 203.99 2.63382 1.37903 0
M  V30 2218 H 201.523 1.41889 0.608845 0
M  V30 2219 H 203.481 1.75018 3.7132 0
M  V30 2220 H 202.142 0.796733 3.03827 0
M  V30 2221 H 201.335 2.92619 4.10353 0
M  V30 2222 H 200.937 2.89316 2.37007 0
M  V30 2223 H 203.229 4.37213 5.17544 0
M  V30 2224 H 204.172 5.62273 4.30412 0
M  V30 2225 H 204.58 3.89492 4.08602 0
M  V30 2226 N 203.978 -0.674533 1.42435 0
M  V30 2227 C 205.226 -1.43175 1.42637 0
M  V30 2228 C 205.547 -1.94951 0.0438992 0
M  V30 2229 O 204.817 -1.7308 -0.917607 0
M  V30 2230 H 203.397 -0.531307 0.525092 0
M  V30 2231 H 206.059 -0.797006 1.77859 0
M  V30 2232 H 205.155 -2.28463 2.12629 0
M  V30 2233 N 205.456 -1.28612 -0.910864 0
M  V30 2234 C 206.705 -1.15311 -1.65488 0
M  V30 2235 C 207.018 0.296999 -1.93332 0
M  V30 2236 O 208.224 0.551168 -2.65847 0
M  V30 2237 C 206.68 -2.01599 -2.98137 0
M  V30 2238 C 206.288 -3.51367 -2.7793 0
M  V30 2239 C 208.032 -1.96993 -3.76024 0
M  V30 2240 C 205.939 -4.29797 -4.06237 0
M  V30 2241 H 204.869 -0.42796 -0.620779 0
M  V30 2242 H 207.52 -1.53166 -1.01057 0
M  V30 2243 H 205.902 -1.56603 -3.63719 0
M  V30 2244 H 207.076 -4.0434 -2.21011 0
M  V30 2245 H 205.391 -3.57529 -2.13452 0
M  V30 2246 H 207.988 -2.52856 -4.71135 0
M  V30 2247 H 208.331 -0.94733 -4.05378 0
M  V30 2248 H 208.864 -2.39973 -3.17266 0
M  V30 2249 H 205.603 -5.32648 -3.82055 0
M  V30 2250 H 205.123 -3.81596 -4.62757 0
M  V30 2251 H 206.802 -4.39869 -4.74473 0
M  V30 2252 N 206.934 1.1197 -1.10907 0
M  V30 2253 C 208.18 1.8386 -0.855773 0
M  V30 2254 C 208.513 1.84134 0.617103 0
M  V30 2255 O 207.788 1.29041 1.45529 0
M  V30 2256 C 208.071 3.31305 -1.411 0
M  V30 2257 C 207.924 3.39456 -2.9511 0
M  V30 2258 C 209.243 4.2721 -1.05736 0
M  V30 2259 H 206.362 0.667545 -0.312334 0
M  V30 2260 H 209.004 1.31331 -1.37303 0
M  V30 2261 H 207.154 3.76169 -0.97105 0
M  V30 2262 H 208.826 3.03191 -3.47668 0
M  V30 2263 H 207.069 2.79849 -3.31462 0
M  V30 2264 H 207.74 4.43209 -3.29044 0
M  V30 2265 H 210.216 3.90497 -1.43706 0
M  V30 2266 H 209.092 5.28775 -1.47269 0
M  V30 2267 H 209.353 4.42088 0.0325958 0
M  V30 2268 N 208.412 0.89855 1.29475 0
M  V30 2269 C 209.66 0.522847 1.9522 0
M  V30 2270 C 209.981 -0.93371 1.71192 0
M  V30 2271 O 209.251 -1.65823 1.04305 0
M  V30 2272 H 207.831 0.190366 0.722336 0
M  V30 2273 H 210.493 1.14459 1.5775 0
M  V30 2274 H 209.589 0.704476 3.04045 0
M  V30 2275 N 209.89 -1.43072 0.660911 0
M  V30 2276 C 210.84 -2.27948 -0.04847 0
M  V30 2277 C 211.824 -1.40325 -0.787246 0
M  V30 2278 O 213.016 -1.63893 -0.668446 0
M  V30 2279 C 210.145 -3.28143 -1.00881 0
M  V30 2280 C 209.231 -4.23252 -0.268108 0
M  V30 2281 N 209.622 -5.00656 0.719528 0
M  V30 2282 C 207.92 -4.43092 -0.508493 0
M  V30 2283 C 208.621 -5.70019 1.15988 0
M  V30 2284 N 207.597 -5.41364 0.492584 0
M  V30 2285 H 211.399 -2.85213 0.709279 0
M  V30 2286 H 208.913 -1.54869 0.488822 0
M  V30 2287 H 210.91 -3.87736 -1.53188 0
M  V30 2288 H 209.57 -2.7244 -1.76654 0
M  V30 2289 H 210.581 -5.06115 1.09855 0
M  V30 2290 H 207.258 -3.98449 -1.24679 0
M  V30 2291 H 208.648 -6.4214 1.97751 0
M  V30 2292 N 211.368 -0.403325 -1.52352 0
M  V30 2293 C 212.614 0.174605 -2.02047 0
M  V30 2294 C 212.947 1.45282 -1.28867 0
M  V30 2295 O 212.222 1.90483 -0.393257 0
M  V30 2296 C 212.505 0.428238 -3.57545 0
M  V30 2297 C 212.358 -0.866248 -4.4138 0
M  V30 2298 C 213.677 1.21287 -4.23057 0
M  V30 2299 H 210.796 0.0619851 -0.734389 0
M  V30 2300 H 213.438 -0.53565 -1.82293 0
M  V30 2301 H 211.588 1.03327 -3.74507 0
M  V30 2302 H 213.26 -1.50265 -4.3614 0
M  V30 2303 H 211.503 -1.47851 -4.07827 0
M  V30 2304 H 212.174 -0.643249 -5.48239 0
M  V30 2305 H 214.65 0.700703 -4.10158 0
M  V30 2306 H 213.526 1.35909 -5.31808 0
M  V30 2307 H 213.787 2.23193 -3.81625 0
M  V30 2308 N 212.846 1.57033 -0.133567 0
M  V30 2309 C 213.809 2.14897 0.796995 0
M  V30 2310 C 214.809 1.0874 1.18458 0
M  V30 2311 O 215.999 1.34446 1.1077 0
M  V30 2312 C 213.131 2.70112 2.07973 0
M  V30 2313 H 214.324 2.98457 0.293873 0
M  V30 2314 H 211.877 1.55871 0.115787 0
M  V30 2315 H 212.612 1.9018 2.62682 0
M  V30 2316 H 212.397 3.47764 1.81115 0
M  V30 2317 H 213.887 3.14738 2.74462 0
M  V30 2318 N 214.325 -0.140222 1.56975 0
M  V30 2319 C 215.275 -1.17827 1.95194 0
M  V30 2320 C 216.259 -1.38195 0.824075 0
M  V30 2321 O 217.451 -1.39643 1.0876 0
M  V30 2322 C 214.58 -2.51024 2.34184 0
M  V30 2323 C 213.666 -2.3422 3.53556 0
M  V30 2324 N 214.057 -1.87185 4.69889 0
M  V30 2325 C 212.355 -2.64949 3.58773 0
M  V30 2326 C 213.056 -1.83586 5.5197 0
M  V30 2327 N 212.032 -2.2715 4.93866 0
M  V30 2328 H 215.834 -0.806817 2.82609 0
M  V30 2329 H 213.348 -0.348208 1.58623 0
M  V30 2330 H 215.345 -3.26074 2.59772 0
M  V30 2331 H 214.005 -2.88945 1.48124 0
M  V30 2332 H 215.016 -1.57048 4.93514 0
M  V30 2333 H 211.693 -3.067 2.8327 0
M  V30 2334 H 213.083 -1.48655 6.55249 0
M  V30 2335 N 215.803 -1.52179 -0.40978 0
M  V30 2336 C 217.028 -1.70347 -1.18308 0
M  V30 2337 C 217.453 -0.411887 -1.83535 0
M  V30 2338 O 216.811 0.630587 -1.6998 0
M  V30 2339 C 216.859 -2.83977 -2.22238 0
M  V30 2340 O 215.963 -2.495 -3.28365 0
M  V30 2341 H 215.304 -0.567103 -0.345384 0
M  V30 2342 H 217.834 -1.98879 -0.480445 0
M  V30 2343 H 217.844 -3.0887 -2.66577 0
M  V30 2344 H 216.519 -3.77685 -1.74146 0
M  V30 2345 H 215.096 -2.35277 -2.89308 0
M  V30 2346 N 217.281 0.66697 -1.42791 0
M  V30 2347 C 218.228 1.7803 -1.4688 0
M  V30 2348 C 219.198 1.6299 -0.319919 0
M  V30 2349 O 220.383 1.83432 -0.525118 0
M  V30 2350 C 217.523 3.1611 -1.38451 0
M  V30 2351 C 216.636 3.42381 -2.63437 0
M  V30 2352 C 215.771 4.70232 -2.47094 0
M  V30 2353 C 214.81 4.89564 -3.67415 0
M  V30 2354 N 213.947 6.08661 -3.49966 0
M  V30 2355 H 218.787 1.7387 -2.42019 0
M  V30 2356 H 216.324 0.84868 -1.20149 0
M  V30 2357 H 218.282 3.95914 -1.31561 0
M  V30 2358 H 216.912 3.19374 -0.469033 0
M  V30 2359 H 215.964 2.56774 -2.80662 0
M  V30 2360 H 217.276 3.52557 -3.52853 0
M  V30 2361 H 216.43 5.5814 -2.37834 0
M  V30 2362 H 215.169 4.62353 -1.5518 0
M  V30 2363 H 214.174 4.00096 -3.77099 0
M  V30 2364 H 215.399 4.99282 -4.6032 0
M  V30 2365 H 213.345 6.0194 -2.60776 0
M  V30 2366 H 213.262 6.19733 -4.32975 0
M  V30 2367 H 214.53 6.99226 -3.44532 0
M  V30 2368 N 218.759 1.29093 0.90403 0
M  V30 2369 C 219.706 1.13853 2.00764 0
M  V30 2370 C 220.676 0.0330084 1.66067 0
M  V30 2371 O 221.861 0.199733 1.89752 0
M  V30 2372 C 219.001 0.816537 3.35301 0
M  V30 2373 C 218.114 2.00206 3.82807 0
M  V30 2374 C 217.249 1.61983 5.059 0
M  V30 2375 C 216.288 2.77143 5.45764 0
M  V30 2376 N 215.425 2.39346 6.60044 0
M  V30 2377 H 220.265 2.08276 2.13132 0
M  V30 2378 H 217.802 1.03648 1.04381 0
M  V30 2379 H 219.76 0.610557 4.12708 0
M  V30 2380 H 218.39 -0.090779 3.22672 0
M  V30 2381 H 217.442 2.31988 3.01473 0
M  V30 2382 H 218.754 2.86512 4.08304 0
M  V30 2383 H 217.908 1.37649 5.90879 0
M  V30 2384 H 216.647 0.728202 4.82233 0
M  V30 2385 H 215.652 3.02165 4.59322 0
M  V30 2386 H 216.877 3.66964 5.71414 0
M  V30 2387 H 214.823 1.52665 6.37989 0
M  V30 2388 H 214.74 3.19185 6.85315 0
M  V30 2389 H 216.008 2.1832 7.48303 0
M  V30 2390 N 220.237 -1.11381 1.11499 0
M  V30 2391 C 221.486 -1.82494 0.858993 0
M  V30 2392 C 221.799 -1.85605 -0.617278 0
M  V30 2393 O 223.005 -2.52824 -0.989552 0
M  V30 2394 C 221.461 -3.27745 1.48699 0
M  V30 2395 C 221.069 -3.32961 2.99735 0
M  V30 2396 C 222.813 -4.03754 1.31085 0
M  V30 2397 C 220.72 -4.72612 3.55516 0
M  V30 2398 H 219.65 -0.683802 0.317696 0
M  V30 2399 H 222.301 -1.25331 1.34031 0
M  V30 2400 H 220.683 -3.84844 0.933339 0
M  V30 2401 H 221.857 -2.85741 3.61509 0
M  V30 2402 H 220.172 -2.70433 3.16631 0
M  V30 2403 H 222.769 -5.06891 1.70192 0
M  V30 2404 H 223.112 -4.15527 0.253496 0
M  V30 2405 H 223.645 -3.53043 1.83318 0
M  V30 2406 H 220.384 -4.66036 4.60967 0
M  V30 2407 H 219.904 -5.2024 2.98513 0
M  V30 2408 H 221.583 -5.4157 3.53992 0
M  V30 2409 N 221.715 -0.905404 -1.28997 0
M  V30 2410 C 222.678 -0.392253 -2.25819 0
M  V30 2411 C 223.678 0.476753 -1.5357 0
M  V30 2412 O 224.868 0.280994 -1.71919 0
M  V30 2413 C 222 0.438588 -3.38067 0
M  V30 2414 H 223.193 -1.24743 -2.72725 0
M  V30 2415 H 220.746 -0.684051 -1.40536 0
M  V30 2416 H 221.481 1.31352 -2.96508 0
M  V30 2417 H 221.266 -0.184167 -3.91667 0
M  V30 2418 H 222.756 0.78873 -4.10084 0
M  V30 2419 N 223.193 1.4272 -0.668489 0
M  V30 2420 C 224.141 2.32586 0.0254857 0
M  V30 2421 C 225.135 1.49471 0.797176 0
M  V30 2422 O 226.341 1.65583 0.705853 0
M  V30 2423 H 222.716 0.751514 0.0270339 0
M  V30 2424 H 224.687 2.88823 -0.749936 0
M  V30 2425 C 223.436 3.3397 0.967427 0
M  V30 2426 H 222.759 3.97961 0.383048 0
M  V30 2427 H 224.199 3.9945 1.42181 0
M  V30 2428 C 222.658 2.65744 2.0708 0
M  V30 2429 O 223.188 2.48454 3.15648 0
M  V30 2430 N 221.394 2.2487 1.8407 0
M  V30 2431 H 220.941 2.39132 0.95778 0
M  V30 2432 H 220.899 1.79552 2.58086 0
M  V30 2433 N 224.671 0.411399 1.52136 0
M  V30 2434 C 225.917 -0.163888 2.02137 0
M  V30 2435 C 226.25 -1.44597 1.29636 0
M  V30 2436 O 225.525 -1.90272 0.403353 0
M  V30 2437 C 225.808 -0.40927 3.57767 0
M  V30 2438 C 225.661 0.889643 4.40914 0
M  V30 2439 C 226.98 -1.19042 4.23694 0
M  V30 2440 H 224.099 -0.0580896 0.734707 0
M  V30 2441 H 226.741 0.54531 1.82007 0
M  V30 2442 H 224.891 -1.0134 3.7505 0
M  V30 2443 H 226.563 1.52575 4.35337 0
M  V30 2444 H 224.806 1.50011 4.07037 0
M  V30 2445 H 225.477 0.672314 5.4789 0
M  V30 2446 H 227.953 -0.678942 4.10524 0
M  V30 2447 H 226.829 -1.33086 5.32522 0
M  V30 2448 H 227.09 -2.21166 3.82803 0
M  V30 2449 N 226.149 -1.5696 0.141893 0
M  V30 2450 C 227.56 -1.82797 -0.379776 0
M  V30 2451 C 227.911 -1.06033 -1.6508 0
M  V30 2452 O 227.036 -0.304011 -2.14254 0
M  V30 2453 C 227.631 -3.31578 -0.695802 0
M  V30 2454 C 226.19 -3.58014 -1.16201 0
M  V30 2455 C 225.337 -2.76699 -0.182455 0
M  V30 2456 H 228.288 -1.54406 0.366675 0
M  V30 2457 H 228.309 -3.47454 -1.55099 0
M  V30 2458 H 227.821 -3.87421 0.229449 0
M  V30 2459 H 225.922 -3.07553 -2.10338 0
M  V30 2460 H 226.035 -4.66501 -1.09151 0
M  V30 2461 H 224.399 -2.45618 -0.674072 0
M  V30 2462 H 225.182 -3.35311 0.736297 0
M  V30 2463 N 227.627 0.131896 -1.57047 0
M  V30 2464 C 228.575 1.18146 -2.0036 0
M  V30 2465 C 229.569 1.43614 -0.898406 0
M  V30 2466 O 230.775 1.43729 -1.08361 0
M  V30 2467 H 227.15 0.398042 -0.638018 0
M  V30 2468 H 229.121 0.789564 -2.87765 0
M  V30 2469 C 227.87 2.50341 -2.41298 0
M  V30 2470 H 227.193 2.31578 -3.25902 0
M  V30 2471 H 228.633 3.22371 -2.75414 0
M  V30 2472 C 227.092 3.11984 -1.27153 0
M  V30 2473 O 227.622 3.97484 -0.580459 0
M  V30 2474 N 225.828 2.71662 -1.03189 0
M  V30 2475 H 225.375 2.02231 -1.59564 0
M  V30 2476 H 225.333 3.13238 -0.270077 0
M  V30 2477 N 229.106 1.52395 0.401703 0
M  V30 2478 C 230.334 1.70676 1.16949 0
M  V30 2479 C 230.749 0.419503 1.8408 0
M  V30 2480 O 230.106 -0.605061 1.72178 0
M  V30 2481 C 230.157 2.84753 2.22706 0
M  V30 2482 O 229.878 4.08495 1.58314 0
M  V30 2483 C 231.379 3.14608 3.12309 0
M  V30 2484 H 228.599 0.571787 0.351142 0
M  V30 2485 H 231.143 1.98987 0.471652 0
M  V30 2486 H 229.298 2.58941 2.88147 0
M  V30 2487 H 229.712 4.72117 2.28485 0
M  V30 2488 H 231.186 3.97923 3.82572 0
M  V30 2489 H 231.663 2.28464 3.75101 0
M  V30 2490 H 232.269 3.42212 2.52529 0
M  V30 2491 N 230.584 -0.659388 1.43143 0
M  V30 2492 C 231.494 -1.80167 1.50256 0
M  V30 2493 C 232.51 -1.69571 0.390106 0
M  V30 2494 O 233.686 -1.90849 0.643319 0
M  V30 2495 C 230.751 -3.16409 1.41725 0
M  V30 2496 C 229.812 -3.38848 2.63591 0
M  V30 2497 C 229.045 -4.68591 2.55458 0
M  V30 2498 O 229.268 -5.47532 1.59891 0
M  V30 2499 O 228.202 -4.92614 3.45854 0
M  V30 2500 H 232.028 -1.77121 2.46702 0
M  V30 2501 H 229.613 -0.817092 1.25076 0
M  V30 2502 H 231.495 -3.9768 1.39387 0
M  V30 2503 H 230.17 -3.20059 0.484118 0
M  V30 2504 H 229.077 -2.57366 2.71502 0
M  V30 2505 H 230.41 -3.4004 3.55856 0
M  V30 2506 N 232.062 -1.29571 -0.897171 0
M  V30 2507 C 232.972 -1.16808 -2.03453 0
M  V30 2508 C 233.988 -0.0907471 -1.73763 0
M  V30 2509 O 235.164 -0.303312 -1.99103 0
M  V30 2510 C 232.229 -0.848264 -3.36163 0
M  V30 2511 C 231.29 -2.0097 -3.79354 0
M  V30 2512 C 230.523 -1.70505 -5.05731 0
M  V30 2513 O 230.746 -0.62718 -5.66941 0
M  V30 2514 O 229.68 -2.5538 -5.45036 0
M  V30 2515 H 233.506 -2.12325 -2.17144 0
M  V30 2516 H 231.091 -1.09047 -1.02123 0
M  V30 2517 H 232.973 -0.684581 -4.15802 0
M  V30 2518 H 231.648 0.0771071 -3.23608 0
M  V30 2519 H 230.555 -2.22863 -3.00471 0
M  V30 2520 H 231.888 -2.91636 -3.96496 0
M  V30 2521 N 233.54 1.10788 -1.12088 0
M  V30 2522 C 234.817 1.79136 -0.785476 0
M  V30 2523 C 235.197 1.98246 0.725377 0
M  V30 2524 O 234.545 1.57258 1.65778 0
M  V30 2525 C 234.755 3.12375 -1.55636 0
M  V30 2526 C 236.103 3.8731 -1.74001 0
M  V30 2527 O 237.127 3.22085 -1.52117 0
M  V30 2528 O 235.986 5.04369 -2.10415 0
M  V30 2529 H 233.08 0.776226 -0.285311 0
M  V30 2530 H 235.626 1.1747 -1.2247 0
M  V30 2531 H 234.398 2.93863 -2.5838 0
M  V30 2532 H 234.021 3.81758 -1.11114 0
M  V30 2533 N 235.018 0.912232 1.28515 0
M  V30 2534 C 235.928 0.404506 2.31086 0
M  V30 2535 C 236.944 -0.50707 1.66448 0
M  V30 2536 O 238.12 -0.393624 1.97516 0
M  V30 2537 C 235.185 -0.348572 3.44943 0
M  V30 2538 C 234.246 0.59604 4.25142 0
M  V30 2539 C 233.479 -0.121194 5.33562 0
M  V30 2540 O 233.702 -1.34317 5.5436 0
M  V30 2541 O 232.636 0.542716 5.99448 0
M  V30 2542 H 236.462 1.25579 2.76521 0
M  V30 2543 H 234.047 0.676998 1.33181 0
M  V30 2544 H 235.929 -0.77395 4.14232 0
M  V30 2545 H 234.604 -1.17571 3.01594 0
M  V30 2546 H 233.511 1.07079 3.58448 0
M  V30 2547 H 234.844 1.38995 4.72167 0
M  V30 2548 N 236.496 -1.42363 0.676048 0
M  V30 2549 C 237.446 -2.27987 -0.0242903 0
M  V30 2550 C 238.43 -1.41153 -0.772319 0
M  V30 2551 O 239.622 -1.64592 -0.651025 0
M  V30 2552 C 236.751 -3.29195 -0.973953 0
M  V30 2553 C 235.837 -4.23512 -0.223202 0
M  V30 2554 N 236.228 -4.99865 0.772589 0
M  V30 2555 C 234.526 -4.43606 -0.461469 0
M  V30 2556 C 235.227 -5.68757 1.22027 0
M  V30 2557 N 234.203 -5.40811 0.549975 0
M  V30 2558 H 238.005 -2.84445 0.73949 0
M  V30 2559 H 235.519 -1.54341 0.50522 0
M  V30 2560 H 237.516 -3.89339 -1.49067 0
M  V30 2561 H 236.176 -2.74298 -1.73755 0
M  V30 2562 H 237.187 -5.04921 1.15217 0
M  V30 2563 H 233.864 -3.99749 -1.20446 0
M  V30 2564 H 235.254 -6.40007 2.0455 0
M  V30 2565 N 237.974 -0.419461 -1.51915 0
M  V30 2566 C 239.221 0.152939 -2.01922 0
M  V30 2567 C 239.549 1.4426 -1.30458 0
M  V30 2568 O 238.804 1.91514 -0.402593 0
M  V30 2569 C 239.103 0.437067 -3.54717 0
M  V30 2570 C 238.769 -0.764632 -4.44369 0
M  V30 2571 C 237.431 -1.09423 -4.68594 0
M  V30 2572 C 239.783 -1.56713 -4.97082 0
M  V30 2573 C 237.111 -2.22732 -5.42777 0
M  V30 2574 C 239.463 -2.69107 -5.72507 0
M  V30 2575 C 238.127 -3.02541 -5.95 0
M  V30 2576 H 237.397 0.0559644 -0.738884 0
M  V30 2577 H 240.044 -0.562998 -1.83037 0
M  V30 2578 H 238.349 1.23469 -3.71837 0
M  V30 2579 H 240.046 0.893083 -3.90928 0
M  V30 2580 H 236.636 -0.497775 -4.257 0
M  V30 2581 H 240.82 -1.32571 -4.78266 0
M  V30 2582 H 236.076 -2.48971 -5.58411 0
M  V30 2583 H 240.25 -3.31671 -6.12346 0
M  V30 2584 H 237.877 -3.90457 -6.52264 0
M  V30 2585 N 239.452 1.56882 -0.150215 0
M  V30 2586 C 240.692 1.98119 0.502804 0
M  V30 2587 C 241.056 1.03327 1.61826 0
M  V30 2588 O 242.257 1.33621 2.33236 0
M  V30 2589 C 240.528 3.43329 0.992988 0
M  V30 2590 S 242.087 4.0659 1.65015 0
M  V30 2591 H 238.905 0.692189 0.162467 0
M  V30 2592 H 241.507 1.93988 -0.242689 0
M  V30 2593 H 240.211 4.10046 0.170436 0
M  V30 2594 H 239.742 3.5118 1.77303 0
M  V30 2595 H 241.757 3.99906 2.93752 0
M  V30 2596 N 240.93 -0.123565 1.57115 0
M  V30 2597 C 242.207 -0.862196 1.75572 0
M  V30 2598 C 242.587 -1.98279 0.724475 0
M  V30 2599 O 241.935 -2.27102 -0.252407 0
M  V30 2600 C 242.145 -1.38309 3.20424 0
M  V30 2601 C 243.493 -1.83724 3.82793 0
M  V30 2602 O 244.517 -1.47999 3.23998 0
M  V30 2603 O 243.376 -2.49685 4.86127 0
M  V30 2604 H 240.47 -0.409113 0.718718 0
M  V30 2605 H 243.016 -0.107661 1.69358 0
M  V30 2606 H 241.788 -0.578889 3.86994 0
M  V30 2607 H 241.411 -2.20046 3.31158 0
M  V30 2608 N 242.408 -1.52605 -0.393616 0
M  V30 2609 C 243.655 -1.67424 -1.1391 0
M  V30 2610 C 243.983 -0.411859 -1.90089 0
M  V30 2611 O 243.238 0.605626 -1.86093 0
M  V30 2612 C 243.537 -2.85721 -2.14705 0
M  V30 2613 C 243.203 -4.23342 -1.55218 0
M  V30 2614 C 241.865 -4.60771 -1.3872 0
M  V30 2615 C 244.217 -5.09041 -1.11924 0
M  V30 2616 C 241.545 -5.81563 -0.774689 0
M  V30 2617 C 243.897 -6.30452 -0.520853 0
M  V30 2618 C 242.561 -6.66617 -0.343134 0
M  V30 2619 H 241.831 -0.612648 -0.416826 0
M  V30 2620 H 244.478 -1.8674 -0.424315 0
M  V30 2621 H 242.783 -2.60803 -2.92385 0
M  V30 2622 H 244.48 -2.94382 -2.72288 0
M  V30 2623 H 241.07 -3.93855 -1.69045 0
M  V30 2624 H 245.254 -4.80695 -1.23473 0
M  V30 2625 H 240.51 -6.08196 -0.625154 0
M  V30 2626 H 244.684 -6.96175 -0.177065 0
M  V30 2627 H 242.311 -7.60083 0.133571 0
M  V30 2628 N 243.887 0.651787 -1.4349 0
M  V30 2629 C 245.133 1.41376 -1.45398 0
M  V30 2630 C 245.466 1.94041 -0.0784823 0
M  V30 2631 O 244.741 1.72379 0.900878 0
M  V30 2632 C 245.024 2.59414 -2.49752 0
M  V30 2633 C 244.877 2.12232 -3.96582 0
M  V30 2634 C 246.196 3.61626 -2.50827 0
M  V30 2635 H 243.315 0.512719 -0.529422 0
M  V30 2636 H 245.957 0.738796 -1.75048 0
M  V30 2637 H 244.107 3.16997 -2.246 0
M  V30 2638 H 245.779 1.59639 -4.32797 0
M  V30 2639 H 244.022 1.43592 -4.09346 0
M  V30 2640 H 244.693 2.9712 -4.65214 0
M  V30 2641 H 247.169 3.13805 -2.7325 0
M  V30 2642 H 246.045 4.41766 -3.25783 0
M  V30 2643 H 246.306 4.14314 -1.5426 0
M  V30 2644 N 245.365 1.30045 0.890287 0
M  V30 2645 C 246.642 1.09227 1.62262 0
M  V30 2646 C 247.022 -0.360305 2.08002 0
M  V30 2647 O 246.37 -1.35084 1.84295 0
M  V30 2648 C 246.58 2.08835 2.79623 0
M  V30 2649 C 247.928 2.40266 3.50082 0
M  V30 2650 O 248.952 2.07104 2.89804 0
M  V30 2651 O 247.811 2.96967 4.58773 0
M  V30 2652 H 244.905 0.419132 0.712922 0
M  V30 2653 H 247.451 1.41451 0.937529 0
M  V30 2654 H 246.223 3.06633 2.43089 0
M  V30 2655 H 245.846 1.77397 3.55832 0
M  V30 2656 N 246.843 -1.10192 1.12674 0
M  V30 2657 C 248.092 -1.81573 0.8783 0
M  V30 2658 C 248.405 -1.86249 -0.597557 0
M  V30 2659 O 249.611 -2.5386 -0.962681 0
M  V30 2660 C 248.067 -3.26149 1.52167 0
M  V30 2661 C 247.675 -3.29763 3.03249 0
M  V30 2662 C 249.419 -4.0234 1.3536 0
M  V30 2663 C 247.326 -4.68815 3.60508 0
M  V30 2664 H 246.256 -0.680394 0.324931 0
M  V30 2665 H 248.907 -1.23902 1.35353 0
M  V30 2666 H 247.289 -3.83832 0.974104 0
M  V30 2667 H 248.463 -2.8189 3.6452 0
M  V30 2668 H 246.778 -2.67059 3.19481 0
M  V30 2669 H 249.375 -5.05058 1.75559 0
M  V30 2670 H 249.718 -4.15235 0.297554 0
M  V30 2671 H 250.251 -3.51079 1.87052 0
M  V30 2672 H 246.99 -4.61121 4.65884 0
M  V30 2673 H 246.51 -5.17045 3.04014 0
M  V30 2674 H 248.189 -5.37785 3.59717 0
M  V30 2675 N 248.321 -0.919034 -1.28029 0
M  V30 2676 C 249.251 -0.428581 -2.29533 0
M  V30 2677 C 250.232 0.50659 -1.62381 0
M  V30 2678 O 251.417 0.413195 -1.89753 0
M  V30 2679 C 248.547 0.327388 -3.45753 0
M  V30 2680 C 247.501 -0.519137 -4.2484 0
M  V30 2681 C 246.827 0.365486 -5.33449 0
M  V30 2682 C 248.127 -1.77914 -4.91064 0
M  V30 2683 H 249.821 -1.27687 -2.70807 0
M  V30 2684 H 247.367 -0.615428 -1.30186 0
M  V30 2685 H 249.32 0.681378 -4.15855 0
M  V30 2686 H 248.044 1.20963 -3.03374 0
M  V30 2687 H 246.703 -0.855717 -3.56473 0
M  V30 2688 H 246.351 1.24642 -4.87312 0
M  V30 2689 H 246.051 -0.197356 -5.87268 0
M  V30 2690 H 247.575 0.715241 -6.06396 0
M  V30 2691 H 248.989 -1.49374 -5.53498 0
M  V30 2692 H 247.386 -2.2848 -5.54903 0
M  V30 2693 H 248.456 -2.50382 -4.15255 0
M  V30 2694 N 249.799 1.42003 -0.683588 0
M  V30 2695 C 251.027 2.05746 -0.218182 0
M  V30 2696 C 251.442 1.51396 1.12804 0
M  V30 2697 O 250.799 0.657303 1.70252 0
M  V30 2698 C 250.85 3.61171 -0.154131 0
M  V30 2699 O 250.571 4.13508 -1.44716 0
M  V30 2700 C 252.072 4.42042 0.333713 0
M  V30 2701 H 249.292 0.662888 -0.10402 0
M  V30 2702 H 251.836 1.81987 -0.9328 0
M  V30 2703 H 249.991 3.84012 0.511231 0
M  V30 2704 H 250.405 5.07453 -1.32632 0
M  V30 2705 H 251.879 5.51028 0.327423 0
M  V30 2706 H 252.356 4.17269 1.37053 0
M  V30 2707 H 252.962 4.24239 -0.300222 0
M  V30 2708 N 251.277 0.427512 1.51691 0
M  V30 2709 C 252.187 -0.39527 2.31246 0
M  V30 2710 C 253.203 -1.03674 1.39742 0
M  V30 2711 O 254.379 -1.03425 1.72816 0
M  V30 2712 C 251.444 -1.48706 3.13189 0
M  V30 2713 C 250.505 -0.866743 4.20459 0
M  V30 2714 C 249.738 -1.90651 4.98486 0
M  V30 2715 O 249.961 -3.12733 4.77026 0
M  V30 2716 O 248.895 -1.5025 5.82845 0
M  V30 2717 H 252.721 0.253918 3.02637 0
M  V30 2718 H 250.306 0.190274 1.48183 0
M  V30 2719 H 252.188 -2.12047 3.64162 0
M  V30 2720 H 250.863 -2.12051 2.44573 0
M  V30 2721 H 249.77 -0.195544 3.73589 0
M  V30 2722 H 251.103 -0.276934 4.9142 0
M  V30 2723 N 252.755 -1.56801 0.158532 0
M  V30 2724 C 253.985 -2.00568 -0.495583 0
M  V30 2725 C 254.393 -1.03774 -1.58201 0
M  V30 2726 O 253.736 -0.0285797 -1.83678 0
M  V30 2727 C 253.798 -3.40768 -1.14532 0
M  V30 2728 C 253.462 -4.56553 -0.202101 0
M  V30 2729 C 254.459 -5.16714 0.574675 0
M  V30 2730 C 252.144 -5.02197 -0.101648 0
M  V30 2731 C 254.138 -6.20939 1.43924 0
M  V30 2732 C 251.825 -6.06274 0.766508 0
M  V30 2733 C 252.823 -6.65515 1.53555 0
M  V30 2734 O 252.511 -7.67575 2.38922 0
M  V30 2735 H 252.243 -0.662893 -0.13247 0
M  V30 2736 H 254.797 -2.03829 0.253559 0
M  V30 2737 H 253.027 -3.34381 -1.94233 0
M  V30 2738 H 254.716 -3.6857 -1.70033 0
M  V30 2739 H 255.482 -4.82341 0.507167 0
M  V30 2740 H 251.361 -4.55807 -0.689994 0
M  V30 2741 H 254.905 -6.67107 2.03996 0
M  V30 2742 H 250.802 -6.40073 0.835266 0
M  V30 2743 H 251.57 -7.84844 2.32296 0
M  V30 2744 N 254.233 0.115231 -1.57178 0
M  V30 2745 C 255.18 1.14115 -2.00615 0
M  V30 2746 C 256.15 1.40939 -0.878941 0
M  V30 2747 O 257.335 1.52741 -1.14345 0
M  V30 2748 C 254.475 2.46156 -2.4187 0
M  V30 2749 C 253.588 2.26236 -3.68024 0
M  V30 2750 C 252.723 3.51534 -3.98243 0
M  V30 2751 C 251.762 3.26787 -5.17568 0
M  V30 2752 N 250.899 4.44298 -5.43639 0
M  V30 2753 H 255.739 0.763743 -2.88047 0
M  V30 2754 H 253.276 0.365615 -1.42484 0
M  V30 2755 H 255.234 3.23189 -2.63827 0
M  V30 2756 H 253.864 2.81783 -1.57475 0
M  V30 2757 H 252.916 1.40102 -3.5366 0
M  V30 2758 H 254.228 2.03929 -4.55208 0
M  V30 2759 H 253.382 4.36984 -4.20868 0
M  V30 2760 H 252.121 3.76876 -3.09541 0
M  V30 2761 H 251.126 2.39729 -4.94783 0
M  V30 2762 H 252.351 3.02812 -6.0785 0
M  V30 2763 H 250.297 4.69754 -4.57895 0
M  V30 2764 H 250.214 4.25109 -6.25154 0
M  V30 2765 H 251.482 5.3087 -5.70786 0
M  V30 2766 N 255.711 1.52812 0.385517 0
M  V30 2767 C 256.939 1.71907 1.15133 0
M  V30 2768 C 257.354 0.439004 1.83625 0
M  V30 2769 O 256.711 -0.586765 1.7281 0
M  V30 2770 C 256.762 2.87099 2.19673 0
M  V30 2771 O 256.483 4.10151 1.53973 0
M  V30 2772 C 257.984 3.17902 3.08955 0
M  V30 2773 H 255.204 0.575479 0.345057 0
M  V30 2774 H 257.748 1.99476 0.45052 0
M  V30 2775 H 255.903 2.61982 2.85384 0
M  V30 2776 H 256.317 4.74514 2.23465 0
M  V30 2777 H 257.791 4.01959 3.7833 0
M  V30 2778 H 258.268 2.3243 3.72657 0
M  V30 2779 H 258.874 3.44871 2.48885 0
M  V30 2780 N 257.189 -0.644168 1.43834 0
M  V30 2781 C 258.136 -1.75671 1.49694 0
M  V30 2782 C 259.106 -1.6246 0.345809 0
M  V30 2783 O 260.291 -1.82573 0.554234 0
M  V30 2784 C 257.431 -3.13867 1.43463 0
M  V30 2785 C 256.544 -3.38147 2.6885 0
M  V30 2786 C 255.679 -4.66241 2.54544 0
M  V30 2787 C 254.718 -4.83657 3.75157 0
M  V30 2788 N 253.855 -6.03016 3.59605 0
M  V30 2789 H 258.695 -1.69998 2.44754 0
M  V30 2790 H 256.232 -0.829458 1.21484 0
M  V30 2791 H 258.19 -3.9377 1.37843 0
M  V30 2792 H 256.82 -3.18588 0.519783 0
M  V30 2793 H 255.872 -2.52276 2.84712 0
M  V30 2794 H 257.184 -3.46899 3.58417 0
M  V30 2795 H 256.338 -5.54285 2.46683 0
M  V30 2796 H 255.077 -4.59826 1.62516 0
M  V30 2797 H 254.082 -3.94046 3.83416 0
M  V30 2798 H 255.307 -4.91896 4.68204 0
M  V30 2799 H 253.253 -5.97715 2.7032 0
M  V30 2800 H 253.17 -6.12766 4.42779 0
M  V30 2801 H 254.438 -6.93657 3.55613 0
M  V30 2802 N 258.668 -1.30515 -0.883378 0
M  V30 2803 C 259.616 -1.16941 -2.01066 0
M  V30 2804 C 260.61 -0.0809148 -1.69207 0
M  V30 2805 O 261.816 -0.241877 -1.78367 0
M  V30 2806 H 258.191 -0.361705 -0.659298 0
M  V30 2807 H 260.162 -2.12344 -2.09649 0
M  V30 2808 C 258.911 -0.879694 -3.36388 0
M  V30 2809 H 258.234 -1.70936 -3.61415 0
M  V30 2810 H 259.674 -0.82483 -4.159 0
M  V30 2811 C 258.133 0.417409 -3.34304 0
M  V30 2812 O 258.663 1.43843 -3.75063 0
M  V30 2813 N 256.869 0.429141 -2.87414 0
M  V30 2814 H 256.416 -0.402222 -2.5444 0
M  V30 2815 H 256.374 1.29696 -2.86403 0
M  V30 2816 N 260.146 1.09593 -1.13257 0
M  V30 2817 C 261.395 1.81105 -0.887917 0
M  V30 2818 C 261.708 1.86563 0.587672 0
M  V30 2819 O 262.914 2.54367 0.949204 0
M  V30 2820 C 261.37 3.25338 -1.53895 0
M  V30 2821 C 260.978 3.28151 -3.04994 0
M  V30 2822 C 262.722 4.01617 -1.37492 0
M  V30 2823 C 260.629 4.66897 -3.6299 0
M  V30 2824 H 259.559 0.678661 -0.328534 0
M  V30 2825 H 262.21 1.23183 -1.36008 0
M  V30 2826 H 260.592 3.8331 -0.994446 0
M  V30 2827 H 261.766 2.79953 -3.66009 0
M  V30 2828 H 260.081 2.65361 -3.20893 0
M  V30 2829 H 262.678 5.04119 -1.78235 0
M  V30 2830 H 263.021 4.15072 -0.31957 0
M  V30 2831 H 263.554 3.50082 -1.88912 0
M  V30 2832 H 260.293 4.58643 -4.68323 0
M  V30 2833 H 259.813 5.15426 -3.06752 0
M  V30 2834 H 261.492 5.3587 -3.62563 0
M  V30 2835 N 261.624 0.925811 1.2754 0
M  V30 2836 C 262.554 0.440748 2.29303 0
M  V30 2837 C 263.535 -0.497971 1.62648 0
M  V30 2838 O 264.72 -0.403126 1.8997 0
M  V30 2839 C 261.85 -0.309048 3.45922 0
M  V30 2840 C 260.804 0.54166 4.24559 0
M  V30 2841 C 260.13 -0.337191 5.33636 0
M  V30 2842 C 261.43 1.80516 4.90114 0
M  V30 2843 H 263.124 1.29121 2.70126 0
M  V30 2844 H 260.67 0.622323 1.29858 0
M  V30 2845 H 262.623 -0.659315 4.1621 0
M  V30 2846 H 261.347 -1.19352 3.04011 0
M  V30 2847 H 260.006 0.874609 3.56014 0
M  V30 2848 H 259.654 -1.22056 4.87966 0
M  V30 2849 H 259.354 0.228497 5.87156 0
M  V30 2850 H 260.878 -0.683072 6.06767 0
M  V30 2851 H 262.292 1.52307 5.52698 0
M  V30 2852 H 260.689 2.3142 5.53683 0
M  V30 2853 H 261.759 2.52581 4.13921 0
M  V30 2854 N 263.102 -1.41638 0.69111 0
M  V30 2855 C 264.065 -2.29178 0.0319786 0
M  V30 2856 C 265.065 -1.44153 -0.712496 0
M  V30 2857 O 266.255 -1.65354 -0.548053 0
M  V30 2858 C 263.387 -3.26952 -0.965161 0
M  V30 2859 H 264.58 -2.88959 0.802681 0
M  V30 2860 H 262.133 -1.4955 0.454356 0
M  V30 2861 H 262.868 -2.72142 -1.76378 0
M  V30 2862 H 262.653 -3.89685 -0.434522 0
M  V30 2863 H 264.143 -3.92561 -1.42428 0
M  V30 2864 N 264.58 -0.43555 -1.51462 0
M  V30 2865 C 265.805 0.132627 -2.06976 0
M  V30 2866 C 266.23 1.35848 -1.30104 0
M  V30 2867 O 265.588 1.78112 -0.338493 0
M  V30 2868 C 265.636 0.43523 -3.57964 0
M  V30 2869 O 264.74 1.52198 -3.83288 0
M  V30 2870 H 264.081 0.00265 -0.663995 0
M  V30 2871 H 266.611 -0.616369 -1.95095 0
M  V30 2872 H 266.621 0.686206 -4.02188 0
M  V30 2873 H 265.296 -0.460739 -4.1334 0
M  V30 2874 H 263.873 1.2611 -3.50928 0
M  V30 2875 N 266.058 1.56714 -0.166846 0
M  V30 2876 C 267.469 1.83378 0.350646 0
M  V30 2877 C 267.82 1.08646 1.63372 0
M  V30 2878 O 266.945 0.338058 2.13743 0
M  V30 2879 C 267.54 3.32643 0.642963 0
M  V30 2880 C 266.099 3.59818 1.10491 0
M  V30 2881 C 265.246 2.76954 0.138411 0
M  V30 2882 H 268.197 1.53803 -0.391193 0
M  V30 2883 H 268.218 3.49878 1.49551 0
M  V30 2884 H 267.73 3.87007 -0.291055 0
M  V30 2885 H 265.831 3.1086 2.05418 0
M  V30 2886 H 265.944 4.68178 1.01716 0
M  V30 2887 H 264.308 2.4666 0.634911 0
M  V30 2888 H 265.091 3.34097 -0.789549 0
M  V30 2889 N 267.536 -0.106894 1.57237 0
M  V30 2890 C 268.785 -0.811163 1.8467 0
M  V30 2891 C 269.098 -1.80469 0.754342 0
M  V30 2892 O 270.304 -2.55601 0.915439 0
M  V30 2893 C 268.76 -1.49337 3.27454 0
M  V30 2894 C 268.368 -0.540217 4.44731 0
M  V30 2895 C 270.112 -2.18206 3.64124 0
M  V30 2896 C 268.019 -1.22634 5.78545 0
M  V30 2897 H 266.949 -0.306679 0.688813 0
M  V30 2898 H 269.6 -0.0639887 1.83388 0
M  V30 2899 H 267.982 -2.2876 3.23241 0
M  V30 2900 H 269.156 0.221659 4.60267 0
M  V30 2901 H 267.471 0.042146 4.16379 0
M  V30 2902 H 270.068 -2.70253 4.61376 0
M  V30 2903 H 270.411 -2.96562 2.92158 0
M  V30 2904 H 270.944 -1.45658 3.70174 0
M  V30 2905 H 267.683 -0.483832 6.53712 0
M  V30 2906 H 267.203 -1.95993 5.66874 0
M  V30 2907 H 268.882 -1.75615 6.2271 0
M  V30 2908 N 269.014 -1.53014 -0.377408 0
M  V30 2909 C 269.947 -1.73382 -1.48371 0
M  V30 2910 C 270.925 -0.581879 -1.51832 0
M  V30 2911 O 272.109 -0.81307 -1.70063 0
M  V30 2912 C 269.236 -1.80192 -2.8679 0
M  V30 2913 C 268.282 -3.02056 -3.01105 0
M  V30 2914 S 269.115 -4.61811 -2.71093 0
M  V30 2915 C 270.271 -4.71453 -4.11683 0
M  V30 2916 H 270.504 -2.66946 -1.30872 0
M  V30 2917 H 268.037 -1.43453 -0.571012 0
M  V30 2918 H 269.995 -1.84802 -3.6655 0
M  V30 2919 H 268.656 -0.877008 -3.01608 0
M  V30 2920 H 267.849 -3.03396 -4.02451 0
M  V30 2921 H 267.451 -2.95498 -2.29253 0
M  V30 2922 H 269.743 -4.50781 -5.0577 0
M  V30 2923 H 270.686 -5.73487 -4.15353 0
M  V30 2924 H 271.094 -4.00189 -3.98132 0
M  V30 2925 N 270.492 0.636531 -1.44174 0
M  V30 2926 C 271.44 1.76995 -1.50915 0
M  V30 2927 C 272.434 1.65053 -0.381295 0
M  V30 2928 O 273.64 1.71197 -0.55601 0
M  V30 2929 H 270.015 0.584247 -0.473455 0
M  V30 2930 H 271.986 1.68432 -2.4632 0
M  V30 2931 C 270.735 3.15314 -1.46534 0
M  V30 2932 H 270.058 3.25149 -2.32633 0
M  V30 2933 H 271.498 3.9453 -1.55312 0
M  V30 2934 C 269.957 3.3639 -0.185305 0
M  V30 2935 O 270.487 3.94699 0.746688 0
M  V30 2936 N 268.693 2.9046 -0.0901606 0
M  V30 2937 H 268.24 2.43193 -0.849416 0
M  V30 2938 H 268.198 3.04937 0.765553 0
M  V30 2939 N 271.97 1.30982 0.876444 0
M  V30 2940 C 273.218 1.20058 1.62575 0
M  V30 2941 C 273.539 -0.242947 1.93481 0
M  V30 2942 O 272.809 -1.1619 1.57724 0
M  V30 2943 H 271.389 0.44135 0.602677 0
M  V30 2944 H 274.051 1.64222 1.04962 0
M  V30 2945 H 273.147 1.76762 2.57219 0
M  V30 2946 N 273.449 -1.08991 1.13837 0
M  V30 2947 C 274.396 -2.15748 0.819835 0
M  V30 2948 C 275.366 -1.64636 -0.220026 0
M  V30 2949 O 276.551 -1.90582 -0.0912757 0
M  V30 2950 C 273.691 -3.4382 0.296913 0
M  V30 2951 C 272.804 -4.0881 1.39636 0
M  V30 2952 C 271.939 -5.24655 0.831314 0
M  V30 2953 C 270.978 -5.81575 1.90886 0
M  V30 2954 N 270.115 -6.88774 1.36142 0
M  V30 2955 H 274.955 -2.42338 1.73426 0
M  V30 2956 H 272.492 -1.18935 0.865613 0
M  V30 2957 H 274.45 -4.17193 -0.0244339 0
M  V30 2958 H 273.08 -3.17535 -0.580628 0
M  V30 2959 H 272.132 -3.33258 1.83422 0
M  V30 2960 H 273.444 -4.47141 2.21058 0
M  V30 2961 H 272.598 -6.04942 0.461515 0
M  V30 2962 H 271.337 -4.87698 -0.013932 0
M  V30 2963 H 270.342 -4.99946 2.28767 0
M  V30 2964 H 271.567 -6.20592 2.75758 0
M  V30 2965 H 269.513 -6.53788 0.538254 0
M  V30 2966 H 269.43 -7.25898 2.11208 0
M  V30 2967 H 270.698 -7.72806 1.01933 0
M  V30 2968 N 274.927 -0.932562 -1.27047 0
M  V30 2969 C 276.204 -0.49377 -1.89265 0
M  V30 2970 C 276.584 1.02833 -1.8436 0
M  V30 2971 O 275.932 1.88461 -1.29209 0
M  V30 2972 C 276.142 -1.04536 -3.32976 0
M  V30 2973 C 277.49 -1.10879 -4.09867 0
M  V30 2974 O 278.514 -0.995327 -3.42011 0
M  V30 2975 O 277.373 -1.28417 -5.31198 0
M  V30 2976 H 274.467 -0.159596 -0.811454 0
M  V30 2977 H 277.013 -1.02457 -1.3528 0
M  V30 2978 H 275.785 -2.08913 -3.30864 0
M  V30 2979 H 275.408 -0.496494 -3.94488 0
M  V30 2980 N 276.405 1.4127 -0.698611 0
M  V30 2981 C 277.651 2.01478 -0.231207 0
M  V30 2982 C 277.984 1.55215 1.16713 0
M  V30 2983 O 277.259 0.764672 1.78838 0
M  V30 2984 C 277.542 3.58912 -0.292281 0
M  V30 2985 C 277.395 4.15293 -1.72778 0
M  V30 2986 C 278.714 4.38736 0.346194 0
M  V30 2987 H 275.833 0.732025 -0.0854878 0
M  V30 2988 H 278.475 1.67977 -0.887906 0
M  V30 2989 H 276.625 3.87582 0.26686 0
M  V30 2990 H 278.297 3.97486 -2.341 0
M  V30 2991 H 276.54 3.7022 -2.26096 0
M  V30 2992 H 277.211 5.24452 -1.72202 0
M  V30 2993 H 279.687 4.15897 -0.130035 0
M  V30 2994 H 278.563 5.48221 0.272932 0
M  V30 2995 H 278.824 4.18425 1.42734 0
M  V30 2996 N 277.883 0.443576 1.51229 0
M  V30 2997 C 279.129 -0.120975 2.02439 0
M  V30 2998 C 279.462 -1.41815 1.32674 0
M  V30 2999 O 278.737 -1.89373 0.443622 0
M  V30 3000 C 279.02 -0.333291 3.58554 0
M  V30 3001 C 278.873 0.982968 4.38928 0
M  V30 3002 C 280.192 -1.10028 4.26124 0
M  V30 3003 H 277.311 -0.0424923 0.735774 0
M  V30 3004 H 279.953 0.583794 1.80809 0
M  V30 3005 H 278.103 -0.933614 3.77115 0
M  V30 3006 H 279.775 1.61775 4.32003 0
M  V30 3007 H 278.018 1.58611 4.03763 0
M  V30 3008 H 278.689 0.788379 5.46341 0
M  V30 3009 H 281.165 -0.591711 4.11871 0
M  V30 3010 H 280.041 -1.21761 5.35225 0
M  V30 3011 H 280.302 -2.12996 3.87408 0
M  V30 3012 N 279.361 -1.56624 0.175154 0
M  V30 3013 C 280.324 -2.16934 -0.739738 0
M  V30 3014 C 281.324 -1.11842 -1.15533 0
M  V30 3015 O 282.514 -1.37335 -1.07167 0
M  V30 3016 C 279.646 -2.75531 -2.00738 0
M  V30 3017 H 280.839 -2.99131 -0.214639 0
M  V30 3018 H 278.392 -1.56123 -0.0744197 0
M  V30 3019 H 279.127 -1.97078 -2.57548 0
M  V30 3020 H 278.912 -3.52444 -1.71831 0
M  V30 3021 H 280.402 -3.21904 -2.66021 0
M  V30 3022 N 280.839 0.0985539 -1.57292 0
M  V30 3023 C 282.088 0.801358 -1.85098 0
M  V30 3024 C 282.401 1.80066 -0.763902 0
M  V30 3025 O 283.607 2.55112 -0.928981 0
M  V30 3026 C 282.063 1.47599 -3.28242 0
M  V30 3027 C 281.671 0.516624 -4.45011 0
M  V30 3028 C 283.415 2.16272 -3.65276 0
M  V30 3029 C 281.322 1.19564 -5.79188 0
M  V30 3030 H 280.252 0.303022 -0.69043 0
M  V30 3031 H 282.903 0.0542623 -1.8342 0
M  V30 3032 H 281.285 2.27042 -3.2445 0
M  V30 3033 H 282.459 -0.246065 -4.60143 0
M  V30 3034 H 280.774 -0.064227 -4.1635 0
M  V30 3035 H 283.371 2.67802 -4.62803 0
M  V30 3036 H 283.714 2.95009 -2.93727 0
M  V30 3037 H 284.247 1.43693 -3.70941 0
M  V30 3038 H 280.986 0.449157 -6.53959 0
M  V30 3039 H 280.506 1.92984 -5.67906 0
M  V30 3040 H 282.185 1.7231 -6.23633 0
M  V30 3041 N 282.317 1.53212 0.369288 0
M  V30 3042 C 283.566 1.68436 1.10961 0
M  V30 3043 C 283.879 0.440738 1.9057 0
M  V30 3044 O 285.085 0.473446 2.6734 0
M  V30 3045 C 283.541 2.97744 2.0218 0
M  V30 3046 C 283.149 4.29355 1.279 0
M  V30 3047 C 284.893 3.22334 2.76226 0
M  V30 3048 C 282.8 5.49755 2.17999 0
M  V30 3049 H 281.73 0.627568 0.41794 0
M  V30 3050 H 284.381 1.79713 0.370884 0
M  V30 3051 H 282.763 2.8026 2.79768 0
M  V30 3052 H 283.937 4.57458 0.554007 0
M  V30 3053 H 282.252 4.11179 0.657311 0
M  V30 3054 H 284.849 4.09471 3.43857 0
M  V30 3055 H 285.192 2.38238 3.41392 0
M  V30 3056 H 285.725 3.40475 2.05723 0
M  V30 3057 H 282.464 6.36318 1.57417 0
M  V30 3058 H 281.984 5.25937 2.88359 0
M  V30 3059 H 283.663 5.84401 2.77641 0
M  V30 3060 N 283.795 -0.628877 1.44509 0
M  V30 3061 C 284.728 -1.75367 1.46019 0
M  V30 3062 C 285.706 -1.59444 0.318787 0
M  V30 3063 O 286.89 -1.81297 0.516099 0
M  V30 3064 C 284.017 -3.12965 1.29501 0
M  V30 3065 C 283.063 -3.47532 2.47233 0
M  V30 3066 S 283.896 -3.44758 4.09758 0
M  V30 3067 C 285.052 -4.84973 3.95667 0
M  V30 3068 H 285.285 -1.7382 2.41193 0
M  V30 3069 H 282.818 -0.803686 1.31834 0
M  V30 3070 H 284.776 -3.92367 1.20658 0
M  V30 3071 H 283.437 -3.12049 0.358341 0
M  V30 3072 H 282.63 -4.47664 2.31544 0
M  V30 3073 H 282.232 -2.75598 2.52828 0
M  V30 3074 H 284.524 -5.74255 3.59496 0
M  V30 3075 H 285.467 -5.05716 4.95638 0
M  V30 3076 H 285.875 -4.59653 3.27688 0
M  V30 3077 N 285.273 -1.31445 -0.869486 0
M  V30 3078 C 286.236 -1.19094 -1.9583 0
M  V30 3079 C 287.236 -0.117906 -1.60367 0
M  V30 3080 O 288.426 -0.367208 -1.70286 0
M  V30 3081 C 285.558 -0.828165 -3.30688 0
M  V30 3082 H 286.751 -2.15842 -2.08212 0
M  V30 3083 H 284.304 -1.15063 -1.05784 0
M  V30 3084 H 285.039 0.138142 -3.24006 0
M  V30 3085 H 284.824 -1.6038 -3.578 0
M  V30 3086 H 286.314 -0.765658 -4.10521 0
M  V30 3087 N 286.751 1.08385 -1.14413 0
M  V30 3088 C 287.997 1.81044 -0.913834 0
M  V30 3089 C 288.33 1.86004 0.558209 0
M  V30 3090 O 287.605 1.33606 1.4135 0
M  V30 3091 C 287.888 3.26648 -1.51569 0
M  V30 3092 C 287.741 3.29895 -3.0576 0
M  V30 3093 C 289.06 4.23629 -1.19273 0
M  V30 3094 H 286.179 0.65727 -0.333414 0
M  V30 3095 H 288.821 1.26896 -1.41412 0
M  V30 3096 H 286.971 3.72889 -1.09023 0
M  V30 3097 H 288.643 2.91977 -3.57137 0
M  V30 3098 H 286.886 2.69163 -3.40197 0
M  V30 3099 H 287.557 4.32516 -3.42977 0
M  V30 3100 H 290.033 3.85727 -1.56057 0
M  V30 3101 H 288.909 5.23822 -1.64017 0
M  V30 3102 H 289.17 4.41968 -0.108068 0
M  V30 3103 N 288.23 0.939286 1.26551 0
M  V30 3104 C 289.178 0.43815 2.28436 0
M  V30 3105 C 290.172 -0.483587 1.62351 0
M  V30 3106 O 291.378 -0.362009 1.76322 0
M  V30 3107 H 287.753 0.123149 0.741848 0
M  V30 3108 H 289.724 1.31002 2.68106 0
M  V30 3109 C 288.473 -0.283052 3.46546 0
M  V30 3110 H 287.796 0.417043 3.97619 0
M  V30 3111 H 289.236 -0.597948 4.19763 0
M  V30 3112 C 287.695 -1.50018 3.01656 0
M  V30 3113 O 288.225 -2.59855 3.0633 0
M  V30 3114 N 286.431 -1.35608 2.57019 0
M  V30 3115 H 285.978 -0.46244 2.53415 0
M  V30 3116 H 285.936 -2.17165 2.27347 0
M  V30 3117 N 289.708 -1.40897 0.706093 0
M  V30 3118 C 290.655 -2.30751 0.0474474 0
M  V30 3119 C 291.625 -1.47678 -0.76029 0
M  V30 3120 O 292.81 -1.76441 -0.726177 0
M  V30 3121 C 289.95 -3.33815 -0.875309 0
M  V30 3122 C 289.063 -4.31961 -0.0580623 0
M  V30 3123 C 288.198 -5.22093 -0.979425 0
M  V30 3124 C 287.237 -6.11902 -0.155706 0
M  V30 3125 N 286.374 -6.94482 -1.03144 0
M  V30 3126 H 291.214 -2.86513 0.819413 0
M  V30 3127 H 288.751 -1.41102 0.415783 0
M  V30 3128 H 290.709 -3.92129 -1.42446 0
M  V30 3129 H 289.339 -2.79579 -1.61356 0
M  V30 3130 H 288.391 -3.75507 0.608147 0
M  V30 3131 H 289.703 -4.95415 0.580082 0
M  V30 3132 H 288.857 -5.85292 -1.59744 0
M  V30 3133 H 287.596 -4.5889 -1.65141 0
M  V30 3134 H 286.601 -5.47742 0.475309 0
M  V30 3135 H 287.826 -6.77162 0.512635 0
M  V30 3136 H 285.772 -6.33877 -1.68924 0
M  V30 3137 H 285.689 -7.54665 -0.449108 0
M  V30 3138 H 286.957 -7.6214 -1.63593 0
M  V30 3139 N 291.186 -0.45159 -1.50991 0
M  V30 3140 C 292.432 0.110237 -2.025 0
M  V30 3141 C 292.765 1.41109 -1.33424 0
M  V30 3142 O 292.04 1.89135 -0.453659 0
M  V30 3143 C 292.323 0.314271 -3.58726 0
M  V30 3144 C 292.176 -1.00623 -4.38401 0
M  V30 3145 C 293.495 1.07767 -4.26702 0
M  V30 3146 H 290.614 0.0385897 -0.735989 0
M  V30 3147 H 293.256 -0.593374 -1.80497 0
M  V30 3148 H 291.406 0.913601 -3.77605 0
M  V30 3149 H 293.078 -1.64064 -4.31139 0
M  V30 3150 H 291.321 -1.6075 -4.02917 0
M  V30 3151 H 291.992 -0.817341 -5.45915 0
M  V30 3152 H 294.468 0.56986 -4.12179 0
M  V30 3153 H 293.344 1.18921 -5.35863 0
M  V30 3154 H 293.605 2.10939 -3.88532 0
M  V30 3155 N 292.664 1.56529 -0.183458 0
M  V30 3156 C 293.941 1.88959 0.50536 0
M  V30 3157 C 294.321 1.09523 1.80466 0
M  V30 3158 O 293.669 0.19278 2.27685 0
M  V30 3159 C 293.879 3.41162 0.73547 0
M  V30 3160 C 295.227 4.11155 1.06005 0
M  V30 3161 O 296.251 3.46548 0.823594 0
M  V30 3162 O 295.11 5.25318 1.50675 0
M  V30 3163 H 292.204 0.78441 0.261973 0
M  V30 3164 H 294.75 1.68231 -0.222802 0
M  V30 3165 H 293.522 3.90874 -0.182561 0
M  V30 3166 H 293.145 3.67543 1.51651 0
M  V30 3167 N 294.142 -0.090211 1.57342 0
M  V30 3168 C 295.39 -0.791241 1.85967 0
M  V30 3169 C 295.711 -1.7903 0.772859 0
M  V30 3170 O 294.981 -1.94872 -0.200398 0
M  V30 3171 H 293.561 -0.295205 0.686195 0
M  V30 3172 H 296.223 -0.0706782 1.94772 0
M  V30 3173 H 295.319 -1.31882 2.82867 0
M  V30 3174 N 295.62 -1.53406 -0.361157 0
M  V30 3175 C 296.845 -1.74024 -1.12829 0
M  V30 3176 C 297.27 -0.470069 -1.82132 0
M  V30 3177 O 296.628 0.57619 -1.719 0
M  V30 3178 C 296.676 -2.90903 -2.13091 0
M  V30 3179 O 295.78 -2.59821 -3.20261 0
M  V30 3180 H 295.121 -0.577804 -0.327168 0
M  V30 3181 H 297.651 -2.00307 -0.41693 0
M  V30 3182 H 297.661 -3.17194 -2.56616 0
M  V30 3183 H 296.336 -3.83034 -1.62042 0
M  V30 3184 H 294.913 -2.44362 -2.81677 0
M  V30 3185 N 297.098 0.621204 -1.44841 0
M  V30 3186 C 298.048 1.72663 -1.48901 0
M  V30 3187 C 299.032 1.56964 -0.353702 0
M  V30 3188 O 300.224 1.66532 -0.599669 0
M  V30 3189 C 297.353 3.11381 -1.44557 0
M  V30 3190 C 296.439 3.32514 -2.6324 0
M  V30 3191 N 296.83 3.23969 -3.8843 0
M  V30 3192 C 295.128 3.63343 -2.58647 0
M  V30 3193 C 295.829 3.46062 -4.67564 0
M  V30 3194 N 294.805 3.69407 -3.98797 0
M  V30 3195 H 298.607 1.64529 -2.43531 0
M  V30 3196 H 296.121 0.82401 -1.39942 0
M  V30 3197 H 298.118 3.90667 -1.4555 0
M  V30 3198 H 296.778 3.20674 -0.509731 0
M  V30 3199 H 297.789 3.02669 -4.20252 0
M  V30 3200 H 294.466 3.79556 -1.73906 0
M  V30 3201 H 295.856 3.44963 -5.76585 0
M  V30 3202 N 298.576 1.31904 0.862503 0
M  V30 3203 C 299.823 1.22017 1.61611 0
M  V30 3204 C 300.151 -0.21991 1.93253 0
M  V30 3205 O 299.406 -1.17076 1.56817 0
M  V30 3206 C 299.705 2.01713 2.95037 0
M  V30 3207 C 299.371 3.51145 2.82857 0
M  V30 3208 C 298.033 3.91889 2.79243 0
M  V30 3209 C 300.385 4.46204 2.69353 0
M  V30 3210 C 297.713 5.25947 2.59993 0
M  V30 3211 C 300.065 5.80397 2.5164 0
M  V30 3212 C 298.729 6.20352 2.46413 0
M  V30 3213 H 297.999 0.44649 0.591378 0
M  V30 3214 H 300.646 1.63248 1.00111 0
M  V30 3215 H 298.951 1.53185 3.60613 0
M  V30 3216 H 300.648 1.91437 3.52353 0
M  V30 3217 H 297.238 3.1878 2.86491 0
M  V30 3218 H 301.422 4.15652 2.71196 0
M  V30 3219 H 296.678 5.5597 2.54376 0
M  V30 3220 H 300.852 6.53676 2.40169 0
M  V30 3221 H 298.479 7.24172 2.31256 0
M  V30 3222 N 300.054 -1.07777 1.14986 0
M  V30 3223 C 301.282 -1.84018 0.945773 0
M  V30 3224 C 301.697 -1.81897 -0.505863 0
M  V30 3225 O 301.054 -1.22726 -1.35072 0
M  V30 3226 C 301.105 -3.31287 1.44677 0
M  V30 3227 O 300.826 -3.33449 2.84154 0
M  V30 3228 C 302.327 -4.24311 1.28355 0
M  V30 3229 H 299.547 -0.580716 0.336169 0
M  V30 3230 H 302.091 -1.36077 1.52654 0
M  V30 3231 H 300.246 -3.76594 0.908625 0
M  V30 3232 H 300.66 -4.25427 3.06777 0
M  V30 3233 H 302.134 -5.2573 1.68261 0
M  V30 3234 H 302.611 -4.38612 0.227184 0
M  V30 3235 H 303.217 -3.84836 1.81056 0
M  V30 3236 N 301.532 -0.945985 -1.26051 0
M  V30 3237 C 302.479 -0.45809 -2.26208 0
M  V30 3238 C 303.449 0.484816 -1.58867 0
M  V30 3239 O 304.634 0.399969 -1.86561 0
M  V30 3240 C 301.774 0.266131 -3.44072 0
M  V30 3241 C 300.887 -0.713005 -4.26075 0
M  V30 3242 C 300.022 0.0329013 -5.3119 0
M  V30 3243 C 299.061 -0.93774 -6.04874 0
M  V30 3244 N 298.198 -0.223274 -7.01745 0
M  V30 3245 H 303.038 -1.3171 -2.67313 0
M  V30 3246 H 300.575 -0.66069 -1.31428 0
M  V30 3247 H 302.533 0.702514 -4.11243 0
M  V30 3248 H 301.163 1.08925 -3.03867 0
M  V30 3249 H 300.215 -1.26789 -3.58648 0
M  V30 3250 H 301.527 -1.45406 -4.77136 0
M  V30 3251 H 300.681 0.528335 -6.04395 0
M  V30 3252 H 299.42 0.806801 -4.8098 0
M  V30 3253 H 298.425 -1.44425 -5.30492 0
M  V30 3254 H 299.65 -1.71172 -6.57173 0
M  V30 3255 H 297.596 0.532046 -6.53839 0
M  V30 3256 H 297.513 -0.90357 -7.50581 0
M  V30 3257 H 298.781 0.250907 -7.79096 0
M  V30 3258 N 303.011 1.40521 -0.713556 0
M  V30 3259 C 304.427 1.54839 -0.386907 0
M  V30 3260 C 304.627 1.68532 1.1045 0
M  V30 3261 O 303.683 1.67377 1.89053 0
M  V30 3262 C 304.996 2.77792 -1.15118 0
M  V30 3263 C 306.544 2.91607 -1.13729 0
M  V30 3264 C 307.019 4.1747 -1.88368 0
M  V30 3265 N 308.51 4.24466 -1.85427 0
M  V30 3266 C 309.245 5.20755 -2.40004 0
M  V30 3267 N 308.741 6.22965 -3.03129 0
M  V30 3268 N 310.534 5.1282 -2.30158 0
M  V30 3269 H 302.685 1.29879 -1.68063 0
M  V30 3270 H 304.948 0.627896 -0.710247 0
M  V30 3271 H 304.654 2.73944 -2.20561 0
M  V30 3272 H 304.528 3.6984 -0.741477 0
M  V30 3273 H 306.915 2.94959 -0.0910608 0
M  V30 3274 H 306.996 2.00682 -1.5862 0
M  V30 3275 H 306.64 4.1488 -2.9298 0
M  V30 3276 H 306.57 5.074 -1.40898 0
M  V30 3277 H 309.061 3.51241 -1.3942 0
M  V30 3278 H 309.374 6.92859 -3.42295 0
M  V30 3279 H 307.719 6.23415 -3.07212 0
M  V30 3280 H 310.91 4.31899 -1.80501 0
M  V30 3281 H 311.083 5.87689 -2.72993 0
M  V30 3282 N 304.489 0.459591 1.5075 0
M  V30 3283 C 305.766 -0.160371 1.94941 0
M  V30 3284 C 306.146 -1.58048 1.39943 0
M  V30 3285 O 305.494 -2.206 0.595629 0
M  V30 3286 C 305.704 -0.115432 3.48809 0
M  V30 3287 C 307.052 -0.310026 4.23467 0
M  V30 3288 O 308.076 -0.192543 3.55679 0
M  V30 3289 O 306.935 -0.546031 5.43765 0
M  V30 3290 H 304.029 -0.117925 0.818549 0
M  V30 3291 H 306.575 0.519169 1.61563 0
M  V30 3292 H 305.347 0.87652 3.81357 0
M  V30 3293 H 304.97 -0.836928 3.88692 0
M  V30 3294 N 305.967 -1.56429 0.191757 0
M  V30 3295 C 306.877 -2.22541 -0.742481 0
M  V30 3296 C 307.893 -1.22342 -1.23727 0
M  V30 3297 O 309.069 -1.55069 -1.28513 0
M  V30 3298 C 306.134 -2.8692 -1.94623 0
M  V30 3299 C 305.195 -4.02378 -1.49633 0
M  V30 3300 C 304.428 -4.63678 -2.6427 0
M  V30 3301 O 304.651 -4.23895 -3.81666 0
M  V30 3302 O 303.585 -5.53202 -2.37174 0
M  V30 3303 H 307.411 -3.02977 -0.209462 0
M  V30 3304 H 304.996 -1.49353 -0.0373832 0
M  V30 3305 H 306.878 -3.27663 -2.64982 0
M  V30 3306 H 305.553 -2.09466 -2.46791 0
M  V30 3307 H 304.46 -3.66265 -0.761636 0
M  V30 3308 H 305.793 -4.81487 -1.02134 0
M  V30 3309 N 307.445 0.0818655 -1.57387 0
M  V30 3310 C 308.355 1.11642 -2.06333 0
M  V30 3311 C 309.371 1.43033 -0.99083 0
M  V30 3312 O 310.547 1.53411 -1.30488 0
M  V30 3313 C 307.612 2.41342 -2.48907 0
M  V30 3314 C 306.673 2.17014 -3.7041 0
M  V30 3315 C 305.906 3.4053 -4.10944 0
M  V30 3316 O 306.129 4.4927 -3.51444 0
M  V30 3317 O 305.063 3.29336 -5.03807 0
M  V30 3318 H 308.889 0.730657 -2.9478 0
M  V30 3319 H 306.474 0.295301 -1.46452 0
M  V30 3320 H 308.356 3.17691 -2.76858 0
M  V30 3321 H 307.031 2.79319 -1.63593 0
M  V30 3322 H 305.938 1.38403 -3.47556 0
M  V30 3323 H 307.271 1.83923 -4.56545 0
M  V30 3324 N 308.923 1.53595 0.353017 0
M  V30 3325 C 310.172 1.69603 1.09168 0
M  V30 3326 C 310.485 0.460925 1.90092 0
M  V30 3327 O 311.691 0.501774 2.66823 0
M  V30 3328 C 310.147 2.99872 1.9901 0
M  V30 3329 C 309.755 4.30687 1.23339 0
M  V30 3330 C 311.499 3.25246 2.72792 0
M  V30 3331 C 309.406 5.52036 2.12156 0
M  V30 3332 H 308.336 0.631966 0.411261 0
M  V30 3333 H 310.987 1.80096 0.351802 0
M  V30 3334 H 309.369 2.83212 2.7678 0
M  V30 3335 H 310.543 4.58019 0.505456 0
M  V30 3336 H 308.858 4.11853 0.613663 0
M  V30 3337 H 311.455 4.13095 3.39495 0
M  V30 3338 H 311.798 2.41846 3.38846 0
M  V30 3339 H 312.331 3.42638 2.021 0
M  V30 3340 H 309.07 6.37951 1.50659 0
M  V30 3341 H 308.59 5.28966 2.82764 0
M  V30 3342 H 310.269 5.87313 2.71427 0
M  V30 3343 N 310.401 -0.613514 1.45168 0
M  V30 3344 C 311.331 -1.7354 1.56225 0
M  V30 3345 C 312.312 -1.64981 0.41414 0
M  V30 3346 O 313.497 -1.83472 0.636526 0
M  V30 3347 C 310.627 -3.12128 1.52295 0
M  V30 3348 C 309.581 -3.35491 2.65762 0
M  V30 3349 C 308.907 -4.74291 2.46885 0
M  V30 3350 C 310.207 -3.26325 4.0781 0
M  V30 3351 H 311.901 -1.64543 2.50132 0
M  V30 3352 H 309.447 -0.790185 1.20383 0
M  V30 3353 H 311.4 -3.90404 1.58628 0
M  V30 3354 H 310.124 -3.2195 0.549139 0
M  V30 3355 H 308.783 -2.59603 2.58847 0
M  V30 3356 H 308.431 -4.80839 1.47657 0
M  V30 3357 H 308.131 -4.9088 3.22972 0
M  V30 3358 H 309.655 -5.54775 2.55063 0
M  V30 3359 H 311.069 -3.94483 4.16 0
M  V30 3360 H 309.466 -3.54445 4.8424 0
M  V30 3361 H 310.536 -2.23855 4.30136 0
M  V30 3362 N 311.879 -1.3236 -0.855495 0
M  V30 3363 C 312.809 -1.23833 -1.97958 0
M  V30 3364 C 313.79 -0.122361 -1.69659 0
M  V30 3365 O 314.975 -0.30939 -1.9172 0
M  V30 3366 C 312.105 -0.959772 -3.33775 0
M  V30 3367 C 311.059 -2.03689 -3.76424 0
M  V30 3368 C 310.385 -1.61075 -5.09862 0
M  V30 3369 C 311.685 -3.4518 -3.9198 0
M  V30 3370 H 313.379 -2.1788 -2.0535 0
M  V30 3371 H 310.925 -1.04891 -0.986605 0
M  V30 3372 H 312.878 -0.886678 -4.11966 0
M  V30 3373 H 311.602 0.0163404 -3.26596 0
M  V30 3374 H 310.261 -2.10012 -3.00484 0
M  V30 3375 H 309.909 -0.622107 -4.99138 0
M  V30 3376 H 309.609 -2.33143 -5.39368 0
M  V30 3377 H 311.133 -1.55201 -5.90546 0
M  V30 3378 H 312.547 -3.4145 -4.60526 0
M  V30 3379 H 310.944 -4.1559 -4.32903 0
M  V30 3380 H 312.014 -3.84903 -2.94919 0
M  V30 3381 N 313.357 1.07166 -1.15556 0
M  V30 3382 C 314.304 2.14417 -0.854055 0
M  V30 3383 C 315.274 1.64965 0.193806 0
M  V30 3384 O 316.459 1.90703 0.0609443 0
M  V30 3385 C 313.599 3.43304 -0.351574 0
M  V30 3386 C 312.712 4.06537 -1.46123 0
M  V30 3387 C 311.847 5.23266 -0.914677 0
M  V30 3388 C 310.886 5.78464 -2.00114 0
M  V30 3389 N 310.023 6.86521 -1.47083 0
M  V30 3390 H 314.863 2.39548 -1.77259 0
M  V30 3391 H 312.4 1.17543 -0.884425 0
M  V30 3392 H 314.358 4.17179 -0.0419409 0
M  V30 3393 H 312.988 3.18419 0.530037 0
M  V30 3394 H 312.04 3.30297 -1.88701 0
M  V30 3395 H 313.352 4.43567 -2.28144 0
M  V30 3396 H 312.506 6.04131 -0.557698 0
M  V30 3397 H 311.245 4.87658 -0.0636583 0
M  V30 3398 H 310.25 4.96243 -2.36692 0
M  V30 3399 H 311.475 6.16126 -2.85597 0
M  V30 3400 H 309.421 6.52849 -0.642198 0
M  V30 3401 H 309.338 7.22446 -2.22729 0
M  V30 3402 H 310.606 7.71087 -1.14215 0
M  V30 3403 N 314.835 0.952656 1.25548 0
M  V30 3404 C 316.065 0.622592 1.96996 0
M  V30 3405 C 316.473 -0.809112 1.71026 0
M  V30 3406 O 315.816 -1.55258 0.981861 0
M  V30 3407 C 315.878 0.798946 3.5051 0
M  V30 3408 C 315.542 2.20744 4.00151 0
M  V30 3409 C 316.539 3.18394 4.11001 0
M  V30 3410 C 314.224 2.5311 4.33867 0
M  V30 3411 C 316.218 4.46504 4.54877 0
M  V30 3412 C 313.905 3.8145 4.7743 0
M  V30 3413 C 314.903 4.77959 4.87897 0
M  V30 3414 O 314.591 6.04012 5.30494 0
M  V30 3415 H 314.323 0.232503 0.634758 0
M  V30 3416 H 316.877 1.2789 1.60728 0
M  V30 3417 H 315.107 0.0854903 3.86605 0
M  V30 3418 H 316.796 0.47023 4.03167 0
M  V30 3419 H 317.562 2.94715 3.85186 0
M  V30 3420 H 313.441 1.78719 4.24948 0
M  V30 3421 H 316.985 5.21835 4.62962 0
M  V30 3422 H 312.882 4.04936 5.0269 0
M  V30 3423 H 313.65 6.0736 5.48685 0
M  V30 3424 N 316.313 -1.40141 0.720998 0
M  V30 3425 C 317.243 -2.33339 0.0867621 0
M  V30 3426 C 318.224 -1.53178 -0.739622 0
M  V30 3427 O 319.409 -1.81625 -0.687449 0
M  V30 3428 C 316.539 -3.37194 -0.831728 0
M  V30 3429 C 315.493 -4.27857 -0.110558 0
M  V30 3430 C 314.819 -5.22294 -1.14513 0
M  V30 3431 C 316.119 -5.11872 1.0385 0
M  V30 3432 H 317.813 -2.86626 0.865219 0
M  V30 3433 H 315.359 -1.37814 0.417516 0
M  V30 3434 H 317.312 -4.01335 -1.28485 0
M  V30 3435 H 316.036 -2.82314 -1.64214 0
M  V30 3436 H 314.695 -3.65176 0.322797 0
M  V30 3437 H 314.343 -4.63717 -1.94874 0
M  V30 3438 H 314.043 -5.83797 -0.667446 0
M  V30 3439 H 315.567 -5.89312 -1.59824 0
M  V30 3440 H 316.981 -5.69436 0.664482 0
M  V30 3441 H 315.378 -5.82445 1.4449 0
M  V30 3442 H 316.448 -4.4753 1.86668 0
M  V30 3443 N 317.792 -0.46758 -1.50504 0
M  V30 3444 C 318.74 0.342482 -2.30065 0
M  V30 3445 C 319.734 0.993596 -1.37201 0
M  V30 3446 O 320.94 0.925102 -1.54408 0
M  V30 3447 H 317.315 0.129283 -0.740803 0
M  V30 3448 H 319.286 -0.34899 -2.96352 0
M  V30 3449 C 318.035 1.4139 -3.17654 0
M  V30 3450 H 317.358 0.922264 -3.89017 0
M  V30 3451 H 318.798 1.95335 -3.76325 0
M  V30 3452 C 317.257 2.4139 -2.35016 0
M  V30 3453 O 317.787 3.46586 -2.03079 0
M  V30 3454 N 315.993 2.13021 -1.97662 0
M  V30 3455 H 315.54 1.27499 -2.23834 0
M  V30 3456 H 315.498 2.80164 -1.42673 0
M  V30 3457 N 319.27 1.56325 -0.20005 0
M  V30 3458 C 320.517 1.97719 0.437411 0
M  V30 3459 C 320.845 1.08709 1.61284 0
M  V30 3460 O 320.1 0.127261 1.95286 0
M  V30 3461 C 320.399 3.4495 0.935103 0
M  V30 3462 C 320.065 4.5072 -0.12749 0
M  V30 3463 C 318.727 4.79368 -0.419451 0
M  V30 3464 C 321.079 5.14268 -0.847231 0
M  V30 3465 C 318.407 5.68854 -1.43604 0
M  V30 3466 C 320.759 6.04852 -1.85301 0
M  V30 3467 C 319.423 6.31855 -2.15211 0
M  V30 3468 H 318.693 0.723507 0.16006 0
M  V30 3469 H 321.34 1.89166 -0.298056 0
M  V30 3470 H 319.645 3.50599 1.74894 0
M  V30 3471 H 321.342 3.74337 1.43781 0
M  V30 3472 H 317.932 4.28458 0.11023 0
M  V30 3473 H 322.116 4.92222 -0.634901 0
M  V30 3474 H 317.372 5.88047 -1.67364 0
M  V30 3475 H 321.546 6.53152 -2.41591 0
M  V30 3476 H 319.173 7.00994 -2.94129 0
M  V30 3477 N 320.748 -0.0735177 1.57428 0
M  V30 3478 C 321.711 -1.07192 2.02589 0
M  V30 3479 C 322.711 -1.31695 0.922661 0
M  V30 3480 O 323.901 -1.27445 1.18758 0
M  V30 3481 C 321.033 -2.41599 2.40506 0
M  V30 3482 H 322.226 -0.682727 2.92025 0
M  V30 3483 H 319.779 -0.319193 1.53006 0
M  V30 3484 H 320.514 -2.85354 1.5409 0
M  V30 3485 H 320.299 -2.25156 3.21009 0
M  V30 3486 H 321.789 -3.13367 2.76027 0
M  V30 3487 N 322.226 -1.5378 -0.344866 0
M  V30 3488 C 323.174 -1.82373 -1.4437 0
M  V30 3489 C 324.168 -0.694128 -1.54526 0
M  V30 3490 O 325.374 -0.877442 -1.57165 0
M  V30 3491 H 321.749 -0.577765 -0.481344 0
M  V30 3492 H 323.72 -2.74306 -1.17468 0
M  V30 3493 C 322.469 -2.04898 -2.80913 0
M  V30 3494 H 321.792 -2.9127 -2.73865 0
M  V30 3495 H 323.232 -2.28871 -3.56923 0
M  V30 3496 C 321.691 -0.834116 -3.26411 0
M  V30 3497 O 322.221 -0.0328885 -4.01687 0
M  V30 3498 N 320.427 -0.65171 -2.83198 0
M  V30 3499 H 319.974 -1.30489 -2.22104 0
M  V30 3500 H 319.932 0.159686 -3.13994 0
M  V30 3501 N 323.704 0.605807 -1.45491 0
M  V30 3502 C 324.634 1.72709 -1.57143 0
M  V30 3503 C 325.615 1.6476 -0.422884 0
M  V30 3504 O 326.8 1.83132 -0.646247 0
M  V30 3505 C 323.93 3.11316 -1.53948 0
M  V30 3506 C 322.884 3.34077 -2.67537 0
M  V30 3507 C 322.21 4.72975 -2.49397 0
M  V30 3508 C 323.51 3.24158 -4.09535 0
M  V30 3509 H 325.204 1.63214 -2.51001 0
M  V30 3510 H 322.75 0.78379 -1.208 0
M  V30 3511 H 324.703 3.89557 -1.60696 0
M  V30 3512 H 323.427 3.21655 -0.566205 0
M  V30 3513 H 322.086 2.58227 -2.6022 0
M  V30 3514 H 321.734 4.8005 -1.50205 0
M  V30 3515 H 321.434 4.8916 -3.25571 0
M  V30 3516 H 322.958 5.53414 -2.58002 0
M  V30 3517 H 324.372 3.92271 -4.18086 0
M  V30 3518 H 322.769 3.51872 -4.86113 0
M  V30 3519 H 323.839 2.2157 -4.31317 0
M  V30 3520 N 325.182 1.32811 0.848464 0
M  V30 3521 C 326.431 1.23075 1.59798 0
M  V30 3522 C 326.744 -0.204419 1.94529 0
M  V30 3523 O 327.95 -0.423701 2.68173 0
M  V30 3524 C 326.406 2.15594 2.88179 0
M  V30 3525 C 326.014 3.64228 2.60849 0
M  V30 3526 C 327.758 2.14709 3.66197 0
M  V30 3527 C 325.665 4.48689 3.85269 0
M  V30 3528 H 324.595 0.457091 0.599653 0
M  V30 3529 H 327.246 1.57813 0.936342 0
M  V30 3530 H 325.628 1.73778 3.55833 0
M  V30 3531 H 326.802 4.14424 2.01467 0
M  V30 3532 H 325.117 3.67306 1.96151 0
M  V30 3533 H 327.714 2.75046 4.58534 0
M  V30 3534 H 328.057 1.13966 4.00397 0
M  V30 3535 H 328.59 2.54837 3.05455 0
M  V30 3536 H 325.329 5.5027 3.56207 0
M  V30 3537 H 324.849 4.03241 4.44024 0
M  V30 3538 H 326.528 4.62006 4.52946 0
M  V30 3539 N 326.66 -1.06551 1.16123 0
M  V30 3540 C 327.593 -2.13382 0.80892 0
M  V30 3541 C 328.571 -1.61128 -0.21827 0
M  V30 3542 O 329.755 -1.88219 -0.102952 0
M  V30 3543 C 326.882 -3.38083 0.204303 0
M  V30 3544 C 325.928 -4.09133 1.20469 0
M  V30 3545 S 326.761 -4.5948 2.75024 0
M  V30 3546 C 327.917 -5.87446 2.16005 0
M  V30 3547 H 328.15 -2.42937 1.71373 0
M  V30 3548 H 325.683 -1.18947 0.984428 0
M  V30 3549 H 327.641 -4.10268 -0.138081 0
M  V30 3550 H 326.302 -3.0669 -0.678234 0
M  V30 3551 H 325.495 -4.98685 0.730019 0
M  V30 3552 H 325.097 -3.4295 1.49202 0
M  V30 3553 H 327.389 -6.60065 1.5271 0
M  V30 3554 H 328.332 -6.39639 3.03756 0
M  V30 3555 H 328.74 -5.41354 1.59989 0
M  V30 3556 N 328.138 -0.959301 -1.25041 0
M  V30 3557 C 329.085 -0.482057 -2.2571 0
M  V30 3558 C 330.055 0.467939 -1.59372 0
M  V30 3559 O 331.24 0.380159 -1.86974 0
M  V30 3560 C 328.38 0.229623 -3.44335 0
M  V30 3561 C 327.493 -0.758156 -4.25295 0
M  V30 3562 C 326.628 -0.0234403 -5.31195 0
M  V30 3563 C 325.667 -1.00184 -6.03846 0
M  V30 3564 N 324.804 -0.29769 -7.01469 0
M  V30 3565 H 329.644 -1.34538 -2.65901 0
M  V30 3566 H 327.181 -0.674592 -1.3072 0
M  V30 3567 H 329.139 0.658856 -4.11965 0
M  V30 3568 H 327.769 1.05696 -3.05005 0
M  V30 3569 H 326.821 -1.30586 -3.57284 0
M  V30 3570 H 328.133 -1.50458 -4.75567 0
M  V30 3571 H 327.287 0.464201 -6.04922 0
M  V30 3572 H 326.026 0.755741 -4.81809 0
M  V30 3573 H 325.031 -1.50044 -5.2893 0
M  V30 3574 H 326.256 -1.78133 -6.55321 0
M  V30 3575 H 324.202 0.462668 -6.54366 0
M  V30 3576 H 324.119 -0.983128 -7.4958 0
M  V30 3577 H 325.387 0.16826 -7.79318 0
M  V30 3578 N 329.616 1.39756 -0.72842 0
M  V30 3579 C 330.862 2.00942 -0.273892 0
M  V30 3580 C 331.195 1.57656 1.13394 0
M  V30 3581 O 330.47 0.802434 1.77176 0
M  V30 3582 C 330.753 3.58211 -0.368346 0
M  V30 3583 C 330.606 4.11534 -1.81548 0
M  V30 3584 C 331.925 4.39372 0.253054 0
M  V30 3585 H 329.044 0.730047 -0.100996 0
M  V30 3586 H 331.686 1.66056 -0.923337 0
M  V30 3587 H 329.836 3.88061 0.184588 0
M  V30 3588 H 331.508 3.92431 -2.42478 0
M  V30 3589 H 329.751 3.65341 -2.33898 0
M  V30 3590 H 330.422 5.20682 -1.83288 0
M  V30 3591 H 332.898 4.15527 -0.218224 0
M  V30 3592 H 331.774 5.48677 0.156585 0
M  V30 3593 H 332.035 4.21358 1.33826 0
M  V30 3594 N 331.094 0.475555 1.50254 0
M  V30 3595 C 332.324 -0.0753399 2.06463 0
M  V30 3596 C 332.732 -1.33661 1.33908 0
M  V30 3597 O 332.075 -1.79219 0.403257 0
M  V30 3598 C 332.137 -0.424921 3.5698 0
M  V30 3599 C 331.801 0.734965 4.51051 0
M  V30 3600 C 332.798 1.61827 4.94073 0
M  V30 3601 C 330.483 0.926557 4.9368 0
M  V30 3602 C 332.477 2.67754 5.78434 0
M  V30 3603 C 330.164 1.98904 5.77824 0
M  V30 3604 C 331.162 2.8629 6.20103 0
M  V30 3605 O 330.85 3.90708 7.02568 0
M  V30 3606 H 330.582 0.00576308 0.675975 0
M  V30 3607 H 333.136 0.664662 1.94349 0
M  V30 3608 H 331.366 -1.21817 3.67012 0
M  V30 3609 H 333.055 -0.911422 3.95535 0
M  V30 3610 H 333.821 1.48196 4.61804 0
M  V30 3611 H 329.7 0.25584 4.6029 0
M  V30 3612 H 333.244 3.35992 6.11355 0
M  V30 3613 H 329.141 2.12541 6.09505 0
M  V30 3614 H 329.909 3.87751 7.20827 0
M  V30 3615 N 332.573 -1.56217 0.208337 0
M  V30 3616 C 333.523 -2.16324 -0.720281 0
M  V30 3617 C 334.507 -1.10775 -1.16695 0
M  V30 3618 O 335.699 -1.36801 -1.12314 0
M  V30 3619 C 332.828 -2.83644 -1.93393 0
M  V30 3620 C 331.914 -3.96401 -1.50755 0
M  V30 3621 N 332.305 -4.99546 -0.792937 0
M  V30 3622 C 330.603 -4.08246 -1.79585 0
M  V30 3623 C 331.304 -5.78828 -0.577364 0
M  V30 3624 N 330.28 -5.31723 -1.1301 0
M  V30 3625 H 334.082 -2.93432 -0.165725 0
M  V30 3626 H 331.596 -1.62397 0.00906463 0
M  V30 3627 H 333.593 -3.25107 -2.60981 0
M  V30 3628 H 332.253 -2.08027 -2.49308 0
M  V30 3629 H 333.264 -5.15967 -0.447004 0
M  V30 3630 H 329.941 -3.4377 -2.36915 0
M  V30 3631 H 331.331 -6.71899 -0.00952956 0
M  V30 3632 N 334.051 0.0651679 -1.57465 0
M  V30 3633 C 334.981 1.07693 -2.07182 0
M  V30 3634 C 335.962 1.39962 -0.966673 0
M  V30 3635 O 337.147 1.49475 -1.2398 0
M  V30 3636 C 334.277 2.3885 -2.52127 0
M  V30 3637 C 333.231 2.20917 -3.66579 0
M  V30 3638 C 332.557 3.57515 -3.97601 0
M  V30 3639 C 333.857 1.62493 -4.9638 0
M  V30 3640 H 335.551 0.663199 -2.91962 0
M  V30 3641 H 333.097 0.317569 -1.40455 0
M  V30 3642 H 335.05 3.09928 -2.85522 0
M  V30 3643 H 333.774 2.82215 -1.64384 0
M  V30 3644 H 332.433 1.52279 -3.33477 0
M  V30 3645 H 332.081 3.98463 -3.06979 0
M  V30 3646 H 331.781 3.46353 -4.74672 0
M  V30 3647 H 333.305 4.30013 -4.33499 0
M  V30 3648 H 334.719 2.23445 -5.27963 0
M  V30 3649 H 333.116 1.62009 -5.77818 0
M  V30 3650 H 334.186 0.587041 -4.81333 0
M  V30 3651 N 335.529 1.53961 0.336706 0
M  V30 3652 C 336.754 1.75797 1.10046 0
M  V30 3653 C 337.179 0.498985 1.81361 0
M  V30 3654 O 336.537 -0.548769 1.72795 0
M  V30 3655 C 336.585 2.94257 2.08436 0
M  V30 3656 O 335.689 2.64883 3.16087 0
M  V30 3657 H 335.03 0.582936 0.317934 0
M  V30 3658 H 337.56 2.00945 0.38501 0
M  V30 3659 H 337.57 3.21237 2.51537 0
M  V30 3660 H 336.245 3.85564 1.55927 0
M  V30 3661 H 334.822 2.48812 2.77753 0
M  V30 3662 N 337.007 -0.598083 1.45811 0
M  V30 3663 C 338.237 -1.38121 1.53643 0
M  V30 3664 C 338.645 -1.88425 0.171081 0
M  V30 3665 O 337.988 -1.63409 -0.839237 0
M  V30 3666 C 338.05 -2.61432 2.46766 0
M  V30 3667 C 337.714 -2.32702 3.93318 0
M  V30 3668 C 338.711 -1.92479 4.82957 0
M  V30 3669 C 336.396 -2.45321 4.38318 0
M  V30 3670 C 338.39 -1.65248 6.15607 0
M  V30 3671 C 336.077 -2.17703 5.71007 0
M  V30 3672 C 337.075 -1.7773 6.5947 0
M  V30 3673 O 336.763 -1.50441 7.89698 0
M  V30 3674 H 336.495 -0.428863 0.522544 0
M  V30 3675 H 339.049 -0.73557 1.91777 0
M  V30 3676 H 337.279 -3.28749 2.0362 0
M  V30 3677 H 338.968 -3.23487 2.45175 0
M  V30 3678 H 339.734 -1.82258 4.49452 0
M  V30 3679 H 335.613 -2.75399 3.69697 0
M  V30 3680 H 339.157 -1.33973 6.84614 0
M  V30 3681 H 335.054 -2.27544 6.04065 0
M  V30 3682 H 335.822 -1.64415 8.01817 0
M  V30 3683 N 338.485 -1.33259 -0.841409 0
M  V30 3684 C 339.415 -1.25926 -1.96634 0
M  V30 3685 C 340.396 -0.140349 -1.6952 0
M  V30 3686 O 341.581 -0.329707 -1.91381 0
M  V30 3687 C 338.711 -0.99512 -3.32738 0
M  V30 3688 C 337.665 -2.0767 -3.74242 0
M  V30 3689 C 336.991 -1.66474 -5.08125 0
M  V30 3690 C 338.291 -3.49318 -3.88297 0
M  V30 3691 H 339.985 -2.20046 -2.03027 0
M  V30 3692 H 337.531 -1.05931 -0.975425 0
M  V30 3693 H 339.484 -0.930323 -4.11002 0
M  V30 3694 H 338.208 -0.0183004 -3.26595 0
M  V30 3695 H 336.867 -2.13187 -2.98239 0
M  V30 3696 H 336.515 -0.675012 -4.9845 0
M  V30 3697 H 336.215 -2.3885 -5.36865 0
M  V30 3698 H 337.739 -1.61455 -5.88867 0
M  V30 3699 H 339.153 -3.46316 -4.56879 0
M  V30 3700 H 337.55 -4.20158 -4.28471 0
M  V30 3701 H 338.62 -3.8801 -2.9082 0
M  V30 3702 N 339.963 1.05934 -1.16686 0
M  V30 3703 C 340.913 2.11764 -0.844978 0
M  V30 3704 C 341.897 1.59922 0.177178 0
M  V30 3705 O 343.089 1.76983 -0.0241768 0
M  V30 3706 C 340.218 3.41493 -0.351812 0
M  V30 3707 C 339.304 4.00152 -1.40496 0
M  V30 3708 N 339.695 4.32874 -2.61636 0
M  V30 3709 C 337.993 4.278 -1.26106 0
M  V30 3710 C 338.694 4.79552 -3.29249 0
M  V30 3711 N 337.67 4.79211 -2.56628 0
M  V30 3712 H 341.472 2.34916 -1.76612 0
M  V30 3713 H 338.986 1.23511 -1.05446 0
M  V30 3714 H 340.983 4.16773 -0.102796 0
M  V30 3715 H 339.643 3.19778 0.56322 0
M  V30 3716 H 340.654 4.23109 -2.98663 0
M  V30 3717 H 337.331 4.15511 -0.407081 0
M  V30 3718 H 338.721 5.14045 -4.32675 0
M  V30 3719 N 341.441 0.965919 1.2453 0
M  V30 3720 C 342.389 0.486506 2.27455 0
M  V30 3721 C 343.383 -0.449041 1.6334 0
M  V30 3722 O 344.589 -0.324527 1.7705 0
M  V30 3723 H 340.964 0.138857 0.739069 0
M  V30 3724 H 342.935 1.3666 2.65267 0
M  V30 3725 C 341.684 -0.209481 3.47068 0
M  V30 3726 H 341.007 0.50129 3.96645 0
M  V30 3727 H 342.447 -0.508775 4.20936 0
M  V30 3728 C 340.906 -1.43586 3.0477 0
M  V30 3729 O 341.436 -2.53299 3.11773 0
M  V30 3730 N 339.642 -1.30126 2.59838 0
M  V30 3731 H 339.189 -0.408583 2.54339 0
M  V30 3732 H 339.147 -2.12294 2.31902 0
M  V30 3733 N 342.919 -1.39368 0.735821 0
M  V30 3734 C 344.159 -2.02349 0.288813 0
M  V30 3735 C 344.523 -1.57127 -1.10341 0
M  V30 3736 O 345.724 -2.12312 -1.64854 0
M  V30 3737 C 343.995 -3.55288 0.387986 0
M  V30 3738 S 345.554 -4.38795 0.0209408 0
M  V30 3739 H 342.372 -0.701944 0.113115 0
M  V30 3740 H 344.974 -1.70164 0.962518 0
M  V30 3741 H 343.678 -3.85691 1.40252 0
M  V30 3742 H 343.209 -3.92227 -0.303512 0
M  V30 3743 H 345.224 -4.81595 -1.19503 0
M  V30 3744 N 344.397 -0.483516 -1.5 0
M  V30 3745 C 345.307 0.309172 -2.32554 0
M  V30 3746 C 346.323 0.984159 -1.43493 0
M  V30 3747 O 347.499 0.969399 -1.76535 0
M  V30 3748 C 344.564 1.36979 -3.18493 0
M  V30 3749 C 343.625 0.710095 -4.23387 0
M  V30 3750 C 342.858 1.72018 -5.05218 0
M  V30 3751 O 343.081 2.94813 -4.88305 0
M  V30 3752 O 342.015 1.28515 -5.8802 0
M  V30 3753 H 345.841 -0.366064 -3.01486 0
M  V30 3754 H 343.426 -0.24514 -1.47375 0
M  V30 3755 H 345.308 1.98385 -3.71781 0
M  V30 3756 H 343.983 2.02828 -2.52275 0
M  V30 3757 H 342.89 0.0567539 -3.74057 0
M  V30 3758 H 344.223 0.0943557 -4.9211 0
M  V30 3759 N 345.875 1.56104 -0.216619 0
M  V30 3760 C 347.103 2.02563 0.421413 0
M  V30 3761 C 347.518 1.0965 1.53695 0
M  V30 3762 O 346.875 0.10521 1.82196 0
M  V30 3763 C 346.926 3.48584 0.957665 0
M  V30 3764 O 346.647 4.37953 -0.113389 0
M  V30 3765 C 348.148 4.10664 1.66943 0
M  V30 3766 H 345.368 0.662944 0.103665 0
M  V30 3767 H 347.912 2.01793 -0.331629 0
M  V30 3768 H 346.067 3.49985 1.661 0
M  V30 3769 H 346.481 5.23704 0.288932 0
M  V30 3770 H 347.955 5.14622 1.99671 0
M  V30 3771 H 348.432 3.55373 2.58083 0
M  V30 3772 H 349.038 4.13098 1.01142 0
M  V30 3773 N 347.353 -0.0568162 1.57498 0
M  V30 3774 C 348.769 -0.411933 1.54192 0
M  V30 3775 C 348.969 -1.78287 0.938942 0
M  V30 3776 O 348.025 -2.46483 0.547919 0
M  V30 3777 C 349.338 -0.339244 2.9878 0
M  V30 3778 C 350.886 -0.418348 3.10192 0
M  V30 3779 C 351.361 -0.375407 4.56459 0
M  V30 3780 N 352.852 -0.435038 4.61153 0
M  V30 3781 C 353.587 -0.424265 5.71828 0
M  V30 3782 N 353.083 -0.367418 6.91825 0
M  V30 3783 N 354.876 -0.471938 5.60115 0
M  V30 3784 H 347.027 0.840684 1.95055 0
M  V30 3785 H 349.29 0.316987 0.893433 0
M  V30 3786 H 348.996 0.601742 3.46514 0
M  V30 3787 H 348.87 -1.14371 3.59443 0
M  V30 3788 H 351.257 -1.34976 2.62422 0
M  V30 3789 H 351.338 0.414962 2.52412 0
M  V30 3790 H 350.982 0.552219 5.04889 0
M  V30 3791 H 350.912 -1.22645 5.12119 0
M  V30 3792 H 353.403 -0.482612 3.74806 0
M  V30 3793 H 353.716 -0.363535 7.71944 0
M  V30 3794 H 352.061 -0.333879 6.94198 0
M  V30 3795 H 355.252 -0.514145 4.65268 0
M  V30 3796 H 355.425 -0.460073 6.46365 0
M  V30 3797 N 348.832 -1.54138 -0.328536 0
M  V30 3798 C 350.248 -1.44736 -0.672574 0
M  V30 3799 C 350.448 -0.616217 -1.91846 0
M  V30 3800 O 349.504 -0.113067 -2.52247 0
M  V30 3801 C 350.817 -2.884 -0.851217 0
M  V30 3802 C 352.365 -2.98271 -0.948877 0
M  V30 3803 C 352.84 -4.43074 -1.15973 0
M  V30 3804 N 354.331 -4.46665 -1.22658 0
M  V30 3805 C 355.066 -5.55857 -1.40751 0
M  V30 3806 N 354.562 -6.75026 -1.5592 0
M  V30 3807 N 356.355 -5.43495 -1.4342 0
M  V30 3808 H 348.506 -2.06661 0.490421 0
M  V30 3809 H 350.769 -0.934812 0.157579 0
M  V30 3810 H 350.475 -3.51699 -0.00704236 0
M  V30 3811 H 350.349 -3.34225 -1.74853 0
M  V30 3812 H 352.736 -2.35102 -1.78356 0
M  V30 3813 H 352.817 -2.55785 -0.0281435 0
M  V30 3814 H 352.461 -5.06827 -0.329915 0
M  V30 3815 H 352.391 -4.83165 -2.09426 0
M  V30 3816 H 354.882 -3.60797 -1.124 0
M  V30 3817 H 355.195 -7.54004 -1.69404 0
M  V30 3818 H 353.54 -6.77944 -1.53027 0
M  V30 3819 H 356.731 -4.49349 -1.31162 0
M  V30 3820 H 356.904 -6.28649 -1.57178 0
M  V30 3821 N 350.31 0.590341 -1.46126 0
M  V30 3822 C 351.558 1.34616 -1.50742 0
M  V30 3823 C 351.879 1.94363 -0.157486 0
M  V30 3824 O 351.149 1.78136 0.815136 0
M  V30 3825 H 349.729 0.499789 -0.555175 0
M  V30 3826 H 352.391 0.691953 -1.82203 0
M  V30 3827 H 351.487 2.15678 -2.25587 0
M  V30 3828 N 351.788 1.33704 0.83433 0
M  V30 3829 C 352.72 1.20172 1.9517 0
M  V30 3830 C 353.733 0.131572 1.62267 0
M  V30 3831 O 354.922 0.382406 1.74356 0
M  V30 3832 C 352.022 0.821716 3.28787 0
M  V30 3833 C 351.195 1.98446 3.89792 0
M  V30 3834 C 350.254 1.58469 5.01771 0
M  V30 3835 O 349.28 2.29968 5.20676 0
M  V30 3836 N 350.482 0.492291 5.78409 0
M  V30 3837 H 353.247 2.16429 2.07313 0
M  V30 3838 H 350.808 1.26509 1.0103 0
M  V30 3839 H 352.8 0.536291 4.01131 0
M  V30 3840 H 351.37 -0.0503058 3.1256 0
M  V30 3841 H 350.59 2.43526 3.09982 0
M  V30 3842 H 351.878 2.76236 4.27283 0
M  V30 3843 H 351.276 -0.102349 5.65607 0
M  V30 3844 H 349.833 0.266555 6.51255 0
M  V30 3845 N 353.266 -1.05314 1.17247 0
M  V30 3846 C 354.515 -1.77685 0.954521 0
M  V30 3847 C 354.828 -1.88616 -0.518025 0
M  V30 3848 O 356.034 -2.57714 -0.854144 0
M  V30 3849 C 354.49 -3.19402 1.65863 0
M  V30 3850 C 354.098 -3.16605 3.16963 0
M  V30 3851 C 355.842 -3.96237 1.52303 0
M  V30 3852 C 353.749 -4.53103 3.80068 0
M  V30 3853 H 352.679 -0.666 0.353496 0
M  V30 3854 H 355.33 -1.1805 1.40486 0
M  V30 3855 H 353.712 -3.79355 1.13602 0
M  V30 3856 H 354.886 -2.66176 3.76148 0
M  V30 3857 H 353.201 -2.53268 3.30521 0
M  V30 3858 H 355.798 -4.97157 1.96822 0
M  V30 3859 H 356.141 -4.136 0.473401 0
M  V30 3860 H 356.674 -3.42829 2.01775 0
M  V30 3861 H 353.413 -4.40946 4.85023 0
M  V30 3862 H 352.933 -5.03686 3.2567 0
M  V30 3863 H 354.612 -5.22045 3.82202 0
M  V30 3864 N 354.744 -0.972509 -1.24016 0
M  V30 3865 C 355.674 -0.525548 -2.27509 0
M  V30 3866 C 356.655 0.437262 -1.64384 0
M  V30 3867 O 357.84 0.332343 -1.91335 0
M  V30 3868 C 354.97 0.180448 -3.46831 0
M  V30 3869 C 353.924 -0.698859 -4.22256 0
M  V30 3870 C 353.25 0.138903 -5.3452 0
M  V30 3871 C 354.55 -1.98582 -4.83076 0
M  V30 3872 H 356.244 -1.39058 -2.65148 0
M  V30 3873 H 353.79 -0.67009 -1.27459 0
M  V30 3874 H 355.743 0.504387 -4.18371 0
M  V30 3875 H 354.467 1.07987 -3.08231 0
M  V30 3876 H 353.126 -1.00614 -3.52523 0
M  V30 3877 H 352.774 1.03862 -4.9216 0
M  V30 3878 H 352.474 -0.446259 -5.85903 0
M  V30 3879 H 353.998 0.457404 -6.08884 0
M  V30 3880 H 355.412 -1.72715 -5.46665 0
M  V30 3881 H 353.809 -2.5181 -5.44713 0
M  V30 3882 H 354.879 -2.67769 -4.04262 0
M  V30 3883 N 356.222 1.38976 -0.743202 0
M  V30 3884 C 357.152 2.33171 -0.123873 0
M  V30 3885 C 358.133 1.54336 0.71516 0
M  V30 3886 O 359.318 1.82696 0.658467 0
M  V30 3887 C 356.448 3.38474 0.777978 0
M  V30 3888 C 355.402 4.27979 0.0424758 0
M  V30 3889 C 354.728 5.2405 1.06189 0
M  V30 3890 C 356.028 5.10155 -1.1198 0
M  V30 3891 H 357.722 2.85213 -0.910709 0
M  V30 3892 H 355.268 1.37133 -0.439388 0
M  V30 3893 H 357.221 4.03328 1.22084 0
M  V30 3894 H 355.945 2.84891 1.59702 0
M  V30 3895 H 354.604 3.64616 -0.380853 0
M  V30 3896 H 354.252 4.66758 1.87472 0
M  V30 3897 H 353.952 5.84785 0.574485 0
M  V30 3898 H 355.476 5.9178 1.50428 0
M  V30 3899 H 356.89 5.68307 -0.75499 0
M  V30 3900 H 355.287 5.80073 -1.53738 0
M  V30 3901 H 356.357 4.44504 -1.93764 0
M  V30 3902 N 357.7 0.491464 1.49741 0
M  V30 3903 C 358.946 -0.0485431 2.03342 0
M  V30 3904 C 359.301 -1.35566 1.36527 0
M  V30 3905 O 358.594 -1.85262 0.488729 0
M  V30 3906 C 358.788 -0.267329 3.56399 0
M  V30 3907 C 358.617 1.01703 4.38049 0
M  V30 3908 C 357.387 1.56614 4.80417 0
M  V30 3909 C 359.585 1.91782 4.77204 0
M  V30 3910 N 357.567 2.7974 5.4646 0
M  V30 3911 C 358.938 2.99489 5.42868 0
M  V30 3912 C 360.993 1.92575 4.5915 0
M  V30 3913 C 359.696 4.08005 5.92389 0
M  V30 3914 C 361.722 3.0006 5.09626 0
M  V30 3915 C 361.084 4.06485 5.75282 0
M  V30 3916 H 357.183 0.0227779 0.781668 0
M  V30 3917 H 359.767 0.664204 1.8302 0
M  V30 3918 H 357.938 -0.949126 3.76625 0
M  V30 3919 H 359.67 -0.803492 3.96644 0
M  V30 3920 H 356.425 1.11256 4.60347 0
M  V30 3921 H 356.849 3.42323 5.84075 0
M  V30 3922 H 361.491 1.11605 4.07804 0
M  V30 3923 H 359.209 4.89779 6.42761 0
M  V30 3924 H 362.795 3.01681 4.97473 0
M  V30 3925 H 361.675 4.88287 6.13633 0
M  V30 3926 N 359.178 -1.55987 0.224894 0
M  V30 3927 C 360.403 -2.03232 -0.41369 0
M  V30 3928 C 360.828 -1.10359 -1.52323 0
M  V30 3929 O 360.186 -0.092395 -1.81064 0
M  V30 3930 C 360.234 -3.48682 -0.919405 0
M  V30 3931 O 359.338 -3.58947 -2.03054 0
M  V30 3932 H 358.679 -0.657428 -0.0931903 0
M  V30 3933 H 361.209 -2.01679 0.34451 0
M  V30 3934 H 361.219 -3.8907 -1.22835 0
M  V30 3935 H 359.894 -4.15761 -0.107339 0
M  V30 3936 H 358.471 -3.30448 -1.72796 0
M  V30 3937 N 360.656 0.0484629 -1.57525 0
M  V30 3938 C 361.904 0.741657 -1.88 0
M  V30 3939 C 362.225 1.76918 -0.820054 0
M  V30 3940 O 361.495 1.95335 0.148661 0
M  V30 3941 H 360.075 0.276908 -0.69378 0
M  V30 3942 H 362.737 0.019013 -1.94891 0
M  V30 3943 H 361.833 1.24336 -2.86264 0
M  V30 3944 N 362.134 1.5431 0.320358 0
M  V30 3945 C 363.359 1.76954 1.08175 0
M  V30 3946 C 363.784 0.518193 1.80821 0
M  V30 3947 O 363.142 -0.530411 1.73368 0
M  V30 3948 C 363.19 2.96451 2.05303 0
M  V30 3949 O 362.294 2.68221 3.13259 0
M  V30 3950 H 361.635 0.586275 0.311733 0
M  V30 3951 H 364.165 2.01342 0.363676 0
M  V30 3952 H 364.175 3.23887 2.48116 0
M  V30 3953 H 362.85 3.87196 1.51829 0
M  V30 3954 H 361.427 2.51744 2.75099 0
M  V30 3955 N 363.613 -0.582584 1.46437 0
M  V30 3956 C 364.56 -1.69164 1.5701 0
M  V30 3957 C 365.53 -1.60847 0.414403 0
M  V30 3958 O 366.715 -1.80058 0.631171 0
M  V30 3959 C 363.855 -3.075 1.56646 0
M  V30 3960 C 362.968 -3.2644 2.82951 0
M  V30 3961 C 362.103 -4.55026 2.7409 0
M  V30 3962 C 361.142 -4.6731 3.95333 0
M  V30 3963 N 360.279 -5.87221 3.84858 0
M  V30 3964 H 365.119 -1.59464 2.51744 0
M  V30 3965 H 362.656 -0.777186 1.24893 0
M  V30 3966 H 364.614 -3.8757 1.5442 0
M  V30 3967 H 363.244 -3.16096 0.654439 0
M  V30 3968 H 362.296 -2.39974 2.95155 0
M  V30 3969 H 363.608 -3.31385 3.72808 0
M  V30 3970 H 362.762 -5.43324 2.6997 0
M  V30 3971 H 361.501 -4.52519 1.81873 0
M  V30 3972 H 360.506 -3.77429 3.99784 0
M  V30 3973 H 361.731 -4.71595 4.88646 0
M  V30 3974 H 359.677 -5.85712 2.95427 0
M  V30 3975 H 359.594 -5.93435 4.6837 0
M  V30 3976 H 360.862 -6.7795 3.84713 0
M  V30 3977 N 365.091 -1.34144 -0.827227 0
M  V30 3978 C 366.337 -1.26446 -1.58554 0
M  V30 3979 C 366.67 0.1664 -1.93486 0
M  V30 3980 O 365.945 1.1107 -1.59667 0
M  V30 3981 C 366.228 -2.15111 -2.8879 0
M  V30 3982 C 366.081 -3.66712 -2.60465 0
M  V30 3983 C 367.4 -2.03311 -3.90324 0
M  V30 3984 H 364.519 -0.46067 -0.575284 0
M  V30 3985 H 367.161 -1.64356 -0.953269 0
M  V30 3986 H 365.311 -1.8291 -3.42748 0
M  V30 3987 H 366.983 -4.09259 -2.1285 0
M  V30 3988 H 365.226 -3.88014 -1.93978 0
M  V30 3989 H 365.897 -4.24112 -3.53317 0
M  V30 3990 H 368.373 -2.31574 -3.45706 0
M  V30 3991 H 367.249 -2.67582 -4.79261 0
M  V30 3992 H 367.51 -1.00879 -4.30437 0
M  V30 3993 N 366.569 1.04691 -1.17803 0
M  V30 3994 C 367.816 1.77782 -0.969532 0
M  V30 3995 C 368.144 1.87926 0.501401 0
M  V30 3996 O 367.399 1.37918 1.38842 0
M  V30 3997 C 367.698 3.21467 -1.56186 0
M  V30 3998 C 367.364 3.3137 -3.05786 0
M  V30 3999 C 366.026 3.3378 -3.46619 0
M  V30 4000 C 368.378 3.31976 -4.01797 0
M  V30 4001 C 365.706 3.34431 -4.82051 0
M  V30 4002 C 368.058 3.34167 -5.37136 0
M  V30 4003 C 366.722 3.34866 -5.77426 0
M  V30 4004 H 365.992 0.650549 -0.354777 0
M  V30 4005 H 368.639 1.23006 -1.46772 0
M  V30 4006 H 366.944 3.79203 -0.985515 0
M  V30 4007 H 368.641 3.76652 -1.37602 0
M  V30 4008 H 365.231 3.3021 -2.73238 0
M  V30 4009 H 369.415 3.29311 -3.71306 0
M  V30 4010 H 364.671 3.33285 -5.12573 0
M  V30 4011 H 368.845 3.33585 -6.11305 0
M  V30 4012 H 366.472 3.35124 -6.82346 0
M  V30 4013 N 368.047 0.979072 1.23499 0
M  V30 4014 C 368.957 0.526431 2.28617 0
M  V30 4015 C 369.973 -0.418126 1.68901 0
M  V30 4016 O 371.149 -0.288372 1.99325 0
M  V30 4017 C 368.214 -0.165235 3.46306 0
M  V30 4018 C 367.275 0.82056 4.21385 0
M  V30 4019 C 366.508 0.161807 5.33455 0
M  V30 4020 O 366.731 -1.04742 5.60701 0
M  V30 4021 O 365.665 0.859708 5.95729 0
M  V30 4022 H 369.491 1.4006 2.69475 0
M  V30 4023 H 367.076 0.746643 1.29405 0
M  V30 4024 H 368.958 -0.553287 4.17752 0
M  V30 4025 H 367.633 -1.01419 3.07402 0
M  V30 4026 H 366.54 1.25929 3.52268 0
M  V30 4027 H 367.873 1.63828 4.64135 0
M  V30 4028 N 369.525 -1.3858 0.750561 0
M  V30 4029 C 370.435 -2.34278 0.122825 0
M  V30 4030 C 371.451 -1.59116 -0.704131 0
M  V30 4031 O 372.627 -1.91326 -0.628987 0
M  V30 4032 C 369.692 -3.38221 -0.762086 0
M  V30 4033 C 368.753 -4.29227 0.078896 0
M  V30 4034 C 367.986 -5.28205 -0.763874 0
M  V30 4035 O 368.209 -5.34112 -2.00201 0
M  V30 4036 O 367.143 -6.01618 -0.18428 0
M  V30 4037 H 370.969 -2.89649 0.913088 0
M  V30 4038 H 368.554 -1.40374 0.511417 0
M  V30 4039 H 370.436 -4.01872 -1.26793 0
M  V30 4040 H 369.111 -2.85211 -1.5309 0
M  V30 4041 H 368.018 -3.68747 0.630621 0
M  V30 4042 H 369.351 -4.85484 0.810289 0
M  V30 4043 N 371.003 -0.499398 -1.49478 0
M  V30 4044 C 371.933 0.269244 -2.31943 0
M  V30 4045 C 372.914 0.964054 -1.40143 0
M  V30 4046 O 374.099 0.955767 -1.69052 0
M  V30 4047 C 371.229 1.33504 -3.20615 0
M  V30 4048 C 370.183 0.760202 -4.21195 0
M  V30 4049 C 369.509 1.9264 -4.98792 0
M  V30 4050 C 370.809 -0.247661 -5.21712 0
M  V30 4051 H 372.503 -0.419082 -2.96452 0
M  V30 4052 H 370.049 -0.202988 -1.42562 0
M  V30 4053 H 372.002 1.88048 -3.77115 0
M  V30 4054 H 370.726 2.05253 -2.54045 0
M  V30 4055 H 369.385 0.23653 -3.65836 0
M  V30 4056 H 369.033 2.63154 -4.28671 0
M  V30 4057 H 368.733 1.54785 -5.66847 0
M  V30 4058 H 370.257 2.4762 -5.58137 0
M  V30 4059 H 371.671 0.209579 -5.72917 0
M  V30 4060 H 370.068 -0.541962 -5.97648 0
M  V30 4061 H 371.138 -1.16409 -4.7072 0
M  V30 4062 N 372.481 1.55866 -0.233164 0
M  V30 4063 C 373.709 2.02998 0.399905 0
M  V30 4064 C 374.124 1.11274 1.52524 0
M  V30 4065 O 373.481 0.124528 1.82075 0
M  V30 4066 C 373.532 3.4958 0.920639 0
M  V30 4067 O 373.253 4.37808 -0.159834 0
M  V30 4068 C 374.754 4.12411 1.62578 0
M  V30 4069 H 371.974 0.664006 0.0966281 0
M  V30 4070 H 374.518 2.0143 -0.353013 0
M  V30 4071 H 372.673 3.51727 1.62379 0
M  V30 4072 H 373.087 5.23981 0.23337 0
M  V30 4073 H 374.561 5.16711 1.94201 0
M  V30 4074 H 375.038 3.5809 2.54299 0
M  V30 4075 H 375.644 4.14148 0.967553 0
M  V30 4076 N 373.959 -0.0401083 1.57549 0
M  V30 4077 C 375.236 -0.767917 1.79896 0
M  V30 4078 C 375.616 -1.9416 0.82856 0
M  V30 4079 O 374.964 -2.2812 -0.131671 0
M  V30 4080 C 375.174 -1.2113 3.27305 0
M  V30 4081 C 376.522 -1.63175 3.91994 0
M  V30 4082 O 377.546 -1.30616 3.31388 0
M  V30 4083 O 376.405 -2.23565 4.98679 0
M  V30 4084 H 373.499 -0.370441 0.739393 0
M  V30 4085 H 376.045 -0.017737 1.69691 0
M  V30 4086 H 374.817 -0.372937 3.89519 0
M  V30 4087 H 374.44 -2.02183 3.42356 0
M  V30 4088 N 375.437 -1.54477 -0.31217 0
M  V30 4089 C 376.686 -1.72438 -1.04633 0
M  V30 4090 C 376.999 -0.511163 -1.88803 0
M  V30 4091 O 378.205 -0.572341 -2.65399 0
M  V30 4092 C 376.661 -3.05043 -1.9099 0
M  V30 4093 C 376.269 -4.33806 -1.11877 0
M  V30 4094 C 378.013 -3.32364 -2.64073 0
M  V30 4095 C 375.92 -5.57467 -1.97445 0
M  V30 4096 H 374.85 -0.642647 -0.394361 0
M  V30 4097 H 377.501 -1.80966 -0.303929 0
M  V30 4098 H 375.883 -2.90451 -2.69173 0
M  V30 4099 H 377.057 -4.59199 -0.383843 0
M  V30 4100 H 375.372 -4.13336 -0.504252 0
M  V30 4101 H 377.969 -4.21951 -3.28423 0
M  V30 4102 H 378.312 -2.50745 -3.32314 0
M  V30 4103 H 378.845 -3.47875 -1.92944 0
M  V30 4104 H 375.584 -6.41722 -1.33692 0
M  V30 4105 H 375.104 -5.36277 -2.6864 0
M  V30 4106 H 376.783 -5.94303 -2.5576 0
M  V30 4107 N 376.915 0.57481 -1.46744 0
M  V30 4108 C 377.825 1.711 -1.60505 0
M  V30 4109 C 378.841 1.67008 -0.488307 0
M  V30 4110 O 380.017 1.86774 -0.753495 0
M  V30 4111 C 377.082 3.07608 -1.59932 0
M  V30 4112 C 376.143 3.22904 -2.82898 0
M  V30 4113 C 375.376 4.529 -2.82343 0
M  V30 4114 O 375.599 5.37278 -1.91542 0
M  V30 4115 O 374.533 4.71611 -3.73987 0
M  V30 4116 H 378.359 1.62436 -2.56609 0
M  V30 4117 H 375.944 0.742779 -1.29627 0
M  V30 4118 H 377.826 3.88877 -1.62336 0
M  V30 4119 H 376.501 3.16692 -0.669898 0
M  V30 4120 H 375.408 2.41099 -2.86046 0
M  V30 4121 H 376.741 3.18715 -3.75076 0
M  V30 4122 N 378.394 1.34581 0.820102 0
M  V30 4123 C 379.81 1.14325 1.11364 0
M  V30 4124 C 380.01 -0.0533648 2.01429 0
M  V30 4125 O 379.066 -0.728044 2.41776 0
M  V30 4126 C 380.379 2.43983 1.75764 0
M  V30 4127 C 381.927 2.50065 1.88246 0
M  V30 4128 C 382.402 3.79732 2.56061 0
M  V30 4129 N 383.893 3.80908 2.63558 0
M  V30 4130 C 384.628 4.77961 3.16766 0
M  V30 4131 N 384.124 5.85397 3.70517 0
M  V30 4132 N 385.917 4.65413 3.15194 0
M  V30 4133 H 378.068 2.11246 0.221096 0
M  V30 4134 H 380.331 0.934289 0.160649 0
M  V30 4135 H 380.037 3.31651 1.1705 0
M  V30 4136 H 379.911 2.57531 2.75604 0
M  V30 4137 H 382.298 1.62834 2.46108 0
M  V30 4138 H 382.379 2.40442 0.873006 0
M  V30 4139 H 382.023 4.67354 1.98853 0
M  V30 4140 H 381.953 3.86639 3.57516 0
M  V30 4141 H 384.444 3.03274 2.25463 0
M  V30 4142 H 384.757 6.55463 4.09376 0
M  V30 4143 H 383.102 5.89107 3.68752 0
M  V30 4144 H 386.293 3.80627 2.72471 0
M  V30 4145 H 386.466 5.41216 3.56356 0
M  V30 4146 N 379.872 -1.04064 1.18357 0
M  V30 4147 C 380.804 -2.12114 0.868358 0
M  V30 4148 C 381.817 -1.62247 -0.134045 0
M  V30 4149 O 383.006 -1.78253 0.0937933 0
M  V30 4150 C 380.106 -3.37773 0.276132 0
M  V30 4151 C 379.279 -4.16874 1.3242 0
M  V30 4152 C 378.338 -5.20861 0.747662 0
M  V30 4153 O 377.364 -5.51141 1.42239 0
M  V30 4154 N 378.566 -5.78715 -0.454823 0
M  V30 4155 H 381.331 -2.39748 1.79836 0
M  V30 4156 H 378.892 -1.20258 1.08396 0
M  V30 4157 H 380.884 -4.04513 -0.123133 0
M  V30 4158 H 379.454 -3.07581 -0.557895 0
M  V30 4159 H 378.674 -3.45456 1.89878 0
M  V30 4160 H 379.962 -4.66516 2.03078 0
M  V30 4161 H 379.36 -5.56415 -1.02073 0
M  V30 4162 H 377.917 -6.46921 -0.79601 0
M  V30 4163 N 381.35 -0.985608 -1.22978 0
M  V30 4164 C 382.597 -0.657386 -1.91532 0
M  V30 4165 C 382.925 0.809707 -1.76845 0
M  V30 4166 O 382.18 1.60021 -1.12658 0
M  V30 4167 C 382.479 -1.00014 -3.43121 0
M  V30 4168 C 382.145 -2.4583 -3.77993 0
M  V30 4169 C 380.807 -2.85679 -3.87222 0
M  V30 4170 C 383.159 -3.40378 -3.94705 0
M  V30 4171 C 380.487 -4.19081 -4.10595 0
M  V30 4172 C 382.839 -4.73429 -4.1958 0
M  V30 4173 C 381.503 -5.1303 -4.27032 0
M  V30 4174 H 380.773 -0.240555 -0.700867 0
M  V30 4175 H 383.42 -1.24044 -1.45895 0
M  V30 4176 H 381.725 -0.335072 -3.90365 0
M  V30 4177 H 383.422 -0.724322 -3.94404 0
M  V30 4178 H 380.012 -2.13939 -3.71387 0
M  V30 4179 H 384.196 -3.10766 -3.8696 0
M  V30 4180 H 379.452 -4.49362 -4.14589 0
M  V30 4181 H 383.626 -5.46644 -4.31455 0
M  V30 4182 H 381.253 -6.16418 -4.44896 0
M  V30 4183 N 382.828 1.3818 -0.7579 0
M  V30 4184 C 383.778 2.27741 -0.108674 0
M  V30 4185 C 384.762 1.45415 0.688709 0
M  V30 4186 O 385.954 1.68108 0.553956 0
M  V30 4187 C 383.083 3.34313 0.780367 0
M  V30 4188 C 382.169 4.24093 -0.0240977 0
M  V30 4189 N 382.56 4.9451 -1.06271 0
M  V30 4190 C 380.858 4.45542 0.202049 0
M  V30 4191 C 381.559 5.60675 -1.54979 0
M  V30 4192 N 380.535 5.36684 -0.864348 0
M  V30 4193 H 384.337 2.79649 -0.904071 0
M  V30 4194 H 381.851 1.51133 -0.594346 0
M  V30 4195 H 383.848 3.97368 1.26114 0
M  V30 4196 H 382.508 2.83962 1.57467 0
M  V30 4197 H 383.519 4.97345 -1.44459 0
M  V30 4198 H 380.196 4.06091 0.96935 0
M  V30 4199 H 381.586 6.26992 -2.41517 0
M  V30 4200 N 384.306 0.507319 1.49211 0
M  V30 4201 C 385.253 -0.267728 2.29242 0
M  V30 4202 C 386.223 -0.954609 1.35928 0
M  V30 4203 O 387.408 -0.960046 1.64887 0
M  V30 4204 C 384.548 -1.32243 3.18756 0
M  V30 4205 C 383.661 -0.64669 4.27132 0
M  V30 4206 C 382.796 -1.68238 5.03855 0
M  V30 4207 C 381.835 -0.98885 6.0406 0
M  V30 4208 N 380.972 -1.96903 6.73924 0
M  V30 4209 H 385.812 0.420968 2.95012 0
M  V30 4210 H 383.349 0.219443 1.45454 0
M  V30 4211 H 385.307 -1.94599 3.69036 0
M  V30 4212 H 383.937 -1.97981 2.54958 0
M  V30 4213 H 382.989 0.0902926 3.80293 0
M  V30 4214 H 384.301 -0.101058 4.98698 0
M  V30 4215 H 383.455 -2.38081 5.58034 0
M  V30 4216 H 382.194 -2.26187 4.32077 0
M  V30 4217 H 381.199 -0.276222 5.49106 0
M  V30 4218 H 382.424 -0.415767 6.77826 0
M  V30 4219 H 380.37 -2.53803 6.04913 0
M  V30 4220 H 380.287 -1.47423 7.41487 0
M  V30 4221 H 381.555 -2.66015 7.32705 0
M  V30 4222 N 385.784 -1.5574 0.241426 0
M  V30 4223 C 386.747 -2.19877 -0.647063 0
M  V30 4224 C 387.747 -1.16642 -1.10686 0
M  V30 4225 O 388.937 -1.41757 -1.01245 0
M  V30 4226 C 386.069 -2.83797 -1.88871 0
M  V30 4227 H 387.262 -2.99772 -0.087574 0
M  V30 4228 H 384.815 -1.56298 -0.00813574 0
M  V30 4229 H 385.55 -2.07824 -2.48957 0
M  V30 4230 H 385.335 -3.59414 -1.56728 0
M  V30 4231 H 386.825 -3.32898 -2.52129 0
M  V30 4232 N 387.262 0.0317525 -1.57568 0
M  V30 4233 C 388.192 1.03274 -2.0942 0
M  V30 4234 C 389.173 1.3788 -0.996143 0
M  V30 4235 O 390.358 1.46811 -1.27122 0
M  V30 4236 C 387.488 2.33448 -2.57137 0
M  V30 4237 C 386.442 2.13091 -3.71182 0
M  V30 4238 C 385.768 3.49001 -4.05095 0
M  V30 4239 C 387.068 1.51928 -4.99715 0
M  V30 4240 H 388.762 0.60112 -2.93303 0
M  V30 4241 H 386.308 0.287705 -1.41097 0
M  V30 4242 H 388.261 3.03802 -2.92032 0
M  V30 4243 H 386.985 2.78665 -1.70333 0
M  V30 4244 H 385.644 1.45171 -3.36632 0
M  V30 4245 H 385.292 3.91862 -3.15362 0
M  V30 4246 H 384.992 3.36207 -4.81911 0
M  V30 4247 H 386.516 4.20721 -4.42522 0
M  V30 4248 H 387.93 2.12196 -5.32584 0
M  V30 4249 H 386.327 1.49716 -5.81124 0
M  V30 4250 H 387.397 0.484811 -4.8247 0
M  V30 4251 N 388.74 1.54641 0.303973 0
M  V30 4252 C 389.97 1.77511 1.05705 0
M  V30 4253 C 390.378 0.533228 1.81531 0
M  V30 4254 O 389.721 -0.506423 1.76582 0
M  V30 4255 C 389.783 2.92779 2.08617 0
M  V30 4256 C 389.447 4.30977 1.52013 0
M  V30 4257 C 390.444 5.11115 0.9517 0
M  V30 4258 C 388.129 4.77571 1.55665 0
M  V30 4259 C 390.123 6.35966 0.427327 0
M  V30 4260 C 387.81 6.02384 1.02841 0
M  V30 4261 C 388.808 6.81417 0.464713 0
M  V30 4262 O 388.496 8.03881 -0.0555283 0
M  V30 4263 H 388.228 0.59579 0.319391 0
M  V30 4264 H 390.782 2.02401 0.349712 0
M  V30 4265 H 389.012 2.63506 2.83022 0
M  V30 4266 H 390.701 3.03252 2.69802 0
M  V30 4267 H 391.467 4.76264 0.916407 0
M  V30 4268 H 387.346 4.16085 1.9848 0
M  V30 4269 H 390.89 6.97599 -0.0133062 0
M  V30 4270 H 386.787 6.36723 1.06084 0
M  V30 4271 H 387.555 8.18479 0.0580522 0
M  V30 4272 N 390.218 -0.567019 1.47046 0
M  V30 4273 C 391.446 -1.35027 1.56765 0
M  V30 4274 C 391.861 -1.8758 0.214316 0
M  V30 4275 O 391.218 -1.64471 -0.790919 0
M  V30 4276 C 391.269 -2.52698 2.58507 0
M  V30 4277 O 390.99 -2.0232 3.88585 0
M  V30 4278 C 392.491 -3.45043 2.78316 0
M  V30 4279 H 389.711 -0.41195 0.529658 0
M  V30 4280 H 392.255 -0.687832 1.92585 0
M  V30 4281 H 390.41 -3.149 2.25648 0
M  V30 4282 H 390.824 -2.79068 4.44096 0
M  V30 4283 H 392.298 -4.2405 3.53391 0
M  V30 4284 H 392.775 -3.97971 1.85784 0
M  V30 4285 H 393.381 -2.88665 3.12334 0
M  V30 4286 N 391.696 -1.35014 -0.812953 0
M  V30 4287 C 392.942 -1.2812 -1.57204 0
M  V30 4288 C 393.275 0.145869 -1.93651 0
M  V30 4289 O 392.55 1.0937 -1.60836 0
M  V30 4290 C 392.833 -2.18162 -2.86492 0
M  V30 4291 C 392.686 -3.69454 -2.56561 0
M  V30 4292 C 394.005 -2.07439 -3.88145 0
M  V30 4293 H 391.124 -0.466746 -0.570366 0
M  V30 4294 H 393.766 -1.65357 -0.935783 0
M  V30 4295 H 391.916 -1.86535 -3.40789 0
M  V30 4296 H 393.588 -4.11493 -2.08497 0
M  V30 4297 H 391.831 -3.9005 -1.89851 0
M  V30 4298 H 392.502 -4.27835 -3.48799 0
M  V30 4299 H 394.978 -2.35228 -3.4323 0
M  V30 4300 H 393.854 -2.7265 -4.76396 0
M  V30 4301 H 394.115 -1.05439 -4.29343 0
M  V30 4302 N 393.175 1.03435 -1.18907 0
M  V30 4303 C 394.591 1.28973 -0.940111 0
M  V30 4304 C 394.791 1.97676 0.390691 0
M  V30 4305 O 393.847 2.26127 1.12352 0
M  V30 4306 C 395.16 2.14221 -2.11021 0
M  V30 4307 C 396.708 2.27547 -2.14922 0
M  V30 4308 C 397.183 3.16164 -3.31367 0
M  V30 4309 N 398.674 3.23752 -3.31269 0
M  V30 4310 C 399.409 3.92495 -4.18014 0
M  V30 4311 N 398.905 4.63515 -5.14904 0
M  V30 4312 N 400.698 3.88838 -4.05908 0
M  V30 4313 H 392.849 0.57252 -2.04538 0
M  V30 4314 H 395.112 0.315184 -0.894071 0
M  V30 4315 H 394.818 1.71054 -3.073 0
M  V30 4316 H 394.692 3.14919 -2.0762 0
M  V30 4317 H 397.079 2.69947 -1.19217 0
M  V30 4318 H 397.16 1.26418 -2.22378 0
M  V30 4319 H 396.804 2.74474 -4.27348 0
M  V30 4320 H 396.734 4.17339 -3.21148 0
M  V30 4321 H 399.225 2.73167 -2.61129 0
M  V30 4322 H 399.538 5.13583 -5.77453 0
M  V30 4323 H 397.883 4.62398 -5.18857 0
M  V30 4324 H 401.074 3.32491 -3.29495 0
M  V30 4325 H 401.247 4.4214 -4.73726 0
M  V30 4326 N 394.653 0.992116 1.22453 0
M  V30 4327 C 395.616 0.546883 2.2258 0
M  V30 4328 C 396.616 -0.369829 1.56489 0
M  V30 4329 O 397.806 -0.161896 1.73446 0
M  V30 4330 C 394.938 -0.204659 3.40285 0
M  V30 4331 H 396.131 1.43234 2.63484 0
M  V30 4332 H 393.684 0.779239 1.3549 0
M  V30 4333 H 394.419 -1.10614 3.04853 0
M  V30 4334 H 394.204 0.45354 3.89468 0
M  V30 4335 H 395.694 -0.504358 4.14543 0
M  V30 4336 N 396.131 -1.37776 0.765217 0
M  V30 4337 C 397.378 -1.99849 0.326588 0
M  V30 4338 C 397.706 -1.60746 -1.09504 0
M  V30 4339 O 396.961 -0.84202 -1.76659 0
M  V30 4340 C 397.26 -3.5504 0.410053 0
M  V30 4341 C 396.926 -4.13891 1.78899 0
M  V30 4342 C 395.588 -4.29678 2.16635 0
M  V30 4343 C 397.94 -4.46236 2.69301 0
M  V30 4344 C 395.268 -4.7511 3.44221 0
M  V30 4345 C 397.62 -4.93089 3.9629 0
M  V30 4346 C 396.284 -5.07082 4.34078 0
M  V30 4347 H 395.554 -0.7313 0.119507 0
M  V30 4348 H 398.201 -1.64645 0.977968 0
M  V30 4349 H 396.506 -3.90451 -0.324878 0
M  V30 4350 H 398.203 -4.00966 0.0520699 0
M  V30 4351 H 394.793 -4.02026 1.48569 0
M  V30 4352 H 398.977 -4.3363 2.41409 0
M  V30 4353 H 394.233 -4.84129 3.73402 0
M  V30 4354 H 398.407 -5.17084 4.66472 0
M  V30 4355 H 396.034 -5.42046 5.33001 0
M  V30 4356 N 397.609 -0.515225 -1.4894 0
M  V30 4357 C 398.539 0.244628 -2.32215 0
M  V30 4358 C 399.52 0.949136 -1.41157 0
M  V30 4359 O 400.705 0.937783 -1.70057 0
M  V30 4360 C 397.835 1.30096 -3.22013 0
M  V30 4361 C 396.789 0.715486 -4.21977 0
M  V30 4362 C 396.115 1.87339 -5.00808 0
M  V30 4363 C 397.415 -0.302982 -5.2142 0
M  V30 4364 H 399.109 -0.450501 -2.95991 0
M  V30 4365 H 396.655 -0.218098 -1.42339 0
M  V30 4366 H 398.608 1.84037 -3.79089 0
M  V30 4367 H 397.332 2.02547 -2.56207 0
M  V30 4368 H 395.991 0.197715 -3.66066 0
M  V30 4369 H 395.639 2.58592 -4.31438 0
M  V30 4370 H 395.339 1.48764 -5.68457 0
M  V30 4371 H 396.863 2.41686 -5.60732 0
M  V30 4372 H 398.277 0.148802 -5.73107 0
M  V30 4373 H 396.674 -0.60532 -5.97039 0
M  V30 4374 H 397.744 -1.21395 -4.69459 0
M  V30 4375 N 399.087 1.5561 -0.249682 0
M  V30 4376 C 400.035 2.22894 0.664906 0
M  V30 4377 C 401.029 1.21743 1.17792 0
M  V30 4378 O 402.235 1.39748 1.13449 0
M  V30 4379 H 398.61 0.715022 0.232912 0
M  V30 4380 H 400.581 2.98307 0.0742998 0
M  V30 4381 C 399.33 2.94424 1.84959 0
M  V30 4382 H 398.653 3.72031 1.46399 0
M  V30 4383 H 400.093 3.44862 2.4667 0
M  V30 4384 C 398.552 1.98454 2.72245 0
M  V30 4385 O 399.082 1.51939 3.71857 0
M  V30 4386 N 397.288 1.65496 2.38871 0
M  V30 4387 H 396.835 2.03517 1.57919 0
M  V30 4388 H 396.793 1.0155 2.97548 0
M  V30 4389 N 400.565 -0.0233959 1.57583 0
M  V30 4390 C 401.805 -0.71784 1.9138 0
M  V30 4391 C 402.169 -1.72216 0.848853 0
M  V30 4392 O 403.37 -2.46527 1.07134 0
M  V30 4393 C 401.641 -1.36489 3.30311 0
M  V30 4394 S 403.2 -2.0877 3.85954 0
M  V30 4395 H 400.018 -0.237676 0.670098 0
M  V30 4396 H 402.62 0.0276709 1.9548 0
M  V30 4397 H 401.324 -0.620782 4.05678 0
M  V30 4398 H 400.855 -2.14883 3.29528 0
M  V30 4399 H 402.87 -3.35988 3.65139 0
M  V30 4400 N 402.043 -1.548 -0.295768 0
M  V30 4401 C 403.32 -1.65014 -1.05023 0
M  V30 4402 C 403.7 -0.501805 -2.05049 0
M  V30 4403 O 403.048 0.500869 -2.22943 0
M  V30 4404 C 403.258 -3.03252 -1.72741 0
M  V30 4405 C 404.606 -3.60242 -2.24746 0
M  V30 4406 O 405.63 -3.05737 -1.82765 0
M  V30 4407 O 404.489 -4.55687 -3.01681 0
M  V30 4408 H 401.583 -0.669314 -0.485744 0
M  V30 4409 H 404.129 -1.67144 -0.293438 0
M  V30 4410 H 402.901 -3.7827 -1.00138 0
M  V30 4411 H 402.524 -3.04922 -2.55163 0
M  V30 4412 N 403.521 0.559213 -1.47345 0
M  V30 4413 C 404.937 0.884943 -1.32819 0
M  V30 4414 C 405.137 1.98988 -0.317173 0
M  V30 4415 O 404.193 2.51031 0.272011 0
M  V30 4416 C 405.506 1.28007 -2.72093 0
M  V30 4417 C 407.054 1.39161 -2.80363 0
M  V30 4418 C 407.529 1.82031 -4.20272 0
M  V30 4419 N 409.02 1.89185 -4.22804 0
M  V30 4420 C 409.755 2.2368 -5.27973 0
M  V30 4421 N 409.251 2.56802 -6.43447 0
M  V30 4422 N 411.044 2.24436 -5.15349 0
M  V30 4423 H 403.195 -0.170304 -2.11716 0
M  V30 4424 H 405.458 -0.0135247 -0.947904 0
M  V30 4425 H 405.164 0.542027 -3.47498 0
M  V30 4426 H 405.038 2.23665 -3.03733 0
M  V30 4427 H 407.425 2.12048 -2.05231 0
M  V30 4428 H 407.506 0.41696 -2.52379 0
M  V30 4429 H 407.15 1.09715 -4.95908 0
M  V30 4430 H 407.08 2.80495 -4.45679 0
M  V30 4431 H 409.571 1.65982 -3.39497 0
M  V30 4432 H 409.884 2.82144 -7.19454 0
M  V30 4433 H 408.229 2.54387 -6.46771 0
M  V30 4434 H 411.42 1.97998 -4.24163 0
M  V30 4435 H 411.593 2.50989 -5.97418 0
M  V30 4436 N 404.999 1.35443 0.805782 0
M  V30 4437 C 406.229 1.31687 1.59192 0
M  V30 4438 C 406.637 -0.10756 1.88894 0
M  V30 4439 O 405.98 -1.07017 1.49309 0
M  V30 4440 C 406.042 2.05686 2.94845 0
M  V30 4441 C 405.706 3.54868 2.87954 0
M  V30 4442 C 406.703 4.49444 2.61335 0
M  V30 4443 C 404.388 3.97528 3.07046 0
M  V30 4444 C 406.382 5.84655 2.53885 0
M  V30 4445 C 404.069 5.32833 2.99219 0
M  V30 4446 C 405.067 6.26209 2.72674 0
M  V30 4447 O 404.755 7.59032 2.64811 0
M  V30 4448 H 404.487 0.453878 0.50097 0
M  V30 4449 H 407.041 1.78892 1.0093 0
M  V30 4450 H 405.271 1.5312 3.55093 0
M  V30 4451 H 406.96 1.94998 3.55993 0
M  V30 4452 H 407.726 4.17804 2.46303 0
M  V30 4453 H 403.605 3.25233 3.26718 0
M  V30 4454 H 407.149 6.57508 2.33086 0
M  V30 4455 H 403.046 5.64087 3.13809 0
M  V30 4456 H 403.814 7.68967 2.80413 0
M  V30 4457 N 406.477 -1.02803 1.19454 0
M  V30 4458 C 407.702 -1.80378 1.02364 0
M  V30 4459 C 408.127 -1.83282 -0.423007 0
M  V30 4460 O 407.485 -1.25945 -1.30413 0
M  V30 4461 C 407.533 -3.23248 1.59821 0
M  V30 4462 O 406.637 -4.04 0.828105 0
M  V30 4463 H 405.978 -0.556799 0.361761 0
M  V30 4464 H 408.508 -1.29385 1.58495 0
M  V30 4465 H 408.518 -3.73994 1.63073 0
M  V30 4466 H 407.193 -3.2045 2.65113 0
M  V30 4467 H 405.77 -3.62635 0.86891 0
M  V30 4468 N 407.956 -0.998596 -1.21925 0
M  V30 4469 C 409.202 -0.678667 -1.91107 0
M  V30 4470 C 409.535 0.78791 -1.77498 0
M  V30 4471 O 408.81 1.57043 -1.1475 0
M  V30 4472 C 409.093 -1.09245 -3.43129 0
M  V30 4473 C 408.946 -2.61801 -3.6576 0
M  V30 4474 C 410.265 -0.649984 -4.35274 0
M  V30 4475 H 407.384 -0.248025 -0.694012 0
M  V30 4476 H 410.026 -1.24314 -1.43688 0
M  V30 4477 H 408.176 -0.612171 -3.83647 0
M  V30 4478 H 409.848 -3.17543 -3.34611 0
M  V30 4479 H 408.091 -3.03609 -3.09845 0
M  V30 4480 H 408.762 -2.85804 -4.7225 0
M  V30 4481 H 411.238 -1.0626 -4.02303 0
M  V30 4482 H 410.114 -0.967743 -5.40302 0
M  V30 4483 H 410.375 0.449139 -4.39813 0
M  V30 4484 N 409.434 1.37368 -0.772513 0
M  V30 4485 C 410.682 1.99279 -0.336516 0
M  V30 4486 C 411.003 1.6163 1.09091 0
M  V30 4487 O 410.273 0.882109 1.74916 0
M  V30 4488 H 408.853 0.737063 -0.121435 0
M  V30 4489 H 411.515 1.67836 -0.990809 0
M  V30 4490 H 410.611 3.09332 -0.414763 0
M  V30 4491 N 410.912 0.523116 1.48665 0
M  V30 4492 C 411.842 -0.23231 2.32342 0
M  V30 4493 C 412.823 -0.941637 1.41659 0
M  V30 4494 O 414.008 -0.928751 1.70552 0
M  V30 4495 C 411.138 -1.28387 3.22698 0
M  V30 4496 C 410.092 -0.693098 4.22351 0
M  V30 4497 C 409.418 -1.8468 5.01794 0
M  V30 4498 C 410.718 0.33063 5.21252 0
M  V30 4499 H 412.412 0.466192 2.95748 0
M  V30 4500 H 409.958 0.225643 1.42221 0
M  V30 4501 H 411.911 -1.82024 3.80059 0
M  V30 4502 H 410.635 -2.01186 2.57278 0
M  V30 4503 H 409.294 -0.178299 3.66166 0
M  V30 4504 H 408.942 -2.56301 4.32804 0
M  V30 4505 H 408.642 -1.45747 5.69238 0
M  V30 4506 H 410.166 -2.38709 5.62006 0
M  V30 4507 H 411.58 -0.118407 5.73178 0
M  V30 4508 H 409.977 0.636974 5.9671 0
M  V30 4509 H 411.047 1.23883 4.68808 0
M  V30 4510 N 412.39 -1.55475 0.257931 0
M  V30 4511 C 413.32 -2.24815 -0.630912 0
M  V30 4512 C 414.301 -1.23224 -1.17259 0
M  V30 4513 O 415.486 -1.51904 -1.20991 0
M  V30 4514 C 412.616 -2.95609 -1.82298 0
M  V30 4515 C 411.57 -4.03982 -1.41359 0
M  V30 4516 C 410.896 -4.6226 -2.68738 0
M  V30 4517 C 412.196 -5.19109 -0.57648 0
M  V30 4518 H 413.89 -2.99354 -0.0526878 0
M  V30 4519 H 411.436 -1.4398 -0.023901 0
M  V30 4520 H 413.389 -3.42822 -2.45054 0
M  V30 4521 H 412.113 -2.18577 -2.42676 0
M  V30 4522 H 410.772 -3.57555 -0.809324 0
M  V30 4523 H 410.42 -3.81915 -3.27338 0
M  V30 4524 H 410.12 -5.35424 -2.42065 0
M  V30 4525 H 411.644 -5.12212 -3.32372 0
M  V30 4526 H 413.058 -5.62479 -1.10861 0
M  V30 4527 H 411.455 -5.98729 -0.405351 0
M  V30 4528 H 412.525 -4.83174 0.408776 0
M  V30 4529 N 413.868 0.0150385 -1.57593 0
M  V30 4530 C 415.145 0.7392 -1.81094 0
M  V30 4531 C 415.525 1.92817 -0.859344 0
M  V30 4532 O 414.873 2.28301 0.095362 0
M  V30 4533 C 415.083 1.15907 -3.29191 0
M  V30 4534 C 416.431 1.56918 -3.9454 0
M  V30 4535 O 417.455 1.25328 -3.33424 0
M  V30 4536 O 416.314 2.15604 -5.02173 0
M  V30 4537 H 413.408 0.358631 -0.745193 0
M  V30 4538 H 415.954 -0.00926156 -1.69697 0
M  V30 4539 H 414.726 0.310921 -3.90063 0
M  V30 4540 H 414.349 1.96711 -3.45529 0
M  V30 4541 N 415.346 1.54954 0.287554 0
M  V30 4542 C 416.279 1.81737 1.3801 0
M  V30 4543 C 417.257 0.669412 1.48181 0
M  V30 4544 O 418.441 0.910839 1.65033 0
M  V30 4545 C 415.568 1.96606 2.75796 0
M  V30 4546 C 414.614 3.19098 2.82982 0
M  V30 4547 S 415.447 4.7683 2.43707 0
M  V30 4548 C 416.603 4.94653 3.83496 0
M  V30 4549 H 416.836 2.74122 1.15085 0
M  V30 4550 H 414.369 1.46538 0.486403 0
M  V30 4551 H 416.327 2.05858 3.55152 0
M  V30 4552 H 414.988 1.05136 2.95982 0
M  V30 4553 H 414.181 3.26344 3.84077 0
M  V30 4554 H 413.783 3.08361 2.11635 0
M  V30 4555 H 416.075 4.79502 4.78628 0
M  V30 4556 H 417.018 5.96728 3.8121 0
M  V30 4557 H 417.426 4.2272 3.74123 0
M  V30 4558 N 416.824 -0.551391 1.4764 0
M  V30 4559 C 418.052 -1.33357 1.58189 0
M  V30 4560 C 418.467 -1.87342 0.234199 0
M  V30 4561 O 417.824 -1.65301 -0.77343 0
M  V30 4562 C 417.875 -2.49942 2.61173 0
M  V30 4563 O 417.596 -1.98187 3.90709 0
M  V30 4564 C 419.097 -3.42072 2.8196 0
M  V30 4565 H 416.317 -0.40631 0.533998 0
M  V30 4566 H 418.861 -0.667367 1.93304 0
M  V30 4567 H 417.016 -3.12489 2.28975 0
M  V30 4568 H 417.43 -2.74342 4.47031 0
M  V30 4569 H 418.904 -4.20278 3.57869 0
M  V30 4570 H 419.381 -3.95978 1.89995 0
M  V30 4571 H 419.987 -2.85336 3.15378 0
M  V30 4572 N 418.302 -1.35869 -0.798587 0
M  V30 4573 C 419.249 -1.29446 -1.91082 0
M  V30 4574 C 420.219 -0.16487 -1.6528 0
M  V30 4575 O 421.404 -0.349888 -1.87564 0
M  V30 4576 C 418.544 -1.0804 -3.27752 0
M  V30 4577 C 417.657 -2.29993 -3.65687 0
M  V30 4578 C 416.792 -2.01673 -4.91428 0
M  V30 4579 C 415.831 -3.19636 -5.22015 0
M  V30 4580 N 414.968 -2.91039 -6.38937 0
M  V30 4581 H 419.808 -2.24553 -1.95907 0
M  V30 4582 H 417.345 -1.11615 -0.958148 0
M  V30 4583 H 419.303 -0.936586 -4.06551 0
M  V30 4584 H 417.933 -0.16592 -3.22373 0
M  V30 4585 H 416.985 -2.55211 -2.82085 0
M  V30 4586 H 418.297 -3.18052 -3.84245 0
M  V30 4587 H 417.451 -1.84168 -5.78072 0
M  V30 4588 H 416.19 -1.10911 -4.74921 0
M  V30 4589 H 415.195 -3.37709 -4.33858 0
M  V30 4590 H 416.42 -4.11211 -5.40447 0
M  V30 4591 H 414.366 -2.0288 -6.2384 0
M  V30 4592 H 414.283 -3.72635 -6.57784 0
M  V30 4593 H 415.551 -2.77093 -7.28587 0
M  V30 4594 N 419.78 1.02168 -1.19998 0
M  V30 4595 C 420.712 2.10705 -0.901994 0
M  V30 4596 C 421.725 1.6244 0.108216 0
M  V30 4597 O 422.914 1.78082 -0.12214 0
M  V30 4598 C 420.014 3.37291 -0.329834 0
M  V30 4599 C 419.187 4.14714 -1.39035 0
M  V30 4600 C 418.246 5.19606 -0.830432 0
M  V30 4601 O 417.272 5.48809 -1.50989 0
M  V30 4602 N 418.474 5.79366 0.362696 0
M  V30 4603 H 421.239 2.36856 -1.83628 0
M  V30 4604 H 418.8 1.18518 -1.10296 0
M  V30 4605 H 420.792 4.04657 0.0587633 0
M  V30 4606 H 419.362 3.0843 0.508891 0
M  V30 4607 H 418.582 3.42392 -1.9535 0
M  V30 4608 H 419.87 4.63226 -2.10474 0
M  V30 4609 H 419.268 5.57968 0.932081 0
M  V30 4610 H 417.825 6.48106 0.69299 0
M  V30 4611 N 421.258 1.00505 1.21394 0
M  V30 4612 C 422.205 0.565496 2.23765 0
M  V30 4613 C 423.175 -0.408466 1.60999 0
M  V30 4614 O 424.36 -0.310503 1.88257 0
M  V30 4615 C 421.5 -0.101667 3.4495 0
M  V30 4616 C 420.613 0.915479 4.22188 0
M  V30 4617 C 419.748 0.220574 5.30742 0
M  V30 4618 C 418.787 1.22527 5.99711 0
M  V30 4619 N 417.924 0.557831 6.9988 0
M  V30 4620 H 422.764 1.44314 2.60725 0
M  V30 4621 H 420.301 0.722643 1.28126 0
M  V30 4622 H 422.259 -0.505504 4.14126 0
M  V30 4623 H 420.889 -0.94303 3.08718 0
M  V30 4624 H 419.941 1.43756 3.52191 0
M  V30 4625 H 421.253 1.68005 4.69655 0
M  V30 4626 H 420.407 -0.239368 6.06228 0
M  V30 4627 H 419.146 -0.576401 4.84282 0
M  V30 4628 H 418.151 1.69571 5.22997 0
M  V30 4629 H 419.376 2.02332 6.48258 0
M  V30 4630 H 417.322 -0.219486 6.55633 0
M  V30 4631 H 417.239 1.26065 7.45415 0
M  V30 4632 H 418.507 0.121095 7.79406 0
M  V30 4633 N 422.737 -1.36956 0.779787 0
M  V30 4634 C 423.647 -2.33965 0.172491 0
M  V30 4635 C 424.663 -1.60574 -0.670222 0
M  V30 4636 O 425.839 -1.92617 -0.588263 0
M  V30 4637 C 422.904 -3.39761 -0.690173 0
M  V30 4638 C 421.965 -4.28964 0.169924 0
M  V30 4639 C 421.198 -5.29707 -0.651662 0
M  V30 4640 O 421.421 -5.38238 -1.88827 0
M  V30 4641 O 420.355 -6.01873 -0.0566264 0
M  V30 4642 H 424.181 -2.87647 0.974321 0
M  V30 4643 H 421.766 -1.39258 0.541078 0
M  V30 4644 H 423.648 -4.04471 -1.1824 0
M  V30 4645 H 422.323 -2.88394 -1.47006 0
M  V30 4646 H 421.23 -3.67326 0.708696 0
M  V30 4647 H 422.563 -4.83656 0.913085 0
M  V30 4648 N 424.215 -0.530993 -1.48385 0
M  V30 4649 C 425.462 0.0027373 -2.025 0
M  V30 4650 C 425.79 1.34186 -1.40799 0
M  V30 4651 O 425.045 1.88 -0.543544 0
M  V30 4652 C 425.344 0.172742 -3.56982 0
M  V30 4653 C 425.01 -1.09215 -4.37473 0
M  V30 4654 C 423.672 -1.43881 -4.59186 0
M  V30 4655 C 426.024 -1.93153 -4.84088 0
M  V30 4656 C 423.352 -2.62381 -5.2476 0
M  V30 4657 C 425.704 -3.10833 -5.50968 0
M  V30 4658 C 424.368 -3.45843 -5.70919 0
M  V30 4659 H 423.638 0.00100165 -0.740999 0
M  V30 4660 H 426.285 -0.697219 -1.78357 0
M  V30 4661 H 424.59 0.955473 -3.79971 0
M  V30 4662 H 426.287 0.600642 -3.96476 0
M  V30 4663 H 422.877 -0.812177 -4.20834 0
M  V30 4664 H 427.061 -1.67683 -4.67115 0
M  V30 4665 H 422.317 -2.89707 -5.38405 0
M  V30 4666 H 426.491 -3.7618 -5.86056 0
M  V30 4667 H 424.118 -4.37764 -6.21503 0
M  V30 4668 N 425.693 1.55336 -0.266172 0
M  V30 4669 C 426.94 1.99397 0.353158 0
M  V30 4670 C 427.268 1.15451 1.56529 0
M  V30 4671 O 426.523 0.209974 1.9457 0
M  V30 4672 C 426.822 3.48606 0.787957 0
M  V30 4673 C 426.488 4.49773 -0.318541 0
M  V30 4674 C 425.15 4.77158 -0.62239 0
M  V30 4675 C 427.502 5.10212 -1.06459 0
M  V30 4676 C 424.83 5.62251 -1.67602 0
M  V30 4677 C 427.182 5.96449 -2.10788 0
M  V30 4678 C 425.846 6.22158 -2.41817 0
M  V30 4679 H 425.116 0.729644 0.12923 0
M  V30 4680 H 427.763 1.87732 -0.37802 0
M  V30 4681 H 426.068 3.57701 1.59866 0
M  V30 4682 H 427.765 3.80098 1.27775 0
M  V30 4683 H 424.355 4.2854 -0.0715925 0
M  V30 4684 H 428.539 4.89086 -0.843098 0
M  V30 4685 H 423.795 5.80419 -1.92155 0
M  V30 4686 H 427.969 6.42317 -2.69076 0
M  V30 4687 H 425.596 6.87888 -3.23596 0
M  V30 4688 N 427.171 -0.0066808 1.57599 0
M  V30 4689 C 428.448 -0.729586 1.81484 0
M  V30 4690 C 428.828 -1.92359 0.869558 0
M  V30 4691 O 428.176 -2.28348 -0.0832533 0
M  V30 4692 C 428.386 -1.1416 3.29801 0
M  V30 4693 C 429.734 -1.54823 3.95367 0
M  V30 4694 O 430.758 -1.23558 3.34084 0
M  V30 4695 O 429.617 -2.12937 5.03309 0
M  V30 4696 H 426.711 -0.354674 0.747085 0
M  V30 4697 H 429.257 0.0182609 1.6969 0
M  V30 4698 H 428.029 -0.290231 3.90222 0
M  V30 4699 H 427.652 -1.94876 3.46568 0
M  V30 4700 N 428.649 -1.55105 -0.279332 0
M  V30 4701 C 429.895 -1.75672 -1.01327 0
M  V30 4702 C 430.228 -0.552739 -1.86168 0
M  V30 4703 O 429.503 0.449827 -1.89227 0
M  V30 4704 C 429.786 -3.05825 -1.90114 0
M  V30 4705 C 429.639 -4.36565 -1.08309 0
M  V30 4706 C 430.958 -3.31975 -2.8893 0
M  V30 4707 H 428.077 -0.639149 -0.366957 0
M  V30 4708 H 430.719 -1.87833 -0.286154 0
M  V30 4709 H 428.869 -2.95588 -2.52111 0
M  V30 4710 H 430.541 -4.58751 -0.484314 0
M  V30 4711 H 428.784 -4.32076 -0.386362 0
M  V30 4712 H 429.455 -5.23946 -1.73737 0
M  V30 4713 H 431.931 -3.41963 -2.37067 0
M  V30 4714 H 430.807 -4.2432 -3.48201 0
M  V30 4715 H 431.068 -2.51309 -3.63725 0
M  V30 4716 N 430.127 0.543554 -1.4793 0
M  V30 4717 C 431.373 1.29961 -1.56466 0
M  V30 4718 C 431.728 1.91024 -0.229696 0
M  V30 4719 O 431.021 1.75619 0.766072 0
M  V30 4720 C 431.215 2.42078 -2.62932 0
M  V30 4721 C 431.044 1.92003 -4.06651 0
M  V30 4722 C 429.814 1.75223 -4.73946 0
M  V30 4723 C 432.012 1.45648 -4.93245 0
M  V30 4724 N 429.994 1.19632 -6.02131 0
M  V30 4725 C 431.365 1.01914 -6.11566 0
M  V30 4726 C 433.42 1.33826 -4.79578 0
M  V30 4727 C 432.123 0.475301 -7.17728 0
M  V30 4728 C 434.149 0.808427 -5.85848 0
M  V30 4729 C 433.511 0.381081 -7.03368 0
M  V30 4730 H 429.61 0.467086 -0.62718 0
M  V30 4731 H 432.194 0.614543 -1.84747 0
M  V30 4732 H 430.365 3.08098 -2.36496 0
M  V30 4733 H 432.097 3.09096 -2.61231 0
M  V30 4734 H 428.852 1.98345 -4.30065 0
M  V30 4735 H 429.276 0.93885 -6.70458 0
M  V30 4736 H 433.918 1.65474 -3.89074 0
M  V30 4737 H 431.636 0.146472 -8.07967 0
M  V30 4738 H 435.222 0.720315 -5.77324 0
M  V30 4739 H 434.102 -0.0225344 -7.84197 0
M  V30 4740 N 431.605 1.3629 0.791371 0
M  V30 4741 C 433.016 1.27225 1.36641 0
M  V30 4742 C 433.367 -0.0887968 1.95999 0
M  V30 4743 O 432.492 -0.990207 1.92416 0
M  V30 4744 C 433.087 2.30375 2.48421 0
M  V30 4745 C 431.646 2.25004 3.01746 0
M  V30 4746 C 430.793 2.15259 1.7481 0
M  V30 4747 H 433.744 1.47198 0.593173 0
M  V30 4748 H 433.765 1.93905 3.27385 0
M  V30 4749 H 433.277 3.29422 2.05189 0
M  V30 4750 H 431.378 1.29417 3.49403 0
M  V30 4751 H 431.491 3.1761 3.58693 0
M  V30 4752 H 429.855 1.61482 1.96966 0
M  V30 4753 H 430.638 3.16191 1.33709 0
M  V30 4754 N 433.083 -1.0153 1.20538 0
M  V30 4755 C 434.329 -1.75408 1.01783 0
M  V30 4756 C 434.662 -1.88943 -0.448814 0
M  V30 4757 O 433.937 -1.4162 -1.33319 0
M  V30 4758 C 434.22 -3.17255 1.70356 0
M  V30 4759 C 434.073 -3.11508 3.24473 0
M  V30 4760 C 435.392 -4.15955 1.43769 0
M  V30 4761 H 432.511 -0.636713 0.371167 0
M  V30 4762 H 435.153 -1.18436 1.4857 0
M  V30 4763 H 433.303 -3.65898 1.30578 0
M  V30 4764 H 434.975 -2.70658 3.73553 0
M  V30 4765 H 433.218 -2.4887 3.55311 0
M  V30 4766 H 433.889 -4.11784 3.67611 0
M  V30 4767 H 436.365 -3.75973 1.7828 0
M  V30 4768 H 435.241 -5.13368 1.94279 0
M  V30 4769 H 435.502 -4.40586 0.365564 0
M  V30 4770 N 434.561 -1.01147 -1.20859 0
M  V30 4771 C 435.491 -0.597663 -2.25722 0
M  V30 4772 C 436.472 0.384744 -1.65692 0
M  V30 4773 O 437.657 0.271303 -1.92296 0
M  V30 4774 C 434.787 0.0700149 -3.47229 0
M  V30 4775 C 433.741 -0.832843 -4.19819 0
M  V30 4776 C 433.067 -0.0312202 -5.34691 0
M  V30 4777 C 434.367 -2.1385 -4.76514 0
M  V30 4778 H 436.061 -1.47423 -2.60589 0
M  V30 4779 H 433.607 -0.710301 -1.25263 0
M  V30 4780 H 435.56 0.37103 -4.19763 0
M  V30 4781 H 434.284 0.981259 -3.11511 0
M  V30 4782 H 432.943 -1.11778 -3.49144 0
M  V30 4783 H 432.591 0.881515 -4.95215 0
M  V30 4784 H 432.291 -0.632434 -5.84187 0
M  V30 4785 H 433.815 0.26346 -6.10031 0
M  V30 4786 H 435.229 -1.9002 -5.40893 0
M  V30 4787 H 433.626 -2.69012 -5.36426 0
M  V30 4788 H 434.696 -2.80495 -3.95538 0
M  V30 4789 N 436.039 1.36541 -0.78704 0
M  V30 4790 C 436.972 2.27831 -0.129765 0
M  V30 4791 C 437.95 1.47105 0.692732 0
M  V30 4792 O 439.134 1.7641 0.664222 0
M  V30 4793 C 436.261 3.28577 0.821883 0
M  V30 4794 C 435.307 4.26422 0.0814771 0
M  V30 4795 S 436.14 5.20919 -1.24112 0
M  V30 4796 C 437.296 6.25212 -0.293409 0
M  V30 4797 H 437.529 2.83229 -0.903811 0
M  V30 4798 H 435.062 1.43046 -0.581144 0
M  V30 4799 H 437.02 3.87123 1.3655 0
M  V30 4800 H 435.681 2.72096 1.56916 0
M  V30 4801 H 434.874 4.97554 0.803485 0
M  V30 4802 H 434.476 3.71944 -0.391589 0
M  V30 4803 H 436.768 6.75435 0.528622 0
M  V30 4804 H 437.711 7.01378 -0.973344 0
M  V30 4805 H 438.119 5.64407 0.102196 0
M  V30 4806 N 437.518 0.538854 1.48102 0
M  V30 4807 C 438.766 0.00798599 2.02098 0
M  V30 4808 C 439.087 -1.33922 1.41739 0
M  V30 4809 O 438.357 -1.86932 0.585934 0
M  V30 4810 H 436.937 -3.62179e-05 0.747 0
M  V30 4811 H 439.599 0.7047 1.81714 0
M  V30 4812 H 438.695 -0.0937672 3.11959 0
M  V30 4813 N 438.996 -1.55193 0.274407 0
M  V30 4814 C 439.906 -2.26164 -0.623473 0
M  V30 4815 C 440.922 -1.28729 -1.17068 0
M  V30 4816 O 442.098 -1.61663 -1.20112 0
M  V30 4817 C 439.163 -2.96833 -1.7914 0
M  V30 4818 C 438.224 -4.09745 -1.28093 0
M  V30 4819 C 437.457 -4.77034 -2.3932 0
M  V30 4820 O 437.68 -4.4353 -3.5866 0
M  V30 4821 O 436.614 -5.64996 -2.07516 0
M  V30 4822 H 440.44 -3.03661 -0.0485661 0
M  V30 4823 H 438.025 -1.49341 0.0418382 0
M  V30 4824 H 439.907 -3.41248 -2.4724 0
M  V30 4825 H 438.582 -2.22253 -2.35341 0
M  V30 4826 H 437.489 -3.69787 -0.566416 0
M  V30 4827 H 438.822 -4.86224 -0.764683 0
M  V30 4828 N 440.474 -0.00167713 -1.576 0
M  V30 4829 C 441.72 0.683832 -1.90923 0
M  V30 4830 C 442.053 1.7333 -0.875799 0
M  V30 4831 O 441.328 1.94215 0.10525 0
M  V30 4832 C 441.611 1.32543 -3.3482 0
M  V30 4833 C 441.464 0.287387 -4.48881 0
M  V30 4834 C 442.783 2.25114 -3.78169 0
M  V30 4835 H 439.902 0.247125 -0.694333 0
M  V30 4836 H 442.544 -0.0533149 -1.89925 0
M  V30 4837 H 440.694 1.95372 -3.35801 0
M  V30 4838 H 442.366 -0.341346 -4.60035 0
M  V30 4839 H 440.609 -0.39017 -4.32042 0
M  V30 4840 H 441.28 0.775393 -5.46527 0
M  V30 4841 H 443.756 1.723 -3.7875 0
M  V30 4842 H 442.632 2.66971 -4.79602 0
M  V30 4843 H 442.893 3.13092 -3.12131 0
M  V30 4844 N 441.952 1.55251 0.271103 0
M  V30 4845 C 443.363 1.66635 0.842007 0
M  V30 4846 C 443.714 0.594631 1.86972 0
M  V30 4847 O 442.839 -0.263532 2.14789 0
M  V30 4848 C 443.434 3.02082 1.53401 0
M  V30 4849 C 441.993 3.15487 2.05293 0
M  V30 4850 C 441.14 2.62438 0.895631 0
M  V30 4851 H 444.091 1.58629 0.0474117 0
M  V30 4852 H 444.112 2.95176 2.40107 0
M  V30 4853 H 443.624 3.80062 0.785786 0
M  V30 4854 H 441.725 2.42284 2.83071 0
M  V30 4855 H 441.838 4.22075 2.26693 0
M  V30 4856 H 440.202 2.19644 1.28953 0
M  V30 4857 H 440.985 3.42923 0.160878 0
M  V30 4858 N 443.43 -0.535701 1.48216 0
M  V30 4859 C 444.841 -1.11769 1.49548 0
M  V30 4860 C 445.192 -1.94442 0.26207 0
M  V30 4861 O 444.317 -2.06987 -0.631287 0
M  V30 4862 C 444.912 -2.03367 2.70975 0
M  V30 4863 C 443.471 -2.56795 2.75196 0
M  V30 4864 C 442.618 -1.33631 2.42977 0
M  V30 4865 H 445.569 -0.321232 1.55415 0
M  V30 4866 H 445.59 -2.87569 2.49167 0
M  V30 4867 H 445.102 -1.43169 3.60727 0
M  V30 4868 H 443.203 -3.20731 1.89638 0
M  V30 4869 H 443.316 -2.9632 3.76472 0
M  V30 4870 H 441.68 -1.6502 1.94012 0
M  V30 4871 H 442.463 -0.75194 3.34964 0
M  V30 4872 N 444.908 -1.36708 -0.784132 0
M  V30 4873 C 446.138 -1.34203 -1.57077 0
M  V30 4874 C 446.546 0.0774945 -1.89041 0
M  V30 4875 O 445.889 1.04628 -1.50992 0
M  V30 4876 C 445.951 -2.10351 -2.91535 0
M  V30 4877 C 445.615 -3.59405 -2.82272 0
M  V30 4878 C 446.612 -4.53545 -2.54151 0
M  V30 4879 C 444.297 -4.02362 -3.00683 0
M  V30 4880 C 446.291 -5.8862 -2.44551 0
M  V30 4881 C 443.978 -5.37526 -2.90704 0
M  V30 4882 C 444.976 -6.30468 -2.62677 0
M  V30 4883 O 444.664 -7.63149 -2.52702 0
M  V30 4884 H 444.396 -0.461791 -0.493685 0
M  V30 4885 H 446.95 -1.80475 -0.980712 0
M  V30 4886 H 445.18 -1.5875 -3.52612 0
M  V30 4887 H 446.869 -2.00636 -3.52845 0
M  V30 4888 H 447.635 -4.21669 -2.39625 0
M  V30 4889 H 443.514 -3.30389 -3.21503 0
M  V30 4890 H 447.058 -6.61133 -2.22596 0
M  V30 4891 H 442.955 -5.69008 -3.04795 0
M  V30 4892 H 443.723 -7.73331 -2.68144 0
M  V30 4893 N 446.386 1.0089 -1.21074 0
M  V30 4894 C 447.611 1.78727 -1.05221 0
M  V30 4895 C 448.036 1.83932 0.393795 0
M  V30 4896 O 447.394 1.28004 1.28393 0
M  V30 4897 C 447.442 3.20665 -1.64944 0
M  V30 4898 O 446.546 4.02632 -0.892273 0
M  V30 4899 H 445.887 0.550973 -0.370574 0
M  V30 4900 H 448.417 1.26847 -1.60534 0
M  V30 4901 H 448.427 3.71352 -1.69002 0
M  V30 4902 H 447.102 3.16191 -2.70177 0
M  V30 4903 H 445.679 3.61207 -0.926492 0
M  V30 4904 N 447.864 1.01787 1.20321 0
M  V30 4905 C 449.112 0.706538 1.89347 0
M  V30 4906 C 449.433 -0.766289 1.79313 0
M  V30 4907 O 448.703 -1.55126 1.19635 0
M  V30 4908 H 447.283 0.258348 0.700903 0
M  V30 4909 H 449.945 1.28974 1.46122 0
M  V30 4910 H 449.041 0.991066 2.95946 0
M  V30 4911 N 449.342 -1.36122 0.79427 0
M  V30 4912 C 450.753 -1.81646 0.431446 0
M  V30 4913 C 451.104 -1.66043 -1.04518 0
M  V30 4914 O 450.229 -1.1841 -1.8113 0
M  V30 4915 C 450.824 -3.29785 0.776341 0
M  V30 4916 C 449.383 -3.73501 0.466282 0
M  V30 4917 C 448.53 -2.58313 1.00844 0
M  V30 4918 H 451.481 -1.24274 0.986995 0
M  V30 4919 H 451.502 -3.80437 0.0692413 0
M  V30 4920 H 451.014 -3.4111 1.8511 0
M  V30 4921 H 449.115 -3.67733 -0.600245 0
M  V30 4922 H 449.228 -4.68754 0.990288 0
M  V30 4923 H 447.592 -2.5102 0.431406 0
M  V30 4924 H 448.375 -2.72421 2.08906 0
M  V30 4925 N 450.82 -0.546701 -1.47814 0
M  V30 4926 C 452.236 -0.205717 -1.58269 0
M  V30 4927 C 452.436 1.29153 -1.54667 0
M  V30 4928 O 451.492 2.07098 -1.44453 0
M  V30 4929 C 452.805 -0.823065 -2.89216 0
M  V30 4930 C 454.353 -0.793328 -3.02779 0
M  V30 4931 C 454.828 -1.38955 -4.36412 0
M  V30 4932 N 456.319 -1.35227 -4.43021 0
M  V30 4933 C 457.054 -1.78333 -5.44963 0
M  V30 4934 N 456.55 -2.29246 -6.53772 0
M  V30 4935 N 458.343 -1.69467 -5.35945 0
M  V30 4936 H 450.494 -1.5196 -1.48398 0
M  V30 4937 H 452.757 -0.633078 -0.705632 0
M  V30 4938 H 452.463 -1.8749 -2.97558 0
M  V30 4939 H 452.337 -0.309915 -3.75925 0
M  V30 4940 H 454.724 0.249784 -2.94041 0
M  V30 4941 H 454.805 -1.34412 -2.17639 0
M  V30 4942 H 454.449 -2.43168 -4.45906 0
M  V30 4943 H 454.379 -0.814291 -5.20266 0
M  V30 4944 H 456.87 -0.979739 -3.64979 0
M  V30 4945 H 457.183 -2.60089 -7.27718 0
M  V30 4946 H 455.528 -2.3325 -6.5469 0
M  V30 4947 H 458.719 -1.29477 -4.49837 0
M  V30 4948 H 458.892 -2.03381 -6.15256 0
M  V30 4949 N 452.299 1.55045 -0.282633 0
M  V30 4950 C 453.527 2.04168 0.33512 0
M  V30 4951 C 453.942 1.16071 1.48906 0
M  V30 4952 O 453.299 0.182391 1.81586 0
M  V30 4953 C 453.35 3.52332 0.808957 0
M  V30 4954 O 453.071 4.37078 -0.299038 0
M  V30 4955 C 454.572 4.17375 1.49375 0
M  V30 4956 H 451.792 0.666744 0.0754543 0
M  V30 4957 H 454.336 2.00205 -0.416918 0
M  V30 4958 H 452.491 3.56715 1.51106 0
M  V30 4959 H 452.905 5.24458 0.0665514 0
M  V30 4960 H 454.379 5.22627 1.77664 0
M  V30 4961 H 454.856 3.65999 2.42778 0
M  V30 4962 H 455.462 4.17016 0.835305 0
M  V30 4963 N 453.777 0.010035 1.57597 0
M  V30 4964 C 455.188 -0.531426 1.78977 0
M  V30 4965 C 455.539 -1.73375 0.918454 0
M  V30 4966 O 454.664 -2.16047 0.123635 0
M  V30 4967 C 455.259 -0.97086 3.24592 0
M  V30 4968 C 453.818 -1.45756 3.47033 0
M  V30 4969 C 452.965 -0.413384 2.74201 0
M  V30 4970 H 455.916 0.236166 1.56933 0
M  V30 4971 H 455.937 -1.83633 3.33255 0
M  V30 4972 H 455.449 -0.0955893 3.87982 0
M  V30 4973 H 453.55 -2.35339 2.88871 0
M  V30 4974 H 453.663 -1.4781 4.55729 0
M  V30 4975 H 452.027 -0.877266 2.39115 0
M  V30 4976 H 452.81 0.453092 3.40297 0
M  V30 4977 N 455.255 -1.55392 -0.262866 0
M  V30 4978 C 456.532 -1.67204 -1.01499 0
M  V30 4979 C 456.912 -0.545186 -2.03939 0
M  V30 4980 O 456.26 0.453467 -2.23955 0
M  V30 4981 C 456.47 -3.06847 -1.6627 0
M  V30 4982 C 457.818 -3.64928 -2.17054 0
M  V30 4983 O 458.842 -3.09545 -1.76239 0
M  V30 4984 O 457.701 -4.61984 -2.91947 0
M  V30 4985 H 454.795 -0.679467 -0.471438 0
M  V30 4986 H 457.341 -1.67729 -0.257918 0
M  V30 4987 H 456.113 -3.80309 -0.920915 0
M  V30 4988 H 455.736 -3.10266 -2.48638 0
M  V30 4989 N 456.733 0.527833 -1.48498 0
M  V30 4990 C 457.981 1.28101 -1.56316 0
M  V30 4991 C 458.302 1.9352 -0.239781 0
M  V30 4992 O 457.572 1.81433 0.738849 0
M  V30 4993 H 456.152 0.475793 -0.575873 0
M  V30 4994 H 458.814 0.614052 -1.84974 0
M  V30 4995 H 457.91 2.05916 -2.34532 0
M  V30 4996 N 458.211 1.37122 0.776871 0
M  V30 4997 C 459.627 1.1781 1.07671 0
M  V30 4998 C 459.827 0.0107454 2.01497 0
M  V30 4999 O 458.883 -0.650756 2.4397 0
M  V30 5000 C 460.196 2.49451 1.67913 0
M  V30 5001 C 461.744 2.55927 1.80195 0
M  V30 5002 C 462.219 3.87686 2.43851 0
M  V30 5003 N 463.71 3.891 2.51307 0
M  V30 5004 C 464.445 4.87797 3.014 0
M  V30 5005 N 463.941 5.96888 3.51705 0
M  V30 5006 N 465.734 4.75205 3.00227 0
M  V30 5007 H 457.885 2.11843 0.153778 0
M  V30 5008 H 460.148 0.938927 0.130844 0
M  V30 5009 H 459.854 3.35207 1.06439 0
M  V30 5010 H 459.728 2.66169 2.67271 0
M  V30 5011 H 462.115 1.70582 2.40803 0
M  V30 5012 H 462.196 2.43097 0.796069 0
M  V30 5013 H 461.84 4.73444 1.83884 0
M  V30 5014 H 461.77 3.97817 3.45035 0
M  V30 5015 H 464.261 3.10293 2.157 0
M  V30 5016 H 464.574 6.68155 3.88316 0
M  V30 5017 H 462.919 6.0054 3.49824 0
M  V30 5018 H 466.11 3.89103 2.60224 0
M  V30 5019 H 466.283 5.52279 3.38957 0
M  V30 5020 N 459.689 -1.00246 1.21608 0
M  V30 5021 C 460.599 -2.12515 0.993709 0
M  V30 5022 C 461.615 -1.73913 -0.0549939 0
M  V30 5023 O 462.791 -2.00943 0.135619 0
M  V30 5024 C 459.856 -3.42083 0.563953 0
M  V30 5025 C 458.917 -3.94843 1.68516 0
M  V30 5026 C 458.15 -5.18226 1.27582 0
M  V30 5027 O 458.373 -5.70201 0.150506 0
M  V30 5028 O 457.307 -5.64497 2.0887 0
M  V30 5029 H 461.133 -2.34152 1.93407 0
M  V30 5030 H 458.718 -1.10891 1.00118 0
M  V30 5031 H 460.6 -4.20073 0.334194 0
M  V30 5032 H 459.275 -3.21828 -0.347665 0
M  V30 5033 H 458.182 -3.18068 1.96935 0
M  V30 5034 H 459.515 -4.19512 2.5743 0
M  V30 5035 N 461.167 -1.02423 -1.1978 0
M  V30 5036 C 462.416 -0.713265 -1.88667 0
M  V30 5037 C 462.729 0.7609 -1.80193 0
M  V30 5038 O 463.935 1.18473 -2.44288 0
M  V30 5039 C 462.391 -1.22545 -3.38394 0
M  V30 5040 C 461.999 -2.72706 -3.55437 0
M  V30 5041 C 463.743 -0.990257 -4.12788 0
M  V30 5042 C 461.65 -3.17367 -4.99031 0
M  V30 5043 H 460.58 -0.263105 -0.706606 0
M  V30 5044 H 463.231 -1.23792 -1.35454 0
M  V30 5045 H 461.613 -0.628732 -3.90977 0
M  V30 5046 H 462.787 -3.37993 -3.13205 0
M  V30 5047 H 461.102 -2.94453 -2.94425 0
M  V30 5048 H 463.699 -1.29926 -5.18675 0
M  V30 5049 H 464.042 0.0730761 -4.16236 0
M  V30 5050 H 464.575 -1.55074 -3.66329 0
M  V30 5051 H 461.314 -4.23009 -5.00743 0
M  V30 5052 H 460.834 -2.56805 -5.42044 0
M  V30 5053 H 462.513 -3.10441 -5.67658 0
M  V30 5054 N 462.645 1.35699 -0.801477 0
M  V30 5055 C 463.593 2.3177 -0.196317 0
M  V30 5056 C 464.587 1.56388 0.651081 0
M  V30 5057 O 465.793 1.71557 0.544815 0
M  V30 5058 H 462.168 0.750669 -0.0447189 0
M  V30 5059 H 464.139 2.8036 -1.02181 0
M  V30 5060 C 462.888 3.41671 0.644702 0
M  V30 5061 H 462.211 3.998 0.0019921 0
M  V30 5062 H 463.651 4.11184 1.0346 0
M  V30 5063 C 462.11 2.84271 1.80808 0
M  V30 5064 O 462.64 2.77408 2.9053 0
M  V30 5065 N 460.846 2.41391 1.61799 0
M  V30 5066 H 460.393 2.47173 0.725493 0
M  V30 5067 H 460.351 2.03334 2.39797 0
M  V30 5068 N 464.123 0.554532 1.47522 0
M  V30 5069 C 465.37 0.029479 2.02479 0
M  V30 5070 C 465.698 -1.31929 1.42916 0
M  V30 5071 O 464.953 -1.87112 0.573385 0
M  V30 5072 C 465.252 -0.115927 3.57212 0
M  V30 5073 C 464.918 1.16161 4.3568 0
M  V30 5074 C 463.58 1.51168 4.56839 0
M  V30 5075 C 465.932 2.0083 4.80954 0
M  V30 5076 C 463.26 2.70696 5.2052 0
M  V30 5077 C 465.612 3.19559 5.45953 0
M  V30 5078 C 464.276 3.54882 5.65345 0
M  V30 5079 H 463.546 0.0107871 0.740921 0
M  V30 5080 H 466.193 0.725506 1.77225 0
M  V30 5081 H 464.498 -0.894902 3.81443 0
M  V30 5082 H 466.195 -0.53749 3.97381 0
M  V30 5083 H 462.785 0.879026 4.19489 0
M  V30 5084 H 466.969 1.75093 4.64388 0
M  V30 5085 H 462.225 2.98236 5.33728 0
M  V30 5086 H 466.399 3.85456 5.79997 0
M  V30 5087 H 464.026 4.47596 6.1446 0
M  V30 5088 N 465.601 -1.54893 0.290851 0
M  V30 5089 C 466.831 -2.04047 -0.323818 0
M  V30 5090 C 467.239 -1.16809 -1.48837 0
M  V30 5091 O 466.582 -0.184145 -1.82775 0
M  V30 5092 C 466.644 -3.49248 -0.852395 0
M  V30 5093 C 466.308 -4.56623 0.185557 0
M  V30 5094 C 467.305 -5.09985 1.01053 0
M  V30 5095 C 464.99 -5.01252 0.324332 0
M  V30 5096 C 466.984 -6.06507 1.96031 0
M  V30 5097 C 464.671 -5.97596 1.27757 0
M  V30 5098 C 465.669 -6.50107 2.09405 0
M  V30 5099 O 465.357 -7.44565 3.03114 0
M  V30 5100 H 465.089 -0.671735 -0.0758129 0
M  V30 5101 H 467.643 -2.00947 0.425393 0
M  V30 5102 H 465.873 -3.49639 -1.65195 0
M  V30 5103 H 467.562 -3.81654 -1.38185 0
M  V30 5104 H 468.328 -4.76307 0.914129 0
M  V30 5105 H 464.207 -4.60015 -0.301213 0
M  V30 5106 H 467.751 -6.47418 2.598 0
M  V30 5107 H 463.648 -6.30691 1.37473 0
M  V30 5108 H 464.416 -7.62334 2.97976 0
M  V30 5109 N 467.08 -0.0183926 -1.57589 0
M  V30 5110 C 468.027 0.967022 -2.09565 0
M  V30 5111 C 468.997 1.32983 -0.995225 0
M  V30 5112 O 470.182 1.42501 -1.26878 0
M  V30 5113 C 467.322 2.24772 -2.61861 0
M  V30 5114 C 466.435 1.94232 -3.85873 0
M  V30 5115 C 465.57 3.16518 -4.26603 0
M  V30 5116 C 464.609 2.81748 -5.43401 0
M  V30 5117 N 463.746 3.96626 -5.79338 0
M  V30 5118 H 468.586 0.516874 -2.93483 0
M  V30 5119 H 466.123 0.243544 -1.4507 0
M  V30 5120 H 468.081 2.99667 -2.90268 0
M  V30 5121 H 466.711 2.67423 -1.8079 0
M  V30 5122 H 465.763 1.09625 -3.64262 0
M  V30 5123 H 467.075 1.64616 -4.70853 0
M  V30 5124 H 466.229 3.99743 -4.56389 0
M  V30 5125 H 464.968 3.49286 -3.40368 0
M  V30 5126 H 463.973 1.96933 -5.1332 0
M  V30 5127 H 465.198 2.50207 -6.31327 0
M  V30 5128 H 463.144 4.29257 -4.96059 0
M  V30 5129 H 463.061 3.70598 -6.58933 0
M  V30 5130 H 464.329 4.80586 -6.13724 0
M  V30 5131 N 468.558 1.5553 0.254621 0
M  V30 5132 C 469.804 1.77262 0.985193 0
M  V30 5133 C 470.137 0.582286 1.85265 0
M  V30 5134 O 469.412 -0.419666 1.89919 0
M  V30 5135 C 469.695 3.0881 1.85225 0
M  V30 5136 C 469.548 4.38233 1.0135 0
M  V30 5137 C 470.867 3.3653 2.83612 0
M  V30 5138 H 467.986 0.644906 0.356742 0
M  V30 5139 H 470.628 1.88264 0.256236 0
M  V30 5140 H 468.778 2.99562 2.47376 0
M  V30 5141 H 470.45 4.59463 0.411269 0
M  V30 5142 H 468.693 4.32636 0.317574 0
M  V30 5143 H 469.364 5.26644 1.65379 0
M  V30 5144 H 471.84 3.45691 2.31596 0
M  V30 5145 H 470.716 4.29805 3.41407 0
M  V30 5146 H 470.977 2.57064 3.59681 0
M  V30 5147 N 470.036 -0.519951 1.48776 0
M  V30 5148 C 471.285 -1.27175 1.56555 0
M  V30 5149 C 471.598 -1.9401 0.248869 0
M  V30 5150 O 472.804 -2.70725 0.205004 0
M  V30 5151 C 471.26 -2.30811 2.76142 0
M  V30 5152 C 470.868 -1.7 4.14493 0
M  V30 5153 C 472.612 -3.06937 2.9324 0
M  V30 5154 C 470.519 -2.71635 5.25327 0
M  V30 5155 H 469.449 -0.478329 0.582853 0
M  V30 5156 H 472.1 -0.547916 1.75129 0
M  V30 5157 H 470.482 -3.06274 2.51023 0
M  V30 5158 H 471.656 -1.00658 4.49672 0
M  V30 5159 H 469.971 -1.06331 4.02595 0
M  V30 5160 H 472.568 -3.82905 3.73213 0
M  V30 5161 H 472.911 -3.63409 2.03075 0
M  V30 5162 H 473.444 -2.38589 3.18308 0
M  V30 5163 H 470.183 -2.1997 6.1749 0
M  V30 5164 H 469.703 -3.39275 4.94624 0
M  V30 5165 H 471.382 -3.34429 5.53865 0
M  V30 5166 N 471.514 -1.37532 -0.769588 0
M  V30 5167 C 472.791 -1.23392 -1.51768 0
M  V30 5168 C 473.171 0.17157 -2.10402 0
M  V30 5169 O 472.519 1.17943 -1.95708 0
M  V30 5170 C 472.729 -2.33163 -2.59685 0
M  V30 5171 C 474.077 -2.70809 -3.27028 0
M  V30 5172 O 475.101 -2.32355 -2.69981 0
M  V30 5173 O 473.96 -3.37066 -4.30173 0
M  V30 5174 H 471.054 -0.481617 -0.67229 0
M  V30 5175 H 473.6 -1.49318 -0.806368 0
M  V30 5176 H 472.372 -3.27273 -2.14494 0
M  V30 5177 H 471.995 -2.08713 -3.38415 0
M  V30 5178 N 472.992 0.995999 -1.22138 0
M  V30 5179 C 474.222 1.76809 -1.06874 0
M  V30 5180 C 474.63 1.85265 0.383866 0
M  V30 5181 O 473.973 1.31969 1.27789 0
M  V30 5182 C 474.035 3.2186 -1.60144 0
M  V30 5183 C 473.699 3.36958 -3.0872 0
M  V30 5184 C 474.696 3.2452 -4.0618 0
M  V30 5185 C 472.381 3.62109 -3.48112 0
M  V30 5186 C 474.375 3.37013 -5.41019 0
M  V30 5187 C 472.062 3.74243 -4.831 0
M  V30 5188 C 473.06 3.61702 -5.79362 0
M  V30 5189 O 472.748 3.73436 -7.119 0
M  V30 5190 H 472.48 0.562207 -0.375365 0
M  V30 5191 H 475.034 1.26113 -1.62125 0
M  V30 5192 H 473.264 3.73734 -0.992981 0
M  V30 5193 H 474.953 3.80775 -1.40589 0
M  V30 5194 H 475.719 3.05004 -3.77091 0
M  V30 5195 H 471.598 3.70949 -2.73712 0
M  V30 5196 H 475.142 3.27141 -6.16137 0
M  V30 5197 H 471.039 3.93266 -5.11872 0
M  V30 5198 H 471.807 3.90328 -7.19435 0
M  V30 5199 N 474.47 1.03057 1.19235 0
M  V30 5200 C 475.719 0.72326 1.88287 0
M  V30 5201 C 476.032 -0.751333 1.80594 0
M  V30 5202 O 477.238 -1.17176 2.44912 0
M  V30 5203 C 475.694 1.24338 3.3774 0
M  V30 5204 C 475.302 2.74587 3.53986 0
M  V30 5205 C 477.046 1.01213 4.12257 0
M  V30 5206 C 474.953 3.20009 4.97341 0
M  V30 5207 H 473.883 0.266848 0.705201 0
M  V30 5208 H 476.534 1.24509 1.34795 0
M  V30 5209 H 474.916 0.649457 3.90638 0
M  V30 5210 H 476.09 3.39649 3.11408 0
M  V30 5211 H 474.405 2.9601 2.9286 0
M  V30 5212 H 477.002 1.32675 5.17978 0
M  V30 5213 H 477.345 -0.051001 4.16269 0
M  V30 5214 H 477.878 1.57014 3.65501 0
M  V30 5215 H 474.617 4.25659 4.98493 0
M  V30 5216 H 474.137 2.59676 5.40674 0
M  V30 5217 H 475.816 3.13447 5.66003 0
M  V30 5218 N 475.948 -1.35272 0.808662 0
M  V30 5219 C 476.878 -2.32315 0.234981 0
M  V30 5220 C 477.859 -1.57572 -0.64071 0
M  V30 5221 O 479.044 -1.8563 -0.570551 0
M  V30 5222 C 476.174 -3.41801 -0.615601 0
M  V30 5223 C 475.128 -4.27694 0.161767 0
M  V30 5224 C 474.454 -5.28519 -0.810649 0
M  V30 5225 C 475.754 -5.04231 1.36193 0
M  V30 5226 H 477.448 -2.80543 1.04575 0
M  V30 5227 H 474.994 -1.3488 0.504315 0
M  V30 5228 H 476.947 -4.08693 -1.02702 0
M  V30 5229 H 475.671 -2.92186 -1.45928 0
M  V30 5230 H 474.33 -3.62384 0.554382 0
M  V30 5231 H 473.978 -4.75171 -1.64988 0
M  V30 5232 H 473.678 -5.8686 -0.294822 0
M  V30 5233 H 475.202 -5.98283 -1.22023 0
M  V30 5234 H 476.616 -5.64058 1.02528 0
M  V30 5235 H 475.013 -5.72077 1.81239 0
M  V30 5236 H 476.083 -4.34753 2.14751 0
M  V30 5237 N 477.426 -0.562348 -1.47226 0
M  V30 5238 C 478.376 0.202967 -2.27095 0
M  V30 5239 C 479.36 0.880611 -1.34663 0
M  V30 5240 O 480.552 0.778069 -1.58981 0
M  V30 5241 C 477.681 1.22906 -3.20545 0
M  V30 5242 C 476.767 0.554566 -4.20459 0
M  V30 5243 N 477.158 -0.378295 -5.04383 0
M  V30 5244 C 475.456 0.807854 -4.38623 0
M  V30 5245 C 476.157 -0.770583 -5.76573 0
M  V30 5246 N 475.133 -0.124263 -5.43458 0
M  V30 5247 H 478.935 -0.514196 -2.89367 0
M  V30 5248 H 476.449 -0.382655 -1.57827 0
M  V30 5249 H 478.446 1.79134 -3.76453 0
M  V30 5250 H 477.106 1.94726 -2.59831 0
M  V30 5251 H 478.117 -0.75274 -5.124 0
M  V30 5252 H 474.794 1.51418 -3.89075 0
M  V30 5253 H 476.184 -1.53742 -6.54074 0
M  V30 5254 N 478.904 1.54736 -0.299062 0
M  V30 5255 C 480.152 1.99706 0.31017 0
M  V30 5256 C 480.473 1.18896 1.54559 0
M  V30 5257 O 479.743 0.284445 1.93824 0
M  V30 5258 H 478.323 0.737686 0.117596 0
M  V30 5259 H 480.985 1.9054 -0.409943 0
M  V30 5260 H 480.081 3.06596 0.58355 0
M  V30 5261 N 480.382 0.0267497 1.57577 0
M  V30 5262 C 481.329 -0.955894 2.10075 0
M  V30 5263 C 482.299 -1.32453 1.00226 0
M  V30 5264 O 483.484 -1.41826 1.27632 0
M  V30 5265 C 480.624 -2.2338 2.6305 0
M  V30 5266 C 479.737 -1.92183 3.86898 0
M  V30 5267 C 478.872 -3.14251 4.28275 0
M  V30 5268 C 477.911 -2.78862 5.44888 0
M  V30 5269 N 477.048 -3.93548 5.81433 0
M  V30 5270 H 481.888 -0.501303 2.93753 0
M  V30 5271 H 479.425 -0.235847 1.45197 0
M  V30 5272 H 481.383 -2.98124 2.91853 0
M  V30 5273 H 480.013 -2.6646 1.82205 0
M  V30 5274 H 479.065 -1.07692 3.64838 0
M  V30 5275 H 480.377 -1.62117 4.7172 0
M  V30 5276 H 479.531 -3.97317 4.58502 0
M  V30 5277 H 478.27 -3.47476 3.42215 0
M  V30 5278 H 477.275 -1.94208 5.14357 0
M  V30 5279 H 478.5 -2.46855 6.32645 0
M  V30 5280 H 476.446 -4.2662 4.98328 0
M  V30 5281 H 476.363 -3.67098 6.6089 0
M  V30 5282 H 477.631 -4.77325 6.16264 0
M  V30 5283 N 481.861 -1.55662 -0.24637 0
M  V30 5284 C 482.771 -1.93495 -1.32653 0
M  V30 5285 C 483.787 -0.835462 -1.5263 0
M  V30 5286 O 484.963 -1.1369 -1.66242 0
M  V30 5287 C 482.028 -2.22242 -2.66101 0
M  V30 5288 C 481.089 -3.45625 -2.54641 0
M  V30 5289 C 480.322 -3.72991 -3.81724 0
M  V30 5290 O 480.545 -3.02421 -4.8363 0
M  V30 5291 O 479.479 -4.66515 -3.80325 0
M  V30 5292 H 483.305 -2.85498 -1.03559 0
M  V30 5293 H 480.89 -1.42551 -0.44717 0
M  V30 5294 H 482.772 -2.42037 -3.44958 0
M  V30 5295 H 481.447 -1.33417 -2.94926 0
M  V30 5296 H 480.354 -3.31136 -1.74067 0
M  V30 5297 H 481.687 -4.34754 -2.3076 0
M  V30 5298 N 483.339 0.512053 -1.4905 0
M  V30 5299 C 484.616 1.27337 -1.48474 0
M  V30 5300 C 484.996 2.1009 -0.206301 0
M  V30 5301 O 484.344 2.136 0.811609 0
M  V30 5302 C 484.554 2.13954 -2.75726 0
M  V30 5303 C 485.902 2.73507 -3.24776 0
M  V30 5304 O 486.926 2.24229 -2.76767 0
M  V30 5305 O 485.785 3.63186 -4.08361 0
M  V30 5306 H 482.879 0.575652 -0.593762 0
M  V30 5307 H 485.425 0.527232 -1.61302 0
M  V30 5308 H 484.197 1.52709 -3.60272 0
M  V30 5309 H 483.82 2.95782 -2.65705 0
M  V30 5310 N 484.817 1.37938 0.762283 0
M  V30 5311 C 486.066 1.32989 1.51647 0
M  V30 5312 C 486.379 -0.0802922 1.95435 0
M  V30 5313 O 487.585 -0.252295 2.70325 0
M  V30 5314 C 486.041 2.33485 2.73885 0
M  V30 5315 C 485.649 3.80079 2.37157 0
M  V30 5316 C 487.393 2.37563 3.51801 0
M  V30 5317 C 485.3 4.72283 3.55954 0
M  V30 5318 H 484.23 0.494301 0.56937 0
M  V30 5319 H 486.881 1.63448 0.834083 0
M  V30 5320 H 485.263 1.96056 3.44061 0
M  V30 5321 H 486.437 4.26398 1.74704 0
M  V30 5322 H 484.752 3.79037 1.72395 0
M  V30 5323 H 487.349 3.0365 4.40114 0
M  V30 5324 H 487.692 1.39199 3.92338 0
M  V30 5325 H 488.225 2.73747 2.8863 0
M  V30 5326 H 484.964 5.7181 3.2049 0
M  V30 5327 H 484.484 4.30663 4.1748 0
M  V30 5328 H 486.163 4.89876 4.22647 0
M  V30 5329 N 486.295 -0.989507 1.22664 0
M  V30 5330 C 487.242 -2.08024 0.999733 0
M  V30 5331 C 488.212 -1.65909 -0.0797047 0
M  V30 5332 O 489.397 -1.90669 0.0705715 0
M  V30 5333 C 486.537 -3.40067 0.587234 0
M  V30 5334 C 485.65 -3.95505 1.73781 0
M  V30 5335 C 484.785 -5.15722 1.27297 0
M  V30 5336 C 483.824 -5.63305 2.39488 0
M  V30 5337 N 482.961 -6.74758 1.94026 0
M  V30 5338 H 487.801 -2.26768 1.9334 0
M  V30 5339 H 485.338 -1.11171 0.963297 0
M  V30 5340 H 487.296 -4.15899 0.329227 0
M  V30 5341 H 485.926 -3.21314 -0.309426 0
M  V30 5342 H 484.978 -3.16513 2.11006 0
M  V30 5343 H 486.29 -4.26797 2.58158 0
M  V30 5344 H 485.444 -5.98854 0.972546 0
M  V30 5345 H 484.183 -4.86061 0.399445 0
M  V30 5346 H 483.188 -4.78759 2.70315 0
M  V30 5347 H 484.413 -5.94988 3.27362 0
M  V30 5348 H 482.359 -6.46874 1.09041 0
M  V30 5349 H 482.276 -7.05386 2.71968 0
M  V30 5350 H 483.544 -7.61387 1.67062 0
M  V30 5351 N 487.773 -1.03688 -1.18687 0
M  V30 5352 C 489.019 -0.739123 -1.88851 0
M  V30 5353 C 489.352 0.731042 -1.79915 0
M  V30 5354 O 488.627 1.53313 -1.19688 0
M  V30 5355 C 488.91 -1.20106 -3.3948 0
M  V30 5356 C 488.763 -2.73304 -3.57246 0
M  V30 5357 C 490.082 -0.788134 -4.32986 0
M  V30 5358 H 487.201 -0.269978 -0.68577 0
M  V30 5359 H 489.843 -1.28822 -1.3966 0
M  V30 5360 H 487.993 -0.733915 -3.81505 0
M  V30 5361 H 489.665 -3.28027 -3.24339 0
M  V30 5362 H 487.908 -3.13313 -3.00029 0
M  V30 5363 H 488.579 -3.00684 -4.62918 0
M  V30 5364 H 491.055 -1.19005 -3.98719 0
M  V30 5365 H 489.931 -1.13915 -5.36949 0
M  V30 5366 H 490.192 0.308988 -4.41019 0
M  V30 5367 N 489.251 1.34841 -0.815825 0
M  V30 5368 C 490.5 1.97755 -0.396976 0
M  V30 5369 C 490.813 1.65422 1.04379 0
M  V30 5370 O 492.019 2.21771 1.5662 0
M  V30 5371 C 490.475 3.53818 -0.658869 0
M  V30 5372 C 490.083 3.95051 -2.11278 0
M  V30 5373 C 491.827 4.23397 -0.305834 0
M  V30 5374 C 489.734 5.43997 -2.31994 0
M  V30 5375 H 488.664 0.739985 -0.1447 0
M  V30 5376 H 491.315 1.53781 -1.00118 0
M  V30 5377 H 489.697 3.95997 0.0154112 0
M  V30 5378 H 490.871 3.63998 -2.82564 0
M  V30 5379 H 489.186 3.38388 -2.42657 0
M  V30 5380 H 491.783 5.32899 -0.43854 0
M  V30 5381 H 492.126 4.09508 0.748952 0
M  V30 5382 H 492.659 3.8667 -0.934403 0
M  V30 5383 H 489.398 5.62865 -3.35952 0
M  V30 5384 H 488.918 5.76589 -1.65244 0
M  V30 5385 H 490.597 6.10584 -2.14001 0
M  V30 5386 N 490.729 0.570148 1.46925 0
M  V30 5387 C 492.14 0.1402 1.86173 0
M  V30 5388 C 492.491 -1.29347 1.47526 0
M  V30 5389 O 491.616 -1.97508 0.884292 0
M  V30 5390 C 492.211 0.247661 3.37894 0
M  V30 5391 C 490.77 -0.127332 3.76185 0
M  V30 5392 C 489.917 0.589349 2.70965 0
M  V30 5393 H 492.868 0.779117 1.38259 0
M  V30 5394 H 492.889 -0.530341 3.76786 0
M  V30 5395 H 492.401 1.29121 3.65991 0
M  V30 5396 H 490.502 -1.17149 3.53704 0
M  V30 5397 H 490.615 0.240238 4.78497 0
M  V30 5398 H 488.979 0.0309824 2.54681 0
M  V30 5399 H 489.762 1.6343 3.01903 0
M  V30 5400 N 492.207 -1.54576 0.307264 0
M  V30 5401 C 493.155 -2.25208 -0.581723 0
M  V30 5402 C 494.149 -1.26031 -1.13192 0
M  V30 5403 O 495.355 -1.43862 -1.08184 0
M  V30 5404 H 491.73 -0.723173 -0.206214 0
M  V30 5405 H 493.701 -2.98378 0.0364663 0
M  V30 5406 C 492.45 -3.01086 -1.73904 0
M  V30 5407 H 491.773 -3.77208 -1.32491 0
M  V30 5408 H 493.213 -3.5378 -2.33701 0
M  V30 5409 C 491.672 -2.08422 -2.64692 0
M  V30 5410 O 492.202 -1.65636 -3.65961 0
M  V30 5411 N 490.408 -1.74247 -2.32564 0
M  V30 5412 H 489.955 -2.09238 -1.50257 0
M  V30 5413 H 489.913 -1.12524 -2.93574 0
M  V30 5414 N 493.685 -0.035106 -1.57561 0
M  V30 5415 C 495.096 0.502885 -1.798 0
M  V30 5416 C 495.447 1.71892 -0.945921 0
M  V30 5417 O 494.572 2.15822 -0.157991 0
M  V30 5418 C 495.167 0.919097 -3.26095 0
M  V30 5419 C 493.726 1.40216 -3.49308 0
M  V30 5420 C 492.873 0.369709 -2.74824 0
M  V30 5421 H 495.824 -0.261102 -1.56537 0
M  V30 5422 H 495.845 1.78308 -3.36135 0
M  V30 5423 H 495.357 0.0338526 -3.88085 0
M  V30 5424 H 493.458 2.30714 -2.92578 0
M  V30 5425 H 493.571 1.40541 -4.58023 0
M  V30 5426 H 491.935 0.839113 -2.40481 0
M  V30 5427 H 492.718 -0.507173 -3.39533 0
M  V30 5428 N 495.163 1.55791 0.238111 0
M  V30 5429 C 496.574 1.68383 0.806472 0
M  V30 5430 C 496.925 0.634157 1.85669 0
M  V30 5431 O 496.05 -0.217913 2.153 0
M  V30 5432 C 496.645 3.05268 1.46959 0
M  V30 5433 C 495.204 3.1977 1.98555 0
M  V30 5434 C 494.351 2.64279 0.839763 0
M  V30 5435 H 497.302 1.58694 0.0137535 0
M  V30 5436 H 497.323 3.00203 2.33792 0
M  V30 5437 H 496.835 3.81643 0.704993 0
M  V30 5438 H 494.936 2.48234 2.77868 0
M  V30 5439 H 495.049 4.26788 2.17689 0
M  V30 5440 H 493.413 2.22329 1.24265 0
M  V30 5441 H 494.196 3.43187 0.0881032 0
M  V30 5442 N 496.642 -0.504142 1.49319 0
M  V30 5443 C 498.053 -1.08572 1.51885 0
M  V30 5444 C 498.404 -1.93842 0.303255 0
M  V30 5445 O 497.529 -2.0828 -0.58724 0
M  V30 5446 C 498.124 -1.97574 2.75227 0
M  V30 5447 C 496.683 -2.509 2.80581 0
M  V30 5448 C 495.83 -1.28447 2.45757 0
M  V30 5449 H 498.781 -0.288194 1.56061 0
M  V30 5450 H 498.802 -2.82219 2.55211 0
M  V30 5451 H 498.314 -1.35486 3.63683 0
M  V30 5452 H 496.415 -3.16636 1.96398 0
M  V30 5453 H 496.528 -2.88268 3.82673 0
M  V30 5454 H 494.892 -1.60868 1.97468 0
M  V30 5455 H 495.675 -0.68072 3.36483 0
M  V30 5456 N 498.12 -1.38341 -0.754957 0
M  V30 5457 C 499.397 -1.24995 -1.50451 0
M  V30 5458 C 499.777 0.149244 -2.10572 0
M  V30 5459 O 499.125 1.15861 -1.96948 0
M  V30 5460 C 499.335 -2.35904 -2.57197 0
M  V30 5461 C 500.683 -2.74262 -3.24138 0
M  V30 5462 O 501.707 -2.35205 -2.67501 0
M  V30 5463 O 500.566 -3.4161 -4.26574 0
M  V30 5464 H 497.66 -0.48872 -0.667144 0
M  V30 5465 H 500.206 -1.50165 -0.790486 0
M  V30 5466 H 498.978 -3.2953 -2.11011 0
M  V30 5467 H 498.601 -2.12291 -3.36182 0
M  V30 5468 N 499.598 0.982988 -1.23187 0
M  V30 5469 C 500.548 2.05962 -0.977942 0
M  V30 5470 C 501.532 1.60725 0.0751148 0
M  V30 5471 O 502.724 1.76471 -0.136683 0
M  V30 5472 C 499.853 3.38564 -0.568276 0
M  V30 5473 C 498.939 3.90407 -1.6566 0
M  V30 5474 N 499.33 4.15359 -2.88635 0
M  V30 5475 C 497.628 4.18915 -1.53058 0
M  V30 5476 C 498.329 4.57642 -3.5908 0
M  V30 5477 N 497.305 4.6192 -2.86584 0
M  V30 5478 H 501.107 2.23208 -1.91195 0
M  V30 5479 H 498.621 1.16555 -1.13087 0
M  V30 5480 H 500.618 4.15276 -0.36764 0
M  V30 5481 H 499.278 3.22712 0.358713 0
M  V30 5482 H 500.289 4.03258 -3.24966 0
M  V30 5483 H 496.966 4.12081 -0.670506 0
M  V30 5484 H 498.356 4.85488 -4.6449 0
M  V30 5485 N 501.076 1.04316 1.18135 0
M  V30 5486 C 502.322 0.758899 1.88712 0
M  V30 5487 C 502.677 -0.705863 1.78984 0
M  V30 5488 O 501.97 -1.50874 1.18101 0
M  V30 5489 C 502.164 1.16271 3.37958 0
M  V30 5490 C 501.993 2.66518 3.62213 0
M  V30 5491 C 500.763 3.33702 3.79436 0
M  V30 5492 C 502.961 3.64739 3.62588 0
M  V30 5493 N 500.943 4.72904 3.91452 0
M  V30 5494 C 502.314 4.89627 3.80348 0
M  V30 5495 C 504.369 3.58333 3.4569 0
M  V30 5496 C 503.072 6.08879 3.8296 0
M  V30 5497 C 505.098 4.77016 3.49586 0
M  V30 5498 C 504.46 6.00724 3.67845 0
M  V30 5499 H 500.559 0.329795 0.709055 0
M  V30 5500 H 503.143 1.33334 1.4188 0
M  V30 5501 H 501.314 0.616319 3.83479 0
M  V30 5502 H 503.046 0.829205 3.96114 0
M  V30 5503 H 499.801 2.84105 3.78921 0
M  V30 5504 H 500.225 5.45258 4.01277 0
M  V30 5505 H 504.867 2.63663 3.30517 0
M  V30 5506 H 502.585 7.03903 3.96921 0
M  V30 5507 H 506.171 4.73703 3.37782 0
M  V30 5508 H 505.051 6.91022 3.70753 0
M  V30 5509 N 502.554 -1.34406 0.822964 0
M  V30 5510 C 503.517 -2.2783 0.250271 0
M  V30 5511 C 504.517 -1.50288 -0.571854 0
M  V30 5512 O 505.707 -1.69825 -0.387952 0
M  V30 5513 C 502.839 -3.34663 -0.649137 0
M  V30 5514 H 504.032 -2.79992 1.07444 0
M  V30 5515 H 501.585 -1.44539 0.594829 0
M  V30 5516 H 502.32 -2.87714 -1.49637 0
M  V30 5517 H 502.105 -3.92052 -0.0611199 0
M  V30 5518 H 503.595 -4.04349 -1.04363 0
M  V30 5519 N 504.032 -0.577932 -1.46621 0
M  V30 5520 C 504.962 0.145917 -2.33044 0
M  V30 5521 C 505.943 0.888412 -1.45056 0
M  V30 5522 O 507.128 0.864812 -1.73881 0
M  V30 5523 C 504.258 1.16322 -3.27241 0
M  V30 5524 C 503.212 0.535868 -4.24632 0
M  V30 5525 C 502.538 1.65929 -5.08303 0
M  V30 5526 C 503.838 -0.523861 -5.19666 0
M  V30 5527 H 505.532 -0.575636 -2.93814 0
M  V30 5528 H 503.078 -0.278272 -1.41286 0
M  V30 5529 H 505.031 1.67793 -3.86553 0
M  V30 5530 H 503.755 1.91498 -2.64567 0
M  V30 5531 H 502.414 0.0422759 -3.66576 0
M  V30 5532 H 502.062 2.40061 -4.42018 0
M  V30 5533 H 501.762 1.2452 -5.74255 0
M  V30 5534 H 503.286 2.17686 -5.70478 0
M  V30 5535 H 504.7 -0.0944059 -5.73222 0
M  V30 5536 H 503.097 -0.858 -5.93935 0
M  V30 5537 H 504.167 -1.41197 -4.63887 0
M  V30 5538 N 505.51 1.54411 -0.315457 0
M  V30 5539 C 506.756 2.00716 0.289972 0
M  V30 5540 C 507.089 1.2034 1.5242 0
M  V30 5541 O 506.364 0.283579 1.92422 0
M  V30 5542 C 506.647 3.54507 0.632196 0
M  V30 5543 C 506.5 4.45615 -0.61218 0
M  V30 5544 C 507.819 4.15421 1.45305 0
M  V30 5545 H 504.938 0.729637 0.10392 0
M  V30 5546 H 507.58 1.8506 -0.430427 0
M  V30 5547 H 505.73 3.67979 1.24595 0
M  V30 5548 H 507.402 4.44026 -1.25053 0
M  V30 5549 H 505.645 4.15621 -1.24264 0
M  V30 5550 H 506.316 5.51022 -0.328379 0
M  V30 5551 H 508.792 4.05474 0.934331 0
M  V30 5552 H 507.668 5.23157 1.66127 0
M  V30 5553 H 507.929 3.68223 2.44671 0
M  V30 5554 N 506.988 0.0434614 1.5754 0
M  V30 5555 C 508.213 -0.645358 1.97104 0
M  V30 5556 C 508.638 -1.64037 0.920521 0
M  V30 5557 O 507.996 -1.80922 -0.11708 0
M  V30 5558 C 508.044 -1.31547 3.35749 0
M  V30 5559 O 507.148 -2.43103 3.33129 0
M  V30 5560 H 506.489 -0.168403 0.64229 0
M  V30 5561 H 509.019 0.109573 2.04306 0
M  V30 5562 H 509.029 -1.66895 3.72304 0
M  V30 5563 H 507.704 -0.586205 4.11748 0
M  V30 5564 H 506.281 -2.0976 3.0831 0
M  V30 5565 N 508.466 -1.55915 -0.229846 0
M  V30 5566 C 509.714 -1.7819 -0.953565 0
M  V30 5567 C 510.035 -0.610504 -1.85197 0
M  V30 5568 O 509.305 0.372988 -1.92316 0
M  V30 5569 H 507.885 -0.657208 -0.355087 0
M  V30 5570 H 510.547 -1.9337 -0.243693 0
M  V30 5571 H 509.643 -2.70011 -1.56527 0
M  V30 5572 N 509.944 0.496216 -1.49584 0
M  V30 5573 C 510.874 1.60576 -1.69521 0
M  V30 5574 C 511.855 1.61169 -0.543933 0
M  V30 5575 O 513.04 1.77834 -0.78031 0
M  V30 5576 C 510.17 2.99038 -1.76616 0
M  V30 5577 C 509.124 3.13312 -2.91581 0
M  V30 5578 C 508.45 4.53172 -2.83794 0
M  V30 5579 C 509.75 2.92886 -4.32452 0
M  V30 5580 H 511.444 1.44146 -2.62416 0
M  V30 5581 H 508.99 0.692024 -1.26282 0
M  V30 5582 H 510.943 3.76564 -1.8915 0
M  V30 5583 H 509.667 3.16568 -0.80324 0
M  V30 5584 H 508.326 2.38213 -2.78658 0
M  V30 5585 H 507.974 4.67585 -1.854 0
M  V30 5586 H 507.674 4.63662 -3.60958 0
M  V30 5587 H 509.198 5.32752 -2.98342 0
M  V30 5588 H 510.612 3.60178 -4.46032 0
M  V30 5589 H 509.009 3.14844 -5.10875 0
M  V30 5590 H 510.079 1.88966 -4.46565 0
M  V30 5591 N 511.423 1.38739 0.74761 0
M  V30 5592 C 512.834 1.31507 1.32524 0
M  V30 5593 C 513.185 -0.0263963 1.96182 0
M  V30 5594 O 512.31 -0.92849 1.95469 0
M  V30 5595 C 512.905 2.38162 2.40966 0
M  V30 5596 C 511.464 2.34489 2.94434 0
M  V30 5597 C 510.611 2.20712 1.67873 0
M  V30 5598 H 513.562 1.4901 0.546043 0
M  V30 5599 H 513.583 2.04222 3.21051 0
M  V30 5600 H 513.095 3.35783 1.94605 0
M  V30 5601 H 511.196 1.40467 3.45108 0
M  V30 5602 H 511.309 3.28861 3.48407 0
M  V30 5603 H 509.673 1.67667 1.91729 0
M  V30 5604 H 510.456 3.20285 1.23582 0
M  V30 5605 N 512.901 -0.976442 1.23707 0
M  V30 5606 C 513.864 -2.0511 1.02287 0
M  V30 5607 C 514.864 -1.60791 -0.0167195 0
M  V30 5608 O 516.054 -1.72761 0.223408 0
M  V30 5609 C 513.186 -3.36458 0.548507 0
M  V30 5610 H 514.379 -2.25545 1.9766 0
M  V30 5611 H 511.932 -1.15042 1.05806 0
M  V30 5612 H 512.667 -3.21713 -0.408818 0
M  V30 5613 H 512.452 -3.69967 1.29874 0
M  V30 5614 H 513.942 -4.15489 0.419406 0
M  V30 5615 N 514.379 -1.04941 -1.1758 0
M  V30 5616 C 515.609 -0.777166 -1.91425 0
M  V30 5617 C 516.017 0.670647 -1.76915 0
M  V30 5618 O 515.36 1.46965 -1.10213 0
M  V30 5619 C 515.422 -1.07495 -3.43052 0
M  V30 5620 C 515.086 -2.51844 -3.81345 0
M  V30 5621 C 516.083 -3.50047 -3.844 0
M  V30 5622 C 513.768 -2.86787 -4.12382 0
M  V30 5623 C 515.762 -4.81239 -4.17957 0
M  V30 5624 C 513.449 -4.18182 -4.45608 0
M  V30 5625 C 514.447 -5.15219 -4.48373 0
M  V30 5626 O 514.135 -6.44258 -4.80819 0
M  V30 5627 H 513.867 -0.282209 -0.614275 0
M  V30 5628 H 516.421 -1.40258 -1.50056 0
M  V30 5629 H 514.651 -0.392437 -3.84704 0
M  V30 5630 H 516.34 -0.78912 -3.98155 0
M  V30 5631 H 517.106 -3.24391 -3.60548 0
M  V30 5632 H 512.985 -2.11922 -4.09402 0
M  V30 5633 H 516.529 -5.56974 -4.2003 0
M  V30 5634 H 512.426 -4.43602 -4.68922 0
M  V30 5635 H 513.194 -6.49041 -4.98686 0
M  V30 5636 N 515.857 1.33968 -0.830081 0
M  V30 5637 C 517.103 1.98357 -0.422191 0
M  V30 5638 C 517.436 1.65633 1.01387 0
M  V30 5639 O 516.711 0.931648 1.70735 0
M  V30 5640 C 516.994 3.54492 -0.633043 0
M  V30 5641 C 516.847 3.96934 -2.11574 0
M  V30 5642 C 518.166 4.40039 -0.0735584 0
M  V30 5643 H 515.285 0.720544 -0.154871 0
M  V30 5644 H 517.927 1.58749 -1.04397 0
M  V30 5645 H 516.077 3.88361 -0.103775 0
M  V30 5646 H 517.749 3.73363 -2.7092 0
M  V30 5647 H 515.992 3.46984 -2.60354 0
M  V30 5648 H 516.663 5.05651 -2.21406 0
M  V30 5649 H 519.139 4.12764 -0.52585 0
M  V30 5650 H 518.015 5.48327 -0.250841 0
M  V30 5651 H 518.276 4.30124 1.02202 0
M  V30 5652 N 517.335 0.585699 1.46312 0
M  V30 5653 C 518.298 -0.135673 2.28798 0
M  V30 5654 C 519.298 -0.815988 1.38558 0
M  V30 5655 O 520.488 -0.667487 1.60904 0
M  V30 5656 C 517.62 -1.20163 3.1902 0
M  V30 5657 H 518.813 0.589257 2.94054 0
M  V30 5658 H 516.366 0.343794 1.52472 0
M  V30 5659 H 517.101 -1.95804 2.58517 0
M  V30 5660 H 516.886 -0.718282 3.85465 0
M  V30 5661 H 518.376 -1.70749 3.81096 0
M  V30 5662 N 518.813 -1.54241 0.323641 0
M  V30 5663 C 519.745 -2.21836 -0.576311 0
M  V30 5664 C 520.758 -1.21837 -1.07979 0
M  V30 5665 O 521.947 -1.48306 -0.99336 0
M  V30 5666 C 519.047 -2.86923 -1.80356 0
M  V30 5667 C 518.22 -4.1306 -1.43875 0
M  V30 5668 C 517.279 -4.6174 -2.52353 0
M  V30 5669 O 516.305 -5.26421 -2.16494 0
M  V30 5670 N 517.507 -4.35974 -3.83284 0
M  V30 5671 H 520.272 -2.997 0.00247987 0
M  V30 5672 H 517.833 -1.61233 0.146848 0
M  V30 5673 H 519.825 -3.16414 -2.52318 0
M  V30 5674 H 518.395 -2.12765 -2.29019 0
M  V30 5675 H 517.615 -3.90334 -0.550752 0
M  V30 5676 H 518.903 -4.95148 -1.17071 0
M  V30 5677 H 518.301 -3.84203 -4.15216 0
M  V30 5678 H 516.858 -4.70119 -4.51477 0
M  V30 5679 N 520.291 -0.0518155 -1.57515 0
M  V30 5680 C 521.239 0.940195 -2.12751 0
M  V30 5681 C 522.233 1.3218 -1.05948 0
M  V30 5682 O 523.439 1.30138 -1.24355 0
M  V30 5683 H 519.814 0.321066 -0.680015 0
M  V30 5684 H 521.785 0.449217 -2.94999 0
M  V30 5685 C 520.534 2.2055 -2.68799 0
M  V30 5686 H 519.857 1.92066 -3.50643 0
M  V30 5687 H 521.297 2.88119 -3.11068 0
M  V30 5688 C 519.756 2.95061 -1.62605 0
M  V30 5689 O 520.286 3.88025 -1.03921 0
M  V30 5690 N 518.492 2.57804 -1.34111 0
M  V30 5691 H 518.039 1.82281 -1.8202 0
M  V30 5692 H 517.997 3.07964 -0.632872 0
M  V30 5693 N 521.769 1.56035 0.221574 0
M  V30 5694 C 523.017 1.78693 0.944102 0
M  V30 5695 C 523.338 0.620317 1.8487 0
M  V30 5696 O 522.608 -0.362784 1.92512 0
M  V30 5697 H 521.188 0.659082 0.351597 0
M  V30 5698 H 523.85 1.93497 0.233435 0
M  V30 5699 H 522.946 2.70837 1.55093 0
M  V30 5700 N 523.247 -0.488276 1.49845 0
M  V30 5701 C 524.177 -1.59675 1.70371 0
M  V30 5702 C 525.158 -1.60878 0.552473 0
M  V30 5703 O 526.343 -1.77417 0.78973 0
M  V30 5704 C 523.473 -2.98098 1.782 0
M  V30 5705 C 522.427 -3.11761 2.93239 0
M  V30 5706 C 521.753 -4.51661 2.86193 0
M  V30 5707 C 523.053 -2.90589 4.33999 0
M  V30 5708 H 524.747 -1.42752 2.63177 0
M  V30 5709 H 522.293 -0.685317 1.26647 0
M  V30 5710 H 524.246 -3.75555 1.91144 0
M  V30 5711 H 522.97 -3.16138 0.820018 0
M  V30 5712 H 521.629 -2.36732 2.79917 0
M  V30 5713 H 521.277 -4.66595 1.87877 0
M  V30 5714 H 520.977 -4.61742 3.63412 0
M  V30 5715 H 522.501 -5.31162 3.01163 0
M  V30 5716 H 523.915 -3.57807 4.47936 0
M  V30 5717 H 522.312 -3.1213 5.12538 0
M  V30 5718 H 523.382 -1.86595 4.4756 0
M  V30 5719 N 524.725 -1.39134 -0.740242 0
M  V30 5720 C 525.974 -1.35384 -1.49512 0
M  V30 5721 C 526.287 0.04919 -1.95538 0
M  V30 5722 O 527.493 0.209257 -2.70692 0
M  V30 5723 C 525.949 -2.37812 -2.70136 0
M  V30 5724 C 525.557 -3.83804 -2.31081 0
M  V30 5725 C 527.301 -2.4313 -3.47977 0
M  V30 5726 C 525.208 -4.77886 -3.48395 0
M  V30 5727 H 524.138 -0.503297 -0.561434 0
M  V30 5728 H 526.789 -1.64754 -0.807974 0
M  V30 5729 H 525.171 -2.01505 -3.40899 0
M  V30 5730 H 526.345 -4.29123 -1.67898 0
M  V30 5731 H 524.66 -3.81732 -1.66343 0
M  V30 5732 H 527.257 -3.10614 -4.35228 0
M  V30 5733 H 527.6 -1.45423 -3.90074 0
M  V30 5734 H 528.133 -2.78304 -2.84239 0
M  V30 5735 H 524.872 -5.76836 -3.11353 0
M  V30 5736 H 524.392 -4.3725 -4.10576 0
M  V30 5737 H 526.071 -4.96538 -4.148 0
M  V30 5738 N 526.204 0.969867 -1.24223 0
M  V30 5739 C 527.444 1.72754 -1.0925 0
M  V30 5740 C 527.808 1.88541 0.362787 0
M  V30 5741 O 529.009 2.61217 0.633969 0
M  V30 5742 C 527.28 3.08204 -1.80957 0
M  V30 5743 S 528.839 3.99418 -1.81688 0
M  V30 5744 H 525.657 0.593981 -0.390778 0
M  V30 5745 H 528.259 1.15792 -1.5752 0
M  V30 5746 H 526.963 2.94372 -2.85961 0
M  V30 5747 H 526.494 3.70232 -1.33012 0
M  V30 5748 H 528.509 4.8828 -0.883001 0
M  V30 5749 N 527.682 1.05563 1.17022 0
M  V30 5750 C 528.63 0.653887 2.2322 0
M  V30 5751 C 529.624 -0.326642 1.66221 0
M  V30 5752 O 530.83 -0.192301 1.7897 0
M  V30 5753 H 527.205 0.193297 0.726733 0
M  V30 5754 H 529.176 1.5596 2.54399 0
M  V30 5755 C 527.925 0.0485434 3.47666 0
M  V30 5756 H 527.248 0.79413 3.91834 0
M  V30 5757 H 528.688 -0.195133 4.23551 0
M  V30 5758 C 527.147 -1.20583 3.14581 0
M  V30 5759 O 527.677 -2.29475 3.29703 0
M  V30 5760 N 525.883 -1.10493 2.68774 0
M  V30 5761 H 525.43 -0.218795 2.56669 0
M  V30 5762 H 525.388 -1.94507 2.47011 0
M  V30 5763 N 529.16 -1.33526 0.837174 0
M  V30 5764 C 530.409 -1.97098 0.428387 0
M  V30 5765 C 530.722 -1.67062 -1.01734 0
M  V30 5766 O 531.928 -2.24235 -1.53072 0
M  V30 5767 C 530.384 -3.52725 0.715075 0
M  V30 5768 C 529.992 -3.9164 2.17537 0
M  V30 5769 C 531.736 -4.22857 0.373154 0
M  V30 5770 C 529.643 -5.40237 2.40619 0
M  V30 5771 H 528.573 -0.737589 0.156455 0
M  V30 5772 H 531.224 -1.52169 1.02552 0
M  V30 5773 H 529.606 -3.95971 0.0475904 0
M  V30 5774 H 530.78 -3.59456 2.88319 0
M  V30 5775 H 529.095 -3.34485 2.4801 0
M  V30 5776 H 531.692 -5.32133 0.523264 0
M  V30 5777 H 532.035 -4.10647 -0.683708 0
M  V30 5778 H 532.568 -3.85135 0.995801 0
M  V30 5779 H 529.307 -5.57449 3.44864 0
M  V30 5780 H 528.827 -5.73887 1.74396 0
M  V30 5781 H 530.506 -6.07102 2.23688 0
M  V30 5782 N 530.638 -0.59345 -1.46 0
M  V30 5783 C 531.571 0.182196 -2.27472 0
M  V30 5784 C 532.549 0.886901 -1.36282 0
M  V30 5785 O 533.733 0.898627 -1.65701 0
M  V30 5786 C 530.86 1.26236 -3.14296 0
M  V30 5787 C 529.906 0.662331 -4.21326 0
M  V30 5788 S 530.739 -0.519017 -5.32979 0
M  V30 5789 C 531.895 0.562086 -6.23371 0
M  V30 5790 H 532.128 -0.509056 -2.92909 0
M  V30 5791 H 529.661 -0.380607 -1.49635 0
M  V30 5792 H 531.619 1.88075 -3.64881 0
M  V30 5793 H 530.28 1.92562 -2.48151 0
M  V30 5794 H 529.473 1.47461 -4.81945 0
M  V30 5795 H 529.075 0.119381 -3.73809 0
M  V30 5796 H 531.367 1.44494 -6.61912 0
M  V30 5797 H 532.31 -0.00760776 -7.081 0
M  V30 5798 H 532.718 0.871061 -5.57739 0
M  V30 5799 N 532.116 1.54067 -0.331816 0
M  V30 5800 C 533.064 2.26105 0.54582 0
M  V30 5801 C 534.058 1.27816 1.11173 0
M  V30 5802 O 535.264 1.45565 1.05882 0
M  V30 5803 H 531.639 0.726363 0.194683 0
M  V30 5804 H 533.61 2.98282 -0.083931 0
M  V30 5805 C 532.359 3.03814 1.69092 0
M  V30 5806 H 531.682 3.79269 1.26473 0
M  V30 5807 H 533.122 3.57453 2.28043 0
M  V30 5808 C 531.581 2.12606 2.61343 0
M  V30 5809 O 532.111 1.71437 3.6328 0
M  V30 5810 N 530.317 1.77925 2.29763 0
M  V30 5811 H 529.864 2.11602 1.46909 0
M  V30 5812 H 529.822 1.1718 2.91747 0
M  V30 5813 N 533.594 0.0601682 1.57485 0
M  V30 5814 C 534.557 -0.896373 2.10945 0
M  V30 5815 C 535.557 -1.23402 1.03095 0
M  V30 5816 O 536.747 -1.16921 1.29132 0
M  V30 5817 C 533.879 -2.20346 2.60116 0
M  V30 5818 H 535.072 -0.432778 2.96761 0
M  V30 5819 H 532.625 -0.188372 1.55161 0
M  V30 5820 H 533.36 -2.71268 1.7772 0
M  V30 5821 H 533.145 -1.9714 3.38937 0
M  V30 5822 H 534.635 -2.88846 3.01592 0
M  V30 5823 N 535.072 -1.5615 -0.213296 0
M  V30 5824 C 536.483 -1.69645 -0.779582 0
M  V30 5825 C 536.834 -0.663615 -1.84636 0
M  V30 5826 O 535.959 0.183633 -2.15619 0
M  V30 5827 C 536.554 -3.07567 -1.42084 0
M  V30 5828 C 535.113 -3.22889 -1.93442 0
M  V30 5829 C 534.26 -2.65581 -0.797612 0
M  V30 5830 H 537.211 -1.58696 0.0114951 0
M  V30 5831 H 537.232 -3.03884 -2.28986 0
M  V30 5832 H 536.744 -3.82716 -0.644187 0
M  V30 5833 H 534.845 -2.52623 -2.73884 0
M  V30 5834 H 534.958 -4.30197 -2.10872 0
M  V30 5835 H 533.322 -2.24278 -1.20712 0
M  V30 5836 H 534.105 -3.43284 -0.033494 0
M  V30 5837 N 536.55 0.480323 -1.50102 0
M  V30 5838 C 537.513 1.56181 -1.6775 0
M  V30 5839 C 538.513 1.51156 -0.548503 0
M  V30 5840 O 539.703 1.5394 -0.815363 0
M  V30 5841 C 536.835 2.95823 -1.69415 0
M  V30 5842 H 538.028 1.41855 -2.6423 0
M  V30 5843 H 535.581 0.70605 -1.39444 0
M  V30 5844 H 536.316 3.15604 -0.745948 0
M  V30 5845 H 536.101 3.00878 -2.51425 0
M  V30 5846 H 537.591 3.74359 -1.85054 0
M  V30 5847 N 538.028 1.39524 0.732853 0
M  V30 5848 C 538.938 1.40695 1.87729 0
M  V30 5849 C 539.954 0.301496 1.71368 0
M  V30 5850 O 541.13 0.543313 1.93933 0
M  V30 5851 C 538.195 1.25098 3.23344 0
M  V30 5852 C 537.256 2.45634 3.52083 0
M  V30 5853 C 536.489 2.30772 4.81228 0
M  V30 5854 O 536.712 1.31233 5.55098 0
M  V30 5855 O 535.646 3.19799 5.09914 0
M  V30 5856 H 539.472 2.37168 1.89697 0
M  V30 5857 H 537.057 1.20663 0.880959 0
M  V30 5858 H 538.939 1.18541 4.04383 0
M  V30 5859 H 537.614 0.317209 3.22142 0
M  V30 5860 H 536.521 2.57767 2.71122 0
M  V30 5861 H 537.854 3.37712 3.58066 0
M  V30 5862 N 539.506 -0.963266 1.24736 0
M  V30 5863 C 540.783 -1.68248 0.9976 0
M  V30 5864 C 541.163 -2.05599 -0.478776 0
M  V30 5865 O 540.511 -1.7626 -1.45412 0
M  V30 5866 C 540.721 -2.91118 1.92487 0
M  V30 5867 C 542.069 -3.63261 2.19833 0
M  V30 5868 O 543.093 -3.01184 1.90176 0
M  V30 5869 O 541.952 -4.75019 2.7022 0
M  V30 5870 H 539.046 -0.735744 0.377637 0
M  V30 5871 H 541.592 -1.01696 1.35853 0
M  V30 5872 H 540.364 -2.60242 2.92215 0
M  V30 5873 H 539.987 -3.65402 1.56738 0
M  V30 5874 N 540.985 -1.06182 -1.16461 0
M  V30 5875 C 542.232 -0.777863 -1.86964 0
M  V30 5876 C 542.56 0.695602 -1.81636 0
M  V30 5877 O 541.815 1.52532 -1.22607 0
M  V30 5878 C 542.114 -1.21633 -3.36066 0
M  V30 5879 C 541.78 -2.69371 -3.61594 0
M  V30 5880 C 540.442 -3.09727 -3.6827 0
M  V30 5881 C 542.794 -3.64791 -3.7226 0
M  V30 5882 C 540.122 -4.44345 -3.83112 0
M  V30 5883 C 542.474 -4.99155 -3.88623 0
M  V30 5884 C 541.138 -5.39149 -3.93541 0
M  V30 5885 H 540.408 -0.28464 -0.68415 0
M  V30 5886 H 543.055 -1.33071 -1.37711 0
M  V30 5887 H 541.36 -0.582651 -3.87443 0
M  V30 5888 H 543.057 -0.973682 -3.88999 0
M  V30 5889 H 539.647 -2.37124 -3.57029 0
M  V30 5890 H 543.831 -3.34746 -3.66413 0
M  V30 5891 H 539.087 -4.74819 -3.85172 0
M  V30 5892 H 543.261 -5.72976 -3.95817 0
M  V30 5893 H 540.888 -6.43464 -4.04794 0
M  V30 5894 N 542.463 1.3308 -0.844243 0
M  V30 5895 C 543.71 1.97605 -0.44255 0
M  V30 5896 C 544.038 1.66856 0.999458 0
M  V30 5897 O 543.293 0.943586 1.7145 0
M  V30 5898 C 543.592 3.52045 -0.616354 0
M  V30 5899 C 543.258 4.02757 -2.02726 0
M  V30 5900 C 541.92 4.16316 -2.41317 0
M  V30 5901 C 544.272 4.29776 -2.9486 0
M  V30 5902 C 541.6 4.54232 -3.71335 0
M  V30 5903 C 543.952 4.69146 -4.24364 0
M  V30 5904 C 542.616 4.80911 -4.62904 0
M  V30 5905 H 541.886 0.723088 -0.161941 0
M  V30 5906 H 544.533 1.58663 -1.0723 0
M  V30 5907 H 542.838 3.91681 0.0966812 0
M  V30 5908 H 544.535 3.99981 -0.285756 0
M  V30 5909 H 541.125 3.9268 -1.71756 0
M  V30 5910 H 545.309 4.18818 -2.6628 0
M  V30 5911 H 540.565 4.61535 -4.00993 0
M  V30 5912 H 544.739 4.89008 -4.95827 0
M  V30 5913 H 542.366 5.10048 -5.63698 0
M  V30 5914 N 543.941 0.601185 1.45683 0
M  V30 5915 C 544.904 -0.111398 2.28929 0
M  V30 5916 C 545.904 -0.801246 1.39416 0
M  V30 5917 O 547.094 -0.650383 1.61603 0
M  V30 5918 C 544.226 -1.16773 3.20276 0
M  V30 5919 H 545.419 0.620412 2.93413 0
M  V30 5920 H 542.972 0.359946 1.52099 0
M  V30 5921 H 543.707 -1.93051 2.60579 0
M  V30 5922 H 543.492 -0.677358 3.86205 0
M  V30 5923 H 544.982 -1.66698 3.82886 0
M  V30 5924 N 545.419 -1.53889 0.339982 0
M  V30 5925 C 546.666 -2.00855 -0.257621 0
M  V30 5926 C 546.994 -1.22788 -1.50842 0
M  V30 5927 O 546.249 -0.302567 -1.93347 0
M  V30 5928 C 546.548 -3.51968 -0.620735 0
M  V30 5929 C 546.214 -4.47741 0.532771 0
M  V30 5930 C 544.876 -4.73645 0.849339 0
M  V30 5931 C 547.228 -5.04551 1.3068 0
M  V30 5932 C 544.556 -5.53614 1.94237 0
M  V30 5933 C 546.908 -5.85713 2.39005 0
M  V30 5934 C 545.572 -6.09912 2.71225 0
M  V30 5935 H 544.842 -0.734979 -0.0942703 0
M  V30 5936 H 547.489 -1.85714 0.467159 0
M  V30 5937 H 545.794 -3.64921 -1.42618 0
M  V30 5938 H 547.491 -3.85762 -1.09495 0
M  V30 5939 H 544.081 -4.27711 0.275973 0
M  V30 5940 H 548.265 -4.84507 1.07549 0
M  V30 5941 H 543.521 -5.7059 2.19628 0
M  V30 5942 H 547.695 -6.28748 2.99415 0
M  V30 5943 H 545.322 -6.71665 3.56047 0
M  V30 5944 N 546.897 -0.0685191 -1.57451 0
M  V30 5945 C 547.829 0.929372 -2.09512 0
M  V30 5946 C 548.842 1.26354 -1.02657 0
M  V30 5947 O 550.031 1.2213 -1.30179 0
M  V30 5948 C 547.131 2.24612 -2.53777 0
M  V30 5949 C 546.304 2.09128 -3.84167 0
M  V30 5950 C 545.363 3.24079 -4.14559 0
M  V30 5951 O 544.389 2.99215 -4.8421 0
M  V30 5952 N 545.591 4.49077 -3.67845 0
M  V30 5953 H 548.356 0.484901 -2.95751 0
M  V30 5954 H 545.917 0.11729 -1.61475 0
M  V30 5955 H 547.909 3.00412 -2.71172 0
M  V30 5956 H 546.479 2.60569 -1.72692 0
M  V30 5957 H 545.699 1.17815 -3.76182 0
M  V30 5958 H 546.987 1.9603 -4.69521 0
M  V30 5959 H 546.385 4.72165 -3.11571 0
M  V30 5960 H 544.942 5.21915 -3.90446 0
M  V30 5961 N 548.375 1.56261 0.205012 0
M  V30 5962 C 549.322 1.93754 1.25411 0
M  V30 5963 C 550.292 0.796826 1.45739 0
M  V30 5964 O 551.477 1.05414 1.59036 0
M  V30 5965 C 548.617 2.27383 2.59598 0
M  V30 5966 C 547.73 3.5447 2.46931 0
M  V30 5967 C 546.865 3.77468 3.73753 0
M  V30 5968 C 545.904 4.98014 3.55877 0
M  V30 5969 N 545.041 5.17316 4.74688 0
M  V30 5970 H 549.881 2.83203 0.92737 0
M  V30 5971 H 547.418 1.40158 0.446574 0
M  V30 5972 H 549.376 2.44895 3.37761 0
M  V30 5973 H 548.006 1.41088 2.90335 0
M  V30 5974 H 547.058 3.45061 1.60116 0
M  V30 5975 H 548.37 4.42789 2.29651 0
M  V30 5976 H 547.524 3.95165 4.60358 0
M  V30 5977 H 546.263 2.87461 3.93976 0
M  V30 5978 H 545.268 4.80249 2.67657 0
M  V30 5979 H 546.493 5.8952 3.37109 0
M  V30 5980 H 544.439 4.30255 4.95194 0
M  V30 5981 H 544.356 5.99796 4.60197 0
M  V30 5982 H 545.624 5.39463 5.62672 0
M  V30 5983 N 549.853 -0.472356 1.50355 0
M  V30 5984 C 550.763 -1.59637 1.7191 0
M  V30 5985 C 551.779 -1.63247 0.602195 0
M  V30 5986 O 552.955 -1.81139 0.880369 0
M  V30 5987 C 550.02 -2.9586 1.80742 0
M  V30 5988 C 549.081 -3.02649 3.04471 0
M  V30 5989 C 548.314 -4.32374 3.12872 0
M  V30 5990 O 548.537 -5.22807 2.28099 0
M  V30 5991 O 547.471 -4.44728 4.05587 0
M  V30 5992 H 551.297 -1.44373 2.67189 0
M  V30 5993 H 548.882 -0.651717 1.34436 0
M  V30 5994 H 550.764 -3.7677 1.88739 0
M  V30 5995 H 549.439 -3.11325 0.88647 0
M  V30 5996 H 548.346 -2.20821 3.01975 0
M  V30 5997 H 549.679 -2.92119 3.9614 0
M  V30 5998 N 551.331 -1.39911 -0.725443 0
M  V30 5999 C 552.742 -1.33599 -1.30415 0
M  V30 6000 C 553.093 -0.00481792 -1.96199 0
M  V30 6001 O 552.218 0.897275 -1.96921 0
M  V30 6002 C 552.813 -2.41965 -2.37146 0
M  V30 6003 C 551.372 -2.39144 -2.90667 0
M  V30 6004 C 550.519 -2.23355 -1.64341 0
M  V30 6005 H 553.47 -1.4986 -0.522267 0
M  V30 6006 H 553.491 -2.09304 -3.17761 0
M  V30 6007 H 553.003 -3.38837 -1.89238 0
M  V30 6008 H 551.104 -1.4594 -3.4283 0
M  V30 6009 H 551.217 -3.34362 -3.43131 0
M  V30 6010 H 549.581 -1.70696 -1.89037 0
M  V30 6011 H 550.364 -3.2221 -1.18471 0
M  V30 6012 N 552.809 0.956637 -1.25245 0
M  V30 6013 C 553.739 2.07058 -1.07931 0
M  V30 6014 C 554.72 1.70096 0.0110361 0
M  V30 6015 O 555.905 1.93555 -0.158121 0
M  V30 6016 C 553.035 3.40272 -0.695124 0
M  V30 6017 C 551.989 3.91235 -1.73549 0
M  V30 6018 C 551.315 5.20921 -1.20604 0
M  V30 6019 C 552.615 4.17837 -3.13385 0
M  V30 6020 H 554.309 2.218 -2.01109 0
M  V30 6021 H 551.855 1.06581 -0.968326 0
M  V30 6022 H 553.808 4.1765 -0.560949 0
M  V30 6023 H 552.532 3.25462 0.272355 0
M  V30 6024 H 551.191 3.16025 -1.85807 0
M  V30 6025 H 550.839 5.02479 -0.228846 0
M  V30 6026 H 550.539 5.55987 -1.90136 0
M  V30 6027 H 552.063 6.00897 -1.08421 0
M  V30 6028 H 553.477 4.8588 -3.04292 0
M  V30 6029 H 551.874 4.64154 -3.80369 0
M  V30 6030 H 552.944 3.2419 -3.60595 0
M  V30 6031 N 554.287 1.06798 1.15896 0
M  V30 6032 C 555.564 0.701057 1.82605 0
M  V30 6033 C 555.944 -0.817066 1.94646 0
M  V30 6034 O 555.292 -1.72933 1.49353 0
M  V30 6035 C 555.502 1.40895 3.19296 0
M  V30 6036 C 556.85 1.55744 3.95005 0
M  V30 6037 O 557.874 1.36927 3.28831 0
M  V30 6038 O 556.733 1.86658 5.13635 0
M  V30 6039 H 553.827 0.248791 0.78869 0
M  V30 6040 H 556.373 1.16857 1.23055 0
M  V30 6041 H 555.145 2.4439 3.05596 0
M  V30 6042 H 554.768 0.931847 3.86526 0
M  V30 6043 N 555.766 -1.3263 0.851289 0
M  V30 6044 C 556.676 -2.32722 0.296268 0
M  V30 6045 C 557.692 -1.63901 -0.584162 0
M  V30 6046 O 558.868 -1.95465 -0.485334 0
M  V30 6047 C 555.933 -3.42942 -0.509103 0
M  V30 6048 C 554.994 -4.2746 0.397069 0
M  V30 6049 C 554.227 -5.32416 -0.36996 0
M  V30 6050 O 554.45 -5.47491 -1.6003 0
M  V30 6051 O 553.384 -6.01327 0.262493 0
M  V30 6052 H 557.21 -2.82078 1.12543 0
M  V30 6053 H 554.795 -1.36194 0.614135 0
M  V30 6054 H 556.677 -4.1017 -0.96634 0
M  V30 6055 H 555.352 -2.95781 -1.31512 0
M  V30 6056 H 554.259 -3.63053 0.902411 0
M  V30 6057 H 555.592 -4.78136 1.16818 0
M  V30 6058 N 557.244 -0.608902 -1.45362 0
M  V30 6059 C 558.469 -0.10921 -2.07112 0
M  V30 6060 C 558.894 1.19779 -1.45033 0
M  V30 6061 O 558.252 1.72961 -0.543527 0
M  V30 6062 C 558.3 0.0155745 -3.60597 0
M  V30 6063 O 557.404 1.06546 -3.98399 0
M  V30 6064 H 556.745 -0.0746619 -0.659789 0
M  V30 6065 H 559.275 -0.839283 -1.86594 0
M  V30 6066 H 559.285 0.213364 -4.07442 0
M  V30 6067 H 557.96 -0.938765 -4.05167 0
M  V30 6068 H 556.537 0.844024 -3.63223 0
M  V30 6069 N 558.722 1.53707 -0.348139 0
M  V30 6070 C 559.97 2.00591 0.246478 0
M  V30 6071 C 560.291 1.23753 1.50699 0
M  V30 6072 O 559.561 0.345964 1.92821 0
M  V30 6073 H 558.141 0.741053 0.0940679 0
M  V30 6074 H 560.803 1.89139 -0.470354 0
M  V30 6075 H 559.899 3.08297 0.485714 0
M  V30 6076 N 560.2 0.0768682 1.57412 0
M  V30 6077 C 561.446 -0.585926 1.94778 0
M  V30 6078 C 561.801 -1.66912 0.956982 0
M  V30 6079 O 561.094 -1.9159 -0.0199454 0
M  V30 6080 C 561.288 -1.20268 3.36557 0
M  V30 6081 C 561.117 -0.18076 4.49337 0
M  V30 6082 C 559.887 0.236362 5.04747 0
M  V30 6083 C 562.085 0.583978 5.10974 0
M  V30 6084 N 560.067 1.24846 6.01071 0
M  V30 6085 C 561.438 1.44841 6.02844 0
M  V30 6086 C 563.493 0.639492 4.93776 0
M  V30 6087 C 562.196 2.36343 6.79363 0
M  V30 6088 C 564.222 1.54204 5.70942 0
M  V30 6089 C 563.584 2.39414 6.62465 0
M  V30 6090 H 559.683 -0.185281 0.759734 0
M  V30 6091 H 562.267 0.155193 1.9408 0
M  V30 6092 H 560.438 -1.9137 3.37982 0
M  V30 6093 H 562.17 -1.82636 3.61146 0
M  V30 6094 H 558.925 -0.14777 4.73369 0
M  V30 6095 H 559.349 1.75217 6.53933 0
M  V30 6096 H 563.991 -0.00510074 4.228 0
M  V30 6097 H 561.709 3.01836 7.49614 0
M  V30 6098 H 565.295 1.5899 5.59655 0
M  V30 6099 H 564.175 3.0812 7.21132 0
M  V30 6100 N 561.678 -1.56367 -0.196722 0
M  V30 6101 C 562.611 -1.89475 -1.2718 0
M  V30 6102 C 563.589 -0.754667 -1.44026 0
M  V30 6103 O 564.773 -1.00551 -1.59442 0
M  V30 6104 C 561.9 -2.12352 -2.63864 0
M  V30 6105 C 560.946 -3.35053 -2.63897 0
M  V30 6106 S 561.779 -4.90228 -2.15492 0
M  V30 6107 C 562.935 -5.16171 -3.54004 0
M  V30 6108 H 563.168 -2.80365 -0.989075 0
M  V30 6109 H 560.701 -1.49125 -0.40014 0
M  V30 6110 H 562.659 -2.26214 -3.42545 0
M  V30 6111 H 561.32 -1.22214 -2.89349 0
M  V30 6112 H 560.513 -3.48182 -3.64397 0
M  V30 6113 H 560.115 -3.20176 -1.93296 0
M  V30 6114 H 562.407 -5.06591 -4.49857 0
M  V30 6115 H 563.35 -6.17938 -3.45771 0
M  V30 6116 H 563.758 -4.43814 -3.48841 0
M  V30 6117 N 563.156 0.464375 -1.50603 0
M  V30 6118 C 564.405 1.21277 -1.61167 0
M  V30 6119 C 564.718 1.92953 -0.320704 0
M  V30 6120 O 565.924 2.69778 -0.30534 0
M  V30 6121 C 564.38 2.20403 -2.84518 0
M  V30 6122 C 563.988 1.54499 -4.20516 0
M  V30 6123 C 565.732 2.95843 -3.0443 0
M  V30 6124 C 563.639 2.51951 -5.35047 0
M  V30 6125 H 562.569 0.456367 -0.600204 0
M  V30 6126 H 565.22 0.48254 -1.77042 0
M  V30 6127 H 563.602 2.96746 -2.62217 0
M  V30 6128 H 564.776 0.83899 -4.53098 0
M  V30 6129 H 563.091 0.913152 -4.06264 0
M  V30 6130 H 565.688 3.6879 -3.87167 0
M  V30 6131 H 566.031 3.55622 -2.16423 0
M  V30 6132 H 566.564 2.26611 -3.26944 0
M  V30 6133 H 563.303 1.96901 -6.25228 0
M  V30 6134 H 562.823 3.20683 -5.06875 0
M  V30 6135 H 564.502 3.13643 -5.65895 0
M  V30 6136 N 564.634 1.40294 0.718013 0
M  V30 6137 C 565.581 1.40367 1.8321 0
M  V30 6138 C 566.551 0.260952 1.64037 0
M  V30 6139 O 567.736 0.458648 1.85205 0
M  V30 6140 C 564.876 1.26965 3.20895 0
M  V30 6141 C 563.989 2.50922 3.51656 0
M  V30 6142 C 563.124 2.29981 4.78834 0
M  V30 6143 C 562.163 3.49527 5.02491 0
M  V30 6144 N 561.3 3.27796 6.20882 0
M  V30 6145 H 566.14 2.35593 1.82482 0
M  V30 6146 H 563.677 1.17012 0.891444 0
M  V30 6147 H 565.635 1.17202 4.00399 0
M  V30 6148 H 564.265 0.353591 3.20858 0
M  V30 6149 H 563.317 2.71223 2.66725 0
M  V30 6150 H 564.629 3.39913 3.65048 0
M  V30 6151 H 563.783 2.17558 5.66351 0
M  V30 6152 H 562.522 1.38411 4.67647 0
M  V30 6153 H 561.527 3.6243 4.1343 0
M  V30 6154 H 562.752 4.42021 5.15553 0
M  V30 6155 H 560.698 2.38906 6.1095 0
M  V30 6156 H 560.615 4.10351 6.34939 0
M  V30 6157 H 561.883 3.19101 7.11193 0
M  V30 6158 N 566.112 -0.949982 1.2575 0
M  V30 6159 C 567.06 -2.06869 1.06339 0
M  V30 6160 C 568.054 -1.69399 -0.00708901 0
M  V30 6161 O 569.26 -1.79383 0.148897 0
M  V30 6162 H 565.635 -0.677197 0.326969 0
M  V30 6163 H 567.606 -2.20396 2.01167 0
M  V30 6164 C 566.355 -3.40503 0.703769 0
M  V30 6165 H 565.678 -3.69807 1.51931 0
M  V30 6166 H 567.118 -4.19623 0.607677 0
M  V30 6167 C 565.577 -3.31685 -0.5905 0
M  V30 6168 O 566.107 -3.67085 -1.63131 0
M  V30 6169 N 564.313 -2.84797 -0.577859 0
M  V30 6170 H 563.86 -2.56186 0.26951 0
M  V30 6171 H 563.818 -2.79279 -1.44398 0
M  V30 6172 N 567.59 -1.07411 -1.15328 0
M  V30 6173 C 568.836 -0.798831 -1.86404 0
M  V30 6174 C 569.169 0.673433 -1.8215 0
M  V30 6175 O 568.444 1.49428 -1.24505 0
M  V30 6176 C 568.727 -1.30846 -3.35487 0
M  V30 6177 C 568.58 -2.84532 -3.4837 0
M  V30 6178 C 569.899 -0.925486 -4.30259 0
M  V30 6179 H 567.018 -0.291659 -0.676834 0
M  V30 6180 H 569.66 -1.332 -1.35491 0
M  V30 6181 H 567.81 -0.854916 -3.78977 0
M  V30 6182 H 569.482 -3.3818 -3.13739 0
M  V30 6183 H 567.725 -3.22699 -2.8991 0
M  V30 6184 H 568.396 -3.15259 -4.53118 0
M  V30 6185 H 570.872 -1.3163 -3.94731 0
M  V30 6186 H 569.748 -1.3094 -5.33053 0
M  V30 6187 H 570.009 0.168525 -4.41779 0
M  V30 6188 N 569.068 1.32177 -0.85831 0
M  V30 6189 C 569.998 2.31282 -0.321041 0
M  V30 6190 C 570.979 1.59841 0.581786 0
M  V30 6191 O 572.164 1.87619 0.501262 0
M  V30 6192 C 569.294 3.4385 0.48832 0
M  V30 6193 C 568.248 4.26799 -0.320391 0
M  V30 6194 C 567.574 5.31164 0.613934 0
M  V30 6195 C 568.874 4.98829 -1.54813 0
M  V30 6196 H 570.568 2.76469 -1.14915 0
M  V30 6197 H 568.114 1.32916 -0.554028 0
M  V30 6198 H 570.067 4.12224 0.874626 0
M  V30 6199 H 568.791 2.97401 1.34983 0
M  V30 6200 H 567.45 3.60077 -0.688497 0
M  V30 6201 H 567.098 4.80967 1.47239 0
M  V30 6202 H 566.798 5.8755 0.0768097 0
M  V30 6203 H 568.322 6.024 0.997336 0
M  V30 6204 H 569.736 5.59864 -1.23392 0
M  V30 6205 H 568.133 5.64957 -2.02346 0
M  V30 6206 H 569.203 4.26483 -2.30739 0
M  V30 6207 N 570.547 0.616602 1.45037 0
M  V30 6208 C 571.772 0.120192 2.07051 0
M  V30 6209 C 572.197 -1.19008 1.45666 0
M  V30 6210 O 571.555 -1.7267 0.552692 0
M  V30 6211 C 571.603 0.00354901 3.606 0
M  V30 6212 O 570.707 -1.04431 3.98958 0
M  V30 6213 H 570.048 0.0781599 0.659384 0
M  V30 6214 H 572.578 0.849167 1.86146 0
M  V30 6215 H 572.588 -0.191754 4.07549 0
M  V30 6216 H 571.263 0.960239 4.04663 0
M  V30 6217 H 569.84 -0.824749 3.63665 0
M  V30 6218 N 572.025 -1.5352 0.356285 0
M  V30 6219 C 572.958 -2.2177 -0.537913 0
M  V30 6220 C 573.936 -1.20626 -1.09033 0
M  V30 6221 O 575.12 -1.49494 -1.1482 0
M  V30 6222 C 572.247 -2.90513 -1.74126 0
M  V30 6223 C 571.293 -4.05652 -1.31715 0
M  V30 6224 S 572.126 -5.34505 -0.326236 0
M  V30 6225 C 573.282 -6.06757 -1.53612 0
M  V30 6226 H 573.515 -2.97271 0.0417411 0
M  V30 6227 H 571.048 -1.53761 0.140372 0
M  V30 6228 H 573.006 -3.30735 -2.43155 0
M  V30 6229 H 571.667 -2.14754 -2.29215 0
M  V30 6230 H 570.86 -4.52733 -2.21471 0
M  V30 6231 H 570.462 -3.67272 -0.706183 0
M  V30 6232 H 572.754 -6.30924 -2.46863 0
M  V30 6233 H 573.697 -6.99395 -1.10687 0
M  V30 6234 H 574.105 -5.3708 -1.73796 0
M  V30 6235 N 573.503 -0.0852151 -1.57369 0
M  V30 6236 C 574.914 0.445428 -1.81309 0
M  V30 6237 C 575.265 1.68795 -1.00013 0
M  V30 6238 O 574.39 2.15211 -0.226573 0
M  V30 6239 C 574.985 0.814887 -3.28854 0
M  V30 6240 C 573.544 1.29032 -3.53592 0
M  V30 6241 C 572.691 0.282089 -2.75861 0
M  V30 6242 H 575.642 -0.310771 -1.55627 0
M  V30 6243 H 575.663 1.67524 -3.41637 0
M  V30 6244 H 575.175 -0.0896309 -3.87996 0
M  V30 6245 H 573.276 2.21289 -2.9977 0
M  V30 6246 H 573.389 1.25898 -4.62262 0
M  V30 6247 H 571.753 0.762182 -2.43029 0
M  V30 6248 H 572.536 -0.614936 -3.37748 0
M  V30 6249 N 574.981 1.5647 0.188427 0
M  V30 6250 C 576.23 1.80207 0.905995 0
M  V30 6251 C 576.543 0.659579 1.84144 0
M  V30 6252 O 577.749 0.781431 2.60011 0
M  V30 6253 C 576.205 3.19255 1.66145 0
M  V30 6254 C 575.813 4.41324 0.770504 0
M  V30 6255 C 577.557 3.52298 2.36826 0
M  V30 6256 C 575.464 5.71394 1.52521 0
M  V30 6257 H 574.394 0.671953 0.342045 0
M  V30 6258 H 577.045 1.82808 0.159164 0
M  V30 6259 H 575.427 3.10922 2.45242 0
M  V30 6260 H 576.601 4.60797 0.0177261 0
M  V30 6261 H 574.916 4.16035 0.174199 0
M  V30 6262 H 577.513 4.46715 2.93854 0
M  V30 6263 H 577.856 2.76359 3.11338 0
M  V30 6264 H 578.389 3.62108 1.6469 0
M  V30 6265 H 575.128 6.50316 0.82275 0
M  V30 6266 H 574.648 5.55928 2.25175 0
M  V30 6267 H 576.327 6.12747 2.07725 0
M  V30 6268 N 576.459 -0.456382 1.50847 0
M  V30 6269 C 577.705 -1.20914 1.62811 0
M  V30 6270 C 578.038 -1.91301 0.334304 0
M  V30 6271 O 577.313 -1.82775 -0.665098 0
M  V30 6272 C 577.596 -2.24122 2.81853 0
M  V30 6273 C 577.449 -1.57944 4.21158 0
M  V30 6274 C 578.768 -3.25295 2.96431 0
M  V30 6275 H 575.887 -0.438233 0.592554 0
M  V30 6276 H 578.529 -0.50091 1.83278 0
M  V30 6277 H 576.679 -2.84524 2.64534 0
M  V30 6278 H 578.351 -1.01025 4.50102 0
M  V30 6279 H 576.594 -0.882185 4.24735 0
M  V30 6280 H 577.265 -2.33014 5.00408 0
M  V30 6281 H 579.741 -2.7493 3.12335 0
M  V30 6282 H 578.617 -3.94822 3.81322 0
M  V30 6283 H 578.878 -3.90286 2.07676 0
M  V30 6284 N 577.937 -1.40673 -0.710563 0
M  V30 6285 C 578.885 -1.41517 -1.84596 0
M  V30 6286 C 579.879 -0.295043 -1.66811 0
M  V30 6287 O 581.085 -0.466331 -1.73854 0
M  V30 6288 H 577.46 -0.442467 -0.608052 0
M  V30 6289 H 579.431 -2.37238 -1.80999 0
M  V30 6290 C 578.18 -1.29957 -3.225 0
M  V30 6291 H 577.503 -2.15429 -3.36794 0
M  V30 6292 H 578.943 -1.34608 -4.02066 0
M  V30 6293 C 577.402 -0.0103164 -3.36898 0
M  V30 6294 O 577.932 0.950707 -3.90288 0
M  V30 6295 N 576.138 0.0608409 -2.90536 0
M  V30 6296 H 575.685 -0.721943 -2.47277 0
M  V30 6297 H 575.643 0.92292 -3.00549 0
M  V30 6298 N 579.415 0.9433 -1.26252 0
M  V30 6299 C 580.362 2.0417 -1.07625 0
M  V30 6300 C 581.332 1.6609 0.0180738 0
M  V30 6301 O 582.517 1.90276 -0.141289 0
M  V30 6302 C 579.657 3.37653 -0.713043 0
M  V30 6303 C 578.77 3.88783 -1.8834 0
M  V30 6304 C 577.905 5.10642 -1.4635 0
M  V30 6305 C 576.944 5.54028 -2.60229 0
M  V30 6306 N 576.081 6.67092 -2.18936 0
M  V30 6307 H 580.921 2.19436 -2.01623 0
M  V30 6308 H 578.458 1.07519 -1.00389 0
M  V30 6309 H 580.416 4.14391 -0.483358 0
M  V30 6310 H 579.046 3.22241 0.18996 0
M  V30 6311 H 578.098 3.08464 -2.22608 0
M  V30 6312 H 579.41 4.16922 -2.73821 0
M  V30 6313 H 578.564 5.94832 -1.19414 0
M  V30 6314 H 577.303 4.84244 -0.579568 0
M  V30 6315 H 576.308 4.68396 -2.87898 0
M  V30 6316 H 577.533 5.82429 -3.49219 0
M  V30 6317 H 575.479 6.42381 -1.32974 0
M  V30 6318 H 575.396 6.94806 -2.97961 0
M  V30 6319 H 576.664 7.54662 -1.95206 0
M  V30 6320 N 580.893 1.08022 1.14757 0
M  V30 6321 C 581.84 0.706657 2.19716 0
M  V30 6322 C 582.81 -0.30525 1.63271 0
M  V30 6323 O 583.995 -0.19015 1.8985 0
M  V30 6324 C 581.135 0.117914 3.44898 0
M  V30 6325 C 580.248 1.18212 4.15512 0
M  V30 6326 C 579.383 0.557659 5.28265 0
M  V30 6327 C 578.422 1.60418 5.90705 0
M  V30 6328 N 577.559 1.0018 6.94916 0
M  V30 6329 H 582.399 1.60603 2.51019 0
M  V30 6330 H 579.936 0.802664 1.23271 0
M  V30 6331 H 581.894 -0.241112 4.16503 0
M  V30 6332 H 580.524 -0.744788 3.1409 0
M  V30 6333 H 579.576 1.65863 3.42335 0
M  V30 6334 H 580.888 1.97533 4.5802 0
M  V30 6335 H 580.042 0.146654 6.06523 0
M  V30 6336 H 578.781 -0.267249 4.86967 0
M  V30 6337 H 577.786 2.02489 5.11154 0
M  V30 6338 H 579.011 2.43149 6.34078 0
M  V30 6339 H 576.957 0.197917 6.55701 0
M  V30 6340 H 576.874 1.73216 7.35889 0
M  V30 6341 H 578.142 0.616523 7.77058 0
M  V30 6342 N 582.371 -1.3172 0.865308 0
M  V30 6343 C 583.281 -2.32394 0.320935 0
M  V30 6344 C 584.297 -1.64511 -0.566746 0
M  V30 6345 O 585.473 -1.95969 -0.464575 0
M  V30 6346 C 582.538 -3.43462 -0.472701 0
M  V30 6347 C 581.599 -4.27015 0.442385 0
M  V30 6348 C 580.832 -5.32779 -0.313469 0
M  V30 6349 O 581.055 -5.49158 -1.54214 0
M  V30 6350 O 579.989 -6.01015 0.326257 0
M  V30 6351 H 583.815 -2.80868 1.15528 0
M  V30 6352 H 581.4 -1.35535 0.628545 0
M  V30 6353 H 583.282 -4.11172 -0.922781 0
M  V30 6354 H 581.957 -2.97159 -1.28367 0
M  V30 6355 H 580.864 -3.62075 0.940866 0
M  V30 6356 H 582.197 -4.76871 1.21882 0
M  V30 6357 N 583.85 -0.624285 -1.44708 0
M  V30 6358 C 584.76 0.0861083 -2.34442 0
M  V30 6359 C 585.776 0.84291 -1.5222 0
M  V30 6360 O 586.952 0.796723 -1.84971 0
M  V30 6361 C 584.017 1.05999 -3.30099 0
M  V30 6362 C 583.077 0.303316 -4.28227 0
M  V30 6363 C 582.311 1.23081 -5.19314 0
M  V30 6364 O 582.534 2.46929 -5.14181 0
M  V30 6365 O 581.468 0.71883 -5.97592 0
M  V30 6366 H 585.293 -0.651756 -2.96624 0
M  V30 6367 H 582.879 -0.384493 -1.44368 0
M  V30 6368 H 584.76 1.62046 -3.88997 0
M  V30 6369 H 583.436 1.77859 -2.70459 0
M  V30 6370 H 582.343 -0.300033 -3.72895 0
M  V30 6371 H 583.676 -0.375123 -4.90768 0
M  V30 6372 N 585.328 1.53329 -0.364422 0
M  V30 6373 C 586.577 2.00421 0.226747 0
M  V30 6374 C 586.89 1.25581 1.49963 0
M  V30 6375 O 588.096 1.63256 2.16933 0
M  V30 6376 C 586.552 3.57017 0.454618 0
M  V30 6377 C 586.16 4.40734 -0.803568 0
M  V30 6378 C 587.904 4.12468 1.00351 0
M  V30 6379 C 585.811 5.8888 -0.545345 0
M  V30 6380 H 584.741 0.748787 0.0885082 0
M  V30 6381 H 587.392 1.7703 -0.482983 0
M  V30 6382 H 585.774 3.76558 1.22558 0
M  V30 6383 H 586.948 4.32967 -1.57723 0
M  V30 6384 H 585.263 3.96381 -1.27559 0
M  V30 6385 H 587.86 5.20783 1.212 0
M  V30 6386 H 588.203 3.6699 1.9653 0
M  V30 6387 H 588.736 3.96721 0.29274 0
M  V30 6388 H 585.475 6.38633 -1.47743 0
M  V30 6389 H 584.995 5.99499 0.189842 0
M  V30 6390 H 586.674 6.46776 -0.170425 0
M  V30 6391 N 586.806 0.0935595 1.57322 0
M  V30 6392 C 588.052 -0.571355 1.94585 0
M  V30 6393 C 588.385 -1.67929 0.975366 0
M  V30 6394 O 587.66 -1.94498 0.00816206 0
M  V30 6395 C 587.943 -1.12797 3.41978 0
M  V30 6396 C 587.796 -0.0251881 4.49793 0
M  V30 6397 C 589.115 -2.02682 3.90651 0
M  V30 6398 H 586.234 -0.206223 0.70756 0
M  V30 6399 H 588.876 0.163956 1.89291 0
M  V30 6400 H 587.026 -1.75461 3.4662 0
M  V30 6401 H 588.698 0.608979 4.57263 0
M  V30 6402 H 586.941 0.641399 4.29032 0
M  V30 6403 H 587.612 -0.455433 5.50118 0
M  V30 6404 H 590.088 -1.49925 3.88152 0
M  V30 6405 H 588.964 -2.38555 4.94351 0
M  V30 6406 H 589.225 -2.94362 3.29854 0
M  V30 6407 N 588.284 -1.56567 -0.180126 0
M  V30 6408 C 589.532 -1.81133 -0.896392 0
M  V30 6409 C 589.853 -0.669114 -1.83161 0
M  V30 6410 O 589.123 0.311616 -1.93406 0
M  V30 6411 H 587.703 -0.668172 -0.333999 0
M  V30 6412 H 590.365 -1.94048 -0.182051 0
M  V30 6413 H 589.461 -2.74854 -1.47857 0
M  V30 6414 N 589.762 0.448376 -1.51087 0
M  V30 6415 C 591.008 1.20049 -1.6345 0
M  V30 6416 C 591.341 1.91121 -0.344444 0
M  V30 6417 O 590.616 1.83125 0.655396 0
M  V30 6418 C 590.899 2.22624 -2.83038 0
M  V30 6419 C 590.752 1.55708 -4.21989 0
M  V30 6420 C 592.071 3.23718 -2.98152 0
M  V30 6421 H 589.19 0.435085 -0.59487 0
M  V30 6422 H 591.832 0.491183 -1.83541 0
M  V30 6423 H 589.982 2.83117 -2.66039 0
M  V30 6424 H 591.654 0.986367 -4.50631 0
M  V30 6425 H 589.897 0.859647 -4.25197 0
M  V30 6426 H 590.568 2.30357 -5.01637 0
M  V30 6427 H 593.044 2.73269 -3.13788 0
M  V30 6428 H 591.92 3.92795 -3.83411 0
M  V30 6429 H 592.181 3.89179 -2.09743 0
M  V30 6430 N 591.24 1.41047 0.703093 0
M  V30 6431 C 592.203 1.42036 1.79884 0
M  V30 6432 C 593.203 0.312153 1.57741 0
M  V30 6433 O 594.393 0.571672 1.64553 0
M  V30 6434 C 591.525 1.22437 3.18154 0
M  V30 6435 H 592.718 2.39572 1.80403 0
M  V30 6436 H 590.271 1.27079 0.909977 0
M  V30 6437 H 591.006 0.257112 3.23279 0
M  V30 6438 H 590.791 2.02723 3.35627 0
M  V30 6439 H 592.281 1.25946 3.98155 0
M  V30 6440 N 592.718 -0.936591 1.26751 0
M  V30 6441 C 593.946 -1.71758 1.15355 0
M  V30 6442 C 594.361 -1.86549 -0.290683 0
M  V30 6443 O 593.718 -1.37616 -1.19868 0
M  V30 6444 C 593.769 -3.12193 1.82258 0
M  V30 6445 O 593.49 -2.98105 3.21038 0
M  V30 6446 C 594.991 -4.06485 1.76875 0
M  V30 6447 H 592.211 -0.537636 0.401483 0
M  V30 6448 H 594.755 -1.17382 1.67457 0
M  V30 6449 H 592.91 -3.63456 1.34083 0
M  V30 6450 H 593.324 -3.86824 3.54214 0
M  V30 6451 H 594.798 -5.02569 2.28316 0
M  V30 6452 H 595.275 -4.32986 0.736216 0
M  V30 6453 H 595.881 -3.61144 2.24623 0
M  V30 6454 N 594.196 -1.08629 -1.14182 0
M  V30 6455 C 595.443 -0.817345 -1.85272 0
M  V30 6456 C 595.771 0.656917 -1.83071 0
M  V30 6457 O 595.026 1.49897 -1.25815 0
M  V30 6458 C 595.325 -1.28734 -3.3341 0
M  V30 6459 C 594.991 -2.76981 -3.55798 0
M  V30 6460 C 593.653 -3.17469 -3.61617 0
M  V30 6461 C 596.005 -3.72605 -3.64438 0
M  V30 6462 C 593.333 -4.52371 -3.736 0
M  V30 6463 C 595.685 -5.07286 -3.77947 0
M  V30 6464 C 594.349 -5.47376 -3.82016 0
M  V30 6465 H 593.619 -0.299088 -0.677958 0
M  V30 6466 H 596.266 -1.35962 -1.34857 0
M  V30 6467 H 594.571 -0.664702 -3.8612 0
M  V30 6468 H 596.268 -1.05598 -3.86846 0
M  V30 6469 H 592.858 -2.44644 -3.51919 0
M  V30 6470 H 597.042 -3.42443 -3.5923 0
M  V30 6471 H 592.298 -4.82882 -3.75013 0
M  V30 6472 H 596.472 -5.81243 -3.83575 0
M  V30 6473 H 594.099 -6.51906 -3.91054 0
M  V30 6474 N 595.674 1.31259 -0.872281 0
M  V30 6475 C 596.904 2.00504 -0.498183 0
M  V30 6476 C 597.312 1.65632 0.914479 0
M  V30 6477 O 596.655 0.882849 1.61095 0
M  V30 6478 C 596.717 3.5482 -0.578194 0
M  V30 6479 C 596.381 4.13172 -1.95289 0
M  V30 6480 C 597.378 4.30107 -2.92069 0
M  V30 6481 C 595.063 4.48846 -2.25483 0
M  V30 6482 C 597.057 4.81908 -4.17185 0
M  V30 6483 C 594.744 5.00349 -3.50847 0
M  V30 6484 C 595.742 5.16831 -4.46514 0
M  V30 6485 O 595.43 5.67228 -5.69656 0
M  V30 6486 H 595.162 0.648055 -0.192354 0
M  V30 6487 H 597.716 1.6841 -1.17589 0
M  V30 6488 H 595.946 3.86383 0.156438 0
M  V30 6489 H 597.635 4.05318 -0.217192 0
M  V30 6490 H 598.401 4.02862 -2.7005 0
M  V30 6491 H 594.28 4.35292 -1.51795 0
M  V30 6492 H 597.824 4.94688 -4.91863 0
M  V30 6493 H 593.721 5.27028 -3.72708 0
M  V30 6494 H 594.489 5.85592 -5.7186 0
M  V30 6495 N 597.152 0.631951 1.44375 0
M  V30 6496 C 598.1 -0.0846693 2.32446 0
M  V30 6497 C 599.094 -0.834957 1.47393 0
M  V30 6498 O 600.3 -0.747764 1.63733 0
M  V30 6499 H 596.675 -0.0461508 0.750583 0
M  V30 6500 H 598.646 0.67619 2.90638 0
M  V30 6501 C 597.395 -1.05211 3.314 0
M  V30 6502 H 596.718 -0.484203 3.96857 0
M  V30 6503 H 598.158 -1.523 3.95703 0
M  V30 6504 C 596.617 -2.13776 2.60387 0
M  V30 6505 O 597.147 -3.21869 2.4034 0
M  V30 6506 N 595.353 -1.89733 2.20113 0
M  V30 6507 H 594.9 -1.01833 2.36618 0
M  V30 6508 H 594.858 -2.62572 1.72926 0
M  V30 6509 N 598.631 -1.53133 0.372548 0
M  V30 6510 C 600.047 -1.59585 0.02178 0
M  V30 6511 C 600.247 -1.38736 -1.46132 0
M  V30 6512 O 599.303 -1.19599 -2.22379 0
M  V30 6513 C 600.616 -2.9678 0.483959 0
M  V30 6514 C 602.164 -3.09909 0.438775 0
M  V30 6515 C 602.639 -4.49527 0.876876 0
M  V30 6516 N 604.13 -4.55663 0.832214 0
M  V30 6517 C 604.865 -5.61896 1.14281 0
M  V30 6518 N 604.361 -6.75852 1.52303 0
M  V30 6519 N 606.154 -5.51916 1.06515 0
M  V30 6520 H 598.305 -1.64936 1.33827 0
M  V30 6521 H 600.568 -0.773947 0.547458 0
M  V30 6522 H 600.274 -3.17198 1.51915 0
M  V30 6523 H 600.148 -3.7699 -0.125784 0
M  V30 6524 H 602.535 -2.89197 -0.587294 0
M  V30 6525 H 602.616 -2.31691 1.0841 0
M  V30 6526 H 602.26 -4.70979 1.90109 0
M  V30 6527 H 602.19 -5.26186 0.208727 0
M  V30 6528 H 604.681 -3.73844 0.552195 0
M  V30 6529 H 604.994 -7.52862 1.7441 0
M  V30 6530 H 603.339 -6.77226 1.56175 0
M  V30 6531 H 606.53 -4.6177 0.767235 0
M  V30 6532 H 606.703 -6.34609 1.31053 0
M  V30 6533 N 600.109 -0.101901 -1.5727 0
M  V30 6534 C 601.056 0.854577 -2.14396 0
M  V30 6535 C 602.026 1.27521 -1.06432 0
M  V30 6536 O 603.211 1.35575 -1.34253 0
M  V30 6537 C 600.351 2.10576 -2.73408 0
M  V30 6538 C 599.464 1.73504 -3.95626 0
M  V30 6539 C 598.599 2.9346 -4.42781 0
M  V30 6540 C 597.638 2.52547 -5.57572 0
M  V30 6541 N 596.775 3.65359 -5.99547 0
M  V30 6542 H 601.615 0.360578 -2.9581 0
M  V30 6543 H 599.152 0.166303 -1.46157 0
M  V30 6544 H 601.11 2.83859 -3.05745 0
M  V30 6545 H 599.74 2.57463 -1.94711 0
M  V30 6546 H 598.792 0.901622 -3.6956 0
M  V30 6547 H 600.104 1.39426 -4.78917 0
M  V30 6548 H 599.258 3.74988 -4.76937 0
M  V30 6549 H 597.997 3.30753 -3.58404 0
M  V30 6550 H 597.002 1.69446 -5.23037 0
M  V30 6551 H 598.227 2.1639 -6.43702 0
M  V30 6552 H 596.173 4.02358 -5.18116 0
M  V30 6553 H 596.09 3.35148 -6.77652 0
M  V30 6554 H 597.358 4.47378 -6.38336 0
M  V30 6555 N 601.587 1.56661 0.17182 0
M  V30 6556 C 602.864 1.72838 0.915778 0
M  V30 6557 C 603.244 0.66316 2.00413 0
M  V30 6558 O 602.592 -0.322123 2.26218 0
M  V30 6559 C 602.802 3.16019 1.48097 0
M  V30 6560 C 604.15 3.76962 1.95408 0
M  V30 6561 O 605.174 3.19294 1.57892 0
M  V30 6562 O 604.033 4.78219 2.64516 0
M  V30 6563 H 601.127 0.705797 0.431021 0
M  V30 6564 H 603.673 1.68947 0.159689 0
M  V30 6565 H 602.445 3.85031 0.697618 0
M  V30 6566 H 602.068 3.24234 2.30126 0
M  V30 6567 N 603.065 -0.440357 1.51323 0
M  V30 6568 C 604.313 -1.18769 1.63518 0
M  V30 6569 C 604.634 -1.91793 0.352201 0
M  V30 6570 O 603.904 -1.85432 -0.631811 0
M  V30 6571 H 602.484 -0.441408 0.602634 0
M  V30 6572 H 605.146 -0.505162 1.8824 0
M  V30 6573 H 604.242 -1.91892 2.46138 0
M  V30 6574 N 604.543 -1.41418 -0.695603 0
M  V30 6575 C 605.49 -1.43264 -1.80954 0
M  V30 6576 C 606.46 -0.287016 -1.63601 0
M  V30 6577 O 607.645 -0.488054 -1.84452 0
M  V30 6578 C 604.785 -1.32054 -3.18835 0
M  V30 6579 C 603.898 -2.56485 -3.4762 0
M  V30 6580 C 603.033 -2.3757 -4.75115 0
M  V30 6581 C 602.072 -3.57477 -4.96867 0
M  V30 6582 N 601.209 -3.37632 -6.15588 0
M  V30 6583 H 606.049 -2.38467 -1.78711 0
M  V30 6584 H 603.586 -1.18415 -0.872715 0
M  V30 6585 H 605.544 -1.23558 -3.98484 0
M  V30 6586 H 604.174 -0.404592 -3.20254 0
M  V30 6587 H 603.226 -2.75432 -2.62376 0
M  V30 6588 H 604.538 -3.45678 -3.59594 0
M  V30 6589 H 603.692 -2.2654 -5.62818 0
M  V30 6590 H 602.431 -1.45834 -4.65386 0
M  V30 6591 H 601.436 -3.68961 -4.07612 0
M  V30 6592 H 602.661 -4.50167 -5.08455 0
M  V30 6593 H 600.607 -2.48596 -6.07072 0
M  V30 6594 H 600.524 -4.20401 -6.2833 0
M  V30 6595 H 601.792 -3.30375 -7.06026 0
M  V30 6596 N 606.021 0.929856 -1.27246 0
M  V30 6597 C 607.432 1.49223 -1.12203 0
M  V30 6598 C 607.783 1.93989 0.293731 0
M  V30 6599 O 606.908 1.80978 1.18642 0
M  V30 6600 C 607.503 2.71198 -2.0307 0
M  V30 6601 C 606.062 3.23666 -1.92139 0
M  V30 6602 C 605.209 1.96409 -1.95752 0
M  V30 6603 H 608.16 0.744181 -1.4017 0
M  V30 6604 H 608.181 3.45905 -1.58524 0
M  V30 6605 H 607.693 2.38585 -3.06102 0
M  V30 6606 H 605.794 3.61042 -0.920834 0
M  V30 6607 H 605.907 3.90006 -2.78267 0
M  V30 6608 H 604.271 2.12806 -1.39949 0
M  V30 6609 H 605.054 1.66113 -3.00436 0
M  V30 6610 N 607.499 1.09233 1.13605 0
M  V30 6611 C 608.746 0.827159 1.84836 0
M  V30 6612 C 609.074 -0.647199 1.83416 0
M  V30 6613 O 608.329 -1.49228 1.26608 0
M  V30 6614 C 608.628 1.305 3.32723 0
M  V30 6615 C 608.294 2.78864 3.54325 0
M  V30 6616 C 606.956 3.19382 3.59928 0
M  V30 6617 C 609.308 3.74532 3.62457 0
M  V30 6618 C 606.636 4.54346 3.71196 0
M  V30 6619 C 608.988 5.09283 3.75252 0
M  V30 6620 C 607.652 5.49394 3.79108 0
M  V30 6621 H 606.922 0.302679 0.676363 0
M  V30 6622 H 609.569 1.36676 1.34134 0
M  V30 6623 H 607.874 0.68517 3.85762 0
M  V30 6624 H 609.571 1.07648 3.86281 0
M  V30 6625 H 606.161 2.46507 3.50617 0
M  V30 6626 H 610.345 3.44343 3.57409 0
M  V30 6627 H 605.601 4.84864 3.72447 0
M  V30 6628 H 609.775 5.83269 3.80487 0
M  V30 6629 H 607.402 6.5397 3.87591 0
M  V30 6630 N 608.977 -1.30795 0.87923 0
M  V30 6631 C 610.254 -1.91145 0.415086 0
M  V30 6632 C 610.634 -1.7995 -1.10368 0
M  V30 6633 O 609.982 -1.21305 -1.93642 0
M  V30 6634 C 610.192 -3.37014 0.906778 0
M  V30 6635 C 611.54 -4.14101 0.938358 0
M  V30 6636 O 612.564 -3.45834 0.853053 0
M  V30 6637 O 611.423 -5.36054 1.06342 0
M  V30 6638 H 608.517 -0.81736 0.125905 0
M  V30 6639 H 611.063 -1.39401 0.967753 0
M  V30 6640 H 609.835 -3.3922 1.95053 0
M  V30 6641 H 609.458 -3.96204 0.332948 0
M  V30 6642 N 610.455 -0.639598 -1.44038 0
M  V30 6643 C 611.365 0.0612377 -2.3452 0
M  V30 6644 C 612.381 0.826717 -1.53106 0
M  V30 6645 O 613.557 0.777059 -1.85806 0
M  V30 6646 C 610.622 1.02492 -3.31204 0
M  V30 6647 C 609.683 0.25788 -4.28525 0
M  V30 6648 C 608.916 1.17566 -5.2059 0
M  V30 6649 O 609.139 2.41461 -5.16771 0
M  V30 6650 O 608.073 0.655407 -5.98321 0
M  V30 6651 H 611.899 -0.68318 -2.95916 0
M  V30 6652 H 609.484 -0.399784 -1.43952 0
M  V30 6653 H 611.366 1.57911 -3.90694 0
M  V30 6654 H 610.041 1.7498 -2.7233 0
M  V30 6655 H 608.948 -0.339566 -3.72556 0
M  V30 6656 H 610.281 -0.427154 -4.90343 0
M  V30 6657 N 611.933 1.52934 -0.380664 0
M  V30 6658 C 612.866 2.22597 0.502564 0
M  V30 6659 C 613.844 1.22345 1.071 0
M  V30 6660 O 615.028 1.51302 1.12428 0
M  V30 6661 C 612.155 2.93246 1.69482 0
M  V30 6662 C 611.201 4.07696 1.25244 0
M  V30 6663 S 612.034 5.34957 0.241159 0
M  V30 6664 C 613.19 6.09124 1.4394 0
M  V30 6665 H 613.423 2.97167 -0.089029 0
M  V30 6666 H 610.956 1.53518 -0.164817 0
M  V30 6667 H 612.914 3.34562 2.37863 0
M  V30 6668 H 611.575 2.18373 2.2577 0
M  V30 6669 H 610.768 4.56199 2.1424 0
M  V30 6670 H 610.37 3.68349 0.647664 0
M  V30 6671 H 612.662 6.34771 2.36794 0
M  V30 6672 H 613.605 7.01068 0.995464 0
M  V30 6673 H 614.013 5.39777 1.65229 0
M  V30 6674 N 613.412 0.11024 1.57214 0
M  V30 6675 C 614.689 -0.592956 1.86396 0
M  V30 6676 C 615.069 -1.85379 1.00985 0
M  V30 6677 O 614.417 -2.28337 0.0863592 0
M  V30 6678 C 614.627 -0.893816 3.3736 0
M  V30 6679 C 615.975 -1.25069 4.05762 0
M  V30 6680 O 616.999 -0.984356 3.42329 0
M  V30 6681 O 615.858 -1.75017 5.17718 0
M  V30 6682 H 612.952 -0.29828 0.771335 0
M  V30 6683 H 615.498 0.144083 1.69087 0
M  V30 6684 H 614.27 2.6031e-05 3.913 0
M  V30 6685 H 613.893 -1.68631 3.60068 0
M  V30 6686 N 614.89 -1.56749 -0.16351 0
M  V30 6687 C 615.8 -2.00255 -1.2221 0
M  V30 6688 C 616.816 -0.915194 -1.47987 0
M  V30 6689 O 617.992 -1.22342 -1.59982 0
M  V30 6690 C 615.057 -2.36035 -2.53946 0
M  V30 6691 C 614.118 -3.58637 -2.35962 0
M  V30 6692 C 613.351 -3.92701 -3.61416 0
M  V30 6693 O 613.574 -3.27632 -4.66919 0
M  V30 6694 O 612.508 -4.86019 -3.55062 0
M  V30 6695 H 616.334 -2.90586 -0.882794 0
M  V30 6696 H 613.919 -1.44721 -0.370978 0
M  V30 6697 H 615.801 -2.59982 -3.31643 0
M  V30 6698 H 614.476 -1.48863 -2.8744 0
M  V30 6699 H 613.383 -3.39898 -1.5627 0
M  V30 6700 H 614.716 -4.46374 -2.0739 0
M  V30 6701 N 616.368 0.432326 -1.51554 0
M  V30 6702 C 617.596 1.20364 -1.68286 0
M  V30 6703 C 618.011 1.84888 -0.38233 0
M  V30 6704 O 617.368 1.70924 0.639627 0
M  V30 6705 C 617.419 2.28398 -2.80208 0
M  V30 6706 O 617.14 1.66512 -4.05223 0
M  V30 6707 C 618.641 3.18584 -3.08251 0
M  V30 6708 H 615.861 0.36259 -0.564596 0
M  V30 6709 H 618.405 0.511647 -1.97996 0
M  V30 6710 H 616.56 2.93305 -2.53083 0
M  V30 6711 H 616.974 2.37951 -4.67418 0
M  V30 6712 H 618.448 3.90511 -3.90135 0
M  V30 6713 H 618.925 3.79628 -2.2086 0
M  V30 6714 H 619.531 2.59372 -3.37055 0
M  V30 6715 N 617.846 1.41785 0.688094 0
M  V30 6716 C 618.776 1.47 1.8142 0
M  V30 6717 C 619.757 0.327881 1.6691 0
M  V30 6718 O 620.942 0.540362 1.86531 0
M  V30 6719 C 618.072 1.35876 3.19617 0
M  V30 6720 C 617.026 2.47976 3.48844 0
M  V30 6721 C 616.352 2.21915 4.86475 0
M  V30 6722 C 617.652 3.90309 3.47068 0
M  V30 6723 H 619.346 2.41247 1.77314 0
M  V30 6724 H 616.892 1.16116 0.851651 0
M  V30 6725 H 618.845 1.38134 3.98117 0
M  V30 6726 H 617.569 0.38116 3.24368 0
M  V30 6727 H 616.228 2.45013 2.72698 0
M  V30 6728 H 615.876 1.2248 4.8786 0
M  V30 6729 H 615.576 2.97037 5.06994 0
M  V30 6730 H 617.1 2.25901 5.67275 0
M  V30 6731 H 618.514 3.94947 4.1556 0
M  V30 6732 H 616.911 4.65175 3.7912 0
M  V30 6733 H 617.981 4.17927 2.45896 0
M  V30 6734 N 619.324 -0.923095 1.27737 0
M  V30 6735 C 620.257 -2.02515 1.05181 0
M  V30 6736 C 621.235 -1.62574 -0.0292204 0
M  V30 6737 O 622.419 -1.88137 0.116848 0
M  V30 6738 C 619.546 -3.33407 0.596468 0
M  V30 6739 C 618.592 -3.92328 1.67276 0
M  V30 6740 S 619.425 -4.24342 3.26641 0
M  V30 6741 C 620.581 -5.58308 2.82919 0
M  V30 6742 H 620.814 -2.21336 1.98488 0
M  V30 6743 H 618.347 -1.06679 1.1162 0
M  V30 6744 H 620.305 -4.09086 0.34044 0
M  V30 6745 H 618.966 -3.125 -0.316614 0
M  V30 6746 H 618.159 -4.86797 1.30556 0
M  V30 6747 H 617.761 -3.2325 1.8811 0
M  V30 6748 H 620.053 -6.37801 2.28509 0
M  V30 6749 H 620.996 -5.99931 3.7615 0
M  V30 6750 H 621.404 -5.19049 2.21919 0
M  V30 6751 N 620.802 -1.09834 -1.13024 0
M  V30 6752 C 621.712 -0.753731 -2.22162 0
M  V30 6753 C 622.728 0.246105 -1.72251 0
M  V30 6754 O 623.904 0.0864051 -2.01215 0
M  V30 6755 C 620.969 -0.183958 -3.46212 0
M  V30 6756 C 620.03 -1.24028 -4.10993 0
M  V30 6757 C 619.263 -0.697597 -5.29121 0
M  V30 6758 O 619.486 0.478092 -5.68393 0
M  V30 6759 O 618.42 -1.4546 -5.84059 0
M  V30 6760 H 622.246 -1.66456 -2.5402 0
M  V30 6761 H 619.831 -0.873026 -1.21238 0
M  V30 6762 H 621.713 0.130257 -4.21199 0
M  V30 6763 H 620.388 0.699823 -3.16045 0
M  V30 6764 H 619.295 -1.60725 -3.37814 0
M  V30 6765 H 620.628 -2.09685 -4.45301 0
M  V30 6766 N 622.28 1.30327 -0.886154 0
M  V30 6767 C 623.505 2.0079 -0.519425 0
M  V30 6768 C 623.93 1.65979 0.885013 0
M  V30 6769 O 623.288 0.877043 1.58675 0
M  V30 6770 C 623.336 3.53686 -0.702758 0
M  V30 6771 O 622.44 4.11637 0.250828 0
M  V30 6772 H 621.781 0.63171 -0.204544 0
M  V30 6773 H 624.311 1.66145 -1.19402 0
M  V30 6774 H 624.321 4.03531 -0.602207 0
M  V30 6775 H 622.996 3.78361 -1.72673 0
M  V30 6776 H 621.573 3.72755 0.103873 0
M  V30 6777 N 623.758 0.647228 1.43697 0
M  V30 6778 C 624.688 -0.0345631 2.33474 0
M  V30 6779 C 625.669 -0.818193 1.4913 0
M  V30 6780 O 626.854 -0.780867 1.77809 0
M  V30 6781 C 623.984 -1.00576 3.32418 0
M  V30 6782 C 622.938 -0.33266 4.26705 0
M  V30 6783 C 622.264 -1.41489 5.1564 0
M  V30 6784 C 623.564 0.771204 5.16575 0
M  V30 6785 H 625.258 0.715163 2.90733 0
M  V30 6786 H 622.804 0.345364 1.39797 0
M  V30 6787 H 624.757 -1.49159 3.94119 0
M  V30 6788 H 623.481 -1.78657 2.73403 0
M  V30 6789 H 622.14 0.13267 3.6636 0
M  V30 6790 H 621.788 -2.18698 4.52968 0
M  V30 6791 H 621.488 -0.969799 5.79542 0
M  V30 6792 H 623.012 -1.9022 5.80214 0
M  V30 6793 H 624.426 0.36779 5.72119 0
M  V30 6794 H 622.823 1.1404 5.89165 0
M  V30 6795 H 623.893 1.63169 4.56622 0
M  V30 6796 N 625.236 -1.5273 0.388769 0
M  V30 6797 C 626.464 -2.05992 -0.193677 0
M  V30 6798 C 626.879 -1.26053 -1.40557 0
M  V30 6799 O 626.236 -0.307049 -1.79898 0
M  V30 6800 C 626.287 -3.57068 -0.564321 0
M  V30 6801 O 626.008 -4.3398 0.599422 0
M  V30 6802 C 627.509 -4.26674 -1.20269 0
M  V30 6803 H 624.729 -0.670358 -0.0293445 0
M  V30 6804 H 627.273 -1.96857 0.553844 0
M  V30 6805 H 625.428 -3.66277 -1.26174 0
M  V30 6806 H 625.842 -5.2367 0.294895 0
M  V30 6807 H 627.316 -5.33625 -1.4124 0
M  V30 6808 H 627.793 -3.81854 -2.16989 0
M  V30 6809 H 628.399 -4.2178 -0.546047 0
M  V30 6810 N 626.714 -0.118576 -1.57153 0
M  V30 6811 C 627.646 0.862247 -2.12363 0
M  V30 6812 C 628.659 1.23025 -1.06625 0
M  V30 6813 O 629.848 1.17927 -1.33998 0
M  V30 6814 C 626.948 2.16425 -2.60794 0
M  V30 6815 C 626.121 1.96801 -3.90626 0
M  V30 6816 C 625.18 3.10726 -4.2466 0
M  V30 6817 O 624.206 2.83659 -4.93484 0
M  V30 6818 N 625.408 4.37147 -3.81946 0
M  V30 6819 H 628.173 0.390564 -2.97144 0
M  V30 6820 H 625.734 0.0658591 -1.61766 0
M  V30 6821 H 627.726 2.91633 -2.80593 0
M  V30 6822 H 626.296 2.54943 -1.80895 0
M  V30 6823 H 625.516 1.05787 -3.7974 0
M  V30 6824 H 626.804 1.80993 -4.7552 0
M  V30 6825 H 626.202 4.62014 -3.26435 0
M  V30 6826 H 624.759 5.09229 -4.06853 0
M  V30 6827 N 628.193 1.56834 0.155195 0
M  V30 6828 C 629.44 1.82898 0.869179 0
M  V30 6829 C 629.768 0.698194 1.81537 0
M  V30 6830 O 629.023 -0.313404 1.93174 0
M  V30 6831 C 629.322 3.15239 1.68402 0
M  V30 6832 C 628.988 4.42123 0.885341 0
M  V30 6833 C 627.65 4.76583 0.664971 0
M  V30 6834 C 630.002 5.20178 0.326234 0
M  V30 6835 C 627.33 5.86566 -0.125346 0
M  V30 6836 C 629.682 6.3099 -0.45108 0
M  V30 6837 C 628.346 6.64006 -0.682102 0
M  V30 6838 H 627.616 0.66927 0.318055 0
M  V30 6839 H 630.263 1.91036 0.133241 0
M  V30 6840 H 628.568 3.02515 2.48982 0
M  V30 6841 H 630.265 3.32618 2.23978 0
M  V30 6842 H 626.855 4.15102 1.06716 0
M  V30 6843 H 631.039 4.93936 0.483787 0
M  V30 6844 H 626.295 6.10594 -0.313915 0
M  V30 6845 H 630.469 6.9067 -0.89149 0
M  V30 6846 H 628.096 7.49065 -1.29636 0
M  V30 6847 N 629.671 -0.424282 1.51781 0
M  V30 6848 C 630.601 -1.52305 1.7699 0
M  V30 6849 C 631.582 -1.5839 0.620209 0
M  V30 6850 O 632.767 -1.73908 0.864268 0
M  V30 6851 C 629.897 -2.90271 1.90683 0
M  V30 6852 C 628.851 -2.99043 3.06198 0
M  V30 6853 C 628.177 -4.39116 3.05092 0
M  V30 6854 C 629.477 -2.7192 4.45934 0
M  V30 6855 H 631.171 -1.31461 2.68995 0
M  V30 6856 H 628.717 -0.630985 1.29439 0
M  V30 6857 H 630.67 -3.6711 2.06901 0
M  V30 6858 H 629.394 -3.12376 0.953365 0
M  V30 6859 H 628.053 -2.24646 2.89706 0
M  V30 6860 H 627.701 -4.58207 2.07498 0
M  V30 6861 H 627.401 -4.45912 3.82669 0
M  V30 6862 H 628.925 -5.17911 3.2342 0
M  V30 6863 H 630.339 -3.38487 4.62709 0
M  V30 6864 H 628.736 -2.90111 5.25315 0
M  V30 6865 H 629.806 -1.67445 4.55072 0
M  V30 6866 N 631.149 -1.42148 -0.680565 0
M  V30 6867 C 632.397 -1.42029 -1.43779 0
M  V30 6868 C 632.718 -0.0356347 -1.94967 0
M  V30 6869 O 631.988 0.924936 -1.7269 0
M  V30 6870 H 630.568 -0.522835 -0.533529 0
M  V30 6871 H 633.23 -1.7752 -0.804538 0
M  V30 6872 H 632.326 -2.11658 -2.29363 0
M  V30 6873 N 632.627 0.916307 -1.28225 0
M  V30 6874 C 633.873 1.66794 -1.1641 0
M  V30 6875 C 634.228 1.90278 0.284986 0
M  V30 6876 O 633.521 1.49023 1.20427 0
M  V30 6877 C 633.715 3.03125 -1.8934 0
M  V30 6878 C 633.544 2.92947 -3.41192 0
M  V30 6879 C 632.314 2.9461 -4.10528 0
M  V30 6880 C 634.512 2.7121 -4.36978 0
M  V30 6881 N 632.494 2.74993 -5.48864 0
M  V30 6882 C 633.865 2.60411 -5.6266 0
M  V30 6883 C 635.92 2.56187 -4.26934 0
M  V30 6884 C 634.623 2.3612 -6.79441 0
M  V30 6885 C 636.649 2.33275 -5.43449 0
M  V30 6886 C 636.011 2.23228 -6.68093 0
M  V30 6887 H 632.11 0.616654 -0.480896 0
M  V30 6888 H 634.694 1.08237 -1.61842 0
M  V30 6889 H 632.865 3.59774 -1.46346 0
M  V30 6890 H 634.597 3.67294 -1.69932 0
M  V30 6891 H 631.352 3.0527 -3.62087 0
M  V30 6892 H 631.776 2.68284 -6.21573 0
M  V30 6893 H 636.418 2.62707 -3.31278 0
M  V30 6894 H 634.136 2.28339 -7.75169 0
M  V30 6895 H 637.722 2.22519 -5.37565 0
M  V30 6896 H 636.602 2.05741 -7.5673 0
M  V30 6897 N 634.105 1.10431 1.1244 0
M  V30 6898 C 635.33 0.869089 1.88313 0
M  V30 6899 C 635.755 -0.574912 1.79099 0
M  V30 6900 O 635.113 -1.40496 1.14589 0
M  V30 6901 C 635.161 1.32208 3.3549 0
M  V30 6902 O 634.265 0.487092 4.09513 0
M  V30 6903 H 633.606 0.313894 0.585121 0
M  V30 6904 H 636.136 1.47111 1.42195 0
M  V30 6905 H 636.146 1.31201 3.86329 0
M  V30 6906 H 634.821 2.37364 3.41513 0
M  V30 6907 H 633.398 0.562372 3.68635 0
M  V30 6908 N 635.583 -1.29855 0.893053 0
M  V30 6909 C 636.829 -1.96116 0.516349 0
M  V30 6910 C 637.162 -1.70281 -0.933695 0
M  V30 6911 O 636.437 -1.01205 -1.66096 0
M  V30 6912 C 636.72 -3.51068 0.801455 0
M  V30 6913 C 636.573 -3.86387 2.30272 0
M  V30 6914 C 637.892 -4.39186 0.283423 0
M  V30 6915 H 635.011 -0.712335 0.189072 0
M  V30 6916 H 637.653 -1.53587 1.11852 0
M  V30 6917 H 635.803 -3.87424 0.288949 0
M  V30 6918 H 637.475 -3.60012 2.88425 0
M  V30 6919 H 635.718 -3.34167 2.76613 0
M  V30 6920 H 636.389 -4.94512 2.45279 0
M  V30 6921 H 638.865 -4.09785 0.722187 0
M  V30 6922 H 637.741 -5.46505 0.512169 0
M  V30 6923 H 638.002 -4.34511 -0.815643 0
M  V30 6924 N 637.061 -0.65484 -1.43351 0
M  V30 6925 C 637.991 0.0221809 -2.33489 0
M  V30 6926 C 638.972 0.810272 -1.49561 0
M  V30 6927 O 640.157 0.771426 -1.78221 0
M  V30 6928 C 637.287 0.988117 -3.32947 0
M  V30 6929 C 636.241 0.310026 -4.26876 0
M  V30 6930 C 635.567 1.38752 -5.16384 0
M  V30 6931 C 636.867 -0.798589 -5.16159 0
M  V30 6932 H 638.561 -0.730571 -2.9035 0
M  V30 6933 H 636.107 -0.352773 -1.39612 0
M  V30 6934 H 638.06 1.47067 -3.94904 0
M  V30 6935 H 636.784 1.77205 -2.74346 0
M  V30 6936 H 635.443 -0.152097 -3.66284 0
M  V30 6937 H 635.091 2.16293 -4.54121 0
M  V30 6938 H 634.791 0.939051 -5.80048 0
M  V30 6939 H 636.315 1.87141 -5.81215 0
M  V30 6940 H 637.729 -0.398126 -5.71916 0
M  V30 6941 H 636.126 -1.17163 -5.88552 0
M  V30 6942 H 637.196 -1.65588 -4.55751 0
M  V30 6943 N 638.539 1.52521 -0.396863 0
M  V30 6944 C 639.487 2.28217 0.44943 0
M  V30 6945 C 640.481 1.32416 1.05652 0
M  V30 6946 O 641.687 1.49925 0.996124 0
M  V30 6947 H 638.062 0.733966 0.1637 0
M  V30 6948 H 640.033 2.97658 -0.210367 0
M  V30 6949 C 638.782 3.10713 1.56054 0
M  V30 6950 H 638.105 3.84291 1.10273 0
M  V30 6951 H 639.545 3.66803 2.12677 0
M  V30 6952 C 638.004 2.23499 2.52091 0
M  V30 6953 O 638.534 1.8669 3.55682 0
M  V30 6954 N 636.74 1.8751 2.2201 0
M  V30 6955 H 636.287 2.17643 1.37802 0
M  V30 6956 H 636.245 1.29448 2.86514 0
M  V30 6957 N 640.017 0.126909 1.57088 0
M  V30 6958 C 641.428 -0.397201 1.82426 0
M  V30 6959 C 641.779 -1.66084 1.04453 0
M  V30 6960 O 640.904 -2.14534 0.283552 0
M  V30 6961 C 641.499 -0.727411 3.30899 0
M  V30 6962 C 640.058 -1.19612 3.56889 0
M  V30 6963 C 639.205 -0.20885 2.76512 0
M  V30 6964 H 642.156 0.351924 1.54749 0
M  V30 6965 H 642.177 -1.58407 3.45959 0
M  V30 6966 H 641.689 0.19247 3.87622 0
M  V30 6967 H 639.79 -2.13263 3.05532 0
M  V30 6968 H 639.903 -1.13598 4.65438 0
M  V30 6969 H 638.267 -0.697479 2.44964 0
M  V30 6970 H 639.05 0.704267 3.35998 0
M  V30 6971 N 641.495 -1.56914 -0.146875 0
M  V30 6972 C 642.772 -1.74273 -0.888165 0
M  V30 6973 C 643.152 -0.69496 -1.99333 0
M  V30 6974 O 642.5 0.286093 -2.26702 0
M  V30 6975 C 642.71 -3.18336 -1.43051 0
M  V30 6976 C 644.058 -3.80024 -1.89387 0
M  V30 6977 O 645.082 -3.21765 -1.52792 0
M  V30 6978 O 643.941 -4.82367 -2.56874 0
M  V30 6979 H 641.035 -0.712565 -0.419738 0
M  V30 6980 H 643.581 -1.6918 -0.132791 0
M  V30 6981 H 642.353 -3.86092 -0.636274 0
M  V30 6982 H 641.976 -3.27854 -2.24938 0
M  V30 6983 N 642.974 0.416227 -1.52004 0
M  V30 6984 C 644.202 1.18573 -1.69553 0
M  V30 6985 C 644.617 1.84472 -0.401919 0
M  V30 6986 O 643.974 1.71593 0.621463 0
M  V30 6987 C 644.025 2.25413 -2.82615 0
M  V30 6988 O 643.746 1.62205 -4.06966 0
M  V30 6989 C 645.247 3.15297 -3.11613 0
M  V30 6990 H 642.467 0.356582 -0.56841 0
M  V30 6991 H 645.011 0.490618 -1.98528 0
M  V30 6992 H 643.166 2.90604 -2.56179 0
M  V30 6993 H 643.58 2.3298 -4.69916 0
M  V30 6994 H 645.054 3.86351 -3.94255 0
M  V30 6995 H 645.531 3.77264 -2.24874 0
M  V30 6996 H 646.137 2.55783 -3.39787 0
M  V30 6997 N 644.452 1.42507 0.673017 0
M  V30 6998 C 645.682 1.46261 1.45916 0
M  V30 6999 C 646.09 0.0729724 1.89059 0
M  V30 7000 O 645.433 -0.922987 1.58829 0
M  V30 7001 C 645.495 2.32853 2.73898 0
M  V30 7002 C 645.159 3.80699 2.52819 0
M  V30 7003 C 646.156 4.72307 2.17306 0
M  V30 7004 C 643.841 4.24983 2.67758 0
M  V30 7005 C 645.835 6.06192 1.97003 0
M  V30 7006 C 643.522 5.58927 2.4707 0
M  V30 7007 C 644.52 6.49348 2.11746 0
M  V30 7008 O 644.208 7.80817 1.91259 0
M  V30 7009 H 643.94 0.499561 0.455428 0
M  V30 7010 H 646.494 1.87697 0.834196 0
M  V30 7011 H 644.724 1.86268 3.38882 0
M  V30 7012 H 646.413 2.28041 3.35786 0
M  V30 7013 H 647.179 4.39378 2.05359 0
M  V30 7014 H 643.058 3.54893 2.94231 0
M  V30 7015 H 646.602 6.76731 1.69355 0
M  V30 7016 H 642.499 5.91429 2.58615 0
M  V30 7017 H 643.267 7.92194 2.05843 0
M  V30 7018 N 645.93 -0.909495 1.28709 0
M  V30 7019 C 646.84 -2.04558 1.14861 0
M  V30 7020 C 647.856 -1.73842 0.0741621 0
M  V30 7021 O 649.032 -1.99383 0.2843 0
M  V30 7022 C 646.097 -3.36957 0.816148 0
M  V30 7023 C 645.158 -3.81255 1.97341 0
M  V30 7024 C 644.391 -5.07335 1.65671 0
M  V30 7025 O 644.614 -5.67514 0.573053 0
M  V30 7026 O 643.548 -5.47449 2.50167 0
M  V30 7027 H 647.374 -2.19161 2.10243 0
M  V30 7028 H 644.959 -1.03159 1.08068 0
M  V30 7029 H 646.841 -4.16436 0.644873 0
M  V30 7030 H 645.516 -3.2352 -0.107983 0
M  V30 7031 H 644.423 -3.02584 2.19986 0
M  V30 7032 H 645.756 -3.99261 2.87839 0
M  V30 7033 N 647.408 -1.11026 -1.11852 0
M  V30 7034 C 648.633 -0.879064 -1.87849 0
M  V30 7035 C 649.058 0.565406 -1.79401 0
M  V30 7036 O 648.416 1.39886 -1.15333 0
M  V30 7037 C 648.464 -1.33985 -3.34784 0
M  V30 7038 O 647.568 -0.508803 -4.09249 0
M  V30 7039 H 646.909 -0.316992 -0.583448 0
M  V30 7040 H 649.439 -1.47863 -1.41413 0
M  V30 7041 H 649.449 -1.33248 -3.85628 0
M  V30 7042 H 648.124 -2.39172 -3.40249 0
M  V30 7043 H 646.701 -0.581913 -3.68332 0
M  V30 7044 N 648.886 1.2938 -0.899927 0
M  V30 7045 C 649.819 2.25911 -0.322386 0
M  V30 7046 C 650.797 1.52447 0.565567 0
M  V30 7047 O 651.981 1.81404 0.512324 0
M  V30 7048 C 649.108 3.3436 0.540455 0
M  V30 7049 C 648.154 4.25579 -0.280211 0
M  V30 7050 S 648.987 5.08526 -1.67814 0
M  V30 7051 C 650.143 6.20476 -0.822224 0
M  V30 7052 H 650.376 2.7455 -1.1406 0
M  V30 7053 H 647.909 1.37606 -0.700285 0
M  V30 7054 H 649.867 3.97303 1.0325 0
M  V30 7055 H 648.528 2.84416 1.33291 0
M  V30 7056 H 647.721 5.02574 0.378915 0
M  V30 7057 H 647.323 3.67287 -0.705405 0
M  V30 7058 H 649.615 6.77485 -0.0457138 0
M  V30 7059 H 650.558 6.90606 -1.56426 0
M  V30 7060 H 650.966 5.63243 -0.37651 0
M  V30 7061 N 650.364 0.662433 1.43002 0
M  V30 7062 C 651.312 -0.035345 2.32573 0
M  V30 7063 C 652.306 -0.803505 1.49131 0
M  V30 7064 O 653.512 -0.712865 1.65282 0
M  V30 7065 H 649.887 -0.0302194 0.751393 0
M  V30 7066 H 651.858 0.737686 2.89138 0
M  V30 7067 C 650.607 -0.981575 3.33557 0
M  V30 7068 H 649.93 -0.399914 3.97795 0
M  V30 7069 H 651.37 -1.43873 3.98844 0
M  V30 7070 C 649.829 -2.08204 2.64863 0
M  V30 7071 O 650.359 -3.16698 2.47113 0
M  V30 7072 N 648.565 -1.85022 2.24088 0
M  V30 7073 H 648.112 -0.967909 2.38724 0
M  V30 7074 H 648.07 -2.58845 1.78457 0
M  V30 7075 N 651.842 -1.52309 0.404946 0
M  V30 7076 C 652.789 -2.26898 -0.422597 0
M  V30 7077 C 653.759 -1.2914 -1.04461 0
M  V30 7078 O 654.944 -1.57996 -1.06967 0
M  V30 7079 C 652.084 -3.09053 -1.53559 0
M  V30 7080 C 651.197 -4.21762 -0.934908 0
M  V30 7081 C 650.332 -4.91283 -2.02025 0
M  V30 7082 C 649.371 -5.95962 -1.39628 0
M  V30 7083 N 648.508 -6.59017 -2.42159 0
M  V30 7084 H 653.348 -2.97188 0.219903 0
M  V30 7085 H 650.885 -1.46607 0.120282 0
M  V30 7086 H 652.843 -3.54987 -2.19181 0
M  V30 7087 H 651.473 -2.40942 -2.14818 0
M  V30 7088 H 650.525 -3.80029 -0.167854 0
M  V30 7089 H 651.837 -4.96864 -0.439073 0
M  V30 7090 H 650.991 -5.40601 -2.75383 0
M  V30 7091 H 649.73 -4.15741 -2.54973 0
M  V30 7092 H 648.735 -5.45968 -0.648023 0
M  V30 7093 H 649.96 -6.73445 -0.874553 0
M  V30 7094 H 647.906 -5.86306 -2.94247 0
M  V30 7095 H 647.823 -7.2978 -1.97376 0
M  V30 7096 H 649.091 -7.12974 -3.15099 0
M  V30 7097 N 653.32 -0.135238 -1.57019 0
M  V30 7098 C 654.25 0.805235 -2.19176 0
M  V30 7099 C 655.231 1.2656 -1.13651 0
M  V30 7100 O 656.416 1.32528 -1.4195 0
M  V30 7101 C 653.546 2.04914 -2.80406 0
M  V30 7102 C 652.5 1.72598 -3.91655 0
M  V30 7103 C 651.826 3.04154 -4.39766 0
M  V30 7104 C 653.126 0.981709 -5.12991 0
M  V30 7105 H 654.82 0.287232 -2.98019 0
M  V30 7106 H 652.366 0.136714 -1.4335 0
M  V30 7107 H 654.319 2.71178 -3.22553 0
M  V30 7108 H 653.043 2.59067 -1.98877 0
M  V30 7109 H 651.702 1.08717 -3.50109 0
M  V30 7110 H 651.35 3.56274 -3.55075 0
M  V30 7111 H 651.05 2.83299 -5.14796 0
M  V30 7112 H 652.574 3.71509 -4.84576 0
M  V30 7113 H 653.988 1.5462 -5.52056 0
M  V30 7114 H 652.385 0.873533 -5.93708 0
M  V30 7115 H 653.455 -0.0286887 -4.84892 0
M  V30 7116 N 654.798 1.5699 0.138552 0
M  V30 7117 C 655.708 2.02174 1.19008 0
M  V30 7118 C 656.724 0.938622 1.46512 0
M  V30 7119 O 657.9 1.24872 1.58016 0
M  V30 7120 C 654.965 2.40045 2.50159 0
M  V30 7121 C 654.026 3.62346 2.30226 0
M  V30 7122 C 653.259 3.98401 3.55123 0
M  V30 7123 O 653.482 3.35019 4.61647 0
M  V30 7124 O 652.416 4.91606 3.47285 0
M  V30 7125 H 656.242 2.91954 0.836452 0
M  V30 7126 H 653.827 1.45293 0.347907 0
M  V30 7127 H 655.709 2.65225 3.27465 0
M  V30 7128 H 654.384 1.53417 2.85035 0
M  V30 7129 H 653.291 3.42341 1.50843 0
M  V30 7130 H 654.624 4.49617 2.00262 0
M  V30 7131 N 656.276 -0.40816 1.52223 0
M  V30 7132 C 657.224 -1.51788 1.76248 0
M  V30 7133 C 658.218 -1.57264 0.629638 0
M  V30 7134 O 659.424 -1.60659 0.811704 0
M  V30 7135 H 655.799 -0.504823 0.557367 0
M  V30 7136 H 657.77 -1.2871 2.69214 0
M  V30 7137 C 656.519 -2.89145 1.93107 0
M  V30 7138 H 655.842 -2.85674 2.79697 0
M  V30 7139 H 657.282 -3.66082 2.13916 0
M  V30 7140 C 655.741 -3.29581 0.698431 0
M  V30 7141 O 656.271 -4.01479 -0.133238 0
M  V30 7142 N 654.477 -2.85651 0.53405 0
M  V30 7143 H 654.024 -2.2731 1.21194 0
M  V30 7144 H 653.982 -3.13065 -0.289387 0
M  V30 7145 N 657.755 -1.42862 -0.66545 0
M  V30 7146 C 659.171 -1.25993 -0.979687 0
M  V30 7147 C 659.371 -0.170831 -2.00775 0
M  V30 7148 O 658.427 0.454827 -2.4837 0
M  V30 7149 C 659.74 -2.62005 -1.47559 0
M  V30 7150 C 661.288 -2.69437 -1.59288 0
M  V30 7151 C 661.763 -4.05838 -2.12272 0
M  V30 7152 N 663.254 -4.0784 -2.19592 0
M  V30 7153 C 663.989 -5.10205 -2.61684 0
M  V30 7154 N 663.485 -6.22949 -3.03161 0
M  V30 7155 N 665.278 -4.9756 -2.61516 0
M  V30 7156 H 657.429 -2.12395 0.0150493 0
M  V30 7157 H 659.692 -0.946355 -0.0558187 0
M  V30 7158 H 659.398 -3.42605 -0.794654 0
M  V30 7159 H 659.272 -2.86566 -2.45275 0
M  V30 7160 H 661.659 -1.89178 -2.26486 0
M  V30 7161 H 661.74 -2.48655 -0.600374 0
M  V30 7162 H 661.384 -4.86559 -1.4568 0
M  V30 7163 H 661.314 -4.23977 -3.12331 0
M  V30 7164 H 663.805 -3.26452 -1.90361 0
M  V30 7165 H 664.118 -6.96899 -3.33993 0
M  V30 7166 H 662.463 -6.2644 -3.00995 0
M  V30 7167 H 665.654 -4.08551 -2.28481 0
M  V30 7168 H 665.827 -5.77468 -2.93999 0
M  V30 7169 N 659.233 0.902656 -1.29189 0
M  V30 7170 C 660.18 2.00643 -1.14066 0
M  V30 7171 C 661.15 1.66064 -0.0347756 0
M  V30 7172 O 662.335 1.8973 -0.201752 0
M  V30 7173 C 659.475 3.35214 -0.820104 0
M  V30 7174 C 658.588 3.82594 -2.00614 0
M  V30 7175 C 657.723 5.05727 -1.62522 0
M  V30 7176 C 656.762 5.45469 -2.77724 0
M  V30 7177 N 655.899 6.59789 -2.40048 0
M  V30 7178 H 660.739 2.1291 -2.08502 0
M  V30 7179 H 658.276 1.04271 -1.03759 0
M  V30 7180 H 660.234 4.12643 -0.614949 0
M  V30 7181 H 658.864 3.22682 0.0873452 0
M  V30 7182 H 657.916 3.01226 -2.32308 0
M  V30 7183 H 659.228 4.07999 -2.86946 0
M  V30 7184 H 658.382 5.90732 -1.38277 0
M  V30 7185 H 657.121 4.82155 -0.733333 0
M  V30 7186 H 656.126 4.59 -3.02653 0
M  V30 7187 H 657.351 5.71024 -3.67572 0
M  V30 7188 H 655.297 6.37826 -1.53343 0
M  V30 7189 H 655.214 6.84975 -3.19914 0
M  V30 7190 H 656.482 7.4807 -2.19116 0
M  V30 7191 N 660.711 1.11618 1.11262 0
M  V30 7192 C 661.988 0.777876 1.79467 0
M  V30 7193 C 662.368 -0.733774 1.97937 0
M  V30 7194 O 661.716 -1.66443 1.56554 0
M  V30 7195 C 661.926 1.5431 3.13032 0
M  V30 7196 C 663.274 1.72357 3.88044 0
M  V30 7197 O 664.298 1.5075 3.22727 0
M  V30 7198 O 663.157 2.08276 5.05256 0
M  V30 7199 H 660.251 0.282018 0.777428 0
M  V30 7200 H 662.797 1.21971 1.17988 0
M  V30 7201 H 661.569 2.57132 2.94956 0
M  V30 7202 H 661.192 1.09495 3.82226 0
M  V30 7203 N 662.189 -1.289 0.906776 0
M  V30 7204 C 663.438 -1.9455 0.532262 0
M  V30 7205 C 663.751 -1.72219 -0.927353 0
M  V30 7206 O 664.957 -2.32033 -1.40971 0
M  V30 7207 C 663.413 -3.48438 0.901041 0
M  V30 7208 C 663.021 -3.79558 2.37991 0
M  V30 7209 C 664.765 -4.20284 0.596777 0
M  V30 7210 C 662.672 -5.26723 2.68918 0
M  V30 7211 H 661.602 -0.728259 0.195333 0
M  V30 7212 H 664.253 -1.46519 1.10474 0
M  V30 7213 H 662.635 -3.95162 0.257419 0
M  V30 7214 H 663.809 -3.43668 3.06967 0
M  V30 7215 H 662.124 -3.20868 2.65391 0
M  V30 7216 H 664.721 -5.28612 0.8046 0
M  V30 7217 H 665.064 -4.13694 -0.465072 0
M  V30 7218 H 665.597 -3.79315 1.19855 0
M  V30 7219 H 662.336 -5.38384 3.73928 0
M  V30 7220 H 661.856 -5.63836 2.04571 0
M  V30 7221 H 663.535 -5.94391 2.55555 0
M  V30 7222 N 663.667 -0.670007 -1.42649 0
M  V30 7223 C 664.914 -0.190286 -2.01604 0
M  V30 7224 C 665.242 1.20155 -1.52948 0
M  V30 7225 O 664.497 1.81964 -0.72026 0
M  V30 7226 C 664.796 -0.168298 -3.57004 0
M  V30 7227 C 664.462 -1.50415 -4.25072 0
M  V30 7228 C 663.124 -1.86992 -4.43382 0
M  V30 7229 C 665.476 -2.38414 -4.63474 0
M  V30 7230 C 662.804 -3.11203 -4.97363 0
M  V30 7231 C 665.156 -3.61933 -5.18833 0
M  V30 7232 C 663.82 -3.98685 -5.35356 0
M  V30 7233 H 663.09 -0.0696305 -0.737721 0
M  V30 7234 H 665.737 -0.864044 -1.70899 0
M  V30 7235 H 664.042 0.588958 -3.87348 0
M  V30 7236 H 665.739 0.22001 -4.00396 0
M  V30 7237 H 662.329 -1.20959 -4.11177 0
M  V30 7238 H 666.513 -2.11442 -4.49006 0
M  V30 7239 H 661.769 -3.39705 -5.08341 0
M  V30 7240 H 665.943 -4.30326 -5.47533 0
M  V30 7241 H 663.57 -4.95009 -5.76949 0
M  V30 7242 N 665.145 1.52092 -0.413018 0
M  V30 7243 C 666.077 2.24819 0.445994 0
M  V30 7244 C 667.09 1.27925 1.00692 0
M  V30 7245 O 668.279 1.53845 0.905204 0
M  V30 7246 C 665.379 2.96951 1.6332 0
M  V30 7247 C 664.552 4.20746 1.19548 0
M  V30 7248 C 663.611 4.75668 2.25003 0
M  V30 7249 O 662.637 5.38148 1.85434 0
M  V30 7250 N 663.839 4.57579 3.57214 0
M  V30 7251 H 666.604 2.99176 -0.177209 0
M  V30 7252 H 664.165 1.60102 -0.240601 0
M  V30 7253 H 666.157 3.30586 2.33441 0
M  V30 7254 H 664.727 2.25756 2.16225 0
M  V30 7255 H 663.947 3.92881 0.32224 0
M  V30 7256 H 665.235 5.01132 0.880033 0
M  V30 7257 H 664.633 4.07758 3.92109 0
M  V30 7258 H 663.19 4.95642 4.23299 0
M  V30 7259 N 666.623 0.143563 1.56945 0
M  V30 7260 C 667.9 -0.553285 1.87612 0
M  V30 7261 C 668.28 -1.83195 1.04894 0
M  V30 7262 O 667.628 -2.28102 0.134773 0
M  V30 7263 C 667.838 -0.822055 3.3918 0
M  V30 7264 C 669.186 -1.16435 4.08324 0
M  V30 7265 O 670.21 -0.911522 3.4434 0
M  V30 7266 O 669.069 -1.63996 5.21313 0
M  V30 7267 H 666.163 -0.281851 0.777489 0
M  V30 7268 H 668.709 0.179916 1.68744 0
M  V30 7269 H 667.481 0.0830265 3.91212 0
M  V30 7270 H 667.104 -1.60956 3.63564 0
M  V30 7271 N 668.101 -1.57061 -0.130224 0
M  V30 7272 C 669.35 -1.83446 -0.838488 0
M  V30 7273 C 669.663 -0.727468 -1.81569 0
M  V30 7274 O 670.869 -0.877394 -2.56932 0
M  V30 7275 C 669.325 -3.25201 -1.54182 0
M  V30 7276 C 668.933 -4.4388 -0.606178 0
M  V30 7277 C 670.677 -3.60844 -2.23588 0
M  V30 7278 C 668.584 -5.76661 -1.31209 0
M  V30 7279 H 667.514 -0.684185 -0.316871 0
M  V30 7280 H 670.165 -1.83273 -0.0912059 0
M  V30 7281 H 668.547 -3.1981 -2.33533 0
M  V30 7282 H 669.721 -4.60545 0.153308 0
M  V30 7283 H 668.036 -4.16395 -0.0196705 0
M  V30 7284 H 670.633 -4.57313 -2.77072 0
M  V30 7285 H 670.976 -2.87724 -3.00867 0
M  V30 7286 H 671.509 -3.67971 -1.51137 0
M  V30 7287 H 668.248 -6.52922 -0.580823 0
M  V30 7288 H 667.768 -5.63902 -2.04387 0
M  V30 7289 H 669.447 -6.20035 -1.8484 0
M  V30 7290 N 669.579 0.400081 -1.52437 0
M  V30 7291 C 670.825 1.14788 -1.67187 0
M  V30 7292 C 671.158 1.89928 -0.405074 0
M  V30 7293 O 670.433 1.85118 0.596804 0
M  V30 7294 C 670.716 2.13507 -2.89977 0
M  V30 7295 C 670.569 1.42204 -4.2673 0
M  V30 7296 C 671.888 3.14069 -3.083 0
M  V30 7297 H 669.007 0.415939 -0.608411 0
M  V30 7298 H 671.649 0.432542 -1.85011 0
M  V30 7299 H 669.799 2.7451 -2.74912 0
M  V30 7300 H 671.471 0.842503 -4.53541 0
M  V30 7301 H 669.714 0.723939 -4.27717 0
M  V30 7302 H 670.385 2.14281 -5.08712 0
M  V30 7303 H 672.861 2.63148 -3.22323 0
M  V30 7304 H 671.737 3.80398 -3.95713 0
M  V30 7305 H 671.998 3.82309 -2.22018 0
M  V30 7306 N 671.057 1.43213 0.657864 0
M  V30 7307 C 672.004 1.48011 1.77092 0
M  V30 7308 C 672.974 0.330291 1.62783 0
M  V30 7309 O 674.159 0.536787 1.83094 0
M  V30 7310 C 671.299 1.40461 3.15222 0
M  V30 7311 C 670.412 2.65612 3.40697 0
M  V30 7312 C 669.547 2.50083 4.68649 0
M  V30 7313 C 668.586 3.70525 4.87214 0
M  V30 7314 N 667.723 3.53835 6.0642 0
M  V30 7315 H 672.563 2.43121 1.72326 0
M  V30 7316 H 670.1 1.20687 0.841013 0
M  V30 7317 H 672.058 1.34079 3.95068 0
M  V30 7318 H 670.688 0.489359 3.19069 0
M  V30 7319 H 669.74 2.82292 2.54982 0
M  V30 7320 H 671.052 3.5509 3.50303 0
M  V30 7321 H 670.206 2.41383 5.56614 0
M  V30 7322 H 668.945 1.58121 4.61356 0
M  V30 7323 H 667.95 3.79639 3.97686 0
M  V30 7324 H 669.175 4.63489 4.96341 0
M  V30 7325 H 667.121 2.64604 6.00267 0
M  V30 7326 H 667.038 4.36912 6.16963 0
M  V30 7327 H 668.306 3.48978 6.97019 0
M  V30 7328 N 672.536 -0.895792 1.29666 0
M  V30 7329 C 673.766 -1.67757 1.20586 0
M  V30 7330 C 674.174 -1.87729 -0.235432 0
M  V30 7331 O 673.517 -1.41706 -1.16898 0
M  V30 7332 C 673.579 -3.08117 1.85215 0
M  V30 7333 C 673.243 -3.1136 3.3452 0
M  V30 7334 C 674.24 -2.91217 4.30684 0
M  V30 7335 C 671.925 -3.33302 3.75786 0
M  V30 7336 C 673.919 -2.92955 5.66089 0
M  V30 7337 C 671.606 -3.3467 5.11311 0
M  V30 7338 C 672.604 -3.14519 6.06273 0
M  V30 7339 O 672.292 -3.15684 7.39323 0
M  V30 7340 H 672.024 -0.530601 0.418854 0
M  V30 7341 H 674.578 -1.12831 1.71634 0
M  V30 7342 H 672.808 -3.64661 1.28683 0
M  V30 7343 H 674.497 -3.68399 1.70403 0
M  V30 7344 H 675.263 -2.74074 4.00136 0
M  V30 7345 H 671.142 -3.48025 3.02324 0
M  V30 7346 H 674.686 -2.77145 6.40185 0
M  V30 7347 H 670.583 -3.51346 5.41504 0
M  V30 7348 H 671.351 -3.31924 7.48177 0
M  V30 7349 N 674.014 -1.12206 -1.10668 0
M  V30 7350 C 674.964 -0.75669 -2.15077 0
M  V30 7351 C 675.948 0.243154 -1.59052 0
M  V30 7352 O 677.14 0.0490268 -1.76932 0
M  V30 7353 C 674.269 -0.210303 -3.42655 0
M  V30 7354 C 673.355 -1.23829 -4.05619 0
M  V30 7355 N 673.746 -2.43513 -4.43323 0
M  V30 7356 C 672.044 -1.08309 -4.32649 0
M  V30 7357 C 672.745 -3.09138 -4.92756 0
M  V30 7358 N 671.721 -2.36593 -4.89413 0
M  V30 7359 H 675.523 -1.66747 -2.42018 0
M  V30 7360 H 673.037 -1.00248 -1.27765 0
M  V30 7361 H 675.034 0.0696287 -4.16842 0
M  V30 7362 H 673.694 0.694967 -3.17176 0
M  V30 7363 H 674.705 -2.80912 -4.35097 0
M  V30 7364 H 671.382 -0.234919 -4.16839 0
M  V30 7365 H 672.772 -4.11049 -5.31496 0
M  V30 7366 N 675.492 1.28418 -0.913599 0
M  V30 7367 C 676.738 1.9527 -0.547484 0
M  V30 7368 C 677.071 1.71745 0.906486 0
M  V30 7369 O 676.346 1.03834 1.64465 0
M  V30 7370 C 676.629 3.49748 -0.857205 0
M  V30 7371 C 676.482 3.82675 -2.3639 0
M  V30 7372 C 677.801 4.3868 -0.353258 0
M  V30 7373 H 674.92 0.709236 -0.200381 0
M  V30 7374 H 677.562 1.51789 -1.14281 0
M  V30 7375 H 675.712 3.86915 -0.350548 0
M  V30 7376 H 677.384 3.55378 -2.94116 0
M  V30 7377 H 675.627 3.29724 -2.81894 0
M  V30 7378 H 676.298 4.90547 -2.53115 0
M  V30 7379 H 678.774 4.08584 -0.787288 0
M  V30 7380 H 677.65 5.45621 -0.599049 0
M  V30 7381 H 677.911 4.35753 0.746413 0
M  V30 7382 N 676.97 0.677563 1.42291 0
M  V30 7383 C 677.917 0.000947061 2.308 0
M  V30 7384 C 678.887 -0.789889 1.46116 0
M  V30 7385 O 680.072 -0.761578 1.74942 0
M  V30 7386 C 677.212 -0.942387 3.31984 0
M  V30 7387 C 676.325 -0.14508 4.31756 0
M  V30 7388 C 675.46 -1.08442 5.20013 0
M  V30 7389 C 674.499 -0.278958 6.11464 0
M  V30 7390 N 673.636 -1.17115 6.92263 0
M  V30 7391 H 678.476 0.761521 2.88106 0
M  V30 7392 H 676.013 0.38727 1.41911 0
M  V30 7393 H 677.971 -1.50317 3.89179 0
M  V30 7394 H 676.601 -1.66956 2.76271 0
M  V30 7395 H 675.653 0.532368 3.76656 0
M  V30 7396 H 676.965 0.48015 4.96484 0
M  V30 7397 H 676.119 -1.71504 5.81955 0
M  V30 7398 H 674.858 -1.74353 4.55469 0
M  V30 7399 H 673.863 0.364856 5.48588 0
M  V30 7400 H 675.088 0.376099 6.78058 0
M  V30 7401 H 673.034 -1.81661 6.30345 0
M  V30 7402 H 672.951 -0.601063 7.53607 0
M  V30 7403 H 674.219 -1.78915 7.58689 0
M  V30 7404 N 678.448 -1.51871 0.421078 0
M  V30 7405 C 679.688 -2.03848 -0.150167 0
M  V30 7406 C 680.052 -1.29925 -1.41363 0
M  V30 7407 O 681.253 -1.7219 -2.06408 0
M  V30 7408 C 679.524 -3.55374 -0.38003 0
M  V30 7409 S 681.083 -4.29111 -0.917011 0
M  V30 7410 H 677.901 -0.709904 -0.0394639 0
M  V30 7411 H 680.503 -1.86799 0.576746 0
M  V30 7412 H 679.207 -4.0675 0.546122 0
M  V30 7413 H 678.738 -3.76687 -1.13448 0
M  V30 7414 H 680.753 -4.44944 -2.19635 0
M  V30 7415 N 679.926 -0.151884 -1.56866 0
M  V30 7416 C 681.203 0.543328 -1.87902 0
M  V30 7417 C 681.583 1.82636 -1.05864 0
M  V30 7418 O 680.931 2.28028 -0.146868 0
M  V30 7419 C 681.141 0.804056 -3.39611 0
M  V30 7420 C 682.489 1.14267 -4.08935 0
M  V30 7421 O 683.513 0.893248 -3.44818 0
M  V30 7422 O 682.372 1.61229 -5.22176 0
M  V30 7423 H 679.466 0.277724 -0.778973 0
M  V30 7424 H 682.012 -0.188862 -1.68646 0
M  V30 7425 H 680.784 -0.103772 -3.91162 0
M  V30 7426 H 680.407 1.59025 -3.64413 0
M  V30 7427 N 681.404 1.57128 0.121893 0
M  V30 7428 C 682.352 2.01109 1.16868 0
M  V30 7429 C 683.346 0.907532 1.43039 0
M  V30 7430 O 684.552 1.09274 1.43036 0
M  V30 7431 H 680.927 0.640539 0.393971 0
M  V30 7432 H 682.898 2.88261 0.771224 0
M  V30 7433 C 681.647 2.42887 2.48799 0
M  V30 7434 H 680.97 3.2737 2.29498 0
M  V30 7435 H 682.41 2.77461 3.20611 0
M  V30 7436 C 680.869 1.29137 3.11168 0
M  V30 7437 O 681.399 0.605756 3.97106 0
M  V30 7438 N 679.605 1.04916 2.71 0
M  V30 7439 H 679.152 1.60848 2.01211 0
M  V30 7440 H 679.11 0.290016 3.1306 0
M  V30 7441 N 682.882 -0.391992 1.52647 0
M  V30 7442 C 683.792 -1.503 1.80131 0
M  V30 7443 C 684.808 -1.59825 0.687882 0
M  V30 7444 O 685.984 -1.76218 0.975149 0
M  V30 7445 C 683.049 -2.85863 1.96171 0
M  V30 7446 C 682.11 -2.86084 3.20085 0
M  V30 7447 C 681.343 -4.15181 3.35351 0
M  V30 7448 O 681.566 -5.09981 2.55491 0
M  V30 7449 O 680.5 -4.22603 4.28591 0
M  V30 7450 H 684.326 -1.30007 2.74466 0
M  V30 7451 H 681.911 -0.579539 1.37701 0
M  V30 7452 H 683.793 -3.66236 2.08445 0
M  V30 7453 H 682.468 -3.06189 1.05025 0
M  V30 7454 H 681.375 -2.04504 3.13256 0
M  V30 7455 H 682.708 -2.7071 4.11068 0
M  V30 7456 N 684.36 -1.4356 -0.65026 0
M  V30 7457 C 685.27 -1.514 -1.79207 0
M  V30 7458 C 686.286 -0.400895 -1.69319 0
M  V30 7459 O 687.462 -0.655458 -1.90436 0
M  V30 7460 C 684.527 -1.43737 -3.155 0
M  V30 7461 C 683.588 -2.65743 -3.37163 0
M  V30 7462 C 682.821 -2.58436 -4.66954 0
M  V30 7463 O 683.044 -1.63374 -5.46503 0
M  V30 7464 O 681.978 -3.48984 -4.90402 0
M  V30 7465 H 685.804 -2.47825 -1.75547 0
M  V30 7466 H 683.389 -1.25594 -0.809111 0
M  V30 7467 H 685.271 -1.41916 -3.96784 0
M  V30 7468 H 683.946 -0.504488 -3.19745 0
M  V30 7469 H 682.853 -2.73136 -2.55632 0
M  V30 7470 H 684.186 -3.58014 -3.37768 0
M  V30 7471 N 685.838 0.888903 -1.30139 0
M  V30 7472 C 687.087 1.63507 -1.18103 0
M  V30 7473 C 687.4 1.93808 0.264141 0
M  V30 7474 O 688.606 2.66744 0.505966 0
M  V30 7475 C 687.062 2.94673 -2.0663 0
M  V30 7476 C 686.67 2.71926 -3.56034 0
M  V30 7477 C 688.414 3.72626 -2.03346 0
M  V30 7478 C 686.321 3.98884 -4.3663 0
M  V30 7479 H 685.251 0.613426 -0.438435 0
M  V30 7480 H 687.902 0.984427 -1.54859 0
M  V30 7481 H 686.284 3.61009 -1.62754 0
M  V30 7482 H 687.458 2.14116 -4.08033 0
M  V30 7483 H 685.773 2.07353 -3.61101 0
M  V30 7484 H 688.37 4.66775 -2.60816 0
M  V30 7485 H 688.713 4.03712 -1.016 0
M  V30 7486 H 689.246 3.13147 -2.45324 0
M  V30 7487 H 685.985 3.72959 -5.39056 0
M  V30 7488 H 685.505 4.56214 -3.89396 0
M  V30 7489 H 687.184 4.66938 -4.47859 0
M  V30 7490 N 687.317 1.12792 1.10072 0
M  V30 7491 C 688.249 0.757003 2.16338 0
M  V30 7492 C 689.262 -0.218144 1.61332 0
M  V30 7493 O 690.451 0.0010727 1.785 0
M  V30 7494 C 687.551 0.100303 3.38752 0
M  V30 7495 C 686.724 1.10586 4.2319 0
M  V30 7496 C 685.783 0.47609 5.24042 0
M  V30 7497 O 684.809 1.13418 5.57786 0
M  V30 7498 N 686.011 -0.754823 5.75572 0
M  V30 7499 H 688.776 1.6714 2.48766 0
M  V30 7500 H 686.337 1.02003 1.25726 0
M  V30 7501 H 688.329 -0.333092 4.03327 0
M  V30 7502 H 686.899 -0.716915 3.04268 0
M  V30 7503 H 686.119 1.71677 3.54853 0
M  V30 7504 H 687.407 1.78571 4.76435 0
M  V30 7505 H 686.805 -1.30838 5.50362 0
M  V30 7506 H 685.362 -1.13098 6.41913 0
M  V30 7507 N 688.795 -1.27931 0.920396 0
M  V30 7508 C 689.742 -2.27085 0.412422 0
M  V30 7509 C 690.712 -1.57858 -0.516725 0
M  V30 7510 O 691.897 -1.85717 -0.437475 0
M  V30 7511 C 689.037 -3.43466 -0.335399 0
M  V30 7512 C 688.15 -4.27425 0.627017 0
M  V30 7513 C 687.285 -5.31016 -0.139916 0
M  V30 7514 C 686.324 -6.06641 0.815683 0
M  V30 7515 N 685.461 -7.02052 0.0818439 0
M  V30 7516 H 690.301 -2.69913 1.26298 0
M  V30 7517 H 687.838 -1.32732 0.634076 0
M  V30 7518 H 689.796 -4.09744 -0.785226 0
M  V30 7519 H 688.426 -3.01611 -1.15025 0
M  V30 7520 H 687.478 -3.6113 1.19537 0
M  V30 7521 H 688.79 -4.79969 1.35763 0
M  V30 7522 H 687.944 -6.03208 -0.649998 0
M  V30 7523 H 686.683 -4.79257 -0.903543 0
M  V30 7524 H 685.688 -5.33294 1.33708 0
M  V30 7525 H 686.913 -6.60489 1.57897 0
M  V30 7526 H 684.859 -6.52634 -0.663671 0
M  V30 7527 H 684.776 -7.52249 0.752163 0
M  V30 7528 H 686.044 -7.78432 -0.407825 0
M  V30 7529 N 690.273 -0.685099 -1.4193 0
M  V30 7530 C 691.522 -0.208816 -2.00616 0
M  V30 7531 C 691.835 1.19506 -1.54847 0
M  V30 7532 O 693.041 1.76826 -2.06021 0
M  V30 7533 C 691.497 -0.322446 -3.58453 0
M  V30 7534 C 691.105 -1.73102 -4.13206 0
M  V30 7535 C 692.849 0.0945979 -4.24395 0
M  V30 7536 C 690.756 -1.79687 -5.63442 0
M  V30 7537 H 689.686 -0.0743092 -0.750329 0
M  V30 7538 H 692.337 -0.851778 -1.62533 0
M  V30 7539 H 690.719 0.388588 -3.94089 0
M  V30 7540 H 691.893 -2.46997 -3.8901 0
M  V30 7541 H 690.208 -2.09682 -3.59753 0
M  V30 7542 H 692.805 0.0656937 -5.3466 0
M  V30 7543 H 693.148 1.1316 -4.00625 0
M  V30 7544 H 693.681 -0.56579 -3.93756 0
M  V30 7545 H 690.42 -2.81404 -5.92024 0
M  V30 7546 H 689.94 -1.10162 -5.89597 0
M  V30 7547 H 691.619 -1.55498 -6.28036 0
M  V30 7548 N 691.751 1.51645 -0.429126 0
M  V30 7549 C 692.681 2.30434 0.377148 0
M  V30 7550 C 693.662 1.35493 1.02838 0
M  V30 7551 O 694.847 1.6441 1.03359 0
M  V30 7552 C 691.977 3.14038 1.48315 0
M  V30 7553 C 690.931 4.1719 0.955855 0
M  V30 7554 C 690.257 4.89263 2.15698 0
M  V30 7555 C 691.557 5.223 -0.00402136 0
M  V30 7556 H 693.251 2.98085 -0.280336 0
M  V30 7557 H 690.797 1.43354 -0.136265 0
M  V30 7558 H 692.75 3.67933 2.05435 0
M  V30 7559 H 691.474 2.44193 2.16881 0
M  V30 7560 H 690.133 3.64335 0.406929 0
M  V30 7561 H 689.781 4.15929 2.82864 0
M  V30 7562 H 689.481 5.59009 1.81059 0
M  V30 7563 H 691.005 5.45978 2.73387 0
M  V30 7564 H 692.419 5.71315 0.476607 0
M  V30 7565 H 690.816 5.99525 -0.26258 0
M  V30 7566 H 691.886 4.75638 -0.943236 0
M  V30 7567 N 693.229 0.160201 1.56784 0
M  V30 7568 C 694.176 -0.774416 2.1742 0
M  V30 7569 C 695.146 -1.23483 1.11091 0
M  V30 7570 O 696.331 -1.30499 1.39193 0
M  V30 7571 C 693.471 -2.00283 2.81035 0
M  V30 7572 C 692.584 -1.58701 4.01793 0
M  V30 7573 C 691.719 -2.76824 4.53367 0
M  V30 7574 C 690.758 -2.31679 5.66561 0
M  V30 7575 N 689.895 -3.42856 6.12694 0
M  V30 7576 H 694.735 -0.250542 2.96945 0
M  V30 7577 H 692.272 -0.111943 1.46673 0
M  V30 7578 H 694.23 -2.72316 3.16069 0
M  V30 7579 H 692.86 -2.5006 2.04132 0
M  V30 7580 H 691.912 -0.76384 3.72652 0
M  V30 7581 H 693.224 -1.21555 4.83762 0
M  V30 7582 H 692.378 -3.57029 4.90525 0
M  V30 7583 H 691.117 -3.17223 3.70433 0
M  V30 7584 H 690.122 -1.49917 5.28966 0
M  V30 7585 H 691.347 -1.9235 6.5129 0
M  V30 7586 H 689.293 -3.82852 5.32692 0
M  V30 7587 H 689.21 -3.09767 6.89624 0
M  V30 7588 H 690.478 -4.23379 6.545 0
M  V30 7589 N 694.707 -1.5719 -0.113559 0
M  V30 7590 C 695.935 -1.89328 -0.834422 0
M  V30 7591 C 696.35 -0.752018 -1.73177 0
M  V30 7592 O 695.707 0.276912 -1.80387 0
M  V30 7593 C 695.758 -3.20962 -1.66329 0
M  V30 7594 O 695.479 -4.30695 -0.802069 0
M  V30 7595 C 696.98 -3.6684 -2.48884 0
M  V30 7596 H 694.2 -0.626769 -0.239587 0
M  V30 7597 H 696.744 -2.04273 -0.0963195 0
M  V30 7598 H 694.899 -3.0767 -2.35409 0
M  V30 7599 H 695.313 -5.06175 -1.37431 0
M  V30 7600 H 696.787 -4.61692 -3.02563 0
M  V30 7601 H 697.264 -2.93765 -3.26495 0
M  V30 7602 H 697.87 -3.82938 -1.85036 0
M  V30 7603 N 696.185 0.383891 -1.52853 0
M  V30 7604 C 697.601 0.724316 -1.42218 0
M  V30 7605 C 697.801 1.93943 -0.546654 0
M  V30 7606 O 696.857 2.5249 -0.0220562 0
M  V30 7607 C 698.17 0.954635 -2.85144 0
M  V30 7608 C 699.718 1.05579 -2.94656 0
M  V30 7609 C 700.193 1.3187 -4.38605 0
M  V30 7610 N 701.684 1.38681 -4.41952 0
M  V30 7611 C 702.419 1.60699 -5.50421 0
M  V30 7612 N 701.915 1.80154 -6.68967 0
M  V30 7613 N 703.708 1.6292 -5.37972 0
M  V30 7614 H 695.859 -0.4156 -2.08294 0
M  V30 7615 H 698.122 -0.123776 -0.939885 0
M  V30 7616 H 697.828 0.133829 -3.51445 0
M  V30 7617 H 697.702 1.86788 -3.27704 0
M  V30 7618 H 700.089 1.86716 -2.2852 0
M  V30 7619 H 700.17 0.120338 -2.55517 0
M  V30 7620 H 699.814 0.512416 -5.05309 0
M  V30 7621 H 699.744 2.26708 -4.75301 0
M  V30 7622 H 702.235 1.25334 -3.56511 0
M  V30 7623 H 702.548 1.96476 -7.47407 0
M  V30 7624 H 700.893 1.77368 -6.71986 0
M  V30 7625 H 704.084 1.47276 -4.44328 0
M  V30 7626 H 704.257 1.79739 -6.22574 0
M  V30 7627 N 697.663 1.43903 0.642637 0
M  V30 7628 C 698.573 1.52349 1.78401 0
M  V30 7629 C 699.589 0.409869 1.69104 0
M  V30 7630 O 700.765 0.665548 1.90085 0
M  V30 7631 C 697.83 1.45408 3.14734 0
M  V30 7632 C 696.891 2.67528 3.35749 0
M  V30 7633 C 696.124 2.60909 4.65577 0
M  V30 7634 O 696.347 1.6627 5.45628 0
M  V30 7635 O 695.281 3.5158 4.88544 0
M  V30 7636 H 699.107 2.48752 1.7423 0
M  V30 7637 H 696.692 1.26021 0.802439 0
M  V30 7638 H 698.574 1.44019 3.96026 0
M  V30 7639 H 697.249 0.521437 3.19473 0
M  V30 7640 H 696.156 2.74487 2.5418 0
M  V30 7641 H 697.489 3.598 3.35864 0
M  V30 7642 N 699.141 -0.881989 1.30609 0
M  V30 7643 C 700.387 -1.63647 1.19781 0
M  V30 7644 C 700.72 -1.92632 -0.246265 0
M  V30 7645 O 699.995 -1.54938 -1.17577 0
M  V30 7646 C 700.278 -2.97437 2.02985 0
M  V30 7647 C 700.131 -2.75406 3.55628 0
M  V30 7648 C 701.45 -3.98397 1.86997 0
M  V30 7649 H 698.569 -0.593841 0.436488 0
M  V30 7650 H 701.211 -1.02041 1.60273 0
M  V30 7651 H 699.361 -3.50018 1.68581 0
M  V30 7652 H 701.033 -2.2959 4.00107 0
M  V30 7653 H 699.276 -2.09856 3.79662 0
M  V30 7654 H 699.947 -3.70552 4.09139 0
M  V30 7655 H 702.423 -3.54986 2.17081 0
M  V30 7656 H 701.299 -4.89916 2.47536 0
M  V30 7657 H 701.56 -4.3424 0.829943 0
M  V30 7658 N 700.619 -1.13374 -1.09472 0
M  V30 7659 C 701.849 -0.917019 -1.85133 0
M  V30 7660 C 702.257 0.537568 -1.81402 0
M  V30 7661 O 701.6 1.38385 -1.20811 0
M  V30 7662 C 701.662 -1.32646 -3.34134 0
M  V30 7663 C 701.326 -2.79437 -3.61613 0
M  V30 7664 C 702.323 -3.77596 -3.57375 0
M  V30 7665 C 700.008 -3.16586 -3.89973 0
M  V30 7666 C 702.002 -5.10916 -3.81108 0
M  V30 7667 C 699.689 -4.50085 -4.13361 0
M  V30 7668 C 700.687 -5.47059 -4.0892 0
M  V30 7669 O 700.375 -6.78149 -4.31705 0
M  V30 7670 H 700.107 -0.326997 -0.591649 0
M  V30 7671 H 702.661 -1.51002 -1.39239 0
M  V30 7672 H 700.891 -0.676719 -3.80733 0
M  V30 7673 H 702.58 -1.08229 -3.91205 0
M  V30 7674 H 703.346 -3.50242 -3.35493 0
M  V30 7675 H 699.225 -2.41707 -3.92554 0
M  V30 7676 H 702.769 -5.86597 -3.77558 0
M  V30 7677 H 698.666 -4.77163 -4.34724 0
M  V30 7678 H 699.434 -6.84244 -4.49168 0
M  V30 7679 N 702.098 1.27442 -0.927168 0
M  V30 7680 C 703.346 1.94007 -0.566203 0
M  V30 7681 C 703.667 1.7323 0.895345 0
M  V30 7682 O 702.937 1.07973 1.63459 0
M  V30 7683 H 701.517 0.717917 -0.206409 0
M  V30 7684 H 704.179 1.55161 -1.17945 0
M  V30 7685 H 703.275 3.02401 -0.772028 0
M  V30 7686 N 703.576 0.692616 1.41565 0
M  V30 7687 C 704.523 0.0254264 2.30786 0
M  V30 7688 C 705.493 -0.774347 1.46946 0
M  V30 7689 O 706.678 -0.742981 1.7574 0
M  V30 7690 C 703.818 -0.907123 3.32964 0
M  V30 7691 C 702.931 -0.0992784 4.31886 0
M  V30 7692 C 702.066 -1.0292 5.21134 0
M  V30 7693 C 701.105 -0.214088 6.11725 0
M  V30 7694 N 700.242 -1.09766 6.93467 0
M  V30 7695 H 705.082 0.792036 2.87282 0
M  V30 7696 H 702.619 0.4023 1.41492 0
M  V30 7697 H 704.577 -1.46181 3.90752 0
M  V30 7698 H 703.207 -1.64016 2.78026 0
M  V30 7699 H 702.259 0.572287 3.76071 0
M  V30 7700 H 703.571 0.532782 4.95946 0
M  V30 7701 H 702.725 -1.65321 5.83741 0
M  V30 7702 H 701.464 -1.69512 4.57293 0
M  V30 7703 H 700.469 0.42302 5.4817 0
M  V30 7704 H 701.694 0.447995 6.77621 0
M  V30 7705 H 699.64 -1.74965 6.32237 0
M  V30 7706 H 699.557 -0.521099 7.54202 0
M  V30 7707 H 700.825 -1.70858 7.60544 0
M  V30 7708 N 705.054 -1.51416 0.437162 0
M  V30 7709 C 705.964 -2.31493 -0.380537 0
M  V30 7710 C 706.98 -1.40399 -1.02782 0
M  V30 7711 O 708.156 -1.73471 -1.02323 0
M  V30 7712 C 705.221 -3.1413 -1.46709 0
M  V30 7713 C 704.282 -4.21003 -0.839953 0
M  V30 7714 C 703.515 -4.9969 -1.87473 0
M  V30 7715 O 703.738 -4.79008 -3.09689 0
M  V30 7716 O 702.672 -5.8379 -1.46536 0
M  V30 7717 H 706.498 -3.02469 0.273183 0
M  V30 7718 H 704.083 -1.48059 0.199706 0
M  V30 7719 H 705.965 -3.65505 -2.09724 0
M  V30 7720 H 704.64 -2.45919 -2.10489 0
M  V30 7721 H 703.547 -3.73706 -0.171752 0
M  V30 7722 H 704.88 -4.91587 -0.245638 0
M  V30 7723 N 706.532 -0.168513 -1.56696 0
M  V30 7724 C 707.943 0.348694 -1.83415 0
M  V30 7725 C 708.294 1.63257 -1.0882 0
M  V30 7726 O 707.419 2.13707 -0.340333 0
M  V30 7727 C 708.014 0.639423 -3.32711 0
M  V30 7728 C 706.573 1.10108 -3.59935 0
M  V30 7729 C 705.72 0.135464 -2.76969 0
M  V30 7730 H 708.671 -0.392829 -1.53761 0
M  V30 7731 H 708.692 1.49179 -3.50037 0
M  V30 7732 H 708.204 -0.295173 -3.86976 0
M  V30 7733 H 706.305 2.05088 -3.11079 0
M  V30 7734 H 706.418 1.01218 -4.68286 0
M  V30 7735 H 704.782 0.632286 -2.46727 0
M  V30 7736 H 705.565 -0.793104 -3.34013 0
M  V30 7737 N 708.01 1.57248 0.105221 0
M  V30 7738 C 709.256 1.86719 0.806692 0
M  V30 7739 C 709.611 0.758061 1.76837 0
M  V30 7740 O 708.904 -0.240812 1.90081 0
M  V30 7741 C 709.098 3.20437 1.58287 0
M  V30 7742 C 708.927 4.44252 0.697864 0
M  V30 7743 C 707.697 5.04104 0.347444 0
M  V30 7744 C 709.895 5.14299 0.00933014 0
M  V30 7745 N 707.877 6.1146 -0.546786 0
M  V30 7746 C 709.248 6.15528 -0.74336 0
M  V30 7747 C 711.303 4.97857 -0.0656505 0
M  V30 7748 C 710.006 7.02091 -1.56401 0
M  V30 7749 C 712.032 5.84919 -0.873167 0
M  V30 7750 C 711.394 6.8566 -1.61401 0
M  V30 7751 H 707.493 0.73329 0.271679 0
M  V30 7752 H 710.077 1.94575 0.0697152 0
M  V30 7753 H 708.248 3.13651 2.29079 0
M  V30 7754 H 709.98 3.37668 2.23075 0
M  V30 7755 H 706.735 4.68505 0.692817 0
M  V30 7756 H 707.159 6.69779 -0.986157 0
M  V30 7757 H 711.801 4.19919 0.492768 0
M  V30 7758 H 709.519 7.79427 -2.13353 0
M  V30 7759 H 713.105 5.74259 -0.933724 0
M  V30 7760 H 711.985 7.5186 -2.2288 0
M  V30 7761 N 709.488 -0.375779 1.53054 0
M  V30 7762 C 710.398 -1.48381 1.81715 0
M  V30 7763 C 711.414 -1.59087 0.704795 0
M  V30 7764 O 712.59 -1.75174 0.993785 0
M  V30 7765 C 709.655 -2.83767 1.99192 0
M  V30 7766 C 708.716 -2.82673 3.23102 0
M  V30 7767 C 707.949 -4.11601 3.39736 0
M  V30 7768 O 708.172 -5.07243 2.60885 0
M  V30 7769 O 707.106 -4.18034 4.33049 0
M  V30 7770 H 710.932 -1.27089 2.7583 0
M  V30 7771 H 708.517 -0.564902 1.38308 0
M  V30 7772 H 710.399 -3.64004 2.12318 0
M  V30 7773 H 709.074 -3.05057 1.08267 0
M  V30 7774 H 707.981 -2.0117 3.15407 0
M  V30 7775 H 709.314 -2.66335 4.13916 0
M  V30 7776 N 710.966 -1.44241 -0.634997 0
M  V30 7777 C 712.206 -1.48339 -1.40623 0
M  V30 7778 C 712.57 -0.111479 -1.91676 0
M  V30 7779 O 713.771 -0.0271345 -2.68786 0
M  V30 7780 C 712.042 -2.51122 -2.54308 0
M  V30 7781 S 713.601 -2.74237 -3.42548 0
M  V30 7782 H 710.419 -0.524715 -0.479787 0
M  V30 7783 H 713.021 -1.81138 -0.735489 0
M  V30 7784 H 711.725 -3.49511 -2.15106 0
M  V30 7785 H 711.256 -2.19883 -3.26213 0
M  V30 7786 H 713.271 -2.0554 -4.51628 0
M  V30 7787 N 712.444 0.87505 -1.31075 0
M  V30 7788 C 713.354 2.01441 -1.20244 0
M  V30 7789 C 714.37 1.73584 -0.120227 0
M  V30 7790 O 715.546 1.98559 -0.337063 0
M  V30 7791 C 712.611 3.34675 -0.905199 0
M  V30 7792 C 711.672 3.75889 -2.0738 0
M  V30 7793 C 710.905 5.02764 -1.79064 0
M  V30 7794 O 711.128 5.65795 -0.723318 0
M  V30 7795 O 710.062 5.40623 -2.64594 0
M  V30 7796 H 713.888 2.13509 -2.1598 0
M  V30 7797 H 711.473 1.00257 -1.10765 0
M  V30 7798 H 713.355 4.1458 -0.755057 0
M  V30 7799 H 712.03 3.23692 0.0221695 0
M  V30 7800 H 710.937 2.96645 -2.27931 0
M  V30 7801 H 712.27 3.91489 -2.98324 0
M  V30 7802 N 713.922 1.13953 1.08869 0
M  V30 7803 C 714.832 0.835666 2.19212 0
M  V30 7804 C 715.848 -0.182005 1.73045 0
M  V30 7805 O 717.024 -0.0116661 2.01397 0
M  V30 7806 C 714.089 0.312325 3.4529 0
M  V30 7807 C 713.15 1.39196 4.06107 0
M  V30 7808 C 712.383 0.893496 5.26168 0
M  V30 7809 O 712.606 -0.266807 5.69776 0
M  V30 7810 O 711.54 1.67037 5.78258 0
M  V30 7811 H 715.366 1.75769 2.47667 0
M  V30 7812 H 712.951 0.917421 1.17914 0
M  V30 7813 H 714.833 0.0261582 4.21392 0
M  V30 7814 H 713.508 -0.582042 3.18424 0
M  V30 7815 H 712.415 1.73152 3.31616 0
M  V30 7816 H 713.748 2.26068 4.37212 0
M  V30 7817 N 715.4 -1.26948 0.933913 0
M  V30 7818 C 716.31 -2.30366 0.443671 0
M  V30 7819 C 717.326 -1.67284 -0.478745 0
M  V30 7820 O 718.502 -1.98156 -0.360043 0
M  V30 7821 C 715.567 -3.45485 -0.289974 0
M  V30 7822 C 714.628 -4.24069 0.668114 0
M  V30 7823 C 713.861 -5.33691 -0.0306138 0
M  V30 7824 O 714.084 -5.5656 -1.24888 0
M  V30 7825 O 713.018 -5.98441 0.644384 0
M  V30 7826 H 716.844 -2.74349 1.30254 0
M  V30 7827 H 714.429 -1.32012 0.699506 0
M  V30 7828 H 716.311 -4.15486 -0.70353 0
M  V30 7829 H 714.986 -3.03546 -1.12435 0
M  V30 7830 H 713.893 -3.56579 1.13147 0
M  V30 7831 H 715.226 -4.69739 1.46989 0
M  V30 7832 N 716.879 -0.700114 -1.41195 0
M  V30 7833 C 717.789 -0.0382854 -2.34569 0
M  V30 7834 C 718.805 0.761036 -1.56474 0
M  V30 7835 O 719.981 0.697553 -1.88934 0
M  V30 7836 C 717.046 0.883522 -3.35253 0
M  V30 7837 C 716.107 0.0758957 -4.29233 0
M  V30 7838 C 715.34 0.9538 -5.25108 0
M  V30 7839 O 715.563 2.19326 -5.26547 0
M  V30 7840 O 714.497 0.401049 -6.00562 0
M  V30 7841 H 718.323 -0.808073 -2.92752 0
M  V30 7842 H 715.908 -0.460479 -1.42127 0
M  V30 7843 H 717.79 1.41199 -3.9704 0
M  V30 7844 H 716.465 1.63272 -2.79506 0
M  V30 7845 H 715.372 -0.497274 -3.7078 0
M  V30 7846 H 716.705 -0.634741 -4.8809 0
M  V30 7847 N 718.357 1.51182 -0.445186 0
M  V30 7848 C 719.287 2.30821 0.352686 0
M  V30 7849 C 720.268 1.36576 1.01395 0
M  V30 7850 O 721.453 1.65497 1.01609 0
M  V30 7851 C 718.583 3.15593 1.44976 0
M  V30 7852 C 717.537 4.1818 0.911553 0
M  V30 7853 C 716.863 4.91523 2.10497 0
M  V30 7854 C 718.163 5.22266 -0.059418 0
M  V30 7855 H 719.857 2.97771 -0.311936 0
M  V30 7856 H 717.403 1.43201 -0.151461 0
M  V30 7857 H 719.356 3.70091 2.01521 0
M  V30 7858 H 718.08 2.4648 2.14278 0
M  V30 7859 H 716.739 3.64746 0.368264 0
M  V30 7860 H 716.387 4.18906 2.78437 0
M  V30 7861 H 716.087 5.60898 1.7512 0
M  V30 7862 H 717.611 5.48847 2.6758 0
M  V30 7863 H 719.025 5.71789 0.415985 0
M  V30 7864 H 717.422 5.99213 -0.326152 0
M  V30 7865 H 718.492 4.7461 -0.993631 0
M  V30 7866 N 719.835 0.176821 1.56605 0
M  V30 7867 C 720.798 -0.737429 2.17013 0
M  V30 7868 C 721.798 -1.15414 1.11965 0
M  V30 7869 O 722.988 -1.0702 1.37449 0
M  V30 7870 C 720.12 -2.00445 2.75744 0
M  V30 7871 H 721.313 -0.211455 2.99154 0
M  V30 7872 H 718.866 -0.0727582 1.56131 0
M  V30 7873 H 719.601 -2.57338 1.97352 0
M  V30 7874 H 719.386 -1.71456 3.52626 0
M  V30 7875 H 720.876 -2.65679 3.22187 0
M  V30 7876 N 721.313 -1.57302 -0.09688 0
M  V30 7877 C 722.223 -2.05258 -1.13606 0
M  V30 7878 C 723.239 -0.977137 -1.43972 0
M  V30 7879 O 724.415 -1.29018 -1.54649 0
M  V30 7880 C 721.48 -2.46593 -2.43706 0
M  V30 7881 C 720.541 -3.68322 -2.20538 0
M  V30 7882 C 719.774 -4.07676 -3.44435 0
M  V30 7883 O 719.997 -3.47141 -4.52603 0
M  V30 7884 O 718.931 -5.00641 -3.34129 0
M  V30 7885 H 722.757 -2.94069 -0.758752 0
M  V30 7886 H 720.342 -1.46164 -0.309263 0
M  V30 7887 H 722.224 -2.73814 -3.20318 0
M  V30 7888 H 720.899 -1.6092 -2.80867 0
M  V30 7889 H 719.806 -3.4622 -1.41713 0
M  V30 7890 H 721.139 -4.54769 -1.88271 0
M  V30 7891 N 722.791 0.367657 -1.53252 0
M  V30 7892 C 724.04 1.10782 -1.68554 0
M  V30 7893 C 724.353 1.90523 -0.442765 0
M  V30 7894 O 725.559 2.6729 -0.47629 0
M  V30 7895 C 724.015 2.01863 -2.97959 0
M  V30 7896 C 723.623 1.27443 -4.29491 0
M  V30 7897 C 725.367 2.75883 -3.22628 0
M  V30 7898 C 723.274 2.17414 -5.49987 0
M  V30 7899 H 722.204 0.417272 -0.628013 0
M  V30 7900 H 724.855 0.368971 -1.79752 0
M  V30 7901 H 723.237 2.7947 -2.80558 0
M  V30 7902 H 724.411 0.549138 -4.57516 0
M  V30 7903 H 722.726 0.652935 -4.11249 0
M  V30 7904 H 725.323 3.43421 -4.09837 0
M  V30 7905 H 725.666 3.41138 -2.38601 0
M  V30 7906 H 726.199 2.0536 -3.40693 0
M  V30 7907 H 722.938 1.5674 -6.36485 0
M  V30 7908 H 722.458 2.87799 -5.26243 0
M  V30 7909 H 724.137 2.77019 -5.84696 0
M  V30 7910 N 724.269 1.44576 0.627338 0
M  V30 7911 C 725.199 1.54562 1.75022 0
M  V30 7912 C 726.18 0.398378 1.65369 0
M  V30 7913 O 727.365 0.61899 1.84071 0
M  V30 7914 C 724.495 1.49309 3.13567 0
M  V30 7915 C 723.449 2.62549 3.38012 0
M  V30 7916 C 722.775 2.42348 4.76625 0
M  V30 7917 C 724.075 4.04678 3.30202 0
M  V30 7918 H 725.769 2.4855 1.66922 0
M  V30 7919 H 723.315 1.19624 0.801636 0
M  V30 7920 H 725.268 1.54895 3.919 0
M  V30 7921 H 723.992 0.518392 3.2246 0
M  V30 7922 H 722.651 2.56358 2.62061 0
M  V30 7923 H 722.299 1.43062 4.82226 0
M  V30 7924 H 721.999 3.18273 4.93939 0
M  V30 7925 H 723.523 2.49758 5.57183 0
M  V30 7926 H 724.937 4.12217 3.98435 0
M  V30 7927 H 723.334 4.80836 3.5905 0
M  V30 7928 H 724.404 4.2798 2.27949 0
M  V30 7929 N 725.747 -0.868086 1.31537 0
M  V30 7930 C 726.679 -1.98165 1.15166 0
M  V30 7931 C 727.692 -1.6255 0.0902335 0
M  V30 7932 O 728.881 -1.75272 0.33791 0
M  V30 7933 C 725.981 -3.30772 0.737776 0
M  V30 7934 C 725.154 -3.94716 1.88462 0
M  V30 7935 C 724.213 -5.05641 1.45648 0
M  V30 7936 O 723.239 -5.2636 2.16642 0
M  V30 7937 N 724.441 -5.79474 0.34493 0
M  V30 7938 H 727.206 -2.12754 2.11083 0
M  V30 7939 H 724.767 -1.04217 1.23897 0
M  V30 7940 H 726.759 -4.02366 0.434032 0
M  V30 7941 H 725.329 -3.1233 -0.129834 0
M  V30 7942 H 724.549 -3.16079 2.35558 0
M  V30 7943 H 725.837 -4.34175 2.65273 0
M  V30 7944 H 725.235 -5.65164 -0.246259 0
M  V30 7945 H 723.792 -6.51722 0.100728 0
M  V30 7946 N 727.225 -1.14528 -1.08264 0
M  V30 7947 C 728.188 -0.83632 -2.13397 0
M  V30 7948 C 729.188 0.159715 -1.60005 0
M  V30 7949 O 730.378 -0.0688098 -1.74064 0
M  V30 7950 C 727.51 -0.246973 -3.40004 0
M  V30 7951 H 728.703 -1.76808 -2.42237 0
M  V30 7952 H 726.256 -0.951509 -1.24 0
M  V30 7953 H 726.991 0.693436 -3.168 0
M  V30 7954 H 726.776 -0.964412 -3.80055 0
M  V30 7955 H 728.266 -0.0480679 -4.17572 0
M  V30 7956 N 728.703 1.26451 -0.940633 0
M  V30 7957 C 729.613 2.30128 -0.455881 0
M  V30 7958 C 730.629 1.67536 0.469867 0
M  V30 7959 O 731.805 1.98344 0.349529 0
M  V30 7960 C 728.87 3.45634 0.271648 0
M  V30 7961 C 727.931 4.23709 -0.690594 0
M  V30 7962 C 727.164 5.337 0.00231047 0
M  V30 7963 O 727.387 5.57215 1.21935 0
M  V30 7964 O 726.321 5.98091 -0.676111 0
M  V30 7965 H 730.147 2.73655 -1.31707 0
M  V30 7966 H 727.732 1.3164 -0.706497 0
M  V30 7967 H 729.614 4.15853 0.681486 0
M  V30 7968 H 728.289 3.04138 1.10824 0
M  V30 7969 H 727.196 3.55974 -1.15037 0
M  V30 7970 H 728.529 4.68953 -1.49478 0
M  V30 7971 N 730.181 0.707592 1.40822 0
M  V30 7972 C 731.111 0.0644925 2.33411 0
M  V30 7973 C 732.092 -0.754205 1.52466 0
M  V30 7974 O 733.277 -0.704749 1.80961 0
M  V30 7975 C 730.407 -0.863865 3.36385 0
M  V30 7976 C 729.361 -0.15138 4.27732 0
M  V30 7977 C 728.687 -1.19491 5.21177 0
M  V30 7978 C 729.987 0.989607 5.12839 0
M  V30 7979 H 731.681 0.837829 2.87438 0
M  V30 7980 H 729.227 0.404346 1.38207 0
M  V30 7981 H 731.18 -1.32309 4.0009 0
M  V30 7982 H 729.904 -1.66901 2.80734 0
M  V30 7983 H 728.563 0.287937 3.65467 0
M  V30 7984 H 728.211 -1.9929 4.61836 0
M  V30 7985 H 727.911 -0.723123 5.83134 0
M  V30 7986 H 729.435 -1.6544 5.8776 0
M  V30 7987 H 730.849 0.610114 5.70044 0
M  V30 7988 H 729.246 1.38926 5.83798 0
M  V30 7989 H 730.316 1.82389 4.49291 0
M  V30 7990 N 731.66 -1.50943 0.453197 0
M  V30 7991 C 733.071 -1.86699 -0.00619892 0
M  V30 7992 C 733.422 -1.3693 -1.40515 0
M  V30 7993 O 732.547 -0.726715 -2.03833 0
M  V30 7994 C 733.142 -3.38795 -0.018025 0
M  V30 7995 C 731.701 -3.74028 -0.421885 0
M  V30 7996 C 730.848 -2.74752 0.375087 0
M  V30 7997 H 733.799 -1.43942 0.668317 0
M  V30 7998 H 733.82 -3.71468 -0.824125 0
M  V30 7999 H 733.332 -3.74988 1.00028 0
M  V30 8000 H 731.433 -3.43431 -1.44521 0
M  V30 8001 H 731.546 -4.78908 -0.135664 0
M  V30 8002 H 729.91 -2.5414 -0.168794 0
M  V30 8003 H 730.693 -3.13787 1.39256 0
M  V30 8004 N 733.138 -0.185124 -1.56509 0
M  V30 8005 C 734.415 0.503348 -1.89013 0
M  V30 8006 C 734.795 1.80349 -1.09715 0
M  V30 8007 O 734.143 2.27665 -0.195203 0
M  V30 8008 C 734.353 0.731839 -3.41241 0
M  V30 8009 C 735.701 1.05568 -4.11267 0
M  V30 8010 O 736.725 0.819906 -3.46635 0
M  V30 8011 O 735.584 1.50116 -5.25478 0
M  V30 8012 H 732.678 0.261139 -0.784688 0
M  V30 8013 H 735.224 -0.224592 -1.68207 0
M  V30 8014 H 733.996 -0.18672 -3.90854 0
M  V30 8015 H 733.619 1.5126 -3.67704 0
M  V30 8016 N 734.616 1.57351 0.0885366 0
M  V30 8017 C 735.579 2.01557 1.09121 0
M  V30 8018 C 736.579 0.910052 1.3257 0
M  V30 8019 O 737.769 1.17537 1.28572 0
M  V30 8020 C 734.901 2.38189 2.43883 0
M  V30 8021 H 736.094 2.91361 0.710562 0
M  V30 8022 H 733.647 1.52694 0.333779 0
M  V30 8023 H 734.382 1.5136 2.86811 0
M  V30 8024 H 734.167 3.18846 2.28209 0
M  V30 8025 H 735.657 2.73025 3.15986 0
M  V30 8026 N 736.094 -0.359525 1.53444 0
M  V30 8027 C 737.371 -1.11756 1.6053 0
M  V30 8028 C 737.751 -2.06949 0.416587 0
M  V30 8029 O 737.099 -2.20681 -0.592628 0
M  V30 8030 C 737.309 -1.85133 2.95849 0
M  V30 8031 C 738.657 -2.3945 3.50641 0
M  V30 8032 O 739.681 -1.95251 2.97918 0
M  V30 8033 O 738.54 -3.20266 4.42823 0
M  V30 8034 H 735.634 -0.513005 0.648656 0
M  V30 8035 H 738.18 -0.362301 1.65787 0
M  V30 8036 H 736.952 -1.15694 3.73806 0
M  V30 8037 H 736.575 -2.67554 2.9411 0
M  V30 8038 N 737.572 -1.44907 -0.619662 0
M  V30 8039 C 738.519 -1.52654 -1.73105 0
M  V30 8040 C 739.489 -0.373334 -1.6185 0
M  V30 8041 O 740.674 -0.585143 -1.81606 0
M  V30 8042 C 737.814 -1.48769 -3.11387 0
M  V30 8043 C 736.927 -2.74551 -3.33535 0
M  V30 8044 C 736.062 -2.62421 -4.61854 0
M  V30 8045 C 735.101 -3.83312 -4.77219 0
M  V30 8046 N 734.238 -3.69789 -5.96826 0
M  V30 8047 H 739.078 -2.47605 -1.65819 0
M  V30 8048 H 736.615 -1.22875 -0.808719 0
M  V30 8049 H 738.573 -1.44507 -3.91374 0
M  V30 8050 H 737.203 -0.573783 -3.1766 0
M  V30 8051 H 736.255 -2.88953 -2.47408 0
M  V30 8052 H 737.567 -3.64253 -3.40765 0
M  V30 8053 H 736.721 -2.56056 -5.50019 0
M  V30 8054 H 735.46 -1.70298 -4.57001 0
M  V30 8055 H 734.465 -3.90049 -3.87481 0
M  V30 8056 H 735.69 -4.76486 -4.83878 0
M  V30 8057 H 733.636 -2.80426 -5.93041 0
M  V30 8058 H 733.553 -4.53116 -6.05163 0
M  V30 8059 H 734.821 -3.67335 -6.87521 0
M  V30 8060 N 739.05 0.861098 -1.31996 0
M  V30 8061 C 740.28 1.64501 -1.24992 0
M  V30 8062 C 740.688 1.88288 0.185576 0
M  V30 8063 O 740.031 1.44756 1.131 0
M  V30 8064 C 740.093 3.03098 -1.93319 0
M  V30 8065 C 739.757 3.02381 -3.42658 0
M  V30 8066 C 740.754 2.79696 -4.38254 0
M  V30 8067 C 738.439 3.23221 -3.84491 0
M  V30 8068 C 740.433 2.77843 -5.73657 0
M  V30 8069 C 738.12 3.20996 -5.20005 0
M  V30 8070 C 739.118 2.98335 -6.14398 0
M  V30 8071 O 738.806 2.95971 -7.47433 0
M  V30 8072 H 738.538 0.519309 -0.432775 0
M  V30 8073 H 741.092 1.08241 -1.74565 0
M  V30 8074 H 739.322 3.61121 -1.38306 0
M  V30 8075 H 741.011 3.63751 -1.8011 0
M  V30 8076 H 741.777 2.63368 -4.07262 0
M  V30 8077 H 737.656 3.39887 -3.11445 0
M  V30 8078 H 741.2 2.60074 -6.47308 0
M  V30 8079 H 737.097 3.36865 -5.50629 0
M  V30 8080 H 737.865 3.1197 -7.56714 0
M  V30 8081 N 740.528 1.15101 1.07655 0
M  V30 8082 C 741.438 0.858869 2.18313 0
M  V30 8083 C 742.454 -0.163641 1.73229 0
M  V30 8084 O 743.63 0.00969541 2.01398 0
M  V30 8085 C 740.695 0.34893 3.4494 0
M  V30 8086 C 739.756 1.43495 4.04608 0
M  V30 8087 C 738.989 0.949253 5.2519 0
M  V30 8088 O 739.212 -0.20636 5.70027 0
M  V30 8089 O 738.146 1.73161 5.76454 0
M  V30 8090 H 741.972 1.78386 2.45788 0
M  V30 8091 H 739.557 0.929876 1.16934 0
M  V30 8092 H 741.439 0.070851 4.2134 0
M  V30 8093 H 740.114 -0.548237 3.19024 0
M  V30 8094 H 739.021 1.7666 3.29761 0
M  V30 8095 H 740.354 2.30692 4.3479 0
M  V30 8096 N 742.006 -1.2595 0.947325 0
M  V30 8097 C 743.255 -1.92759 0.593887 0
M  V30 8098 C 743.568 -1.75083 -0.872093 0
M  V30 8099 O 744.774 -2.36401 -1.33518 0
M  V30 8100 C 743.23 -3.45395 1.01144 0
M  V30 8101 C 742.838 -3.71795 2.49946 0
M  V30 8102 C 744.582 -4.18173 0.730185 0
M  V30 8103 C 742.489 -5.17901 2.85539 0
M  V30 8104 H 741.419 -0.721676 0.218403 0
M  V30 8105 H 744.07 -1.4293 1.15079 0
M  V30 8106 H 742.452 -3.94143 0.383007 0
M  V30 8107 H 743.626 -3.33728 3.17746 0
M  V30 8108 H 741.941 -3.12263 2.75465 0
M  V30 8109 H 744.538 -5.25784 0.972367 0
M  V30 8110 H 744.881 -4.14964 -0.333223 0
M  V30 8111 H 745.414 -3.75309 1.31862 0
M  V30 8112 H 742.153 -5.26216 3.90867 0
M  V30 8113 H 741.673 -5.57042 2.22406 0
M  V30 8114 H 743.352 -5.8596 2.74336 0
M  V30 8115 N 743.484 -0.715051 -1.40445 0
M  V30 8116 C 744.432 -0.0509974 -2.32544 0
M  V30 8117 C 745.426 0.747602 -1.52011 0
M  V30 8118 O 746.632 0.651031 -1.67814 0
M  V30 8119 H 743.007 0.00231113 -0.751996 0
M  V30 8120 H 744.978 -0.84449 -2.86201 0
M  V30 8121 C 743.727 0.857101 -3.3697 0
M  V30 8122 H 743.05 0.252 -3.99005 0
M  V30 8123 H 744.49 1.28971 -4.03909 0
M  V30 8124 C 742.949 1.98231 -2.72408 0
M  V30 8125 O 743.479 3.07309 -2.58697 0
M  V30 8126 N 741.685 1.76577 -2.308 0
M  V30 8127 H 741.232 0.878641 -2.42152 0
M  V30 8128 H 741.19 2.52043 -1.87941 0
M  V30 8129 N 744.962 1.50701 -0.461195 0
M  V30 8130 C 745.909 2.2831 0.338094 0
M  V30 8131 C 746.879 1.32928 0.995957 0
M  V30 8132 O 748.064 1.61857 1.0103 0
M  V30 8133 C 745.204 3.14539 1.41983 0
M  V30 8134 C 744.317 4.24942 0.77773 0
M  V30 8135 C 743.452 4.98443 1.83652 0
M  V30 8136 C 742.491 6.00733 1.17413 0
M  V30 8137 N 741.628 6.6755 2.17533 0
M  V30 8138 H 746.468 2.96167 -0.330051 0
M  V30 8139 H 744.005 1.4606 -0.174611 0
M  V30 8140 H 745.963 3.62877 2.05855 0
M  V30 8141 H 744.593 2.48749 2.05727 0
M  V30 8142 H 743.645 3.80391 0.0266924 0
M  V30 8143 H 744.957 4.98151 0.254362 0
M  V30 8144 H 744.111 5.50449 2.55129 0
M  V30 8145 H 742.85 4.24917 2.39367 0
M  V30 8146 H 741.855 5.47997 0.444944 0
M  V30 8147 H 743.08 6.76227 0.624006 0
M  V30 8148 H 741.026 5.96823 2.72284 0
M  V30 8149 H 740.943 7.36603 1.70154 0
M  V30 8150 H 742.211 7.24178 2.88421 0
M  V30 8151 N 746.441 0.193421 1.56409 0
M  V30 8152 C 747.688 -0.445789 1.97532 0
M  V30 8153 C 748.016 -1.61744 1.08024 0
M  V30 8154 O 747.271 -1.95338 0.118982 0
M  V30 8155 C 747.57 -0.949718 3.44551 0
M  V30 8156 C 747.236 0.108383 4.5077 0
M  V30 8157 C 745.898 0.399126 4.79542 0
M  V30 8158 C 748.25 0.825423 5.14622 0
M  V30 8159 C 745.578 1.41192 5.69457 0
M  V30 8160 C 747.93 1.82735 6.05632 0
M  V30 8161 C 746.594 2.12531 6.32761 0
M  V30 8162 H 745.864 -0.163126 0.722822 0
M  V30 8163 H 748.511 0.290035 1.89291 0
M  V30 8164 H 746.816 -1.76378 3.49854 0
M  V30 8165 H 748.513 -1.45367 3.73724 0
M  V30 8166 H 745.103 -0.128392 4.28408 0
M  V30 8167 H 749.287 0.61403 4.92487 0
M  V30 8168 H 744.543 1.6487 5.88751 0
M  V30 8169 H 748.717 2.3882 6.5417 0
M  V30 8170 H 746.344 2.91155 7.02234 0
M  V30 8171 N 747.919 -1.57396 -0.0801906 0
M  V30 8172 C 748.869 -1.9955 -1.10289 0
M  V30 8173 C 749.853 -0.876234 -1.34948 0
M  V30 8174 O 751.045 -1.14012 -1.35389 0
M  V30 8175 C 748.174 -2.43596 -2.419 0
M  V30 8176 C 747.26 -3.6224 -2.20551 0
M  V30 8177 N 747.651 -4.76693 -1.69109 0
M  V30 8178 C 745.949 -3.68627 -2.51059 0
M  V30 8179 C 746.65 -5.58577 -1.62379 0
M  V30 8180 N 745.626 -5.02178 -2.0813 0
M  V30 8181 H 749.428 -2.85483 -0.698335 0
M  V30 8182 H 746.942 -1.59837 -0.287395 0
M  V30 8183 H 748.939 -2.72031 -3.15919 0
M  V30 8184 H 747.599 -1.59047 -2.8308 0
M  V30 8185 H 748.61 -4.9915 -1.38092 0
M  V30 8186 H 745.287 -2.94772 -2.95661 0
M  V30 8187 H 746.677 -6.60447 -1.2353 0
M  V30 8188 N 749.397 0.351382 -1.53633 0
M  V30 8189 C 750.644 1.0925 -1.70502 0
M  V30 8190 C 750.972 1.88881 -0.464123 0
M  V30 8191 O 750.227 1.87693 0.554077 0
M  V30 8192 C 750.526 2.06744 -2.91533 0
M  V30 8193 C 750.192 1.43484 -4.27461 0
M  V30 8194 C 748.854 1.2596 -4.64422 0
M  V30 8195 C 751.206 0.978436 -5.11934 0
M  V30 8196 C 748.534 0.614017 -5.83478 0
M  V30 8197 C 750.886 0.346795 -6.31649 0
M  V30 8198 C 749.55 0.15917 -6.6731 0
M  V30 8199 H 748.82 0.399773 -0.623909 0
M  V30 8200 H 751.467 0.372656 -1.87839 0
M  V30 8201 H 749.772 2.85082 -2.68767 0
M  V30 8202 H 751.469 2.64066 -3.01778 0
M  V30 8203 H 748.059 1.5812 -3.98367 0
M  V30 8204 H 752.243 1.1017 -4.83918 0
M  V30 8205 H 747.499 0.457194 -6.09688 0
M  V30 8206 H 751.673 -0.0149864 -6.96398 0
M  V30 8207 H 749.3 -0.343129 -7.59425 0
M  V30 8208 N 750.875 1.45233 0.611969 0
M  V30 8209 C 752.1 1.52767 1.40274 0
M  V30 8210 C 752.525 0.159701 1.87421 0
M  V30 8211 O 751.883 -0.854837 1.59882 0
M  V30 8212 C 751.931 2.51286 2.58626 0
M  V30 8213 O 751.035 2.02764 3.59111 0
M  V30 8214 H 750.376 0.515141 0.418958 0
M  V30 8215 H 752.906 1.90547 0.745188 0
M  V30 8216 H 752.916 2.69949 3.05927 0
M  V30 8217 H 751.591 3.50641 2.23659 0
M  V30 8218 H 750.168 1.93957 3.18489 0
M  V30 8219 N 752.353 -0.854086 1.3245 0
M  V30 8220 C 753.63 -1.59188 1.1366 0
M  V30 8221 C 754.01 -2.08917 -0.302807 0
M  V30 8222 O 753.358 -1.8795 -1.29951 0
M  V30 8223 C 753.568 -2.73757 2.16467 0
M  V30 8224 C 754.916 -3.43323 2.49829 0
M  V30 8225 O 755.94 -2.83983 2.15017 0
M  V30 8226 O 754.799 -4.50409 3.09506 0
M  V30 8227 H 751.893 -0.701092 0.438633 0
M  V30 8228 H 754.439 -0.898165 1.43983 0
M  V30 8229 H 753.211 -2.3454 3.1322 0
M  V30 8230 H 752.834 -3.50804 1.87142 0
M  V30 8231 N 753.831 -1.1567 -1.07043 0
M  V30 8232 C 754.761 -0.879348 -2.16309 0
M  V30 8233 C 755.742 0.171311 -1.69235 0
M  V30 8234 O 756.927 0.0250175 -1.94184 0
M  V30 8235 C 754.057 -0.371307 -3.45309 0
M  V30 8236 C 753.011 -1.359 -4.05851 0
M  V30 8237 C 752.337 -0.709678 -5.29969 0
M  V30 8238 C 753.637 -2.72606 -4.45514 0
M  V30 8239 H 755.331 -1.79308 -2.39768 0
M  V30 8240 H 752.877 -0.863558 -1.15233 0
M  V30 8241 H 754.83 -0.164798 -4.21078 0
M  V30 8242 H 753.554 0.577906 -3.21446 0
M  V30 8243 H 752.213 -1.55193 -3.32131 0
M  V30 8244 H 751.861 0.245782 -5.02399 0
M  V30 8245 H 751.561 -1.36886 -5.71433 0
M  V30 8246 H 753.085 -0.513015 -6.08441 0
M  V30 8247 H 754.499 -2.57141 -5.12398 0
M  V30 8248 H 752.896 -3.34927 -4.97939 0
M  V30 8249 H 753.966 -3.28434 -3.56734 0
M  V30 8250 N 755.309 1.25446 -0.953992 0
M  V30 8251 C 756.72 1.75047 -0.649255 0
M  V30 8252 C 757.071 1.77527 0.835385 0
M  V30 8253 O 756.196 1.39569 1.65377 0
M  V30 8254 C 756.791 3.17889 -1.17183 0
M  V30 8255 C 755.35 3.65052 -0.917267 0
M  V30 8256 C 754.497 2.44124 -1.31525 0
M  V30 8257 H 757.448 1.11342 -1.13087 0
M  V30 8258 H 757.469 3.76768 -0.531616 0
M  V30 8259 H 756.981 3.16052 -2.25239 0
M  V30 8260 H 755.082 3.72305 0.148354 0
M  V30 8261 H 755.195 4.53222 -1.55328 0
M  V30 8262 H 753.559 2.43906 -0.733624 0
M  V30 8263 H 754.342 2.44979 -2.405 0
M  V30 8264 N 756.787 0.722489 1.40064 0
M  V30 8265 C 757.717 0.0892452 2.33329 0
M  V30 8266 C 758.698 -0.737992 1.53257 0
M  V30 8267 O 759.883 -0.685516 1.81698 0
M  V30 8268 C 757.013 -0.828139 3.37282 0
M  V30 8269 C 755.967 -0.106005 4.27869 0
M  V30 8270 C 755.293 -1.13957 5.22415 0
M  V30 8271 C 756.593 1.04395 5.11761 0
M  V30 8272 H 758.287 0.868269 2.86534 0
M  V30 8273 H 755.833 0.418982 1.3777 0
M  V30 8274 H 757.786 -1.28058 4.01471 0
M  V30 8275 H 756.51 -1.63914 2.82489 0
M  V30 8276 H 755.169 0.326683 3.65142 0
M  V30 8277 H 754.817 -1.9438 4.63924 0
M  V30 8278 H 754.517 -0.661233 5.83868 0
M  V30 8279 H 756.041 -1.59197 5.89482 0
M  V30 8280 H 757.455 0.670541 5.69365 0
M  V30 8281 H 755.852 1.4511 5.82291 0
M  V30 8282 H 756.922 1.87144 4.47331 0
M  V30 8283 N 758.265 -1.50454 0.469181 0
M  V30 8284 C 759.493 -2.06729 -0.0842134 0
M  V30 8285 C 759.908 -1.33326 -1.33677 0
M  V30 8286 O 759.265 -0.401977 -1.78018 0
M  V30 8287 C 759.316 -3.59557 -0.374253 0
M  V30 8288 O 759.037 -4.30192 0.828622 0
M  V30 8289 C 760.538 -4.32449 -0.974824 0
M  V30 8290 H 757.758 -0.670971 0.006231 0
M  V30 8291 H 760.302 -1.93645 0.657415 0
M  V30 8292 H 758.457 -3.7245 -1.06581 0
M  V30 8293 H 758.871 -5.21371 0.572066 0
M  V30 8294 H 760.345 -5.40361 -1.12755 0
M  V30 8295 H 760.822 -3.92819 -1.96442 0
M  V30 8296 H 761.428 -4.24082 -0.321703 0
M  V30 8297 N 759.743 -0.201713 -1.56304 0
M  V30 8298 C 760.653 0.728296 -2.23009 0
M  V30 8299 C 761.669 1.22945 -1.23128 0
M  V30 8300 O 762.845 1.27523 -1.55884 0
M  V30 8301 C 759.91 1.92792 -2.88153 0
M  V30 8302 C 758.971 1.47068 -4.03323 0
M  V30 8303 C 758.204 2.61312 -4.65351 0
M  V30 8304 O 758.427 3.7896 -4.26317 0
M  V30 8305 O 757.361 2.33646 -5.54701 0
M  V30 8306 H 761.187 0.190166 -3.03104 0
M  V30 8307 H 758.772 0.0278725 -1.49374 0
M  V30 8308 H 760.654 2.6289 -3.29343 0
M  V30 8309 H 759.329 2.45452 -2.11033 0
M  V30 8310 H 758.236 0.738299 -3.66742 0
M  V30 8311 H 759.569 0.990666 -4.82127 0
M  V30 8312 N 761.222 1.57436 0.0718424 0
M  V30 8313 C 762.152 2.06724 1.08571 0
M  V30 8314 C 763.133 0.960731 1.40371 0
M  V30 8315 O 764.318 1.23345 1.49999 0
M  V30 8316 C 761.448 2.51112 2.39916 0
M  V30 8317 C 760.402 3.65639 2.22469 0
M  V30 8318 C 759.728 3.96082 3.59198 0
M  V30 8319 C 761.028 4.95687 1.64596 0
M  V30 8320 H 762.722 2.91679 0.675569 0
M  V30 8321 H 760.268 1.40319 0.32352 0
M  V30 8322 H 762.221 2.84206 3.11135 0
M  V30 8323 H 760.945 1.63186 2.8291 0
M  V30 8324 H 759.604 3.32828 1.53691 0
M  V30 8325 H 759.252 3.05287 3.99761 0
M  V30 8326 H 758.952 4.73199 3.48362 0
M  V30 8327 H 760.476 4.31672 4.31847 0
M  V30 8328 H 761.89 5.27011 2.25681 0
M  V30 8329 H 760.287 5.77126 1.64457 0
M  V30 8330 H 761.357 4.8108 0.60744 0
M  V30 8331 N 762.7 -0.34323 1.53817 0
M  V30 8332 C 763.61 -1.44493 1.84821 0
M  V30 8333 C 764.626 -1.57556 0.738381 0
M  V30 8334 O 765.802 -1.73026 1.03072 0
M  V30 8335 C 762.867 -2.79478 2.05166 0
M  V30 8336 C 761.928 -2.75756 3.29025 0
M  V30 8337 C 761.161 -4.04302 3.4839 0
M  V30 8338 O 761.384 -5.01595 2.71586 0
M  V30 8339 O 760.318 -4.08754 4.41819 0
M  V30 8340 H 764.144 -1.21209 2.78464 0
M  V30 8341 H 761.729 -0.535437 1.39476 0
M  V30 8342 H 763.611 -3.59419 2.19991 0
M  V30 8343 H 762.286 -3.02692 1.14713 0
M  V30 8344 H 761.193 -1.94434 3.19603 0
M  V30 8345 H 762.526 -2.57495 4.19472 0
M  V30 8346 N 764.178 -1.45556 -0.604258 0
M  V30 8347 C 765.108 -1.57327 -1.72541 0
M  V30 8348 C 766.089 -0.424637 -1.64714 0
M  V30 8349 O 767.274 -0.648196 -1.83063 0
M  V30 8350 C 764.404 -1.54279 -3.11152 0
M  V30 8351 C 763.358 -2.67893 -3.33792 0
M  V30 8352 C 762.684 -2.499 -4.72709 0
M  V30 8353 C 763.984 -4.0988 -3.23722 0
M  V30 8354 H 765.678 -2.51175 -1.62947 0
M  V30 8355 H 763.224 -1.20884 -0.782504 0
M  V30 8356 H 765.177 -1.6111 -3.89386 0
M  V30 8357 H 763.901 -0.569627 -3.21594 0
M  V30 8358 H 762.56 -2.60495 -2.57949 0
M  V30 8359 H 762.208 -1.50715 -4.79889 0
M  V30 8360 H 761.908 -3.26091 -4.88813 0
M  V30 8361 H 763.432 -2.5859 -5.5314 0
M  V30 8362 H 764.846 -4.18503 -3.91826 0
M  V30 8363 H 763.243 -4.86487 -3.51355 0
M  V30 8364 H 764.313 -4.31553 -2.21111 0
M  V30 8365 N 765.656 0.84705 -1.32902 0
M  V30 8366 C 766.902 1.60414 -1.24078 0
M  V30 8367 C 767.235 1.93217 0.195105 0
M  V30 8368 O 766.51 1.58001 1.13428 0
M  V30 8369 C 766.793 2.91951 -2.108 0
M  V30 8370 C 766.646 2.6588 -3.62805 0
M  V30 8371 C 767.965 3.93299 -1.97494 0
M  V30 8372 H 765.084 0.58206 -0.452079 0
M  V30 8373 H 767.726 0.977562 -1.62922 0
M  V30 8374 H 765.876 3.45425 -1.77802 0
M  V30 8375 H 767.548 2.18902 -4.06054 0
M  V30 8376 H 765.791 1.99716 -3.85092 0
M  V30 8377 H 766.462 3.59574 -4.1882 0
M  V30 8378 H 768.938 3.49105 -2.26417 0
M  V30 8379 H 767.814 4.8318 -2.60438 0
M  V30 8380 H 768.075 4.31887 -0.944782 0
M  V30 8381 N 767.134 1.16236 1.06428 0
M  V30 8382 C 768.081 0.86769 2.13869 0
M  V30 8383 C 769.051 -0.183298 1.65086 0
M  V30 8384 O 770.236 -0.0488002 1.90738 0
M  V30 8385 C 767.376 0.373427 3.43074 0
M  V30 8386 C 766.489 1.48708 4.05598 0
M  V30 8387 C 765.624 0.947977 5.22673 0
M  V30 8388 C 764.663 2.03793 5.77178 0
M  V30 8389 N 763.8 1.51451 6.85571 0
M  V30 8390 H 768.64 1.78781 2.38414 0
M  V30 8391 H 766.177 0.891892 1.16977 0
M  V30 8392 H 768.135 0.0685035 4.17144 0
M  V30 8393 H 766.765 -0.509752 3.1875 0
M  V30 8394 H 765.817 1.908 3.29089 0
M  V30 8395 H 767.129 2.30964 4.42105 0
M  V30 8396 H 766.283 0.596154 6.03764 0
M  V30 8397 H 765.022 0.0947081 4.87608 0
M  V30 8398 H 764.027 2.39847 4.94726 0
M  V30 8399 H 765.252 2.89514 6.14295 0
M  V30 8400 H 763.198 0.683755 6.52427 0
M  V30 8401 H 763.115 2.27325 7.21013 0
M  V30 8402 H 764.383 1.19123 7.70344 0
M  V30 8403 N 768.612 -1.24939 0.960631 0
M  V30 8404 C 769.852 -1.94565 0.626414 0
M  V30 8405 C 770.216 -1.73505 -0.822184 0
M  V30 8406 O 771.417 -2.37105 -1.26628 0
M  V30 8407 C 769.688 -3.43631 0.982462 0
M  V30 8408 S 771.247 -4.32138 0.761726 0
M  V30 8409 H 768.065 -0.672757 0.230043 0
M  V30 8410 H 770.667 -1.51464 1.23608 0
M  V30 8411 H 769.371 -3.56463 2.03377 0
M  V30 8412 H 768.902 -3.91719 0.363286 0
M  V30 8413 H 770.917 -4.94859 -0.364493 0
M  V30 8414 N 770.09 -0.729906 -1.39679 0
M  V30 8415 C 771.338 -0.275077 -2.00219 0
M  V30 8416 C 771.659 1.1401 -1.58199 0
M  V30 8417 O 770.929 1.77546 -0.827904 0
M  V30 8418 H 769.509 -0.0987127 -0.740449 0
M  V30 8419 H 772.171 -0.93873 -1.70804 0
M  V30 8420 H 771.267 -0.319446 -3.10461 0
M  V30 8421 N 771.568 1.50203 -0.477153 0
M  V30 8422 C 772.817 2.01551 0.0774548 0
M  V30 8423 C 773.13 1.36359 1.40234 0
M  V30 8424 O 774.336 1.78898 2.04225 0
M  V30 8425 C 772.792 3.59406 0.188539 0
M  V30 8426 C 772.4 4.3356 -1.12828 0
M  V30 8427 C 774.144 4.18776 0.694782 0
M  V30 8428 C 772.051 5.83213 -0.98066 0
M  V30 8429 H 770.981 0.75329 0.0327212 0
M  V30 8430 H 773.632 1.72959 -0.612969 0
M  V30 8431 H 772.014 3.84611 0.942881 0
M  V30 8432 H 773.188 4.20074 -1.89405 0
M  V30 8433 H 771.503 3.85827 -1.5661 0
M  V30 8434 H 774.1 5.28338 0.822356 0
M  V30 8435 H 774.443 3.80557 1.68766 0
M  V30 8436 H 774.976 3.978 -0.00234519 0
M  V30 8437 H 771.715 6.25914 -1.94709 0
M  V30 8438 H 771.235 5.99256 -0.255375 0
M  V30 8439 H 772.914 6.4373 -0.649717 0
M  V30 8440 N 773.046 0.209999 1.56195 0
M  V30 8441 C 773.978 -0.736967 2.17029 0
M  V30 8442 C 774.991 -1.16599 1.13616 0
M  V30 8443 O 776.18 -1.09914 1.40646 0
M  V30 8444 C 773.28 -2.00852 2.72969 0
M  V30 8445 C 772.453 -1.73691 4.01435 0
M  V30 8446 C 771.512 -2.85439 4.42053 0
M  V30 8447 O 770.538 -2.54405 5.09183 0
M  V30 8448 N 771.74 -4.14135 4.06783 0
M  V30 8449 H 774.505 -0.216656 2.98916 0
M  V30 8450 H 772.066 0.0285672 1.61875 0
M  V30 8451 H 774.058 -2.74778 2.97118 0
M  V30 8452 H 772.628 -2.43963 1.95451 0
M  V30 8453 H 771.848 -0.834676 3.85262 0
M  V30 8454 H 773.136 -1.52961 4.85263 0
M  V30 8455 H 772.534 -4.42196 3.52816 0
M  V30 8456 H 771.091 -4.84642 4.35851 0
M  V30 8457 N 774.524 -1.57472 -0.0634922 0
M  V30 8458 C 775.457 -1.99571 -1.10664 0
M  V30 8459 C 776.435 -0.874015 -1.37112 0
M  V30 8460 O 777.619 -1.13702 -1.50347 0
M  V30 8461 C 774.746 -2.3395 -2.44918 0
M  V30 8462 C 773.792 -3.56213 -2.34551 0
M  V30 8463 S 774.625 -5.06727 -1.73169 0
M  V30 8464 C 775.781 -5.44316 -3.08984 0
M  V30 8465 H 776.014 -2.87739 -0.747905 0
M  V30 8466 H 773.547 -1.5198 -0.272316 0
M  V30 8467 H 775.505 -2.54431 -3.22141 0
M  V30 8468 H 774.166 -1.46297 -2.7795 0
M  V30 8469 H 773.359 -3.77812 -3.33578 0
M  V30 8470 H 772.961 -3.35406 -1.65466 0
M  V30 8471 H 775.253 -5.42894 -4.05305 0
M  V30 8472 H 776.196 -6.4502 -2.92156 0
M  V30 8473 H 776.604 -4.71781 -3.09972 0
M  V30 8474 N 776.003 0.335068 -1.53997 0
M  V30 8475 C 777.233 1.0926 -1.75345 0
M  V30 8476 C 777.641 1.82568 -0.496545 0
M  V30 8477 O 776.984 1.75525 0.541897 0
M  V30 8478 C 777.046 2.14473 -2.88516 0
M  V30 8479 C 776.71 1.60665 -4.27827 0
M  V30 8480 C 777.707 1.05448 -5.09094 0
M  V30 8481 C 775.392 1.65255 -4.74337 0
M  V30 8482 C 777.386 0.555372 -6.34976 0
M  V30 8483 C 775.073 1.14956 -6.0019 0
M  V30 8484 C 776.071 0.601907 -6.80343 0
M  V30 8485 O 775.759 0.106445 -8.0383 0
M  V30 8486 H 775.491 0.331329 -0.589234 0
M  V30 8487 H 778.045 0.39042 -2.01655 0
M  V30 8488 H 776.275 2.88274 -2.5775 0
M  V30 8489 H 777.964 2.75857 -2.97755 0
M  V30 8490 H 778.73 1.01218 -4.74321 0
M  V30 8491 H 774.609 2.06822 -4.12002 0
M  V30 8492 H 778.153 0.127245 -6.97484 0
M  V30 8493 H 774.05 1.18891 -6.34457 0
M  V30 8494 H 774.818 0.222944 -8.18196 0
M  V30 8495 N 777.481 1.45874 0.596531 0
M  V30 8496 C 778.711 1.5379 1.37958 0
M  V30 8497 C 779.119 0.173086 1.88407 0
M  V30 8498 O 778.462 -0.837498 1.63498 0
M  V30 8499 C 778.524 2.47044 2.61169 0
M  V30 8500 C 778.188 3.93565 2.32283 0
M  V30 8501 C 779.185 4.83162 1.91965 0
M  V30 8502 C 776.87 4.38579 2.44854 0
M  V30 8503 C 778.864 6.15782 1.64593 0
M  V30 8504 C 776.551 5.71238 2.17095 0
M  V30 8505 C 777.549 6.59659 1.77028 0
M  V30 8506 O 777.237 7.89857 1.49601 0
M  V30 8507 H 776.969 0.523 0.428307 0
M  V30 8508 H 779.523 1.91855 0.733529 0
M  V30 8509 H 777.753 2.0397 3.28532 0
M  V30 8510 H 779.442 2.4552 3.23226 0
M  V30 8511 H 780.208 4.49646 1.8178 0
M  V30 8512 H 776.087 3.6999 2.75006 0
M  V30 8513 H 779.631 6.84757 1.33245 0
M  V30 8514 H 775.528 6.04306 2.26901 0
M  V30 8515 H 776.296 8.01991 1.63561 0
M  V30 8516 N 778.959 -0.83999 1.33349 0
M  V30 8517 C 779.869 -1.98182 1.25543 0
M  V30 8518 C 780.885 -1.73204 0.166208 0
M  V30 8519 O 782.061 -1.97596 0.389589 0
M  V30 8520 C 779.126 -3.32157 0.993614 0
M  V30 8521 C 778.187 -3.70258 2.17273 0
M  V30 8522 C 777.42 -4.9784 1.92331 0
M  V30 8523 O 777.643 -5.63679 0.873074 0
M  V30 8524 O 776.577 -5.33418 2.78835 0
M  V30 8525 H 780.403 -2.07708 2.21565 0
M  V30 8526 H 777.988 -0.972852 1.13384 0
M  V30 8527 H 779.87 -4.12433 0.864711 0
M  V30 8528 H 778.545 -3.23637 0.0636596 0
M  V30 8529 H 777.452 -2.90497 2.35716 0
M  V30 8530 H 778.785 -3.83442 3.08598 0
M  V30 8531 N 780.437 -1.16799 -1.0581 0
M  V30 8532 C 781.367 -0.902241 -2.15364 0
M  V30 8533 C 782.348 0.153351 -1.69407 0
M  V30 8534 O 783.533 0.00442032 -1.94199 0
M  V30 8535 C 780.663 -0.407911 -3.44896 0
M  V30 8536 C 779.617 -1.40197 -4.04387 0
M  V30 8537 C 778.943 -0.765848 -5.29187 0
M  V30 8538 C 780.243 -2.77316 -4.42598 0
M  V30 8539 H 781.937 -1.81841 -2.37853 0
M  V30 8540 H 779.483 -0.875731 -1.14311 0
M  V30 8541 H 781.436 -0.20945 -4.20879 0
M  V30 8542 H 780.16 0.54378 -3.22041 0
M  V30 8543 H 778.819 -1.58707 -3.30466 0
M  V30 8544 H 778.467 0.192482 -5.02632 0
M  V30 8545 H 778.167 -1.42939 -5.69949 0
M  V30 8546 H 779.691 -0.577519 -6.07863 0
M  V30 8547 H 781.105 -2.62561 -5.09642 0
M  V30 8548 H 779.502 -3.4019 -4.94359 0
M  V30 8549 H 780.572 -3.32199 -3.53231 0
M  V30 8550 N 781.915 1.24427 -0.967243 0
M  V30 8551 C 782.862 2.25398 -0.496419 0
M  V30 8552 C 783.832 1.59667 0.457781 0
M  V30 8553 O 785.017 1.87213 0.368246 0
M  V30 8554 C 782.157 3.44474 0.207693 0
M  V30 8555 C 781.27 4.24804 -0.785221 0
M  V30 8556 C 780.405 5.31169 -0.0572631 0
M  V30 8557 C 779.444 6.03195 -1.04027 0
M  V30 8558 N 778.581 7.01265 -0.34235 0
M  V30 8559 H 783.421 2.65039 -1.36229 0
M  V30 8560 H 780.958 1.30288 -0.682902 0
M  V30 8561 H 782.916 4.12376 0.632612 0
M  V30 8562 H 781.546 3.05672 1.03752 0
M  V30 8563 H 780.598 3.56445 -1.32858 0
M  V30 8564 H 781.91 4.74599 -1.53483 0
M  V30 8565 H 781.064 6.05205 0.425674 0
M  V30 8566 H 779.803 4.8228 0.725047 0
M  V30 8567 H 778.808 5.27964 -1.53409 0
M  V30 8568 H 780.033 6.54173 -1.82302 0
M  V30 8569 H 777.979 6.54648 0.420993 0
M  V30 8570 H 777.896 7.48939 -1.03084 0
M  V30 8571 H 779.164 7.7941 0.118634 0
M  V30 8572 N 783.393 0.737304 1.3929 0
M  V30 8573 C 784.639 0.286681 2.00763 0
M  V30 8574 C 784.972 -1.12388 1.58375 0
M  V30 8575 O 784.247 -1.76661 0.813699 0
M  V30 8576 C 784.53 0.391147 3.57969 0
M  V30 8577 C 784.383 1.84165 4.1037 0
M  V30 8578 C 785.702 -0.225072 4.39524 0
M  V30 8579 H 782.821 0.105642 0.729389 0
M  V30 8580 H 785.463 0.933892 1.65464 0
M  V30 8581 H 783.613 -0.159875 3.88171 0
M  V30 8582 H 785.285 2.44972 3.90879 0
M  V30 8583 H 783.528 2.3622 3.63844 0
M  V30 8584 H 784.199 1.866 5.19504 0
M  V30 8585 H 786.675 0.244677 4.1538 0
M  V30 8586 H 785.551 -0.121646 5.48765 0
M  V30 8587 H 785.812 -1.31141 4.22202 0
M  V30 8588 N 784.871 -1.49948 0.485112 0
M  V30 8589 C 786.117 -2.02695 -0.0651022 0
M  V30 8590 C 786.45 -1.36534 -1.38102 0
M  V30 8591 O 785.725 -0.495677 -1.88078 0
M  V30 8592 C 786.008 -3.59337 -0.234285 0
M  V30 8593 C 785.861 -4.3605 1.10364 0
M  V30 8594 C 787.18 -4.28996 -0.982351 0
M  V30 8595 H 784.299 -0.736666 -0.0221856 0
M  V30 8596 H 786.941 -1.7913 0.633433 0
M  V30 8597 H 785.091 -3.79546 -0.829262 0
M  V30 8598 H 786.763 -4.27377 1.73627 0
M  V30 8599 H 785.006 -3.99236 1.69686 0
M  V30 8600 H 785.677 -5.43959 0.938743 0
M  V30 8601 H 788.153 -4.13346 -0.477904 0
M  V30 8602 H 787.029 -5.38379 -1.06955 0
M  V30 8603 H 787.29 -3.93135 -2.02231 0
M  V30 8604 N 786.349 -0.21828 -1.56081 0
M  V30 8605 C 787.626 0.463143 -1.90038 0
M  V30 8606 C 788.006 1.77982 -1.13515 0
M  V30 8607 O 787.354 2.27199 -0.24345 0
M  V30 8608 C 787.564 0.659292 -3.42716 0
M  V30 8609 C 788.912 0.968203 -4.13414 0
M  V30 8610 O 789.936 0.746195 -3.48296 0
M  V30 8611 O 788.795 1.38936 -5.28544 0
M  V30 8612 H 785.889 0.244435 -0.790051 0
M  V30 8613 H 788.435 -0.260221 -1.67693 0
M  V30 8614 H 787.207 -0.269584 -3.9037 0
M  V30 8615 H 786.83 1.43426 -3.7083 0
M  V30 8616 N 787.827 1.57504 0.0551401 0
M  V30 8617 C 788.774 2.04825 1.06373 0
M  V30 8618 C 789.744 0.932108 1.37481 0
M  V30 8619 O 790.929 1.20093 1.48265 0
M  V30 8620 C 788.069 2.51091 2.36743 0
M  V30 8621 C 787.182 3.76392 2.12021 0
M  V30 8622 C 786.317 4.11373 3.36074 0
M  V30 8623 C 785.356 5.29666 3.0679 0
M  V30 8624 N 784.493 5.60205 4.2322 0
M  V30 8625 H 789.333 2.90753 0.653216 0
M  V30 8626 H 786.87 1.43776 0.310951 0
M  V30 8627 H 788.828 2.75973 3.12881 0
M  V30 8628 H 787.458 1.68118 2.75565 0
M  V30 8629 H 786.51 3.58751 1.26498 0
M  V30 8630 H 787.822 4.62662 1.86401 0
M  V30 8631 H 786.976 4.37245 4.20597 0
M  V30 8632 H 785.715 3.23704 3.64784 0
M  V30 8633 H 784.72 5.03574 2.20664 0
M  V30 8634 H 785.945 6.18968 2.79385 0
M  V30 8635 H 783.891 4.75495 4.5193 0
M  V30 8636 H 783.808 6.40928 4.00933 0
M  V30 8637 H 785.076 5.90637 5.08692 0
M  V30 8638 N 789.305 -0.326896 1.54172 0
M  V30 8639 C 790.552 -1.06523 1.72218 0
M  V30 8640 C 790.88 -1.88119 0.494114 0
M  V30 8641 O 790.135 -1.8855 -0.524147 0
M  V30 8642 C 790.434 -2.0208 2.94785 0
M  V30 8643 C 790.1 -1.36665 4.2969 0
M  V30 8644 C 788.762 -1.18556 4.66367 0
M  V30 8645 C 791.114 -0.896868 5.13425 0
M  V30 8646 C 788.442 -0.521113 5.84381 0
M  V30 8647 C 790.794 -0.246261 6.3212 0
M  V30 8648 C 789.458 -0.052987 6.67479 0
M  V30 8649 H 788.728 -0.389796 0.63019 0
M  V30 8650 H 791.375 -0.342725 1.88408 0
M  V30 8651 H 789.68 -2.8077 2.73268 0
M  V30 8652 H 791.377 -2.59231 3.05941 0
M  V30 8653 H 787.967 -1.51762 4.00832 0
M  V30 8654 H 792.151 -1.02458 4.85609 0
M  V30 8655 H 787.407 -0.36014 6.10338 0
M  V30 8656 H 791.581 0.125775 6.96286 0
M  V30 8657 H 789.208 0.463903 7.58783 0
M  V30 8658 N 790.784 -1.46188 -0.588786 0
M  V30 8659 C 791.734 -1.5271 -1.69303 0
M  V30 8660 C 792.718 -0.388578 -1.56137 0
M  V30 8661 O 793.91 -0.636616 -1.65155 0
M  V30 8662 C 791.039 -1.51457 -3.08084 0
M  V30 8663 C 790.125 -2.70581 -3.26568 0
M  V30 8664 N 790.516 -3.9555 -3.15236 0
M  V30 8665 C 788.814 -2.66676 -3.57491 0
M  V30 8666 C 789.515 -4.75157 -3.35561 0
M  V30 8667 N 788.491 -4.06927 -3.60432 0
M  V30 8668 H 792.293 -2.47136 -1.59063 0
M  V30 8669 H 789.807 -1.41743 -0.792632 0
M  V30 8670 H 791.804 -1.54216 -3.87328 0
M  V30 8671 H 790.464 -0.581036 -3.19459 0
M  V30 8672 H 791.475 -4.2689 -2.93232 0
M  V30 8673 H 788.152 -1.82317 -3.75588 0
M  V30 8674 H 789.542 -5.84126 -3.32034 0
M  V30 8675 N 792.262 0.832906 -1.33792 0
M  V30 8676 C 793.511 1.58351 -1.24932 0
M  V30 8677 C 793.824 1.94754 0.181703 0
M  V30 8678 O 795.03 2.6865 0.392375 0
M  V30 8679 C 793.486 2.85643 -2.18943 0
M  V30 8680 C 793.094 2.56581 -3.67247 0
M  V30 8681 C 794.838 3.63667 -2.18968 0
M  V30 8682 C 792.745 3.80006 -4.53155 0
M  V30 8683 H 791.675 0.594278 -0.464058 0
M  V30 8684 H 794.326 0.91786 -1.58895 0
M  V30 8685 H 792.708 3.53781 -1.77919 0
M  V30 8686 H 793.882 1.96617 -4.16747 0
M  V30 8687 H 792.197 1.91851 -3.6957 0
M  V30 8688 H 794.794 4.55293 -2.80379 0
M  V30 8689 H 795.137 3.99039 -1.18631 0
M  V30 8690 H 795.67 3.0246 -2.58384 0
M  V30 8691 H 792.409 3.4976 -5.5439 0
M  V30 8692 H 791.929 4.39288 -4.08395 0
M  V30 8693 H 793.608 4.47523 -4.6726 0
M  V30 8694 N 793.74 1.17359 1.05189 0
M  V30 8695 C 795.151 0.96793 1.5965 0
M  V30 8696 C 795.502 -0.485355 1.90102 0
M  V30 8697 O 794.627 -1.36066 1.6827 0
M  V30 8698 C 795.222 1.75068 2.90063 0
M  V30 8699 C 793.781 1.58969 3.41183 0
M  V30 8700 C 792.928 1.75231 2.14917 0
M  V30 8701 H 795.879 1.32067 0.880001 0
M  V30 8702 H 795.9 1.23308 3.59966 0
M  V30 8703 H 795.412 2.80835 2.67868 0
M  V30 8704 H 793.513 0.556906 3.68415 0
M  V30 8705 H 793.626 2.38067 4.15766 0
M  V30 8706 H 791.99 1.18073 2.25679 0
M  V30 8707 H 792.773 2.8241 1.95191 0
M  V30 8708 N 795.218 -1.23913 0.973828 0
M  V30 8709 C 796.15 -2.24397 0.466763 0
M  V30 8710 C 797.163 -1.57078 -0.427828 0
M  V30 8711 O 798.352 -1.76973 -0.233019 0
M  V30 8712 C 795.452 -3.37141 -0.344798 0
M  V30 8713 C 794.625 -4.34037 0.541349 0
M  V30 8714 C 793.684 -5.2576 -0.215243 0
M  V30 8715 O 792.71 -5.67842 0.39291 0
M  V30 8716 N 793.912 -5.60702 -1.5031 0
M  V30 8717 H 796.677 -2.68536 1.33074 0
M  V30 8718 H 794.238 -1.38017 0.846346 0
M  V30 8719 H 796.23 -3.95476 -0.859133 0
M  V30 8720 H 794.8 -2.92239 -1.10974 0
M  V30 8721 H 794.02 -3.74302 1.23659 0
M  V30 8722 H 795.308 -4.95738 1.1455 0
M  V30 8723 H 794.706 -5.28451 -2.01882 0
M  V30 8724 H 793.263 -6.21538 -1.96301 0
M  V30 8725 N 796.696 -0.74468 -1.38897 0
M  V30 8726 C 797.606 -0.112892 -2.34328 0
M  V30 8727 C 798.622 0.71087 -1.58816 0
M  V30 8728 O 799.798 0.637092 -1.91058 0
M  V30 8729 C 796.863 0.776417 -3.37894 0
M  V30 8730 C 795.924 -0.0606999 -4.29257 0
M  V30 8731 C 795.157 0.786258 -5.27877 0
M  V30 8732 O 795.38 2.02463 -5.33259 0
M  V30 8733 O 794.314 0.209781 -6.01534 0
M  V30 8734 H 798.14 -0.900801 -2.90033 0
M  V30 8735 H 795.725 -0.505462 -1.4059 0
M  V30 8736 H 797.607 1.28496 -4.01331 0
M  V30 8737 H 796.282 1.54297 -2.84559 0
M  V30 8738 H 795.189 -0.614984 -3.69011 0
M  V30 8739 H 796.522 -0.789702 -4.85824 0
M  V30 8740 N 798.174 1.49689 -0.493057 0
M  V30 8741 C 799.137 2.27502 0.278485 0
M  V30 8742 C 800.137 1.33184 0.901037 0
M  V30 8743 O 801.327 1.56415 0.766801 0
M  V30 8744 C 798.459 3.10881 1.39878 0
M  V30 8745 H 799.652 2.97163 -0.404219 0
M  V30 8746 H 797.205 1.54324 -0.247774 0
M  V30 8747 H 797.94 2.45767 2.11587 0
M  V30 8748 H 797.725 3.80219 0.957924 0
M  V30 8749 H 799.215 3.69673 1.94247 0
M  V30 8750 N 799.652 0.226554 1.55963 0
M  V30 8751 C 800.582 -0.676079 2.23498 0
M  V30 8752 C 801.563 -1.19718 1.20837 0
M  V30 8753 O 802.748 -1.24027 1.49436 0
M  V30 8754 C 799.878 -1.88217 2.91876 0
M  V30 8755 C 798.832 -1.4947 4.01052 0
M  V30 8756 C 798.158 -2.77997 4.56751 0
M  V30 8757 C 799.458 -0.680951 5.17842 0
M  V30 8758 H 801.152 -0.112989 2.99187 0
M  V30 8759 H 798.698 -0.0529046 1.43903 0
M  V30 8760 H 800.651 -2.51911 3.37815 0
M  V30 8761 H 799.375 -2.47031 2.13643 0
M  V30 8762 H 798.034 -0.881199 3.55852 0
M  V30 8763 H 797.682 -3.34966 3.75243 0
M  V30 8764 H 797.382 -2.52803 5.30438 0
M  V30 8765 H 798.906 -3.42625 5.05411 0
M  V30 8766 H 800.32 -1.22171 5.60131 0
M  V30 8767 H 798.717 -0.525898 5.97791 0
M  V30 8768 H 799.787 0.311346 4.83899 0
M  V30 8769 N 801.13 -1.57531 -0.0467866 0
M  V30 8770 C 802.376 -1.8873 -0.742218 0
M  V30 8771 C 802.709 -0.822084 -1.75941 0
M  V30 8772 O 801.984 0.164922 -1.938 0
M  V30 8773 C 802.267 -3.30586 -1.42776 0
M  V30 8774 C 802.12 -4.47785 -0.425285 0
M  V30 8775 C 803.439 -3.71068 -2.36636 0
M  V30 8776 H 800.558 -0.686406 -0.268359 0
M  V30 8777 H 803.2 -1.89999 -0.00511341 0
M  V30 8778 H 801.35 -3.29634 -2.05605 0
M  V30 8779 H 803.022 -4.60867 0.199721 0
M  V30 8780 H 801.265 -4.33037 0.25713 0
M  V30 8781 H 801.936 -5.43884 -0.943086 0
M  V30 8782 H 804.412 -3.73273 -1.83866 0
M  V30 8783 H 803.288 -4.71165 -2.81593 0
M  V30 8784 H 803.549 -3.02355 -3.22542 0
M  V30 8785 N 802.608 0.318715 -1.54344 0
M  V30 8786 C 804.024 0.663345 -1.45162 0
M  V30 8787 C 804.224 1.9145 -0.62842 0
M  V30 8788 O 803.28 2.5217 -0.129126 0
M  V30 8789 C 804.593 0.832836 -2.88937 0
M  V30 8790 C 806.141 0.929866 -2.98869 0
M  V30 8791 C 806.616 1.13149 -4.43803 0
M  V30 8792 N 808.107 1.19811 -4.47437 0
M  V30 8793 C 808.842 1.37209 -5.56742 0
M  V30 8794 N 808.338 1.51619 -6.76006 0
M  V30 8795 N 810.131 1.39956 -5.44398 0
M  V30 8796 H 802.282 -0.50357 -2.06344 0
M  V30 8797 H 804.545 -0.163528 -0.933789 0
M  V30 8798 H 804.251 -0.0153519 -3.51697 0
M  V30 8799 H 804.125 1.72721 -3.35332 0
M  V30 8800 H 806.512 1.76855 -2.36233 0
M  V30 8801 H 806.593 0.0118561 -2.55797 0
M  V30 8802 H 806.237 0.297636 -5.07027 0
M  V30 8803 H 806.167 2.06345 -4.84489 0
M  V30 8804 H 808.658 1.101 -3.61506 0
M  V30 8805 H 808.971 1.64599 -7.55067 0
M  V30 8806 H 807.316 1.48708 -6.78904 0
M  V30 8807 H 810.507 1.28298 -4.50175 0
M  V30 8808 H 810.68 1.53172 -6.29637 0
M  V30 8809 N 804.086 1.46499 0.581025 0
M  V30 8810 C 805.333 1.51896 1.33918 0
M  V30 8811 C 805.661 0.171361 1.93744 0
M  V30 8812 O 804.916 -0.833178 1.77078 0
M  V30 8813 C 805.215 2.56686 2.48691 0
M  V30 8814 C 804.881 4.00656 2.06847 0
M  V30 8815 C 803.543 4.39852 1.9515 0
M  V30 8816 C 805.895 4.91089 1.74589 0
M  V30 8817 C 803.223 5.67345 1.49456 0
M  V30 8818 C 805.575 6.1902 1.30373 0
M  V30 8819 C 804.239 6.57121 1.17255 0
M  V30 8820 H 803.509 0.555826 0.490039 0
M  V30 8821 H 806.156 1.79983 0.654092 0
M  V30 8822 H 804.461 2.22266 3.22653 0
M  V30 8823 H 806.158 2.58091 3.06904 0
M  V30 8824 H 802.748 3.69674 2.16886 0
M  V30 8825 H 806.932 4.61523 1.8251 0
M  V30 8826 H 802.188 5.95635 1.37944 0
M  V30 8827 H 806.362 6.8852 1.04467 0
M  V30 8828 H 803.989 7.55805 0.816236 0
M  V30 8829 N 805.565 -0.825799 1.34232 0
M  V30 8830 C 806.498 -1.94155 1.19914 0
M  V30 8831 C 807.476 -1.62343 0.0914533 0
M  V30 8832 O 808.66 -1.86752 0.256082 0
M  V30 8833 C 805.787 -3.28064 0.842138 0
M  V30 8834 C 804.833 -3.78839 1.95917 0
M  V30 8835 S 805.666 -3.98943 3.57218 0
M  V30 8836 C 806.822 -5.35783 3.23554 0
M  V30 8837 H 807.055 -2.06003 2.14359 0
M  V30 8838 H 804.588 -0.981053 1.19225 0
M  V30 8839 H 806.546 -4.05434 0.642952 0
M  V30 8840 H 805.207 -3.13988 -0.0839363 0
M  V30 8841 H 804.4 -4.75771 1.66306 0
M  V30 8842 H 804.002 -3.08406 2.11569 0
M  V30 8843 H 806.294 -6.19094 2.7519 0
M  V30 8844 H 807.237 -5.70376 4.19615 0
M  V30 8845 H 807.645 -5.01158 2.5981 0
M  V30 8846 N 807.043 -1.17915 -1.04565 0
M  V30 8847 C 808.273 -0.994716 -1.81077 0
M  V30 8848 C 808.681 0.460146 -1.83519 0
M  V30 8849 O 808.024 1.33136 -1.26572 0
M  V30 8850 C 808.086 -1.46698 -3.28207 0
M  V30 8851 C 807.75 -2.94523 -3.49436 0
M  V30 8852 C 808.747 -3.92414 -3.41038 0
M  V30 8853 C 806.432 -3.32841 -3.76194 0
M  V30 8854 C 808.426 -5.2662 -3.59096 0
M  V30 8855 C 806.113 -4.67212 -3.93899 0
M  V30 8856 C 807.111 -5.6391 -3.8535 0
M  V30 8857 O 806.799 -6.95849 -4.02554 0
M  V30 8858 H 806.531 -0.351797 -0.577248 0
M  V30 8859 H 809.085 -1.56772 -1.32709 0
M  V30 8860 H 807.315 -0.837592 -3.7752 0
M  V30 8861 H 809.004 -1.24724 -3.86263 0
M  V30 8862 H 809.77 -3.64157 -3.20336 0
M  V30 8863 H 805.649 -2.58139 -3.81949 0
M  V30 8864 H 809.193 -6.02082 -3.52339 0
M  V30 8865 H 805.09 -4.95172 -4.14095 0
M  V30 8866 H 805.858 -7.02679 -4.19743 0
M  V30 8867 N 808.521 1.23394 -0.980386 0
M  V30 8868 C 809.746 1.96384 -0.666935 0
M  V30 8869 C 810.171 1.72087 0.759456 0
M  V30 8870 O 809.529 0.992328 1.51732 0
M  V30 8871 C 809.577 3.47499 -0.963177 0
M  V30 8872 O 808.681 4.12363 -0.0552051 0
M  V30 8873 H 808.022 0.614797 -0.250839 0
M  V30 8874 H 810.552 1.56831 -1.31398 0
M  V30 8875 H 810.562 3.97953 -0.899877 0
M  V30 8876 H 809.237 3.6451 -2.00264 0
M  V30 8877 H 807.814 3.72499 -0.172914 0
M  V30 8878 N 809.999 0.752036 1.385 0
M  V30 8879 C 810.929 0.138718 2.33088 0
M  V30 8880 C 811.91 -0.705318 1.54788 0
M  V30 8881 O 813.095 -0.646821 1.83112 0
M  V30 8882 C 810.225 -0.75641 3.38963 0
M  V30 8883 C 809.179 -0.0152239 4.27997 0
M  V30 8884 C 808.505 -1.0285 5.24715 0
M  V30 8885 C 809.805 1.15226 5.09431 0
M  V30 8886 H 811.499 0.928852 2.84627 0
M  V30 8887 H 809.045 0.448111 1.3685 0
M  V30 8888 H 810.998 -1.19513 4.04097 0
M  V30 8889 H 809.722 -1.57885 2.85902 0
M  V30 8890 H 808.381 0.404061 3.64366 0
M  V30 8891 H 808.029 -1.84496 4.67943 0
M  V30 8892 H 807.729 -0.537238 5.85139 0
M  V30 8893 H 809.253 -1.46657 5.92726 0
M  V30 8894 H 810.667 0.791161 5.67815 0
M  V30 8895 H 809.064 1.57428 5.79082 0
M  V30 8896 H 810.134 1.9659 4.43261 0
M  V30 8897 N 811.477 -1.49425 0.500989 0
M  V30 8898 C 812.702 -2.07356 -0.0425154 0
M  V30 8899 C 813.127 -1.35887 -1.30063 0
M  V30 8900 O 812.485 -0.41561 -1.76472 0
M  V30 8901 C 812.533 -3.59518 -0.279188 0
M  V30 8902 O 811.637 -3.89542 -1.3539 0
M  V30 8903 H 810.978 -0.663482 0.0262207 0
M  V30 8904 H 813.508 -1.92231 0.700607 0
M  V30 8905 H 813.518 -4.04791 -0.5107 0
M  V30 8906 H 812.193 -4.10946 0.640009 0
M  V30 8907 H 810.77 -3.56079 -1.10734 0
M  V30 8908 N 812.955 -0.234822 -1.55841 0
M  V30 8909 C 813.902 0.6698 -2.20867 0
M  V30 8910 C 814.872 1.18042 -1.16856 0
M  V30 8911 O 816.057 1.23709 -1.45261 0
M  V30 8912 C 813.197 1.86646 -2.90271 0
M  V30 8913 C 812.31 1.39351 -4.08908 0
M  V30 8914 C 811.445 2.54878 -4.66059 0
M  V30 8915 C 810.484 2.04384 -5.76969 0
M  V30 8916 N 809.621 3.13233 -6.28355 0
M  V30 8917 H 814.461 0.10858 -2.97802 0
M  V30 8918 H 811.998 0.041836 -1.4704 0
M  V30 8919 H 813.956 2.56926 -3.28702 0
M  V30 8920 H 812.586 2.40035 -2.15831 0
M  V30 8921 H 811.638 0.585173 -3.75872 0
M  V30 8922 H 812.95 0.983356 -4.89011 0
M  V30 8923 H 812.104 3.33219 -5.07001 0
M  V30 8924 H 810.843 2.99188 -3.85146 0
M  V30 8925 H 809.848 1.24509 -5.35516 0
M  V30 8926 H 811.073 1.61057 -6.59725 0
M  V30 8927 H 809.019 3.57 -5.50352 0
M  V30 8928 H 808.936 2.76511 -7.03618 0
M  V30 8929 H 810.204 3.91669 -6.73955 0
M  V30 8930 N 814.433 1.57553 0.0384317 0
M  V30 8931 C 815.681 1.88468 0.729672 0
M  V30 8932 C 816.002 0.831302 1.76393 0
M  V30 8933 O 815.272 -0.13622 1.95426 0
M  V30 8934 H 813.852 0.695529 0.272485 0
M  V30 8935 H 816.514 1.94899 0.0066032 0
M  V30 8936 H 815.61 2.8705 1.22511 0
M  V30 8937 N 815.911 -0.310526 1.54511 0
M  V30 8938 C 817.141 -1.06456 1.77061 0
M  V30 8939 C 817.549 -1.81755 0.525528 0
M  V30 8940 O 816.892 -1.76365 -0.513904 0
M  V30 8941 C 816.954 -2.09856 2.91892 0
M  V30 8942 C 816.618 -1.53838 4.30329 0
M  V30 8943 C 817.615 -0.973358 5.10707 0
M  V30 8944 C 815.3 -1.57688 4.76906 0
M  V30 8945 C 817.294 -0.454283 6.35779 0
M  V30 8946 C 814.981 -1.05393 6.01943 0
M  V30 8947 C 815.979 -0.493595 6.81214 0
M  V30 8948 O 815.667 0.0214506 8.03897 0
M  V30 8949 H 815.399 -0.321913 0.594431 0
M  V30 8950 H 817.953 -0.358289 2.02251 0
M  V30 8951 H 816.183 -2.84137 2.62304 0
M  V30 8952 H 817.872 -2.71085 3.02106 0
M  V30 8953 H 818.638 -0.936588 4.75871 0
M  V30 8954 H 814.517 -2.00242 4.1524 0
M  V30 8955 H 818.061 -0.0162657 6.97598 0
M  V30 8956 H 813.958 -1.08782 6.36268 0
M  V30 8957 H 814.726 -0.0927478 8.18447 0
M  V30 8958 N 817.389 -1.46805 -0.573248 0
M  V30 8959 C 818.805 -1.31969 -0.897577 0
M  V30 8960 C 819.005 -0.298171 -1.99282 0
M  V30 8961 O 818.061 0.295953 -2.5076 0
M  V30 8962 C 819.374 -2.70859 -1.30598 0
M  V30 8963 C 820.922 -2.79022 -1.4183 0
M  V30 8964 C 821.397 -4.18516 -1.86033 0
M  V30 8965 N 822.888 -4.2098 -1.9321 0
M  V30 8966 C 823.623 -5.25814 -2.28707 0
M  V30 8967 N 823.119 -6.40968 -2.6293 0
M  V30 8968 N 824.912 -5.13184 -2.29343 0
M  V30 8969 H 817.063 -2.11869 0.150094 0
M  V30 8970 H 819.326 -0.947989 0.00447895 0
M  V30 8971 H 819.032 -3.46965 -0.575161 0
M  V30 8972 H 818.906 -3.01585 -2.26554 0
M  V30 8973 H 821.293 -2.03198 -2.13996 0
M  V30 8974 H 821.374 -2.51969 -0.441024 0
M  V30 8975 H 821.018 -4.94839 -1.14442 0
M  V30 8976 H 820.948 -4.42982 -2.84735 0
M  V30 8977 H 823.439 -3.37898 -1.69214 0
M  V30 8978 H 823.752 -7.16729 -2.88996 0
M  V30 8979 H 822.097 -6.44314 -2.60547 0
M  V30 8980 H 825.288 -4.22255 -2.02036 0
M  V30 8981 H 825.461 -5.94996 -2.56679 0
M  V30 8982 N 818.867 0.818669 -1.34668 0
M  V30 8983 C 819.814 1.92983 -1.26595 0
M  V30 8984 C 820.784 1.65506 -0.140315 0
M  V30 8985 O 821.969 1.88063 -0.322005 0
M  V30 8986 C 819.109 3.2932 -1.03163 0
M  V30 8987 C 818.222 3.69061 -2.24539 0
M  V30 8988 C 817.357 4.94368 -1.94355 0
M  V30 8989 C 816.396 5.26702 -3.11851 0
M  V30 8990 N 815.533 6.43187 -2.81522 0
M  V30 8991 H 820.373 1.99219 -2.2162 0
M  V30 8992 H 817.91 0.974612 -1.1018 0
M  V30 8993 H 819.868 4.07897 -0.87613 0
M  V30 8994 H 818.498 3.22584 -0.118045 0
M  V30 8995 H 817.55 2.85842 -2.50995 0
M  V30 8996 H 818.862 3.88924 -3.12313 0
M  V30 8997 H 818.016 5.80742 -1.75566 0
M  V30 8998 H 816.755 4.76515 -1.03848 0
M  V30 8999 H 815.76 4.38823 -3.31231 0
M  V30 9000 H 816.985 5.46492 -4.03142 0
M  V30 9001 H 814.931 6.26783 -1.93596 0
M  V30 9002 H 814.848 6.63243 -3.62829 0
M  V30 9003 H 816.116 7.32621 -2.66247 0
M  V30 9004 N 820.346 1.18468 1.03938 0
M  V30 9005 C 821.595 0.975193 1.76558 0
M  V30 9006 C 821.908 -0.495978 1.89207 0
M  V30 9007 O 823.114 -0.824009 2.58694 0
M  V30 9008 C 821.57 1.69579 3.17444 0
M  V30 9009 C 821.178 3.20636 3.12884 0
M  V30 9010 C 822.922 1.56917 3.94433 0
M  V30 9011 C 820.829 3.8533 4.48636 0
M  V30 9012 H 819.759 0.361244 0.66183 0
M  V30 9013 H 822.41 1.41854 1.16403 0
M  V30 9014 H 820.792 1.18022 3.78004 0
M  V30 9015 H 821.966 3.79228 2.61768 0
M  V30 9016 H 820.281 3.33454 2.49394 0
M  V30 9017 H 822.878 2.02611 4.94826 0
M  V30 9018 H 823.221 0.521638 4.13019 0
M  V30 9019 H 823.754 2.05762 3.40451 0
M  V30 9020 H 820.493 4.90136 4.35255 0
M  V30 9021 H 820.013 3.31526 4.99851 0
M  V30 9022 H 821.692 3.88269 5.17549 0
M  V30 9023 N 821.824 -1.22873 0.986916 0
M  V30 9024 C 823.052 -1.95487 0.677663 0
M  V30 9025 C 823.467 -1.72978 -0.756572 0
M  V30 9026 O 822.824 -1.02517 -1.50985 0
M  V30 9027 C 822.875 -3.48337 0.966638 0
M  V30 9028 O 822.596 -3.70087 2.34451 0
M  V30 9029 C 824.097 -4.38142 0.674248 0
M  V30 9030 H 821.317 -0.622211 0.251185 0
M  V30 9031 H 823.861 -1.56187 1.32007 0
M  V30 9032 H 822.016 -3.85628 0.370137 0
M  V30 9033 H 822.43 -4.64332 2.43918 0
M  V30 9034 H 823.904 -5.44165 0.926759 0
M  V30 9035 H 824.381 -4.3745 -0.391728 0
M  V30 9036 H 824.987 -4.06469 1.25152 0
M  V30 9037 N 823.302 -0.75937 -1.38099 0
M  V30 9038 C 824.532 -0.328634 -2.0397 0
M  V30 9039 C 824.94 1.04989 -1.57398 0
M  V30 9040 O 824.283 1.67918 -0.744932 0
M  V30 9041 C 824.345 -0.279216 -3.58414 0
M  V30 9042 C 824.009 -1.60025 -4.28067 0
M  V30 9043 C 825.006 -2.55048 -4.53041 0
M  V30 9044 C 822.691 -1.87128 -4.66142 0
M  V30 9045 C 824.685 -3.7539 -5.15132 0
M  V30 9046 C 822.372 -3.07742 -5.27956 0
M  V30 9047 C 823.37 -4.01694 -5.52387 0
M  V30 9048 O 823.058 -5.20186 -6.12912 0
M  V30 9049 H 822.79 -0.137443 -0.66188 0
M  V30 9050 H 825.344 -1.03082 -1.77661 0
M  V30 9051 H 823.574 0.479254 -3.83719 0
M  V30 9052 H 825.263 0.122781 -4.05714 0
M  V30 9053 H 826.029 -2.35387 -4.24049 0
M  V30 9054 H 821.908 -1.14833 -4.46469 0
M  V30 9055 H 825.452 -4.48737 -5.34117 0
M  V30 9056 H 821.349 -3.27294 -5.56371 0
M  V30 9057 H 822.117 -5.20846 -6.31397 0
M  V30 9058 N 824.78 1.49157 -0.508906 0
M  V30 9059 C 825.73 2.26215 0.284705 0
M  V30 9060 C 826.714 1.31401 0.928586 0
M  V30 9061 O 827.906 1.56073 0.834877 0
M  V30 9062 C 825.035 3.15906 1.34382 0
M  V30 9063 C 824.121 4.18186 0.705785 0
M  V30 9064 N 824.512 5.05419 -0.196214 0
M  V30 9065 C 822.81 4.35425 0.965457 0
M  V30 9066 C 823.511 5.78977 -0.562222 0
M  V30 9067 N 822.487 5.43553 0.0717389 0
M  V30 9068 H 826.289 2.91033 -0.409543 0
M  V30 9069 H 823.803 1.59104 -0.325508 0
M  V30 9070 H 825.8 3.6975 1.92589 0
M  V30 9071 H 824.46 2.52642 2.03966 0
M  V30 9072 H 825.471 5.14781 -0.567526 0
M  V30 9073 H 822.148 3.83363 1.65346 0
M  V30 9074 H 823.538 6.59192 -1.30062 0
M  V30 9075 N 826.258 0.243083 1.55714 0
M  V30 9076 C 827.206 -0.674349 2.2261 0
M  V30 9077 C 828.2 -1.18307 1.21243 0
M  V30 9078 O 829.406 -1.1404 1.39265 0
M  V30 9079 H 825.781 -0.235941 0.714028 0
M  V30 9080 H 827.752 -0.0869446 2.98273 0
M  V30 9081 C 826.501 -1.86206 2.93637 0
M  V30 9082 H 825.824 -1.47975 3.71407 0
M  V30 9083 H 827.264 -2.4813 3.43813 0
M  V30 9084 C 825.723 -2.73084 1.97298 0
M  V30 9085 O 826.253 -3.72497 1.50361 0
M  V30 9086 N 824.459 -2.39571 1.64482 0
M  V30 9087 H 824.006 -1.5878 2.02846 0
M  V30 9088 H 823.964 -2.97976 1.00288 0
M  V30 9089 N 827.736 -1.57571 -0.0300757 0
M  V30 9090 C 828.982 -1.90355 -0.716687 0
M  V30 9091 C 829.337 -0.841568 -1.73018 0
M  V30 9092 O 828.63 0.149847 -1.91013 0
M  V30 9093 C 828.824 -3.27624 -1.42818 0
M  V30 9094 C 828.653 -4.47076 -0.485111 0
M  V30 9095 C 827.423 -5.05188 -0.106533 0
M  V30 9096 C 829.621 -5.13758 0.236059 0
M  V30 9097 N 827.603 -6.08155 0.837899 0
M  V30 9098 C 828.974 -6.1128 1.03619 0
M  V30 9099 C 831.029 -4.96977 0.30311 0
M  V30 9100 C 829.732 -6.93829 1.89721 0
M  V30 9101 C 831.758 -5.80086 1.15125 0
M  V30 9102 C 831.12 -6.77178 1.9393 0
M  V30 9103 H 827.219 -0.745417 -0.236384 0
M  V30 9104 H 829.803 -1.94686 0.0231985 0
M  V30 9105 H 827.974 -3.24224 -2.13854 0
M  V30 9106 H 829.706 -3.47927 -2.0671 0
M  V30 9107 H 826.461 -4.71277 -0.468498 0
M  V30 9108 H 826.885 -6.64311 1.30459 0
M  V30 9109 H 831.527 -4.21791 -0.291858 0
M  V30 9110 H 829.245 -7.6836 2.50298 0
M  V30 9111 H 832.831 -5.6915 1.20665 0
M  V30 9112 H 831.711 -7.4037 2.58499 0
M  V30 9113 N 829.214 0.302327 -1.54673 0
M  V30 9114 C 830.63 0.647911 -1.45857 0
M  V30 9115 C 830.83 1.90773 -0.64869 0
M  V30 9116 O 829.886 2.52018 -0.155865 0
M  V30 9117 C 831.199 0.802144 -2.89804 0
M  V30 9118 C 832.747 0.898114 -2.99838 0
M  V30 9119 C 833.222 1.08436 -4.44978 0
M  V30 9120 N 834.713 1.15059 -4.48682 0
M  V30 9121 C 835.448 1.31296 -5.58166 0
M  V30 9122 N 834.944 1.4444 -6.77576 0
M  V30 9123 N 836.737 1.34174 -5.45851 0
M  V30 9124 H 828.888 -0.525428 -2.05798 0
M  V30 9125 H 831.151 -0.173423 -0.932002 0
M  V30 9126 H 830.857 -0.0526531 -3.51661 0
M  V30 9127 H 830.731 1.69155 -3.37145 0
M  V30 9128 H 833.118 1.7434 -2.38096 0
M  V30 9129 H 833.199 -0.0152752 -2.55795 0
M  V30 9130 H 832.843 0.243843 -5.07314 0
M  V30 9131 H 832.773 2.01195 -4.8665 0
M  V30 9132 H 835.264 1.0626 -3.62653 0
M  V30 9133 H 835.577 1.56582 -7.56771 0
M  V30 9134 H 833.922 1.41499 -6.80443 0
M  V30 9135 H 837.113 1.23516 -4.5151 0
M  V30 9136 H 837.286 1.46485 -6.31226 0
M  V30 9137 N 830.692 1.47107 0.565454 0
M  V30 9138 C 831.642 1.55384 1.66852 0
M  V30 9139 C 832.626 0.413369 1.55499 0
M  V30 9140 O 833.818 0.66281 1.64121 0
M  V30 9141 C 830.947 1.5634 3.05635 0
M  V30 9142 C 830.033 2.75742 3.22222 0
M  V30 9143 N 830.424 4.00515 3.08903 0
M  V30 9144 C 828.722 2.7233 3.53203 0
M  V30 9145 C 829.423 4.80435 3.27959 0
M  V30 9146 N 828.399 4.1261 3.53913 0
M  V30 9147 H 832.201 2.49635 1.55111 0
M  V30 9148 H 829.715 1.42986 0.769982 0
M  V30 9149 H 831.712 1.60359 3.84825 0
M  V30 9150 H 830.372 0.631785 3.18494 0
M  V30 9151 H 831.383 4.31501 2.86404 0
M  V30 9152 H 828.06 1.8827 3.7264 0
M  V30 9153 H 829.45 5.89334 3.22699 0
M  V30 9154 N 832.17 -0.811516 1.35101 0
M  V30 9155 C 833.418 -1.56525 1.27845 0
M  V30 9156 C 833.739 -1.94435 -0.14829 0
M  V30 9157 O 833.009 -1.63203 -1.08359 0
M  V30 9158 H 831.589 -0.580433 0.47022 0
M  V30 9159 H 834.251 -0.968277 1.69146 0
M  V30 9160 H 833.347 -2.48291 1.89097 0
M  V30 9161 N 833.648 -1.19017 -1.03309 0
M  V30 9162 C 834.895 -0.990214 -1.76638 0
M  V30 9163 C 835.223 0.479435 -1.88498 0
M  V30 9164 O 834.478 1.37223 -1.39529 0
M  V30 9165 C 834.777 -1.59927 -3.19622 0
M  V30 9166 C 834.443 -3.09632 -3.27779 0
M  V30 9167 C 833.105 -3.50491 -3.29712 0
M  V30 9168 C 835.457 -4.05644 -3.27264 0
M  V30 9169 C 832.785 -4.85921 -3.28782 0
M  V30 9170 C 835.137 -5.41 -3.27875 0
M  V30 9171 C 833.801 -5.81295 -3.28104 0
M  V30 9172 H 833.071 -0.362345 -0.646364 0
M  V30 9173 H 835.718 -1.48197 -1.21284 0
M  V30 9174 H 834.023 -1.0297 -3.78027 0
M  V30 9175 H 835.72 -1.41989 -3.7502 0
M  V30 9176 H 832.31 -2.77073 -3.26999 0
M  V30 9177 H 836.494 -3.75124 -3.24955 0
M  V30 9178 H 831.75 -5.16427 -3.27281 0
M  V30 9179 H 835.924 -6.15157 -3.26428 0
M  V30 9180 H 833.551 -6.86211 -3.27138 0
M  V30 9181 N 835.127 1.22348 -0.993418 0
M  V30 9182 C 836.075 2.26315 -0.537052 0
M  V30 9183 C 837.069 1.643 0.412545 0
M  V30 9184 O 838.275 1.77729 0.285008 0
M  V30 9185 H 834.65 0.735792 -0.155286 0
M  V30 9186 H 836.621 2.62157 -1.42535 0
M  V30 9187 C 835.37 3.47449 0.132118 0
M  V30 9188 H 834.693 3.9543 -0.589519 0
M  V30 9189 H 836.133 4.21965 0.414884 0
M  V30 9190 C 834.592 3.07893 1.36761 0
M  V30 9191 O 835.122 3.17338 2.46291 0
M  V30 9192 N 833.328 2.62672 1.24305 0
M  V30 9193 H 832.875 2.55186 0.351826 0
M  V30 9194 H 832.833 2.36574 2.07076 0
M  V30 9195 N 836.605 0.766683 1.37694 0
M  V30 9196 C 837.851 0.329201 2.0011 0
M  V30 9197 C 838.184 -1.09004 1.60723 0
M  V30 9198 O 837.459 -1.74895 0.850989 0
M  V30 9199 C 837.742 0.466989 3.57059 0
M  V30 9200 C 837.595 1.92828 4.06371 0
M  V30 9201 C 838.914 -0.131792 4.39903 0
M  V30 9202 H 836.033 0.12109 0.726984 0
M  V30 9203 H 838.675 0.968779 1.63446 0
M  V30 9204 H 836.825 -0.0775023 3.88423 0
M  V30 9205 H 838.497 2.53208 3.85595 0
M  V30 9206 H 836.74 2.43884 3.58752 0
M  V30 9207 H 837.411 1.97577 5.15429 0
M  V30 9208 H 839.887 0.332731 4.14768 0
M  V30 9209 H 838.763 -0.005217 5.489 0
M  V30 9210 H 839.024 -1.22156 4.24889 0
M  V30 9211 N 838.083 -1.48885 0.516809 0
M  V30 9212 C 839.331 -2.02088 -0.0220166 0
M  V30 9213 C 839.652 -1.39735 -1.36011 0
M  V30 9214 O 838.922 -0.558119 -1.87781 0
M  V30 9215 H 837.502 -0.746917 -0.0111255 0
M  V30 9216 H 840.164 -1.8274 0.677647 0
M  V30 9217 H 839.26 -3.11786 -0.140067 0
M  V30 9218 N 839.561 -0.251338 -1.55583 0
M  V30 9219 C 840.493 0.679167 -2.18906 0
M  V30 9220 C 841.506 1.13545 -1.16667 0
M  V30 9221 O 842.695 1.06146 -1.4351 0
M  V30 9222 C 839.795 1.93544 -2.78198 0
M  V30 9223 C 838.968 1.62987 -4.05899 0
M  V30 9224 C 838.027 2.73618 -4.49466 0
M  V30 9225 O 837.053 2.40815 -5.15749 0
M  V30 9226 N 838.255 4.03204 -4.1762 0
M  V30 9227 H 841.02 0.137328 -2.99385 0
M  V30 9228 H 838.581 -0.0714754 -1.61742 0
M  V30 9229 H 840.573 2.66804 -3.04299 0
M  V30 9230 H 839.143 2.38695 -2.0185 0
M  V30 9231 H 838.363 0.732237 -3.8734 0
M  V30 9232 H 839.651 1.40041 -4.89148 0
M  V30 9233 H 839.049 4.32686 -3.64416 0
M  V30 9234 H 837.606 4.72916 -4.48547 0
M  V30 9235 N 841.039 1.57585 0.0217189 0
M  V30 9236 C 842.267 1.93871 0.722619 0
M  V30 9237 C 842.682 0.851706 1.68498 0
M  V30 9238 O 842.039 -0.17127 1.81695 0
M  V30 9239 C 842.09 3.30114 1.47333 0
M  V30 9240 O 841.811 4.34639 0.549597 0
M  V30 9241 C 843.312 3.80727 2.27072 0
M  V30 9242 H 840.532 0.639671 0.202637 0
M  V30 9243 H 843.076 2.04487 -0.0229414 0
M  V30 9244 H 841.231 3.20872 2.17071 0
M  V30 9245 H 841.645 5.13326 1.07686 0
M  V30 9246 H 843.119 4.78547 2.75131 0
M  V30 9247 H 843.596 3.12301 3.08812 0
M  V30 9248 H 844.202 3.93075 1.62395 0
M  V30 9249 N 842.517 -0.29412 1.54831 0
M  V30 9250 C 843.45 -1.38779 1.81151 0
M  V30 9251 C 844.428 -1.48464 0.663124 0
M  V30 9252 O 845.612 -1.65418 0.903835 0
M  V30 9253 C 842.739 -2.76627 1.95436 0
M  V30 9254 C 841.785 -2.84333 3.17895 0
M  V30 9255 S 842.618 -2.45726 4.75793 0
M  V30 9256 C 843.774 -3.85589 4.93023 0
M  V30 9257 H 844.007 -1.16246 2.73631 0
M  V30 9258 H 841.54 -0.492611 1.46331 0
M  V30 9259 H 843.498 -3.56021 2.04351 0
M  V30 9260 H 842.159 -2.96425 1.03881 0
M  V30 9261 H 841.352 -3.85457 3.24713 0
M  V30 9262 H 840.954 -2.1294 3.07461 0
M  V30 9263 H 843.246 -4.80656 4.77468 0
M  V30 9264 H 844.189 -3.83737 5.95107 0
M  V30 9265 H 844.597 -3.75911 4.21131 0
M  V30 9266 N 843.995 -1.47404 -0.557645 0
M  V30 9267 C 845.242 -1.54007 -1.31484 0
M  V30 9268 C 845.57 -0.202162 -1.93447 0
M  V30 9269 O 844.825 0.804901 -1.78381 0
M  V30 9270 C 845.124 -2.6061 -2.44575 0
M  V30 9271 C 844.79 -4.03896 -2.00446 0
M  V30 9272 C 843.452 -4.42901 -1.88127 0
M  V30 9273 C 845.804 -4.93804 -1.66754 0
M  V30 9274 C 843.132 -5.6965 -1.40411 0
M  V30 9275 C 845.484 -6.21016 -1.20509 0
M  V30 9276 C 844.148 -6.58903 -1.06786 0
M  V30 9277 H 843.418 -0.563552 -0.481134 0
M  V30 9278 H 846.065 -1.81001 -0.625375 0
M  V30 9279 H 844.37 -2.27371 -3.19076 0
M  V30 9280 H 846.067 -2.62941 -3.02759 0
M  V30 9281 H 842.657 -3.73077 -2.10977 0
M  V30 9282 H 846.841 -4.64369 -1.75144 0
M  V30 9283 H 842.097 -5.97755 -1.2845 0
M  V30 9284 H 846.271 -6.90095 -0.935001 0
M  V30 9285 H 843.898 -7.57008 -0.695891 0
M  V30 9286 N 845.473 0.80434 -1.35529 0
M  V30 9287 C 846.698 1.598 -1.32207 0
M  V30 9288 C 847.123 1.87848 0.0974226 0
M  V30 9289 O 846.481 1.46728 1.06492 0
M  V30 9290 C 846.529 2.90483 -2.13663 0
M  V30 9291 O 845.633 3.83411 -1.51888 0
M  V30 9292 H 844.974 0.485305 -0.453183 0
M  V30 9293 H 847.504 0.998119 -1.78602 0
M  V30 9294 H 847.514 3.39888 -2.257 0
M  V30 9295 H 846.189 2.69395 -3.16859 0
M  V30 9296 H 844.766 3.41967 -1.48704 0
M  V30 9297 N 846.951 1.19563 1.02676 0
M  V30 9298 C 847.881 0.959024 2.12897 0
M  V30 9299 C 848.862 -0.108382 1.69754 0
M  V30 9300 O 850.047 0.0470698 1.94143 0
M  V30 9301 C 847.177 0.499211 3.43693 0
M  V30 9302 C 846.131 1.5087 4.00528 0
M  V30 9303 C 845.457 0.905884 5.2697 0
M  V30 9304 C 846.757 2.88954 4.3509 0
M  V30 9305 H 848.451 1.88084 2.32948 0
M  V30 9306 H 845.997 0.905731 1.11949 0
M  V30 9307 H 847.95 0.320965 4.20176 0
M  V30 9308 H 846.674 -0.458205 3.2337 0
M  V30 9309 H 845.333 1.67413 3.26142 0
M  V30 9310 H 844.981 -0.0591506 5.02965 0
M  V30 9311 H 844.681 1.58 5.65959 0
M  V30 9312 H 846.205 0.73848 6.06118 0
M  V30 9313 H 847.619 2.75981 5.02501 0
M  V30 9314 H 846.016 3.53177 4.85166 0
M  V30 9315 H 847.086 3.41447 3.44299 0
M  V30 9316 N 848.429 -1.21819 0.999893 0
M  V30 9317 C 849.359 -2.26282 0.576096 0
M  V30 9318 C 850.34 -1.65317 -0.400537 0
M  V30 9319 O 851.525 -1.92028 -0.28964 0
M  V30 9320 C 848.655 -3.47147 -0.103145 0
M  V30 9321 C 847.609 -4.20594 0.792745 0
M  V30 9322 C 846.935 -5.34696 -0.0198026 0
M  V30 9323 C 848.235 -4.78533 2.09293 0
M  V30 9324 H 849.929 -2.61984 1.4493 0
M  V30 9325 H 847.475 -1.25935 0.698316 0
M  V30 9326 H 849.428 -4.1939 -0.411068 0
M  V30 9327 H 848.152 -3.1056 -1.01094 0
M  V30 9328 H 846.811 -3.50194 1.08442 0
M  V30 9329 H 846.459 -4.94352 -0.928729 0
M  V30 9330 H 846.159 -5.84764 0.576661 0
M  V30 9331 H 847.683 -6.09752 -0.321659 0
M  V30 9332 H 849.097 -5.42682 1.8485 0
M  V30 9333 H 847.494 -5.38968 2.63881 0
M  V30 9334 H 848.564 -3.98197 2.76708 0
M  V30 9335 N 849.908 -0.773975 -1.37286 0
M  V30 9336 C 851.154 -0.339809 -1.99933 0
M  V30 9337 C 851.487 1.0815 -1.61299 0
M  V30 9338 O 850.762 1.74442 -0.860252 0
M  V30 9339 C 851.045 -0.485919 -3.56806 0
M  V30 9340 C 850.898 -1.9498 -4.05343 0
M  V30 9341 C 852.217 0.108461 -4.39966 0
M  V30 9342 H 849.336 -0.124944 -0.726332 0
M  V30 9343 H 851.978 -0.977433 -1.6293 0
M  V30 9344 H 850.128 0.0569023 -3.88458 0
M  V30 9345 H 851.8 -2.5525 -3.84246 0
M  V30 9346 H 850.043 -2.45784 -3.57453 0
M  V30 9347 H 850.714 -2.00308 -5.14374 0
M  V30 9348 H 853.19 -0.354722 -4.14585 0
M  V30 9349 H 852.066 -0.0238926 -5.48895 0
M  V30 9350 H 852.327 1.19901 -4.25531 0
M  V30 9351 N 851.386 1.48609 -0.524698 0
M  V30 9352 C 852.614 2.06899 0.00742946 0
M  V30 9353 C 853.029 1.38196 1.28637 0
M  V30 9354 O 852.386 0.467771 1.76403 0
M  V30 9355 C 852.437 3.60699 0.240548 0
M  V30 9356 O 852.158 4.26821 -0.987715 0
M  V30 9357 C 853.659 4.35769 0.813652 0
M  V30 9358 H 850.879 0.670278 -0.0311294 0
M  V30 9359 H 853.423 1.91071 -0.728832 0
M  V30 9360 H 851.578 3.76149 0.926845 0
M  V30 9361 H 851.992 5.18889 -0.765175 0
M  V30 9362 H 853.466 5.44174 0.926219 0
M  V30 9363 H 853.943 3.9984 1.81728 0
M  V30 9364 H 854.549 4.24983 0.164086 0
M  V30 9365 N 852.864 0.259585 1.55447 0
M  V30 9366 C 854.112 -0.360893 1.98852 0
M  V30 9367 C 854.433 -1.57535 1.14924 0
M  V30 9368 O 853.703 -1.94485 0.235025 0
M  V30 9369 H 852.283 -0.136332 0.734454 0
M  V30 9370 H 854.945 0.361319 1.91522 0
M  V30 9371 H 854.041 -0.661388 3.05012 0
M  V30 9372 N 854.342 -1.57594 -0.0133615 0
M  V30 9373 C 855.289 -2.07574 -1.00905 0
M  V30 9374 C 856.259 -0.968231 -1.34961 0
M  V30 9375 O 857.444 -1.23981 -1.45028 0
M  V30 9376 C 854.584 -2.5728 -2.30002 0
M  V30 9377 C 853.697 -3.81881 -2.01967 0
M  V30 9378 C 852.832 -4.20139 -3.25049 0
M  V30 9379 C 851.871 -5.37614 -2.92639 0
M  V30 9380 N 851.008 -5.71229 -4.08218 0
M  V30 9381 H 855.848 -2.92382 -0.575899 0
M  V30 9382 H 853.385 -1.4455 -0.272722 0
M  V30 9383 H 855.343 -2.84171 -3.05454 0
M  V30 9384 H 853.973 -1.75365 -2.71011 0
M  V30 9385 H 853.025 -3.61979 -1.16942 0
M  V30 9386 H 854.337 -4.67441 -1.74069 0
M  V30 9387 H 853.491 -4.48242 -4.08857 0
M  V30 9388 H 852.23 -3.33262 -3.56073 0
M  V30 9389 H 851.235 -5.09248 -2.07235 0
M  V30 9390 H 852.46 -6.26157 -2.62876 0
M  V30 9391 H 850.406 -4.8731 -4.39164 0
M  V30 9392 H 850.323 -6.51333 -3.83799 0
M  V30 9393 H 851.591 -6.03917 -4.92854 0
M  V30 9394 N 855.82 0.285905 -1.54985 0
M  V30 9395 C 856.75 1.35752 -1.89983 0
M  V30 9396 C 857.731 1.52163 -0.760295 0
M  V30 9397 O 858.916 1.65421 -1.01733 0
M  V30 9398 C 856.046 2.71925 -2.16042 0
M  V30 9399 C 855 2.70261 -3.31878 0
M  V30 9400 C 854.326 4.09864 -3.43388 0
M  V30 9401 C 855.626 2.30667 -4.68604 0
M  V30 9402 H 857.32 1.06709 -2.79738 0
M  V30 9403 H 854.866 0.511884 -1.34595 0
M  V30 9404 H 856.819 3.46992 -2.39113 0
M  V30 9405 H 855.543 3.02523 -1.23074 0
M  V30 9406 H 854.202 1.97651 -3.08755 0
M  V30 9407 H 853.85 4.37664 -2.47909 0
M  V30 9408 H 853.55 4.09648 -4.21262 0
M  V30 9409 H 855.074 4.86689 -3.68736 0
M  V30 9410 H 856.488 2.95453 -4.91305 0
M  V30 9411 H 854.885 2.41637 -5.49301 0
M  V30 9412 H 855.955 1.25793 -4.68299 0
M  V30 9413 N 857.298 1.47698 0.54982 0
M  V30 9414 C 858.245 1.60739 1.65625 0
M  V30 9415 C 859.215 0.450129 1.59884 0
M  V30 9416 O 860.4 0.671123 1.78607 0
M  V30 9417 C 857.54 1.63457 3.03934 0
M  V30 9418 C 856.653 2.90152 3.20056 0
M  V30 9419 C 855.788 2.84157 4.48807 0
M  V30 9420 C 854.827 4.05644 4.58387 0
M  V30 9421 N 853.964 3.97843 5.78503 0
M  V30 9422 H 858.804 2.55234 1.53817 0
M  V30 9423 H 856.341 1.26593 0.749173 0
M  V30 9424 H 858.299 1.63015 3.84034 0
M  V30 9425 H 856.929 0.724689 3.1456 0
M  V30 9426 H 855.981 3.00428 2.33339 0
M  V30 9427 H 857.293 3.80097 3.22998 0
M  V30 9428 H 856.447 2.82006 5.37175 0
M  V30 9429 H 855.186 1.91908 4.48356 0
M  V30 9430 H 854.191 4.08092 3.6843 0
M  V30 9431 H 855.416 4.9903 4.60593 0
M  V30 9432 H 853.362 3.08401 5.78986 0
M  V30 9433 H 853.279 4.81473 5.82855 0
M  V30 9434 H 854.547 3.99719 6.69212 0
M  V30 9435 N 858.776 -0.797141 1.35954 0
M  V30 9436 C 860.192 -1.09408 1.16198 0
M  V30 9437 C 860.392 -2.01491 -0.0191682 0
M  V30 9438 O 859.448 -2.42977 -0.686902 0
M  V30 9439 C 860.761 -1.71597 2.46931 0
M  V30 9440 C 862.309 -1.83974 2.53224 0
M  V30 9441 C 862.784 -2.49579 3.84024 0
M  V30 9442 N 864.275 -2.57055 3.85327 0
M  V30 9443 C 865.01 -3.08608 4.83268 0
M  V30 9444 N 864.506 -3.60527 5.91601 0
M  V30 9445 N 866.299 -3.07249 4.70696 0
M  V30 9446 H 858.45 -0.185209 2.11591 0
M  V30 9447 H 860.713 -0.144768 0.936881 0
M  V30 9448 H 860.419 -1.11404 3.3359 0
M  V30 9449 H 860.293 -2.71193 2.62172 0
M  V30 9450 H 862.68 -2.43308 1.66988 0
M  V30 9451 H 862.761 -0.83207 2.41889 0
M  V30 9452 H 862.405 -1.90892 4.70662 0
M  V30 9453 H 862.335 -3.50902 3.92651 0
M  V30 9454 H 864.826 -2.20283 3.07057 0
M  V30 9455 H 865.139 -3.98192 6.62317 0
M  V30 9456 H 863.484 -3.587 5.95281 0
M  V30 9457 H 866.675 -2.65972 3.85197 0
M  V30 9458 H 866.848 -3.47119 5.47186 0
M  V30 9459 N 860.254 -1.20106 -1.0204 0
M  V30 9460 C 861.484 -1.0329 -1.78927 0
M  V30 9461 C 861.892 0.421115 -1.84454 0
M  V30 9462 O 861.235 1.30422 -1.29367 0
M  V30 9463 C 861.297 -1.53627 -3.25021 0
M  V30 9464 C 860.961 -3.01869 -3.4311 0
M  V30 9465 C 861.958 -3.9956 -3.32638 0
M  V30 9466 C 859.643 -3.40746 -3.6905 0
M  V30 9467 C 861.637 -5.34119 -3.47844 0
M  V30 9468 C 859.324 -4.75462 -3.839 0
M  V30 9469 C 860.322 -5.71957 -3.73302 0
M  V30 9470 O 860.01 -7.04231 -3.87703 0
M  V30 9471 H 859.742 -0.363962 -0.569656 0
M  V30 9472 H 862.296 -1.59551 -1.29354 0
M  V30 9473 H 860.526 -0.917481 -3.75658 0
M  V30 9474 H 862.215 -1.32889 -3.8353 0
M  V30 9475 H 862.981 -3.70869 -3.12539 0
M  V30 9476 H 858.86 -2.66182 -3.76388 0
M  V30 9477 H 862.404 -6.09421 -3.39488 0
M  V30 9478 H 858.301 -5.03844 -4.03499 0
M  V30 9479 H 859.069 -7.11425 -4.04744 0
M  V30 9480 N 861.732 1.21287 -1.00634 0
M  V30 9481 C 862.979 1.90389 -0.6898 0
M  V30 9482 C 863.307 1.78193 0.779574 0
M  V30 9483 O 862.562 1.15358 1.58085 0
M  V30 9484 C 862.861 3.41374 -1.05824 0
M  V30 9485 C 862.527 3.73766 -2.5221 0
M  V30 9486 C 861.189 3.82317 -2.92211 0
M  V30 9487 C 863.541 3.88871 -3.47028 0
M  V30 9488 C 860.869 4.03423 -4.2599 0
M  V30 9489 C 863.221 4.11484 -4.80483 0
M  V30 9490 C 861.885 4.18263 -5.20204 0
M  V30 9491 H 861.155 0.696683 -0.252416 0
M  V30 9492 H 863.802 1.43769 -1.26502 0
M  V30 9493 H 862.107 3.8974 -0.401281 0
M  V30 9494 H 863.804 3.93118 -0.79116 0
M  V30 9495 H 860.394 3.67702 -2.20212 0
M  V30 9496 H 864.578 3.8163 -3.17289 0
M  V30 9497 H 859.834 4.06902 -4.56334 0
M  V30 9498 H 864.008 4.22115 -5.53888 0
M  V30 9499 H 861.635 4.34369 -6.23881 0
M  V30 9500 N 863.21 0.781244 1.36873 0
M  V30 9501 C 864.438 0.361566 2.03716 0
M  V30 9502 C 864.853 -1.01937 1.58916 0
M  V30 9503 O 864.21 -1.65237 0.774783 0
M  V30 9504 C 864.261 0.406391 3.59208 0
M  V30 9505 O 863.982 1.73286 4.02372 0
M  V30 9506 C 865.483 -0.0236894 4.43294 0
M  V30 9507 H 862.703 0.150133 0.653988 0
M  V30 9508 H 865.247 1.05781 1.75016 0
M  V30 9509 H 863.402 -0.241364 3.86647 0
M  V30 9510 H 863.816 1.67804 4.96933 0
M  V30 9511 H 865.29 0.0588205 5.51969 0
M  V30 9512 H 865.767 -1.07529 4.25833 0
M  V30 9513 H 866.373 0.59624 4.211 0
M  V30 9514 N 864.689 -1.48329 0.532571 0
M  V30 9515 C 865.966 -1.95492 -0.0650985 0
M  V30 9516 C 866.346 -1.47485 -1.51034 0
M  V30 9517 O 865.694 -0.702516 -2.17433 0
M  V30 9518 C 865.904 -3.48957 0.0548341 0
M  V30 9519 C 867.252 -4.24475 -0.103115 0
M  V30 9520 O 868.276 -3.56195 -0.0188343 0
M  V30 9521 O 867.135 -5.45781 -0.280164 0
M  V30 9522 H 864.229 -0.823327 -0.0778603 0
M  V30 9523 H 866.775 -1.58839 0.597353 0
M  V30 9524 H 865.547 -3.76628 1.06148 0
M  V30 9525 H 865.17 -3.92311 -0.64635 0
M  V30 9526 N 866.167 -0.267825 -1.55308 0
M  V30 9527 C 867.097 0.616585 -2.25212 0
M  V30 9528 C 868.078 1.16472 -1.23969 0
M  V30 9529 O 869.263 1.20021 -1.52672 0
M  V30 9530 C 866.393 1.80412 -2.96764 0
M  V30 9531 C 865.347 1.38784 -4.04874 0
M  V30 9532 C 864.673 2.65789 -4.63961 0
M  V30 9533 C 865.973 0.543415 -5.19465 0
M  V30 9534 H 867.667 0.0336257 -2.99381 0
M  V30 9535 H 865.213 0.0147328 -1.43992 0
M  V30 9536 H 867.166 2.42866 -3.44375 0
M  V30 9537 H 865.89 2.4128 -2.20118 0
M  V30 9538 H 864.549 0.786541 -3.58063 0
M  V30 9539 H 864.197 3.24899 -3.83992 0
M  V30 9540 H 863.897 2.38651 -5.36954 0
M  V30 9541 H 865.421 3.29104 -5.14318 0
M  V30 9542 H 866.835 1.07277 -5.63174 0
M  V30 9543 H 865.232 0.367219 -5.98975 0
M  V30 9544 H 866.302 -0.439534 -4.82904 0
M  V30 9545 N 867.645 1.57599 0.00500368 0
M  V30 9546 C 868.555 2.11532 1.01446 0
M  V30 9547 C 869.571 1.05941 1.3803 0
M  V30 9548 O 870.747 1.37815 1.46864 0
M  V30 9549 C 867.812 2.60382 2.28915 0
M  V30 9550 C 866.873 3.80554 1.98689 0
M  V30 9551 C 866.106 4.27064 3.20081 0
M  V30 9552 O 866.329 3.72939 4.31593 0
M  V30 9553 O 865.263 5.1927 3.04371 0
M  V30 9554 H 869.089 2.97993 0.586011 0
M  V30 9555 H 866.674 1.47718 0.223519 0
M  V30 9556 H 868.556 2.92024 3.03809 0
M  V30 9557 H 867.231 1.77022 2.71007 0
M  V30 9558 H 866.138 3.53893 1.21286 0
M  V30 9559 H 867.471 4.64972 1.61437 0
M  V30 9560 N 869.123 -0.277682 1.55134 0
M  V30 9561 C 870.086 -1.32635 1.86924 0
M  V30 9562 C 871.086 -1.42578 0.743507 0
M  V30 9563 O 872.276 -1.4181 1.01171 0
M  V30 9564 C 869.408 -2.70832 2.07034 0
M  V30 9565 H 870.601 -1.0568 2.80663 0
M  V30 9566 H 868.154 -0.515517 1.47554 0
M  V30 9567 H 868.889 -3.02974 1.15661 0
M  V30 9568 H 868.674 -2.65001 2.88993 0
M  V30 9569 H 870.164 -3.46611 2.32918 0
M  V30 9570 N 870.601 -1.47988 -0.541979 0
M  V30 9571 C 871.531 -1.64503 -1.65713 0
M  V30 9572 C 872.512 -0.494116 -1.62765 0
M  V30 9573 O 873.697 -0.725256 -1.80149 0
M  V30 9574 C 870.827 -1.67337 -3.04328 0
M  V30 9575 C 869.781 -2.81809 -3.2213 0
M  V30 9576 C 869.107 -2.69724 -4.61685 0
M  V30 9577 C 870.407 -4.23241 -3.06046 0
M  V30 9578 H 872.101 -2.5786 -1.52147 0
M  V30 9579 H 869.647 -1.24094 -0.730529 0
M  V30 9580 H 871.6 -1.77481 -3.82202 0
M  V30 9581 H 870.324 -0.705514 -3.18889 0
M  V30 9582 H 868.983 -2.71201 -2.46669 0
M  V30 9583 H 868.631 -1.70934 -4.73065 0
M  V30 9584 H 868.331 -3.4653 -4.74543 0
M  V30 9585 H 869.855 -2.81818 -5.41674 0
M  V30 9586 H 871.269 -4.34746 -3.73723 0
M  V30 9587 H 869.666 -5.00952 -3.30405 0
M  V30 9588 H 870.736 -4.40543 -2.02609 0
M  V30 9589 N 872.079 0.78992 -1.36375 0
M  V30 9590 C 873.042 1.88414 -1.30509 0
M  V30 9591 C 874.042 1.59384 -0.2129 0
M  V30 9592 O 875.232 1.67805 -0.467651 0
M  V30 9593 C 872.364 3.25188 -1.02302 0
M  V30 9594 H 873.557 1.95031 -2.27822 0
M  V30 9595 H 871.11 0.987664 -1.2114 0
M  V30 9596 H 871.845 3.24254 -0.0544486 0
M  V30 9597 H 871.63 3.47647 -1.81338 0
M  V30 9598 H 873.12 4.05252 -1.00801 0
M  V30 9599 N 873.557 1.20646 1.01402 0
M  V30 9600 C 874.49 0.900926 2.09663 0
M  V30 9601 C 875.468 -0.14801 1.61925 0
M  V30 9602 O 876.652 -0.0210235 1.88488 0
M  V30 9603 C 873.779 0.351097 3.36875 0
M  V30 9604 C 872.825 1.38142 4.03508 0
M  V30 9605 S 873.658 2.94741 4.47089 0
M  V30 9606 C 874.814 2.41341 5.77499 0
M  V30 9607 H 875.047 1.81773 2.35257 0
M  V30 9608 H 872.58 1.03521 1.14555 0
M  V30 9609 H 874.538 0.0404201 4.1048 0
M  V30 9610 H 873.199 -0.544255 3.09349 0
M  V30 9611 H 872.392 0.94614 4.9504 0
M  V30 9612 H 871.994 1.63971 3.36139 0
M  V30 9613 H 874.286 1.81263 6.52802 0
M  V30 9614 H 875.229 3.31278 6.25828 0
M  V30 9615 H 875.637 1.83374 5.33886 0
M  V30 9616 N 875.035 -1.20752 1.01276 0
M  V30 9617 C 876.281 -1.90302 0.700924 0
M  V30 9618 C 876.614 -1.78406 -0.767142 0
M  V30 9619 O 875.889 -1.16575 -1.55694 0
M  V30 9620 C 876.172 -3.41831 1.13242 0
M  V30 9621 C 876.025 -3.6268 2.66051 0
M  V30 9622 C 877.344 -4.34486 0.700738 0
M  V30 9623 H 874.463 -0.69107 0.256107 0
M  V30 9624 H 877.105 -1.42227 1.25982 0
M  V30 9625 H 875.255 -3.82906 0.656902 0
M  V30 9626 H 876.927 -3.30882 3.21426 0
M  V30 9627 H 875.17 -3.06281 3.07204 0
M  V30 9628 H 875.841 -4.68882 2.91296 0
M  V30 9629 H 878.317 -4.01036 1.10948 0
M  V30 9630 H 877.193 -5.39136 1.03073 0
M  V30 9631 H 877.454 -4.40307 -0.39778 0
M  V30 9632 N 876.513 -0.788492 -1.36457 0
M  V30 9633 C 877.741 -0.372365 -2.03522 0
M  V30 9634 C 878.156 1.01093 -1.59454 0
M  V30 9635 O 877.513 1.64824 -0.783535 0
M  V30 9636 C 877.564 -0.425435 -3.58988 0
M  V30 9637 O 877.285 -1.75418 -4.01448 0
M  V30 9638 C 878.786 0.000180167 -4.433 0
M  V30 9639 H 876.006 -0.1536 -0.653183 0
M  V30 9640 H 878.55 -1.06708 -1.74452 0
M  V30 9641 H 876.705 0.220856 -3.8677 0
M  V30 9642 H 877.119 -1.70437 -4.96036 0
M  V30 9643 H 878.593 -0.0880919 -5.5193 0
M  V30 9644 H 879.07 1.05269 -4.26398 0
M  V30 9645 H 879.676 -0.618563 -4.20778 0
M  V30 9646 N 877.991 1.48044 -0.54043 0
M  V30 9647 C 878.954 2.28273 0.205966 0
M  V30 9648 C 879.954 1.35983 0.858209 0
M  V30 9649 O 881.144 1.58776 0.716651 0
M  V30 9650 C 878.276 3.15174 1.29917 0
M  V30 9651 H 879.469 2.95727 -0.498555 0
M  V30 9652 H 877.022 1.53457 -0.296745 0
M  V30 9653 H 877.757 2.52374 2.03661 0
M  V30 9654 H 877.542 3.83074 0.836475 0
M  V30 9655 H 879.032 3.75666 1.82387 0
M  V30 9656 N 879.47 0.276058 1.55163 0
M  V30 9657 C 880.433 -0.597924 2.21263 0
M  V30 9658 C 881.433 -1.0806 1.19078 0
M  V30 9659 O 882.623 -0.980626 1.43977 0
M  V30 9660 C 879.755 -1.82503 2.87933 0
M  V30 9661 H 880.948 -0.0207769 2.99893 0
M  V30 9662 H 878.501 0.0266823 1.56277 0
M  V30 9663 H 879.236 -2.44266 2.13318 0
M  V30 9664 H 879.021 -1.48683 3.62816 0
M  V30 9665 H 880.511 -2.44651 3.38431 0
M  V30 9666 N 880.948 -1.576 0.00335426 0
M  V30 9667 C 882.195 -1.90713 -0.680791 0
M  V30 9668 C 882.523 -0.877263 -1.73592 0
M  V30 9669 O 881.778 0.117497 -1.95347 0
M  V30 9670 C 882.077 -3.3058 -1.35837 0
M  V30 9671 C 881.743 -4.48786 -0.436111 0
M  V30 9672 C 880.405 -4.80855 -0.182195 0
M  V30 9673 C 882.757 -5.20821 0.198677 0
M  V30 9674 C 880.085 -5.8233 0.714747 0
M  V30 9675 C 882.437 -6.23252 1.08351 0
M  V30 9676 C 881.101 -6.53776 1.34658 0
M  V30 9677 H 880.371 -0.697869 -0.249119 0
M  V30 9678 H 883.018 -1.91407 0.0596011 0
M  V30 9679 H 881.323 -3.26026 -2.17289 0
M  V30 9680 H 883.02 -3.53462 -1.89383 0
M  V30 9681 H 879.61 -4.23731 -0.644186 0
M  V30 9682 H 883.794 -4.96298 0.0155259 0
M  V30 9683 H 879.05 -6.04339 0.926529 0
M  V30 9684 H 883.224 -6.78199 1.58172 0
M  V30 9685 H 880.851 -7.32225 2.04328 0
M  V30 9686 N 882.426 0.269451 -1.5528 0
M  V30 9687 C 883.666 1.00819 -1.77806 0
M  V30 9688 C 884.03 1.83369 -0.569198 0
M  V30 9689 O 885.231 2.60244 -0.672783 0
M  V30 9690 C 883.502 1.86447 -3.04913 0
M  V30 9691 S 885.061 2.66538 -3.48573 0
M  V30 9692 H 881.879 0.339508 -0.624704 0
M  V30 9693 H 884.481 0.278256 -1.9351 0
M  V30 9694 H 883.185 1.24733 -3.90986 0
M  V30 9695 H 882.716 2.63755 -2.91885 0
M  V30 9696 H 884.731 3.88938 -3.08126 0
M  V30 9697 N 883.904 1.48273 0.534124 0
M  V30 9698 C 884.854 1.58889 1.63519 0
M  V30 9699 C 885.838 0.44626 1.54588 0
M  V30 9700 O 887.03 0.697474 1.62679 0
M  V30 9701 C 884.159 1.62787 3.0225 0
M  V30 9702 C 883.245 2.82515 3.16301 0
M  V30 9703 N 883.636 4.06977 3.00338 0
M  V30 9704 C 881.934 2.7976 3.47347 0
M  V30 9705 C 882.635 4.87283 3.17694 0
M  V30 9706 N 881.611 4.20024 3.45081 0
M  V30 9707 H 885.413 2.52869 1.49781 0
M  V30 9708 H 882.927 1.44587 0.739479 0
M  V30 9709 H 884.924 1.68486 3.81337 0
M  V30 9710 H 883.584 0.699201 3.17082 0
M  V30 9711 H 884.595 4.37479 2.77186 0
M  V30 9712 H 881.272 1.96132 3.68563 0
M  V30 9713 H 882.662 5.96047 3.10126 0
M  V30 9714 N 885.382 -0.782676 1.36792 0
M  V30 9715 C 886.659 -1.52939 1.21939 0
M  V30 9716 C 887.039 -2.10228 -0.191639 0
M  V30 9717 O 886.387 -1.94574 -1.19805 0
M  V30 9718 C 886.597 -2.61898 2.30674 0
M  V30 9719 C 887.945 -3.29598 2.67676 0
M  V30 9720 O 888.969 -2.72186 2.29768 0
M  V30 9721 O 887.828 -4.3337 3.32946 0
M  V30 9722 H 884.922 -0.676856 0.47518 0
M  V30 9723 H 887.468 -0.82058 1.48542 0
M  V30 9724 H 886.24 -2.17607 3.25212 0
M  V30 9725 H 885.863 -3.40391 2.05475 0
M  V30 9726 N 886.86 -1.21182 -1.00761 0
M  V30 9727 C 888.109 -1.02166 -1.73911 0
M  V30 9728 C 888.422 0.445638 -1.90456 0
M  V30 9729 O 889.628 0.755132 -2.60787 0
M  V30 9730 C 888.084 -1.77936 -3.12837 0
M  V30 9731 C 887.692 -3.28819 -3.04273 0
M  V30 9732 C 889.436 -1.67319 -3.90134 0
M  V30 9733 C 887.343 -3.97089 -4.38262 0
M  V30 9734 H 886.273 -0.378665 -0.652019 0
M  V30 9735 H 888.924 -1.44891 -1.12601 0
M  V30 9736 H 887.306 -1.28003 -3.74742 0
M  V30 9737 H 888.48 -3.86035 -2.51622 0
M  V30 9738 H 886.795 -3.39949 -2.40465 0
M  V30 9739 H 889.392 -2.15659 -4.8928 0
M  V30 9740 H 889.735 -0.630959 -4.11491 0
M  V30 9741 H 890.268 -2.14716 -3.34876 0
M  V30 9742 H 887.007 -5.01503 -4.22107 0
M  V30 9743 H 886.527 -3.44662 -4.90885 0
M  V30 9744 H 888.206 -4.01854 -5.07072 0
M  V30 9745 N 888.338 1.20213 -1.01915 0
M  V30 9746 C 889.615 1.85348 -0.62495 0
M  V30 9747 C 889.995 1.91101 0.896854 0
M  V30 9748 O 889.343 1.42075 1.78961 0
M  V30 9749 C 889.553 3.24849 -1.27571 0
M  V30 9750 C 890.901 4.01107 -1.39277 0
M  V30 9751 O 891.925 3.34211 -1.23212 0
M  V30 9752 O 890.784 5.20914 -1.6526 0
M  V30 9753 H 887.878 0.798303 -0.215965 0
M  V30 9754 H 890.424 1.27782 -1.11669 0
M  V30 9755 H 889.196 3.1544 -2.31545 0
M  V30 9756 H 888.819 3.90049 -0.77122 0
M  V30 9757 N 889.816 0.795718 1.36037 0
M  V30 9758 C 890.766 0.171437 2.27355 0
M  V30 9759 C 891.75 -0.648346 1.47259 0
M  V30 9760 O 892.942 -0.507386 1.69572 0
M  V30 9761 C 890.071 -0.687876 3.36338 0
M  V30 9762 C 889.157 0.141041 4.23865 0
M  V30 9763 N 889.548 1.19868 4.91391 0
M  V30 9764 C 887.846 -0.0791045 4.4593 0
M  V30 9765 C 888.547 1.70382 5.56188 0
M  V30 9766 N 887.523 1.01202 5.34097 0
M  V30 9767 H 891.325 0.980846 2.7705 0
M  V30 9768 H 888.839 0.635798 1.49437 0
M  V30 9769 H 890.836 -1.15107 4.00694 0
M  V30 9770 H 889.496 -1.49576 2.88196 0
M  V30 9771 H 890.507 1.58119 4.93172 0
M  V30 9772 H 887.184 -0.856993 4.0861 0
M  V30 9773 H 888.574 2.58715 6.20093 0
M  V30 9774 N 891.294 -1.47756 0.548274 0
M  V30 9775 C 892.71 -1.58247 0.207401 0
M  V30 9776 C 892.91 -1.54804 -1.28988 0
M  V30 9777 O 891.966 -1.44673 -2.06944 0
M  V30 9778 C 893.279 -2.89129 0.826142 0
M  V30 9779 C 894.827 -3.02695 0.79655 0
M  V30 9780 C 895.302 -4.36264 1.3942 0
M  V30 9781 N 896.793 -4.42877 1.35698 0
M  V30 9782 C 897.528 -5.44773 1.78913 0
M  V30 9783 N 897.024 -6.53528 2.29942 0
M  V30 9784 N 898.817 -5.35765 1.70038 0
M  V30 9785 H 890.968 -1.48236 1.52117 0
M  V30 9786 H 893.231 -0.704957 0.633829 0
M  V30 9787 H 892.937 -2.97358 1.87806 0
M  V30 9788 H 892.811 -3.75891 0.313916 0
M  V30 9789 H 895.198 -2.94067 -0.246655 0
M  V30 9790 H 895.279 -2.17496 1.34644 0
M  V30 9791 H 894.923 -4.45646 2.43642 0
M  V30 9792 H 894.853 -5.20179 0.819827 0
M  V30 9793 H 897.344 -3.64874 0.983623 0
M  V30 9794 H 897.657 -7.27441 2.60863 0
M  V30 9795 H 896.002 -6.54442 2.33947 0
M  V30 9796 H 899.193 -4.49699 1.29955 0
M  V30 9797 H 899.366 -6.1504 2.04035 0
M  V30 9798 N 892.772 -0.284283 -1.55015 0
M  V30 9799 C 894.02 0.329212 -1.99401 0
M  V30 9800 C 894.341 1.55687 -1.17416 0
M  V30 9801 O 893.611 1.94087 -0.265937 0
M  V30 9802 H 892.191 0.12463 -0.73653 0
M  V30 9803 H 894.853 -0.391743 -1.90922 0
M  V30 9804 H 893.949 0.61278 -3.06025 0
M  V30 9805 N 894.251 1.57596 -0.0117121 0
M  V30 9806 C 895.479 1.9536 0.681334 0
M  V30 9807 C 895.894 0.887255 1.66653 0
M  V30 9808 O 895.251 -0.132692 1.82017 0
M  V30 9809 C 895.302 3.33165 1.40298 0
M  V30 9810 O 895.023 4.35707 0.45728 0
M  V30 9811 C 896.524 3.85458 2.18946 0
M  V30 9812 H 893.744 0.643826 0.189023 0
M  V30 9813 H 896.288 2.04392 -0.066311 0
M  V30 9814 H 894.443 3.25404 2.10216 0
M  V30 9815 H 894.857 5.15495 0.96773 0
M  V30 9816 H 896.331 4.84275 2.64918 0
M  V30 9817 H 896.808 3.18781 3.02118 0
M  V30 9818 H 897.414 3.96431 1.5402 0
M  V30 9819 N 895.729 -0.261212 1.5542 0
M  V30 9820 C 896.677 -1.34298 1.89913 0
M  V30 9821 C 897.671 -1.50547 0.776665 0
M  V30 9822 O 898.877 -1.52191 0.961139 0
M  V30 9823 H 895.252 -0.4494 0.602946 0
M  V30 9824 H 897.223 -1.02464 2.80256 0
M  V30 9825 C 895.972 -2.69423 2.19788 0
M  V30 9826 H 895.295 -2.57715 3.05652 0
M  V30 9827 H 896.735 -3.44026 2.47835 0
M  V30 9828 C 895.194 -3.21423 1.00939 0
M  V30 9829 O 895.724 -4.00921 0.250034 0
M  V30 9830 N 893.93 -2.7926 0.803883 0
M  V30 9831 H 893.477 -2.14724 1.42308 0
M  V30 9832 H 893.435 -3.14398 0.0103257 0
M  V30 9833 N 897.207 -1.48554 -0.526253 0
M  V30 9834 C 898.155 -1.63804 -1.65139 0
M  V30 9835 C 899.149 -0.504398 -1.61716 0
M  V30 9836 O 900.355 -0.683241 -1.66529 0
M  V30 9837 H 896.73 -0.516071 -0.546969 0
M  V30 9838 H 898.701 -2.58294 -1.49421 0
M  V30 9839 C 897.45 -1.69843 -3.03395 0
M  V30 9840 H 896.773 -2.56438 -3.06724 0
M  V30 9841 H 898.213 -1.84555 -3.81727 0
M  V30 9842 C 896.672 -0.437875 -3.34042 0
M  V30 9843 O 897.202 0.447604 -3.99198 0
M  V30 9844 N 895.408 -0.308444 -2.88958 0
M  V30 9845 H 894.955 -1.02998 -2.36112 0
M  V30 9846 H 894.913 0.533952 -3.09833 0
M  V30 9847 N 898.685 0.775411 -1.37205 0
M  V30 9848 C 899.615 1.90258 -1.35367 0
M  V30 9849 C 900.596 1.68634 -0.222864 0
M  V30 9850 O 901.781 1.89545 -0.422659 0
M  V30 9851 C 898.911 3.27488 -1.15623 0
M  V30 9852 C 897.865 3.63668 -2.25676 0
M  V30 9853 C 897.191 4.994 -1.91059 0
M  V30 9854 C 898.491 3.70797 -3.67841 0
M  V30 9855 H 900.185 1.92053 -2.29687 0
M  V30 9856 H 897.731 0.922597 -1.10563 0
M  V30 9857 H 899.684 4.05976 -1.12968 0
M  V30 9858 H 898.408 3.26117 -0.177573 0
M  V30 9859 H 897.067 2.87486 -2.2748 0
M  V30 9860 H 896.715 4.94565 -0.917324 0
M  V30 9861 H 896.415 5.24576 -2.64751 0
M  V30 9862 H 897.939 5.80291 -1.89985 0
M  V30 9863 H 899.353 4.39444 -3.68187 0
M  V30 9864 H 897.75 4.07468 -4.40556 0
M  V30 9865 H 898.82 2.71549 -4.01732 0
M  V30 9866 N 900.163 1.21714 1.00117 0
M  V30 9867 C 901.393 1.06124 1.77261 0
M  V30 9868 C 901.801 -0.391717 1.85101 0
M  V30 9869 O 901.144 -1.28347 1.31426 0
M  V30 9870 C 901.206 1.58778 3.22536 0
M  V30 9871 C 900.87 3.07289 3.38264 0
M  V30 9872 C 901.867 4.04801 3.26239 0
M  V30 9873 C 899.552 3.46574 3.63582 0
M  V30 9874 C 901.546 5.39585 3.39303 0
M  V30 9875 C 899.233 4.81509 3.76288 0
M  V30 9876 C 900.231 5.77824 3.64155 0
M  V30 9877 O 899.919 7.1031 3.7645 0
M  V30 9878 H 899.651 0.372979 0.563793 0
M  V30 9879 H 902.205 1.61589 1.26799 0
M  V30 9880 H 900.435 0.977129 3.74151 0
M  V30 9881 H 902.124 1.38974 3.81367 0
M  V30 9882 H 902.89 3.75795 3.066 0
M  V30 9883 H 898.769 2.72137 3.72106 0
M  V30 9884 H 902.313 6.14744 3.2975 0
M  V30 9885 H 898.21 5.102 3.95432 0
M  V30 9886 H 898.978 7.17774 3.93374 0
M  V30 9887 N 901.641 -1.19671 1.02551 0
M  V30 9888 C 902.573 -2.22215 0.561517 0
M  V30 9889 C 903.586 -1.58751 -0.360821 0
M  V30 9890 O 904.775 -1.77802 -0.157749 0
M  V30 9891 C 901.875 -3.383 -0.201494 0
M  V30 9892 C 901.048 -4.3135 0.724952 0
M  V30 9893 C 900.107 -5.26199 0.00794334 0
M  V30 9894 O 899.133 -5.65665 0.633398 0
M  V30 9895 N 900.335 -5.66573 -1.26394 0
M  V30 9896 H 903.1 -2.6265 1.44343 0
M  V30 9897 H 900.661 -1.34303 0.904122 0
M  V30 9898 H 902.653 -3.98764 -0.690625 0
M  V30 9899 H 901.223 -2.96683 -0.98479 0
M  V30 9900 H 900.443 -3.6872 1.39423 0
M  V30 9901 H 901.731 -4.90433 1.35472 0
M  V30 9902 H 901.129 -5.36538 -1.79287 0
M  V30 9903 H 899.686 -6.29304 -1.69763 0
M  V30 9904 N 903.119 -0.802921 -1.35613 0
M  V30 9905 C 904.052 -0.156345 -2.27664 0
M  V30 9906 C 905.03 0.675517 -1.47904 0
M  V30 9907 O 906.214 0.643589 -1.77173 0
M  V30 9908 C 903.341 0.78348 -3.29514 0
M  V30 9909 C 902.387 0.0317062 -4.26488 0
M  V30 9910 S 903.22 -1.30183 -5.19435 0
M  V30 9911 C 904.376 -0.366354 -6.24827 0
M  V30 9912 H 904.609 -0.936803 -2.82155 0
M  V30 9913 H 902.142 -0.597799 -1.42358 0
M  V30 9914 H 904.1 1.32023 -3.8869 0
M  V30 9915 H 902.761 1.53729 -2.73909 0
M  V30 9916 H 901.954 0.745364 -4.98458 0
M  V30 9917 H 901.556 -0.43497 -3.71462 0
M  V30 9918 H 903.848 0.44976 -6.76005 0
M  V30 9919 H 904.791 -1.05513 -7.00195 0
M  V30 9920 H 905.199 0.0363203 -5.64488 0
M  V30 9921 N 904.597 1.47463 -0.556102 0
M  V30 9922 C 905.544 2.29998 0.192213 0
M  V30 9923 C 906.514 1.38993 0.909403 0
M  V30 9924 O 907.699 1.67954 0.905316 0
M  V30 9925 C 904.839 3.22932 1.21692 0
M  V30 9926 C 903.952 4.29027 0.505908 0
M  V30 9927 C 903.087 5.09114 1.51581 0
M  V30 9928 C 902.126 6.06984 0.789714 0
M  V30 9929 N 901.263 6.80033 1.74639 0
M  V30 9930 H 906.103 2.93468 -0.517734 0
M  V30 9931 H 903.64 1.44654 -0.267147 0
M  V30 9932 H 905.598 3.75234 1.8236 0
M  V30 9933 H 904.228 2.61329 1.89491 0
M  V30 9934 H 903.28 3.7979 -0.215276 0
M  V30 9935 H 904.592 4.9876 -0.062958 0
M  V30 9936 H 903.746 5.6556 2.19606 0
M  V30 9937 H 902.485 4.3928 2.11859 0
M  V30 9938 H 901.49 5.49717 0.0955382 0
M  V30 9939 H 902.715 6.78827 0.192688 0
M  V30 9940 H 900.661 6.12931 2.33777 0
M  V30 9941 H 900.578 7.45933 1.22965 0
M  V30 9942 H 901.846 7.41054 2.41782 0
M  V30 9943 N 906.075 0.2925 1.54862 0
M  V30 9944 C 907.3 -0.32494 2.04839 0
M  V30 9945 C 907.725 -1.47381 1.16877 0
M  V30 9946 O 907.083 -1.80492 0.171028 0
M  V30 9947 C 907.131 -0.76694 3.5235 0
M  V30 9948 O 906.235 -1.87256 3.67436 0
M  V30 9949 H 905.576 -0.0645195 0.660858 0
M  V30 9950 H 908.106 0.431867 1.9999 0
M  V30 9951 H 908.116 -1.05804 3.94043 0
M  V30 9952 H 906.791 0.0735212 4.15835 0
M  V30 9953 H 905.368 -1.58266 3.37648 0
M  V30 9954 N 907.553 -1.57587 0.0200696 0
M  V30 9955 C 908.485 -2.06555 -0.993359 0
M  V30 9956 C 909.498 -0.987227 -1.29451 0
M  V30 9957 O 910.687 -1.26361 -1.26075 0
M  V30 9958 C 907.787 -2.4675 -2.3231 0
M  V30 9959 C 906.96 -3.77554 -2.20843 0
M  V30 9960 C 906.019 -4.04397 -3.36674 0
M  V30 9961 O 905.045 -4.7478 -3.13963 0
M  V30 9962 N 906.247 -3.53861 -4.60176 0
M  V30 9963 H 909.012 -2.9412 -0.575617 0
M  V30 9964 H 906.573 -1.61038 -0.166889 0
M  V30 9965 H 908.565 -2.61806 -3.08609 0
M  V30 9966 H 907.135 -1.64598 -2.65756 0
M  V30 9967 H 906.355 -3.72382 -1.29327 0
M  V30 9968 H 907.643 -4.63271 -2.10375 0
M  V30 9969 H 907.041 -2.96904 -4.81523 0
M  V30 9970 H 905.598 -3.74213 -5.33674 0
M  V30 9971 N 909.032 0.252966 -1.55557 0
M  V30 9972 C 909.98 1.33289 -1.90622 0
M  V30 9973 C 910.974 1.50133 -0.784638 0
M  V30 9974 O 912.18 1.51679 -0.969196 0
M  V30 9975 H 908.555 0.446196 -0.605321 0
M  V30 9976 H 910.526 1.00977 -2.80796 0
M  V30 9977 C 909.275 2.68254 -2.21213 0
M  V30 9978 H 908.598 2.5609 -3.07014 0
M  V30 9979 H 910.038 3.42707 -2.49656 0
M  V30 9980 C 908.497 3.20884 -1.02642 0
M  V30 9981 O 909.027 4.00783 -0.271292 0
M  V30 9982 N 907.233 2.7883 -0.818682 0
M  V30 9983 H 906.78 2.13966 -1.43444 0
M  V30 9984 H 906.738 3.14388 -0.0269989 0
M  V30 9985 N 910.51 1.48831 0.518367 0
M  V30 9986 C 911.921 1.50842 1.10016 0
M  V30 9987 C 912.272 0.284744 1.94123 0
M  V30 9988 O 911.397 -0.607088 2.0771 0
M  V30 9989 C 911.992 2.73329 2.00191 0
M  V30 9990 C 910.551 2.78175 2.53566 0
M  V30 9991 C 909.698 2.4452 1.30786 0
M  V30 9992 H 912.649 1.55779 0.303073 0
M  V30 9993 H 912.67 2.52506 2.84642 0
M  V30 9994 H 912.182 3.62374 1.3895 0
M  V30 9995 H 910.283 1.93368 3.18496 0
M  V30 9996 H 910.396 3.79905 2.91906 0
M  V30 9997 H 908.76 1.95924 1.62744 0
M  V30 9998 H 909.543 3.35819 0.712797 0
M  V30 9999 N 911.988 -0.768124 1.37614 0
M  V30 10000 C 912.918 -1.89537 1.36374 0
M  V30 10001 C 913.899 -1.68513 0.231803 0
M  V30 10002 O 915.084 -1.89318 0.432705 0
M  V30 10003 C 912.214 -3.26871 1.17358 0
M  V30 10004 C 911.168 -3.62466 2.27602 0
M  V30 10005 C 910.494 -4.9838 1.93705 0
M  V30 10006 C 911.794 -3.68841 3.69802 0
M  V30 10007 H 913.488 -1.90832 2.30702 0
M  V30 10008 H 911.034 -0.91672 1.11051 0
M  V30 10009 H 912.987 -4.05371 1.15119 0
M  V30 10010 H 911.711 -3.26018 0.194865 0
M  V30 10011 H 910.37 -2.86276 2.29002 0
M  V30 10012 H 910.018 -4.94071 0.943539 0
M  V30 10013 H 909.718 -5.23165 2.6753 0
M  V30 10014 H 911.242 -5.79276 1.93059 0
M  V30 10015 H 912.656 -4.37485 3.70513 0
M  V30 10016 H 911.053 -4.05126 4.42711 0
M  V30 10017 H 912.123 -2.69415 4.03167 0
M  V30 10018 N 913.466 -1.22244 -0.994698 0
M  V30 10019 C 914.429 -0.992308 -2.06606 0
M  V30 10020 C 915.429 0.0405872 -1.60749 0
M  V30 10021 O 916.619 -0.197737 -1.73074 0
M  V30 10022 C 913.751 -0.498499 -3.37236 0
M  V30 10023 H 914.944 -1.9429 -2.28455 0
M  V30 10024 H 912.497 -1.04087 -1.166 0
M  V30 10025 H 913.232 0.456531 -3.21071 0
M  V30 10026 H 913.017 -1.24367 -3.71854 0
M  V30 10027 H 914.507 -0.35768 -4.16065 0
M  V30 10028 N 914.944 1.19125 -1.03184 0
M  V30 10029 C 915.891 2.2245 -0.6152 0
M  V30 10030 C 916.861 1.61869 0.372502 0
M  V30 10031 O 918.046 1.88901 0.268491 0
M  V30 10032 C 915.186 3.45091 0.0248027 0
M  V30 10033 C 914.299 4.20044 -1.0093 0
M  V30 10034 C 913.434 5.30119 -0.338744 0
M  V30 10035 C 912.473 5.96833 -1.35855 0
M  V30 10036 N 911.61 6.98464 -0.713594 0
M  V30 10037 H 916.45 2.57445 -1.50086 0
M  V30 10038 H 913.987 1.26485 -0.751005 0
M  V30 10039 H 915.945 4.15149 0.413131 0
M  V30 10040 H 914.575 3.10742 0.874028 0
M  V30 10041 H 913.627 3.48901 -1.51566 0
M  V30 10042 H 914.939 4.65796 -1.78425 0
M  V30 10043 H 914.093 6.0661 0.104269 0
M  V30 10044 H 912.832 4.85446 0.468382 0
M  V30 10045 H 911.837 5.1909 -1.81179 0
M  V30 10046 H 913.062 6.4359 -2.16722 0
M  V30 10047 H 911.008 6.55959 0.0733863 0
M  V30 10048 H 910.925 7.42422 -1.42638 0
M  V30 10049 H 912.193 7.78943 -0.294681 0
M  V30 10050 N 916.422 0.810101 1.35185 0
M  V30 10051 C 917.352 0.237453 2.32289 0
M  V30 10052 C 918.333 -0.639032 1.5764 0
M  V30 10053 O 919.518 -0.568575 1.8569 0
M  V30 10054 C 916.648 -0.611964 3.41866 0
M  V30 10055 C 915.602 0.166318 4.27677 0
M  V30 10056 C 914.928 -0.805024 5.28605 0
M  V30 10057 C 916.228 1.36729 5.04086 0
M  V30 10058 H 917.922 1.04874 2.80432 0
M  V30 10059 H 915.468 0.505751 1.34826 0
M  V30 10060 H 917.421 -1.02267 4.08802 0
M  V30 10061 H 916.145 -1.45617 2.92341 0
M  V30 10062 H 914.804 0.558238 3.62325 0
M  V30 10063 H 914.452 -1.64483 4.75347 0
M  V30 10064 H 914.152 -0.288577 5.86891 0
M  V30 10065 H 915.676 -1.21386 5.98413 0
M  V30 10066 H 917.09 1.03128 5.63948 0
M  V30 10067 H 915.487 1.81848 5.71884 0
M  V30 10068 H 916.557 2.15214 4.34524 0
M  V30 10069 N 917.9 -1.47166 0.563914 0
M  V30 10070 C 918.85 -2.27116 -0.20055 0
M  V30 10071 C 919.834 -1.34756 -0.879177 0
M  V30 10072 O 921.026 -1.59064 -0.776377 0
M  V30 10073 C 918.155 -3.20676 -1.22565 0
M  V30 10074 C 917.241 -4.20517 -0.550092 0
M  V30 10075 N 917.632 -5.04343 0.383662 0
M  V30 10076 C 915.93 -4.38708 -0.803186 0
M  V30 10077 C 916.631 -5.76491 0.776718 0
M  V30 10078 N 915.607 -5.43444 0.130047 0
M  V30 10079 H 919.409 -2.89312 0.517275 0
M  V30 10080 H 916.923 -1.57787 0.384334 0
M  V30 10081 H 918.92 -3.76643 -1.78733 0
M  V30 10082 H 917.58 -2.60038 -1.94449 0
M  V30 10083 H 918.591 -5.1232 0.758192 0
M  V30 10084 H 915.268 -3.89235 -1.51003 0
M  V30 10085 H 916.658 -6.5391 1.54437 0
M  V30 10086 N 919.378 -0.300708 -1.54705 0
M  V30 10087 C 920.626 0.308044 -1.99739 0
M  V30 10088 C 920.947 1.54433 -1.19061 0
M  V30 10089 O 920.217 1.93794 -0.286507 0
M  V30 10090 H 918.797 0.116811 -0.73781 0
M  V30 10091 H 921.459 -0.41197 -1.90496 0
M  V30 10092 H 920.555 0.580287 -3.06658 0
M  V30 10093 N 920.856 1.57574 -0.0284266 0
M  V30 10094 C 922.081 1.96479 0.664137 0
M  V30 10095 C 922.506 0.904826 1.64908 0
M  V30 10096 O 921.864 -0.134339 1.80802 0
M  V30 10097 C 921.912 3.34479 1.34745 0
M  V30 10098 O 921.016 3.30794 2.46271 0
M  V30 10099 H 920.357 0.640654 0.174524 0
M  V30 10100 H 922.887 2.04402 -0.0900729 0
M  V30 10101 H 922.897 3.70694 1.7044 0
M  V30 10102 H 921.572 4.1117 0.625468 0
M  V30 10103 H 920.149 3.06294 2.12693 0
M  V30 10104 N 922.334 -0.244713 1.55689 0
M  V30 10105 C 923.559 -0.994157 1.8202 0
M  V30 10106 C 923.984 -1.78079 0.60577 0
M  V30 10107 O 923.342 -1.75748 -0.445221 0
M  V30 10108 C 923.39 -1.90599 3.06111 0
M  V30 10109 O 922.494 -2.99804 2.8318 0
M  V30 10110 H 921.835 -0.282767 0.600782 0
M  V30 10111 H 924.365 -0.26504 2.02876 0
M  V30 10112 H 924.375 -2.32023 3.35603 0
M  V30 10113 H 923.05 -1.32763 3.9414 0
M  V30 10114 H 921.627 -2.62493 2.64862 0
M  V30 10115 N 923.813 -1.49104 -0.510467 0
M  V30 10116 C 925.062 -1.57362 -1.26175 0
M  V30 10117 C 925.375 -0.261218 -1.93848 0
M  V30 10118 O 926.581 -0.222238 -2.70589 0
M  V30 10119 C 925.037 -2.77606 -2.29048 0
M  V30 10120 C 924.645 -4.15567 -1.67357 0
M  V30 10121 C 926.389 -2.95188 -3.05064 0
M  V30 10122 C 924.296 -5.27046 -2.68285 0
M  V30 10123 H 923.226 -0.585887 -0.474608 0
M  V30 10124 H 925.877 -1.75474 -0.536753 0
M  V30 10125 H 924.259 -2.52968 -3.04669 0
M  V30 10126 H 925.433 -4.50304 -0.977924 0
M  V30 10127 H 923.748 -4.03264 -1.03765 0
M  V30 10128 H 926.345 -3.75643 -3.80521 0
M  V30 10129 H 926.688 -2.05385 -3.62108 0
M  V30 10130 H 927.221 -3.19821 -2.36558 0
M  V30 10131 H 923.96 -6.18878 -2.16034 0
M  V30 10132 H 923.48 -4.96774 -3.36118 0
M  V30 10133 H 925.159 -5.55983 -3.30896 0
M  V30 10134 N 925.291 0.760815 -1.38019 0
M  V30 10135 C 926.221 1.88811 -1.37377 0
M  V30 10136 C 927.202 1.68388 -0.240737 0
M  V30 10137 O 928.387 1.89086 -0.442739 0
M  V30 10138 C 925.517 3.26244 -1.1909 0
M  V30 10139 C 924.471 3.61254 -2.29521 0
M  V30 10140 C 923.797 4.97346 -1.96345 0
M  V30 10141 C 925.097 3.66874 -3.71753 0
M  V30 10142 H 926.791 1.89606 -2.31711 0
M  V30 10143 H 924.337 0.910818 -1.11535 0
M  V30 10144 H 926.29 4.04755 -1.17267 0
M  V30 10145 H 925.014 3.2591 -0.212152 0
M  V30 10146 H 923.673 2.85057 -2.30517 0
M  V30 10147 H 923.321 4.93564 -0.969728 0
M  V30 10148 H 923.021 5.21739 -2.703 0
M  V30 10149 H 924.545 5.78244 -1.96129 0
M  V30 10150 H 925.959 4.35514 -3.72828 0
M  V30 10151 H 924.356 4.02772 -4.44853 0
M  V30 10152 H 925.426 2.67273 -4.0459 0
M  V30 10153 N 926.769 1.22769 0.988202 0
M  V30 10154 C 927.679 1.01844 2.11341 0
M  V30 10155 C 928.695 -0.0346937 1.73965 0
M  V30 10156 O 929.871 0.159061 2.00771 0
M  V30 10157 C 926.936 0.603837 3.41401 0
M  V30 10158 C 925.997 1.73113 3.92849 0
M  V30 10159 C 925.23 1.33621 5.16702 0
M  V30 10160 O 925.453 0.217041 5.69987 0
M  V30 10161 O 924.387 2.15444 5.62021 0
M  V30 10162 H 928.213 1.96127 2.31879 0
M  V30 10163 H 925.798 1.01405 1.09715 0
M  V30 10164 H 927.68 0.383196 4.19654 0
M  V30 10165 H 926.355 -0.310082 3.22211 0
M  V30 10166 H 925.262 2.00634 3.15748 0
M  V30 10167 H 926.595 2.62308 4.1648 0
M  V30 10168 N 928.247 -1.18576 1.03814 0
M  V30 10169 C 929.663 -1.4051 0.756909 0
M  V30 10170 C 929.863 -1.9057 -0.654631 0
M  V30 10171 O 928.919 -2.0884 -1.41922 0
M  V30 10172 C 930.232 -2.4081 1.80087 0
M  V30 10173 C 931.78 -2.54541 1.82148 0
M  V30 10174 C 932.255 -3.58102 2.85529 0
M  V30 10175 N 933.746 -3.65607 2.84404 0
M  V30 10176 C 934.481 -4.45458 3.61047 0
M  V30 10177 N 933.977 -5.28937 4.47434 0
M  V30 10178 N 935.77 -4.40196 3.49548 0
M  V30 10179 H 927.921 -0.844075 1.94908 0
M  V30 10180 H 930.184 -0.433287 0.843188 0
M  V30 10181 H 929.89 -2.1107 2.81322 0
M  V30 10182 H 929.764 -3.4012 1.63089 0
M  V30 10183 H 932.151 -2.83598 0.815855 0
M  V30 10184 H 932.232 -1.55352 2.03223 0
M  V30 10185 H 931.876 -3.29786 3.86269 0
M  V30 10186 H 931.806 -4.56963 2.6171 0
M  V30 10187 H 934.297 -3.05994 2.21756 0
M  V30 10188 H 934.61 -5.8701 5.02632 0
M  V30 10189 H 932.955 -5.28366 4.51503 0
M  V30 10190 H 936.146 -3.74026 2.81464 0
M  V30 10191 H 936.319 -5.02186 4.09528 0
M  V30 10192 N 929.725 -0.817259 -1.34754 0
M  V30 10193 C 930.675 -0.207585 -2.27053 0
M  V30 10194 C 931.659 0.624836 -1.48272 0
M  V30 10195 O 932.851 0.480344 -1.70358 0
M  V30 10196 C 929.98 0.634281 -3.3739 0
M  V30 10197 C 929.066 -0.208456 -4.23587 0
M  V30 10198 N 929.457 -1.2767 -4.89422 0
M  V30 10199 C 927.755 0.00815096 -4.45999 0
M  V30 10200 C 928.456 -1.79209 -5.53407 0
M  V30 10201 N 927.432 -1.09686 -5.32419 0
M  V30 10202 H 931.234 -1.0248 -2.75454 0
M  V30 10203 H 928.748 -0.659492 -1.48406 0
M  V30 10204 H 930.745 1.08718 -4.02475 0
M  V30 10205 H 929.405 1.44972 -2.90539 0
M  V30 10206 H 930.416 -1.65945 -4.90594 0
M  V30 10207 H 927.093 0.791879 -4.09921 0
M  V30 10208 H 928.483 -2.68548 -6.15899 0
M  V30 10209 N 931.203 1.46865 -0.571711 0
M  V30 10210 C 932.153 2.27219 0.188503 0
M  V30 10211 C 933.137 1.35221 0.872019 0
M  V30 10212 O 934.329 1.59474 0.76793 0
M  V30 10213 C 931.458 3.21321 1.20862 0
M  V30 10214 C 930.544 4.20803 0.527783 0
M  V30 10215 N 930.935 5.04132 -0.410403 0
M  V30 10216 C 929.233 4.39128 0.779909 0
M  V30 10217 C 929.934 5.76071 -0.80728 0
M  V30 10218 N 928.91 5.43368 -0.158865 0
M  V30 10219 H 932.712 2.89034 -0.532611 0
M  V30 10220 H 930.226 1.57581 -0.392696 0
M  V30 10221 H 932.223 3.77586 1.76733 0
M  V30 10222 H 930.883 2.61065 1.93067 0
M  V30 10223 H 931.894 5.11911 -0.785351 0
M  V30 10224 H 928.571 3.90031 1.48937 0
M  V30 10225 H 929.961 6.53082 -1.57903 0
M  V30 10226 N 932.681 0.308908 1.54543 0
M  V30 10227 C 933.611 -0.556657 2.26768 0
M  V30 10228 C 934.592 -1.13145 1.27013 0
M  V30 10229 O 935.777 -1.15931 1.558 0
M  V30 10230 C 932.907 -1.72481 3.01443 0
M  V30 10231 C 931.861 -1.28001 4.08411 0
M  V30 10232 C 931.187 -2.53395 4.70845 0
M  V30 10233 C 932.487 -0.405497 5.20724 0
M  V30 10234 H 934.181 0.0457618 2.99365 0
M  V30 10235 H 931.727 0.0234495 1.43981 0
M  V30 10236 H 933.68 -2.3365 3.50693 0
M  V30 10237 H 932.404 -2.35359 2.26437 0
M  V30 10238 H 931.063 -0.69133 3.60022 0
M  V30 10239 H 930.711 -3.14604 3.92471 0
M  V30 10240 H 930.411 -2.2433 5.43093 0
M  V30 10241 H 931.935 -3.15352 5.22863 0
M  V30 10242 H 933.349 -0.923076 5.6582 0
M  V30 10243 H 931.746 -0.208282 5.99738 0
M  V30 10244 H 932.816 0.567412 4.81569 0
M  V30 10245 N 934.159 -1.57557 0.0367827 0
M  V30 10246 C 935.069 -2.14148 -0.958017 0
M  V30 10247 C 936.085 -1.09564 -1.35173 0
M  V30 10248 O 937.261 -1.4166 -1.43158 0
M  V30 10249 C 934.326 -2.6636 -2.21931 0
M  V30 10250 C 933.387 -3.85688 -1.8853 0
M  V30 10251 C 932.62 -4.35401 -3.08645 0
M  V30 10252 O 932.843 -3.8425 -4.21554 0
M  V30 10253 O 931.777 -5.27158 -2.90497 0
M  V30 10254 H 935.603 -2.99442 -0.506797 0
M  V30 10255 H 933.188 -1.48259 -0.184275 0
M  V30 10256 H 935.07 -2.99976 -2.9596 0
M  V30 10257 H 933.745 -1.84145 -2.66219 0
M  V30 10258 H 932.652 -3.56985 -1.11861 0
M  V30 10259 H 933.985 -4.69089 -1.49052 0
M  V30 10260 N 935.637 0.236453 -1.55816 0
M  V30 10261 C 936.884 0.963012 -1.78136 0
M  V30 10262 C 937.212 1.84918 -0.602952 0
M  V30 10263 O 936.467 1.91285 0.413325 0
M  V30 10264 C 936.766 1.84549 -3.06066 0
M  V30 10265 C 936.432 1.11381 -4.36927 0
M  V30 10266 C 935.094 0.911635 -4.72486 0
M  V30 10267 C 937.446 0.596 -5.17781 0
M  V30 10268 C 934.774 0.179515 -5.86425 0
M  V30 10269 C 937.126 -0.122702 -6.32481 0
M  V30 10270 C 935.79 -0.336263 -6.66652 0
M  V30 10271 H 935.06 0.352391 -0.651845 0
M  V30 10272 H 937.707 0.232295 -1.90086 0
M  V30 10273 H 936.012 2.6436 -2.89173 0
M  V30 10274 H 937.709 2.40953 -3.20535 0
M  V30 10275 H 934.299 1.28134 -4.08998 0
M  V30 10276 H 938.483 0.73971 -4.90757 0
M  V30 10277 H 933.739 0.00368224 -6.114 0
M  V30 10278 H 937.913 -0.531516 -6.94369 0
M  V30 10279 H 935.54 -0.905507 -7.54788 0
M  V30 10280 N 937.115 1.49373 0.502552 0
M  V30 10281 C 938.363 1.58467 1.25429 0
M  V30 10282 C 938.684 0.272593 1.93085 0
M  V30 10283 O 937.954 -0.707947 1.82661 0
M  V30 10284 H 936.534 0.583866 0.46595 0
M  V30 10285 H 939.196 1.8599 0.582568 0
M  V30 10286 H 938.292 2.37993 2.01906 0
M  V30 10287 N 938.594 -0.753485 1.38421 0
M  V30 10288 C 939.541 -1.86723 1.35659 0
M  V30 10289 C 940.511 -1.64648 0.219121 0
M  V30 10290 O 941.696 -1.86313 0.411366 0
M  V30 10291 C 938.836 -3.24023 1.18758 0
M  V30 10292 C 937.949 -3.57928 2.41892 0
M  V30 10293 C 937.084 -4.84532 2.17721 0
M  V30 10294 C 936.123 -5.11224 3.36626 0
M  V30 10295 N 935.26 -6.29023 3.11889 0
M  V30 10296 H 940.1 -1.88419 2.30873 0
M  V30 10297 H 937.637 -0.920934 1.14705 0
M  V30 10298 H 939.595 -4.03252 1.06974 0
M  V30 10299 H 938.225 -3.21654 0.27182 0
M  V30 10300 H 937.277 -2.73541 2.64347 0
M  V30 10301 H 938.589 -3.73581 3.30513 0
M  V30 10302 H 937.743 -5.71704 2.03074 0
M  V30 10303 H 936.482 -4.71018 1.26465 0
M  V30 10304 H 935.487 -4.2252 3.51791 0
M  V30 10305 H 936.712 -5.26635 4.28757 0
M  V30 10306 H 934.658 -6.16832 2.2328 0
M  V30 10307 H 934.575 -6.45177 3.9406 0
M  V30 10308 H 935.843 -7.19083 3.00898 0
M  V30 10309 N 940.072 -1.23292 -0.981677 0
M  V30 10310 C 941.3 -1.09088 -1.75805 0
M  V30 10311 C 941.715 0.357746 -1.8538 0
M  V30 10312 O 941.072 1.24751 -1.33205 0
M  V30 10313 C 941.123 -1.70885 -3.1856 0
M  V30 10314 O 940.844 -3.10082 -3.09484 0
M  V30 10315 C 942.345 -1.62106 -4.12597 0
M  V30 10316 H 939.565 -0.38184 -0.55176 0
M  V30 10317 H 942.109 -1.63116 -1.23342 0
M  V30 10318 H 940.264 -1.20893 -3.68054 0
M  V30 10319 H 940.678 -3.40039 -3.99342 0
M  V30 10320 H 942.152 -2.10049 -5.10474 0
M  V30 10321 H 942.629 -0.579642 -4.35358 0
M  V30 10322 H 943.235 -2.11457 -3.69007 0
M  V30 10323 N 941.55 1.18024 -1.04442 0
M  V30 10324 C 942.48 2.23988 -0.659683 0
M  V30 10325 C 943.461 1.6669 0.338904 0
M  V30 10326 O 944.646 1.92971 0.21817 0
M  V30 10327 C 941.776 3.4729 -0.0257672 0
M  V30 10328 C 940.73 4.17362 -0.948299 0
M  V30 10329 C 940.056 5.34401 -0.17866 0
M  V30 10330 C 941.356 4.70435 -2.26909 0
M  V30 10331 H 943.05 2.56425 -1.54553 0
M  V30 10332 H 940.596 1.23256 -0.744575 0
M  V30 10333 H 942.549 4.20627 0.255131 0
M  V30 10334 H 941.273 3.14098 0.894981 0
M  V30 10335 H 939.932 3.45928 -1.21364 0
M  V30 10336 H 939.58 4.97458 0.744614 0
M  V30 10337 H 939.28 5.8222 -0.793294 0
M  V30 10338 H 940.804 6.10526 0.0951315 0
M  V30 10339 H 942.218 5.35447 -2.04864 0
M  V30 10340 H 940.615 5.28803 -2.83703 0
M  V30 10341 H 941.685 3.87653 -2.91296 0
M  V30 10342 N 943.028 0.824394 1.34319 0
M  V30 10343 C 943.958 0.262077 2.32025 0
M  V30 10344 C 944.939 -0.622277 1.58309 0
M  V30 10345 O 946.124 -0.548848 1.86283 0
M  V30 10346 C 943.254 -0.57567 3.42496 0
M  V30 10347 C 942.208 0.21167 4.27476 0
M  V30 10348 C 941.534 -0.748913 5.29429 0
M  V30 10349 C 942.834 1.42068 5.02607 0
M  V30 10350 H 944.528 1.07842 2.79304 0
M  V30 10351 H 942.074 0.520022 1.34282 0
M  V30 10352 H 944.027 -0.979251 4.09864 0
M  V30 10353 H 942.751 -1.42508 2.93869 0
M  V30 10354 H 941.41 0.596636 3.61712 0
M  V30 10355 H 941.058 -1.59432 4.77064 0
M  V30 10356 H 940.758 -0.226313 5.87164 0
M  V30 10357 H 942.282 -1.15032 5.99667 0
M  V30 10358 H 943.696 1.09103 5.62823 0
M  V30 10359 H 942.093 1.87903 5.69923 0
M  V30 10360 H 943.163 2.1981 4.32217 0
M  V30 10361 N 944.506 -1.46559 0.579492 0
M  V30 10362 C 945.922 -1.57771 0.240921 0
M  V30 10363 C 946.122 -1.57505 -1.25676 0
M  V30 10364 O 945.178 -1.4903 -2.03829 0
M  V30 10365 C 946.491 -2.87311 0.887285 0
M  V30 10366 C 948.039 -3.00937 0.860576 0
M  V30 10367 C 948.514 -4.33208 1.48642 0
M  V30 10368 N 950.005 -4.39899 1.45062 0
M  V30 10369 C 950.74 -5.40856 1.90428 0
M  V30 10370 N 950.236 -6.48503 2.43752 0
M  V30 10371 N 952.029 -5.32037 1.81364 0
M  V30 10372 H 944.18 -1.44976 1.55228 0
M  V30 10373 H 946.443 -0.691354 0.648639 0
M  V30 10374 H 946.149 -2.93307 1.94071 0
M  V30 10375 H 946.023 -3.75141 0.393577 0
M  V30 10376 H 948.41 -2.94524 -0.184223 0
M  V30 10377 H 948.491 -2.14591 1.39227 0
M  V30 10378 H 948.135 -4.40378 2.5304 0
M  V30 10379 H 948.065 -5.18323 0.92998 0
M  V30 10380 H 950.556 -3.62706 1.0608 0
M  V30 10381 H 950.869 -7.21744 2.76234 0
M  V30 10382 H 949.214 -6.49332 2.47776 0
M  V30 10383 H 952.405 -4.46841 1.39465 0
M  V30 10384 H 952.578 -6.10573 2.17035 0
M  V30 10385 N 945.984 -0.3171 -1.54377 0
M  V30 10386 C 947.261 0.341348 -1.92598 0
M  V30 10387 C 947.641 1.70402 -1.24605 0
M  V30 10388 O 946.989 2.25191 -0.387448 0
M  V30 10389 C 947.199 0.440003 -3.46215 0
M  V30 10390 C 948.547 0.703327 -4.18734 0
M  V30 10391 O 949.571 0.523181 -3.52337 0
M  V30 10392 O 948.43 1.05042 -5.3631 0
M  V30 10393 H 945.524 0.193696 -0.803997 0
M  V30 10394 H 948.07 -0.366341 -1.65699 0
M  V30 10395 H 946.842 -0.517299 -3.87866 0
M  V30 10396 H 946.465 1.19553 -3.792 0
M  V30 10397 N 947.462 1.57535 -0.0451378 0
M  V30 10398 C 948.372 2.14653 0.946646 0
M  V30 10399 C 949.388 1.10279 1.3459 0
M  V30 10400 O 950.564 1.42417 1.42405 0
M  V30 10401 C 947.629 2.67533 2.20515 0
M  V30 10402 C 946.69 3.86682 1.86481 0
M  V30 10403 C 945.923 4.37031 3.06332 0
M  V30 10404 O 946.146 3.86481 4.1951 0
M  V30 10405 O 945.08 5.28691 2.87697 0
M  V30 10406 H 948.906 2.99706 0.49091 0
M  V30 10407 H 946.491 1.48355 0.17641 0
M  V30 10408 H 948.373 3.01542 2.94365 0
M  V30 10409 H 947.048 1.85554 2.65238 0
M  V30 10410 H 945.955 3.57573 1.09966 0
M  V30 10411 H 947.288 4.69873 1.46562 0
M  V30 10412 N 948.94 -0.228186 1.55939 0
M  V30 10413 C 950.165 -0.974795 1.83064 0
M  V30 10414 C 950.59 -1.77426 0.624624 0
M  V30 10415 O 949.948 -1.76211 -0.426556 0
M  V30 10416 C 949.996 -1.87342 3.08116 0
M  V30 10417 O 949.1 -2.96784 2.86344 0
M  V30 10418 H 948.441 -0.276379 0.603747 0
M  V30 10419 H 950.971 -0.243507 2.03146 0
M  V30 10420 H 950.981 -2.28451 3.38045 0
M  V30 10421 H 949.656 -1.28575 3.95526 0
M  V30 10422 H 948.233 -2.59669 2.67631 0
M  V30 10423 N 950.418 -1.49637 -0.494624 0
M  V30 10424 C 951.348 -1.69692 -1.60396 0
M  V30 10425 C 952.329 -0.545648 -1.61111 0
M  V30 10426 O 953.514 -0.782202 -1.77751 0
M  V30 10427 C 950.644 -1.76934 -2.9885 0
M  V30 10428 C 949.598 -2.91915 -3.13001 0
M  V30 10429 C 948.924 -2.84276 -4.5287 0
M  V30 10430 C 950.224 -4.32764 -2.92426 0
M  V30 10431 H 951.918 -2.6257 -1.43866 0
M  V30 10432 H 949.464 -1.26355 -0.690679 0
M  V30 10433 H 951.417 -1.8955 -3.76362 0
M  V30 10434 H 950.141 -0.806609 -3.16483 0
M  V30 10435 H 948.8 -2.78911 -2.37916 0
M  V30 10436 H 948.448 -1.85897 -4.67388 0
M  V30 10437 H 948.148 -3.61452 -4.63278 0
M  V30 10438 H 949.672 -2.98909 -5.32434 0
M  V30 10439 H 951.086 -4.46415 -3.59703 0
M  V30 10440 H 949.483 -5.1121 -3.143 0
M  V30 10441 H 950.553 -4.46765 -1.88491 0
M  V30 10442 N 951.896 0.746133 -1.38819 0
M  V30 10443 C 952.844 1.88137 -1.36774 0
M  V30 10444 C 953.838 1.67508 -0.252495 0
M  V30 10445 O 955.044 1.74985 -0.421935 0
M  V30 10446 H 951.419 0.619116 -0.426849 0
M  V30 10447 H 953.39 1.86978 -2.32555 0
M  V30 10448 C 952.139 3.25703 -1.21708 0
M  V30 10449 H 951.462 3.42168 -2.06788 0
M  V30 10450 H 952.902 4.05361 -1.24332 0
M  V30 10451 C 951.361 3.36816 0.0754257 0
M  V30 10452 O 951.891 3.87742 1.04972 0
M  V30 10453 N 950.097 2.90287 0.134761 0
M  V30 10454 H 949.644 2.49034 -0.658779 0
M  V30 10455 H 949.602 2.98103 0.999109 0
M  V30 10456 N 953.375 1.23811 0.975125 0
M  V30 10457 C 954.624 1.06741 1.71141 0
M  V30 10458 C 954.937 -0.394986 1.9157 0
M  V30 10459 O 956.143 -0.685723 2.62698 0
M  V30 10460 C 954.599 1.86168 3.08009 0
M  V30 10461 C 954.207 3.36771 2.95448 0
M  V30 10462 C 955.951 1.77604 3.85561 0
M  V30 10463 C 953.858 4.0857 4.2758 0
M  V30 10464 H 952.788 0.395819 0.64175 0
M  V30 10465 H 955.439 1.47825 1.0872 0
M  V30 10466 H 953.821 1.37893 3.71216 0
M  V30 10467 H 954.995 3.92571 2.41298 0
M  V30 10468 H 953.31 3.46205 2.31368 0
M  V30 10469 H 955.907 2.28556 4.83391 0
M  V30 10470 H 956.25 0.739837 4.09673 0
M  V30 10471 H 956.783 2.23519 3.29065 0
M  V30 10472 H 953.522 5.12518 4.08663 0
M  V30 10473 H 953.042 3.57556 4.81574 0
M  V30 10474 H 954.721 4.15157 4.9624 0
M  V30 10475 N 954.853 -1.17469 1.05066 0
M  V30 10476 C 956.1 -1.87698 0.759987 0
M  V30 10477 C 956.428 -1.80964 -0.712902 0
M  V30 10478 O 955.683 -1.21146 -1.53695 0
M  V30 10479 C 955.982 -3.37211 1.18421 0
M  V30 10480 C 955.648 -3.64148 2.65909 0
M  V30 10481 C 954.31 -3.71209 3.06199 0
M  V30 10482 C 956.662 -3.75724 3.61222 0
M  V30 10483 C 953.99 -3.87334 4.40669 0
M  V30 10484 C 956.342 -3.93368 4.95424 0
M  V30 10485 C 955.006 -3.98667 5.3537 0
M  V30 10486 H 954.276 -0.686835 0.278099 0
M  V30 10487 H 956.923 -1.38975 1.31751 0
M  V30 10488 H 955.228 -3.87982 0.545654 0
M  V30 10489 H 956.925 -3.89911 0.936518 0
M  V30 10490 H 953.515 -3.59276 2.33707 0
M  V30 10491 H 957.699 -3.69591 3.31235 0
M  V30 10492 H 952.955 -3.89685 4.71122 0
M  V30 10493 H 957.129 -4.01267 5.69173 0
M  V30 10494 H 954.756 -4.10915 6.39572 0
M  V30 10495 N 956.331 -0.831506 -1.3388 0
M  V30 10496 C 957.263 -0.216908 -2.28171 0
M  V30 10497 C 958.276 0.598141 -1.51414 0
M  V30 10498 O 959.465 0.426416 -1.73332 0
M  V30 10499 C 956.565 0.713831 -3.31297 0
M  V30 10500 C 955.738 -0.0602673 -4.37358 0
M  V30 10501 C 954.797 0.792696 -5.20195 0
M  V30 10502 O 953.823 0.234564 -5.68716 0
M  V30 10503 N 955.025 2.11119 -5.40748 0
M  V30 10504 H 957.79 -1.02704 -2.81553 0
M  V30 10505 H 955.351 -0.689272 -1.46495 0
M  V30 10506 H 957.343 1.28925 -3.83615 0
M  V30 10507 H 955.913 1.42469 -2.78247 0
M  V30 10508 H 955.133 -0.817041 -3.8564 0
M  V30 10509 H 956.421 -0.592822 -5.05335 0
M  V30 10510 H 955.819 2.58828 -5.03016 0
M  V30 10511 H 954.376 2.63527 -5.96151 0
M  V30 10512 N 957.809 1.4625 -0.587256 0
M  V30 10513 C 958.757 2.32076 0.156108 0
M  V30 10514 C 959.751 1.44756 0.879887 0
M  V30 10515 O 960.957 1.61356 0.797759 0
M  V30 10516 H 957.332 0.748808 0.0692098 0
M  V30 10517 H 959.303 2.9258 -0.586497 0
M  V30 10518 C 958.052 3.28008 1.15352 0
M  V30 10519 H 957.375 3.9518 0.60601 0
M  V30 10520 H 958.815 3.90832 1.64396 0
M  V30 10521 C 957.274 2.53691 2.21681 0
M  V30 10522 O 957.804 2.30329 3.29107 0
M  V30 10523 N 956.01 2.14174 1.96412 0
M  V30 10524 H 955.557 2.33374 1.09061 0
M  V30 10525 H 955.515 1.6477 2.67765 0
M  V30 10526 N 959.287 0.325282 1.54207 0
M  V30 10527 C 960.217 -0.532574 2.27345 0
M  V30 10528 C 961.198 -1.11791 1.28206 0
M  V30 10529 O 962.383 -1.14272 1.57021 0
M  V30 10530 C 959.513 -1.69274 3.03255 0
M  V30 10531 C 958.467 -1.23662 4.09746 0
M  V30 10532 C 957.793 -2.48386 4.73506 0
M  V30 10533 C 959.093 -0.350244 5.21124 0
M  V30 10534 H 960.787 0.0775108 2.993 0
M  V30 10535 H 958.333 0.0387193 1.43948 0
M  V30 10536 H 960.286 -2.29917 3.53152 0
M  V30 10537 H 959.01 -2.32944 2.28921 0
M  V30 10538 H 957.669 -0.653106 3.60735 0
M  V30 10539 H 957.317 -3.10424 3.95786 0
M  V30 10540 H 957.017 -2.18558 5.45441 0
M  V30 10541 H 958.541 -3.09789 5.26178 0
M  V30 10542 H 959.955 -0.863011 5.66767 0
M  V30 10543 H 958.352 -0.14466 5.99926 0
M  V30 10544 H 959.422 0.618457 4.8094 0
M  V30 10545 N 960.765 -1.57509 0.0534917 0
M  V30 10546 C 961.713 -2.12851 -0.937931 0
M  V30 10547 C 962.707 -1.06088 -1.32067 0
M  V30 10548 O 963.913 -1.24494 -1.30005 0
M  V30 10549 H 960.288 -0.680357 -0.320342 0
M  V30 10550 H 962.259 -2.95047 -0.446077 0
M  V30 10551 C 961.008 -2.69034 -2.20264 0
M  V30 10552 H 960.331 -3.50848 -1.91693 0
M  V30 10553 H 961.771 -3.11375 -2.87788 0
M  V30 10554 C 960.23 -1.62919 -2.94888 0
M  V30 10555 O 960.76 -1.04334 -3.87914 0
M  V30 10556 N 958.966 -1.34385 -2.57661 0
M  V30 10557 H 958.513 -1.82214 -1.82088 0
M  V30 10558 H 958.471 -0.636149 -3.07897 0
M  V30 10559 N 962.243 0.219913 -1.56058 0
M  V30 10560 C 963.659 0.569685 -1.49086 0
M  V30 10561 C 963.859 1.87066 -0.748903 0
M  V30 10562 O 962.915 2.50838 -0.289235 0
M  V30 10563 C 964.228 0.647397 -2.93648 0
M  V30 10564 C 965.776 0.737914 -3.04177 0
M  V30 10565 C 966.251 0.846957 -4.50101 0
M  V30 10566 N 967.742 0.911136 -4.5415 0
M  V30 10567 C 968.477 1.01525 -5.64341 0
M  V30 10568 N 967.973 1.0832 -6.8428 0
M  V30 10569 N 969.766 1.05051 -5.52196 0
M  V30 10570 H 961.917 -0.633778 -2.02724 0
M  V30 10571 H 964.18 -0.222583 -0.921499 0
M  V30 10572 H 963.886 -0.238987 -3.50887 0
M  V30 10573 H 963.76 1.51046 -3.45637 0
M  V30 10574 H 966.147 1.61474 -2.47002 0
M  V30 10575 H 966.228 -0.150845 -2.55355 0
M  V30 10576 H 965.872 -0.0254166 -5.07894 0
M  V30 10577 H 965.802 1.75116 -4.96631 0
M  V30 10578 H 968.293 0.868869 -3.67776 0
M  V30 10579 H 968.606 1.16247 -7.64007 0
M  V30 10580 H 966.951 1.05231 -6.86987 0
M  V30 10581 H 970.142 0.994086 -4.57423 0
M  V30 10582 H 970.315 1.12819 -6.38103 0
M  V30 10583 N 963.721 1.49897 0.486681 0
M  V30 10584 C 965.137 1.36977 0.819109 0
M  V30 10585 C 965.337 0.41385 1.97204 0
M  V30 10586 O 964.393 -0.149249 2.52059 0
M  V30 10587 C 965.706 2.78013 1.14584 0
M  V30 10588 C 967.254 2.86816 1.25321 0
M  V30 10589 C 967.729 4.28651 1.61316 0
M  V30 10590 N 969.22 4.31528 1.68337 0
M  V30 10591 C 969.955 5.38254 1.97662 0
M  V30 10592 N 969.451 6.55207 2.25113 0
M  V30 10593 N 971.244 5.25683 1.99033 0
M  V30 10594 H 963.395 2.10634 -0.273364 0
M  V30 10595 H 965.658 0.946116 -0.0597418 0
M  V30 10596 H 965.364 3.49728 0.371892 0
M  V30 10597 H 965.238 3.1428 2.08585 0
M  V30 10598 H 967.625 2.15329 2.01785 0
M  V30 10599 H 967.706 2.54112 0.293368 0
M  V30 10600 H 967.35 5.00669 0.853968 0
M  V30 10601 H 967.28 4.5883 2.58424 0
M  V30 10602 H 969.771 3.47189 1.49226 0
M  V30 10603 H 970.084 7.32359 2.46717 0
M  V30 10604 H 968.429 6.58408 2.22538 0
M  V30 10605 H 971.62 4.33316 1.77074 0
M  V30 10606 H 971.793 6.08949 2.21552 0
M  V30 10607 N 965.199 -0.738761 1.39212 0
M  V30 10608 C 966.131 -1.86286 1.3353 0
M  V30 10609 C 967.144 -1.6095 0.244755 0
M  V30 10610 O 968.333 -1.71254 0.50343 0
M  V30 10611 C 965.433 -3.22234 1.04969 0
M  V30 10612 C 964.606 -3.74956 2.25226 0
M  V30 10613 C 963.665 -4.89457 1.9318 0
M  V30 10614 O 962.691 -5.03314 2.65826 0
M  V30 10615 N 963.893 -5.73548 0.895679 0
M  V30 10616 H 966.658 -1.91666 2.304 0
M  V30 10617 H 964.219 -0.919338 1.33266 0
M  V30 10618 H 966.211 -3.96397 0.815566 0
M  V30 10619 H 964.781 -3.12146 0.168451 0
M  V30 10620 H 964.001 -2.92188 2.64612 0
M  V30 10621 H 965.289 -4.06914 3.05448 0
M  V30 10622 H 964.687 -5.64938 0.293541 0
M  V30 10623 H 963.244 -6.47795 0.721451 0
M  V30 10624 N 966.677 -1.24326 -0.968545 0
M  V30 10625 C 967.627 -1.00191 -2.04807 0
M  V30 10626 C 968.611 0.0563524 -1.60801 0
M  V30 10627 O 969.803 -0.157268 -1.763 0
M  V30 10628 C 966.932 -0.607749 -3.37878 0
M  V30 10629 C 966.018 -1.70204 -3.88447 0
M  V30 10630 N 966.409 -2.93463 -4.11962 0
M  V30 10631 C 964.707 -1.57936 -4.171 0
M  V30 10632 C 965.408 -3.64397 -4.5342 0
M  V30 10633 N 964.384 -2.91956 -4.58544 0
M  V30 10634 H 968.186 -1.93786 -2.20962 0
M  V30 10635 H 965.7 -1.1444 -1.15227 0
M  V30 10636 H 967.697 -0.416079 -4.14819 0
M  V30 10637 H 966.357 0.321026 -3.23109 0
M  V30 10638 H 967.368 -3.2965 -3.99438 0
M  V30 10639 H 964.045 -0.718552 -4.1127 0
M  V30 10640 H 965.435 -4.70125 -4.80034 0
M  V30 10641 N 968.156 1.1691 -1.05688 0
M  V30 10642 C 969.066 2.24735 -0.67315 0
M  V30 10643 C 970.082 1.71252 0.308043 0
M  V30 10644 O 971.258 2.00772 0.158889 0
M  V30 10645 C 968.323 3.4665 -0.059026 0
M  V30 10646 C 967.384 4.15198 -1.0913 0
M  V30 10647 C 966.617 5.31292 -0.50639 0
M  V30 10648 O 966.84 5.663 0.682692 0
M  V30 10649 O 965.774 5.88923 -1.2431 0
M  V30 10650 H 969.6 2.59855 -1.57191 0
M  V30 10651 H 967.185 1.24306 -0.828751 0
M  V30 10652 H 969.067 4.20455 0.282018 0
M  V30 10653 H 967.742 3.13316 0.813304 0
M  V30 10654 H 966.649 3.43389 -1.48442 0
M  V30 10655 H 967.982 4.52571 -1.93495 0
M  V30 10656 N 969.634 0.838594 1.33437 0
M  V30 10657 C 970.584 0.243681 2.26694 0
M  V30 10658 C 971.568 -0.601168 1.49247 0
M  V30 10659 O 972.76 -0.453181 1.711 0
M  V30 10660 C 969.889 -0.580525 3.38356 0
M  V30 10661 C 968.975 0.275819 4.23202 0
M  V30 10662 N 969.366 1.3544 4.87329 0
M  V30 10663 C 967.664 0.0628047 4.45956 0
M  V30 10664 C 968.365 1.87991 5.50486 0
M  V30 10665 N 967.341 1.18143 5.30607 0
M  V30 10666 H 971.143 1.06849 2.73789 0
M  V30 10667 H 968.657 0.683019 1.47338 0
M  V30 10668 H 970.654 -1.02301 4.04153 0
M  V30 10669 H 969.314 -1.40331 2.92809 0
M  V30 10670 H 970.325 1.73729 4.87892 0
M  V30 10671 H 967.002 -0.726563 4.11129 0
M  V30 10672 H 968.392 2.78312 6.11549 0
M  V30 10673 N 971.112 -1.45937 0.595003 0
M  V30 10674 C 972.075 -2.2888 -0.121102 0
M  V30 10675 C 973.075 -1.39075 -0.807149 0
M  V30 10676 O 974.265 -1.61326 -0.657228 0
M  V30 10677 C 971.397 -3.19778 -1.1813 0
M  V30 10678 H 972.59 -2.93673 0.607968 0
M  V30 10679 H 970.143 -1.5225 0.353495 0
M  V30 10680 H 970.878 -2.59759 -1.94154 0
M  V30 10681 H 970.663 -3.85914 -0.693724 0
M  V30 10682 H 972.153 -3.82176 -1.68319 0
M  V30 10683 N 972.59 -0.333456 -1.54032 0
M  V30 10684 C 973.839 0.267081 -1.99924 0
M  V30 10685 C 974.152 1.52463 -1.22534 0
M  V30 10686 O 975.358 2.20178 -1.58852 0
M  V30 10687 C 973.814 0.526456 -3.56029 0
M  V30 10688 C 973.422 -0.714607 -4.42264 0
M  V30 10689 C 975.166 1.0864 -4.10363 0
M  V30 10690 C 973.073 -0.42659 -5.89859 0
M  V30 10691 H 972.003 0.103577 -0.746852 0
M  V30 10692 H 974.654 -0.447218 -1.77967 0
M  V30 10693 H 973.036 1.3012 -3.74012 0
M  V30 10694 H 974.21 -1.48968 -4.36056 0
M  V30 10695 H 972.525 -1.19547 -3.9887 0
M  V30 10696 H 975.122 1.31668 -5.18235 0
M  V30 10697 H 975.465 2.03884 -3.62956 0
M  V30 10698 H 975.998 0.37261 -3.96051 0
M  V30 10699 H 972.737 -1.34847 -6.4148 0
M  V30 10700 H 972.257 0.310588 -5.98995 0
M  V30 10701 H 973.936 -0.0400807 -6.46988 0
M  V30 10702 N 974.068 1.57479 -0.061844 0
M  V30 10703 C 975.018 2.0867 0.918749 0
M  V30 10704 C 976.002 0.994174 1.26511 0
M  V30 10705 O 977.194 1.25738 1.24575 0
M  V30 10706 C 974.323 2.64386 2.18986 0
M  V30 10707 C 973.409 3.80626 1.87042 0
M  V30 10708 N 973.8 4.89982 1.25504 0
M  V30 10709 C 972.098 3.89733 2.1685 0
M  V30 10710 C 972.799 5.70928 1.11429 0
M  V30 10711 N 971.775 5.18877 1.62072 0
M  V30 10712 H 975.577 2.90611 0.438469 0
M  V30 10713 H 973.091 1.61775 0.142321 0
M  V30 10714 H 975.088 2.9937 2.90144 0
M  V30 10715 H 973.748 1.83888 2.67611 0
M  V30 10716 H 974.759 5.09556 0.925914 0
M  V30 10717 H 971.436 3.20194 2.67921 0
M  V30 10718 H 972.826 6.68886 0.635665 0
M  V30 10719 N 975.546 -0.211634 1.56173 0
M  V30 10720 C 976.479 -1.28982 1.88252 0
M  V30 10721 C 977.457 -1.4474 0.740889 0
M  V30 10722 O 978.641 -1.60394 0.990249 0
M  V30 10723 C 975.768 -2.65879 2.09824 0
M  V30 10724 C 974.814 -2.67082 3.3252 0
M  V30 10725 S 975.647 -2.2016 4.8815 0
M  V30 10726 C 976.803 -3.58913 5.12769 0
M  V30 10727 H 977.036 -1.01578 2.79409 0
M  V30 10728 H 974.569 -0.414351 1.48736 0
M  V30 10729 H 976.527 -3.44688 2.22935 0
M  V30 10730 H 975.188 -2.90502 1.19447 0
M  V30 10731 H 974.381 -3.67703 3.44689 0
M  V30 10732 H 973.983 -1.96343 3.18317 0
M  V30 10733 H 976.275 -4.54671 5.02276 0
M  V30 10734 H 977.218 -3.51652 6.14611 0
M  V30 10735 H 977.626 -3.5306 4.40465 0
M  V30 10736 N 977.024 -1.50153 -0.478725 0
M  V30 10737 C 977.957 -1.63089 -1.59616 0
M  V30 10738 C 978.935 -0.479211 -1.55378 0
M  V30 10739 O 980.119 -0.697715 -1.75112 0
M  V30 10740 C 977.246 -1.60643 -2.9818 0
M  V30 10741 C 976.292 -2.81279 -3.206 0
M  V30 10742 S 977.125 -4.42681 -3.0132 0
M  V30 10743 C 978.281 -4.42915 -4.42241 0
M  V30 10744 H 978.514 -2.57612 -1.48402 0
M  V30 10745 H 976.047 -1.39321 -0.665513 0
M  V30 10746 H 978.005 -1.59917 -3.7807 0
M  V30 10747 H 976.666 -0.673684 -3.0679 0
M  V30 10748 H 975.859 -2.7585 -4.21809 0
M  V30 10749 H 975.461 -2.79533 -2.4847 0
M  V30 10750 H 977.753 -4.16007 -5.34737 0
M  V30 10751 H 978.696 -5.44477 -4.52715 0
M  V30 10752 H 979.104 -3.72715 -4.23962 0
M  V30 10753 N 978.502 0.731368 -1.39602 0
M  V30 10754 C 979.779 1.48308 -1.27531 0
M  V30 10755 C 980.159 2.10795 0.113482 0
M  V30 10756 O 979.507 1.98886 1.12501 0
M  V30 10757 C 979.717 2.53156 -2.40235 0
M  V30 10758 C 981.065 3.19436 -2.79725 0
M  V30 10759 O 982.089 2.6347 -2.39712 0
M  V30 10760 O 980.948 4.20714 -3.48801 0
M  V30 10761 H 978.042 0.658753 -0.499973 0
M  V30 10762 H 980.588 0.764884 -1.51485 0
M  V30 10763 H 979.36 2.05387 -3.33064 0
M  V30 10764 H 978.983 3.3253 -2.17966 0
M  V30 10765 N 979.98 1.24838 0.961938 0
M  V30 10766 C 981.229 1.0855 1.69999 0
M  V30 10767 C 981.542 -0.374645 1.91979 0
M  V30 10768 O 982.748 -0.657822 2.6341 0
M  V30 10769 C 981.204 1.89424 3.06017 0
M  V30 10770 C 980.812 3.39885 2.9186 0
M  V30 10771 C 982.556 1.81684 3.83655 0
M  V30 10772 C 980.463 4.13082 4.23223 0
M  V30 10773 H 979.393 0.402603 0.637516 0
M  V30 10774 H 982.044 1.4897 1.07146 0
M  V30 10775 H 980.426 1.41823 3.69733 0
M  V30 10776 H 981.6 3.95108 2.37121 0
M  V30 10777 H 979.915 3.4864 2.27683 0
M  V30 10778 H 982.512 2.3367 4.80939 0
M  V30 10779 H 982.855 0.783247 4.08865 0
M  V30 10780 H 983.388 2.26997 3.26676 0
M  V30 10781 H 980.127 5.16824 4.03204 0
M  V30 10782 H 979.647 3.62644 4.77755 0
M  V30 10783 H 981.326 4.20397 4.91808 0
M  V30 10784 N 981.458 -1.16348 1.06306 0
M  V30 10785 C 982.421 -2.18941 0.678053 0
M  V30 10786 C 983.421 -1.58409 -0.276277 0
M  V30 10787 O 984.611 -1.74101 -0.0586435 0
M  V30 10788 C 981.743 -3.409 -0.00228684 0
M  V30 10789 H 982.936 -2.54516 1.58624 0
M  V30 10790 H 980.489 -1.30625 0.858298 0
M  V30 10791 H 981.224 -3.10881 -0.923212 0
M  V30 10792 H 981.009 -3.86089 0.683949 0
M  V30 10793 H 982.499 -4.16806 -0.257374 0
M  V30 10794 N 982.937 -0.845659 -1.3299 0
M  V30 10795 C 984.186 -0.440928 -1.96822 0
M  V30 10796 C 984.499 1.00668 -1.67706 0
M  V30 10797 O 985.705 1.51641 -2.25205 0
M  V30 10798 C 984.161 -0.73752 -3.52262 0
M  V30 10799 C 983.769 -2.20026 -3.90247 0
M  V30 10800 C 985.513 -0.400072 -4.22611 0
M  V30 10801 C 983.42 -2.44054 -5.38694 0
M  V30 10802 H 982.35 -0.161148 -0.736578 0
M  V30 10803 H 985.001 -1.03519 -1.51513 0
M  V30 10804 H 983.383 -0.0728025 -3.95933 0
M  V30 10805 H 984.557 -2.90602 -3.57613 0
M  V30 10806 H 982.872 -2.50135 -3.32899 0
M  V30 10807 H 985.469 -0.557136 -5.3179 0
M  V30 10808 H 985.812 0.657547 -4.11074 0
M  V30 10809 H 986.345 -1.0203 -3.84493 0
M  V30 10810 H 983.084 -3.48407 -5.55241 0
M  V30 10811 H 982.604 -1.78047 -5.72765 0
M  V30 10812 H 984.283 -2.27549 -6.05665 0
M  V30 10813 N 984.415 1.45619 -0.602734 0
M  V30 10814 C 985.664 2.01483 -0.0936395 0
M  V30 10815 C 985.977 1.47753 1.28173 0
M  V30 10816 O 987.183 1.95562 1.88329 0
M  V30 10817 C 985.639 3.59711 -0.116738 0
M  V30 10818 C 985.247 4.22437 -1.49166 0
M  V30 10819 C 986.991 4.23157 0.337368 0
M  V30 10820 C 984.898 5.72803 -1.47141 0
M  V30 10821 H 983.828 0.753353 -0.0312382 0
M  V30 10822 H 986.479 1.67142 -0.757347 0
M  V30 10823 H 984.861 3.91218 0.613529 0
M  V30 10824 H 986.035 4.02511 -2.24325 0
M  V30 10825 H 984.35 3.71166 -1.88746 0
M  V30 10826 H 986.947 5.33407 0.371628 0
M  V30 10827 H 987.29 3.93491 1.35906 0
M  V30 10828 H 987.823 3.96349 -0.339474 0
M  V30 10829 H 984.562 6.07161 -2.47055 0
M  V30 10830 H 984.082 5.94936 -0.762329 0
M  V30 10831 H 985.761 6.35907 -1.19294 0
M  V30 10832 N 985.893 0.34162 1.53853 0
M  V30 10833 C 986.856 -0.503541 2.236 0
M  V30 10834 C 987.856 -1.02912 1.23554 0
M  V30 10835 O 989.046 -0.918678 1.48007 0
M  V30 10836 C 986.178 -1.70126 2.95415 0
M  V30 10837 H 987.371 0.106437 2.99711 0
M  V30 10838 H 984.924 0.0929408 1.56023 0
M  V30 10839 H 985.659 -2.34999 2.23486 0
M  V30 10840 H 985.444 -1.33161 3.68796 0
M  V30 10841 H 986.934 -2.30077 3.48503 0
M  V30 10842 N 987.371 -1.57444 0.0701946 0
M  V30 10843 C 988.599 -1.97754 -0.608358 0
M  V30 10844 C 989.014 -0.948496 -1.63245 0
M  V30 10845 O 988.371 0.065046 -1.82384 0
M  V30 10846 C 988.422 -3.38142 -1.27836 0
M  V30 10847 O 988.143 -4.37104 -0.295255 0
M  V30 10848 C 989.644 -3.93318 -2.04489 0
M  V30 10849 H 986.864 -0.650398 -0.164997 0
M  V30 10850 H 989.408 -2.04006 0.142124 0
M  V30 10851 H 987.563 -3.32982 -1.97994 0
M  V30 10852 H 987.977 -5.18732 -0.77574 0
M  V30 10853 H 989.451 -4.93774 -2.46762 0
M  V30 10854 H 989.928 -3.29774 -2.90079 0
M  V30 10855 H 990.534 -4.01875 -1.39201 0
M  V30 10856 N 988.849 0.203349 -1.56283 0
M  V30 10857 C 990.126 0.950415 -1.70958 0
M  V30 10858 C 990.506 2.01708 -0.622647 0
M  V30 10859 O 989.854 2.25523 0.367635 0
M  V30 10860 C 990.064 1.54434 -3.12971 0
M  V30 10861 C 991.412 2.02964 -3.72949 0
M  V30 10862 O 992.436 1.64293 -3.16048 0
M  V30 10863 O 991.295 2.74097 -4.72793 0
M  V30 10864 H 988.389 0.445154 -0.69697 0
M  V30 10865 H 990.935 0.193695 -1.68591 0
M  V30 10866 H 989.707 0.77505 -3.83547 0
M  V30 10867 H 989.33 2.36611 -3.19532 0
M  V30 10868 N 990.327 1.50405 0.470755 0
M  V30 10869 C 991.257 1.72222 1.57676 0
M  V30 10870 C 992.238 0.57121 1.60222 0
M  V30 10871 O 993.423 0.810381 1.76484 0
M  V30 10872 C 990.553 1.81666 2.95998 0
M  V30 10873 C 989.507 2.96857 3.08318 0
M  V30 10874 C 988.833 2.91445 4.4829 0
M  V30 10875 C 990.133 4.37361 2.85504 0
M  V30 10876 H 991.827 2.64825 1.39671 0
M  V30 10877 H 989.373 1.27438 0.67049 0
M  V30 10878 H 991.326 1.95514 3.73299 0
M  V30 10879 H 990.05 0.856856 3.1516 0
M  V30 10880 H 988.709 2.82661 2.33449 0
M  V30 10881 H 988.357 1.93309 4.64371 0
M  V30 10882 H 988.057 3.68776 4.57469 0
M  V30 10883 H 989.581 3.07341 5.27611 0
M  V30 10884 H 990.995 4.52081 3.52555 0
M  V30 10885 H 989.392 5.16145 3.06127 0
M  V30 10886 H 990.462 4.49708 1.81359 0
M  V30 10887 N 991.805 -0.723954 1.39988 0
M  V30 10888 C 992.768 -1.81973 1.3935 0
M  V30 10889 C 993.768 -1.58187 0.288702 0
M  V30 10890 O 994.958 -1.65383 0.547181 0
M  V30 10891 C 992.09 -3.19937 1.177 0
M  V30 10892 H 993.283 -1.83939 2.36868 0
M  V30 10893 H 990.836 -0.928742 1.25714 0
M  V30 10894 H 991.571 -3.23625 0.209093 0
M  V30 10895 H 991.356 -3.386 1.97719 0
M  V30 10896 H 992.846 -3.99981 1.20022 0
M  V30 10897 N 993.283 -1.25346 -0.955304 0
M  V30 10898 C 994.213 -1.08152 -2.06943 0
M  V30 10899 C 995.194 0.00922598 -1.70097 0
M  V30 10900 O 996.379 -0.160181 -1.93538 0
M  V30 10901 C 993.509 -0.698745 -3.40198 0
M  V30 10902 C 992.463 -1.73965 -3.9105 0
M  V30 10903 C 991.789 -1.21158 -5.20792 0
M  V30 10904 C 993.089 -3.13829 -4.17503 0
M  V30 10905 H 994.783 -2.01345 -2.21586 0
M  V30 10906 H 992.329 -0.969459 -1.06478 0
M  V30 10907 H 994.282 -0.565394 -4.1759 0
M  V30 10908 H 993.006 0.268892 -3.25491 0
M  V30 10909 H 991.665 -1.86143 -3.15827 0
M  V30 10910 H 991.313 -0.234193 -5.02455 0
M  V30 10911 H 991.013 -1.90728 -5.55785 0
M  V30 10912 H 992.537 -1.09061 -6.00781 0
M  V30 10913 H 993.951 -3.04809 -4.85556 0
M  V30 10914 H 992.348 -3.80863 -4.63749 0
M  V30 10915 H 993.418 -3.6094 -3.23806 0
M  V30 10916 N 994.761 1.15782 -1.06922 0
M  V30 10917 C 995.991 1.90079 -0.809545 0
M  V30 10918 C 996.399 1.78028 0.640523 0
M  V30 10919 O 995.742 1.12692 1.45073 0
M  V30 10920 C 995.804 3.41179 -1.13302 0
M  V30 10921 C 995.468 3.77015 -2.5828 0
M  V30 10922 C 996.465 3.78403 -3.56521 0
M  V30 10923 C 994.15 4.07455 -2.93745 0
M  V30 10924 C 996.144 4.09729 -4.88264 0
M  V30 10925 C 993.831 4.38446 -4.25686 0
M  V30 10926 C 994.829 4.39564 -5.22755 0
M  V30 10927 O 994.517 4.69814 -6.52326 0
M  V30 10928 H 994.249 0.609397 -0.292595 0
M  V30 10929 H 996.803 1.47654 -1.42784 0
M  V30 10930 H 995.033 3.83982 -0.457676 0
M  V30 10931 H 996.722 3.96759 -0.856586 0
M  V30 10932 H 997.488 3.54991 -3.30464 0
M  V30 10933 H 993.367 4.05746 -2.1884 0
M  V30 10934 H 996.911 4.10516 -5.64023 0
M  V30 10935 H 992.808 4.61325 -4.51497 0
M  V30 10936 H 993.576 4.87598 -6.57412 0
M  V30 10937 N 996.239 0.8527 1.3254 0
M  V30 10938 C 997.486 0.455123 1.97319 0
M  V30 10939 C 997.814 -0.988814 1.67489 0
M  V30 10940 O 997.069 -1.70845 0.954483 0
M  V30 10941 C 997.368 0.638757 3.51646 0
M  V30 10942 C 997.034 2.05287 4.01458 0
M  V30 10943 C 995.696 2.43963 4.14771 0
M  V30 10944 C 998.048 2.9759 4.27889 0
M  V30 10945 C 995.376 3.7422 4.51859 0
M  V30 10946 C 997.728 4.27343 4.66434 0
M  V30 10947 C 996.392 4.65957 4.77954 0
M  V30 10948 H 995.662 0.166541 0.722042 0
M  V30 10949 H 998.309 1.08238 1.57977 0
M  V30 10950 H 996.614 -0.0717394 3.91734 0
M  V30 10951 H 998.311 0.311219 3.9979 0
M  V30 10952 H 994.901 1.74253 3.91579 0
M  V30 10953 H 999.085 2.68942 4.17114 0
M  V30 10954 H 994.341 4.03923 4.58973 0
M  V30 10955 H 998.515 4.9893 4.85841 0
M  V30 10956 H 996.142 5.66934 5.06449 0
M  V30 10957 N 997.718 -1.45297 0.610449 0
M  V30 10958 C 998.665 -2.30553 -0.106718 0
M  V30 10959 C 999.635 -1.42272 -0.85719 0
M  V30 10960 O 1000.82 -1.71199 -0.842357 0
M  V30 10961 C 997.96 -3.27226 -1.09623 0
M  V30 10962 C 997.073 -4.3061 -0.346329 0
M  V30 10963 C 996.208 -5.14389 -1.32581 0
M  V30 10964 C 995.247 -6.09497 -0.563892 0
M  V30 10965 N 994.384 -6.86047 -1.4928 0
M  V30 10966 H 999.224 -2.91344 0.626296 0
M  V30 10967 H 996.761 -1.43563 0.32065 0
M  V30 10968 H 998.719 -3.81744 -1.68308 0
M  V30 10969 H 997.349 -2.68182 -1.79662 0
M  V30 10970 H 996.401 -3.7873 0.356084 0
M  V30 10971 H 997.713 -4.98183 0.248026 0
M  V30 10972 H 996.867 -5.73321 -1.98464 0
M  V30 10973 H 995.606 -4.4684 -1.9541 0
M  V30 10974 H 994.611 -5.49693 0.108551 0
M  V30 10975 H 995.836 -6.79074 0.0593872 0
M  V30 10976 H 993.782 -6.21185 -2.10868 0
M  V30 10977 H 993.699 -7.49983 -0.951953 0
M  V30 10978 H 994.967 -7.49518 -2.14112 0
M  V30 10979 N 999.196 -0.349774 -1.5367 0
M  V30 10980 C 1000.14 0.504121 -2.25227 0
M  V30 10981 C 1001.11 1.09048 -1.2529 0
M  V30 10982 O 1002.3 1.12594 -1.54037 0
M  V30 10983 C 999.438 1.64601 -3.03316 0
M  V30 10984 C 998.551 1.08635 -4.18118 0
M  V30 10985 C 997.686 2.19605 -4.83681 0
M  V30 10986 C 996.725 1.61023 -5.90541 0
M  V30 10987 N 995.862 2.6576 -6.49858 0
M  V30 10988 H 1000.7 -0.112621 -2.97787 0
M  V30 10989 H 998.239 -0.0673503 -1.46946 0
M  V30 10990 H 1000.2 2.31836 -3.46854 0
M  V30 10991 H 998.827 2.23364 -2.33041 0
M  V30 10992 H 997.879 0.304748 -3.79177 0
M  V30 10993 H 999.191 0.617911 -4.94958 0
M  V30 10994 H 998.345 2.94693 -5.30322 0
M  V30 10995 H 997.084 2.69795 -4.06278 0
M  V30 10996 H 996.089 0.844428 -5.43277 0
M  V30 10997 H 997.314 1.11677 -6.69855 0
M  V30 10998 H 995.26 3.15193 -5.75317 0
M  V30 10999 H 995.177 2.23557 -7.2219 0
M  V30 11000 H 996.445 3.40598 -7.01151 0
M  V30 11001 N 1000.67 1.57404 -0.0785433 0
M  V30 11002 C 1002.09 1.57158 0.2781 0
M  V30 11003 C 1002.29 1.08847 1.69572 0
M  V30 11004 O 1001.35 0.757407 2.40873 0
M  V30 11005 C 1002.66 3.00589 0.0816067 0
M  V30 11006 C 1004.21 3.12637 0.150627 0
M  V30 11007 C 1004.68 4.57997 -0.0176685 0
M  V30 11008 N 1006.17 4.63185 0.0377145 0
M  V30 11009 C 1006.91 5.7336 -0.0679907 0
M  V30 11010 N 1006.4 6.92426 -0.227598 0
M  V30 11011 N 1008.2 5.62099 -0.0104424 0
M  V30 11012 H 1000.35 1.87121 -1.00496 0
M  V30 11013 H 1002.61 0.862937 -0.392484 0
M  V30 11014 H 1002.32 3.40072 -0.896869 0
M  V30 11015 H 1002.19 3.67931 0.831046 0
M  V30 11016 H 1004.58 2.73037 1.11959 0
M  V30 11017 H 1004.66 2.4792 -0.630028 0
M  V30 11018 H 1004.3 4.98288 -0.983431 0
M  V30 11019 H 1004.23 5.20754 0.782475 0
M  V30 11020 H 1006.72 3.77564 0.159208 0
M  V30 11021 H 1007.04 7.72217 -0.300217 0
M  V30 11022 H 1005.38 6.94502 -0.263049 0
M  V30 11023 H 1008.57 4.67964 0.112999 0
M  V30 11024 H 1008.75 6.47928 -0.0962747 0
M  V30 11025 N 1002.15 -0.195058 1.56388 0
M  V30 11026 C 1003.38 -0.931642 1.84738 0
M  V30 11027 C 1003.79 -1.76849 0.661046 0
M  V30 11028 O 1003.15 -1.78705 -0.370241 0
M  V30 11029 C 1003.2 -1.82777 3.11889 0
M  V30 11030 O 1002.92 -1.02471 4.25948 0
M  V30 11031 C 1004.42 -2.67603 3.53417 0
M  V30 11032 H 1001.64 -0.271821 0.613477 0
M  V30 11033 H 1004.19 -0.202299 2.03497 0
M  V30 11034 H 1002.34 -2.51074 2.95027 0
M  V30 11035 H 1002.76 -1.63539 4.98353 0
M  V30 11036 H 1004.23 -3.26138 4.45352 0
M  V30 11037 H 1004.71 -3.41314 2.76408 0
M  V30 11038 H 1005.31 -2.04678 3.7281 0
M  V30 11039 N 1003.63 -1.50653 -0.462772 0
M  V30 11040 C 1004.56 -1.64773 -1.57877 0
M  V30 11041 C 1005.54 -0.495664 -1.54861 0
M  V30 11042 O 1006.72 -0.716248 -1.74362 0
M  V30 11043 C 1003.85 -1.63796 -2.9646 0
M  V30 11044 C 1002.9 -2.84663 -3.17599 0
M  V30 11045 S 1003.73 -4.45852 -2.96608 0
M  V30 11046 C 1004.89 -4.47581 -4.37518 0
M  V30 11047 H 1005.12 -2.59172 -1.45661 0
M  V30 11048 H 1002.65 -1.40019 -0.650699 0
M  V30 11049 H 1004.61 -1.63918 -3.76353 0
M  V30 11050 H 1003.27 -0.706185 -3.06059 0
M  V30 11051 H 1002.46 -2.80308 -4.1886 0
M  V30 11052 H 1002.07 -2.82152 -2.45492 0
M  V30 11053 H 1004.36 -4.21656 -5.30295 0
M  V30 11054 H 1005.3 -5.49248 -4.46914 0
M  V30 11055 H 1005.71 -3.7719 -4.19985 0
M  V30 11056 N 1005.11 0.71652 -1.4037 0
M  V30 11057 C 1006.36 1.47638 -1.38597 0
M  V30 11058 C 1006.68 1.94496 0.0120141 0
M  V30 11059 O 1005.94 1.68437 0.996373 0
M  V30 11060 C 1006.24 2.71777 -2.32103 0
M  V30 11061 C 1005.9 2.43689 -3.79376 0
M  V30 11062 C 1004.57 2.35739 -4.195 0
M  V30 11063 C 1006.92 2.20099 -4.72447 0
M  V30 11064 C 1004.25 2.02265 -5.50732 0
M  V30 11065 C 1006.6 1.88138 -6.03976 0
M  V30 11066 C 1005.26 1.78669 -6.43143 0
M  V30 11067 H 1004.53 0.540246 -0.507163 0
M  V30 11068 H 1007.18 0.820822 -1.73017 0
M  V30 11069 H 1005.48 3.42166 -1.90865 0
M  V30 11070 H 1007.18 3.29864 -2.28015 0
M  V30 11071 H 1003.77 2.50763 -3.47585 0
M  V30 11072 H 1007.95 2.25198 -4.42266 0
M  V30 11073 H 1003.21 1.93471 -5.79982 0
M  V30 11074 H 1007.38 1.68898 -6.75608 0
M  V30 11075 H 1005.01 1.52498 -7.44747 0
M  V30 11076 N 1006.59 1.25851 0.948643 0
M  V30 11077 C 1007.52 1.02549 2.04979 0
M  V30 11078 C 1008.53 -0.0115923 1.62796 0
M  V30 11079 O 1009.72 0.227643 1.77042 0
M  V30 11080 C 1006.82 0.529486 3.34738 0
M  V30 11081 C 1005.99 1.6341 4.05729 0
M  V30 11082 C 1005.05 1.13743 5.1376 0
M  V30 11083 O 1004.08 1.83303 5.38877 0
M  V30 11084 N 1005.28 -0.0181151 5.80497 0
M  V30 11085 H 1008.05 1.97365 2.25537 0
M  V30 11086 H 1005.61 1.17137 1.11761 0
M  V30 11087 H 1007.6 0.181566 4.04293 0
M  V30 11088 H 1006.17 -0.324893 3.10907 0
M  V30 11089 H 1005.39 2.15331 3.30191 0
M  V30 11090 H 1006.68 2.37603 4.49914 0
M  V30 11091 H 1006.07 -0.599198 5.62518 0
M  V30 11092 H 1004.63 -0.307019 6.51077 0
M  V30 11093 N 1008.06 -1.15214 1.07534 0
M  V30 11094 C 1009.01 -2.20013 0.697337 0
M  V30 11095 C 1009.98 -1.6314 -0.312168 0
M  V30 11096 O 1011.17 -1.89768 -0.198196 0
M  V30 11097 C 1008.31 -3.44945 0.103293 0
M  V30 11098 C 1007.42 -4.16009 1.1645 0
M  V30 11099 C 1006.55 -5.28496 0.535261 0
M  V30 11100 C 1005.59 -5.9138 1.57912 0
M  V30 11101 N 1004.73 -6.95335 0.972332 0
M  V30 11102 H 1009.57 -2.51698 1.59538 0
M  V30 11103 H 1007.11 -1.2361 0.797431 0
M  V30 11104 H 1009.07 -4.16397 -0.258766 0
M  V30 11105 H 1007.7 -3.13772 -0.758096 0
M  V30 11106 H 1006.75 -3.43035 1.64411 0
M  V30 11107 H 1008.06 -4.58853 1.9559 0
M  V30 11108 H 1007.21 -6.06579 0.120942 0
M  V30 11109 H 1005.95 -4.8685 -0.287889 0
M  V30 11110 H 1004.96 -5.12008 2.0032 0
M  V30 11111 H 1006.18 -6.35103 2.40459 0
M  V30 11112 H 1004.13 -6.55779 0.170119 0
M  V30 11113 H 1004.05 -7.36616 1.70095 0
M  V30 11114 H 1005.31 -7.77312 0.583577 0
M  V30 11115 N 1009.54 -0.859717 -1.32086 0
M  V30 11116 C 1010.79 -0.461779 -1.96343 0
M  V30 11117 C 1011.1 0.988837 -1.68764 0
M  V30 11118 O 1012.31 1.49244 -2.268 0
M  V30 11119 C 1010.77 -0.77484 -3.5146 0
M  V30 11120 C 1010.37 -2.24153 -3.87891 0
M  V30 11121 C 1012.12 -0.444873 -4.22162 0
M  V30 11122 C 1010.03 -2.49754 -5.36075 0
M  V30 11123 H 1008.96 -0.168951 -0.734828 0
M  V30 11124 H 1011.61 -1.0512 -1.50406 0
M  V30 11125 H 1009.99 -0.114792 -3.95834 0
M  V30 11126 H 1011.16 -2.94378 -3.54511 0
M  V30 11127 H 1009.48 -2.53651 -3.30227 0
M  V30 11128 H 1012.07 -0.613508 -5.31169 0
M  V30 11129 H 1012.42 0.61391 -4.11749 0
M  V30 11130 H 1012.95 -1.06103 -3.83389 0
M  V30 11131 H 1009.69 -3.54276 -5.51515 0
M  V30 11132 H 1009.21 -1.84112 -5.70844 0
M  V30 11133 H 1010.89 -2.3396 -6.03218 0
M  V30 11134 N 1011.02 1.44971 -0.618145 0
M  V30 11135 C 1012.27 2.02458 -0.117656 0
M  V30 11136 C 1012.6 1.48413 1.25248 0
M  V30 11137 O 1011.87 0.662997 1.82851 0
M  V30 11138 C 1012.16 3.59987 -0.0901897 0
M  V30 11139 C 1012.01 4.24343 -1.49175 0
M  V30 11140 C 1013.33 4.36099 0.592121 0
M  V30 11141 H 1010.45 0.735672 -0.0442291 0
M  V30 11142 H 1013.09 1.727 -0.792138 0
M  V30 11143 H 1011.24 3.85471 0.484175 0
M  V30 11144 H 1012.91 4.10009 -2.114 0
M  V30 11145 H 1011.16 3.82337 -2.04941 0
M  V30 11146 H 1011.83 5.33298 -1.42468 0
M  V30 11147 H 1014.3 4.1597 0.103813 0
M  V30 11148 H 1013.18 5.45822 0.580481 0
M  V30 11149 H 1013.44 4.09746 1.66015 0
M  V30 11150 N 1012.5 0.357919 1.53482 0
M  V30 11151 C 1013.78 -0.290164 1.93436 0
M  V30 11152 C 1014.16 -1.67039 1.29079 0
M  V30 11153 O 1013.5 -2.24085 0.447017 0
M  V30 11154 C 1013.71 -0.348055 3.4726 0
M  V30 11155 C 1015.06 -0.59206 4.20452 0
M  V30 11156 O 1016.09 -0.429581 3.536 0
M  V30 11157 O 1014.94 -0.907855 5.38907 0
M  V30 11158 H 1012.04 -0.172312 0.80885 0
M  V30 11159 H 1014.58 0.410144 1.64669 0
M  V30 11160 H 1013.36 0.619953 3.86358 0
M  V30 11161 H 1012.98 -1.09457 3.82237 0
M  V30 11162 N 1013.98 -1.5736 0.0868897 0
M  V30 11163 C 1014.91 -2.10582 -0.904858 0
M  V30 11164 C 1015.92 -1.04124 -1.25148 0
M  V30 11165 O 1017.11 -1.31595 -1.20603 0
M  V30 11166 C 1014.21 -2.56381 -2.21635 0
M  V30 11167 C 1013.38 -3.86581 -2.04631 0
M  V30 11168 C 1012.44 -4.18313 -3.19219 0
M  V30 11169 O 1011.47 -4.87669 -2.93544 0
M  V30 11170 N 1012.67 -3.73061 -4.44754 0
M  V30 11171 H 1015.44 -2.96297 -0.450352 0
M  V30 11172 H 1013 -1.616 -0.0984376 0
M  V30 11173 H 1014.99 -2.7466 -2.97227 0
M  V30 11174 H 1013.56 -1.75721 -2.58536 0
M  V30 11175 H 1012.78 -3.77532 -1.13417 0
M  V30 11176 H 1014.07 -4.71777 -1.90537 0
M  V30 11177 H 1013.46 -3.1706 -4.68497 0
M  V30 11178 H 1012.02 -3.96511 -5.17322 0
M  V30 11179 N 1015.45 0.186762 -1.56489 0
M  V30 11180 C 1016.68 0.925916 -1.85584 0
M  V30 11181 C 1017.1 1.75708 -0.671446 0
M  V30 11182 O 1016.46 1.7728 0.379687 0
M  V30 11183 C 1016.51 1.79107 -3.12975 0
M  V30 11184 O 1015.61 2.89088 -2.94112 0
M  V30 11185 H 1014.96 0.260275 -0.610863 0
M  V30 11186 H 1017.49 0.189561 -2.0372 0
M  V30 11187 H 1017.5 2.19408 -3.43983 0
M  V30 11188 H 1016.17 1.18044 -3.98796 0
M  V30 11189 H 1014.75 2.52482 -2.74422 0
M  V30 11190 N 1016.93 1.50896 0.454776 0
M  V30 11191 C 1017.88 1.70947 1.55067 0
M  V30 11192 C 1018.85 0.550899 1.56698 0
M  V30 11193 O 1020.03 0.783352 1.73978 0
M  V30 11194 C 1017.17 1.82455 2.92924 0
M  V30 11195 C 1016.29 3.09919 3.00956 0
M  V30 11196 C 1015.42 3.12125 4.29827 0
M  V30 11197 C 1014.46 4.33975 4.31662 0
M  V30 11198 N 1013.6 4.33828 5.5203 0
M  V30 11199 H 1018.44 2.645 1.37273 0
M  V30 11200 H 1015.98 1.31101 0.667148 0
M  V30 11201 H 1017.93 1.87108 3.72889 0
M  V30 11202 H 1016.56 0.92327 3.09315 0
M  V30 11203 H 1015.62 3.14659 2.13761 0
M  V30 11204 H 1016.93 3.99869 2.98172 0
M  V30 11205 H 1016.08 3.15598 5.18154 0
M  V30 11206 H 1014.82 2.20033 4.35243 0
M  V30 11207 H 1013.83 4.30697 3.41731 0
M  V30 11208 H 1015.05 5.27312 4.27924 0
M  V30 11209 H 1013 3.44598 5.58201 0
M  V30 11210 H 1012.91 5.17566 5.51055 0
M  V30 11211 H 1014.18 4.4147 6.42437 0
M  V30 11212 N 1018.41 -0.709066 1.40748 0
M  V30 11213 C 1019.64 -1.49808 1.42707 0
M  V30 11214 C 1020.05 -1.88778 0.0285574 0
M  V30 11215 O 1019.41 -1.55883 -0.949035 0
M  V30 11216 C 1019.46 -2.76926 2.32366 0
M  V30 11217 O 1019.18 -2.39602 3.66773 0
M  V30 11218 C 1020.68 -3.70773 2.42986 0
M  V30 11219 H 1017.9 -0.462106 0.486517 0
M  V30 11220 H 1020.45 -0.874135 1.84876 0
M  V30 11221 H 1018.6 -3.3559 1.93541 0
M  V30 11222 H 1019.02 -3.21443 4.14457 0
M  V30 11223 H 1020.49 -4.56789 3.09916 0
M  V30 11224 H 1020.97 -4.14332 1.45691 0
M  V30 11225 H 1021.57 -3.18019 2.8239 0
M  V30 11226 N 1019.89 -1.26353 -0.941956 0
M  V30 11227 C 1021.12 -1.1446 -1.71996 0
M  V30 11228 C 1021.53 0.302957 -1.86759 0
M  V30 11229 O 1020.87 1.2193 -1.374 0
M  V30 11230 C 1020.93 -1.73986 -3.14593 0
M  V30 11231 C 1020.6 -3.23078 -3.23217 0
M  V30 11232 C 1021.59 -4.19905 -3.06554 0
M  V30 11233 C 1019.28 -3.63526 -3.46632 0
M  V30 11234 C 1021.27 -5.55159 -3.13172 0
M  V30 11235 C 1018.96 -4.98914 -3.52886 0
M  V30 11236 C 1019.96 -5.9454 -3.36172 0
M  V30 11237 O 1019.65 -7.27462 -3.42132 0
M  V30 11238 H 1019.38 -0.399453 -0.545356 0
M  V30 11239 H 1021.93 -1.67455 -1.18945 0
M  V30 11240 H 1020.16 -1.15453 -3.69063 0
M  V30 11241 H 1021.85 -1.57011 -3.74302 0
M  V30 11242 H 1022.62 -3.89995 -2.88321 0
M  V30 11243 H 1018.5 -2.8958 -3.58698 0
M  V30 11244 H 1022.04 -6.29777 -3.00044 0
M  V30 11245 H 1017.94 -5.28485 -3.70639 0
M  V30 11246 H 1018.7 -7.35725 -3.5868 0
M  V30 11247 N 1021.37 1.14642 -1.08144 0
M  V30 11248 C 1022.28 2.23257 -0.720668 0
M  V30 11249 C 1023.29 1.71866 0.271648 0
M  V30 11250 O 1024.47 2.01064 0.116266 0
M  V30 11251 C 1021.53 3.46447 -0.132542 0
M  V30 11252 C 1020.6 4.12789 -1.17913 0
M  V30 11253 C 1019.83 5.30099 -0.618971 0
M  V30 11254 O 1020.05 5.6762 0.562418 0
M  V30 11255 O 1018.99 5.86154 -1.36774 0
M  V30 11256 H 1022.81 2.56463 -1.62667 0
M  V30 11257 H 1020.4 1.22521 -0.854932 0
M  V30 11258 H 1022.28 4.20959 0.19277 0
M  V30 11259 H 1020.95 3.14971 0.746662 0
M  V30 11260 H 1019.86 3.40163 -1.55693 0
M  V30 11261 H 1021.19 4.48365 -2.03051 0
M  V30 11262 N 1022.85 0.866709 1.31628 0
M  V30 11263 C 1024.07 0.48956 2.01539 0
M  V30 11264 C 1024.5 -0.909556 1.64647 0
M  V30 11265 O 1023.85 -1.59959 0.853391 0
M  V30 11266 C 1023.9 0.650176 3.5469 0
M  V30 11267 O 1023.01 -0.311908 4.11219 0
M  V30 11268 H 1022.35 0.195144 0.634677 0
M  V30 11269 H 1024.88 1.16923 1.679 0
M  V30 11270 H 1024.89 0.542236 4.04381 0
M  V30 11271 H 1023.56 1.67038 3.80882 0
M  V30 11272 H 1022.14 -0.159197 3.7256 0
M  V30 11273 N 1024.32 -1.44642 0.625825 0
M  V30 11274 C 1025.23 -2.34451 -0.0836134 0
M  V30 11275 C 1026.25 -1.5231 -0.841289 0
M  V30 11276 O 1027.43 -1.85056 -0.794754 0
M  V30 11277 C 1024.49 -3.30211 -1.05648 0
M  V30 11278 C 1023.55 -4.28259 -0.298759 0
M  V30 11279 C 1022.78 -5.19444 -1.22528 0
M  V30 11280 O 1023.01 -5.14444 -2.46382 0
M  V30 11281 O 1021.94 -5.97668 -0.71247 0
M  V30 11282 H 1025.77 -2.96555 0.654912 0
M  V30 11283 H 1023.35 -1.44327 0.386029 0
M  V30 11284 H 1025.23 -3.8917 -1.61632 0
M  V30 11285 H 1023.91 -2.70648 -1.77571 0
M  V30 11286 H 1022.82 -3.72863 0.304001 0
M  V30 11287 H 1024.15 -4.90728 0.380345 0
M  V30 11288 N 1025.8 -0.366053 -1.5329 0
M  V30 11289 C 1026.73 0.514916 -2.23341 0
M  V30 11290 C 1027.75 1.04579 -1.24768 0
M  V30 11291 O 1028.94 0.952084 -1.50989 0
M  V30 11292 C 1026.04 1.72374 -2.91788 0
M  V30 11293 C 1025.21 1.32429 -4.16871 0
M  V30 11294 C 1024.27 2.39524 -4.68524 0
M  V30 11295 O 1023.29 2.01895 -5.32191 0
M  V30 11296 N 1024.5 3.71116 -4.46378 0
M  V30 11297 H 1027.26 -0.0851272 -2.99579 0
M  V30 11298 H 1024.82 -0.191255 -1.60766 0
M  V30 11299 H 1026.81 2.43496 -3.23252 0
M  V30 11300 H 1025.38 2.23064 -2.19 0
M  V30 11301 H 1024.6 0.442901 -3.91704 0
M  V30 11302 H 1025.89 1.03372 -4.98188 0
M  V30 11303 H 1025.29 4.04463 -3.95508 0
M  V30 11304 H 1023.85 4.38341 -4.82391 0
M  V30 11305 N 1027.28 1.57312 -0.0952337 0
M  V30 11306 C 1028.19 2.17556 0.877877 0
M  V30 11307 C 1029.21 1.14505 1.31014 0
M  V30 11308 O 1030.38 1.46876 1.37802 0
M  V30 11309 C 1027.45 2.74413 2.11892 0
M  V30 11310 C 1026.51 3.92419 1.74085 0
M  V30 11311 C 1025.74 4.46556 2.92273 0
M  V30 11312 O 1025.96 3.99631 4.07002 0
M  V30 11313 O 1024.9 5.37576 2.70732 0
M  V30 11314 H 1028.72 3.01116 0.395312 0
M  V30 11315 H 1026.31 1.48841 0.129123 0
M  V30 11316 H 1028.19 3.10754 2.84622 0
M  V30 11317 H 1026.87 1.93899 2.59201 0
M  V30 11318 H 1025.77 3.6089 0.985346 0
M  V30 11319 H 1027.11 4.74298 1.31539 0
M  V30 11320 N 1028.76 -0.17846 1.56586 0
M  V30 11321 C 1030 -0.892915 1.82753 0
M  V30 11322 C 1030.36 -1.8018 0.674744 0
M  V30 11323 O 1029.65 -1.8875 -0.329219 0
M  V30 11324 C 1029.85 -1.73063 3.12704 0
M  V30 11325 C 1029.67 -0.904341 4.40513 0
M  V30 11326 C 1028.44 -0.582221 5.01935 0
M  V30 11327 C 1030.64 -0.249232 5.13696 0
M  V30 11328 N 1028.62 0.260955 6.13345 0
M  V30 11329 C 1030 0.455417 6.18325 0
M  V30 11330 C 1032.05 -0.166663 4.97621 0
M  V30 11331 C 1030.75 1.23479 7.08622 0
M  V30 11332 C 1032.78 0.599362 5.88355 0
M  V30 11333 C 1032.14 1.2924 6.92442 0
M  V30 11334 H 1028.24 -0.30559 0.719818 0
M  V30 11335 H 1030.82 -0.160405 1.94038 0
M  V30 11336 H 1029 -2.43461 3.02624 0
M  V30 11337 H 1030.73 -2.38584 3.26894 0
M  V30 11338 H 1027.48 -0.910612 4.64763 0
M  V30 11339 H 1027.91 0.672643 6.7365 0
M  V30 11340 H 1032.55 -0.688116 4.17163 0
M  V30 11341 H 1030.27 1.76762 7.88531 0
M  V30 11342 H 1033.85 0.664826 5.77989 0
M  V30 11343 H 1032.73 1.87564 7.61439 0
M  V30 11344 N 1030.24 -1.51135 -0.446768 0
M  V30 11345 C 1031.46 -1.67129 -1.21965 0
M  V30 11346 C 1031.88 -0.36467 -1.85245 0
M  V30 11347 O 1031.24 0.655908 -1.70306 0
M  V30 11348 C 1031.29 -2.78016 -2.31061 0
M  V30 11349 O 1031.01 -4.03615 -1.70371 0
M  V30 11350 C 1032.51 -3.05197 -3.21511 0
M  V30 11351 H 1029.73 -0.561111 -0.367961 0
M  V30 11352 H 1032.27 -1.97499 -0.530517 0
M  V30 11353 H 1030.43 -2.50272 -2.95707 0
M  V30 11354 H 1030.84 -4.65126 -2.424 0
M  V30 11355 H 1032.32 -3.8639 -3.94216 0
M  V30 11356 H 1032.79 -2.17228 -3.81718 0
M  V30 11357 H 1033.4 -3.34565 -2.62577 0
M  V30 11358 N 1031.71 0.701592 -1.41122 0
M  V30 11359 C 1032.65 1.8268 -1.38422 0
M  V30 11360 C 1033.66 1.60244 -0.287342 0
M  V30 11361 O 1034.85 1.69859 -0.548658 0
M  V30 11362 C 1031.95 3.19338 -1.13475 0
M  V30 11363 C 1031.12 3.68853 -2.35088 0
M  V30 11364 C 1030.18 4.84163 -2.06089 0
M  V30 11365 O 1029.21 4.9609 -2.79077 0
M  V30 11366 N 1030.41 5.70972 -1.04743 0
M  V30 11367 H 1033.17 1.8549 -2.35401 0
M  V30 11368 H 1030.73 0.883682 -1.35656 0
M  V30 11369 H 1032.73 3.94095 -0.920377 0
M  V30 11370 H 1031.3 3.11589 -0.251152 0
M  V30 11371 H 1030.52 2.8507 -2.72266 0
M  V30 11372 H 1031.8 3.98673 -3.16129 0
M  V30 11373 H 1031.2 5.63961 -0.443221 0
M  V30 11374 H 1029.76 6.45654 -0.892949 0
M  V30 11375 N 1033.19 1.2685 0.935242 0
M  V30 11376 C 1034.42 1.15371 1.71386 0
M  V30 11377 C 1034.83 -0.293048 1.86917 0
M  V30 11378 O 1034.17 -1.212 1.38044 0
M  V30 11379 C 1034.23 1.75652 3.13666 0
M  V30 11380 C 1033.9 3.24788 3.215 0
M  V30 11381 C 1034.9 4.21525 3.04323 0
M  V30 11382 C 1032.58 3.65359 3.447 0
M  V30 11383 C 1034.57 5.56812 3.10224 0
M  V30 11384 C 1032.26 5.00778 3.50235 0
M  V30 11385 C 1033.26 5.96314 3.33014 0
M  V30 11386 O 1032.95 7.29266 3.38269 0
M  V30 11387 H 1032.68 0.40234 0.54323 0
M  V30 11388 H 1035.23 1.68083 1.18056 0
M  V30 11389 H 1033.46 1.17408 3.68446 0
M  V30 11390 H 1035.15 1.58994 3.73465 0
M  V30 11391 H 1035.92 3.91519 2.86249 0
M  V30 11392 H 1031.8 2.91479 3.57157 0
M  V30 11393 H 1035.34 6.3136 2.967 0
M  V30 11394 H 1031.24 5.30444 3.67831 0
M  V30 11395 H 1032.01 7.37616 3.54774 0
M  V30 11396 N 1034.67 -1.14067 1.0875 0
M  V30 11397 C 1035.6 -2.18306 0.664652 0
M  V30 11398 C 1036.58 -1.59312 -0.325359 0
M  V30 11399 O 1037.77 -1.87111 -0.228385 0
M  V30 11400 C 1034.89 -3.38693 -0.0218723 0
M  V30 11401 C 1033.94 -4.16263 0.928844 0
M  V30 11402 S 1034.77 -4.76817 2.43734 0
M  V30 11403 C 1035.93 -6.00557 1.76302 0
M  V30 11404 H 1036.16 -2.53837 1.54772 0
M  V30 11405 H 1033.69 -1.25254 0.902817 0
M  V30 11406 H 1035.65 -4.0843 -0.411686 0
M  V30 11407 H 1034.31 -3.01478 -0.881481 0
M  V30 11408 H 1033.51 -5.02446 0.395446 0
M  V30 11409 H 1033.11 -3.52146 1.25972 0
M  V30 11410 H 1035.4 -6.68788 1.08301 0
M  V30 11411 H 1036.34 -6.58492 2.60373 0
M  V30 11412 H 1036.75 -5.50827 1.23489 0
M  V30 11413 N 1036.15 -0.873678 -1.31166 0
M  V30 11414 C 1037.08 -0.276805 -2.26515 0
M  V30 11415 C 1038.06 0.596166 -1.51277 0
M  V30 11416 O 1039.24 0.548769 -1.80335 0
M  V30 11417 C 1036.37 0.607711 -3.33203 0
M  V30 11418 C 1035.42 -0.194411 -4.26057 0
M  V30 11419 S 1036.25 -1.57534 -5.11804 0
M  V30 11420 C 1037.41 -0.697047 -6.22006 0
M  V30 11421 H 1037.64 -1.08505 -2.76792 0
M  V30 11422 H 1035.17 -0.672419 -1.38989 0
M  V30 11423 H 1037.13 1.11234 -3.95142 0
M  V30 11424 H 1035.79 1.38994 -2.81673 0
M  V30 11425 H 1034.98 0.480094 -5.01708 0
M  V30 11426 H 1034.59 -0.631262 -3.68634 0
M  V30 11427 H 1036.88 0.0907919 -6.77439 0
M  V30 11428 H 1037.82 -1.42481 -6.93617 0
M  V30 11429 H 1038.23 -0.262954 -5.63887 0
M  V30 11430 N 1037.63 1.44308 -0.633487 0
M  V30 11431 C 1038.56 2.33431 0.0568402 0
M  V30 11432 C 1039.54 1.48342 0.832386 0
M  V30 11433 O 1040.72 1.77056 0.797798 0
M  V30 11434 C 1037.85 3.31443 1.03743 0
M  V30 11435 C 1036.81 4.26368 0.373362 0
M  V30 11436 C 1036.13 5.14267 1.46403 0
M  V30 11437 C 1037.43 5.17287 -0.721876 0
M  V30 11438 H 1039.13 2.91402 -0.687388 0
M  V30 11439 H 1036.67 1.4012 -0.332009 0
M  V30 11440 H 1038.63 3.92677 1.52913 0
M  V30 11441 H 1037.35 2.71686 1.81258 0
M  V30 11442 H 1036.01 3.6647 -0.0977053 0
M  V30 11443 H 1035.66 4.50861 2.23011 0
M  V30 11444 H 1035.36 5.7859 1.02506 0
M  V30 11445 H 1036.88 5.78373 1.95748 0
M  V30 11446 H 1038.29 5.72444 -0.313181 0
M  V30 11447 H 1036.69 5.90226 -1.08413 0
M  V30 11448 H 1037.76 4.58159 -1.58804 0
M  V30 11449 N 1039.1 0.374177 1.53094 0
M  V30 11450 C 1040.01 -0.475935 2.29722 0
M  V30 11451 C 1041.03 -1.085 1.36029 0
M  V30 11452 O 1042.21 -1.09408 1.69091 0
M  V30 11453 C 1039.27 -1.59572 3.07795 0
M  V30 11454 C 1038.33 -1.01332 4.17169 0
M  V30 11455 C 1037.57 -2.07975 4.9151 0
M  V30 11456 O 1037.79 -3.29232 4.65793 0
M  V30 11457 O 1036.72 -1.7055 5.77232 0
M  V30 11458 H 1040.55 0.147877 3.0334 0
M  V30 11459 H 1038.13 0.138312 1.48758 0
M  V30 11460 H 1040.02 -2.24658 3.5652 0
M  V30 11461 H 1038.69 -2.20478 2.37005 0
M  V30 11462 H 1037.6 -0.326133 3.72676 0
M  V30 11463 H 1038.93 -0.4487 4.90151 0
M  V30 11464 N 1040.58 -1.57259 0.103575 0
M  V30 11465 C 1041.51 -2.1153 -0.882472 0
M  V30 11466 C 1042.53 -1.05446 -1.24036 0
M  V30 11467 O 1043.72 -1.32867 -1.192 0
M  V30 11468 C 1040.82 -2.58717 -2.18903 0
M  V30 11469 C 1039.99 -3.8873 -2.00519 0
M  V30 11470 C 1039.05 -4.21675 -3.14764 0
M  V30 11471 O 1038.07 -4.90755 -2.88355 0
M  V30 11472 N 1039.28 -3.77757 -4.40772 0
M  V30 11473 H 1042.04 -2.96758 -0.418901 0
M  V30 11474 H 1039.6 -1.61696 -0.0812921 0
M  V30 11475 H 1041.59 -2.77797 -2.94297 0
M  V30 11476 H 1040.16 -1.78454 -2.56657 0
M  V30 11477 H 1039.38 -3.78714 -1.09406 0
M  V30 11478 H 1040.67 -4.73771 -1.85522 0
M  V30 11479 H 1040.07 -3.22011 -4.65108 0
M  V30 11480 H 1038.63 -4.01975 -5.13088 0
M  V30 11481 N 1042.06 0.170153 -1.56679 0
M  V30 11482 C 1043.29 0.902134 -1.86197 0
M  V30 11483 C 1043.7 1.75775 -0.689098 0
M  V30 11484 O 1043.06 1.79271 0.341763 0
M  V30 11485 C 1043.11 1.77792 -3.14757 0
M  V30 11486 O 1042.83 0.956817 -4.27524 0
M  V30 11487 C 1044.33 2.61947 -3.57629 0
M  V30 11488 H 1041.55 0.262026 -0.617724 0
M  V30 11489 H 1044.1 0.169899 -2.03793 0
M  V30 11490 H 1042.25 2.46348 -2.98984 0
M  V30 11491 H 1042.67 1.5559 -5.00891 0
M  V30 11492 H 1044.14 3.19011 -4.50484 0
M  V30 11493 H 1044.62 3.36873 -2.81803 0
M  V30 11494 H 1045.22 1.98721 -3.76019 0
M  V30 11495 N 1043.54 1.5137 0.438746 0
M  V30 11496 C 1044.95 1.39514 0.775116 0
M  V30 11497 C 1045.15 0.47638 1.95788 0
M  V30 11498 O 1044.21 -0.0689832 2.52406 0
M  V30 11499 C 1045.52 2.81517 1.05681 0
M  V30 11500 C 1047.07 2.90658 1.16133 0
M  V30 11501 C 1047.55 4.33566 1.47597 0
M  V30 11502 N 1049.04 4.36665 1.54524 0
M  V30 11503 C 1049.77 5.4427 1.80438 0
M  V30 11504 N 1049.27 6.62037 2.04154 0
M  V30 11505 N 1051.06 5.31749 1.82208 0
M  V30 11506 H 1043.21 2.09657 -0.340237 0
M  V30 11507 H 1045.48 0.943736 -0.0898115 0
M  V30 11508 H 1045.18 3.50734 0.260441 0
M  V30 11509 H 1045.06 3.20757 1.98481 0
M  V30 11510 H 1047.44 2.2164 1.94833 0
M  V30 11511 H 1047.52 2.54917 0.212376 0
M  V30 11512 H 1047.17 5.03133 0.694251 0
M  V30 11513 H 1047.1 4.66819 2.43696 0
M  V30 11514 H 1049.59 3.51761 1.38105 0
M  V30 11515 H 1049.9 7.39838 2.23293 0
M  V30 11516 H 1048.25 6.65155 2.01479 0
M  V30 11517 H 1051.44 4.3873 1.63198 0
M  V30 11518 H 1051.61 6.15689 2.02067 0
M  V30 11519 N 1045.02 -0.694098 1.41492 0
M  V30 11520 C 1045.96 -1.80801 1.43456 0
M  V30 11521 C 1046.93 -1.63571 0.288757 0
M  V30 11522 O 1048.12 -1.844 0.490017 0
M  V30 11523 C 1045.26 -3.18694 1.32394 0
M  V30 11524 C 1044.37 -3.47346 2.56855 0
M  V30 11525 C 1043.51 -4.74862 2.38075 0
M  V30 11526 C 1042.55 -4.96486 3.58005 0
M  V30 11527 N 1041.68 -6.15229 3.38287 0
M  V30 11528 H 1046.52 -1.78457 2.38657 0
M  V30 11529 H 1044.06 -0.871455 1.18508 0
M  V30 11530 H 1046.02 -3.98352 1.23982 0
M  V30 11531 H 1044.65 -3.20211 0.407999 0
M  V30 11532 H 1043.7 -2.62083 2.75711 0
M  V30 11533 H 1045.01 -3.59226 3.4606 0
M  V30 11534 H 1044.17 -5.62577 2.27139 0
M  V30 11535 H 1042.9 -4.6523 1.46329 0
M  V30 11536 H 1041.91 -4.07219 3.69395 0
M  V30 11537 H 1043.13 -5.07976 4.50708 0
M  V30 11538 H 1041.08 -6.06807 2.49242 0
M  V30 11539 H 1041 -6.27883 4.21069 0
M  V30 11540 H 1042.27 -7.05674 3.31126 0
M  V30 11541 N 1046.49 -1.27344 -0.928501 0
M  V30 11542 C 1047.4 -1.11812 -2.06241 0
M  V30 11543 C 1048.42 -0.048347 -1.73933 0
M  V30 11544 O 1049.6 -0.25467 -1.99783 0
M  V30 11545 C 1046.66 -0.766036 -3.38131 0
M  V30 11546 C 1045.72 -1.91659 -3.84142 0
M  V30 11547 C 1044.96 -1.58121 -5.09738 0
M  V30 11548 O 1045.18 -0.488742 -5.68302 0
M  V30 11549 O 1044.11 -2.42013 -5.51102 0
M  V30 11550 H 1047.94 -2.06967 -2.22258 0
M  V30 11551 H 1045.52 -1.06524 -1.04752 0
M  V30 11552 H 1047.41 -0.582982 -4.17348 0
M  V30 11553 H 1046.08 0.155998 -3.23324 0
M  V30 11554 H 1044.99 -2.1547 -3.05816 0
M  V30 11555 H 1046.32 -2.8188 -4.0349 0
M  V30 11556 N 1047.97 1.13488 -1.09353 0
M  V30 11557 C 1049.22 1.841 -0.82401 0
M  V30 11558 C 1049.53 1.84393 0.652586 0
M  V30 11559 O 1050.74 2.5089 1.03762 0
M  V30 11560 C 1049.2 3.30523 -1.42418 0
M  V30 11561 C 1048.8 3.38621 -2.93326 0
M  V30 11562 C 1050.55 4.06182 -1.23356 0
M  V30 11563 C 1048.46 4.79311 -3.46432 0
M  V30 11564 H 1047.39 0.68974 -0.304589 0
M  V30 11565 H 1050.04 1.27866 -1.31615 0
M  V30 11566 H 1048.42 3.86555 -0.859727 0
M  V30 11567 H 1049.59 2.92587 -3.5599 0
M  V30 11568 H 1047.91 2.76426 -3.11412 0
M  V30 11569 H 1050.5 5.10047 -1.60488 0
M  V30 11570 H 1050.85 4.15936 -0.174152 0
M  V30 11571 H 1051.38 3.56477 -1.76547 0
M  V30 11572 H 1048.12 4.74748 -4.5199 0
M  V30 11573 H 1047.64 5.25842 -2.8853 0
M  V30 11574 H 1049.32 5.48227 -3.43593 0
M  V30 11575 N 1049.45 0.880621 1.30701 0
M  V30 11576 C 1050.7 0.497611 1.966 0
M  V30 11577 C 1051.03 -0.949901 1.69383 0
M  V30 11578 O 1050.31 -1.67054 0.996152 0
M  V30 11579 C 1050.59 0.767919 3.51817 0
M  V30 11580 C 1050.44 2.26574 3.88567 0
M  V30 11581 C 1051.76 0.241502 4.39437 0
M  V30 11582 H 1048.88 0.182267 0.714106 0
M  V30 11583 H 1051.52 1.10382 1.54648 0
M  V30 11584 H 1049.67 0.251967 3.87682 0
M  V30 11585 H 1051.34 2.84977 3.62748 0
M  V30 11586 H 1049.59 2.73411 3.36792 0
M  V30 11587 H 1050.26 2.40549 4.9683 0
M  V30 11588 H 1052.73 0.683051 4.10455 0
M  V30 11589 H 1051.61 0.459997 5.46969 0
M  V30 11590 H 1051.87 -0.857068 4.33713 0
M  V30 11591 N 1050.93 -1.4397 0.641131 0
M  V30 11592 C 1051.86 -2.27948 -0.10731 0
M  V30 11593 C 1052.84 -1.39124 -0.841615 0
M  V30 11594 O 1054.02 -1.68566 -0.843662 0
M  V30 11595 C 1051.15 -3.18277 -1.15835 0
M  V30 11596 C 1050.2 -4.23276 -0.52345 0
M  V30 11597 S 1051.03 -5.30984 0.693969 0
M  V30 11598 C 1052.19 -6.24882 -0.356831 0
M  V30 11599 H 1052.42 -2.91077 0.605083 0
M  V30 11600 H 1049.95 -1.48303 0.429598 0
M  V30 11601 H 1051.91 -3.70867 -1.75977 0
M  V30 11602 H 1050.57 -2.54348 -1.84299 0
M  V30 11603 H 1049.76 -4.86533 -1.31536 0
M  V30 11604 H 1049.37 -3.74 0.00358355 0
M  V30 11605 H 1051.66 -6.66305 -1.22653 0
M  V30 11606 H 1052.6 -7.07692 0.240412 0
M  V30 11607 H 1053.01 -5.60301 -0.687217 0
M  V30 11608 N 1052.41 -0.382291 -1.52893 0
M  V30 11609 C 1053.37 0.44408 -2.24857 0
M  V30 11610 C 1054.37 0.996004 -1.26239 0
M  V30 11611 O 1055.56 0.879114 -1.5039 0
M  V30 11612 C 1052.69 1.62234 -2.99822 0
M  V30 11613 H 1053.89 -0.185862 -2.99324 0
M  V30 11614 H 1051.44 -0.134275 -1.55722 0
M  V30 11615 H 1052.17 2.28991 -2.29638 0
M  V30 11616 H 1051.96 1.23336 -3.72197 0
M  V30 11617 H 1053.45 2.20756 -3.54481 0
M  V30 11618 N 1053.89 1.57202 -0.111913 0
M  V30 11619 C 1054.82 2.10634 0.877983 0
M  V30 11620 C 1055.8 1.02098 1.26549 0
M  V30 11621 O 1056.98 1.29707 1.36779 0
M  V30 11622 C 1054.11 2.59721 2.174 0
M  V30 11623 C 1053.15 3.80074 1.93509 0
M  V30 11624 S 1053.99 5.22834 1.1578 0
M  V30 11625 C 1055.14 5.75284 2.46576 0
M  V30 11626 H 1055.38 2.94268 0.423483 0
M  V30 11627 H 1052.91 1.54065 0.101721 0
M  V30 11628 H 1054.87 2.88657 2.91868 0
M  V30 11629 H 1053.53 1.76281 2.59969 0
M  V30 11630 H 1052.72 4.12545 2.89522 0
M  V30 11631 H 1052.32 3.51718 1.27164 0
M  V30 11632 H 1054.61 5.84576 3.42457 0
M  V30 11633 H 1055.56 6.73493 2.1866 0
M  V30 11634 H 1055.97 5.03308 2.55619 0
M  V30 11635 N 1055.36 -0.161842 1.56767 0
M  V30 11636 C 1056.3 -1.22927 1.9226 0
M  V30 11637 C 1057.27 -1.42309 0.786562 0
M  V30 11638 O 1058.46 -1.57163 1.04078 0
M  V30 11639 C 1055.59 -2.59069 2.18177 0
M  V30 11640 C 1054.63 -2.56368 3.40849 0
M  V30 11641 S 1055.46 -2.04518 4.94907 0
M  V30 11642 C 1056.62 -3.42418 5.23928 0
M  V30 11643 H 1056.85 -0.926377 2.82499 0
M  V30 11644 H 1054.39 -0.366822 1.49979 0
M  V30 11645 H 1056.34 -3.37421 2.33789 0
M  V30 11646 H 1055.01 -2.86554 1.28629 0
M  V30 11647 H 1054.2 -3.56551 3.56213 0
M  V30 11648 H 1053.8 -1.86116 3.24402 0
M  V30 11649 H 1056.09 -4.38461 5.16486 0
M  V30 11650 H 1057.04 -3.3192 6.25487 0
M  V30 11651 H 1057.44 -3.38868 4.51474 0
M  V30 11652 N 1056.84 -1.516 -0.430713 0
M  V30 11653 C 1057.77 -1.68084 -1.54347 0
M  V30 11654 C 1058.75 -0.528401 -1.53775 0
M  V30 11655 O 1059.94 -0.753072 -1.72804 0
M  V30 11656 C 1057.06 -1.70048 -2.92919 0
M  V30 11657 C 1056.11 -2.91336 -3.11489 0
M  V30 11658 S 1056.94 -4.52043 -2.87084 0
M  V30 11659 C 1058.1 -4.56761 -4.27926 0
M  V30 11660 H 1058.33 -2.62203 -1.40131 0
M  V30 11661 H 1055.86 -1.41368 -0.620853 0
M  V30 11662 H 1057.82 -1.71864 -3.72791 0
M  V30 11663 H 1056.48 -0.770946 -3.04492 0
M  V30 11664 H 1055.68 -2.8913 -4.1282 0
M  V30 11665 H 1055.28 -2.87296 -2.39451 0
M  V30 11666 H 1057.57 -4.32809 -5.21232 0
M  V30 11667 H 1058.51 -5.58604 -4.35163 0
M  V30 11668 H 1058.92 -3.86014 -4.1189 0
M  V30 11669 N 1058.32 0.686584 -1.41858 0
M  V30 11670 C 1059.55 1.47519 -1.45072 0
M  V30 11671 C 1059.96 1.88709 -0.0585868 0
M  V30 11672 O 1059.32 1.57373 0.924116 0
M  V30 11673 C 1059.37 2.73195 -2.36742 0
M  V30 11674 O 1059.09 2.33736 -3.70539 0
M  V30 11675 C 1060.59 3.66861 -2.48854 0
M  V30 11676 H 1057.81 0.454307 -0.493808 0
M  V30 11677 H 1060.36 0.844612 -1.86243 0
M  V30 11678 H 1058.51 3.32468 -1.98856 0
M  V30 11679 H 1058.93 3.14809 -4.19518 0
M  V30 11680 H 1060.4 4.51801 -3.17143 0
M  V30 11681 H 1060.88 4.11961 -1.52265 0
M  V30 11682 H 1061.48 3.13486 -2.87414 0
M  V30 11683 N 1059.8 1.27835 0.921735 0
M  V30 11684 C 1060.76 1.11108 2.00469 0
M  V30 11685 C 1061.76 0.053203 1.60712 0
M  V30 11686 O 1062.95 0.298308 1.71627 0
M  V30 11687 C 1060.08 0.694269 3.33755 0
M  V30 11688 H 1061.28 2.07279 2.16738 0
M  V30 11689 H 1058.83 1.10708 1.10333 0
M  V30 11690 H 1059.56 -0.268561 3.23186 0
M  V30 11691 H 1059.35 1.45836 3.6397 0
M  V30 11692 H 1060.84 0.59965 4.13272 0
M  V30 11693 N 1061.28 -1.12907 1.09954 0
M  V30 11694 C 1062.52 -1.8595 0.848643 0
M  V30 11695 C 1062.88 -1.81897 -0.614621 0
M  V30 11696 O 1064.08 -2.50233 -0.981667 0
M  V30 11697 C 1062.35 -3.29859 1.3758 0
M  V30 11698 S 1063.91 -4.20333 1.25959 0
M  V30 11699 H 1060.73 -0.641404 0.306793 0
M  V30 11700 H 1063.33 -1.36045 1.40399 0
M  V30 11701 H 1062.03 -3.30365 2.43489 0
M  V30 11702 H 1061.57 -3.84827 0.816806 0
M  V30 11703 H 1063.58 -4.95738 0.214038 0
M  V30 11704 N 1062.75 -0.88754 -1.30232 0
M  V30 11705 C 1064.03 -0.427249 -1.90877 0
M  V30 11706 C 1064.41 1.0922 -1.80649 0
M  V30 11707 O 1063.76 1.92866 -1.22536 0
M  V30 11708 C 1063.97 -0.928219 -3.3643 0
M  V30 11709 C 1065.32 -0.964706 -4.13496 0
M  V30 11710 O 1066.34 -0.875057 -3.45284 0
M  V30 11711 O 1065.2 -1.09754 -5.35366 0
M  V30 11712 H 1062.29 -0.131107 -0.816541 0
M  V30 11713 H 1064.84 -0.976609 -1.38782 0
M  V30 11714 H 1063.61 -1.97209 -3.37971 0
M  V30 11715 H 1063.23 -0.358169 -3.95983 0
M  V30 11716 N 1064.23 1.43628 -0.648757 0
M  V30 11717 C 1065.16 2.33478 0.0320785 0
M  V30 11718 C 1066.14 1.49217 0.816605 0
M  V30 11719 O 1067.33 1.77892 0.778974 0
M  V30 11720 C 1064.46 3.32525 1.00222 0
M  V30 11721 C 1063.41 4.2674 0.328119 0
M  V30 11722 C 1062.74 5.15791 1.4094 0
M  V30 11723 C 1064.04 5.16493 -0.776701 0
M  V30 11724 H 1065.73 2.90657 -0.718257 0
M  V30 11725 H 1063.28 1.3976 -0.346852 0
M  V30 11726 H 1065.23 3.94277 1.4874 0
M  V30 11727 H 1063.96 2.73593 1.78366 0
M  V30 11728 H 1062.61 3.66346 -0.136569 0
M  V30 11729 H 1062.26 4.53201 2.18216 0
M  V30 11730 H 1061.96 5.79645 0.963631 0
M  V30 11731 H 1063.49 5.80416 1.89603 0
M  V30 11732 H 1064.9 5.7208 -0.373878 0
M  V30 11733 H 1063.3 5.89043 -1.14667 0
M  V30 11734 H 1064.37 4.56448 -1.63654 0
M  V30 11735 N 1065.71 0.390394 1.52688 0
M  V30 11736 C 1066.94 -0.194013 2.06491 0
M  V30 11737 C 1067.36 -1.3965 1.26014 0
M  V30 11738 O 1066.72 -1.79038 0.285468 0
M  V30 11739 C 1066.77 -0.541306 3.56514 0
M  V30 11740 O 1065.87 -1.63509 3.78601 0
M  V30 11741 H 1065.21 -0.0223608 0.663623 0
M  V30 11742 H 1067.74 0.558179 1.96839 0
M  V30 11743 H 1067.75 -0.805301 3.99974 0
M  V30 11744 H 1066.43 0.337828 4.14526 0
M  V30 11745 H 1065 -1.36473 3.4703 0
M  V30 11746 N 1067.19 -1.57141 0.120249 0
M  V30 11747 C 1068.15 -2.14213 -0.815185 0
M  V30 11748 C 1069.15 -1.07731 -1.19376 0
M  V30 11749 O 1070.34 -1.33502 -1.11906 0
M  V30 11750 C 1067.47 -2.68339 -2.10255 0
M  V30 11751 H 1068.67 -2.98197 -0.319166 0
M  V30 11752 H 1066.22 -1.55767 -0.128997 0
M  V30 11753 H 1066.95 -1.87946 -2.64285 0
M  V30 11754 H 1066.74 -3.46216 -1.84057 0
M  V30 11755 H 1068.23 -3.124 -2.77121 0
M  V30 11756 N 1068.67 0.153526 -1.5685 0
M  V30 11757 C 1069.92 0.865628 -1.82181 0
M  V30 11758 C 1070.23 1.82629 -0.700434 0
M  V30 11759 O 1071.43 2.58206 -0.839155 0
M  V30 11760 C 1069.89 1.58993 -3.22877 0
M  V30 11761 C 1069.5 0.672006 -4.42931 0
M  V30 11762 C 1071.24 2.2892 -3.57486 0
M  V30 11763 C 1069.15 1.39755 -5.7465 0
M  V30 11764 H 1068.08 0.326993 -0.679406 0
M  V30 11765 H 1070.73 0.118403 -1.83118 0
M  V30 11766 H 1069.11 2.38255 -3.16308 0
M  V30 11767 H 1070.29 -0.0849226 -4.60722 0
M  V30 11768 H 1068.6 0.0814825 -4.1632 0
M  V30 11769 H 1071.2 2.8383 -4.5315 0
M  V30 11770 H 1071.54 3.05105 -2.83226 0
M  V30 11771 H 1072.07 1.56583 -3.65686 0
M  V30 11772 H 1068.81 0.677686 -6.51987 0
M  V30 11773 H 1068.33 2.12736 -5.60806 0
M  V30 11774 H 1070.01 1.94024 -6.17223 0
M  V30 11775 N 1070.14 1.51827 0.422667 0
M  V30 11776 C 1071.37 1.69049 1.1929 0
M  V30 11777 C 1071.79 0.394095 1.84641 0
M  V30 11778 O 1071.14 -0.628731 1.71328 0
M  V30 11779 C 1071.2 2.81657 2.26609 0
M  V30 11780 O 1070.92 4.06275 1.63929 0
M  V30 11781 C 1072.42 3.10274 3.16615 0
M  V30 11782 H 1069.64 0.566894 0.358988 0
M  V30 11783 H 1072.18 1.98318 0.499029 0
M  V30 11784 H 1070.34 2.54945 2.91688 0
M  V30 11785 H 1070.75 4.68924 2.3497 0
M  V30 11786 H 1072.22 3.92613 3.88019 0
M  V30 11787 H 1072.7 2.23273 3.78214 0
M  V30 11788 H 1073.31 3.387 2.57221 0
M  V30 11789 N 1071.62 -0.679052 1.4222 0
M  V30 11790 C 1072.57 -1.79269 1.45366 0
M  V30 11791 C 1073.54 -1.63255 0.306089 0
M  V30 11792 O 1074.72 -1.8387 0.509548 0
M  V30 11793 C 1071.86 -3.17272 1.35766 0
M  V30 11794 C 1070.98 -3.44603 2.60525 0
M  V30 11795 C 1070.11 -4.7231 2.43098 0
M  V30 11796 C 1069.15 -4.92661 3.63251 0
M  V30 11797 N 1068.29 -6.11606 3.44794 0
M  V30 11798 H 1073.13 -1.75916 2.40536 0
M  V30 11799 H 1070.67 -0.858836 1.19425 0
M  V30 11800 H 1072.62 -3.97015 1.282 0
M  V30 11801 H 1071.25 -3.1976 0.441939 0
M  V30 11802 H 1070.31 -2.59144 2.78475 0
M  V30 11803 H 1071.62 -3.55536 3.49851 0
M  V30 11804 H 1070.77 -5.60136 2.33093 0
M  V30 11805 H 1069.51 -4.63652 1.51255 0
M  V30 11806 H 1068.52 -4.03278 3.73693 0
M  V30 11807 H 1069.74 -5.03167 4.5607 0
M  V30 11808 H 1067.69 -6.04129 2.55663 0
M  V30 11809 H 1067.6 -6.23381 4.27705 0
M  V30 11810 H 1068.87 -7.02122 3.38592 0
M  V30 11811 N 1073.1 -1.28322 -0.914942 0
M  V30 11812 C 1074.51 -1.13937 -1.47903 0
M  V30 11813 C 1074.86 0.271072 -1.94318 0
M  V30 11814 O 1073.99 1.16522 -1.8235 0
M  V30 11815 C 1074.58 -2.06221 -2.68809 0
M  V30 11816 C 1073.14 -1.95903 -3.21402 0
M  V30 11817 C 1072.29 -1.98031 -1.94111 0
M  V30 11818 H 1075.24 -1.41029 -0.727772 0
M  V30 11819 H 1075.26 -1.6255 -3.44031 0
M  V30 11820 H 1074.77 -3.08866 -2.34997 0
M  V30 11821 H 1072.87 -0.962907 -3.59943 0
M  V30 11822 H 1072.99 -2.82799 -3.86732 0
M  V30 11823 H 1071.35 -1.42423 -2.11158 0
M  V30 11824 H 1072.13 -3.02354 -1.62595 0
M  V30 11825 N 1074.58 1.12322 -1.10551 0
M  V30 11826 C 1075.82 1.84333 -0.859826 0
M  V30 11827 C 1076.18 1.82539 0.608052 0
M  V30 11828 O 1075.47 1.26086 1.44267 0
M  V30 11829 C 1075.67 3.31177 -1.34375 0
M  V30 11830 C 1075.5 3.47272 -2.85714 0
M  V30 11831 C 1074.27 3.60837 -3.5373 0
M  V30 11832 C 1076.46 3.42336 -3.83811 0
M  V30 11833 N 1074.45 3.65309 -4.93378 0
M  V30 11834 C 1075.82 3.53318 -5.09477 0
M  V30 11835 C 1077.87 3.25809 -3.76501 0
M  V30 11836 C 1076.57 3.49477 -6.28695 0
M  V30 11837 C 1078.6 3.23282 -4.9522 0
M  V30 11838 C 1077.96 3.34826 -6.19735 0
M  V30 11839 H 1074.06 0.690186 -0.367651 0
M  V30 11840 H 1076.65 1.34463 -1.40811 0
M  V30 11841 H 1074.82 3.79585 -0.822767 0
M  V30 11842 H 1076.55 3.91051 -1.04217 0
M  V30 11843 H 1073.3 3.63005 -3.04178 0
M  V30 11844 H 1073.73 3.71207 -5.66157 0
M  V30 11845 H 1078.37 3.15777 -2.81149 0
M  V30 11846 H 1076.09 3.5828 -7.24335 0
M  V30 11847 H 1079.67 3.11674 -4.91274 0
M  V30 11848 H 1078.55 3.32847 -7.10058 0
M  V30 11849 N 1076.06 0.894434 1.2976 0
M  V30 11850 C 1076.97 0.372622 2.31622 0
M  V30 11851 C 1077.98 -0.52996 1.65733 0
M  V30 11852 O 1079.16 -0.420807 1.96955 0
M  V30 11853 C 1076.22 -0.396076 3.4443 0
M  V30 11854 C 1075.28 0.537394 4.25923 0
M  V30 11855 C 1074.52 -0.194713 5.33345 0
M  V30 11856 O 1074.74 -1.41943 5.52457 0
M  V30 11857 O 1073.67 0.460055 6.00139 0
M  V30 11858 H 1077.5 1.21756 2.78225 0
M  V30 11859 H 1075.09 0.65858 1.34101 0
M  V30 11860 H 1076.97 -0.830962 4.13126 0
M  V30 11861 H 1075.64 -1.21716 2.99945 0
M  V30 11862 H 1074.55 1.02129 3.5989 0
M  V30 11863 H 1075.88 1.32475 4.74037 0
M  V30 11864 N 1077.53 -1.43282 0.656365 0
M  V30 11865 C 1078.78 -2.02075 0.171293 0
M  V30 11866 C 1079.11 -1.51682 -1.21269 0
M  V30 11867 O 1078.39 -0.711243 -1.81029 0
M  V30 11868 C 1078.67 -3.59621 0.185602 0
M  V30 11869 C 1078.52 -4.20239 1.60373 0
M  V30 11870 C 1079.84 -4.37515 -0.476289 0
M  V30 11871 H 1076.96 -0.73424 0.0637185 0
M  V30 11872 H 1079.6 -1.70539 0.837648 0
M  V30 11873 H 1077.75 -3.86619 -0.381804 0
M  V30 11874 H 1079.43 -4.0426 2.22197 0
M  V30 11875 H 1077.67 -3.76769 2.15006 0
M  V30 11876 H 1078.34 -5.29333 1.56557 0
M  V30 11877 H 1080.82 -4.16099 0.00651073 0
M  V30 11878 H 1079.69 -5.47169 -0.435562 0
M  V30 11879 H 1079.95 -4.14003 -1.55093 0
M  V30 11880 N 1079.01 -0.398486 -1.52479 0
M  V30 11881 C 1079.95 0.467426 -2.24383 0
M  V30 11882 C 1080.96 1.01908 -1.26959 0
M  V30 11883 O 1082.15 0.919843 -1.52974 0
M  V30 11884 C 1079.25 1.66146 -2.95379 0
M  V30 11885 C 1078.42 1.23557 -4.19586 0
M  V30 11886 C 1077.48 2.29532 -4.73499 0
M  V30 11887 O 1076.51 1.90561 -5.36354 0
M  V30 11888 N 1077.71 3.61564 -4.5415 0
M  V30 11889 H 1080.47 -0.148653 -2.99331 0
M  V30 11890 H 1078.03 -0.225313 -1.60325 0
M  V30 11891 H 1080.03 2.36585 -3.28344 0
M  V30 11892 H 1078.6 2.18369 -2.23682 0
M  V30 11893 H 1077.82 0.359715 -3.92555 0
M  V30 11894 H 1079.1 0.927812 -5.00269 0
M  V30 11895 H 1078.5 3.95983 -4.03998 0
M  V30 11896 H 1077.06 4.2801 -4.9158 0
M  V30 11897 N 1080.49 1.57075 -0.12858 0
M  V30 11898 C 1081.72 2.00305 0.537839 0
M  V30 11899 C 1082.14 1.00787 1.58819 0
M  V30 11900 O 1081.5 -0.0190839 1.8129 0
M  V30 11901 C 1081.55 3.42371 1.13201 0
M  V30 11902 O 1080.65 3.45786 2.24735 0
M  V30 11903 H 1079.99 0.650456 0.133428 0
M  V30 11904 H 1082.52 2.03415 -0.219882 0
M  V30 11905 H 1082.53 3.80783 1.4652 0
M  V30 11906 H 1081.21 4.14315 0.362713 0
M  V30 11907 H 1079.78 3.19201 1.92783 0
M  V30 11908 N 1081.97 -0.145205 1.5693 0
M  V30 11909 C 1082.9 -1.20438 1.95006 0
M  V30 11910 C 1083.91 -1.39085 0.846114 0
M  V30 11911 O 1085.1 -1.38625 1.12452 0
M  V30 11912 C 1082.2 -2.56892 2.21043 0
M  V30 11913 C 1081.38 -2.59197 3.52329 0
M  V30 11914 C 1080.44 -3.77204 3.66884 0
M  V30 11915 O 1079.46 -3.61995 4.39259 0
M  V30 11916 N 1080.66 -4.9473 3.03682 0
M  V30 11917 H 1083.43 -0.880709 2.86467 0
M  V30 11918 H 1080.99 -0.334751 1.58401 0
M  V30 11919 H 1082.98 -3.34349 2.2802 0
M  V30 11920 H 1081.55 -2.81544 1.35838 0
M  V30 11921 H 1080.77 -1.67644 3.56776 0
M  V30 11922 H 1082.06 -2.57771 4.3867 0
M  V30 11923 H 1081.46 -5.09989 2.44801 0
M  V30 11924 H 1080.01 -5.69956 3.16218 0
M  V30 11925 N 1083.45 -1.52049 -0.414609 0
M  V30 11926 C 1084.69 -1.66084 -1.16379 0
M  V30 11927 C 1085.03 -0.386932 -1.90306 0
M  V30 11928 O 1084.3 0.614441 -1.8454 0
M  V30 11929 C 1084.58 -2.87927 -2.16264 0
M  V30 11930 C 1084.44 -4.25353 -1.46269 0
M  V30 11931 C 1085.76 -3.05289 -3.16996 0
M  V30 11932 H 1082.88 -0.604414 -0.421726 0
M  V30 11933 H 1085.52 -1.8459 -0.450177 0
M  V30 11934 H 1083.67 -2.7228 -2.77121 0
M  V30 11935 H 1085.34 -4.52717 -0.885743 0
M  V30 11936 H 1083.58 -4.27006 -0.76472 0
M  V30 11937 H 1084.25 -5.06644 -2.19126 0
M  V30 11938 H 1086.73 -3.19798 -2.66212 0
M  V30 11939 H 1085.61 -3.92065 -3.84156 0
M  V30 11940 H 1085.87 -2.1836 -3.84411 0
M  V30 11941 N 1084.93 0.6715 -1.42579 0
M  V30 11942 C 1085.89 1.76676 -1.46008 0
M  V30 11943 C 1086.89 1.57007 -0.347213 0
M  V30 11944 O 1088.08 1.63238 -0.608185 0
M  V30 11945 C 1085.21 3.15348 -1.29494 0
M  V30 11946 H 1086.4 1.75021 -2.43531 0
M  V30 11947 H 1083.96 0.881444 -1.29075 0
M  V30 11948 H 1084.69 3.22626 -0.32906 0
M  V30 11949 H 1084.48 3.31028 -2.10149 0
M  V30 11950 H 1085.97 3.95251 -1.34784 0
M  V30 11951 N 1086.4 1.28806 0.908124 0
M  V30 11952 C 1087.33 1.15758 2.02787 0
M  V30 11953 C 1088.31 0.053911 1.70015 0
M  V30 11954 O 1089.5 0.231901 1.9281 0
M  V30 11955 C 1086.63 0.824526 3.37371 0
M  V30 11956 C 1085.58 1.88359 3.84324 0
M  V30 11957 C 1084.91 1.40404 5.15937 0
M  V30 11958 C 1086.21 3.29108 4.05568 0
M  V30 11959 H 1087.9 2.09431 2.13961 0
M  V30 11960 H 1085.45 1.00831 1.02806 0
M  V30 11961 H 1087.4 0.71999 4.15204 0
M  V30 11962 H 1086.13 -0.147902 3.26265 0
M  V30 11963 H 1084.79 1.97736 3.087 0
M  V30 11964 H 1084.43 0.420515 5.01239 0
M  V30 11965 H 1084.13 2.11224 5.48323 0
M  V30 11966 H 1085.66 1.31283 5.9632 0
M  V30 11967 H 1087.07 3.2262 4.73909 0
M  V30 11968 H 1085.47 3.97812 4.49294 0
M  V30 11969 H 1086.54 3.72709 3.10187 0
M  V30 11970 N 1087.88 -1.11734 1.11145 0
M  V30 11971 C 1088.81 -2.1976 0.789152 0
M  V30 11972 C 1089.79 -1.68382 -0.241143 0
M  V30 11973 O 1090.98 -1.93914 -0.105292 0
M  V30 11974 C 1088.11 -3.46549 0.228204 0
M  V30 11975 C 1087.06 -4.11123 1.19002 0
M  V30 11976 C 1086.39 -5.32451 0.489928 0
M  V30 11977 C 1087.69 -4.56406 2.53951 0
M  V30 11978 H 1089.38 -2.46978 1.69241 0
M  V30 11979 H 1086.93 -1.18705 0.81517 0
M  V30 11980 H 1088.88 -4.21399 -0.00945908 0
M  V30 11981 H 1087.6 -3.18782 -0.71033 0
M  V30 11982 H 1086.26 -3.38264 1.41326 0
M  V30 11983 H 1085.91 -5.00953 -0.453315 0
M  V30 11984 H 1085.61 -5.76605 1.1314 0
M  V30 11985 H 1087.14 -6.10042 0.260984 0
M  V30 11986 H 1088.55 -5.22592 2.35733 0
M  V30 11987 H 1086.95 -5.11363 3.14051 0
M  V30 11988 H 1088.02 -3.7001 3.13402 0
M  V30 11989 N 1089.36 -0.901303 -1.29284 0
M  V30 11990 C 1090.61 -0.528826 -1.95784 0
M  V30 11991 C 1090.94 0.922833 -1.70873 0
M  V30 11992 O 1090.21 1.65448 -1.0226 0
M  V30 11993 C 1090.5 -0.823793 -3.50551 0
M  V30 11994 C 1090.35 -2.32727 -3.84913 0
M  V30 11995 C 1091.67 -0.311382 -4.38997 0
M  V30 11996 H 1088.79 -0.193604 -0.711116 0
M  V30 11997 H 1091.43 -1.12828 -1.52872 0
M  V30 11998 H 1089.58 -0.313612 -3.87232 0
M  V30 11999 H 1091.25 -2.90712 -3.58168 0
M  V30 12000 H 1089.49 -2.78735 -3.32399 0
M  V30 12001 H 1090.17 -2.48423 -4.9294 0
M  V30 12002 H 1092.64 -0.748265 -4.09317 0
M  V30 12003 H 1091.52 -0.546957 -5.46168 0
M  V30 12004 H 1091.78 0.787959 -4.35021 0
M  V30 12005 N 1090.84 1.42931 -0.663954 0
M  V30 12006 C 1091.8 2.29197 0.0117626 0
M  V30 12007 C 1092.8 1.42767 0.739875 0
M  V30 12008 O 1093.99 1.64278 0.579509 0
M  V30 12009 C 1091.12 3.2505 1.02738 0
M  V30 12010 H 1092.32 2.90438 -0.747391 0
M  V30 12011 H 1089.87 1.5039 -0.425733 0
M  V30 12012 H 1090.6 2.68726 1.8154 0
M  V30 12013 H 1090.39 3.88785 0.508809 0
M  V30 12014 H 1091.88 3.89771 1.49893 0
M  V30 12015 N 1092.32 0.406567 1.52266 0
M  V30 12016 C 1093.28 -0.408251 2.25535 0
M  V30 12017 C 1094.28 -0.975795 1.27808 0
M  V30 12018 O 1095.47 -0.855077 1.5177 0
M  V30 12019 C 1092.6 -1.57443 3.02365 0
M  V30 12020 H 1093.79 0.233459 2.9899 0
M  V30 12021 H 1091.35 0.159032 1.55489 0
M  V30 12022 H 1092.08 -2.25308 2.33252 0
M  V30 12023 H 1091.87 -1.17399 3.74112 0
M  V30 12024 H 1093.36 -2.15088 3.57948 0
M  V30 12025 N 1093.79 -1.57004 0.136909 0
M  V30 12026 C 1094.7 -2.19807 -0.819887 0
M  V30 12027 C 1095.72 -1.17939 -1.27932 0
M  V30 12028 O 1096.9 -1.50478 -1.3386 0
M  V30 12029 C 1093.96 -2.79935 -2.04542 0
M  V30 12030 C 1093.02 -3.96897 -1.6362 0
M  V30 12031 C 1092.26 -4.54148 -2.80331 0
M  V30 12032 O 1092.48 -4.10282 -3.96264 0
M  V30 12033 O 1091.41 -5.44565 -2.56384 0
M  V30 12034 H 1095.24 -3.02058 -0.315337 0
M  V30 12035 H 1092.82 -1.49131 -0.0896151 0
M  V30 12036 H 1094.71 -3.18191 -2.76283 0
M  V30 12037 H 1093.38 -2.00703 -2.53969 0
M  V30 12038 H 1092.29 -3.63376 -0.889316 0
M  V30 12039 H 1093.62 -4.77618 -1.18918 0
M  V30 12040 N 1095.27 0.136881 -1.57004 0
M  V30 12041 C 1096.52 0.847775 -1.83899 0
M  V30 12042 C 1096.85 1.80709 -0.719332 0
M  V30 12043 O 1096.1 1.93527 0.290838 0
M  V30 12044 C 1096.4 1.64711 -3.17183 0
M  V30 12045 C 1096.07 0.833683 -4.43126 0
M  V30 12046 C 1094.73 0.609306 -4.77327 0
M  V30 12047 C 1097.08 0.265504 -5.20523 0
M  V30 12048 C 1094.41 -0.193793 -5.8638 0
M  V30 12049 C 1096.76 -0.524688 -6.3042 0
M  V30 12050 C 1095.43 -0.759548 -6.63164 0
M  V30 12051 H 1094.7 0.310223 -0.672936 0
M  V30 12052 H 1097.34 0.110937 -1.91178 0
M  V30 12053 H 1095.65 2.45435 -3.054 0
M  V30 12054 H 1097.34 2.20081 -3.3521 0
M  V30 12055 H 1093.93 1.01864 -4.16319 0
M  V30 12056 H 1098.12 0.426109 -4.94467 0
M  V30 12057 H 1093.37 -0.385153 -6.10186 0
M  V30 12058 H 1097.55 -0.972033 -6.89583 0
M  V30 12059 H 1095.18 -1.38369 -7.47501 0
M  V30 12060 N 1096.75 1.52266 0.40654 0
M  V30 12061 C 1098 1.67654 1.15168 0
M  V30 12062 C 1098.35 0.402751 1.88137 0
M  V30 12063 O 1097.64 -0.60291 1.81867 0
M  V30 12064 C 1097.84 2.8389 2.1712 0
M  V30 12065 C 1097.67 4.2245 1.54162 0
M  V30 12066 C 1096.44 4.87937 1.31322 0
M  V30 12067 C 1098.64 5.04462 1.00112 0
M  V30 12068 N 1096.62 6.10525 0.642842 0
M  V30 12069 C 1097.99 6.18307 0.457805 0
M  V30 12070 C 1100.04 4.89775 0.89583 0
M  V30 12071 C 1098.75 7.19074 -0.180477 0
M  V30 12072 C 1100.77 5.90777 0.271397 0
M  V30 12073 C 1100.13 7.03915 -0.261225 0
M  V30 12074 H 1096.23 0.667121 0.408012 0
M  V30 12075 H 1098.82 1.89577 0.443695 0
M  V30 12076 H 1096.99 2.63578 2.85274 0
M  V30 12077 H 1098.72 2.88302 2.84014 0
M  V30 12078 H 1095.48 4.46345 1.58344 0
M  V30 12079 H 1095.9 6.76223 0.324204 0
M  V30 12080 H 1100.54 4.0253 1.29344 0
M  V30 12081 H 1098.26 8.05942 -0.590141 0
M  V30 12082 H 1101.85 5.81485 0.191417 0
M  V30 12083 H 1100.73 7.80731 -0.736791 0
M  V30 12084 N 1098.23 -0.663929 1.42933 0
M  V30 12085 C 1099.14 -1.80643 1.49683 0
M  V30 12086 C 1100.15 -1.69694 0.38472 0
M  V30 12087 O 1101.33 -1.91052 0.637256 0
M  V30 12088 C 1098.4 -3.16858 1.4072 0
M  V30 12089 C 1097.46 -3.39684 2.62514 0
M  V30 12090 C 1096.69 -4.69399 2.53969 0
M  V30 12091 O 1096.91 -5.48037 1.58152 0
M  V30 12092 O 1095.85 -4.93709 3.44289 0
M  V30 12093 H 1099.67 -1.77903 2.46138 0
M  V30 12094 H 1097.26 -0.821059 1.24816 0
M  V30 12095 H 1099.14 -3.9812 1.38124 0
M  V30 12096 H 1097.81 -3.20211 0.473954 0
M  V30 12097 H 1096.72 -2.58227 2.70684 0
M  V30 12098 H 1098.05 -3.41169 3.54774 0
M  V30 12099 N 1099.71 -1.29285 -0.901281 0
M  V30 12100 C 1100.64 -1.10086 -2.01032 0
M  V30 12101 C 1101.65 -0.0488364 -1.62727 0
M  V30 12102 O 1102.84 -0.293194 -1.76076 0
M  V30 12103 C 1099.94 -0.653357 -3.32542 0
M  V30 12104 C 1099.11 -1.78355 -3.99385 0
M  V30 12105 C 1098.17 -1.32733 -5.09184 0
M  V30 12106 O 1097.2 -2.03177 -5.31703 0
M  V30 12107 N 1098.4 -0.197345 -5.80164 0
M  V30 12108 H 1101.17 -2.056 -2.18057 0
M  V30 12109 H 1098.73 -1.21204 -1.07337 0
M  V30 12110 H 1100.72 -0.331491 -4.0334 0
M  V30 12111 H 1099.29 0.209278 -3.11899 0
M  V30 12112 H 1098.51 -2.27438 -3.21972 0
M  V30 12113 H 1099.8 -2.54137 -4.40785 0
M  V30 12114 H 1099.19 0.390011 -5.64354 0
M  V30 12115 H 1097.75 0.0651642 -6.51767 0
M  V30 12116 N 1101.18 1.11143 -1.11736 0
M  V30 12117 C 1102.43 1.82586 -0.866412 0
M  V30 12118 C 1102.75 1.85227 0.609593 0
M  V30 12119 O 1102.02 1.32505 1.44288 0
M  V30 12120 H 1100.6 0.676149 -0.31754 0
M  V30 12121 H 1103.27 1.34516 -1.41037 0
M  V30 12122 H 1102.36 2.8635 -1.24136 0
M  V30 12123 N 1102.66 0.908147 1.28804 0
M  V30 12124 C 1103.94 0.457561 1.90173 0
M  V30 12125 C 1104.32 -1.06333 1.82364 0
M  V30 12126 O 1103.67 -1.90892 1.25589 0
M  V30 12127 C 1103.88 0.981624 3.34911 0
M  V30 12128 C 1105.23 1.03037 4.11908 0
M  V30 12129 O 1106.25 0.929878 3.43848 0
M  V30 12130 O 1105.11 1.18257 5.33552 0
M  V30 12131 H 1102.2 0.144081 0.814352 0
M  V30 12132 H 1104.75 0.998565 1.37211 0
M  V30 12133 H 1103.52 2.02561 3.34791 0
M  V30 12134 H 1103.14 0.421122 3.95364 0
M  V30 12135 N 1104.14 -1.42577 0.671525 0
M  V30 12136 C 1105.07 -2.33499 0.00506984 0
M  V30 12137 C 1106.05 -1.50497 -0.792763 0
M  V30 12138 O 1107.24 -1.79109 -0.750574 0
M  V30 12139 C 1104.37 -3.34077 -0.949194 0
M  V30 12140 C 1103.32 -4.27208 -0.260187 0
M  V30 12141 C 1102.65 -5.17968 -1.32716 0
M  V30 12142 C 1103.95 -5.15192 0.858772 0
M  V30 12143 H 1105.64 -2.89477 0.764407 0
M  V30 12144 H 1103.19 -1.39191 0.369043 0
M  V30 12145 H 1105.14 -3.96594 -1.42448 0
M  V30 12146 H 1103.86 -2.76396 -1.73991 0
M  V30 12147 H 1102.52 -3.66082 0.194834 0
M  V30 12148 H 1102.17 -4.56615 -2.10979 0
M  V30 12149 H 1101.87 -5.81104 -0.871293 0
M  V30 12150 H 1103.39 -5.83359 -1.80345 0
M  V30 12151 H 1104.81 -5.71412 0.464844 0
M  V30 12152 H 1103.21 -5.87144 1.24023 0
M  V30 12153 H 1104.28 -4.53787 1.70895 0
M  V30 12154 N 1105.62 -0.414636 -1.52048 0
M  V30 12155 C 1106.53 0.414861 -2.30903 0
M  V30 12156 C 1107.54 1.04855 -1.38858 0
M  V30 12157 O 1108.72 1.04886 -1.71933 0
M  V30 12158 C 1105.79 1.51356 -3.11917 0
M  V30 12159 C 1104.85 0.902359 -4.19709 0
M  V30 12160 C 1104.08 1.9487 -4.96852 0
M  V30 12161 O 1104.3 3.16766 -4.74358 0
M  V30 12162 O 1103.24 1.55186 -5.8155 0
M  V30 12163 H 1107.06 -0.228251 -3.02841 0
M  V30 12164 H 1104.65 -0.177704 -1.48339 0
M  V30 12165 H 1106.53 2.15127 -3.62351 0
M  V30 12166 H 1105.2 2.14117 -2.42767 0
M  V30 12167 H 1104.11 0.22721 -3.73409 0
M  V30 12168 H 1105.44 0.318587 -4.91168 0
M  V30 12169 N 1107.1 1.56929 -0.145233 0
M  V30 12170 C 1108.51 1.58196 0.211194 0
M  V30 12171 C 1108.71 1.15941 1.64803 0
M  V30 12172 O 1107.77 0.858888 2.37443 0
M  V30 12173 C 1109.08 3.00665 -0.0459569 0
M  V30 12174 C 1110.63 3.12995 0.0178913 0
M  V30 12175 C 1111.1 4.5751 -0.211905 0
M  V30 12176 N 1112.6 4.62928 -0.158772 0
M  V30 12177 C 1113.33 5.72555 -0.311111 0
M  V30 12178 N 1112.83 6.90838 -0.521074 0
M  V30 12179 N 1114.62 5.61549 -0.248838 0
M  V30 12180 H 1106.77 1.8269 -1.08342 0
M  V30 12181 H 1109.03 0.845514 -0.428731 0
M  V30 12182 H 1108.74 3.35962 -1.0403 0
M  V30 12183 H 1108.61 3.71125 0.674246 0
M  V30 12184 H 1111 2.7754 1.00278 0
M  V30 12185 H 1111.08 2.45025 -0.734612 0
M  V30 12186 H 1110.73 4.93669 -1.19389 0
M  V30 12187 H 1110.66 5.23604 0.560901 0
M  V30 12188 H 1113.15 3.779 -0.00107283 0
M  V30 12189 H 1113.46 7.70248 -0.62747 0
M  V30 12190 H 1111.8 6.92761 -0.557374 0
M  V30 12191 H 1115 4.68022 -0.0855821 0
M  V30 12192 H 1115.17 6.46937 -0.370997 0
M  V30 12193 N 1108.58 -0.128553 1.57075 0
M  V30 12194 C 1109.8 -0.85245 1.88523 0
M  V30 12195 C 1110.22 -1.73886 0.735459 0
M  V30 12196 O 1109.58 -1.80114 -0.294113 0
M  V30 12197 C 1109.63 -1.69384 3.19361 0
M  V30 12198 O 1109.35 -0.84313 4.2991 0
M  V30 12199 C 1110.85 -2.52373 3.64449 0
M  V30 12200 H 1108.07 -0.245556 0.624454 0
M  V30 12201 H 1110.61 -0.115807 2.04172 0
M  V30 12202 H 1108.77 -2.38335 3.0541 0
M  V30 12203 H 1109.18 -1.42255 5.0484 0
M  V30 12204 H 1110.66 -3.06955 4.58784 0
M  V30 12205 H 1111.13 -3.29283 2.90636 0
M  V30 12206 H 1111.74 -1.88681 3.81155 0
M  V30 12207 N 1110.05 -1.5248 -0.398459 0
M  V30 12208 C 1111.3 -1.67309 -1.1461 0
M  V30 12209 C 1111.63 -0.407095 -1.89885 0
M  V30 12210 O 1110.91 0.594834 -1.85181 0
M  V30 12211 C 1111.19 -2.90204 -2.13198 0
M  V30 12212 C 1111.04 -4.26881 -1.4175 0
M  V30 12213 C 1112.36 -3.08634 -3.13741 0
M  V30 12214 H 1109.48 -0.608853 -0.415292 0
M  V30 12215 H 1112.12 -1.85057 -0.430573 0
M  V30 12216 H 1110.27 -2.75204 -2.74218 0
M  V30 12217 H 1111.95 -4.53631 -0.837676 0
M  V30 12218 H 1110.19 -4.27793 -0.719387 0
M  V30 12219 H 1110.86 -5.08939 -2.1374 0
M  V30 12220 H 1113.34 -3.22603 -2.62805 0
M  V30 12221 H 1112.21 -3.96117 -3.79977 0
M  V30 12222 H 1112.47 -2.22425 -3.82073 0
M  V30 12223 N 1111.53 0.65634 -1.43283 0
M  V30 12224 C 1112.46 1.78101 -1.51004 0
M  V30 12225 C 1113.44 1.66138 -0.36498 0
M  V30 12226 O 1114.63 1.85281 -0.581778 0
M  V30 12227 C 1111.76 3.16511 -1.42961 0
M  V30 12228 C 1110.71 3.43233 -2.55685 0
M  V30 12229 C 1110.04 4.81411 -2.32696 0
M  V30 12230 C 1111.34 3.38288 -3.97943 0
M  V30 12231 H 1113.03 1.71896 -2.45137 0
M  V30 12232 H 1110.58 0.825575 -1.17984 0
M  V30 12233 H 1112.53 3.94941 -1.46968 0
M  V30 12234 H 1111.25 3.23439 -0.45332 0
M  V30 12235 H 1109.91 2.67173 -2.51026 0
M  V30 12236 H 1109.56 4.85011 -1.33317 0
M  V30 12237 H 1109.26 5.00251 -3.08257 0
M  V30 12238 H 1110.79 5.62102 -2.38481 0
M  V30 12239 H 1112.2 4.06659 -4.04106 0
M  V30 12240 H 1110.6 3.68664 -4.73505 0
M  V30 12241 H 1111.67 2.36525 -4.23301 0
M  V30 12242 N 1113.01 1.29761 0.894412 0
M  V30 12243 C 1113.94 1.1115 2.00445 0
M  V30 12244 C 1114.95 0.0574655 1.62699 0
M  V30 12245 O 1116.14 0.302528 1.75918 0
M  V30 12246 C 1113.24 0.670984 3.32191 0
M  V30 12247 C 1112.42 1.80471 3.98433 0
M  V30 12248 C 1111.48 1.35431 5.08473 0
M  V30 12249 O 1110.5 2.05994 5.30618 0
M  V30 12250 N 1111.7 0.22811 5.80052 0
M  V30 12251 H 1114.47 2.06753 2.16964 0
M  V30 12252 H 1112.03 1.21772 1.06692 0
M  V30 12253 H 1114.02 0.352877 4.03159 0
M  V30 12254 H 1112.59 -0.192735 3.12005 0
M  V30 12255 H 1111.81 2.29142 3.20761 0
M  V30 12256 H 1113.1 2.56471 4.39431 0
M  V30 12257 H 1112.5 -0.360076 5.64553 0
M  V30 12258 H 1111.05 -0.0305985 6.51793 0
M  V30 12259 N 1114.49 -1.10549 1.12324 0
M  V30 12260 C 1115.42 -2.16657 0.747826 0
M  V30 12261 C 1116.43 -1.61238 -0.224981 0
M  V30 12262 O 1117.62 -1.78499 -0.00649408 0
M  V30 12263 C 1114.72 -3.38791 0.0859421 0
M  V30 12264 C 1113.89 -4.23655 1.08792 0
M  V30 12265 C 1112.95 -5.24239 0.453871 0
M  V30 12266 O 1111.98 -5.58262 1.11052 0
M  V30 12267 N 1113.18 -5.75246 -0.779215 0
M  V30 12268 H 1115.95 -2.49472 1.66084 0
M  V30 12269 H 1113.51 -1.26157 1.01469 0
M  V30 12270 H 1115.5 -4.03182 -0.350186 0
M  V30 12271 H 1114.07 -3.03961 -0.729807 0
M  V30 12272 H 1113.29 -3.55578 1.70171 0
M  V30 12273 H 1114.58 -4.77187 1.76549 0
M  V30 12274 H 1113.98 -5.49802 -1.3317 0
M  V30 12275 H 1112.53 -6.41428 -1.15818 0
M  V30 12276 N 1115.97 -0.914965 -1.28321 0
M  V30 12277 C 1116.91 -0.394477 -2.29231 0
M  V30 12278 C 1117.91 0.514481 -1.61398 0
M  V30 12279 O 1119.11 0.395591 -1.75599 0
M  V30 12280 H 1115.49 -0.108969 -0.744063 0
M  V30 12281 H 1117.46 -1.25862 -2.70557 0
M  V30 12282 C 1116.21 0.349134 -3.45943 0
M  V30 12283 H 1115.53 -0.341087 -3.98342 0
M  V30 12284 H 1116.97 0.677944 -4.18545 0
M  V30 12285 C 1115.43 1.55747 -2.98738 0
M  V30 12286 O 1115.96 2.65654 -3.01315 0
M  V30 12287 N 1114.17 1.40488 -2.54384 0
M  V30 12288 H 1113.71 0.510716 -2.52487 0
M  V30 12289 H 1113.67 2.21464 -2.23161 0
M  V30 12290 N 1117.44 1.42219 -0.679077 0
M  V30 12291 C 1118.85 1.8459 -0.279877 0
M  V30 12292 C 1119.21 1.56839 1.17881 0
M  V30 12293 O 1118.33 1.03039 1.90294 0
M  V30 12294 C 1118.93 3.35072 -0.501185 0
M  V30 12295 C 1117.48 3.76076 -0.156065 0
M  V30 12296 C 1116.63 2.65763 -0.791549 0
M  V30 12297 H 1119.58 1.32005 -0.880932 0
M  V30 12298 H 1119.6 3.79708 0.245349 0
M  V30 12299 H 1119.12 3.55239 -1.56291 0
M  V30 12300 H 1117.22 3.61516 0.90205 0
M  V30 12301 H 1117.33 4.75334 -0.599572 0
M  V30 12302 H 1115.69 2.53726 -0.222514 0
M  V30 12303 H 1116.48 2.88751 -1.85682 0
M  V30 12304 N 1118.92 0.422693 1.51826 0
M  V30 12305 C 1120.17 -0.150066 2.01141 0
M  V30 12306 C 1120.48 -1.45059 1.31214 0
M  V30 12307 O 1121.69 -2.10542 1.71419 0
M  V30 12308 C 1120.15 -0.317985 3.58492 0
M  V30 12309 C 1119.75 0.971244 4.37345 0
M  V30 12310 C 1121.5 -0.845303 4.15999 0
M  V30 12311 C 1119.4 0.769769 5.86369 0
M  V30 12312 H 1118.33 -0.0598567 0.75162 0
M  V30 12313 H 1120.99 0.550217 1.75057 0
M  V30 12314 H 1119.37 -1.08092 3.80962 0
M  V30 12315 H 1120.54 1.74138 4.26629 0
M  V30 12316 H 1118.86 1.42599 3.91222 0
M  V30 12317 H 1121.45 -1.01229 5.2503 0
M  V30 12318 H 1121.8 -1.82375 3.74226 0
M  V30 12319 H 1122.33 -0.141067 3.9755 0
M  V30 12320 H 1119.07 1.72017 6.32527 0
M  V30 12321 H 1118.59 0.0391717 5.99787 0
M  V30 12322 H 1120.27 0.417225 6.45653 0
M  V30 12323 N 1120.4 -1.5685 0.153553 0
M  V30 12324 C 1121.81 -1.83074 -0.36618 0
M  V30 12325 C 1122.16 -1.07257 -1.64288 0
M  V30 12326 O 1121.29 -0.319925 -2.14022 0
M  V30 12327 C 1121.88 -3.32086 -0.671142 0
M  V30 12328 C 1120.44 -3.58868 -1.13537 0
M  V30 12329 C 1119.59 -2.76827 -0.161887 0
M  V30 12330 H 1122.54 -1.54129 0.378139 0
M  V30 12331 H 1122.56 -3.48598 -1.52512 0
M  V30 12332 H 1122.07 -3.8724 0.258234 0
M  V30 12333 H 1120.17 -3.09107 -2.08047 0
M  V30 12334 H 1120.29 -4.67299 -1.05682 0
M  V30 12335 H 1118.65 -2.46112 -0.6558 0
M  V30 12336 H 1119.43 -3.34755 0.761195 0
M  V30 12337 N 1121.88 0.120221 -1.57141 0
M  V30 12338 C 1122.81 1.17787 -1.95452 0
M  V30 12339 C 1123.79 1.40174 -0.824016 0
M  V30 12340 O 1124.97 1.54348 -1.08208 0
M  V30 12341 C 1122.1 2.53193 -2.24969 0
M  V30 12342 C 1121.15 2.47241 -3.47526 0
M  V30 12343 S 1121.98 1.91325 -5.00155 0
M  V30 12344 C 1123.13 3.28406 -5.32823 0
M  V30 12345 H 1123.37 0.851152 -2.84856 0
M  V30 12346 H 1120.9 0.326929 -1.50899 0
M  V30 12347 H 1122.86 3.31104 -2.42652 0
M  V30 12348 H 1121.52 2.83043 -1.36181 0
M  V30 12349 H 1120.71 3.46981 -3.65541 0
M  V30 12350 H 1120.31 1.7745 -3.29223 0
M  V30 12351 H 1122.61 4.24613 -5.2793 0
M  V30 12352 H 1123.55 3.1522 -6.34068 0
M  V30 12353 H 1123.96 3.26779 -4.603 0
M  V30 12354 N 1123.36 1.52689 0.390367 0
M  V30 12355 C 1124.29 1.72118 1.49836 0
M  V30 12356 C 1125.27 0.568986 1.5232 0
M  V30 12357 O 1126.45 0.798623 1.70746 0
M  V30 12358 C 1123.58 1.77754 2.88307 0
M  V30 12359 C 1122.62 2.99492 3.03655 0
M  V30 12360 S 1123.46 4.59496 2.74998 0
M  V30 12361 C 1124.61 4.67946 4.15665 0
M  V30 12362 H 1124.85 2.65826 1.3313 0
M  V30 12363 H 1122.38 1.42964 0.583153 0
M  V30 12364 H 1124.34 1.81687 3.68103 0
M  V30 12365 H 1123 0.851406 3.02341 0
M  V30 12366 H 1122.19 2.99973 4.05009 0
M  V30 12367 H 1121.79 2.93544 2.3175 0
M  V30 12368 H 1124.09 4.46476 5.09573 0
M  V30 12369 H 1125.03 5.69945 4.202 0
M  V30 12370 H 1125.44 3.96799 4.01511 0
M  V30 12371 N 1124.83 -0.648732 1.43629 0
M  V30 12372 C 1126.11 -1.4062 1.35961 0
M  V30 12373 C 1126.49 -2.11098 0.00961023 0
M  V30 12374 O 1125.84 -2.05107 -1.00714 0
M  V30 12375 C 1126.05 -2.38719 2.54586 0
M  V30 12376 C 1127.4 -3.02584 2.97873 0
M  V30 12377 O 1128.42 -2.49046 2.54665 0
M  V30 12378 O 1127.28 -3.99662 3.72736 0
M  V30 12379 H 1124.37 -0.628483 0.53753 0
M  V30 12380 H 1126.92 -0.675263 1.55687 0
M  V30 12381 H 1125.69 -1.85619 3.44472 0
M  V30 12382 H 1125.32 -3.19257 2.36983 0
M  V30 12383 N 1126.31 -1.30234 -0.887518 0
M  V30 12384 C 1127.73 -1.0851 -1.17037 0
M  V30 12385 C 1127.93 0.155788 -2.00897 0
M  V30 12386 O 1126.98 0.850123 -2.37759 0
M  V30 12387 C 1128.3 -2.34723 -1.87951 0
M  V30 12388 C 1129.85 -2.40163 -2.00726 0
M  V30 12389 C 1130.32 -3.66211 -2.75051 0
M  V30 12390 N 1131.81 -3.67004 -2.82599 0
M  V30 12391 C 1132.55 -4.61224 -3.40676 0
M  V30 12392 N 1132.04 -5.65786 -3.99823 0
M  V30 12393 N 1133.84 -4.48772 -3.38467 0
M  V30 12394 H 1125.99 -2.09847 -0.328297 0
M  V30 12395 H 1128.25 -0.924904 -0.20798 0
M  V30 12396 H 1127.96 -3.25265 -1.33773 0
M  V30 12397 H 1127.83 -2.43175 -2.8835 0
M  V30 12398 H 1130.22 -1.50101 -2.54074 0
M  V30 12399 H 1130.3 -2.35688 -0.994218 0
M  V30 12400 H 1129.94 -4.56631 -2.22376 0
M  V30 12401 H 1129.87 -3.67947 -3.76726 0
M  V30 12402 H 1132.36 -2.91409 -2.40602 0
M  V30 12403 H 1132.68 -6.33783 -4.42197 0
M  V30 12404 H 1131.02 -5.69581 -3.9825 0
M  V30 12405 H 1134.21 -3.6627 -2.91485 0
M  V30 12406 H 1134.38 -5.22382 -3.83433 0
M  V30 12407 N 1127.79 1.09952 -1.12909 0
M  V30 12408 C 1128.74 2.18525 -0.796849 0
M  V30 12409 C 1129.73 1.67985 0.218483 0
M  V30 12410 O 1130.94 1.79839 0.07618 0
M  V30 12411 H 1127.31 0.712714 -0.239882 0
M  V30 12412 H 1129.28 2.43783 -1.72083 0
M  V30 12413 C 1128.03 3.46625 -0.273237 0
M  V30 12414 H 1127.36 3.85879 -1.04582 0
M  V30 12415 H 1128.8 4.23926 -0.0791355 0
M  V30 12416 C 1127.26 3.2172 0.999903 0
M  V30 12417 O 1127.79 3.43851 2.07676 0
M  V30 12418 N 1125.99 2.75356 0.928833 0
M  V30 12419 H 1125.54 2.57547 0.052379 0
M  V30 12420 H 1125.5 2.5907 1.78129 0
M  V30 12421 N 1129.27 0.921757 1.27833 0
M  V30 12422 C 1130.22 0.414838 2.27041 0
M  V30 12423 C 1131.19 -0.515045 1.57913 0
M  V30 12424 O 1132.37 -0.435499 1.85763 0
M  V30 12425 C 1129.51 -0.331744 3.43502 0
M  V30 12426 C 1128.62 0.631565 4.27358 0
M  V30 12427 C 1127.76 -0.134265 5.3103 0
M  V30 12428 C 1126.8 0.822138 6.06554 0
M  V30 12429 N 1125.93 0.0893149 7.02043 0
M  V30 12430 H 1130.77 1.26585 2.69778 0
M  V30 12431 H 1128.31 0.635488 1.32665 0
M  V30 12432 H 1130.27 -0.780866 4.09827 0
M  V30 12433 H 1128.9 -1.14704 3.01733 0
M  V30 12434 H 1127.95 1.19922 3.61003 0
M  V30 12435 H 1129.26 1.36274 4.79824 0
M  V30 12436 H 1128.42 -0.643579 6.03277 0
M  V30 12437 H 1127.16 -0.898443 4.79353 0
M  V30 12438 H 1126.16 1.34275 5.33151 0
M  V30 12439 H 1127.39 1.586 6.6032 0
M  V30 12440 H 1125.33 -0.656725 6.52704 0
M  V30 12441 H 1125.25 0.760167 7.52169 0
M  V30 12442 H 1126.52 -0.399541 7.78475 0
M  V30 12443 N 1130.75 -1.41857 0.686609 0
M  V30 12444 C 1131.71 -2.29187 0.0247022 0
M  V30 12445 C 1132.71 -1.43926 -0.717069 0
M  V30 12446 O 1133.9 -1.65179 -0.5533 0
M  V30 12447 C 1131.03 -3.26644 -0.975537 0
M  V30 12448 H 1132.22 -2.89212 0.793503 0
M  V30 12449 H 1129.78 -1.49694 0.449605 0
M  V30 12450 H 1130.51 -2.7158 -1.77242 0
M  V30 12451 H 1130.3 -3.89545 -0.446892 0
M  V30 12452 H 1131.79 -3.92107 -1.43673 0
M  V30 12453 N 1132.22 -0.430739 -1.51599 0
M  V30 12454 C 1133.5 0.197543 -1.946 0
M  V30 12455 C 1133.88 1.6069 -1.36901 0
M  V30 12456 O 1133.23 2.21697 -0.553422 0
M  V30 12457 C 1133.44 0.181976 -3.48525 0
M  V30 12458 C 1134.79 0.390783 -4.22798 0
M  V30 12459 O 1135.81 0.260384 -3.55247 0
M  V30 12460 O 1134.67 0.649701 -5.42624 0
M  V30 12461 H 1131.76 0.133524 -0.81615 0
M  V30 12462 H 1134.31 -0.488243 -1.62525 0
M  V30 12463 H 1133.08 -0.803584 -3.8296 0
M  V30 12464 H 1132.71 0.910952 -3.87024 0
M  V30 12465 N 1133.7 1.56767 -0.161869 0
M  V30 12466 C 1134.61 2.21083 0.784814 0
M  V30 12467 C 1135.63 1.19959 1.26039 0
M  V30 12468 O 1136.8 1.52588 1.31449 0
M  V30 12469 C 1133.87 2.83153 2.00063 0
M  V30 12470 C 1132.93 3.9945 1.57285 0
M  V30 12471 C 1132.16 4.5855 2.7307 0
M  V30 12472 O 1132.39 4.16534 3.89686 0
M  V30 12473 O 1131.32 5.48575 2.47688 0
M  V30 12474 H 1135.15 3.02522 0.267243 0
M  V30 12475 H 1132.73 1.49255 0.0658783 0
M  V30 12476 H 1134.61 3.22546 2.71186 0
M  V30 12477 H 1133.29 2.04718 2.50744 0
M  V30 12478 H 1132.2 3.64745 0.831393 0
M  V30 12479 H 1133.53 4.7945 1.11304 0
M  V30 12480 N 1135.18 -0.111886 1.57202 0
M  V30 12481 C 1136.11 -1.13796 2.03894 0
M  V30 12482 C 1137.09 -1.4277 0.924696 0
M  V30 12483 O 1138.28 -1.53089 1.19488 0
M  V30 12484 C 1135.41 -2.46229 2.44925 0
M  V30 12485 C 1134.36 -2.31702 3.59859 0
M  V30 12486 C 1133.69 -3.69161 3.86813 0
M  V30 12487 C 1134.99 -1.77158 4.91337 0
M  V30 12488 H 1136.68 -0.749581 2.89865 0
M  V30 12489 H 1134.23 -0.359126 1.3945 0
M  V30 12490 H 1136.18 -3.18267 2.76195 0
M  V30 12491 H 1134.9 -2.86971 1.55933 0
M  V30 12492 H 1133.56 -1.62112 3.28809 0
M  V30 12493 H 1133.21 -4.07401 2.95015 0
M  V30 12494 H 1132.91 -3.60292 4.6418 0
M  V30 12495 H 1134.43 -4.42693 4.20542 0
M  V30 12496 H 1135.85 -2.3902 5.21097 0
M  V30 12497 H 1134.25 -1.79091 5.72753 0
M  V30 12498 H 1135.32 -0.729675 4.79379 0
M  V30 12499 N 1136.66 -1.52894 -0.382264 0
M  V30 12500 C 1138.07 -1.60135 -0.959887 0
M  V30 12501 C 1138.42 -0.458363 -1.90771 0
M  V30 12502 O 1137.55 0.417614 -2.12332 0
M  V30 12503 C 1138.14 -2.90243 -1.74769 0
M  V30 12504 C 1136.7 -2.99874 -2.27491 0
M  V30 12505 C 1135.85 -2.55302 -1.0824 0
M  V30 12506 H 1138.8 -1.57875 -0.161589 0
M  V30 12507 H 1138.82 -2.77108 -2.60751 0
M  V30 12508 H 1138.33 -3.73412 -1.0576 0
M  V30 12509 H 1136.43 -2.21258 -2.99793 0
M  V30 12510 H 1136.54 -4.04643 -2.56516 0
M  V30 12511 H 1134.91 -2.09781 -1.44444 0
M  V30 12512 H 1135.69 -3.40872 -0.407553 0
M  V30 12513 N 1138.14 0.641106 -1.43971 0
M  V30 12514 C 1139.08 1.75352 -1.50068 0
M  V30 12515 C 1140.05 1.62386 -0.349266 0
M  V30 12516 O 1141.24 1.82455 -0.558118 0
M  V30 12517 C 1138.38 3.13561 -1.4413 0
M  V30 12518 C 1137.49 3.37574 -2.6957 0
M  V30 12519 C 1136.63 4.65698 -2.55535 0
M  V30 12520 C 1135.67 4.82857 -3.76186 0
M  V30 12521 N 1134.8 6.02249 -3.60888 0
M  V30 12522 H 1139.64 1.69477 -2.45116 0
M  V30 12523 H 1137.18 0.826871 -1.2166 0
M  V30 12524 H 1139.14 3.93476 -1.38681 0
M  V30 12525 H 1137.77 3.18476 -0.526563 0
M  V30 12526 H 1136.82 2.5167 -2.85248 0
M  V30 12527 H 1138.13 3.46135 -3.59154 0
M  V30 12528 H 1137.29 5.53759 -2.47862 0
M  V30 12529 H 1136.03 4.59479 -1.63495 0
M  V30 12530 H 1135.03 3.93229 -3.84254 0
M  V30 12531 H 1136.26 4.90898 -4.6925 0
M  V30 12532 H 1134.2 5.97138 -2.71591 0
M  V30 12533 H 1134.12 6.11822 -4.44083 0
M  V30 12534 H 1135.39 6.92898 -3.57088 0
M  V30 12535 N 1139.62 1.30703 0.880598 0
M  V30 12536 C 1140.55 1.20033 2.00286 0
M  V30 12537 C 1141.53 0.0899614 1.69862 0
M  V30 12538 O 1142.71 0.272747 1.92275 0
M  V30 12539 C 1139.84 0.895902 3.35546 0
M  V30 12540 C 1138.8 1.96468 3.80242 0
M  V30 12541 C 1138.12 1.51316 5.12843 0
M  V30 12542 C 1139.42 3.37637 3.98496 0
M  V30 12543 H 1141.12 2.13922 2.0947 0
M  V30 12544 H 1138.66 1.02989 1.00644 0
M  V30 12545 H 1140.61 0.807899 4.13583 0
M  V30 12546 H 1139.34 -0.0786636 3.26505 0
M  V30 12547 H 1138 2.0424 3.04437 0
M  V30 12548 H 1137.65 0.52674 5.00234 0
M  V30 12549 H 1137.35 2.22807 5.43719 0
M  V30 12550 H 1138.87 1.43903 5.93401 0
M  V30 12551 H 1140.28 3.326 4.66959 0
M  V30 12552 H 1138.68 4.07253 4.40755 0
M  V30 12553 H 1139.75 3.79205 3.02211 0
M  V30 12554 N 1141.09 -1.09351 1.1349 0
M  V30 12555 C 1142.03 -2.15852 0.770763 0
M  V30 12556 C 1143.04 -1.61468 -0.207866 0
M  V30 12557 O 1144.23 -1.78496 0.0124385 0
M  V30 12558 C 1141.33 -3.38681 0.121871 0
M  V30 12559 C 1140.5 -4.22477 1.13279 0
M  V30 12560 C 1139.56 -5.23728 0.509448 0
M  V30 12561 O 1138.59 -5.57052 1.16967 0
M  V30 12562 N 1139.79 -5.76041 -0.718159 0
M  V30 12563 H 1142.55 -2.47696 1.6872 0
M  V30 12564 H 1140.11 -1.25074 1.02801 0
M  V30 12565 H 1142.11 -4.03531 -0.307404 0
M  V30 12566 H 1140.68 -3.04718 -0.697527 0
M  V30 12567 H 1139.9 -3.53753 1.73933 0
M  V30 12568 H 1141.18 -4.75288 1.81601 0
M  V30 12569 H 1140.58 -5.51183 -1.27331 0
M  V30 12570 H 1139.14 -6.4262 -1.09008 0
M  V30 12571 N 1142.57 -0.928524 -1.27343 0
M  V30 12572 C 1143.82 -0.570235 -1.94618 0
M  V30 12573 C 1144.15 0.886381 -1.72792 0
M  V30 12574 O 1143.43 1.63242 -1.05747 0
M  V30 12575 C 1143.71 -0.897964 -3.48724 0
M  V30 12576 C 1143.56 -2.40839 -3.7989 0
M  V30 12577 C 1144.88 -0.404429 -4.38238 0
M  V30 12578 H 1142 -0.208645 -0.70685 0
M  V30 12579 H 1144.64 -1.16045 -1.50444 0
M  V30 12580 H 1142.79 -0.395679 -3.8648 0
M  V30 12581 H 1144.46 -2.98243 -3.51921 0
M  V30 12582 H 1142.71 -2.85723 -3.26412 0
M  V30 12583 H 1143.38 -2.58823 -4.8756 0
M  V30 12584 H 1145.85 -0.834918 -4.07637 0
M  V30 12585 H 1144.73 -0.662684 -5.44885 0
M  V30 12586 H 1144.99 0.695507 -4.36595 0
M  V30 12587 N 1144.05 1.41491 -0.694123 0
M  V30 12588 C 1145.3 2.00854 -0.224033 0
M  V30 12589 C 1145.62 1.55246 1.17999 0
M  V30 12590 O 1144.89 0.782452 1.79595 0
M  V30 12591 H 1143.47 0.742721 -0.0798368 0
M  V30 12592 H 1146.13 1.73137 -0.894958 0
M  V30 12593 H 1145.23 3.11173 -0.240332 0
M  V30 12594 N 1145.53 0.438773 1.51369 0
M  V30 12595 C 1146.77 -0.127213 2.021 0
M  V30 12596 C 1147.1 -1.42587 1.32284 0
M  V30 12597 O 1146.36 -1.90986 0.426949 0
M  V30 12598 C 1146.66 -0.39186 3.55245 0
M  V30 12599 C 1146.32 0.821158 4.4336 0
M  V30 12600 C 1144.98 1.15381 4.67162 0
M  V30 12601 C 1147.34 1.6303 4.95046 0
M  V30 12602 C 1144.66 2.29626 5.39897 0
M  V30 12603 C 1147.02 2.76376 5.69033 0
M  V30 12604 C 1145.68 3.10094 5.91099 0
M  V30 12605 H 1144.95 -0.0465505 0.739536 0
M  V30 12606 H 1147.6 0.586261 1.82305 0
M  V30 12607 H 1145.9 -1.18724 3.73379 0
M  V30 12608 H 1147.6 -0.843228 3.92034 0
M  V30 12609 H 1144.19 0.551946 4.25031 0
M  V30 12610 H 1148.37 1.38651 4.76539 0
M  V30 12611 H 1143.63 2.56062 5.55196 0
M  V30 12612 H 1147.8 3.39442 6.08072 0
M  V30 12613 H 1145.43 3.98731 6.47238 0
M  V30 12614 N 1147.01 -1.56678 0.170181 0
M  V30 12615 C 1148.25 -1.96024 -0.475147 0
M  V30 12616 C 1148.57 -1.0588 -1.64465 0
M  V30 12617 O 1149.77 -1.34901 -2.35614 0
M  V30 12618 C 1148.23 -3.4855 -0.896704 0
M  V30 12619 C 1147.84 -4.47318 0.247142 0
M  V30 12620 C 1149.58 -3.96716 -1.51052 0
M  V30 12621 C 1147.49 -5.91082 -0.193982 0
M  V30 12622 H 1146.42 -0.731883 -0.181282 0
M  V30 12623 H 1149.07 -1.81674 0.25823 0
M  V30 12624 H 1147.45 -3.58314 -1.68603 0
M  V30 12625 H 1148.63 -4.49268 1.02445 0
M  V30 12626 H 1146.94 -4.09203 0.770839 0
M  V30 12627 H 1149.54 -5.01581 -1.85258 0
M  V30 12628 H 1149.88 -3.39588 -2.40802 0
M  V30 12629 H 1150.41 -3.89965 -0.785652 0
M  V30 12630 H 1147.15 -6.5208 0.668714 0
M  V30 12631 H 1146.67 -5.92441 -0.936675 0
M  V30 12632 H 1148.35 -6.43844 -0.638237 0
M  V30 12633 N 1148.48 0.103547 -1.57259 0
M  V30 12634 C 1149.76 0.839768 -1.76656 0
M  V30 12635 C 1150.14 1.9734 -0.749666 0
M  V30 12636 O 1149.49 2.27405 0.223466 0
M  V30 12637 C 1149.7 1.34218 -3.22159 0
M  V30 12638 C 1151.05 1.78835 -3.85102 0
M  V30 12639 O 1152.07 1.43861 -3.25857 0
M  V30 12640 O 1150.93 2.43474 -4.89267 0
M  V30 12641 H 1148.02 0.399928 -0.723869 0
M  V30 12642 H 1150.57 0.0860857 -1.69482 0
M  V30 12643 H 1149.34 0.52956 -3.877 0
M  V30 12644 H 1148.96 2.15811 -3.33933 0
M  V30 12645 N 1149.96 1.53094 0.37415 0
M  V30 12646 C 1151.21 1.68861 1.11769 0
M  V30 12647 C 1151.54 0.436032 1.89549 0
M  V30 12648 O 1150.79 -0.581879 1.86849 0
M  V30 12649 C 1151.09 2.88432 2.11049 0
M  V30 12650 C 1150.76 4.25284 1.49814 0
M  V30 12651 C 1149.42 4.62501 1.32841 0
M  V30 12652 C 1151.77 5.10425 1.05433 0
M  V30 12653 C 1149.1 5.82502 0.700567 0
M  V30 12654 C 1151.45 6.31064 0.440525 0
M  V30 12655 C 1150.11 6.67 0.258216 0
M  V30 12656 H 1149.38 0.617906 0.40899 0
M  V30 12657 H 1152.03 1.87265 0.4005 0
M  V30 12658 H 1150.34 2.64505 2.8904 0
M  V30 12659 H 1152.03 2.97825 2.68517 0
M  V30 12660 H 1148.62 3.95976 1.64016 0
M  V30 12661 H 1152.81 4.82229 1.17342 0
M  V30 12662 H 1148.06 6.08942 0.547652 0
M  V30 12663 H 1152.24 6.96344 0.0883962 0
M  V30 12664 H 1149.86 7.59851 -0.230354 0
M  V30 12665 N 1151.44 -0.633461 1.44309 0
M  V30 12666 C 1152.69 -1.39513 1.47187 0
M  V30 12667 C 1153.02 -1.93926 0.103186 0
M  V30 12668 O 1152.29 -1.73512 -0.878853 0
M  V30 12669 C 1152.58 -2.56213 2.53036 0
M  V30 12670 C 1152.43 -2.07164 3.99253 0
M  V30 12671 C 1153.75 -3.58403 2.55412 0
M  V30 12672 H 1150.87 -0.505936 0.535908 0
M  V30 12673 H 1153.51 -0.716445 1.75975 0
M  V30 12674 H 1151.66 -3.14111 2.28619 0
M  V30 12675 H 1153.33 -1.54115 4.34795 0
M  V30 12676 H 1151.57 -1.38367 4.11141 0
M  V30 12677 H 1152.25 -2.91172 4.6896 0
M  V30 12678 H 1154.72 -3.103 2.77224 0
M  V30 12679 H 1153.6 -4.37581 3.31382 0
M  V30 12680 H 1153.86 -4.12316 1.59523 0
M  V30 12681 N 1152.92 -1.31168 -0.873655 0
M  V30 12682 C 1154.16 -1.21938 -1.64044 0
M  V30 12683 C 1154.52 0.219903 -1.90737 0
M  V30 12684 O 1155.72 0.435635 -2.65246 0
M  V30 12685 C 1153.99 -2.03633 -2.93715 0
M  V30 12686 S 1155.55 -2.11224 -3.84616 0
M  V30 12687 H 1152.37 -0.43436 -0.562896 0
M  V30 12688 H 1154.97 -1.65786 -1.03612 0
M  V30 12689 H 1153.68 -3.07298 -2.72022 0
M  V30 12690 H 1153.21 -1.6049 -3.59175 0
M  V30 12691 H 1155.22 -1.24787 -4.80253 0
M  V30 12692 N 1154.4 1.08748 -1.14068 0
M  V30 12693 C 1155.62 1.84814 -0.930138 0
M  V30 12694 C 1156.04 1.81461 0.521267 0
M  V30 12695 O 1155.4 1.21577 1.36108 0
M  V30 12696 C 1155.45 3.32501 -1.41863 0
M  V30 12697 O 1155.17 3.35846 -2.81317 0
M  V30 12698 C 1156.67 4.25384 -1.24753 0
M  V30 12699 H 1153.89 0.583546 -0.331233 0
M  V30 12700 H 1156.43 1.37366 -1.51495 0
M  V30 12701 H 1154.59 3.7735 -0.876664 0
M  V30 12702 H 1155 4.28013 -3.03159 0
M  V30 12703 H 1156.48 5.27138 -1.63798 0
M  V30 12704 H 1156.95 4.38789 -0.18999 0
M  V30 12705 H 1157.56 3.86357 -1.77787 0
M  V30 12706 N 1155.87 0.935264 1.26849 0
M  V30 12707 C 1157.12 0.57969 1.94025 0
M  V30 12708 C 1157.45 -0.880295 1.73439 0
M  V30 12709 O 1156.7 -1.64429 1.0612 0
M  V30 12710 C 1157 0.861098 3.46872 0
M  V30 12711 C 1156.67 2.30402 3.87589 0
M  V30 12712 C 1155.33 2.69848 3.98417 0
M  V30 12713 C 1157.68 3.242 4.08098 0
M  V30 12714 C 1155.01 4.02199 4.27145 0
M  V30 12715 C 1157.36 4.56141 4.38313 0
M  V30 12716 C 1156.03 4.9541 4.47354 0
M  V30 12717 H 1155.3 0.212123 0.709989 0
M  V30 12718 H 1157.94 1.18066 1.50774 0
M  V30 12719 H 1156.25 0.177534 3.91398 0
M  V30 12720 H 1157.95 0.564841 3.97002 0
M  V30 12721 H 1154.54 1.98803 3.79704 0
M  V30 12722 H 1158.72 2.94924 3.99166 0
M  V30 12723 H 1153.98 4.32295 4.32355 0
M  V30 12724 H 1158.15 5.28818 4.53128 0
M  V30 12725 H 1155.78 5.97994 4.69368 0
M  V30 12726 N 1157.35 -1.41121 0.701616 0
M  V30 12727 C 1158.6 -2.01428 0.235495 0
M  V30 12728 C 1158.93 -1.55463 -1.16382 0
M  V30 12729 O 1158.21 -0.768477 -1.78675 0
M  V30 12730 C 1158.49 -3.58849 0.299919 0
M  V30 12731 C 1158.34 -4.14924 1.73661 0
M  V30 12732 C 1159.66 -4.38809 -0.336856 0
M  V30 12733 H 1156.78 -0.731842 0.0870456 0
M  V30 12734 H 1159.42 -1.67787 0.891479 0
M  V30 12735 H 1157.57 -3.87638 -0.258611 0
M  V30 12736 H 1159.24 -3.96987 2.34945 0
M  V30 12737 H 1157.49 -3.69738 2.26884 0
M  V30 12738 H 1158.16 -5.24085 1.73318 0
M  V30 12739 H 1160.63 -4.15868 0.138886 0
M  V30 12740 H 1159.51 -5.48278 -0.261264 0
M  V30 12741 H 1159.77 -4.18728 -1.41843 0
M  V30 12742 N 1158.83 -0.446794 -1.51134 0
M  V30 12743 C 1160.06 0.114727 -2.06281 0
M  V30 12744 C 1160.47 1.36192 -1.31333 0
M  V30 12745 O 1159.81 1.79956 -0.368982 0
M  V30 12746 C 1159.87 0.492968 -3.56104 0
M  V30 12747 C 1159.54 -0.648755 -4.52372 0
M  V30 12748 C 1160.53 -1.52369 -4.97071 0
M  V30 12749 C 1158.22 -0.832177 -4.95359 0
M  V30 12750 C 1160.21 -2.56667 -5.83439 0
M  V30 12751 C 1157.9 -1.87841 -5.81514 0
M  V30 12752 C 1158.9 -2.74404 -6.25453 0
M  V30 12753 O 1158.59 -3.7723 -7.09896 0
M  V30 12754 H 1158.32 0.007138 -0.675962 0
M  V30 12755 H 1160.87 -0.627452 -1.95582 0
M  V30 12756 H 1159.1 1.28799 -3.6462 0
M  V30 12757 H 1160.79 0.986739 -3.93724 0
M  V30 12758 H 1161.56 -1.39356 -4.64548 0
M  V30 12759 H 1157.44 -0.167954 -4.60694 0
M  V30 12760 H 1160.98 -3.24264 -6.17656 0
M  V30 12761 H 1156.88 -2.00871 -6.1345 0
M  V30 12762 H 1157.65 -3.73924 -7.28095 0
M  V30 12763 N 1160.31 1.56586 -0.178487 0
M  V30 12764 C 1161.26 2.18309 0.74899 0
M  V30 12765 C 1162.23 1.12525 1.22178 0
M  V30 12766 O 1163.41 1.40706 1.28866 0
M  V30 12767 C 1160.55 2.83353 1.9699 0
M  V30 12768 C 1159.66 4.03618 1.54002 0
M  V30 12769 C 1158.8 4.56567 2.71514 0
M  V30 12770 C 1157.84 5.69226 2.25051 0
M  V30 12771 N 1156.97 6.16654 3.35682 0
M  V30 12772 H 1161.81 2.97217 0.21587 0
M  V30 12773 H 1159.35 1.46794 0.0948182 0
M  V30 12774 H 1161.31 3.19226 2.68609 0
M  V30 12775 H 1159.94 2.07037 2.4766 0
M  V30 12776 H 1158.99 3.73518 0.720298 0
M  V30 12777 H 1160.3 4.85148 1.15901 0
M  V30 12778 H 1159.46 4.94659 3.5128 0
M  V30 12779 H 1158.2 3.7411 3.12879 0
M  V30 12780 H 1157.2 5.30679 1.43734 0
M  V30 12781 H 1158.43 6.5349 1.84736 0
M  V30 12782 H 1156.37 5.37124 3.76609 0
M  V30 12783 H 1156.29 6.93192 3.01697 0
M  V30 12784 H 1157.56 6.59397 4.15711 0
M  V30 12785 N 1161.79 -0.095206 1.57312 0
M  V30 12786 C 1162.7 -1.13388 2.05379 0
M  V30 12787 C 1163.71 -1.43868 0.978668 0
M  V30 12788 O 1164.89 -1.54512 1.29182 0
M  V30 12789 C 1161.95 -2.43444 2.46852 0
M  V30 12790 C 1161.01 -2.20146 3.68557 0
M  V30 12791 C 1160.25 -3.44001 4.08043 0
M  V30 12792 O 1160.47 -4.52233 3.47623 0
M  V30 12793 O 1159.4 -3.33596 5.00997 0
M  V30 12794 H 1163.23 -0.755622 2.9415 0
M  V30 12795 H 1160.82 -0.307707 1.46197 0
M  V30 12796 H 1162.7 -3.20027 2.74155 0
M  V30 12797 H 1161.37 -2.80696 1.61219 0
M  V30 12798 H 1160.28 -1.41345 3.46371 0
M  V30 12799 H 1161.61 -1.87787 4.54969 0
M  V30 12800 N 1163.26 -1.53291 -0.366026 0
M  V30 12801 C 1164.51 -1.69451 -1.10872 0
M  V30 12802 C 1164.84 -0.446078 -1.89316 0
M  V30 12803 O 1164.09 0.571962 -1.87155 0
M  V30 12804 C 1164.39 -2.89547 -2.09517 0
M  V30 12805 C 1164.06 -4.26073 -1.47556 0
M  V30 12806 C 1162.72 -4.63199 -1.30386 0
M  V30 12807 C 1165.07 -5.10977 -1.02724 0
M  V30 12808 C 1162.4 -5.82866 -0.669666 0
M  V30 12809 C 1164.75 -6.31289 -0.407052 0
M  V30 12810 C 1163.42 -6.67128 -0.222839 0
M  V30 12811 H 1162.69 -0.620066 -0.405708 0
M  V30 12812 H 1165.33 -1.87475 -0.390563 0
M  V30 12813 H 1163.64 -2.66034 -2.87634 0
M  V30 12814 H 1165.34 -2.99245 -2.66933 0
M  V30 12815 H 1161.93 -3.9684 -1.61914 0
M  V30 12816 H 1166.11 -4.82844 -1.14783 0
M  V30 12817 H 1161.37 -6.09224 -0.515351 0
M  V30 12818 H 1165.54 -6.96381 -0.0514661 0
M  V30 12819 H 1163.17 -7.59718 0.270647 0
M  V30 12820 N 1164.74 0.6258 -1.44643 0
M  V30 12821 C 1165.97 1.41726 -1.51422 0
M  V30 12822 C 1166.39 1.87565 -0.14181 0
M  V30 12823 O 1165.75 1.59059 0.870054 0
M  V30 12824 C 1165.8 2.61012 -2.48807 0
M  V30 12825 O 1164.9 3.61029 -1.99328 0
M  V30 12826 H 1164.24 0.423855 -0.511119 0
M  V30 12827 H 1166.77 0.763336 -1.89827 0
M  V30 12828 H 1166.78 3.08489 -2.67018 0
M  V30 12829 H 1165.46 2.26995 -3.48491 0
M  V30 12830 H 1164.04 3.20325 -1.90909 0
M  V30 12831 N 1166.22 1.31629 0.866686 0
M  V30 12832 C 1167.64 1.10358 1.15296 0
M  V30 12833 C 1167.84 -0.123807 2.01119 0
M  V30 12834 O 1166.89 -0.81219 2.39081 0
M  V30 12835 C 1168.21 2.37684 1.84193 0
M  V30 12836 C 1169.75 2.43326 1.9688 0
M  V30 12837 C 1170.23 3.70541 2.69191 0
M  V30 12838 N 1171.72 3.71454 2.76724 0
M  V30 12839 C 1172.45 4.66585 3.33295 0
M  V30 12840 N 1171.95 5.72075 3.90771 0
M  V30 12841 N 1173.74 4.541 3.31284 0
M  V30 12842 H 1165.89 2.10343 0.29487 0
M  V30 12843 H 1168.16 0.928096 0.193239 0
M  V30 12844 H 1167.86 3.27352 1.28582 0
M  V30 12845 H 1167.74 2.47731 2.84445 0
M  V30 12846 H 1170.12 1.54124 2.51654 0
M  V30 12847 H 1170.21 2.3724 0.956596 0
M  V30 12848 H 1169.85 4.60111 2.15083 0
M  V30 12849 H 1169.78 3.73894 3.70825 0
M  V30 12850 H 1172.27 2.952 2.35936 0
M  V30 12851 H 1172.58 6.40738 4.32058 0
M  V30 12852 H 1170.93 5.75844 3.89138 0
M  V30 12853 H 1174.12 3.70861 2.85622 0
M  V30 12854 H 1174.29 5.28416 3.75074 0
M  V30 12855 N 1167.7 -1.08142 1.14644 0
M  V30 12856 C 1168.95 -1.80582 0.916327 0
M  V30 12857 C 1169.27 -1.86355 -0.556969 0
M  V30 12858 O 1168.53 -1.33736 -1.42875 0
M  V30 12859 C 1168.83 -3.25962 1.46573 0
M  V30 12860 C 1168.49 -3.40302 2.95814 0
M  V30 12861 C 1167.16 -3.43922 3.36557 0
M  V30 12862 C 1169.51 -3.43758 3.91765 0
M  V30 12863 C 1166.84 -3.48594 4.7191 0
M  V30 12864 C 1169.19 -3.49965 5.26979 0
M  V30 12865 C 1167.85 -3.5186 5.67231 0
M  V30 12866 H 1167.12 -0.660795 0.335308 0
M  V30 12867 H 1169.77 -1.27309 1.43055 0
M  V30 12868 H 1168.07 -3.81961 0.872507 0
M  V30 12869 H 1169.77 -3.80571 1.2636 0
M  V30 12870 H 1166.36 -3.38176 2.63315 0
M  V30 12871 H 1170.55 -3.40189 3.61366 0
M  V30 12872 H 1165.8 -3.48355 5.02453 0
M  V30 12873 H 1169.98 -3.51585 6.01133 0
M  V30 12874 H 1167.6 -3.55233 6.72097 0
M  V30 12875 N 1169.18 -0.941978 -1.26351 0
M  V30 12876 C 1170.13 -0.423053 -2.24041 0
M  V30 12877 C 1171.11 0.480668 -1.53553 0
M  V30 12878 O 1172.3 0.315783 -1.7416 0
M  V30 12879 C 1169.43 0.309814 -3.41899 0
M  V30 12880 C 1168.52 -0.611245 -4.19672 0
M  V30 12881 N 1168.91 -1.73738 -4.75025 0
M  V30 12882 C 1167.21 -0.416985 -4.44046 0
M  V30 12883 C 1167.91 -2.31141 -5.33806 0
M  V30 12884 N 1166.88 -1.59934 -5.1954 0
M  V30 12885 H 1170.69 -1.28268 -2.64433 0
M  V30 12886 H 1168.2 -0.797941 -1.41445 0
M  V30 12887 H 1170.2 0.698618 -4.11005 0
M  V30 12888 H 1168.86 1.1662 -3.03035 0
M  V30 12889 H 1169.87 -2.1195 -4.72544 0
M  V30 12890 H 1166.55 0.397561 -4.15603 0
M  V30 12891 H 1167.94 -3.26029 -5.87499 0
M  V30 12892 N 1170.66 1.40747 -0.709091 0
M  V30 12893 C 1171.57 2.3454 -0.0532205 0
M  V30 12894 C 1172.58 1.56956 0.751057 0
M  V30 12895 O 1173.76 1.89375 0.685509 0
M  V30 12896 C 1170.82 3.35809 0.862157 0
M  V30 12897 C 1169.88 4.29273 0.0485632 0
M  V30 12898 C 1169.12 5.25705 0.920345 0
M  V30 12899 O 1169.34 5.27933 2.15969 0
M  V30 12900 O 1168.27 6.00806 0.3628 0
M  V30 12901 H 1172.1 2.92232 -0.826698 0
M  V30 12902 H 1169.68 1.4183 -0.469519 0
M  V30 12903 H 1171.57 3.97931 1.38668 0
M  V30 12904 H 1170.24 2.8054 1.61489 0
M  V30 12905 H 1169.15 3.70456 -0.520873 0
M  V30 12906 H 1170.48 4.87676 -0.665807 0
M  V30 12907 N 1172.13 0.454803 1.50895 0
M  V30 12908 C 1173.04 -0.353495 2.31921 0
M  V30 12909 C 1174.06 -1.01136 1.41589 0
M  V30 12910 O 1175.24 -1.00291 1.74653 0
M  V30 12911 C 1172.3 -1.43032 3.15821 0
M  V30 12912 C 1171.36 -0.790763 4.21954 0
M  V30 12913 C 1170.59 -1.81628 5.01843 0
M  V30 12914 O 1170.82 -3.04078 4.8259 0
M  V30 12915 O 1169.75 -1.39713 5.8546 0
M  V30 12916 H 1173.58 0.308463 3.02129 0
M  V30 12917 H 1171.16 0.216971 1.47816 0
M  V30 12918 H 1173.04 -2.05444 3.67927 0
M  V30 12919 H 1171.72 -2.07605 2.48358 0
M  V30 12920 H 1170.63 -0.128127 3.73881 0
M  V30 12921 H 1171.96 -0.188251 4.9184 0
M  V30 12922 N 1173.61 -1.56489 0.186789 0
M  V30 12923 C 1174.86 -1.96517 -0.45433 0
M  V30 12924 C 1175.17 -1.07618 -1.63333 0
M  V30 12925 O 1176.38 -1.37392 -2.3417 0
M  V30 12926 C 1174.84 -3.49482 -0.859685 0
M  V30 12927 C 1174.44 -4.47031 0.294572 0
M  V30 12928 C 1176.19 -3.98296 -1.46835 0
M  V30 12929 C 1174.09 -5.91254 -0.131279 0
M  V30 12930 H 1173.02 -0.733765 -0.17351 0
M  V30 12931 H 1175.68 -1.8139 0.277485 0
M  V30 12932 H 1174.06 -3.60082 -1.64793 0
M  V30 12933 H 1175.23 -4.48156 1.07205 0
M  V30 12934 H 1173.55 -4.08362 0.814197 0
M  V30 12935 H 1176.14 -5.03518 -1.79928 0
M  V30 12936 H 1176.49 -3.42123 -2.37186 0
M  V30 12937 H 1177.02 -3.90776 -0.744247 0
M  V30 12938 H 1173.76 -6.51334 0.737839 0
M  V30 12939 H 1173.28 -5.93401 -0.873786 0
M  V30 12940 H 1174.96 -6.44485 -0.569913 0
M  V30 12941 N 1175.09 0.086862 -1.5736 0
M  V30 12942 C 1176.32 0.802167 -1.90717 0
M  V30 12943 C 1176.73 1.71875 -0.781304 0
M  V30 12944 O 1176.09 1.80831 0.246255 0
M  V30 12945 C 1176.14 1.60858 -3.23739 0
M  V30 12946 O 1175.86 0.728851 -4.31995 0
M  V30 12947 C 1177.36 2.42621 -3.71012 0
M  V30 12948 H 1174.58 0.228914 -0.630745 0
M  V30 12949 H 1177.13 0.061634 -2.04407 0
M  V30 12950 H 1175.28 2.30153 -3.11622 0
M  V30 12951 H 1175.7 1.2882 -5.08435 0
M  V30 12952 H 1177.17 2.94683 -4.66761 0
M  V30 12953 H 1177.65 3.21462 -2.99264 0
M  V30 12954 H 1178.25 1.78509 -3.86024 0
M  V30 12955 N 1176.57 1.53483 0.357892 0
M  V30 12956 C 1177.98 1.61641 0.934289 0
M  V30 12957 C 1178.33 0.488655 1.90017 0
M  V30 12958 O 1177.45 -0.38378 2.1297 0
M  V30 12959 C 1178.05 2.92987 1.7013 0
M  V30 12960 C 1176.61 3.03456 2.22692 0
M  V30 12961 C 1175.76 2.56992 1.04165 0
M  V30 12962 H 1178.71 1.58112 0.136452 0
M  V30 12963 H 1178.73 2.81221 2.5631 0
M  V30 12964 H 1178.24 3.75047 0.998056 0
M  V30 12965 H 1176.34 2.25999 2.96235 0
M  V30 12966 H 1176.45 4.08673 2.50046 0
M  V30 12967 H 1174.82 2.12052 1.41088 0
M  V30 12968 H 1175.6 3.41477 0.353272 0
M  V30 12969 N 1178.05 -0.61812 1.44973 0
M  V30 12970 C 1178.98 -1.74277 1.47318 0
M  V30 12971 C 1179.96 -1.59203 0.330627 0
M  V30 12972 O 1181.14 -1.80909 0.529558 0
M  V30 12973 C 1178.27 -3.11994 1.31823 0
M  V30 12974 C 1177.31 -3.45685 2.49809 0
M  V30 12975 S 1178.15 -3.41704 4.12309 0
M  V30 12976 C 1179.3 -4.82019 3.9926 0
M  V30 12977 H 1179.54 -1.72023 2.42478 0
M  V30 12978 H 1177.07 -0.793867 1.32428 0
M  V30 12979 H 1179.03 -3.9146 1.2357 0
M  V30 12980 H 1177.69 -3.11774 0.381521 0
M  V30 12981 H 1176.88 -4.45931 2.34864 0
M  V30 12982 H 1176.48 -2.73711 2.54869 0
M  V30 12983 H 1178.77 -5.71567 3.63754 0
M  V30 12984 H 1179.72 -5.02019 4.99382 0
M  V30 12985 H 1180.13 -4.57205 3.31095 0
M  V30 12986 N 1179.52 -1.32087 -0.859693 0
M  V30 12987 C 1180.45 -1.23204 -1.98351 0
M  V30 12988 C 1181.43 -0.116974 -1.69697 0
M  V30 12989 O 1182.62 -0.303301 -1.91817 0
M  V30 12990 C 1179.75 -0.949171 -3.34078 0
M  V30 12991 C 1178.7 -2.02493 -3.77069 0
M  V30 12992 C 1178.03 -1.59455 -5.1037 0
M  V30 12993 C 1179.33 -3.43934 -3.93074 0
M  V30 12994 H 1181.02 -2.17227 -2.0604 0
M  V30 12995 H 1178.57 -1.04577 -0.989931 0
M  V30 12996 H 1180.52 -0.873594 -4.12245 0
M  V30 12997 H 1179.25 0.0267095 -3.26589 0
M  V30 12998 H 1177.91 -2.09057 -3.01149 0
M  V30 12999 H 1177.55 -0.606256 -4.99333 0
M  V30 13000 H 1177.25 -2.31429 -5.40106 0
M  V30 13001 H 1178.78 -1.53325 -5.91036 0
M  V30 13002 H 1180.19 -3.39986 -4.61608 0
M  V30 13003 H 1178.59 -4.14214 -4.3422 0
M  V30 13004 H 1179.66 -3.83965 -2.9614 0
M  V30 13005 N 1181 1.07532 -1.15215 0
M  V30 13006 C 1182.28 1.76813 -0.83646 0
M  V30 13007 C 1182.66 2.00242 0.6683 0
M  V30 13008 O 1182.01 1.61941 1.61206 0
M  V30 13009 C 1182.22 3.0779 -1.64519 0
M  V30 13010 C 1183.56 3.82168 -1.85022 0
M  V30 13011 O 1184.59 3.17596 -1.61279 0
M  V30 13012 O 1183.45 4.98135 -2.24775 0
M  V30 13013 H 1180.54 0.767736 -0.307426 0
M  V30 13014 H 1183.09 1.13914 -1.25784 0
M  V30 13015 H 1181.86 2.86342 -2.6669 0
M  V30 13016 H 1181.48 3.78419 -1.22002 0
M  V30 13017 N 1182.48 0.948665 1.2585 0
M  V30 13018 C 1183.73 0.59905 1.93018 0
M  V30 13019 C 1184.05 -0.865813 1.74725 0
M  V30 13020 O 1183.32 -1.61602 1.10732 0
M  V30 13021 H 1181.9 0.218565 0.71431 0
M  V30 13022 H 1184.56 1.20561 1.53137 0
M  V30 13023 H 1183.66 0.823244 3.01047 0
M  V30 13024 N 1183.96 -1.40369 0.716545 0
M  V30 13025 C 1185.21 -2.00101 0.253452 0
M  V30 13026 C 1185.52 -1.57471 -1.16027 0
M  V30 13027 O 1186.73 -2.09909 -1.72193 0
M  V30 13028 C 1185.18 -3.57645 0.402213 0
M  V30 13029 C 1184.79 -4.09248 1.82264 0
M  V30 13030 C 1186.53 -4.245 -3.88526e-05 0
M  V30 13031 C 1184.44 -5.59299 1.92193 0
M  V30 13032 H 1183.37 -0.748488 0.0910047 0
M  V30 13033 H 1186.02 -1.60595 0.887772 0
M  V30 13034 H 1184.4 -3.94857 -0.300706 0
M  V30 13035 H 1185.58 -3.83412 2.55601 0
M  V30 13036 H 1183.89 -3.54993 2.17644 0
M  V30 13037 H 1186.49 -5.34673 0.0534202 0
M  V30 13038 H 1186.83 -4.03046 -1.04208 0
M  V30 13039 H 1187.37 -3.92398 0.65336 0
M  V30 13040 H 1184.11 -5.85608 2.94522 0
M  V30 13041 H 1183.63 -5.86997 1.23268 0
M  V30 13042 H 1185.3 -6.24416 1.6945 0
M  V30 13043 N 1185.44 -0.462799 -1.50652 0
M  V30 13044 C 1186.66 0.0929761 -2.06691 0
M  V30 13045 C 1187.08 1.34241 -1.32758 0
M  V30 13046 O 1186.44 1.78187 -0.394427 0
M  V30 13047 C 1186.49 0.389492 -3.59396 0
M  V30 13048 O 1186.21 -0.810379 -4.3054 0
M  V30 13049 C 1187.71 0.993147 -4.32032 0
M  V30 13050 H 1184.93 -0.00338664 -0.670991 0
M  V30 13051 H 1187.47 -0.649201 -1.93922 0
M  V30 13052 H 1185.63 1.08159 -3.71995 0
M  V30 13053 H 1186.04 -0.54996 -5.21609 0
M  V30 13054 H 1187.52 1.15044 -5.39878 0
M  V30 13055 H 1187.99 1.98106 -3.91983 0
M  V30 13056 H 1188.6 0.339677 -4.23941 0
M  V30 13057 N 1186.91 1.56388 -0.195085 0
M  V30 13058 C 1187.86 2.20431 0.742484 0
M  V30 13059 C 1188.86 1.17548 1.21979 0
M  V30 13060 O 1190.06 1.35693 1.18269 0
M  V30 13061 H 1186.44 0.706435 0.257786 0
M  V30 13062 H 1188.41 2.97865 0.178624 0
M  V30 13063 C 1187.16 2.87772 1.95147 0
M  V30 13064 H 1186.48 3.66681 1.59326 0
M  V30 13065 H 1187.92 3.36021 2.58585 0
M  V30 13066 C 1186.38 1.88807 2.79022 0
M  V30 13067 O 1186.91 1.38836 3.76945 0
M  V30 13068 N 1185.12 1.57037 2.44515 0
M  V30 13069 H 1184.66 1.97868 1.64943 0
M  V30 13070 H 1184.62 0.910776 3.00919 0
M  V30 13071 N 1188.39 -0.0785156 1.57404 0
M  V30 13072 C 1189.34 -1.11278 2.04255 0
M  V30 13073 C 1190.33 -1.40482 0.946633 0
M  V30 13074 O 1191.54 -1.39968 1.13177 0
M  V30 13075 H 1187.92 -0.376157 0.65116 0
M  V30 13076 H 1189.89 -0.691437 2.90279 0
M  V30 13077 C 1188.64 -2.42006 2.49656 0
M  V30 13078 H 1187.96 -2.20383 3.33574 0
M  V30 13079 H 1189.4 -3.12837 2.86197 0
M  V30 13080 C 1187.86 -3.07488 1.37669 0
M  V30 13081 O 1188.39 -3.95285 0.715036 0
M  V30 13082 N 1186.59 -2.68004 1.1235 0
M  V30 13083 H 1186.14 -1.96698 1.66336 0
M  V30 13084 H 1186.1 -3.12141 0.376238 0
M  V30 13085 N 1189.87 -1.5367 -0.349747 0
M  V30 13086 C 1191.29 -1.43796 -0.692457 0
M  V30 13087 C 1191.49 -0.58972 -1.92677 0
M  V30 13088 O 1190.54 -0.078294 -2.52379 0
M  V30 13089 C 1191.86 -2.872 -0.890881 0
M  V30 13090 C 1193.4 -2.96935 -0.989892 0
M  V30 13091 C 1193.88 -4.41433 -1.22068 0
M  V30 13092 N 1195.37 -4.44932 -1.28802 0
M  V30 13093 C 1196.1 -5.53864 -1.48398 0
M  V30 13094 N 1195.6 -6.72814 -1.65208 0
M  V30 13095 N 1197.39 -5.41467 -1.50896 0
M  V30 13096 H 1189.54 -2.07317 0.461895 0
M  V30 13097 H 1191.81 -0.936895 0.144681 0
M  V30 13098 H 1191.51 -3.51656 -0.0555095 0
M  V30 13099 H 1191.39 -3.31784 -1.79442 0
M  V30 13100 H 1193.77 -2.32622 -1.81579 0
M  V30 13101 H 1193.86 -2.55721 -0.0633906 0
M  V30 13102 H 1193.5 -5.06325 -0.399729 0
M  V30 13103 H 1193.43 -4.80233 -2.16064 0
M  V30 13104 H 1195.92 -3.59214 -1.17361 0
M  V30 13105 H 1196.23 -7.51598 -1.79779 0
M  V30 13106 H 1194.58 -6.7577 -1.62356 0
M  V30 13107 H 1197.77 -4.47498 -1.37342 0
M  V30 13108 H 1197.94 -6.26423 -1.65826 0
M  V30 13109 N 1191.35 0.610423 -1.45298 0
M  V30 13110 C 1192.3 1.7213 -1.53753 0
M  V30 13111 C 1193.27 1.61609 -0.383632 0
M  V30 13112 O 1194.45 1.8123 -0.596694 0
M  V30 13113 C 1191.59 3.10433 -1.50749 0
M  V30 13114 C 1190.7 3.3178 -2.76669 0
M  V30 13115 C 1189.84 4.60173 -2.65356 0
M  V30 13116 C 1188.88 4.74769 -3.86343 0
M  V30 13117 N 1188.01 5.94459 -3.73581 0
M  V30 13118 H 1192.85 1.64239 -2.48655 0
M  V30 13119 H 1190.39 0.800879 -1.23387 0
M  V30 13120 H 1192.35 3.90446 -1.46996 0
M  V30 13121 H 1190.98 3.17288 -0.593998 0
M  V30 13122 H 1190.03 2.45563 -2.90522 0
M  V30 13123 H 1191.34 3.38439 -3.66416 0
M  V30 13124 H 1190.5 5.48377 -2.59553 0
M  V30 13125 H 1189.24 4.55907 -1.73204 0
M  V30 13126 H 1188.24 3.8499 -3.92509 0
M  V30 13127 H 1189.47 4.80834 -4.79557 0
M  V30 13128 H 1187.41 5.91243 -2.84196 0
M  V30 13129 H 1187.33 6.02265 -4.5696 0
M  V30 13130 H 1188.6 6.85168 -3.71705 0
M  V30 13131 N 1192.83 1.32541 0.852676 0
M  V30 13132 C 1193.74 1.23646 1.99371 0
M  V30 13133 C 1194.75 0.149673 1.73355 0
M  V30 13134 O 1195.93 0.370716 1.97959 0
M  V30 13135 C 1192.99 0.961873 3.3309 0
M  V30 13136 C 1192.05 2.1373 3.72315 0
M  V30 13137 C 1191.29 1.87572 4.99652 0
M  V30 13138 O 1191.51 0.819247 5.64486 0
M  V30 13139 O 1190.44 2.73732 5.36054 0
M  V30 13140 H 1194.27 2.19573 2.09813 0
M  V30 13141 H 1191.86 1.12451 0.983627 0
M  V30 13142 H 1193.74 0.825316 4.13239 0
M  V30 13143 H 1192.41 0.0327745 3.23683 0
M  V30 13144 H 1191.32 2.32933 2.92733 0
M  V30 13145 H 1192.65 3.04925 3.86369 0
M  V30 13146 N 1194.3 -1.0692 1.15784 0
M  V30 13147 C 1195.55 -1.8002 0.946795 0
M  V30 13148 C 1195.91 -1.85232 -0.520268 0
M  V30 13149 O 1195.2 -1.32825 -1.38087 0
M  V30 13150 C 1195.39 -3.24389 1.50022 0
M  V30 13151 C 1195.22 -3.33245 3.01957 0
M  V30 13152 C 1193.99 -3.43549 3.70543 0
M  V30 13153 C 1196.19 -3.23634 3.99707 0
M  V30 13154 N 1194.17 -3.41354 5.10246 0
M  V30 13155 C 1195.54 -3.28608 5.25754 0
M  V30 13156 C 1197.6 -3.07475 3.91617 0
M  V30 13157 C 1196.3 -3.19084 6.44653 0
M  V30 13158 C 1198.33 -2.99286 5.1008 0
M  V30 13159 C 1197.69 -3.04876 6.35004 0
M  V30 13160 H 1193.79 -0.671859 0.400162 0
M  V30 13161 H 1196.37 -1.27592 1.47066 0
M  V30 13162 H 1194.54 -3.75228 1.00293 0
M  V30 13163 H 1196.27 -3.85633 1.22756 0
M  V30 13164 H 1193.03 -3.48079 3.21151 0
M  V30 13165 H 1193.45 -3.43772 5.83223 0
M  V30 13166 H 1198.1 -3.02004 2.95895 0
M  V30 13167 H 1195.81 -3.23313 7.40604 0
M  V30 13168 H 1199.4 -2.8788 5.05585 0
M  V30 13169 H 1198.28 -2.9859 7.2513 0
M  V30 13170 N 1195.78 -0.955326 -1.25345 0
M  V30 13171 C 1196.73 -0.474888 -2.25862 0
M  V30 13172 C 1197.7 0.472996 -1.59223 0
M  V30 13173 O 1198.88 0.386094 -1.86853 0
M  V30 13174 C 1196.02 0.240554 -3.44261 0
M  V30 13175 C 1195.14 -0.74465 -4.25534 0
M  V30 13176 C 1194.27 -0.00657513 -5.312 0
M  V30 13177 C 1193.31 -0.982666 -6.04161 0
M  V30 13178 N 1192.45 -0.275418 -7.0156 0
M  V30 13179 H 1197.29 -1.33693 -2.66327 0
M  V30 13180 H 1194.83 -0.670439 -1.30933 0
M  V30 13181 H 1196.78 0.671933 -4.11753 0
M  V30 13182 H 1195.41 1.06664 -3.04668 0
M  V30 13183 H 1194.47 -1.29451 -3.57696 0
M  V30 13184 H 1195.78 -1.48948 -4.76042 0
M  V30 13185 H 1194.93 0.483404 -6.04771 0
M  V30 13186 H 1193.67 0.771035 -4.81567 0
M  V30 13187 H 1192.68 -1.48364 -5.29404 0
M  V30 13188 H 1193.9 -1.76052 -6.55883 0
M  V30 13189 H 1191.85 0.483441 -6.54216 0
M  V30 13190 H 1191.76 -0.959324 -7.49889 0
M  V30 13191 H 1193.03 0.193002 -7.79261 0
M  V30 13192 N 1197.26 1.39987 -0.723979 0
M  V30 13193 C 1198.22 2.29041 -0.0854583 0
M  V30 13194 C 1199.22 1.45777 0.678657 0
M  V30 13195 O 1200.41 1.66588 0.509311 0
M  V30 13196 C 1197.55 3.29115 0.88859 0
M  V30 13197 H 1198.74 2.87006 -0.869903 0
M  V30 13198 H 1196.29 1.48449 -0.489136 0
M  V30 13199 H 1197.03 2.76184 1.69979 0
M  V30 13200 H 1196.81 3.90593 0.343454 0
M  V30 13201 H 1198.3 3.95778 1.33227 0
M  V30 13202 N 1198.74 0.470782 1.50404 0
M  V30 13203 C 1199.67 -0.313458 2.31386 0
M  V30 13204 C 1200.65 -0.990623 1.38278 0
M  V30 13205 O 1201.84 -0.987854 1.67198 0
M  V30 13206 C 1198.97 -1.39599 3.18009 0
M  V30 13207 C 1197.92 -0.840443 4.19667 0
M  V30 13208 C 1197.25 -2.02124 4.95025 0
M  V30 13209 C 1198.55 0.148055 5.2209 0
M  V30 13210 H 1200.24 0.362432 2.97198 0
M  V30 13211 H 1197.79 0.175745 1.42924 0
M  V30 13212 H 1199.74 -1.9521 3.73458 0
M  V30 13213 H 1198.46 -2.10064 2.50081 0
M  V30 13214 H 1197.12 -0.306302 3.65318 0
M  V30 13215 H 1196.77 -2.71286 4.23571 0
M  V30 13216 H 1196.47 -1.65574 5.6379 0
M  V30 13217 H 1197.99 -2.58226 5.5331 0
M  V30 13218 H 1199.41 -0.318874 5.72413 0
M  V30 13219 H 1197.8 0.427811 5.98573 0
M  V30 13220 H 1198.87 1.07404 4.72855 0
M  V30 13221 N 1200.22 -1.56282 0.203376 0
M  V30 13222 C 1201.18 -2.18233 -0.700489 0
M  V30 13223 C 1202.18 -1.13908 -1.13497 0
M  V30 13224 O 1203.37 -1.39246 -1.04672 0
M  V30 13225 C 1200.5 -2.79107 -1.95735 0
M  V30 13226 H 1201.7 -2.99469 -0.160649 0
M  V30 13227 H 1199.25 -1.56232 -0.0462475 0
M  V30 13228 H 1199.98 -2.01691 -2.53951 0
M  V30 13229 H 1199.77 -3.55486 -1.65446 0
M  V30 13230 H 1201.26 -3.2665 -2.60172 0
M  V30 13231 N 1201.7 0.070167 -1.57444 0
M  V30 13232 C 1202.97 0.802108 -1.78397 0
M  V30 13233 C 1203.35 1.95706 -0.791356 0
M  V30 13234 O 1202.7 2.27827 0.17518 0
M  V30 13235 C 1202.91 1.27354 -3.24934 0
M  V30 13236 C 1204.26 1.70626 -3.88808 0
M  V30 13237 O 1205.28 1.36916 -3.28835 0
M  V30 13238 O 1204.14 2.33041 -4.94322 0
M  V30 13239 H 1201.24 0.384483 -0.73219 0
M  V30 13240 H 1203.78 0.0501168 -1.69626 0
M  V30 13241 H 1202.55 0.447204 -3.88736 0
M  V30 13242 H 1202.18 2.0868 -3.38435 0
M  V30 13243 N 1203.17 1.53854 0.341593 0
M  V30 13244 C 1204.08 1.84975 1.44297 0
M  V30 13245 C 1205.1 0.740057 1.57477 0
M  V30 13246 O 1206.28 1.03256 1.72917 0
M  V30 13247 C 1203.34 2.05464 2.79259 0
M  V30 13248 C 1202.4 3.29318 2.75405 0
M  V30 13249 C 1201.63 3.4882 4.03931 0
M  V30 13250 O 1201.86 2.7212 5.01305 0
M  V30 13251 O 1200.79 4.42253 4.08284 0
M  V30 13252 H 1204.62 2.78592 1.20913 0
M  V30 13253 H 1202.2 1.39532 0.533953 0
M  V30 13254 H 1204.08 2.20374 3.59184 0
M  V30 13255 H 1202.76 1.15035 3.0257 0
M  V30 13256 H 1201.67 3.1981 1.94094 0
M  V30 13257 H 1203 4.19746 2.57049 0
M  V30 13258 N 1204.65 -0.602709 1.4562 0
M  V30 13259 C 1205.88 -1.38608 1.53203 0
M  V30 13260 C 1206.29 -1.88478 0.165098 0
M  V30 13261 O 1205.63 -1.63142 -0.844421 0
M  V30 13262 C 1205.69 -2.62214 2.45935 0
M  V30 13263 C 1205.36 -2.3395 3.92577 0
M  V30 13264 C 1206.36 -1.94011 4.82344 0
M  V30 13265 C 1204.04 -2.46711 4.37537 0
M  V30 13266 C 1206.03 -1.67202 6.15079 0
M  V30 13267 C 1203.72 -2.19515 5.70313 0
M  V30 13268 C 1204.72 -1.79823 6.58903 0
M  V30 13269 O 1204.41 -1.52948 7.89216 0
M  V30 13270 H 1204.14 -0.43052 0.52118 0
M  V30 13271 H 1206.69 -0.741655 1.91543 0
M  V30 13272 H 1204.92 -3.29394 2.02575 0
M  V30 13273 H 1206.61 -3.24264 2.44147 0
M  V30 13274 H 1207.38 -1.83684 4.48871 0
M  V30 13275 H 1203.26 -2.76572 3.68821 0
M  V30 13276 H 1206.8 -1.36146 6.84186 0
M  V30 13277 H 1202.7 -2.2946 6.03339 0
M  V30 13278 H 1203.47 -1.6696 8.01291 0
M  V30 13279 N 1206.13 -1.32992 -0.845635 0
M  V30 13280 C 1207.41 -1.14671 -1.58461 0
M  V30 13281 C 1207.79 0.289498 -2.09106 0
M  V30 13282 O 1207.13 1.28751 -1.88773 0
M  V30 13283 C 1207.34 -2.18206 -2.72373 0
M  V30 13284 C 1208.69 -2.5201 -3.41726 0
M  V30 13285 O 1209.72 -2.16821 -2.82608 0
M  V30 13286 O 1208.58 -3.12368 -4.48429 0
M  V30 13287 H 1205.67 -0.443088 -0.698285 0
M  V30 13288 H 1208.22 -1.44552 -0.888978 0
M  V30 13289 H 1206.99 -3.14707 -2.32541 0
M  V30 13290 H 1206.61 -1.89372 -3.49605 0
M  V30 13291 N 1207.61 1.06304 -1.1635 0
M  V30 13292 C 1208.57 2.11947 -0.872419 0
M  V30 13293 C 1209.57 1.60253 0.132534 0
M  V30 13294 O 1210.76 1.73922 -0.0983441 0
M  V30 13295 C 1207.89 3.39536 -0.304646 0
M  V30 13296 H 1209.09 2.39201 -1.80894 0
M  V30 13297 H 1206.64 1.22367 -0.972419 0
M  V30 13298 H 1207.37 3.17931 0.639565 0
M  V30 13299 H 1207.16 3.78363 -1.02878 0
M  V30 13300 H 1208.65 4.17431 -0.118936 0
M  V30 13301 N 1209.09 0.96196 1.24836 0
M  V30 13302 C 1210.03 0.48686 2.25607 0
M  V30 13303 C 1211 -0.464546 1.59472 0
M  V30 13304 O 1212.19 -0.376179 1.87055 0
M  V30 13305 C 1209.33 -0.222294 3.44383 0
M  V30 13306 C 1208.44 0.767206 4.25133 0
M  V30 13307 C 1207.58 0.0347458 5.31189 0
M  V30 13308 C 1206.61 1.01469 6.03631 0
M  V30 13309 N 1205.75 0.312619 7.01404 0
M  V30 13310 H 1210.59 1.35104 2.65614 0
M  V30 13311 H 1208.13 0.677373 1.30576 0
M  V30 13312 H 1210.09 -0.650087 4.12104 0
M  V30 13313 H 1208.72 -1.05047 3.0523 0
M  V30 13314 H 1207.77 1.31346 3.57005 0
M  V30 13315 H 1209.08 1.5147 4.75245 0
M  V30 13316 H 1208.23 -0.451325 6.05019 0
M  V30 13317 H 1206.97 -0.745485 4.81969 0
M  V30 13318 H 1205.98 1.51169 5.28609 0
M  V30 13319 H 1207.2 1.79527 6.5494 0
M  V30 13320 H 1205.15 -0.44874 6.54463 0
M  V30 13321 H 1205.07 0.999079 7.49369 0
M  V30 13322 H 1206.33 -0.151673 7.79352 0
M  V30 13323 N 1210.56 -1.39601 0.731392 0
M  V30 13324 C 1211.5 -2.28169 0.0378735 0
M  V30 13325 C 1212.47 -1.44195 -0.751434 0
M  V30 13326 O 1213.66 -1.7359 -0.734753 0
M  V30 13327 C 1210.79 -3.24999 -0.953589 0
M  V30 13328 C 1209.83 -4.25748 -0.253203 0
M  V30 13329 S 1210.66 -5.25496 1.03025 0
M  V30 13330 C 1211.82 -6.25886 0.0412927 0
M  V30 13331 H 1212.05 -2.8664 0.788973 0
M  V30 13332 H 1209.59 -1.45271 0.523044 0
M  V30 13333 H 1211.54 -3.81308 -1.52035 0
M  V30 13334 H 1210.21 -2.65554 -1.6775 0
M  V30 13335 H 1209.4 -4.93913 -1.00328 0
M  V30 13336 H 1209 -3.7322 0.241426 0
M  V30 13337 H 1211.29 -6.72757 -0.800305 0
M  V30 13338 H 1212.24 -7.0473 0.68999 0
M  V30 13339 H 1212.64 -5.63538 -0.329495 0
M  V30 13340 N 1212.04 -0.478751 -1.50152 0
M  V30 13341 C 1212.99 0.311426 -2.28689 0
M  V30 13342 C 1213.96 0.980375 -1.34082 0
M  V30 13343 O 1215.14 0.991337 -1.63025 0
M  V30 13344 C 1212.28 1.38302 -3.16175 0
M  V30 13345 C 1211.4 0.728084 -4.2582 0
M  V30 13346 C 1210.53 1.77822 -5.00552 0
M  V30 13347 C 1209.57 1.10395 -6.02063 0
M  V30 13348 N 1208.71 2.09728 -6.70044 0
M  V30 13349 H 1213.55 -0.364592 -2.95761 0
M  V30 13350 H 1211.09 -0.191645 -1.45846 0
M  V30 13351 H 1213.04 2.01606 -3.65255 0
M  V30 13352 H 1211.67 2.0281 -2.51133 0
M  V30 13353 H 1210.73 -0.0177026 -3.80396 0
M  V30 13354 H 1212.04 0.196209 -4.98414 0
M  V30 13355 H 1211.19 2.48687 -5.53389 0
M  V30 13356 H 1209.93 2.34392 -4.27682 0
M  V30 13357 H 1208.94 0.38096 -5.48479 0
M  V30 13358 H 1210.16 0.545045 -6.76909 0
M  V30 13359 H 1208.11 2.65301 -5.9996 0
M  V30 13360 H 1208.02 1.61546 -7.38538 0
M  V30 13361 H 1209.29 2.7995 -7.27495 0
M  V30 13362 N 1213.52 1.56172 -0.211661 0
M  V30 13363 C 1214.77 1.98332 0.423332 0
M  V30 13364 C 1215.1 1.09895 1.60115 0
M  V30 13365 O 1214.37 0.154477 1.93886 0
M  V30 13366 C 1214.66 3.49495 0.86747 0
M  V30 13367 C 1214.51 4.48708 -0.313302 0
M  V30 13368 C 1215.83 4.04793 1.72716 0
M  V30 13369 H 1212.95 0.72107 0.152402 0
M  V30 13370 H 1215.59 1.87521 -0.305912 0
M  V30 13371 H 1213.74 3.58839 1.48885 0
M  V30 13372 H 1215.41 4.51385 -0.951291 0
M  V30 13373 H 1213.66 4.2299 -0.96238 0
M  V30 13374 H 1214.33 5.51985 0.0402402 0
M  V30 13375 H 1216.8 3.98332 1.20296 0
M  V30 13376 H 1215.68 5.10898 2.00684 0
M  V30 13377 H 1215.94 3.51067 2.68709 0
M  V30 13378 N 1215 -0.0618163 1.57479 0
M  V30 13379 C 1215.93 -1.09931 2.01116 0
M  V30 13380 C 1216.94 -1.34405 0.91865 0
M  V30 13381 O 1218.13 -1.32469 1.19642 0
M  V30 13382 C 1215.23 -2.44814 2.34349 0
M  V30 13383 C 1214.41 -2.40157 3.65573 0
M  V30 13384 C 1213.46 -3.57226 3.86363 0
M  V30 13385 O 1212.49 -3.38202 4.5783 0
M  V30 13386 N 1213.69 -4.77937 3.2948 0
M  V30 13387 H 1216.46 -0.727621 2.90733 0
M  V30 13388 H 1214.02 -0.250315 1.59953 0
M  V30 13389 H 1216.01 -3.21792 2.45422 0
M  V30 13390 H 1214.58 -2.73947 1.50571 0
M  V30 13391 H 1213.8 -1.48496 3.65161 0
M  V30 13392 H 1215.09 -2.34156 4.51717 0
M  V30 13393 H 1214.49 -4.96296 2.7149 0
M  V30 13394 H 1213.04 -5.52392 3.45986 0
M  V30 13395 N 1216.48 -1.54033 -0.333429 0
M  V30 13396 C 1217.39 -1.85737 -1.43314 0
M  V30 13397 C 1218.4 -0.748398 -1.57083 0
M  V30 13398 O 1219.58 -1.04171 -1.72367 0
M  V30 13399 C 1216.64 -2.06942 -2.78165 0
M  V30 13400 C 1215.7 -3.30774 -2.73655 0
M  V30 13401 C 1214.94 -3.50957 -4.02075 0
M  V30 13402 O 1215.16 -2.74774 -4.99855 0
M  V30 13403 O 1214.09 -4.44412 -4.05933 0
M  V30 13404 H 1217.92 -2.7923 -1.19434 0
M  V30 13405 H 1215.51 -1.39814 -0.526546 0
M  V30 13406 H 1217.39 -2.22276 -3.58011 0
M  V30 13407 H 1216.06 -1.16638 -3.01956 0
M  V30 13408 H 1214.97 -3.20835 -1.92395 0
M  V30 13409 H 1216.3 -4.21103 -2.54819 0
M  V30 13410 N 1217.95 0.594978 -1.45938 0
M  V30 13411 C 1218.86 1.73296 -1.58132 0
M  V30 13412 C 1219.88 1.67665 -0.465245 0
M  V30 13413 O 1221.06 1.87794 -0.727684 0
M  V30 13414 C 1218.12 3.09783 -1.55677 0
M  V30 13415 C 1217.18 3.26772 -2.78422 0
M  V30 13416 C 1216.42 4.56748 -2.76075 0
M  V30 13417 O 1216.64 5.39867 -1.84119 0
M  V30 13418 O 1215.57 4.76721 -3.67452 0
M  V30 13419 H 1219.4 1.65957 -2.54346 0
M  V30 13420 H 1216.98 0.760572 -1.28591 0
M  V30 13421 H 1218.87 3.91077 -1.56961 0
M  V30 13422 H 1217.54 3.17585 -0.626191 0
M  V30 13423 H 1216.45 2.45018 -2.82696 0
M  V30 13424 H 1217.78 3.23853 -3.70648 0
M  V30 13425 N 1219.43 1.33438 0.838571 0
M  V30 13426 C 1220.38 1.23717 1.94841 0
M  V30 13427 C 1221.35 0.11573 1.65696 0
M  V30 13428 O 1222.53 0.294051 1.8852 0
M  V30 13429 C 1219.67 0.982626 3.30815 0
M  V30 13430 C 1218.79 2.19036 3.72354 0
M  V30 13431 C 1217.92 1.86995 4.97199 0
M  V30 13432 C 1216.96 3.03998 5.31274 0
M  V30 13433 N 1216.1 2.71943 6.47295 0
M  V30 13434 H 1220.94 2.18639 2.02487 0
M  V30 13435 H 1218.48 1.08721 0.990861 0
M  V30 13436 H 1220.43 0.81548 4.09152 0
M  V30 13437 H 1219.06 0.0701443 3.22724 0
M  V30 13438 H 1218.12 2.46724 2.89537 0
M  V30 13439 H 1219.43 3.06505 3.93518 0
M  V30 13440 H 1218.58 1.66925 5.83285 0
M  V30 13441 H 1217.32 0.967628 4.78004 0
M  V30 13442 H 1216.33 3.24681 4.43692 0
M  V30 13443 H 1217.55 3.94985 5.52416 0
M  V30 13444 H 1215.5 1.8427 6.29588 0
M  V30 13445 H 1215.41 3.52943 6.68556 0
M  V30 13446 H 1216.68 2.55342 7.36492 0
M  V30 13447 N 1220.91 -1.05686 1.16912 0
M  V30 13448 C 1221.86 -2.13312 0.88129 0
M  V30 13449 C 1222.83 -1.65199 -0.172783 0
M  V30 13450 O 1224.01 -1.90765 -0.0366542 0
M  V30 13451 C 1221.15 -3.42829 0.395264 0
M  V30 13452 C 1220.27 -4.04643 1.51288 0
M  V30 13453 C 1219.4 -5.22059 0.981238 0
M  V30 13454 C 1218.44 -5.75869 2.07464 0
M  V30 13455 N 1217.58 -6.84592 1.55813 0
M  V30 13456 H 1222.42 -2.37271 1.80295 0
M  V30 13457 H 1219.95 -1.16407 0.899322 0
M  V30 13458 H 1221.91 -4.17092 0.0950633 0
M  V30 13459 H 1220.54 -3.19068 -0.489445 0
M  V30 13460 H 1219.59 -3.27867 1.92891 0
M  V30 13461 H 1220.91 -4.40626 2.33774 0
M  V30 13462 H 1220.06 -6.03372 0.634586 0
M  V30 13463 H 1218.8 -4.87538 0.125754 0
M  V30 13464 H 1217.8 -4.93188 2.42992 0
M  V30 13465 H 1219.03 -6.12439 2.93419 0
M  V30 13466 H 1216.97 -6.51978 0.725283 0
M  V30 13467 H 1216.89 -7.19551 2.31911 0
M  V30 13468 H 1218.16 -7.6957 1.24025 0
M  V30 13469 N 1222.39 -0.968567 -1.24324 0
M  V30 13470 C 1223.32 -0.457247 -2.24593 0
M  V30 13471 C 1224.33 0.434483 -1.56895 0
M  V30 13472 O 1225.52 0.240519 -1.76872 0
M  V30 13473 C 1222.62 0.359086 -3.36992 0
M  V30 13474 C 1221.8 -0.522945 -4.34263 0
M  V30 13475 C 1220.85 0.237528 -5.25664 0
M  V30 13476 O 1219.88 -0.368835 -5.68004 0
M  V30 13477 N 1221.08 1.52686 -5.6006 0
M  V30 13478 H 1223.85 -1.31934 -2.69098 0
M  V30 13479 H 1221.41 -0.840488 -1.38374 0
M  V30 13480 H 1223.4 0.87589 -3.95108 0
M  V30 13481 H 1221.97 1.12212 -2.91766 0
M  V30 13482 H 1221.19 -1.22071 -3.74823 0
M  V30 13483 H 1222.48 -1.12447 -4.96219 0
M  V30 13484 H 1221.88 2.0412 -5.2759 0
M  V30 13485 H 1220.43 1.98934 -6.207 0
M  V30 13486 N 1223.87 1.39211 -0.738786 0
M  V30 13487 C 1224.81 2.30578 -0.10129 0
M  V30 13488 C 1225.78 1.49412 0.725616 0
M  V30 13489 O 1226.97 1.78087 0.684799 0
M  V30 13490 C 1224.11 3.35767 0.797161 0
M  V30 13491 C 1223.22 4.31979 -0.0427701 0
M  V30 13492 C 1222.36 5.24236 0.857306 0
M  V30 13493 C 1221.4 6.12099 0.0128501 0
M  V30 13494 N 1220.53 6.96701 0.869067 0
M  V30 13495 H 1225.37 2.84522 -0.88606 0
M  V30 13496 H 1222.91 1.40093 -0.448602 0
M  V30 13497 H 1224.87 3.95347 1.33255 0
M  V30 13498 H 1223.5 2.83268 1.54787 0
M  V30 13499 H 1222.55 3.73986 -0.695622 0
M  V30 13500 H 1223.86 4.93927 -0.69555 0
M  V30 13501 H 1223.02 5.88861 1.4604 0
M  V30 13502 H 1221.75 4.62619 1.54386 0
M  V30 13503 H 1220.76 5.46483 -0.603018 0
M  V30 13504 H 1221.98 6.75781 -0.67054 0
M  V30 13505 H 1219.93 6.37647 1.54084 0
M  V30 13506 H 1219.85 7.55507 0.272852 0
M  V30 13507 H 1221.12 7.65751 1.4576 0
M  V30 13508 N 1225.34 0.486708 1.49896 0
M  V30 13509 C 1226.28 -0.335809 2.26727 0
M  V30 13510 C 1227.29 -0.94333 1.32684 0
M  V30 13511 O 1228.48 -0.82909 1.58077 0
M  V30 13512 C 1225.58 -1.48642 3.04563 0
M  V30 13513 C 1224.75 -0.988837 4.26076 0
M  V30 13514 C 1223.81 -2.01535 4.86076 0
M  V30 13515 O 1222.84 -1.58966 5.46552 0
M  V30 13516 N 1224.04 -3.34471 4.74457 0
M  V30 13517 H 1226.8 0.322919 2.97955 0
M  V30 13518 H 1224.36 0.318403 1.58738 0
M  V30 13519 H 1226.36 -2.17039 3.41579 0
M  V30 13520 H 1224.93 -2.04956 2.36033 0
M  V30 13521 H 1224.15 -0.130232 3.93985 0
M  V30 13522 H 1225.43 -0.634562 5.04827 0
M  V30 13523 H 1224.83 -3.71755 4.26398 0
M  V30 13524 H 1223.39 -3.98621 5.15698 0
M  V30 13525 N 1226.82 -1.56058 0.219941 0
M  V30 13526 C 1227.76 -2.17494 -0.723133 0
M  V30 13527 C 1228.77 -1.14356 -1.15873 0
M  V30 13528 O 1229.96 -1.41343 -1.09016 0
M  V30 13529 C 1227.06 -2.74242 -1.99109 0
M  V30 13530 C 1226.23 -4.02533 -1.71132 0
M  V30 13531 C 1225.29 -4.43862 -2.82618 0
M  V30 13532 O 1224.32 -5.10792 -2.51157 0
M  V30 13533 N 1225.52 -4.09412 -4.11537 0
M  V30 13534 H 1228.28 -2.99048 -0.197619 0
M  V30 13535 H 1225.84 -1.61853 0.0388738 0
M  V30 13536 H 1227.84 -2.98862 -2.7288 0
M  V30 13537 H 1226.41 -1.97 -2.42713 0
M  V30 13538 H 1225.63 -3.85786 -0.810128 0
M  V30 13539 H 1226.91 -4.86227 -1.49868 0
M  V30 13540 H 1226.31 -3.55624 -4.39941 0
M  V30 13541 H 1224.87 -4.38928 -4.81857 0
M  V30 13542 N 1228.3 0.053464 -1.57509 0
M  V30 13543 C 1229.53 0.765301 -1.92764 0
M  V30 13544 C 1229.95 1.69385 -0.817943 0
M  V30 13545 O 1229.31 1.7986 0.228075 0
M  V30 13546 C 1229.36 1.51938 -3.27028 0
M  V30 13547 O 1228.46 2.63121 -3.17555 0
M  V30 13548 H 1227.8 0.207567 -0.630723 0
M  V30 13549 H 1230.33 0.0162254 -2.04594 0
M  V30 13550 H 1230.34 1.89466 -3.6134 0
M  V30 13551 H 1229.02 0.838207 -4.07366 0
M  V30 13552 H 1227.59 2.28316 -2.94832 0
M  V30 13553 N 1229.78 1.54207 0.325255 0
M  V30 13554 C 1230.74 1.82757 1.38321 0
M  V30 13555 C 1231.74 0.699312 1.44797 0
M  V30 13556 O 1232.93 0.96762 1.44854 0
M  V30 13557 C 1230.06 1.98608 2.7707 0
M  V30 13558 H 1231.26 2.7728 1.14261 0
M  V30 13559 H 1228.81 1.45899 0.560647 0
M  V30 13560 H 1229.55 1.0629 3.06387 0
M  V30 13561 H 1229.33 2.80707 2.73763 0
M  V30 13562 H 1230.82 2.2215 3.53609 0
M  V30 13563 N 1231.26 -0.58723 1.46251 0
M  V30 13564 C 1232.2 -1.69662 1.56472 0
M  V30 13565 C 1233.17 -1.60978 0.409294 0
M  V30 13566 O 1234.36 -1.80257 0.625451 0
M  V30 13567 C 1231.5 -3.07996 1.55669 0
M  V30 13568 C 1230.61 -3.27337 2.81913 0
M  V30 13569 C 1229.75 -4.55894 2.72644 0
M  V30 13570 C 1228.79 -4.68562 3.93847 0
M  V30 13571 N 1227.92 -5.8844 3.82991 0
M  V30 13572 H 1232.76 -1.60262 2.51237 0
M  V30 13573 H 1230.3 -0.781148 1.24645 0
M  V30 13574 H 1232.26 -3.88058 1.53189 0
M  V30 13575 H 1230.89 -3.16303 0.6444 0
M  V30 13576 H 1229.94 -2.4091 2.94392 0
M  V30 13577 H 1231.25 -3.32567 3.71754 0
M  V30 13578 H 1230.41 -5.44178 2.68244 0
M  V30 13579 H 1229.15 -4.53094 1.80435 0
M  V30 13580 H 1228.15 -3.78696 3.98584 0
M  V30 13581 H 1229.38 -4.73144 4.87146 0
M  V30 13582 H 1227.32 -5.86647 2.93566 0
M  V30 13583 H 1227.24 -5.94919 4.66484 0
M  V30 13584 H 1228.51 -6.79168 3.82559 0
M  V30 13585 N 1232.74 -1.33881 -0.831482 0
M  V30 13586 C 1233.96 -1.28961 -1.62431 0
M  V30 13587 C 1234.39 0.135249 -1.87613 0
M  V30 13588 O 1233.74 1.09426 -1.44553 0
M  V30 13589 C 1233.79 -2.07767 -2.94729 0
M  V30 13590 O 1232.9 -1.44133 -3.86393 0
M  V30 13591 H 1232.24 -0.443313 -0.494337 0
M  V30 13592 H 1234.77 -1.76555 -1.0339 0
M  V30 13593 H 1234.78 -2.18806 -3.44366 0
M  V30 13594 H 1233.45 -3.11367 -2.75724 0
M  V30 13595 H 1232.03 -1.41784 -3.44894 0
M  V30 13596 N 1234.21 1.05064 -1.1747 0
M  V30 13597 C 1235.18 2.1101 -0.89485 0
M  V30 13598 C 1236.18 1.60384 0.11553 0
M  V30 13599 O 1237.37 1.73808 -0.116785 0
M  V30 13600 C 1234.5 3.39194 -0.340642 0
M  V30 13601 H 1235.69 2.37269 -1.83421 0
M  V30 13602 H 1233.24 1.21329 -0.985343 0
M  V30 13603 H 1233.98 3.18591 0.605808 0
M  V30 13604 H 1233.76 3.77251 -1.06885 0
M  V30 13605 H 1235.25 4.17281 -0.163204 0
M  V30 13606 N 1235.69 0.975146 1.23809 0
M  V30 13607 C 1236.65 0.516157 2.23312 0
M  V30 13608 C 1237.65 -0.39136 1.55965 0
M  V30 13609 O 1238.84 -0.185783 1.73206 0
M  V30 13610 C 1235.98 -0.251534 3.39971 0
M  V30 13611 H 1237.17 1.3959 2.65433 0
M  V30 13612 H 1234.72 0.760493 1.36551 0
M  V30 13613 H 1235.46 -1.14805 3.03299 0
M  V30 13614 H 1235.24 0.399825 3.90056 0
M  V30 13615 H 1236.73 -0.561438 4.13809 0
M  V30 13616 N 1237.17 -1.38817 0.746158 0
M  V30 13617 C 1238.13 -2.28876 0.121886 0
M  V30 13618 C 1239.13 -1.46838 -0.655379 0
M  V30 13619 O 1240.32 -1.67377 -0.482744 0
M  V30 13620 C 1237.45 -3.30487 -0.836118 0
M  V30 13621 H 1238.65 -2.85586 0.915453 0
M  V30 13622 H 1236.2 -1.47652 0.512691 0
M  V30 13623 H 1236.94 -2.78853 -1.65563 0
M  V30 13624 H 1236.72 -3.9109 -0.281271 0
M  V30 13625 H 1238.21 -3.97848 -1.26914 0
M  V30 13626 N 1238.65 -0.49465 -1.49636 0
M  V30 13627 C 1239.9 0.0520143 -2.02033 0
M  V30 13628 C 1240.22 1.38071 -1.37701 0
M  V30 13629 O 1239.49 1.88589 -0.530181 0
M  V30 13630 H 1238.07 0.0222123 -0.74667 0
M  V30 13631 H 1240.73 -0.650445 -1.83726 0
M  V30 13632 H 1239.82 0.186337 -3.11543 0
M  V30 13633 N 1240.13 1.55939 -0.228214 0
M  V30 13634 C 1241.07 2.21957 0.69556 0
M  V30 13635 C 1242.07 1.20109 1.19458 0
M  V30 13636 O 1243.27 1.38171 1.15364 0
M  V30 13637 H 1239.65 0.711744 0.242744 0
M  V30 13638 H 1241.62 2.98177 0.115403 0
M  V30 13639 C 1240.37 2.91847 1.88999 0
M  V30 13640 H 1239.69 3.69978 1.51512 0
M  V30 13641 H 1241.13 3.4143 2.51399 0
M  V30 13642 C 1239.59 1.94683 2.74954 0
M  V30 13643 O 1240.12 1.468 3.73915 0
M  V30 13644 N 1238.33 1.62188 2.41129 0
M  V30 13645 H 1237.87 2.01322 1.60709 0
M  V30 13646 H 1237.83 0.9744 2.98919 0
M  V30 13647 N 1241.6 -0.0451101 1.57535 0
M  V30 13648 C 1242.54 -1.07792 2.02271 0
M  V30 13649 C 1243.55 -1.33423 0.932854 0
M  V30 13650 O 1244.74 -1.31193 1.2104 0
M  V30 13651 C 1241.84 -2.42314 2.36933 0
M  V30 13652 C 1241.01 -2.36266 3.68099 0
M  V30 13653 C 1240.07 -3.53108 3.9013 0
M  V30 13654 O 1239.1 -3.33327 4.61391 0
M  V30 13655 N 1240.3 -4.74415 3.3453 0
M  V30 13656 H 1243.06 -0.696744 2.91489 0
M  V30 13657 H 1240.62 -0.233336 1.6021 0
M  V30 13658 H 1242.62 -3.19171 2.48821 0
M  V30 13659 H 1241.19 -2.72335 1.53468 0
M  V30 13660 H 1240.41 -1.44615 3.66715 0
M  V30 13661 H 1241.69 -2.29351 4.54175 0
M  V30 13662 H 1241.09 -4.93388 2.76739 0
M  V30 13663 H 1239.65 -5.48692 3.51825 0
M  V30 13664 N 1243.08 -1.54377 -0.317073 0
M  V30 13665 C 1244.49 -1.64062 -0.891105 0
M  V30 13666 C 1244.84 -0.538863 -1.88655 0
M  V30 13667 O 1243.97 0.32718 -2.13912 0
M  V30 13668 C 1244.56 -2.97395 -1.62302 0
M  V30 13669 C 1243.12 -3.09253 -2.14568 0
M  V30 13670 C 1242.27 -2.59664 -0.973146 0
M  V30 13671 H 1245.22 -1.58418 -0.0944829 0
M  V30 13672 H 1245.24 -2.87918 -2.48764 0
M  V30 13673 H 1244.75 -3.77562 -0.898268 0
M  V30 13674 H 1242.86 -2.33774 -2.90139 0
M  V30 13675 H 1242.97 -4.15159 -2.39123 0
M  V30 13676 H 1241.33 -2.15719 -1.35416 0
M  V30 13677 H 1242.12 -3.42294 -0.262611 0
M  V30 13678 N 1244.56 0.579466 -1.4656 0
M  V30 13679 C 1245.81 1.33492 -1.51738 0
M  V30 13680 C 1246.13 1.94241 -0.171926 0
M  V30 13681 O 1245.4 1.78737 0.801875 0
M  V30 13682 H 1243.98 0.49565 -0.558874 0
M  V30 13683 H 1246.64 0.678394 -1.82712 0
M  V30 13684 H 1245.74 2.13995 -2.27183 0
M  V30 13685 N 1246.04 1.3432 0.824371 0
M  V30 13686 C 1247.29 1.26345 1.57738 0
M  V30 13687 C 1247.61 -0.166836 1.94285 0
M  V30 13688 O 1246.88 -1.09911 1.62162 0
M  V30 13689 H 1245.46 0.46466 0.584893 0
M  V30 13690 H 1248.12 1.68214 0.984373 0
M  V30 13691 H 1247.22 1.8672 2.50084 0
M  V30 13692 N 1247.52 -1.0444 1.18026 0
M  V30 13693 C 1248.46 -2.14474 0.900202 0
M  V30 13694 C 1249.46 -1.68836 -0.138086 0
M  V30 13695 O 1250.66 -1.79997 0.00971011 0
M  V30 13696 H 1247.04 -0.700457 0.273613 0
M  V30 13697 H 1249.01 -2.35295 1.83518 0
M  V30 13698 C 1247.76 -3.44926 0.438305 0
M  V30 13699 H 1247.08 -3.8045 1.22874 0
M  V30 13700 H 1248.52 -4.23066 0.281306 0
M  V30 13701 C 1246.98 -3.26124 -0.845268 0
M  V30 13702 O 1247.51 -3.53368 -1.91034 0
M  V30 13703 N 1245.72 -2.79474 -0.7964 0
M  V30 13704 H 1245.26 -2.57503 0.0705595 0
M  V30 13705 H 1245.22 -2.67274 -1.65566 0
M  V30 13706 N 1248.99 -0.981699 -1.2329 0
M  V30 13707 C 1250.41 -0.688087 -1.73558 0
M  V30 13708 C 1250.76 0.795633 -1.79344 0
M  V30 13709 O 1249.88 1.62227 -1.43218 0
M  V30 13710 C 1250.48 -1.24235 -3.152 0
M  V30 13711 C 1249.04 -0.998356 -3.62918 0
M  V30 13712 C 1248.18 -1.3693 -2.41134 0
M  V30 13713 H 1251.13 -1.15539 -1.08795 0
M  V30 13714 H 1251.15 -0.61541 -3.7549 0
M  V30 13715 H 1250.67 -2.32223 -3.10957 0
M  V30 13716 H 1248.77 0.0653847 -3.72543 0
M  V30 13717 H 1248.88 -1.65385 -4.49649 0
M  V30 13718 H 1247.24 -0.787773 -2.42211 0
M  V30 13719 H 1248.03 -2.45898 -2.39561 0
M  V30 13720 N 1250.47 1.3842 -0.753509 0
M  V30 13721 C 1251.7 2.04929 -0.319174 0
M  V30 13722 C 1252.12 1.56457 1.04416 0
M  V30 13723 O 1251.48 0.716527 1.6654 0
M  V30 13724 C 1251.53 3.58887 -0.351054 0
M  V30 13725 O 1250.63 4.07166 0.654963 0
M  V30 13726 H 1249.97 0.648782 -0.141343 0
M  V30 13727 H 1252.5 1.77096 -1.02461 0
M  V30 13728 H 1252.51 4.075 -0.201907 0
M  V30 13729 H 1251.19 3.93525 -1.34576 0
M  V30 13730 H 1249.77 3.69921 0.470435 0
M  V30 13731 N 1251.95 0.502579 1.49372 0
M  V30 13732 C 1253.36 0.055187 1.86618 0
M  V30 13733 C 1253.71 -1.35938 1.41476 0
M  V30 13734 O 1252.84 -2.01333 0.793338 0
M  V30 13735 C 1253.43 0.0933734 3.38671 0
M  V30 13736 C 1251.99 -0.298685 3.75213 0
M  V30 13737 C 1251.14 0.465216 2.7337 0
M  V30 13738 H 1254.09 0.715281 1.41667 0
M  V30 13739 H 1254.11 -0.701549 3.73977 0
M  V30 13740 H 1253.62 1.12303 3.71497 0
M  V30 13741 H 1251.72 -1.33151 3.47996 0
M  V30 13742 H 1251.84 0.0218637 4.79095 0
M  V30 13743 H 1250.2 -0.0851469 2.54558 0
M  V30 13744 H 1250.98 1.49498 3.09039 0
M  V30 13745 N 1253.43 -1.55816 0.23648 0
M  V30 13746 C 1254.68 -1.98294 -0.390373 0
M  V30 13747 C 1255 -1.12573 -1.59224 0
M  V30 13748 O 1254.27 -0.206128 -1.94813 0
M  V30 13749 H 1252.85 -0.732349 -0.14722 0
M  V30 13750 H 1255.51 -1.92037 0.332848 0
M  V30 13751 H 1254.61 -3.03996 -0.706595 0
M  V30 13752 N 1254.91 0.036755 -1.57557 0
M  V30 13753 C 1256.15 0.727665 -1.88546 0
M  V30 13754 C 1256.48 1.76304 -0.833179 0
M  V30 13755 O 1255.75 1.9544 0.13414 0
M  V30 13756 H 1254.33 0.271744 -0.695819 0
M  V30 13757 H 1256.99 0.00452915 -1.94899 0
M  V30 13758 H 1256.08 1.22205 -2.8718 0
M  V30 13759 N 1256.39 1.54543 0.308881 0
M  V30 13760 C 1257.35 1.84214 1.36374 0
M  V30 13761 C 1258.35 0.71463 1.44047 0
M  V30 13762 O 1259.54 0.98293 1.4382 0
M  V30 13763 C 1256.67 2.01535 2.74948 0
M  V30 13764 H 1257.86 2.78477 1.11314 0
M  V30 13765 H 1255.42 1.46485 0.545141 0
M  V30 13766 H 1256.15 1.09533 3.05242 0
M  V30 13767 H 1255.94 2.83595 2.7077 0
M  V30 13768 H 1257.43 2.25888 3.51233 0
M  V30 13769 N 1257.86 -0.571685 1.46866 0
M  V30 13770 C 1259.09 -1.35524 1.56336 0
M  V30 13771 C 1259.51 -1.87647 0.208359 0
M  V30 13772 O 1258.86 -1.64219 -0.796136 0
M  V30 13773 C 1258.91 -2.53518 2.57703 0
M  V30 13774 O 1258.64 -2.03552 3.87941 0
M  V30 13775 C 1260.14 -3.45925 2.77219 0
M  V30 13776 H 1257.36 -0.41363 0.528348 0
M  V30 13777 H 1259.9 -0.693943 1.92366 0
M  V30 13778 H 1258.06 -3.15615 2.24647 0
M  V30 13779 H 1258.47 -2.80476 4.43208 0
M  V30 13780 H 1259.94 -4.2517 3.52043 0
M  V30 13781 H 1260.42 -3.98559 1.8452 0
M  V30 13782 H 1261.03 -2.89655 3.11416 0
M  V30 13783 N 1259.34 -1.34755 -0.817236 0
M  V30 13784 C 1260.57 -1.30522 -1.60536 0
M  V30 13785 C 1260.98 0.119541 -1.88421 0
M  V30 13786 O 1260.34 1.06833 -1.47962 0
M  V30 13787 C 1260.39 -2.09939 -2.94292 0
M  V30 13788 O 1260.11 -3.46858 -2.67621 0
M  V30 13789 C 1261.61 -2.13168 -3.88683 0
M  V30 13790 H 1258.83 -0.448789 -0.498828 0
M  V30 13791 H 1261.38 -1.77453 -1.01639 0
M  V30 13792 H 1259.53 -1.66634 -3.49731 0
M  V30 13793 H 1259.95 -3.87979 -3.52949 0
M  V30 13794 H 1261.42 -2.73147 -4.79682 0
M  V30 13795 H 1261.9 -1.12758 -4.24479 0
M  V30 13796 H 1262.5 -2.56587 -3.39181 0
M  V30 13797 N 1260.82 1.03812 -1.18578 0
M  V30 13798 C 1262.04 1.8124 -1.00831 0
M  V30 13799 C 1262.47 1.82917 0.43853 0
M  V30 13800 O 1261.83 1.24835 1.31476 0
M  V30 13801 C 1261.88 3.24592 -1.57075 0
M  V30 13802 O 1260.98 4.04688 -0.793824 0
M  V30 13803 H 1260.32 0.559846 -0.357028 0
M  V30 13804 H 1262.85 1.30724 -1.57393 0
M  V30 13805 H 1262.86 3.75363 -1.59896 0
M  V30 13806 H 1261.54 3.22686 -2.62387 0
M  V30 13807 H 1260.11 3.63359 -0.838134 0
M  V30 13808 N 1262.3 0.988223 1.22768 0
M  V30 13809 C 1263.24 0.534605 2.24523 0
M  V30 13810 C 1264.21 -0.430615 1.60421 0
M  V30 13811 O 1265.4 -0.336417 1.87811 0
M  V30 13812 C 1262.54 -0.149195 3.44777 0
M  V30 13813 C 1261.65 0.85721 4.2341 0
M  V30 13814 C 1260.79 0.147411 5.30995 0
M  V30 13815 C 1259.83 1.1425 6.01343 0
M  V30 13816 N 1258.96 0.461327 7.00583 0
M  V30 13817 H 1263.8 1.40708 2.62689 0
M  V30 13818 H 1261.34 0.704918 1.2911 0
M  V30 13819 H 1263.3 -0.562527 4.1339 0
M  V30 13820 H 1261.93 -0.985485 3.07389 0
M  V30 13821 H 1260.98 1.38889 3.54138 0
M  V30 13822 H 1262.29 1.61517 4.71926 0
M  V30 13823 H 1261.45 -0.32289 6.0584 0
M  V30 13824 H 1260.19 -0.643085 4.83442 0
M  V30 13825 H 1259.19 1.62348 5.25284 0
M  V30 13826 H 1260.42 1.93379 6.50985 0
M  V30 13827 H 1258.36 -0.309818 6.55268 0
M  V30 13828 H 1258.28 1.15781 7.47082 0
M  V30 13829 H 1259.55 0.0136734 7.79499 0
M  V30 13830 N 1263.78 -1.38018 0.760839 0
M  V30 13831 C 1265 -2.04757 0.330038 0
M  V30 13832 C 1265.43 -1.57009 -1.03585 0
M  V30 13833 O 1264.78 -0.725349 -1.66158 0
M  V30 13834 C 1264.83 -3.58696 0.370082 0
M  V30 13835 O 1263.94 -4.07507 -0.633361 0
M  V30 13836 H 1263.28 -0.648023 0.144782 0
M  V30 13837 H 1265.81 -1.7655 1.03399 0
M  V30 13838 H 1265.82 -4.07387 0.223515 0
M  V30 13839 H 1264.49 -3.92806 1.36661 0
M  V30 13840 H 1263.07 -3.70165 -0.45081 0
M  V30 13841 N 1265.25 -0.510493 -1.49103 0
M  V30 13842 C 1266.49 0.0288873 -2.0438 0
M  V30 13843 C 1266.86 1.334 -1.38088 0
M  V30 13844 O 1268.06 1.95821 -1.8414 0
M  V30 13845 C 1266.33 0.168392 -3.57003 0
M  V30 13846 S 1267.89 0.660651 -4.33798 0
M  V30 13847 H 1264.71 -0.00274928 -0.710995 0
M  V30 13848 H 1267.31 -0.686622 -1.83046 0
M  V30 13849 H 1266.01 -0.786627 -4.02791 0
M  V30 13850 H 1265.54 0.908861 -3.82757 0
M  V30 13851 H 1267.56 1.92833 -4.57198 0
M  V30 13852 N 1266.73 1.55688 -0.24474 0
M  V30 13853 C 1267.97 2.00796 0.382167 0
M  V30 13854 C 1268.34 1.12917 1.55286 0
M  V30 13855 O 1269.54 1.47471 2.24735 0
M  V30 13856 C 1267.81 3.48702 0.783708 0
M  V30 13857 S 1269.37 4.15818 1.40145 0
M  V30 13858 H 1266.18 0.700742 0.120343 0
M  V30 13859 H 1268.79 1.92167 -0.359468 0
M  V30 13860 H 1267.49 4.10327 -0.0776558 0
M  V30 13861 H 1267.02 3.61252 1.55758 0
M  V30 13862 H 1269.04 4.16925 2.6905 0
M  V30 13863 N 1268.21 -0.0283989 1.57574 0
M  V30 13864 C 1269.46 -0.718121 1.88483 0
M  V30 13865 C 1269.77 -1.76485 0.843345 0
M  V30 13866 O 1270.98 -2.50721 1.04169 0
M  V30 13867 C 1269.43 -1.32832 3.3449 0
M  V30 13868 C 1269.04 -0.317905 4.46871 0
M  V30 13869 C 1270.79 -1.99788 3.74546 0
M  V30 13870 C 1268.69 -0.936489 5.83938 0
M  V30 13871 H 1267.62 -0.271969 0.703242 0
M  V30 13872 H 1270.27 0.0274862 1.83479 0
M  V30 13873 H 1268.66 -2.12366 3.34241 0
M  V30 13874 H 1269.83 0.450767 4.5859 0
M  V30 13875 H 1268.14 0.249605 4.15651 0
M  V30 13876 H 1270.74 -2.46923 4.74271 0
M  V30 13877 H 1271.08 -2.81633 3.06575 0
M  V30 13878 H 1271.62 -1.27029 3.76973 0
M  V30 13879 H 1268.36 -0.15744 6.55311 0
M  V30 13880 H 1267.88 -1.67499 5.75938 0
M  V30 13881 H 1269.56 -1.44363 6.30689 0
M  V30 13882 N 1269.69 -1.54705 -0.300681 0
M  V30 13883 C 1270.62 -1.8205 -1.39249 0
M  V30 13884 C 1271.63 -0.703476 -1.46816 0
M  V30 13885 O 1272.82 -0.980957 -1.49129 0
M  V30 13886 C 1269.92 -1.94376 -2.77617 0
M  V30 13887 C 1269.09 -3.2478 -2.92979 0
M  V30 13888 C 1268.15 -3.27518 -4.11848 0
M  V30 13889 O 1267.18 -4.01047 -4.03918 0
M  V30 13890 N 1268.38 -2.52932 -5.22499 0
M  V30 13891 H 1271.15 -2.76279 -1.16146 0
M  V30 13892 H 1268.71 -1.54283 -0.49075 0
M  V30 13893 H 1270.7 -1.93609 -3.55384 0
M  V30 13894 H 1269.27 -1.07141 -2.93666 0
M  V30 13895 H 1268.49 -3.38319 -2.02322 0
M  V30 13896 H 1269.78 -4.10835 -3.00153 0
M  V30 13897 H 1269.18 -1.92825 -5.31822 0
M  V30 13898 H 1267.73 -2.57919 -5.98599 0
M  V30 13899 O 1271.2 0.446575 -1.55203 0
M  V30 13900 H 1271.9 1.10037 -1.5941 0
M  V30 END ATOM
M  V30 BEGIN BOND
M  V30 END BOND
M  V30 END CTAB
M  END
$$$$
