drugbank_target|P0A927 Nucleoside-specific channel-forming protein tsx (DB02745; DB04485)
 OpenBabel12092120033D

  0  0  0     0  0            999 V3000
M  V30 BEGIN CTAB
M  V30 COUNTS 4566 4648 0 0 0
M  V30 BEGIN ATOM
M  V30 1 H -0.908 1.98254 -0.117106 0
M  V30 2 N 0 1.576 0 0
M  V30 3 C 0.933 2.03868 1.02534 0
M  V30 4 C 1.911 0.928543 1.3348 0
M  V30 5 O 3.095 1.19667 1.45644 0
M  V30 6 C 0.222 2.43627 2.35294 0
M  V30 7 C -0.732 3.65373 2.2001 0
M  V30 8 S 0.101 5.13292 1.52614 0
M  V30 9 C 1.257 5.56322 2.86805 0
M  V30 10 H 1.49 2.90518 0.631377 0
M  V30 11 H -0.977 1.52953 0.210867 0
M  V30 12 H 0.981 2.67203 3.11629 0
M  V30 13 H -0.358 1.57376 2.7183 0
M  V30 14 H -1.165 3.90944 3.18086 0
M  V30 15 H -1.563 3.418 1.51819 0
M  V30 16 H 0.729 5.58782 3.83104 0
M  V30 17 H 1.672 6.56266 2.65933 0
M  V30 18 H 2.08 4.83886 2.90714 0
M  V30 19 N 1.4781 -0.272755 1.55222 0
M  V30 20 C 2.4251 -1.33716 1.88119 0
M  V30 21 C 3.3951 -1.49066 0.73271 0
M  V30 22 O 4.5801 -1.63469 0.984002 0
M  V30 23 C 1.7201 -2.69238 2.15882 0
M  V30 24 C 0.8331 -2.62108 3.43399 0
M  V30 25 C -0.0319 -3.89811 3.60861 0
M  V30 26 C -0.9929 -3.77193 4.8207 0
M  V30 27 N -1.8559 -4.9673 4.96189 0
M  V30 28 H 2.9841 -1.04962 2.78903 0
M  V30 29 H 0.5211 -0.507088 1.38083 0
M  V30 30 H 2.4791 -3.48089 2.29978 0
M  V30 31 H 1.1091 -2.96194 1.28331 0
M  V30 32 H 0.1611 -1.74967 3.37773 0
M  V30 33 H 1.4731 -2.48685 4.32386 0
M  V30 34 H 0.6271 -4.77103 3.74777 0
M  V30 35 H -0.6339 -4.06102 2.7006 0
M  V30 36 H -1.6289 -2.88284 4.68159 0
M  V30 37 H -0.4039 -3.62421 5.74307 0
M  V30 38 H -2.4579 -5.13431 4.08319 0
M  V30 39 H -2.5409 -4.85839 5.79221 0
M  V30 40 H -1.2729 -5.85594 5.1449 0
M  V30 41 N 2.9562 -1.48159 -0.537278 0
M  V30 42 C 3.9032 -1.62138 -1.64256 0
M  V30 43 C 4.8732 -0.463668 -1.59497 0
M  V30 44 O 6.0582 -0.686241 -1.78032 0
M  V30 45 C 3.1982 -1.66028 -3.02537 0
M  V30 46 C 2.3112 -2.92855 -3.17585 0
M  V30 47 C 1.4462 -2.87952 -4.46382 0
M  V30 48 C 0.4852 -4.09516 -4.54932 0
M  V30 49 N -0.3778 -4.02733 -5.75109 0
M  V30 50 H 4.4622 -2.56529 -1.51647 0
M  V30 51 H 1.9992 -1.27224 -0.738414 0
M  V30 52 H 3.9572 -1.66265 -3.82638 0
M  V30 53 H 2.5872 -0.751331 -3.13934 0
M  V30 54 H 1.6392 -3.02395 -2.30784 0
M  V30 55 H 2.9512 -3.82822 -3.19764 0
M  V30 56 H 2.1052 -2.8655 -5.34765 0
M  V30 57 H 0.8442 -1.95702 -4.46712 0
M  V30 58 H -0.1508 -4.11201 -3.64957 0
M  V30 59 H 1.0742 -5.02917 -4.56346 0
M  V30 60 H -0.9798 -3.13299 -5.76351 0
M  V30 61 H -1.0628 -4.86397 -5.78752 0
M  V30 62 H 0.2052 -4.05379 -6.65799 0
M  V30 63 N 4.4343 0.785586 -1.36625 0
M  V30 64 C 5.6623 1.57448 -1.3423 0
M  V30 65 C 6.0773 1.88649 0.0755653 0
M  V30 66 O 5.4343 1.50414 1.03354 0
M  V30 67 C 5.4853 2.89316 -2.16745 0
M  V30 68 O 5.2063 2.59459 -3.53005 0
M  V30 69 C 6.7073 3.83606 -2.22174 0
M  V30 70 H 3.9273 0.488226 -0.4603 0
M  V30 71 H 6.4713 0.974733 -1.79775 0
M  V30 72 H 4.6263 3.4575 -1.74745 0
M  V30 73 H 5.0403 3.43804 -3.96105 0
M  V30 74 H 6.5143 4.73181 -2.8426 0
M  V30 75 H 6.9913 4.21734 -1.22627 0
M  V30 76 H 7.5973 3.33104 -2.64427 0
M  V30 77 N 5.9124 1.20967 1.01018 0
M  V30 78 C 6.8424 0.988272 2.11555 0
M  V30 79 C 7.8234 -0.0849778 1.69888 0
M  V30 80 O 9.0084 0.0738202 1.9406 0
M  V30 81 C 6.1384 0.546528 3.42973 0
M  V30 82 C 5.0924 1.56375 3.9841 0
M  V30 83 C 4.4184 0.97842 5.25672 0
M  V30 84 C 5.7184 2.94922 4.31066 0
M  V30 85 H 7.4124 1.91276 2.30334 0
M  V30 86 H 4.9584 0.921073 1.1069 0
M  V30 87 H 6.9114 0.378839 4.19694 0
M  V30 88 H 5.6354 -0.413598 3.23971 0
M  V30 89 H 4.2944 1.71891 3.23804 0
M  V30 90 H 3.9424 0.0101688 5.02999 0
M  V30 91 H 3.6424 1.65784 5.63728 0
M  V30 92 H 5.1664 0.821939 6.05043 0
M  V30 93 H 6.5804 2.8288 4.9865 0
M  V30 94 H 4.9774 3.5983 4.80253 0
M  V30 95 H 6.0474 3.4616 3.39561 0
M  V30 96 N 7.3905 -1.2043 1.01659 0
M  V30 97 C 8.3205 -2.25466 0.607226 0
M  V30 98 C 9.3015 -1.65853 -0.377716 0
M  V30 99 O 10.4865 -1.92409 -0.263149 0
M  V30 100 C 7.6165 -3.47256 -0.0552949 0
M  V30 101 C 6.5705 -4.19462 0.850632 0
M  V30 102 C 5.8965 -5.34673 0.0538859 0
M  V30 103 C 7.1965 -4.75603 2.15868 0
M  V30 104 H 8.8905 -2.59962 1.48526 0
M  V30 105 H 6.4365 -1.2496 0.715605 0
M  V30 106 H 8.3895 -4.19917 -0.353233 0
M  V30 107 H 7.1135 -3.11924 -0.968045 0
M  V30 108 H 5.7725 -3.48667 1.13257 0
M  V30 109 H 5.4205 -4.95585 -0.860514 0
M  V30 110 H 5.1205 -5.83913 0.657192 0
M  V30 111 H 6.6445 -6.10138 -0.237598 0
M  V30 112 H 8.0585 -5.40083 1.92311 0
M  V30 113 H 6.4555 -5.3528 2.71284 0
M  V30 114 H 7.5255 -3.94346 2.82169 0
M  V30 115 N 8.8686 -0.792821 -1.36206 0
M  V30 116 C 9.8316 -0.199459 -2.2833 0
M  V30 117 C 10.8316 0.605189 -1.48977 0
M  V30 118 O 12.0216 0.425685 -1.68919 0
M  V30 119 C 9.1536 0.723523 -3.33134 0
M  V30 120 H 10.3466 -1.01181 -2.82316 0
M  V30 121 H 7.8996 -0.562485 -1.45828 0
M  V30 122 H 8.6346 1.56008 -2.84309 0
M  V30 123 H 8.4196 0.148436 -3.91819 0
M  V30 124 H 9.9096 1.13344 -4.01924 0
M  V30 125 N 10.3467 1.47872 -0.545128 0
M  V30 126 C 11.3097 2.28337 0.198717 0
M  V30 127 C 12.3097 1.36255 0.853888 0
M  V30 128 O 13.4997 1.59003 0.711606 0
M  V30 129 C 10.6317 3.15585 1.28915 0
M  V30 130 H 11.8247 2.95567 -0.507941 0
M  V30 131 H 9.3777 1.53362 -0.301616 0
M  V30 132 H 10.1127 2.53019 2.02859 0
M  V30 133 H 9.8977 3.83337 0.824309 0
M  V30 134 H 11.3877 3.76243 1.81194 0
M  V30 135 N 11.8248 0.280983 1.55075 0
M  V30 136 C 13.0728 -0.333455 1.9933 0
M  V30 137 C 13.3938 -1.55937 1.17085 0
M  V30 138 O 12.6638 -1.94143 0.261805 0
M  V30 139 H 11.2438 -0.126197 0.736263 0
M  V30 140 H 13.9058 0.387678 1.91005 0
M  V30 141 H 13.0018 -0.619292 3.05894 0
M  V30 142 N 13.3029 -1.57598 0.00835791 0
M  V30 143 C 14.2659 -2.07884 -0.965242 0
M  V30 144 C 15.2659 -0.989825 -1.26725 0
M  V30 145 O 16.4559 -1.25218 -1.21104 0
M  V30 146 C 13.5879 -2.52731 -2.28779 0
M  V30 147 H 14.7809 -2.95178 -0.530112 0
M  V30 148 H 12.3339 -1.54458 -0.239283 0
M  V30 149 H 13.0689 -1.68705 -2.76964 0
M  V30 150 H 12.8539 -3.32272 -2.08177 0
M  V30 151 H 14.3439 -2.91933 -2.98605 0
M  V30 152 N 14.781 0.264519 -1.55364 0
M  V30 153 C 16.027 0.99646 -1.76631 0
M  V30 154 C 16.36 1.85632 -0.570478 0
M  V30 155 O 15.635 1.89647 0.43175 0
M  V30 156 C 15.918 1.87187 -3.07625 0
M  V30 157 C 15.771 1.04138 -4.37579 0
M  V30 158 C 17.09 2.85749 -3.34717 0
M  V30 159 H 14.209 0.360841 -0.642622 0
M  V30 160 H 16.851 0.268218 -1.88097 0
M  V30 161 H 15.001 2.49279 -2.9798 0
M  V30 162 H 16.673 0.440517 -4.59192 0
M  V30 163 H 14.916 0.345115 -4.32425 0
M  V30 164 H 15.587 1.68729 -5.2558 0
M  V30 165 H 18.063 2.33793 -3.4421 0
M  V30 166 H 16.939 3.44136 -4.27623 0
M  V30 167 H 17.2 3.61311 -2.54768 0
M  V30 168 N 16.2591 1.48442 0.529413 0
M  V30 169 C 17.1891 1.65902 1.64313 0
M  V30 170 C 18.1701 0.507897 1.6234 0
M  V30 171 O 19.3551 0.740503 1.79528 0
M  V30 172 C 16.4851 1.69911 3.02898 0
M  V30 173 C 15.4391 2.8453 3.19729 0
M  V30 174 C 14.7651 2.73629 4.59381 0
M  V30 175 C 16.0651 4.25821 3.02447 0
M  V30 176 H 17.7591 2.5914 1.49955 0
M  V30 177 H 15.3051 1.24709 0.719982 0
M  V30 178 H 17.2581 1.80715 3.80684 0
M  V30 179 H 15.9821 0.732524 3.18279 0
M  V30 180 H 14.6411 2.73283 2.44361 0
M  V30 181 H 14.2891 1.74938 4.71599 0
M  V30 182 H 13.9891 3.50541 4.71588 0
M  V30 183 H 15.5131 2.86401 5.39265 0
M  V30 184 H 16.9271 4.37898 3.70024 0
M  V30 185 H 15.3241 5.03735 3.26146 0
M  V30 186 H 16.3941 4.42244 1.98867 0
M  V30 187 N 17.7372 -0.778329 1.37039 0
M  V30 188 C 18.7002 -1.87301 1.32102 0
M  V30 189 C 19.7002 -1.59198 0.226405 0
M  V30 190 O 20.8902 -1.67403 0.481861 0
M  V30 191 C 18.0222 -3.24309 1.05055 0
M  V30 192 H 19.2152 -1.93093 2.29467 0
M  V30 193 H 16.7682 -0.977358 1.21973 0
M  V30 194 H 17.5032 -3.24196 0.0819373 0
M  V30 195 H 17.2882 -3.46098 1.84279 0
M  V30 196 H 18.7782 -4.04382 1.04234 0
M  V30 197 N 19.2153 -1.21501 -1.00376 0
M  V30 198 C 20.1453 -0.999478 -2.11028 0
M  V30 199 C 21.1263 0.0759671 -1.6993 0
M  V30 200 O 22.3113 -0.0841106 -1.94018 0
M  V30 201 C 19.4413 -0.564709 -3.42678 0
M  V30 202 C 18.3953 -1.58486 -3.97576 0
M  V30 203 C 17.7213 -1.00628 -5.25146 0
M  V30 204 C 19.0213 -2.97204 -4.29496 0
M  V30 205 H 20.7153 -1.92495 -2.29317 0
M  V30 206 H 18.2613 -0.92693 -1.102 0
M  V30 207 H 20.2143 -0.401091 -4.19487 0
M  V30 208 H 18.9383 0.396411 -3.24185 0
M  V30 209 H 17.5973 -1.73606 -3.22888 0
M  V30 210 H 17.2453 -0.0368439 -5.02987 0
M  V30 211 H 16.9453 -1.68771 -5.62841 0
M  V30 212 H 18.4693 -0.854015 -6.04598 0
M  V30 213 H 19.8833 -2.8552 -4.97143 0
M  V30 214 H 18.2803 -3.62372 -4.78338 0
M  V30 215 H 19.3503 -3.47956 -3.3772 0
M  V30 216 N 20.6934 1.19889 -1.02296 0
M  V30 217 C 21.9184 1.9393 -0.735237 0
M  V30 218 C 22.3434 1.74639 0.698782 0
M  V30 219 O 21.7014 1.04481 1.48167 0
M  V30 220 C 21.7494 3.43916 -1.08417 0
M  V30 221 O 20.8534 4.11917 -0.199446 0
M  V30 222 H 20.1944 0.605645 -0.272196 0
M  V30 223 H 22.7244 1.52137 -1.36804 0
M  V30 224 H 22.7344 3.9456 -1.03856 0
M  V30 225 H 21.4094 3.5728 -2.12894 0
M  V30 226 H 19.9864 3.71666 -0.303136 0
M  V30 227 N 22.1715 0.800033 1.35784 0
M  V30 228 C 23.3965 0.388511 2.03729 0
M  V30 229 C 23.8215 -0.990481 1.5991 0
M  V30 230 O 23.1795 -1.64013 0.772612 0
M  V30 231 C 23.2275 0.4726 3.5749 0
M  V30 232 O 22.3315 -0.51646 4.09153 0
M  V30 233 H 21.6725 0.163271 0.643614 0
M  V30 234 H 24.2025 1.0841 1.73518 0
M  V30 235 H 24.2125 0.34003 4.06581 0
M  V30 236 H 22.8875 1.47848 3.88734 0
M  V30 237 H 21.4645 -0.344673 3.71304 0
M  V30 238 N 23.6496 -1.47581 0.552962 0
M  V30 239 C 24.8746 -2.07378 0.0300593 0
M  V30 240 C 25.2996 -1.40355 -1.25229 0
M  V30 241 O 24.6576 -0.477099 -1.7491 0
M  V30 242 C 24.7056 -3.60274 -0.153231 0
M  V30 243 O 23.8096 -3.94041 -1.21678 0
M  V30 244 H 23.1506 -0.662158 0.0494182 0
M  V30 245 H 25.6806 -1.89662 0.767434 0
M  V30 246 H 25.6906 -4.0633 -0.368761 0
M  V30 247 H 24.3656 -4.08455 0.783397 0
M  V30 248 H 22.9426 -3.59735 -0.982079 0
M  V30 249 N 25.1277 -0.289203 -1.54924 0
M  V30 250 C 26.3747 0.323519 -1.99899 0
M  V30 251 C 26.7027 1.54797 -1.17762 0
M  V30 252 O 25.9577 1.94237 -0.238835 0
M  V30 253 C 26.2567 0.736119 -3.49737 0
M  V30 254 C 25.9227 -0.385276 -4.49251 0
M  V30 255 C 24.5847 -0.693156 -4.76181 0
M  V30 256 C 26.9367 -1.14021 -5.08575 0
M  V30 257 C 24.2647 -1.7593 -5.59701 0
M  V30 258 C 26.6167 -2.19619 -5.93254 0
M  V30 259 C 25.2807 -2.51026 -6.185 0
M  V30 260 H 24.5507 0.118384 -0.731482 0
M  V30 261 H 27.1977 -0.405847 -1.8715 0
M  V30 262 H 25.5027 1.54539 -3.60035 0
M  V30 263 H 27.1997 1.22118 -3.81953 0
M  V30 264 H 23.7897 -0.135202 -4.28387 0
M  V30 265 H 27.9737 -0.915611 -4.87781 0
M  V30 266 H 23.2297 -2.0075 -5.77503 0
M  V30 267 H 27.4037 -2.78581 -6.38252 0
M  V30 268 H 25.0307 -3.33772 -6.83008 0
M  V30 269 N 26.6058 1.57591 -0.0167156 0
M  V30 270 C 27.8338 1.95575 0.675128 0
M  V30 271 C 28.2488 0.892542 1.6637 0
M  V30 272 O 27.6058 -0.126912 1.82058 0
M  V30 273 C 27.6568 3.33608 1.39239 0
M  V30 274 O 27.3778 4.3585 0.443444 0
M  V30 275 C 28.8788 3.86151 2.17721 0
M  V30 276 H 26.0988 0.644423 0.186978 0
M  V30 277 H 28.6428 2.0437 -0.0728 0
M  V30 278 H 26.7978 3.2607 2.09182 0
M  V30 279 H 27.2118 5.158 0.951358 0
M  V30 280 H 28.6858 4.85114 2.63379 0
M  V30 281 H 29.1628 3.19738 3.01105 0
M  V30 282 H 29.7688 3.96918 1.52761 0
M  V30 283 N 28.0839 -0.256276 1.55502 0
M  V30 284 C 29.3299 -0.987079 1.77157 0
M  V30 285 C 29.6629 -1.85327 0.580315 0
M  V30 286 O 28.9379 -1.89874 -0.421686 0
M  V30 287 C 29.2209 -1.85553 3.08613 0
M  V30 288 C 29.0739 -1.01816 4.38125 0
M  V30 289 C 30.3929 -2.8397 3.36228 0
M  V30 290 H 27.5119 -0.357428 0.644526 0
M  V30 291 H 30.1539 -0.258239 1.88237 0
M  V30 292 H 28.3039 -2.47695 2.99298 0
M  V30 293 H 29.9759 -0.416159 4.59419 0
M  V30 294 H 28.2189 -0.322178 4.32602 0
M  V30 295 H 28.8899 -1.65939 5.26468 0
M  V30 296 H 31.3659 -2.31964 3.45445 0
M  V30 297 H 30.2419 -3.41864 4.29442 0
M  V30 298 H 30.5029 -3.59955 2.56681 0
M  V30 299 N 29.562 -1.4872 -0.521534 0
M  V30 300 C 30.51 -1.64328 -1.64618 0
M  V30 301 C 31.504 -0.50953 -1.61555 0
M  V30 302 O 32.71 -0.688525 -1.66311 0
M  V30 303 H 29.085 -0.517805 -0.545328 0
M  V30 304 H 31.056 -2.58767 -1.48601 0
M  V30 305 C 29.805 -1.70805 -3.02855 0
M  V30 306 H 29.128 -2.5741 -3.05909 0
M  V30 307 H 30.568 -1.85766 -3.81139 0
M  V30 308 C 29.027 -0.448479 -3.33902 0
M  V30 309 O 29.557 0.434928 -3.99339 0
M  V30 310 N 27.763 -0.317616 -2.88859 0
M  V30 311 H 27.31 -1.03748 -2.35784 0
M  V30 312 H 27.268 0.524113 -3.10001 0
M  V30 313 N 31.0401 0.771051 -1.3745 0
M  V30 314 C 32.0031 1.86598 -1.33093 0
M  V30 315 C 33.0031 1.59076 -0.234845 0
M  V30 316 O 34.1931 1.67145 -0.490732 0
M  V30 317 C 31.3251 3.23747 -1.06773 0
M  V30 318 H 32.5181 1.91873 -2.30488 0
M  V30 319 H 30.0711 0.970876 -1.2249 0
M  V30 320 H 30.8061 3.24148 -0.099129 0
M  V30 321 H 30.5911 3.45115 -1.86112 0
M  V30 322 H 32.0811 4.03824 -1.06377 0
M  V30 323 N 32.5182 1.22032 0.997298 0
M  V30 324 C 33.4812 0.987909 2.06816 0
M  V30 325 C 34.4812 -0.0440084 1.6074 0
M  V30 326 O 35.6712 0.194053 1.73116 0
M  V30 327 C 32.8032 0.49132 3.37341 0
M  V30 328 H 33.9962 1.93803 2.28868 0
M  V30 329 H 31.5492 1.03838 1.16822 0
M  V30 330 H 32.2842 -0.463364 3.20973 0
M  V30 331 H 32.0692 1.23575 3.72118 0
M  V30 332 H 33.5592 0.348824 4.16141 0
M  V30 333 N 33.9963 -1.19345 1.0293 0
M  V30 334 C 34.9063 -2.26245 0.620515 0
M  V30 335 C 35.9223 -1.70486 -0.347928 0
M  V30 336 O 37.0983 -2.00347 -0.205704 0
M  V30 337 C 34.1633 -3.46693 -0.0218957 0
M  V30 338 C 33.2243 -4.17632 0.994102 0
M  V30 339 C 32.4573 -5.32329 0.382253 0
M  V30 340 O 32.6803 -5.64552 -0.814676 0
M  V30 341 O 31.6143 -5.91664 1.10531 0
M  V30 342 H 35.4403 -2.63453 1.51083 0
M  V30 343 H 33.0253 -1.26207 0.799513 0
M  V30 344 H 34.9073 -4.19683 -0.380072 0
M  V30 345 H 33.5823 -3.11333 -0.886209 0
M  V30 346 H 32.4893 -3.4676 1.40387 0
M  V30 347 H 33.8223 -4.56964 1.8288 0
M  V30 348 N 35.4744 -0.807222 -1.35358 0
M  V30 349 C 36.4224 -0.20614 -2.31685 0
M  V30 350 C 37.4164 0.644445 -1.56663 0
M  V30 351 O 38.6224 0.537538 -1.71786 0
M  V30 352 H 34.9974 -0.0479006 -0.750473 0
M  V30 353 H 36.9684 -1.03369 -2.79924 0
M  V30 354 C 35.7174 0.630212 -3.41941 0
M  V30 355 H 35.0404 -0.0149558 -3.99797 0
M  V30 356 H 36.4804 1.01716 -4.11619 0
M  V30 357 C 34.9394 1.79601 -2.85035 0
M  V30 358 O 35.4694 2.89351 -2.78637 0
M  V30 359 N 33.6754 1.60774 -2.42074 0
M  V30 360 H 33.2224 0.715009 -2.47478 0
M  V30 361 H 33.1804 2.38933 -2.04349 0
M  V30 362 N 36.9525 1.47285 -0.560781 0
M  V30 363 C 38.2295 1.9558 0.0277798 0
M  V30 364 C 38.6095 1.5034 1.48192 0
M  V30 365 O 37.9575 0.743882 2.16052 0
M  V30 366 C 38.1675 3.48789 -0.121418 0
M  V30 367 C 39.5155 4.24594 0.0220912 0
M  V30 368 O 40.5395 3.56166 -0.0491439 0
M  V30 369 O 39.3985 5.46217 0.175958 0
M  V30 370 H 36.4925 0.824663 0.0621342 0
M  V30 371 H 39.0385 1.5767 -0.627556 0
M  V30 372 H 37.8105 3.74533 -1.13316 0
M  V30 373 H 37.4335 3.93473 0.571366 0
M  V30 374 N 38.4306 0.297415 1.54768 0
M  V30 375 C 39.3776 -0.580276 2.23386 0
M  V30 376 C 40.3476 -1.13238 1.21517 0
M  V30 377 O 41.5326 -1.17757 1.50126 0
M  V30 378 C 38.6726 -1.74801 2.97555 0
M  V30 379 C 37.7856 -1.22764 4.1419 0
M  V30 380 C 36.9206 -2.35895 4.75949 0
M  V30 381 C 35.9596 -1.80974 5.84735 0
M  V30 382 N 35.0966 -2.87664 6.40464 0
M  V30 383 H 39.9366 0.0114833 2.97998 0
M  V30 384 H 37.4736 0.0174361 1.4709 0
M  V30 385 H 39.4316 -2.43475 3.38786 0
M  V30 386 H 38.0616 -2.31145 2.25326 0
M  V30 387 H 37.1136 -0.433271 3.77924 0
M  V30 388 H 38.4256 -0.785551 4.92575 0
M  V30 389 H 37.5796 -3.12523 5.20014 0
M  V30 390 H 36.3186 -2.83429 3.96887 0
M  V30 391 H 35.3236 -1.02834 5.40097 0
M  V30 392 H 36.5486 -1.34348 6.65678 0
M  V30 393 H 34.4946 -3.34538 5.64287 0
M  V30 394 H 34.4116 -2.4794 7.14186 0
M  V30 395 H 35.6796 -3.642 6.89187 0
M  V30 396 N 39.9087 -1.5758 0.0250728 0
M  V30 397 C 41.3197 -1.79476 -0.514323 0
M  V30 398 C 41.6707 -0.934956 -1.72491 0
M  V30 399 O 40.7957 -0.144245 -2.15919 0
M  V30 400 C 41.3907 -3.25503 -0.939842 0
M  V30 401 C 39.9497 -3.48408 -1.42438 0
M  V30 402 C 39.0967 -2.74583 -0.387201 0
M  V30 403 H 42.0477 -1.567 0.25113 0
M  V30 404 H 42.0687 -3.34992 -1.80445 0
M  V30 405 H 41.5807 -3.88056 -0.0585628 0
M  V30 406 H 39.6817 -2.91103 -2.32572 0
M  V30 407 H 39.7947 -4.57119 -1.43455 0
M  V30 408 H 38.1587 -2.39942 -0.854409 0
M  V30 409 H 38.9417 -3.39849 0.485543 0
M  V30 410 N 41.3868 0.248026 -1.55636 0
M  V30 411 C 42.3188 1.32993 -1.8667 0
M  V30 412 C 43.3318 1.44345 -0.752877 0
M  V30 413 O 44.5208 1.45715 -1.03098 0
M  V30 414 C 41.6208 2.70863 -2.03682 0
M  V30 415 C 40.7938 2.81792 -3.34532 0
M  V30 416 C 39.8528 4.005 -3.41301 0
M  V30 417 O 38.8788 3.9008 -4.14519 0
M  V30 418 N 40.0808 5.13618 -2.70512 0
M  V30 419 H 42.8458 1.06707 -2.8006 0
M  V30 420 H 40.4068 0.438129 -1.55859 0
M  V30 421 H 42.3988 3.48612 -2.05553 0
M  V30 422 H 40.9688 2.89862 -1.17041 0
M  V30 423 H 40.1888 1.90729 -3.44987 0
M  V30 424 H 41.4768 2.86043 -4.20781 0
M  V30 425 H 40.8748 5.24975 -2.10755 0
M  V30 426 H 39.4318 5.89505 -2.78077 0
M  V30 427 N 42.8649 1.48995 0.513639 0
M  V30 428 C 44.0949 1.61297 1.291 0
M  V30 429 C 44.5029 0.278656 1.87137 0
M  V30 430 O 43.8459 -0.744325 1.67945 0
M  V30 431 C 43.9079 2.61326 2.46879 0
M  V30 432 C 43.5719 4.05993 2.09807 0
M  V30 433 C 44.5689 4.93183 1.64519 0
M  V30 434 C 42.2539 4.51642 2.19829 0
M  V30 435 C 44.2479 6.24056 1.2974 0
M  V30 436 C 41.9349 5.82532 1.84662 0
M  V30 437 C 42.9329 6.68562 1.3969 0
M  V30 438 O 42.6209 7.97014 1.04992 0
M  V30 439 H 42.3529 0.546236 0.39825 0
M  V30 440 H 44.9069 1.95673 0.62459 0
M  V30 441 H 43.1369 2.22104 3.16554 0
M  V30 442 H 44.8259 2.6329 3.08923 0
M  V30 443 H 45.5919 4.59147 1.56233 0
M  V30 444 H 41.4709 3.84855 2.53786 0
M  V30 445 H 45.0149 6.91161 0.945659 0
M  V30 446 H 40.9119 6.16099 1.92594 0
M  V30 447 H 41.6799 8.09913 1.18249 0
M  V30 448 N 44.343 -0.763751 1.37857 0
M  V30 449 C 45.273 -1.89103 1.36975 0
M  V30 450 C 46.254 -1.68439 0.237152 0
M  V30 451 O 47.439 -1.8918 0.438713 0
M  V30 452 C 44.569 -3.26496 1.18395 0
M  V30 453 C 43.523 -3.61741 2.28751 0
M  V30 454 C 42.849 -4.97762 1.95286 0
M  V30 455 C 44.149 -3.67665 3.70972 0
M  V30 456 H 45.843 -1.90099 2.31307 0
M  V30 457 H 43.389 -0.91319 1.11341 0
M  V30 458 H 45.342 -4.05003 1.16406 0
M  V30 459 H 44.066 -3.25955 0.205215 0
M  V30 460 H 42.725 -2.85547 2.29909 0
M  V30 461 H 42.373 -4.93769 0.959221 0
M  V30 462 H 42.073 -5.22313 2.69189 0
M  V30 463 H 43.597 -5.7866 1.94898 0
M  V30 464 H 45.011 -4.36307 3.719 0
M  V30 465 H 43.408 -4.03718 4.43995 0
M  V30 466 H 44.478 -2.68134 4.0402 0
M  V30 467 N 45.8211 -1.22559 -0.990812 0
M  V30 468 C 47.0461 -1.07862 -1.77145 0
M  V30 469 C 47.4711 0.366447 -1.84496 0
M  V30 470 O 46.8291 1.26478 -1.29896 0
M  V30 471 C 46.8771 -1.69686 -3.18181 0
M  V30 472 O 45.9811 -0.951946 -4.01263 0
M  V30 473 H 45.3221 -0.378712 -0.545411 0
M  V30 474 H 47.8521 -1.62399 -1.2445 0
M  V30 475 H 47.8621 -1.74496 -3.68802 0
M  V30 476 H 46.5371 -2.74841 -3.12146 0
M  V30 477 H 45.1141 -0.980011 -3.59792 0
M  V30 478 N 47.2992 1.18797 -1.03562 0
M  V30 479 C 48.5762 1.84469 -0.650434 0
M  V30 480 C 48.9562 1.92319 0.870433 0
M  V30 481 O 48.3042 1.44528 1.76986 0
M  V30 482 C 48.5142 3.2306 -1.32036 0
M  V30 483 C 49.8622 3.9915 -1.44792 0
M  V30 484 O 50.8862 3.32481 -1.27806 0
M  V30 485 O 49.7452 5.18587 -1.72423 0
M  V30 486 H 46.8392 0.795251 -0.226946 0
M  V30 487 H 49.3852 1.26231 -1.13419 0
M  V30 488 H 48.1572 3.1222 -2.3587 0
M  V30 489 H 47.7802 3.88949 -0.8249 0
M  V30 490 N 48.7773 0.814389 1.34928 0
M  V30 491 C 50.0233 0.408167 1.99263 0
M  V30 492 C 50.3783 -1.0154 1.63424 0
M  V30 493 O 49.6713 -1.69607 0.891289 0
M  V30 494 C 49.8653 0.537781 3.53331 0
M  V30 495 C 49.6943 1.9724 4.04137 0
M  V30 496 C 48.4643 2.60245 4.33129 0
M  V30 497 C 50.6623 2.93801 4.2212 0
M  V30 498 N 48.6443 3.95036 4.69914 0
M  V30 499 C 50.0153 4.1348 4.6199 0
M  V30 500 C 52.0703 2.9053 4.04348 0
M  V30 501 C 50.7733 5.3033 4.85945 0
M  V30 502 C 52.7993 4.06589 4.29464 0
M  V30 503 C 52.1613 5.25017 4.69613 0
M  V30 504 H 48.2603 0.197289 0.756704 0
M  V30 505 H 50.8443 1.05728 1.63492 0
M  V30 506 H 49.0153 -0.0813868 3.88315 0
M  V30 507 H 50.7473 0.105389 4.04563 0
M  V30 508 H 47.5023 2.11545 4.23728 0
M  V30 509 H 47.9263 4.64455 4.92555 0
M  V30 510 H 52.5683 2.00115 3.72443 0
M  V30 511 H 50.2863 6.21309 5.16721 0
M  V30 512 H 53.8723 4.05447 4.17257 0
M  V30 513 H 52.7523 6.1333 4.88667 0
M  V30 514 N 50.2554 -1.46986 0.568584 0
M  V30 515 C 51.5014 -2.0332 0.0571487 0
M  V30 516 C 51.8564 -1.43384 -1.28291 0
M  V30 517 O 51.1494 -0.584304 -1.82473 0
M  V30 518 C 51.3434 -3.57306 -0.081836 0
M  V30 519 C 51.1724 -4.32174 1.24321 0
M  V30 520 C 49.9424 -4.71633 1.81358 0
M  V30 521 C 52.1404 -4.66598 2.16312 0
M  V30 522 N 50.1224 -5.31191 3.07748 0
M  V30 523 C 51.4934 -5.26578 3.27285 0
M  V30 524 C 53.5484 -4.48527 2.16166 0
M  V30 525 C 52.2514 -5.70395 4.38226 0
M  V30 526 C 54.2774 -4.93351 3.26127 0
M  V30 527 C 53.6394 -5.5339 4.3582 0
M  V30 528 H 49.7384 -0.77943 0.063351 0
M  V30 529 H 52.3224 -1.79323 0.758378 0
M  V30 530 H 50.4934 -3.81046 -0.752207 0
M  V30 531 H 52.2254 -4.00282 -0.59637 0
M  V30 532 H 48.9804 -4.53946 1.35019 0
M  V30 533 H 49.4044 -5.65505 3.72201 0
M  V30 534 H 54.0464 -4.01456 1.32638 0
M  V30 535 H 51.7644 -6.16452 5.22506 0
M  V30 536 H 55.3504 -4.81131 3.27115 0
M  V30 537 H 54.2304 -5.87441 5.19503 0
M  V30 538 N 51.7335 -0.305618 -1.54608 0
M  V30 539 C 52.6835 0.583595 -2.20405 0
M  V30 540 C 53.6675 1.09539 -1.17856 0
M  V30 541 O 54.8595 1.0354 -1.43557 0
M  V30 542 C 51.9885 1.75277 -2.95183 0
M  V30 543 C 51.0745 1.25672 -4.05052 0
M  V30 544 N 51.4655 0.478998 -5.03527 0
M  V30 545 C 49.7635 1.53704 -4.18678 0
M  V30 546 C 50.4645 0.214269 -5.81305 0
M  V30 547 N 49.4405 0.795374 -5.3775 0
M  V30 548 H 53.2425 -0.0180946 -2.93894 0
M  V30 549 H 50.7565 -0.110601 -1.62023 0
M  V30 550 H 52.7535 2.4014 -3.40791 0
M  V30 551 H 51.4135 2.35812 -2.23211 0
M  V30 552 H 52.4245 0.123473 -5.17753 0
M  V30 553 H 49.1015 2.14954 -3.57912 0
M  V30 554 H 50.4915 -0.410656 -6.70644 0
M  V30 555 N 53.2116 1.57565 -0.0334293 0
M  V30 556 C 54.1436 2.0739 0.975811 0
M  V30 557 C 55.1566 0.998166 1.2861 0
M  V30 558 O 56.3456 1.27426 1.25 0
M  V30 559 C 53.4456 2.4871 2.30209 0
M  V30 560 C 52.6186 3.79413 2.17634 0
M  V30 561 C 51.6776 4.07237 3.33233 0
M  V30 562 O 50.7036 4.77425 3.09927 0
M  V30 563 N 51.9056 3.5775 4.5716 0
M  V30 564 H 54.6706 2.94598 0.55066 0
M  V30 565 H 52.2316 1.61173 0.15323 0
M  V30 566 H 54.2236 2.64413 3.06378 0
M  V30 567 H 52.7936 1.66845 2.64351 0
M  V30 568 H 52.0136 3.73465 1.26165 0
M  V30 569 H 53.3016 4.65038 2.0644 0
M  V30 570 H 52.6996 3.00976 4.78989 0
M  V30 571 H 51.2566 3.78724 5.30482 0
M  V30 572 N 54.6897 -0.239769 1.55765 0
M  V30 573 C 55.9147 -0.988373 1.82335 0
M  V30 574 C 56.3397 -1.77886 0.611421 0
M  V30 575 O 55.6977 -1.75889 -0.439639 0
M  V30 576 C 55.7457 -1.89627 3.06715 0
M  V30 577 O 54.8497 -2.98904 2.84131 0
M  V30 578 H 54.1907 -0.280858 0.601677 0
M  V30 579 H 56.7207 -0.258597 2.02959 0
M  V30 580 H 56.7307 -2.30957 3.36338 0
M  V30 581 H 55.4057 -1.31511 3.9456 0
M  V30 582 H 53.9827 -2.61651 2.65694 0
M  V30 583 N 56.1678 -1.49265 -0.50573 0
M  V30 584 C 57.4138 -1.58748 -1.26202 0
M  V30 585 C 57.7468 -0.271227 -1.92297 0
M  V30 586 O 57.0218 0.724831 -1.80489 0
M  V30 587 C 57.3048 -2.74332 -2.33268 0
M  V30 588 C 57.1578 -4.15737 -1.71705 0
M  V30 589 C 58.4768 -2.85576 -3.34865 0
M  V30 590 H 55.5958 -0.577826 -0.457478 0
M  V30 591 H 58.2378 -1.81532 -0.560897 0
M  V30 592 H 56.3878 -2.55036 -2.93068 0
M  V30 593 H 58.0598 -4.46537 -1.15769 0
M  V30 594 H 56.3028 -4.21605 -1.02135 0
M  V30 595 H 56.9738 -4.92477 -2.49341 0
M  V30 596 H 59.4498 -3.03127 -2.8505 0
M  V30 597 H 58.3258 -3.68135 -4.07146 0
M  V30 598 H 58.5868 -1.94732 -3.96903 0
M  V30 599 N 57.6459 0.756429 -1.3826 0
M  V30 600 C 58.5939 1.89149 -1.35372 0
M  V30 601 C 59.5879 1.67691 -0.24004 0
M  V30 602 O 60.7939 1.75294 -0.408919 0
M  V30 603 H 57.1689 0.622271 -0.422236 0
M  V30 604 H 59.1399 1.88701 -2.31159 0
M  V30 605 C 57.8889 3.26599 -1.19284 0
M  V30 606 H 57.2119 3.43695 -2.0424 0
M  V30 607 H 58.6519 4.06274 -1.21316 0
M  V30 608 C 57.1109 3.3675 0.100454 0
M  V30 609 O 57.6409 3.86951 1.07851 0
M  V30 610 N 55.8469 2.90179 0.15633 0
M  V30 611 H 55.3939 2.49517 -0.640253 0
M  V30 612 H 55.3519 2.97352 1.02123 0
M  V30 613 N 59.124 1.23083 0.984299 0
M  V30 614 C 60.37 1.06214 1.72761 0
M  V30 615 C 60.703 -0.400584 1.90024 0
M  V30 616 O 59.978 -1.29672 1.44967 0
M  V30 617 C 60.261 1.78375 3.12817 0
M  V30 618 C 60.114 3.32296 3.03149 0
M  V30 619 C 61.433 1.54309 4.12161 0
M  V30 620 H 58.552 0.387251 0.627061 0
M  V30 621 H 61.194 1.51536 1.14616 0
M  V30 622 H 59.344 1.39848 3.62457 0
M  V30 623 H 61.016 3.8032 2.61064 0
M  V30 624 H 59.259 3.6153 2.39747 0
M  V30 625 H 59.93 3.77972 4.02295 0
M  V30 626 H 62.406 1.87791 3.71314 0
M  V30 627 H 61.282 2.07281 5.08258 0
M  V30 628 H 61.543 0.477572 4.39513 0
M  V30 629 N 60.6021 -1.18246 1.0419 0
M  V30 630 C 61.8481 -1.88536 0.747122 0
M  V30 631 C 62.1811 -1.80223 -0.723409 0
M  V30 632 O 61.4561 -1.20337 -1.52804 0
M  V30 633 C 61.7391 -3.38968 1.21544 0
M  V30 634 C 61.5921 -3.56084 2.74816 0
M  V30 635 C 62.9111 -4.32648 0.806482 0
M  V30 636 H 60.0301 -0.684619 0.272883 0
M  V30 637 H 62.6721 -1.39113 1.29413 0
M  V30 638 H 60.8221 -3.8119 0.750081 0
M  V30 639 H 62.4941 -3.22946 3.29399 0
M  V30 640 H 60.7371 -2.98699 3.14582 0
M  V30 641 H 61.4081 -4.61639 3.02644 0
M  V30 642 H 63.8841 -3.98211 1.20695 0
M  V30 643 H 62.7601 -5.36462 1.1619 0
M  V30 644 H 63.0211 -4.41146 -0.29029 0
M  V30 645 N 62.0802 -0.821533 -1.34494 0
M  V30 646 C 63.3282 -0.408139 -1.97936 0
M  V30 647 C 63.6492 1.03193 -1.65457 0
M  V30 648 O 62.9192 1.71622 -0.944595 0
M  V30 649 H 61.4992 -0.147928 -0.732206 0
M  V30 650 H 64.1612 -1.05067 -1.64155 0
M  V30 651 H 63.2572 -0.52601 -3.07635 0
M  V30 652 N 63.5583 1.46682 -0.576371 0
M  V30 653 C 64.7833 2.07304 -0.0630475 0
M  V30 654 C 65.2083 1.42329 1.2298 0
M  V30 655 O 64.5663 0.504865 1.74129 0
M  V30 656 C 64.6143 3.60472 0.095895 0
M  V30 657 O 63.7183 3.95927 1.15394 0
M  V30 658 H 63.0593 0.661288 -0.0599463 0
M  V30 659 H 65.5893 1.88417 -0.797511 0
M  V30 660 H 65.5993 4.06865 0.304071 0
M  V30 661 H 64.2743 4.07157 -0.84828 0
M  V30 662 H 62.8513 3.61252 0.924724 0
M  V30 663 N 65.0364 0.313813 1.54444 0
M  V30 664 C 66.2664 -0.293491 2.04505 0
M  V30 665 C 66.6744 -1.47086 1.19005 0
M  V30 666 O 66.0174 -1.82481 0.211257 0
M  V30 667 C 66.0794 -0.800455 3.50475 0
M  V30 668 C 65.7434 0.253322 4.56297 0
M  V30 669 C 66.7404 1.08612 5.08428 0
M  V30 670 C 64.4254 0.398708 5.00715 0
M  V30 671 C 66.4194 2.05013 6.0353 0
M  V30 672 C 64.1064 1.36614 5.95634 0
M  V30 673 C 65.1044 2.19033 6.46926 0
M  V30 674 O 64.7924 3.14134 7.39983 0
M  V30 675 H 64.5244 -0.0658325 0.672787 0
M  V30 676 H 67.0784 0.455177 2.00293 0
M  V30 677 H 65.3084 -1.59987 3.52053 0
M  V30 678 H 66.9974 -1.32504 3.83663 0
M  V30 679 H 67.7634 0.984736 4.74898 0
M  V30 680 H 63.6424 -0.23289 4.60411 0
M  V30 681 H 67.1864 2.69382 6.4349 0
M  V30 682 H 63.0834 1.4682 6.28581 0
M  V30 683 H 63.8514 3.0926 7.57826 0
M  V30 684 N 66.5145 -1.57545 0.0417849 0
M  V30 685 C 67.4645 -2.07483 -0.945247 0
M  V30 686 C 68.4485 -0.977983 -1.27767 0
M  V30 687 O 69.6405 -1.24142 -1.26166 0
M  V30 688 C 66.7695 -2.61576 -2.22335 0
M  V30 689 C 65.8555 -3.78213 -1.91874 0
M  V30 690 N 66.2465 -4.88344 -1.31733 0
M  V30 691 C 64.5445 -3.8694 -2.21796 0
M  V30 692 C 65.2455 -5.69462 -1.1869 0
M  V30 693 N 64.2215 -5.16771 -1.68666 0
M  V30 694 H 68.0235 -2.90029 -0.475441 0
M  V30 695 H 65.5375 -1.61581 -0.162911 0
M  V30 696 H 67.5345 -2.95651 -2.93932 0
M  V30 697 H 66.1945 -1.80465 -2.69931 0
M  V30 698 H 67.2055 -5.08335 -0.990729 0
M  V30 699 H 63.8825 -3.16757 -2.71977 0
M  V30 700 H 65.2725 -6.68023 -0.720793 0
M  V30 701 N 67.9926 0.231505 -1.5589 0
M  V30 702 C 69.2206 0.974505 -1.82513 0
M  V30 703 C 69.6356 1.78344 -0.619591 0
M  V30 704 O 68.9926 1.77792 0.411848 0
M  V30 705 C 69.0436 1.90007 -3.07538 0
M  V30 706 O 68.7646 1.12385 -4.2344 0
M  V30 707 C 70.2656 2.75779 -3.47075 0
M  V30 708 H 67.4856 0.286065 -0.606966 0
M  V30 709 H 70.0296 0.249739 -2.02969 0
M  V30 710 H 68.1846 2.57891 -2.89086 0
M  V30 711 H 68.5986 1.75125 -4.944 0
M  V30 712 H 70.0726 3.36443 -4.37619 0
M  V30 713 H 70.5496 3.47672 -2.68367 0
M  V30 714 H 71.1556 2.13323 -3.67931 0
M  V30 715 N 69.4707 1.49531 0.497807 0
M  V30 716 C 70.8867 1.36365 0.829266 0
M  V30 717 C 71.0867 0.399184 1.97506 0
M  V30 718 O 70.1427 -0.167977 2.51941 0
M  V30 719 C 71.4557 2.77153 1.16647 0
M  V30 720 C 73.0037 2.85877 1.27449 0
M  V30 721 C 73.4787 4.2744 1.64497 0
M  V30 722 N 74.9697 4.30265 1.7154 0
M  V30 723 C 75.7047 5.3677 2.01656 0
M  V30 724 N 75.2007 6.53516 2.29976 0
M  V30 725 N 76.9937 5.24189 2.02934 0
M  V30 726 H 69.1447 2.10831 -0.257703 0
M  V30 727 H 71.4077 0.946534 -0.0527091 0
M  V30 728 H 71.1137 3.49442 0.397872 0
M  V30 729 H 70.9877 3.12722 2.10915 0
M  V30 730 H 73.3747 2.13824 2.0338 0
M  V30 731 H 73.4557 2.53887 0.312244 0
M  V30 732 H 73.0997 5.00021 0.891151 0
M  V30 733 H 73.0297 4.56896 2.61827 0
M  V30 734 H 75.5207 3.4607 1.51802 0
M  V30 735 H 75.8337 7.30506 2.52153 0
M  V30 736 H 74.1787 6.56737 2.27425 0
M  V30 737 H 77.3697 4.31988 1.80289 0
M  V30 738 H 77.5427 6.07286 2.26071 0
M  V30 739 N 70.9488 -0.749086 1.3866 0
M  V30 740 C 72.1958 -1.50833 1.35114 0
M  V30 741 C 72.5238 -1.94415 -0.0574049 0
M  V30 742 O 71.7788 -1.66065 -1.03541 0
M  V30 743 C 72.0778 -2.7712 2.25697 0
M  V30 744 C 71.7438 -2.52477 3.73585 0
M  V30 745 C 70.4058 -2.45466 4.13884 0
M  V30 746 C 72.7578 -2.31066 4.67181 0
M  V30 747 C 70.0858 -2.15064 5.45861 0
M  V30 748 C 72.4378 -2.02183 5.9942 0
M  V30 749 C 71.1018 -1.93631 6.38798 0
M  V30 750 H 70.3718 -0.551936 0.494416 0
M  V30 751 H 73.0188 -0.860979 1.71054 0
M  V30 752 H 71.3238 -3.46528 1.82827 0
M  V30 753 H 73.0208 -3.35096 2.20254 0
M  V30 754 H 69.6108 -2.58807 3.41638 0
M  V30 755 H 73.7948 -2.35459 4.3689 0
M  V30 756 H 69.0508 -2.06954 5.75308 0
M  V30 757 H 73.2248 -1.8462 6.71482 0
M  V30 758 H 70.8518 -1.69839 7.40985 0
M  V30 759 N 72.4269 -1.23603 -0.977757 0
M  V30 760 C 73.6749 -1.06759 -1.71601 0
M  V30 761 C 73.9959 0.395929 -1.90938 0
M  V30 762 O 73.2659 1.28356 -1.47992 0
M  V30 763 H 71.8459 -0.392062 -0.635843 0
M  V30 764 H 74.5079 -1.55362 -1.1768 0
M  V30 765 H 73.6039 -1.55763 -2.70452 0
M  V30 766 N 73.905 1.17692 -1.04816 0
M  V30 767 C 75.316 1.69501 -0.782698 0
M  V30 768 C 75.667 1.83456 0.695577 0
M  V30 769 O 74.792 1.51942 1.54086 0
M  V30 770 C 75.387 3.07874 -1.41419 0
M  V30 771 C 73.946 3.56864 -1.19686 0
M  V30 772 C 73.093 2.3322 -1.50012 0
M  V30 773 H 76.044 1.02262 -1.2136 0
M  V30 774 H 76.065 3.71528 -0.821428 0
M  V30 775 H 75.577 2.97685 -2.49009 0
M  V30 776 H 73.678 3.72337 -0.140043 0
M  V30 777 H 73.791 4.39851 -1.89916 0
M  V30 778 H 72.155 2.37501 -0.920071 0
M  V30 779 H 72.938 2.25644 -2.58727 0
M  V30 780 N 75.3831 0.828654 1.34056 0
M  V30 781 C 76.3151 0.212052 2.28217 0
M  V30 782 C 77.3281 -0.601362 1.51286 0
M  V30 783 O 78.5171 -0.430104 1.73241 0
M  V30 784 C 75.6171 -0.72088 3.31144 0
M  V30 785 C 74.7901 0.0509587 4.3737 0
M  V30 786 C 73.8491 -0.803766 5.20025 0
M  V30 787 O 72.8751 -0.246667 5.68665 0
M  V30 788 N 74.0771 -2.1227 5.40298 0
M  V30 789 H 76.8421 1.02105 2.81771 0
M  V30 790 H 74.4031 0.686153 1.46641 0
M  V30 791 H 76.3951 -1.29742 3.8334 0
M  V30 792 H 74.9651 -1.43061 2.77943 0
M  V30 793 H 74.1851 0.808831 3.85813 0
M  V30 794 H 75.4731 0.582065 5.0546 0
M  V30 795 H 74.8711 -2.59898 5.02464 0
M  V30 796 H 73.4281 -2.64796 5.95589 0
M  V30 797 N 76.8612 -1.46375 0.584142 0
M  V30 798 C 78.1102 -2.01585 0.0679741 0
M  V30 799 C 78.4232 -1.46109 -1.30045 0
M  V30 800 O 79.6292 -1.93148 -1.90804 0
M  V30 801 C 78.0852 -3.5983 0.0709207 0
M  V30 802 C 77.6932 -4.24303 1.43775 0
M  V30 803 C 79.4372 -4.22693 -0.391228 0
M  V30 804 C 77.3442 -5.74631 1.39834 0
M  V30 805 H 76.2742 -0.753689 0.0216421 0
M  V30 806 H 78.9252 -1.68093 0.736001 0
M  V30 807 H 77.3072 -3.90405 -0.663299 0
M  V30 808 H 78.4812 -4.05335 2.19181 0
M  V30 809 H 76.7962 -3.73539 1.84004 0
M  V30 810 H 79.3932 -5.3289 -0.439524 0
M  V30 811 H 79.7362 -3.91728 -1.40906 0
M  V30 812 H 80.2692 -3.96749 0.288974 0
M  V30 813 H 77.0082 -6.10258 2.39303 0
M  V30 814 H 76.5282 -5.95858 0.686505 0
M  V30 815 H 78.2072 -6.37375 1.11187 0
M  V30 816 N 78.3393 -0.321999 -1.54275 0
M  V30 817 C 79.7553 0.0306999 -1.5957 0
M  V30 818 C 79.9553 1.50614 -1.33857 0
M  V30 819 O 79.0113 2.2619 -1.12223 0
M  V30 820 C 80.3243 -0.386122 -2.98211 0
M  V30 821 C 81.8723 -0.336647 -3.11184 0
M  V30 822 C 82.3473 -0.728607 -4.52167 0
M  V30 823 N 83.8383 -0.681952 -4.58152 0
M  V30 824 C 84.5733 -0.957449 -5.6535 0
M  V30 825 N 84.0693 -1.3 -6.80494 0
M  V30 826 N 85.8623 -0.883113 -5.55119 0
M  V30 827 H 78.0133 -1.28332 -1.69247 0
M  V30 828 H 80.2763 -0.521716 -0.791528 0
M  V30 829 H 79.9823 -1.41404 -3.22022 0
M  V30 830 H 79.8563 0.249662 -3.76373 0
M  V30 831 H 82.2433 0.682058 -2.8711 0
M  V30 832 H 82.3243 -1.00734 -2.3513 0
M  V30 833 H 81.9683 -1.74522 -4.76974 0
M  V30 834 H 81.8983 -0.0356152 -5.26588 0
M  V30 835 H 84.3893 -0.428985 -3.75457 0
M  V30 836 H 84.7023 -1.49563 -7.58189 0
M  V30 837 H 83.0473 -1.33824 -6.81994 0
M  V30 838 H 86.2383 -0.615001 -4.64042 0
M  V30 839 H 86.4113 -1.10118 -6.38575 0
M  V30 840 N 79.8174 1.5752 -0.0501392 0
M  V30 841 C 80.7654 2.12651 0.942459 0
M  V30 842 C 81.7594 1.05807 1.32292 0
M  V30 843 O 82.9654 1.24217 1.3027 0
M  V30 844 H 79.3404 0.679673 0.321789 0
M  V30 845 H 81.3114 2.94951 0.452356 0
M  V30 846 C 80.0604 2.68565 2.20836 0
M  V30 847 H 79.3834 3.50439 1.92439 0
M  V30 848 H 80.8234 3.10761 2.8845 0
M  V30 849 C 79.2824 1.62291 2.95234 0
M  V30 850 O 79.8124 1.03508 3.88135 0
M  V30 851 N 78.0184 1.33836 2.57946 0
M  V30 852 H 77.5654 1.81826 1.82475 0
M  V30 853 H 77.5234 0.629595 3.08032 0
M  V30 854 N 81.2955 -0.223234 1.56011 0
M  V30 855 C 82.5725 -0.972108 1.69733 0
M  V30 856 C 82.9525 -2.02485 0.59691 0
M  V30 857 O 82.3005 -2.25037 -0.396324 0
M  V30 858 C 82.5105 -1.58407 3.10979 0
M  V30 859 C 83.8585 -2.07696 3.70334 0
M  V30 860 O 84.8825 -1.68304 3.1393 0
M  V30 861 O 83.7415 -2.80096 4.69264 0
M  V30 862 H 80.8355 -0.453993 0.691245 0
M  V30 863 H 83.3815 -0.215149 1.68331 0
M  V30 864 H 82.1535 -0.823831 3.82529 0
M  V30 865 H 81.7765 -2.40661 3.16493 0
M  V30 866 N 82.7736 -1.49793 -0.48987 0
M  V30 867 C 84.0016 -1.63568 -1.26701 0
M  V30 868 C 84.4166 -0.311465 -1.86213 0
M  V30 869 O 83.7736 0.704416 -1.68357 0
M  V30 870 C 83.8246 -2.71284 -2.38929 0
M  V30 871 O 83.5456 -3.9857 -1.81861 0
M  V30 872 C 85.0466 -2.95864 -3.3012 0
M  V30 873 H 82.2666 -0.550342 -0.383881 0
M  V30 874 H 84.8106 -1.95898 -0.586864 0
M  V30 875 H 82.9656 -2.417 -3.02753 0
M  V30 876 H 83.3796 -4.57993 -2.55622 0
M  V30 877 H 84.8536 -3.74941 -4.05121 0
M  V30 878 H 85.3306 -2.06206 -3.87783 0
M  V30 879 H 85.9366 -3.26907 -2.72051 0
M  V30 880 N 84.2517 0.741722 -1.39055 0
M  V30 881 C 85.4817 1.52876 -1.3897 0
M  V30 882 C 85.8897 1.8919 0.0193266 0
M  V30 883 O 85.2327 1.54138 0.999356 0
M  V30 884 C 85.2947 2.84929 -2.19216 0
M  V30 885 C 84.9587 2.71086 -3.67915 0
M  V30 886 C 85.9557 2.40084 -4.61146 0
M  V30 887 C 83.6407 2.88168 -4.11418 0
M  V30 888 C 85.6347 2.26335 -5.95862 0
M  V30 889 C 83.3217 2.74037 -5.46211 0
M  V30 890 C 84.3197 2.43166 -6.38247 0
M  V30 891 O 84.0077 2.29115 -7.70559 0
M  V30 892 H 83.7397 0.479252 -0.476753 0
M  V30 893 H 86.2937 0.924751 -1.83405 0
M  V30 894 H 84.5237 3.47564 -1.69518 0
M  V30 895 H 86.2127 3.46509 -2.11392 0
M  V30 896 H 86.9787 2.26545 -4.28838 0
M  V30 897 H 82.8577 3.11191 -3.40119 0
M  V30 898 H 86.4017 2.0216 -6.67665 0
M  V30 899 H 82.2987 2.87153 -5.78112 0
M  V30 900 H 83.0667 2.44237 -7.81211 0
M  V30 901 N 85.7298 1.2412 0.971189 0
M  V30 902 C 86.6598 1.05508 2.08304 0
M  V30 903 C 87.6408 -0.0308864 1.70072 0
M  V30 904 O 88.8258 0.135521 1.93727 0
M  V30 905 C 85.9558 0.655365 3.4106 0
M  V30 906 C 84.9098 1.68971 3.93234 0
M  V30 907 C 84.2358 1.14516 5.22293 0
M  V30 908 C 85.5358 3.08487 4.21465 0
M  V30 909 H 87.2298 1.98507 2.24132 0
M  V30 910 H 84.7758 0.955821 1.07704 0
M  V30 911 H 86.7288 0.51217 4.18276 0
M  V30 912 H 85.4528 -0.31032 3.25122 0
M  V30 913 H 84.1118 1.82106 3.18171 0
M  V30 914 H 83.7598 0.170189 5.02712 0
M  V30 915 H 83.4598 1.83635 5.58168 0
M  V30 916 H 84.9838 1.01401 6.02121 0
M  V30 917 H 86.3978 2.98601 4.89398 0
M  V30 918 H 84.7948 3.74926 4.68562 0
M  V30 919 H 85.8648 3.56787 3.28376 0
M  V30 920 N 87.2079 -1.17134 1.05439 0
M  V30 921 C 88.1179 -2.24878 0.668365 0
M  V30 922 C 89.1339 -1.71186 -0.311687 0
M  V30 923 O 90.3099 -2.00738 -0.163161 0
M  V30 924 C 87.3749 -3.46662 0.051648 0
M  V30 925 C 86.4359 -4.15429 1.08246 0
M  V30 926 C 85.6689 -5.31399 0.495082 0
M  V30 927 O 85.8919 -5.66153 -0.694743 0
M  V30 928 O 84.8259 -5.89187 1.23056 0
M  V30 929 H 88.6519 -2.60189 1.56637 0
M  V30 930 H 86.2369 -1.24482 0.826104 0
M  V30 931 H 88.1189 -4.20394 -0.290966 0
M  V30 932 H 86.7939 -3.13142 -0.819971 0
M  V30 933 H 85.7009 -3.43704 1.47711 0
M  V30 934 H 87.0339 -4.52982 1.92532 0
M  V30 935 N 88.686 -0.835752 -1.33615 0
M  V30 936 C 89.916 -0.442701 -2.01801 0
M  V30 937 C 90.324 0.959807 -1.63047 0
M  V30 938 O 89.667 1.63468 -0.838088 0
M  V30 939 C 89.729 -0.480125 -3.56279 0
M  V30 940 C 89.393 -1.8382 -4.18401 0
M  V30 941 C 90.39 -2.80097 -4.37998 0
M  V30 942 C 88.075 -2.13019 -4.54894 0
M  V30 943 C 90.069 -4.03736 -4.9323 0
M  V30 944 C 87.756 -3.36916 -5.09834 0
M  V30 945 C 88.754 -4.32091 -5.28948 0
M  V30 946 O 88.442 -5.53797 -5.82721 0
M  V30 947 H 88.174 -0.17441 -0.653114 0
M  V30 948 H 90.728 -1.129 -1.71589 0
M  V30 949 H 88.958 0.262931 -3.85805 0
M  V30 950 H 90.647 -0.105335 -4.05763 0
M  V30 951 H 91.413 -2.58838 -4.10156 0
M  V30 952 H 87.292 -1.39733 -4.39313 0
M  V30 953 H 90.836 -4.78034 -5.08064 0
M  V30 954 H 86.733 -3.58033 -5.37106 0
M  V30 955 H 87.501 -5.55494 -6.0114 0
M  V30 956 N 90.1641 1.46063 -0.591896 0
M  V30 957 C 91.0741 2.34192 0.13831 0
M  V30 958 C 92.0901 1.50305 0.876608 0
M  V30 959 O 93.2661 1.8315 0.837728 0
M  V30 960 C 90.3311 3.27656 1.13326 0
M  V30 961 C 89.3921 4.27445 0.39863 0
M  V30 962 C 88.6251 5.16443 1.34618 0
M  V30 963 O 88.8481 5.08553 2.58321 0
M  V30 964 O 87.7821 5.95843 0.851768 0
M  V30 965 H 91.6081 2.98002 -0.58552 0
M  V30 966 H 89.1931 1.45188 -0.352239 0
M  V30 967 H 91.0751 3.85291 1.70671 0
M  V30 968 H 89.7501 2.6643 1.83839 0
M  V30 969 H 88.6571 3.73471 -0.216895 0
M  V30 970 H 89.9901 4.91482 -0.265709 0
M  V30 971 N 91.6422 0.330177 1.54103 0
M  V30 972 C 92.6052 -0.520144 2.2322 0
M  V30 973 C 93.6052 -1.03828 1.22786 0
M  V30 974 O 94.7952 -0.929652 1.4732 0
M  V30 975 C 91.9272 -1.72317 2.94142 0
M  V30 976 H 93.1202 0.0841605 2.99782 0
M  V30 977 H 90.6732 0.0813433 1.56088 0
M  V30 978 H 91.4082 -2.36653 2.21734 0
M  V30 979 H 91.1932 -1.35898 3.67796 0
M  V30 980 H 92.6832 -2.3266 3.46784 0
M  V30 981 N 93.1203 -1.57491 0.0584922 0
M  V30 982 C 94.3673 -1.92978 -0.613648 0
M  V30 983 C 94.6953 -0.937461 -1.70417 0
M  V30 984 O 93.9503 0.049078 -1.95638 0
M  V30 985 C 94.2493 -3.3513 -1.24188 0
M  V30 986 C 93.9153 -4.50037 -0.278826 0
M  V30 987 C 92.5773 -4.81198 -0.0138447 0
M  V30 988 C 94.9293 -5.19807 0.380777 0
M  V30 989 C 92.2573 -5.79473 0.918052 0
M  V30 990 C 94.6093 -6.19079 1.30091 0
M  V30 991 C 93.2733 -6.48665 1.57449 0
M  V30 992 H 92.5433 -0.706157 -0.22455 0
M  V30 993 H 95.1903 -1.91082 0.126533 0
M  V30 994 H 93.4953 -3.33429 -2.05749 0
M  V30 995 H 95.1923 -3.59871 -1.769 0
M  V30 996 H 91.7823 -4.25726 -0.495539 0
M  V30 997 H 95.9663 -4.95939 0.189158 0
M  V30 998 H 91.2223 -6.00727 1.1374 0
M  V30 999 H 95.3963 -6.7225 1.81804 0
M  V30 1000 H 93.0233 -7.24628 2.29822 0
M  V30 1001 N 94.5984 0.214957 -1.56127 0
M  V30 1002 C 95.5614 1.24997 -1.92116 0
M  V30 1003 C 96.5614 1.39467 -0.800344 0
M  V30 1004 O 97.7514 1.37619 -1.06802 0
M  V30 1005 C 94.8834 2.62271 -2.17777 0
M  V30 1006 H 96.0764 0.942875 -2.84693 0
M  V30 1007 H 93.6294 0.455654 -1.49511 0
M  V30 1008 H 94.3644 2.98068 -1.27773 0
M  V30 1009 H 94.1494 2.53143 -2.99434 0
M  V30 1010 H 95.6394 3.36946 -2.46693 0
M  V30 1011 N 96.0765 1.50051 0.48192 0
M  V30 1012 C 97.0235 1.68122 1.58125 0
M  V30 1013 C 97.9935 0.522545 1.57666 0
M  V30 1014 O 99.1785 0.751844 1.75362 0
M  V30 1015 C 96.3185 1.77142 2.96167 0
M  V30 1016 C 95.4315 3.0444 3.06497 0
M  V30 1017 C 94.5665 3.04321 4.35387 0
M  V30 1018 C 93.6055 4.26118 4.3942 0
M  V30 1019 N 92.7425 4.238 5.59766 0
M  V30 1020 H 97.5825 2.6198 1.42022 0
M  V30 1021 H 95.1195 1.29877 0.690687 0
M  V30 1022 H 97.0775 1.80352 3.76203 0
M  V30 1023 H 95.7075 0.867329 3.1093 0
M  V30 1024 H 94.7595 3.10752 2.19402 0
M  V30 1025 H 96.0715 3.94426 3.05336 0
M  V30 1026 H 95.2255 3.062 5.23762 0
M  V30 1027 H 93.9645 2.12147 4.39141 0
M  V30 1028 H 92.9695 4.24463 3.49444 0
M  V30 1029 H 94.1945 5.19507 4.37366 0
M  V30 1030 H 92.1405 3.34474 5.64326 0
M  V30 1031 H 92.0575 5.07542 5.60301 0
M  V30 1032 H 93.3255 4.2981 6.50295 0
M  V30 1033 N 97.5546 -0.734337 1.39446 0
M  V30 1034 C 98.5016 -1.84835 1.38219 0
M  V30 1035 C 99.4716 -1.64331 0.24179 0
M  V30 1036 O 100.657 -1.85728 0.437002 0
M  V30 1037 C 97.7966 -3.22355 1.23212 0
M  V30 1038 C 96.9096 -3.5456 2.46801 0
M  V30 1039 C 96.0446 -4.81485 2.24377 0
M  V30 1040 C 95.0836 -5.06536 3.43639 0
M  V30 1041 N 94.2206 -6.24665 3.20528 0
M  V30 1042 H 99.0606 -1.85219 2.33448 0
M  V30 1043 H 96.5976 -0.905039 1.15963 0
M  V30 1044 H 98.5556 -4.0174 1.12522 0
M  V30 1045 H 97.1856 -3.21248 0.316121 0
M  V30 1046 H 96.2376 -2.69872 2.68092 0
M  V30 1047 H 97.5496 -3.6899 3.3563 0
M  V30 1048 H 96.7036 -5.68852 2.10933 0
M  V30 1049 H 95.4426 -4.6923 1.32944 0
M  V30 1050 H 94.4476 -4.17632 3.5758 0
M  V30 1051 H 95.6726 -5.20676 4.35974 0
M  V30 1052 H 93.6186 -6.13696 2.3176 0
M  V30 1053 H 93.5356 -6.39685 4.02913 0
M  V30 1054 H 94.8036 -7.14868 3.10779 0
M  V30 1055 N 99.0327 -1.24633 -0.964593 0
M  V30 1056 C 100.31 -0.995809 -1.68354 0
M  V30 1057 C 100.69 0.480964 -2.05548 0
M  V30 1058 O 100.038 1.45599 -1.76105 0
M  V30 1059 C 100.248 -1.92177 -2.91323 0
M  V30 1060 C 101.596 -2.19446 -3.63495 0
M  V30 1061 O 102.62 -1.89855 -3.01386 0
M  V30 1062 O 101.479 -2.69714 -4.75307 0
M  V30 1063 H 98.5727 -0.376854 -0.736146 0
M  V30 1064 H 101.119 -1.35745 -1.0184 0
M  V30 1065 H 99.8907 -2.91938 -2.60553 0
M  V30 1066 H 99.5137 -1.56349 -3.65569 0
M  V30 1067 N 100.511 1.16574 -1.06058 0
M  V30 1068 C 101.757 1.87565 -0.78683 0
M  V30 1069 C 102.112 1.80012 0.679214 0
M  V30 1070 O 101.405 1.20327 1.49104 0
M  V30 1071 C 101.599 3.36195 -1.21275 0
M  V30 1072 C 101.428 3.58216 -2.71866 0
M  V30 1073 C 100.198 3.7444 -3.39298 0
M  V30 1074 C 102.396 3.57134 -3.70081 0
M  V30 1075 N 100.378 3.84389 -4.78663 0
M  V30 1076 C 101.749 3.73038 -4.9522 0
M  V30 1077 C 103.804 3.40332 -3.63426 0
M  V30 1078 C 102.507 3.73879 -6.14497 0
M  V30 1079 C 104.533 3.42466 -4.82153 0
M  V30 1080 C 103.895 3.58887 -6.06118 0
M  V30 1081 H 99.9938 0.704081 -0.340284 0
M  V30 1082 H 102.578 1.39885 -1.35426 0
M  V30 1083 H 100.749 3.82522 -0.673179 0
M  V30 1084 H 102.481 3.94839 -0.887917 0
M  V30 1085 H 99.2358 3.74662 -2.89699 0
M  V30 1086 H 99.6598 3.93138 -5.51155 0
M  V30 1087 H 104.302 3.26566 -2.68541 0
M  V30 1088 H 102.02 3.86427 -7.09718 0
M  V30 1089 H 105.606 3.30712 -4.78666 0
M  V30 1090 H 104.486 3.60454 -6.9645 0
M  V30 1091 N 101.989 0.842826 1.3317 0
M  V30 1092 C 103.236 0.440447 1.97652 0
M  V30 1093 C 103.564 -1.00123 1.6675 0
M  V30 1094 O 102.819 -1.7155 0.941761 0
M  V30 1095 C 103.118 0.612607 3.52111 0
M  V30 1096 C 102.784 2.02297 4.02972 0
M  V30 1097 C 101.446 2.40874 4.16573 0
M  V30 1098 C 103.798 2.94402 4.30089 0
M  V30 1099 C 101.126 3.70852 4.54627 0
M  V30 1100 C 103.478 4.23865 4.69597 0
M  V30 1101 C 102.142 4.62392 4.81404 0
M  V30 1102 H 101.412 0.161171 0.72326 0
M  V30 1103 H 104.059 1.07061 1.58777 0
M  V30 1104 H 102.364 -0.100849 3.9167 0
M  V30 1105 H 104.061 0.2815 4.00011 0
M  V30 1106 H 100.651 1.71338 3.92863 0
M  V30 1107 H 104.835 2.65835 4.19101 0
M  V30 1108 H 100.091 4.00501 4.61962 0
M  V30 1109 H 104.265 4.95306 4.89536 0
M  V30 1110 H 101.892 5.63154 5.10648 0
M  V30 1111 N 103.467 -1.45747 0.599634 0
M  V30 1112 C 104.744 -1.95585 0.0240846 0
M  V30 1113 C 105.124 -1.54217 -1.44154 0
M  V30 1114 O 104.472 -0.800903 -2.14004 0
M  V30 1115 C 104.682 -3.48344 0.21385 0
M  V30 1116 C 106.03 -4.24504 0.0904902 0
M  V30 1117 O 107.054 -3.55911 0.143558 0
M  V30 1118 O 105.913 -5.46491 -0.0310766 0
M  V30 1119 H 103.007 -0.82602 -0.0402478 0
M  V30 1120 H 105.553 -1.55951 0.669139 0
M  V30 1121 H 104.325 -3.71397 1.23206 0
M  V30 1122 H 103.948 -3.9485 -0.466842 0
M  V30 1123 N 104.945 -0.338344 -1.53925 0
M  V30 1124 C 106.192 0.259758 -2.00827 0
M  V30 1125 C 106.52 1.50973 -1.22628 0
M  V30 1126 O 105.775 1.93379 -0.300509 0
M  V30 1127 C 106.074 0.62448 -3.51902 0
M  V30 1128 C 105.74 -0.528006 -4.47798 0
M  V30 1129 C 104.402 -0.844298 -4.73735 0
M  V30 1130 C 106.754 -1.30143 -5.0469 0
M  V30 1131 C 104.082 -1.93648 -5.53821 0
M  V30 1132 C 106.434 -2.38382 -5.85967 0
M  V30 1133 C 105.098 -2.70576 -6.10201 0
M  V30 1134 H 104.368 0.0950523 -0.734878 0
M  V30 1135 H 107.015 -0.465182 -1.85764 0
M  V30 1136 H 105.32 1.43006 -3.64769 0
M  V30 1137 H 107.017 1.09905 -3.85645 0
M  V30 1138 H 103.607 -0.271421 -4.2774 0
M  V30 1139 H 107.791 -1.07033 -4.84621 0
M  V30 1140 H 103.047 -2.19021 -5.70824 0
M  V30 1141 H 107.221 -2.98746 -6.29066 0
M  V30 1142 H 104.848 -3.55333 -6.72044 0
M  V30 1143 N 106.423 1.57458 -0.0668435 0
M  V30 1144 C 107.653 1.97337 0.611677 0
M  V30 1145 C 108.061 0.943744 1.63982 0
M  V30 1146 O 107.404 -0.0785584 1.83532 0
M  V30 1147 C 107.466 3.33511 1.34205 0
M  V30 1148 C 107.13 4.54598 0.467941 0
M  V30 1149 C 108.127 5.19186 -0.272439 0
M  V30 1150 C 105.812 5.0075 0.39427 0
M  V30 1151 C 107.806 6.28274 -1.07476 0
M  V30 1152 C 105.493 6.09711 -0.411729 0
M  V30 1153 C 106.491 6.73335 -1.14492 0
M  V30 1154 O 106.179 7.80199 -1.93763 0
M  V30 1155 H 105.911 0.654042 0.170893 0
M  V30 1156 H 108.465 2.04961 -0.134289 0
M  V30 1157 H 106.695 3.22487 2.13398 0
M  V30 1158 H 108.384 3.58029 1.91233 0
M  V30 1159 H 109.15 4.84477 -0.225086 0
M  V30 1160 H 105.029 4.51009 0.954569 0
M  V30 1161 H 108.573 6.77866 -1.64755 0
M  V30 1162 H 104.47 6.43854 -0.460664 0
M  V30 1163 H 105.238 7.97053 -1.86142 0
M  V30 1164 N 107.901 -0.206675 1.56239 0
M  V30 1165 C 109.149 -0.927007 1.79586 0
M  V30 1166 C 109.47 -1.8427 0.637929 0
M  V30 1167 O 108.74 -1.92849 -0.344398 0
M  V30 1168 H 107.32 -0.345292 0.662407 0
M  V30 1169 H 109.982 -0.21496 1.93711 0
M  V30 1170 H 109.078 -1.52501 2.72305 0
M  V30 1171 N 109.379 -1.50304 -0.473955 0
M  V30 1172 C 110.609 -1.64663 -1.24778 0
M  V30 1173 C 111.017 -0.328174 -1.86332 0
M  V30 1174 O 110.36 0.699536 -1.69859 0
M  V30 1175 C 110.422 -2.6778 -2.39863 0
M  V30 1176 C 110.086 -4.11413 -1.98969 0
M  V30 1177 C 111.083 -4.97372 -1.51385 0
M  V30 1178 C 108.768 -4.57312 -2.07777 0
M  V30 1179 C 110.762 -6.27277 -1.13148 0
M  V30 1180 C 108.449 -5.87223 -1.69152 0
M  V30 1181 C 109.447 -6.72031 -1.21915 0
M  V30 1182 O 109.135 -7.99518 -0.838237 0
M  V30 1183 H 108.867 -0.556602 -0.383627 0
M  V30 1184 H 111.421 -1.9726 -0.572491 0
M  V30 1185 H 109.651 -2.30419 -3.10554 0
M  V30 1186 H 111.34 -2.71388 -3.01833 0
M  V30 1187 H 112.106 -4.63128 -1.44004 0
M  V30 1188 H 107.985 -3.91449 -2.43493 0
M  V30 1189 H 111.529 -6.93425 -0.762077 0
M  V30 1190 H 107.426 -6.20989 -1.76191 0
M  V30 1191 H 108.194 -8.12764 -0.967339 0
M  V30 1192 N 110.857 0.726932 -1.39834 0
M  V30 1193 C 111.82 1.82269 -1.38962 0
M  V30 1194 C 112.82 1.58248 -0.285334 0
M  V30 1195 O 114.01 1.65499 -0.54366 0
M  V30 1196 C 111.142 3.20186 -1.17019 0
M  V30 1197 H 112.335 1.84443 -2.36476 0
M  V30 1198 H 109.888 0.931416 -1.25516 0
M  V30 1199 H 110.623 3.23669 -0.202204 0
M  V30 1200 H 110.408 3.3902 -1.96998 0
M  V30 1201 H 111.898 4.00235 -1.1917 0
M  V30 1202 N 112.336 1.25143 0.95797 0
M  V30 1203 C 113.613 1.00472 1.67823 0
M  V30 1204 C 113.993 -0.470056 2.058 0
M  V30 1205 O 113.341 -1.44663 1.76875 0
M  V30 1206 C 113.551 1.9372 2.90299 0
M  V30 1207 C 114.899 2.21371 3.62326 0
M  V30 1208 O 115.923 1.91451 3.00375 0
M  V30 1209 O 114.782 2.72231 4.7387 0
M  V30 1210 H 111.876 0.380752 0.734137 0
M  V30 1211 H 114.422 1.36283 1.01119 0
M  V30 1212 H 113.194 2.93316 2.59001 0
M  V30 1213 H 112.817 1.58286 3.64735 0
M  V30 1214 N 113.814 -1.1601 1.06675 0
M  V30 1215 C 114.777 -2.18724 0.685001 0
M  V30 1216 C 115.777 -1.58496 -0.271246 0
M  V30 1217 O 116.967 -1.74119 -0.0531156 0
M  V30 1218 C 114.099 -3.40899 0.00853648 0
M  V30 1219 H 115.292 -2.54011 1.59431 0
M  V30 1220 H 112.845 -1.30352 0.862441 0
M  V30 1221 H 113.58 -3.11173 -0.913337 0
M  V30 1222 H 113.365 -3.8587 0.696204 0
M  V30 1223 H 114.855 -4.16886 -0.24414 0
M  V30 1224 N 115.292 -0.849877 -1.32721 0
M  V30 1225 C 116.703 -0.506188 -1.79707 0
M  V30 1226 C 117.054 0.975627 -1.70223 0
M  V30 1227 O 116.179 1.76078 -1.25799 0
M  V30 1228 C 116.774 -0.912044 -3.26293 0
M  V30 1229 C 115.333 -0.620326 -3.71253 0
M  V30 1230 C 114.48 -1.11439 -2.53922 0
M  V30 1231 H 117.431 -1.03754 -1.20087 0
M  V30 1232 H 117.452 -0.226493 -3.79825 0
M  V30 1233 H 116.964 -1.99057 -3.33164 0
M  V30 1234 H 115.065 0.447674 -3.69901 0
M  V30 1235 H 115.178 -1.18327 -4.64258 0
M  V30 1236 H 113.542 -0.534834 -2.49021 0
M  V30 1237 H 114.325 -2.19992 -2.6355 0
M  V30 1238 N 116.77 1.45427 -0.607355 0
M  V30 1239 C 118.016 2.0254 -0.102607 0
M  V30 1240 C 118.349 1.47478 1.26348 0
M  V30 1241 O 117.624 0.64939 1.83339 0
M  V30 1242 C 117.907 3.60044 -0.0634347 0
M  V30 1243 C 117.76 4.2544 -1.46017 0
M  V30 1244 C 119.079 4.35646 0.624514 0
M  V30 1245 H 116.198 0.73598 -0.0387607 0
M  V30 1246 H 118.84 1.73284 -0.779282 0
M  V30 1247 H 116.99 3.85101 0.512808 0
M  V30 1248 H 118.662 4.11569 -2.08347 0
M  V30 1249 H 116.905 3.83849 -2.02094 0
M  V30 1250 H 117.576 5.34342 -1.385 0
M  V30 1251 H 120.052 4.15882 0.134723 0
M  V30 1252 H 118.928 5.45376 0.621028 0
M  V30 1253 H 119.189 4.08501 1.69055 0
M  V30 1254 N 118.248 0.346503 1.53744 0
M  V30 1255 C 119.495 -0.249104 2.00962 0
M  V30 1256 C 119.823 -1.5032 1.23426 0
M  V30 1257 O 119.078 -1.93217 0.310761 0
M  V30 1258 C 119.377 -0.605809 3.52228 0
M  V30 1259 C 119.043 0.551747 4.47512 0
M  V30 1260 C 117.705 0.86941 4.73281 0
M  V30 1261 C 120.057 1.32818 5.03993 0
M  V30 1262 C 117.385 1.96582 5.52786 0
M  V30 1263 C 119.737 2.41486 5.84694 0
M  V30 1264 C 118.401 2.73808 6.08757 0
M  V30 1265 H 117.671 -0.0911538 0.735372 0
M  V30 1266 H 120.318 0.475027 1.85515 0
M  V30 1267 H 118.623 -1.4107 3.65522 0
M  V30 1268 H 120.32 -1.07858 3.86222 0
M  V30 1269 H 116.91 0.294102 4.2759 0
M  V30 1270 H 121.094 1.09602 4.84047 0
M  V30 1271 H 116.35 2.22045 5.69654 0
M  V30 1272 H 120.524 3.02078 6.27473 0
M  V30 1273 H 118.151 3.58892 6.7015 0
M  V30 1274 N 119.726 -1.57421 0.075193 0
M  V30 1275 C 120.973 -1.93618 -0.593146 0
M  V30 1276 C 121.301 -0.955484 -1.69413 0
M  V30 1277 O 120.556 0.0283251 -1.9568 0
M  V30 1278 C 120.855 -3.36428 -1.20626 0
M  V30 1279 C 120.521 -4.50307 -0.231078 0
M  V30 1280 C 119.183 -4.81186 0.0371936 0
M  V30 1281 C 121.535 -5.19374 0.435888 0
M  V30 1282 C 118.863 -5.78466 0.979461 0
M  V30 1283 C 121.215 -6.17665 1.3665 0
M  V30 1284 C 119.879 -6.46958 1.6432 0
M  V30 1285 H 119.149 -0.708499 -0.217047 0
M  V30 1286 H 121.796 -1.90937 0.146793 0
M  V30 1287 H 120.101 -3.35592 -2.02201 0
M  V30 1288 H 121.798 -3.61727 -1.73073 0
M  V30 1289 H 118.388 -4.26227 -0.450357 0
M  V30 1290 H 122.572 -4.95711 0.241748 0
M  V30 1291 H 117.828 -5.99487 1.20106 0
M  V30 1292 H 122.002 -6.70284 1.88924 0
M  V30 1293 H 119.629 -7.2215 2.37494 0
M  V30 1294 N 121.204 0.198386 -1.56346 0
M  V30 1295 C 122.452 0.91747 -1.80075 0
M  V30 1296 C 122.773 1.83929 -0.647692 0
M  V30 1297 O 122.043 1.93029 0.334166 0
M  V30 1298 H 120.623 0.341774 -0.664228 0
M  V30 1299 H 123.285 0.204684 -1.93822 0
M  V30 1300 H 122.381 1.51055 -2.7311 0
M  V30 1301 N 122.682 1.50554 0.465978 0
M  V30 1302 C 123.93 1.61479 1.21528 0
M  V30 1303 C 124.251 0.319596 1.92363 0
M  V30 1304 O 123.521 -0.663194 1.84333 0
M  V30 1305 H 122.101 0.595055 0.451573 0
M  V30 1306 H 124.763 1.87355 0.53704 0
M  V30 1307 H 123.859 2.42846 1.96042 0
M  V30 1308 N 124.16 -0.719506 1.40217 0
M  V30 1309 C 125.108 -1.85493 1.40339 0
M  V30 1310 C 126.102 -1.66995 0.284415 0
M  V30 1311 O 127.308 -1.74148 0.455252 0
M  V30 1312 H 123.683 -0.610857 0.438586 0
M  V30 1313 H 125.654 -1.82506 2.36081 0
M  V30 1314 C 124.403 -3.23321 1.27901 0
M  V30 1315 H 123.726 -3.38159 2.1328 0
M  V30 1316 H 125.166 -4.02914 1.32045 0
M  V30 1317 C 123.625 -3.36898 -0.0111355 0
M  V30 1318 O 124.155 -3.89674 -0.975538 0
M  V30 1319 N 122.361 -2.90492 -0.0793393 0
M  V30 1320 H 121.908 -2.47731 0.706183 0
M  V30 1321 H 121.866 -2.99955 -0.942038 0
M  V30 1322 N 125.638 -1.25649 -0.95132 0
M  V30 1323 C 126.863 -1.13443 -1.73624 0
M  V30 1324 C 127.288 0.307565 -1.85568 0
M  V30 1325 O 126.646 1.22282 -1.33854 0
M  V30 1326 C 126.694 -1.79723 -3.12621 0
M  V30 1327 O 125.798 -1.07912 -3.98031 0
M  V30 1328 H 125.139 -0.395872 -0.533086 0
M  V30 1329 H 127.669 -1.66276 -1.1922 0
M  V30 1330 H 127.679 -1.86141 -3.63064 0
M  V30 1331 H 126.354 -2.84633 -3.03244 0
M  V30 1332 H 124.931 -1.09398 -3.56492 0
M  V30 1333 N 127.117 1.15442 -1.07289 0
M  V30 1334 C 128.394 1.82306 -0.708792 0
M  V30 1335 C 128.774 1.94991 0.808807 0
M  V30 1336 O 128.122 1.50085 1.72298 0
M  V30 1337 C 128.332 3.18695 -1.42247 0
M  V30 1338 C 129.68 3.94341 -1.57417 0
M  V30 1339 O 130.704 3.28247 -1.38319 0
M  V30 1340 O 129.563 5.12839 -1.88834 0
M  V30 1341 H 126.657 0.787628 -0.252132 0
M  V30 1342 H 129.203 1.22559 -1.17377 0
M  V30 1343 H 127.975 3.04557 -2.45684 0
M  V30 1344 H 127.598 3.86128 -0.948223 0
M  V30 1345 N 128.595 0.856903 1.32268 0
M  V30 1346 C 129.558 0.308171 2.27119 0
M  V30 1347 C 130.558 -0.533421 1.51695 0
M  V30 1348 O 131.748 -0.344607 1.70757 0
M  V30 1349 C 128.88 -0.563757 3.36206 0
M  V30 1350 H 130.073 1.14535 2.77167 0
M  V30 1351 H 127.626 0.631421 1.42978 0
M  V30 1352 H 128.361 -1.42266 2.91429 0
M  V30 1353 H 128.146 0.0386749 3.92081 0
M  V30 1354 H 129.636 -0.940386 4.06874 0
M  V30 1355 N 130.073 -1.45103 0.615059 0
M  V30 1356 C 131.02 -2.30586 -0.0993978 0
M  V30 1357 C 131.99 -1.42544 -0.852669 0
M  V30 1358 O 133.175 -1.71465 -0.836917 0
M  V30 1359 C 130.315 -3.27572 -1.08583 0
M  V30 1360 C 129.428 -4.30717 -0.332656 0
M  V30 1361 C 128.563 -5.14807 -1.30947 0
M  V30 1362 C 127.602 -6.09673 -0.544538 0
M  V30 1363 N 126.739 -6.86517 -1.47101 0
M  V30 1364 H 131.579 -2.91144 0.635542 0
M  V30 1365 H 129.116 -1.4346 0.325206 0
M  V30 1366 H 131.074 -3.82276 -1.67095 0
M  V30 1367 H 129.704 -2.68751 -1.78809 0
M  V30 1368 H 128.756 -3.78615 0.368107 0
M  V30 1369 H 130.068 -4.98102 0.263842 0
M  V30 1370 H 129.222 -5.73948 -1.96643 0
M  V30 1371 H 127.961 -4.47458 -1.9399 0
M  V30 1372 H 126.966 -5.49656 0.126003 0
M  V30 1373 H 128.191 -6.79052 0.080947 0
M  V30 1374 H 126.137 -6.21851 -2.08895 0
M  V30 1375 H 126.054 -7.50281 -0.928137 0
M  V30 1376 H 127.322 -7.50194 -2.11731 0
M  V30 1377 N 131.551 -0.354651 -1.53558 0
M  V30 1378 C 132.799 0.237972 -2.00694 0
M  V30 1379 C 133.12 1.50173 -1.24391 0
M  V30 1380 O 132.39 1.92673 -0.354135 0
M  V30 1381 H 130.97 0.0909256 -0.741446 0
M  V30 1382 H 133.632 -0.478368 -1.88938 0
M  V30 1383 H 132.728 0.47264 -3.085 0
M  V30 1384 N 133.029 1.57378 -0.0835403 0
M  V30 1385 C 134.278 1.93106 0.582498 0
M  V30 1386 C 134.591 0.96651 1.70053 0
M  V30 1387 O 135.797 1.21705 2.42693 0
M  V30 1388 C 134.253 3.43076 1.08751 0
M  V30 1389 C 133.861 4.48 -0.000146404 0
M  V30 1390 C 135.605 3.87785 1.72694 0
M  V30 1391 C 133.512 5.89113 0.519568 0
M  V30 1392 H 132.442 0.720775 0.221358 0
M  V30 1393 H 135.093 1.82821 -0.157675 0
M  V30 1394 H 133.475 3.48474 1.88101 0
M  V30 1395 H 134.649 4.54233 -0.775199 0
M  V30 1396 H 132.964 4.1283 -0.54406 0
M  V30 1397 H 135.561 4.90604 2.1263 0
M  V30 1398 H 135.904 3.25796 2.59158 0
M  V30 1399 H 136.437 3.8504 0.999457 0
M  V30 1400 H 133.176 6.54775 -0.308186 0
M  V30 1401 H 132.696 5.86376 1.26188 0
M  V30 1402 H 134.375 6.39346 0.992237 0
M  V30 1403 N 134.507 -0.190092 1.56449 0
M  V30 1404 C 135.753 -0.906472 1.82084 0
M  V30 1405 C 136.108 -1.80677 0.661335 0
M  V30 1406 O 135.401 -1.88501 -0.343237 0
M  V30 1407 C 135.595 -1.75382 3.1141 0
M  V30 1408 C 135.424 -0.937053 4.39829 0
M  V30 1409 C 134.194 -0.619507 5.01488 0
M  V30 1410 C 136.392 -0.2874 5.13496 0
M  V30 1411 N 134.374 0.215367 6.13522 0
M  V30 1412 C 135.745 0.409454 6.18646 0
M  V30 1413 C 137.8 -0.203639 4.97483 0
M  V30 1414 C 136.503 1.1821 7.0952 0
M  V30 1415 C 138.529 0.555622 5.88784 0
M  V30 1416 C 137.891 1.24091 6.93384 0
M  V30 1417 H 133.99 -0.310931 0.717528 0
M  V30 1418 H 136.574 -0.174821 1.93914 0
M  V30 1419 H 134.745 -2.45703 3.00806 0
M  V30 1420 H 136.477 -2.41006 3.25112 0
M  V30 1421 H 133.232 -0.945126 4.64074 0
M  V30 1422 H 133.656 0.622562 6.74131 0
M  V30 1423 H 138.298 -0.719099 4.1664 0
M  V30 1424 H 136.016 1.70897 7.89823 0
M  V30 1425 H 139.602 0.621854 5.78467 0
M  V30 1426 H 138.482 1.81901 7.62812 0
M  V30 1427 N 135.985 -1.50799 -0.457987 0
M  V30 1428 C 136.933 -1.71162 -1.575 0
M  V30 1429 C 137.927 -0.577592 -1.59249 0
M  V30 1430 O 139.133 -0.758443 -1.63241 0
M  V30 1431 H 135.508 -0.540468 -0.522875 0
M  V30 1432 H 137.479 -2.64837 -1.37492 0
M  V30 1433 C 136.228 -1.83496 -2.95338 0
M  V30 1434 H 135.551 -2.70153 -2.94716 0
M  V30 1435 H 136.991 -2.01765 -3.72917 0
M  V30 1436 C 135.45 -0.589694 -3.31699 0
M  V30 1437 O 135.98 0.265163 -4.00824 0
M  V30 1438 N 134.186 -0.439845 -2.87252 0
M  V30 1439 H 133.733 -1.13655 -2.31172 0
M  V30 1440 H 133.691 0.392159 -3.11945 0
M  V30 1441 N 137.463 0.71206 -1.40597 0
M  V30 1442 C 138.413 1.81783 -1.37619 0
M  V30 1443 C 139.397 1.58896 -0.253162 0
M  V30 1444 O 140.589 1.70009 -0.492547 0
M  V30 1445 C 137.718 3.19944 -1.24462 0
M  V30 1446 C 136.804 3.48582 -2.4156 0
M  V30 1447 N 137.195 3.48016 -3.67041 0
M  V30 1448 C 135.493 3.79056 -2.35016 0
M  V30 1449 C 136.194 3.75096 -4.44609 0
M  V30 1450 N 135.17 3.94022 -3.74497 0
M  V30 1451 H 138.972 1.79683 -2.32575 0
M  V30 1452 H 136.486 0.91134 -1.34419 0
M  V30 1453 H 138.483 3.99133 -1.20411 0
M  V30 1454 H 137.143 3.23267 -0.304762 0
M  V30 1455 H 138.154 3.28782 -4.00153 0
M  V30 1456 H 134.831 3.89848 -1.49415 0
M  V30 1457 H 136.221 3.80934 -5.53479 0
M  V30 1458 N 138.941 1.26152 0.944643 0
M  V30 1459 C 140.189 1.11271 1.6871 0
M  V30 1460 C 140.51 -0.345166 1.91921 0
M  V30 1461 O 139.78 -1.24387 1.51343 0
M  V30 1462 H 138.36 0.408783 0.625224 0
M  V30 1463 H 141.022 1.58427 1.1352 0
M  V30 1464 H 140.118 1.62879 2.66227 0
M  V30 1465 N 140.419 -1.14872 1.07899 0
M  V30 1466 C 141.644 -1.90202 0.826926 0
M  V30 1467 C 142.069 -1.77774 -0.614664 0
M  V30 1468 O 141.427 -1.11431 -1.43013 0
M  V30 1469 C 141.475 -3.38352 1.24702 0
M  V30 1470 O 140.579 -4.10497 0.39575 0
M  V30 1471 H 139.92 -0.591968 0.300782 0
M  V30 1472 H 142.45 -1.45437 1.43907 0
M  V30 1473 H 142.46 -3.89156 1.22563 0
M  V30 1474 H 141.135 -3.46715 2.29698 0
M  V30 1475 H 139.712 -3.69796 0.480117 0
M  V30 1476 N 141.898 -0.863906 -1.31812 0
M  V30 1477 C 143.309 -0.52522 -1.7916 0
M  V30 1478 C 143.66 0.957518 -1.71248 0
M  V30 1479 O 142.785 1.74734 -1.27659 0
M  V30 1480 C 143.38 -0.9466 -3.25307 0
M  V30 1481 C 141.939 -0.659668 -3.70574 0
M  V30 1482 C 141.086 -1.14126 -2.52726 0
M  V30 1483 H 144.037 -1.05022 -1.1898 0
M  V30 1484 H 144.058 -0.266766 -3.79564 0
M  V30 1485 H 143.57 -2.02579 -3.31034 0
M  V30 1486 H 141.671 0.408416 -3.70355 0
M  V30 1487 H 141.784 -1.23245 -4.62977 0
M  V30 1488 H 140.148 -0.561216 -2.4844 0
M  V30 1489 H 140.931 -2.22775 -2.61201 0
M  V30 1490 N 143.376 1.44774 -0.622745 0
M  V30 1491 C 144.306 2.33382 0.0741861 0
M  V30 1492 C 145.287 1.47719 0.843387 0
M  V30 1493 O 146.472 1.76458 0.810934 0
M  V30 1494 C 143.602 3.30663 1.06204 0
M  V30 1495 C 142.556 4.26079 0.405037 0
M  V30 1496 C 141.882 5.13165 1.5022 0
M  V30 1497 C 143.182 5.1781 -0.683414 0
M  V30 1498 H 144.876 2.91905 -0.665713 0
M  V30 1499 H 142.422 1.40363 -0.321587 0
M  V30 1500 H 144.375 3.9153 1.55827 0
M  V30 1501 H 143.099 2.70331 1.83272 0
M  V30 1502 H 141.758 3.66532 -0.0704683 0
M  V30 1503 H 141.406 4.49191 2.26355 0
M  V30 1504 H 141.106 5.77812 1.06803 0
M  V30 1505 H 142.63 5.76902 2.00041 0
M  V30 1506 H 144.044 5.72661 -0.270631 0
M  V30 1507 H 142.441 5.91015 -1.04023 0
M  V30 1508 H 143.511 4.59326 -1.55395 0
M  V30 1509 N 144.854 0.36279 1.53368 0
M  V30 1510 C 146.101 -0.227776 2.01215 0
M  V30 1511 C 146.429 -1.49003 1.25014 0
M  V30 1512 O 145.684 -1.92876 0.331236 0
M  V30 1513 C 145.983 -0.568417 3.52851 0
M  V30 1514 C 145.649 0.59918 4.46901 0
M  V30 1515 C 144.311 0.919559 4.72332 0
M  V30 1516 C 146.663 1.38156 5.02556 0
M  V30 1517 C 143.991 2.02434 5.5067 0
M  V30 1518 C 146.343 2.47674 5.821 0
M  V30 1519 C 145.007 2.8025 6.05819 0
M  V30 1520 H 144.277 -0.083349 0.736297 0
M  V30 1521 H 146.924 0.494677 1.85001 0
M  V30 1522 H 145.229 -1.37185 3.66998 0
M  V30 1523 H 146.926 -1.03756 3.87344 0
M  V30 1524 H 143.516 0.339437 4.27254 0
M  V30 1525 H 147.7 1.14729 4.82857 0
M  V30 1526 H 142.956 2.28075 5.67267 0
M  V30 1527 H 147.13 3.08716 6.24234 0
M  V30 1528 H 144.757 3.65979 6.66306 0
M  V30 1529 N 146.332 -1.57332 0.0918853 0
M  V30 1530 C 147.265 -2.09499 -0.904735 0
M  V30 1531 C 148.243 -1.00479 -1.27839 0
M  V30 1532 O 149.427 -1.27954 -1.38419 0
M  V30 1533 C 146.554 -2.56931 -2.2069 0
M  V30 1534 C 145.6 -3.77579 -1.98334 0
M  V30 1535 S 146.433 -5.21317 -1.22428 0
M  V30 1536 C 147.589 -5.72097 -2.53882 0
M  V30 1537 H 147.822 -2.93705 -0.460922 0
M  V30 1538 H 145.355 -1.53923 -0.121332 0
M  V30 1539 H 147.313 -2.84917 -2.95521 0
M  V30 1540 H 145.974 -1.72956 -2.62192 0
M  V30 1541 H 145.167 -4.08824 -2.94752 0
M  V30 1542 H 144.769 -3.5007 -1.31633 0
M  V30 1543 H 147.061 -5.80168 -3.49874 0
M  V30 1544 H 148.004 -6.70654 -2.27219 0
M  V30 1545 H 148.412 -5.00012 -2.62007 0
M  V30 1546 N 147.81 0.181792 -1.56548 0
M  V30 1547 C 148.72 1.24538 -1.98815 0
M  V30 1548 C 149.736 1.49045 -0.897861 0
M  V30 1549 O 150.912 1.61399 -1.20467 0
M  V30 1550 C 147.977 2.56683 -2.33055 0
M  V30 1551 C 147.038 2.40131 -3.55859 0
M  V30 1552 C 146.271 3.65975 -3.88456 0
M  V30 1553 O 146.494 4.70711 -3.22161 0
M  V30 1554 O 145.428 3.6071 -4.81842 0
M  V30 1555 H 149.254 0.916647 -2.89536 0
M  V30 1556 H 146.839 0.387842 -1.44278 0
M  V30 1557 H 148.721 3.34655 -2.56094 0
M  V30 1558 H 147.396 2.89157 -1.45498 0
M  V30 1559 H 146.303 1.60226 -3.38051 0
M  V30 1560 H 147.636 2.12585 -4.43924 0
M  V30 1561 N 149.288 1.51039 0.449983 0
M  V30 1562 C 150.537 1.62317 1.19733 0
M  V30 1563 C 150.85 0.339101 1.92638 0
M  V30 1564 O 152.056 0.331069 2.69474 0
M  V30 1565 C 150.512 2.86608 2.17678 0
M  V30 1566 C 150.12 4.21972 1.50479 0
M  V30 1567 C 151.864 3.07239 2.92924 0
M  V30 1568 C 149.771 5.37426 2.46834 0
M  V30 1569 H 148.701 0.604532 0.450619 0
M  V30 1570 H 151.352 1.77494 0.465625 0
M  V30 1571 H 149.734 2.65037 2.94231 0
M  V30 1572 H 150.908 4.53878 0.795716 0
M  V30 1573 H 149.223 4.07117 0.874344 0
M  V30 1574 H 151.82 3.90668 3.65079 0
M  V30 1575 H 152.163 2.19807 3.5354 0
M  V30 1576 H 152.696 3.29091 2.23481 0
M  V30 1577 H 149.435 6.27079 1.90926 0
M  V30 1578 H 148.955 5.09912 3.15832 0
M  V30 1579 H 150.634 5.68862 3.08228 0
M  V30 1580 N 150.766 -0.704594 1.40972 0
M  V30 1581 C 151.676 -1.84856 1.44448 0
M  V30 1582 C 152.692 -1.70726 0.335961 0
M  V30 1583 O 153.868 -1.92799 0.582276 0
M  V30 1584 C 150.933 -3.20758 1.31587 0
M  V30 1585 C 149.994 -3.47063 2.52677 0
M  V30 1586 C 149.227 -4.76481 2.4042 0
M  V30 1587 O 149.45 -5.52341 1.42391 0
M  V30 1588 O 148.384 -5.03367 3.30007 0
M  V30 1589 H 152.21 -1.8488 2.40942 0
M  V30 1590 H 149.795 -0.85647 1.22413 0
M  V30 1591 H 151.677 -4.01913 1.26665 0
M  V30 1592 H 150.352 -3.21438 0.382049 0
M  V30 1593 H 149.259 -2.65873 2.63177 0
M  V30 1594 H 150.592 -3.5119 3.44858 0
M  V30 1595 N 152.244 -1.26651 -0.937939 0
M  V30 1596 C 153.655 -1.1125 -1.49934 0
M  V30 1597 C 154.006 0.306077 -1.93798 0
M  V30 1598 O 153.131 1.19792 -1.80219 0
M  V30 1599 C 153.726 -2.01339 -2.72485 0
M  V30 1600 C 152.285 -1.90074 -3.24883 0
M  V30 1601 C 151.432 -1.94498 -1.97651 0
M  V30 1602 H 154.383 -1.39693 -0.753091 0
M  V30 1603 H 154.404 -1.56319 -3.46907 0
M  V30 1604 H 153.916 -3.04577 -2.40529 0
M  V30 1605 H 152.017 -0.897827 -3.61621 0
M  V30 1606 H 152.13 -2.75778 -3.9177 0
M  V30 1607 H 150.494 -1.38591 -2.13693 0
M  V30 1608 H 151.277 -2.99372 -1.68022 0
M  V30 1609 N 153.722 1.14298 -1.08507 0
M  V30 1610 C 155.138 1.37347 -0.812901 0
M  V30 1611 C 155.338 1.93052 0.577325 0
M  V30 1612 O 154.394 2.14389 1.33393 0
M  V30 1613 C 155.707 2.33359 -1.89642 0
M  V30 1614 C 157.255 2.46996 -1.92255 0
M  V30 1615 C 157.73 3.46309 -2.99724 0
M  V30 1616 N 159.221 3.53853 -2.98902 0
M  V30 1617 C 159.956 4.3055 -3.787 0
M  V30 1618 N 159.452 5.10482 -4.6838 0
M  V30 1619 N 161.245 4.25757 -3.66998 0
M  V30 1620 H 153.396 0.764867 -1.9815 0
M  V30 1621 H 155.659 0.398966 -0.859959 0
M  V30 1622 H 155.365 1.99565 -2.89597 0
M  V30 1623 H 155.239 3.33274 -1.76659 0
M  V30 1624 H 157.626 2.80081 -0.929445 0
M  V30 1625 H 157.707 1.47039 -2.09316 0
M  V30 1626 H 157.351 3.13957 -3.99241 0
M  V30 1627 H 157.281 4.46049 -2.79907 0
M  V30 1628 H 159.772 2.96812 -2.33904 0
M  V30 1629 H 160.085 5.66284 -5.25873 0
M  V30 1630 H 158.43 5.09747 -4.72422 0
M  V30 1631 H 161.621 3.62383 -2.96304 0
M  V30 1632 H 161.794 4.85279 -4.29427 0
M  V30 1633 N 155.201 0.870884 1.31352 0
M  V30 1634 C 156.448 0.482273 1.96673 0
M  V30 1635 C 156.776 -0.965638 1.68836 0
M  V30 1636 O 156.031 -1.69514 0.977937 0
M  V30 1637 C 156.33 0.687157 3.50732 0
M  V30 1638 C 155.996 2.108 3.9859 0
M  V30 1639 C 154.658 2.49656 4.1137 0
M  V30 1640 C 157.01 3.03459 4.23748 0
M  V30 1641 C 154.338 3.80412 4.46659 0
M  V30 1642 C 156.69 4.3373 4.60501 0
M  V30 1643 C 155.354 4.725 4.71487 0
M  V30 1644 H 154.624 0.176476 0.719679 0
M  V30 1645 H 157.271 1.10405 1.56471 0
M  V30 1646 H 155.576 -0.0177476 3.91796 0
M  V30 1647 H 157.273 0.366284 3.99324 0
M  V30 1648 H 153.863 1.79633 3.8914 0
M  V30 1649 H 158.047 2.74665 4.13368 0
M  V30 1650 H 153.303 4.1021 4.53362 0
M  V30 1651 H 157.477 5.05578 4.78919 0
M  V30 1652 H 155.104 5.73859 4.98588 0
M  V30 1653 N 156.679 -1.44442 0.630414 0
M  V30 1654 C 157.904 -2.06927 0.139944 0
M  V30 1655 C 158.329 -1.46795 -1.17613 0
M  V30 1656 O 157.687 -0.569144 -1.72135 0
M  V30 1657 C 157.735 -3.6058 0.0379581 0
M  V30 1658 O 156.839 -3.99937 -1.0062 0
M  V30 1659 H 156.18 -0.658608 0.0844483 0
M  V30 1660 H 158.71 -1.85327 0.866891 0
M  V30 1661 H 158.72 -4.07714 -0.152856 0
M  V30 1662 H 157.395 -4.03728 0.998809 0
M  V30 1663 H 155.972 -3.64436 -0.79001 0
M  V30 1664 N 158.157 -0.370918 -1.53173 0
M  V30 1665 C 159.406 0.218249 -2.00516 0
M  V30 1666 C 159.719 1.49429 -1.26215 0
M  V30 1667 O 160.925 2.16239 -1.64174 0
M  V30 1668 C 159.381 0.43948 -3.57207 0
M  V30 1669 C 158.989 -0.822244 -4.4039 0
M  V30 1670 C 160.733 0.986012 -4.1289 0
M  V30 1671 C 158.64 -0.570304 -5.88644 0
M  V30 1672 H 157.57 0.0853333 -0.749156 0
M  V30 1673 H 160.221 -0.490483 -1.76823 0
M  V30 1674 H 158.603 1.20961 -3.77074 0
M  V30 1675 H 159.777 -1.59557 -4.32294 0
M  V30 1676 H 158.092 -1.29238 -3.95836 0
M  V30 1677 H 160.689 1.18991 -5.21292 0
M  V30 1678 H 161.032 1.94972 -3.6782 0
M  V30 1679 H 161.565 0.27592 -3.96842 0
M  V30 1680 H 158.304 -1.50449 -6.38001 0
M  V30 1681 H 157.824 0.164427 -5.99575 0
M  V30 1682 H 159.503 -0.19784 -6.46697 0
M  V30 1683 N 159.635 1.57281 -0.100228 0
M  V30 1684 C 160.912 1.86014 0.604812 0
M  V30 1685 C 161.292 0.998025 1.86018 0
M  V30 1686 O 160.64 0.0718184 2.28387 0
M  V30 1687 C 160.85 3.36784 0.915278 0
M  V30 1688 C 162.198 4.04957 1.27651 0
M  V30 1689 O 163.222 3.41695 1.00613 0
M  V30 1690 O 162.081 5.16593 1.7831 0
M  V30 1691 H 159.175 0.76942 0.303185 0
M  V30 1692 H 161.721 1.69176 -0.133313 0
M  V30 1693 H 160.493 3.91292 0.0248896 0
M  V30 1694 H 160.116 3.58987 1.70921 0
M  V30 1695 N 161.113 -0.173488 1.56642 0
M  V30 1696 C 162.06 -1.21482 1.96242 0
M  V30 1697 C 163.03 -1.44104 0.826027 0
M  V30 1698 O 164.215 -1.5688 1.08597 0
M  V30 1699 C 161.355 -2.54964 2.32567 0
M  V30 1700 C 160.468 -2.39739 3.59373 0
M  V30 1701 C 159.603 -3.66072 3.84921 0
M  V30 1702 C 158.642 -3.45771 5.05083 0
M  V30 1703 N 157.779 -4.64169 5.26775 0
M  V30 1704 H 162.619 -0.870123 2.85014 0
M  V30 1705 H 160.156 -0.418245 1.41029 0
M  V30 1706 H 162.114 -3.32758 2.5165 0
M  V30 1707 H 160.744 -2.87433 1.46908 0
M  V30 1708 H 159.796 -1.53131 3.48217 0
M  V30 1709 H 161.108 -2.20683 4.47326 0
M  V30 1710 H 160.262 -4.52303 4.0436 0
M  V30 1711 H 159.001 -3.88105 2.9534 0
M  V30 1712 H 158.006 -2.57927 4.85545 0
M  V30 1713 H 159.231 -3.25163 5.96193 0
M  V30 1714 H 157.177 -4.86425 4.40144 0
M  V30 1715 H 157.094 -4.48019 6.08946 0
M  V30 1716 H 158.362 -5.51689 5.5069 0
M  V30 1717 N 162.591 -1.51276 -0.441967 0
M  V30 1718 C 163.521 -1.752 -1.54361 0
M  V30 1719 C 164.502 -0.601682 -1.59103 0
M  V30 1720 O 165.687 -0.843913 -1.74905 0
M  V30 1721 C 162.817 -1.87282 -2.92477 0
M  V30 1722 C 161.771 -3.02687 -3.02596 0
M  V30 1723 C 161.097 -2.99947 -4.42647 0
M  V30 1724 C 162.397 -4.4273 -2.77106 0
M  V30 1725 H 164.091 -2.67442 -1.34592 0
M  V30 1726 H 161.637 -1.28694 -0.646048 0
M  V30 1727 H 163.59 -2.02602 -3.695 0
M  V30 1728 H 162.314 -0.916844 -3.13467 0
M  V30 1729 H 160.973 -2.87065 -2.28012 0
M  V30 1730 H 160.621 -2.02136 -4.60597 0
M  V30 1731 H 160.321 -3.77439 -4.50348 0
M  V30 1732 H 161.845 -3.17354 -5.2165 0
M  V30 1733 H 163.259 -4.58727 -3.43864 0
M  V30 1734 H 161.656 -5.21893 -2.96222 0
M  V30 1735 H 162.726 -4.53087 -1.72744 0
M  V30 1736 N 164.069 0.697108 -1.41344 0
M  V30 1737 C 165.297 1.48593 -1.43972 0
M  V30 1738 C 165.712 1.88747 -0.0445612 0
M  V30 1739 O 165.069 1.56682 0.935785 0
M  V30 1740 C 165.12 2.74946 -2.34706 0
M  V30 1741 O 164.841 2.36484 -3.68791 0
M  V30 1742 C 166.342 3.687 -2.46121 0
M  V30 1743 H 163.562 0.457964 -0.490418 0
M  V30 1744 H 166.106 0.858429 -1.8561 0
M  V30 1745 H 164.261 3.33937 -1.9638 0
M  V30 1746 H 164.675 3.17918 -4.17167 0
M  V30 1747 H 166.149 4.54145 -3.13777 0
M  V30 1748 H 166.626 4.13081 -1.49199 0
M  V30 1749 H 167.232 3.15613 -2.85076 0
M  V30 1750 N 165.547 1.27147 0.931209 0
M  V30 1751 C 166.495 1.09398 2.05268 0
M  V30 1752 C 167.489 0.0180591 1.6939 0
M  V30 1753 O 168.695 0.17551 1.79142 0
M  V30 1754 H 165.07 0.336986 0.672268 0
M  V30 1755 H 167.041 2.04416 2.17386 0
M  V30 1756 C 165.79 0.75424 3.39421 0
M  V30 1757 H 165.113 1.57404 3.67511 0
M  V30 1758 H 166.553 0.669903 4.18674 0
M  V30 1759 C 165.012 -0.541197 3.32525 0
M  V30 1760 O 165.542 -1.57664 3.69466 0
M  V30 1761 N 163.748 -0.535517 2.85623 0
M  V30 1762 H 163.295 0.307511 2.55758 0
M  V30 1763 H 163.253 -1.40236 2.81392 0
M  V30 1764 N 167.025 -1.13721 1.09112 0
M  V30 1765 C 168.253 -1.88773 0.846899 0
M  V30 1766 C 168.668 -1.7896 -0.601572 0
M  V30 1767 O 168.025 -1.15394 -1.41388 0
M  V30 1768 C 168.076 -3.3849 1.26913 0
M  V30 1769 O 167.797 -3.48043 2.66079 0
M  V30 1770 C 169.298 -4.30518 1.05682 0
M  V30 1771 H 166.518 -0.59772 0.304914 0
M  V30 1772 H 169.062 -1.43977 1.45227 0
M  V30 1773 H 167.217 -3.80881 0.707723 0
M  V30 1774 H 167.631 -4.4109 2.83795 0
M  V30 1775 H 169.105 -5.3391 1.40156 0
M  V30 1776 H 169.582 -4.392 -0.00563416 0
M  V30 1777 H 170.188 -3.93893 1.60402 0
M  V30 1778 N 168.503 -0.877838 -1.30888 0
M  V30 1779 C 169.78 -0.413052 -1.91189 0
M  V30 1780 C 170.16 1.1056 -1.79832 0
M  V30 1781 O 169.508 1.93771 -1.21099 0
M  V30 1782 C 169.718 -0.903191 -3.3711 0
M  V30 1783 C 171.066 -0.93395 -4.14201 0
M  V30 1784 O 172.09 -0.849373 -3.45925 0
M  V30 1785 O 170.949 -1.05772 -5.36167 0
M  V30 1786 H 168.043 -0.125035 -0.817493 0
M  V30 1787 H 170.589 -0.966269 -1.39504 0
M  V30 1788 H 169.361 -1.94692 -3.39427 0
M  V30 1789 H 168.984 -0.328732 -3.96239 0
M  V30 1790 N 169.982 1.44106 -0.638065 0
M  V30 1791 C 170.912 2.33448 0.0494287 0
M  V30 1792 C 171.893 1.48606 0.827672 0
M  V30 1793 O 173.078 1.77308 0.792173 0
M  V30 1794 C 170.208 3.31771 1.02691 0
M  V30 1795 C 169.162 4.26485 0.359823 0
M  V30 1796 C 168.488 5.14729 1.44769 0
M  V30 1797 C 169.788 5.17056 -0.738296 0
M  V30 1798 H 171.482 2.91183 -0.696636 0
M  V30 1799 H 169.028 1.40014 -0.336456 0
M  V30 1800 H 170.981 3.93161 1.51666 0
M  V30 1801 H 169.705 2.7226 1.80395 0
M  V30 1802 H 168.364 3.66437 -0.10934 0
M  V30 1803 H 168.012 4.51566 2.21578 0
M  V30 1804 H 167.712 5.78913 1.00668 0
M  V30 1805 H 169.236 5.78991 1.93911 0
M  V30 1806 H 170.65 5.72342 -0.331354 0
M  V30 1807 H 169.047 5.89879 -1.10286 0
M  V30 1808 H 170.117 4.57652 -1.60258 0
M  V30 1809 N 171.46 0.379036 1.52974 0
M  V30 1810 C 172.685 -0.209353 2.06341 0
M  V30 1811 C 173.11 -1.40583 1.24972 0
M  V30 1812 O 172.468 -1.79246 0.272155 0
M  V30 1813 C 172.516 -0.567786 3.56102 0
M  V30 1814 O 171.62 -1.66318 3.77375 0
M  V30 1815 H 170.961 -0.0272919 0.663439 0
M  V30 1816 H 173.491 0.543536 1.97248 0
M  V30 1817 H 173.501 -0.835003 3.99364 0
M  V30 1818 H 172.176 0.307013 4.14765 0
M  V30 1819 H 170.753 -1.39048 3.46006 0
M  V30 1820 N 172.938 -1.57226 0.108567 0
M  V30 1821 C 174.185 -1.94833 -0.551943 0
M  V30 1822 C 174.513 -0.991204 -1.67348 0
M  V30 1823 O 173.768 -0.0131878 -1.95696 0
M  V30 1824 C 174.067 -3.38911 -1.13463 0
M  V30 1825 C 173.733 -4.50696 -0.135509 0
M  V30 1826 C 172.395 -4.80998 0.139252 0
M  V30 1827 C 174.747 -5.18333 0.545957 0
M  V30 1828 C 172.075 -5.76259 1.10194 0
M  V30 1829 C 174.427 -6.14627 1.49721 0
M  V30 1830 C 173.091 -6.43327 1.78006 0
M  V30 1831 H 172.361 -0.712944 -0.20197 0
M  V30 1832 H 175.008 -1.90582 0.18726 0
M  V30 1833 H 173.313 -3.39805 -1.95037 0
M  V30 1834 H 175.01 -3.65317 -1.65362 0
M  V30 1835 H 171.6 -4.27087 -0.359846 0
M  V30 1836 H 175.784 -4.95087 0.346842 0
M  V30 1837 H 171.04 -5.96804 1.32795 0
M  V30 1838 H 175.214 -6.66126 2.03099 0
M  V30 1839 H 172.841 -7.1695 2.52759 0
M  V30 1840 N 174.416 0.165178 -1.56732 0
M  V30 1841 C 175.664 0.879068 -1.8198 0
M  V30 1842 C 175.985 1.82514 -0.686561 0
M  V30 1843 O 175.255 1.93694 0.293146 0
M  V30 1844 H 173.835 0.327608 -0.671329 0
M  V30 1845 H 176.497 0.163526 -1.94213 0
M  V30 1846 H 175.593 1.45228 -2.76252 0
M  V30 1847 N 175.894 1.51508 0.433938 0
M  V30 1848 C 177.305 1.56784 1.01369 0
M  V30 1849 C 177.656 0.393349 1.92217 0
M  V30 1850 O 176.781 -0.489441 2.10792 0
M  V30 1851 C 177.376 2.84144 1.8452 0
M  V30 1852 C 175.935 2.9198 2.37539 0
M  V30 1853 C 175.082 2.51482 1.16843 0
M  V30 1854 H 178.033 1.57236 0.215081 0
M  V30 1855 H 178.054 2.68098 2.70007 0
M  V30 1856 H 177.566 3.69607 1.18373 0
M  V30 1857 H 175.667 2.10955 3.0713 0
M  V30 1858 H 175.78 3.95704 2.70103 0
M  V30 1859 H 174.144 2.04758 1.51481 0
M  V30 1860 H 174.927 3.39293 0.523015 0
M  V30 1861 N 177.372 -0.689602 1.41712 0
M  V30 1862 C 178.619 -1.44966 1.4139 0
M  V30 1863 C 178.947 -1.94484 0.025105 0
M  V30 1864 O 178.202 -1.70307 -0.964048 0
M  V30 1865 C 178.501 -2.67298 2.37247 0
M  V30 1866 C 178.167 -2.36405 3.83958 0
M  V30 1867 C 176.829 -2.27691 4.23923 0
M  V30 1868 C 179.181 -2.11043 4.76561 0
M  V30 1869 C 176.509 -1.91719 5.54492 0
M  V30 1870 C 178.861 -1.76578 6.07456 0
M  V30 1871 C 177.525 -1.66363 6.46436 0
M  V30 1872 H 176.795 -0.53047 0.517381 0
M  V30 1873 H 179.442 -0.787655 1.74552 0
M  V30 1874 H 177.747 -3.38461 1.9736 0
M  V30 1875 H 179.444 -3.25452 2.34269 0
M  V30 1876 H 176.034 -2.44085 3.52308 0
M  V30 1877 H 180.218 -2.16717 4.46483 0
M  V30 1878 H 175.474 -1.82367 5.83568 0
M  V30 1879 H 179.648 -1.55974 6.78708 0
M  V30 1880 H 177.275 -1.38258 7.47522 0
M  V30 1881 N 178.85 -1.27639 -0.924453 0
M  V30 1882 C 179.797 -1.10644 -2.0255 0
M  V30 1883 C 180.767 -0.00658438 -1.66099 0
M  V30 1884 O 181.952 -0.16952 -1.90045 0
M  V30 1885 C 179.092 -0.76309 -3.36557 0
M  V30 1886 C 178.205 -1.94091 -3.85944 0
M  V30 1887 C 177.34 -1.53914 -5.08413 0
M  V30 1888 C 176.379 -2.68425 -5.50104 0
M  V30 1889 N 175.516 -2.28815 -6.63768 0
M  V30 1890 H 180.356 -2.04858 -2.16419 0
M  V30 1891 H 177.893 -1.01974 -1.06017 0
M  V30 1892 H 179.851 -0.544822 -4.13627 0
M  V30 1893 H 178.481 0.142102 -3.22487 0
M  V30 1894 H 177.533 -2.27162 -3.05125 0
M  V30 1895 H 178.845 -2.7998 -4.12811 0
M  V30 1896 H 177.999 -1.28231 -5.92994 0
M  V30 1897 H 176.738 -0.651391 -4.8333 0
M  V30 1898 H 175.743 -2.94819 -4.64071 0
M  V30 1899 H 176.968 -3.57826 -5.7718 0
M  V30 1900 H 174.914 -1.42495 -6.40337 0
M  V30 1901 H 174.831 -3.08242 -6.90306 0
M  V30 1902 H 176.099 -2.06387 -7.51681 0
M  V30 1903 N 180.328 1.1314 -1.09713 0
M  V30 1904 C 181.238 2.22242 -0.751367 0
M  V30 1905 C 182.254 1.72224 0.247938 0
M  V30 1906 O 183.43 2.01205 0.0885463 0
M  V30 1907 C 180.495 3.46231 -0.180274 0
M  V30 1908 C 179.556 4.11125 -1.2359 0
M  V30 1909 C 178.789 5.29195 -0.691966 0
M  V30 1910 O 179.012 5.68342 0.48414 0
M  V30 1911 O 177.946 5.84214 -1.44838 0
M  V30 1912 H 181.772 2.54197 -1.66186 0
M  V30 1913 H 179.357 1.21331 -0.871735 0
M  V30 1914 H 181.239 4.21185 0.134739 0
M  V30 1915 H 179.914 3.1597 0.703185 0
M  V30 1916 H 178.821 3.37985 -1.60366 0
M  V30 1917 H 180.154 4.45524 -2.09211 0
M  V30 1918 N 181.806 0.884767 1.30421 0
M  V30 1919 C 183.052 0.513218 1.96819 0
M  V30 1920 C 183.407 -0.927347 1.68577 0
M  V30 1921 O 182.7 -1.64644 0.979941 0
M  V30 1922 C 182.894 0.724318 3.49983 0
M  V30 1923 C 182.723 2.18385 3.93113 0
M  V30 1924 C 181.493 2.82839 4.18725 0
M  V30 1925 C 183.691 3.15763 4.05953 0
M  V30 1926 N 181.673 4.1939 4.48314 0
M  V30 1927 C 183.044 4.37387 4.39423 0
M  V30 1928 C 185.099 3.11555 3.88379 0
M  V30 1929 C 183.802 5.55343 4.5715 0
M  V30 1930 C 185.828 4.28782 4.07308 0
M  V30 1931 C 185.19 5.49172 4.41123 0
M  V30 1932 H 181.289 0.237123 0.745182 0
M  V30 1933 H 183.873 1.14246 1.57658 0
M  V30 1934 H 182.044 0.124565 3.882 0
M  V30 1935 H 183.776 0.31969 4.03435 0
M  V30 1936 H 180.531 2.33708 4.11919 0
M  V30 1937 H 180.955 4.89911 4.67243 0
M  V30 1938 H 185.597 2.19576 3.61312 0
M  V30 1939 H 183.315 6.47826 4.8306 0
M  V30 1940 H 186.901 4.26995 3.95179 0
M  V30 1941 H 185.781 6.38371 4.55469 0
M  V30 1942 N 183.284 -1.43765 0.645699 0
M  V30 1943 C 184.514 -2.05953 0.163318 0
M  V30 1944 C 184.922 -1.48432 -1.17322 0
M  V30 1945 O 184.265 -0.607295 -1.73371 0
M  V30 1946 C 184.327 -3.59499 -0.0103065 0
M  V30 1947 C 183.991 -4.39563 1.25035 0
M  V30 1948 C 184.988 -4.72108 2.17739 0
M  V30 1949 C 182.673 -4.79697 1.48983 0
M  V30 1950 C 184.667 -5.43688 3.3269 0
M  V30 1951 C 182.354 -5.51023 2.64229 0
M  V30 1952 C 183.352 -5.8294 3.55908 0
M  V30 1953 O 183.04 -6.5281 4.69142 0
M  V30 1954 H 182.772 -0.670798 0.0836986 0
M  V30 1955 H 185.326 -1.85384 0.884407 0
M  V30 1956 H 183.556 -3.78613 -0.78669 0
M  V30 1957 H 185.245 -4.03408 -0.449087 0
M  V30 1958 H 186.011 -4.41627 2.00476 0
M  V30 1959 H 181.89 -4.54266 0.785078 0
M  V30 1960 H 185.434 -5.68517 4.04269 0
M  V30 1961 H 181.331 -5.8092 2.81429 0
M  V30 1962 H 182.099 -6.71288 4.6831 0
M  V30 1963 N 184.763 -0.387143 -1.52771 0
M  V30 1964 C 186.01 0.195735 -2.01552 0
M  V30 1965 C 186.338 1.46995 -1.27369 0
M  V30 1966 O 185.593 1.92325 -0.361879 0
M  V30 1967 C 185.892 0.512209 -3.53711 0
M  V30 1968 C 185.558 -0.670202 -4.45891 0
M  V30 1969 C 184.22 -0.994586 -4.70809 0
M  V30 1970 C 186.572 -1.46134 -5.00294 0
M  V30 1971 C 183.9 -2.11169 -5.4738 0
M  V30 1972 C 186.252 -2.56903 -5.78086 0
M  V30 1973 C 184.916 -2.89852 -6.01284 0
M  V30 1974 H 184.186 0.0716246 -0.73753 0
M  V30 1975 H 186.833 -0.524046 -1.8419 0
M  V30 1976 H 185.138 1.31329 -3.69134 0
M  V30 1977 H 186.835 0.975804 -3.88946 0
M  V30 1978 H 183.425 -0.407366 -4.2666 0
M  V30 1979 H 187.609 -1.22397 -4.80971 0
M  V30 1980 H 182.865 -2.3707 -5.63567 0
M  V30 1981 H 187.039 -3.18608 -6.19243 0
M  V30 1982 H 184.666 -3.76533 -6.60399 0
M  V30 1983 N 186.241 1.57166 -0.116904 0
M  V30 1984 C 187.204 2.14039 0.819742 0
M  V30 1985 C 188.204 1.07477 1.19605 0
M  V30 1986 O 189.394 1.33263 1.1219 0
M  V30 1987 C 186.526 2.67891 2.10826 0
M  V30 1988 H 187.719 2.98128 0.325511 0
M  V30 1989 H 185.272 1.55739 0.132312 0
M  V30 1990 H 186.007 1.87384 2.64685 0
M  V30 1991 H 185.792 3.45823 1.84793 0
M  V30 1992 H 187.282 3.11809 2.77785 0
M  V30 1993 N 187.719 -0.156864 1.56817 0
M  V30 1994 C 188.667 -1.21319 1.98455 0
M  V30 1995 C 189.661 -1.45025 0.875444 0
M  V30 1996 O 190.867 -1.45435 1.0606 0
M  V30 1997 H 187.242 -0.408142 0.631605 0
M  V30 1998 H 189.213 -0.835244 2.86472 0
M  V30 1999 C 187.962 -2.54148 2.37285 0
M  V30 2000 H 187.285 -2.36733 3.22176 0
M  V30 2001 H 188.725 -3.26712 2.70251 0
M  V30 2002 C 187.184 -3.13967 1.22173 0
M  V30 2003 O 187.714 -3.98357 0.517149 0
M  V30 2004 N 185.92 -2.7327 0.988536 0
M  V30 2005 H 185.467 -2.04744 1.56326 0
M  V30 2006 H 185.425 -3.13628 0.220209 0
M  V30 2007 N 189.197 -1.51736 -0.425897 0
M  V30 2008 C 190.145 -1.74464 -1.53834 0
M  V30 2009 C 191.139 -0.611241 -1.57988 0
M  V30 2010 O 192.345 -0.792899 -1.61596 0
M  V30 2011 H 188.72 -0.551437 -0.511293 0
M  V30 2012 H 190.691 -2.67694 -1.31843 0
M  V30 2013 C 189.44 -1.8972 -2.91379 0
M  V30 2014 H 188.763 -2.76344 -2.88919 0
M  V30 2015 H 190.203 -2.09629 -3.68553 0
M  V30 2016 C 188.662 -0.65992 -3.30374 0
M  V30 2017 O 189.192 0.180083 -4.01296 0
M  V30 2018 N 187.398 -0.500677 -2.86254 0
M  V30 2019 H 186.945 -1.18532 -2.28709 0
M  V30 2020 H 186.903 0.325903 -3.12706 0
M  V30 2021 N 190.675 0.682077 -1.42076 0
M  V30 2022 C 191.905 1.46844 -1.45329 0
M  V30 2023 C 192.313 1.89102 -0.0609328 0
M  V30 2024 O 191.656 1.58238 0.933082 0
M  V30 2025 C 191.718 2.75375 -2.31104 0
M  V30 2026 C 191.382 2.55238 -3.79081 0
M  V30 2027 C 192.379 2.20309 -4.70914 0
M  V30 2028 C 190.064 2.70459 -4.2327 0
M  V30 2029 C 192.058 2.00859 -6.04925 0
M  V30 2030 C 189.745 2.50624 -5.57343 0
M  V30 2031 C 190.743 2.15876 -6.47986 0
M  V30 2032 O 190.431 1.96227 -7.79583 0
M  V30 2033 H 190.163 0.4586 -0.496651 0
M  V30 2034 H 192.717 0.846131 -1.87162 0
M  V30 2035 H 190.947 3.40061 -1.84107 0
M  V30 2036 H 192.636 3.37231 -2.25898 0
M  V30 2037 H 193.402 2.08153 -4.38061 0
M  V30 2038 H 189.281 2.96485 -3.53012 0
M  V30 2039 H 192.825 1.7366 -6.75639 0
M  V30 2040 H 188.722 2.62375 -5.89771 0
M  V30 2041 H 189.49 2.10883 -7.90867 0
M  V30 2042 N 192.153 1.28127 0.917671 0
M  V30 2043 C 193.402 1.14432 1.66097 0
M  V30 2044 C 193.715 -0.307247 1.93172 0
M  V30 2045 O 194.921 -0.565259 2.65551 0
M  V30 2046 C 193.377 2.00015 2.99202 0
M  V30 2047 C 192.985 3.49889 2.79789 0
M  V30 2048 C 194.729 1.94996 3.77064 0
M  V30 2049 C 192.636 4.27636 4.08511 0
M  V30 2050 H 191.566 0.424662 0.62304 0
M  V30 2051 H 194.217 1.52628 1.01868 0
M  V30 2052 H 192.599 1.54672 3.64544 0
M  V30 2053 H 193.773 4.03162 2.23152 0
M  V30 2054 H 192.088 3.56392 2.15345 0
M  V30 2055 H 194.685 2.50354 4.72469 0
M  V30 2056 H 195.028 0.925819 4.05875 0
M  V30 2057 H 195.561 2.38287 3.18534 0
M  V30 2058 H 192.3 5.30615 3.84874 0
M  V30 2059 H 191.82 3.79137 4.64774 0
M  V30 2060 H 193.499 4.37346 4.76799 0
M  V30 2061 N 193.631 -1.12557 1.10312 0
M  V30 2062 C 194.861 -1.87592 0.865617 0
M  V30 2063 C 195.269 -1.79851 -0.587389 0
M  V30 2064 O 194.612 -1.16949 -1.41664 0
M  V30 2065 C 194.674 -3.37665 1.23381 0
M  V30 2066 C 194.338 -3.69181 2.69359 0
M  V30 2067 C 195.335 -3.67652 3.67597 0
M  V30 2068 C 193.02 -3.98555 3.05711 0
M  V30 2069 C 195.014 -3.95053 5.00212 0
M  V30 2070 C 192.701 -4.25616 4.38514 0
M  V30 2071 C 193.699 -4.23851 5.35574 0
M  V30 2072 O 193.387 -4.50242 6.65986 0
M  V30 2073 H 193.119 -0.600442 0.310557 0
M  V30 2074 H 195.673 -1.4335 1.47105 0
M  V30 2075 H 193.903 -3.82454 0.571467 0
M  V30 2076 H 195.592 -3.94041 0.973994 0
M  V30 2077 H 196.358 -3.45024 3.40857 0
M  V30 2078 H 192.237 -3.99071 2.30789 0
M  V30 2079 H 195.781 -3.93591 5.75962 0
M  V30 2080 H 191.678 -4.47718 4.64994 0
M  V30 2081 H 192.446 -4.67867 6.71597 0
M  V30 2082 N 195.109 -0.891671 -1.2995 0
M  V30 2083 C 196.386 -0.433307 -1.9074 0
M  V30 2084 C 196.766 1.08646 -1.80995 0
M  V30 2085 O 196.114 1.92476 -1.23147 0
M  V30 2086 C 196.324 -0.938895 -3.36134 0
M  V30 2087 C 197.672 -0.977829 -4.13187 0
M  V30 2088 O 198.696 -0.886015 -3.45005 0
M  V30 2089 O 197.555 -1.11453 -5.35015 0
M  V30 2090 H 194.649 -0.133699 -0.816121 0
M  V30 2091 H 197.195 -0.981011 -1.38471 0
M  V30 2092 H 195.967 -1.98281 -3.37343 0
M  V30 2093 H 195.59 -0.37074 -3.95868 0
M  V30 2094 N 196.587 1.43421 -0.653314 0
M  V30 2095 C 197.52 2.2803 0.0879804 0
M  V30 2096 C 198.498 1.39833 0.82979 0
M  V30 2097 O 199.682 1.69275 0.829341 0
M  V30 2098 C 196.809 3.19247 1.13132 0
M  V30 2099 C 195.855 4.23704 0.487546 0
M  V30 2100 S 196.688 5.30377 -0.738961 0
M  V30 2101 C 197.844 6.25162 0.30384 0
M  V30 2102 H 198.077 2.90554 -0.629739 0
M  V30 2103 H 195.61 1.47934 -0.442156 0
M  V30 2104 H 197.568 3.72346 1.72827 0
M  V30 2105 H 196.229 2.55901 1.82136 0
M  V30 2106 H 195.422 4.87631 1.27407 0
M  V30 2107 H 195.024 3.73983 -0.0352915 0
M  V30 2108 H 197.316 6.67321 1.17 0
M  V30 2109 H 198.259 7.07463 -0.300402 0
M  V30 2110 H 198.667 5.60864 0.63969 0
M  V30 2111 N 198.065 0.39524 1.52563 0
M  V30 2112 C 199.313 -0.184678 2.01254 0
M  V30 2113 C 199.634 -1.46822 1.28329 0
M  V30 2114 O 198.904 -1.91666 0.405094 0
M  V30 2115 H 197.484 -0.0712355 0.743596 0
M  V30 2116 H 200.146 0.528293 1.87603 0
M  V30 2117 H 199.242 -0.390681 3.09645 0
M  V30 2118 N 199.544 -1.57102 0.125237 0
M  V30 2119 C 200.96 -1.57915 -0.231322 0
M  V30 2120 C 201.16 -1.13833 -1.66266 0
M  V30 2121 O 200.216 -0.828581 -2.38518 0
M  V30 2122 C 201.529 -3.00699 0.00766489 0
M  V30 2123 C 203.077 -3.12947 -0.0577483 0
M  V30 2124 C 203.552 -4.57742 0.153626 0
M  V30 2125 N 205.043 -4.63092 0.0998073 0
M  V30 2126 C 205.778 -5.72905 0.238174 0
M  V30 2127 N 205.274 -6.91445 0.433057 0
M  V30 2128 N 207.067 -5.6182 0.177308 0
M  V30 2129 H 199.218 -1.84055 1.06007 0
M  V30 2130 H 201.481 -0.850905 0.417929 0
M  V30 2131 H 201.187 -3.3726 0.997431 0
M  V30 2132 H 201.061 -3.70236 -0.721452 0
M  V30 2133 H 203.448 -2.7624 -1.03804 0
M  V30 2134 H 203.529 -2.4594 0.70335 0
M  V30 2135 H 203.173 -4.95149 1.13092 0
M  V30 2136 H 203.103 -5.22848 -0.627534 0
M  V30 2137 H 205.594 -3.77871 -0.047051 0
M  V30 2138 H 205.907 -7.70985 0.529332 0
M  V30 2139 H 204.252 -6.93415 0.469109 0
M  V30 2140 H 207.443 -4.68093 0.0259748 0
M  V30 2141 H 207.616 -6.47357 0.288582 0
M  V30 2142 N 201.022 0.148545 -1.56898 0
M  V30 2143 C 201.97 1.20265 -1.99096 0
M  V30 2144 C 202.964 1.44559 -0.883123 0
M  V30 2145 O 204.17 1.4487 -1.0683 0
M  V30 2146 H 200.545 0.404786 -0.63376 0
M  V30 2147 H 202.516 0.82004 -2.86911 0
M  V30 2148 C 201.265 2.52886 -2.3863 0
M  V30 2149 H 200.588 2.35021 -3.23427 0
M  V30 2150 H 202.028 3.25274 -2.7198 0
M  V30 2151 C 200.487 3.13315 -1.23837 0
M  V30 2152 O 201.017 3.98077 -0.538268 0
M  V30 2153 N 199.223 2.72742 -1.00301 0
M  V30 2154 H 198.77 2.03912 -1.5741 0
M  V30 2155 H 198.728 3.13507 -0.236838 0
M  V30 2156 N 202.5 1.5196 0.417844 0
M  V30 2157 C 203.447 1.74678 1.50852 0
M  V30 2158 C 204.417 0.588947 1.55308 0
M  V30 2159 O 205.602 0.825544 1.72016 0
M  V30 2160 C 202.742 1.89544 2.88387 0
M  V30 2161 C 201.855 3.17166 2.93309 0
M  V30 2162 C 200.99 3.22513 4.22088 0
M  V30 2163 C 200.029 4.44372 4.20951 0
M  V30 2164 N 199.166 4.47161 5.41287 0
M  V30 2165 H 204.006 2.67768 1.30783 0
M  V30 2166 H 201.543 1.32689 0.63498 0
M  V30 2167 H 203.501 1.96146 3.68216 0
M  V30 2168 H 202.131 0.998424 3.06971 0
M  V30 2169 H 201.183 3.19778 2.06024 0
M  V30 2170 H 202.495 4.07021 2.88332 0
M  V30 2171 H 201.649 3.28139 5.10303 0
M  V30 2172 H 200.388 2.30581 4.29748 0
M  V30 2173 H 199.393 4.38902 3.31127 0
M  V30 2174 H 200.618 5.3759 4.14938 0
M  V30 2175 H 198.564 3.58108 5.49632 0
M  V30 2176 H 198.481 5.3085 5.3827 0
M  V30 2177 H 199.749 4.57005 6.3148 0
M  V30 2178 N 203.978 -0.674533 1.42435 0
M  V30 2179 C 205.255 -1.4305 1.33402 0
M  V30 2180 C 205.635 -2.11081 -0.0284674 0
M  V30 2181 O 204.983 -2.03257 -1.04397 0
M  V30 2182 C 205.193 -2.43272 2.50239 0
M  V30 2183 C 206.541 -3.07907 2.92367 0
M  V30 2184 O 207.565 -2.53599 2.50132 0
M  V30 2185 O 206.424 -4.0632 3.65467 0
M  V30 2186 H 203.518 -0.638076 0.526106 0
M  V30 2187 H 206.064 -0.703235 1.54443 0
M  V30 2188 H 204.836 -1.91803 3.41068 0
M  V30 2189 H 204.459 -3.23479 2.31186 0
M  V30 2190 N 205.456 -1.28612 -0.910864 0
M  V30 2191 C 206.704 -1.15705 -1.65701 0
M  V30 2192 C 207.025 0.29416 -1.92769 0
M  V30 2193 O 206.295 1.20331 -1.54588 0
M  V30 2194 H 204.875 -0.425216 -0.614167 0
M  V30 2195 H 207.537 -1.61381 -1.0928 0
M  V30 2196 H 206.633 -1.6988 -2.61815 0
M  V30 2197 N 206.934 1.1197 -1.10907 0
M  V30 2198 C 208.35 1.35591 -0.841852 0
M  V30 2199 C 208.55 1.94233 0.536246 0
M  V30 2200 O 207.606 2.1717 1.28816 0
M  V30 2201 C 208.919 2.29284 -1.94549 0
M  V30 2202 C 210.467 2.42862 -1.97451 0
M  V30 2203 C 210.942 3.39873 -3.07002 0
M  V30 2204 N 212.433 3.47433 -3.06341 0
M  V30 2205 C 213.168 4.22421 -3.87748 0
M  V30 2206 N 212.664 5.00432 -4.79103 0
M  V30 2207 N 214.457 4.17876 -3.75946 0
M  V30 2208 H 206.608 0.722664 -1.99728 0
M  V30 2209 H 208.871 0.380635 -0.868229 0
M  V30 2210 H 208.577 1.93378 -2.93765 0
M  V30 2211 H 208.451 3.29452 -1.83688 0
M  V30 2212 H 210.838 2.78046 -0.988645 0
M  V30 2213 H 210.919 1.42566 -2.12388 0
M  V30 2214 H 210.563 3.05417 -4.05811 0
M  V30 2215 H 210.493 4.40011 -2.89306 0
M  V30 2216 H 212.984 2.91784 -2.40147 0
M  V30 2217 H 213.297 5.55002 -5.37766 0
M  V30 2218 H 211.642 4.99612 -4.83128 0
M  V30 2219 H 214.833 3.56016 -3.03924 0
M  V30 2220 H 215.006 4.76061 -4.39624 0
M  V30 2221 N 208.412 0.89855 1.29475 0
M  V30 2222 C 209.344 0.332726 2.26772 0
M  V30 2223 C 210.357 -0.520323 1.54261 0
M  V30 2224 O 211.546 -0.337668 1.75277 0
M  V30 2225 C 208.646 -0.544334 3.345 0
M  V30 2226 C 207.819 0.282728 4.36485 0
M  V30 2227 C 206.878 -0.526982 5.23555 0
M  V30 2228 O 205.904 0.0551165 5.69173 0
M  V30 2229 N 207.106 -1.83331 5.5079 0
M  V30 2230 H 209.871 1.16897 2.75962 0
M  V30 2231 H 207.432 0.762919 1.42798 0
M  V30 2232 H 209.424 -1.09239 3.89678 0
M  V30 2233 H 207.994 -1.28127 2.85136 0
M  V30 2234 H 207.214 1.01221 3.80983 0
M  V30 2235 H 208.502 0.84918 5.01664 0
M  V30 2236 H 207.9 -2.32898 5.15534 0
M  V30 2237 H 206.457 -2.32852 6.08788 0
M  V30 2238 N 209.89 -1.43072 0.660911 0
M  V30 2239 C 211.115 -2.06584 0.183805 0
M  V30 2240 C 211.54 -1.49257 -1.14472 0
M  V30 2241 O 210.898 -0.605528 -1.70889 0
M  V30 2242 C 210.946 -3.60418 0.114434 0
M  V30 2243 O 210.05 -4.01981 -0.921137 0
M  V30 2244 H 209.391 -0.656669 0.0983994 0
M  V30 2245 H 211.921 -1.83447 0.906006 0
M  V30 2246 H 211.931 -4.07946 -0.0663394 0
M  V30 2247 H 210.606 -4.01519 1.08422 0
M  V30 2248 H 209.183 -3.66029 -0.71253 0
M  V30 2249 N 211.368 -0.403325 -1.52352 0
M  V30 2250 C 212.596 0.174012 -2.06167 0
M  V30 2251 C 213.011 1.39347 -1.27388 0
M  V30 2252 O 212.368 1.79597 -0.324201 0
M  V30 2253 C 212.419 0.530223 -3.5759 0
M  V30 2254 O 212.14 -0.640806 -4.33388 0
M  V30 2255 C 213.641 1.16192 -4.27802 0
M  V30 2256 H 210.861 0.0229464 -0.670608 0
M  V30 2257 H 213.405 -0.572604 -1.9632 0
M  V30 2258 H 211.56 1.22673 -3.67464 0
M  V30 2259 H 211.974 -0.344851 -5.23365 0
M  V30 2260 H 213.448 1.36141 -5.34948 0
M  V30 2261 H 213.925 2.13335 -3.83907 0
M  V30 2262 H 214.531 0.505775 -4.22282 0
M  V30 2263 N 212.846 1.57033 -0.133567 0
M  V30 2264 C 214.092 1.96764 0.515326 0
M  V30 2265 C 214.447 1.01653 1.63353 0
M  V30 2266 O 213.74 0.0491374 1.91537 0
M  V30 2267 C 213.934 3.40674 1.08057 0
M  V30 2268 C 213.763 4.49696 0.0186522 0
M  V30 2269 C 212.533 5.03567 -0.418174 0
M  V30 2270 C 214.731 5.08536 -0.767809 0
M  V30 2271 N 212.713 5.9618 -1.46434 0
M  V30 2272 C 214.084 5.97231 -1.6648 0
M  V30 2273 C 216.139 4.9115 -0.817087 0
M  V30 2274 C 214.842 6.70401 -2.60681 0
M  V30 2275 C 216.868 5.65012 -1.74687 0
M  V30 2276 C 216.23 6.53403 -2.63141 0
M  V30 2277 H 212.329 0.765919 0.157771 0
M  V30 2278 H 214.913 1.93395 -0.22506 0
M  V30 2279 H 213.084 3.44662 1.79061 0
M  V30 2280 H 214.816 3.67495 1.69497 0
M  V30 2281 H 211.571 4.73594 -0.0229803 0
M  V30 2282 H 211.995 6.47191 -1.98678 0
M  V30 2283 H 216.637 4.22543 -0.147326 0
M  V30 2284 H 214.355 7.38245 -3.28664 0
M  V30 2285 H 217.941 5.53559 -1.79063 0
M  V30 2286 H 216.821 7.09556 -3.33917 0
M  V30 2287 N 214.325 -0.140222 1.56975 0
M  V30 2288 C 215.555 -0.865181 1.87612 0
M  V30 2289 C 215.963 -1.74942 0.72055 0
M  V30 2290 O 215.306 -1.80917 -0.318561 0
M  V30 2291 C 215.368 -1.76782 3.13031 0
M  V30 2292 C 215.032 -1.06005 4.44536 0
M  V30 2293 C 216.029 -0.410768 5.18275 0
M  V30 2294 C 213.714 -1.04754 4.91255 0
M  V30 2295 C 215.708 0.241572 6.36942 0
M  V30 2296 C 213.395 -0.391394 6.09845 0
M  V30 2297 C 214.393 0.252029 6.82535 0
M  V30 2298 O 214.081 0.897757 7.98871 0
M  V30 2299 H 213.813 -0.255188 0.625983 0
M  V30 2300 H 216.367 -0.135653 2.04952 0
M  V30 2301 H 214.597 -2.53846 2.91718 0
M  V30 2302 H 216.286 -2.36533 3.29859 0
M  V30 2303 H 217.052 -0.412195 4.83245 0
M  V30 2304 H 212.931 -1.53777 4.34596 0
M  V30 2305 H 216.475 0.744375 6.93617 0
M  V30 2306 H 212.372 -0.387656 6.44335 0
M  V30 2307 H 213.14 0.800102 8.1458 0
M  V30 2308 N 215.803 -1.52179 -0.40978 0
M  V30 2309 C 216.736 -1.70196 -1.52015 0
M  V30 2310 C 217.714 -0.549542 -1.53032 0
M  V30 2311 O 218.898 -0.776815 -1.71749 0
M  V30 2312 C 216.025 -1.74069 -2.90547 0
M  V30 2313 C 215.071 -2.95601 -3.07445 0
M  V30 2314 S 215.904 -4.55956 -2.80827 0
M  V30 2315 C 217.06 -4.62614 -4.21591 0
M  V30 2316 H 217.293 -2.64109 -1.36504 0
M  V30 2317 H 214.826 -1.4221 -0.601312 0
M  V30 2318 H 216.784 -1.76985 -3.70387 0
M  V30 2319 H 215.445 -0.812835 -3.034 0
M  V30 2320 H 214.638 -2.94791 -4.08796 0
M  V30 2321 H 214.24 -2.90569 -2.35469 0
M  V30 2322 H 216.532 -4.39951 -5.15218 0
M  V30 2323 H 217.475 -5.64548 -4.27424 0
M  V30 2324 H 217.883 -3.91654 -4.06531 0
M  V30 2325 N 217.281 0.66697 -1.42791 0
M  V30 2326 C 218.529 1.42417 -1.43394 0
M  V30 2327 C 218.85 1.94925 -0.0542373 0
M  V30 2328 O 218.12 1.73564 0.908415 0
M  V30 2329 H 216.7 0.528515 -0.527902 0
M  V30 2330 H 219.362 0.787562 -1.78279 0
M  V30 2331 H 218.458 2.27333 -2.13837 0
M  V30 2332 N 218.759 1.29093 0.90403 0
M  V30 2333 C 219.689 1.16401 2.02418 0
M  V30 2334 C 220.67 0.0593085 1.69997 0
M  V30 2335 O 221.855 0.238021 1.92736 0
M  V30 2336 C 218.985 0.835233 3.37107 0
M  V30 2337 C 217.939 1.89578 3.83724 0
M  V30 2338 C 217.265 1.42041 5.15489 0
M  V30 2339 C 218.565 3.30394 4.04521 0
M  V30 2340 H 220.259 2.10109 2.13295 0
M  V30 2341 H 217.805 1.01157 1.02486 0
M  V30 2342 H 219.758 0.733169 4.14973 0
M  V30 2343 H 218.482 -0.137543 3.2631 0
M  V30 2344 H 217.141 1.98715 3.08071 0
M  V30 2345 H 216.789 0.436426 5.01103 0
M  V30 2346 H 216.489 2.12964 5.4765 0
M  V30 2347 H 218.013 1.33176 5.959 0
M  V30 2348 H 219.427 3.24123 4.72882 0
M  V30 2349 H 217.824 3.99237 4.48029 0
M  V30 2350 H 218.894 3.73692 3.09002 0
M  V30 2351 N 220.237 -1.11381 1.11499 0
M  V30 2352 C 221.485 -1.8277 0.862524 0
M  V30 2353 C 221.806 -1.85097 -0.613534 0
M  V30 2354 O 221.076 -1.32198 -1.4457 0
M  V30 2355 H 219.656 -0.676823 0.316101 0
M  V30 2356 H 222.318 -1.34816 1.4075 0
M  V30 2357 H 221.414 -2.86614 1.23527 0
M  V30 2358 N 221.715 -0.905404 -1.28997 0
M  V30 2359 C 222.943 -0.549846 -1.9946 0
M  V30 2360 C 223.358 0.866834 -1.67724 0
M  V30 2361 O 222.715 1.57298 -0.925404 0
M  V30 2362 C 222.766 -0.739387 -3.53858 0
M  V30 2363 O 222.487 -2.10031 -3.84472 0
M  V30 2364 C 223.988 -0.389541 -4.41585 0
M  V30 2365 H 221.208 -0.210429 -0.637151 0
M  V30 2366 H 223.752 -1.21632 -1.64396 0
M  V30 2367 H 221.907 -0.120023 -3.87214 0
M  V30 2368 H 222.321 -2.13385 -4.79132 0
M  V30 2369 H 223.795 -0.572972 -5.49018 0
M  V30 2370 H 224.272 0.673756 -4.34001 0
M  V30 2371 H 224.878 -0.986089 -4.1371 0
M  V30 2372 N 223.193 1.4272 -0.668489 0
M  V30 2373 C 224.47 1.95248 -0.117373 0
M  V30 2374 C 224.85 1.60919 1.36632 0
M  V30 2375 O 224.198 0.902095 2.09939 0
M  V30 2376 C 224.408 3.46927 -0.379806 0
M  V30 2377 C 225.756 4.23588 -0.292923 0
M  V30 2378 O 226.78 3.5482 -0.313204 0
M  V30 2379 O 225.639 5.46017 -0.229697 0
M  V30 2380 H 222.733 0.827 0.00079152 0
M  V30 2381 H 225.279 1.52581 -0.742783 0
M  V30 2382 H 224.051 3.65096 -1.40786 0
M  V30 2383 H 223.674 3.96627 0.277923 0
M  V30 2384 N 224.671 0.411399 1.52136 0
M  V30 2385 C 225.92 -0.165009 2.01024 0
M  V30 2386 C 226.233 -1.4603 1.30133 0
M  V30 2387 O 227.439 -2.1181 1.69849 0
M  V30 2388 C 225.895 -0.344618 3.58246 0
M  V30 2389 C 225.503 0.938716 4.38055 0
M  V30 2390 C 227.247 -0.876195 4.15359 0
M  V30 2391 C 225.154 0.726172 5.86925 0
M  V30 2392 H 224.084 -0.0654407 0.751155 0
M  V30 2393 H 226.735 0.537192 1.75461 0
M  V30 2394 H 225.117 -1.10921 3.80148 0
M  V30 2395 H 226.291 1.70963 4.27912 0
M  V30 2396 H 224.606 1.39688 3.92271 0
M  V30 2397 H 227.203 -1.05128 5.24263 0
M  V30 2398 H 227.546 -1.85152 3.7286 0
M  V30 2399 H 228.079 -0.170607 3.97434 0
M  V30 2400 H 224.818 1.67312 6.33788 0
M  V30 2401 H 224.338 -0.00540283 5.998 0
M  V30 2402 H 226.017 0.369231 6.45946 0
M  V30 2403 N 226.149 -1.5696 0.141893 0
M  V30 2404 C 227.426 -1.87553 -0.555281 0
M  V30 2405 C 227.806 -1.04699 -1.83306 0
M  V30 2406 O 227.154 -0.132346 -2.28116 0
M  V30 2407 C 227.364 -3.39093 -0.825664 0
M  V30 2408 C 228.712 -4.08199 -1.16869 0
M  V30 2409 O 229.736 -3.44242 -0.915185 0
M  V30 2410 O 228.595 -5.21139 -1.6455 0
M  V30 2411 H 225.689 -0.777188 -0.282679 0
M  V30 2412 H 228.235 -1.68763 0.17812 0
M  V30 2413 H 227.007 -3.91221 0.0788633 0
M  V30 2414 H 226.63 -3.63393 -1.61343 0
M  V30 2415 N 227.627 0.131896 -1.57047 0
M  V30 2416 C 228.855 0.856461 -1.88341 0
M  V30 2417 C 229.27 1.74042 -0.731757 0
M  V30 2418 O 228.627 1.80051 0.297945 0
M  V30 2419 C 228.678 1.70064 -3.18999 0
M  V30 2420 O 228.399 0.852278 -4.2973 0
M  V30 2421 C 229.9 2.53148 -3.63911 0
M  V30 2422 H 227.12 0.246885 -0.62393 0
M  V30 2423 H 229.664 0.120152 -2.04147 0
M  V30 2424 H 227.819 2.38984 -3.04902 0
M  V30 2425 H 228.233 1.43329 -5.04537 0
M  V30 2426 H 229.707 3.07931 -4.58129 0
M  V30 2427 H 230.184 3.29901 -2.89935 0
M  V30 2428 H 230.79 1.89492 -3.80753 0
M  V30 2429 N 229.106 1.52395 0.401703 0
M  V30 2430 C 230.354 1.66488 1.14569 0
M  V30 2431 C 230.675 0.400897 1.90835 0
M  V30 2432 O 229.945 -0.584415 1.8698 0
M  V30 2433 H 228.525 0.613672 0.425929 0
M  V30 2434 H 231.187 1.89464 0.457093 0
M  V30 2435 H 230.283 2.50942 1.85566 0
M  V30 2436 N 230.584 -0.659388 1.43143 0
M  V30 2437 C 231.514 -1.78422 1.50625 0
M  V30 2438 C 232.495 -1.66216 0.361443 0
M  V30 2439 O 233.68 -1.85404 0.577834 0
M  V30 2440 C 230.81 -3.16815 1.42287 0
M  V30 2441 C 229.764 -3.43777 2.54954 0
M  V30 2442 C 229.09 -4.81905 2.31671 0
M  V30 2443 C 230.39 -3.39134 3.97222 0
M  V30 2444 H 232.084 -1.72417 2.44771 0
M  V30 2445 H 229.63 -0.828084 1.17808 0
M  V30 2446 H 231.583 -3.95253 1.46127 0
M  V30 2447 H 230.307 -3.23534 0.446435 0
M  V30 2448 H 228.966 -2.67707 2.50457 0
M  V30 2449 H 228.614 -4.85294 1.32284 0
M  V30 2450 H 228.314 -5.00906 3.07192 0
M  V30 2451 H 229.838 -5.62609 2.37284 0
M  V30 2452 H 231.252 -4.07518 4.03239 0
M  V30 2453 H 229.649 -3.69671 4.72719 0
M  V30 2454 H 230.719 -2.37426 4.22797 0
M  V30 2455 N 232.062 -1.29571 -0.897171 0
M  V30 2456 C 233.473 -1.15964 -1.46319 0
M  V30 2457 C 233.824 0.244267 -1.94674 0
M  V30 2458 O 232.949 1.13998 -1.83939 0
M  V30 2459 C 233.544 -2.09906 -2.65942 0
M  V30 2460 C 232.103 -2.00314 -3.18671 0
M  V30 2461 C 231.25 -2.00687 -1.91363 0
M  V30 2462 H 234.201 -1.42019 -0.708268 0
M  V30 2463 H 234.222 -1.67276 -3.41759 0
M  V30 2464 H 233.734 -3.12075 -2.30718 0
M  V30 2465 H 231.835 -1.01242 -3.58582 0
M  V30 2466 H 231.948 -2.88102 -3.82798 0
M  V30 2467 H 230.312 -1.45319 -2.09175 0
M  V30 2468 H 231.095 -3.04566 -1.58413 0
M  V30 2469 N 233.54 1.10788 -1.12088 0
M  V30 2470 C 234.473 2.16237 -0.729168 0
M  V30 2471 C 235.451 1.60207 0.277921 0
M  V30 2472 O 236.635 1.87707 0.172737 0
M  V30 2473 C 233.762 3.38609 -0.0786848 0
M  V30 2474 C 232.808 4.13322 -1.05201 0
M  V30 2475 S 233.641 4.69371 -2.57781 0
M  V30 2476 C 234.797 5.95058 -1.94053 0
M  V30 2477 H 235.03 2.4913 -1.62239 0
M  V30 2478 H 232.563 1.22519 -0.939603 0
M  V30 2479 H 234.521 4.09473 0.290254 0
M  V30 2480 H 233.182 3.03962 0.791593 0
M  V30 2481 H 232.375 5.01051 -0.544433 0
M  V30 2482 H 231.977 3.48251 -1.36371 0
M  V30 2483 H 234.269 6.65278 -1.28107 0
M  V30 2484 H 235.212 6.50472 -2.79807 0
M  V30 2485 H 235.62 5.46918 -1.39787 0
M  V30 2486 N 235.018 0.912232 1.28515 0
M  V30 2487 C 236.243 0.559774 1.99703 0
M  V30 2488 C 236.668 -0.851393 1.67729 0
M  V30 2489 O 236.026 -1.56875 0.908834 0
M  V30 2490 C 236.074 0.773874 3.52198 0
M  V30 2491 O 235.178 -0.167842 4.12058 0
M  V30 2492 H 234.519 0.21723 0.627461 0
M  V30 2493 H 237.049 1.22725 1.63706 0
M  V30 2494 H 237.059 0.683386 4.02236 0
M  V30 2495 H 235.734 1.80261 3.74805 0
M  V30 2496 H 234.311 -0.0287509 3.72889 0
M  V30 2497 N 236.496 -1.42363 0.676048 0
M  V30 2498 C 237.426 -2.33497 0.0124832 0
M  V30 2499 C 238.407 -1.50748 -0.787981 0
M  V30 2500 O 239.592 -1.79346 -0.744884 0
M  V30 2501 C 236.722 -3.34377 -0.938582 0
M  V30 2502 C 235.676 -4.27289 -0.246622 0
M  V30 2503 C 235.002 -5.18386 -1.31071 0
M  V30 2504 C 236.302 -5.14916 0.875125 0
M  V30 2505 H 237.996 -2.89233 0.773593 0
M  V30 2506 H 235.542 -1.39073 0.37346 0
M  V30 2507 H 237.495 -3.97044 -1.41188 0
M  V30 2508 H 236.219 -2.76947 -1.73113 0
M  V30 2509 H 234.878 -3.66018 0.206456 0
M  V30 2510 H 234.526 -4.57282 -2.09528 0
M  V30 2511 H 234.226 -5.81378 -0.852839 0
M  V30 2512 H 235.75 -5.83929 -1.78492 0
M  V30 2513 H 237.164 -5.71262 0.482983 0
M  V30 2514 H 235.561 -5.86747 1.25887 0
M  V30 2515 H 236.631 -4.53242 1.72335 0
M  V30 2516 N 237.974 -0.419461 -1.51915 0
M  V30 2517 C 239.199 0.154572 -2.06823 0
M  V30 2518 C 239.624 1.3722 -1.28656 0
M  V30 2519 O 238.982 1.78461 -0.319583 0
M  V30 2520 C 239.03 0.473172 -3.57482 0
M  V30 2521 O 238.134 1.56255 -3.81652 0
M  V30 2522 H 237.475 0.0096924 -0.663929 0
M  V30 2523 H 240.005 -0.595642 -1.95738 0
M  V30 2524 H 240.015 0.728825 -4.01438 0
M  V30 2525 H 238.69 -0.416873 -4.13805 0
M  V30 2526 H 237.267 1.29825 -3.49571 0
M  V30 2527 N 239.452 1.56882 -0.150215 0
M  V30 2528 C 240.385 2.12712 0.826358 0
M  V30 2529 C 241.363 1.05154 1.24022 0
M  V30 2530 O 242.547 1.33004 1.33575 0
M  V30 2531 C 239.674 2.64945 2.11002 0
M  V30 2532 C 238.72 3.8468 1.84183 0
M  V30 2533 S 239.553 5.25502 1.02995 0
M  V30 2534 C 240.709 5.81125 2.32474 0
M  V30 2535 H 240.942 2.95214 0.351598 0
M  V30 2536 H 238.475 1.54267 0.0641211 0
M  V30 2537 H 240.433 2.95689 2.84742 0
M  V30 2538 H 239.094 1.82568 2.55593 0
M  V30 2539 H 238.287 4.19482 2.79375 0
M  V30 2540 H 237.889 3.54714 1.1855 0
M  V30 2541 H 240.181 5.92753 3.281 0
M  V30 2542 H 241.124 6.78625 2.02171 0
M  V30 2543 H 241.532 5.09392 2.43269 0
M  V30 2544 N 240.93 -0.123565 1.57115 0
M  V30 2545 C 241.878 -1.17082 2.00984 0
M  V30 2546 C 242.872 -1.43136 0.906009 0
M  V30 2547 O 244.078 -1.43152 1.09121 0
M  V30 2548 H 240.453 -0.394653 0.64012 0
M  V30 2549 H 242.424 -0.774292 2.88179 0
M  V30 2550 C 241.173 -2.49057 2.42623 0
M  V30 2551 H 240.496 -2.29846 3.27125 0
M  V30 2552 H 241.936 -3.20906 2.7712 0
M  V30 2553 C 240.395 -3.11305 1.28805 0
M  V30 2554 O 240.925 -3.97171 0.60153 0
M  V30 2555 N 239.131 -2.71111 1.04628 0
M  V30 2556 H 238.678 -2.01382 1.60634 0
M  V30 2557 H 238.636 -3.1309 0.286685 0
M  V30 2558 N 242.408 -1.52605 -0.393616 0
M  V30 2559 C 243.654 -1.67672 -1.14079 0
M  V30 2560 C 243.987 -0.413121 -1.89755 0
M  V30 2561 O 243.262 0.588952 -1.85369 0
M  V30 2562 C 243.545 -2.9088 -2.12276 0
M  V30 2563 C 243.398 -4.27329 -1.40394 0
M  V30 2564 C 244.717 -3.09628 -3.12759 0
M  V30 2565 H 241.836 -0.610168 -0.413356 0
M  V30 2566 H 244.478 -1.85193 -0.424696 0
M  V30 2567 H 242.628 -2.76073 -2.73342 0
M  V30 2568 H 244.3 -4.53894 -0.82327 0
M  V30 2569 H 242.543 -4.2802 -0.705801 0
M  V30 2570 H 243.214 -5.09615 -2.12123 0
M  V30 2571 H 245.69 -3.23436 -2.61779 0
M  V30 2572 H 244.566 -3.97322 -3.78717 0
M  V30 2573 H 244.827 -2.23637 -3.81365 0
M  V30 2574 N 243.887 0.651787 -1.4349 0
M  V30 2575 C 245.117 1.43728 -1.48411 0
M  V30 2576 C 245.525 1.8893 -0.10103 0
M  V30 2577 O 244.868 1.60182 0.899307 0
M  V30 2578 C 244.93 2.70411 -2.36893 0
M  V30 2579 C 244.594 2.4714 -3.8441 0
M  V30 2580 C 245.591 2.10271 -4.75481 0
M  V30 2581 C 243.276 2.6142 -4.28912 0
M  V30 2582 C 245.27 1.87982 -6.0905 0
M  V30 2583 C 242.957 2.38746 -5.62533 0
M  V30 2584 C 243.955 2.02083 -6.5242 0
M  V30 2585 O 243.643 1.79647 -7.8357 0
M  V30 2586 H 243.375 0.447962 -0.506267 0
M  V30 2587 H 245.929 0.80624 -1.88915 0
M  V30 2588 H 244.159 3.36079 -1.91278 0
M  V30 2589 H 245.848 3.32364 -2.33 0
M  V30 2590 H 246.614 1.98814 -4.42378 0
M  V30 2591 H 242.493 2.88931 -3.59222 0
M  V30 2592 H 246.037 1.5929 -6.7917 0
M  V30 2593 H 241.934 2.49806 -5.95203 0
M  V30 2594 H 242.702 1.9406 -7.95162 0
M  V30 2595 N 245.365 1.30045 0.890287 0
M  V30 2596 C 246.328 1.15963 1.977 0
M  V30 2597 C 247.328 0.0923777 1.60534 0
M  V30 2598 O 248.518 0.340071 1.70848 0
M  V30 2599 C 245.65 0.775451 3.31963 0
M  V30 2600 H 246.843 2.12502 2.11619 0
M  V30 2601 H 244.396 1.13366 1.07601 0
M  V30 2602 H 245.131 -0.189671 3.23745 0
M  V30 2603 H 244.916 1.54668 3.60306 0
M  V30 2604 H 246.406 0.700251 4.11687 0
M  V30 2605 N 246.843 -1.10192 1.12674 0
M  V30 2606 C 247.79 -2.16606 0.796906 0
M  V30 2607 C 248.76 -1.64394 -0.237476 0
M  V30 2608 O 249.945 -1.90474 -0.111484 0
M  V30 2609 C 247.085 -3.44116 0.26043 0
M  V30 2610 C 246.198 -4.10268 1.35293 0
M  V30 2611 C 245.333 -5.25507 0.775621 0
M  V30 2612 C 244.372 -5.83567 1.84706 0
M  V30 2613 N 243.509 -6.90179 1.28829 0
M  V30 2614 H 248.349 -2.44163 1.70846 0
M  V30 2615 H 245.886 -1.19846 0.85295 0
M  V30 2616 H 247.844 -4.17143 -0.0686814 0
M  V30 2617 H 246.474 -3.16901 -0.614274 0
M  V30 2618 H 245.526 -3.35184 1.79877 0
M  V30 2619 H 246.838 -4.4946 2.16303 0
M  V30 2620 H 245.992 -6.05398 0.397327 0
M  V30 2621 H 244.731 -4.87656 -0.0656581 0
M  V30 2622 H 243.736 -5.02344 2.23452 0
M  V30 2623 H 244.961 -6.23482 2.69161 0
M  V30 2624 H 242.907 -6.54322 0.468881 0
M  V30 2625 H 242.824 -7.28097 2.03497 0
M  V30 2626 H 244.092 -7.73844 0.937311 0
M  V30 2627 N 248.321 -0.919034 -1.28029 0
M  V30 2628 C 249.551 -0.570143 -1.98577 0
M  V30 2629 C 249.959 0.854172 -1.68821 0
M  V30 2630 O 249.302 1.57807 -0.940351 0
M  V30 2631 C 249.364 -0.705734 -3.52505 0
M  V30 2632 C 249.028 -2.10057 -4.05863 0
M  V30 2633 C 250.025 -3.07385 -4.19298 0
M  V30 2634 C 247.71 -2.41517 -4.40426 0
M  V30 2635 C 249.704 -4.34287 -4.66555 0
M  V30 2636 C 247.391 -3.68657 -4.87376 0
M  V30 2637 C 248.389 -4.64856 -5.00398 0
M  V30 2638 O 248.077 -5.89735 -5.46322 0
M  V30 2639 H 247.809 -0.215592 -0.6407 0
M  V30 2640 H 250.363 -1.23583 -1.64062 0
M  V30 2641 H 248.593 0.0170414 -3.86696 0
M  V30 2642 H 250.282 -0.363172 -4.04272 0
M  V30 2643 H 251.048 -2.84398 -3.92865 0
M  V30 2644 H 246.927 -1.67389 -4.29537 0
M  V30 2645 H 250.471 -5.09377 -4.76635 0
M  V30 2646 H 246.368 -3.91466 -5.13249 0
M  V30 2647 H 247.136 -5.92599 -5.64596 0
M  V30 2648 N 249.799 1.42003 -0.683588 0
M  V30 2649 C 250.731 2.29183 0.0283068 0
M  V30 2650 C 251.744 1.4415 0.756611 0
M  V30 2651 O 252.933 1.67779 0.609306 0
M  V30 2652 C 250.033 3.21765 1.06398 0
M  V30 2653 C 249.206 4.35496 0.407723 0
M  V30 2654 C 248.265 5.08737 1.34437 0
M  V30 2655 O 247.291 5.62948 0.841318 0
M  V30 2656 N 248.493 5.15075 2.67728 0
M  V30 2657 H 251.258 2.9092 -0.720105 0
M  V30 2658 H 248.819 1.53025 -0.528682 0
M  V30 2659 H 250.811 3.6763 1.69204 0
M  V30 2660 H 249.381 2.61418 1.71404 0
M  V30 2661 H 248.601 3.92165 -0.400012 0
M  V30 2662 H 249.889 5.08776 -0.0490956 0
M  V30 2663 H 249.287 4.72457 3.11129 0
M  V30 2664 H 247.844 5.64556 3.2576 0
M  V30 2665 N 251.277 0.427512 1.51691 0
M  V30 2666 C 252.523 -0.134744 2.02953 0
M  V30 2667 C 252.878 -1.41235 1.30654 0
M  V30 2668 O 252.171 -1.87168 0.409713 0
M  V30 2669 C 252.365 -0.418249 3.54944 0
M  V30 2670 C 252.194 0.830327 4.41968 0
M  V30 2671 C 250.964 1.36097 4.86627 0
M  V30 2672 C 253.162 1.7137 4.84909 0
M  V30 2673 N 251.144 2.56311 5.57833 0
M  V30 2674 C 252.515 2.76195 5.55082 0
M  V30 2675 C 254.57 1.72928 4.66905 0
M  V30 2676 C 253.273 3.82512 6.09161 0
M  V30 2677 C 255.299 2.78175 5.21894 0
M  V30 2678 C 254.661 3.8172 5.92004 0
M  V30 2679 H 250.76 -0.0103958 0.781931 0
M  V30 2680 H 253.344 0.585981 1.85673 0
M  V30 2681 H 251.515 -1.10801 3.7226 0
M  V30 2682 H 253.247 -0.970999 3.92879 0
M  V30 2683 H 250.002 0.916311 4.64651 0
M  V30 2684 H 250.426 3.17242 5.98069 0
M  V30 2685 H 255.068 0.942081 4.12171 0
M  V30 2686 H 252.786 4.62077 6.62956 0
M  V30 2687 H 256.372 2.8031 5.09821 0
M  V30 2688 H 255.252 4.61821 6.33791 0
M  V30 2689 N 252.755 -1.56801 0.158532 0
M  V30 2690 C 253.687 -2.14488 -0.807923 0
M  V30 2691 C 254.7 -1.09721 -1.20271 0
M  V30 2692 O 255.889 -1.36956 -1.14478 0
M  V30 2693 C 252.989 -2.66217 -2.09718 0
M  V30 2694 C 252.162 -3.95507 -1.86796 0
M  V30 2695 C 251.221 -4.3243 -2.99818 0
M  V30 2696 O 250.247 -5.00543 -2.71008 0
M  V30 2697 N 251.449 -3.92947 -4.27285 0
M  V30 2698 H 254.214 -2.98042 -0.314816 0
M  V30 2699 H 251.775 -1.61881 -0.0246692 0
M  V30 2700 H 253.767 -2.87924 -2.84398 0
M  V30 2701 H 252.337 -1.87324 -2.50257 0
M  V30 2702 H 251.557 -3.82309 -0.96089 0
M  V30 2703 H 252.845 -4.79972 -1.68833 0
M  V30 2704 H 252.243 -3.38087 -4.53557 0
M  V30 2705 H 250.8 -4.19681 -4.9871 0
M  V30 2706 N 254.233 0.115231 -1.57178 0
M  V30 2707 C 255.181 1.16014 -2.01602 0
M  V30 2708 C 256.175 1.42653 -0.913587 0
M  V30 2709 O 257.381 1.42571 -1.09879 0
M  V30 2710 H 253.756 0.391252 -0.642204 0
M  V30 2711 H 255.727 0.758998 -2.88586 0
M  V30 2712 C 254.476 2.47767 -2.4394 0
M  V30 2713 H 253.799 2.28108 -3.28339 0
M  V30 2714 H 255.239 3.19432 -2.78818 0
M  V30 2715 C 253.698 3.10617 -1.30455 0
M  V30 2716 O 254.228 3.96846 -0.622585 0
M  V30 2717 N 252.434 2.70553 -1.06064 0
M  V30 2718 H 251.981 2.00527 -1.61699 0
M  V30 2719 H 251.939 3.12934 -0.303284 0
M  V30 2720 N 255.711 1.52812 0.385517 0
M  V30 2721 C 256.941 1.71658 1.14966 0
M  V30 2722 C 257.349 0.436253 1.84102 0
M  V30 2723 O 256.692 -0.599313 1.73649 0
M  V30 2724 C 256.754 2.81309 2.23843 0
M  V30 2725 C 256.418 4.22313 1.74644 0
M  V30 2726 C 257.415 5.05352 1.22129 0
M  V30 2727 C 255.1 4.68648 1.80761 0
M  V30 2728 C 257.094 6.32807 0.763838 0
M  V30 2729 C 254.781 5.96086 1.34627 0
M  V30 2730 C 255.779 6.77996 0.825264 0
M  V30 2731 O 255.467 8.03045 0.370669 0
M  V30 2732 H 255.199 0.578022 0.350523 0
M  V30 2733 H 257.753 2.00263 0.456509 0
M  V30 2734 H 255.983 2.48133 2.96592 0
M  V30 2735 H 257.672 2.88524 2.85497 0
M  V30 2736 H 258.438 4.70736 1.16758 0
M  V30 2737 H 254.317 4.04979 2.20256 0
M  V30 2738 H 257.861 6.96689 0.356494 0
M  V30 2739 H 253.758 6.30205 1.39686 0
M  V30 2740 H 254.526 8.17021 0.491829 0
M  V30 2741 N 257.189 -0.644168 1.43834 0
M  V30 2742 C 258.437 -1.40117 1.45642 0
M  V30 2743 C 258.758 -1.94814 0.0852413 0
M  V30 2744 O 258.028 -1.74988 -0.880688 0
M  V30 2745 H 256.608 -0.52005 0.536243 0
M  V30 2746 H 259.27 -0.7591 1.7951 0
M  V30 2747 H 258.366 -2.23902 2.17427 0
M  V30 2748 N 258.668 -1.30515 -0.883378 0
M  V30 2749 C 259.631 -1.1701 -1.97082 0
M  V30 2750 C 260.631 -0.10089 -1.60483 0
M  V30 2751 O 261.821 -0.349127 -1.70666 0
M  V30 2752 C 258.953 -0.793045 -3.31547 0
M  V30 2753 H 260.146 -2.13622 -2.10489 0
M  V30 2754 H 257.699 -1.13935 -1.06998 0
M  V30 2755 H 258.434 0.172499 -3.23841 0
M  V30 2756 H 258.219 -1.56576 -3.5948 0
M  V30 2757 H 259.709 -0.722073 -4.1131 0
M  V30 2758 N 260.146 1.09593 -1.13257 0
M  V30 2759 C 261.109 2.14359 -0.811358 0
M  V30 2760 C 262.109 1.59808 0.178377 0
M  V30 2761 O 263.299 1.74132 -0.0484911 0
M  V30 2762 C 260.431 3.40269 -0.207276 0
M  V30 2763 H 261.624 2.44284 -1.73969 0
M  V30 2764 H 259.177 1.25102 -0.936973 0
M  V30 2765 H 259.912 3.15969 0.73036 0
M  V30 2766 H 259.697 3.81154 -0.919992 0
M  V30 2767 H 261.187 4.176 0.000667944 0
M  V30 2768 N 261.624 0.925811 1.2754 0
M  V30 2769 C 262.572 0.413897 2.28888 0
M  V30 2770 C 263.566 -0.500779 1.61829 0
M  V30 2771 O 264.772 -0.38069 1.75928 0
M  V30 2772 H 261.147 0.115274 0.743112 0
M  V30 2773 H 263.118 1.28151 2.69481 0
M  V30 2774 C 261.867 -0.319792 3.46226 0
M  V30 2775 H 261.19 0.374846 3.98039 0
M  V30 2776 H 262.63 -0.642435 4.19105 0
M  V30 2777 C 261.089 -1.53209 3.00048 0
M  V30 2778 O 261.619 -2.6309 3.03557 0
M  V30 2779 N 259.825 -1.38326 2.55566 0
M  V30 2780 H 259.372 -0.489292 2.5291 0
M  V30 2781 H 259.33 -2.19564 2.25031 0
M  V30 2782 N 263.102 -1.41638 0.69111 0
M  V30 2783 C 264.012 -2.34588 0.0233487 0
M  V30 2784 C 265.028 -1.55987 -0.770984 0
M  V30 2785 O 266.204 -1.88486 -0.709569 0
M  V30 2786 C 263.269 -3.34684 -0.904851 0
M  V30 2787 C 262.33 -4.29176 -0.103225 0
M  V30 2788 C 261.563 -5.2449 -0.987216 0
M  V30 2789 O 261.786 -5.2514 -2.22674 0
M  V30 2790 O 260.72 -6.00295 -0.439281 0
M  V30 2791 H 264.546 -2.93261 0.789416 0
M  V30 2792 H 262.131 -1.42417 0.45142 0
M  V30 2793 H 264.013 -3.96133 -1.43724 0
M  V30 2794 H 262.688 -2.78461 -1.65049 0
M  V30 2795 H 261.595 -3.71089 0.473655 0
M  V30 2796 H 262.928 -4.88484 0.60365 0
M  V30 2797 N 264.58 -0.43555 -1.51462 0
M  V30 2798 C 265.528 0.391205 -2.29287 0
M  V30 2799 C 266.522 1.02247 -1.35062 0
M  V30 2800 O 267.728 0.957646 -1.52411 0
M  V30 2801 H 264.103 0.144968 -0.737895 0
M  V30 2802 H 266.074 -0.286051 -2.97026 0
M  V30 2803 C 264.823 1.48096 -3.14583 0
M  V30 2804 H 264.146 1.00457 -3.86973 0
M  V30 2805 H 265.586 2.03273 -3.72097 0
M  V30 2806 C 264.045 2.46321 -2.29843 0
M  V30 2807 O 264.575 3.50815 -1.95682 0
M  V30 2808 N 262.781 2.17166 -1.931 0
M  V30 2809 H 262.328 1.32218 -2.21079 0
M  V30 2810 H 262.286 2.83127 -1.36698 0
M  V30 2811 N 266.058 1.56714 -0.166846 0
M  V30 2812 C 266.968 2.21331 0.777791 0
M  V30 2813 C 267.984 1.20358 1.25658 0
M  V30 2814 O 269.16 1.53005 1.30964 0
M  V30 2815 C 266.225 2.83787 1.99163 0
M  V30 2816 C 265.286 3.99947 1.56016 0
M  V30 2817 C 264.519 4.59415 2.71613 0
M  V30 2818 O 264.742 4.17769 3.88362 0
M  V30 2819 O 263.676 5.49359 2.45945 0
M  V30 2820 H 267.502 3.02605 0.257636 0
M  V30 2821 H 265.087 1.49275 0.0611393 0
M  V30 2822 H 266.969 3.23405 2.70161 0
M  V30 2823 H 265.644 2.05513 2.50092 0
M  V30 2824 H 264.551 3.65007 0.819809 0
M  V30 2825 H 265.884 4.79801 1.09782 0
M  V30 2826 N 267.536 -0.106894 1.57237 0
M  V30 2827 C 268.782 -0.808678 1.86633 0
M  V30 2828 C 269.137 -1.76917 0.756178 0
M  V30 2829 O 268.43 -1.90055 -0.242834 0
M  V30 2830 C 268.624 -1.58628 3.20268 0
M  V30 2831 C 268.453 -0.702592 4.44178 0
M  V30 2832 C 267.223 -0.352808 5.04067 0
M  V30 2833 C 269.421 -0.0148031 5.14298 0
M  V30 2834 N 267.403 0.540279 6.11518 0
M  V30 2835 C 268.774 0.736809 6.15606 0
M  V30 2836 C 270.829 0.0603524 4.97863 0
M  V30 2837 C 269.532 1.55654 7.02257 0
M  V30 2838 C 271.558 0.866942 5.85011 0
M  V30 2839 C 270.92 1.60671 6.85831 0
M  V30 2840 H 267.019 -0.27246 0.733001 0
M  V30 2841 H 269.603 -0.0717858 1.94568 0
M  V30 2842 H 267.774 -2.29413 3.13408 0
M  V30 2843 H 269.506 -2.23434 3.3743 0
M  V30 2844 H 266.261 -0.697802 4.68431 0
M  V30 2845 H 266.685 0.979029 6.69884 0
M  V30 2846 H 271.327 -0.497236 4.19866 0
M  V30 2847 H 269.045 2.12524 7.79653 0
M  V30 2848 H 272.631 0.927612 5.74358 0
M  V30 2849 H 271.511 2.2208 7.52097 0
M  V30 2850 N 269.014 -1.53014 -0.377408 0
M  V30 2851 C 270.291 -1.59215 -1.13622 0
M  V30 2852 C 270.671 -0.392407 -2.07421 0
M  V30 2853 O 270.019 0.618342 -2.19975 0
M  V30 2854 C 270.229 -2.93669 -1.88573 0
M  V30 2855 C 271.577 -3.47822 -2.43526 0
M  V30 2856 O 272.601 -2.9562 -1.98715 0
M  V30 2857 O 271.46 -4.39055 -3.25412 0
M  V30 2858 H 268.554 -0.642625 -0.52054 0
M  V30 2859 H 271.1 -1.65353 -0.381625 0
M  V30 2860 H 269.872 -3.7243 -1.20048 0
M  V30 2861 H 269.495 -2.90968 -2.70968 0
M  V30 2862 N 270.492 0.636531 -1.44174 0
M  V30 2863 C 271.74 1.39343 -1.46383 0
M  V30 2864 C 272.061 1.94766 -0.0955715 0
M  V30 2865 O 271.331 1.75452 0.871395 0
M  V30 2866 H 269.911 0.517199 -0.538994 0
M  V30 2867 H 272.573 0.74957 -1.7991 0
M  V30 2868 H 271.669 2.22746 -2.18611 0
M  V30 2869 N 271.97 1.30982 0.876444 0
M  V30 2870 C 273.2 1.23063 1.65949 0
M  V30 2871 C 273.608 -0.207537 1.88058 0
M  V30 2872 O 272.951 -1.14781 1.43426 0
M  V30 2873 C 273.013 1.89768 3.05333 0
M  V30 2874 C 272.677 3.39106 3.0636 0
M  V30 2875 C 273.674 4.3496 2.84791 0
M  V30 2876 C 271.359 3.80693 3.27686 0
M  V30 2877 C 273.353 5.70375 2.84519 0
M  V30 2878 C 271.04 5.16223 3.27043 0
M  V30 2879 C 272.038 6.10875 3.05485 0
M  V30 2880 O 271.726 7.43928 3.04674 0
M  V30 2881 H 271.458 0.426685 0.524324 0
M  V30 2882 H 274.012 1.7329 1.10271 0
M  V30 2883 H 272.242 1.34082 3.6271 0
M  V30 2884 H 273.931 1.75853 3.65829 0
M  V30 2885 H 274.697 4.0416 2.68103 0
M  V30 2886 H 270.576 3.07457 3.43499 0
M  V30 2887 H 274.12 6.44228 2.67611 0
M  V30 2888 H 270.017 5.4666 3.43269 0
M  V30 2889 H 270.785 7.53022 3.2078 0
M  V30 2890 N 273.449 -1.08991 1.13837 0
M  V30 2891 C 274.865 -1.33312 0.877506 0
M  V30 2892 C 275.065 -1.95587 -0.48456 0
M  V30 2893 O 274.121 -2.20509 -1.23013 0
M  V30 2894 C 275.434 -2.24045 2.0056 0
M  V30 2895 C 276.982 -2.37542 2.03821 0
M  V30 2896 C 277.457 -3.31614 3.15905 0
M  V30 2897 N 278.948 -3.39189 3.15445 0
M  V30 2898 C 279.683 -4.11992 3.98811 0
M  V30 2899 N 279.179 -4.87553 4.92203 0
M  V30 2900 N 280.972 -4.07762 3.86894 0
M  V30 2901 H 273.123 -0.669456 2.01574 0
M  V30 2902 H 275.386 -0.357482 0.878015 0
M  V30 2903 H 275.092 -1.85521 2.98789 0
M  V30 2904 H 274.966 -3.24466 1.92359 0
M  V30 2905 H 277.353 -2.75327 1.06202 0
M  V30 2906 H 277.434 -1.36884 2.16093 0
M  V30 2907 H 277.078 -2.94551 4.13766 0
M  V30 2908 H 277.008 -4.32186 3.0087 0
M  V30 2909 H 279.499 -2.85314 2.47799 0
M  V30 2910 H 279.812 -5.40549 5.52292 0
M  V30 2911 H 278.157 -4.86627 4.96205 0
M  V30 2912 H 281.348 -3.47833 3.13257 0
M  V30 2913 H 281.521 -4.64238 4.52092 0
M  V30 2914 N 274.927 -0.932562 -1.27047 0
M  V30 2915 C 276.174 -0.575559 -1.94148 0
M  V30 2916 C 276.502 0.883984 -1.73251 0
M  V30 2917 O 275.757 1.64655 -1.0577 0
M  V30 2918 C 276.056 -0.853713 -3.47054 0
M  V30 2919 C 275.722 -2.29577 -3.88079 0
M  V30 2920 C 274.384 -2.68999 -3.9899 0
M  V30 2921 C 276.736 -3.23331 -4.08787 0
M  V30 2922 C 274.064 -4.01289 -4.28 0
M  V30 2923 C 276.416 -4.55207 -4.39282 0
M  V30 2924 C 275.08 -4.94457 -4.48407 0
M  V30 2925 H 274.35 -0.210612 -0.710439 0
M  V30 2926 H 276.997 -1.17744 -1.51025 0
M  V30 2927 H 275.302 -0.169204 -3.91434 0
M  V30 2928 H 276.999 -0.55639 -3.97121 0
M  V30 2929 H 273.589 -1.97994 -3.80127 0
M  V30 2930 H 277.773 -2.94074 -3.99793 0
M  V30 2931 H 273.029 -4.31374 -4.33275 0
M  V30 2932 H 277.203 -5.27852 -4.54252 0
M  V30 2933 H 274.83 -5.96994 -4.7064 0
M  V30 2934 N 276.405 1.4127 -0.698611 0
M  V30 2935 C 277.352 2.30773 -0.0352094 0
M  V30 2936 C 278.322 1.47273 0.768111 0
M  V30 2937 O 279.507 1.76053 0.735524 0
M  V30 2938 C 276.647 3.33346 0.893 0
M  V30 2939 C 275.76 4.31924 0.0809695 0
M  V30 2940 C 274.895 5.21566 1.0071 0
M  V30 2941 C 273.934 6.11811 0.188155 0
M  V30 2942 N 273.071 6.93926 1.06825 0
M  V30 2943 H 277.911 2.86943 -0.804207 0
M  V30 2944 H 275.448 1.4132 -0.408294 0
M  V30 2945 H 277.406 3.91368 1.44523 0
M  V30 2946 H 276.036 2.78719 1.62836 0
M  V30 2947 H 275.088 3.75825 -0.588224 0
M  V30 2948 H 276.4 4.95716 -0.553801 0
M  V30 2949 H 275.554 5.84437 1.62845 0
M  V30 2950 H 274.293 4.58008 1.67572 0
M  V30 2951 H 273.298 5.47986 -0.446254 0
M  V30 2952 H 274.523 6.77425 -0.476716 0
M  V30 2953 H 272.469 6.32973 1.72283 0
M  V30 2954 H 272.386 7.54416 0.489123 0
M  V30 2955 H 273.654 7.61262 1.67632 0
M  V30 2956 N 277.883 0.443576 1.51229 0
M  V30 2957 C 279.132 -0.122332 2.01329 0
M  V30 2958 C 279.445 -1.43237 1.33201 0
M  V30 2959 O 280.651 -2.0816 1.74304 0
M  V30 2960 C 279.107 -0.268551 3.58897 0
M  V30 2961 C 278.715 1.03142 4.35965 0
M  V30 2962 C 280.459 -0.787894 4.17124 0
M  V30 2963 C 278.366 0.850504 5.85252 0
M  V30 2964 H 277.296 -0.0494929 0.752374 0
M  V30 2965 H 279.947 0.574289 1.74282 0
M  V30 2966 H 278.329 -1.02832 3.82415 0
M  V30 2967 H 279.503 1.80001 4.24189 0
M  V30 2968 H 277.818 1.47977 3.89219 0
M  V30 2969 H 280.415 -0.939841 5.26375 0
M  V30 2970 H 280.758 -1.77201 3.76703 0
M  V30 2971 H 281.291 -0.0862669 3.97706 0
M  V30 2972 H 278.03 1.80718 6.30096 0
M  V30 2973 H 277.55 0.121825 5.99676 0
M  V30 2974 H 279.229 0.506163 6.45017 0
M  V30 2975 N 279.361 -1.56624 0.175154 0
M  V30 2976 C 280.308 -2.18149 -0.753634 0
M  V30 2977 C 281.278 -1.12265 -1.22417 0
M  V30 2978 O 282.463 -1.40432 -1.29165 0
M  V30 2979 C 279.603 -2.82933 -1.97592 0
M  V30 2980 C 278.716 -4.03289 -1.5486 0
M  V30 2981 C 277.851 -4.55988 -2.72485 0
M  V30 2982 C 276.89 -5.68746 -2.26262 0
M  V30 2983 N 276.027 -6.15938 -3.36994 0
M  V30 2984 H 280.867 -2.9717 -0.222195 0
M  V30 2985 H 278.404 -1.46774 -0.0979422 0
M  V30 2986 H 280.362 -3.18653 -2.69288 0
M  V30 2987 H 278.992 -2.06509 -2.481 0
M  V30 2988 H 278.044 -3.73364 -0.728246 0
M  V30 2989 H 279.356 -4.849 -1.16933 0
M  V30 2990 H 278.51 -4.9391 -3.52332 0
M  V30 2991 H 277.249 -3.73443 -3.13674 0
M  V30 2992 H 276.254 -5.30372 -1.44863 0
M  V30 2993 H 277.479 -6.53095 -1.86127 0
M  V30 2994 H 275.425 -5.36321 -3.77751 0
M  V30 2995 H 275.342 -6.92548 -3.03172 0
M  V30 2996 H 276.61 -6.58511 -4.17114 0
M  V30 2997 N 280.839 0.0985539 -1.57292 0
M  V30 2998 C 282.069 0.815135 -1.8984 0
M  V30 2999 C 282.477 1.7297 -0.766679 0
M  V30 3000 O 281.82 1.81698 0.270483 0
M  V30 3001 C 281.882 1.6842 -3.17608 0
M  V30 3002 C 281.546 0.94182 -4.4719 0
M  V30 3003 C 282.543 0.273212 -5.19182 0
M  V30 3004 C 280.228 0.916927 -4.9386 0
M  V30 3005 C 282.222 -0.410361 -6.36078 0
M  V30 3006 C 279.909 0.229567 -6.10669 0
M  V30 3007 C 280.907 -0.432902 -6.81627 0
M  V30 3008 O 280.595 -1.10925 -7.9621 0
M  V30 3009 H 280.327 0.238501 -0.632529 0
M  V30 3010 H 282.881 0.0812659 -2.05239 0
M  V30 3011 H 281.111 2.46022 -2.98345 0
M  V30 3012 H 282.8 2.27704 -3.36015 0
M  V30 3013 H 283.566 0.283927 -4.84168 0
M  V30 3014 H 279.445 1.42201 -4.3852 0
M  V30 3015 H 282.989 -0.928013 -6.914 0
M  V30 3016 H 278.886 0.216686 -6.45136 0
M  V30 3017 H 279.654 -1.01579 -8.12172 0
M  V30 3018 N 282.317 1.53212 0.369288 0
M  V30 3019 C 283.564 1.69215 1.11232 0
M  V30 3020 C 283.892 0.442048 1.8941 0
M  V30 3021 O 283.147 -0.575944 1.87033 0
M  V30 3022 C 283.446 2.89101 2.10132 0
M  V30 3023 C 283.112 4.25758 1.48463 0
M  V30 3024 C 281.774 4.6292 1.31372 0
M  V30 3025 C 284.126 5.10757 1.03811 0
M  V30 3026 C 281.454 5.82722 0.68207 0
M  V30 3027 C 283.806 6.31201 0.420487 0
M  V30 3028 C 282.47 6.67079 0.237038 0
M  V30 3029 H 281.74 0.619201 0.407027 0
M  V30 3030 H 284.387 1.87391 0.394552 0
M  V30 3031 H 282.692 2.65421 2.88199 0
M  V30 3032 H 284.389 2.98676 2.6757 0
M  V30 3033 H 280.979 3.96494 1.62758 0
M  V30 3034 H 285.163 4.82599 1.1581 0
M  V30 3035 H 280.419 6.09113 0.528316 0
M  V30 3036 H 284.593 6.96368 0.0662874 0
M  V30 3037 H 282.22 7.59774 -0.254477 0
M  V30 3038 N 283.795 -0.628877 1.44509 0
M  V30 3039 C 285.041 -1.39045 1.47629 0
M  V30 3040 C 285.374 -1.93892 0.109343 0
M  V30 3041 O 284.649 -1.7379 -0.87334 0
M  V30 3042 C 284.932 -2.55408 2.53848 0
M  V30 3043 C 284.785 -2.05896 3.99909 0
M  V30 3044 C 286.104 -3.5759 2.56549 0
M  V30 3045 H 283.223 -0.504232 0.537512 0
M  V30 3046 H 285.865 -0.710854 1.76201 0
M  V30 3047 H 284.015 -3.13384 2.29615 0
M  V30 3048 H 285.687 -1.52734 4.35282 0
M  V30 3049 H 283.93 -1.37061 4.11578 0
M  V30 3050 H 284.601 -2.89681 4.69882 0
M  V30 3051 H 287.077 -3.09419 2.78207 0
M  V30 3052 H 285.953 -4.36527 3.32769 0
M  V30 3053 H 286.214 -4.11808 1.60832 0
M  V30 3054 N 285.273 -1.31445 -0.869486 0
M  V30 3055 C 286.684 -1.19042 -1.43826 0
M  V30 3056 C 287.035 0.202919 -1.95148 0
M  V30 3057 O 286.16 1.10071 -1.86315 0
M  V30 3058 C 286.755 -2.15499 -2.6143 0
M  V30 3059 C 285.314 -2.07028 -3.14351 0
M  V30 3060 C 284.461 -2.04701 -1.87063 0
M  V30 3061 H 287.412 -1.43489 -0.677984 0
M  V30 3062 H 287.433 -1.74488 -3.38134 0
M  V30 3063 H 286.945 -3.16899 -2.24046 0
M  V30 3064 H 285.046 -1.08825 -3.56354 0
M  V30 3065 H 285.159 -2.96157 -3.766 0
M  V30 3066 H 283.523 -1.49724 -2.06046 0
M  V30 3067 H 284.306 -3.07857 -1.51917 0
M  V30 3068 N 286.751 1.08385 -1.14413 0
M  V30 3069 C 288 1.80153 -0.907076 0
M  V30 3070 C 288.313 1.87176 0.567851 0
M  V30 3071 O 289.519 2.55359 0.922172 0
M  V30 3072 C 287.975 3.23687 -1.57336 0
M  V30 3073 C 287.583 3.24897 -3.08457 0
M  V30 3074 C 289.327 4.00136 -1.41744 0
M  V30 3075 C 287.234 4.6302 -3.67921 0
M  V30 3076 H 286.164 0.675139 -0.335714 0
M  V30 3077 H 288.815 1.21733 -1.37307 0
M  V30 3078 H 287.197 3.82234 -1.03505 0
M  V30 3079 H 288.371 2.76055 -3.68958 0
M  V30 3080 H 286.686 2.61943 -3.2369 0
M  V30 3081 H 289.283 5.02201 -1.83572 0
M  V30 3082 H 289.626 4.14709 -0.363576 0
M  V30 3083 H 290.159 3.48058 -1.92614 0
M  V30 3084 H 286.898 4.5365 -4.73161 0
M  V30 3085 H 286.418 5.12143 -3.12201 0
M  V30 3086 H 288.097 5.31994 -3.68227 0
M  V30 3087 N 288.23 0.939286 1.26551 0
M  V30 3088 C 289.458 0.602536 1.97932 0
M  V30 3089 C 289.873 -0.82206 1.69964 0
M  V30 3090 O 289.23 -1.54789 0.966784 0
M  V30 3091 C 289.281 0.832946 3.51773 0
M  V30 3092 O 289.002 2.20151 3.78768 0
M  V30 3093 C 290.503 0.506483 4.40397 0
M  V30 3094 H 287.723 0.227248 0.631347 0
M  V30 3095 H 290.267 1.25948 1.61113 0
M  V30 3096 H 288.422 0.222644 3.8676 0
M  V30 3097 H 288.836 2.26013 4.73306 0
M  V30 3098 H 290.31 0.718333 5.47306 0
M  V30 3099 H 290.787 -0.558451 4.35635 0
M  V30 3100 H 291.393 1.09543 4.10951 0
M  V30 3101 N 289.708 -1.40897 0.706093 0
M  V30 3102 C 290.985 -1.94868 0.169099 0
M  V30 3103 C 291.365 -1.64485 -1.32318 0
M  V30 3104 O 290.713 -0.95744 -2.07474 0
M  V30 3105 C 290.923 -3.45798 0.471654 0
M  V30 3106 C 292.271 -4.22663 0.405127 0
M  V30 3107 O 293.295 -3.53865 0.407168 0
M  V30 3108 O 292.154 -5.45216 0.374383 0
M  V30 3109 H 289.248 -0.82673 0.0211352 0
M  V30 3110 H 291.794 -1.50558 0.782976 0
M  V30 3111 H 290.566 -3.61235 1.50416 0
M  V30 3112 H 290.189 -3.97225 -0.172666 0
M  V30 3113 N 291.186 -0.45159 -1.50991 0
M  V30 3114 C 292.116 0.342898 -2.30969 0
M  V30 3115 C 293.097 1.00815 -1.37005 0
M  V30 3116 O 294.282 1.00907 -1.65926 0
M  V30 3117 C 291.412 1.43637 -3.16205 0
M  V30 3118 C 290.366 0.893818 -4.18563 0
M  V30 3119 C 289.692 2.08411 -4.92411 0
M  V30 3120 C 290.992 -0.0815568 -5.22236 0
M  V30 3121 H 292.686 -0.324556 -2.97636 0
M  V30 3122 H 290.232 -0.157531 -1.43136 0
M  V30 3123 H 292.185 1.9995 -3.70942 0
M  V30 3124 H 290.909 2.13232 -2.47386 0
M  V30 3125 H 289.568 0.352798 -3.64898 0
M  V30 3126 H 289.216 2.76658 -4.20082 0
M  V30 3127 H 288.916 1.72741 -5.61636 0
M  V30 3128 H 290.44 2.65251 -5.49976 0
M  V30 3129 H 291.854 0.391742 -5.7196 0
M  V30 3130 H 290.251 -0.351551 -5.99069 0
M  V30 3131 H 291.321 -1.01374 -4.74185 0
M  V30 3132 N 292.664 1.56529 -0.183458 0
M  V30 3133 C 293.91 1.98304 0.452466 0
M  V30 3134 C 294.265 1.06799 1.60037 0
M  V30 3135 O 293.558 0.110049 1.91284 0
M  V30 3136 C 293.752 3.43939 0.971637 0
M  V30 3137 C 293.581 4.49528 -0.124425 0
M  V30 3138 C 292.351 5.01981 -0.578168 0
M  V30 3139 C 294.549 5.05836 -0.929207 0
M  V30 3140 N 292.531 5.91219 -1.65327 0
M  V30 3141 C 293.902 5.91632 -1.85396 0
M  V30 3142 C 295.957 4.88302 -0.972929 0
M  V30 3143 C 294.66 6.61768 -2.81878 0
M  V30 3144 C 296.686 5.59168 -1.92574 0
M  V30 3145 C 296.048 6.44701 -2.83795 0
M  V30 3146 H 292.147 0.770551 0.133324 0
M  V30 3147 H 294.731 1.92581 -0.286473 0
M  V30 3148 H 292.902 3.50184 1.68006 0
M  V30 3149 H 294.634 3.72702 1.5772 0
M  V30 3150 H 291.389 4.73282 -0.173639 0
M  V30 3151 H 291.813 6.40543 -2.19167 0
M  V30 3152 H 296.455 4.21861 -0.28168 0
M  V30 3153 H 294.173 7.27415 -3.51984 0
M  V30 3154 H 297.759 5.47582 -1.96583 0
M  V30 3155 H 296.639 6.98573 -3.56322 0
M  V30 3156 N 294.142 -0.090211 1.57342 0
M  V30 3157 C 295.39 -0.791241 1.85967 0
M  V30 3158 C 295.711 -1.7903 0.772859 0
M  V30 3159 O 294.981 -1.94872 -0.200398 0
M  V30 3160 H 293.561 -0.295205 0.686195 0
M  V30 3161 H 296.223 -0.0706782 1.94772 0
M  V30 3162 H 295.319 -1.31882 2.82867 0
M  V30 3163 N 295.62 -1.53406 -0.361157 0
M  V30 3164 C 296.868 -1.69467 -1.10115 0
M  V30 3165 C 297.189 -0.451352 -1.89705 0
M  V30 3166 O 296.459 0.534636 -1.88463 0
M  V30 3167 H 295.039 -0.624749 -0.409508 0
M  V30 3168 H 297.701 -1.90609 -0.406699 0
M  V30 3169 H 296.797 -2.55774 -1.78847 0
M  V30 3170 N 297.098 0.621204 -1.44841 0
M  V30 3171 C 298.03 1.74615 -1.48466 0
M  V30 3172 C 299.043 1.58377 -0.37691 0
M  V30 3173 O 300.232 1.66508 -0.643215 0
M  V30 3174 C 297.332 3.12459 -1.31236 0
M  V30 3175 C 296.505 3.55064 -2.55438 0
M  V30 3176 C 295.564 4.71821 -2.32963 0
M  V30 3177 O 294.59 4.79628 -3.06505 0
M  V30 3178 N 295.792 5.64186 -1.36654 0
M  V30 3179 H 298.557 1.71973 -2.45449 0
M  V30 3180 H 296.118 0.806077 -1.40407 0
M  V30 3181 H 298.11 3.88302 -1.14032 0
M  V30 3182 H 296.68 3.09686 -0.4258 0
M  V30 3183 H 295.9 2.69324 -2.87851 0
M  V30 3184 H 297.188 3.80284 -3.38026 0
M  V30 3185 H 296.586 5.6058 -0.759344 0
M  V30 3186 H 295.143 6.39618 -1.25425 0
M  V30 3187 N 298.576 1.31904 0.862503 0
M  V30 3188 C 299.506 1.22782 1.98612 0
M  V30 3189 C 300.487 0.113362 1.69722 0
M  V30 3190 O 301.672 0.299218 1.91881 0
M  V30 3191 C 298.802 0.942058 3.34279 0
M  V30 3192 C 297.756 2.0169 3.77499 0
M  V30 3193 C 297.082 1.58369 5.10709 0
M  V30 3194 C 298.382 3.43096 3.93805 0
M  V30 3195 H 300.076 2.16788 2.06502 0
M  V30 3196 H 297.622 1.04366 0.992154 0
M  V30 3197 H 299.575 0.864818 4.1243 0
M  V30 3198 H 298.299 -0.0336603 3.26583 0
M  V30 3199 H 296.958 2.08416 3.01593 0
M  V30 3200 H 296.606 0.595628 4.99461 0
M  V30 3201 H 296.306 2.30279 5.40597 0
M  V30 3202 H 297.83 1.52067 5.91361 0
M  V30 3203 H 299.244 3.39003 4.62331 0
M  V30 3204 H 297.641 4.13288 4.35101 0
M  V30 3205 H 298.711 3.83334 2.96957 0
M  V30 3206 N 300.054 -1.07777 1.14986 0
M  V30 3207 C 301.279 -1.84558 0.946213 0
M  V30 3208 C 301.704 -1.81323 -0.500362 0
M  V30 3209 O 301.062 -1.20301 -1.35637 0
M  V30 3210 C 301.11 -3.29736 1.45968 0
M  V30 3211 O 300.214 -4.07149 0.65601 0
M  V30 3212 H 299.555 -0.571641 0.33782 0
M  V30 3213 H 302.085 -1.35991 1.52865 0
M  V30 3214 H 302.095 -3.80574 1.47063 0
M  V30 3215 H 300.77 -3.31406 2.51283 0
M  V30 3216 H 299.347 -3.65994 0.714322 0
M  V30 3217 N 301.532 -0.945985 -1.26051 0
M  V30 3218 C 302.762 -0.612136 -1.97323 0
M  V30 3219 C 303.17 0.818171 -1.70595 0
M  V30 3220 O 302.513 1.55777 -0.973613 0
M  V30 3221 C 302.575 -0.780347 -3.50929 0
M  V30 3222 C 302.239 -2.18619 -4.01317 0
M  V30 3223 C 303.236 -3.16209 -4.12683 0
M  V30 3224 C 300.921 -2.50805 -4.35203 0
M  V30 3225 C 302.915 -4.44085 -4.57238 0
M  V30 3226 C 300.602 -3.78912 -4.79446 0
M  V30 3227 C 301.6 -4.75365 -4.90425 0
M  V30 3228 O 301.288 -6.01191 -5.3369 0
M  V30 3229 H 301.02 -0.229134 -0.635982 0
M  V30 3230 H 303.574 -1.27036 -1.61404 0
M  V30 3231 H 301.804 -0.0649864 -3.86645 0
M  V30 3232 H 303.493 -0.448842 -4.03411 0
M  V30 3233 H 304.259 -2.92668 -3.86744 0
M  V30 3234 H 300.138 -1.76463 -4.2589 0
M  V30 3235 H 303.682 -5.19373 -4.65723 0
M  V30 3236 H 299.579 -4.02265 -5.0483 0
M  V30 3237 H 300.347 -6.04442 -5.51899 0
M  V30 3238 N 303.011 1.40521 -0.713556 0
M  V30 3239 C 304.26 2.00155 -0.249192 0
M  V30 3240 C 304.573 1.57224 1.16362 0
M  V30 3241 O 305.779 2.09542 1.72639 0
M  V30 3242 C 304.235 3.5773 -0.3946 0
M  V30 3243 C 303.843 4.09635 -1.81392 0
M  V30 3244 C 305.587 4.24499 0.00907364 0
M  V30 3245 C 303.494 5.59707 -1.91003 0
M  V30 3246 H 302.424 0.74868 -0.0894114 0
M  V30 3247 H 305.075 1.60784 -0.884352 0
M  V30 3248 H 303.457 3.94792 0.30911 0
M  V30 3249 H 304.631 3.83955 -2.54785 0
M  V30 3250 H 302.946 3.55456 -2.16888 0
M  V30 3251 H 305.543 5.34683 -0.0420404 0
M  V30 3252 H 305.886 4.02824 1.05065 0
M  V30 3253 H 306.419 3.92536 -0.645007 0
M  V30 3254 H 303.158 5.86234 -2.93275 0
M  V30 3255 H 302.678 5.87258 -1.22019 0
M  V30 3256 H 304.357 6.24776 -1.6812 0
M  V30 3257 N 304.489 0.459591 1.5075 0
M  V30 3258 C 305.737 -0.0991532 2.01857 0
M  V30 3259 C 306.058 -1.41247 1.34441 0
M  V30 3260 O 305.328 -1.89775 0.486022 0
M  V30 3261 H 303.908 -0.039633 0.745948 0
M  V30 3262 H 306.57 0.607387 1.85194 0
M  V30 3263 H 305.666 -0.258998 3.11023 0
M  V30 3264 N 305.967 -1.56429 0.191757 0
M  V30 3265 C 307.214 -1.97485 -0.447891 0
M  V30 3266 C 307.542 -1.07852 -1.61859 0
M  V30 3267 O 306.797 -0.116903 -1.95351 0
M  V30 3268 C 307.096 -3.44449 -0.953384 0
M  V30 3269 C 306.762 -4.50781 0.103586 0
M  V30 3270 C 305.424 -4.79584 0.394023 0
M  V30 3271 C 307.776 -5.1471 0.819946 0
M  V30 3272 C 305.104 -5.69607 1.40585 0
M  V30 3273 C 307.456 -6.05827 1.8209 0
M  V30 3274 C 306.12 -6.32987 2.11857 0
M  V30 3275 H 305.39 -0.722648 -0.163895 0
M  V30 3276 H 308.037 -1.89322 0.28802 0
M  V30 3277 H 306.342 -3.49666 -1.76751 0
M  V30 3278 H 308.039 -3.73569 -1.45765 0
M  V30 3279 H 304.629 -4.28394 -0.132951 0
M  V30 3280 H 308.813 -4.92552 0.608789 0
M  V30 3281 H 304.069 -5.88926 1.64243 0
M  V30 3282 H 308.243 -6.54424 2.38123 0
M  V30 3283 H 305.87 -7.02544 2.90407 0
M  V30 3284 N 307.445 0.0818655 -1.57387 0
M  V30 3285 C 308.673 0.796108 -1.9097 0
M  V30 3286 C 309.088 1.71626 -0.786757 0
M  V30 3287 O 308.445 1.80908 0.240513 0
M  V30 3288 C 308.496 1.59829 -3.24248 0
M  V30 3289 O 308.217 0.715131 -4.32224 0
M  V30 3290 C 309.718 2.41442 -3.7178 0
M  V30 3291 H 306.938 0.22691 -0.631469 0
M  V30 3292 H 309.482 0.0551439 -2.04426 0
M  V30 3293 H 307.637 2.29163 -3.12351 0
M  V30 3294 H 308.051 1.27205 -5.08841 0
M  V30 3295 H 309.525 2.932 -4.67694 0
M  V30 3296 H 310.002 3.2051 -3.00283 0
M  V30 3297 H 310.608 1.77283 -3.86589 0
M  V30 3298 N 308.923 1.53595 0.353017 0
M  V30 3299 C 309.871 1.81605 1.45335 0
M  V30 3300 C 310.865 0.685923 1.54892 0
M  V30 3301 O 312.071 0.869095 1.57628 0
M  V30 3302 H 308.446 0.575204 0.484401 0
M  V30 3303 H 310.417 2.73679 1.18921 0
M  V30 3304 C 309.166 2.03406 2.81995 0
M  V30 3305 H 308.489 2.89814 2.75405 0
M  V30 3306 H 309.929 2.26975 3.58132 0
M  V30 3307 C 308.388 0.816794 3.26849 0
M  V30 3308 O 308.918 0.0115856 4.01698 0
M  V30 3309 N 307.124 0.636682 2.8354 0
M  V30 3310 H 306.671 1.2931 2.22793 0
M  V30 3311 H 306.629 -0.176336 3.13905 0
M  V30 3312 N 310.401 -0.613514 1.45168 0
M  V30 3313 C 311.648 -1.37268 1.48875 0
M  V30 3314 C 311.976 -1.94077 0.128161 0
M  V30 3315 O 311.231 -1.75178 -0.872416 0
M  V30 3316 C 311.53 -2.54347 2.51083 0
M  V30 3317 C 311.196 -2.1572 3.95949 0
M  V30 3318 C 309.858 -2.04899 4.35396 0
M  V30 3319 C 312.21 -1.85485 4.87078 0
M  V30 3320 C 309.538 -1.62057 5.63875 0
M  V30 3321 C 311.89 -1.4413 6.15962 0
M  V30 3322 C 310.554 -1.31863 6.54346 0
M  V30 3323 H 309.824 -0.502299 0.544773 0
M  V30 3324 H 312.471 -0.694021 1.78481 0
M  V30 3325 H 310.776 -3.27524 2.15024 0
M  V30 3326 H 312.473 -3.12577 2.51191 0
M  V30 3327 H 309.063 -2.25066 3.64751 0
M  V30 3328 H 313.247 -1.92745 4.57343 0
M  V30 3329 H 308.503 -1.51177 5.92415 0
M  V30 3330 H 312.677 -1.19778 6.86022 0
M  V30 3331 H 310.304 -0.984392 7.538 0
M  V30 3332 N 311.879 -1.3236 -0.855495 0
M  V30 3333 C 313.156 -1.13491 -1.59309 0
M  V30 3334 C 313.536 0.30503 -2.08885 0
M  V30 3335 O 312.884 1.30151 -1.87811 0
M  V30 3336 C 313.094 -2.16176 -2.73987 0
M  V30 3337 C 314.442 -2.49463 -3.43589 0
M  V30 3338 O 315.466 -2.14715 -2.84211 0
M  V30 3339 O 314.325 -3.09027 -4.50738 0
M  V30 3340 H 311.419 -0.437887 -0.701559 0
M  V30 3341 H 313.965 -1.43887 -0.899696 0
M  V30 3342 H 312.737 -3.1297 -2.34873 0
M  V30 3343 H 312.36 -1.86769 -3.51003 0
M  V30 3344 N 313.357 1.07166 -1.15556 0
M  V30 3345 C 314.603 1.80222 -0.942961 0
M  V30 3346 C 314.958 1.85121 0.524209 0
M  V30 3347 O 314.251 1.32531 1.38369 0
M  V30 3348 C 314.445 3.24707 -1.49332 0
M  V30 3349 C 314.274 3.33887 -3.01247 0
M  V30 3350 C 313.044 3.44337 -3.69811 0
M  V30 3351 C 315.242 3.24484 -3.99017 0
M  V30 3352 N 313.224 3.42439 -5.09518 0
M  V30 3353 C 314.595 3.29726 -5.25053 0
M  V30 3354 C 316.65 3.08307 -3.90962 0
M  V30 3355 C 315.353 3.20455 -6.43973 0
M  V30 3356 C 317.379 3.00371 -5.09442 0
M  V30 3357 C 316.741 3.06227 -6.34354 0
M  V30 3358 H 312.84 0.672709 -0.398731 0
M  V30 3359 H 315.424 1.27905 -1.46794 0
M  V30 3360 H 313.595 3.7544 -0.994946 0
M  V30 3361 H 315.327 3.85894 -1.21935 0
M  V30 3362 H 312.082 3.48762 -3.20409 0
M  V30 3363 H 312.506 3.45013 -5.8249 0
M  V30 3364 H 317.148 3.02633 -2.95251 0
M  V30 3365 H 314.866 3.24888 -7.39914 0
M  V30 3366 H 318.452 2.88955 -5.04971 0
M  V30 3367 H 317.332 3.00132 -7.24493 0
M  V30 3368 N 314.835 0.952656 1.25548 0
M  V30 3369 C 316.083 0.605176 1.92826 0
M  V30 3370 C 316.404 -0.860261 1.74999 0
M  V30 3371 O 315.674 -1.6125 1.11244 0
M  V30 3372 H 314.254 0.220832 0.713612 0
M  V30 3373 H 316.916 1.21047 1.52754 0
M  V30 3374 H 316.012 0.832798 3.00784 0
M  V30 3375 N 316.313 -1.40141 0.720998 0
M  V30 3376 C 317.538 -2.05618 0.271258 0
M  V30 3377 C 317.963 -1.53978 -1.08039 0
M  V30 3378 O 317.321 -0.677463 -1.68167 0
M  V30 3379 C 317.369 -3.59609 0.267197 0
M  V30 3380 O 316.473 -4.05526 -0.749814 0
M  V30 3381 H 315.814 -0.651904 0.126162 0
M  V30 3382 H 318.344 -1.79439 0.982997 0
M  V30 3383 H 318.354 -4.0786 0.106744 0
M  V30 3384 H 317.029 -3.96559 1.25354 0
M  V30 3385 H 315.606 -3.68722 -0.556644 0
M  V30 3386 N 317.792 -0.46758 -1.50504 0
M  V30 3387 C 319.069 0.15003 -1.95024 0
M  V30 3388 C 319.449 1.57304 -1.40779 0
M  V30 3389 O 318.797 2.20281 -0.607319 0
M  V30 3390 C 319.007 0.0969324 -3.48865 0
M  V30 3391 C 320.355 0.287565 -4.23625 0
M  V30 3392 O 321.379 0.173678 -3.55776 0
M  V30 3393 O 320.238 0.517186 -5.44047 0
M  V30 3394 H 317.332 0.113582 -0.819163 0
M  V30 3395 H 319.878 -0.52773 -1.61286 0
M  V30 3396 H 318.65 -0.896732 -3.80886 0
M  V30 3397 H 318.273 0.816303 -3.8913 0
M  V30 3398 N 319.27 1.56325 -0.20005 0
M  V30 3399 C 320.2 2.22318 0.713916 0
M  V30 3400 C 321.181 1.18788 1.21752 0
M  V30 3401 O 322.366 1.47309 1.26545 0
M  V30 3402 C 319.496 2.88639 1.93144 0
M  V30 3403 C 318.45 3.98457 1.56255 0
M  V30 3404 C 317.776 4.51967 2.85709 0
M  V30 3405 C 319.076 5.16612 0.768747 0
M  V30 3406 H 320.77 2.98952 0.163755 0
M  V30 3407 H 318.316 1.43792 0.0773219 0
M  V30 3408 H 320.269 3.33491 2.57608 0
M  V30 3409 H 318.993 2.09419 2.50621 0
M  V30 3410 H 317.652 3.54305 0.941471 0
M  V30 3411 H 317.3 3.69503 3.41287 0
M  V30 3412 H 317 5.26071 2.6177 0
M  V30 3413 H 318.524 4.99523 3.51154 0
M  V30 3414 H 319.938 5.57977 1.3166 0
M  V30 3415 H 318.335 5.96812 0.627286 0
M  V30 3416 H 319.405 4.84358 -0.229168 0
M  V30 3417 N 320.748 -0.0735177 1.57428 0
M  V30 3418 C 321.996 -0.771472 1.86796 0
M  V30 3419 C 322.317 -1.78201 0.791804 0
M  V30 3420 O 321.587 -1.95074 -0.179718 0
M  V30 3421 H 320.167 -0.28791 0.689287 0
M  V30 3422 H 322.829 -0.0500161 1.94836 0
M  V30 3423 H 321.925 -1.28874 2.8425 0
M  V30 3424 N 322.226 -1.5378 -0.344866 0
M  V30 3425 C 323.503 -1.61589 -1.10219 0
M  V30 3426 C 323.883 -0.436316 -2.06542 0
M  V30 3427 O 323.231 0.571543 -2.21237 0
M  V30 3428 C 323.441 -2.97602 -1.82301 0
M  V30 3429 C 324.789 -3.5291 -2.36093 0
M  V30 3430 O 325.813 -2.99768 -1.924 0
M  V30 3431 O 324.672 -4.45859 -3.16026 0
M  V30 3432 H 321.766 -0.653522 -0.506792 0
M  V30 3433 H 324.312 -1.66126 -0.346465 0
M  V30 3434 H 323.084 -3.74893 -1.12121 0
M  V30 3435 H 322.707 -2.9665 -2.64735 0
M  V30 3436 N 323.704 0.605807 -1.45491 0
M  V30 3437 C 324.981 1.36522 -1.40075 0
M  V30 3438 C 325.361 2.10976 -0.0722744 0
M  V30 3439 O 324.709 2.08007 0.945808 0
M  V30 3440 C 324.919 2.31056 -2.61561 0
M  V30 3441 C 326.267 2.93608 -3.06724 0
M  V30 3442 O 327.291 2.41376 -2.61946 0
M  V30 3443 O 326.15 3.88421 -3.84437 0
M  V30 3444 H 323.244 0.612248 -0.555951 0
M  V30 3445 H 325.79 0.628747 -1.57623 0
M  V30 3446 H 324.562 1.75311 -3.49831 0
M  V30 3447 H 324.185 3.12081 -2.46356 0
M  V30 3448 N 325.182 1.32811 0.848464 0
M  V30 3449 C 326.407 1.26882 1.6406 0
M  V30 3450 C 326.832 -0.15913 1.87426 0
M  V30 3451 O 326.19 -1.11258 1.43148 0
M  V30 3452 C 326.238 2.03997 2.97351 0
M  V30 3453 O 325.342 1.39201 3.88197 0
M  V30 3454 H 324.683 0.436982 0.499943 0
M  V30 3455 H 327.213 1.75224 1.0563 0
M  V30 3456 H 327.223 2.14403 3.47124 0
M  V30 3457 H 325.898 3.0783 2.79666 0
M  V30 3458 H 324.475 1.37381 3.46671 0
M  V30 3459 N 326.66 -1.06551 1.16123 0
M  V30 3460 C 327.908 -1.78947 0.939267 0
M  V30 3461 C 328.229 -1.87532 -0.534476 0
M  V30 3462 O 327.499 -1.38211 -1.38833 0
M  V30 3463 H 326.079 -0.662807 0.344523 0
M  V30 3464 H 328.741 -1.28725 1.46342 0
M  V30 3465 H 327.837 -2.81117 1.35572 0
M  V30 3466 N 328.138 -0.959301 -1.25041 0
M  V30 3467 C 329.086 -0.474437 -2.2771 0
M  V30 3468 C 330.08 0.457697 -1.631 0
M  V30 3469 O 331.286 0.333912 -1.76876 0
M  V30 3470 H 327.661 -0.134936 -0.739795 0
M  V30 3471 H 329.632 -1.35251 -2.65988 0
M  V30 3472 C 328.381 0.227884 -3.46952 0
M  V30 3473 H 327.704 -0.480248 -3.96905 0
M  V30 3474 H 329.144 0.531091 -4.20661 0
M  V30 3475 C 327.603 1.452 -3.04004 0
M  V30 3476 O 328.133 2.54949 -3.10426 0
M  V30 3477 N 326.339 1.31502 -2.59144 0
M  V30 3478 H 325.886 0.422065 -2.54119 0
M  V30 3479 H 325.844 2.13521 -2.30773 0
M  V30 3480 N 329.616 1.39756 -0.72842 0
M  V30 3481 C 330.579 2.29012 -0.0927297 0
M  V30 3482 C 331.579 1.45992 0.674025 0
M  V30 3483 O 332.769 1.66749 0.50402 0
M  V30 3484 C 329.901 3.29396 0.878137 0
M  V30 3485 H 331.094 2.86729 -0.879011 0
M  V30 3486 H 328.647 1.48293 -0.493847 0
M  V30 3487 H 329.382 2.76722 1.69101 0
M  V30 3488 H 329.167 3.907 0.331051 0
M  V30 3489 H 330.657 3.96199 1.3197 0
M  V30 3490 N 331.094 0.475555 1.50254 0
M  V30 3491 C 332.343 -0.0795996 2.01543 0
M  V30 3492 C 332.656 -1.4038 1.36209 0
M  V30 3493 O 333.862 -2.04415 1.7868 0
M  V30 3494 C 332.318 -0.192363 3.59386 0
M  V30 3495 C 331.926 1.12367 4.33679 0
M  V30 3496 C 333.67 -0.699238 4.18701 0
M  V30 3497 C 331.577 0.974453 5.83317 0
M  V30 3498 H 330.507 -0.0335228 0.753254 0
M  V30 3499 H 333.158 0.611128 1.73025 0
M  V30 3500 H 331.54 -0.946974 3.84511 0
M  V30 3501 H 332.714 1.88958 4.20276 0
M  V30 3502 H 331.029 1.562 3.85993 0
M  V30 3503 H 333.626 -0.827978 5.28251 0
M  V30 3504 H 333.969 -1.69171 3.80377 0
M  V30 3505 H 334.502 -0.00188807 3.978 0
M  V30 3506 H 331.241 1.94042 6.26121 0
M  V30 3507 H 330.761 0.248998 5.99283 0
M  V30 3508 H 332.44 0.642867 6.43798 0
M  V30 3509 N 332.573 -1.56217 0.208337 0
M  V30 3510 C 333.521 -2.21053 -0.723769 0
M  V30 3511 C 334.515 -1.18578 -1.20978 0
M  V30 3512 O 335.721 -1.36691 -1.17114 0
M  V30 3513 H 332.096 -0.708595 -0.251788 0
M  V30 3514 H 334.067 -2.98006 -0.153365 0
M  V30 3515 C 332.816 -2.89417 -1.927 0
M  V30 3516 H 332.139 -3.68019 -1.56212 0
M  V30 3517 H 333.579 -3.38201 -2.55727 0
M  V30 3518 C 332.038 -1.91166 -2.77411 0
M  V30 3519 O 332.568 -1.42026 -3.75754 0
M  V30 3520 N 330.774 -1.59105 -2.43175 0
M  V30 3521 H 330.321 -1.99259 -1.63259 0
M  V30 3522 H 330.279 -0.936255 -3.00136 0
M  V30 3523 N 334.051 0.0651679 -1.57465 0
M  V30 3524 C 335.299 0.761555 -1.87202 0
M  V30 3525 C 335.62 1.77778 -0.801243 0
M  V30 3526 O 334.89 1.95166 0.16937 0
M  V30 3527 H 333.47 0.284251 -0.690804 0
M  V30 3528 H 336.132 0.0396827 -1.9486 0
M  V30 3529 H 335.228 1.27365 -2.84929 0
M  V30 3530 N 335.529 1.53961 0.336706 0
M  V30 3531 C 336.778 1.70751 1.07363 0
M  V30 3532 C 337.091 0.481061 1.89592 0
M  V30 3533 O 338.297 0.530046 2.66276 0
M  V30 3534 C 336.753 3.01965 1.95818 0
M  V30 3535 C 336.361 4.31971 1.18764 0
M  V30 3536 C 338.105 3.28121 2.69327 0
M  V30 3537 C 336.012 5.54255 2.06289 0
M  V30 3538 H 334.942 0.636292 0.404535 0
M  V30 3539 H 337.593 1.80459 0.332681 0
M  V30 3540 H 335.975 2.86132 2.7376 0
M  V30 3541 H 337.149 4.5853 0.456849 0
M  V30 3542 H 335.464 4.12481 0.569946 0
M  V30 3543 H 338.061 4.16673 3.35094 0
M  V30 3544 H 338.404 2.45426 3.36261 0
M  V30 3545 H 338.937 3.44762 1.98454 0
M  V30 3546 H 335.676 6.39513 1.43885 0
M  V30 3547 H 335.196 5.31935 2.77138 0
M  V30 3548 H 336.875 5.90159 2.65182 0
M  V30 3549 N 337.007 -0.598083 1.45811 0
M  V30 3550 C 337.954 -1.7082 1.55207 0
M  V30 3551 C 338.924 -1.61278 0.39732 0
M  V30 3552 O 340.109 -1.80717 0.612038 0
M  V30 3553 C 337.249 -3.09144 1.53376 0
M  V30 3554 C 336.362 -3.29423 2.79472 0
M  V30 3555 C 335.497 -4.57907 2.69248 0
M  V30 3556 C 334.536 -4.71476 3.90354 0
M  V30 3557 N 333.673 -5.9127 3.78608 0
M  V30 3558 H 338.513 -1.62125 2.50039 0
M  V30 3559 H 336.05 -0.790389 1.24062 0
M  V30 3560 H 338.008 -3.89186 1.50301 0
M  V30 3561 H 336.638 -3.16773 0.620876 0
M  V30 3562 H 335.69 -2.43091 2.92594 0
M  V30 3563 H 337.002 -3.3532 3.69272 0
M  V30 3564 H 336.156 -5.46157 2.64192 0
M  V30 3565 H 334.895 -4.54423 1.77063 0
M  V30 3566 H 333.9 -3.81648 3.95759 0
M  V30 3567 H 335.125 -4.76751 4.83617 0
M  V30 3568 H 333.071 -5.88813 2.89199 0
M  V30 3569 H 332.988 -5.98369 4.6205 0
M  V30 3570 H 334.256 -6.81992 3.77501 0
M  V30 3571 N 338.485 -1.33259 -0.841409 0
M  V30 3572 C 339.713 -1.27605 -1.62864 0
M  V30 3573 C 340.128 0.153507 -1.88175 0
M  V30 3574 O 339.485 1.09485 -1.46011 0
M  V30 3575 C 339.536 -2.04596 -2.98031 0
M  V30 3576 O 339.257 -3.41975 -2.73834 0
M  V30 3577 C 340.758 -2.06122 -3.92465 0
M  V30 3578 H 337.978 -0.439718 -0.506842 0
M  V30 3579 H 340.522 -1.75591 -1.04824 0
M  V30 3580 H 338.677 -1.60299 -3.5268 0
M  V30 3581 H 339.091 -3.81549 -3.59889 0
M  V30 3582 H 340.565 -2.64451 -4.84531 0
M  V30 3583 H 341.042 -1.05083 -4.26444 0
M  V30 3584 H 341.648 -2.50427 -3.43753 0
M  V30 3585 N 339.963 1.05934 -1.16686 0
M  V30 3586 C 341.379 1.30938 -0.912542 0
M  V30 3587 C 341.579 1.96803 0.432533 0
M  V30 3588 O 340.635 2.23693 1.17123 0
M  V30 3589 C 341.948 2.18649 -2.06429 0
M  V30 3590 C 343.496 2.32055 -2.10047 0
M  V30 3591 C 343.971 3.23122 -3.24586 0
M  V30 3592 N 345.462 3.30706 -3.24327 0
M  V30 3593 C 346.197 4.01273 -4.09594 0
M  V30 3594 N 345.693 4.74332 -5.04956 0
M  V30 3595 N 347.486 3.97361 -3.97569 0
M  V30 3596 H 339.637 0.615777 -2.03278 0
M  V30 3597 H 341.9 0.334077 -0.887185 0
M  V30 3598 H 341.606 1.77534 -3.03603 0
M  V30 3599 H 341.48 3.19252 -2.00894 0
M  V30 3600 H 343.867 2.72415 -1.13464 0
M  V30 3601 H 343.948 1.31107 -2.19647 0
M  V30 3602 H 343.592 2.83477 -4.2143 0
M  V30 3603 H 343.522 4.24057 -3.12223 0
M  V30 3604 H 346.013 2.78644 -2.55276 0
M  V30 3605 H 346.326 5.25716 -5.6643 0
M  V30 3606 H 344.671 4.733 -5.08933 0
M  V30 3607 H 347.862 3.39405 -3.22369 0
M  V30 3608 H 348.035 4.52089 -4.64241 0
M  V30 3609 N 341.441 0.965919 1.2453 0
M  V30 3610 C 342.669 0.644385 1.96609 0
M  V30 3611 C 343.084 -0.785823 1.71669 0
M  V30 3612 O 342.441 -1.52703 0.999399 0
M  V30 3613 C 342.492 0.907375 3.49927 0
M  V30 3614 O 342.213 2.28136 3.74013 0
M  V30 3615 C 343.714 0.599784 4.39224 0
M  V30 3616 H 340.934 0.240588 0.626385 0
M  V30 3617 H 343.478 1.29337 1.58405 0
M  V30 3618 H 341.633 0.304631 3.862 0
M  V30 3619 H 342.047 2.36002 4.68405 0
M  V30 3620 H 343.521 0.834263 5.45659 0
M  V30 3621 H 343.998 -0.465921 4.36722 0
M  V30 3622 H 344.604 1.18235 4.08535 0
M  V30 3623 N 342.919 -1.39368 0.735821 0
M  V30 3624 C 343.867 -2.32443 0.0855131 0
M  V30 3625 C 344.861 -1.53104 -0.724954 0
M  V30 3626 O 346.067 -1.68762 -0.626047 0
M  V30 3627 H 342.442 -0.751948 0.00885257 0
M  V30 3628 H 344.413 -2.84916 0.886883 0
M  V30 3629 C 343.162 -3.38206 -0.806983 0
M  V30 3630 H 342.485 -3.99335 -0.19274 0
M  V30 3631 H 343.925 -4.05779 -1.2296 0
M  V30 3632 C 342.384 -2.75321 -1.94165 0
M  V30 3633 O 342.914 -2.63231 -3.03435 0
M  V30 3634 N 341.12 -2.33396 -1.73132 0
M  V30 3635 H 340.667 -2.4343 -0.842596 0
M  V30 3636 H 340.625 -1.91661 -2.49225 0
M  V30 3637 N 344.397 -0.483516 -1.5 0
M  V30 3638 C 345.345 0.318061 -2.30415 0
M  V30 3639 C 346.339 0.978988 -1.38247 0
M  V30 3640 O 347.545 0.908673 -1.55381 0
M  V30 3641 H 343.92 0.121419 -0.742133 0
M  V30 3642 H 345.891 -0.380403 -2.95965 0
M  V30 3643 C 344.64 1.38013 -3.19136 0
M  V30 3644 H 343.963 0.880952 -3.89973 0
M  V30 3645 H 345.403 1.91332 -3.78375 0
M  V30 3646 C 343.862 2.38884 -2.37563 0
M  V30 3647 O 344.392 3.44412 -2.06744 0
M  V30 3648 N 342.598 2.10912 -1.99911 0
M  V30 3649 H 342.145 1.25118 -2.25174 0
M  V30 3650 H 342.103 2.78635 -1.45636 0
M  V30 3651 N 345.875 1.56104 -0.216619 0
M  V30 3652 C 347.1 2.0301 0.424462 0
M  V30 3653 C 347.525 1.0955 1.52907 0
M  V30 3654 O 346.883 0.0827914 1.81111 0
M  V30 3655 C 346.931 3.4819 0.937883 0
M  V30 3656 O 346.035 3.57865 2.04955 0
M  V30 3657 H 345.376 0.656925 0.0966755 0
M  V30 3658 H 347.906 2.01859 -0.33381 0
M  V30 3659 H 347.916 3.88413 1.24897 0
M  V30 3660 H 346.591 4.15699 0.129387 0
M  V30 3661 H 345.168 3.29527 1.74546 0
M  V30 3662 N 347.353 -0.0568162 1.57498 0
M  V30 3663 C 348.602 -0.752001 1.87157 0
M  V30 3664 C 348.915 -1.77978 0.811375 0
M  V30 3665 O 350.121 -2.52559 0.996293 0
M  V30 3666 C 348.577 -1.38844 3.3204 0
M  V30 3667 C 348.185 -0.398456 4.46225 0
M  V30 3668 C 349.929 -2.06512 3.70882 0
M  V30 3669 C 347.836 -1.04166 5.82154 0
M  V30 3670 H 346.766 -0.28461 0.698222 0
M  V30 3671 H 349.417 -0.00561272 1.83499 0
M  V30 3672 H 347.799 -2.1836 3.30356 0
M  V30 3673 H 348.973 0.367977 4.59328 0
M  V30 3674 H 347.288 0.174592 4.16034 0
M  V30 3675 H 349.885 -2.55437 4.6974 0
M  V30 3676 H 350.228 -2.87117 3.01445 0
M  V30 3677 H 350.761 -1.33808 3.7462 0
M  V30 3678 H 347.5 -0.275614 6.5492 0
M  V30 3679 H 347.02 -1.7786 5.72823 0
M  V30 3680 H 348.699 -1.55715 6.27982 0
M  V30 3681 N 348.832 -1.54138 -0.328536 0
M  V30 3682 C 349.795 -1.82462 -1.38709 0
M  V30 3683 C 350.795 -0.696229 -1.44946 0
M  V30 3684 O 351.985 -0.964535 -1.4506 0
M  V30 3685 C 349.117 -1.98018 -2.77492 0
M  V30 3686 H 350.31 -2.77037 -1.14851 0
M  V30 3687 H 347.863 -1.45779 -0.563751 0
M  V30 3688 H 348.598 -1.05637 -3.06613 0
M  V30 3689 H 348.383 -2.80124 -2.74359 0
M  V30 3690 H 349.873 -2.21396 -3.54081 0
M  V30 3691 N 350.31 0.590341 -1.46126 0
M  V30 3692 C 351.535 1.37991 -1.54833 0
M  V30 3693 C 351.96 1.87163 -0.187506 0
M  V30 3694 O 351.318 1.61133 0.831008 0
M  V30 3695 C 351.366 2.54867 -2.55098 0
M  V30 3696 O 350.47 3.56061 -2.08073 0
M  V30 3697 H 349.811 0.411265 -0.521303 0
M  V30 3698 H 352.341 0.716819 -1.91632 0
M  V30 3699 H 352.351 3.01886 -2.74461 0
M  V30 3700 H 351.026 2.18429 -3.53923 0
M  V30 3701 H 349.603 3.15574 -1.98664 0
M  V30 3702 N 351.788 1.33704 0.83433 0
M  V30 3703 C 353.013 1.28615 1.62705 0
M  V30 3704 C 353.438 -0.139242 1.87584 0
M  V30 3705 O 352.796 -1.09734 1.4432 0
M  V30 3706 C 352.844 2.07139 2.95171 0
M  V30 3707 O 351.948 1.4331 3.86699 0
M  V30 3708 H 351.289 0.44226 0.49528 0
M  V30 3709 H 353.819 1.76335 1.03766 0
M  V30 3710 H 353.829 2.18073 3.44831 0
M  V30 3711 H 352.504 3.10779 2.76386 0
M  V30 3712 H 351.081 1.4105 3.45195 0
M  V30 3713 N 353.266 -1.05314 1.17247 0
M  V30 3714 C 354.216 -2.11313 0.856196 0
M  V30 3715 C 355.2 -1.60013 -0.168694 0
M  V30 3716 O 356.392 -1.76968 0.0335624 0
M  V30 3717 C 353.521 -3.41301 0.369917 0
M  V30 3718 C 352.607 -3.99401 1.42616 0
M  V30 3719 N 352.998 -4.31481 2.63928 0
M  V30 3720 C 351.296 -4.27126 1.28373 0
M  V30 3721 C 351.997 -4.77799 3.31787 0
M  V30 3722 N 350.973 -4.77843 2.59166 0
M  V30 3723 H 354.775 -2.33976 1.77856 0
M  V30 3724 H 352.289 -1.2295 1.06099 0
M  V30 3725 H 354.286 -4.16713 0.124897 0
M  V30 3726 H 352.946 -3.20072 -0.546253 0
M  V30 3727 H 353.957 -4.21519 3.00902 0
M  V30 3728 H 350.634 -4.15289 0.429111 0
M  V30 3729 H 352.024 -5.11743 4.35395 0
M  V30 3730 N 354.744 -0.972509 -1.24016 0
M  V30 3731 C 355.993 -0.632603 -1.91523 0
M  V30 3732 C 356.306 0.836641 -1.76804 0
M  V30 3733 O 357.512 1.28728 -2.39043 0
M  V30 3734 C 355.968 -1.08082 -3.43287 0
M  V30 3735 C 355.576 -2.57386 -3.66683 0
M  V30 3736 C 357.32 -0.814288 -4.16617 0
M  V30 3737 C 355.227 -2.95915 -5.12043 0
M  V30 3738 H 354.157 -0.232898 -0.717129 0
M  V30 3739 H 356.808 -1.17936 -1.40582 0
M  V30 3740 H 355.19 -0.462339 -3.93292 0
M  V30 3741 H 356.364 -3.24405 -3.27258 0
M  V30 3742 H 354.679 -2.81701 -3.06649 0
M  V30 3743 H 357.276 -1.0781 -5.23718 0
M  V30 3744 H 357.619 0.24955 -4.15551 0
M  V30 3745 H 358.152 -1.39397 -3.72577 0
M  V30 3746 H 354.891 -4.0139 -5.18234 0
M  V30 3747 H 354.411 -2.33584 -5.52448 0
M  V30 3748 H 356.09 -2.86086 -5.80314 0
M  V30 3749 N 356.222 1.38976 -0.743202 0
M  V30 3750 C 357.152 2.33171 -0.123873 0
M  V30 3751 C 358.133 1.54336 0.71516 0
M  V30 3752 O 359.318 1.82696 0.658467 0
M  V30 3753 C 356.448 3.38474 0.777978 0
M  V30 3754 C 355.402 4.27979 0.0424758 0
M  V30 3755 C 354.728 5.2405 1.06189 0
M  V30 3756 C 356.028 5.10155 -1.1198 0
M  V30 3757 H 357.722 2.85213 -0.910709 0
M  V30 3758 H 355.268 1.37133 -0.439388 0
M  V30 3759 H 357.221 4.03328 1.22084 0
M  V30 3760 H 355.945 2.84891 1.59702 0
M  V30 3761 H 354.604 3.64616 -0.380853 0
M  V30 3762 H 354.252 4.66758 1.87472 0
M  V30 3763 H 353.952 5.84785 0.574485 0
M  V30 3764 H 355.476 5.9178 1.50428 0
M  V30 3765 H 356.89 5.68307 -0.75499 0
M  V30 3766 H 355.287 5.80073 -1.53738 0
M  V30 3767 H 356.357 4.44504 -1.93764 0
M  V30 3768 N 357.7 0.491464 1.49741 0
M  V30 3769 C 358.663 -0.280906 2.27472 0
M  V30 3770 C 359.663 -0.902454 1.33088 0
M  V30 3771 O 360.853 -0.768465 1.56334 0
M  V30 3772 C 357.985 -1.40209 3.10732 0
M  V30 3773 H 359.178 0.401056 2.97206 0
M  V30 3774 H 356.731 0.246131 1.5435 0
M  V30 3775 H 357.466 -2.11849 2.45541 0
M  V30 3776 H 357.251 -0.961969 3.80117 0
M  V30 3777 H 358.741 -1.9464 3.69466 0
M  V30 3778 N 359.178 -1.55987 0.224894 0
M  V30 3779 C 360.108 -2.23426 -0.678457 0
M  V30 3780 C 361.089 -1.20709 -1.19847 0
M  V30 3781 O 362.274 -1.49304 -1.24186 0
M  V30 3782 C 359.404 -2.91676 -1.88527 0
M  V30 3783 C 358.358 -4.00893 -1.49896 0
M  V30 3784 C 357.684 -4.56455 -2.78483 0
M  V30 3785 C 358.984 -5.17769 -0.686461 0
M  V30 3786 H 360.678 -2.99175 -0.116173 0
M  V30 3787 H 358.224 -1.43897 -0.054436 0
M  V30 3788 H 360.177 -3.37547 -2.5227 0
M  V30 3789 H 358.901 -2.1338 -2.47258 0
M  V30 3790 H 357.56 -3.55758 -0.884985 0
M  V30 3791 H 357.208 -3.74886 -3.35365 0
M  V30 3792 H 356.908 -5.30169 -2.53368 0
M  V30 3793 H 358.432 -5.05047 -3.43162 0
M  V30 3794 H 359.846 -5.60001 -1.22767 0
M  V30 3795 H 358.243 -5.97735 -0.532259 0
M  V30 3796 H 359.313 -4.83932 0.306196 0
M  V30 3797 N 360.656 0.0484629 -1.57525 0
M  V30 3798 C 361.604 1.07359 -2.06341 0
M  V30 3799 C 362.598 1.3865 -0.973269 0
M  V30 3800 O 363.804 1.37783 -1.15827 0
M  V30 3801 H 360.179 0.363662 -0.65822 0
M  V30 3802 H 362.15 0.635916 -2.91545 0
M  V30 3803 C 360.899 2.37198 -2.54229 0
M  V30 3804 H 360.222 2.13977 -3.37719 0
M  V30 3805 H 361.662 3.07319 -2.92115 0
M  V30 3806 C 360.121 3.04805 -1.43511 0
M  V30 3807 O 360.651 3.93848 -0.79034 0
M  V30 3808 N 358.857 2.65811 -1.17444 0
M  V30 3809 H 358.404 1.93488 -1.70059 0
M  V30 3810 H 358.362 3.11366 -0.435737 0
M  V30 3811 N 362.134 1.5431 0.320358 0
M  V30 3812 C 363.364 1.7638 1.07582 0
M  V30 3813 C 363.772 0.513944 1.82086 0
M  V30 3814 O 363.115 -0.525123 1.76035 0
M  V30 3815 C 363.177 2.9055 2.1171 0
M  V30 3816 C 362.841 4.2934 1.56575 0
M  V30 3817 C 363.838 5.10077 1.00586 0
M  V30 3818 C 361.523 4.75893 1.60722 0
M  V30 3819 C 363.517 6.35477 0.494756 0
M  V30 3820 C 361.204 6.0126 1.09224 0
M  V30 3821 C 362.202 6.80886 0.53696 0
M  V30 3822 O 361.89 8.03894 0.0297371 0
M  V30 3823 H 361.622 0.592369 0.325692 0
M  V30 3824 H 364.176 2.02019 0.37116 0
M  V30 3825 H 362.406 2.60489 2.85801 0
M  V30 3826 H 364.095 3.00373 2.73003 0
M  V30 3827 H 364.861 4.75265 0.966869 0
M  V30 3828 H 360.74 4.13957 2.02882 0
M  V30 3829 H 364.284 6.97574 0.0606842 0
M  V30 3830 H 360.181 6.35562 1.12831 0
M  V30 3831 H 360.949 8.18372 0.14486 0
M  V30 3832 N 363.613 -0.582584 1.46437 0
M  V30 3833 C 364.89 -1.34276 1.4223 0
M  V30 3834 C 365.27 -2.10835 0.10583 0
M  V30 3835 O 364.618 -2.09485 -0.912596 0
M  V30 3836 C 364.828 -2.26865 2.65204 0
M  V30 3837 C 366.176 -2.88691 3.11356 0
M  V30 3838 O 367.2 -2.37178 2.65753 0
M  V30 3839 O 366.059 -3.82255 3.90568 0
M  V30 3840 H 363.153 -0.603326 0.565621 0
M  V30 3841 H 365.699 -0.603591 1.58603 0
M  V30 3842 H 364.471 -1.69724 3.52576 0
M  V30 3843 H 364.094 -3.08122 2.5129 0
M  V30 3844 N 365.091 -1.34144 -0.827227 0
M  V30 3845 C 366.041 -1.21923 -1.92663 0
M  V30 3846 C 367.025 -0.119294 -1.60457 0
M  V30 3847 O 368.217 -0.348539 -1.73534 0
M  V30 3848 C 365.346 -0.972492 -3.29238 0
M  V30 3849 C 364.432 -2.1154 -3.67576 0
M  V30 3850 N 364.823 -3.36627 -3.77512 0
M  V30 3851 C 363.121 -2.02468 -3.97395 0
M  V30 3852 C 363.822 -4.11658 -4.1099 0
M  V30 3853 N 362.798 -3.40207 -4.23981 0
M  V30 3854 H 366.6 -2.16721 -1.98517 0
M  V30 3855 H 364.114 -1.2632 -1.02064 0
M  V30 3856 H 366.111 -0.865847 -4.0781 0
M  V30 3857 H 364.771 -0.0331509 -3.24683 0
M  V30 3858 H 365.782 -3.71234 -3.61118 0
M  V30 3859 H 362.459 -1.16265 -4.00985 0
M  V30 3860 H 363.849 -5.19657 -4.25918 0
M  V30 3861 N 366.569 1.04691 -1.17803 0
M  V30 3862 C 367.815 1.78181 -0.980977 0
M  V30 3863 C 368.17 1.86191 0.484825 0
M  V30 3864 O 367.463 1.35436 1.35527 0
M  V30 3865 C 367.657 3.21467 -1.56186 0
M  V30 3866 C 367.486 3.27422 -3.08261 0
M  V30 3867 C 366.256 3.36415 -3.77032 0
M  V30 3868 C 368.454 3.15947 -4.0581 0
M  V30 3869 N 366.436 3.31554 -5.16667 0
M  V30 3870 C 367.807 3.18514 -5.31929 0
M  V30 3871 C 369.862 2.99945 -3.97413 0
M  V30 3872 C 368.565 3.06723 -6.50625 0
M  V30 3873 C 370.591 2.89497 -5.15699 0
M  V30 3874 C 369.953 2.92702 -6.40706 0
M  V30 3875 H 366.052 0.6641 -0.412911 0
M  V30 3876 H 368.636 1.24762 -1.49474 0
M  V30 3877 H 366.807 3.73245 -1.07436 0
M  V30 3878 H 368.539 3.8322 -1.30093 0
M  V30 3879 H 365.294 3.41887 -3.27735 0
M  V30 3880 H 365.718 3.3258 -5.89678 0
M  V30 3881 H 370.36 2.96302 -3.01604 0
M  V30 3882 H 368.078 3.0912 -7.46639 0
M  V30 3883 H 371.664 2.78179 -5.10987 0
M  V30 3884 H 370.544 2.84697 -7.30696 0
M  V30 3885 N 368.047 0.979072 1.23499 0
M  V30 3886 C 368.997 0.489378 2.22686 0
M  V30 3887 C 369.981 -0.434871 1.54912 0
M  V30 3888 O 371.173 -0.263941 1.75021 0
M  V30 3889 C 368.302 -0.208178 3.42668 0
M  V30 3890 C 367.388 0.735563 4.17672 0
M  V30 3891 N 367.779 1.87763 4.69658 0
M  V30 3892 C 366.077 0.548625 4.42613 0
M  V30 3893 C 366.778 2.46886 5.26709 0
M  V30 3894 N 365.754 1.75287 5.14563 0
M  V30 3895 H 369.556 1.36062 2.60508 0
M  V30 3896 H 367.07 0.83958 1.39014 0
M  V30 3897 H 369.067 -0.576295 4.12898 0
M  V30 3898 H 367.727 -1.07572 3.06363 0
M  V30 3899 H 368.738 2.25885 4.66043 0
M  V30 3900 H 365.415 -0.274006 4.166 0
M  V30 3901 H 366.805 3.43326 5.77561 0
M  V30 3902 N 369.525 -1.3858 0.750561 0
M  V30 3903 C 370.755 -2.04175 0.31564 0
M  V30 3904 C 371.163 -1.56726 -1.05989 0
M  V30 3905 O 370.506 -0.734225 -1.68389 0
M  V30 3906 C 370.568 -3.58585 0.256389 0
M  V30 3907 C 370.232 -4.29077 1.57296 0
M  V30 3908 C 371.229 -4.54656 2.52159 0
M  V30 3909 C 368.914 -4.67324 1.84156 0
M  V30 3910 C 370.908 -5.17512 3.72103 0
M  V30 3911 C 368.595 -5.29905 3.04374 0
M  V30 3912 C 369.593 -5.54933 3.98168 0
M  V30 3913 O 369.281 -6.16212 5.16273 0
M  V30 3914 H 369.013 -0.662742 0.133226 0
M  V30 3915 H 371.567 -1.78313 1.01948 0
M  V30 3916 H 369.797 -3.83406 -0.503677 0
M  V30 3917 H 371.486 -4.05628 -0.148612 0
M  V30 3918 H 372.252 -4.25539 2.32683 0
M  V30 3919 H 368.131 -4.47191 1.11988 0
M  V30 3920 H 371.675 -5.36963 4.45327 0
M  V30 3921 H 367.572 -5.58444 3.23745 0
M  V30 3922 H 368.34 -6.34701 5.16815 0
M  V30 3923 N 371.003 -0.499398 -1.49478 0
M  V30 3924 C 372.228 0.044722 -2.07352 0
M  V30 3925 C 372.653 1.30207 -1.35749 0
M  V30 3926 O 372.011 1.76516 -0.413732 0
M  V30 3927 C 372.059 0.283013 -3.59488 0
M  V30 3928 O 371.163 1.35804 -3.89398 0
M  V30 3929 H 370.504 -0.0255147 -0.66351 0
M  V30 3930 H 373.034 -0.698561 -1.92305 0
M  V30 3931 H 373.044 0.515007 -4.04737 0
M  V30 3932 H 371.719 -0.635636 -4.11014 0
M  V30 3933 H 370.296 1.11113 -3.55961 0
M  V30 3934 N 372.481 1.55866 -0.233164 0
M  V30 3935 C 373.727 1.98897 0.395959 0
M  V30 3936 C 374.06 1.12091 1.58585 0
M  V30 3937 O 373.335 0.181182 1.93654 0
M  V30 3938 C 373.618 3.50658 0.819224 0
M  V30 3939 C 373.471 4.48233 -0.375109 0
M  V30 3940 C 374.79 4.07135 1.67121 0
M  V30 3941 H 371.909 0.723102 0.142451 0
M  V30 3942 H 374.551 1.87082 -0.331725 0
M  V30 3943 H 372.701 3.60857 1.43925 0
M  V30 3944 H 374.373 4.50031 -1.01341 0
M  V30 3945 H 372.616 4.21624 -1.02058 0
M  V30 3946 H 373.287 5.51988 -0.0358328 0
M  V30 3947 H 375.763 3.99952 1.14795 0
M  V30 3948 H 374.639 5.13615 1.93625 0
M  V30 3949 H 374.9 3.54736 2.63846 0
M  V30 3950 N 373.959 -0.0401083 1.57549 0
M  V30 3951 C 375.205 -0.734211 1.89043 0
M  V30 3952 C 375.538 -1.75591 0.829535 0
M  V30 3953 O 374.813 -1.93868 -0.156706 0
M  V30 3954 C 375.096 -1.41374 3.31188 0
M  V30 3955 C 374.949 -0.406299 4.47961 0
M  V30 3956 C 376.268 -2.35061 3.72068 0
M  V30 3957 H 373.387 -0.265447 0.687537 0
M  V30 3958 H 376.029 0.00294087 1.9 0
M  V30 3959 H 374.179 -2.04206 3.30503 0
M  V30 3960 H 375.851 0.219255 4.60779 0
M  V30 3961 H 374.094 0.275485 4.32924 0
M  V30 3962 H 374.765 -0.920022 5.44279 0
M  V30 3963 H 377.241 -1.82282 3.74049 0
M  V30 3964 H 376.117 -2.79593 4.72355 0
M  V30 3965 H 376.378 -3.21258 3.0372 0
M  V30 3966 N 375.437 -1.54477 -0.31217 0
M  V30 3967 C 376.4 -1.83923 -1.36766 0
M  V30 3968 C 377.4 -0.711563 -1.44199 0
M  V30 3969 O 378.59 -0.979866 -1.44029 0
M  V30 3970 C 375.722 -2.0095 -2.75376 0
M  V30 3971 H 376.915 -2.78239 -1.11906 0
M  V30 3972 H 374.468 -1.46369 -0.548257 0
M  V30 3973 H 375.203 -1.08883 -3.05475 0
M  V30 3974 H 374.988 -2.83018 -2.71373 0
M  V30 3975 H 376.478 -2.2514 -3.51713 0
M  V30 3976 N 376.915 0.57481 -1.46744 0
M  V30 3977 C 378.331 0.898981 -1.31873 0
M  V30 3978 C 378.531 1.99313 -0.29605 0
M  V30 3979 O 377.587 2.50728 0.298621 0
M  V30 3980 C 378.9 1.30886 -2.7072 0
M  V30 3981 C 380.448 1.42127 -2.78871 0
M  V30 3982 C 380.923 1.86478 -4.18318 0
M  V30 3983 N 382.414 1.93658 -4.20774 0
M  V30 3984 C 383.149 2.29267 -5.2557 0
M  V30 3985 N 382.645 2.63612 -6.40688 0
M  V30 3986 N 384.438 2.29889 -5.1294 0
M  V30 3987 H 376.589 -0.147839 -2.11885 0
M  V30 3988 H 378.852 -0.00347013 -0.947994 0
M  V30 3989 H 378.558 0.578853 -3.46904 0
M  V30 3990 H 378.432 2.26874 -3.01343 0
M  V30 3991 H 380.819 2.14213 -2.0297 0
M  V30 3992 H 380.9 0.443705 -2.51922 0
M  V30 3993 H 380.544 1.14968 -4.94717 0
M  V30 3994 H 380.474 2.85207 -4.42679 0
M  V30 3995 H 382.965 1.69574 -3.37718 0
M  V30 3996 H 383.278 2.89759 -7.16421 0
M  V30 3997 H 381.623 2.61232 -6.44036 0
M  V30 3998 H 384.814 2.02485 -4.22039 0
M  V30 3999 H 384.987 2.57312 -5.94722 0
M  V30 4000 N 378.394 1.34581 0.820102 0
M  V30 4001 C 379.624 1.29991 1.6058 0
M  V30 4002 C 380.032 -0.127588 1.88769 0
M  V30 4003 O 379.375 -1.08595 1.48165 0
M  V30 4004 C 379.437 2.02548 2.9701 0
M  V30 4005 C 379.101 3.51794 2.91701 0
M  V30 4006 C 380.098 4.46647 2.66087 0
M  V30 4007 C 377.783 3.94249 3.11245 0
M  V30 4008 C 379.777 5.81929 2.60071 0
M  V30 4009 C 377.464 5.2963 3.04853 0
M  V30 4010 C 378.462 6.23282 2.793 0
M  V30 4011 O 378.15 7.56181 2.72847 0
M  V30 4012 H 377.882 0.448539 0.505756 0
M  V30 4013 H 380.436 1.77811 1.02822 0
M  V30 4014 H 378.666 1.49345 3.56697 0
M  V30 4015 H 380.355 1.91211 3.58041 0
M  V30 4016 H 381.121 4.15168 2.5072 0
M  V30 4017 H 377 3.21749 3.30149 0
M  V30 4018 H 380.544 6.54999 2.40046 0
M  V30 4019 H 376.441 5.60727 3.19774 0
M  V30 4020 H 377.209 7.6595 2.88553 0
M  V30 4021 N 379.872 -1.04064 1.18357 0
M  V30 4022 C 381.118 -1.77658 0.990412 0
M  V30 4023 C 381.473 -1.86446 -0.474944 0
M  V30 4024 O 380.766 -1.36153 -1.34807 0
M  V30 4025 C 380.96 -3.20634 1.57888 0
M  V30 4026 C 380.789 -3.25782 3.09994 0
M  V30 4027 C 379.559 -3.34411 3.7881 0
M  V30 4028 C 381.757 -3.13791 4.0748 0
M  V30 4029 N 379.739 -3.28809 5.18418 0
M  V30 4030 C 381.11 -3.15689 5.33611 0
M  V30 4031 C 383.165 -2.97833 3.98998 0
M  V30 4032 C 381.868 -3.03268 6.52243 0
M  V30 4033 C 383.894 -2.86759 5.17227 0
M  V30 4034 C 383.256 -2.893 6.4225 0
M  V30 4035 H 379.355 -0.661901 0.416427 0
M  V30 4036 H 381.939 -1.23968 1.50133 0
M  V30 4037 H 380.11 -3.7267 1.09414 0
M  V30 4038 H 381.842 -3.82525 1.32124 0
M  V30 4039 H 378.597 -3.40144 3.29543 0
M  V30 4040 H 379.021 -3.29448 5.91433 0
M  V30 4041 H 383.663 -2.94698 3.03171 0
M  V30 4042 H 381.381 -3.05156 7.48268 0
M  V30 4043 H 384.967 -2.75465 5.12455 0
M  V30 4044 H 383.847 -2.80818 7.32196 0
M  V30 4045 N 381.35 -0.985608 -1.22978 0
M  V30 4046 C 382.3 -0.50118 -2.22423 0
M  V30 4047 C 383.284 0.426649 -1.5514 0
M  V30 4048 O 384.476 0.254656 -1.75159 0
M  V30 4049 C 381.605 0.190003 -3.42774 0
M  V30 4050 C 380.691 -0.757703 -4.17276 0
M  V30 4051 N 381.082 -1.90251 -4.68656 0
M  V30 4052 C 379.38 -0.57209 -4.42316 0
M  V30 4053 C 380.081 -2.49676 -5.25392 0
M  V30 4054 N 379.057 -1.78013 -5.13627 0
M  V30 4055 H 382.859 -1.37441 -2.59783 0
M  V30 4056 H 380.373 -0.846941 -1.38567 0
M  V30 4057 H 382.37 0.55439 -4.13197 0
M  V30 4058 H 381.03 1.05946 -3.06929 0
M  V30 4059 H 382.041 -2.28354 -4.64839 0
M  V30 4060 H 378.718 0.251909 -4.16739 0
M  V30 4061 H 380.108 -3.46384 -5.75732 0
M  V30 4062 N 382.828 1.3818 -0.7579 0
M  V30 4063 C 384.105 1.94106 -0.241306 0
M  V30 4064 C 384.485 1.69282 1.26122 0
M  V30 4065 O 383.833 1.03378 2.03777 0
M  V30 4066 C 384.043 3.43809 -0.59967 0
M  V30 4067 C 385.391 4.20868 -0.561717 0
M  V30 4068 O 386.415 3.5211 -0.538222 0
M  V30 4069 O 385.274 5.43451 -0.576478 0
M  V30 4070 H 382.368 0.825376 -0.0518042 0
M  V30 4071 H 384.914 1.47548 -0.838315 0
M  V30 4072 H 383.686 3.55403 -1.6372 0
M  V30 4073 H 383.309 3.97592 0.0251197 0
M  V30 4074 N 384.306 0.507319 1.49211 0
M  V30 4075 C 385.554 -0.0348839 2.0207 0
M  V30 4076 C 385.875 -1.36898 1.38866 0
M  V30 4077 O 385.145 -1.88133 0.546151 0
M  V30 4078 H 383.725 -0.0158812 0.746831 0
M  V30 4079 H 386.387 0.665998 1.83168 0
M  V30 4080 H 385.483 -0.159917 3.1169 0
M  V30 4081 N 385.784 -1.5574 0.241426 0
M  V30 4082 C 387.032 -1.98417 -0.384075 0
M  V30 4083 C 387.353 -1.13078 -1.58866 0
M  V30 4084 O 386.623 -0.212312 -1.94746 0
M  V30 4085 H 385.203 -0.732813 -0.144894 0
M  V30 4086 H 387.865 -1.9193 0.338943 0
M  V30 4087 H 386.961 -3.04219 -0.696939 0
M  V30 4088 N 387.262 0.0317525 -1.57568 0
M  V30 4089 C 388.194 1.06073 -2.03178 0
M  V30 4090 C 389.207 1.32627 -0.944132 0
M  V30 4091 O 390.396 1.30162 -1.22148 0
M  V30 4092 C 387.496 2.40297 -2.38978 0
M  V30 4093 C 386.669 2.33137 -3.70089 0
M  V30 4094 C 385.728 3.49787 -3.9311 0
M  V30 4095 O 384.754 3.29403 -4.64201 0
M  V30 4096 N 385.956 4.71562 -3.38541 0
M  V30 4097 H 388.721 0.672006 -2.92069 0
M  V30 4098 H 386.282 0.219745 -1.60402 0
M  V30 4099 H 388.274 3.1705 -2.51518 0
M  V30 4100 H 386.844 2.71024 -1.55771 0
M  V30 4101 H 386.064 1.415 -3.67928 0
M  V30 4102 H 387.352 2.25493 -4.56104 0
M  V30 4103 H 386.75 4.91024 -2.80912 0
M  V30 4104 H 385.307 5.45689 -3.56464 0
M  V30 4105 N 388.74 1.54641 0.303973 0
M  V30 4106 C 389.986 1.74969 1.03718 0
M  V30 4107 C 390.341 0.527461 1.85029 0
M  V30 4108 O 389.634 -0.480143 1.85486 0
M  V30 4109 C 389.828 2.97753 1.97681 0
M  V30 4110 C 389.657 4.318 1.25613 0
M  V30 4111 C 388.427 4.95616 0.984518 0
M  V30 4112 C 390.625 5.10021 0.662081 0
M  V30 4113 N 388.607 6.13455 0.233794 0
M  V30 4114 C 389.978 6.19984 0.0439736 0
M  V30 4115 C 392.033 4.94663 0.566835 0
M  V30 4116 C 390.736 7.16264 -0.66016 0
M  V30 4117 C 392.762 5.91271 -0.123637 0
M  V30 4118 C 392.124 7.00601 -0.730608 0
M  V30 4119 H 388.223 0.692873 0.362562 0
M  V30 4120 H 390.807 1.92116 0.316135 0
M  V30 4121 H 388.978 2.82036 2.6704 0
M  V30 4122 H 390.71 3.06621 2.64132 0
M  V30 4123 H 387.465 4.55921 1.28191 0
M  V30 4124 H 387.889 6.76879 -0.127996 0
M  V30 4125 H 392.531 4.10267 1.02181 0
M  V30 4126 H 390.249 8.00204 -1.12691 0
M  V30 4127 H 393.835 5.81466 -0.197236 0
M  V30 4128 H 392.715 7.7407 -1.2564 0
M  V30 4129 N 390.218 -0.567019 1.47046 0
M  V30 4130 C 391.166 -1.69593 1.59188 0
M  V30 4131 C 392.16 -1.63046 0.459609 0
M  V30 4132 O 393.366 -1.6835 0.637058 0
M  V30 4133 H 389.741 -0.560993 0.500791 0
M  V30 4134 H 391.712 -1.56488 2.54075 0
M  V30 4135 C 390.461 -3.07964 1.61411 0
M  V30 4136 H 389.784 -3.13679 2.47881 0
M  V30 4137 H 391.224 -3.86671 1.73958 0
M  V30 4138 C 389.683 -3.35123 0.34559 0
M  V30 4139 O 390.213 -3.97812 -0.557521 0
M  V30 4140 N 388.419 -2.89699 0.22864 0
M  V30 4141 H 387.966 -2.38863 0.964479 0
M  V30 4142 H 387.924 -3.08242 -0.619192 0
M  V30 4143 N 391.696 -1.35014 -0.812953 0
M  V30 4144 C 392.973 -1.18502 -1.55617 0
M  V30 4145 C 393.353 0.238421 -2.09749 0
M  V30 4146 O 392.701 1.2411 -1.91857 0
M  V30 4147 C 392.911 -2.24783 -2.66971 0
M  V30 4148 C 394.259 -2.60268 -3.35478 0
M  V30 4149 O 395.283 -2.23648 -2.77236 0
M  V30 4150 O 394.142 -3.2321 -4.40678 0
M  V30 4151 H 391.236 -0.459984 -0.687272 0
M  V30 4152 H 393.782 -1.46677 -0.853464 0
M  V30 4153 H 392.554 -3.20284 -2.24798 0
M  V30 4154 H 392.177 -1.97841 -3.44884 0
M  V30 4155 N 393.175 1.03435 -1.18907 0
M  V30 4156 C 394.452 1.73778 -0.89781 0
M  V30 4157 C 394.832 2.02458 0.597832 0
M  V30 4158 O 394.18 1.67482 1.55441 0
M  V30 4159 C 394.39 3.01845 -1.75187 0
M  V30 4160 C 395.738 3.7546 -1.9828 0
M  V30 4161 O 396.762 3.11759 -1.72293 0
M  V30 4162 O 395.621 4.89966 -2.42065 0
M  V30 4163 H 392.715 0.75651 -0.334098 0
M  V30 4164 H 395.261 1.09444 -1.29693 0
M  V30 4165 H 394.033 2.76836 -2.76545 0
M  V30 4166 H 393.656 3.73919 -1.35167 0
M  V30 4167 N 394.653 0.992116 1.22453 0
M  V30 4168 C 395.616 0.546883 2.2258 0
M  V30 4169 C 396.616 -0.369829 1.56489 0
M  V30 4170 O 397.806 -0.161896 1.73446 0
M  V30 4171 C 394.938 -0.204659 3.40285 0
M  V30 4172 H 396.131 1.43234 2.63484 0
M  V30 4173 H 393.684 0.779239 1.3549 0
M  V30 4174 H 394.419 -1.10614 3.04853 0
M  V30 4175 H 394.204 0.45354 3.89468 0
M  V30 4176 H 395.694 -0.504358 4.14543 0
M  V30 4177 N 396.131 -1.37776 0.765217 0
M  V30 4178 C 397.041 -2.34135 0.147666 0
M  V30 4179 C 398.057 -1.59854 -0.687215 0
M  V30 4180 O 399.233 -1.91983 -0.608659 0
M  V30 4181 C 396.298 -3.3901 -0.72617 0
M  V30 4182 C 395.359 -4.2912 0.124417 0
M  V30 4183 C 394.592 -5.28986 -0.707807 0
M  V30 4184 O 394.815 -5.36205 -1.94525 0
M  V30 4185 O 393.749 -6.01779 -0.12046 0
M  V30 4186 H 397.575 -2.88664 0.943758 0
M  V30 4187 H 395.16 -1.39824 0.526277 0
M  V30 4188 H 397.042 -4.03195 -1.22524 0
M  V30 4189 H 395.717 -2.86819 -1.50056 0
M  V30 4190 H 394.624 -3.68057 0.669696 0
M  V30 4191 H 395.957 -4.84598 0.861736 0
M  V30 4192 N 397.609 -0.515225 -1.4894 0
M  V30 4193 C 398.539 0.244628 -2.32215 0
M  V30 4194 C 399.52 0.949136 -1.41157 0
M  V30 4195 O 400.705 0.937783 -1.70057 0
M  V30 4196 C 397.835 1.30096 -3.22013 0
M  V30 4197 C 396.789 0.715486 -4.21977 0
M  V30 4198 C 396.115 1.87339 -5.00808 0
M  V30 4199 C 397.415 -0.302982 -5.2142 0
M  V30 4200 H 399.109 -0.450501 -2.95991 0
M  V30 4201 H 396.655 -0.218098 -1.42339 0
M  V30 4202 H 398.608 1.84037 -3.79089 0
M  V30 4203 H 397.332 2.02547 -2.56207 0
M  V30 4204 H 395.991 0.197715 -3.66066 0
M  V30 4205 H 395.639 2.58592 -4.31438 0
M  V30 4206 H 395.339 1.48764 -5.68457 0
M  V30 4207 H 396.863 2.41686 -5.60732 0
M  V30 4208 H 398.277 0.148802 -5.73107 0
M  V30 4209 H 396.674 -0.60532 -5.97039 0
M  V30 4210 H 397.744 -1.21395 -4.69459 0
M  V30 4211 N 399.087 1.5561 -0.249682 0
M  V30 4212 C 400.035 2.22894 0.664906 0
M  V30 4213 C 401.029 1.21743 1.17792 0
M  V30 4214 O 402.235 1.39748 1.13449 0
M  V30 4215 H 398.61 0.715022 0.232912 0
M  V30 4216 H 400.581 2.98307 0.0742998 0
M  V30 4217 C 399.33 2.94424 1.84959 0
M  V30 4218 H 398.653 3.72031 1.46399 0
M  V30 4219 H 400.093 3.44862 2.4667 0
M  V30 4220 C 398.552 1.98454 2.72245 0
M  V30 4221 O 399.082 1.51939 3.71857 0
M  V30 4222 N 397.288 1.65496 2.38871 0
M  V30 4223 H 396.835 2.03517 1.57919 0
M  V30 4224 H 396.793 1.0155 2.97548 0
M  V30 4225 N 400.565 -0.0233959 1.57583 0
M  V30 4226 C 401.812 -0.713063 1.8953 0
M  V30 4227 C 402.14 -1.75056 0.847673 0
M  V30 4228 O 401.395 -1.95119 -0.150636 0
M  V30 4229 C 401.694 -1.41428 3.28227 0
M  V30 4230 C 401.36 -0.512222 4.47981 0
M  V30 4231 C 400.022 -0.263785 4.80476 0
M  V30 4232 C 402.374 0.110248 5.21083 0
M  V30 4233 C 399.702 0.615804 5.83459 0
M  V30 4234 C 402.054 0.977573 6.25001 0
M  V30 4235 C 400.718 1.23542 6.55968 0
M  V30 4236 H 399.988 -0.260928 0.69354 0
M  V30 4237 H 402.635 0.0271047 1.91481 0
M  V30 4238 H 400.94 -2.22791 3.22291 0
M  V30 4239 H 402.637 -1.95355 3.50196 0
M  V30 4240 H 399.227 -0.716013 4.22577 0
M  V30 4241 H 403.411 -0.0687137 4.96252 0
M  V30 4242 H 398.667 0.82382 6.05824 0
M  V30 4243 H 402.841 1.46638 6.80786 0
M  V30 4244 H 400.468 1.91871 7.35588 0
M  V30 4245 N 402.043 -1.548 -0.295768 0
M  V30 4246 C 403.291 -1.73985 -1.02828 0
M  V30 4247 C 403.612 -0.531406 -1.87619 0
M  V30 4248 O 402.882 0.454221 -1.90561 0
M  V30 4249 H 401.462 -0.641556 -0.382642 0
M  V30 4250 H 404.124 -1.92163 -0.325489 0
M  V30 4251 H 403.22 -2.63129 -1.67838 0
M  V30 4252 N 403.521 0.559213 -1.47345 0
M  V30 4253 C 404.469 1.68747 -1.60085 0
M  V30 4254 C 405.463 1.628 -0.46825 0
M  V30 4255 O 406.669 1.68009 -0.645977 0
M  V30 4256 H 403.044 0.558329 -0.503759 0
M  V30 4257 H 405.015 1.55138 -2.54902 0
M  V30 4258 C 403.764 3.07103 -1.63042 0
M  V30 4259 H 403.087 3.12361 -2.49541 0
M  V30 4260 H 404.527 3.85743 -1.76006 0
M  V30 4261 C 402.986 3.34935 -0.363357 0
M  V30 4262 O 403.516 3.98102 0.536416 0
M  V30 4263 N 401.722 2.89574 -0.244 0
M  V30 4264 H 401.269 2.38348 -0.977133 0
M  V30 4265 H 401.227 3.08566 0.602836 0
M  V30 4266 N 404.999 1.35443 0.805782 0
M  V30 4267 C 406.247 1.28507 1.55982 0
M  V30 4268 C 406.568 -0.140046 1.94496 0
M  V30 4269 O 405.838 -1.07666 1.63661 0
M  V30 4270 H 404.418 0.472676 0.578434 0
M  V30 4271 H 407.08 1.69555 0.961098 0
M  V30 4272 H 406.176 1.90148 2.47488 0
M  V30 4273 N 406.477 -1.02803 1.19454 0
M  V30 4274 C 407.425 -2.13213 0.929673 0
M  V30 4275 C 408.419 -1.69011 -0.114806 0
M  V30 4276 O 409.625 -1.79967 0.0345147 0
M  V30 4277 H 406 -0.69662 0.28324 0
M  V30 4278 H 407.971 -2.32744 1.86743 0
M  V30 4279 C 406.72 -3.4429 0.485797 0
M  V30 4280 H 406.043 -3.7872 1.28105 0
M  V30 4281 H 407.483 -4.22638 0.339582 0
M  V30 4282 C 405.942 -3.27258 -0.800244 0
M  V30 4283 O 406.472 -3.55967 -1.86146 0
M  V30 4284 N 404.678 -2.80545 -0.75781 0
M  V30 4285 H 404.225 -2.57382 0.106039 0
M  V30 4286 H 404.183 -2.6953 -1.61867 0
M  V30 4287 N 407.956 -0.998596 -1.21925 0
M  V30 4288 C 409.203 -0.677663 -1.90824 0
M  V30 4289 C 409.531 0.790905 -1.77693 0
M  V30 4290 O 408.786 1.58817 -1.14349 0
M  V30 4291 C 409.085 -1.03648 -3.42041 0
M  V30 4292 C 408.751 -2.49825 -3.75364 0
M  V30 4293 C 407.413 -2.8977 -3.8417 0
M  V30 4294 C 409.765 -3.44545 -3.91073 0
M  V30 4295 C 407.093 -4.23412 -4.06127 0
M  V30 4296 C 409.445 -4.77853 -4.14535 0
M  V30 4297 C 408.109 -5.17531 -4.21566 0
M  V30 4298 H 407.379 -0.247975 -0.698276 0
M  V30 4299 H 410.026 -1.25584 -1.44571 0
M  V30 4300 H 408.331 -0.376457 -3.89987 0
M  V30 4301 H 410.028 -0.766113 -3.93614 0
M  V30 4302 H 406.618 -2.17866 -3.69097 0
M  V30 4303 H 410.802 -3.14853 -3.83642 0
M  V30 4304 H 406.058 -4.53734 -4.09799 0
M  V30 4305 H 410.232 -5.51189 -4.25633 0
M  V30 4306 H 407.859 -6.21102 -4.38333 0
M  V30 4307 N 409.434 1.37368 -0.772513 0
M  V30 4308 C 410.382 2.32134 -0.147111 0
M  V30 4309 C 411.376 1.54972 0.684106 0
M  V30 4310 O 412.582 1.70363 0.581083 0
M  V30 4311 H 408.957 0.751449 -0.028786 0
M  V30 4312 H 410.928 2.82464 -0.962112 0
M  V30 4313 C 409.677 3.40226 0.71703 0
M  V30 4314 H 409 3.99706 0.0867951 0
M  V30 4315 H 410.44 4.08897 1.12159 0
M  V30 4316 C 408.899 2.80372 1.86797 0
M  V30 4317 O 409.429 2.71183 2.96349 0
M  V30 4318 N 407.635 2.37904 1.66883 0
M  V30 4319 H 407.182 2.45578 0.777759 0
M  V30 4320 H 407.14 1.98202 2.44056 0
M  V30 4321 N 410.912 0.523116 1.48665 0
M  V30 4322 C 412.158 -0.0134963 2.02796 0
M  V30 4323 C 412.491 -1.34582 1.40004 0
M  V30 4324 O 411.766 -1.86756 0.543381 0
M  V30 4325 C 412.049 -0.14276 3.59817 0
M  V30 4326 C 411.902 1.21425 4.331 0
M  V30 4327 C 413.221 -0.872856 4.31357 0
M  V30 4328 H 410.34 -0.00343074 0.736992 0
M  V30 4329 H 412.982 0.678816 1.7746 0
M  V30 4330 H 411.132 -0.732401 3.81534 0
M  V30 4331 H 412.804 1.84447 4.2282 0
M  V30 4332 H 411.047 1.79791 3.94788 0
M  V30 4333 H 411.718 1.07687 5.41394 0
M  V30 4334 H 414.194 -0.372555 4.14429 0
M  V30 4335 H 413.07 -0.932185 5.40927 0
M  V30 4336 H 413.331 -1.92161 3.98154 0
M  V30 4337 N 412.39 -1.55475 0.257931 0
M  V30 4338 C 413.806 -1.59307 -0.0966563 0
M  V30 4339 C 414.006 -1.27514 -1.5602 0
M  V30 4340 O 413.062 -1.02774 -2.30637 0
M  V30 4341 C 414.375 -2.99552 0.262481 0
M  V30 4342 C 415.923 -3.1231 0.207683 0
M  V30 4343 C 416.398 -4.54793 0.541012 0
M  V30 4344 N 417.889 -4.6058 0.491921 0
M  V30 4345 C 418.624 -5.68825 0.722857 0
M  V30 4346 N 418.12 -6.85287 1.0175 0
M  V30 4347 N 419.913 -5.58296 0.652815 0
M  V30 4348 H 412.064 -1.74409 1.21224 0
M  V30 4349 H 414.327 -0.812424 0.48854 0
M  V30 4350 H 414.033 -3.27593 1.27967 0
M  V30 4351 H 413.907 -3.75019 -0.40508 0
M  V30 4352 H 416.294 -2.84044 -0.800195 0
M  V30 4353 H 416.375 -2.39095 0.909255 0
M  V30 4354 H 416.019 -4.83783 1.5465 0
M  V30 4355 H 415.949 -5.26285 -0.18216 0
M  V30 4356 H 418.44 -3.7691 0.273366 0
M  V30 4357 H 418.753 -7.63725 1.18084 0
M  V30 4358 H 417.098 -6.86945 1.05509 0
M  V30 4359 H 420.289 -4.66189 0.422592 0
M  V30 4360 H 420.462 -6.42582 0.836182 0
M  V30 4361 N 413.868 0.0150385 -1.57593 0
M  V30 4362 C 415.093 0.718067 -1.94573 0
M  V30 4363 C 415.518 1.6734 -0.859005 0
M  V30 4364 O 414.876 1.80362 0.184147 0
M  V30 4365 C 414.924 1.43918 -3.30636 0
M  V30 4366 O 414.028 2.55299 -3.23876 0
M  V30 4367 H 413.369 0.192125 -0.635597 0
M  V30 4368 H 415.899 -0.0336708 -2.04572 0
M  V30 4369 H 415.909 1.80598 -3.65853 0
M  V30 4370 H 414.584 0.738619 -4.09289 0
M  V30 4371 H 413.161 2.21058 -3.00312 0
M  V30 4372 N 415.346 1.54954 0.287554 0
M  V30 4373 C 416.574 1.78881 1.03967 0
M  V30 4374 C 416.989 0.554894 1.80462 0
M  V30 4375 O 416.346 -0.475676 1.76192 0
M  V30 4376 C 416.397 3.00488 2.0097 0
M  V30 4377 O 416.118 4.19113 1.27577 0
M  V30 4378 C 417.619 3.36907 2.88112 0
M  V30 4379 H 414.839 0.596259 0.307761 0
M  V30 4380 H 417.383 2.01937 0.322749 0
M  V30 4381 H 415.538 2.79601 2.68145 0
M  V30 4382 H 415.952 4.87765 1.92835 0
M  V30 4383 H 417.426 4.25205 3.52001 0
M  V30 4384 H 417.903 2.55659 3.57121 0
M  V30 4385 H 418.509 3.60001 2.26449 0
M  V30 4386 N 416.824 -0.551391 1.4764 0
M  V30 4387 C 418.072 -1.30572 1.54258 0
M  V30 4388 C 418.393 -1.93877 0.208963 0
M  V30 4389 O 417.663 -1.80234 -0.767619 0
M  V30 4390 H 416.243 -0.484894 0.568231 0
M  V30 4391 H 418.905 -0.643402 1.83974 0
M  V30 4392 H 418.001 -2.09621 2.31226 0
M  V30 4393 N 418.302 -1.35869 -0.798587 0
M  V30 4394 C 419.548 -1.30788 -1.55775 0
M  V30 4395 C 419.903 0.114558 -1.92059 0
M  V30 4396 O 419.196 1.06691 -1.59147 0
M  V30 4397 C 419.39 -2.1556 -2.85077 0
M  V30 4398 C 419.219 -3.65904 -2.61428 0
M  V30 4399 C 417.989 -4.35112 -2.56915 0
M  V30 4400 C 420.187 -4.59375 -2.31255 0
M  V30 4401 N 418.169 -5.71155 -2.25068 0
M  V30 4402 C 419.54 -5.83598 -2.09316 0
M  V30 4403 C 421.595 -4.48035 -2.17185 0
M  V30 4404 C 420.298 -6.97755 -1.74731 0
M  V30 4405 C 422.324 -5.62049 -1.83998 0
M  V30 4406 C 421.686 -6.85305 -1.629 0
M  V30 4407 H 417.785 -0.533855 -0.571422 0
M  V30 4408 H 420.369 -1.7083 -0.934079 0
M  V30 4409 H 418.54 -1.77776 -3.45326 0
M  V30 4410 H 420.272 -2.01938 -3.50718 0
M  V30 4411 H 417.027 -3.87812 -2.71843 0
M  V30 4412 H 417.451 -6.42978 -2.11916 0
M  V30 4413 H 422.093 -3.53338 -2.3219 0
M  V30 4414 H 419.811 -7.92411 -1.58464 0
M  V30 4415 H 423.397 -5.55232 -1.73808 0
M  V30 4416 H 422.277 -7.72034 -1.37596 0
M  V30 4417 N 419.78 1.02168 -1.19998 0
M  V30 4418 C 421.028 1.75338 -1.00504 0
M  V30 4419 C 421.349 1.89387 0.464506 0
M  V30 4420 O 420.619 1.43268 1.33608 0
M  V30 4421 H 419.199 0.649564 -0.368885 0
M  V30 4422 H 421.861 1.23205 -1.51018 0
M  V30 4423 H 420.957 2.75892 -1.45912 0
M  V30 4424 N 421.258 1.00505 1.21394 0
M  V30 4425 C 422.506 0.686415 1.90086 0
M  V30 4426 C 422.827 -0.785264 1.7849 0
M  V30 4427 O 422.097 -1.56387 1.17983 0
M  V30 4428 H 420.677 0.2509 0.703604 0
M  V30 4429 H 423.339 1.27417 1.47482 0
M  V30 4430 H 422.435 0.959621 2.96981 0
M  V30 4431 N 422.737 -1.36956 0.779787 0
M  V30 4432 C 423.967 -2.03459 0.358877 0
M  V30 4433 C 424.375 -1.58939 -1.02641 0
M  V30 4434 O 423.718 -0.769777 -1.66794 0
M  V30 4435 C 423.78 -3.5796 0.332393 0
M  V30 4436 C 423.444 -4.25644 1.66362 0
M  V30 4437 C 424.441 -4.49205 2.61746 0
M  V30 4438 C 422.126 -4.63313 1.94027 0
M  V30 4439 C 424.12 -5.09503 3.82996 0
M  V30 4440 C 421.807 -5.2333 3.15546 0
M  V30 4441 C 422.805 -5.46363 4.0985 0
M  V30 4442 O 422.493 -6.05122 5.29228 0
M  V30 4443 H 422.225 -0.659767 0.147254 0
M  V30 4444 H 424.779 -1.76111 1.05708 0
M  V30 4445 H 423.009 -3.84388 -0.422237 0
M  V30 4446 H 424.698 -4.05852 -0.0625389 0
M  V30 4447 H 425.464 -4.20508 2.41657 0
M  V30 4448 H 421.343 -4.44715 1.21448 0
M  V30 4449 H 424.887 -5.27397 4.56617 0
M  V30 4450 H 420.784 -5.51451 3.35517 0
M  V30 4451 H 421.552 -6.23595 5.30161 0
M  V30 4452 N 424.215 -0.530993 -1.48385 0
M  V30 4453 C 425.145 0.219985 -2.32461 0
M  V30 4454 C 426.126 0.934111 -1.42156 0
M  V30 4455 O 427.311 0.919694 -1.71042 0
M  V30 4456 C 424.441 1.26674 -3.23375 0
M  V30 4457 C 423.395 0.67069 -4.22712 0
M  V30 4458 C 422.721 1.82017 -5.02766 0
M  V30 4459 C 424.021 -0.358268 -5.2107 0
M  V30 4460 H 425.715 -0.48187 -2.95497 0
M  V30 4461 H 423.261 -0.233182 -1.42099 0
M  V30 4462 H 425.214 1.80006 -3.81019 0
M  V30 4463 H 423.938 1.99818 -2.58341 0
M  V30 4464 H 422.597 0.158878 -3.66256 0
M  V30 4465 H 422.245 2.54002 -4.34157 0
M  V30 4466 H 421.945 1.42727 -5.70003 0
M  V30 4467 H 423.469 2.35725 -5.63264 0
M  V30 4468 H 424.883 0.0880081 -5.73232 0
M  V30 4469 H 423.28 -0.66861 -5.96364 0
M  V30 4470 H 424.35 -1.26367 -4.68145 0
M  V30 4471 N 425.693 1.55336 -0.266172 0
M  V30 4472 C 426.939 1.99692 0.353681 0
M  V30 4473 C 427.272 1.1543 1.56172 0
M  V30 4474 O 426.547 0.222218 1.93226 0
M  V30 4475 C 426.83 3.52316 0.74466 0
M  V30 4476 C 426.683 4.47337 -0.470101 0
M  V30 4477 C 428.002 4.10588 1.58447 0
M  V30 4478 H 425.121 0.725961 0.12708 0
M  V30 4479 H 427.763 1.86336 -0.371333 0
M  V30 4480 H 425.913 3.63829 1.36239 0
M  V30 4481 H 427.585 4.4778 -1.10864 0
M  V30 4482 H 425.828 4.19364 -1.10978 0
M  V30 4483 H 426.499 5.51788 -0.15291 0
M  V30 4484 H 428.975 4.02297 1.06286 0
M  V30 4485 H 427.851 5.17607 1.82686 0
M  V30 4486 H 428.112 3.60253 2.56262 0
M  V30 4487 N 427.171 -0.0066808 1.57599 0
M  V30 4488 C 428.417 -0.693947 1.90558 0
M  V30 4489 C 428.75 -1.73792 0.866594 0
M  V30 4490 O 428.025 -1.94156 -0.115548 0
M  V30 4491 C 428.308 -1.34317 3.34112 0
M  V30 4492 C 428.161 -0.311189 4.48722 0
M  V30 4493 C 429.48 -2.27116 3.7697 0
M  V30 4494 H 426.599 -0.250803 0.693013 0
M  V30 4495 H 429.241 0.043242 1.89951 0
M  V30 4496 H 427.391 -1.9715 3.3476 0
M  V30 4497 H 429.063 0.316944 4.6021 0
M  V30 4498 H 427.306 0.367253 4.32243 0
M  V30 4499 H 427.977 -0.804366 5.46108 0
M  V30 4500 H 430.453 -1.74306 3.77831 0
M  V30 4501 H 429.329 -2.69511 4.78179 0
M  V30 4502 H 429.59 -3.14743 3.10466 0
M  V30 4503 N 428.649 -1.55105 -0.279332 0
M  V30 4504 C 429.897 -1.75066 -1.00977 0
M  V30 4505 C 430.218 -0.551276 -1.87045 0
M  V30 4506 O 429.488 0.433984 -1.91032 0
M  V30 4507 H 428.068 -0.645578 -0.375816 0
M  V30 4508 H 430.73 -1.92497 -0.305089 0
M  V30 4509 H 429.826 -2.64894 -1.65038 0
M  V30 4510 N 430.127 0.543554 -1.4793 0
M  V30 4511 C 431.357 1.32324 -1.58663 0
M  V30 4512 C 431.765 1.8766 -0.240896 0
M  V30 4513 O 431.108 1.66411 0.778011 0
M  V30 4514 C 431.17 2.52094 -2.56299 0
M  V30 4515 C 430.834 2.17944 -4.01683 0
M  V30 4516 C 431.831 1.74422 -4.89768 0
M  V30 4517 C 429.516 2.28884 -4.47121 0
M  V30 4518 C 431.51 1.42287 -6.21316 0
M  V30 4519 C 429.197 1.96361 -5.78693 0
M  V30 4520 C 430.195 1.53132 -6.65612 0
M  V30 4521 O 429.883 1.21029 -7.94737 0
M  V30 4522 H 429.615 0.409174 -0.538101 0
M  V30 4523 H 432.169 0.663887 -1.94375 0
M  V30 4524 H 430.399 3.20965 -2.15681 0
M  V30 4525 H 432.088 3.14165 -2.57012 0
M  V30 4526 H 432.854 1.65452 -4.55907 0
M  V30 4527 H 428.733 2.61488 -3.79664 0
M  V30 4528 H 432.277 1.08472 -6.89115 0
M  V30 4529 H 428.174 2.04967 -6.12094 0
M  V30 4530 H 428.942 1.34543 -8.07366 0
M  V30 4531 N 431.605 1.3629 0.791371 0
M  V30 4532 C 432.553 1.30514 1.92533 0
M  V30 4533 C 433.547 0.197285 1.68247 0
M  V30 4534 O 434.753 0.364176 1.76278 0
M  V30 4535 H 431.128 0.406263 0.632815 0
M  V30 4536 H 433.099 2.26282 1.94523 0
M  V30 4537 C 431.848 1.10933 3.29529 0
M  V30 4538 H 431.171 1.95427 3.48781 0
M  V30 4539 H 432.611 1.10937 4.0923 0
M  V30 4540 C 431.07 -0.186123 3.36385 0
M  V30 4541 O 431.6 -1.17664 3.84081 0
M  V30 4542 N 429.806 -0.230128 2.89687 0
M  V30 4543 H 429.353 0.576545 2.51065 0
M  V30 4544 H 429.311 -1.09658 2.94657 0
M  V30 4545 N 433.083 -1.0153 1.20538 0
M  V30 4546 C 434.33 -1.75149 1.01633 0
M  V30 4547 C 434.658 -1.89189 -0.451399 0
M  V30 4548 O 433.913 -1.41551 -1.35136 0
M  V30 4549 C 434.212 -3.17213 1.64654 0
M  V30 4550 C 433.878 -3.23146 3.14464 0
M  V30 4551 C 432.54 -3.24472 3.55347 0
M  V30 4552 C 434.892 -3.21207 4.10458 0
M  V30 4553 C 432.22 -3.21532 4.90748 0
M  V30 4554 C 434.572 -3.19808 5.45807 0
M  V30 4555 C 433.236 -3.19439 5.86102 0
M  V30 4556 H 432.506 -0.640914 0.3719 0
M  V30 4557 H 435.153 -1.19071 1.49981 0
M  V30 4558 H 433.458 -3.76457 1.08571 0
M  V30 4559 H 435.155 -3.72871 1.4754 0
M  V30 4560 H 431.745 -3.2285 2.81897 0
M  V30 4561 H 435.929 -3.19351 3.79906 0
M  V30 4562 H 431.185 -3.19578 5.21229 0
M  V30 4563 H 435.359 -3.1726 6.19935 0
M  V30 4564 H 432.986 -3.16915 6.90991 0
M  V30 4565 O 434.6 -1.13875 -1.14519 0
M  V30 4566 H 435.291 -0.85746 -1.73687 0
M  V30 END ATOM
M  V30 BEGIN BOND
M  V30 END BOND
M  V30 END CTAB
M  END
$$$$
