drugbank_target|Q9H2H9 Sodium-coupled neutral amino acid transporter 1 (DB00174)
 OpenBabel12092121233D

  0  0  0     0  0            999 V3000
M  V30 BEGIN CTAB
M  V30 COUNTS 7718 7795 0 0 0
M  V30 BEGIN ATOM
M  V30 1 H -0.908 1.98254 -0.117106 0
M  V30 2 N 0 1.576 0 0
M  V30 3 C 0.933 2.03868 1.02534 0
M  V30 4 C 1.911 0.928543 1.3348 0
M  V30 5 O 3.095 1.19667 1.45644 0
M  V30 6 C 0.222 2.43627 2.35294 0
M  V30 7 C -0.732 3.65373 2.2001 0
M  V30 8 S 0.101 5.13292 1.52614 0
M  V30 9 C 1.257 5.56322 2.86805 0
M  V30 10 H 1.49 2.90518 0.631377 0
M  V30 11 H -0.977 1.52953 0.210867 0
M  V30 12 H 0.981 2.67203 3.11629 0
M  V30 13 H -0.358 1.57376 2.7183 0
M  V30 14 H -1.165 3.90944 3.18086 0
M  V30 15 H -1.563 3.418 1.51819 0
M  V30 16 H 0.729 5.58782 3.83104 0
M  V30 17 H 1.672 6.56266 2.65933 0
M  V30 18 H 2.08 4.83886 2.90714 0
M  V30 19 N 1.4781 -0.272755 1.55222 0
M  V30 20 C 2.4111 -1.3627 1.83046 0
M  V30 21 C 3.3891 -1.47536 0.683521 0
M  V30 22 O 4.5731 -1.64157 0.926545 0
M  V30 23 C 1.7001 -2.73908 1.99229 0
M  V30 24 C 0.7461 -2.79925 3.21783 0
M  V30 25 S 1.5791 -2.39146 4.79134 0
M  V30 26 C 2.7351 -3.78758 4.9829 0
M  V30 27 H 2.9681 -1.12464 2.75207 0
M  V30 28 H 0.5011 -0.472398 1.46996 0
M  V30 29 H 2.4591 -3.53171 2.09238 0
M  V30 30 H 1.1201 -2.94965 1.07956 0
M  V30 31 H 0.3131 -3.80946 3.29994 0
M  V30 32 H -0.0849 -2.08683 3.10367 0
M  V30 33 H 2.2071 -4.7403 4.84047 0
M  V30 34 H 3.1501 -3.75499 6.00338 0
M  V30 35 H 3.5581 -3.70072 4.26271 0
M  V30 36 N 2.9562 -1.48159 -0.537278 0
M  V30 37 C 3.9062 -1.5854 -1.63857 0
M  V30 38 C 4.8902 -0.442969 -1.54682 0
M  V30 39 O 6.0822 -0.69401 -1.62827 0
M  V30 40 C 3.2112 -1.62144 -3.02596 0
M  V30 41 C 2.2972 -2.81841 -3.16901 0
M  V30 42 N 2.6882 -4.06337 -3.01204 0
M  V30 43 C 0.9862 -2.79021 -3.47942 0
M  V30 44 C 1.6872 -4.86606 -3.18731 0
M  V30 45 N 0.6632 -4.19288 -3.45974 0
M  V30 46 H 4.4652 -2.5255 -1.50319 0
M  V30 47 H 1.9792 -1.4443 -0.742555 0
M  V30 48 H 3.9762 -1.67674 -3.81695 0
M  V30 49 H 2.6362 -0.69245 -3.17231 0
M  V30 50 H 3.6472 -4.36888 -2.78117 0
M  V30 51 H 0.3242 -1.95347 -3.6898 0
M  V30 52 H 1.7142 -5.95385 -3.11394 0
M  V30 53 N 4.4343 0.785586 -1.36625 0
M  V30 54 C 5.6813 1.54362 -1.31067 0
M  V30 55 C 6.0093 1.94195 0.10893 0
M  V30 56 O 5.2643 1.63262 1.07908 0
M  V30 57 C 5.5633 2.83007 -2.1827 0
M  V30 58 C 5.2293 2.62294 -3.6676 0
M  V30 59 C 3.8913 2.56353 -4.0723 0
M  V30 60 C 6.2433 2.43371 -4.6089 0
M  V30 61 C 3.5713 2.29461 -5.39967 0
M  V30 62 C 5.9233 2.18005 -5.93849 0
M  V30 63 C 4.5873 2.105 -6.3344 0
M  V30 64 H 3.8573 0.564851 -0.479609 0
M  V30 65 H 6.5043 0.906028 -1.68711 0
M  V30 66 H 4.8093 3.51253 -1.73576 0
M  V30 67 H 6.5063 3.40817 -2.11292 0
M  V30 68 H 3.0963 2.67774 -3.34656 0
M  V30 69 H 7.2803 2.46959 -4.30494 0
M  V30 70 H 2.5363 2.22135 -5.69619 0
M  V30 71 H 6.7103 2.02359 -6.66351 0
M  V30 72 H 4.3373 1.89425 -7.36222 0
M  V30 73 N 5.9124 1.20967 1.01018 0
M  V30 74 C 6.8594 0.964281 2.09691 0
M  V30 75 C 7.8294 -0.107853 1.65749 0
M  V30 76 O 9.0144 0.0381987 1.90762 0
M  V30 77 C 6.1544 0.52943 3.41015 0
M  V30 78 C 5.2674 1.67043 3.98398 0
M  V30 79 C 4.4024 1.18525 5.17808 0
M  V30 80 C 3.4414 2.29892 5.67288 0
M  V30 81 N 2.5784 1.82546 6.77954 0
M  V30 82 H 7.4184 1.89463 2.30017 0
M  V30 83 H 4.9554 0.944289 1.1279 0
M  V30 84 H 6.9134 0.258588 4.16398 0
M  V30 85 H 5.5434 -0.363919 3.20742 0
M  V30 86 H 4.5954 2.05603 3.20049 0
M  V30 87 H 5.9074 2.50877 4.31117 0
M  V30 88 H 5.0614 0.870762 6.00419 0
M  V30 89 H 3.8004 0.316887 4.86669 0
M  V30 90 H 2.8054 2.6215 4.83278 0
M  V30 91 H 4.0304 3.17216 6.00459 0
M  V30 92 H 1.9764 0.980454 6.48632 0
M  V30 93 H 1.8934 2.59956 7.09901 0
M  V30 94 H 3.1614 1.54115 7.64113 0
M  V30 95 N 7.3905 -1.2043 1.01659 0
M  V30 96 C 8.6155 -1.94318 0.724942 0
M  V30 97 C 9.0405 -1.74266 -0.708034 0
M  V30 98 O 8.3985 -1.03694 -1.48719 0
M  V30 99 C 8.4465 -3.44486 1.06591 0
M  V30 100 O 7.5505 -4.12017 0.177599 0
M  V30 101 H 6.8915 -0.60708 0.26898 0
M  V30 102 H 9.4215 -1.52861 1.35995 0
M  V30 103 H 9.4315 -3.95106 1.01762 0
M  V30 104 H 8.1065 -3.58404 2.10997 0
M  V30 105 H 6.6835 -3.71821 0.283421 0
M  V30 106 N 8.8686 -0.792821 -1.36206 0
M  V30 107 C 10.1166 -0.366062 -1.98757 0
M  V30 108 C 10.4376 1.0668 -1.63231 0
M  V30 109 O 9.7076 1.73587 -0.907978 0
M  V30 110 H 8.2876 -0.132364 -0.735179 0
M  V30 111 H 10.9496 -1.01562 -1.66347 0
M  V30 112 H 10.0456 -0.460638 -3.08682 0
M  V30 113 N 10.3467 1.47872 -0.545128 0
M  V30 114 C 11.2767 2.32661 0.197793 0
M  V30 115 C 12.2577 1.43041 0.920504 0
M  V30 116 O 13.4427 1.71912 0.90333 0
M  V30 117 C 10.5727 3.24569 1.23582 0
M  V30 118 C 9.5267 4.23333 0.630323 0
M  V30 119 C 8.8527 5.0448 1.77211 0
M  V30 120 C 10.1527 5.20704 -0.407974 0
M  V30 121 H 11.8467 2.95024 -0.510045 0
M  V30 122 H 9.3927 1.4187 -0.246731 0
M  V30 123 H 11.3457 3.8272 1.76362 0
M  V30 124 H 10.0697 2.60236 1.97344 0
M  V30 125 H 8.7287 3.6639 0.123922 0
M  V30 126 H 8.3767 4.36561 2.49847 0
M  V30 127 H 8.0767 5.71339 1.37281 0
M  V30 128 H 9.6007 5.65487 2.3034 0
M  V30 129 H 11.0147 5.7329 0.033305 0
M  V30 130 H 9.4117 5.95699 -0.725486 0
M  V30 131 H 10.4817 4.66917 -1.30828 0
M  V30 132 N 11.8248 0.280983 1.55075 0
M  V30 133 C 12.7348 -0.61388 2.26426 0
M  V30 134 C 13.7508 -1.16521 1.29224 0
M  V30 135 O 14.9268 -1.19426 1.62171 0
M  V30 136 C 11.9918 -1.7788 2.9759 0
M  V30 137 C 11.0528 -1.26355 4.10284 0
M  V30 138 C 10.2858 -2.37295 4.78045 0
M  V30 139 O 10.5088 -3.56777 4.45047 0
M  V30 140 O 9.4428 -2.05119 5.65871 0
M  V30 141 H 13.2688 -0.0356932 3.03679 0
M  V30 142 H 10.8538 0.0481686 1.49322 0
M  V30 143 H 12.7358 -2.45791 3.42293 0
M  V30 144 H 11.4108 -2.34397 2.23249 0
M  V30 145 H 10.3178 -0.550735 3.70024 0
M  V30 146 H 11.6508 -0.744065 4.86543 0
M  V30 147 N 13.3029 -1.57598 0.00835791 0
M  V30 148 C 14.2329 -2.1198 -0.979113 0
M  V30 149 C 15.2139 -1.03091 -1.35301 0
M  V30 150 O 16.3989 -1.30818 -1.43528 0
M  V30 151 C 13.5289 -2.62995 -2.26828 0
M  V30 152 C 12.4829 -3.76485 -2.03576 0
M  V30 153 C 11.8089 -4.13846 -3.38579 0
M  V30 154 C 13.1089 -5.0342 -1.39161 0
M  V30 155 H 14.8029 -2.94738 -0.526281 0
M  V30 156 H 12.3489 -1.41783 -0.251704 0
M  V30 157 H 14.3019 -2.99669 -2.96271 0
M  V30 158 H 13.0259 -1.7737 -2.7424 0
M  V30 159 H 11.6849 -3.40217 -1.36557 0
M  V30 160 H 11.3329 -3.25232 -3.83709 0
M  V30 161 H 11.0329 -4.90312 -3.23834 0
M  V30 162 H 12.5569 -4.53086 -4.09323 0
M  V30 163 H 13.9709 -5.37812 -1.98573 0
M  V30 164 H 12.3679 -5.84746 -1.34878 0
M  V30 165 H 13.4379 -4.83548 -0.361868 0
M  V30 166 N 14.781 0.264519 -1.55364 0
M  V30 167 C 16.009 1.013 -1.80405 0
M  V30 168 C 16.424 1.79618 -0.581622 0
M  V30 169 O 15.781 1.76879 0.449468 0
M  V30 170 C 15.832 1.96487 -3.03439 0
M  V30 171 O 15.553 1.21341 -4.20961 0
M  V30 172 C 17.054 2.83079 -3.41147 0
M  V30 173 H 14.274 0.298875 -0.600762 0
M  V30 174 H 16.818 0.292736 -2.02394 0
M  V30 175 H 14.973 2.63965 -2.83551 0
M  V30 176 H 15.387 1.85573 -4.90574 0
M  V30 177 H 16.861 3.4565 -4.30384 0
M  V30 178 H 17.338 3.53286 -2.60932 0
M  V30 179 H 17.944 2.2108 -3.63323 0
M  V30 180 N 16.2591 1.48442 0.529413 0
M  V30 181 C 17.1691 1.6569 1.66084 0
M  V30 182 C 18.1851 0.539432 1.65427 0
M  V30 183 O 19.3611 0.810572 1.84368 0
M  V30 184 C 16.4261 1.69315 3.02545 0
M  V30 185 C 15.4871 2.92694 3.14052 0
M  V30 186 C 14.7201 2.96137 4.44003 0
M  V30 187 O 14.9431 2.07973 5.31134 0
M  V30 188 O 13.8771 3.88312 4.59888 0
M  V30 189 H 17.7031 2.61483 1.54469 0
M  V30 190 H 15.2881 1.3185 0.702567 0
M  V30 191 H 17.1701 1.74217 3.83701 0
M  V30 192 H 15.8451 0.766966 3.14483 0
M  V30 193 H 14.7521 2.93324 2.32189 0
M  V30 194 H 16.0851 3.84699 3.0703 0
M  V30 195 N 17.7372 -0.778329 1.37039 0
M  V30 196 C 18.6672 -1.90546 1.34962 0
M  V30 197 C 19.6482 -1.68681 0.219274 0
M  V30 198 O 20.8332 -1.89634 0.418624 0
M  V30 199 C 17.9632 -3.27734 1.14925 0
M  V30 200 C 16.9172 -3.64147 2.24902 0
M  V30 201 C 16.2432 -4.99806 1.89996 0
M  V30 202 C 17.5432 -3.71579 3.67051 0
M  V30 203 H 19.2372 -1.92541 2.29277 0
M  V30 204 H 16.7832 -0.924948 1.10366 0
M  V30 205 H 18.7362 -4.06215 1.12104 0
M  V30 206 H 17.4602 -3.26154 0.170631 0
M  V30 207 H 16.1192 -2.8797 2.26868 0
M  V30 208 H 15.7672 -4.94759 0.906796 0
M  V30 209 H 15.4672 -5.25139 2.63634 0
M  V30 210 H 16.9912 -5.80694 1.88749 0
M  V30 211 H 18.4052 -4.40227 3.67251 0
M  V30 212 H 16.8022 -4.08405 4.39688 0
M  V30 213 H 17.8722 -2.72404 4.01154 0
M  V30 214 N 19.2153 -1.21501 -1.00376 0
M  V30 215 C 20.1473 -0.933174 -2.09343 0
M  V30 216 C 21.1603 0.0840896 -1.62583 0
M  V30 217 O 22.3493 -0.148563 -1.77881 0
M  V30 218 C 19.4493 -0.379869 -3.36764 0
M  V30 219 C 18.6223 -1.45176 -4.12605 0
M  V30 220 C 17.6813 -0.907476 -5.18316 0
M  V30 221 O 16.7073 -1.5912 -5.46507 0
M  V30 222 N 17.9093 0.276649 -5.7984 0
M  V30 223 H 20.6743 -1.87124 -2.34104 0
M  V30 224 H 18.2353 -1.12043 -1.16867 0
M  V30 225 H 20.2273 -0.00131488 -4.047 0
M  V30 226 H 18.7973 0.463048 -3.09151 0
M  V30 227 H 18.0173 -2.00411 -3.39454 0
M  V30 228 H 19.3053 -2.17328 -4.6005 0
M  V30 229 H 18.7033 0.849147 -5.59291 0
M  V30 230 H 17.2603 0.596702 -6.49063 0
M  V30 231 N 20.6934 1.19889 -1.02296 0
M  V30 232 C 21.6414 2.24938 -0.592081 0
M  V30 233 C 22.6354 1.65257 0.372357 0
M  V30 234 O 23.8414 1.78371 0.241583 0
M  V30 235 H 20.2164 0.731787 -0.173182 0
M  V30 236 H 22.1874 2.58603 -1.48885 0
M  V30 237 C 20.9364 3.47668 0.047351 0
M  V30 238 H 20.2594 3.93875 -0.685772 0
M  V30 239 H 21.6994 4.22852 0.311862 0
M  V30 240 C 20.1584 3.11136 1.29212 0
M  V30 241 O 20.6884 3.2325 2.38479 0
M  V30 242 N 18.8944 2.65625 1.17863 0
M  V30 243 H 18.4414 2.55968 0.289493 0
M  V30 244 H 18.3994 2.41553 2.01245 0
M  V30 245 N 22.1715 0.800033 1.35784 0
M  V30 246 C 23.1045 0.151499 2.27697 0
M  V30 247 C 24.0825 -0.678663 1.4776 0
M  V30 248 O 25.2665 -0.647358 1.77035 0
M  V30 249 C 22.3935 -0.790492 3.29346 0
M  V30 250 C 21.4395 -0.0407832 4.26481 0
M  V30 251 S 22.2725 1.29077 5.19711 0
M  V30 252 C 23.4285 0.353055 6.24903 0
M  V30 253 H 23.6615 0.930796 2.82353 0
M  V30 254 H 21.1945 0.594767 1.42485 0
M  V30 255 H 23.1525 -1.3285 3.88409 0
M  V30 256 H 21.8135 -1.54312 2.73581 0
M  V30 257 H 21.0065 -0.755971 4.98298 0
M  V30 258 H 20.6085 0.427063 3.71554 0
M  V30 259 H 22.9005 -0.464147 6.75908 0
M  V30 260 H 23.8435 1.04023 7.00418 0
M  V30 261 H 24.2515 -0.0483344 5.64479 0
M  V30 262 N 23.6496 -1.47581 0.552962 0
M  V30 263 C 24.8776 -2.06875 0.0320556 0
M  V30 264 C 25.2926 -1.40625 -1.25976 0
M  V30 265 O 24.6496 -0.501349 -1.75479 0
M  V30 266 C 24.7006 -3.61092 -0.17167 0
M  V30 267 O 24.4216 -4.24858 1.06899 0
M  V30 268 C 25.9226 -4.37242 -0.730344 0
M  V30 269 H 23.1426 -0.669561 0.043915 0
M  V30 270 H 25.6866 -1.89646 0.765163 0
M  V30 271 H 23.8416 -3.7785 -0.854894 0
M  V30 272 H 24.2556 -5.17334 0.864059 0
M  V30 273 H 25.7296 -5.45842 -0.822203 0
M  V30 274 H 26.2066 -4.03235 -1.74064 0
M  V30 275 H 26.8126 -4.25219 -0.0829543 0
M  V30 276 N 25.1277 -0.289203 -1.54924 0
M  V30 277 C 26.3737 0.323998 -2.00195 0
M  V30 278 C 26.7067 1.54441 -1.17735 0
M  V30 279 O 25.9817 1.92875 -0.250878 0
M  V30 280 C 26.2647 0.692276 -3.53383 0
M  V30 281 C 26.1177 -0.536457 -4.46589 0
M  V30 282 C 27.4367 1.52335 -4.12895 0
M  V30 283 H 24.5557 0.116289 -0.727768 0
M  V30 284 H 27.1977 -0.398954 -1.85764 0
M  V30 285 H 25.3477 1.30822 -3.65811 0
M  V30 286 H 27.0197 -1.17499 -4.46085 0
M  V30 287 H 25.2627 -1.17192 -4.1767 0
M  V30 288 H 25.9337 -0.234806 -5.515 0
M  V30 289 H 28.4097 1.00302 -4.0383 0
M  V30 290 H 27.2857 1.74982 -5.20262 0
M  V30 291 H 27.5467 2.50886 -3.64018 0
M  V30 292 N 26.6058 1.57591 -0.0167156 0
M  V30 293 C 28.0168 1.79201 0.523834 0
M  V30 294 C 28.3678 0.925796 1.72984 0
M  V30 295 O 27.4928 0.132792 2.15992 0
M  V30 296 C 28.0878 3.25 0.957091 0
M  V30 297 C 26.6468 3.47648 1.44283 0
M  V30 298 C 25.7938 2.74374 0.401757 0
M  V30 299 H 28.7448 1.56831 -0.242816 0
M  V30 300 H 28.7658 3.34031 1.82219 0
M  V30 301 H 28.2778 3.88019 0.0791415 0
M  V30 302 H 26.3788 2.89866 2.34113 0
M  V30 303 H 26.4918 4.56352 1.45877 0
M  V30 304 H 24.8558 2.39485 0.867121 0
M  V30 305 H 25.6388 3.40102 -0.467513 0
M  V30 306 N 28.0839 -0.256276 1.55502 0
M  V30 307 C 28.9939 -1.33882 1.92647 0
M  V30 308 C 30.0099 -1.53159 0.825727 0
M  V30 309 O 31.1859 -1.66963 1.12629 0
M  V30 310 C 28.2509 -2.6751 2.20543 0
M  V30 311 C 27.3119 -2.56836 3.43997 0
M  V30 312 C 26.5449 -3.84092 3.70553 0
M  V30 313 O 26.7679 -4.85545 2.99336 0
M  V30 314 O 25.7019 -3.83288 4.64084 0
M  V30 315 H 29.5279 -1.05374 2.84833 0
M  V30 316 H 27.1129 -0.456237 1.42263 0
M  V30 317 H 28.9949 -3.46492 2.39835 0
M  V30 318 H 27.6699 -2.9577 1.31536 0
M  V30 319 H 26.5769 -1.76172 3.30021 0
M  V30 320 H 27.9099 -2.33523 4.33275 0
M  V30 321 N 29.562 -1.4872 -0.521534 0
M  V30 322 C 30.839 -1.4766 -1.2828 0
M  V30 323 C 31.219 -0.19292 -2.10217 0
M  V30 324 O 30.567 0.825193 -2.13079 0
M  V30 325 C 30.777 -2.74358 -2.15705 0
M  V30 326 C 32.125 -3.23028 -2.75569 0
M  V30 327 O 33.149 -2.75333 -2.25987 0
M  V30 328 O 32.008 -4.0604 -3.65778 0
M  V30 329 H 29.102 -0.590085 -0.579421 0
M  V30 330 H 31.648 -1.60963 -0.537492 0
M  V30 331 H 30.42 -3.59292 -1.54999 0
M  V30 332 H 30.043 -2.63816 -2.97467 0
M  V30 333 N 31.0401 0.771051 -1.3745 0
M  V30 334 C 32.3171 1.519 -1.23231 0
M  V30 335 C 32.6971 2.10383 0.173809 0
M  V30 336 O 32.0451 1.95583 1.18151 0
M  V30 337 C 32.2551 2.59933 -2.32886 0
M  V30 338 C 33.6031 3.27316 -2.70461 0
M  V30 339 O 34.6271 2.70228 -2.32068 0
M  V30 340 O 33.4861 4.30531 -3.36608 0
M  V30 341 H 30.5801 0.672803 -0.480901 0
M  V30 342 H 33.1261 0.807957 -1.49232 0
M  V30 343 H 31.8981 2.14842 -3.27045 0
M  V30 344 H 31.5211 3.38637 -2.08353 0
M  V30 345 N 32.5182 1.22032 0.997298 0
M  V30 346 C 33.4662 0.983634 2.10778 0
M  V30 347 C 34.4602 -0.0717564 1.69248 0
M  V30 348 O 35.6662 0.080304 1.79821 0
M  V30 349 H 32.0412 0.300877 0.689186 0
M  V30 350 H 34.0122 1.92606 2.27916 0
M  V30 351 C 32.7612 0.57326 3.42942 0
M  V30 352 H 32.0842 1.37702 3.75338 0
M  V30 353 H 33.5242 0.447031 4.21637 0
M  V30 354 C 31.9832 -0.7167 3.29188 0
M  V30 355 O 32.5132 -1.77027 3.60589 0
M  V30 356 N 30.7192 -0.686167 2.82383 0
M  V30 357 H 30.2662 0.171507 2.57028 0
M  V30 358 H 30.2242 -1.54955 2.73562 0
M  V30 359 N 33.9963 -1.19345 1.0293 0
M  V30 360 C 35.2453 -1.88363 0.721256 0
M  V30 361 C 35.5583 -1.80514 -0.753254 0
M  V30 362 O 36.7643 -2.44788 -1.17436 0
M  V30 363 C 35.2203 -3.37872 1.23978 0
M  V30 364 C 34.8283 -3.54278 2.74211 0
M  V30 365 C 36.5723 -4.12365 1.00775 0
M  V30 366 C 34.4793 -4.97682 3.19479 0
M  V30 367 H 33.4093 -0.705484 0.266098 0
M  V30 368 H 36.0603 -1.34928 1.24365 0
M  V30 369 H 34.4423 -3.90707 0.6453 0
M  V30 370 H 35.6163 -3.11769 3.39318 0
M  V30 371 H 33.9313 -2.93174 2.95699 0
M  V30 372 H 36.5283 -5.18119 1.32123 0
M  V30 373 H 36.8713 -4.16263 -0.0554308 0
M  V30 374 H 37.4043 -3.65668 1.56625 0
M  V30 375 H 34.1433 -4.98945 4.25128 0
M  V30 376 H 33.6633 -5.4095 2.591 0
M  V30 377 H 35.3423 -5.66337 3.12845 0
M  V30 378 N 35.4744 -0.807222 -1.35358 0
M  V30 379 C 36.6994 -0.399309 -2.0352 0
M  V30 380 C 37.1244 0.981986 -1.60433 0
M  V30 381 O 36.4824 1.63601 -0.781299 0
M  V30 382 C 36.5304 -0.491552 -3.57234 0
M  V30 383 O 35.6344 0.494754 -4.09421 0
M  V30 384 H 34.9754 -0.166682 -0.642739 0
M  V30 385 H 37.5054 -1.09328 -1.72941 0
M  V30 386 H 37.5154 -0.361588 -4.06395 0
M  V30 387 H 36.1904 -1.49907 -3.87944 0
M  V30 388 H 34.7674 0.324977 -3.71481 0
M  V30 389 N 36.9525 1.47285 -0.560781 0
M  V30 390 C 37.9005 2.31756 0.197942 0
M  V30 391 C 38.8945 1.43146 0.905854 0
M  V30 392 O 40.1005 1.59891 0.826733 0
M  V30 393 H 36.4755 0.747438 0.0827049 0
M  V30 394 H 38.4465 2.9359 -0.533629 0
M  V30 395 C 37.1955 3.25874 1.21249 0
M  V30 396 H 36.5185 3.94023 0.67719 0
M  V30 397 H 37.9585 3.87803 1.71419 0
M  V30 398 C 36.4175 2.49651 2.26221 0
M  V30 399 O 36.9475 2.24355 3.33208 0
M  V30 400 N 35.1535 2.10597 2.00243 0
M  V30 401 H 34.7005 2.31369 1.13252 0
M  V30 402 H 34.6585 1.59913 2.70694 0
M  V30 403 N 38.4306 0.297415 1.54768 0
M  V30 404 C 39.7076 -0.365847 1.92148 0
M  V30 405 C 40.0876 -1.71975 1.22424 0
M  V30 406 O 39.4356 -2.25666 0.358739 0
M  V30 407 C 39.6456 -0.484056 3.45627 0
M  V30 408 C 40.9936 -0.756594 4.17805 0
M  V30 409 O 42.0176 -0.568007 3.51642 0
M  V30 410 O 40.8766 -1.11863 5.34929 0
M  V30 411 H 37.9706 -0.203919 0.801465 0
M  V30 412 H 40.5166 0.34521 1.66152 0
M  V30 413 H 39.2886 0.467865 3.88493 0
M  V30 414 H 38.9116 -1.24372 3.77647 0
M  V30 415 N 39.9087 -1.5758 0.0250728 0
M  V30 416 C 41.1337 -1.96337 -0.668317 0
M  V30 417 C 41.5587 -0.901314 -1.651 0
M  V30 418 O 40.9167 0.138187 -1.80773 0
M  V30 419 C 40.9647 -3.34191 -1.35457 0
M  V30 420 O 40.0687 -3.30269 -2.46974 0
M  V30 421 H 39.4097 -0.640281 -0.175887 0
M  V30 422 H 41.9397 -2.0442 0.0857224 0
M  V30 423 H 41.9497 -3.70331 -1.71228 0
M  V30 424 H 40.6247 -4.11036 -0.634218 0
M  V30 425 H 39.2017 -3.05841 -2.13344 0
M  V30 426 N 41.3868 0.248026 -1.55636 0
M  V30 427 C 42.3348 1.32683 -1.91045 0
M  V30 428 C 43.3288 1.49883 -0.789401 0
M  V30 429 O 44.5348 1.51371 -0.974007 0
M  V30 430 H 40.9098 0.444272 -0.606734 0
M  V30 431 H 42.8808 1.00085 -2.81115 0
M  V30 432 C 41.6298 2.6755 -2.22064 0
M  V30 433 H 40.9528 2.55114 -3.07826 0
M  V30 434 H 42.3928 3.41912 -2.50743 0
M  V30 435 C 40.8518 3.20556 -1.0366 0
M  V30 436 O 41.3818 4.00695 -0.284016 0
M  V30 437 N 39.5878 2.78568 -0.82753 0
M  V30 438 H 39.1348 2.1351 -1.44123 0
M  V30 439 H 39.0928 3.14378 -0.0369803 0
M  V30 440 N 42.8649 1.48995 0.513639 0
M  V30 441 C 44.1419 1.48338 1.27495 0
M  V30 442 C 44.5219 0.204065 2.10111 0
M  V30 443 O 43.8699 -0.813881 2.13514 0
M  V30 444 C 44.0799 2.75498 2.14247 0
M  V30 445 C 45.4279 3.24484 2.73852 0
M  V30 446 O 46.4519 2.76528 2.24523 0
M  V30 447 O 45.3109 4.07974 3.6362 0
M  V30 448 H 42.4049 0.593149 0.576284 0
M  V30 449 H 44.9509 1.61246 0.528948 0
M  V30 450 H 43.7229 3.60109 1.53092 0
M  V30 451 H 43.3459 2.6539 2.96064 0
M  V30 452 N 44.343 -0.763751 1.37857 0
M  V30 453 C 45.59 -1.52257 1.33506 0
M  V30 454 C 45.918 -1.94343 -0.078022 0
M  V30 455 O 45.173 -1.64958 -1.05297 0
M  V30 456 C 45.472 -2.79499 2.22745 0
M  V30 457 C 45.138 -2.56426 3.70886 0
M  V30 458 C 43.8 -2.49842 4.11257 0
M  V30 459 C 46.152 -2.36008 4.64704 0
M  V30 460 C 43.48 -2.20841 5.43549 0
M  V30 461 C 45.832 -2.0853 5.97242 0
M  V30 462 C 44.496 -2.00396 6.36709 0
M  V30 463 H 43.766 -0.557149 0.488534 0
M  V30 464 H 46.413 -0.879073 1.70131 0
M  V30 465 H 44.718 -3.48447 1.79142 0
M  V30 466 H 46.415 -3.37413 2.16688 0
M  V30 467 H 43.005 -2.62416 3.38874 0
M  V30 468 H 47.189 -2.40079 4.34368 0
M  V30 469 H 42.445 -2.13045 5.73081 0
M  V30 470 H 46.619 -1.91732 6.69486 0
M  V30 471 H 44.246 -1.77688 7.39142 0
M  V30 472 N 45.8211 -1.22559 -0.990812 0
M  V30 473 C 47.0491 -1.07779 -1.76611 0
M  V30 474 C 47.4641 0.371513 -1.85109 0
M  V30 475 O 46.8211 1.25737 -1.32274 0
M  V30 476 C 46.8721 -1.68512 -3.19822 0
M  V30 477 O 46.5931 -3.07774 -3.1178 0
M  V30 478 C 48.0941 -1.59035 -4.13791 0
M  V30 479 H 45.3141 -0.377729 -0.554583 0
M  V30 480 H 47.8581 -1.62195 -1.24551 0
M  V30 481 H 46.0131 -1.18154 -3.68942 0
M  V30 482 H 46.4271 -3.37062 -4.01858 0
M  V30 483 H 47.9011 -2.0625 -5.1202 0
M  V30 484 H 48.3781 -0.547273 -4.35777 0
M  V30 485 H 48.9841 -2.08709 -3.70568 0
M  V30 486 N 47.2992 1.18797 -1.03562 0
M  V30 487 C 48.2092 2.25913 -0.632505 0
M  V30 488 C 49.2252 1.70668 0.338882 0
M  V30 489 O 50.4012 2.00453 0.195076 0
M  V30 490 C 47.4662 3.467 0.00350942 0
M  V30 491 C 46.5272 4.17098 -1.01624 0
M  V30 492 C 45.7602 5.32119 -0.410478 0
M  V30 493 O 45.9832 5.64976 0.784725 0
M  V30 494 O 44.9172 5.9107 -1.13667 0
M  V30 495 H 48.7432 2.62648 -1.52478 0
M  V30 496 H 46.3282 1.25781 -0.806195 0
M  V30 497 H 48.2102 4.19878 0.35781 0
M  V30 498 H 46.8852 3.11798 0.869686 0
M  V30 499 H 45.7922 3.4601 -1.42224 0
M  V30 500 H 47.1252 4.55987 -1.85301 0
M  V30 501 N 48.7773 0.814389 1.34928 0
M  V30 502 C 50.0233 0.399013 1.98836 0
M  V30 503 C 50.3563 -1.03314 1.64438 0
M  V30 504 O 49.6313 -1.71811 0.911659 0
M  V30 505 C 49.9143 0.591629 3.55207 0
M  V30 506 C 49.7673 2.06928 3.99376 0
M  V30 507 C 51.0863 0.022199 4.40094 0
M  V30 508 H 48.2053 0.146451 0.722303 0
M  V30 509 H 50.8473 1.02537 1.59957 0
M  V30 510 H 48.9973 0.0584441 3.88456 0
M  V30 511 H 50.6693 2.66544 3.76499 0
M  V30 512 H 48.9123 2.56287 3.49999 0
M  V30 513 H 49.5833 2.1549 5.08201 0
M  V30 514 H 52.0593 0.477643 4.13349 0
M  V30 515 H 50.9353 0.186832 5.48582 0
M  V30 516 H 51.1963 -1.07215 4.28902 0
M  V30 517 N 50.2554 -1.46986 0.568584 0
M  V30 518 C 51.1654 -2.33942 -0.17555 0
M  V30 519 C 52.1814 -1.48891 -0.90041 0
M  V30 520 O 53.3574 -1.81794 -0.86676 0
M  V30 521 C 50.4224 -3.25811 -1.18524 0
M  V30 522 C 49.4834 -4.26757 -0.466582 0
M  V30 523 C 48.7164 -5.14236 -1.42817 0
M  V30 524 O 48.9394 -5.04379 -2.66379 0
M  V30 525 O 47.8734 -5.94412 -0.946453 0
M  V30 526 H 51.6994 -2.98896 0.538036 0
M  V30 527 H 49.2844 -1.4573 0.329097 0
M  V30 528 H 51.1664 -3.82527 -1.76779 0
M  V30 529 H 49.8414 -2.63471 -1.88055 0
M  V30 530 H 48.7484 -3.73769 0.157451 0
M  V30 531 H 50.0814 -4.91843 0.187485 0
M  V30 532 N 51.7335 -0.305618 -1.54608 0
M  V30 533 C 52.6815 0.584119 -2.25146 0
M  V30 534 C 53.6755 1.13326 -1.25911 0
M  V30 535 O 54.8815 1.08337 -1.43747 0
M  V30 536 H 51.2565 0.206983 -0.722954 0
M  V30 537 H 53.2275 -0.033291 -2.98381 0
M  V30 538 C 51.9765 1.74225 -3.009 0
M  V30 539 H 51.2995 1.32892 -3.77067 0
M  V30 540 H 52.7395 2.34077 -3.53531 0
M  V30 541 C 51.1985 2.64914 -2.0814 0
M  V30 542 O 51.7285 3.66137 -1.65246 0
M  V30 543 N 49.9345 2.3275 -1.74 0
M  V30 544 H 49.4815 1.50479 -2.09078 0
M  V30 545 H 49.4395 2.93694 -1.12211 0
M  V30 546 N 53.2116 1.57565 -0.0334293 0
M  V30 547 C 54.4596 1.91598 0.642999 0
M  V30 548 C 54.7806 0.910847 1.7242 0
M  V30 549 O 54.0506 -0.0469931 1.95844 0
M  V30 550 H 52.6306 0.707228 0.240496 0
M  V30 551 H 55.2926 1.94726 -0.0822488 0
M  V30 552 H 54.3886 2.92336 1.09298 0
M  V30 553 N 54.6897 -0.239769 1.55765 0
M  V30 554 C 55.6217 -1.32001 1.87372 0
M  V30 555 C 56.6347 -1.43944 0.760522 0
M  V30 556 O 57.8237 -1.45167 1.0387 0
M  V30 557 C 54.9237 -2.69779 2.05115 0
M  V30 558 C 54.0967 -2.80014 3.36022 0
M  V30 559 C 53.1557 -3.98684 3.4342 0
M  V30 560 O 52.1817 -3.87877 4.16582 0
M  V30 561 N 53.3837 -5.12176 2.73232 0
M  V30 562 H 56.1487 -1.0522 2.80622 0
M  V30 563 H 53.7097 -0.429857 1.56089 0
M  V30 564 H 55.7017 -3.47517 2.07399 0
M  V30 565 H 54.2717 -2.89237 1.18577 0
M  V30 566 H 53.4917 -1.88896 3.45994 0
M  V30 567 H 54.7797 -2.83808 4.22292 0
M  V30 568 H 54.1777 -5.2385 2.13536 0
M  V30 569 H 52.7347 -5.88022 2.81199 0
M  V30 570 N 56.1678 -1.49265 -0.50573 0
M  V30 571 C 57.4168 -1.57761 -1.25675 0
M  V30 572 C 57.7298 -0.267371 -1.93764 0
M  V30 573 O 58.9358 -0.230827 -2.70517 0
M  V30 574 C 57.3918 -2.78332 -2.28165 0
M  V30 575 C 56.9998 -4.16096 -1.66037 0
M  V30 576 C 58.7438 -2.96155 -3.04125 0
M  V30 577 C 56.6508 -5.27895 -2.6661 0
M  V30 578 H 55.5808 -0.587391 -0.472745 0
M  V30 579 H 58.2318 -1.75644 -0.53118 0
M  V30 580 H 56.6138 -2.53934 -3.03865 0
M  V30 581 H 57.7878 -4.50612 -0.963622 0
M  V30 582 H 56.1028 -4.03591 -1.02484 0
M  V30 583 H 58.6998 -3.76849 -3.79327 0
M  V30 584 H 59.0428 -2.06534 -3.61455 0
M  V30 585 H 59.5758 -3.2057 -2.35541 0
M  V30 586 H 56.3148 -6.1956 -2.14068 0
M  V30 587 H 55.8348 -4.97839 -3.34539 0
M  V30 588 H 57.5138 -5.57031 -3.29129 0
M  V30 589 N 57.6459 0.756429 -1.3826 0
M  V30 590 C 58.5939 1.89149 -1.35372 0
M  V30 591 C 59.5879 1.67691 -0.24004 0
M  V30 592 O 60.7939 1.75294 -0.408919 0
M  V30 593 H 57.1689 0.622271 -0.422236 0
M  V30 594 H 59.1399 1.88701 -2.31159 0
M  V30 595 C 57.8889 3.26599 -1.19284 0
M  V30 596 H 57.2119 3.43695 -2.0424 0
M  V30 597 H 58.6519 4.06274 -1.21316 0
M  V30 598 C 57.1109 3.3675 0.100454 0
M  V30 599 O 57.6409 3.86951 1.07851 0
M  V30 600 N 55.8469 2.90179 0.15633 0
M  V30 601 H 55.3939 2.49517 -0.640253 0
M  V30 602 H 55.3519 2.97352 1.02123 0
M  V30 603 N 59.124 1.23083 0.984299 0
M  V30 604 C 60.349 1.088 1.76571 0
M  V30 605 C 60.774 -0.356657 1.84688 0
M  V30 606 O 60.132 -1.25788 1.30565 0
M  V30 607 C 60.18 1.71371 3.17277 0
M  V30 608 O 59.284 0.973213 4.00752 0
M  V30 609 H 58.625 0.381599 0.543395 0
M  V30 610 H 61.155 1.63057 1.23587 0
M  V30 611 H 61.165 1.76449 3.67872 0
M  V30 612 H 59.84 2.76493 3.10684 0
M  V30 613 H 58.417 0.999078 3.59267 0
M  V30 614 N 60.6021 -1.18246 1.0419 0
M  V30 615 C 61.5491 -2.2192 0.634037 0
M  V30 616 C 62.5191 -1.62179 -0.358765 0
M  V30 617 O 63.7041 -1.89122 -0.252466 0
M  V30 618 C 60.8441 -3.451 0.00445535 0
M  V30 619 C 59.9571 -4.19174 1.04487 0
M  V30 620 C 59.0921 -5.29813 0.383676 0
M  V30 621 C 58.1311 -5.9566 1.4091 0
M  V30 622 N 57.2681 -6.97834 0.772784 0
M  V30 623 H 62.1081 -2.56164 1.52263 0
M  V30 624 H 59.6451 -1.25843 0.761701 0
M  V30 625 H 61.6031 -4.15485 -0.377919 0
M  V30 626 H 60.2331 -3.11472 -0.847652 0
M  V30 627 H 59.2851 -3.47604 1.54518 0
M  V30 628 H 60.5971 -4.64267 1.82368 0
M  V30 629 H 59.7511 -6.06677 -0.0528366 0
M  V30 630 H 58.4901 -4.85825 -0.427208 0
M  V30 631 H 57.4951 -5.17535 1.85574 0
M  V30 632 H 58.7201 -6.4173 2.22171 0
M  V30 633 H 56.6661 -6.55998 -0.0177708 0
M  V30 634 H 56.5831 -7.41186 1.48928 0
M  V30 635 H 57.8511 -7.78665 0.36071 0
M  V30 636 N 62.0802 -0.821533 -1.34494 0
M  V30 637 C 63.3272 -0.408946 -1.98328 0
M  V30 638 C 63.6552 1.02764 -1.65136 0
M  V30 639 O 62.9102 1.73026 -0.914349 0
M  V30 640 C 63.2092 -0.556512 -3.53041 0
M  V30 641 C 62.8752 -1.95861 -4.0614 0
M  V30 642 C 61.5372 -2.34217 -4.20352 0
M  V30 643 C 63.8892 -2.87523 -4.34718 0
M  V30 644 C 61.2172 -3.63572 -4.6047 0
M  V30 645 C 63.5692 -4.1634 -4.76281 0
M  V30 646 C 62.2332 -4.54675 -4.88699 0
M  V30 647 H 61.5032 -0.149644 -0.725732 0
M  V30 648 H 64.1502 -1.04521 -1.6046 0
M  V30 649 H 62.4552 0.163148 -3.9146 0
M  V30 650 H 64.1522 -0.217826 -4.00408 0
M  V30 651 H 60.7422 -1.65066 -3.95539 0
M  V30 652 H 64.9262 -2.59133 -4.23277 0
M  V30 653 H 60.1822 -3.93101 -4.68275 0
M  V30 654 H 64.3562 -4.87455 -4.97354 0
M  V30 655 H 61.9832 -5.54959 -5.19542 0
M  V30 656 N 63.5583 1.46682 -0.576371 0
M  V30 657 C 64.8073 2.01619 -0.0572825 0
M  V30 658 C 65.1203 1.45417 1.30818 0
M  V30 659 O 66.3263 1.92133 1.91825 0
M  V30 660 C 64.7823 3.59863 -0.0518371 0
M  V30 661 C 64.3903 4.25059 -1.41523 0
M  V30 662 C 66.1343 4.2248 0.413639 0
M  V30 663 C 64.0413 5.75364 -1.36785 0
M  V30 664 H 62.9713 0.753794 -0.0176448 0
M  V30 665 H 65.6223 1.68481 -0.727076 0
M  V30 666 H 64.0043 3.90048 0.683994 0
M  V30 667 H 65.1783 4.06491 -2.17029 0
M  V30 668 H 63.4933 3.7451 -1.8202 0
M  V30 669 H 66.0903 5.3265 0.467779 0
M  V30 670 H 66.4333 3.90976 1.42982 0
M  V30 671 H 66.9663 3.96897 -0.267929 0
M  V30 672 H 63.7053 6.11518 -2.36063 0
M  V30 673 H 63.2253 5.96214 -0.654895 0
M  V30 674 H 64.9043 6.37955 -1.07805 0
M  V30 675 N 65.0364 0.313813 1.54444 0
M  V30 676 C 66.2614 -0.296681 2.05267 0
M  V30 677 C 66.6864 -1.45757 1.18897 0
M  V30 678 O 66.0444 -1.80239 0.195886 0
M  V30 679 C 66.0924 -0.71831 3.53373 0
M  V30 680 O 65.1964 -1.82175 3.69981 0
M  V30 681 H 64.5374 -0.0554061 0.661684 0
M  V30 682 H 67.0674 0.459387 1.99376 0
M  V30 683 H 67.0774 -1.00364 3.95463 0
M  V30 684 H 65.7524 0.130821 4.15694 0
M  V30 685 H 64.3294 -1.53598 3.39797 0
M  V30 686 N 66.5145 -1.57545 0.0417849 0
M  V30 687 C 67.7915 -1.83642 -0.673433 0
M  V30 688 C 68.1715 -0.928298 -1.89594 0
M  V30 689 O 67.5195 0.0129955 -2.28496 0
M  V30 690 C 67.7295 -3.33155 -1.03964 0
M  V30 691 C 69.0775 -3.99941 -1.42592 0
M  V30 692 O 70.1015 -3.37725 -1.13226 0
M  V30 693 O 68.9605 -5.09619 -1.9736 0
M  V30 694 H 66.0545 -0.757638 -0.331533 0
M  V30 695 H 68.6005 -1.69554 0.070433 0
M  V30 696 H 67.3725 -3.9093 -0.170098 0
M  V30 697 H 66.9955 -3.52396 -1.84126 0
M  V30 698 N 67.9926 0.231505 -1.5589 0
M  V30 699 C 69.4086 0.580748 -1.48659 0
M  V30 700 C 69.6086 1.87617 -0.73498 0
M  V30 701 O 68.6646 2.51046 -0.270586 0
M  V30 702 C 69.9776 0.669202 -2.93159 0
M  V30 703 C 71.5256 0.760499 -3.03621 0
M  V30 704 C 72.0006 0.880383 -4.49459 0
M  V30 705 N 73.4916 0.944861 -4.53461 0
M  V30 706 C 74.2266 1.05716 -5.63571 0
M  V30 707 N 73.7226 1.13403 -6.83456 0
M  V30 708 N 75.5156 1.09152 -5.514 0
M  V30 709 H 67.6666 -0.618695 -2.03189 0
M  V30 710 H 69.9296 -0.215728 -0.923128 0
M  V30 711 H 69.6356 -0.212904 -3.51055 0
M  V30 712 H 69.5096 1.5361 -3.44505 0
M  V30 713 H 71.8966 1.63305 -2.45796 0
M  V30 714 H 71.9776 -0.131864 -2.5546 0
M  V30 715 H 71.6216 0.0123284 -5.07899 0
M  V30 716 H 71.5516 1.78802 -4.95316 0
M  V30 717 H 74.0426 0.896176 -3.6712 0
M  V30 718 H 74.3556 1.21921 -7.63122 0
M  V30 719 H 72.7006 1.10333 -6.86186 0
M  V30 720 H 75.8916 1.02805 -4.56671 0
M  V30 721 H 76.0646 1.17558 -6.37247 0
M  V30 722 N 69.4707 1.49531 0.497807 0
M  V30 723 C 70.3807 1.69176 1.62532 0
M  V30 724 C 71.3967 0.5744 1.64246 0
M  V30 725 O 72.5727 0.849497 1.82608 0
M  V30 726 C 69.6377 1.75695 2.98885 0
M  V30 727 C 68.6987 2.9929 3.07773 0
M  V30 728 C 67.9317 3.05488 4.37622 0
M  V30 729 O 68.1547 2.19192 5.26603 0
M  V30 730 O 67.0887 3.9798 4.51548 0
M  V30 731 H 70.9147 2.647 1.48887 0
M  V30 732 H 68.4997 1.3331 0.674441 0
M  V30 733 H 70.3817 1.82317 3.79919 0
M  V30 734 H 69.0567 0.8335 3.12785 0
M  V30 735 H 67.9637 2.98183 2.25915 0
M  V30 736 H 69.2967 3.91125 2.98801 0
M  V30 737 N 70.9488 -0.749086 1.3866 0
M  V30 738 C 72.1738 -1.54344 1.38538 0
M  V30 739 C 72.5988 -1.88088 -0.0216655 0
M  V30 740 O 71.9568 -1.50899 -1.00494 0
M  V30 741 C 72.0048 -2.8164 2.25192 0
M  V30 742 O 71.1088 -3.7698 1.67212 0
M  V30 743 H 70.4498 -0.466654 0.472367 0
M  V30 744 H 72.9798 -0.925355 1.82478 0
M  V30 745 H 72.9898 -3.30519 2.3921 0
M  V30 746 H 71.6648 -2.56411 3.27454 0
M  V30 747 H 70.2418 -3.35699 1.6236 0
M  V30 748 N 72.4269 -1.23603 -0.977757 0
M  V30 749 C 73.8429 -0.999251 -1.24447 0
M  V30 750 C 74.0429 0.298053 -1.99283 0
M  V30 751 O 73.0989 1.01681 -2.31122 0
M  V30 752 C 74.4119 -2.20784 -2.04144 0
M  V30 753 C 75.9599 -2.25303 -2.17273 0
M  V30 754 C 76.4349 -3.45755 -3.00362 0
M  V30 755 N 77.9259 -3.4601 -3.07947 0
M  V30 756 C 78.6609 -4.35868 -3.72568 0
M  V30 757 N 78.1569 -5.35966 -4.38991 0
M  V30 758 N 79.9499 -4.23605 -3.6948 0
M  V30 759 H 72.1009 -2.06986 -0.476483 0
M  V30 760 H 74.3639 -0.907801 -0.273134 0
M  V30 761 H 74.0699 -3.14945 -1.56533 0
M  V30 762 H 73.9439 -2.22085 -3.04891 0
M  V30 763 H 76.3309 -1.3168 -2.64092 0
M  V30 764 H 76.4119 -2.28033 -1.15907 0
M  V30 765 H 76.0559 -4.39687 -2.5424 0
M  V30 766 H 75.9859 -3.40266 -4.01904 0
M  V30 767 H 78.4769 -2.73588 -2.60688 0
M  V30 768 H 78.7899 -6.00783 -4.86086 0
M  V30 769 H 77.1349 -5.39863 -4.37691 0
M  V30 770 H 80.3259 -3.44647 -3.16759 0
M  V30 771 H 80.4989 -4.93836 -4.1956 0
M  V30 772 N 73.905 1.17692 -1.04816 0
M  V30 773 C 75.321 1.39863 -0.768794 0
M  V30 774 C 75.521 1.91118 0.638451 0
M  V30 775 O 74.577 2.10036 1.40146 0
M  V30 776 C 75.89 2.39274 -1.82122 0
M  V30 777 C 77.438 2.52987 -1.843 0
M  V30 778 C 77.913 3.55669 -2.88555 0
M  V30 779 N 79.404 3.63183 -2.87493 0
M  V30 780 C 80.139 4.42381 -3.64811 0
M  V30 781 N 79.635 5.25125 -4.51903 0
M  V30 782 N 81.428 4.37217 -3.53267 0
M  V30 783 H 73.579 0.82752 -1.95617 0
M  V30 784 H 75.842 0.426123 -0.846831 0
M  V30 785 H 75.548 2.08678 -2.83102 0
M  V30 786 H 75.422 3.38725 -1.65967 0
M  V30 787 H 77.809 2.82896 -0.839869 0
M  V30 788 H 77.89 1.53623 -2.04532 0
M  V30 789 H 77.534 3.26499 -3.89051 0
M  V30 790 H 77.464 4.54728 -2.65575 0
M  V30 791 H 79.955 3.04103 -2.24343 0
M  V30 792 H 80.268 5.82728 -5.07591 0
M  V30 793 H 78.613 5.24519 -4.55966 0
M  V30 794 H 81.804 3.71626 -2.84625 0
M  V30 795 H 81.977 4.98696 -4.13771 0
M  V30 796 N 75.3831 0.828654 1.34056 0
M  V30 797 C 76.6081 0.431637 2.02859 0
M  V30 798 C 77.0331 -0.956339 1.61975 0
M  V30 799 O 76.3911 -1.62338 0.807228 0
M  V30 800 C 76.4391 0.548323 3.56407 0
M  V30 801 O 75.5431 -0.429556 4.10157 0
M  V30 802 H 74.8841 0.176886 0.640006 0
M  V30 803 H 77.4141 1.12066 1.71179 0
M  V30 804 H 77.4241 0.426196 4.05768 0
M  V30 805 H 76.0991 1.5606 3.8551 0
M  V30 806 H 74.6761 -0.265836 3.71951 0
M  V30 807 N 76.8612 -1.46375 0.584142 0
M  V30 808 C 77.7912 -2.33103 -0.136037 0
M  V30 809 C 78.7722 -1.45431 -0.882255 0
M  V30 810 O 79.9572 -1.74246 -0.857434 0
M  V30 811 C 77.0872 -3.27731 -1.14933 0
M  V30 812 C 76.0412 -4.24855 -0.517862 0
M  V30 813 C 75.3672 -5.09001 -1.63773 0
M  V30 814 C 76.6672 -5.19439 0.545886 0
M  V30 815 H 78.3612 -2.93568 0.588086 0
M  V30 816 H 75.9072 -1.41166 0.284259 0
M  V30 817 H 77.8602 -3.87261 -1.66153 0
M  V30 818 H 76.5842 -2.65377 -1.90375 0
M  V30 819 H 75.2432 -3.6659 -0.0267361 0
M  V30 820 H 74.8912 -4.43031 -2.38185 0
M  V30 821 H 74.5912 -5.74777 -1.22085 0
M  V30 822 H 76.1152 -5.71396 -2.15266 0
M  V30 823 H 77.5292 -5.73177 0.118704 0
M  V30 824 H 75.9262 -5.93566 0.88317 0
M  V30 825 H 76.9962 -4.63285 1.43162 0
M  V30 826 N 78.3393 -0.321999 -1.54275 0
M  V30 827 C 79.5673 0.283052 -2.04955 0
M  V30 828 C 79.9823 1.45904 -1.19823 0
M  V30 829 O 79.3393 1.81063 -0.228545 0
M  V30 830 C 79.3903 0.719028 -3.54277 0
M  V30 831 O 79.1113 -0.410175 -4.36176 0
M  V30 832 C 80.6123 1.38705 -4.21041 0
M  V30 833 H 77.8323 0.0584616 -0.668448 0
M  V30 834 H 80.3763 -0.467734 -1.99079 0
M  V30 835 H 78.5313 1.41979 -3.60445 0
M  V30 836 H 78.9453 -0.0669416 -5.24457 0
M  V30 837 H 80.4193 1.64306 -5.2698 0
M  V30 838 H 80.8963 2.33385 -3.72059 0
M  V30 839 H 81.5023 0.728906 -4.19007 0
M  V30 840 N 79.8174 1.5752 -0.0501392 0
M  V30 841 C 80.7654 2.12651 0.942459 0
M  V30 842 C 81.7594 1.05807 1.32292 0
M  V30 843 O 82.9654 1.24217 1.3027 0
M  V30 844 H 79.3404 0.679673 0.321789 0
M  V30 845 H 81.3114 2.94951 0.452356 0
M  V30 846 C 80.0604 2.68565 2.20836 0
M  V30 847 H 79.3834 3.50439 1.92439 0
M  V30 848 H 80.8234 3.10761 2.8845 0
M  V30 849 C 79.2824 1.62291 2.95234 0
M  V30 850 O 79.8124 1.03508 3.88135 0
M  V30 851 N 78.0184 1.33836 2.57946 0
M  V30 852 H 77.5654 1.81826 1.82475 0
M  V30 853 H 77.5234 0.629595 3.08032 0
M  V30 854 N 81.2955 -0.223234 1.56011 0
M  V30 855 C 82.5205 -0.968978 1.83373 0
M  V30 856 C 82.9455 -1.77227 0.630254 0
M  V30 857 O 82.3035 -1.76345 -0.420959 0
M  V30 858 C 82.3515 -1.86363 3.08709 0
M  V30 859 O 81.4555 -2.95873 2.87285 0
M  V30 860 H 80.7965 -0.274461 0.604622 0
M  V30 861 H 83.3265 -0.237056 2.03222 0
M  V30 862 H 83.3365 -2.27376 3.38768 0
M  V30 863 H 82.0115 -1.27319 3.95933 0
M  V30 864 H 80.5885 -2.58818 2.68454 0
M  V30 865 N 82.7736 -1.49793 -0.48987 0
M  V30 866 C 83.7236 -1.63673 -1.5873 0
M  V30 867 C 84.7076 -0.491956 -1.53195 0
M  V30 868 O 85.8996 -0.745461 -1.60536 0
M  V30 869 C 83.0286 -1.71689 -2.97284 0
M  V30 870 C 82.1146 -2.91781 -3.07774 0
M  V30 871 N 82.5056 -4.15714 -2.88124 0
M  V30 872 C 80.8036 -2.89949 -3.38889 0
M  V30 873 C 81.5046 -4.965 -3.03088 0
M  V30 874 N 80.4806 -4.30083 -3.3246 0
M  V30 875 H 84.2826 -2.57204 -1.42208 0
M  V30 876 H 81.7966 -1.46719 -0.69623 0
M  V30 877 H 83.7936 -1.79732 -3.76168 0
M  V30 878 H 82.4536 -0.793024 -3.14867 0
M  V30 879 H 83.4646 -4.45515 -2.64077 0
M  V30 880 H 80.1416 -2.06987 -3.62578 0
M  V30 881 H 81.5316 -6.04991 -2.92294 0
M  V30 882 N 84.2517 0.741722 -1.39055 0
M  V30 883 C 85.1817 1.869 -1.39966 0
M  V30 884 C 86.1627 1.6804 -0.26392 0
M  V30 885 O 87.3477 1.88458 -0.468755 0
M  V30 886 C 84.4777 3.24572 -1.23574 0
M  V30 887 C 83.4317 3.58056 -2.34477 0
M  V30 888 C 82.7577 4.94593 -2.0318 0
M  V30 889 C 84.0577 3.61716 -3.76774 0
M  V30 890 H 85.7517 1.86395 -2.34302 0
M  V30 891 H 83.2977 0.895361 -1.1278 0
M  V30 892 H 85.2507 4.031 -1.22834 0
M  V30 893 H 83.9747 3.25587 -0.257045 0
M  V30 894 H 82.6337 2.81854 -2.34423 0
M  V30 895 H 82.2817 4.92181 -1.03765 0
M  V30 896 H 81.9817 5.17964 -2.77465 0
M  V30 897 H 83.5057 5.75486 -2.04079 0
M  V30 898 H 84.9197 4.30335 -3.78794 0
M  V30 899 H 83.3167 3.96603 -4.50362 0
M  V30 900 H 84.3867 2.61672 -4.08235 0
M  V30 901 N 85.7298 1.2412 0.971189 0
M  V30 902 C 86.6398 1.04747 2.09917 0
M  V30 903 C 87.6558 -0.0107162 1.73997 0
M  V30 904 O 88.8318 0.186714 2.00533 0
M  V30 905 C 85.8968 0.650828 3.40537 0
M  V30 906 C 84.9578 1.7851 3.90426 0
M  V30 907 C 84.1908 1.40729 5.14812 0
M  V30 908 O 84.4138 0.29557 5.69634 0
M  V30 909 O 83.3478 2.23168 5.58999 0
M  V30 910 H 87.1738 1.99304 2.29154 0
M  V30 911 H 84.7588 1.02908 1.08307 0
M  V30 912 H 86.6408 0.440992 4.19086 0
M  V30 913 H 85.3158 -0.265649 3.22608 0
M  V30 914 H 84.2228 2.04966 3.12953 0
M  V30 915 H 85.5558 2.68023 4.12825 0
M  V30 916 N 87.2079 -1.17134 1.05439 0
M  V30 917 C 88.1549 -2.21235 0.657539 0
M  V30 918 C 89.1249 -1.62551 -0.341543 0
M  V30 919 O 90.3099 -1.89379 -0.232393 0
M  V30 920 C 87.4499 -3.45076 0.0410575 0
M  V30 921 C 86.5629 -4.18042 1.08927 0
M  V30 922 C 85.6979 -5.29376 0.439848 0
M  V30 923 C 84.7369 -5.94132 1.4722 0
M  V30 924 N 83.8739 -6.96975 0.846756 0
M  V30 925 H 88.7139 -2.54534 1.54972 0
M  V30 926 H 86.2509 -1.25028 0.775006 0
M  V30 927 H 88.2089 -4.15862 -0.33383 0
M  V30 928 H 86.8389 -3.12353 -0.814568 0
M  V30 929 H 85.8909 -3.45945 1.58196 0
M  V30 930 H 87.2029 -4.62306 1.87282 0
M  V30 931 H 86.3569 -6.06699 0.0115125 0
M  V30 932 H 85.0959 -4.86251 -0.375656 0
M  V30 933 H 84.1009 -5.15538 1.91052 0
M  V30 934 H 85.3259 -6.39337 2.28965 0
M  V30 935 H 83.2719 -6.5598 0.0518075 0
M  V30 936 H 83.1889 -7.39565 1.5678 0
M  V30 937 H 84.4569 -7.78239 0.443277 0
M  V30 938 N 88.686 -0.835752 -1.33615 0
M  V30 939 C 89.633 -0.26473 -2.29277 0
M  V30 940 C 90.603 0.617712 -1.54187 0
M  V30 941 O 91.788 0.556641 -1.825 0
M  V30 942 C 88.928 0.556777 -3.40579 0
M  V30 943 C 88.041 -0.349339 -4.30585 0
M  V30 944 C 87.176 0.482969 -5.29 0
M  V30 945 C 86.215 -0.421732 -6.10645 0
M  V30 946 N 85.352 0.372262 -7.01112 0
M  V30 947 H 90.192 -1.08582 -2.77514 0
M  V30 948 H 87.729 -0.546927 -1.36554 0
M  V30 949 H 89.687 1.04852 -4.03809 0
M  V30 950 H 88.317 1.34286 -2.93542 0
M  V30 951 H 87.369 -0.959372 -3.68104 0
M  V30 952 H 88.681 -1.04445 -4.87742 0
M  V30 953 H 87.835 1.03866 -5.97743 0
M  V30 954 H 86.574 1.21153 -4.72412 0
M  V30 955 H 85.579 -0.989464 -5.40823 0
M  V30 956 H 86.804 -1.14861 -6.69316 0
M  V30 957 H 84.75 1.08426 -6.46977 0
M  V30 958 H 84.667 -0.264198 -7.55538 0
M  V30 959 H 85.935 0.910293 -7.74167 0
M  V30 960 N 90.1641 1.46063 -0.591896 0
M  V30 961 C 91.1111 2.30399 0.136069 0
M  V30 962 C 92.0811 1.41169 0.875238 0
M  V30 963 O 93.2661 1.70112 0.86409 0
M  V30 964 C 90.4061 3.25804 1.13781 0
M  V30 965 C 89.5191 4.30134 0.401137 0
M  V30 966 C 88.6541 5.12659 1.39121 0
M  V30 967 C 87.6931 6.0873 0.641462 0
M  V30 968 N 86.8301 6.8409 1.58004 0
M  V30 969 H 91.6701 2.92118 -0.589144 0
M  V30 970 H 89.2071 1.43959 -0.302342 0
M  V30 971 H 91.1651 3.79569 1.73156 0
M  V30 972 H 89.7951 2.65872 1.83062 0
M  V30 973 H 88.8471 3.79152 -0.307826 0
M  V30 974 H 90.1591 4.98458 -0.184565 0
M  V30 975 H 89.3131 5.70747 2.05749 0
M  V30 976 H 88.0521 4.44316 2.01084 0
M  V30 977 H 87.0571 5.49786 -0.0385419 0
M  V30 978 H 88.2821 6.79095 0.0270945 0
M  V30 979 H 86.2281 6.18449 2.18761 0
M  V30 980 H 86.1451 7.48709 1.04738 0
M  V30 981 H 87.4131 7.4673 2.23639 0
M  V30 982 N 91.6422 0.330177 1.54103 0
M  V30 983 C 92.8822 -0.270916 2.02597 0
M  V30 984 C 93.2462 -1.48826 1.21304 0
M  V30 985 O 94.4472 -2.16266 1.59633 0
M  V30 986 C 92.7182 -0.590328 3.52491 0
M  V30 987 S 94.2772 -1.17014 4.2291 0
M  V30 988 H 91.0952 -0.0815379 0.706309 0
M  V30 989 H 93.6972 0.464835 1.89893 0
M  V30 990 H 92.4012 0.303691 4.09275 0
M  V30 991 H 91.9322 -1.3561 3.69288 0
M  V30 992 H 93.9472 -2.45662 4.3112 0
M  V30 993 N 93.1203 -1.57491 0.0584922 0
M  V30 994 C 94.3973 -1.84346 -0.653918 0
M  V30 995 C 94.7773 -0.948355 -1.88599 0
M  V30 996 O 94.1253 -0.0112403 -2.28497 0
M  V30 997 C 94.3353 -3.34239 -1.00425 0
M  V30 998 C 95.6833 -4.01431 -1.38342 0
M  V30 999 O 96.7073 -3.38907 -1.09637 0
M  V30 1000 O 95.5663 -5.11683 -1.91943 0
M  V30 1001 H 92.6603 -0.761112 -0.323478 0
M  V30 1002 H 95.2063 -1.6947 0.0884125 0
M  V30 1003 H 93.9783 -3.91089 -0.128625 0
M  V30 1004 H 93.6013 -3.54329 -1.80378 0
M  V30 1005 N 94.5984 0.214957 -1.56127 0
M  V30 1006 C 95.5084 1.28727 -1.96129 0
M  V30 1007 C 96.5244 1.50916 -0.866044 0
M  V30 1008 O 97.7004 1.63918 -1.17016 0
M  V30 1009 C 94.7654 2.61569 -2.27558 0
M  V30 1010 C 93.8264 2.47625 -3.50685 0
M  V30 1011 C 93.0594 3.74132 -3.80606 0
M  V30 1012 O 93.2824 4.77438 -3.12104 0
M  V30 1013 O 92.2164 3.70849 -4.74083 0
M  V30 1014 H 96.0424 0.977855 -2.87527 0
M  V30 1015 H 93.6274 0.418358 -1.43423 0
M  V30 1016 H 95.5094 3.40012 -2.48938 0
M  V30 1017 H 94.1844 2.92178 -1.39332 0
M  V30 1018 H 93.0914 1.67361 -3.34576 0
M  V30 1019 H 94.4244 2.21954 -4.39315 0
M  V30 1020 N 96.0765 1.50051 0.48192 0
M  V30 1021 C 97.3065 1.63999 1.2565 0
M  V30 1022 C 97.7145 0.318288 1.86504 0
M  V30 1023 O 97.0575 -0.708534 1.69486 0
M  V30 1024 C 97.1195 2.66504 2.4128 0
M  V30 1025 C 96.7835 4.10352 2.01148 0
M  V30 1026 C 97.7805 4.96562 1.54021 0
M  V30 1027 C 95.4655 4.56203 2.10199 0
M  V30 1028 C 97.4595 6.26668 1.16473 0
M  V30 1029 C 95.1465 5.86318 1.72264 0
M  V30 1030 C 96.1445 6.71375 1.25477 0
M  V30 1031 O 95.8325 7.99062 0.880626 0
M  V30 1032 H 95.5645 0.55456 0.386574 0
M  V30 1033 H 98.1185 1.96954 0.582944 0
M  V30 1034 H 96.3485 2.28769 3.11772 0
M  V30 1035 H 98.0375 2.69783 3.03268 0
M  V30 1036 H 98.8035 4.62358 1.46458 0
M  V30 1037 H 94.6825 3.90152 2.45566 0
M  V30 1038 H 98.2265 6.93011 0.798841 0
M  V30 1039 H 94.1235 6.20046 1.79482 0
M  V30 1040 H 94.8915 8.12239 1.01043 0
M  V30 1041 N 97.5546 -0.734337 1.39446 0
M  V30 1042 C 98.8036 -1.48937 1.36017 0
M  V30 1043 C 99.1166 -1.95557 -0.0409005 0
M  V30 1044 O 100.323 -2.70779 -0.19778 0
M  V30 1045 C 98.7786 -2.69125 2.38955 0
M  V30 1046 C 98.3866 -2.29452 3.8478 0
M  V30 1047 C 100.131 -3.46944 2.44603 0
M  V30 1048 C 98.0376 -3.46366 4.79358 0
M  V30 1049 H 96.9676 -0.559296 0.505672 0
M  V30 1050 H 99.6186 -0.800983 1.65095 0
M  V30 1051 H 98.0006 -3.40041 2.02948 0
M  V30 1052 H 99.1746 -1.66077 4.29831 0
M  V30 1053 H 97.4896 -1.64723 3.82433 0
M  V30 1054 H 100.087 -4.33907 3.12456 0
M  V30 1055 H 100.43 -3.89454 1.47076 0
M  V30 1056 H 100.963 -2.83056 2.79507 0
M  V30 1057 H 97.7016 -3.08905 5.78151 0
M  V30 1058 H 97.2216 -4.08719 4.38986 0
M  V30 1059 H 98.9006 -4.12691 4.98292 0
M  V30 1060 N 99.0327 -1.24633 -0.964593 0
M  V30 1061 C 100.444 -1.08045 -1.5226 0
M  V30 1062 C 100.795 0.347116 -1.93105 0
M  V30 1063 O 99.9197 1.23588 -1.77637 0
M  V30 1064 C 100.515 -1.95514 -2.76695 0
M  V30 1065 C 99.0737 -1.8314 -3.28841 0
M  V30 1066 C 98.2207 -1.90262 -2.01732 0
M  V30 1067 H 101.172 -1.38064 -0.782553 0
M  V30 1068 H 101.193 -1.48925 -3.50145 0
M  V30 1069 H 100.705 -2.99407 -2.46936 0
M  V30 1070 H 98.8057 -0.82092 -3.63444 0
M  V30 1071 H 98.9187 -2.67406 -3.97531 0
M  V30 1072 H 97.2827 -1.34027 -2.16584 0
M  V30 1073 H 98.0657 -2.9574 -1.74334 0
M  V30 1074 N 100.511 1.16574 -1.06058 0
M  V30 1075 C 101.759 1.86677 -0.77434 0
M  V30 1076 C 102.08 1.81959 0.701147 0
M  V30 1077 O 101.35 1.2515 1.50713 0
M  V30 1078 H 99.9298 0.691134 -0.283449 0
M  V30 1079 H 102.592 1.41378 -1.34158 0
M  V30 1080 H 101.688 2.92181 -1.09711 0
M  V30 1081 N 101.989 0.842826 1.3317 0
M  V30 1082 C 103.217 0.454055 2.01856 0
M  V30 1083 C 103.632 -0.94587 1.63397 0
M  V30 1084 O 102.989 -1.61534 0.849302 0
M  V30 1085 C 103.04 0.569715 3.56982 0
M  V30 1086 O 102.761 1.91448 3.94055 0
M  V30 1087 C 104.262 0.178412 4.42941 0
M  V30 1088 H 101.482 0.17979 0.646465 0
M  V30 1089 H 104.026 1.1365 1.70012 0
M  V30 1090 H 102.181 -0.0648587 3.87346 0
M  V30 1091 H 102.595 1.90282 4.88767 0
M  V30 1092 H 104.069 0.310376 5.51127 0
M  V30 1093 H 104.546 -0.880056 4.30293 0
M  V30 1094 H 105.152 0.787579 4.17944 0
M  V30 1095 N 103.467 -1.45747 0.599634 0
M  V30 1096 C 104.695 -2.06668 0.0978551 0
M  V30 1097 C 105.11 -1.44562 -1.21439 0
M  V30 1098 O 104.467 -0.556923 -1.73795 0
M  V30 1099 C 104.518 -3.61456 -0.0567044 0
M  V30 1100 O 104.239 -4.21242 1.20361 0
M  V30 1101 C 105.74 -4.39345 -0.590869 0
M  V30 1102 H 102.96 -0.667825 0.0651943 0
M  V30 1103 H 105.504 -1.87115 0.82511 0
M  V30 1104 H 103.659 -3.80378 -0.734251 0
M  V30 1105 H 104.073 -5.14323 1.02821 0
M  V30 1106 H 105.547 -5.48182 -0.648131 0
M  V30 1107 H 106.024 -4.08568 -1.61147 0
M  V30 1108 H 106.63 -4.25268 0.0523679 0
M  V30 1109 N 104.945 -0.338344 -1.53925 0
M  V30 1110 C 106.17 0.263987 -2.05713 0
M  V30 1111 C 106.595 1.43847 -1.21201 0
M  V30 1112 O 105.953 1.79904 -0.224535 0
M  V30 1113 C 106.001 0.662 -3.54471 0
M  V30 1114 O 105.105 1.76265 -3.72833 0
M  V30 1115 H 104.446 0.0448722 -0.662482 0
M  V30 1116 H 106.976 -0.491048 -1.9862 0
M  V30 1117 H 106.986 0.940594 -3.9701 0
M  V30 1118 H 105.661 -0.196937 -4.15433 0
M  V30 1119 H 104.238 1.48173 -3.42198 0
M  V30 1120 N 106.423 1.57458 -0.0668435 0
M  V30 1121 C 107.353 2.15468 0.899764 0
M  V30 1122 C 108.334 1.08042 1.31381 0
M  V30 1123 O 109.519 1.36054 1.38574 0
M  V30 1124 C 106.649 2.71232 2.16911 0
M  V30 1125 C 105.603 3.83781 1.89463 0
M  V30 1126 C 104.929 4.26127 3.22986 0
M  V30 1127 C 106.229 5.08238 1.20381 0
M  V30 1128 H 107.923 2.96488 0.416529 0
M  V30 1129 H 105.469 1.4262 0.198908 0
M  V30 1130 H 107.422 3.10458 2.84945 0
M  V30 1131 H 106.146 1.87426 2.67468 0
M  V30 1132 H 104.805 3.45051 1.23836 0
M  V30 1133 H 104.453 3.39249 3.71374 0
M  V30 1134 H 104.153 5.01993 3.05413 0
M  V30 1135 H 105.677 4.67966 3.92225 0
M  V30 1136 H 107.091 5.44811 1.78475 0
M  V30 1137 H 105.488 5.89349 1.13083 0
M  V30 1138 H 106.558 4.84558 0.182153 0
M  V30 1139 N 107.901 -0.206675 1.56239 0
M  V30 1140 C 109.149 -0.927007 1.79586 0
M  V30 1141 C 109.47 -1.8427 0.637929 0
M  V30 1142 O 108.74 -1.92849 -0.344398 0
M  V30 1143 H 107.32 -0.345292 0.662407 0
M  V30 1144 H 109.982 -0.21496 1.93711 0
M  V30 1145 H 109.078 -1.52501 2.72305 0
M  V30 1146 N 109.379 -1.50304 -0.473955 0
M  V30 1147 C 110.312 -1.63595 -1.59097 0
M  V30 1148 C 111.29 -0.484142 -1.55225 0
M  V30 1149 O 112.474 -0.703271 -1.7489 0
M  V30 1150 C 109.601 -1.61589 -2.97669 0
M  V30 1151 C 108.647 -2.82295 -3.19705 0
M  V30 1152 S 109.48 -4.43635 -2.99913 0
M  V30 1153 C 110.636 -4.44317 -4.40832 0
M  V30 1154 H 110.869 -2.58082 -1.47583 0
M  V30 1155 H 108.402 -1.39531 -0.661087 0
M  V30 1156 H 110.36 -1.61116 -3.7756 0
M  V30 1157 H 109.021 -0.683421 -3.06575 0
M  V30 1158 H 108.214 -2.77188 -4.20931 0
M  V30 1159 H 107.816 -2.8032 -2.47582 0
M  V30 1160 H 110.108 -4.17703 -5.33414 0
M  V30 1161 H 111.051 -5.45911 -4.50984 0
M  V30 1162 H 111.459 -3.74059 -4.22777 0
M  V30 1163 N 110.857 0.726932 -1.39834 0
M  V30 1164 C 112.082 1.52121 -1.40976 0
M  V30 1165 C 112.507 1.88098 -0.00826029 0
M  V30 1166 O 111.865 1.52479 0.980807 0
M  V30 1167 C 111.913 2.78021 -2.29644 0
M  V30 1168 O 111.017 3.74272 -1.73188 0
M  V30 1169 H 110.358 0.45908 -0.479731 0
M  V30 1170 H 112.888 0.896207 -1.83927 0
M  V30 1171 H 112.898 3.26671 -2.44438 0
M  V30 1172 H 111.573 2.51169 -3.31492 0
M  V30 1173 H 110.15 3.33073 -1.6768 0
M  V30 1174 N 112.336 1.25143 0.95797 0
M  V30 1175 C 113.582 1.09855 1.70469 0
M  V30 1176 C 113.915 -0.360187 1.90831 0
M  V30 1177 O 113.19 -1.26568 1.47685 0
M  V30 1178 C 113.473 1.8497 3.08963 0
M  V30 1179 C 113.326 3.38652 2.96032 0
M  V30 1180 C 114.645 1.63016 4.08795 0
M  V30 1181 H 111.764 0.400465 0.618706 0
M  V30 1182 H 114.406 1.53933 1.11376 0
M  V30 1183 H 112.556 1.47505 3.59409 0
M  V30 1184 H 114.228 3.85772 2.52938 0
M  V30 1185 H 112.471 3.66534 2.32025 0
M  V30 1186 H 113.142 3.8642 3.94187 0
M  V30 1187 H 115.618 1.95625 3.67247 0
M  V30 1188 H 114.494 2.18015 5.03747 0
M  V30 1189 H 114.755 0.570692 4.38401 0
M  V30 1190 N 113.814 -1.1601 1.06675 0
M  V30 1191 C 115.061 -1.86633 0.785781 0
M  V30 1192 C 115.389 -1.81929 -0.687896 0
M  V30 1193 O 114.644 -1.23253 -1.52011 0
M  V30 1194 C 114.943 -3.35547 1.23057 0
M  V30 1195 C 114.609 -3.60448 2.70902 0
M  V30 1196 C 113.271 -3.66954 3.11285 0
M  V30 1197 C 115.623 -3.7071 3.66365 0
M  V30 1198 C 112.951 -3.81225 4.45965 0
M  V30 1199 C 115.303 -3.86503 5.00797 0
M  V30 1200 C 113.967 -3.91252 5.40813 0
M  V30 1201 H 113.237 -0.682937 0.287538 0
M  V30 1202 H 115.884 -1.37146 1.33654 0
M  V30 1203 H 114.189 -3.87193 0.59907 0
M  V30 1204 H 115.886 -3.88583 0.990163 0
M  V30 1205 H 112.476 -3.56021 2.38636 0
M  V30 1206 H 116.66 -3.64991 3.36296 0
M  V30 1207 H 111.916 -3.83155 4.76447 0
M  V30 1208 H 116.09 -3.93385 5.74649 0
M  V30 1209 H 113.717 -4.02062 6.45174 0
M  V30 1210 N 115.292 -0.849877 -1.32721 0
M  V30 1211 C 116.24 -0.279745 -2.30912 0
M  V30 1212 C 117.234 0.594278 -1.58634 0
M  V30 1213 O 118.44 0.482613 -1.73409 0
M  V30 1214 H 114.815 -0.0717521 -0.748569 0
M  V30 1215 H 116.786 -1.12222 -2.76494 0
M  V30 1216 C 115.535 0.521108 -3.43773 0
M  V30 1217 H 114.858 -0.142141 -3.99547 0
M  V30 1218 H 116.298 0.885693 -4.14646 0
M  V30 1219 C 114.757 1.70442 -2.90605 0
M  V30 1220 O 115.287 2.8034 -2.87702 0
M  V30 1221 N 113.493 1.52991 -2.47067 0
M  V30 1222 H 113.04 0.635914 -2.49628 0
M  V30 1223 H 112.998 2.32311 -2.11847 0
M  V30 1224 N 116.77 1.45427 -0.607355 0
M  V30 1225 C 117.7 2.3329 0.0989352 0
M  V30 1226 C 118.681 1.46816 0.859007 0
M  V30 1227 O 119.866 1.75588 0.829604 0
M  V30 1228 C 116.996 3.29518 1.09705 0
M  V30 1229 C 115.95 4.25626 0.450206 0
M  V30 1230 C 115.276 5.11542 1.55655 0
M  V30 1231 C 116.576 5.18505 -0.628455 0
M  V30 1232 H 118.27 2.92595 -0.634716 0
M  V30 1233 H 115.816 1.40696 -0.306681 0
M  V30 1234 H 117.769 3.89855 1.59971 0
M  V30 1235 H 116.493 2.68372 1.86129 0
M  V30 1236 H 115.152 3.66586 -0.0315886 0
M  V30 1237 H 114.8 4.46765 2.31107 0
M  V30 1238 H 114.5 5.76647 1.12925 0
M  V30 1239 H 116.024 5.74748 2.06148 0
M  V30 1240 H 117.438 5.72916 -0.209877 0
M  V30 1241 H 115.835 5.92085 -0.977489 0
M  V30 1242 H 116.905 4.60948 -1.50514 0
M  V30 1243 N 118.248 0.346503 1.53744 0
M  V30 1244 C 119.473 -0.253074 2.0585 0
M  V30 1245 C 119.898 -1.43202 1.21962 0
M  V30 1246 O 119.256 -1.79783 0.234073 0
M  V30 1247 C 119.304 -0.643193 3.54817 0
M  V30 1248 O 118.408 -1.74286 3.73762 0
M  V30 1249 H 117.749 -0.0413583 0.662711 0
M  V30 1250 H 120.279 0.501574 1.98357 0
M  V30 1251 H 120.289 -0.919526 3.97503 0
M  V30 1252 H 118.964 0.218966 4.15323 0
M  V30 1253 H 117.541 -1.46356 3.42979 0
M  V30 1254 N 119.726 -1.57421 0.075193 0
M  V30 1255 C 120.674 -2.14124 -0.908508 0
M  V30 1256 C 121.668 -1.07898 -1.30592 0
M  V30 1257 O 122.874 -1.26273 -1.28277 0
M  V30 1258 H 119.249 -0.684707 -0.310935 0
M  V30 1259 H 121.22 -2.95634 -0.405374 0
M  V30 1260 C 119.969 -2.72044 -2.16535 0
M  V30 1261 H 119.292 -3.53456 -1.86839 0
M  V30 1262 H 120.732 -3.15311 -2.83469 0
M  V30 1263 C 119.191 -1.66968 -2.92615 0
M  V30 1264 O 119.721 -1.0967 -3.86439 0
M  V30 1265 N 117.927 -1.37923 -2.55784 0
M  V30 1266 H 117.474 -1.84706 -1.79559 0
M  V30 1267 H 117.432 -0.67852 -3.06991 0
M  V30 1268 N 121.204 0.198386 -1.56346 0
M  V30 1269 C 122.167 1.22952 -1.93431 0
M  V30 1270 C 123.167 1.38611 -0.815092 0
M  V30 1271 O 124.357 1.36479 -1.08255 0
M  V30 1272 C 121.489 2.59946 -2.20546 0
M  V30 1273 H 122.682 0.912626 -2.85677 0
M  V30 1274 H 120.235 0.43977 -1.49986 0
M  V30 1275 H 120.97 2.96696 -1.30927 0
M  V30 1276 H 120.755 2.49953 -3.02102 0
M  V30 1277 H 122.245 3.3431 -2.50253 0
M  V30 1278 N 122.682 1.50554 0.465978 0
M  V30 1279 C 123.931 1.61038 1.21448 0
M  V30 1280 C 124.244 0.31865 1.92987 0
M  V30 1281 O 125.45 0.302469 2.6981 0
M  V30 1282 C 123.906 2.84283 2.20706 0
M  V30 1283 C 123.514 4.20352 1.54946 0
M  V30 1284 C 125.258 3.04115 2.96166 0
M  V30 1285 C 123.165 5.34778 2.5252 0
M  V30 1286 H 122.095 0.599718 0.457005 0
M  V30 1287 H 124.746 1.7699 0.484424 0
M  V30 1288 H 123.128 2.61901 2.97025 0
M  V30 1289 H 124.302 4.53008 0.843811 0
M  V30 1290 H 122.617 4.06167 0.917475 0
M  V30 1291 H 125.214 3.86774 3.69202 0
M  V30 1292 H 125.557 2.16045 3.55852 0
M  V30 1293 H 126.09 3.26702 2.26959 0
M  V30 1294 H 122.829 6.25018 1.97566 0
M  V30 1295 H 122.349 5.06534 3.21222 0
M  V30 1296 H 124.028 5.65561 3.14245 0
M  V30 1297 N 124.16 -0.719506 1.40217 0
M  V30 1298 C 125.093 -1.84298 1.34571 0
M  V30 1299 C 126.071 -1.61149 0.216741 0
M  V30 1300 O 127.255 -1.84212 0.399756 0
M  V30 1301 C 124.382 -3.20568 1.09335 0
M  V30 1302 C 123.428 -3.62551 2.24631 0
M  V30 1303 S 124.261 -3.7012 3.87004 0
M  V30 1304 C 125.417 -5.09154 3.64024 0
M  V30 1305 H 125.65 -1.88807 2.2965 0
M  V30 1306 H 123.183 -0.885901 1.26456 0
M  V30 1307 H 125.141 -3.99246 0.954602 0
M  V30 1308 H 123.802 -3.13696 0.159164 0
M  V30 1309 H 122.995 -4.61483 2.02606 0
M  V30 1310 H 122.597 -2.91119 2.34789 0
M  V30 1311 H 124.889 -5.95955 3.22248 0
M  V30 1312 H 125.832 -5.36213 4.62473 0
M  V30 1313 H 126.24 -4.79562 2.97793 0
M  V30 1314 N 125.638 -1.25649 -0.95132 0
M  V30 1315 C 126.886 -1.10375 -1.69298 0
M  V30 1316 C 127.207 0.355339 -1.91735 0
M  V30 1317 O 126.477 1.25188 -1.50681 0
M  V30 1318 H 125.057 -0.405461 -0.627384 0
M  V30 1319 H 127.719 -1.57823 -1.14358 0
M  V30 1320 H 126.815 -1.61465 -2.67087 0
M  V30 1321 N 127.117 1.15442 -1.07289 0
M  V30 1322 C 128.342 1.90638 -0.816828 0
M  V30 1323 C 128.767 1.77445 0.624083 0
M  V30 1324 O 128.125 1.10671 1.43602 0
M  V30 1325 C 128.173 3.39008 -1.22906 0
M  V30 1326 O 127.277 4.10701 -0.373975 0
M  V30 1327 H 126.618 0.593555 -0.297638 0
M  V30 1328 H 129.148 1.46198 -1.43134 0
M  V30 1329 H 129.158 3.89801 -1.20497 0
M  V30 1330 H 127.833 3.47929 -2.27856 0
M  V30 1331 H 126.41 3.70046 -0.460499 0
M  V30 1332 N 128.595 0.856903 1.32268 0
M  V30 1333 C 129.843 0.460474 1.96784 0
M  V30 1334 C 130.164 -0.987701 1.68135 0
M  V30 1335 O 129.434 -1.69058 0.989765 0
M  V30 1336 H 128.014 0.167289 0.728027 0
M  V30 1337 H 130.676 1.09383 1.61312 0
M  V30 1338 H 129.772 0.60739 3.06133 0
M  V30 1339 N 130.073 -1.45103 0.615059 0
M  V30 1340 C 131.322 -2.01396 0.110718 0
M  V30 1341 C 131.635 -1.48834 -1.26916 0
M  V30 1342 O 132.841 -1.97152 -1.86664 0
M  V30 1343 C 131.297 -3.59599 0.14723 0
M  V30 1344 C 130.905 -4.21158 1.52743 0
M  V30 1345 C 132.649 -4.23428 -0.30148 0
M  V30 1346 C 130.556 -5.71535 1.51992 0
M  V30 1347 H 129.486 -0.753061 0.0376241 0
M  V30 1348 H 132.137 -1.66494 0.77149 0
M  V30 1349 H 130.519 -3.91724 -0.580339 0
M  V30 1350 H 131.693 -4.00594 2.2773 0
M  V30 1351 H 130.008 -3.69552 1.91886 0
M  V30 1352 H 132.605 -5.33703 -0.326392 0
M  V30 1353 H 132.948 -3.94629 -1.32565 0
M  V30 1354 H 133.481 -3.96047 0.373065 0
M  V30 1355 H 130.22 -6.05044 2.52193 0
M  V30 1356 H 129.74 -5.94268 0.81274 0
M  V30 1357 H 131.419 -6.34873 1.24681 0
M  V30 1358 N 131.551 -0.354651 -1.53558 0
M  V30 1359 C 132.481 0.489091 -2.2832 0
M  V30 1360 C 133.462 1.09324 -1.30316 0
M  V30 1361 O 134.647 1.11255 -1.59173 0
M  V30 1362 C 131.777 1.63456 -3.0643 0
M  V30 1363 C 130.731 1.1582 -4.12031 0
M  V30 1364 C 130.057 2.39305 -4.7816 0
M  V30 1365 C 131.357 0.250731 -5.21698 0
M  V30 1366 H 133.051 -0.134614 -2.99097 0
M  V30 1367 H 130.597 -0.0661826 -1.43848 0
M  V30 1368 H 132.55 2.23136 -3.57475 0
M  V30 1369 H 131.274 2.28533 -2.33325 0
M  V30 1370 H 129.933 0.584146 -3.61916 0
M  V30 1371 H 129.581 3.02814 -4.01637 0
M  V30 1372 H 129.281 2.08109 -5.49513 0
M  V30 1373 H 130.805 2.99691 -5.31994 0
M  V30 1374 H 132.219 0.754695 -5.68311 0
M  V30 1375 H 130.616 0.0301468 -6.00092 0
M  V30 1376 H 131.686 -0.710125 -4.79672 0
M  V30 1377 N 133.029 1.57378 -0.0835403 0
M  V30 1378 C 134.277 1.93547 0.581718 0
M  V30 1379 C 134.598 0.96524 1.69435 0
M  V30 1380 O 133.868 0.0153369 1.95894 0
M  V30 1381 H 132.448 0.714521 0.217874 0
M  V30 1382 H 135.11 1.94366 -0.144158 0
M  V30 1383 H 134.206 2.95665 0.999423 0
M  V30 1384 N 134.507 -0.190092 1.56449 0
M  V30 1385 C 135.437 -1.23816 1.97969 0
M  V30 1386 C 136.418 -1.47201 0.852395 0
M  V30 1387 O 137.603 -1.58854 1.1171 0
M  V30 1388 C 134.733 -2.5813 2.3235 0
M  V30 1389 C 133.687 -2.49348 3.47864 0
M  V30 1390 C 133.013 -3.8798 3.67934 0
M  V30 1391 C 134.313 -2.01424 4.81898 0
M  V30 1392 H 136.007 -0.89311 2.85769 0
M  V30 1393 H 133.553 -0.428177 1.37487 0
M  V30 1394 H 135.506 -3.31637 2.59991 0
M  V30 1395 H 134.23 -2.94386 1.41438 0
M  V30 1396 H 132.889 -1.78297 3.20321 0
M  V30 1397 H 132.537 -4.21597 2.74344 0
M  V30 1398 H 132.237 -3.82978 4.45648 0
M  V30 1399 H 133.761 -4.63101 3.97957 0
M  V30 1400 H 135.175 -2.64693 5.08538 0
M  V30 1401 H 133.572 -2.07413 5.63116 0
M  V30 1402 H 134.642 -0.967677 4.75146 0
M  V30 1403 N 135.985 -1.50799 -0.457987 0
M  V30 1404 C 136.948 -1.7005 -1.53674 0
M  V30 1405 C 137.948 -0.570881 -1.50325 0
M  V30 1406 O 139.138 -0.838126 -1.52712 0
M  V30 1407 C 136.27 -1.73788 -2.93276 0
M  V30 1408 H 137.463 -2.66306 -1.37917 0
M  V30 1409 H 135.016 -1.40477 -0.685271 0
M  V30 1410 H 135.751 -0.792717 -3.14462 0
M  V30 1411 H 135.536 -2.55864 -2.97113 0
M  V30 1412 H 137.026 -1.90591 -3.71571 0
M  V30 1413 N 137.463 0.71206 -1.40597 0
M  V30 1414 C 138.71 1.47197 -1.39065 0
M  V30 1415 C 139.038 1.94499 0.00583891 0
M  V30 1416 O 138.293 1.68752 0.99102 0
M  V30 1417 C 138.592 2.71039 -2.32965 0
M  V30 1418 C 138.258 2.42484 -3.80148 0
M  V30 1419 C 136.92 2.34406 -4.20247 0
M  V30 1420 C 139.272 2.18598 -4.73143 0
M  V30 1421 C 136.6 2.00516 -5.51371 0
M  V30 1422 C 138.952 1.8622 -6.0457 0
M  V30 1423 C 137.616 1.76626 -6.43708 0
M  V30 1424 H 136.886 0.538634 -0.508876 0
M  V30 1425 H 139.533 0.815325 -1.73276 0
M  V30 1426 H 137.838 3.41558 -1.91951 0
M  V30 1427 H 139.535 3.29138 -2.29061 0
M  V30 1428 H 136.125 2.49659 -3.4838 0
M  V30 1429 H 140.309 2.23793 -4.42979 0
M  V30 1430 H 135.565 1.91628 -5.80593 0
M  V30 1431 H 139.739 1.66752 -6.76141 0
M  V30 1432 H 137.366 1.50133 -7.45228 0
M  V30 1433 N 138.941 1.26152 0.944643 0
M  V30 1434 C 139.904 1.07474 2.0244 0
M  V30 1435 C 140.904 0.0242064 1.60782 0
M  V30 1436 O 142.094 0.267302 1.72137 0
M  V30 1437 C 139.226 0.633956 3.34953 0
M  V30 1438 H 140.419 2.03336 2.20442 0
M  V30 1439 H 137.972 1.087 1.12312 0
M  V30 1440 H 138.707 -0.326811 3.22649 0
M  V30 1441 H 138.492 1.39247 3.66542 0
M  V30 1442 H 139.982 0.52501 4.14287 0
M  V30 1443 N 140.419 -1.14872 1.07899 0
M  V30 1444 C 141.349 -2.2193 0.725887 0
M  V30 1445 C 142.33 -1.67622 -0.28927 0
M  V30 1446 O 143.515 -1.93533 -0.160787 0
M  V30 1447 C 140.645 -3.47061 0.128856 0
M  V30 1448 C 139.599 -4.14363 1.07178 0
M  V30 1449 C 138.925 -5.33636 0.337229 0
M  V30 1450 C 140.225 -4.63492 2.40775 0
M  V30 1451 H 141.919 -2.51724 1.62097 0
M  V30 1452 H 139.465 -1.20991 0.780838 0
M  V30 1453 H 141.418 -4.21199 -0.130147 0
M  V30 1454 H 140.142 -3.16617 -0.80134 0
M  V30 1455 H 138.801 -3.42173 1.3158 0
M  V30 1456 H 138.449 -4.99449 -0.596606 0
M  V30 1457 H 138.149 -5.79609 0.965788 0
M  V30 1458 H 139.673 -6.10539 0.0861567 0
M  V30 1459 H 141.087 -5.2913 2.20669 0
M  V30 1460 H 139.484 -5.20148 2.99276 0
M  V30 1461 H 140.554 -3.78834 3.02676 0
M  V30 1462 N 141.898 -0.863906 -1.31812 0
M  V30 1463 C 142.861 -0.320212 -2.26952 0
M  V30 1464 C 143.861 0.525369 -1.51975 0
M  V30 1465 O 145.051 0.335547 -1.70938 0
M  V30 1466 C 142.183 0.545919 -3.365 0
M  V30 1467 H 143.376 -1.16004 -2.76556 0
M  V30 1468 H 140.929 -0.638995 -1.42641 0
M  V30 1469 H 141.664 1.40718 -2.92179 0
M  V30 1470 H 141.449 -0.0594674 -3.92055 0
M  V30 1471 H 142.939 0.918796 -4.07367 0
M  V30 1472 N 143.376 1.44774 -0.622745 0
M  V30 1473 C 144.324 2.32387 0.0994683 0
M  V30 1474 C 145.318 1.46859 0.844326 0
M  V30 1475 O 146.524 1.63254 0.758174 0
M  V30 1476 H 142.899 0.750273 0.0509291 0
M  V30 1477 H 144.87 2.91062 -0.65767 0
M  V30 1478 C 143.619 3.30723 1.07319 0
M  V30 1479 H 142.942 3.96541 0.509462 0
M  V30 1480 H 144.382 3.94725 1.54817 0
M  V30 1481 C 142.841 2.59021 2.15429 0
M  V30 1482 O 143.371 2.38286 3.23393 0
M  V30 1483 N 141.577 2.189 1.91131 0
M  V30 1484 H 141.124 2.35964 1.03337 0
M  V30 1485 H 141.082 1.71251 2.63668 0
M  V30 1486 N 144.854 0.36279 1.53368 0
M  V30 1487 C 146.082 -0.228613 2.05633 0
M  V30 1488 C 146.497 -1.42676 1.23649 0
M  V30 1489 O 145.854 -1.80394 0.27647 0
M  V30 1490 C 145.905 -0.624845 3.56059 0
M  V30 1491 O 145.626 0.525675 4.34935 0
M  V30 1492 C 147.127 -1.27493 4.24571 0
M  V30 1493 H 144.347 -0.0407183 0.669763 0
M  V30 1494 H 146.891 0.520352 1.97769 0
M  V30 1495 H 145.046 -1.32373 3.64083 0
M  V30 1496 H 145.46 0.205969 5.24095 0
M  V30 1497 H 146.934 -1.50277 5.31151 0
M  V30 1498 H 147.411 -2.23439 3.78116 0
M  V30 1499 H 148.017 -0.617558 4.20792 0
M  V30 1500 N 146.332 -1.57332 0.0918853 0
M  V30 1501 C 147.58 -1.93853 -0.571446 0
M  V30 1502 C 147.901 -0.974212 -1.6892 0
M  V30 1503 O 147.171 -0.0257254 -1.95883 0
M  V30 1504 H 145.751 -0.715666 -0.214082 0
M  V30 1505 H 148.413 -1.94287 0.154464 0
M  V30 1506 H 147.509 -2.96191 -0.983729 0
M  V30 1507 N 147.81 0.181792 -1.56548 0
M  V30 1508 C 149.059 0.898348 -1.8059 0
M  V30 1509 C 149.372 1.83862 -0.667379 0
M  V30 1510 O 150.578 2.59678 -0.792446 0
M  V30 1511 C 149.034 1.64791 -3.19956 0
M  V30 1512 C 148.642 0.751789 -4.41647 0
M  V30 1513 C 150.386 2.35331 -3.53298 0
M  V30 1514 C 148.293 1.50098 -5.72035 0
M  V30 1515 H 147.223 0.339194 -0.673397 0
M  V30 1516 H 149.874 0.151413 -1.82874 0
M  V30 1517 H 148.256 2.43921 -3.11959 0
M  V30 1518 H 149.43 -0.0018076 -4.608 0
M  V30 1519 H 147.745 0.156562 -4.16106 0
M  V30 1520 H 150.342 2.91958 -4.47956 0
M  V30 1521 H 150.685 3.10164 -2.77676 0
M  V30 1522 H 151.218 1.63154 -3.62803 0
M  V30 1523 H 147.957 0.795175 -6.50659 0
M  V30 1524 H 147.477 2.22817 -5.56878 0
M  V30 1525 H 149.156 2.05125 -6.13622 0
M  V30 1526 N 149.288 1.51039 0.449983 0
M  V30 1527 C 150.218 1.74379 1.55288 0
M  V30 1528 C 151.199 0.593236 1.5942 0
M  V30 1529 O 152.384 0.834625 1.7535 0
M  V30 1530 C 149.514 1.85728 2.93466 0
M  V30 1531 C 148.468 3.01078 3.04197 0
M  V30 1532 C 147.794 2.97595 4.44231 0
M  V30 1533 C 149.094 4.41254 2.7945 0
M  V30 1534 H 150.788 2.66725 1.36008 0
M  V30 1535 H 148.334 1.2835 0.652864 0
M  V30 1536 H 150.287 2.0064 3.70569 0
M  V30 1537 H 149.011 0.900207 3.13949 0
M  V30 1538 H 147.67 2.85851 2.29531 0
M  V30 1539 H 147.318 1.99691 4.61663 0
M  V30 1540 H 147.018 3.75046 4.52343 0
M  V30 1541 H 148.542 3.14583 5.23326 0
M  V30 1542 H 149.956 4.56897 3.46292 0
M  V30 1543 H 148.353 5.20315 2.98985 0
M  V30 1544 H 149.423 4.52164 1.75144 0
M  V30 1545 N 150.766 -0.704594 1.40972 0
M  V30 1546 C 151.696 -1.83124 1.44872 0
M  V30 1547 C 152.677 -1.67281 0.30838 0
M  V30 1548 O 153.862 -1.87149 0.518556 0
M  V30 1549 C 150.992 -3.21181 1.32136 0
M  V30 1550 C 149.946 -3.51714 2.43888 0
M  V30 1551 C 149.272 -4.89032 2.16222 0
M  V30 1552 C 150.572 -3.516 3.86232 0
M  V30 1553 H 152.266 -1.80117 2.39161 0
M  V30 1554 H 149.812 -0.865145 1.15114 0
M  V30 1555 H 151.765 -3.99702 1.33479 0
M  V30 1556 H 150.489 -3.24791 0.343279 0
M  V30 1557 H 149.148 -2.75539 2.41813 0
M  V30 1558 H 148.796 -4.89256 1.16778 0
M  V30 1559 H 148.496 -5.10426 2.911 0
M  V30 1560 H 150.02 -5.69873 2.19265 0
M  V30 1561 H 151.434 -4.2014 3.9007 0
M  V30 1562 H 149.831 -3.84523 4.60719 0
M  V30 1563 H 150.901 -2.50757 4.15029 0
M  V30 1564 N 152.244 -1.26651 -0.937939 0
M  V30 1565 C 153.491 -1.12387 -1.6845 0
M  V30 1566 C 153.819 0.332208 -1.91642 0
M  V30 1567 O 153.074 1.2602 -1.49725 0
M  V30 1568 C 153.373 -1.84168 -3.06295 0
M  V30 1569 C 153.039 -3.34056 -3.02849 0
M  V30 1570 C 151.701 -3.74942 -3.01616 0
M  V30 1571 C 154.053 -4.29741 -2.9491 0
M  V30 1572 C 151.381 -5.09894 -2.90215 0
M  V30 1573 C 153.733 -5.64738 -2.8505 0
M  V30 1574 C 152.397 -6.0493 -2.82162 0
M  V30 1575 H 151.667 -0.411252 -0.616403 0
M  V30 1576 H 154.314 -1.57134 -1.09459 0
M  V30 1577 H 152.619 -1.319 -3.6893 0
M  V30 1578 H 154.316 -1.70569 -3.62915 0
M  V30 1579 H 150.906 -3.01534 -3.0459 0
M  V30 1580 H 155.09 -3.99133 -2.94969 0
M  V30 1581 H 150.346 -5.40194 -2.86358 0
M  V30 1582 H 154.52 -6.38561 -2.77872 0
M  V30 1583 H 152.147 -7.09457 -2.73084 0
M  V30 1584 N 153.722 1.14298 -1.08507 0
M  V30 1585 C 154.652 2.21542 -0.737646 0
M  V30 1586 C 155.633 1.67773 0.280377 0
M  V30 1587 O 156.818 1.93616 0.150521 0
M  V30 1588 C 153.948 3.46988 -0.147259 0
M  V30 1589 C 152.902 4.13789 -1.09374 0
M  V30 1590 C 152.228 5.33449 -0.365524 0
M  V30 1591 C 153.528 4.62208 -2.4323 0
M  V30 1592 H 155.222 2.5086 -1.6343 0
M  V30 1593 H 152.768 1.20576 -0.787243 0
M  V30 1594 H 154.721 4.21262 0.107808 0
M  V30 1595 H 153.445 3.17037 0.784538 0
M  V30 1596 H 152.104 3.4147 -1.33393 0
M  V30 1597 H 151.752 4.99759 0.57011 0
M  V30 1598 H 151.452 5.79088 -0.996512 0
M  V30 1599 H 152.976 6.10485 -0.118534 0
M  V30 1600 H 154.39 5.27952 -2.23472 0
M  V30 1601 H 152.787 5.18553 -3.02031 0
M  V30 1602 H 153.857 3.77224 -3.04681 0
M  V30 1603 N 155.201 0.870884 1.31352 0
M  V30 1604 C 156.447 0.482987 1.96965 0
M  V30 1605 C 156.78 -0.962462 1.68672 0
M  V30 1606 O 156.055 -1.6779 0.98371 0
M  V30 1607 C 156.338 0.741752 3.52378 0
M  V30 1608 C 156.191 2.2368 3.9024 0
M  V30 1609 C 157.51 0.208838 4.39604 0
M  V30 1610 H 154.629 0.176955 0.715441 0
M  V30 1611 H 157.271 1.09229 1.55464 0
M  V30 1612 H 155.421 0.223149 3.87859 0
M  V30 1613 H 157.093 2.82273 3.64856 0
M  V30 1614 H 155.336 2.70901 3.38814 0
M  V30 1615 H 156.007 2.3685 4.98604 0
M  V30 1616 H 158.483 0.652529 4.10952 0
M  V30 1617 H 157.359 0.419336 5.47296 0
M  V30 1618 H 157.62 -0.889275 4.33064 0
M  V30 1619 N 156.679 -1.44442 0.630414 0
M  V30 1620 C 157.609 -2.33418 -0.0618083 0
M  V30 1621 C 158.59 -1.48165 -0.835541 0
M  V30 1622 O 159.775 -1.76886 -0.801564 0
M  V30 1623 C 156.905 -3.31222 -1.04449 0
M  V30 1624 C 155.859 -4.26288 -0.382436 0
M  V30 1625 C 155.185 -5.13954 -1.47497 0
M  V30 1626 C 156.485 -5.1744 0.710865 0
M  V30 1627 H 158.179 -2.91548 0.681184 0
M  V30 1628 H 155.725 -1.40191 0.329026 0
M  V30 1629 H 157.678 -3.92351 -1.53748 0
M  V30 1630 H 156.402 -2.71299 -1.81836 0
M  V30 1631 H 155.061 -3.6649 0.0899054 0
M  V30 1632 H 154.709 -4.50385 -2.2397 0
M  V30 1633 H 154.409 -5.7837 -1.03737 0
M  V30 1634 H 155.933 -5.77955 -1.96979 0
M  V30 1635 H 157.347 -5.72509 0.300996 0
M  V30 1636 H 155.744 -5.90455 1.07156 0
M  V30 1637 H 156.814 -4.58496 1.57829 0
M  V30 1638 N 158.157 -0.370918 -1.53173 0
M  V30 1639 C 159.087 0.464847 -2.28826 0
M  V30 1640 C 160.068 1.07936 -1.31468 0
M  V30 1641 O 161.253 1.0956 -1.60344 0
M  V30 1642 C 158.383 1.60196 -3.08147 0
M  V30 1643 C 157.337 1.11443 -4.13237 0
M  V30 1644 C 156.663 2.3422 -4.80672 0
M  V30 1645 C 157.963 0.195384 -5.21934 0
M  V30 1646 H 159.657 -0.166329 -2.98938 0
M  V30 1647 H 157.203 -0.0814359 -1.4377 0
M  V30 1648 H 159.156 2.19332 -3.59822 0
M  V30 1649 H 157.88 2.26045 -2.35735 0
M  V30 1650 H 156.539 0.545727 -3.62515 0
M  V30 1651 H 156.187 2.98537 -4.04827 0
M  V30 1652 H 155.887 2.02269 -5.51689 0
M  V30 1653 H 157.411 2.94032 -5.35143 0
M  V30 1654 H 158.825 0.694375 -5.69079 0
M  V30 1655 H 157.222 -0.0335027 -6.00091 0
M  V30 1656 H 158.292 -0.760961 -4.78892 0
M  V30 1657 N 159.635 1.57281 -0.100228 0
M  V30 1658 C 160.863 1.98879 0.570509 0
M  V30 1659 C 161.278 0.979476 1.61405 0
M  V30 1660 O 160.635 -0.0302288 1.82475 0
M  V30 1661 C 160.686 3.4052 1.2136 0
M  V30 1662 O 160.407 4.37588 0.211786 0
M  V30 1663 C 161.908 3.97149 1.96945 0
M  V30 1664 H 159.128 0.653428 0.152555 0
M  V30 1665 H 161.672 2.03697 -0.18103 0
M  V30 1666 H 159.827 3.367 1.91603 0
M  V30 1667 H 160.241 5.20118 0.676607 0
M  V30 1668 H 161.715 4.98393 2.37294 0
M  V30 1669 H 162.192 3.3525 2.83733 0
M  V30 1670 H 162.798 4.04458 1.31506 0
M  V30 1671 N 161.113 -0.173488 1.56642 0
M  V30 1672 C 162.338 -0.910149 1.86363 0
M  V30 1673 C 162.763 -1.75132 0.686318 0
M  V30 1674 O 162.121 -1.77595 -0.364643 0
M  V30 1675 C 162.169 -1.76447 3.14482 0
M  V30 1676 O 161.273 -2.86584 2.96553 0
M  V30 1677 H 160.614 -0.255086 0.613047 0
M  V30 1678 H 163.144 -0.172283 2.03873 0
M  V30 1679 H 163.154 -2.16483 3.45831 0
M  V30 1680 H 161.829 -1.14658 3.99783 0
M  V30 1681 H 160.406 -2.50146 2.76553 0
M  V30 1682 N 162.591 -1.51276 -0.441967 0
M  V30 1683 C 163.837 -1.63958 -1.19355 0
M  V30 1684 C 164.17 -0.352543 -1.90973 0
M  V30 1685 O 163.445 0.647627 -1.83401 0
M  V30 1686 C 163.728 -2.83979 -2.21422 0
M  V30 1687 C 163.581 -4.22646 -1.53918 0
M  V30 1688 C 164.9 -2.99521 -3.22451 0
M  V30 1689 H 162.019 -0.596709 -0.432559 0
M  V30 1690 H 164.661 -1.83748 -0.483398 0
M  V30 1691 H 162.811 -2.67237 -2.81987 0
M  V30 1692 H 164.483 -4.51045 -0.967256 0
M  V30 1693 H 162.726 -4.25558 -0.841615 0
M  V30 1694 H 163.397 -5.02609 -2.28229 0
M  V30 1695 H 165.873 -3.14944 -2.71937 0
M  V30 1696 H 164.749 -3.85072 -3.91166 0
M  V30 1697 H 165.01 -2.11391 -3.88287 0
M  V30 1698 N 164.069 0.697108 -1.41344 0
M  V30 1699 C 165.297 1.48593 -1.43972 0
M  V30 1700 C 165.712 1.88747 -0.0445612 0
M  V30 1701 O 165.069 1.56682 0.935785 0
M  V30 1702 C 165.12 2.74946 -2.34706 0
M  V30 1703 O 164.841 2.36484 -3.68791 0
M  V30 1704 C 166.342 3.687 -2.46121 0
M  V30 1705 H 163.562 0.457964 -0.490418 0
M  V30 1706 H 166.106 0.858429 -1.8561 0
M  V30 1707 H 164.261 3.33937 -1.9638 0
M  V30 1708 H 164.675 3.17918 -4.17167 0
M  V30 1709 H 166.149 4.54145 -3.13777 0
M  V30 1710 H 166.626 4.13081 -1.49199 0
M  V30 1711 H 167.232 3.15613 -2.85076 0
M  V30 1712 N 165.547 1.27147 0.931209 0
M  V30 1713 C 166.477 1.12081 2.04842 0
M  V30 1714 C 167.458 0.0232364 1.70084 0
M  V30 1715 O 168.643 0.197085 1.93197 0
M  V30 1716 C 165.773 0.76354 3.38803 0
M  V30 1717 C 164.727 1.81396 3.87659 0
M  V30 1718 C 164.053 1.31075 5.18385 0
M  V30 1719 C 165.353 3.21739 4.11438 0
M  V30 1720 H 167.047 2.05537 2.17703 0
M  V30 1721 H 164.593 0.989603 1.04608 0
M  V30 1722 H 166.546 0.644982 4.16435 0
M  V30 1723 H 165.27 -0.206727 3.25945 0
M  V30 1724 H 163.929 1.92136 3.12217 0
M  V30 1725 H 163.577 0.330037 5.01916 0
M  V30 1726 H 163.277 2.013 5.52044 0
M  V30 1727 H 164.801 1.20506 5.98591 0
M  V30 1728 H 166.215 3.14019 4.79651 0
M  V30 1729 H 164.612 3.89644 4.56397 0
M  V30 1730 H 165.682 3.67054 3.16859 0
M  V30 1731 N 167.025 -1.13721 1.09112 0
M  V30 1732 C 167.955 -2.21148 0.749385 0
M  V30 1733 C 168.936 -1.6792 -0.271475 0
M  V30 1734 O 170.121 -1.93693 -0.140251 0
M  V30 1735 C 167.251 -3.46905 0.165659 0
M  V30 1736 C 166.205 -4.13203 1.11567 0
M  V30 1737 C 165.531 -5.33248 0.393809 0
M  V30 1738 C 166.831 -4.60912 2.45678 0
M  V30 1739 H 168.525 -2.4999 1.64758 0
M  V30 1740 H 166.071 -1.20156 0.793626 0
M  V30 1741 H 168.024 -4.21313 -0.085466 0
M  V30 1742 H 166.748 -3.17449 -0.767714 0
M  V30 1743 H 165.407 -3.40758 1.35202 0
M  V30 1744 H 165.055 -5.00054 -0.543599 0
M  V30 1745 H 164.755 -5.78552 1.02721 0
M  V30 1746 H 166.279 -6.10413 0.150908 0
M  V30 1747 H 167.693 -5.26759 2.26269 0
M  V30 1748 H 166.09 -5.16944 3.04776 0
M  V30 1749 H 167.16 -3.75603 3.06677 0
M  V30 1750 N 168.503 -0.877838 -1.30888 0
M  V30 1751 C 169.728 -0.506629 -2.01117 0
M  V30 1752 C 170.153 0.895564 -1.65412 0
M  V30 1753 O 169.511 1.5923 -0.866922 0
M  V30 1754 C 169.559 -0.680223 -3.54126 0
M  V30 1755 O 168.663 0.277033 -4.11468 0
M  V30 1756 H 168.004 -0.200518 -0.633 0
M  V30 1757 H 170.534 -1.18342 -1.66902 0
M  V30 1758 H 170.544 -0.5765 -4.03907 0
M  V30 1759 H 169.219 -1.70261 -3.79452 0
M  V30 1760 H 167.796 0.127606 -3.72682 0
M  V30 1761 N 169.982 1.44106 -0.638065 0
M  V30 1762 C 171.231 2.01194 -0.142744 0
M  V30 1763 C 171.544 1.50835 1.24532 0
M  V30 1764 O 172.75 2.00096 1.83504 0
M  V30 1765 C 171.206 3.59319 -0.20442 0
M  V30 1766 C 170.814 4.18674 -1.59423 0
M  V30 1767 C 172.558 4.23854 0.234079 0
M  V30 1768 C 170.465 5.69045 -1.61065 0
M  V30 1769 H 169.395 0.752367 -0.0495998 0
M  V30 1770 H 172.046 1.65246 -0.797881 0
M  V30 1771 H 170.428 3.92598 0.517946 0
M  V30 1772 H 171.602 3.96921 -2.34074 0
M  V30 1773 H 169.917 3.66453 -1.97741 0
M  V30 1774 H 172.514 5.34155 0.241443 0
M  V30 1775 H 172.857 3.96688 1.2627 0
M  V30 1776 H 173.39 3.95403 -0.436025 0
M  V30 1777 H 170.129 6.00956 -2.61787 0
M  V30 1778 H 169.649 5.929 -0.90718 0
M  V30 1779 H 171.328 6.32809 -1.34766 0
M  V30 1780 N 171.46 0.379036 1.52974 0
M  V30 1781 C 172.69 -0.20649 2.05566 0
M  V30 1782 C 173.098 -1.41906 1.25137 0
M  V30 1783 O 172.441 -1.81421 0.288464 0
M  V30 1784 C 172.503 -0.651086 3.53555 0
M  V30 1785 C 172.167 0.446626 4.54812 0
M  V30 1786 C 173.164 1.30079 5.03364 0
M  V30 1787 C 170.849 0.610719 4.98573 0
M  V30 1788 C 172.843 2.30426 5.94292 0
M  V30 1789 C 170.53 1.61754 5.89304 0
M  V30 1790 C 171.528 2.46274 6.37054 0
M  V30 1791 O 171.216 3.45237 7.25994 0
M  V30 1792 H 170.948 -0.0372381 0.674974 0
M  V30 1793 H 173.502 0.539718 1.98182 0
M  V30 1794 H 171.732 -1.44911 3.58522 0
M  V30 1795 H 173.421 -1.16112 3.88938 0
M  V30 1796 H 174.187 1.18527 4.70294 0
M  V30 1797 H 170.066 -0.0374044 4.60985 0
M  V30 1798 H 173.61 2.96432 6.31485 0
M  V30 1799 H 169.507 1.73348 6.21788 0
M  V30 1800 H 170.275 3.41124 7.44027 0
M  V30 1801 N 172.938 -1.57226 0.108567 0
M  V30 1802 C 174.163 -1.99604 -0.563303 0
M  V30 1803 C 174.588 -0.987563 -1.6009 0
M  V30 1804 O 173.946 0.0421687 -1.81251 0
M  V30 1805 C 173.994 -3.40902 -1.17552 0
M  V30 1806 O 173.098 -3.42896 -2.2912 0
M  V30 1807 H 172.439 -0.648704 -0.1417 0
M  V30 1808 H 174.969 -2.03679 0.193961 0
M  V30 1809 H 174.979 -3.78886 -1.51357 0
M  V30 1810 H 173.654 -4.1382 -0.415445 0
M  V30 1811 H 172.231 -3.1672 -1.96832 0
M  V30 1812 N 174.416 0.165178 -1.56732 0
M  V30 1813 C 175.665 0.879143 -1.81532 0
M  V30 1814 C 175.978 1.83144 -0.686842 0
M  V30 1815 O 177.184 2.58823 -0.819944 0
M  V30 1816 C 175.64 1.61388 -3.21686 0
M  V30 1817 C 175.248 0.704904 -4.4242 0
M  V30 1818 C 176.992 2.3157 -3.55774 0
M  V30 1819 C 174.899 1.44022 -5.73595 0
M  V30 1820 H 173.829 0.332033 -0.676957 0
M  V30 1821 H 176.48 0.132008 -1.83025 0
M  V30 1822 H 174.862 2.40599 -3.14529 0
M  V30 1823 H 176.036 -0.0506815 -4.60772 0
M  V30 1824 H 174.351 0.112419 -4.16248 0
M  V30 1825 H 176.948 2.8719 -4.51028 0
M  V30 1826 H 177.291 3.07201 -2.8095 0
M  V30 1827 H 177.824 1.59297 -3.64513 0
M  V30 1828 H 174.563 0.72612 -6.51466 0
M  V30 1829 H 174.083 2.16898 -5.5921 0
M  V30 1830 H 175.762 1.98606 -6.15764 0
M  V30 1831 N 175.894 1.51508 0.433938 0
M  V30 1832 C 176.842 1.73646 1.54757 0
M  V30 1833 C 177.836 0.602854 1.5831 0
M  V30 1834 O 179.042 0.784318 1.62014 0
M  V30 1835 H 175.417 0.548718 0.51421 0
M  V30 1836 H 177.388 2.66991 1.33261 0
M  V30 1837 C 176.137 1.88172 2.92381 0
M  V30 1838 H 175.46 2.74808 2.90381 0
M  V30 1839 H 176.9 2.07672 3.6966 0
M  V30 1840 C 175.359 0.64239 3.30719 0
M  V30 1841 O 175.889 -0.201362 4.01195 0
M  V30 1842 N 174.095 0.485489 2.86516 0
M  V30 1843 H 173.642 1.17318 2.29334 0
M  V30 1844 H 173.6 -0.342482 3.12529 0
M  V30 1845 N 177.372 -0.689602 1.41712 0
M  V30 1846 C 178.302 -1.81577 1.46806 0
M  V30 1847 C 179.283 -1.66945 0.326105 0
M  V30 1848 O 180.468 -1.86588 0.538377 0
M  V30 1849 C 177.598 -3.19762 1.35535 0
M  V30 1850 C 176.552 -3.49107 2.47605 0
M  V30 1851 C 175.878 -4.86711 2.21397 0
M  V30 1852 C 177.178 -3.47483 3.89939 0
M  V30 1853 H 178.872 -1.7757 2.41058 0
M  V30 1854 H 176.418 -0.852887 1.16025 0
M  V30 1855 H 178.371 -3.98263 1.3771 0
M  V30 1856 H 177.095 -3.24409 0.377708 0
M  V30 1857 H 175.754 -2.72959 2.44722 0
M  V30 1858 H 175.402 -4.8799 1.21961 0
M  V30 1859 H 175.102 -5.0731 2.96497 0
M  V30 1860 H 176.626 -5.67515 2.25297 0
M  V30 1861 H 178.04 -4.1598 3.94505 0
M  V30 1862 H 176.437 -3.79615 4.64771 0
M  V30 1863 H 177.507 -2.46341 4.17665 0
M  V30 1864 N 178.85 -1.27639 -0.924453 0
M  V30 1865 C 179.78 -1.13166 -2.04244 0
M  V30 1866 C 180.761 -0.032256 -1.70069 0
M  V30 1867 O 181.946 -0.207328 -1.9309 0
M  V30 1868 C 179.076 -0.781496 -3.38393 0
M  V30 1869 C 178.03 -1.83449 -3.86692 0
M  V30 1870 C 177.356 -1.33822 -5.17683 0
M  V30 1871 C 178.656 -3.23917 -4.09726 0
M  V30 1872 H 180.35 -2.06689 -2.1661 0
M  V30 1873 H 177.896 -0.995136 -1.04082 0
M  V30 1874 H 179.849 -0.667057 -4.16087 0
M  V30 1875 H 178.573 0.189439 -3.2605 0
M  V30 1876 H 177.232 -1.93789 -3.11193 0
M  V30 1877 H 176.88 -0.35665 -5.01734 0
M  V30 1878 H 176.58 -2.04224 -5.50968 0
M  V30 1879 H 178.104 -1.23679 -5.97943 0
M  V30 1880 H 179.518 -3.16559 -4.77978 0
M  V30 1881 H 177.915 -3.92059 -4.54324 0
M  V30 1882 H 178.985 -3.68729 -3.14908 0
M  V30 1883 N 180.328 1.1314 -1.09713 0
M  V30 1884 C 181.258 2.20748 -0.761102 0
M  V30 1885 C 182.239 1.68061 0.262566 0
M  V30 1886 O 183.424 1.93765 0.129977 0
M  V30 1887 C 180.554 3.46812 -0.184054 0
M  V30 1888 C 179.508 4.12606 -1.13757 0
M  V30 1889 C 178.834 5.33031 -0.422083 0
M  V30 1890 C 180.134 4.59603 -2.48118 0
M  V30 1891 H 181.828 2.49113 -1.66082 0
M  V30 1892 H 179.374 1.19734 -0.799987 0
M  V30 1893 H 181.327 4.21353 0.0631215 0
M  V30 1894 H 180.051 3.17851 0.750868 0
M  V30 1895 H 178.71 3.40036 -1.37007 0
M  V30 1896 H 178.358 5.00335 0.517072 0
M  V30 1897 H 178.058 5.77999 -1.05788 0
M  V30 1898 H 179.582 6.10325 -0.183277 0
M  V30 1899 H 180.996 5.25552 -2.29059 0
M  V30 1900 H 179.393 5.15321 -3.07514 0
M  V30 1901 H 180.463 3.73971 -3.08665 0
M  V30 1902 N 181.806 0.884767 1.30421 0
M  V30 1903 C 183.055 0.499164 1.95426 0
M  V30 1904 C 183.368 -0.95645 1.70621 0
M  V30 1905 O 184.574 -1.44889 2.29607 0
M  V30 1906 C 183.03 0.84177 3.49917 0
M  V30 1907 C 182.638 2.31514 3.83543 0
M  V30 1908 C 184.382 0.525355 4.21237 0
M  V30 1909 C 182.289 2.59939 5.31212 0
M  V30 1910 H 181.219 0.182944 0.73147 0
M  V30 1911 H 183.87 1.07971 1.48373 0
M  V30 1912 H 182.252 0.190311 3.95542 0
M  V30 1913 H 183.426 3.0109 3.48829 0
M  V30 1914 H 181.741 2.59907 3.25326 0
M  V30 1915 H 184.338 0.714762 5.29901 0
M  V30 1916 H 184.681 -0.535222 4.12845 0
M  V30 1917 H 185.214 1.134 3.81294 0
M  V30 1918 H 181.953 3.64736 5.44654 0
M  V30 1919 H 181.473 1.94972 5.67227 0
M  V30 1920 H 183.152 2.45429 5.98643 0
M  V30 1921 N 183.284 -1.43765 0.645699 0
M  V30 1922 C 184.524 -2.03776 0.159542 0
M  V30 1923 C 184.888 -1.49792 -1.2011 0
M  V30 1924 O 186.089 -2.01398 -1.78023 0
M  V30 1925 C 184.36 -3.57036 0.161251 0
M  V30 1926 S 185.919 -4.3804 -0.258159 0
M  V30 1927 H 182.737 -0.707717 0.0682454 0
M  V30 1928 H 185.339 -1.75941 0.852352 0
M  V30 1929 H 184.043 -3.9383 1.15439 0
M  V30 1930 H 183.574 -3.89503 -0.552339 0
M  V30 1931 H 185.589 -4.7302 -1.49889 0
M  V30 1932 N 184.763 -0.387143 -1.52771 0
M  V30 1933 C 185.988 0.198407 -2.06449 0
M  V30 1934 C 186.413 1.39918 -1.25716 0
M  V30 1935 O 185.771 1.79099 -0.281657 0
M  V30 1936 C 185.819 0.548893 -3.56398 0
M  V30 1937 O 184.923 1.64315 -3.78252 0
M  V30 1938 H 184.264 0.0237731 -0.663574 0
M  V30 1939 H 186.794 -0.553989 -1.96957 0
M  V30 1940 H 186.804 0.813812 -3.99801 0
M  V30 1941 H 185.479 -0.329005 -4.14597 0
M  V30 1942 H 184.056 1.37211 -3.46738 0
M  V30 1943 N 186.241 1.57166 -0.116904 0
M  V30 1944 C 187.188 2.15202 0.83408 0
M  V30 1945 C 188.158 1.07644 1.26499 0
M  V30 1946 O 189.343 1.35541 1.34288 0
M  V30 1947 C 186.483 2.75405 2.07957 0
M  V30 1948 C 185.596 3.97264 1.69721 0
M  V30 1949 C 184.731 4.45561 2.89221 0
M  V30 1950 C 183.77 5.59956 2.47215 0
M  V30 1951 N 182.907 6.03006 3.59622 0
M  V30 1952 H 187.747 2.96141 0.332335 0
M  V30 1953 H 185.284 1.46309 0.152349 0
M  V30 1954 H 187.242 3.08439 2.80929 0
M  V30 1955 H 185.872 1.97159 2.55594 0
M  V30 1956 H 184.924 3.70404 0.866316 0
M  V30 1957 H 186.236 4.80226 1.34849 0
M  V30 1958 H 185.39 4.80493 3.7042 0
M  V30 1959 H 184.129 3.61544 3.27318 0
M  V30 1960 H 183.134 5.2463 1.64448 0
M  V30 1961 H 184.359 6.45738 2.10238 0
M  V30 1962 H 182.305 5.21931 3.97396 0
M  V30 1963 H 182.222 6.80819 3.28667 0
M  V30 1964 H 183.49 6.42576 4.41267 0
M  V30 1965 N 187.719 -0.156864 1.56817 0
M  V30 1966 C 188.629 -1.2136 2.00771 0
M  V30 1967 C 189.645 -1.47598 0.921459 0
M  V30 1968 O 190.821 -1.59462 1.2302 0
M  V30 1969 C 187.886 -2.52943 2.37109 0
M  V30 1970 C 186.947 -2.34439 3.59634 0
M  V30 1971 C 186.18 -3.59748 3.94229 0
M  V30 1972 O 186.403 -4.65526 3.29609 0
M  V30 1973 O 185.337 -3.52998 4.8752 0
M  V30 1974 H 189.163 -0.870468 2.90958 0
M  V30 1975 H 186.748 -0.36484 1.44877 0
M  V30 1976 H 188.63 -3.30538 2.61386 0
M  V30 1977 H 187.305 -2.86806 1.5008 0
M  V30 1978 H 186.212 -1.54828 3.40557 0
M  V30 1979 H 187.545 -2.05496 4.4725 0
M  V30 1980 N 189.197 -1.51736 -0.425897 0
M  V30 1981 C 190.425 -1.68794 -1.1965 0
M  V30 1982 C 190.84 -0.390164 -1.84725 0
M  V30 1983 O 190.197 0.632376 -1.71194 0
M  V30 1984 C 190.248 -2.81174 -2.27208 0
M  V30 1985 O 189.969 -4.05925 -1.64793 0
M  V30 1986 C 191.47 -3.09599 -3.17275 0
M  V30 1987 H 188.69 -0.566128 -0.360194 0
M  V30 1988 H 191.234 -1.98211 -0.503249 0
M  V30 1989 H 189.389 -2.54324 -2.9223 0
M  V30 1990 H 189.803 -4.68423 -2.35967 0
M  V30 1991 H 191.277 -3.91786 -3.88854 0
M  V30 1992 H 191.754 -2.22468 -3.78688 0
M  V30 1993 H 192.36 -3.38151 -2.57941 0
M  V30 1994 N 190.675 0.682077 -1.42076 0
M  V30 1995 C 191.923 1.4393 -1.41876 0
M  V30 1996 C 192.244 1.94971 -0.0335599 0
M  V30 1997 O 191.514 1.72591 0.926773 0
M  V30 1998 H 190.094 0.534085 -0.522267 0
M  V30 1999 H 192.756 0.806427 -1.77434 0
M  V30 2000 H 191.852 2.29588 -2.11414 0
M  V30 2001 N 192.153 1.28127 0.917671 0
M  V30 2002 C 193.393 1.163 1.68088 0
M  V30 2003 C 193.757 -0.284515 1.8988 0
M  V30 2004 O 194.958 -0.525413 2.63615 0
M  V30 2005 C 193.229 1.93546 3.00457 0
M  V30 2006 S 194.788 1.98048 3.91564 0
M  V30 2007 H 191.606 0.415005 0.577315 0
M  V30 2008 H 194.208 1.62173 1.09179 0
M  V30 2009 H 192.912 2.97888 2.82295 0
M  V30 2010 H 192.443 1.48207 3.64415 0
M  V30 2011 H 194.458 1.08415 4.84211 0
M  V30 2012 N 193.631 -1.12557 1.10312 0
M  V30 2013 C 194.564 -2.1737 0.694674 0
M  V30 2014 C 195.542 -1.59745 -0.303373 0
M  V30 2015 O 196.726 -1.87408 -0.202578 0
M  V30 2016 C 193.853 -3.38691 0.0248052 0
M  V30 2017 C 192.899 -4.14943 0.986121 0
M  V30 2018 S 193.732 -4.73413 2.50281 0
M  V30 2019 C 194.888 -5.9807 1.84562 0
M  V30 2020 H 195.121 -2.5168 1.58255 0
M  V30 2021 H 192.654 -1.23998 0.919992 0
M  V30 2022 H 194.612 -4.08959 -0.355361 0
M  V30 2023 H 193.273 -3.02664 -0.839851 0
M  V30 2024 H 192.466 -5.01854 0.464651 0
M  V30 2025 H 192.068 -3.50377 1.30813 0
M  V30 2026 H 194.36 -6.67232 1.17507 0
M  V30 2027 H 195.303 -6.54841 2.69423 0
M  V30 2028 H 195.711 -5.49073 1.31069 0
M  V30 2029 N 195.109 -0.891671 -1.2995 0
M  V30 2030 C 196.355 -0.514261 -1.96171 0
M  V30 2031 C 196.688 0.935506 -1.70182 0
M  V30 2032 O 195.963 1.66204 -1.01028 0
M  V30 2033 C 196.246 -0.797719 -3.51153 0
M  V30 2034 C 196.099 -2.2986 -3.86632 0
M  V30 2035 C 197.418 -0.278749 -4.39216 0
M  V30 2036 H 194.537 -0.188314 -0.712535 0
M  V30 2037 H 197.179 -1.11689 -1.53706 0
M  V30 2038 H 195.329 -0.284826 -3.87455 0
M  V30 2039 H 197.001 -2.88042 -3.60319 0
M  V30 2040 H 195.244 -2.76257 -3.34462 0
M  V30 2041 H 195.915 -2.44753 -4.94773 0
M  V30 2042 H 198.391 -0.717825 -4.09862 0
M  V30 2043 H 197.267 -0.506353 -5.46559 0
M  V30 2044 H 197.528 0.820266 -4.34424 0
M  V30 2045 N 196.587 1.43421 -0.653314 0
M  V30 2046 C 197.817 2.05864 -0.174238 0
M  V30 2047 C 198.225 1.49052 1.16534 0
M  V30 2048 O 197.568 0.616481 1.73047 0
M  V30 2049 C 197.63 3.59499 -0.00875873 0
M  V30 2050 C 197.294 4.38893 -1.27364 0
M  V30 2051 C 198.291 4.70947 -2.20239 0
M  V30 2052 C 195.976 4.789 -1.51525 0
M  V30 2053 C 197.97 5.41916 -3.35568 0
M  V30 2054 C 195.657 5.49614 -2.67147 0
M  V30 2055 C 196.655 5.81044 -3.58994 0
M  V30 2056 O 196.343 6.50313 -4.72597 0
M  V30 2057 H 196.075 0.670345 -0.0872549 0
M  V30 2058 H 198.629 1.84913 -0.894226 0
M  V30 2059 H 196.859 3.79025 0.7666 0
M  V30 2060 H 198.548 4.0364 0.427687 0
M  V30 2061 H 199.314 4.40558 -2.02815 0
M  V30 2062 H 195.193 4.53843 -0.809158 0
M  V30 2063 H 198.737 5.66365 -4.07279 0
M  V30 2064 H 194.634 5.79419 -2.84505 0
M  V30 2065 H 195.402 6.68795 -4.71864 0
M  V30 2066 N 198.065 0.39524 1.52563 0
M  V30 2067 C 198.975 -0.444232 2.30356 0
M  V30 2068 C 199.991 -1.06615 1.37511 0
M  V30 2069 O 201.167 -1.07067 1.70583 0
M  V30 2070 C 198.232 -1.55315 3.09964 0
M  V30 2071 C 197.293 -0.955734 4.18526 0
M  V30 2072 C 196.526 -2.01181 4.9433 0
M  V30 2073 O 196.749 -3.22781 4.70285 0
M  V30 2074 O 195.683 -1.62579 5.79527 0
M  V30 2075 H 199.509 0.189667 3.03107 0
M  V30 2076 H 197.094 0.1588 1.48554 0
M  V30 2077 H 198.976 -2.19724 3.59582 0
M  V30 2078 H 197.651 -2.17191 2.4002 0
M  V30 2079 H 196.558 -0.274743 3.7309 0
M  V30 2080 H 197.891 -0.381109 4.90722 0
M  V30 2081 N 199.544 -1.57102 0.125237 0
M  V30 2082 C 200.491 -2.15641 -0.822655 0
M  V30 2083 C 201.461 -1.08313 -1.25927 0
M  V30 2084 O 202.646 -1.36251 -1.33567 0
M  V30 2085 C 199.786 -2.76504 -2.06494 0
M  V30 2086 C 198.899 -3.98158 -1.67612 0
M  V30 2087 C 198.034 -4.47088 -2.86854 0
M  V30 2088 C 197.073 -5.6126 -2.44242 0
M  V30 2089 N 196.21 -6.04905 -3.56419 0
M  V30 2090 H 201.05 -2.96313 -0.316625 0
M  V30 2091 H 198.587 -1.46388 -0.144588 0
M  V30 2092 H 200.545 -3.09925 -2.79289 0
M  V30 2093 H 199.175 -1.98512 -2.54545 0
M  V30 2094 H 198.227 -3.70858 -0.846661 0
M  V30 2095 H 199.539 -4.80934 -1.32301 0
M  V30 2096 H 198.693 -4.82451 -3.67867 0
M  V30 2097 H 197.432 -3.63275 -3.25396 0
M  V30 2098 H 196.437 -5.25495 -1.61663 0
M  V30 2099 H 197.662 -6.46843 -2.0681 0
M  V30 2100 H 195.608 -5.24032 -3.94623 0
M  V30 2101 H 195.525 -6.82552 -3.25051 0
M  V30 2102 H 196.793 -6.44907 -4.37853 0
M  V30 2103 N 201.022 0.148545 -1.56898 0
M  V30 2104 C 201.952 1.18524 -2.01182 0
M  V30 2105 C 202.933 1.4489 -0.891123 0
M  V30 2106 O 204.118 1.55836 -1.15882 0
M  V30 2107 C 201.248 2.51879 -2.39112 0
M  V30 2108 C 200.202 2.40038 -3.54353 0
M  V30 2109 C 199.528 3.78089 -3.78091 0
M  V30 2110 C 200.828 1.88577 -4.87069 0
M  V30 2111 H 202.522 0.817029 -2.88036 0
M  V30 2112 H 200.068 0.391575 -1.38574 0
M  V30 2113 H 202.021 3.24627 -2.68692 0
M  V30 2114 H 200.745 2.90532 -1.49193 0
M  V30 2115 H 199.404 1.69742 -3.24936 0
M  V30 2116 H 199.052 4.14175 -2.85426 0
M  V30 2117 H 198.752 3.71028 -4.55645 0
M  V30 2118 H 200.276 4.52387 -4.10095 0
M  V30 2119 H 201.69 2.51117 -5.15377 0
M  V30 2120 H 200.087 1.9241 -5.68417 0
M  V30 2121 H 201.157 0.84136 -4.77545 0
M  V30 2122 N 202.5 1.5196 0.417844 0
M  V30 2123 C 203.748 1.65263 1.16329 0
M  V30 2124 C 204.069 0.380634 1.91249 0
M  V30 2125 O 203.339 -0.604214 1.86349 0
M  V30 2126 H 201.919 0.60912 0.432414 0
M  V30 2127 H 204.581 1.88969 0.477162 0
M  V30 2128 H 203.677 2.4896 1.88217 0
M  V30 2129 N 203.978 -0.674533 1.42435 0
M  V30 2130 C 204.888 -1.81751 1.48337 0
M  V30 2131 C 205.904 -1.69975 0.372099 0
M  V30 2132 O 207.08 -1.91521 0.62304 0
M  V30 2133 C 204.145 -3.17895 1.38361 0
M  V30 2134 C 203.206 -3.41625 2.59982 0
M  V30 2135 C 202.439 -4.71274 2.50473 0
M  V30 2136 O 202.662 -5.49197 1.54075 0
M  V30 2137 O 201.596 -4.96254 3.4061 0
M  V30 2138 H 205.422 -1.79728 2.44809 0
M  V30 2139 H 203.007 -0.830312 1.24202 0
M  V30 2140 H 204.889 -3.99136 1.35161 0
M  V30 2141 H 203.564 -3.20555 0.450144 0
M  V30 2142 H 202.471 -2.60231 2.68757 0
M  V30 2143 H 203.804 -3.43796 3.52229 0
M  V30 2144 N 205.456 -1.28612 -0.910864 0
M  V30 2145 C 206.388 -1.08589 -2.01844 0
M  V30 2146 C 207.401 -0.0367419 -1.62759 0
M  V30 2147 O 208.59 -0.280101 -1.76289 0
M  V30 2148 C 205.69 -0.628626 -3.33019 0
M  V30 2149 C 204.863 -1.75382 -4.00699 0
M  V30 2150 C 203.922 -1.28945 -5.10156 0
M  V30 2151 O 202.948 -1.9922 -5.33198 0
M  V30 2152 N 204.15 -0.154224 -5.80295 0
M  V30 2153 H 206.915 -2.03973 -2.19579 0
M  V30 2154 H 204.476 -1.20403 -1.08234 0
M  V30 2155 H 206.468 -0.301508 -4.03575 0
M  V30 2156 H 205.038 0.232451 -3.11735 0
M  V30 2157 H 204.258 -2.25039 -3.23653 0
M  V30 2158 H 205.546 -2.50854 -4.42662 0
M  V30 2159 H 204.944 0.43194 -5.64049 0
M  V30 2160 H 203.501 0.113599 -6.51701 0
M  V30 2161 N 206.934 1.1197 -1.10907 0
M  V30 2162 C 208.18 1.8386 -0.855773 0
M  V30 2163 C 208.513 1.84134 0.617103 0
M  V30 2164 O 207.788 1.29041 1.45529 0
M  V30 2165 C 208.071 3.31305 -1.411 0
M  V30 2166 C 207.924 3.39456 -2.9511 0
M  V30 2167 C 209.243 4.2721 -1.05736 0
M  V30 2168 H 206.362 0.667545 -0.312334 0
M  V30 2169 H 209.004 1.31331 -1.37303 0
M  V30 2170 H 207.154 3.76169 -0.97105 0
M  V30 2171 H 208.826 3.03191 -3.47668 0
M  V30 2172 H 207.069 2.79849 -3.31462 0
M  V30 2173 H 207.74 4.43209 -3.29044 0
M  V30 2174 H 210.216 3.90497 -1.43706 0
M  V30 2175 H 209.092 5.28775 -1.47269 0
M  V30 2176 H 209.353 4.42088 0.0325958 0
M  V30 2177 N 208.412 0.89855 1.29475 0
M  V30 2178 C 209.659 0.523882 1.95606 0
M  V30 2179 C 209.987 -0.929608 1.70847 0
M  V30 2180 O 209.242 -1.67401 1.01367 0
M  V30 2181 C 209.541 0.761398 3.49195 0
M  V30 2182 C 209.207 2.19207 3.94029 0
M  V30 2183 C 207.869 2.58326 4.05982 0
M  V30 2184 C 210.221 3.12379 4.17216 0
M  V30 2185 C 207.549 3.898 4.38489 0
M  V30 2186 C 209.901 4.43401 4.51197 0
M  V30 2187 C 208.565 4.82394 4.61359 0
M  V30 2188 H 207.835 0.191702 0.715773 0
M  V30 2189 H 210.482 1.13699 1.54094 0
M  V30 2190 H 208.787 0.0653622 3.91745 0
M  V30 2191 H 210.484 0.450904 3.98457 0
M  V30 2192 H 207.074 1.87846 3.85242 0
M  V30 2193 H 211.258 2.83371 4.07449 0
M  V30 2194 H 206.514 4.19734 4.44559 0
M  V30 2195 H 210.688 5.15623 4.68087 0
M  V30 2196 H 208.315 5.84306 4.86303 0
M  V30 2197 N 209.89 -1.43072 0.660911 0
M  V30 2198 C 211.138 -2.01323 0.177094 0
M  V30 2199 C 211.459 -1.5245 -1.2159 0
M  V30 2200 O 210.729 -0.740322 -1.81373 0
M  V30 2201 H 209.309 -0.744382 0.0624804 0
M  V30 2202 H 211.971 -1.75179 0.854305 0
M  V30 2203 H 211.067 -3.11649 0.167641 0
M  V30 2204 N 211.368 -0.403325 -1.52352 0
M  V30 2205 C 212.596 0.174012 -2.06167 0
M  V30 2206 C 213.011 1.39347 -1.27388 0
M  V30 2207 O 212.368 1.79597 -0.324201 0
M  V30 2208 C 212.419 0.530223 -3.5759 0
M  V30 2209 O 212.14 -0.640806 -4.33388 0
M  V30 2210 C 213.641 1.16192 -4.27802 0
M  V30 2211 H 210.861 0.0229464 -0.670608 0
M  V30 2212 H 213.405 -0.572604 -1.9632 0
M  V30 2213 H 211.56 1.22673 -3.67464 0
M  V30 2214 H 211.974 -0.344851 -5.23365 0
M  V30 2215 H 213.448 1.36141 -5.34948 0
M  V30 2216 H 213.925 2.13335 -3.83907 0
M  V30 2217 H 214.531 0.505775 -4.22282 0
M  V30 2218 N 212.846 1.57033 -0.133567 0
M  V30 2219 C 214.074 2.00044 0.528195 0
M  V30 2220 C 214.489 1.01349 1.59291 0
M  V30 2221 O 213.846 0.00848369 1.82498 0
M  V30 2222 C 213.897 3.43018 1.1411 0
M  V30 2223 O 213.618 4.37939 0.11892 0
M  V30 2224 C 215.119 4.01237 1.88477 0
M  V30 2225 H 212.339 0.656517 0.138661 0
M  V30 2226 H 214.883 2.03267 -0.224196 0
M  V30 2227 H 213.038 3.40688 1.84418 0
M  V30 2228 H 213.452 5.21436 0.56613 0
M  V30 2229 H 214.926 5.03314 2.26669 0
M  V30 2230 H 215.403 3.41193 2.76558 0
M  V30 2231 H 216.009 4.07156 1.22898 0
M  V30 2232 N 214.325 -0.140222 1.56975 0
M  V30 2233 C 215.573 -0.850005 1.83356 0
M  V30 2234 C 215.894 -1.81399 0.71551 0
M  V30 2235 O 215.164 -1.94136 -0.262294 0
M  V30 2236 H 213.744 -0.316886 0.676456 0
M  V30 2237 H 216.406 -0.132608 1.94448 0
M  V30 2238 H 215.502 -1.40814 2.78528 0
M  V30 2239 N 215.803 -1.52179 -0.40978 0
M  V30 2240 C 216.75 -1.75475 -1.49924 0
M  V30 2241 C 217.72 -0.597175 -1.54994 0
M  V30 2242 O 218.905 -0.834655 -1.71575 0
M  V30 2243 C 216.045 -1.9107 -2.87378 0
M  V30 2244 C 215.158 -3.18717 -2.91622 0
M  V30 2245 C 214.293 -3.24747 -4.20372 0
M  V30 2246 C 213.332 -4.46598 -4.18588 0
M  V30 2247 N 212.469 -4.50025 -5.38908 0
M  V30 2248 H 217.309 -2.68458 -1.29361 0
M  V30 2249 H 214.846 -1.33024 -0.627934 0
M  V30 2250 H 216.804 -1.98096 -3.6717 0
M  V30 2251 H 215.434 -1.01469 -3.06437 0
M  V30 2252 H 214.486 -3.20866 -2.04326 0
M  V30 2253 H 215.798 -4.08544 -2.86169 0
M  V30 2254 H 214.952 -3.30841 -5.08556 0
M  V30 2255 H 213.691 -2.32857 -4.28519 0
M  V30 2256 H 212.696 -4.40652 -3.28794 0
M  V30 2257 H 213.921 -5.39783 -4.12081 0
M  V30 2258 H 211.867 -3.61017 -5.47725 0
M  V30 2259 H 211.784 -5.33697 -5.35447 0
M  V30 2260 H 213.052 -4.60347 -6.29048 0
M  V30 2261 N 217.281 0.66697 -1.42791 0
M  V30 2262 C 218.528 1.42699 -1.43678 0
M  V30 2263 C 218.856 1.94419 -0.0560425 0
M  V30 2264 O 218.111 1.7182 0.936831 0
M  V30 2265 C 218.41 2.6349 -2.4147 0
M  V30 2266 C 218.076 2.30267 -3.8767 0
M  V30 2267 C 216.738 2.20918 -4.27491 0
M  V30 2268 C 219.09 2.03435 -4.79858 0
M  V30 2269 C 216.418 1.82873 -5.57471 0
M  V30 2270 C 218.77 1.66892 -6.10188 0
M  V30 2271 C 217.434 1.56058 -6.49001 0
M  V30 2272 H 216.704 0.522171 -0.525755 0
M  V30 2273 H 219.351 0.759785 -1.75783 0
M  V30 2274 H 217.656 3.35279 -2.0272 0
M  V30 2275 H 219.353 3.21684 -2.39417 0
M  V30 2276 H 215.943 2.38449 -3.56146 0
M  V30 2277 H 220.127 2.09586 -4.49875 0
M  V30 2278 H 215.383 1.7306 -5.86396 0
M  V30 2279 H 219.557 1.45157 -6.81104 0
M  V30 2280 H 217.184 1.26348 -7.49627 0
M  V30 2281 N 218.759 1.29093 0.90403 0
M  V30 2282 C 220.005 1.16986 1.65656 0
M  V30 2283 C 220.338 -0.278925 1.92186 0
M  V30 2284 O 219.613 -1.2019 1.5292 0
M  V30 2285 C 219.896 1.97908 3.0084 0
M  V30 2286 C 219.749 3.50903 2.81403 0
M  V30 2287 C 221.068 1.80208 4.01513 0
M  V30 2288 H 218.187 0.426346 0.601164 0
M  V30 2289 H 220.829 1.58518 1.04747 0
M  V30 2290 H 218.979 1.62616 3.52829 0
M  V30 2291 H 220.651 3.96153 2.36348 0
M  V30 2292 H 218.894 3.76045 2.1627 0
M  V30 2293 H 219.565 4.02791 3.77443 0
M  V30 2294 H 222.041 2.11025 3.58619 0
M  V30 2295 H 220.917 2.39184 4.94047 0
M  V30 2296 H 221.178 0.756119 4.35586 0
M  V30 2297 N 220.237 -1.11381 1.11499 0
M  V30 2298 C 221.486 -1.82494 0.858993 0
M  V30 2299 C 221.799 -1.85605 -0.617278 0
M  V30 2300 O 223.005 -2.52824 -0.989552 0
M  V30 2301 C 221.461 -3.27745 1.48699 0
M  V30 2302 C 221.069 -3.32961 2.99735 0
M  V30 2303 C 222.813 -4.03754 1.31085 0
M  V30 2304 C 220.72 -4.72612 3.55516 0
M  V30 2305 H 219.65 -0.683802 0.317696 0
M  V30 2306 H 222.301 -1.25331 1.34031 0
M  V30 2307 H 220.683 -3.84844 0.933339 0
M  V30 2308 H 221.857 -2.85741 3.61509 0
M  V30 2309 H 220.172 -2.70433 3.16631 0
M  V30 2310 H 222.769 -5.06891 1.70192 0
M  V30 2311 H 223.112 -4.15527 0.253496 0
M  V30 2312 H 223.645 -3.53043 1.83318 0
M  V30 2313 H 220.384 -4.66036 4.60967 0
M  V30 2314 H 219.904 -5.2024 2.98513 0
M  V30 2315 H 221.583 -5.4157 3.53992 0
M  V30 2316 N 221.715 -0.905404 -1.28997 0
M  V30 2317 C 222.962 -0.534248 -1.95325 0
M  V30 2318 C 223.29 0.920535 -1.71337 0
M  V30 2319 O 222.545 1.66861 -1.02254 0
M  V30 2320 C 222.844 -0.779906 -3.48787 0
M  V30 2321 C 222.51 -2.21293 -3.92861 0
M  V30 2322 C 221.172 -2.60475 -4.04606 0
M  V30 2323 C 223.524 -3.14587 -4.15553 0
M  V30 2324 C 220.852 -3.9212 -4.36416 0
M  V30 2325 C 223.204 -4.45787 -4.48839 0
M  V30 2326 C 221.868 -4.84834 -4.58794 0
M  V30 2327 H 221.138 -0.195495 -0.714747 0
M  V30 2328 H 223.785 -1.14514 -1.53488 0
M  V30 2329 H 222.09 -0.0861365 -3.91705 0
M  V30 2330 H 223.787 -0.472029 -3.98212 0
M  V30 2331 H 220.377 -1.89887 -3.84241 0
M  V30 2332 H 224.561 -2.85528 -4.0594 0
M  V30 2333 H 219.817 -4.22086 -4.42327 0
M  V30 2334 H 223.991 -5.18098 -4.65346 0
M  V30 2335 H 221.618 -5.86877 -4.83197 0
M  V30 2336 N 223.193 1.4272 -0.668489 0
M  V30 2337 C 224.441 2.01226 -0.187769 0
M  V30 2338 C 224.762 1.53092 1.2078 0
M  V30 2339 O 224.032 0.74993 1.80977 0
M  V30 2340 H 222.612 0.744041 -0.0664272 0
M  V30 2341 H 225.274 1.74723 -0.863583 0
M  V30 2342 H 224.37 3.11556 -0.184166 0
M  V30 2343 N 224.671 0.411399 1.52136 0
M  V30 2344 C 225.634 -0.401089 2.25663 0
M  V30 2345 C 226.634 -0.971732 1.28117 0
M  V30 2346 O 227.824 -0.850254 1.52041 0
M  V30 2347 C 224.956 -1.56483 3.02863 0
M  V30 2348 H 226.149 0.24295 2.98914 0
M  V30 2349 H 223.702 0.163968 1.55438 0
M  V30 2350 H 224.437 -2.24567 2.33967 0
M  V30 2351 H 224.222 -1.16211 3.74483 0
M  V30 2352 H 225.712 -2.13951 3.58629 0
M  V30 2353 N 226.149 -1.5696 0.141893 0
M  V30 2354 C 227.377 -2.00322 -0.517579 0
M  V30 2355 C 227.792 -1.02193 -1.58752 0
M  V30 2356 O 227.149 -0.0181619 -1.82491 0
M  V30 2357 C 227.2 -3.43618 -1.12289 0
M  V30 2358 O 226.921 -4.37995 -0.0956929 0
M  V30 2359 C 228.422 -4.02231 -1.86347 0
M  V30 2360 H 225.642 -0.657243 -0.135177 0
M  V30 2361 H 228.186 -2.03146 0.234973 0
M  V30 2362 H 226.341 -3.41662 -1.82609 0
M  V30 2363 H 226.755 -5.21729 -0.538469 0
M  V30 2364 H 228.229 -5.04509 -2.23997 0
M  V30 2365 H 228.706 -3.42655 -2.74744 0
M  V30 2366 H 229.312 -4.07802 -1.20737 0
M  V30 2367 N 227.627 0.131896 -1.57047 0
M  V30 2368 C 228.852 0.860418 -1.8871 0
M  V30 2369 C 229.277 1.73251 -0.73251 0
M  V30 2370 O 228.635 1.785 0.317429 0
M  V30 2371 C 228.683 1.68047 -3.19049 0
M  V30 2372 O 227.787 2.7862 -3.04047 0
M  V30 2373 H 227.128 0.238743 -0.619595 0
M  V30 2374 H 229.658 0.118169 -2.04258 0
M  V30 2375 H 229.668 2.07238 -3.51449 0
M  V30 2376 H 228.343 1.04018 -4.02682 0
M  V30 2377 H 226.92 2.42726 -2.83088 0
M  V30 2378 N 229.106 1.52395 0.401703 0
M  V30 2379 C 230.036 1.79231 1.49661 0
M  V30 2380 C 231.017 0.643654 1.57452 0
M  V30 2381 O 232.202 0.889989 1.72606 0
M  V30 2382 C 229.332 1.94971 2.87409 0
M  V30 2383 C 228.286 3.10604 2.94465 0
M  V30 2384 C 227.612 3.11577 4.34538 0
M  V30 2385 C 228.912 4.49921 2.6527 0
M  V30 2386 H 230.606 2.70917 1.27454 0
M  V30 2387 H 228.152 1.30362 0.6117 0
M  V30 2388 H 230.105 2.12328 3.63999 0
M  V30 2389 H 228.829 0.999632 3.10926 0
M  V30 2390 H 227.488 2.93009 2.20321 0
M  V30 2391 H 227.136 2.14277 4.55076 0
M  V30 2392 H 226.836 3.89247 4.40183 0
M  V30 2393 H 228.36 3.31073 5.13053 0
M  V30 2394 H 229.774 4.67683 3.31581 0
M  V30 2395 H 228.171 5.29564 2.82281 0
M  V30 2396 H 229.241 4.57507 1.60671 0
M  V30 2397 N 230.584 -0.659388 1.43143 0
M  V30 2398 C 231.516 -1.7849 1.43784 0
M  V30 2399 C 232.529 -1.5932 0.334787 0
M  V30 2400 O 233.718 -1.68155 0.598842 0
M  V30 2401 C 230.818 -3.15828 1.22906 0
M  V30 2402 C 229.991 -3.61711 2.45934 0
M  V30 2403 C 229.05 -4.77831 2.20371 0
M  V30 2404 O 228.076 -4.87586 2.93681 0
M  V30 2405 N 229.278 -5.67611 1.21647 0
M  V30 2406 H 232.043 -1.7842 2.40803 0
M  V30 2407 H 229.604 -0.84302 1.3822 0
M  V30 2408 H 231.596 -3.91189 1.03697 0
M  V30 2409 H 230.166 -3.10707 0.343542 0
M  V30 2410 H 229.386 -2.76861 2.80609 0
M  V30 2411 H 230.674 -3.89112 3.27825 0
M  V30 2412 H 230.072 -5.62397 0.610449 0
M  V30 2413 H 228.629 -6.42719 1.08423 0
M  V30 2414 N 232.062 -1.29571 -0.897171 0
M  V30 2415 C 233.01 -1.14802 -2.02295 0
M  V30 2416 C 234.004 -0.0629637 -1.69283 0
M  V30 2417 O 235.21 -0.222945 -1.78614 0
M  V30 2418 H 231.585 -0.354692 -0.663097 0
M  V30 2419 H 233.556 -2.10108 -2.11889 0
M  V30 2420 C 232.305 -0.843966 -3.37302 0
M  V30 2421 H 231.628 -1.67093 -3.63208 0
M  V30 2422 H 233.068 -0.780672 -4.16751 0
M  V30 2423 C 231.527 0.452843 -3.33843 0
M  V30 2424 O 232.057 1.47813 -3.73516 0
M  V30 2425 N 230.263 0.459601 -2.86943 0
M  V30 2426 H 229.81 -0.375213 -2.54853 0
M  V30 2427 H 229.768 1.32726 -2.85011 0
M  V30 2428 N 233.54 1.10788 -1.12088 0
M  V30 2429 C 234.768 1.86461 -0.896651 0
M  V30 2430 C 235.183 1.80492 0.553912 0
M  V30 2431 O 234.54 1.19102 1.38278 0
M  V30 2432 C 234.591 3.35006 -1.35843 0
M  V30 2433 O 234.312 3.40866 -2.75213 0
M  V30 2434 C 235.813 4.27565 -1.1706 0
M  V30 2435 H 233.033 0.589425 -0.320654 0
M  V30 2436 H 235.577 1.40076 -1.48993 0
M  V30 2437 H 233.732 3.7887 -0.808458 0
M  V30 2438 H 234.146 4.33411 -2.9539 0
M  V30 2439 H 235.62 5.30007 -1.54263 0
M  V30 2440 H 236.097 4.3906 -0.110814 0
M  V30 2441 H 236.703 3.89501 -1.70789 0
M  V30 2442 N 235.018 0.912232 1.28515 0
M  V30 2443 C 236.266 0.543523 1.94654 0
M  V30 2444 C 236.587 -0.9155 1.72173 0
M  V30 2445 O 235.857 -1.64708 1.06058 0
M  V30 2446 H 234.437 0.198017 0.720277 0
M  V30 2447 H 237.099 1.16126 1.56527 0
M  V30 2448 H 236.195 0.736684 3.03281 0
M  V30 2449 N 236.496 -1.42363 0.676048 0
M  V30 2450 C 237.459 -2.29199 0.00766941 0
M  V30 2451 C 238.459 -1.43389 -0.727745 0
M  V30 2452 O 239.649 -1.64764 -0.56556 0
M  V30 2453 C 236.781 -3.2591 -0.999785 0
M  V30 2454 H 237.974 -2.89794 0.771988 0
M  V30 2455 H 235.527 -1.50024 0.438468 0
M  V30 2456 H 236.262 -2.70256 -1.79255 0
M  V30 2457 H 236.047 -3.89202 -0.475829 0
M  V30 2458 H 237.537 -3.91028 -1.46583 0
M  V30 2459 N 237.974 -0.419461 -1.51915 0
M  V30 2460 C 238.907 0.445751 -2.23804 0
M  V30 2461 C 239.885 1.03951 -1.25031 0
M  V30 2462 O 241.069 1.08541 -1.54114 0
M  V30 2463 C 238.196 1.61964 -2.97465 0
M  V30 2464 C 237.242 1.14828 -4.10751 0
M  V30 2465 S 238.075 0.104938 -5.35397 0
M  V30 2466 C 239.231 1.28391 -6.1259 0
M  V30 2467 H 239.464 -0.164627 -2.96844 0
M  V30 2468 H 236.997 -0.203833 -1.53049 0
M  V30 2469 H 238.955 2.29271 -3.40507 0
M  V30 2470 H 237.616 2.20139 -2.24048 0
M  V30 2471 H 236.809 2.02561 -4.61503 0
M  V30 2472 H 236.411 0.553712 -3.69878 0
M  V30 2473 H 238.703 2.20563 -6.40592 0
M  V30 2474 H 239.646 0.816724 -7.03374 0
M  V30 2475 H 240.054 1.51439 -5.43807 0
M  V30 2476 N 239.452 1.56882 -0.150215 0
M  V30 2477 C 240.382 2.19935 0.784284 0
M  V30 2478 C 241.363 1.14854 1.25469 0
M  V30 2479 O 242.548 1.43209 1.31168 0
M  V30 2480 C 239.678 2.82349 2.02229 0
M  V30 2481 C 238.632 3.93285 1.68853 0
M  V30 2482 C 237.958 4.42649 2.99944 0
M  V30 2483 C 239.258 5.13904 0.932714 0
M  V30 2484 H 240.952 2.9828 0.258781 0
M  V30 2485 H 238.498 1.43473 0.123029 0
M  V30 2486 H 240.451 3.25126 2.68088 0
M  V30 2487 H 239.175 2.0134 2.57157 0
M  V30 2488 H 237.834 3.5113 1.05371 0
M  V30 2489 H 237.482 3.58458 3.52869 0
M  V30 2490 H 237.182 5.17476 2.78374 0
M  V30 2491 H 238.706 4.88099 3.66868 0
M  V30 2492 H 240.12 5.53506 1.49345 0
M  V30 2493 H 238.517 5.94515 0.81684 0
M  V30 2494 H 239.587 4.84842 -0.0749568 0
M  V30 2495 N 240.93 -0.123565 1.57115 0
M  V30 2496 C 242.155 -0.850398 1.89164 0
M  V30 2497 C 242.58 -1.7286 0.741688 0
M  V30 2498 O 241.938 -1.78665 -0.307958 0
M  V30 2499 C 241.986 -1.66353 3.19936 0
M  V30 2500 O 241.09 -2.77004 3.0552 0
M  V30 2501 H 240.431 -0.235454 0.620852 0
M  V30 2502 H 242.961 -0.107335 2.04318 0
M  V30 2503 H 242.971 -2.05372 3.52543 0
M  V30 2504 H 241.646 -1.01881 4.03228 0
M  V30 2505 H 240.223 -2.41221 2.84371 0
M  V30 2506 N 242.408 -1.52605 -0.393616 0
M  V30 2507 C 243.638 -1.71046 -1.15874 0
M  V30 2508 C 244.046 -0.426483 -1.84331 0
M  V30 2509 O 243.389 0.608513 -1.73329 0
M  V30 2510 C 243.451 -2.80118 -2.25332 0
M  V30 2511 C 243.115 -4.21381 -1.76881 0
M  V30 2512 C 244.112 -5.04697 -1.24808 0
M  V30 2513 C 241.797 -4.67683 -1.83244 0
M  V30 2514 C 243.791 -6.32393 -0.797387 0
M  V30 2515 C 241.478 -5.95364 -1.37787 0
M  V30 2516 C 242.476 -6.77549 -0.861208 0
M  V30 2517 O 242.164 -8.02837 -0.413252 0
M  V30 2518 H 241.896 -0.576155 -0.353583 0
M  V30 2519 H 244.45 -2.00018 -0.467123 0
M  V30 2520 H 242.68 -2.46557 -2.97904 0
M  V30 2521 H 244.369 -2.87006 -2.87023 0
M  V30 2522 H 245.135 -4.70111 -1.19252 0
M  V30 2523 H 241.014 -4.03805 -2.22401 0
M  V30 2524 H 244.558 -6.9649 -0.393437 0
M  V30 2525 H 240.455 -6.29455 -1.43026 0
M  V30 2526 H 241.223 -8.16749 -0.53515 0
M  V30 2527 N 243.887 0.651787 -1.4349 0
M  V30 2528 C 244.817 1.77621 -1.51569 0
M  V30 2529 C 245.798 1.66022 -0.370253 0
M  V30 2530 O 246.983 1.85095 -0.587658 0
M  V30 2531 C 244.113 3.16056 -1.43966 0
M  V30 2532 C 243.067 3.4242 -2.56774 0
M  V30 2533 C 242.393 4.8067 -2.34223 0
M  V30 2534 C 243.693 3.37023 -3.99015 0
M  V30 2535 H 245.387 1.71117 -2.45681 0
M  V30 2536 H 242.933 0.821825 -1.18246 0
M  V30 2537 H 244.886 3.94472 -1.48221 0
M  V30 2538 H 243.61 3.23293 -0.463586 0
M  V30 2539 H 242.269 2.66375 -2.51873 0
M  V30 2540 H 241.917 4.84585 -1.34856 0
M  V30 2541 H 241.617 4.9927 -3.09844 0
M  V30 2542 H 243.141 5.61342 -2.40265 0
M  V30 2543 H 244.555 4.05374 -4.05395 0
M  V30 2544 H 242.952 3.67159 -4.74673 0
M  V30 2545 H 244.022 2.3518 -4.2405 0
M  V30 2546 N 245.365 1.30045 0.890287 0
M  V30 2547 C 246.612 1.18561 1.64163 0
M  V30 2548 C 246.94 -0.260852 1.92743 0
M  V30 2549 O 246.195 -1.20376 1.54299 0
M  V30 2550 C 246.494 1.95409 2.99249 0
M  V30 2551 C 246.16 3.45066 2.90242 0
M  V30 2552 C 244.822 3.85878 2.87492 0
M  V30 2553 C 247.174 4.4039 2.78758 0
M  V30 2554 C 244.502 5.20314 2.7109 0
M  V30 2555 C 246.854 5.74928 2.63894 0
M  V30 2556 C 245.518 6.14986 2.59516 0
M  V30 2557 H 244.788 0.433846 0.600715 0
M  V30 2558 H 247.435 1.61088 1.03552 0
M  V30 2559 H 245.74 1.45501 3.63781 0
M  V30 2560 H 247.437 1.8392 3.56334 0
M  V30 2561 H 244.027 3.12631 2.93189 0
M  V30 2562 H 248.211 4.09806 2.79952 0
M  V30 2563 H 243.467 5.50449 2.66112 0
M  V30 2564 H 247.641 6.48434 2.53981 0
M  V30 2565 H 245.268 7.19104 2.46565 0
M  V30 2566 N 246.843 -1.10192 1.12674 0
M  V30 2567 C 248.092 -1.81573 0.8783 0
M  V30 2568 C 248.405 -1.86249 -0.597557 0
M  V30 2569 O 249.611 -2.5386 -0.962681 0
M  V30 2570 C 248.067 -3.26149 1.52167 0
M  V30 2571 C 247.675 -3.29763 3.03249 0
M  V30 2572 C 249.419 -4.0234 1.3536 0
M  V30 2573 C 247.326 -4.68815 3.60508 0
M  V30 2574 H 246.256 -0.680394 0.324931 0
M  V30 2575 H 248.907 -1.23902 1.35353 0
M  V30 2576 H 247.289 -3.83832 0.974104 0
M  V30 2577 H 248.463 -2.8189 3.6452 0
M  V30 2578 H 246.778 -2.67059 3.19481 0
M  V30 2579 H 249.375 -5.05058 1.75559 0
M  V30 2580 H 249.718 -4.15235 0.297554 0
M  V30 2581 H 250.251 -3.51079 1.87052 0
M  V30 2582 H 246.99 -4.61121 4.65884 0
M  V30 2583 H 246.51 -5.17045 3.04014 0
M  V30 2584 H 248.189 -5.37785 3.59717 0
M  V30 2585 N 248.321 -0.919034 -1.28029 0
M  V30 2586 C 249.567 -0.555757 -1.95036 0
M  V30 2587 C 249.9 0.899198 -1.72128 0
M  V30 2588 O 249.175 1.64023 -1.04531 0
M  V30 2589 C 249.458 -0.872024 -3.49382 0
M  V30 2590 C 249.311 -2.3801 -3.81669 0
M  V30 2591 C 250.63 -0.37185 -4.38526 0
M  V30 2592 H 247.749 -0.203386 -0.708381 0
M  V30 2593 H 250.391 -1.14924 -1.51303 0
M  V30 2594 H 248.541 -0.366946 -3.86763 0
M  V30 2595 H 250.213 -2.9562 -3.54128 0
M  V30 2596 H 248.456 -2.83289 -3.28526 0
M  V30 2597 H 249.127 -2.55192 -4.8947 0
M  V30 2598 H 251.603 -0.804602 -4.08247 0
M  V30 2599 H 250.479 -0.622173 -5.45362 0
M  V30 2600 H 250.74 0.727934 -4.36066 0
M  V30 2601 N 249.799 1.42003 -0.683588 0
M  V30 2602 C 250.746 2.30798 -0.0107309 0
M  V30 2603 C 251.716 1.4645 0.783688 0
M  V30 2604 O 252.901 1.75263 0.754156 0
M  V30 2605 C 250.041 3.3238 0.928306 0
M  V30 2606 C 249.154 4.31814 0.126776 0
M  V30 2607 C 248.289 5.20468 1.06236 0
M  V30 2608 C 247.328 6.11577 0.253035 0
M  V30 2609 N 246.465 6.92754 1.14179 0
M  V30 2610 H 251.305 2.8778 -0.773727 0
M  V30 2611 H 248.842 1.41745 -0.393283 0
M  V30 2612 H 250.8 3.89813 1.48666 0
M  V30 2613 H 249.43 2.76976 1.65783 0
M  V30 2614 H 248.482 3.76427 -0.54833 0
M  V30 2615 H 249.794 4.96276 -0.501192 0
M  V30 2616 H 248.948 5.82677 1.69035 0
M  V30 2617 H 247.687 4.56204 1.7242 0
M  V30 2618 H 246.692 5.48428 -0.388108 0
M  V30 2619 H 247.917 6.77892 -0.404839 0
M  V30 2620 H 245.863 6.3111 1.78987 0
M  V30 2621 H 245.78 7.53855 0.569111 0
M  V30 2622 H 247.048 7.59441 1.75697 0
M  V30 2623 N 251.277 0.427512 1.51691 0
M  V30 2624 C 252.225 -0.403359 2.29076 0
M  V30 2625 C 253.219 -1.02962 1.34518 0
M  V30 2626 O 254.425 -0.965715 1.51901 0
M  V30 2627 H 250.8 -0.148879 0.737115 0
M  V30 2628 H 252.771 0.270295 2.97173 0
M  V30 2629 C 251.52 -1.49763 3.13794 0
M  V30 2630 H 250.843 -1.02508 3.86435 0
M  V30 2631 H 252.283 -2.05244 3.71014 0
M  V30 2632 C 250.742 -2.47536 2.28533 0
M  V30 2633 O 251.272 -3.51848 1.93819 0
M  V30 2634 N 249.478 -2.18187 1.91945 0
M  V30 2635 H 249.025 -1.33389 2.20375 0
M  V30 2636 H 248.983 -2.83848 1.35195 0
M  V30 2637 N 252.755 -1.56801 0.158532 0
M  V30 2638 C 253.665 -2.20916 -0.789518 0
M  V30 2639 C 254.681 -1.1969 -1.26294 0
M  V30 2640 O 255.857 -1.52308 -1.31773 0
M  V30 2641 C 252.922 -2.82727 -2.00665 0
M  V30 2642 C 251.983 -3.99114 -1.58134 0
M  V30 2643 C 251.216 -4.57968 -2.74045 0
M  V30 2644 O 251.439 -4.15704 -3.90572 0
M  V30 2645 O 250.373 -5.48047 -2.48855 0
M  V30 2646 H 254.199 -3.02464 -0.273681 0
M  V30 2647 H 251.784 -1.4924 -0.0690548 0
M  V30 2648 H 253.666 -3.21968 -2.71872 0
M  V30 2649 H 252.341 -2.04184 -2.51179 0
M  V30 2650 H 251.248 -3.64567 -0.839155 0
M  V30 2651 H 252.581 -4.79212 -1.12325 0
M  V30 2652 N 254.233 0.115231 -1.57178 0
M  V30 2653 C 255.163 1.1423 -2.03651 0
M  V30 2654 C 256.144 1.42967 -0.921655 0
M  V30 2655 O 257.329 1.53343 -1.19162 0
M  V30 2656 C 254.459 2.4675 -2.44401 0
M  V30 2657 C 253.413 2.32467 -3.59365 0
M  V30 2658 C 252.739 3.69984 -3.86026 0
M  V30 2659 C 254.039 1.78203 -4.90959 0
M  V30 2660 H 255.733 0.755749 -2.89705 0
M  V30 2661 H 253.279 0.362093 -1.39373 0
M  V30 2662 H 255.232 3.18854 -2.75517 0
M  V30 2663 H 253.956 2.87302 -1.55322 0
M  V30 2664 H 252.615 1.62811 -3.28463 0
M  V30 2665 H 252.263 4.08028 -2.94147 0
M  V30 2666 H 251.963 3.61279 -4.63412 0
M  V30 2667 H 253.487 4.43587 -4.19599 0
M  V30 2668 H 254.901 2.40128 -5.20587 0
M  V30 2669 H 253.298 1.8031 -5.72371 0
M  V30 2670 H 254.368 0.739876 -4.79222 0
M  V30 2671 N 255.711 1.52812 0.385517 0
M  V30 2672 C 257.122 1.5993 0.963293 0
M  V30 2673 C 257.473 0.454302 1.90868 0
M  V30 2674 O 256.598 -0.422132 2.12243 0
M  V30 2675 C 257.193 2.89871 1.75387 0
M  V30 2676 C 255.752 2.99389 2.28129 0
M  V30 2677 C 254.899 2.55071 1.08783 0
M  V30 2678 H 257.85 1.5784 0.164948 0
M  V30 2679 H 257.871 2.76553 2.61341 0
M  V30 2680 H 257.383 3.73186 1.06554 0
M  V30 2681 H 255.484 2.20619 3.00263 0
M  V30 2682 H 255.597 4.04096 2.57377 0
M  V30 2683 H 253.961 2.09473 1.4489 0
M  V30 2684 H 254.744 3.40785 0.414807 0
M  V30 2685 N 257.189 -0.644168 1.43834 0
M  V30 2686 C 258.414 -1.43642 1.49605 0
M  V30 2687 C 258.839 -1.8773 0.117913 0
M  V30 2688 O 258.197 -1.57938 -0.890239 0
M  V30 2689 C 258.245 -2.6416 2.45463 0
M  V30 2690 O 257.349 -3.63538 1.94714 0
M  V30 2691 H 256.69 -0.430329 0.50568 0
M  V30 2692 H 259.22 -0.787448 1.8884 0
M  V30 2693 H 259.23 -3.11864 2.63068 0
M  V30 2694 H 257.905 -2.31414 3.45572 0
M  V30 2695 H 256.482 -3.2273 1.86814 0
M  V30 2696 N 258.668 -1.30515 -0.883378 0
M  V30 2697 C 259.631 -1.1701 -1.97082 0
M  V30 2698 C 260.631 -0.10089 -1.60483 0
M  V30 2699 O 261.821 -0.349127 -1.70666 0
M  V30 2700 C 258.953 -0.793045 -3.31547 0
M  V30 2701 H 260.146 -2.13622 -2.10489 0
M  V30 2702 H 257.699 -1.13935 -1.06998 0
M  V30 2703 H 258.434 0.172499 -3.23841 0
M  V30 2704 H 258.219 -1.56576 -3.5948 0
M  V30 2705 H 259.709 -0.722073 -4.1131 0
M  V30 2706 N 260.146 1.09593 -1.13257 0
M  V30 2707 C 261.395 1.81105 -0.887917 0
M  V30 2708 C 261.708 1.86563 0.587672 0
M  V30 2709 O 262.914 2.54367 0.949204 0
M  V30 2710 C 261.37 3.25338 -1.53895 0
M  V30 2711 C 260.978 3.28151 -3.04994 0
M  V30 2712 C 262.722 4.01617 -1.37492 0
M  V30 2713 C 260.629 4.66897 -3.6299 0
M  V30 2714 H 259.559 0.678661 -0.328534 0
M  V30 2715 H 262.21 1.23183 -1.36008 0
M  V30 2716 H 260.592 3.8331 -0.994446 0
M  V30 2717 H 261.766 2.79953 -3.66009 0
M  V30 2718 H 260.081 2.65361 -3.20893 0
M  V30 2719 H 262.678 5.04119 -1.78235 0
M  V30 2720 H 263.021 4.15072 -0.31957 0
M  V30 2721 H 263.554 3.50082 -1.88912 0
M  V30 2722 H 260.293 4.58643 -4.68323 0
M  V30 2723 H 259.813 5.15426 -3.06752 0
M  V30 2724 H 261.492 5.3587 -3.62563 0
M  V30 2725 N 261.624 0.925811 1.2754 0
M  V30 2726 C 262.571 0.422045 2.26908 0
M  V30 2727 C 263.541 -0.510029 1.58076 0
M  V30 2728 O 264.726 -0.429599 1.85901 0
M  V30 2729 C 261.866 -0.320837 3.43605 0
M  V30 2730 C 260.979 0.64513 4.27156 0
M  V30 2731 C 260.114 -0.117405 5.3107 0
M  V30 2732 C 259.153 0.841391 6.0629 0
M  V30 2733 N 258.29 0.111604 7.02011 0
M  V30 2734 H 263.13 1.27441 2.69375 0
M  V30 2735 H 260.667 0.639697 1.32462 0
M  V30 2736 H 262.625 -0.76785 4.10073 0
M  V30 2737 H 261.255 -1.13745 3.02096 0
M  V30 2738 H 260.307 1.21067 3.6062 0
M  V30 2739 H 261.619 1.37797 4.79389 0
M  V30 2740 H 260.773 -0.624422 6.03478 0
M  V30 2741 H 259.512 -0.883219 4.79636 0
M  V30 2742 H 258.517 1.35967 5.32722 0
M  V30 2743 H 259.742 1.60696 6.59813 0
M  V30 2744 H 257.688 -0.635999 6.5291 0
M  V30 2745 H 257.605 0.784044 7.51923 0
M  V30 2746 H 258.873 -0.374823 7.78598 0
M  V30 2747 N 263.102 -1.41638 0.69111 0
M  V30 2748 C 264.349 -2.01299 0.220193 0
M  V30 2749 C 264.677 -1.54715 -1.17871 0
M  V30 2750 O 263.932 -0.747193 -1.80874 0
M  V30 2751 C 264.231 -3.56714 0.221277 0
M  V30 2752 C 263.897 -4.22792 1.56709 0
M  V30 2753 C 262.559 -4.40557 1.93554 0
M  V30 2754 C 264.911 -4.59883 2.45268 0
M  V30 2755 C 262.239 -4.92688 3.18552 0
M  V30 2756 C 264.591 -5.13403 3.69595 0
M  V30 2757 C 263.255 -5.29379 4.06589 0
M  V30 2758 H 262.525 -0.736606 0.0805743 0
M  V30 2759 H 265.172 -1.69598 0.889319 0
M  V30 2760 H 263.477 -3.8818 -0.531391 0
M  V30 2761 H 265.174 -4.00678 -0.160547 0
M  V30 2762 H 261.764 -4.09336 1.2705 0
M  V30 2763 H 265.948 -4.45817 2.18084 0
M  V30 2764 H 261.204 -5.03242 3.47214 0
M  V30 2765 H 265.378 -5.41084 4.38407 0
M  V30 2766 H 263.005 -5.69537 5.03519 0
M  V30 2767 N 264.58 -0.43555 -1.51462 0
M  V30 2768 C 265.51 0.367376 -2.30592 0
M  V30 2769 C 266.491 1.02263 -1.35928 0
M  V30 2770 O 267.676 1.02661 -1.64847 0
M  V30 2771 C 264.806 1.46983 -3.14664 0
M  V30 2772 C 263.76 0.938161 -4.17591 0
M  V30 2773 C 263.086 2.13622 -4.90173 0
M  V30 2774 C 264.386 -0.0261621 -5.22293 0
M  V30 2775 H 266.08 -0.292969 -2.97963 0
M  V30 2776 H 263.626 -0.14234 -1.43295 0
M  V30 2777 H 265.579 2.03873 -3.688 0
M  V30 2778 H 264.303 2.15843 -2.4511 0
M  V30 2779 H 262.962 0.391481 -3.64504 0
M  V30 2780 H 262.61 2.81098 -4.17124 0
M  V30 2781 H 262.31 1.78688 -5.59772 0
M  V30 2782 H 263.834 2.7107 -5.47132 0
M  V30 2783 H 265.248 0.452384 -5.71512 0
M  V30 2784 H 263.645 -0.287992 -5.99409 0
M  V30 2785 H 264.715 -0.963391 -4.75233 0
M  V30 2786 N 266.058 1.56714 -0.166846 0
M  V30 2787 C 266.991 2.13577 0.80375 0
M  V30 2788 C 267.969 1.06464 1.22899 0
M  V30 2789 O 269.153 1.34413 1.32157 0
M  V30 2790 C 266.28 2.67168 2.0818 0
M  V30 2791 C 265.326 3.86612 1.80093 0
M  V30 2792 S 266.159 5.26565 0.97416 0
M  V30 2793 C 267.315 5.83558 2.26297 0
M  V30 2794 H 267.548 2.9557 0.320267 0
M  V30 2795 H 265.081 1.54326 0.0477555 0
M  V30 2796 H 267.039 2.98692 2.8159 0
M  V30 2797 H 265.7 1.85269 2.53642 0
M  V30 2798 H 264.893 4.22422 2.7491 0
M  V30 2799 H 264.495 3.55951 1.14781 0
M  V30 2800 H 266.787 5.962 3.21795 0
M  V30 2801 H 267.73 6.80731 1.94962 0
M  V30 2802 H 268.138 5.11944 2.37853 0
M  V30 2803 N 267.536 -0.106894 1.57237 0
M  V30 2804 C 268.784 -0.810921 1.85117 0
M  V30 2805 C 269.105 -1.7984 0.753827 0
M  V30 2806 O 268.375 -1.94649 -0.221056 0
M  V30 2807 H 266.955 -0.302466 0.683025 0
M  V30 2808 H 269.617 -0.0913324 1.94686 0
M  V30 2809 H 268.713 -1.34875 2.81452 0
M  V30 2810 N 269.014 -1.53014 -0.377408 0
M  V30 2811 C 269.961 -1.78616 -1.46168 0
M  V30 2812 C 270.931 -0.629917 -1.53692 0
M  V30 2813 O 272.116 -0.870861 -1.69766 0
M  V30 2814 C 269.256 -1.97123 -2.8326 0
M  V30 2815 C 268.369 -3.24831 -2.84796 0
M  V30 2816 C 267.504 -3.33591 -4.13389 0
M  V30 2817 C 266.543 -4.55377 -4.09021 0
M  V30 2818 N 265.68 -4.61355 -5.29241 0
M  V30 2819 H 270.52 -2.71142 -1.23637 0
M  V30 2820 H 268.057 -1.34326 -0.599577 0
M  V30 2821 H 270.015 -2.05839 -3.62886 0
M  V30 2822 H 268.645 -1.07946 -3.04216 0
M  V30 2823 H 267.697 -3.25128 -1.97474 0
M  V30 2824 H 269.009 -4.14523 -2.77439 0
M  V30 2825 H 268.163 -3.41554 -5.01424 0
M  V30 2826 H 266.902 -2.41894 -4.23484 0
M  V30 2827 H 265.907 -4.47527 -3.19373 0
M  V30 2828 H 267.132 -5.48402 -4.00539 0
M  V30 2829 H 265.078 -3.72554 -5.39944 0
M  V30 2830 H 264.995 -5.44935 -5.24006 0
M  V30 2831 H 266.263 -4.73586 -6.19141 0
M  V30 2832 N 270.492 0.636531 -1.44174 0
M  V30 2833 C 271.402 1.77754 -1.53103 0
M  V30 2834 C 272.418 1.68928 -0.417034 0
M  V30 2835 O 273.594 1.89801 -0.6736 0
M  V30 2836 C 270.659 3.14115 -1.46741 0
M  V30 2837 C 269.72 3.34612 -2.68948 0
M  V30 2838 C 268.953 4.64467 -2.6288 0
M  V30 2839 O 269.176 5.44919 -1.68581 0
M  V30 2840 O 268.11 4.87049 -3.53648 0
M  V30 2841 H 271.936 1.73174 -2.49489 0
M  V30 2842 H 269.521 0.79709 -1.2636 0
M  V30 2843 H 271.403 3.95412 -1.45696 0
M  V30 2844 H 270.078 3.19249 -0.534975 0
M  V30 2845 H 268.985 2.53014 -2.75562 0
M  V30 2846 H 270.318 3.34336 -3.61221 0
M  V30 2847 N 271.97 1.30982 0.876444 0
M  V30 2848 C 272.88 1.2003 2.01569 0
M  V30 2849 C 273.896 0.11838 1.73597 0
M  V30 2850 O 275.072 0.33495 1.98595 0
M  V30 2851 C 272.137 0.901637 3.34771 0
M  V30 2852 C 271.198 2.06979 3.76109 0
M  V30 2853 C 270.431 1.78529 5.02954 0
M  V30 2854 O 270.654 0.717296 5.65872 0
M  V30 2855 O 269.588 2.64019 5.40905 0
M  V30 2856 H 273.414 2.15753 2.13739 0
M  V30 2857 H 270.999 1.10658 1.00375 0
M  V30 2858 H 272.881 0.750645 4.1466 0
M  V30 2859 H 271.556 -0.0256141 3.2369 0
M  V30 2860 H 270.463 2.27616 2.96887 0
M  V30 2861 H 271.796 2.97907 3.91807 0
M  V30 2862 N 273.449 -1.08991 1.13837 0
M  V30 2863 C 274.677 -1.85011 0.926202 0
M  V30 2864 C 275.092 -1.8135 -0.525127 0
M  V30 2865 O 274.449 -1.21287 -1.36366 0
M  V30 2866 C 274.5 -3.32802 1.41155 0
M  V30 2867 O 274.221 -3.36444 2.80601 0
M  V30 2868 C 275.722 -4.25649 1.23847 0
M  V30 2869 H 272.942 -0.584249 0.32999 0
M  V30 2870 H 275.486 -1.37688 1.51202 0
M  V30 2871 H 273.641 -3.77536 0.868631 0
M  V30 2872 H 274.055 -4.28657 3.02248 0
M  V30 2873 H 275.529 -5.27485 1.62675 0
M  V30 2874 H 276.006 -4.38828 0.18065 0
M  V30 2875 H 276.612 -3.86735 1.76964 0
M  V30 2876 N 274.927 -0.932562 -1.27047 0
M  V30 2877 C 276.174 -0.575559 -1.94148 0
M  V30 2878 C 276.502 0.883984 -1.73251 0
M  V30 2879 O 275.757 1.64655 -1.0577 0
M  V30 2880 C 276.056 -0.853713 -3.47054 0
M  V30 2881 C 275.722 -2.29577 -3.88079 0
M  V30 2882 C 274.384 -2.68999 -3.9899 0
M  V30 2883 C 276.736 -3.23331 -4.08787 0
M  V30 2884 C 274.064 -4.01289 -4.28 0
M  V30 2885 C 276.416 -4.55207 -4.39282 0
M  V30 2886 C 275.08 -4.94457 -4.48407 0
M  V30 2887 H 274.35 -0.210612 -0.710439 0
M  V30 2888 H 276.997 -1.17744 -1.51025 0
M  V30 2889 H 275.302 -0.169204 -3.91434 0
M  V30 2890 H 276.999 -0.55639 -3.97121 0
M  V30 2891 H 273.589 -1.97994 -3.80127 0
M  V30 2892 H 277.773 -2.94074 -3.99793 0
M  V30 2893 H 273.029 -4.31374 -4.33275 0
M  V30 2894 H 277.203 -5.27852 -4.54252 0
M  V30 2895 H 274.83 -5.96994 -4.7064 0
M  V30 2896 N 276.405 1.4127 -0.698611 0
M  V30 2897 C 277.63 2.06024 -0.238512 0
M  V30 2898 C 278.055 1.5224 1.10475 0
M  V30 2899 O 277.413 0.650623 1.69223 0
M  V30 2900 C 277.461 3.59988 -0.209952 0
M  V30 2901 O 276.565 4.04282 0.814235 0
M  V30 2902 H 275.906 0.653829 -0.115775 0
M  V30 2903 H 278.436 1.8098 -0.954326 0
M  V30 2904 H 278.446 4.07979 -0.0418436 0
M  V30 2905 H 277.121 3.98503 -1.1903 0
M  V30 2906 H 275.698 3.6779 0.615234 0
M  V30 2907 N 277.883 0.443576 1.51229 0
M  V30 2908 C 278.846 -0.353132 2.26463 0
M  V30 2909 C 279.846 -0.944338 1.3015 0
M  V30 2910 O 281.036 -0.817813 1.5381 0
M  V30 2911 C 278.168 -1.50023 3.06114 0
M  V30 2912 H 279.361 0.3063 2.98332 0
M  V30 2913 H 276.914 0.196902 1.55055 0
M  V30 2914 H 277.649 -2.19553 2.38677 0
M  V30 2915 H 277.434 -1.08241 3.76864 0
M  V30 2916 H 278.924 -2.06296 3.63087 0
M  V30 2917 N 279.361 -1.56624 0.175154 0
M  V30 2918 C 280.607 -1.98061 -0.462976 0
M  V30 2919 C 280.962 -1.05949 -1.60601 0
M  V30 2920 O 280.255 -0.0999027 -1.91339 0
M  V30 2921 C 280.449 -3.43419 -0.989864 0
M  V30 2922 C 280.278 -4.49587 0.100583 0
M  V30 2923 C 279.048 -5.02281 0.551539 0
M  V30 2924 C 281.246 -5.06322 0.902369 0
M  V30 2925 N 279.228 -5.92088 1.62189 0
M  V30 2926 C 280.599 -5.92607 1.82256 0
M  V30 2927 C 282.654 -4.88811 0.947019 0
M  V30 2928 C 281.357 -6.63254 2.78364 0
M  V30 2929 C 283.383 -5.60182 1.89606 0
M  V30 2930 C 282.745 -6.46197 2.80372 0
M  V30 2931 H 278.844 -0.769833 -0.137409 0
M  V30 2932 H 281.428 -1.9273 0.276256 0
M  V30 2933 H 279.599 -3.49288 -1.6986 0
M  V30 2934 H 281.331 -3.7186 -1.59694 0
M  V30 2935 H 278.086 -4.73367 0.148537 0
M  V30 2936 H 278.51 -6.41696 2.15767 0
M  V30 2937 H 283.152 -4.22004 0.259304 0
M  V30 2938 H 280.87 -7.29271 3.48122 0
M  V30 2939 H 284.456 -5.48617 1.93676 0
M  V30 2940 H 283.336 -7.00453 3.52612 0
M  V30 2941 N 280.839 0.0985539 -1.57292 0
M  V30 2942 C 282.069 0.815135 -1.8984 0
M  V30 2943 C 282.477 1.7297 -0.766679 0
M  V30 2944 O 281.82 1.81698 0.270483 0
M  V30 2945 C 281.882 1.6842 -3.17608 0
M  V30 2946 C 281.546 0.94182 -4.4719 0
M  V30 2947 C 282.543 0.273212 -5.19182 0
M  V30 2948 C 280.228 0.916927 -4.9386 0
M  V30 2949 C 282.222 -0.410361 -6.36078 0
M  V30 2950 C 279.909 0.229567 -6.10669 0
M  V30 2951 C 280.907 -0.432902 -6.81627 0
M  V30 2952 O 280.595 -1.10925 -7.9621 0
M  V30 2953 H 280.327 0.238501 -0.632529 0
M  V30 2954 H 282.881 0.0812659 -2.05239 0
M  V30 2955 H 281.111 2.46022 -2.98345 0
M  V30 2956 H 282.8 2.27704 -3.36015 0
M  V30 2957 H 283.566 0.283927 -4.84168 0
M  V30 2958 H 279.445 1.42201 -4.3852 0
M  V30 2959 H 282.989 -0.928013 -6.914 0
M  V30 2960 H 278.886 0.216686 -6.45136 0
M  V30 2961 H 279.654 -1.01579 -8.12172 0
M  V30 2962 N 282.317 1.53212 0.369288 0
M  V30 2963 C 283.563 1.69466 1.11397 0
M  V30 2964 C 283.896 0.443257 1.89074 0
M  V30 2965 O 283.171 -0.559386 1.86282 0
M  V30 2966 C 283.454 2.9422 2.07621 0
M  V30 2967 C 283.307 4.29508 1.33577 0
M  V30 2968 C 284.626 3.14565 3.07794 0
M  V30 2969 H 281.745 0.616667 0.403597 0
M  V30 2970 H 284.387 1.85845 0.395179 0
M  V30 2971 H 282.537 2.80387 2.68916 0
M  V30 2972 H 284.209 4.55147 0.750955 0
M  V30 2973 H 282.452 4.29088 0.637618 0
M  V30 2974 H 283.123 5.12926 2.03989 0
M  V30 2975 H 285.599 3.2756 2.56601 0
M  V30 2976 H 284.475 4.03297 3.72348 0
M  V30 2977 H 284.736 2.29675 3.77759 0
M  V30 2978 N 283.795 -0.628877 1.44509 0
M  V30 2979 C 285.072 -1.38733 1.37886 0
M  V30 2980 C 285.452 -2.11065 0.0387008 0
M  V30 2981 O 284.8 -2.06476 -0.97878 0
M  V30 2982 C 285.01 -2.35188 2.57852 0
M  V30 2983 C 286.358 -2.9845 3.02014 0
M  V30 2984 O 287.382 -2.45513 2.58073 0
M  V30 2985 O 286.241 -3.94487 3.78209 0
M  V30 2986 H 283.335 -0.621015 0.54614 0
M  V30 2987 H 285.881 -0.653744 1.56602 0
M  V30 2988 H 284.653 -1.80855 3.46998 0
M  V30 2989 H 284.276 -3.1596 2.4136 0
M  V30 2990 N 285.273 -1.31445 -0.869486 0
M  V30 2991 C 286.521 -1.20918 -1.61936 0
M  V30 2992 C 286.842 0.232683 -1.93607 0
M  V30 2993 O 286.112 1.15352 -1.58338 0
M  V30 2994 H 284.692 -0.44454 -0.600328 0
M  V30 2995 H 287.354 -1.64776 -1.0409 0
M  V30 2996 H 286.45 -1.78124 -2.56278 0
M  V30 2997 N 286.751 1.08385 -1.14413 0
M  V30 2998 C 288.167 1.32844 -0.884563 0
M  V30 2999 C 288.367 1.95841 0.474181 0
M  V30 3000 O 287.423 2.21158 1.21842 0
M  V30 3001 C 288.736 2.22978 -2.01745 0
M  V30 3002 C 290.284 2.36458 -2.05077 0
M  V30 3003 C 290.759 3.29934 -3.1766 0
M  V30 3004 N 292.25 3.37511 -3.17239 0
M  V30 3005 C 292.985 4.09871 -4.0099 0
M  V30 3006 N 292.481 4.84936 -4.94781 0
M  V30 3007 N 294.274 4.05704 -3.89051 0
M  V30 3008 H 286.425 0.658756 -2.01926 0
M  V30 3009 H 288.688 0.352821 -0.879899 0
M  V30 3010 H 288.394 1.83934 -2.99769 0
M  V30 3011 H 288.268 3.23441 -1.94077 0
M  V30 3012 H 290.655 2.7476 -1.0766 0
M  V30 3013 H 290.736 1.35736 -2.16816 0
M  V30 3014 H 290.38 2.92352 -4.15322 0
M  V30 3015 H 290.31 4.30584 -3.03158 0
M  V30 3016 H 292.801 2.83996 -2.49308 0
M  V30 3017 H 293.114 5.37612 -5.55151 0
M  V30 3018 H 291.459 4.83988 -4.98779 0
M  V30 3019 H 294.65 3.46167 -3.15097 0
M  V30 3020 H 294.823 4.61834 -4.54547 0
M  V30 3021 N 288.23 0.939286 1.26551 0
M  V30 3022 C 289.476 0.586715 1.94128 0
M  V30 3023 C 289.809 -0.8717 1.73537 0
M  V30 3024 O 289.084 -1.62339 1.07127 0
M  V30 3025 C 289.367 0.927497 3.4795 0
M  V30 3026 C 289.22 2.44052 3.77834 0
M  V30 3027 C 290.539 0.441569 4.37879 0
M  V30 3028 H 287.658 0.21463 0.705055 0
M  V30 3029 H 290.3 1.17316 1.49455 0
M  V30 3030 H 288.45 0.428431 3.8613 0
M  V30 3031 H 290.122 3.01216 3.4938 0
M  V30 3032 H 288.365 2.8848 3.23978 0
M  V30 3033 H 289.036 2.62947 4.85348 0
M  V30 3034 H 291.512 0.869448 4.06915 0
M  V30 3035 H 290.388 0.708856 5.44304 0
M  V30 3036 H 290.649 -0.658467 4.37169 0
M  V30 3037 N 289.708 -1.40897 0.706093 0
M  V30 3038 C 290.638 -2.33418 0.0620085 0
M  V30 3039 C 291.619 -1.52385 -0.755827 0
M  V30 3040 O 292.804 -1.80886 -0.706674 0
M  V30 3041 C 289.934 -3.36293 -0.867445 0
M  V30 3042 C 288.888 -4.27716 -0.155932 0
M  V30 3043 C 288.214 -5.2105 -1.20046 0
M  V30 3044 C 289.514 -5.12944 0.984149 0
M  V30 3045 H 291.208 -2.87527 0.83477 0
M  V30 3046 H 288.754 -1.38249 0.402875 0
M  V30 3047 H 290.707 -3.99949 -1.32735 0
M  V30 3048 H 289.431 -2.80556 -1.67199 0
M  V30 3049 H 288.09 -3.65498 0.284047 0
M  V30 3050 H 287.738 -4.61624 -1.99781 0
M  V30 3051 H 287.438 -5.83056 -0.729328 0
M  V30 3052 H 288.962 -5.87584 -1.66066 0
M  V30 3053 H 290.376 -5.70109 0.604048 0
M  V30 3054 H 288.773 -5.83945 1.38304 0
M  V30 3055 H 289.843 -4.49485 1.81911 0
M  V30 3056 N 291.186 -0.45159 -1.50991 0
M  V30 3057 C 292.432 0.110237 -2.025 0
M  V30 3058 C 292.765 1.41109 -1.33424 0
M  V30 3059 O 292.04 1.89135 -0.453659 0
M  V30 3060 C 292.323 0.314271 -3.58726 0
M  V30 3061 C 292.176 -1.00623 -4.38401 0
M  V30 3062 C 293.495 1.07767 -4.26702 0
M  V30 3063 H 290.614 0.0385897 -0.735989 0
M  V30 3064 H 293.256 -0.593374 -1.80497 0
M  V30 3065 H 291.406 0.913601 -3.77605 0
M  V30 3066 H 293.078 -1.64064 -4.31139 0
M  V30 3067 H 291.321 -1.6075 -4.02917 0
M  V30 3068 H 291.992 -0.817341 -5.45915 0
M  V30 3069 H 294.468 0.56986 -4.12179 0
M  V30 3070 H 293.344 1.18921 -5.35863 0
M  V30 3071 H 293.605 2.10939 -3.88532 0
M  V30 3072 N 292.664 1.56529 -0.183458 0
M  V30 3073 C 293.91 1.97537 0.459036 0
M  V30 3074 C 294.243 1.06989 1.62071 0
M  V30 3075 O 293.518 0.11948 1.94133 0
M  V30 3076 C 293.801 3.47874 0.930368 0
M  V30 3077 C 293.654 4.492 -0.232317 0
M  V30 3078 C 294.973 4.01612 1.79989 0
M  V30 3079 H 292.092 0.718204 0.165383 0
M  V30 3080 H 294.734 1.88042 -0.272038 0
M  V30 3081 H 292.884 3.56095 1.55333 0
M  V30 3082 H 294.556 4.53027 -0.86972 0
M  V30 3083 H 292.799 4.24657 -0.885928 0
M  V30 3084 H 293.47 5.51823 0.139796 0
M  V30 3085 H 295.946 3.96097 1.27461 0
M  V30 3086 H 294.822 5.07195 2.09867 0
M  V30 3087 H 295.083 3.46163 2.74998 0
M  V30 3088 N 294.142 -0.090211 1.57342 0
M  V30 3089 C 295.391 -0.791531 1.8552 0
M  V30 3090 C 295.704 -1.79659 0.773441 0
M  V30 3091 O 296.91 -2.54616 0.942497 0
M  V30 3092 C 295.366 -1.45856 3.2902 0
M  V30 3093 C 294.974 -0.493017 4.45279 0
M  V30 3094 C 296.718 -2.14332 3.66418 0
M  V30 3095 C 294.625 -1.16491 5.79814 0
M  V30 3096 H 293.555 -0.299356 0.692027 0
M  V30 3097 H 296.206 -0.0445343 1.83446 0
M  V30 3098 H 294.588 -2.25318 3.2565 0
M  V30 3099 H 295.762 0.270464 4.60006 0
M  V30 3100 H 294.077 0.0863061 4.16311 0
M  V30 3101 H 296.674 -2.65344 4.64216 0
M  V30 3102 H 297.017 -2.93447 2.95287 0
M  V30 3103 H 297.55 -1.41724 3.71698 0
M  V30 3104 H 294.289 -0.41447 6.54188 0
M  V30 3105 H 293.809 -1.8997 5.68921 0
M  V30 3106 H 295.488 -1.69001 6.24538 0
M  V30 3107 N 295.62 -1.53406 -0.361157 0
M  V30 3108 C 296.866 -1.70054 -1.10496 0
M  V30 3109 C 297.199 -0.453278 -1.88836 0
M  V30 3110 O 296.474 0.5495 -1.86576 0
M  V30 3111 C 296.757 -2.95317 -2.06058 0
M  V30 3112 C 296.61 -4.3021 -1.31298 0
M  V30 3113 C 297.929 -3.16193 -3.06121 0
M  V30 3114 H 295.048 -0.618799 -0.400321 0
M  V30 3115 H 297.69 -1.86052 -0.385318 0
M  V30 3116 H 295.84 -2.81809 -2.67425 0
M  V30 3117 H 297.512 -4.55538 -0.726807 0
M  V30 3118 H 295.755 -4.29421 -0.614853 0
M  V30 3119 H 296.426 -5.14 -2.01265 0
M  V30 3120 H 298.902 -3.28916 -2.5486 0
M  V30 3121 H 297.778 -4.05266 -3.70204 0
M  V30 3122 H 298.039 -2.31676 -3.76535 0
M  V30 3123 N 297.098 0.621204 -1.44841 0
M  V30 3124 C 298.326 1.40752 -1.51646 0
M  V30 3125 C 298.741 1.88246 -0.144549 0
M  V30 3126 O 298.098 1.61422 0.851416 0
M  V30 3127 C 298.149 2.62119 -2.4895 0
M  V30 3128 O 297.87 2.16602 -3.80808 0
M  V30 3129 C 299.371 3.55135 -2.65319 0
M  V30 3130 H 296.591 0.431325 -0.514004 0
M  V30 3131 H 299.135 0.758835 -1.899 0
M  V30 3132 H 297.29 3.23058 -2.13805 0
M  V30 3133 H 297.704 2.95358 -4.33433 0
M  V30 3134 H 299.178 4.36874 -3.37409 0
M  V30 3135 H 299.655 4.04592 -1.70886 0
M  V30 3136 H 300.261 3.00058 -3.01405 0
M  V30 3137 N 298.576 1.31904 0.862503 0
M  V30 3138 C 299.823 1.22017 1.61611 0
M  V30 3139 C 300.151 -0.21991 1.93253 0
M  V30 3140 O 299.406 -1.17076 1.56817 0
M  V30 3141 C 299.705 2.01713 2.95037 0
M  V30 3142 C 299.371 3.51145 2.82857 0
M  V30 3143 C 298.033 3.91889 2.79243 0
M  V30 3144 C 300.385 4.46204 2.69353 0
M  V30 3145 C 297.713 5.25947 2.59993 0
M  V30 3146 C 300.065 5.80397 2.5164 0
M  V30 3147 C 298.729 6.20352 2.46413 0
M  V30 3148 H 297.999 0.44649 0.591378 0
M  V30 3149 H 300.646 1.63248 1.00111 0
M  V30 3150 H 298.951 1.53185 3.60613 0
M  V30 3151 H 300.648 1.91437 3.52353 0
M  V30 3152 H 297.238 3.1878 2.86491 0
M  V30 3153 H 301.422 4.15652 2.71196 0
M  V30 3154 H 296.678 5.5597 2.54376 0
M  V30 3155 H 300.852 6.53676 2.40169 0
M  V30 3156 H 298.479 7.24172 2.31256 0
M  V30 3157 N 300.054 -1.07777 1.14986 0
M  V30 3158 C 301.302 -1.79934 0.920235 0
M  V30 3159 C 301.623 -1.86955 -0.554336 0
M  V30 3160 O 300.893 -1.36731 -1.40291 0
M  V30 3161 H 299.473 -0.666424 0.337473 0
M  V30 3162 H 302.135 -1.3027 1.44968 0
M  V30 3163 H 301.231 -2.82539 1.32583 0
M  V30 3164 N 301.532 -0.945985 -1.26051 0
M  V30 3165 C 302.781 -0.591836 -1.92822 0
M  V30 3166 C 303.094 0.873956 -1.7499 0
M  V30 3167 O 304.3 1.33769 -2.36259 0
M  V30 3168 C 302.756 -1.00776 -3.45503 0
M  V30 3169 C 302.364 -2.4955 -3.7206 0
M  V30 3170 C 304.108 -0.725735 -4.1825 0
M  V30 3171 C 302.015 -2.84988 -5.18205 0
M  V30 3172 H 300.945 -0.217635 -0.721908 0
M  V30 3173 H 303.596 -1.14927 -1.43052 0
M  V30 3174 H 301.978 -0.378812 -3.94184 0
M  V30 3175 H 303.152 -3.1739 -3.34066 0
M  V30 3176 H 301.467 -2.75133 -3.12555 0
M  V30 3177 H 304.064 -0.966771 -5.25887 0
M  V30 3178 H 304.407 0.337639 -4.14929 0
M  V30 3179 H 304.94 -1.31463 -3.7545 0
M  V30 3180 H 301.679 -3.90307 -5.26631 0
M  V30 3181 H 301.199 -2.21813 -5.57278 0
M  V30 3182 H 302.878 -2.73712 -5.86252 0
M  V30 3183 N 303.011 1.40521 -0.713556 0
M  V30 3184 C 304.26 2.00155 -0.249192 0
M  V30 3185 C 304.573 1.57224 1.16362 0
M  V30 3186 O 305.779 2.09542 1.72639 0
M  V30 3187 C 304.235 3.5773 -0.3946 0
M  V30 3188 C 303.843 4.09635 -1.81392 0
M  V30 3189 C 305.587 4.24499 0.00907364 0
M  V30 3190 C 303.494 5.59707 -1.91003 0
M  V30 3191 H 302.424 0.74868 -0.0894114 0
M  V30 3192 H 305.075 1.60784 -0.884352 0
M  V30 3193 H 303.457 3.94792 0.30911 0
M  V30 3194 H 304.631 3.83955 -2.54785 0
M  V30 3195 H 302.946 3.55456 -2.16888 0
M  V30 3196 H 305.543 5.34683 -0.0420404 0
M  V30 3197 H 305.886 4.02824 1.05065 0
M  V30 3198 H 306.419 3.92536 -0.645007 0
M  V30 3199 H 303.158 5.86234 -2.93275 0
M  V30 3200 H 302.678 5.87258 -1.22019 0
M  V30 3201 H 304.357 6.24776 -1.6812 0
M  V30 3202 N 304.489 0.459591 1.5075 0
M  V30 3203 C 305.419 -0.330644 2.31147 0
M  V30 3204 C 306.4 -1.00087 1.37538 0
M  V30 3205 O 307.585 -1.00025 1.66459 0
M  V30 3206 C 304.715 -1.41958 3.16962 0
M  V30 3207 C 303.669 -0.871608 4.19031 0
M  V30 3208 C 302.995 -2.05797 4.9351 0
M  V30 3209 C 304.295 0.109251 5.22186 0
M  V30 3210 H 305.989 0.340336 2.97459 0
M  V30 3211 H 303.535 0.165119 1.4305 0
M  V30 3212 H 305.488 -1.9798 3.71997 0
M  V30 3213 H 304.212 -2.11917 2.48513 0
M  V30 3214 H 302.871 -0.333442 3.6508 0
M  V30 3215 H 302.519 -2.74427 4.21544 0
M  V30 3216 H 302.219 -1.6976 5.62544 0
M  V30 3217 H 303.743 -2.62331 5.51375 0
M  V30 3218 H 305.157 -0.361405 5.7216 0
M  V30 3219 H 303.554 0.383316 5.98875 0
M  V30 3220 H 304.624 1.03887 4.73641 0
M  V30 3221 N 305.967 -1.56429 0.191757 0
M  V30 3222 C 307.378 -1.83912 -0.321428 0
M  V30 3223 C 307.729 -1.11231 -1.61623 0
M  V30 3224 O 306.854 -0.37202 -2.13178 0
M  V30 3225 C 307.449 -3.33624 -0.589961 0
M  V30 3226 C 306.008 -3.6153 -1.04753 0
M  V30 3227 C 305.155 -2.7714 -0.0943327 0
M  V30 3228 H 308.106 -1.53161 0.415612 0
M  V30 3229 H 308.127 -3.52213 -1.43966 0
M  V30 3230 H 307.639 -3.86495 0.352588 0
M  V30 3231 H 305.74 -3.14089 -2.00447 0
M  V30 3232 H 305.853 -4.69737 -0.942549 0
M  V30 3233 H 304.217 -2.47638 -0.595589 0
M  V30 3234 H 305 -3.32799 0.842601 0
M  V30 3235 N 307.445 0.0818655 -1.57387 0
M  V30 3236 C 308.375 1.09885 -2.06028 0
M  V30 3237 C 309.356 1.4098 -0.951774 0
M  V30 3238 O 310.541 1.50781 -1.22387 0
M  V30 3239 C 307.671 2.4151 -2.4958 0
M  V30 3240 C 306.625 2.24792 -3.64215 0
M  V30 3241 C 305.951 3.61712 -3.93787 0
M  V30 3242 C 307.251 1.67749 -4.94629 0
M  V30 3243 H 308.945 0.694128 -2.91243 0
M  V30 3244 H 306.491 0.332448 -1.4011 0
M  V30 3245 H 308.444 3.12939 -2.82219 0
M  V30 3246 H 307.168 2.83943 -1.61381 0
M  V30 3247 H 305.827 1.55807 -3.31843 0
M  V30 3248 H 305.475 4.01697 -3.02735 0
M  V30 3249 H 305.175 3.51368 -4.70971 0
M  V30 3250 H 306.699 4.34587 -4.28913 0
M  V30 3251 H 308.113 2.29032 -5.25564 0
M  V30 3252 H 306.51 1.68128 -5.76067 0
M  V30 3253 H 307.58 0.638059 -4.80684 0
M  V30 3254 N 308.923 1.53595 0.353017 0
M  V30 3255 C 310.163 1.72094 1.10286 0
M  V30 3256 C 310.527 0.469217 1.86178 0
M  V30 3257 O 311.728 0.531083 2.63501 0
M  V30 3258 C 309.999 2.94386 2.02661 0
M  V30 3259 S 311.558 3.33651 2.84996 0
M  V30 3260 H 308.376 0.605433 0.372789 0
M  V30 3261 H 310.978 1.91722 0.38248 0
M  V30 3262 H 309.682 3.83669 1.45691 0
M  V30 3263 H 309.213 2.77197 2.79152 0
M  V30 3264 H 311.228 2.86645 4.0503 0
M  V30 3265 N 310.401 -0.613514 1.45168 0
M  V30 3266 C 311.331 -1.7354 1.56225 0
M  V30 3267 C 312.312 -1.64981 0.41414 0
M  V30 3268 O 313.497 -1.83472 0.636526 0
M  V30 3269 C 310.627 -3.12128 1.52295 0
M  V30 3270 C 309.581 -3.35491 2.65762 0
M  V30 3271 C 308.907 -4.74291 2.46885 0
M  V30 3272 C 310.207 -3.26325 4.0781 0
M  V30 3273 H 311.901 -1.64543 2.50132 0
M  V30 3274 H 309.447 -0.790185 1.20383 0
M  V30 3275 H 311.4 -3.90404 1.58628 0
M  V30 3276 H 310.124 -3.2195 0.549139 0
M  V30 3277 H 308.783 -2.59603 2.58847 0
M  V30 3278 H 308.431 -4.80839 1.47657 0
M  V30 3279 H 308.131 -4.9088 3.22972 0
M  V30 3280 H 309.655 -5.54775 2.55063 0
M  V30 3281 H 311.069 -3.94483 4.16 0
M  V30 3282 H 309.466 -3.54445 4.8424 0
M  V30 3283 H 310.536 -2.23855 4.30136 0
M  V30 3284 N 311.879 -1.3236 -0.855495 0
M  V30 3285 C 312.809 -1.23833 -1.97958 0
M  V30 3286 C 313.79 -0.122361 -1.69659 0
M  V30 3287 O 314.975 -0.30939 -1.9172 0
M  V30 3288 C 312.105 -0.959772 -3.33775 0
M  V30 3289 C 311.059 -2.03689 -3.76424 0
M  V30 3290 C 310.385 -1.61075 -5.09862 0
M  V30 3291 C 311.685 -3.4518 -3.9198 0
M  V30 3292 H 313.379 -2.1788 -2.0535 0
M  V30 3293 H 310.925 -1.04891 -0.986605 0
M  V30 3294 H 312.878 -0.886678 -4.11966 0
M  V30 3295 H 311.602 0.0163404 -3.26596 0
M  V30 3296 H 310.261 -2.10012 -3.00484 0
M  V30 3297 H 309.909 -0.622107 -4.99138 0
M  V30 3298 H 309.609 -2.33143 -5.39368 0
M  V30 3299 H 311.133 -1.55201 -5.90546 0
M  V30 3300 H 312.547 -3.4145 -4.60526 0
M  V30 3301 H 310.944 -4.1559 -4.32903 0
M  V30 3302 H 312.014 -3.84903 -2.94919 0
M  V30 3303 N 313.357 1.07166 -1.15556 0
M  V30 3304 C 314.304 2.14417 -0.854055 0
M  V30 3305 C 315.274 1.64965 0.193806 0
M  V30 3306 O 316.459 1.90703 0.0609443 0
M  V30 3307 C 313.599 3.43304 -0.351574 0
M  V30 3308 C 312.712 4.06537 -1.46123 0
M  V30 3309 C 311.847 5.23266 -0.914677 0
M  V30 3310 C 310.886 5.78464 -2.00114 0
M  V30 3311 N 310.023 6.86521 -1.47083 0
M  V30 3312 H 314.863 2.39548 -1.77259 0
M  V30 3313 H 312.4 1.17543 -0.884425 0
M  V30 3314 H 314.358 4.17179 -0.0419409 0
M  V30 3315 H 312.988 3.18419 0.530037 0
M  V30 3316 H 312.04 3.30297 -1.88701 0
M  V30 3317 H 313.352 4.43567 -2.28144 0
M  V30 3318 H 312.506 6.04131 -0.557698 0
M  V30 3319 H 311.245 4.87658 -0.0636583 0
M  V30 3320 H 310.25 4.96243 -2.36692 0
M  V30 3321 H 311.475 6.16126 -2.85597 0
M  V30 3322 H 309.421 6.52849 -0.642198 0
M  V30 3323 H 309.338 7.22446 -2.22729 0
M  V30 3324 H 310.606 7.71087 -1.14215 0
M  V30 3325 N 314.835 0.952656 1.25548 0
M  V30 3326 C 315.783 0.462354 2.27958 0
M  V30 3327 C 316.777 -0.46634 1.62855 0
M  V30 3328 O 317.983 -0.343287 1.76696 0
M  V30 3329 H 314.358 0.13101 0.7405 0
M  V30 3330 H 316.329 1.33839 2.66702 0
M  V30 3331 C 315.078 -0.24628 3.46827 0
M  V30 3332 H 314.401 0.459192 3.97154 0
M  V30 3333 H 315.841 -0.553393 4.20373 0
M  V30 3334 C 314.3 -1.4681 3.0323 0
M  V30 3335 O 314.83 -2.56591 3.09069 0
M  V30 3336 N 313.036 -1.32874 2.58443 0
M  V30 3337 H 312.583 -0.435536 2.53891 0
M  V30 3338 H 312.541 -2.14742 2.29637 0
M  V30 3339 N 316.313 -1.40141 0.720998 0
M  V30 3340 C 317.243 -2.33339 0.0867621 0
M  V30 3341 C 318.224 -1.53178 -0.739622 0
M  V30 3342 O 319.409 -1.81625 -0.687449 0
M  V30 3343 C 316.539 -3.37194 -0.831728 0
M  V30 3344 C 315.493 -4.27857 -0.110558 0
M  V30 3345 C 314.819 -5.22294 -1.14513 0
M  V30 3346 C 316.119 -5.11872 1.0385 0
M  V30 3347 H 317.813 -2.86626 0.865219 0
M  V30 3348 H 315.359 -1.37814 0.417516 0
M  V30 3349 H 317.312 -4.01335 -1.28485 0
M  V30 3350 H 316.036 -2.82314 -1.64214 0
M  V30 3351 H 314.695 -3.65176 0.322797 0
M  V30 3352 H 314.343 -4.63717 -1.94874 0
M  V30 3353 H 314.043 -5.83797 -0.667446 0
M  V30 3354 H 315.567 -5.89312 -1.59824 0
M  V30 3355 H 316.981 -5.69436 0.664482 0
M  V30 3356 H 315.378 -5.82445 1.4449 0
M  V30 3357 H 316.448 -4.4753 1.86668 0
M  V30 3358 N 317.792 -0.46758 -1.50504 0
M  V30 3359 C 319.04 0.0884469 -2.01906 0
M  V30 3360 C 319.361 1.40532 -1.35188 0
M  V30 3361 O 318.631 1.89515 -0.496079 0
M  V30 3362 H 317.211 0.0356765 -0.746148 0
M  V30 3363 H 319.873 -0.6172 -1.84869 0
M  V30 3364 H 318.969 0.2425 -3.11156 0
M  V30 3365 N 319.27 1.56325 -0.20005 0
M  V30 3366 C 320.5 2.01811 0.442232 0
M  V30 3367 C 320.908 1.07932 1.55394 0
M  V30 3368 O 320.251 0.0772685 1.83537 0
M  V30 3369 C 320.313 3.43685 1.05457 0
M  V30 3370 C 319.977 4.56928 0.0809833 0
M  V30 3371 C 320.974 5.15009 -0.711471 0
M  V30 3372 C 318.659 5.0229 -0.0315364 0
M  V30 3373 C 320.653 6.16904 -1.60336 0
M  V30 3374 C 318.34 6.04028 -0.926981 0
M  V30 3375 C 319.338 6.6121 -1.71146 0
M  V30 3376 O 319.026 7.60971 -2.59189 0
M  V30 3377 H 318.758 0.666173 0.114848 0
M  V30 3378 H 321.312 2.03085 -0.307511 0
M  V30 3379 H 319.542 3.39413 1.85299 0
M  V30 3380 H 321.231 3.72948 1.60201 0
M  V30 3381 H 321.997 4.80827 -0.634873 0
M  V30 3382 H 317.876 4.57476 0.568902 0
M  V30 3383 H 321.42 6.61464 -2.21611 0
M  V30 3384 H 317.317 6.37634 -1.00468 0
M  V30 3385 H 318.085 7.7841 -2.53023 0
M  V30 3386 N 320.748 -0.0735177 1.57428 0
M  V30 3387 C 321.678 -1.0879 2.06608 0
M  V30 3388 C 322.659 -1.40473 0.959237 0
M  V30 3389 O 323.844 -1.5013 1.23185 0
M  V30 3390 C 320.974 -2.40183 2.50857 0
M  V30 3391 C 319.928 -2.22858 3.65402 0
M  V30 3392 C 319.254 -3.59619 3.957 0
M  V30 3393 C 320.554 -1.65123 4.95511 0
M  V30 3394 H 322.248 -0.678673 2.91607 0
M  V30 3395 H 319.794 -0.325013 1.40284 0
M  V30 3396 H 321.747 -3.11437 2.83874 0
M  V30 3397 H 320.471 -2.83083 1.62885 0
M  V30 3398 H 319.13 -1.54045 3.32664 0
M  V30 3399 H 318.778 -4.00086 3.04861 0
M  V30 3400 H 318.478 -3.48866 4.72828 0
M  V30 3401 H 320.002 -4.32306 4.31212 0
M  V30 3402 H 321.416 -2.26241 5.26771 0
M  V30 3403 H 319.813 -1.65071 5.7695 0
M  V30 3404 H 320.883 -0.612559 4.81015 0
M  V30 3405 N 322.226 -1.5378 -0.344866 0
M  V30 3406 C 323.474 -1.70625 -1.08311 0
M  V30 3407 C 323.795 -0.471447 -1.89215 0
M  V30 3408 O 323.065 0.514616 -1.8902 0
M  V30 3409 H 321.645 -0.629058 -0.402859 0
M  V30 3410 H 324.307 -1.9103 -0.386459 0
M  V30 3411 H 323.403 -2.57656 -1.76124 0
M  V30 3412 N 323.704 0.605807 -1.45491 0
M  V30 3413 C 324.934 1.38934 -1.52908 0
M  V30 3414 C 325.342 1.88513 -0.161086 0
M  V30 3415 O 324.685 1.62962 0.847891 0
M  V30 3416 C 324.747 2.62737 -2.45376 0
M  V30 3417 C 324.411 2.34785 -3.92078 0
M  V30 3418 C 325.408 1.95038 -4.8193 0
M  V30 3419 C 323.093 2.47642 -4.37011 0
M  V30 3420 C 325.087 1.68511 -6.14722 0
M  V30 3421 C 322.774 2.20728 -5.69844 0
M  V30 3422 C 323.772 1.81225 -6.58519 0
M  V30 3423 O 323.46 1.54627 -7.88889 0
M  V30 3424 H 323.192 0.431629 -0.520262 0
M  V30 3425 H 325.746 0.74573 -1.91384 0
M  V30 3426 H 323.976 3.29824 -2.01874 0
M  V30 3427 H 325.665 3.24783 -2.43456 0
M  V30 3428 H 326.431 1.84639 -4.48479 0
M  V30 3429 H 322.31 2.77356 -3.68232 0
M  V30 3430 H 325.854 1.37602 -6.83894 0
M  V30 3431 H 321.751 2.30744 -6.02849 0
M  V30 3432 H 322.519 1.68665 -8.00933 0
M  V30 3433 N 325.182 1.32811 0.848464 0
M  V30 3434 C 326.41 1.26739 1.63538 0
M  V30 3435 C 326.825 -0.163484 1.88091 0
M  V30 3436 O 326.182 -1.10258 1.45429 0
M  V30 3437 C 326.233 2.03013 2.99112 0
M  V30 3438 O 325.954 3.40518 2.75643 0
M  V30 3439 C 327.455 2.04038 3.93552 0
M  V30 3440 H 324.675 0.437024 0.509167 0
M  V30 3441 H 327.219 1.75033 1.05753 0
M  V30 3442 H 325.374 1.58426 3.53525 0
M  V30 3443 H 325.788 3.79635 3.61908 0
M  V30 3444 H 327.262 2.61877 4.85926 0
M  V30 3445 H 327.739 1.0282 4.26995 0
M  V30 3446 H 328.345 2.486 3.45077 0
M  V30 3447 N 326.66 -1.06551 1.16123 0
M  V30 3448 C 327.885 -1.83544 0.965735 0
M  V30 3449 C 328.31 -1.81843 -0.481102 0
M  V30 3450 O 327.668 -1.21732 -1.34354 0
M  V30 3451 C 327.716 -3.28169 1.49457 0
M  V30 3452 O 326.82 -4.0643 0.699157 0
M  V30 3453 H 326.161 -0.568026 0.343864 0
M  V30 3454 H 328.691 -1.34362 1.54299 0
M  V30 3455 H 328.701 -3.78992 1.51092 0
M  V30 3456 H 327.376 -3.28722 2.54784 0
M  V30 3457 H 325.953 -3.65216 0.7531 0
M  V30 3458 N 328.138 -0.959301 -1.25041 0
M  V30 3459 C 329.386 -0.615393 -1.92503 0
M  V30 3460 C 329.707 0.850969 -1.75452 0
M  V30 3461 O 328.977 1.60658 -1.12098 0
M  V30 3462 H 327.557 -0.224613 -0.712431 0
M  V30 3463 H 330.219 -1.21855 -1.5211 0
M  V30 3464 H 329.315 -0.848738 -3.00338 0
M  V30 3465 N 329.616 1.39756 -0.72842 0
M  V30 3466 C 330.863 2.00645 -0.273487 0
M  V30 3467 C 331.191 1.57786 1.13727 0
M  V30 3468 O 330.446 0.794886 1.7883 0
M  V30 3469 C 330.745 3.56002 -0.315776 0
M  V30 3470 C 330.411 4.18489 -1.67863 0
M  V30 3471 C 329.073 4.3527 -2.05166 0
M  V30 3472 C 331.425 4.53219 -2.57375 0
M  V30 3473 C 328.753 4.84069 -3.31503 0
M  V30 3474 C 331.105 5.03423 -3.83077 0
M  V30 3475 C 329.769 5.18413 -4.20481 0
M  V30 3476 H 329.039 0.734211 -0.100076 0
M  V30 3477 H 331.686 1.6718 -0.933972 0
M  V30 3478 H 329.991 3.89452 0.428285 0
M  V30 3479 H 331.688 4.00963 0.0542575 0
M  V30 3480 H 328.278 4.05824 -1.37858 0
M  V30 3481 H 332.462 4.39878 -2.29827 0
M  V30 3482 H 327.718 4.93859 -3.60435 0
M  V30 3483 H 331.892 5.2927 -4.52599 0
M  V30 3484 H 329.519 5.55987 -5.18443 0
M  V30 3485 N 331.094 0.475555 1.50254 0
M  V30 3486 C 332.319 -0.0777042 2.07254 0
M  V30 3487 C 332.744 -1.3235 1.3366 0
M  V30 3488 O 332.102 -1.77152 0.385597 0
M  V30 3489 C 332.15 -0.340169 3.58992 0
M  V30 3490 O 331.254 -1.41982 3.87188 0
M  V30 3491 H 330.595 0.0149556 0.663832 0
M  V30 3492 H 333.125 0.667878 1.93392 0
M  V30 3493 H 333.135 -0.579332 4.03866 0
M  V30 3494 H 331.81 0.570167 4.11973 0
M  V30 3495 H 330.387 -1.16762 3.54148 0
M  V30 3496 N 332.573 -1.56217 0.208337 0
M  V30 3497 C 333.503 -2.22694 -0.702116 0
M  V30 3498 C 334.484 -1.19432 -1.2112 0
M  V30 3499 O 335.669 -1.47978 -1.25762 0
M  V30 3500 C 332.799 -2.8966 -1.9161 0
M  V30 3501 C 331.753 -3.9928 -1.5414 0
M  V30 3502 C 331.079 -4.53476 -2.83308 0
M  V30 3503 C 332.379 -5.17012 -0.741339 0
M  V30 3504 H 334.073 -2.99034 -0.147898 0
M  V30 3505 H 331.619 -1.43831 -0.0696951 0
M  V30 3506 H 333.572 -3.34852 -2.55836 0
M  V30 3507 H 332.296 -2.10746 -2.49507 0
M  V30 3508 H 330.955 -3.54799 -0.922668 0
M  V30 3509 H 330.603 -3.71308 -3.39322 0
M  V30 3510 H 330.303 -5.27451 -2.58976 0
M  V30 3511 H 331.827 -5.01378 -3.485 0
M  V30 3512 H 333.241 -5.58667 -1.28699 0
M  V30 3513 H 331.638 -5.97137 -0.595627 0
M  V30 3514 H 332.708 -4.8423 0.254851 0
M  V30 3515 N 334.051 0.0651679 -1.57465 0
M  V30 3516 C 335.276 0.779605 -1.9219 0
M  V30 3517 C 335.701 1.69988 -0.805333 0
M  V30 3518 O 335.059 1.79685 0.241435 0
M  V30 3519 C 335.107 1.54364 -3.2589 0
M  V30 3520 O 334.211 2.65474 -3.1559 0
M  V30 3521 H 333.552 0.212249 -0.629163 0
M  V30 3522 H 336.082 0.0314294 -2.04576 0
M  V30 3523 H 336.092 1.92146 -3.59922 0
M  V30 3524 H 334.767 0.868457 -4.06732 0
M  V30 3525 H 333.344 2.30501 -2.93128 0
M  V30 3526 N 335.529 1.53961 0.336706 0
M  V30 3527 C 336.769 1.73254 1.08454 0
M  V30 3528 C 337.133 0.488937 1.8567 0
M  V30 3529 O 338.334 0.559001 2.62923 0
M  V30 3530 C 336.605 2.96519 1.99528 0
M  V30 3531 S 338.164 3.36655 2.81441 0
M  V30 3532 H 334.982 0.609353 0.366347 0
M  V30 3533 H 337.584 1.92117 0.362124 0
M  V30 3534 H 336.288 3.85193 1.41614 0
M  V30 3535 H 335.819 2.80142 2.76196 0
M  V30 3536 H 337.834 2.90925 4.01967 0
M  V30 3537 N 337.007 -0.598083 1.45811 0
M  V30 3538 C 337.94 -1.7223 1.49706 0
M  V30 3539 C 338.918 -1.58732 0.352535 0
M  V30 3540 O 340.102 -1.80162 0.554438 0
M  V30 3541 C 337.229 -3.10148 1.3611 0
M  V30 3542 C 336.275 -3.42209 2.54549 0
M  V30 3543 S 337.108 -3.35989 4.16979 0
M  V30 3544 C 338.264 -4.76471 4.05865 0
M  V30 3545 H 338.497 -1.68665 2.44826 0
M  V30 3546 H 336.03 -0.775541 1.33509 0
M  V30 3547 H 337.988 -3.8972 1.28953 0
M  V30 3548 H 336.649 -3.11219 0.424451 0
M  V30 3549 H 335.842 -4.42652 2.40988 0
M  V30 3550 H 335.444 -2.70173 2.58617 0
M  V30 3551 H 337.736 -5.665 3.71596 0
M  V30 3552 H 338.679 -4.95089 5.06253 0
M  V30 3553 H 339.087 -4.52599 3.37364 0
M  V30 3554 N 338.485 -1.33259 -0.841409 0
M  V30 3555 C 339.731 -1.24757 -1.59886 0
M  V30 3556 C 340.064 0.186913 -1.93298 0
M  V30 3557 O 339.339 1.12757 -1.5848 0
M  V30 3558 C 339.622 -2.12036 -2.91055 0
M  V30 3559 C 339.475 -3.63929 -2.6434 0
M  V30 3560 C 340.794 -1.9916 -3.92458 0
M  V30 3561 H 337.913 -0.454542 -0.580138 0
M  V30 3562 H 340.555 -1.63335 -0.970647 0
M  V30 3563 H 338.705 -1.79265 -3.44669 0
M  V30 3564 H 340.377 -4.06978 -2.17178 0
M  V30 3565 H 338.62 -3.85935 -1.98082 0
M  V30 3566 H 339.291 -4.20341 -3.57796 0
M  V30 3567 H 341.767 -2.27895 -3.48143 0
M  V30 3568 H 340.643 -2.62484 -4.82072 0
M  V30 3569 H 340.904 -0.963082 -4.31482 0
M  V30 3570 N 339.963 1.05934 -1.16686 0
M  V30 3571 C 341.21 1.788 -0.950622 0
M  V30 3572 C 341.538 1.87384 0.521305 0
M  V30 3573 O 340.793 1.36438 1.40297 0
M  V30 3574 C 341.092 3.23105 -1.52767 0
M  V30 3575 C 340.758 3.34594 -3.02254 0
M  V30 3576 C 339.42 3.37437 -3.43059 0
M  V30 3577 C 341.772 3.36219 -3.98254 0
M  V30 3578 C 339.1 3.39525 -4.78477 0
M  V30 3579 C 341.452 3.39845 -5.33562 0
M  V30 3580 C 340.116 3.40971 -5.73842 0
M  V30 3581 H 339.386 0.654275 -0.347857 0
M  V30 3582 H 342.033 1.24555 -1.45459 0
M  V30 3583 H 340.338 3.80227 -0.94524 0
M  V30 3584 H 342.035 3.7809 -1.336 0
M  V30 3585 H 338.625 3.3309 -2.6972 0
M  V30 3586 H 342.809 3.33231 -3.67792 0
M  V30 3587 H 338.065 3.38703 -5.09009 0
M  V30 3588 H 342.239 3.4005 -6.07733 0
M  V30 3589 H 339.866 3.42342 -6.78753 0
M  V30 3590 N 341.441 0.965919 1.2453 0
M  V30 3591 C 342.688 0.626831 1.92554 0
M  V30 3592 C 343.016 -0.837739 1.75534 0
M  V30 3593 O 342.271 -1.61793 1.10098 0
M  V30 3594 C 342.57 0.945428 3.44669 0
M  V30 3595 C 342.236 2.39785 3.81856 0
M  V30 3596 C 340.898 2.79483 3.91718 0
M  V30 3597 C 343.25 3.34055 4.00071 0
M  V30 3598 C 340.578 4.12496 4.1721 0
M  V30 3599 C 342.93 4.66694 4.27059 0
M  V30 3600 C 341.594 5.06172 4.3514 0
M  V30 3601 H 340.864 0.229374 0.704605 0
M  V30 3602 H 343.511 1.21707 1.4785 0
M  V30 3603 H 341.816 0.272926 3.90848 0
M  V30 3604 H 343.513 0.661484 3.95507 0
M  V30 3605 H 340.103 2.08003 3.74743 0
M  V30 3606 H 344.287 3.04571 3.91855 0
M  V30 3607 H 339.543 4.42709 4.21685 0
M  V30 3608 H 343.717 5.3971 4.40097 0
M  V30 3609 H 341.344 6.09262 4.54646 0
M  V30 3610 N 342.919 -1.39368 0.735821 0
M  V30 3611 C 343.849 -2.33234 0.111506 0
M  V30 3612 C 344.83 -1.53954 -0.723334 0
M  V30 3613 O 346.015 -1.82344 -0.668147 0
M  V30 3614 C 343.145 -3.38057 -0.795917 0
M  V30 3615 C 342.099 -4.2795 -0.065172 0
M  V30 3616 C 341.425 -5.23479 -1.08967 0
M  V30 3617 C 342.725 -5.10741 1.09273 0
M  V30 3618 H 344.419 -2.85692 0.895571 0
M  V30 3619 H 341.965 -1.37364 0.432109 0
M  V30 3620 H 343.918 -4.02675 -1.24221 0
M  V30 3621 H 342.642 -2.8404 -1.61211 0
M  V30 3622 H 341.301 -3.64813 0.361511 0
M  V30 3623 H 340.949 -4.65758 -1.89944 0
M  V30 3624 H 340.649 -5.84472 -0.605489 0
M  V30 3625 H 342.173 -5.90974 -1.53565 0
M  V30 3626 H 343.587 -5.68699 0.724841 0
M  V30 3627 H 341.984 -5.8088 1.50659 0
M  V30 3628 H 343.054 -4.45525 1.91404 0
M  V30 3629 N 344.397 -0.483516 -1.5 0
M  V30 3630 C 345.646 0.0689102 -2.01582 0
M  V30 3631 C 345.959 1.39655 -1.36952 0
M  V30 3632 O 347.165 2.03465 -1.79762 0
M  V30 3633 C 345.621 0.173302 -3.59483 0
M  V30 3634 C 345.229 -1.14665 -4.33077 0
M  V30 3635 C 346.973 0.677024 -4.19066 0
M  V30 3636 C 344.88 -1.00537 -5.82792 0
M  V30 3637 H 343.81 0.0295277 -0.753422 0
M  V30 3638 H 346.461 -0.620295 -1.72698 0
M  V30 3639 H 344.843 0.926569 -3.85007 0
M  V30 3640 H 346.017 -1.91184 -4.19268 0
M  V30 3641 H 344.332 -1.58244 -3.85159 0
M  V30 3642 H 346.929 0.799952 -5.28682 0
M  V30 3643 H 347.272 1.67151 -3.81269 0
M  V30 3644 H 347.805 -0.0192083 -3.97795 0
M  V30 3645 H 344.544 -1.9736 -6.25083 0
M  V30 3646 H 344.064 -0.280776 -5.99142 0
M  V30 3647 H 345.743 -0.677 -6.43448 0
M  V30 3648 N 345.875 1.56104 -0.216619 0
M  V30 3649 C 347.121 1.98466 0.417033 0
M  V30 3650 C 347.454 1.10403 1.59765 0
M  V30 3651 O 346.729 0.160632 1.93836 0
M  V30 3652 C 347.012 3.49769 0.85637 0
M  V30 3653 C 346.865 4.48606 -0.327546 0
M  V30 3654 C 348.184 4.05339 1.7143 0
M  V30 3655 H 345.303 0.721551 0.150112 0
M  V30 3656 H 347.945 1.87423 -0.311864 0
M  V30 3657 H 346.095 3.5931 1.47745 0
M  V30 3658 H 347.767 4.5108 -0.965618 0
M  V30 3659 H 346.01 4.22682 -0.975805 0
M  V30 3660 H 346.681 5.51995 0.0227149 0
M  V30 3661 H 349.157 3.98712 1.19031 0
M  V30 3662 H 348.033 5.11533 1.99061 0
M  V30 3663 H 348.294 3.51918 2.67593 0
M  V30 3664 N 347.353 -0.0568162 1.57498 0
M  V30 3665 C 348.599 -0.75422 1.88253 0
M  V30 3666 C 348.932 -1.76461 0.810865 0
M  V30 3667 O 348.207 -1.93691 -0.177259 0
M  V30 3668 C 348.49 -1.44878 3.2967 0
M  V30 3669 C 348.343 -0.453789 4.47505 0
M  V30 3670 C 349.662 -2.38994 3.69554 0
M  V30 3671 H 346.781 -0.272724 0.684683 0
M  V30 3672 H 349.423 -0.0172113 1.89992 0
M  V30 3673 H 347.573 -2.077 3.28318 0
M  V30 3674 H 349.245 0.170371 4.60985 0
M  V30 3675 H 347.488 0.229552 4.33192 0
M  V30 3676 H 348.159 -0.977699 5.43273 0
M  V30 3677 H 350.635 -1.86239 3.72095 0
M  V30 3678 H 349.511 -2.84587 4.69363 0
M  V30 3679 H 349.772 -3.24461 3.00296 0
M  V30 3680 N 348.832 -1.54138 -0.328536 0
M  V30 3681 C 350.081 -1.71318 -1.06456 0
M  V30 3682 C 350.394 -0.491109 -1.89334 0
M  V30 3683 O 351.6 -0.54416 -2.65991 0
M  V30 3684 C 350.056 -3.03 -1.94214 0
M  V30 3685 C 349.664 -4.32595 -1.16471 0
M  V30 3686 C 351.408 -3.29544 -2.67583 0
M  V30 3687 C 349.315 -5.55341 -2.03347 0
M  V30 3688 H 348.245 -0.638429 -0.401155 0
M  V30 3689 H 350.896 -1.80633 -0.323106 0
M  V30 3690 H 349.278 -2.87579 -2.72239 0
M  V30 3691 H 350.452 -4.58766 -0.432525 0
M  V30 3692 H 348.767 -4.12777 -0.548063 0
M  V30 3693 H 351.364 -4.18444 -3.3288 0
M  V30 3694 H 351.707 -2.47206 -3.34955 0
M  V30 3695 H 352.24 -3.45809 -1.96623 0
M  V30 3696 H 348.979 -6.40268 -1.40491 0
M  V30 3697 H 348.499 -5.33397 -2.74313 0
M  V30 3698 H 350.178 -5.91557 -2.62049 0
M  V30 3699 N 350.31 0.590341 -1.46126 0
M  V30 3700 C 351.54 1.37304 -1.54373 0
M  V30 3701 C 351.948 1.88332 -0.181071 0
M  V30 3702 O 351.291 1.63852 0.830559 0
M  V30 3703 C 351.353 2.6012 -2.48149 0
M  V30 3704 C 351.017 2.30613 -3.94546 0
M  V30 3705 C 352.014 1.89915 -4.83971 0
M  V30 3706 C 349.699 2.42993 -4.39613 0
M  V30 3707 C 351.693 1.61981 -6.16475 0
M  V30 3708 C 349.38 2.14672 -5.72153 0
M  V30 3709 C 350.378 1.7423 -6.60404 0
M  V30 3710 O 350.066 1.46251 -7.90485 0
M  V30 3711 H 349.798 0.426086 -0.524811 0
M  V30 3712 H 352.352 0.72539 -1.92165 0
M  V30 3713 H 350.582 3.27664 -2.05361 0
M  V30 3714 H 352.271 3.22182 -2.46887 0
M  V30 3715 H 353.037 1.79872 -4.50412 0
M  V30 3716 H 348.916 2.73435 -3.71153 0
M  V30 3717 H 352.46 1.30341 -6.85315 0
M  V30 3718 H 348.357 2.24337 -6.05263 0
M  V30 3719 H 349.125 1.6016 -8.02677 0
M  V30 3720 N 351.788 1.33704 0.83433 0
M  V30 3721 C 352.735 1.24335 1.94447 0
M  V30 3722 C 353.705 0.120991 1.65659 0
M  V30 3723 O 354.89 0.300035 1.88426 0
M  V30 3724 C 352.03 0.993124 3.30501 0
M  V30 3725 C 351.143 2.20217 3.71657 0
M  V30 3726 C 350.278 1.88572 4.96602 0
M  V30 3727 C 349.317 3.05683 5.30306 0
M  V30 3728 N 348.454 2.73997 6.46429 0
M  V30 3729 H 353.294 2.1928 2.01792 0
M  V30 3730 H 350.831 1.09035 0.987404 0
M  V30 3731 H 352.789 0.828467 4.08892 0
M  V30 3732 H 351.419 0.0803902 3.227 0
M  V30 3733 H 350.471 2.47642 2.88752 0
M  V30 3734 H 351.783 3.07752 3.92543 0
M  V30 3735 H 350.937 1.68776 5.82752 0
M  V30 3736 H 349.676 0.982799 4.77695 0
M  V30 3737 H 348.681 3.26088 4.42659 0
M  V30 3738 H 349.906 3.96737 5.51159 0
M  V30 3739 H 347.852 1.86268 6.28999 0
M  V30 3740 H 347.769 3.55064 6.67432 0
M  V30 3741 H 349.037 2.57679 7.35678 0
M  V30 3742 N 353.266 -1.05314 1.17247 0
M  V30 3743 C 354.213 -2.13031 0.888058 0
M  V30 3744 C 355.183 -1.65253 -0.167537 0
M  V30 3745 O 356.368 -1.90775 -0.0305974 0
M  V30 3746 C 353.508 -3.42702 0.406147 0
M  V30 3747 C 352.621 -4.04161 1.52572 0
M  V30 3748 C 351.756 -5.21744 0.997808 0
M  V30 3749 C 350.795 -5.75207 2.09291 0
M  V30 3750 N 349.932 -6.84094 1.57986 0
M  V30 3751 H 354.772 -2.36698 1.81048 0
M  V30 3752 H 352.309 -1.16121 0.903013 0
M  V30 3753 H 354.267 -4.17059 0.108305 0
M  V30 3754 H 352.897 -3.19222 -0.479313 0
M  V30 3755 H 351.949 -3.27253 1.93931 0
M  V30 3756 H 353.261 -4.39881 2.35172 0
M  V30 3757 H 352.415 -6.03168 0.653739 0
M  V30 3758 H 351.154 -4.87495 0.141232 0
M  V30 3759 H 350.159 -4.92414 2.44557 0
M  V30 3760 H 351.384 -6.11505 2.95362 0
M  V30 3761 H 349.33 -6.51745 0.74598 0
M  V30 3762 H 349.247 -7.18811 2.34195 0
M  V30 3763 H 350.515 -7.69172 1.26468 0
M  V30 3764 N 354.744 -0.972509 -1.24016 0
M  V30 3765 C 355.991 -0.637034 -1.92219 0
M  V30 3766 C 356.319 0.828418 -1.75976 0
M  V30 3767 O 355.574 1.61206 -1.10955 0
M  V30 3768 C 355.873 -0.963694 -3.44162 0
M  V30 3769 C 355.539 -2.41807 -3.80579 0
M  V30 3770 C 354.201 -2.81556 -3.9023 0
M  V30 3771 C 356.553 -3.36172 -3.98293 0
M  V30 3772 C 353.881 -4.14702 -4.15017 0
M  V30 3773 C 356.233 -4.68952 -4.24578 0
M  V30 3774 C 354.897 -5.08472 -4.32449 0
M  V30 3775 H 354.167 -0.233107 -0.703379 0
M  V30 3776 H 356.814 -1.2249 -1.47202 0
M  V30 3777 H 355.119 -0.29365 -3.90698 0
M  V30 3778 H 356.816 -0.682449 -3.9515 0
M  V30 3779 H 353.406 -2.09988 -3.73635 0
M  V30 3780 H 357.59 -3.06644 -3.90234 0
M  V30 3781 H 352.846 -4.4494 -4.19331 0
M  V30 3782 H 357.02 -5.42037 -4.37229 0
M  V30 3783 H 354.647 -6.11665 -4.51409 0
M  V30 3784 N 356.222 1.38976 -0.743202 0
M  V30 3785 C 357.154 2.29096 -0.0689228 0
M  V30 3786 C 358.167 1.47229 0.694791 0
M  V30 3787 O 359.356 1.70212 0.537597 0
M  V30 3788 C 356.456 3.25988 0.926548 0
M  V30 3789 C 355.629 4.36833 0.222647 0
M  V30 3790 C 354.688 5.13981 1.12739 0
M  V30 3791 O 353.714 5.6601 0.601795 0
M  V30 3792 N 354.916 5.25966 2.45641 0
M  V30 3793 H 357.681 2.87604 -0.842846 0
M  V30 3794 H 355.242 1.50645 -0.593109 0
M  V30 3795 H 357.234 3.74476 1.5346 0
M  V30 3796 H 355.804 2.68453 1.60162 0
M  V30 3797 H 355.024 3.90116 -0.565983 0
M  V30 3798 H 356.312 5.0811 -0.264841 0
M  V30 3799 H 355.71 4.85228 2.9081 0
M  V30 3800 H 354.267 5.77865 3.01522 0
M  V30 3801 N 357.7 0.491464 1.49741 0
M  V30 3802 C 358.949 -0.0582189 2.01616 0
M  V30 3803 C 359.262 -1.38927 1.3769 0
M  V30 3804 O 360.468 -2.02509 1.80838 0
M  V30 3805 C 358.924 -0.154235 3.59569 0
M  V30 3806 C 358.532 1.1696 4.32463 0
M  V30 3807 C 360.276 -0.65479 4.1942 0
M  V30 3808 C 358.183 1.03627 5.8225 0
M  V30 3809 H 357.113 -0.0255317 0.753568 0
M  V30 3810 H 359.764 0.629445 1.72367 0
M  V30 3811 H 358.146 -0.906138 3.85493 0
M  V30 3812 H 359.32 1.93405 4.18248 0
M  V30 3813 H 357.635 1.60285 3.84315 0
M  V30 3814 H 360.232 -0.771903 5.29099 0
M  V30 3815 H 360.575 -1.65127 3.8215 0
M  V30 3816 H 361.108 0.040304 3.9778 0
M  V30 3817 H 357.847 2.00672 6.24028 0
M  V30 3818 H 357.367 0.312546 5.98985 0
M  V30 3819 H 359.046 0.711114 6.4308 0
M  V30 3820 N 359.178 -1.55987 0.224894 0
M  V30 3821 C 360.589 -1.84553 -0.282345 0
M  V30 3822 C 360.94 -1.14634 -1.59227 0
M  V30 3823 O 360.065 -0.417155 -2.12341 0
M  V30 3824 C 360.66 -3.348 -0.519062 0
M  V30 3825 C 359.219 -3.63671 -0.970604 0
M  V30 3826 C 358.366 -2.77277 -0.0355261 0
M  V30 3827 H 361.317 -1.52245 0.448006 0
M  V30 3828 H 361.338 -3.55187 -1.36463 0
M  V30 3829 H 360.85 -3.8566 0.43449 0
M  V30 3830 H 358.951 -3.1827 -1.9374 0
M  V30 3831 H 359.064 -4.71631 -0.842698 0
M  V30 3832 H 357.428 -2.48846 -0.542927 0
M  V30 3833 H 358.211 -3.30937 0.913003 0
M  V30 3834 N 360.656 0.0484629 -1.57525 0
M  V30 3835 C 361.896 0.748196 -1.90214 0
M  V30 3836 C 362.26 1.73545 -0.821347 0
M  V30 3837 O 363.461 2.48201 -1.03198 0
M  V30 3838 C 361.732 1.41727 -3.28098 0
M  V30 3839 S 363.291 2.14884 -3.82584 0
M  V30 3840 H 360.109 0.248307 -0.666232 0
M  V30 3841 H 362.711 0.00343188 -1.955 0
M  V30 3842 H 361.415 0.685244 -4.04639 0
M  V30 3843 H 360.946 2.20099 -3.26068 0
M  V30 3844 H 362.961 3.41755 -3.59747 0
M  V30 3845 N 362.134 1.5431 0.320358 0
M  V30 3846 C 363.383 1.7188 1.05546 0
M  V30 3847 C 363.696 0.501143 1.89071 0
M  V30 3848 O 364.902 0.558258 2.65699 0
M  V30 3849 C 363.358 3.04025 1.92605 0
M  V30 3850 C 362.966 4.33207 1.14176 0
M  V30 3851 C 364.71 3.30959 2.65832 0
M  V30 3852 C 362.617 5.56412 2.00399 0
M  V30 3853 H 361.547 0.640547 0.397763 0
M  V30 3854 H 364.198 1.80802 0.313522 0
M  V30 3855 H 362.58 2.89019 2.7071 0
M  V30 3856 H 363.754 4.58989 0.40819 0
M  V30 3857 H 362.069 4.13062 0.526165 0
M  V30 3858 H 364.666 4.20203 3.30656 0
M  V30 3859 H 365.009 2.48979 3.33639 0
M  V30 3860 H 365.542 3.46847 1.94787 0
M  V30 3861 H 362.281 6.41004 1.37094 0
M  V30 3862 H 361.801 5.34844 2.7148 0
M  V30 3863 H 363.48 5.92938 2.58908 0
M  V30 3864 N 363.613 -0.582584 1.46437 0
M  V30 3865 C 364.859 -1.34278 1.51978 0
M  V30 3866 C 365.192 -1.93446 0.170973 0
M  V30 3867 O 364.467 -1.76481 -0.817608 0
M  V30 3868 C 364.75 -2.47203 2.61845 0
M  V30 3869 C 364.603 -1.93069 4.06257 0
M  V30 3870 C 365.922 -3.49247 2.67795 0
M  V30 3871 H 363.041 -0.486876 0.553282 0
M  V30 3872 H 365.683 -0.654437 1.78374 0
M  V30 3873 H 363.833 -3.0592 2.39469 0
M  V30 3874 H 365.505 -1.38808 4.3992 0
M  V30 3875 H 363.748 -1.23898 4.1573 0
M  V30 3876 H 364.419 -2.74586 4.7886 0
M  V30 3877 H 366.895 -3.00411 2.8791 0
M  V30 3878 H 365.771 -4.25719 3.46489 0
M  V30 3879 H 366.032 -4.06482 1.73852 0
M  V30 3880 N 365.091 -1.34144 -0.827227 0
M  V30 3881 C 366.502 -1.23557 -1.39966 0
M  V30 3882 C 366.853 0.140731 -1.95695 0
M  V30 3883 O 365.978 1.04087 -1.89723 0
M  V30 3884 C 366.573 -2.23708 -2.54441 0
M  V30 3885 C 365.132 -2.16924 -3.07605 0
M  V30 3886 C 364.279 -2.10549 -1.80456 0
M  V30 3887 H 367.23 -1.45573 -0.631991 0
M  V30 3888 H 367.251 -1.85157 -3.32411 0
M  V30 3889 H 366.763 -3.23866 -2.13851 0
M  V30 3890 H 364.864 -1.20107 -3.52711 0
M  V30 3891 H 364.977 -3.07988 -3.66988 0
M  V30 3892 H 363.341 -1.56203 -2.01178 0
M  V30 3893 H 364.124 -3.12535 -1.42046 0
M  V30 3894 N 366.569 1.04691 -1.17803 0
M  V30 3895 C 367.479 2.16057 -0.914151 0
M  V30 3896 C 368.495 1.73589 0.119503 0
M  V30 3897 O 369.671 2.01308 -0.0609468 0
M  V30 3898 C 366.736 3.4394 -0.436603 0
M  V30 3899 C 365.797 4.00825 -1.53746 0
M  V30 3900 C 365.03 5.22604 -1.0826 0
M  V30 3901 O 365.253 5.70367 0.0612244 0
M  V30 3902 O 364.187 5.7186 -1.87775 0
M  V30 3903 H 368.013 2.41169 -1.84584 0
M  V30 3904 H 365.598 1.1453 -0.959334 0
M  V30 3905 H 367.48 4.21024 -0.178057 0
M  V30 3906 H 366.155 3.20316 0.466869 0
M  V30 3907 H 365.062 3.25158 -1.84995 0
M  V30 3908 H 366.395 4.28778 -2.41683 0
M  V30 3909 N 368.047 0.979072 1.23499 0
M  V30 3910 C 368.977 0.537606 2.27227 0
M  V30 3911 C 369.958 -0.428539 1.64613 0
M  V30 3912 O 371.143 -0.322191 1.91509 0
M  V30 3913 C 368.273 -0.162052 3.46922 0
M  V30 3914 C 367.227 0.721242 4.21879 0
M  V30 3915 C 366.553 -0.110555 5.34586 0
M  V30 3916 C 367.853 2.01141 4.82016 0
M  V30 3917 H 369.547 1.40462 2.64406 0
M  V30 3918 H 367.093 0.67684 1.27102 0
M  V30 3919 H 369.046 -0.482192 4.18632 0
M  V30 3920 H 367.77 -1.06351 3.08799 0
M  V30 3921 H 366.429 1.02482 3.51984 0
M  V30 3922 H 366.077 -1.0125 4.92704 0
M  V30 3923 H 365.777 0.477325 5.85658 0
M  V30 3924 H 367.301 -0.425107 6.09118 0
M  V30 3925 H 368.715 1.75612 5.45741 0
M  V30 3926 H 367.112 2.54695 5.43369 0
M  V30 3927 H 368.182 2.69909 4.02836 0
M  V30 3928 N 369.525 -1.3858 0.750561 0
M  V30 3929 C 370.473 -2.32339 0.110162 0
M  V30 3930 C 371.467 -1.53864 -0.708674 0
M  V30 3931 O 372.673 -1.69417 -0.608112 0
M  V30 3932 H 369.048 -0.751812 0.0168275 0
M  V30 3933 H 371.019 -2.83959 0.917053 0
M  V30 3934 C 369.768 -3.39043 -0.771067 0
M  V30 3935 H 369.091 -3.99517 -0.150374 0
M  V30 3936 H 370.531 -4.07061 -1.1865 0
M  V30 3937 C 368.99 -2.77365 -1.91234 0
M  V30 3938 O 369.52 -2.66434 -3.00626 0
M  V30 3939 N 367.726 -2.35219 -1.70646 0
M  V30 3940 H 367.273 -2.4431 -0.81673 0
M  V30 3941 H 367.231 -1.94294 -2.47178 0
M  V30 3942 N 371.003 -0.499398 -1.49478 0
M  V30 3943 C 372.228 0.044722 -2.07352 0
M  V30 3944 C 372.653 1.30207 -1.35749 0
M  V30 3945 O 372.011 1.76516 -0.413732 0
M  V30 3946 C 372.059 0.283013 -3.59488 0
M  V30 3947 O 371.163 1.35804 -3.89398 0
M  V30 3948 H 370.504 -0.0255147 -0.66351 0
M  V30 3949 H 373.034 -0.698561 -1.92305 0
M  V30 3950 H 373.044 0.515007 -4.04737 0
M  V30 3951 H 371.719 -0.635636 -4.11014 0
M  V30 3952 H 370.296 1.11113 -3.55961 0
M  V30 3953 N 372.481 1.55866 -0.233164 0
M  V30 3954 C 373.709 2.02998 0.399905 0
M  V30 3955 C 374.124 1.11274 1.52524 0
M  V30 3956 O 373.481 0.124528 1.82075 0
M  V30 3957 C 373.532 3.4958 0.920639 0
M  V30 3958 O 373.253 4.37808 -0.159834 0
M  V30 3959 C 374.754 4.12411 1.62578 0
M  V30 3960 H 371.974 0.664006 0.0966281 0
M  V30 3961 H 374.518 2.0143 -0.353013 0
M  V30 3962 H 372.673 3.51727 1.62379 0
M  V30 3963 H 373.087 5.23981 0.23337 0
M  V30 3964 H 374.561 5.16711 1.94201 0
M  V30 3965 H 375.038 3.5809 2.54299 0
M  V30 3966 H 375.644 4.14148 0.967553 0
M  V30 3967 N 373.959 -0.0401083 1.57549 0
M  V30 3968 C 375.208 -0.732108 1.87944 0
M  V30 3969 C 375.521 -1.77107 0.830206 0
M  V30 3970 O 376.727 -2.51488 1.02302 0
M  V30 3971 C 375.183 -1.35315 3.33494 0
M  V30 3972 C 374.791 -0.351105 4.46622 0
M  V30 3973 C 376.535 -2.02566 3.73051 0
M  V30 3974 C 374.442 -0.979859 5.83226 0
M  V30 3975 H 373.372 -0.277188 0.701201 0
M  V30 3976 H 376.023 0.0138501 1.83495 0
M  V30 3977 H 374.405 -2.14844 3.32653 0
M  V30 3978 H 375.579 0.416674 4.58912 0
M  V30 3979 H 373.894 0.218708 4.15825 0
M  V30 3980 H 376.491 -2.50441 4.72423 0
M  V30 3981 H 376.834 -2.83904 3.04474 0
M  V30 3982 H 377.367 -1.29827 3.76018 0
M  V30 3983 H 374.106 -0.206135 6.55176 0
M  V30 3984 H 373.626 -1.71774 5.74677 0
M  V30 3985 H 375.305 -1.49046 6.29599 0
M  V30 3986 N 375.437 -1.54477 -0.31217 0
M  V30 3987 C 376.662 -1.77526 -1.07235 0
M  V30 3988 C 377.087 -0.527775 -1.80544 0
M  V30 3989 O 376.445 0.52121 -1.73646 0
M  V30 3990 C 376.493 -2.97535 -2.03728 0
M  V30 3991 O 375.597 -2.69878 -3.11833 0
M  V30 3992 H 374.938 -0.58792 -0.30862 0
M  V30 3993 H 377.468 -2.01532 -0.352993 0
M  V30 3994 H 377.478 -3.25198 -2.46395 0
M  V30 3995 H 376.153 -3.87996 -1.49774 0
M  V30 3996 H 374.73 -2.53199 -2.7376 0
M  V30 3997 N 376.915 0.57481 -1.46744 0
M  V30 3998 C 377.878 1.66533 -1.57478 0
M  V30 3999 C 378.878 1.54338 -0.451263 0
M  V30 4000 O 380.068 1.58814 -0.715813 0
M  V30 4001 C 377.2 3.05999 -1.50259 0
M  V30 4002 H 378.393 1.58372 -2.54673 0
M  V30 4003 H 375.946 0.793301 -1.34672 0
M  V30 4004 H 376.681 3.19709 -0.543725 0
M  V30 4005 H 376.466 3.16259 -2.31781 0
M  V30 4006 H 377.956 3.8537 -1.60872 0
M  V30 4007 N 378.394 1.34581 0.820102 0
M  V30 4008 C 379.342 1.26401 1.95258 0
M  V30 4009 C 380.336 0.161553 1.68628 0
M  V30 4010 O 381.542 0.326703 1.7701 0
M  V30 4011 H 377.917 0.392749 0.64129 0
M  V30 4012 H 379.888 2.22105 1.99279 0
M  V30 4013 C 378.637 1.03919 3.31807 0
M  V30 4014 H 377.96 1.87984 3.52848 0
M  V30 4015 H 379.4 1.02232 4.11491 0
M  V30 4016 C 377.859 -0.257433 3.35915 0
M  V30 4017 O 378.389 -1.25784 3.81499 0
M  V30 4018 N 376.595 -0.291524 2.89134 0
M  V30 4019 H 376.142 0.523161 2.52232 0
M  V30 4020 H 376.1 -1.15883 2.92264 0
M  V30 4021 N 379.872 -1.04064 1.18357 0
M  V30 4022 C 381.097 -1.81454 1.00445 0
M  V30 4023 C 381.522 -1.82823 -0.442423 0
M  V30 4024 O 380.88 -1.24555 -1.31741 0
M  V30 4025 C 380.928 -3.24925 1.56384 0
M  V30 4026 O 380.032 -4.04856 0.785209 0
M  V30 4027 H 379.373 -0.560604 0.355835 0
M  V30 4028 H 381.903 -1.31059 1.57114 0
M  V30 4029 H 381.913 -3.75702 1.59097 0
M  V30 4030 H 380.588 -3.23244 2.61699 0
M  V30 4031 H 379.165 -3.63537 0.830399 0
M  V30 4032 N 381.35 -0.985608 -1.22978 0
M  V30 4033 C 382.578 -0.675582 -1.95559 0
M  V30 4034 C 382.993 0.758413 -1.72897 0
M  V30 4035 O 382.35 1.51094 -1.02357 0
M  V30 4036 C 382.401 -0.96293 -3.48439 0
M  V30 4037 O 382.122 -2.34057 -3.70336 0
M  V30 4038 C 383.623 -0.669585 -4.38214 0
M  V30 4039 H 380.843 -0.250523 -0.622478 0
M  V30 4040 H 383.387 -1.3184 -1.56328 0
M  V30 4041 H 381.542 -0.366033 -3.85667 0
M  V30 4042 H 381.956 -2.43424 -4.64591 0
M  V30 4043 H 383.43 -0.920967 -5.44263 0
M  V30 4044 H 383.907 0.396383 -4.37408 0
M  V30 4045 H 384.513 -1.2472 -4.06602 0
M  V30 4046 N 382.828 1.3818 -0.7579 0
M  V30 4047 C 383.776 2.32277 -0.122482 0
M  V30 4048 C 384.77 1.54238 0.700505 0
M  V30 4049 O 385.976 1.69737 0.599119 0
M  V30 4050 H 382.351 0.751712 -0.0208143 0
M  V30 4051 H 384.322 2.83469 -0.932099 0
M  V30 4052 C 383.071 3.39447 0.753076 0
M  V30 4053 H 382.394 3.99591 0.129184 0
M  V30 4054 H 383.834 4.07684 1.16489 0
M  V30 4055 C 382.293 2.78375 1.8976 0
M  V30 4056 O 382.823 2.68025 2.99208 0
M  V30 4057 N 381.029 2.36121 1.69397 0
M  V30 4058 H 380.576 2.4474 0.803762 0
M  V30 4059 H 380.534 1.95602 2.46145 0
M  V30 4060 N 384.306 0.507319 1.49211 0
M  V30 4061 C 385.269 -0.256763 2.27757 0
M  V30 4062 C 386.269 -0.888287 1.34038 0
M  V30 4063 O 387.459 -0.751841 1.5714 0
M  V30 4064 C 384.591 -1.36905 3.12202 0
M  V30 4065 H 385.784 0.432557 2.96764 0
M  V30 4066 H 383.337 0.262488 1.5408 0
M  V30 4067 H 384.072 -2.09233 2.47775 0
M  V30 4068 H 383.857 -0.921599 3.81115 0
M  V30 4069 H 385.347 -1.9071 3.7151 0
M  V30 4070 N 385.784 -1.5574 0.241426 0
M  V30 4071 C 387.061 -1.90704 -0.434881 0
M  V30 4072 C 387.441 -1.16145 -1.76277 0
M  V30 4073 O 386.789 -0.277152 -2.26813 0
M  V30 4074 C 386.999 -3.43657 -0.608343 0
M  V30 4075 C 388.347 -4.14806 -0.906725 0
M  V30 4076 O 389.371 -3.49366 -0.694408 0
M  V30 4077 O 388.23 -5.30548 -1.31075 0
M  V30 4078 H 385.324 -0.793592 -0.23268 0
M  V30 4079 H 387.87 -1.67288 0.285086 0
M  V30 4080 H 386.642 -3.89927 0.327505 0
M  V30 4081 H 386.265 -3.72918 -1.37906 0
M  V30 4082 N 387.262 0.0317525 -1.57568 0
M  V30 4083 C 388.49 0.734949 -1.93407 0
M  V30 4084 C 388.905 1.69036 -0.84096 0
M  V30 4085 O 388.262 1.81582 0.182836 0
M  V30 4086 C 388.313 1.49432 -3.29169 0
M  V30 4087 O 388.034 0.577261 -4.3428 0
M  V30 4088 C 389.535 2.29492 -3.79273 0
M  V30 4089 H 386.755 0.206706 -0.638368 0
M  V30 4090 H 389.299 -0.00992046 -2.04498 0
M  V30 4091 H 387.454 2.1911 -3.19483 0
M  V30 4092 H 387.868 1.10952 -5.1263 0
M  V30 4093 H 389.342 2.78172 -4.76785 0
M  V30 4094 H 389.819 3.10794 -3.10328 0
M  V30 4095 H 390.425 1.64894 -3.92033 0
M  V30 4096 N 388.74 1.54641 0.303973 0
M  V30 4097 C 389.98 1.75516 1.04755 0
M  V30 4098 C 390.344 0.528211 1.84591 0
M  V30 4099 O 391.545 0.614645 2.61678 0
M  V30 4100 C 389.816 3.00685 1.93193 0
M  V30 4101 S 391.375 3.42549 2.74237 0
M  V30 4102 H 388.193 0.616987 0.353339 0
M  V30 4103 H 390.795 1.92842 0.321292 0
M  V30 4104 H 389.499 3.8811 1.33411 0
M  V30 4105 H 389.03 2.85937 2.70191 0
M  V30 4106 H 391.045 2.99386 3.95705 0
M  V30 4107 N 390.218 -0.567019 1.47046 0
M  V30 4108 C 391.446 -1.35027 1.56765 0
M  V30 4109 C 391.861 -1.8758 0.214316 0
M  V30 4110 O 391.218 -1.64471 -0.790919 0
M  V30 4111 C 391.269 -2.52698 2.58507 0
M  V30 4112 O 390.99 -2.0232 3.88585 0
M  V30 4113 C 392.491 -3.45043 2.78316 0
M  V30 4114 H 389.711 -0.41195 0.529658 0
M  V30 4115 H 392.255 -0.687832 1.92585 0
M  V30 4116 H 390.41 -3.149 2.25648 0
M  V30 4117 H 390.824 -2.79068 4.44096 0
M  V30 4118 H 392.298 -4.2405 3.53391 0
M  V30 4119 H 392.775 -3.97971 1.85784 0
M  V30 4120 H 393.381 -2.88665 3.12334 0
M  V30 4121 N 391.696 -1.35014 -0.812953 0
M  V30 4122 C 393.107 -1.25035 -1.38648 0
M  V30 4123 C 393.458 0.119967 -1.95833 0
M  V30 4124 O 392.583 1.02069 -1.90816 0
M  V30 4125 C 393.178 -2.26394 -2.52054 0
M  V30 4126 C 391.737 -2.20175 -3.05287 0
M  V30 4127 C 390.884 -2.12451 -1.78213 0
M  V30 4128 H 393.835 -1.46235 -0.616516 0
M  V30 4129 H 393.856 -1.88672 -3.30429 0
M  V30 4130 H 393.368 -3.26116 -2.10404 0
M  V30 4131 H 391.469 -1.23841 -3.51417 0
M  V30 4132 H 391.582 -3.11863 -3.63701 0
M  V30 4133 H 389.946 -1.58328 -1.9951 0
M  V30 4134 H 390.729 -3.14024 -1.38723 0
M  V30 4135 N 393.175 1.03435 -1.18907 0
M  V30 4136 C 394.122 2.11591 -0.921837 0
M  V30 4137 C 395.092 1.65499 0.141226 0
M  V30 4138 O 396.277 1.908 0.000242829 0
M  V30 4139 C 393.417 3.42012 -0.460616 0
M  V30 4140 C 392.53 4.01682 -1.58982 0
M  V30 4141 C 391.665 5.20091 -1.08069 0
M  V30 4142 C 390.704 5.71805 -2.18416 0
M  V30 4143 N 389.841 6.81494 -1.68849 0
M  V30 4144 H 394.681 2.33787 -1.8479 0
M  V30 4145 H 392.218 1.1467 -0.921373 0
M  V30 4146 H 394.176 4.16834 -0.174642 0
M  V30 4147 H 392.806 3.19944 0.428467 0
M  V30 4148 H 391.858 3.24127 -1.99113 0
M  V30 4149 H 393.17 4.36084 -2.4214 0
M  V30 4150 H 392.324 6.02051 -0.749615 0
M  V30 4151 H 391.063 4.87209 -0.218771 0
M  V30 4152 H 390.068 4.88461 -2.5236 0
M  V30 4153 H 391.293 6.06728 -3.05054 0
M  V30 4154 H 389.239 6.50475 -0.849572 0
M  V30 4155 H 389.156 7.14994 -2.45601 0
M  V30 4156 H 390.424 7.67063 -1.38689 0
M  V30 4157 N 394.653 0.992116 1.22453 0
M  V30 4158 C 395.883 0.684949 1.94915 0
M  V30 4159 C 396.291 -0.754292 1.73514 0
M  V30 4160 O 395.634 -1.52056 1.03076 0
M  V30 4161 C 395.696 0.910054 3.47791 0
M  V30 4162 C 395.36 2.33363 3.92926 0
M  V30 4163 C 396.357 3.31308 4.00663 0
M  V30 4164 C 394.042 2.66785 4.25595 0
M  V30 4165 C 396.036 4.6075 4.40441 0
M  V30 4166 C 393.723 3.96446 4.65053 0
M  V30 4167 C 394.721 4.9324 4.72444 0
M  V30 4168 O 394.409 6.20584 5.1101 0
M  V30 4169 H 394.141 0.25258 0.62704 0
M  V30 4170 H 396.695 1.32939 1.56577 0
M  V30 4171 H 394.925 0.208443 3.86138 0
M  V30 4172 H 396.614 0.598257 4.01467 0
M  V30 4173 H 397.38 3.0682 3.75615 0
M  V30 4174 H 393.259 1.92148 4.19047 0
M  V30 4175 H 396.803 5.363 4.46126 0
M  V30 4176 H 392.7 4.20724 4.89552 0
M  V30 4177 H 393.468 6.24509 5.29085 0
M  V30 4178 N 396.131 -1.37776 0.765217 0
M  V30 4179 C 397.377 -2.00145 0.327072 0
M  V30 4180 C 397.71 -1.60607 -1.09175 0
M  V30 4181 O 396.985 -0.849127 -1.74986 0
M  V30 4182 C 397.268 -3.57109 0.46319 0
M  V30 4183 C 397.121 -4.06576 1.92395 0
M  V30 4184 C 398.44 -4.39888 -0.136473 0
M  V30 4185 H 395.559 -0.727113 0.120316 0
M  V30 4186 H 398.201 -1.63549 0.967039 0
M  V30 4187 H 396.351 -3.88414 -0.0816358 0
M  V30 4188 H 398.023 -3.85864 2.52798 0
M  V30 4189 H 396.266 -3.59011 2.43503 0
M  V30 4190 H 396.937 -5.15639 1.97028 0
M  V30 4191 H 399.413 -4.14803 0.328317 0
M  V30 4192 H 398.289 -5.48899 -0.0110582 0
M  V30 4193 H 398.55 -4.24758 -1.22608 0
M  V30 4194 N 397.609 -0.515225 -1.4894 0
M  V30 4195 C 398.837 0.0206034 -2.0689 0
M  V30 4196 C 399.252 1.29514 -1.37374 0
M  V30 4197 O 398.609 1.76698 -0.456529 0
M  V30 4198 C 398.66 0.26351 -3.60538 0
M  V30 4199 O 398.381 -0.960517 -4.27441 0
M  V30 4200 C 399.882 0.841383 -4.35242 0
M  V30 4201 H 397.102 -0.0268608 -0.670462 0
M  V30 4202 H 399.646 -0.716651 -1.91532 0
M  V30 4203 H 397.801 0.950777 -3.75552 0
M  V30 4204 H 398.215 -0.73212 -5.19365 0
M  V30 4205 H 399.689 0.96085 -5.43573 0
M  V30 4206 H 400.166 1.8427 -3.98674 0
M  V30 4207 H 400.772 0.191143 -4.2487 0
M  V30 4208 N 399.087 1.5561 -0.249682 0
M  V30 4209 C 400.334 1.99011 0.374287 0
M  V30 4210 C 400.662 1.13785 1.57744 0
M  V30 4211 O 399.917 0.189326 1.94782 0
M  V30 4212 C 400.216 3.4775 0.824887 0
M  V30 4213 C 399.882 4.50086 -0.270819 0
M  V30 4214 C 398.544 4.77791 -0.571746 0
M  V30 4215 C 400.896 5.11312 -1.01041 0
M  V30 4216 C 398.224 5.63997 -1.61629 0
M  V30 4217 C 400.576 5.98651 -2.0445 0
M  V30 4218 C 399.24 6.24688 -2.35204 0
M  V30 4219 H 398.51 0.728233 0.136961 0
M  V30 4220 H 401.157 1.88122 -0.358087 0
M  V30 4221 H 399.462 3.55985 1.63651 0
M  V30 4222 H 401.159 3.78721 1.31799 0
M  V30 4223 H 397.749 4.28592 -0.026136 0
M  V30 4224 H 401.933 4.89953 -0.791177 0
M  V30 4225 H 397.189 5.82425 -1.85988 0
M  V30 4226 H 401.363 6.45135 -2.62248 0
M  V30 4227 H 398.99 6.91281 -3.16282 0
M  V30 4228 N 400.565 -0.0233959 1.57583 0
M  V30 4229 C 401.513 -1.04063 2.08023 0
M  V30 4230 C 402.507 -1.37084 0.995204 0
M  V30 4231 O 403.713 -1.35923 1.18004 0
M  V30 4232 H 400.088 -0.353144 0.663922 0
M  V30 4233 H 402.059 -0.589453 2.9252 0
M  V30 4234 C 400.808 -2.33123 2.57971 0
M  V30 4235 H 400.131 -2.08577 3.4108 0
M  V30 4236 H 401.571 -3.02632 2.96967 0
M  V30 4237 C 400.03 -3.02483 1.48342 0
M  V30 4238 O 400.56 -3.92541 0.852898 0
M  V30 4239 N 398.766 -2.63909 1.21658 0
M  V30 4240 H 398.313 -1.90758 1.73116 0
M  V30 4241 H 398.271 -3.10633 0.485218 0
M  V30 4242 N 402.043 -1.548 -0.295768 0
M  V30 4243 C 403.268 -1.78653 -1.05346 0
M  V30 4244 C 403.693 -0.546894 -1.79974 0
M  V30 4245 O 403.051 0.502763 -1.7419 0
M  V30 4246 C 403.099 -2.99679 -2.00561 0
M  V30 4247 O 402.203 -2.7317 -3.08953 0
M  V30 4248 H 401.544 -0.59116 -0.302367 0
M  V30 4249 H 404.074 -2.01895 -0.331598 0
M  V30 4250 H 404.084 -3.27793 -2.42932 0
M  V30 4251 H 402.759 -3.89562 -1.4565 0
M  V30 4252 H 401.336 -2.56089 -2.71059 0
M  V30 4253 N 403.521 0.559213 -1.47345 0
M  V30 4254 C 404.468 1.66645 -1.59682 0
M  V30 4255 C 405.438 1.60168 -0.43994 0
M  V30 4256 O 406.623 1.79031 -0.659736 0
M  V30 4257 C 403.763 3.04969 -1.61518 0
M  V30 4258 C 402.876 3.21897 -2.88108 0
M  V30 4259 C 402.011 4.50608 -2.81294 0
M  V30 4260 C 401.05 4.60961 -4.02717 0
M  V30 4261 N 400.187 5.81024 -3.94151 0
M  V30 4262 H 405.027 1.55439 -2.54249 0
M  V30 4263 H 402.564 0.757219 -1.26113 0
M  V30 4264 H 404.522 3.85064 -1.60566 0
M  V30 4265 H 403.152 3.15015 -0.704645 0
M  V30 4266 H 402.204 2.35248 -2.98936 0
M  V30 4267 H 403.516 3.25412 -3.78032 0
M  V30 4268 H 402.67 5.3896 -2.7858 0
M  V30 4269 H 401.409 4.49568 -1.89049 0
M  V30 4270 H 400.414 3.71021 -4.05738 0
M  V30 4271 H 401.639 4.63761 -4.96087 0
M  V30 4272 H 399.585 5.80938 -3.04708 0
M  V30 4273 H 399.502 5.85909 -4.77752 0
M  V30 4274 H 400.77 6.71744 -3.9545 0
M  V30 4275 N 404.999 1.35443 0.805782 0
M  V30 4276 C 406.227 1.31878 1.59423 0
M  V30 4277 C 406.642 -0.103562 1.88516 0
M  V30 4278 O 405.999 -1.05575 1.48863 0
M  V30 4279 C 406.05 2.12426 2.92502 0
M  V30 4280 O 405.771 3.49115 2.6467 0
M  V30 4281 C 407.272 2.16455 3.86862 0
M  V30 4282 H 404.492 0.453002 0.495005 0
M  V30 4283 H 407.036 1.78309 1.00131 0
M  V30 4284 H 405.191 1.69593 3.48306 0
M  V30 4285 H 405.605 3.90957 3.49647 0
M  V30 4286 H 407.079 2.77204 4.77349 0
M  V30 4287 H 407.556 1.16352 4.23508 0
M  V30 4288 H 408.162 2.59453 3.36993 0
M  V30 4289 N 406.477 -1.02803 1.19454 0
M  V30 4290 C 407.723 -1.76478 0.999171 0
M  V30 4291 C 408.056 -1.88456 -0.468828 0
M  V30 4292 O 407.331 -1.40198 -1.34814 0
M  V30 4293 C 407.614 -3.19044 1.66981 0
M  V30 4294 C 407.467 -3.14932 3.21151 0
M  V30 4295 C 408.786 -4.17456 1.39349 0
M  V30 4296 H 405.905 -0.640614 0.364393 0
M  V30 4297 H 408.547 -1.20005 1.47305 0
M  V30 4298 H 406.697 -3.67263 1.2669 0
M  V30 4299 H 408.369 -2.74605 3.70661 0
M  V30 4300 H 406.612 -2.52625 3.52652 0
M  V30 4301 H 407.283 -4.1566 3.63223 0
M  V30 4302 H 409.759 -3.77842 1.74283 0
M  V30 4303 H 408.635 -5.154 1.88823 0
M  V30 4304 H 408.896 -4.40949 0.318813 0
M  V30 4305 N 407.956 -0.998596 -1.21925 0
M  V30 4306 C 409.186 -0.695276 -1.94549 0
M  V30 4307 C 409.594 0.745079 -1.73911 0
M  V30 4308 O 408.937 1.51507 -1.03881 0
M  V30 4309 C 408.999 -0.928485 -3.47303 0
M  V30 4310 C 408.663 -2.35443 -3.91683 0
M  V30 4311 C 409.66 -3.33428 -3.98901 0
M  V30 4312 C 407.345 -2.69038 -4.24174 0
M  V30 4313 C 409.339 -4.63079 -4.37992 0
M  V30 4314 C 407.026 -3.98906 -4.62944 0
M  V30 4315 C 408.024 -4.95738 -4.69822 0
M  V30 4316 O 407.712 -6.23285 -5.07711 0
M  V30 4317 H 407.444 -0.255902 -0.625692 0
M  V30 4318 H 409.998 -1.33767 -1.5587 0
M  V30 4319 H 408.228 -0.228917 -3.86022 0
M  V30 4320 H 409.917 -0.619539 -4.01144 0
M  V30 4321 H 410.683 -3.08807 -3.73983 0
M  V30 4322 H 406.562 -1.94367 -4.18022 0
M  V30 4323 H 410.106 -5.38658 -4.43275 0
M  V30 4324 H 406.003 -4.23314 -4.87314 0
M  V30 4325 H 406.771 -6.27306 -5.25766 0
M  V30 4326 N 409.434 1.37368 -0.772513 0
M  V30 4327 C 410.397 2.28601 -0.165541 0
M  V30 4328 C 411.397 1.48062 0.627238 0
M  V30 4329 O 412.587 1.68268 0.450715 0
M  V30 4330 C 409.719 3.32023 0.772897 0
M  V30 4331 H 410.912 2.83787 -0.969787 0
M  V30 4332 H 408.465 1.46647 -0.540775 0
M  V30 4333 H 409.2 2.81962 1.60212 0
M  V30 4334 H 408.985 3.91555 0.206585 0
M  V30 4335 H 410.475 4.00197 1.19298 0
M  V30 4336 N 410.912 0.523116 1.48665 0
M  V30 4337 C 411.842 -0.23231 2.32342 0
M  V30 4338 C 412.823 -0.941637 1.41659 0
M  V30 4339 O 414.008 -0.928751 1.70552 0
M  V30 4340 C 411.138 -1.28387 3.22698 0
M  V30 4341 C 410.092 -0.693098 4.22351 0
M  V30 4342 C 409.418 -1.8468 5.01794 0
M  V30 4343 C 410.718 0.33063 5.21252 0
M  V30 4344 H 412.412 0.466192 2.95748 0
M  V30 4345 H 409.958 0.225643 1.42221 0
M  V30 4346 H 411.911 -1.82024 3.80059 0
M  V30 4347 H 410.635 -2.01186 2.57278 0
M  V30 4348 H 409.294 -0.178299 3.66166 0
M  V30 4349 H 408.942 -2.56301 4.32804 0
M  V30 4350 H 408.642 -1.45747 5.69238 0
M  V30 4351 H 410.166 -2.38709 5.62006 0
M  V30 4352 H 411.58 -0.118407 5.73178 0
M  V30 4353 H 409.977 0.636974 5.9671 0
M  V30 4354 H 411.047 1.23883 4.68808 0
M  V30 4355 N 412.39 -1.55475 0.257931 0
M  V30 4356 C 413.801 -1.8511 -0.243135 0
M  V30 4357 C 414.152 -1.17986 -1.5676 0
M  V30 4358 O 413.277 -0.462102 -2.11409 0
M  V30 4359 C 413.872 -3.35826 -0.447929 0
M  V30 4360 C 412.431 -3.65647 -0.893245 0
M  V30 4361 C 411.578 -2.7729 0.0232965 0
M  V30 4362 H 414.529 -1.51261 0.480199 0
M  V30 4363 H 414.55 -3.58002 -1.28898 0
M  V30 4364 H 414.062 -3.84652 0.516196 0
M  V30 4365 H 412.163 -3.22308 -1.86945 0
M  V30 4366 H 412.276 -4.73312 -0.742469 0
M  V30 4367 H 410.64 -2.49942 -0.490021 0
M  V30 4368 H 411.423 -3.28926 0.982994 0
M  V30 4369 N 413.868 0.0150385 -1.57593 0
M  V30 4370 C 415.096 0.714395 -1.94175 0
M  V30 4371 C 415.511 1.68135 -0.858841 0
M  V30 4372 O 414.868 1.81766 0.163567 0
M  V30 4373 C 414.919 1.45933 -3.30735 0
M  V30 4374 O 414.64 0.531167 -4.34868 0
M  V30 4375 C 416.141 2.25456 -3.81686 0
M  V30 4376 H 413.361 0.199923 -0.640525 0
M  V30 4377 H 415.905 -0.0316096 -2.04476 0
M  V30 4378 H 414.06 2.15709 -3.21789 0
M  V30 4379 H 414.474 1.05509 -5.13778 0
M  V30 4380 H 415.948 2.731 -4.79709 0
M  V30 4381 H 416.425 3.07485 -3.13607 0
M  V30 4382 H 417.031 1.60727 -3.9376 0
M  V30 4383 N 415.346 1.54954 0.287554 0
M  V30 4384 C 416.595 1.74081 1.01877 0
M  V30 4385 C 416.908 0.541135 1.87966 0
M  V30 4386 O 418.114 0.614491 2.64455 0
M  V30 4387 C 416.57 3.08042 1.86113 0
M  V30 4388 C 416.178 4.35531 1.04961 0
M  V30 4389 C 417.922 3.36523 2.58752 0
M  V30 4390 C 415.829 5.60538 1.88551 0
M  V30 4391 H 414.759 0.64884 0.384087 0
M  V30 4392 H 417.41 1.81426 0.275101 0
M  V30 4393 H 415.792 2.94696 2.64519 0
M  V30 4394 H 416.966 4.59751 0.31074 0
M  V30 4395 H 415.281 4.14085 0.43843 0
M  V30 4396 H 417.878 4.27122 3.21668 0
M  V30 4397 H 418.221 2.56 3.28283 0
M  V30 4398 H 418.754 3.50901 1.87386 0
M  V30 4399 H 415.493 6.43767 1.23466 0
M  V30 4400 H 415.013 5.40483 2.60074 0
M  V30 4401 H 416.692 5.98297 2.46273 0
M  V30 4402 N 416.824 -0.551391 1.4764 0
M  V30 4403 C 417.787 -1.64007 1.60107 0
M  V30 4404 C 418.787 -1.53601 0.47576 0
M  V30 4405 O 419.977 -1.57655 0.740988 0
M  V30 4406 C 417.109 -3.03569 1.55108 0
M  V30 4407 H 418.302 -1.543 2.57161 0
M  V30 4408 H 415.855 -0.771776 1.35917 0
M  V30 4409 H 416.59 -3.18804 0.594519 0
M  V30 4410 H 416.375 -3.12532 2.36783 0
M  V30 4411 H 417.865 -3.82762 1.66982 0
M  V30 4412 N 418.302 -1.35869 -0.798587 0
M  V30 4413 C 419.549 -1.29588 -1.55606 0
M  V30 4414 C 419.877 0.127456 -1.94082 0
M  V30 4415 O 419.132 1.09461 -1.62225 0
M  V30 4416 C 419.431 -2.1556 -2.85077 0
M  V30 4417 C 419.097 -3.6424 -2.65781 0
M  V30 4418 C 417.759 -4.04766 -2.60227 0
M  V30 4419 C 420.111 -4.58547 -2.47758 0
M  V30 4420 C 417.439 -5.37753 -2.34603 0
M  V30 4421 C 419.791 -5.91742 -2.23662 0
M  V30 4422 C 418.455 -6.31402 -2.16534 0
M  V30 4423 H 417.725 -0.474197 -0.569402 0
M  V30 4424 H 420.372 -1.67839 -0.922086 0
M  V30 4425 H 418.677 -1.70216 -3.52893 0
M  V30 4426 H 420.374 -2.08031 -3.42818 0
M  V30 4427 H 416.964 -3.32086 -2.70956 0
M  V30 4428 H 421.148 -4.28117 -2.51056 0
M  V30 4429 H 416.404 -5.67474 -2.2756 0
M  V30 4430 H 420.578 -6.6439 -2.08708 0
M  V30 4431 H 418.205 -7.34381 -1.96441 0
M  V30 4432 N 419.78 1.02168 -1.19998 0
M  V30 4433 C 420.743 2.08765 -0.94604 0
M  V30 4434 C 421.743 1.60618 0.0763846 0
M  V30 4435 O 422.933 1.73472 -0.159135 0
M  V30 4436 C 420.065 3.38262 -0.423255 0
M  V30 4437 H 421.258 2.32726 -1.89153 0
M  V30 4438 H 418.811 1.1889 -1.01464 0
M  V30 4439 H 419.546 3.19974 0.527938 0
M  V30 4440 H 419.331 3.74532 -1.16053 0
M  V30 4441 H 420.821 4.16759 -0.264911 0
M  V30 4442 N 421.258 1.00505 1.21394 0
M  V30 4443 C 422.505 0.687774 1.90462 0
M  V30 4444 C 422.833 -0.78147 1.7811 0
M  V30 4445 O 422.088 -1.58208 1.1519 0
M  V30 4446 C 422.387 1.0546 3.41486 0
M  V30 4447 C 422.053 2.51812 3.74034 0
M  V30 4448 C 420.715 2.91804 3.82628 0
M  V30 4449 C 423.067 3.46614 3.8924 0
M  V30 4450 C 420.395 4.2556 4.03876 0
M  V30 4451 C 422.747 4.80044 4.11995 0
M  V30 4452 C 421.411 5.19759 4.18816 0
M  V30 4453 H 420.681 0.251674 0.696951 0
M  V30 4454 H 423.328 1.26349 1.43903 0
M  V30 4455 H 421.633 0.397133 3.89782 0
M  V30 4456 H 423.33 0.786976 3.93202 0
M  V30 4457 H 419.92 2.1982 3.67936 0
M  V30 4458 H 424.104 3.16883 3.81967 0
M  V30 4459 H 419.36 4.55901 4.07387 0
M  V30 4460 H 423.534 5.53439 4.22704 0
M  V30 4461 H 421.161 6.23418 4.35033 0
M  V30 4462 N 422.737 -1.36956 0.779787 0
M  V30 4463 C 423.983 -1.99787 0.348281 0
M  V30 4464 C 424.316 -1.61756 -1.07465 0
M  V30 4465 O 423.591 -0.867639 -1.74075 0
M  V30 4466 C 423.874 -3.56597 0.50104 0
M  V30 4467 C 423.727 -4.04513 1.96697 0
M  V30 4468 C 425.046 -4.40008 -0.0898097 0
M  V30 4469 H 422.165 -0.725796 0.128022 0
M  V30 4470 H 424.807 -1.62514 0.984331 0
M  V30 4471 H 422.957 -3.88479 -0.0404347 0
M  V30 4472 H 424.629 -3.83161 2.56876 0
M  V30 4473 H 422.872 -3.56408 2.47297 0
M  V30 4474 H 423.543 -5.1352 2.02486 0
M  V30 4475 H 426.019 -4.14431 0.372293 0
M  V30 4476 H 424.895 -5.4888 0.0471605 0
M  V30 4477 H 425.156 -4.26035 -1.18096 0
M  V30 4478 N 424.215 -0.530993 -1.48385 0
M  V30 4479 C 425.455 0.000718982 -2.044 0
M  V30 4480 C 425.819 1.31485 -1.39913 0
M  V30 4481 O 427.02 1.93265 -1.86821 0
M  V30 4482 C 425.291 0.119177 -3.57201 0
M  V30 4483 S 426.85 0.600806 -4.34667 0
M  V30 4484 H 423.668 -0.0125473 -0.710889 0
M  V30 4485 H 426.27 -0.711783 -1.82082 0
M  V30 4486 H 424.974 -0.842061 -4.01668 0
M  V30 4487 H 424.505 0.856026 -3.83974 0
M  V30 4488 H 426.52 1.86514 -4.59812 0
M  V30 4489 N 425.693 1.55336 -0.266172 0
M  V30 4490 C 426.643 2.18848 0.639497 0
M  V30 4491 C 427.627 1.1503 1.12503 0
M  V30 4492 O 428.819 1.40875 1.0716 0
M  V30 4493 C 425.948 2.90626 1.82733 0
M  V30 4494 C 425.034 4.01723 1.35939 0
M  V30 4495 N 425.425 5.02145 0.606988 0
M  V30 4496 C 423.723 4.1463 1.6431 0
M  V30 4497 C 424.424 5.80572 0.362138 0
M  V30 4498 N 423.4 5.35551 0.931971 0
M  V30 4499 H 427.202 2.93845 0.0567057 0
M  V30 4500 H 424.716 1.62252 -0.0693312 0
M  V30 4501 H 426.713 3.34569 2.48735 0
M  V30 4502 H 425.373 2.17137 2.41416 0
M  V30 4503 H 426.384 5.17271 0.255198 0
M  V30 4504 H 423.061 3.52326 2.23993 0
M  V30 4505 H 424.451 6.71472 -0.239848 0
M  V30 4506 N 427.171 -0.0066808 1.57599 0
M  V30 4507 C 428.582 -0.550379 1.78403 0
M  V30 4508 C 428.933 -1.74339 0.900014 0
M  V30 4509 O 428.058 -2.16166 0.100713 0
M  V30 4510 C 428.653 -1.00523 3.23544 0
M  V30 4511 C 427.212 -1.49428 3.45468 0
M  V30 4512 C 426.359 -0.442444 2.73748 0
M  V30 4513 H 429.31 0.219508 1.57175 0
M  V30 4514 H 429.331 -1.87157 3.31289 0
M  V30 4515 H 428.843 -0.136735 3.87859 0
M  V30 4516 H 426.944 -2.3839 2.86358 0
M  V30 4517 H 427.057 -1.52635 4.54136 0
M  V30 4518 H 425.421 -0.902578 2.38171 0
M  V30 4519 H 426.204 0.416973 3.40758 0
M  V30 4520 N 428.649 -1.55105 -0.279332 0
M  V30 4521 C 429.874 -1.7976 -1.03446 0
M  V30 4522 C 430.299 -0.565952 -1.79384 0
M  V30 4523 O 429.657 0.484259 -1.74713 0
M  V30 4524 C 429.705 -3.0179 -1.97371 0
M  V30 4525 O 428.809 -2.76432 -3.06038 0
M  V30 4526 H 428.15 -0.594334 -0.29608 0
M  V30 4527 H 430.68 -2.02235 -0.310165 0
M  V30 4528 H 430.69 -3.30351 -2.39441 0
M  V30 4529 H 429.365 -3.91085 -1.4151 0
M  V30 4530 H 427.942 -2.58949 -2.68328 0
M  V30 4531 N 430.127 0.543554 -1.4793 0
M  V30 4532 C 431.373 1.30201 -1.55485 0
M  V30 4533 C 431.706 1.92925 -0.222201 0
M  V30 4534 O 430.981 1.78586 0.77053 0
M  V30 4535 C 431.264 2.40174 -2.68307 0
M  V30 4536 C 431.117 1.8223 -4.11233 0
M  V30 4537 C 432.436 3.42024 -2.76961 0
M  V30 4538 H 429.555 0.472036 -0.565996 0
M  V30 4539 H 432.197 0.606914 -1.80046 0
M  V30 4540 H 430.347 2.99463 -2.47495 0
M  V30 4541 H 432.019 1.27096 -4.43446 0
M  V30 4542 H 430.262 1.12832 -4.18869 0
M  V30 4543 H 430.933 2.61793 -4.85972 0
M  V30 4544 H 433.409 2.92672 -2.95774 0
M  V30 4545 H 432.285 4.16383 -3.57654 0
M  V30 4546 H 432.546 4.0173 -1.84568 0
M  V30 4547 N 431.605 1.3629 0.791371 0
M  V30 4548 C 432.535 1.33137 1.91825 0
M  V30 4549 C 433.516 0.203168 1.68882 0
M  V30 4550 O 434.701 0.400509 1.90025 0
M  V30 4551 C 431.831 1.11793 3.28816 0
M  V30 4552 C 430.785 2.21417 3.66277 0
M  V30 4553 C 430.111 1.85218 5.01596 0
M  V30 4554 C 431.411 3.63489 3.75064 0
M  V30 4555 H 433.105 2.2743 1.9472 0
M  V30 4556 H 430.651 1.09479 0.935437 0
M  V30 4557 H 432.604 1.08222 4.07266 0
M  V30 4558 H 431.328 0.139501 3.26302 0
M  V30 4559 H 429.987 2.2411 2.90121 0
M  V30 4560 H 429.635 0.859544 4.95602 0
M  V30 4561 H 429.335 2.58611 5.27631 0
M  V30 4562 H 430.859 1.832 5.82469 0
M  V30 4563 H 432.273 3.63034 4.43711 0
M  V30 4564 H 430.67 4.35771 4.12582 0
M  V30 4565 H 431.74 3.98536 2.76219 0
M  V30 4566 N 433.083 -1.0153 1.20538 0
M  V30 4567 C 434.494 -1.56598 1.01657 0
M  V30 4568 C 434.845 -1.91505 -0.426668 0
M  V30 4569 O 433.97 -1.72375 -1.30827 0
M  V30 4570 C 434.565 -2.84542 1.83905 0
M  V30 4571 C 433.124 -3.36133 1.69386 0
M  V30 4572 C 432.271 -2.09427 1.81757 0
M  V30 4573 H 435.222 -0.838974 1.34711 0
M  V30 4574 H 435.243 -3.56004 1.34319 0
M  V30 4575 H 434.755 -2.59105 2.8894 0
M  V30 4576 H 432.856 -3.66528 0.669933 0
M  V30 4577 H 432.969 -4.08248 2.50739 0
M  V30 4578 H 431.333 -2.21941 1.24957 0
M  V30 4579 H 432.116 -1.86414 2.88279 0
M  V30 4580 N 434.561 -1.01147 -1.20859 0
M  V30 4581 C 435.81 -0.693214 -1.89413 0
M  V30 4582 C 436.123 0.779969 -1.79376 0
M  V30 4583 O 437.329 1.21057 -2.43017 0
M  V30 4584 C 435.785 -1.18949 -3.39675 0
M  V30 4585 C 435.393 -2.68921 -3.58309 0
M  V30 4586 C 437.137 -0.94642 -4.13815 0
M  V30 4587 C 435.044 -3.12056 -5.0237 0
M  V30 4588 H 433.974 -0.255595 -0.709357 0
M  V30 4589 H 436.625 -1.22349 -1.36759 0
M  V30 4590 H 435.007 -0.587228 -3.91622 0
M  V30 4591 H 436.181 -3.34652 -3.16772 0
M  V30 4592 H 434.496 -2.91314 -2.97532 0
M  V30 4593 H 437.093 -1.24417 -5.20023 0
M  V30 4594 H 437.436 0.117219 -4.16135 0
M  V30 4595 H 437.969 -1.5118 -3.67953 0
M  V30 4596 H 434.708 -4.17674 -5.05202 0
M  V30 4597 H 434.228 -2.51041 -5.44737 0
M  V30 4598 H 435.907 -3.04403 -5.70918 0
M  V30 4599 N 436.039 1.36541 -0.78704 0
M  V30 4600 C 437.269 2.03266 -0.369662 0
M  V30 4601 C 437.677 1.59481 1.01796 0
M  V30 4602 O 437.02 0.778612 1.66383 0
M  V30 4603 C 437.082 3.57779 -0.351371 0
M  V30 4604 C 436.746 4.24756 -1.68617 0
M  V30 4605 C 437.743 4.47811 -2.64124 0
M  V30 4606 C 435.428 4.62277 -1.96481 0
M  V30 4607 C 437.422 5.07464 -3.85693 0
M  V30 4608 C 435.109 5.21649 -3.18317 0
M  V30 4609 C 436.107 5.44182 -4.12741 0
M  V30 4610 O 435.795 6.02307 -5.32429 0
M  V30 4611 H 435.527 0.658977 -0.150751 0
M  V30 4612 H 438.081 1.75548 -1.0664 0
M  V30 4613 H 436.311 3.84606 0.401847 0
M  V30 4614 H 438 4.05879 0.0410147 0
M  V30 4615 H 438.766 4.19221 -2.43883 0
M  V30 4616 H 434.645 4.44065 -1.23805 0
M  V30 4617 H 438.189 5.24968 -4.59407 0
M  V30 4618 H 434.086 5.49664 -3.38437 0
M  V30 4619 H 434.854 6.20775 -5.33461 0
M  V30 4620 N 437.518 0.538854 1.48102 0
M  V30 4621 C 438.743 0.0102694 2.07397 0
M  V30 4622 C 439.168 -1.26562 1.39153 0
M  V30 4623 O 438.526 -1.75357 0.460387 0
M  V30 4624 C 438.574 -0.187602 3.60112 0
M  V30 4625 O 437.678 -1.25432 3.92862 0
M  V30 4626 H 437.019 0.0430975 0.6626 0
M  V30 4627 H 439.549 0.749301 1.90385 0
M  V30 4628 H 439.559 -0.407517 4.0596 0
M  V30 4629 H 438.234 0.744386 4.09184 0
M  V30 4630 H 436.811 -1.01636 3.58782 0
M  V30 4631 N 438.996 -1.55193 0.274407 0
M  V30 4632 C 439.906 -2.26164 -0.623473 0
M  V30 4633 C 440.922 -1.28729 -1.17068 0
M  V30 4634 O 442.098 -1.61663 -1.20112 0
M  V30 4635 C 439.163 -2.96833 -1.7914 0
M  V30 4636 C 438.224 -4.09745 -1.28093 0
M  V30 4637 C 437.457 -4.77034 -2.3932 0
M  V30 4638 O 437.68 -4.4353 -3.5866 0
M  V30 4639 O 436.614 -5.64996 -2.07516 0
M  V30 4640 H 440.44 -3.03661 -0.0485661 0
M  V30 4641 H 438.025 -1.49341 0.0418382 0
M  V30 4642 H 439.907 -3.41248 -2.4724 0
M  V30 4643 H 438.582 -2.22253 -2.35341 0
M  V30 4644 H 437.489 -3.69787 -0.566416 0
M  V30 4645 H 438.822 -4.86224 -0.764683 0
M  V30 4646 N 440.474 -0.00167713 -1.576 0
M  V30 4647 C 441.404 0.988091 -2.11563 0
M  V30 4648 C 442.385 1.35736 -1.02517 0
M  V30 4649 O 443.57 1.44082 -1.30208 0
M  V30 4650 C 440.7 2.27941 -2.62031 0
M  V30 4651 C 439.654 2.0517 -3.75619 0
M  V30 4652 C 438.98 3.4033 -4.12407 0
M  V30 4653 C 440.28 1.41294 -5.02825 0
M  V30 4654 H 441.974 0.538771 -2.94513 0
M  V30 4655 H 439.52 0.257712 -1.41675 0
M  V30 4656 H 441.473 2.97539 -2.9841 0
M  V30 4657 H 440.197 2.74989 -1.76205 0
M  V30 4658 H 438.856 1.37998 -3.39635 0
M  V30 4659 H 438.504 3.85085 -3.23603 0
M  V30 4660 H 438.204 3.25909 -4.88935 0
M  V30 4661 H 439.728 4.1124 -4.51347 0
M  V30 4662 H 441.142 2.00851 -5.36965 0
M  V30 4663 H 439.539 1.37356 -5.84169 0
M  V30 4664 H 440.609 0.382362 -4.8339 0
M  V30 4665 N 441.952 1.55251 0.271103 0
M  V30 4666 C 442.899 1.88261 1.33516 0
M  V30 4667 C 443.869 0.734296 1.48988 0
M  V30 4668 O 445.054 0.985741 1.63364 0
M  V30 4669 C 442.194 2.16168 2.69008 0
M  V30 4670 C 441.307 3.43678 2.61743 0
M  V30 4671 C 440.442 3.61276 3.89427 0
M  V30 4672 C 439.481 4.82472 3.7668 0
M  V30 4673 N 438.618 4.96717 4.96202 0
M  V30 4674 H 443.458 2.79015 1.04665 0
M  V30 4675 H 440.995 1.38137 0.505618 0
M  V30 4676 H 442.953 2.30349 3.47844 0
M  V30 4677 H 441.583 1.28646 2.96057 0
M  V30 4678 H 440.635 3.37959 1.74607 0
M  V30 4679 H 441.947 4.3265 2.48224 0
M  V30 4680 H 441.101 3.75284 4.76704 0
M  V30 4681 H 439.84 2.70492 4.05814 0
M  V30 4682 H 438.845 4.68465 2.87786 0
M  V30 4683 H 440.07 5.74692 3.61809 0
M  V30 4684 H 438.016 4.08865 5.12997 0
M  V30 4685 H 437.933 5.79738 4.85222 0
M  V30 4686 H 439.201 5.15113 5.85046 0
M  V30 4687 N 443.43 -0.535701 1.48216 0
M  V30 4688 C 444.707 -1.29683 1.46429 0
M  V30 4689 C 445.087 -2.10391 0.172852 0
M  V30 4690 O 444.435 -2.12282 -0.845488 0
M  V30 4691 C 444.645 -2.18313 2.72287 0
M  V30 4692 C 445.993 -2.78639 3.20383 0
M  V30 4693 O 447.017 -2.28604 2.73164 0
M  V30 4694 O 445.876 -3.69636 4.02531 0
M  V30 4695 H 442.97 -0.585026 0.584529 0
M  V30 4696 H 445.516 -0.552827 1.60443 0
M  V30 4697 H 444.288 -1.58421 3.57797 0
M  V30 4698 H 443.911 -2.99971 2.60966 0
M  V30 4699 N 444.908 -1.36708 -0.784132 0
M  V30 4700 C 446.324 -1.17237 -1.08294 0
M  V30 4701 C 446.524 -5.93947e-05 -2.015 0
M  V30 4702 O 445.58 0.663686 -2.43622 0
M  V30 4703 C 446.893 -2.48557 -1.69233 0
M  V30 4704 C 448.441 -2.54968 -1.8155 0
M  V30 4705 C 448.916 -3.86388 -2.45904 0
M  V30 4706 N 450.407 -3.87762 -2.53367 0
M  V30 4707 C 451.142 -4.86191 -3.03983 0
M  V30 4708 N 450.638 -5.95015 -3.54866 0
M  V30 4709 N 452.431 -4.73606 -3.02743 0
M  V30 4710 H 444.582 -2.11758 -0.16501 0
M  V30 4711 H 446.845 -0.93822 -0.135822 0
M  V30 4712 H 446.551 -3.34638 -1.08215 0
M  V30 4713 H 446.425 -2.64748 -2.68679 0
M  V30 4714 H 448.812 -1.69302 -2.41704 0
M  V30 4715 H 448.893 -2.42672 -0.80895 0
M  V30 4716 H 448.537 -4.72462 -1.86392 0
M  V30 4717 H 448.467 -3.95982 -3.4714 0
M  V30 4718 H 450.958 -3.09145 -2.17343 0
M  V30 4719 H 451.271 -6.66086 -3.91854 0
M  V30 4720 H 449.616 -5.98676 -3.53003 0
M  V30 4721 H 452.807 -3.87717 -2.62284 0
M  V30 4722 H 452.98 -5.50473 -3.41881 0
M  V30 4723 N 446.386 1.0089 -1.21074 0
M  V30 4724 C 447.611 1.78727 -1.05221 0
M  V30 4725 C 448.036 1.83932 0.393795 0
M  V30 4726 O 447.394 1.28004 1.28393 0
M  V30 4727 C 447.442 3.20665 -1.64944 0
M  V30 4728 O 446.546 4.02632 -0.892273 0
M  V30 4729 H 445.887 0.550973 -0.370574 0
M  V30 4730 H 448.417 1.26847 -1.60534 0
M  V30 4731 H 448.427 3.71352 -1.69002 0
M  V30 4732 H 447.102 3.16191 -2.70177 0
M  V30 4733 H 445.679 3.61207 -0.926492 0
M  V30 4734 N 447.864 1.01787 1.20321 0
M  V30 4735 C 448.796 0.547357 2.22568 0
M  V30 4736 C 449.809 -0.370922 1.58518 0
M  V30 4737 O 450.998 -0.169067 1.77698 0
M  V30 4738 C 448.098 -0.223031 3.38165 0
M  V30 4739 C 447.271 0.697472 4.31803 0
M  V30 4740 C 446.33 -0.025562 5.26194 0
M  V30 4741 O 445.356 0.597367 5.66057 0
M  V30 4742 N 446.558 -1.29999 5.65757 0
M  V30 4743 H 449.323 1.42668 2.63564 0
M  V30 4744 H 446.884 0.895552 1.34876 0
M  V30 4745 H 448.876 -0.716002 3.98316 0
M  V30 4746 H 447.446 -1.00366 2.9605 0
M  V30 4747 H 446.666 1.37073 3.69601 0
M  V30 4748 H 447.954 1.32347 4.91286 0
M  V30 4749 H 447.352 -1.827 5.35385 0
M  V30 4750 H 445.909 -1.73766 6.28211 0
M  V30 4751 N 449.342 -1.36122 0.79427 0
M  V30 4752 C 450.289 -2.29982 0.194101 0
M  V30 4753 C 451.259 -1.52214 -0.664833 0
M  V30 4754 O 452.444 -1.80702 -0.612498 0
M  V30 4755 C 449.584 -3.38706 -0.661244 0
M  V30 4756 C 448.697 -4.31456 0.216766 0
M  V30 4757 C 447.832 -5.27265 -0.645411 0
M  V30 4758 C 446.871 -6.11653 0.233756 0
M  V30 4759 N 446.008 -6.99636 -0.587682 0
M  V30 4760 H 450.848 -2.80722 0.999965 0
M  V30 4761 H 448.385 -1.38172 0.504677 0
M  V30 4762 H 450.343 -4.00394 -1.17219 0
M  V30 4763 H 448.973 -2.89274 -1.43249 0
M  V30 4764 H 448.025 -3.7088 0.845724 0
M  V30 4765 H 449.337 -4.90724 0.893973 0
M  V30 4766 H 448.491 -5.94266 -1.22198 0
M  V30 4767 H 447.23 -4.68463 -1.35623 0
M  V30 4768 H 446.235 -5.4361 0.82269 0
M  V30 4769 H 447.46 -6.72531 0.942247 0
M  V30 4770 H 445.406 -6.43337 -1.2827 0
M  V30 4771 H 445.323 -7.55993 0.0317402 0
M  V30 4772 H 446.591 -7.71001 -1.14792 0
M  V30 4773 N 450.82 -0.546701 -1.47814 0
M  V30 4774 C 451.767 0.206854 -2.29871 0
M  V30 4775 C 452.737 0.918235 -1.38411 0
M  V30 4776 O 453.922 0.915991 -1.67375 0
M  V30 4777 C 451.062 1.23746 -3.22151 0
M  V30 4778 C 450.175 0.533216 -4.28697 0
M  V30 4779 C 449.31 1.5482 -5.08138 0
M  V30 4780 C 448.349 0.828347 -6.06469 0
M  V30 4781 N 447.486 1.78966 -6.78908 0
M  V30 4782 H 452.326 -0.499037 -2.93792 0
M  V30 4783 H 449.863 -0.25793 -1.44821 0
M  V30 4784 H 451.821 1.84746 -3.74065 0
M  V30 4785 H 450.451 1.91151 -2.60117 0
M  V30 4786 H 449.503 -0.191089 -3.7992 0
M  V30 4787 H 450.815 -0.0311987 -4.9879 0
M  V30 4788 H 449.969 2.23202 -5.6415 0
M  V30 4789 H 448.708 2.14652 -4.37922 0
M  V30 4790 H 447.713 0.130539 -5.49645 0
M  V30 4791 H 448.938 0.235907 -6.7869 0
M  V30 4792 H 446.884 2.37675 -6.1143 0
M  V30 4793 H 446.801 1.27712 -7.45135 0
M  V30 4794 H 448.069 2.46496 -7.395 0
M  V30 4795 N 452.299 1.55045 -0.282633 0
M  V30 4796 C 453.232 2.18951 0.64311 0
M  V30 4797 C 454.21 1.15287 1.14664 0
M  V30 4798 O 455.394 1.43846 1.21822 0
M  V30 4799 C 452.521 2.81874 1.87789 0
M  V30 4800 C 451.567 3.98906 1.50919 0
M  V30 4801 S 452.4 5.3234 0.580884 0
M  V30 4802 C 453.556 5.98737 1.82387 0
M  V30 4803 H 453.789 2.97131 0.100138 0
M  V30 4804 H 451.322 1.54255 -0.0668514 0
M  V30 4805 H 453.28 3.18757 2.58658 0
M  V30 4806 H 451.941 2.03573 2.392 0
M  V30 4807 H 451.134 4.4165 2.42819 0
M  V30 4808 H 450.736 3.63485 0.88061 0
M  V30 4809 H 453.028 6.18427 2.76684 0
M  V30 4810 H 453.971 6.93318 1.4393 0
M  V30 4811 H 454.379 5.28177 1.99223 0
M  V30 4812 N 453.777 0.010035 1.57597 0
M  V30 4813 C 454.709 -1.00649 2.05918 0
M  V30 4814 C 455.722 -1.30077 0.978964 0
M  V30 4815 O 456.911 -1.26878 1.25556 0
M  V30 4816 C 454.011 -2.33876 2.45265 0
M  V30 4817 C 453.184 -2.23242 3.7614 0
M  V30 4818 C 452.243 -3.39242 4.02245 0
M  V30 4819 O 451.269 -3.1698 4.72771 0
M  V30 4820 N 452.471 -4.6242 3.50924 0
M  V30 4821 H 455.236 -0.594333 2.93748 0
M  V30 4822 H 452.797 -0.17714 1.60928 0
M  V30 4823 H 454.789 -3.1027 2.59836 0
M  V30 4824 H 453.359 -2.66799 1.62902 0
M  V30 4825 H 452.579 -1.31696 3.71551 0
M  V30 4826 H 453.867 -2.13321 4.61922 0
M  V30 4827 H 453.265 -4.83404 2.93832 0
M  V30 4828 H 451.822 -5.36046 3.70807 0
M  V30 4829 N 455.255 -1.55392 -0.262866 0
M  V30 4830 C 456.188 -1.8391 -1.35101 0
M  V30 4831 C 457.166 -0.692901 -1.47097 0
M  V30 4832 O 458.35 -0.936979 -1.63563 0
M  V30 4833 C 455.477 -2.00969 -2.72634 0
M  V30 4834 C 454.523 -3.23559 -2.7787 0
M  V30 4835 S 455.356 -4.80647 -2.3609 0
M  V30 4836 C 456.512 -5.00692 -3.75578 0
M  V30 4837 H 456.745 -2.75918 -1.1071 0
M  V30 4838 H 454.278 -1.47294 -0.463029 0
M  V30 4839 H 456.236 -2.11482 -3.51832 0
M  V30 4840 H 454.897 -1.09832 -2.94272 0
M  V30 4841 H 454.09 -3.32413 -3.78837 0
M  V30 4842 H 453.692 -3.11689 -2.06702 0
M  V30 4843 H 455.984 -4.87055 -4.70939 0
M  V30 4844 H 456.927 -6.02717 -3.71669 0
M  V30 4845 H 457.335 -4.28619 -3.6735 0
M  V30 4846 N 456.733 0.527833 -1.48498 0
M  V30 4847 C 457.979 1.28545 -1.56857 0
M  V30 4848 C 458.312 1.92678 -0.242651 0
M  V30 4849 O 457.587 1.79394 0.751545 0
M  V30 4850 C 457.87 2.37314 -2.70839 0
M  V30 4851 C 457.723 1.77858 -4.13142 0
M  V30 4852 C 459.042 3.39068 -2.80573 0
M  V30 4853 H 456.161 0.466006 -0.570971 0
M  V30 4854 H 458.803 0.587784 -1.8068 0
M  V30 4855 H 456.953 2.96821 -2.50658 0
M  V30 4856 H 458.625 1.22385 -4.44769 0
M  V30 4857 H 456.868 1.08383 -4.20042 0
M  V30 4858 H 457.539 2.56624 -4.88721 0
M  V30 4859 H 460.015 2.89518 -2.98862 0
M  V30 4860 H 458.891 4.12566 -3.6205 0
M  V30 4861 H 459.152 3.9975 -1.88818 0
M  V30 4862 N 458.211 1.37122 0.776871 0
M  V30 4863 C 459.436 1.354 1.57104 0
M  V30 4864 C 459.861 -0.0595562 1.88006 0
M  V30 4865 O 459.219 -1.03514 1.48844 0
M  V30 4866 C 459.267 2.19472 2.8612 0
M  V30 4867 O 458.371 1.59582 3.80273 0
M  V30 4868 H 457.712 0.462869 0.476076 0
M  V30 4869 H 460.242 1.80577 0.961932 0
M  V30 4870 H 460.252 2.32502 3.35271 0
M  V30 4871 H 458.927 3.22222 2.62956 0
M  V30 4872 H 457.504 1.55564 3.38902 0
M  V30 4873 N 459.689 -1.00246 1.21608 0
M  V30 4874 C 460.637 -2.11193 0.97469 0
M  V30 4875 C 461.631 -1.69216 -0.0789303 0
M  V30 4876 O 462.837 -1.79853 0.0726806 0
M  V30 4877 H 459.212 -0.690455 0.297953 0
M  V30 4878 H 461.183 -2.2873 1.91638 0
M  V30 4879 C 459.932 -3.43182 0.558717 0
M  V30 4880 H 459.255 -3.75918 1.3611 0
M  V30 4881 H 460.695 -4.21823 0.429154 0
M  V30 4882 C 459.154 -3.28882 -0.730648 0
M  V30 4883 O 459.684 -3.59835 -1.78554 0
M  V30 4884 N 457.89 -2.8209 -0.698131 0
M  V30 4885 H 457.437 -2.57099 0.16061 0
M  V30 4886 H 457.395 -2.72903 -1.56113 0
M  V30 4887 N 461.167 -1.02423 -1.1978 0
M  V30 4888 C 462.416 -0.713265 -1.88667 0
M  V30 4889 C 462.729 0.7609 -1.80193 0
M  V30 4890 O 463.935 1.18473 -2.44288 0
M  V30 4891 C 462.391 -1.22545 -3.38394 0
M  V30 4892 C 461.999 -2.72706 -3.55437 0
M  V30 4893 C 463.743 -0.990257 -4.12788 0
M  V30 4894 C 461.65 -3.17367 -4.99031 0
M  V30 4895 H 460.58 -0.263105 -0.706606 0
M  V30 4896 H 463.231 -1.23792 -1.35454 0
M  V30 4897 H 461.613 -0.628732 -3.90977 0
M  V30 4898 H 462.787 -3.37993 -3.13205 0
M  V30 4899 H 461.102 -2.94453 -2.94425 0
M  V30 4900 H 463.699 -1.29926 -5.18675 0
M  V30 4901 H 464.042 0.0730761 -4.16236 0
M  V30 4902 H 464.575 -1.55074 -3.66329 0
M  V30 4903 H 461.314 -4.23009 -5.00743 0
M  V30 4904 H 460.834 -2.56805 -5.42044 0
M  V30 4905 H 462.513 -3.10441 -5.67658 0
M  V30 4906 N 462.645 1.35699 -0.801477 0
M  V30 4907 C 463.87 2.03687 -0.390678 0
M  V30 4908 C 464.295 1.60015 0.988778 0
M  V30 4909 O 463.653 0.774357 1.63931 0
M  V30 4910 C 463.701 3.57439 -0.476404 0
M  V30 4911 O 462.805 4.09208 0.512106 0
M  V30 4912 H 462.146 0.64344 -0.163956 0
M  V30 4913 H 464.676 1.73403 -1.08594 0
M  V30 4914 H 464.686 4.06544 -0.344357 0
M  V30 4915 H 463.361 3.88576 -1.48262 0
M  V30 4916 H 461.938 3.7134 0.340721 0
M  V30 4917 N 464.123 0.554532 1.47522 0
M  V30 4918 C 465.37 0.029479 2.02479 0
M  V30 4919 C 465.698 -1.31929 1.42916 0
M  V30 4920 O 464.953 -1.87112 0.573385 0
M  V30 4921 C 465.252 -0.115927 3.57212 0
M  V30 4922 C 464.918 1.16161 4.3568 0
M  V30 4923 C 463.58 1.51168 4.56839 0
M  V30 4924 C 465.932 2.0083 4.80954 0
M  V30 4925 C 463.26 2.70696 5.2052 0
M  V30 4926 C 465.612 3.19559 5.45953 0
M  V30 4927 C 464.276 3.54882 5.65345 0
M  V30 4928 H 463.546 0.0107871 0.740921 0
M  V30 4929 H 466.193 0.725506 1.77225 0
M  V30 4930 H 464.498 -0.894902 3.81443 0
M  V30 4931 H 466.195 -0.53749 3.97381 0
M  V30 4932 H 462.785 0.879026 4.19489 0
M  V30 4933 H 466.969 1.75093 4.64388 0
M  V30 4934 H 462.225 2.98236 5.33728 0
M  V30 4935 H 466.399 3.85456 5.79997 0
M  V30 4936 H 464.026 4.47596 6.1446 0
M  V30 4937 N 465.601 -1.54893 0.290851 0
M  V30 4938 C 466.848 -1.99933 -0.321391 0
M  V30 4939 C 467.176 -1.17927 -1.54672 0
M  V30 4940 O 466.431 -0.240902 -1.94212 0
M  V30 4941 C 466.73 -3.49815 -0.732397 0
M  V30 4942 C 466.396 -4.4921 0.390056 0
M  V30 4943 C 465.058 -4.76107 0.698223 0
M  V30 4944 C 467.41 -5.08453 1.14562 0
M  V30 4945 C 464.738 -5.59514 1.76526 0
M  V30 4946 C 467.09 -5.9302 2.2025 0
M  V30 4947 C 465.754 -6.18232 2.51684 0
M  V30 4948 H 465.024 -0.731608 -0.117605 0
M  V30 4949 H 467.671 -1.87107 0.407839 0
M  V30 4950 H 465.976 -3.60199 -1.54155 0
M  V30 4951 H 467.673 -3.82083 -1.21712 0
M  V30 4952 H 464.263 -4.28372 0.13976 0
M  V30 4953 H 468.447 -4.87683 0.920801 0
M  V30 4954 H 463.703 -5.77289 2.01364 0
M  V30 4955 H 467.877 -6.37955 2.7926 0
M  V30 4956 H 465.504 -6.82653 3.34499 0
M  V30 4957 N 467.08 -0.0183926 -1.57589 0
M  V30 4958 C 468.043 0.951986 -2.08494 0
M  V30 4959 C 469.043 1.26092 -0.997874 0
M  V30 4960 O 470.233 1.20304 -1.25987 0
M  V30 4961 C 467.365 2.27165 -2.54182 0
M  V30 4962 H 468.558 0.511307 -2.95509 0
M  V30 4963 H 466.111 0.229444 -1.54607 0
M  V30 4964 H 466.846 2.75884 -1.70465 0
M  V30 4965 H 466.631 2.06057 -3.33591 0
M  V30 4966 H 468.121 2.9674 -2.93828 0
M  V30 4967 N 468.558 1.5553 0.254621 0
M  V30 4968 C 469.491 1.84624 1.34124 0
M  V30 4969 C 470.469 0.700693 1.46728 0
M  V30 4970 O 471.653 0.94564 1.63064 0
M  V30 4971 C 468.78 2.02412 2.71564 0
M  V30 4972 C 467.826 3.25028 2.7615 0
M  V30 4973 S 468.659 4.81893 2.33538 0
M  V30 4974 C 469.815 5.02677 3.72917 0
M  V30 4975 H 470.048 2.76501 1.09245 0
M  V30 4976 H 467.581 1.47537 0.455211 0
M  V30 4977 H 469.539 2.13345 3.50705 0
M  V30 4978 H 468.2 1.11391 2.93685 0
M  V30 4979 H 467.393 3.34418 3.77069 0
M  V30 4980 H 466.995 3.12781 2.05046 0
M  V30 4981 H 469.287 4.89546 4.68349 0
M  V30 4982 H 470.23 6.0468 3.68467 0
M  V30 4983 H 470.638 4.30561 3.65072 0
M  V30 4984 N 470.036 -0.519951 1.48776 0
M  V30 4985 C 471.283 -1.27522 1.57303 0
M  V30 4986 C 471.611 -1.92869 0.251328 0
M  V30 4987 O 470.866 -1.80372 -0.759243 0
M  V30 4988 C 471.165 -2.37864 2.6675 0
M  V30 4989 C 470.831 -1.90103 4.08867 0
M  V30 4990 C 469.493 -1.76795 4.47546 0
M  V30 4991 C 471.845 -1.54133 4.97888 0
M  V30 4992 C 469.173 -1.25868 5.73039 0
M  V30 4993 C 471.525 -1.04665 6.23881 0
M  V30 4994 C 470.189 -0.899823 6.61407 0
M  V30 4995 H 469.459 -0.466636 0.575614 0
M  V30 4996 H 472.106 -0.579109 1.82534 0
M  V30 4997 H 470.411 -3.13186 2.35418 0
M  V30 4998 H 472.108 -2.95969 2.70561 0
M  V30 4999 H 468.698 -2.01414 3.78326 0
M  V30 5000 H 472.882 -1.6327 4.68675 0
M  V30 5001 H 468.138 -1.13196 6.0083 0
M  V30 5002 H 472.312 -0.759074 6.92251 0
M  V30 5003 H 469.939 -0.503011 7.58534 0
M  V30 5004 N 471.514 -1.37532 -0.769588 0
M  V30 5005 C 472.76 -1.33057 -1.53048 0
M  V30 5006 C 473.093 0.0841865 -1.94017 0
M  V30 5007 O 472.368 1.04198 -1.64235 0
M  V30 5008 C 472.651 -2.27166 -2.79406 0
M  V30 5009 C 472.504 -3.77429 -2.44677 0
M  V30 5010 C 473.823 -2.19683 -3.81349 0
M  V30 5011 H 470.942 -0.484655 -0.555228 0
M  V30 5012 H 473.584 -1.68251 -0.882702 0
M  V30 5013 H 471.734 -1.97283 -3.34682 0
M  V30 5014 H 473.406 -4.17918 -1.953 0
M  V30 5015 H 471.649 -3.95892 -1.77346 0
M  V30 5016 H 472.32 -4.38716 -3.35011 0
M  V30 5017 H 474.796 -2.46029 -3.35573 0
M  V30 5018 H 473.672 -2.87668 -4.67481 0
M  V30 5019 H 473.933 -1.19045 -4.25771 0
M  V30 5020 N 472.992 0.995999 -1.22138 0
M  V30 5021 C 473.925 2.08302 -0.931952 0
M  V30 5022 C 474.903 1.62127 0.123956 0
M  V30 5023 O 476.087 1.88499 -0.00696004 0
M  V30 5024 C 473.214 3.36317 -0.401068 0
M  V30 5025 C 472.26 4.01413 -1.44117 0
M  V30 5026 S 473.093 4.42664 -3.01345 0
M  V30 5027 C 474.249 5.73853 -2.49887 0
M  V30 5028 H 474.482 2.32532 -1.85246 0
M  V30 5029 H 472.015 1.13005 -1.0521 0
M  V30 5030 H 473.973 4.10375 -0.101352 0
M  V30 5031 H 472.634 3.10123 0.498272 0
M  V30 5032 H 471.827 4.9358 -1.01952 0
M  V30 5033 H 471.429 3.33668 -1.68943 0
M  V30 5034 H 473.721 6.50039 -1.90934 0
M  V30 5035 H 474.664 6.20841 -3.40532 0
M  V30 5036 H 475.072 5.31105 -1.9128 0
M  V30 5037 N 474.47 1.03057 1.19235 0
M  V30 5038 C 475.7 0.746613 1.92638 0
M  V30 5039 C 476.108 -0.698708 1.75826 0
M  V30 5040 O 475.451 -1.487 1.07861 0
M  V30 5041 C 475.513 1.02024 3.44719 0
M  V30 5042 C 475.177 2.45745 3.85303 0
M  V30 5043 C 476.174 3.43887 3.8992 0
M  V30 5044 C 473.859 2.8019 4.16892 0
M  V30 5045 C 475.853 4.74529 4.2556 0
M  V30 5046 C 473.54 4.1104 4.52205 0
M  V30 5047 C 474.538 5.0802 4.56513 0
M  V30 5048 O 474.226 6.36527 4.91008 0
M  V30 5049 H 473.958 0.272401 0.618687 0
M  V30 5050 H 476.512 1.37853 1.52269 0
M  V30 5051 H 474.742 0.331184 3.85279 0
M  V30 5052 H 476.431 0.725677 3.9936 0
M  V30 5053 H 477.197 3.18614 3.65664 0
M  V30 5054 H 473.076 2.05382 4.12722 0
M  V30 5055 H 476.62 5.50222 4.28838 0
M  V30 5056 H 472.517 4.36086 4.7592 0
M  V30 5057 H 473.285 6.41025 5.08949 0
M  V30 5058 N 475.948 -1.35272 0.808662 0
M  V30 5059 C 477.195 -1.98709 0.390003 0
M  V30 5060 C 477.523 -1.64148 -1.04335 0
M  V30 5061 O 476.778 -0.897797 -1.73891 0
M  V30 5062 C 477.077 -3.53556 0.522798 0
M  V30 5063 C 476.743 -4.0799 1.91977 0
M  V30 5064 C 475.405 -4.22568 2.30195 0
M  V30 5065 C 477.757 -4.37442 2.83361 0
M  V30 5066 C 475.085 -4.63918 3.59162 0
M  V30 5067 C 477.437 -4.80232 4.11776 0
M  V30 5068 C 476.101 -4.93016 4.49991 0
M  V30 5069 H 475.371 -0.727127 0.142712 0
M  V30 5070 H 478.018 -1.6145 1.02985 0
M  V30 5071 H 476.323 -3.91287 -0.200494 0
M  V30 5072 H 478.02 -4.00598 0.179608 0
M  V30 5073 H 474.61 -3.97096 1.61284 0
M  V30 5074 H 478.794 -4.25731 2.55083 0
M  V30 5075 H 474.05 -4.72005 3.88615 0
M  V30 5076 H 478.224 -5.01982 4.82687 0
M  V30 5077 H 475.851 -5.24814 5.49976 0
M  V30 5078 N 477.426 -0.562348 -1.47226 0
M  V30 5079 C 478.356 0.170627 -2.32876 0
M  V30 5080 C 479.337 0.903748 -1.44106 0
M  V30 5081 O 480.522 0.883206 -1.72954 0
M  V30 5082 C 477.652 1.19786 -3.25989 0
M  V30 5083 C 476.606 0.580875 -4.2404 0
M  V30 5084 C 475.932 1.71311 -5.06514 0
M  V30 5085 C 477.232 -0.468714 -5.20193 0
M  V30 5086 H 478.926 -0.544441 -2.94408 0
M  V30 5087 H 476.472 -0.263271 -1.41573 0
M  V30 5088 H 478.425 1.71884 -3.84752 0
M  V30 5089 H 477.149 1.94294 -2.62521 0
M  V30 5090 H 475.808 0.0811538 -3.6651 0
M  V30 5091 H 475.456 2.44736 -4.39447 0
M  V30 5092 H 475.156 1.30604 -5.72902 0
M  V30 5093 H 476.68 2.23725 -5.68137 0
M  V30 5094 H 478.094 -0.0336028 -5.7329 0
M  V30 5095 H 476.491 -0.794957 -5.94811 0
M  V30 5096 H 477.561 -1.36269 -4.65359 0
M  V30 5097 N 478.904 1.54736 -0.299062 0
M  V30 5098 C 480.132 2.04512 0.313447 0
M  V30 5099 C 480.547 1.17643 1.47667 0
M  V30 5100 O 479.904 0.20164 1.81383 0
M  V30 5101 C 479.955 3.53171 0.771542 0
M  V30 5102 O 479.676 4.36736 -0.345379 0
M  V30 5103 C 481.177 4.18936 1.4494 0
M  V30 5104 H 478.397 0.667507 0.0683784 0
M  V30 5105 H 480.941 1.99752 -0.438129 0
M  V30 5106 H 479.096 3.58298 1.47314 0
M  V30 5107 H 479.51 5.24499 0.0109219 0
M  V30 5108 H 480.984 5.24482 1.72111 0
M  V30 5109 H 481.461 3.68554 2.38883 0
M  V30 5110 H 482.067 4.17879 0.791028 0
M  V30 5111 N 480.382 0.0267497 1.57577 0
M  V30 5112 C 481.345 -0.940916 2.08996 0
M  V30 5113 C 482.345 -1.25561 1.00455 0
M  V30 5114 O 483.535 -1.19634 1.26623 0
M  V30 5115 C 480.667 -2.25814 2.55384 0
M  V30 5116 H 481.86 -0.495628 2.95776 0
M  V30 5117 H 479.413 -0.221241 1.54726 0
M  V30 5118 H 480.148 -2.74976 1.71926 0
M  V30 5119 H 479.933 -2.04285 3.34679 0
M  V30 5120 H 481.423 -2.95178 2.95398 0
M  V30 5121 N 481.861 -1.55662 -0.24637 0
M  V30 5122 C 483.11 -1.7672 -0.972254 0
M  V30 5123 C 483.423 -0.59078 -1.86465 0
M  V30 5124 O 484.629 -0.684391 -2.62732 0
M  V30 5125 C 483.085 -3.12869 -1.7788 0
M  V30 5126 C 482.693 -4.38161 -0.933768 0
M  V30 5127 C 484.437 -3.43265 -2.49738 0
M  V30 5128 C 482.344 -5.6534 -1.73623 0
M  V30 5129 H 481.274 -0.658795 -0.366749 0
M  V30 5130 H 483.925 -1.82092 -0.226902 0
M  V30 5131 H 482.307 -3.01606 -2.56612 0
M  V30 5132 H 483.481 -4.60413 -0.188736 0
M  V30 5133 H 481.796 -4.15102 -0.328488 0
M  V30 5134 H 484.393 -4.35501 -3.10231 0
M  V30 5135 H 484.736 -2.64614 -3.2138 0
M  V30 5136 H 485.269 -3.55746 -1.78016 0
M  V30 5137 H 482.008 -6.46814 -1.06354 0
M  V30 5138 H 481.528 -5.47188 -2.45653 0
M  V30 5139 H 483.207 -6.04616 -2.30323 0
M  V30 5140 N 483.339 0.512053 -1.4905 0
M  V30 5141 C 484.586 1.26686 -1.57978 0
M  V30 5142 C 484.914 1.92733 -0.261553 0
M  V30 5143 O 484.169 1.80772 0.749667 0
M  V30 5144 C 484.468 2.36446 -2.68008 0
M  V30 5145 C 484.134 1.87932 -4.09869 0
M  V30 5146 C 482.796 1.74419 -4.48477 0
M  V30 5147 C 485.148 1.5149 -4.98698 0
M  V30 5148 C 482.476 1.22827 -5.73699 0
M  V30 5149 C 484.828 1.01355 -6.24428 0
M  V30 5150 C 483.492 0.864735 -6.61875 0
M  V30 5151 H 482.762 0.463577 -0.578081 0
M  V30 5152 H 485.409 0.569421 -1.82838 0
M  V30 5153 H 483.714 3.11933 -2.37076 0
M  V30 5154 H 485.411 2.9453 -2.72127 0
M  V30 5155 H 482.001 1.99405 -3.79389 0
M  V30 5156 H 486.185 1.60782 -4.69535 0
M  V30 5157 H 481.441 1.10008 -6.01422 0
M  V30 5158 H 485.615 0.722351 -6.92644 0
M  V30 5159 H 483.242 0.462777 -7.5879 0
M  V30 5160 N 484.817 1.37938 0.762283 0
M  V30 5161 C 486.065 1.33404 1.51815 0
M  V30 5162 C 486.386 -0.0780975 1.94844 0
M  V30 5163 O 485.656 -1.02405 1.67003 0
M  V30 5164 H 484.236 0.490839 0.563104 0
M  V30 5165 H 486.898 1.72527 0.906669 0
M  V30 5166 H 485.994 1.97926 2.41313 0
M  V30 5167 N 486.295 -0.989507 1.22664 0
M  V30 5168 C 487.525 -1.7624 1.0781 0
M  V30 5169 C 487.933 -1.85466 -0.374036 0
M  V30 5170 O 487.276 -1.32645 -1.27087 0
M  V30 5171 C 487.338 -3.21007 1.61849 0
M  V30 5172 C 487.002 -3.35316 3.10503 0
M  V30 5173 C 487.999 -3.22362 4.07896 0
M  V30 5174 C 485.684 -3.60258 3.50028 0
M  V30 5175 C 487.678 -3.34139 5.42798 0
M  V30 5176 C 485.365 -3.71676 4.85078 0
M  V30 5177 C 486.363 -3.58625 5.81272 0
M  V30 5178 O 486.051 -3.69655 7.1387 0
M  V30 5179 H 485.783 -0.560209 0.378341 0
M  V30 5180 H 488.337 -1.25252 1.62792 0
M  V30 5181 H 486.567 -3.73202 1.01279 0
M  V30 5182 H 488.256 -3.80024 1.42606 0
M  V30 5183 H 489.022 -3.03 3.78703 0
M  V30 5184 H 484.901 -3.69492 2.75675 0
M  V30 5185 H 488.445 -3.23869 6.17863 0
M  V30 5186 H 484.342 -3.90545 5.1395 0
M  V30 5187 H 485.11 -3.86507 7.21495 0
M  V30 5188 N 487.773 -1.03688 -1.18687 0
M  V30 5189 C 488.703 -0.645407 -2.24403 0
M  V30 5190 C 489.684 0.349511 -1.66471 0
M  V30 5191 O 490.869 0.230453 -1.92828 0
M  V30 5192 C 487.999 -0.00365337 -3.473 0
M  V30 5193 C 486.953 -0.921705 -4.17958 0
M  V30 5194 C 486.279 -0.144629 -5.34504 0
M  V30 5195 C 487.579 -2.23909 -4.71871 0
M  V30 5196 H 489.273 -1.52917 -2.57404 0
M  V30 5197 H 486.819 -0.736711 -1.23728 0
M  V30 5198 H 488.772 0.281908 -4.20456 0
M  V30 5199 H 487.496 0.914963 -3.13522 0
M  V30 5200 H 486.155 -1.19159 -3.46694 0
M  V30 5201 H 485.803 0.776274 -4.96974 0
M  V30 5202 H 485.503 -0.756206 -5.82714 0
M  V30 5203 H 487.027 0.134004 -6.10453 0
M  V30 5204 H 488.441 -2.0145 -5.36741 0
M  V30 5205 H 486.838 -2.8033 -5.30599 0
M  V30 5206 H 487.908 -2.88822 -3.895 0
M  V30 5207 N 489.251 1.34841 -0.815825 0
M  V30 5208 C 490.479 2.0273 -0.413294 0
M  V30 5209 C 490.894 1.61459 0.978599 0
M  V30 5210 O 490.251 0.816584 1.63212 0
M  V30 5211 C 490.302 3.58058 -0.497676 0
M  V30 5212 O 490.023 3.97832 -1.8347 0
M  V30 5213 C 491.524 4.4321 -0.0891339 0
M  V30 5214 H 488.744 0.649956 -0.166728 0
M  V30 5215 H 491.288 1.72267 -1.10201 0
M  V30 5216 H 489.443 3.87136 0.142886 0
M  V30 5217 H 489.857 4.92501 -1.80396 0
M  V30 5218 H 491.331 5.5164 -0.199274 0
M  V30 5219 H 491.808 4.28432 0.966571 0
M  V30 5220 H 492.414 4.19446 -0.703214 0
M  V30 5221 N 490.729 0.570148 1.46925 0
M  V30 5222 C 491.976 0.0509529 2.02436 0
M  V30 5223 C 492.304 -1.30405 1.44308 0
M  V30 5224 O 491.559 -1.86493 0.593198 0
M  V30 5225 C 491.858 -0.0780336 3.57315 0
M  V30 5226 C 491.524 1.20775 4.34424 0
M  V30 5227 C 490.186 1.56004 4.5521 0
M  V30 5228 C 492.538 2.0592 4.78797 0
M  V30 5229 C 489.866 2.76201 5.17619 0
M  V30 5230 C 492.218 3.25332 5.42533 0
M  V30 5231 C 490.882 3.60859 5.61549 0
M  V30 5232 H 490.152 0.018645 0.740765 0
M  V30 5233 H 492.799 0.744262 1.76445 0
M  V30 5234 H 491.104 -0.854394 3.82371 0
M  V30 5235 H 492.801 -0.495312 3.97929 0
M  V30 5236 H 489.391 0.923469 4.18533 0
M  V30 5237 H 493.575 1.80008 4.62505 0
M  V30 5238 H 488.831 3.0388 5.30535 0
M  V30 5239 H 493.005 3.91586 5.75876 0
M  V30 5240 H 490.632 4.54088 6.09678 0
M  V30 5241 N 492.207 -1.54576 0.307264 0
M  V30 5242 C 493.437 -2.04378 -0.302158 0
M  V30 5243 C 493.845 -1.18381 -1.47589 0
M  V30 5244 O 493.188 -0.20352 -1.82569 0
M  V30 5245 C 493.25 -3.50133 -0.815305 0
M  V30 5246 C 492.914 -4.56401 0.233977 0
M  V30 5247 C 493.911 -5.08884 1.06456 0
M  V30 5248 C 491.596 -5.0088 0.377478 0
M  V30 5249 C 493.59 -6.04394 2.02452 0
M  V30 5250 C 491.277 -5.96208 1.34088 0
M  V30 5251 C 492.275 -6.47849 2.16288 0
M  V30 5252 O 491.963 -7.41308 3.10994 0
M  V30 5253 H 491.695 -0.672502 -0.0686839 0
M  V30 5254 H 494.249 -2.00484 0.446682 0
M  V30 5255 H 492.479 -3.51371 -1.61478 0
M  V30 5256 H 494.168 -3.83098 -1.34129 0
M  V30 5257 H 494.934 -4.75311 0.964596 0
M  V30 5258 H 490.813 -4.60309 -0.252405 0
M  V30 5259 H 494.357 -6.44626 2.66652 0
M  V30 5260 H 490.254 -6.29198 1.44154 0
M  V30 5261 H 491.022 -7.5913 3.06045 0
M  V30 5262 N 493.685 -0.035106 -1.57561 0
M  V30 5263 C 494.962 0.681212 -1.83354 0
M  V30 5264 C 495.342 1.89986 -0.920252 0
M  V30 5265 O 494.69 2.28489 0.0226815 0
M  V30 5266 C 494.9 1.05376 -3.32712 0
M  V30 5267 C 496.248 1.44286 -3.99333 0
M  V30 5268 O 497.272 1.14656 -3.37242 0
M  V30 5269 O 496.131 1.99518 -5.08778 0
M  V30 5270 H 493.225 0.334741 -0.756226 0
M  V30 5271 H 495.771 -0.0632448 -1.69582 0
M  V30 5272 H 494.543 0.186668 -3.90854 0
M  V30 5273 H 494.166 1.85619 -3.51613 0
M  V30 5274 N 495.163 1.55791 0.238111 0
M  V30 5275 C 496.111 1.91885 1.31464 0
M  V30 5276 C 497.105 0.798929 1.49377 0
M  V30 5277 O 498.311 0.983626 1.50747 0
M  V30 5278 H 494.686 0.609551 0.440399 0
M  V30 5279 H 496.657 2.81747 0.982925 0
M  V30 5280 C 495.406 2.23763 2.6613 0
M  V30 5281 H 494.729 3.09444 2.53149 0
M  V30 5282 H 496.169 2.52915 3.40309 0
M  V30 5283 C 494.628 1.05699 3.1989 0
M  V30 5284 O 495.158 0.309524 4.00506 0
M  V30 5285 N 493.364 0.845251 2.78036 0
M  V30 5286 H 492.911 1.4548 2.12588 0
M  V30 5287 H 492.869 0.0569973 3.14348 0
M  V30 5288 N 496.642 -0.504142 1.49319 0
M  V30 5289 C 497.888 -1.26033 1.58882 0
M  V30 5290 C 498.221 -1.92268 0.273274 0
M  V30 5291 O 497.496 -1.80567 -0.72291 0
M  V30 5292 C 497.779 -2.32976 2.7458 0
M  V30 5293 C 497.632 -1.71263 4.1592 0
M  V30 5294 C 498.951 -3.34561 2.85932 0
M  V30 5295 H 496.07 -0.456863 0.578312 0
M  V30 5296 H 498.712 -0.558965 1.81592 0
M  V30 5297 H 496.862 -2.92796 2.55348 0
M  V30 5298 H 498.534 -1.15294 4.4666 0
M  V30 5299 H 496.777 -1.01686 4.21714 0
M  V30 5300 H 497.448 -2.48816 4.92742 0
M  V30 5301 H 499.924 -2.84727 3.0343 0
M  V30 5302 H 498.8 -4.06754 3.68568 0
M  V30 5303 H 499.061 -3.96695 1.95154 0
M  V30 5304 N 498.12 -1.38341 -0.754957 0
M  V30 5305 C 499.052 -1.31347 -1.87831 0
M  V30 5306 C 500.065 -0.225955 -1.61224 0
M  V30 5307 O 501.254 -0.48341 -1.7183 0
M  V30 5308 C 498.354 -1.01201 -3.23437 0
M  V30 5309 C 497.527 -2.20834 -3.77559 0
M  V30 5310 C 496.586 -1.87454 -4.91678 0
M  V30 5311 O 495.612 -2.59934 -5.06382 0
M  V30 5312 N 496.814 -0.828682 -5.74555 0
M  V30 5313 H 499.579 -2.28147 -1.94342 0
M  V30 5314 H 497.14 -1.32184 -0.934828 0
M  V30 5315 H 499.132 -0.769249 -3.97322 0
M  V30 5316 H 497.702 -0.132011 -3.12321 0
M  V30 5317 H 496.922 -2.61184 -2.95256 0
M  V30 5318 H 498.21 -3.00678 -4.10451 0
M  V30 5319 H 497.608 -0.227591 -5.65242 0
M  V30 5320 H 496.165 -0.645802 -6.48593 0
M  V30 5321 N 499.598 0.982988 -1.23187 0
M  V30 5322 C 500.823 1.76455 -1.08988 0
M  V30 5323 C 501.248 1.84726 0.354691 0
M  V30 5324 O 500.606 1.30699 1.25649 0
M  V30 5325 C 500.654 3.17094 -1.71708 0
M  V30 5326 O 499.758 4.00648 -0.977477 0
M  V30 5327 H 499.099 0.542988 -0.382177 0
M  V30 5328 H 501.629 1.23413 -1.63188 0
M  V30 5329 H 501.639 3.67684 -1.76841 0
M  V30 5330 H 500.314 3.10389 -2.76823 0
M  V30 5331 H 498.891 3.59161 -1.0029 0
M  V30 5332 N 501.076 1.04316 1.18135 0
M  V30 5333 C 502.353 0.662166 1.84051 0
M  V30 5334 C 502.733 -0.858169 1.9287 0
M  V30 5335 O 502.081 -1.76062 1.45652 0
M  V30 5336 C 502.291 1.3409 3.22212 0
M  V30 5337 C 503.639 1.4733 3.9822 0
M  V30 5338 O 504.663 1.29921 3.31661 0
M  V30 5339 O 503.522 1.75722 5.17479 0
M  V30 5340 H 500.616 0.232005 0.79379 0
M  V30 5341 H 503.162 1.1422 1.25506 0
M  V30 5342 H 501.934 2.37853 3.10711 0
M  V30 5343 H 501.557 0.849649 3.88416 0
M  V30 5344 N 502.554 -1.34406 0.822964 0
M  V30 5345 C 503.484 -2.32052 0.259608 0
M  V30 5346 C 504.465 -1.58243 -0.623961 0
M  V30 5347 O 505.65 -1.86224 -0.55083 0
M  V30 5348 C 502.78 -3.42434 -0.579314 0
M  V30 5349 C 501.734 -4.27499 0.20712 0
M  V30 5350 C 501.06 -5.29349 -0.754547 0
M  V30 5351 C 502.36 -5.02758 1.41533 0
M  V30 5352 H 504.054 -2.79418 1.07545 0
M  V30 5353 H 501.6 -1.34338 0.518593 0
M  V30 5354 H 503.553 -4.0976 -0.983612 0
M  V30 5355 H 502.277 -2.93717 -1.4282 0
M  V30 5356 H 500.936 -3.61776 0.592787 0
M  V30 5357 H 500.584 -4.76895 -1.59939 0
M  V30 5358 H 500.284 -5.8714 -0.232561 0
M  V30 5359 H 501.808 -5.99544 -1.1567 0
M  V30 5360 H 503.222 -5.62938 1.08504 0
M  V30 5361 H 501.619 -5.70123 1.87296 0
M  V30 5362 H 502.689 -4.32451 2.1935 0
M  V30 5363 N 504.032 -0.577932 -1.46621 0
M  V30 5364 C 504.962 0.145917 -2.33044 0
M  V30 5365 C 505.943 0.888412 -1.45056 0
M  V30 5366 O 507.128 0.864812 -1.73881 0
M  V30 5367 C 504.258 1.16322 -3.27241 0
M  V30 5368 C 503.212 0.535868 -4.24632 0
M  V30 5369 C 502.538 1.65929 -5.08303 0
M  V30 5370 C 503.838 -0.523861 -5.19666 0
M  V30 5371 H 505.532 -0.575636 -2.93814 0
M  V30 5372 H 503.078 -0.278272 -1.41286 0
M  V30 5373 H 505.031 1.67793 -3.86553 0
M  V30 5374 H 503.755 1.91498 -2.64567 0
M  V30 5375 H 502.414 0.0422759 -3.66576 0
M  V30 5376 H 502.062 2.40061 -4.42018 0
M  V30 5377 H 501.762 1.2452 -5.74255 0
M  V30 5378 H 503.286 2.17686 -5.70478 0
M  V30 5379 H 504.7 -0.0944059 -5.73222 0
M  V30 5380 H 503.097 -0.858 -5.93935 0
M  V30 5381 H 504.167 -1.41197 -4.63887 0
M  V30 5382 N 505.51 1.54411 -0.315457 0
M  V30 5383 C 506.46 2.20772 0.569549 0
M  V30 5384 C 507.444 1.18551 1.08787 0
M  V30 5385 O 508.636 1.44213 1.02624 0
M  V30 5386 C 505.765 2.96293 1.73394 0
M  V30 5387 C 504.851 4.05844 1.2309 0
M  V30 5388 N 505.242 5.03822 0.446927 0
M  V30 5389 C 503.54 4.19648 1.51035 0
M  V30 5390 C 504.241 5.8143 0.17725 0
M  V30 5391 N 503.217 5.38245 0.761118 0
M  V30 5392 H 507.019 2.93877 -0.0368076 0
M  V30 5393 H 504.533 1.61949 -0.120915 0
M  V30 5394 H 506.53 3.42313 2.37965 0
M  V30 5395 H 505.19 2.24708 2.34386 0
M  V30 5396 H 506.201 5.17821 0.0905027 0
M  V30 5397 H 502.878 3.59274 2.1267 0
M  V30 5398 H 504.268 6.70369 -0.45335 0
M  V30 5399 N 506.988 0.0434614 1.5754 0
M  V30 5400 C 507.935 -0.93356 2.11077 0
M  V30 5401 C 508.905 -1.31383 1.01626 0
M  V30 5402 O 510.09 -1.40465 1.29129 0
M  V30 5403 C 507.23 -2.20578 2.65404 0
M  V30 5404 C 506.343 -1.88068 3.88914 0
M  V30 5405 C 505.478 -3.09691 4.31584 0
M  V30 5406 C 504.517 -2.73067 5.47815 0
M  V30 5407 N 503.654 -3.87359 5.85574 0
M  V30 5408 H 508.494 -0.470118 2.94268 0
M  V30 5409 H 506.031 -0.220434 1.45439 0
M  V30 5410 H 507.989 -2.95011 2.94999 0
M  V30 5411 H 506.619 -2.64513 1.85021 0
M  V30 5412 H 505.671 -1.03816 3.6596 0
M  V30 5413 H 506.983 -1.57104 4.73413 0
M  V30 5414 H 506.137 -3.92431 4.62691 0
M  V30 5415 H 504.876 -3.43827 3.45882 0
M  V30 5416 H 503.881 -1.88742 5.16388 0
M  V30 5417 H 505.106 -2.40131 6.35227 0
M  V30 5418 H 503.052 -4.21311 5.02825 0
M  V30 5419 H 502.969 -3.60068 6.64746 0
M  V30 5420 H 504.237 -4.70761 6.21292 0
M  V30 5421 N 508.466 -1.55915 -0.229846 0
M  V30 5422 C 509.696 -1.82352 -0.971152 0
M  V30 5423 C 510.104 -0.619231 -1.7878 0
M  V30 5424 O 509.447 0.421597 -1.78797 0
M  V30 5425 C 509.509 -3.02399 -1.9441 0
M  V30 5426 C 509.173 -4.37739 -1.31277 0
M  V30 5427 C 510.17 -5.15074 -0.706757 0
M  V30 5428 C 507.855 -4.84454 -1.32702 0
M  V30 5429 C 509.849 -6.37281 -0.123413 0
M  V30 5430 C 507.536 -6.06605 -0.739831 0
M  V30 5431 C 508.534 -6.82858 -0.139071 0
M  V30 5432 O 508.222 -8.027 0.439007 0
M  V30 5433 H 507.954 -0.61035 -0.290601 0
M  V30 5434 H 510.508 -2.03839 -0.252746 0
M  V30 5435 H 508.738 -2.76709 -2.70128 0
M  V30 5436 H 510.427 -3.15779 -2.55026 0
M  V30 5437 H 511.193 -4.80093 -0.688131 0
M  V30 5438 H 507.072 -4.25081 -1.78402 0
M  V30 5439 H 510.616 -6.96741 0.346124 0
M  V30 5440 H 506.513 -6.4106 -0.755841 0
M  V30 5441 H 507.281 -8.17824 0.332521 0
M  V30 5442 N 509.944 0.496216 -1.49584 0
M  V30 5443 C 510.876 1.61404 -1.62731 0
M  V30 5444 C 511.889 1.54613 -0.50978 0
M  V30 5445 O 513.078 1.60458 -0.782017 0
M  V30 5446 C 510.178 3.00212 -1.57245 0
M  V30 5447 C 509.351 3.32138 -2.84611 0
M  V30 5448 C 508.41 4.5038 -2.72112 0
M  V30 5449 O 507.436 4.51926 -3.46051 0
M  V30 5450 N 508.638 5.50575 -1.83977 0
M  V30 5451 H 511.403 1.50552 -2.59141 0
M  V30 5452 H 508.964 0.684182 -1.46733 0
M  V30 5453 H 510.956 3.77241 -1.4653 0
M  V30 5454 H 509.526 3.04964 -0.686729 0
M  V30 5455 H 508.746 2.4396 -3.09641 0
M  V30 5456 H 510.034 3.50268 -3.69039 0
M  V30 5457 H 509.432 5.52128 -1.23171 0
M  V30 5458 H 507.989 6.26687 -1.79182 0
M  V30 5459 N 511.423 1.38739 0.74761 0
M  V30 5460 C 512.648 1.38702 1.54197 0
M  V30 5461 C 513.073 -0.019664 1.8809 0
M  V30 5462 O 512.431 -1.00333 1.51006 0
M  V30 5463 C 512.479 2.25492 2.814 0
M  V30 5464 O 511.583 1.67613 3.76802 0
M  V30 5465 H 510.924 0.472863 0.466151 0
M  V30 5466 H 513.454 1.82577 0.923413 0
M  V30 5467 H 513.464 2.39561 3.30264 0
M  V30 5468 H 512.139 3.27727 2.56062 0
M  V30 5469 H 510.716 1.62718 3.35526 0
M  V30 5470 N 512.901 -0.976442 1.23707 0
M  V30 5471 C 513.848 -2.06952 1.02174 0
M  V30 5472 C 514.818 -1.65984 -0.0621034 0
M  V30 5473 O 516.003 -1.90584 0.0907906 0
M  V30 5474 C 513.143 -3.39425 0.62327 0
M  V30 5475 C 512.256 -3.9364 1.77966 0
M  V30 5476 C 511.391 -5.14343 1.3276 0
M  V30 5477 C 510.43 -5.60733 2.45449 0
M  V30 5478 N 509.567 -6.72662 2.01172 0
M  V30 5479 H 514.407 -2.24704 1.95734 0
M  V30 5480 H 511.944 -1.10143 0.975034 0
M  V30 5481 H 513.902 -4.15526 0.37332 0
M  V30 5482 H 512.532 -3.21624 -0.275329 0
M  V30 5483 H 511.584 -3.14258 2.14351 0
M  V30 5484 H 512.896 -4.24035 2.62671 0
M  V30 5485 H 512.05 -5.97789 1.03601 0
M  V30 5486 H 510.789 -4.8561 0.450975 0
M  V30 5487 H 509.794 -4.75865 2.75378 0
M  V30 5488 H 511.019 -5.91483 3.33654 0
M  V30 5489 H 508.965 -6.45681 1.15895 0
M  V30 5490 H 508.882 -7.02462 2.79434 0
M  V30 5491 H 510.15 -7.59572 1.75129 0
M  V30 5492 N 514.379 -1.04941 -1.1758 0
M  V30 5493 C 515.656 -0.671918 -1.83697 0
M  V30 5494 C 516.036 0.847929 -1.93322 0
M  V30 5495 O 515.384 1.75287 -1.46583 0
M  V30 5496 C 515.594 -1.35797 -3.21497 0
M  V30 5497 C 516.942 -1.4944 -3.97433 0
M  V30 5498 O 517.966 -1.31678 -3.30967 0
M  V30 5499 O 516.825 -1.78463 -5.1654 0
M  V30 5500 H 513.919 -0.236212 -0.792548 0
M  V30 5501 H 516.465 -1.14884 -1.24899 0
M  V30 5502 H 515.237 -2.39498 -3.09446 0
M  V30 5503 H 514.86 -0.870236 -3.8796 0
M  V30 5504 N 515.857 1.33968 -0.830081 0
M  V30 5505 C 517.134 1.92554 -0.343858 0
M  V30 5506 C 517.514 1.7573 1.16971 0
M  V30 5507 O 516.862 1.14035 1.98011 0
M  V30 5508 C 517.072 3.40147 -0.781073 0
M  V30 5509 C 518.42 4.17299 -0.78402 0
M  V30 5510 O 519.444 3.48762 -0.724112 0
M  V30 5511 O 518.303 5.39631 -0.863739 0
M  V30 5512 H 515.397 0.821469 -0.0954827 0
M  V30 5513 H 517.943 1.42897 -0.915348 0
M  V30 5514 H 516.715 3.46225 -1.82329 0
M  V30 5515 H 516.338 3.97166 -0.18567 0
M  V30 5516 N 517.335 0.585699 1.46312 0
M  V30 5517 C 518.584 0.0701192 2.01578 0
M  V30 5518 C 518.897 -1.29889 1.46247 0
M  V30 5519 O 520.103 -1.90598 1.93351 0
M  V30 5520 C 518.559 0.0747499 3.59822 0
M  V30 5521 C 518.167 1.44226 4.24149 0
M  V30 5522 C 519.911 -0.38673 4.22735 0
M  V30 5523 C 517.818 1.40446 5.74481 0
M  V30 5524 H 516.748 0.0224441 0.753666 0
M  V30 5525 H 519.399 0.737789 1.68015 0
M  V30 5526 H 517.781 -0.659144 3.90476 0
M  V30 5527 H 518.955 2.19612 4.05101 0
M  V30 5528 H 517.27 1.84401 3.73343 0
M  V30 5529 H 519.867 -0.433853 5.32937 0
M  V30 5530 H 520.21 -1.40489 3.91878 0
M  V30 5531 H 520.743 0.293195 3.96718 0
M  V30 5532 H 517.482 2.39952 6.10003 0
M  V30 5533 H 517.002 0.692845 5.95785 0
M  V30 5534 H 518.681 1.11865 6.37256 0
M  V30 5535 N 518.813 -1.54241 0.323641 0
M  V30 5536 C 519.743 -2.27289 -0.534993 0
M  V30 5537 C 520.724 -1.28087 -1.11927 0
M  V30 5538 O 521.909 -1.56899 -1.14439 0
M  V30 5539 C 519.039 -3.03075 -1.69596 0
M  V30 5540 C 517.993 -4.09614 -1.24098 0
M  V30 5541 C 517.319 -4.73242 -2.4889 0
M  V30 5542 C 518.619 -5.21087 -0.355789 0
M  V30 5543 H 520.313 -2.99308 0.0743257 0
M  V30 5544 H 517.859 -1.43952 0.0371874 0
M  V30 5545 H 519.812 -3.52907 -2.30293 0
M  V30 5546 H 518.536 -2.28673 -2.33187 0
M  V30 5547 H 517.195 -3.60666 -0.656945 0
M  V30 5548 H 516.843 -3.95455 -3.10845 0
M  V30 5549 H 516.543 -5.45209 -2.19138 0
M  V30 5550 H 518.067 -5.25848 -3.10348 0
M  V30 5551 H 519.481 -5.66675 -0.869042 0
M  V30 5552 H 517.878 -5.9991 -0.151045 0
M  V30 5553 H 518.948 -4.81005 0.613339 0
M  V30 5554 N 520.291 -0.0518155 -1.57515 0
M  V30 5555 C 521.54 0.621286 -1.91893 0
M  V30 5556 C 521.853 1.71966 -0.932052 0
M  V30 5557 O 523.059 2.45096 -1.16791 0
M  V30 5558 C 521.515 1.15641 -3.40816 0
M  V30 5559 C 521.123 0.0901146 -4.47909 0
M  V30 5560 C 522.867 1.80472 -3.84227 0
M  V30 5561 C 520.774 0.638154 -5.87947 0
M  V30 5562 H 519.704 0.235835 -0.716169 0
M  V30 5563 H 522.355 -0.120809 -1.83102 0
M  V30 5564 H 520.737 1.95084 -3.44613 0
M  V30 5565 H 521.911 -0.683525 -4.55702 0
M  V30 5566 H 520.226 -0.460774 -4.13843 0
M  V30 5567 H 522.823 2.22471 -4.86221 0
M  V30 5568 H 523.166 2.65669 -3.20508 0
M  V30 5569 H 523.699 1.07683 -3.82948 0
M  V30 5570 H 520.438 -0.176202 -6.55263 0
M  V30 5571 H 519.958 1.37976 -5.83714 0
M  V30 5572 H 521.637 1.12085 -6.37217 0
M  V30 5573 N 521.769 1.56035 0.221574 0
M  V30 5574 C 522.699 1.95434 1.2778 0
M  V30 5575 C 523.68 0.822564 1.48889 0
M  V30 5576 O 524.865 1.08486 1.61072 0
M  V30 5577 C 521.995 2.27102 2.62759 0
M  V30 5578 C 520.949 3.4277 2.56306 0
M  V30 5579 C 520.275 3.60043 3.95314 0
M  V30 5580 C 521.575 4.77742 2.11093 0
M  V30 5581 H 523.269 2.83912 0.950504 0
M  V30 5582 H 520.815 1.36596 0.455791 0
M  V30 5583 H 522.768 2.53256 3.36807 0
M  V30 5584 H 521.492 1.35478 2.97176 0
M  V30 5585 H 520.151 3.16664 1.84715 0
M  V30 5586 H 519.799 2.65794 4.27039 0
M  V30 5587 H 519.499 4.37841 3.91879 0
M  V30 5588 H 521.023 3.88545 4.71025 0
M  V30 5589 H 522.437 5.03102 2.74885 0
M  V30 5590 H 520.834 5.58823 2.18716 0
M  V30 5591 H 521.904 4.731 1.06321 0
M  V30 5592 N 523.247 -0.488276 1.49845 0
M  V30 5593 C 524.475 -1.26527 1.63702 0
M  V30 5594 C 524.89 -1.8618 0.313447 0
M  V30 5595 O 524.247 -1.68432 -0.702624 0
M  V30 5596 C 524.298 -2.3864 2.71538 0
M  V30 5597 O 524.019 -1.81437 3.98763 0
M  V30 5598 C 525.52 -3.29805 2.96215 0
M  V30 5599 H 522.74 -0.383295 0.55075 0
M  V30 5600 H 525.284 -0.584779 1.95961 0
M  V30 5601 H 523.439 -3.02496 2.42023 0
M  V30 5602 H 523.853 -2.55135 4.58265 0
M  V30 5603 H 525.327 -4.04722 3.75372 0
M  V30 5604 H 525.804 -3.87563 2.06619 0
M  V30 5605 H 526.41 -2.71703 3.27196 0
M  V30 5606 N 524.725 -1.39134 -0.740242 0
M  V30 5607 C 525.971 -1.36273 -1.50192 0
M  V30 5608 C 526.304 0.0430136 -1.94152 0
M  V30 5609 O 525.579 1.00691 -1.66408 0
M  V30 5610 C 525.862 -2.33041 -2.74525 0
M  V30 5611 C 525.715 -3.82535 -2.36617 0
M  V30 5612 C 527.034 -2.27723 -3.76604 0
M  V30 5613 H 524.153 -0.496323 -0.544823 0
M  V30 5614 H 526.795 -1.70085 -0.846815 0
M  V30 5615 H 524.945 -2.04337 -3.30422 0
M  V30 5616 H 526.617 -4.21967 -1.86391 0
M  V30 5617 H 524.86 -3.99565 -1.68909 0
M  V30 5618 H 525.531 -4.45723 -3.2563 0
M  V30 5619 H 528.007 -2.53091 -3.30279 0
M  V30 5620 H 526.883 -2.97519 -4.61274 0
M  V30 5621 H 527.144 -1.28049 -4.2315 0
M  V30 5622 N 526.204 0.969867 -1.24223 0
M  V30 5623 C 527.62 1.23809 -1.00716 0
M  V30 5624 C 527.82 1.99469 0.285358 0
M  V30 5625 O 526.876 2.31764 1.00207 0
M  V30 5626 C 528.189 2.02734 -2.2208 0
M  V30 5627 C 529.737 2.15834 -2.26681 0
M  V30 5628 C 530.212 2.98154 -3.47661 0
M  V30 5629 N 531.703 3.05737 -3.47964 0
M  V30 5630 C 532.438 3.69785 -4.38231 0
M  V30 5631 N 531.934 4.35569 -5.3875 0
M  V30 5632 N 533.727 3.66775 -4.25949 0
M  V30 5633 H 525.878 0.463294 -2.07286 0
M  V30 5634 H 528.141 0.267348 -0.909521 0
M  V30 5635 H 527.847 1.54524 -3.15935 0
M  V30 5636 H 527.721 3.0347 -2.24021 0
M  V30 5637 H 530.108 2.63248 -1.33359 0
M  V30 5638 H 530.189 1.14453 -2.28767 0
M  V30 5639 H 529.833 2.51435 -4.41297 0
M  V30 5640 H 529.763 3.99729 -3.42818 0
M  V30 5641 H 532.254 2.58941 -2.75242 0
M  V30 5642 H 532.567 4.82251 -6.03866 0
M  V30 5643 H 530.912 4.34244 -5.42639 0
M  V30 5644 H 534.103 3.14558 -3.46657 0
M  V30 5645 H 534.276 4.16407 -4.96497 0
M  V30 5646 N 527.682 1.05563 1.17022 0
M  V30 5647 C 528.612 0.681026 2.23348 0
M  V30 5648 C 529.593 -0.322983 1.67005 0
M  V30 5649 O 530.778 -0.199746 1.9317 0
M  V30 5650 C 527.908 0.0589053 3.4725 0
M  V30 5651 C 526.862 0.988082 4.16438 0
M  V30 5652 C 526.188 0.229646 5.34207 0
M  V30 5653 C 527.488 2.31388 4.68249 0
M  V30 5654 H 529.182 1.56993 2.54938 0
M  V30 5655 H 526.728 0.756302 1.2254 0
M  V30 5656 H 528.681 -0.214982 4.20851 0
M  V30 5657 H 527.405 -0.864968 3.14938 0
M  V30 5658 H 526.064 1.24659 3.44754 0
M  V30 5659 H 525.712 -0.697111 4.98146 0
M  V30 5660 H 525.412 0.848815 5.81437 0
M  V30 5661 H 526.936 -0.0368694 6.10589 0
M  V30 5662 H 528.35 2.09964 5.33468 0
M  V30 5663 H 526.747 2.88736 5.26072 0
M  V30 5664 H 527.817 2.94982 3.84855 0
M  V30 5665 N 529.16 -1.33526 0.837174 0
M  V30 5666 C 530.123 -2.27551 0.274421 0
M  V30 5667 C 531.123 -1.50886 -0.555881 0
M  V30 5668 O 532.313 -1.70227 -0.369918 0
M  V30 5669 C 529.445 -3.35332 -0.613605 0
M  V30 5670 H 530.638 -2.78837 1.10408 0
M  V30 5671 H 528.191 -1.439 0.610126 0
M  V30 5672 H 528.926 -2.89285 -1.46577 0
M  V30 5673 H 528.711 -3.92095 -0.0195341 0
M  V30 5674 H 530.201 -4.05433 -1.00068 0
M  V30 5675 N 530.638 -0.59345 -1.46 0
M  V30 5676 C 531.884 -0.0832754 -2.02629 0
M  V30 5677 C 532.217 1.27749 -1.46266 0
M  V30 5678 O 531.492 1.8395 -0.631866 0
M  V30 5679 C 531.775 -0.0290756 -3.60088 0
M  V30 5680 C 531.628 -1.41951 -4.26814 0
M  V30 5681 C 532.947 0.666055 -4.35031 0
M  V30 5682 H 530.066 -0.031736 -0.736316 0
M  V30 5683 H 532.708 -0.762711 -1.74019 0
M  V30 5684 H 530.858 0.549532 -3.84594 0
M  V30 5685 H 532.53 -2.04411 -4.13538 0
M  V30 5686 H 530.773 -1.98422 -3.8576 0
M  V30 5687 H 531.444 -1.33395 -5.3564 0
M  V30 5688 H 533.92 0.174401 -4.15734 0
M  V30 5689 H 532.796 0.673041 -5.44758 0
M  V30 5690 H 533.057 1.72946 -4.06869 0
M  V30 5691 N 532.116 1.54067 -0.331816 0
M  V30 5692 C 533.365 1.99895 0.269209 0
M  V30 5693 C 533.678 1.22371 1.52593 0
M  V30 5694 O 534.884 1.58618 2.20347 0
M  V30 5695 C 533.34 3.55972 0.530244 0
M  V30 5696 C 532.948 4.4234 -0.709901 0
M  V30 5697 C 534.692 4.10247 1.09077 0
M  V30 5698 C 532.599 5.89905 -0.420312 0
M  V30 5699 H 531.529 0.746741 0.104371 0
M  V30 5700 H 534.18 1.78014 -0.445324 0
M  V30 5701 H 532.562 3.73873 1.30518 0
M  V30 5702 H 533.736 4.36215 -1.48504 0
M  V30 5703 H 532.051 3.98997 -1.19123 0
M  V30 5704 H 534.648 5.18095 1.32219 0
M  V30 5705 H 534.991 3.62739 2.0427 0
M  V30 5706 H 535.524 3.96011 0.376824 0
M  V30 5707 H 532.263 6.41623 -1.34164 0
M  V30 5708 H 531.783 5.98962 0.316962 0
M  V30 5709 H 533.462 6.46991 -0.0331956 0
M  V30 5710 N 533.594 0.0601682 1.57485 0
M  V30 5711 C 534.84 -0.612501 1.93329 0
M  V30 5712 C 535.173 -1.6996 0.939526 0
M  V30 5713 O 534.448 -1.94472 -0.0330957 0
M  V30 5714 C 534.731 -1.20025 3.39508 0
M  V30 5715 C 534.584 -0.12059 4.49638 0
M  V30 5716 C 535.903 -2.10923 3.86264 0
M  V30 5717 H 533.022 -0.221185 0.703027 0
M  V30 5718 H 535.664 0.123768 1.89596 0
M  V30 5719 H 533.814 -1.82774 3.42821 0
M  V30 5720 H 535.486 0.51185 4.58452 0
M  V30 5721 H 533.729 0.550251 4.30296 0
M  V30 5722 H 534.4 -0.572019 5.49028 0
M  V30 5723 H 536.876 -1.58124 3.84884 0
M  V30 5724 H 535.752 -2.48987 4.8918 0
M  V30 5725 H 536.013 -3.01292 3.23536 0
M  V30 5726 N 535.072 -1.5615 -0.213296 0
M  V30 5727 C 536.035 -1.92249 -1.24792 0
M  V30 5728 C 537.035 -0.801828 -1.39382 0
M  V30 5729 O 538.225 -1.06948 -1.37506 0
M  V30 5730 C 535.357 -2.18056 -2.62039 0
M  V30 5731 H 536.55 -2.84793 -0.939845 0
M  V30 5732 H 534.103 -1.49559 -0.454062 0
M  V30 5733 H 534.838 -1.2809 -2.97932 0
M  V30 5734 H 534.623 -2.99703 -2.52825 0
M  V30 5735 H 536.113 -2.47051 -3.36683 0
M  V30 5736 N 536.55 0.480323 -1.50102 0
M  V30 5737 C 537.796 1.23489 -1.60867 0
M  V30 5738 C 538.129 1.91809 -0.303827 0
M  V30 5739 O 537.404 1.81694 0.694092 0
M  V30 5740 C 537.687 2.28578 -2.78252 0
M  V30 5741 C 537.54 1.64624 -4.18592 0
M  V30 5742 C 538.859 3.2997 -2.91218 0
M  V30 5743 H 535.978 0.447605 -0.585507 0
M  V30 5744 H 538.62 0.530005 -1.82458 0
M  V30 5745 H 536.77 2.88697 -2.59974 0
M  V30 5746 H 538.442 1.08173 -4.48438 0
M  V30 5747 H 536.685 0.949645 -4.23278 0
M  V30 5748 H 537.356 2.40946 -4.96638 0
M  V30 5749 H 539.832 2.79864 -3.07921 0
M  V30 5750 H 538.708 4.00839 -3.74993 0
M  V30 5751 H 538.969 3.93541 -2.0144 0
M  V30 5752 N 538.028 1.39524 0.732853 0
M  V30 5753 C 539.277 1.36175 1.48792 0
M  V30 5754 C 539.59 -0.0388195 1.95561 0
M  V30 5755 O 540.796 -0.194899 2.708 0
M  V30 5756 C 539.252 2.39242 2.68871 0
M  V30 5757 C 538.86 3.85024 2.29042 0
M  V30 5758 C 540.604 2.44972 3.46683 0
M  V30 5759 C 538.511 4.79727 3.45856 0
M  V30 5760 H 537.441 0.506267 0.558757 0
M  V30 5761 H 540.092 1.65181 0.799226 0
M  V30 5762 H 538.474 2.0331 3.39825 0
M  V30 5763 H 539.648 4.30008 1.6562 0
M  V30 5764 H 537.963 3.82609 1.64316 0
M  V30 5765 H 540.56 3.12918 4.33574 0
M  V30 5766 H 540.903 1.4749 3.89297 0
M  V30 5767 H 541.436 2.79808 2.82759 0
M  V30 5768 H 538.175 5.78479 3.08289 0
M  V30 5769 H 537.695 4.39421 4.08251 0
M  V30 5770 H 539.374 4.98731 4.12161 0
M  V30 5771 N 539.506 -0.963266 1.24736 0
M  V30 5772 C 540.436 -2.07628 1.06832 0
M  V30 5773 C 541.417 -1.70088 -0.0200566 0
M  V30 5774 O 542.602 -1.93636 0.147854 0
M  V30 5775 C 539.732 -3.40636 0.677069 0
M  V30 5776 C 538.686 -3.9215 1.71471 0
M  V30 5777 C 538.012 -5.21553 1.1784 0
M  V30 5778 C 539.312 -4.19493 3.11164 0
M  V30 5779 H 541.006 -2.22864 1.9993 0
M  V30 5780 H 538.552 -1.07093 0.96266 0
M  V30 5781 H 540.505 -4.17941 0.538792 0
M  V30 5782 H 539.229 -3.25313 -0.289612 0
M  V30 5783 H 537.888 -3.17005 1.84128 0
M  V30 5784 H 537.536 -5.02593 0.202195 0
M  V30 5785 H 537.236 -5.56988 1.87185 0
M  V30 5786 H 538.76 -6.01463 1.05233 0
M  V30 5787 H 540.174 -4.87487 3.01711 0
M  V30 5788 H 538.571 -4.66165 3.77902 0
M  V30 5789 H 539.641 -3.26097 3.58871 0
M  V30 5790 N 540.985 -1.06182 -1.16461 0
M  V30 5791 C 542.213 -0.798583 -1.90867 0
M  V30 5792 C 542.628 0.646921 -1.77371 0
M  V30 5793 O 541.985 1.44279 -1.11758 0
M  V30 5794 C 542.036 -1.18258 -3.4161 0
M  V30 5795 O 541.757 -2.57135 -3.54701 0
M  V30 5796 C 543.258 -0.946917 -4.33069 0
M  V30 5797 H 540.478 -0.289603 -0.605286 0
M  V30 5798 H 543.022 -1.41515 -1.47627 0
M  V30 5799 H 541.177 -0.610562 -3.82558 0
M  V30 5800 H 541.591 -2.72477 -4.4817 0
M  V30 5801 H 543.065 -1.26523 -5.37304 0
M  V30 5802 H 543.542 0.117406 -4.39043 0
M  V30 5803 H 544.148 -1.50326 -3.97847 0
M  V30 5804 N 542.463 1.3308 -0.844243 0
M  V30 5805 C 543.709 1.97898 -0.443206 0
M  V30 5806 C 544.042 1.66699 0.99625 0
M  V30 5807 O 543.317 0.949704 1.69738 0
M  V30 5808 C 543.6 3.53801 -0.670606 0
M  V30 5809 C 543.453 3.94667 -2.15772 0
M  V30 5810 C 544.772 4.39936 -0.120226 0
M  V30 5811 H 541.891 0.718861 -0.162504 0
M  V30 5812 H 544.533 1.57633 -1.06075 0
M  V30 5813 H 542.683 3.88229 -0.14496 0
M  V30 5814 H 544.355 3.70469 -2.74865 0
M  V30 5815 H 542.598 3.44203 -2.6402 0
M  V30 5816 H 543.269 5.03275 -2.26757 0
M  V30 5817 H 545.745 4.12183 -0.5696 0
M  V30 5818 H 544.621 5.4803 -0.308984 0
M  V30 5819 H 544.882 4.31184 0.976347 0
M  V30 5820 N 543.941 0.601185 1.45683 0
M  V30 5821 C 545.352 0.179659 1.85834 0
M  V30 5822 C 545.703 -1.26189 1.50236 0
M  V30 5823 O 544.828 -1.95587 0.925987 0
M  V30 5824 C 545.423 0.319277 3.37292 0
M  V30 5825 C 543.982 -0.0475092 3.7637 0
M  V30 5826 C 543.129 0.646692 2.69654 0
M  V30 5827 H 546.08 0.808268 1.36575 0
M  V30 5828 H 546.101 -0.4503 3.77826 0
M  V30 5829 H 545.613 1.36855 3.6317 0
M  V30 5830 H 543.714 -1.0962 3.5611 0
M  V30 5831 H 543.827 0.34168 4.7788 0
M  V30 5832 H 542.191 0.0849971 2.54558 0
M  V30 5833 H 542.974 1.69797 2.98369 0
M  V30 5834 N 545.419 -1.53889 0.339982 0
M  V30 5835 C 546.665 -2.01152 -0.258003 0
M  V30 5836 C 546.998 -1.22749 -1.50487 0
M  V30 5837 O 546.273 -0.314156 -1.91946 0
M  V30 5838 C 546.556 -3.55468 -0.575717 0
M  V30 5839 C 546.409 -4.44584 0.682996 0
M  V30 5840 C 547.728 -4.1768 -1.38677 0
M  V30 5841 H 544.847 -0.731198 -0.0922992 0
M  V30 5842 H 547.489 -1.84352 0.459814 0
M  V30 5843 H 545.639 -3.69914 -1.18725 0
M  V30 5844 H 547.311 -4.41981 1.32102 0
M  V30 5845 H 545.554 -4.13592 1.3086 0
M  V30 5846 H 546.225 -5.5043 0.416001 0
M  V30 5847 H 548.701 -4.0691 -0.869705 0
M  V30 5848 H 547.577 -5.25734 -1.57783 0
M  V30 5849 H 547.838 -3.72069 -2.38782 0
M  V30 5850 N 546.897 -0.0685191 -1.57451 0
M  V30 5851 C 547.827 0.89747 -2.15564 0
M  V30 5852 C 548.808 1.31266 -1.08181 0
M  V30 5853 O 549.993 1.38429 -1.36202 0
M  V30 5854 C 547.123 2.16623 -2.71463 0
M  V30 5855 C 546.077 1.89054 -3.83982 0
M  V30 5856 C 545.403 3.22532 -4.26471 0
M  V30 5857 C 546.703 1.1984 -5.08366 0
M  V30 5858 H 548.397 0.413373 -2.96533 0
M  V30 5859 H 545.943 0.197391 -1.42641 0
M  V30 5860 H 547.896 2.84614 -3.10761 0
M  V30 5861 H 546.62 2.67269 -1.8771 0
M  V30 5862 H 545.279 1.23469 -3.45183 0
M  V30 5863 H 544.927 3.71013 -3.39644 0
M  V30 5864 H 544.627 3.04879 -5.02317 0
M  V30 5865 H 546.151 3.91727 -4.68383 0
M  V30 5866 H 547.565 1.77896 -5.45001 0
M  V30 5867 H 545.962 1.12456 -5.89469 0
M  V30 5868 H 547.032 0.176996 -4.84577 0
M  V30 5869 N 548.375 1.56261 0.205012 0
M  V30 5870 C 549.622 1.8004 0.926927 0
M  V30 5871 C 549.95 0.640086 1.83666 0
M  V30 5872 O 549.205 -0.374702 1.92079 0
M  V30 5873 C 549.504 3.09722 1.78345 0
M  V30 5874 C 549.17 4.39082 1.02555 0
M  V30 5875 C 547.832 4.74226 0.816256 0
M  V30 5876 C 550.184 5.18877 0.491559 0
M  V30 5877 C 547.512 5.86668 0.0613287 0
M  V30 5878 C 549.864 6.32105 -0.250107 0
M  V30 5879 C 548.528 6.6584 -0.470508 0
M  V30 5880 H 547.798 0.658812 0.339187 0
M  V30 5881 H 550.445 1.90515 0.19395 0
M  V30 5882 H 548.75 2.9444 2.5848 0
M  V30 5883 H 550.447 3.25324 2.34446 0
M  V30 5884 H 547.037 4.11497 1.19868 0
M  V30 5885 H 551.221 4.92147 0.640684 0
M  V30 5886 H 546.477 6.11283 -0.119501 0
M  V30 5887 H 550.651 6.93157 -0.671307 0
M  V30 5888 H 548.278 7.5281 -1.05739 0
M  V30 5889 N 549.853 -0.472356 1.50355 0
M  V30 5890 C 551.1 -1.22453 1.61281 0
M  V30 5891 C 551.428 -1.91972 0.31256 0
M  V30 5892 O 550.683 -1.82696 -0.701475 0
M  V30 5893 C 550.982 -2.29257 2.74182 0
M  V30 5894 C 550.648 -1.76999 4.14708 0
M  V30 5895 C 549.31 -1.62467 4.52944 0
M  V30 5896 C 551.662 -1.38215 5.0254 0
M  V30 5897 C 548.99 -1.07574 5.76754 0
M  V30 5898 C 551.342 -0.847638 6.26895 0
M  V30 5899 C 550.006 -0.688946 6.63935 0
M  V30 5900 H 549.276 -0.448087 0.590168 0
M  V30 5901 H 551.923 -0.520744 1.84284 0
M  V30 5902 H 550.228 -3.05538 2.45263 0
M  V30 5903 H 551.925 -2.87212 2.7984 0
M  V30 5904 H 548.515 -1.89276 3.84542 0
M  V30 5905 H 552.699 -1.48276 4.73633 0
M  V30 5906 H 547.955 -0.940237 6.04127 0
M  V30 5907 H 552.129 -0.538455 6.94315 0
M  V30 5908 H 549.756 -0.261435 7.5975 0
M  V30 5909 N 551.331 -1.39911 -0.725443 0
M  V30 5910 C 552.559 -1.40949 -1.51463 0
M  V30 5911 C 552.974 -0.0065242 -1.88799 0
M  V30 5912 O 552.331 0.967163 -1.54765 0
M  V30 5913 C 552.382 -2.29119 -2.79619 0
M  V30 5914 O 552.103 -3.63952 -2.43866 0
M  V30 5915 C 553.604 -2.38642 -3.73584 0
M  V30 5916 H 550.824 -0.481091 -0.467752 0
M  V30 5917 H 553.368 -1.83843 -0.895651 0
M  V30 5918 H 551.523 -1.89612 -3.37826 0
M  V30 5919 H 551.937 -4.10677 -3.26258 0
M  V30 5920 H 553.411 -3.04563 -4.60375 0
M  V30 5921 H 553.888 -1.40846 -4.16004 0
M  V30 5922 H 554.494 -2.78659 -3.21293 0
M  V30 5923 N 552.809 0.956637 -1.25245 0
M  V30 5924 C 554.055 1.70352 -1.10036 0
M  V30 5925 C 554.388 1.90869 0.358156 0
M  V30 5926 O 553.663 1.47819 1.26411 0
M  V30 5927 C 553.946 3.08766 -1.85298 0
M  V30 5928 C 553.799 2.95672 -3.38966 0
M  V30 5929 C 555.118 4.08622 -1.63451 0
M  V30 5930 H 552.237 0.618279 -0.401123 0
M  V30 5931 H 554.879 1.11212 -1.54051 0
M  V30 5932 H 553.029 3.59252 -1.47887 0
M  V30 5933 H 554.701 2.52527 -3.86041 0
M  V30 5934 H 552.944 2.31634 -3.6678 0
M  V30 5935 H 553.615 3.93776 -3.86839 0
M  V30 5936 H 556.091 3.67038 -1.96015 0
M  V30 5937 H 554.967 5.03514 -2.18551 0
M  V30 5938 H 555.228 4.3834 -0.575357 0
M  V30 5939 N 554.287 1.06798 1.15896 0
M  V30 5940 C 555.703 0.792423 1.38538 0
M  V30 5941 C 555.903 -0.60592 1.92174 0
M  V30 5942 O 554.959 -1.36561 2.12385 0
M  V30 5943 C 556.272 1.86157 2.36149 0
M  V30 5944 C 557.82 1.88567 2.49823 0
M  V30 5945 C 558.295 2.9455 3.5072 0
M  V30 5946 N 559.786 2.93616 3.58251 0
M  V30 5947 C 560.521 3.72267 4.36125 0
M  V30 5948 N 560.017 4.60751 5.17379 0
M  V30 5949 N 561.81 3.60637 4.31158 0
M  V30 5950 H 553.961 1.96993 0.794198 0
M  V30 5951 H 556.224 0.853942 0.411688 0
M  V30 5952 H 555.93 2.86603 2.03843 0
M  V30 5953 H 555.804 1.71692 3.3586 0
M  V30 5954 H 558.191 0.887765 2.8143 0
M  V30 5955 H 558.272 2.0711 1.5013 0
M  V30 5956 H 557.916 3.94537 3.19849 0
M  V30 5957 H 557.846 2.73255 4.50155 0
M  V30 5958 H 560.337 2.29472 3.00252 0
M  V30 5959 H 560.65 5.17408 5.74028 0
M  V30 5960 H 558.995 4.64803 5.16704 0
M  V30 5961 H 562.186 2.90892 3.66742 0
M  V30 5962 H 562.359 4.22176 4.91601 0
M  V30 5963 N 555.766 -1.3263 0.851289 0
M  V30 5964 C 556.991 -2.02097 0.466006 0
M  V30 5965 C 557.416 -1.63574 -0.928709 0
M  V30 5966 O 556.774 -0.834665 -1.60944 0
M  V30 5967 C 556.822 -3.55425 0.608737 0
M  V30 5968 O 555.926 -4.10827 -0.359878 0
M  V30 5969 H 555.267 -0.636911 0.187724 0
M  V30 5970 H 557.797 -1.69253 1.14955 0
M  V30 5971 H 557.807 -4.04986 0.495006 0
M  V30 5972 H 556.482 -3.82806 1.62581 0
M  V30 5973 H 555.059 -3.72349 -0.202666 0
M  V30 5974 N 557.244 -0.608902 -1.45362 0
M  V30 5975 C 558.469 -0.10921 -2.07112 0
M  V30 5976 C 558.894 1.19779 -1.45033 0
M  V30 5977 O 558.252 1.72961 -0.543527 0
M  V30 5978 C 558.3 0.0155745 -3.60597 0
M  V30 5979 O 557.404 1.06546 -3.98399 0
M  V30 5980 H 556.745 -0.0746619 -0.659789 0
M  V30 5981 H 559.275 -0.839283 -1.86594 0
M  V30 5982 H 559.285 0.213364 -4.07442 0
M  V30 5983 H 557.96 -0.938765 -4.05167 0
M  V30 5984 H 556.537 0.844024 -3.63223 0
M  V30 5985 N 558.722 1.53707 -0.348139 0
M  V30 5986 C 559.652 2.28111 0.498766 0
M  V30 5987 C 560.633 1.29851 1.09876 0
M  V30 5988 O 561.818 1.587 1.11928 0
M  V30 5989 C 558.948 3.05735 1.64753 0
M  V30 5990 C 557.902 4.11537 1.17565 0
M  V30 5991 C 557.228 4.77142 2.4133 0
M  V30 5992 C 558.528 5.21587 0.272844 0
M  V30 5993 H 560.222 2.99152 -0.121934 0
M  V30 5994 H 557.768 1.43875 -0.0600842 0
M  V30 5995 H 559.721 3.56526 2.24649 0
M  V30 5996 H 558.445 2.32354 2.2952 0
M  V30 5997 H 557.104 3.61665 0.599483 0
M  V30 5998 H 556.752 4.0035 3.04514 0
M  V30 5999 H 556.452 5.48626 2.10436 0
M  V30 6000 H 557.976 5.30719 3.01943 0
M  V30 6001 H 559.39 5.67986 0.778779 0
M  V30 6002 H 557.787 6.00074 0.0555849 0
M  V30 6003 H 558.857 4.79969 -0.689785 0
M  V30 6004 N 560.2 0.0768682 1.57412 0
M  V30 6005 C 561.447 -0.591085 1.93681 0
M  V30 6006 C 561.775 -1.69311 0.957286 0
M  V30 6007 O 561.03 -1.95682 -0.0262428 0
M  V30 6008 C 561.329 -1.20268 3.36557 0
M  V30 6009 C 560.995 -0.226286 4.50332 0
M  V30 6010 C 559.657 0.0423142 4.81181 0
M  V30 6011 C 562.009 0.441415 5.19327 0
M  V30 6012 C 559.337 0.985616 5.78362 0
M  V30 6013 C 561.689 1.37307 6.17519 0
M  V30 6014 C 560.353 1.65009 6.46783 0
M  V30 6015 H 559.623 -0.216293 0.70873 0
M  V30 6016 H 562.27 0.148824 1.90921 0
M  V30 6017 H 560.575 -2.01844 3.35807 0
M  V30 6018 H 562.272 -1.72688 3.61911 0
M  V30 6019 H 558.862 -0.445821 4.26275 0
M  V30 6020 H 563.046 0.247023 4.95685 0
M  V30 6021 H 558.302 1.20743 5.99359 0
M  V30 6022 H 562.476 1.89637 6.70083 0
M  V30 6023 H 560.103 2.38263 7.21897 0
M  V30 6024 N 561.678 -1.56367 -0.196722 0
M  V30 6025 C 562.588 -1.97617 -1.2643 0
M  V30 6026 C 563.604 -0.883598 -1.49895 0
M  V30 6027 O 564.78 -1.18921 -1.62541 0
M  V30 6028 C 561.845 -2.30595 -2.58895 0
M  V30 6029 C 560.906 -3.53551 -2.43516 0
M  V30 6030 C 560.139 -3.84946 -3.69665 0
M  V30 6031 O 560.362 -3.17655 -4.73763 0
M  V30 6032 O 559.296 -4.78379 -3.65291 0
M  V30 6033 H 563.122 -2.88648 -0.944233 0
M  V30 6034 H 560.707 -1.43901 -0.401592 0
M  V30 6035 H 562.589 -2.52889 -3.37083 0
M  V30 6036 H 561.264 -1.42732 -2.90533 0
M  V30 6037 H 560.171 -3.36507 -1.63445 0
M  V30 6038 H 561.504 -4.41875 -2.16812 0
M  V30 6039 N 563.156 0.464375 -1.50603 0
M  V30 6040 C 564.086 1.56944 -1.72889 0
M  V30 6041 C 565.067 1.59979 -0.577997 0
M  V30 6042 O 566.252 1.76138 -0.817855 0
M  V30 6043 C 563.382 2.95225 -1.8292 0
M  V30 6044 C 562.336 3.07056 -2.98162 0
M  V30 6045 C 561.662 4.47051 -2.93343 0
M  V30 6046 C 562.962 2.83648 -4.38567 0
M  V30 6047 H 564.656 1.38547 -2.65415 0
M  V30 6048 H 562.202 0.665082 -1.27721 0
M  V30 6049 H 564.155 3.72467 -1.97095 0
M  V30 6050 H 562.879 3.14793 -0.870209 0
M  V30 6051 H 561.538 2.32248 -2.83648 0
M  V30 6052 H 561.186 4.63547 -1.95276 0
M  V30 6053 H 560.886 4.55902 -3.70712 0
M  V30 6054 H 562.41 5.26304 -3.09575 0
M  V30 6055 H 563.824 3.50636 -4.53572 0
M  V30 6056 H 562.221 3.03937 -5.17438 0
M  V30 6057 H 563.291 1.79451 -4.50472 0
M  V30 6058 N 564.634 1.40294 0.718013 0
M  V30 6059 C 565.597 1.4012 1.81381 0
M  V30 6060 C 566.597 0.295405 1.58063 0
M  V30 6061 O 567.787 0.554187 1.6515 0
M  V30 6062 C 564.919 1.19056 3.19435 0
M  V30 6063 H 566.112 2.37645 1.82933 0
M  V30 6064 H 563.665 1.26107 0.923405 0
M  V30 6065 H 564.4 0.222809 3.23534 0
M  V30 6066 H 564.185 1.99152 3.37758 0
M  V30 6067 H 565.675 1.21716 3.99468 0
M  V30 6068 N 566.112 -0.949982 1.2575 0
M  V30 6069 C 567.059 -2.04738 1.06541 0
M  V30 6070 C 568.029 -1.66078 -0.0268818 0
M  V30 6071 O 569.214 -1.90348 0.131196 0
M  V30 6072 C 566.354 -3.38027 0.695127 0
M  V30 6073 C 565.467 -3.89776 1.86276 0
M  V30 6074 C 564.602 -5.11411 1.4364 0
M  V30 6075 C 563.641 -5.554 2.57287 0
M  V30 6076 N 562.778 -6.68244 2.15395 0
M  V30 6077 H 567.618 -2.20502 2.00457 0
M  V30 6078 H 565.155 -1.0805 0.998178 0
M  V30 6079 H 567.113 -4.14641 0.461375 0
M  V30 6080 H 565.743 -3.22135 -0.207046 0
M  V30 6081 H 564.795 -3.0964 2.20969 0
M  V30 6082 H 566.107 -4.18368 2.71606 0
M  V30 6083 H 565.261 -5.95457 1.16257 0
M  V30 6084 H 564 -4.84545 0.553879 0
M  V30 6085 H 563.005 -4.69916 2.85409 0
M  V30 6086 H 564.23 -5.84272 3.46125 0
M  V30 6087 H 562.176 -6.43078 1.29565 0
M  V30 6088 H 562.093 -6.96377 2.94272 0
M  V30 6089 H 563.361 -7.55687 1.91201 0
M  V30 6090 N 567.59 -1.07411 -1.15328 0
M  V30 6091 C 568.537 -0.694995 -2.20087 0
M  V30 6092 C 569.507 0.313904 -1.63107 0
M  V30 6093 O 570.692 0.200216 -1.89747 0
M  V30 6094 C 567.832 -0.0996218 -3.44956 0
M  V30 6095 C 566.945 -1.16007 -4.16133 0
M  V30 6096 C 566.08 -0.529636 -5.28553 0
M  V30 6097 C 565.119 -1.57283 -5.91548 0
M  V30 6098 N 564.256 -0.964932 -6.95438 0
M  V30 6099 H 569.096 -1.5927 -2.51867 0
M  V30 6100 H 566.633 -0.796115 -1.23695 0
M  V30 6101 H 568.591 0.263197 -4.16369 0
M  V30 6102 H 567.221 0.761435 -3.13691 0
M  V30 6103 H 566.273 -1.64045 -3.4321 0
M  V30 6104 H 567.585 -1.95101 -4.59061 0
M  V30 6105 H 566.739 -0.114487 -6.06592 0
M  V30 6106 H 565.478 0.29307 -4.86819 0
M  V30 6107 H 564.483 -1.99775 -5.12221 0
M  V30 6108 H 565.708 -2.39783 -6.35359 0
M  V30 6109 H 563.654 -0.16314 -6.55797 0
M  V30 6110 H 563.571 -1.69311 -7.36797 0
M  V30 6111 H 564.839 -0.575305 -7.77374 0
M  V30 6112 N 569.068 1.32177 -0.85831 0
M  V30 6113 C 570.296 2.01313 -0.477582 0
M  V30 6114 C 570.711 1.6449 0.926736 0
M  V30 6115 O 570.068 0.868096 1.60531 0
M  V30 6116 C 570.119 3.56293 -0.611337 0
M  V30 6117 O 569.84 3.91794 -1.96034 0
M  V30 6118 C 571.341 4.42702 -0.230093 0
M  V30 6119 H 568.561 0.644323 -0.187322 0
M  V30 6120 H 571.105 1.68674 -1.15626 0
M  V30 6121 H 569.26 3.87395 0.0196494 0
M  V30 6122 H 569.674 4.86513 -1.95973 0
M  V30 6123 H 571.148 5.50727 -0.374674 0
M  V30 6124 H 571.625 4.3129 0.829779 0
M  V30 6125 H 572.231 4.16997 -0.836302 0
M  V30 6126 N 570.547 0.616602 1.45037 0
M  V30 6127 C 571.494 -0.0969439 2.30596 0
M  V30 6128 C 572.464 -0.851151 1.42635 0
M  V30 6129 O 573.649 -0.835092 1.71554 0
M  V30 6130 C 570.789 -1.08234 3.27688 0
M  V30 6131 C 569.902 -0.328072 4.30752 0
M  V30 6132 C 569.037 -1.30399 5.14946 0
M  V30 6133 C 568.076 -0.538049 6.09731 0
M  V30 6134 N 567.213 -1.46371 6.86673 0
M  V30 6135 H 572.053 0.63864 2.91076 0
M  V30 6136 H 569.59 0.326733 1.43425 0
M  V30 6137 H 571.548 -1.66688 3.82454 0
M  V30 6138 H 570.178 -1.78523 2.68941 0
M  V30 6139 H 569.23 0.372136 3.78575 0
M  V30 6140 H 570.542 0.269142 4.98073 0
M  V30 6141 H 569.696 -1.96032 5.74157 0
M  V30 6142 H 568.435 -1.93514 4.47665 0
M  V30 6143 H 567.44 0.131852 5.49642 0
M  V30 6144 H 568.665 0.0881732 6.79043 0
M  V30 6145 H 566.611 -2.08233 6.22073 0
M  V30 6146 H 566.528 -0.920152 7.50379 0
M  V30 6147 H 567.796 -2.10932 7.50418 0
M  V30 6148 N 572.025 -1.5352 0.356285 0
M  V30 6149 C 573.272 -2.01117 -0.236303 0
M  V30 6150 C 573.6 -1.24381 -1.49531 0
M  V30 6151 O 572.855 -0.323057 -1.93015 0
M  V30 6152 C 573.154 -3.52607 -0.583369 0
M  V30 6153 C 572.82 -4.47151 0.58023 0
M  V30 6154 C 571.482 -4.72718 0.899528 0
M  V30 6155 C 573.834 -5.03137 1.36024 0
M  V30 6156 C 571.162 -5.51523 2.00098 0
M  V30 6157 C 573.514 -5.83145 2.45204 0
M  V30 6158 C 572.178 -6.07001 2.77679 0
M  V30 6159 H 571.448 -0.735938 -0.0864695 0
M  V30 6160 H 574.095 -1.85209 0.48683 0
M  V30 6161 H 572.4 -3.66413 -1.38739 0
M  V30 6162 H 574.097 -3.86901 -1.05397 0
M  V30 6163 H 570.687 -4.27394 0.321322 0
M  V30 6164 H 574.871 -4.83339 1.12682 0
M  V30 6165 H 570.127 -5.68229 2.25668 0
M  V30 6166 H 574.301 -6.25537 3.06067 0
M  V30 6167 H 571.928 -6.67851 3.63151 0
M  V30 6168 N 573.503 -0.0852151 -1.57369 0
M  V30 6169 C 574.451 0.894856 -2.14698 0
M  V30 6170 C 575.445 1.29903 -1.08727 0
M  V30 6171 O 576.651 1.27471 -1.27088 0
M  V30 6172 H 573.026 0.306569 -0.686673 0
M  V30 6173 H 574.997 0.386542 -2.95886 0
M  V30 6174 C 573.746 2.14798 -2.73417 0
M  V30 6175 H 573.069 1.84585 -3.54638 0
M  V30 6176 H 574.509 2.81456 -3.1711 0
M  V30 6177 C 572.968 2.91546 -1.68828 0
M  V30 6178 O 573.498 3.85733 -1.12129 0
M  V30 6179 N 571.704 2.54901 -1.39549 0
M  V30 6180 H 571.251 1.7838 -1.85845 0
M  V30 6181 H 571.209 3.06553 -0.698054 0
M  V30 6182 N 574.981 1.5647 0.188427 0
M  V30 6183 C 575.911 1.98101 1.23606 0
M  V30 6184 C 576.892 0.853961 1.47111 0
M  V30 6185 O 578.077 1.11879 1.58735 0
M  V30 6186 C 575.207 2.32624 2.57882 0
M  V30 6187 C 574.161 3.48129 2.48978 0
M  V30 6188 C 573.487 3.68347 3.87588 0
M  V30 6189 C 574.787 4.82112 2.00911 0
M  V30 6190 H 576.481 2.85864 0.890068 0
M  V30 6191 H 574.027 1.37532 0.426714 0
M  V30 6192 H 575.98 2.60343 3.3136 0
M  V30 6193 H 574.704 1.41751 2.94235 0
M  V30 6194 H 573.363 3.20511 1.77956 0
M  V30 6195 H 573.011 2.74793 4.21305 0
M  V30 6196 H 572.711 4.46055 3.82503 0
M  V30 6197 H 574.235 3.98449 4.62678 0
M  V30 6198 H 575.649 5.08819 2.64151 0
M  V30 6199 H 574.046 5.63337 2.06814 0
M  V30 6200 H 575.116 4.75249 0.96262 0
M  V30 6201 N 576.459 -0.456382 1.50847 0
M  V30 6202 C 577.699 -1.21704 1.64218 0
M  V30 6203 C 578.063 -1.88932 0.341859 0
M  V30 6204 O 579.264 -2.66497 0.351137 0
M  V30 6205 C 577.535 -2.22162 2.79962 0
M  V30 6206 S 579.094 -3.0697 3.13552 0
M  V30 6207 H 575.912 -0.412995 0.578754 0
M  V30 6208 H 578.514 -0.511637 1.88686 0
M  V30 6209 H 577.218 -1.71379 3.72904 0
M  V30 6210 H 576.749 -2.9731 2.57624 0
M  V30 6211 H 578.764 -4.23539 2.58513 0
M  V30 6212 N 577.937 -1.40673 -0.710563 0
M  V30 6213 C 579.353 -1.22813 -1.01928 0
M  V30 6214 C 579.553 -0.10687 -2.01216 0
M  V30 6215 O 578.609 0.533614 -2.46797 0
M  V30 6216 C 579.922 -2.57178 -1.5582 0
M  V30 6217 C 581.47 -2.64233 -1.67779 0
M  V30 6218 C 581.945 -3.98879 -2.25076 0
M  V30 6219 N 583.436 -4.00647 -2.32456 0
M  V30 6220 C 584.171 -5.01621 -2.77784 0
M  V30 6221 N 583.667 -6.12989 -3.22826 0
M  V30 6222 N 585.46 -4.88988 -2.77213 0
M  V30 6223 H 577.611 -2.12335 -0.05253 0
M  V30 6224 H 579.874 -0.9441 -0.085898 0
M  V30 6225 H 579.58 -3.39903 -0.903249 0
M  V30 6226 H 579.454 -2.78618 -2.54267 0
M  V30 6227 H 581.841 -1.81876 -2.3239 0
M  V30 6228 H 581.922 -2.46619 -0.679178 0
M  V30 6229 H 581.566 -4.81678 -1.61086 0
M  V30 6230 H 581.496 -4.13826 -3.25661 0
M  V30 6231 H 583.987 -3.20231 -2.0065 0
M  V30 6232 H 584.3 -6.85921 -3.55995 0
M  V30 6233 H 582.645 -6.16547 -3.20773 0
M  V30 6234 H 585.836 -4.01075 -2.41363 0
M  V30 6235 H 586.009 -5.67822 -3.12221 0
M  V30 6236 N 579.415 0.9433 -1.26252 0
M  V30 6237 C 580.365 2.02746 -1.04297 0
M  V30 6238 C 581.349 1.60882 0.0239435 0
M  V30 6239 O 582.541 1.75947 -0.192757 0
M  V30 6240 C 579.67 3.36585 -0.6757 0
M  V30 6241 C 578.756 3.84939 -1.77996 0
M  V30 6242 N 579.147 4.05966 -3.01704 0
M  V30 6243 C 577.445 4.13833 -1.66308 0
M  V30 6244 C 578.146 4.45987 -3.73458 0
M  V30 6245 N 577.122 4.52569 -3.01135 0
M  V30 6246 H 580.924 2.17012 -1.98199 0
M  V30 6247 H 578.438 1.12898 -1.16738 0
M  V30 6248 H 580.435 4.13896 -0.499571 0
M  V30 6249 H 579.095 3.2369 0.255863 0
M  V30 6250 H 580.106 3.92716 -3.37631 0
M  V30 6251 H 576.783 4.09739 -0.801267 0
M  V30 6252 H 578.173 4.70465 -4.79701 0
M  V30 6253 N 580.893 1.08022 1.14757 0
M  V30 6254 C 582.121 0.828847 1.89572 0
M  V30 6255 C 582.536 -0.618621 1.78377 0
M  V30 6256 O 581.893 -1.42482 1.1404 0
M  V30 6257 C 581.944 1.23677 3.39685 0
M  V30 6258 O 581.665 2.62746 3.50566 0
M  V30 6259 C 583.166 1.01569 4.31507 0
M  V30 6260 H 580.386 0.299196 0.600602 0
M  V30 6261 H 582.93 1.43846 1.45357 0
M  V30 6262 H 581.085 0.671347 3.81539 0
M  V30 6263 H 581.499 2.79573 4.43778 0
M  V30 6264 H 582.973 1.35055 5.35223 0
M  V30 6265 H 583.45 -0.0475433 4.39174 0
M  V30 6266 H 584.056 1.56636 3.95405 0
M  V30 6267 N 582.371 -1.3172 0.865308 0
M  V30 6268 C 583.617 -1.97168 0.474633 0
M  V30 6269 C 583.95 -1.68263 -0.969604 0
M  V30 6270 O 583.225 -0.976588 -1.68205 0
M  V30 6271 C 583.508 -3.52689 0.726808 0
M  V30 6272 C 583.361 -3.91185 2.22024 0
M  V30 6273 C 584.68 -4.39689 0.190201 0
M  V30 6274 H 581.799 -0.716185 0.17392 0
M  V30 6275 H 584.441 -1.55925 1.08569 0
M  V30 6276 H 582.591 -3.8795 0.206705 0
M  V30 6277 H 584.263 -3.66049 2.80724 0
M  V30 6278 H 582.506 -3.3996 2.69462 0
M  V30 6279 H 583.177 -4.99604 2.34735 0
M  V30 6280 H 585.653 -4.11225 0.635103 0
M  V30 6281 H 584.529 -5.47469 0.396132 0
M  V30 6282 H 584.79 -4.32683 -0.907625 0
M  V30 6283 N 583.85 -0.624285 -1.44708 0
M  V30 6284 C 585.096 -0.126237 -2.02407 0
M  V30 6285 C 585.428 1.24618 -1.48943 0
M  V30 6286 O 584.704 1.82569 -0.670742 0
M  V30 6287 C 584.986 -0.105449 -3.59946 0
M  V30 6288 C 584.84 -1.50972 -4.23707 0
M  V30 6289 C 586.159 0.573629 -4.36346 0
M  V30 6290 H 583.278 -0.0473472 -0.735478 0
M  V30 6291 H 585.92 -0.799452 -1.72362 0
M  V30 6292 H 584.07 0.46783 -3.85673 0
M  V30 6293 H 585.742 -2.13136 -4.0911 0
M  V30 6294 H 583.985 -2.0656 -3.81465 0
M  V30 6295 H 584.656 -1.44727 -5.32689 0
M  V30 6296 H 587.132 0.0861787 -4.16011 0
M  V30 6297 H 586.008 0.557338 -5.46063 0
M  V30 6298 H 586.269 1.64276 -4.10446 0
M  V30 6299 N 585.328 1.53329 -0.364422 0
M  V30 6300 C 586.556 2.05657 0.226424 0
M  V30 6301 C 586.971 1.23801 1.42544 0
M  V30 6302 O 586.328 0.27839 1.80364 0
M  V30 6303 C 586.379 3.56125 0.621056 0
M  V30 6304 O 586.1 4.34879 -0.530304 0
M  V30 6305 C 587.601 4.24706 1.27041 0
M  V30 6306 H 584.821 0.669806 0.0400056 0
M  V30 6307 H 587.365 1.97714 -0.522456 0
M  V30 6308 H 585.52 3.64223 1.31985 0
M  V30 6309 H 585.934 5.24073 -0.211546 0
M  V30 6310 H 587.408 5.3131 1.49711 0
M  V30 6311 H 587.885 3.78354 2.23036 0
M  V30 6312 H 588.491 4.20858 0.613079 0
M  V30 6313 N 586.806 0.0935595 1.57322 0
M  V30 6314 C 588.046 -0.573901 1.96178 0
M  V30 6315 C 588.41 -1.65445 0.97426 0
M  V30 6316 O 589.611 -2.37901 1.25126 0
M  V30 6317 C 587.882 -1.11612 3.39526 0
M  V30 6318 S 589.441 -1.79566 4.00377 0
M  V30 6319 H 586.259 -0.187315 0.685882 0
M  V30 6320 H 588.861 0.172597 1.94737 0
M  V30 6321 H 587.565 -0.31815 4.09165 0
M  V30 6322 H 587.096 -1.89848 3.4456 0
M  V30 6323 H 589.111 -3.07978 3.89056 0
M  V30 6324 N 588.284 -1.56567 -0.180126 0
M  V30 6325 C 589.533 -1.80685 -0.896426 0
M  V30 6326 C 589.846 -0.669335 -1.83791 0
M  V30 6327 O 591.052 -0.795209 -2.59593 0
M  V30 6328 C 589.508 -3.20132 -1.6445 0
M  V30 6329 C 589.116 -4.41727 -0.747088 0
M  V30 6330 C 590.86 -3.53549 -2.34955 0
M  V30 6331 C 588.767 -5.72195 -1.49489 0
M  V30 6332 H 587.697 -0.673758 -0.338477 0
M  V30 6333 H 590.348 -1.8289 -0.149467 0
M  V30 6334 H 588.73 -3.12218 -2.43589 0
M  V30 6335 H 589.904 -4.608 0.00671129 0
M  V30 6336 H 588.219 -4.16122 -0.152134 0
M  V30 6337 H 590.816 -4.48267 -2.91481 0
M  V30 6338 H 591.159 -2.78006 -3.09868 0
M  V30 6339 H 591.692 -3.62976 -1.62768 0
M  V30 6340 H 588.431 -6.50743 -0.788251 0
M  V30 6341 H 587.951 -5.57115 -2.22224 0
M  V30 6342 H 589.63 -6.1384 -2.04472 0
M  V30 6343 N 589.762 0.448376 -1.51087 0
M  V30 6344 C 590.692 1.55102 -1.74544 0
M  V30 6345 C 591.673 1.59357 -0.594932 0
M  V30 6346 O 592.858 1.75261 -0.836491 0
M  V30 6347 C 589.988 2.93268 -1.86041 0
M  V30 6348 C 588.942 3.03877 -3.01402 0
M  V30 6349 C 588.268 4.43914 -2.98068 0
M  V30 6350 C 589.568 2.7898 -4.41551 0
M  V30 6351 H 591.262 1.35724 -2.66869 0
M  V30 6352 H 588.808 0.651498 -1.28419 0
M  V30 6353 H 590.761 3.70356 -2.01034 0
M  V30 6354 H 589.485 3.13853 -0.903548 0
M  V30 6355 H 588.144 2.29227 -2.86096 0
M  V30 6356 H 587.792 4.6145 -2.00182 0
M  V30 6357 H 587.492 4.51944 -3.75527 0
M  V30 6358 H 589.016 5.22991 -3.1514 0
M  V30 6359 H 590.43 3.45805 -4.57265 0
M  V30 6360 H 588.827 2.98431 -5.20633 0
M  V30 6361 H 589.897 1.74663 -4.5235 0
M  V30 6362 N 591.24 1.41047 0.703093 0
M  V30 6363 C 592.17 1.45067 1.82969 0
M  V30 6364 C 593.151 0.31016 1.67248 0
M  V30 6365 O 594.336 0.520548 1.87093 0
M  V30 6366 C 591.466 1.32478 3.2104 0
M  V30 6367 C 590.42 2.44262 3.51454 0
M  V30 6368 C 589.746 2.16742 4.88801 0
M  V30 6369 C 591.046 3.86606 3.51189 0
M  V30 6370 H 592.74 2.39353 1.79863 0
M  V30 6371 H 590.286 1.15206 0.863919 0
M  V30 6372 H 592.239 1.33904 3.99559 0
M  V30 6373 H 590.963 0.346735 3.24754 0
M  V30 6374 H 589.622 2.42107 2.75282 0
M  V30 6375 H 589.27 1.17299 4.89132 0
M  V30 6376 H 588.97 2.91643 5.10116 0
M  V30 6377 H 590.494 2.19872 5.69639 0
M  V30 6378 H 591.908 3.90517 4.19725 0
M  V30 6379 H 590.305 4.61128 3.84033 0
M  V30 6380 H 591.375 4.15296 2.50315 0
M  V30 6381 N 592.718 -0.936591 1.26751 0
M  V30 6382 C 593.964 -1.6858 1.12733 0
M  V30 6383 C 594.297 -1.91414 -0.327745 0
M  V30 6384 O 593.572 -1.49812 -1.24043 0
M  V30 6385 C 593.855 -3.05779 1.90187 0
M  V30 6386 C 593.708 -2.90242 3.43627 0
M  V30 6387 C 595.027 -4.0597 1.69931 0
M  V30 6388 H 592.146 -0.61182 0.410908 0
M  V30 6389 H 594.788 -1.08747 1.55801 0
M  V30 6390 H 592.938 -3.56853 1.53584 0
M  V30 6391 H 594.61 -2.46354 3.9001 0
M  V30 6392 H 592.853 -2.2577 3.70419 0
M  V30 6393 H 593.524 -3.87572 3.93055 0
M  V30 6394 H 596 -3.63874 2.0183 0
M  V30 6395 H 594.876 -4.99974 2.26534 0
M  V30 6396 H 595.137 -4.37369 0.64502 0
M  V30 6397 N 594.196 -1.08629 -1.14182 0
M  V30 6398 C 595.442 -0.818556 -1.85546 0
M  V30 6399 C 595.775 0.654076 -1.82854 0
M  V30 6400 O 595.05 1.48099 -1.26083 0
M  V30 6401 C 595.333 -1.34397 -3.3408 0
M  V30 6402 C 595.186 -2.8821 -3.45333 0
M  V30 6403 C 596.505 -0.971069 -4.29253 0
M  V30 6404 H 593.624 -0.298821 -0.673702 0
M  V30 6405 H 596.266 -1.34629 -1.34071 0
M  V30 6406 H 594.416 -0.895064 -3.78049 0
M  V30 6407 H 596.088 -3.41488 -3.10134 0
M  V30 6408 H 594.331 -3.25756 -2.86471 0
M  V30 6409 H 595.002 -3.20047 -4.49749 0
M  V30 6410 H 597.478 -1.35809 -3.93313 0
M  V30 6411 H 596.354 -1.36586 -5.31635 0
M  V30 6412 H 596.615 0.121659 -4.41933 0
M  V30 6413 N 595.674 1.31259 -0.872281 0
M  V30 6414 C 596.923 1.95893 -0.480493 0
M  V30 6415 C 597.236 1.697 0.972688 0
M  V30 6416 O 598.442 2.28214 1.47073 0
M  V30 6417 C 596.898 3.50705 -0.808342 0
M  V30 6418 C 596.506 3.85735 -2.27844 0
M  V30 6419 C 598.25 4.21719 -0.485136 0
M  V30 6420 C 596.157 5.33668 -2.54858 0
M  V30 6421 H 595.087 0.733182 -0.175955 0
M  V30 6422 H 597.738 1.49396 -1.0655 0
M  V30 6423 H 596.12 3.95706 -0.152558 0
M  V30 6424 H 597.294 3.51686 -2.97748 0
M  V30 6425 H 595.609 3.27792 -2.56791 0
M  V30 6426 H 598.206 5.30559 -0.664166 0
M  V30 6427 H 598.549 4.12316 0.574592 0
M  V30 6428 H 599.082 3.82359 -1.09756 0
M  V30 6429 H 595.821 5.48109 -3.59523 0
M  V30 6430 H 595.341 5.69061 -1.8955 0
M  V30 6431 H 597.02 6.00958 -2.39706 0
M  V30 6432 N 597.152 0.631951 1.44375 0
M  V30 6433 C 598.1 -0.0846693 2.32446 0
M  V30 6434 C 599.094 -0.834957 1.47393 0
M  V30 6435 O 600.3 -0.747764 1.63733 0
M  V30 6436 H 596.675 -0.0461508 0.750583 0
M  V30 6437 H 598.646 0.67619 2.90638 0
M  V30 6438 C 597.395 -1.05211 3.314 0
M  V30 6439 H 596.718 -0.484203 3.96857 0
M  V30 6440 H 598.158 -1.523 3.95703 0
M  V30 6441 C 596.617 -2.13776 2.60387 0
M  V30 6442 O 597.147 -3.21869 2.4034 0
M  V30 6443 N 595.353 -1.89733 2.20113 0
M  V30 6444 H 594.9 -1.01833 2.36618 0
M  V30 6445 H 594.858 -2.62572 1.72926 0
M  V30 6446 N 598.631 -1.53133 0.372548 0
M  V30 6447 C 599.561 -2.28876 -0.462412 0
M  V30 6448 C 600.542 -1.31583 -1.07796 0
M  V30 6449 O 601.727 -1.60461 -1.09389 0
M  V30 6450 C 598.857 -3.08317 -1.59868 0
M  V30 6451 C 597.811 -4.13355 -1.11003 0
M  V30 6452 C 597.137 -4.8092 -2.33708 0
M  V30 6453 C 598.437 -5.21955 -0.18983 0
M  V30 6454 H 600.131 -2.9892 0.169511 0
M  V30 6455 H 597.677 -1.43761 0.0829658 0
M  V30 6456 H 599.63 -3.60055 -2.18949 0
M  V30 6457 H 598.354 -2.35976 -2.25794 0
M  V30 6458 H 597.013 -3.62573 -0.541869 0
M  V30 6459 H 596.661 -4.05144 -2.98106 0
M  V30 6460 H 596.361 -5.51904 -2.01682 0
M  V30 6461 H 597.885 -5.35455 -2.93462 0
M  V30 6462 H 599.299 -5.69153 -0.688319 0
M  V30 6463 H 597.696 -6.00087 0.0398887 0
M  V30 6464 H 598.766 -4.78811 0.766057 0
M  V30 6465 N 600.109 -0.101901 -1.5727 0
M  V30 6466 C 601.039 0.851544 -2.17419 0
M  V30 6467 C 602.02 1.28942 -1.10941 0
M  V30 6468 O 603.205 1.35509 -1.39107 0
M  V30 6469 C 600.335 2.10816 -2.75996 0
M  V30 6470 C 599.289 1.80867 -3.87906 0
M  V30 6471 C 598.615 3.13413 -4.33216 0
M  V30 6472 C 599.915 1.0903 -5.10793 0
M  V30 6473 H 601.609 0.350381 -2.97343 0
M  V30 6474 H 599.155 0.16709 -1.43027 0
M  V30 6475 H 601.108 2.77959 -3.16729 0
M  V30 6476 H 599.832 2.63227 -1.93337 0
M  V30 6477 H 598.491 1.16119 -3.47724 0
M  V30 6478 H 598.139 3.63725 -3.47438 0
M  V30 6479 H 597.839 2.94155 -5.08671 0
M  V30 6480 H 599.363 3.81704 -4.76586 0
M  V30 6481 H 600.777 1.66295 -5.48652 0
M  V30 6482 H 599.174 0.99927 -5.91722 0
M  V30 6483 H 600.244 0.0741704 -4.84843 0
M  V30 6484 N 601.587 1.56661 0.17182 0
M  V30 6485 C 602.833 1.82235 0.889845 0
M  V30 6486 C 603.166 0.679673 1.81918 0
M  V30 6487 O 602.441 -0.318404 1.91876 0
M  V30 6488 C 602.724 3.18195 1.68595 0
M  V30 6489 C 602.577 4.42989 0.779773 0
M  V30 6490 C 603.896 3.5109 2.65375 0
M  V30 6491 H 601.015 0.66291 0.322056 0
M  V30 6492 H 603.657 1.89358 0.15608 0
M  V30 6493 H 601.807 3.12253 2.3115 0
M  V30 6494 H 603.479 4.60997 0.16714 0
M  V30 6495 H 601.722 4.33711 0.0877964 0
M  V30 6496 H 602.393 5.3467 1.3723 0
M  V30 6497 H 604.869 3.57482 2.12946 0
M  V30 6498 H 603.745 4.47298 3.18144 0
M  V30 6499 H 604.006 2.75768 3.45549 0
M  V30 6500 N 603.065 -0.440357 1.51323 0
M  V30 6501 C 604.314 -1.18697 1.63076 0
M  V30 6502 C 604.627 -1.92418 0.35136 0
M  V30 6503 O 605.833 -2.69258 0.348221 0
M  V30 6504 C 604.289 -2.15849 2.87988 0
M  V30 6505 C 603.897 -1.47789 4.22921 0
M  V30 6506 C 605.641 -2.90962 3.09098 0
M  V30 6507 C 603.548 -2.43407 5.38987 0
M  V30 6508 H 602.478 -0.44676 0.607389 0
M  V30 6509 H 605.129 -0.454313 1.77787 0
M  V30 6510 H 603.511 -2.92537 2.66905 0
M  V30 6511 H 604.685 -0.7668 4.54375 0
M  V30 6512 H 603 -0.848404 4.07665 0
M  V30 6513 H 605.597 -3.62584 3.92985 0
M  V30 6514 H 605.94 -3.52133 2.22053 0
M  V30 6515 H 606.473 -2.21381 3.30507 0
M  V30 6516 H 603.212 -1.86929 6.28282 0
M  V30 6517 H 602.732 -3.12579 5.11913 0
M  V30 6518 H 604.411 -3.046 5.70813 0
M  V30 6519 N 604.543 -1.41418 -0.695603 0
M  V30 6520 C 605.79 -1.40774 -1.45564 0
M  V30 6521 C 606.118 -0.0168604 -1.94493 0
M  V30 6522 O 605.373 0.971259 -1.69897 0
M  V30 6523 C 605.672 -2.36112 -2.68302 0
M  V30 6524 C 605.338 -3.82952 -2.38031 0
M  V30 6525 C 604 -4.22954 -2.29486 0
M  V30 6526 C 606.352 -4.75662 -2.13061 0
M  V30 6527 C 603.68 -5.53674 -1.94067 0
M  V30 6528 C 606.032 -6.06702 -1.79151 0
M  V30 6529 C 604.696 -6.45725 -1.69102 0
M  V30 6530 H 603.966 -0.515128 -0.532658 0
M  V30 6531 H 606.613 -1.74216 -0.795047 0
M  V30 6532 H 604.918 -1.95924 -3.39295 0
M  V30 6533 H 606.615 -2.32887 -3.26442 0
M  V30 6534 H 603.205 -3.5127 -2.45576 0
M  V30 6535 H 607.389 -4.45561 -2.18608 0
M  V30 6536 H 602.645 -5.8279 -1.8484 0
M  V30 6537 H 606.819 -6.78041 -1.5885 0
M  V30 6538 H 604.446 -7.46929 -1.41426 0
M  V30 6539 N 606.021 0.929856 -1.27246 0
M  V30 6540 C 607.27 1.67182 -1.12842 0
M  V30 6541 C 607.583 1.9287 0.325666 0
M  V30 6542 O 608.789 2.64999 0.590572 0
M  V30 6543 C 607.245 3.01097 -1.97151 0
M  V30 6544 C 606.853 2.83115 -3.47203 0
M  V30 6545 C 608.597 3.78907 -1.91389 0
M  V30 6546 C 606.504 4.12573 -4.23719 0
M  V30 6547 H 605.434 0.627064 -0.418697 0
M  V30 6548 H 608.085 1.0332 -1.51649 0
M  V30 6549 H 606.467 3.66004 -1.51186 0
M  V30 6550 H 607.641 2.26989 -4.01015 0
M  V30 6551 H 605.956 2.18736 -3.54321 0
M  V30 6552 H 608.553 4.74837 -2.45834 0
M  V30 6553 H 608.896 4.0674 -0.887047 0
M  V30 6554 H 609.429 3.20794 -2.35237 0
M  V30 6555 H 606.168 3.8992 -5.26918 0
M  V30 6556 H 605.688 4.68371 -3.74685 0
M  V30 6557 H 607.367 4.8095 -4.32777 0
M  V30 6558 N 607.499 1.09233 1.13605 0
M  V30 6559 C 608.91 0.846839 1.6639 0
M  V30 6560 C 609.261 -0.625031 1.85978 0
M  V30 6561 O 608.386 -1.48173 1.57714 0
M  V30 6562 C 608.981 1.5307 3.0225 0
M  V30 6563 C 607.54 1.33223 3.52035 0
M  V30 6564 C 606.687 1.58806 2.27323 0
M  V30 6565 H 609.638 1.25175 0.975541 0
M  V30 6566 H 609.659 0.96267 3.68121 0
M  V30 6567 H 609.171 2.60192 2.87961 0
M  V30 6568 H 607.272 0.282091 3.71531 0
M  V30 6569 H 607.385 2.0657 4.32279 0
M  V30 6570 H 605.749 1.01007 2.33815 0
M  V30 6571 H 606.532 2.67153 2.15602 0
M  V30 6572 N 608.977 -1.30795 0.87923 0
M  V30 6573 C 610.202 -2.01063 0.508769 0
M  V30 6574 C 610.627 -1.65508 -0.893803 0
M  V30 6575 O 609.985 -0.868616 -1.59138 0
M  V30 6576 C 610.033 -3.54054 0.683991 0
M  V30 6577 O 609.137 -4.11498 -0.272654 0
M  V30 6578 H 608.478 -0.632786 0.201191 0
M  V30 6579 H 611.008 -1.66776 1.18519 0
M  V30 6580 H 611.018 -4.03845 0.580798 0
M  V30 6581 H 609.693 -3.79271 1.70665 0
M  V30 6582 H 608.27 -3.72695 -0.12364 0
M  V30 6583 N 610.455 -0.639598 -1.44038 0
M  V30 6584 C 611.388 0.109736 -2.27936 0
M  V30 6585 C 612.366 0.843095 -1.39035 0
M  V30 6586 O 613.55 0.845456 -1.68476 0
M  V30 6587 C 610.677 1.16173 -3.18153 0
M  V30 6588 C 609.723 0.527954 -4.2322 0
M  V30 6589 S 610.556 -0.688318 -5.31058 0
M  V30 6590 C 611.712 0.363481 -6.24844 0
M  V30 6591 H 611.945 -0.601986 -2.91142 0
M  V30 6592 H 609.478 -0.42802 -1.48349 0
M  V30 6593 H 611.436 1.76372 -3.7068 0
M  V30 6594 H 610.097 1.84569 -2.54151 0
M  V30 6595 H 609.29 1.32054 -4.86393 0
M  V30 6596 H 608.892 0.000396444 -3.74 0
M  V30 6597 H 611.184 1.23362 -6.66174 0
M  V30 6598 H 612.127 -0.23288 -7.07717 0
M  V30 6599 H 612.535 0.693179 -5.60228 0
M  V30 6600 N 611.933 1.52934 -0.380664 0
M  V30 6601 C 612.88 2.26197 0.458641 0
M  V30 6602 C 613.85 1.27462 1.06502 0
M  V30 6603 O 615.035 1.56274 1.09467 0
M  V30 6604 C 612.175 3.06571 1.58456 0
M  V30 6605 C 611.288 4.20222 1.00189 0
M  V30 6606 C 610.423 4.88007 2.09815 0
M  V30 6607 C 609.462 5.93665 1.49092 0
M  V30 6608 N 608.599 6.55081 2.52613 0
M  V30 6609 H 613.439 2.975 -0.172595 0
M  V30 6610 H 610.976 1.4678 -0.0969426 0
M  V30 6611 H 612.934 3.51455 2.24801 0
M  V30 6612 H 611.564 2.37494 2.18624 0
M  V30 6613 H 610.616 3.79714 0.228292 0
M  V30 6614 H 611.928 4.96102 0.518064 0
M  V30 6615 H 611.082 5.36151 2.83948 0
M  V30 6616 H 609.821 4.11632 2.61555 0
M  V30 6617 H 608.826 5.44868 0.7348 0
M  V30 6618 H 610.051 6.71969 0.981582 0
M  V30 6619 H 607.997 5.8155 3.03538 0
M  V30 6620 H 607.914 7.26548 2.08961 0
M  V30 6621 H 609.182 7.07871 3.26402 0
M  V30 6622 N 613.412 0.11024 1.57214 0
M  V30 6623 C 614.689 -0.592956 1.86396 0
M  V30 6624 C 615.069 -1.85379 1.00985 0
M  V30 6625 O 614.417 -2.28337 0.0863592 0
M  V30 6626 C 614.627 -0.893816 3.3736 0
M  V30 6627 C 615.975 -1.25069 4.05762 0
M  V30 6628 O 616.999 -0.984356 3.42329 0
M  V30 6629 O 615.858 -1.75017 5.17718 0
M  V30 6630 H 612.952 -0.29828 0.771335 0
M  V30 6631 H 615.498 0.144083 1.69087 0
M  V30 6632 H 614.27 2.6031e-05 3.913 0
M  V30 6633 H 613.893 -1.68631 3.60068 0
M  V30 6634 N 614.89 -1.56749 -0.16351 0
M  V30 6635 C 616.139 -1.81626 -0.877211 0
M  V30 6636 C 616.452 -0.688791 -1.83071 0
M  V30 6637 O 617.658 -0.822697 -2.58735 0
M  V30 6638 C 616.114 -3.21858 -1.61045 0
M  V30 6639 C 615.722 -4.42494 -0.700195 0
M  V30 6640 C 617.466 -3.56021 -2.31192 0
M  V30 6641 C 615.373 -5.73748 -1.43412 0
M  V30 6642 H 614.303 -0.67731 -0.331312 0
M  V30 6643 H 616.954 -1.83039 -0.13006 0
M  V30 6644 H 615.336 -3.14784 -2.40264 0
M  V30 6645 H 616.51 -4.60766 0.0555849 0
M  V30 6646 H 614.825 -4.1626 -0.10799 0
M  V30 6647 H 617.422 -4.51333 -2.8671 0
M  V30 6648 H 617.765 -2.81277 -3.06902 0
M  V30 6649 H 618.298 -3.64682 -1.58909 0
M  V30 6650 H 615.037 -6.51543 -0.719186 0
M  V30 6651 H 614.557 -5.5944 -2.16302 0
M  V30 6652 H 616.236 -6.15975 -1.9795 0
M  V30 6653 N 616.368 0.432326 -1.51554 0
M  V30 6654 C 617.615 1.18134 -1.64471 0
M  V30 6655 C 617.943 1.91076 -0.363349 0
M  V30 6656 O 617.198 1.84492 0.65279 0
M  V30 6657 C 617.497 2.21907 -2.80164 0
M  V30 6658 C 617.163 1.65941 -4.19255 0
M  V30 6659 C 615.825 1.50401 -4.57092 0
M  V30 6660 C 618.177 1.24843 -5.06027 0
M  V30 6661 C 615.505 0.922443 -5.79403 0
M  V30 6662 C 617.857 0.68113 -6.28922 0
M  V30 6663 C 616.521 0.512673 -6.65528 0
M  V30 6664 H 615.791 0.432283 -0.601841 0
M  V30 6665 H 618.438 0.471701 -1.856 0
M  V30 6666 H 616.743 2.98928 -2.53277 0
M  V30 6667 H 618.44 2.79691 -2.87357 0
M  V30 6668 H 615.03 1.79014 -3.89425 0
M  V30 6669 H 619.214 1.35667 -4.77397 0
M  V30 6670 H 614.47 0.779733 -6.06408 0
M  V30 6671 H 618.644 0.35418 -6.95499 0
M  V30 6672 H 616.271 0.0599084 -7.60176 0
M  V30 6673 N 617.846 1.41785 0.688094 0
M  V30 6674 C 619.094 1.41264 1.4453 0
M  V30 6675 C 619.415 0.0252946 1.94984 0
M  V30 6676 O 618.685 -0.934081 1.72197 0
M  V30 6677 H 617.265 0.519998 0.536294 0
M  V30 6678 H 619.927 1.7709 0.813941 0
M  V30 6679 H 619.023 2.10439 2.30482 0
M  V30 6680 N 619.324 -0.923095 1.27737 0
M  V30 6681 C 620.57 -1.67375 1.14514 0
M  V30 6682 C 620.903 -1.91751 -0.307424 0
M  V30 6683 O 620.178 -1.51119 -1.22447 0
M  V30 6684 C 620.461 -3.03745 1.9342 0
M  V30 6685 C 620.314 -2.86581 3.46686 0
M  V30 6686 C 621.633 -4.04144 1.74228 0
M  V30 6687 H 618.752 -0.607427 0.417374 0
M  V30 6688 H 621.394 -1.07089 1.56946 0
M  V30 6689 H 619.544 -3.55204 1.5736 0
M  V30 6690 H 621.216 -2.42203 3.92601 0
M  V30 6691 H 619.459 -2.21829 3.72793 0
M  V30 6692 H 620.13 -3.83381 3.97143 0
M  V30 6693 H 622.606 -3.61712 2.05678 0
M  V30 6694 H 621.482 -4.97543 2.31824 0
M  V30 6695 H 621.743 -4.36661 0.691373 0
M  V30 6696 N 620.802 -1.09834 -1.13024 0
M  V30 6697 C 622.048 -0.83819 -1.84668 0
M  V30 6698 C 622.381 0.634645 -1.83537 0
M  V30 6699 O 621.656 1.46753 -1.27647 0
M  V30 6700 C 621.939 -1.37933 -3.32636 0
M  V30 6701 C 621.792 -2.91857 -3.42257 0
M  V30 6702 C 623.111 -1.01654 -4.28199 0
M  V30 6703 H 620.23 -0.30595 -0.670495 0
M  V30 6704 H 622.872 -1.36044 -1.32635 0
M  V30 6705 H 621.022 -0.935111 -3.77078 0
M  V30 6706 H 622.694 -3.44759 -3.06495 0
M  V30 6707 H 620.937 -3.28776 -2.83 0
M  V30 6708 H 621.608 -3.24799 -4.46329 0
M  V30 6709 H 624.084 -1.39973 -3.9185 0
M  V30 6710 H 622.96 -1.42217 -5.30156 0
M  V30 6711 H 623.221 0.0747794 -4.42037 0
M  V30 6712 N 622.28 1.30327 -0.886154 0
M  V30 6713 C 623.528 1.9571 -0.504195 0
M  V30 6714 C 623.849 1.70294 0.950003 0
M  V30 6715 O 623.119 1.02718 1.66811 0
M  V30 6716 H 621.699 0.72412 -0.183465 0
M  V30 6717 H 624.361 1.58835 -1.12949 0
M  V30 6718 H 623.457 3.04704 -0.675431 0
M  V30 6719 N 623.758 0.647228 1.43697 0
M  V30 6720 C 625.004 0.158422 2.0218 0
M  V30 6721 C 625.337 -1.22233 1.50907 0
M  V30 6722 O 624.612 -1.81478 0.699702 0
M  V30 6723 C 624.895 0.1627 3.59732 0
M  V30 6724 C 624.748 1.57694 4.21251 0
M  V30 6725 C 626.067 -0.504138 4.37203 0
M  V30 6726 H 623.186 0.059042 0.734631 0
M  V30 6727 H 625.828 0.826772 1.71069 0
M  V30 6728 H 623.978 -0.406414 3.86368 0
M  V30 6729 H 625.65 2.19618 4.05667 0
M  V30 6730 H 623.893 2.12603 3.7813 0
M  V30 6731 H 624.564 1.53183 5.3032 0
M  V30 6732 H 627.04 -0.0199841 4.16095 0
M  V30 6733 H 625.916 -0.470394 5.46881 0
M  V30 6734 H 626.177 -1.57726 4.13007 0
M  V30 6735 N 625.236 -1.5273 0.388769 0
M  V30 6736 C 626.464 -2.05992 -0.193677 0
M  V30 6737 C 626.879 -1.26053 -1.40557 0
M  V30 6738 O 626.236 -0.307049 -1.79898 0
M  V30 6739 C 626.287 -3.57068 -0.564321 0
M  V30 6740 O 626.008 -4.3398 0.599422 0
M  V30 6741 C 627.509 -4.26674 -1.20269 0
M  V30 6742 H 624.729 -0.670358 -0.0293445 0
M  V30 6743 H 627.273 -1.96857 0.553844 0
M  V30 6744 H 625.428 -3.66277 -1.26174 0
M  V30 6745 H 625.842 -5.2367 0.294895 0
M  V30 6746 H 627.316 -5.33625 -1.4124 0
M  V30 6747 H 627.793 -3.81854 -2.16989 0
M  V30 6748 H 628.399 -4.2178 -0.546047 0
M  V30 6749 N 626.714 -0.118576 -1.57153 0
M  V30 6750 C 627.939 0.550582 -1.99958 0
M  V30 6751 C 628.364 1.59458 -0.997736 0
M  V30 6752 O 627.722 1.81274 0.0306269 0
M  V30 6753 C 627.77 1.15379 -3.41643 0
M  V30 6754 O 626.874 2.26932 -3.44348 0
M  V30 6755 H 626.215 0.137567 -0.649593 0
M  V30 6756 H 628.745 -0.206926 -2.03551 0
M  V30 6757 H 628.755 1.48942 -3.79843 0
M  V30 6758 H 627.43 0.389087 -4.14076 0
M  V30 6759 H 626.007 1.94812 -3.17967 0
M  V30 6760 N 628.193 1.56834 0.155195 0
M  V30 6761 C 629.156 1.96748 1.17571 0
M  V30 6762 C 630.156 0.853006 1.3631 0
M  V30 6763 O 631.346 1.11978 1.33441 0
M  V30 6764 C 628.478 2.27631 2.53765 0
M  V30 6765 H 629.671 2.88085 0.833498 0
M  V30 6766 H 627.224 1.51141 0.398242 0
M  V30 6767 H 627.959 1.39059 2.92973 0
M  V30 6768 H 627.744 3.0888 2.41527 0
M  V30 6769 H 629.234 2.59377 3.27282 0
M  V30 6770 N 629.671 -0.424282 1.51781 0
M  V30 6771 C 630.619 -1.53649 1.74628 0
M  V30 6772 C 631.613 -1.57923 0.612922 0
M  V30 6773 O 632.819 -1.61511 0.794618 0
M  V30 6774 H 629.194 -0.510706 0.551981 0
M  V30 6775 H 631.165 -1.31558 2.67834 0
M  V30 6776 C 629.914 -2.91177 1.9003 0
M  V30 6777 H 629.237 -2.88625 2.76651 0
M  V30 6778 H 630.677 -3.6833 2.10021 0
M  V30 6779 C 629.136 -3.30303 0.663435 0
M  V30 6780 O 629.666 -4.01315 -0.175812 0
M  V30 6781 N 627.872 -2.86201 0.503723 0
M  V30 6782 H 627.419 -2.28583 1.18776 0
M  V30 6783 H 627.377 -3.12741 -0.322575 0
M  V30 6784 N 631.149 -1.42148 -0.680565 0
M  V30 6785 C 632.082 -1.39602 -1.80517 0
M  V30 6786 C 633.06 -0.261098 -1.6049 0
M  V30 6787 O 634.244 -0.450404 -1.8304 0
M  V30 6788 C 631.371 -1.18134 -3.1743 0
M  V30 6789 C 630.417 -2.34543 -3.56219 0
M  V30 6790 S 631.25 -3.97063 -3.59306 0
M  V30 6791 C 632.406 -3.77926 -4.98921 0
M  V30 6792 H 632.639 -2.3477 -1.82402 0
M  V30 6793 H 630.172 -1.28851 -0.850691 0
M  V30 6794 H 632.13 -1.06434 -3.96462 0
M  V30 6795 H 630.791 -0.245611 -3.13138 0
M  V30 6796 H 629.984 -2.15255 -4.55721 0
M  V30 6797 H 629.586 -2.42728 -2.84533 0
M  V30 6798 H 631.878 -3.3856 -5.86842 0
M  V30 6799 H 632.821 -4.77084 -5.23256 0
M  V30 6800 H 633.229 -3.10904 -4.71167 0
M  V30 6801 N 632.627 0.916307 -1.28225 0
M  V30 6802 C 633.557 2.0352 -1.14464 0
M  V30 6803 C 634.538 1.70045 -0.0430844 0
M  V30 6804 O 635.723 1.92954 -0.219619 0
M  V30 6805 C 632.853 3.37889 -0.803027 0
M  V30 6806 C 631.807 3.85516 -1.85908 0
M  V30 6807 C 631.133 5.1682 -1.37116 0
M  V30 6808 C 632.433 4.07655 -3.26519 0
M  V30 6809 H 634.127 2.1529 -2.08064 0
M  V30 6810 H 631.673 1.03446 -1.00174 0
M  V30 6811 H 633.626 4.15654 -0.693537 0
M  V30 6812 H 632.35 3.26164 0.168674 0
M  V30 6813 H 631.009 3.09953 -1.95767 0
M  V30 6814 H 630.657 5.01497 -0.38859 0
M  V30 6815 H 630.357 5.49657 -2.07728 0
M  V30 6816 H 631.881 5.97143 -1.27484 0
M  V30 6817 H 633.295 4.75953 -3.19596 0
M  V30 6818 H 631.692 4.51818 -3.94943 0
M  V30 6819 H 632.762 3.12553 -3.70727 0
M  V30 6820 N 634.105 1.10431 1.1244 0
M  V30 6821 C 635.354 0.841539 1.83306 0
M  V30 6822 C 635.667 -0.634961 1.85007 0
M  V30 6823 O 636.873 -1.01363 2.51869 0
M  V30 6824 C 635.329 1.45565 3.29149 0
M  V30 6825 C 634.937 2.96544 3.35806 0
M  V30 6826 C 636.681 1.27227 4.04986 0
M  V30 6827 C 634.588 3.5099 4.75983 0
M  V30 6828 H 633.518 0.311156 0.686803 0
M  V30 6829 H 636.169 1.32829 1.26604 0
M  V30 6830 H 634.551 0.896574 3.85717 0
M  V30 6831 H 635.725 3.58766 2.89177 0
M  V30 6832 H 634.04 3.14036 2.73442 0
M  V30 6833 H 636.637 1.65348 5.08492 0
M  V30 6834 H 636.98 0.213834 4.1575 0
M  V30 6835 H 637.513 1.79941 3.54776 0
M  V30 6836 H 634.252 4.56499 4.70413 0
M  V30 6837 H 633.772 2.93535 5.23065 0
M  V30 6838 H 635.451 3.48808 5.44924 0
M  V30 6839 N 635.583 -1.29855 0.893053 0
M  V30 6840 C 636.83 -1.95826 0.515585 0
M  V30 6841 C 637.158 -1.70451 -0.936842 0
M  V30 6842 O 636.413 -1.00657 -1.67829 0
M  V30 6843 C 636.712 -3.49515 0.746588 0
M  V30 6844 C 636.378 -3.94955 2.17535 0
M  V30 6845 C 635.04 -4.07073 2.56603 0
M  V30 6846 C 637.392 -4.18536 3.10607 0
M  V30 6847 C 634.72 -4.40138 3.87938 0
M  V30 6848 C 637.072 -4.53073 4.41484 0
M  V30 6849 C 635.736 -4.634 4.80434 0
M  V30 6850 H 635.006 -0.71658 0.188666 0
M  V30 6851 H 637.653 -1.54574 1.13045 0
M  V30 6852 H 635.958 -3.9177 0.0487551 0
M  V30 6853 H 637.655 -3.98644 0.434009 0
M  V30 6854 H 634.245 -3.86035 1.86212 0
M  V30 6855 H 638.429 -4.08646 2.81641 0
M  V30 6856 H 633.685 -4.46335 4.17846 0
M  V30 6857 H 637.859 -4.70269 5.13634 0
M  V30 6858 H 635.486 -4.88775 5.82239 0
M  V30 6859 N 637.061 -0.65484 -1.43351 0
M  V30 6860 C 638.31 -0.166215 -2.01014 0
M  V30 6861 C 638.623 1.22764 -1.52278 0
M  V30 6862 O 639.829 1.81156 -2.02224 0
M  V30 6863 C 638.285 -0.246341 -3.59056 0
M  V30 6864 C 637.893 -1.64299 -4.16785 0
M  V30 6865 C 639.637 0.184597 -4.24098 0
M  V30 6866 C 637.544 -1.67695 -5.67126 0
M  V30 6867 H 636.474 -0.0583769 -0.751737 0
M  V30 6868 H 639.125 -0.817111 -1.64303 0
M  V30 6869 H 637.507 0.472092 -3.93176 0
M  V30 6870 H 638.681 -2.3869 -3.94162 0
M  V30 6871 H 636.996 -2.02004 -3.6412 0
M  V30 6872 H 639.593 0.179088 -5.344 0
M  V30 6873 H 639.936 1.21632 -3.98135 0
M  V30 6874 H 640.469 -0.482141 -3.94867 0
M  V30 6875 H 637.208 -2.68783 -5.9786 0
M  V30 6876 H 636.728 -0.976313 -5.91801 0
M  V30 6877 H 638.407 -1.42142 -6.31193 0
M  V30 6878 N 638.539 1.52521 -0.396863 0
M  V30 6879 C 639.469 2.29582 0.425941 0
M  V30 6880 C 640.45 1.33281 1.05689 0
M  V30 6881 O 641.635 1.62181 1.06823 0
M  V30 6882 C 638.765 3.10821 1.54943 0
M  V30 6883 C 637.719 4.15069 1.04413 0
M  V30 6884 C 637.045 4.84578 2.26028 0
M  V30 6885 C 638.345 5.22191 0.106767 0
M  V30 6886 H 640.039 2.98612 -0.217045 0
M  V30 6887 H 637.585 1.43611 -0.105826 0
M  V30 6888 H 639.538 3.63492 2.13193 0
M  V30 6889 H 638.262 2.39538 2.22011 0
M  V30 6890 H 636.921 3.63389 0.484118 0
M  V30 6891 H 636.569 4.09835 2.91623 0
M  V30 6892 H 636.269 5.55043 1.92876 0
M  V30 6893 H 637.793 5.40056 2.84906 0
M  V30 6894 H 639.207 5.70176 0.597685 0
M  V30 6895 H 637.604 5.99947 -0.135352 0
M  V30 6896 H 638.674 4.77531 -0.842134 0
M  V30 6897 N 640.017 0.126909 1.57088 0
M  V30 6898 C 641.428 -0.397201 1.82426 0
M  V30 6899 C 641.779 -1.66084 1.04453 0
M  V30 6900 O 640.904 -2.14534 0.283552 0
M  V30 6901 C 641.499 -0.727411 3.30899 0
M  V30 6902 C 640.058 -1.19612 3.56889 0
M  V30 6903 C 639.205 -0.20885 2.76512 0
M  V30 6904 H 642.156 0.351924 1.54749 0
M  V30 6905 H 642.177 -1.58407 3.45959 0
M  V30 6906 H 641.689 0.19247 3.87622 0
M  V30 6907 H 639.79 -2.13263 3.05532 0
M  V30 6908 H 639.903 -1.13598 4.65438 0
M  V30 6909 H 638.267 -0.697479 2.44964 0
M  V30 6910 H 639.05 0.704267 3.35998 0
M  V30 6911 N 641.495 -1.56914 -0.146875 0
M  V30 6912 C 642.72 -1.87881 -0.878386 0
M  V30 6913 C 643.145 -0.715945 -1.73942 0
M  V30 6914 O 642.503 0.334447 -1.78189 0
M  V30 6915 C 642.551 -3.17431 -1.71084 0
M  V30 6916 O 641.655 -3.01374 -2.81509 0
M  V30 6917 H 640.996 -0.617289 -0.244644 0
M  V30 6918 H 643.526 -2.04136 -0.137654 0
M  V30 6919 H 643.536 -3.49455 -2.10582 0
M  V30 6920 H 642.211 -4.01671 -1.07856 0
M  V30 6921 H 640.788 -2.80758 -2.45416 0
M  V30 6922 N 642.974 0.416227 -1.52004 0
M  V30 6923 C 644.199 1.19029 -1.69843 0
M  V30 6924 C 644.624 1.83708 -0.404103 0
M  V30 6925 O 643.982 1.69711 0.637787 0
M  V30 6926 C 644.03 2.23439 -2.83032 0
M  V30 6927 O 643.134 3.29419 -2.48106 0
M  V30 6928 H 642.475 0.347785 -0.565634 0
M  V30 6929 H 645.005 0.488871 -1.98674 0
M  V30 6930 H 645.015 2.67884 -3.07737 0
M  V30 6931 H 643.69 1.75745 -3.76944 0
M  V30 6932 H 642.267 2.90303 -2.34048 0
M  V30 6933 N 644.452 1.42507 0.673017 0
M  V30 6934 C 645.382 1.48916 1.79851 0
M  V30 6935 C 646.363 0.345566 1.66553 0
M  V30 6936 O 647.548 0.560116 1.85947 0
M  V30 6937 C 644.678 1.39258 3.18158 0
M  V30 6938 C 643.632 2.51662 3.46194 0
M  V30 6939 C 642.958 2.27062 4.84094 0
M  V30 6940 C 644.258 3.93968 3.42909 0
M  V30 6941 H 645.952 2.43114 1.74745 0
M  V30 6942 H 643.498 1.17013 0.839288 0
M  V30 6943 H 645.451 1.42349 3.96629 0
M  V30 6944 H 644.175 0.415542 3.23946 0
M  V30 6945 H 642.834 2.47891 2.70084 0
M  V30 6946 H 642.482 1.27648 4.86534 0
M  V30 6947 H 642.182 3.02398 5.03815 0
M  V30 6948 H 643.706 2.31905 5.64847 0
M  V30 6949 H 645.12 3.99332 4.11347 0
M  V30 6950 H 643.517 4.6917 3.74165 0
M  V30 6951 H 644.587 4.20512 2.41449 0
M  V30 6952 N 645.93 -0.909495 1.28709 0
M  V30 6953 C 647.16 -1.69027 1.188 0
M  V30 6954 C 647.568 -1.87469 -0.255329 0
M  V30 6955 O 646.911 -1.40458 -1.18394 0
M  V30 6956 C 646.973 -3.10064 1.81936 0
M  V30 6957 C 646.637 -3.14891 3.31199 0
M  V30 6958 C 647.634 -2.95768 4.27571 0
M  V30 6959 C 645.319 -3.37269 3.7223 0
M  V30 6960 C 647.313 -2.98942 5.6295 0
M  V30 6961 C 645 -3.40074 5.07733 0
M  V30 6962 C 645.998 -3.20932 6.02903 0
M  V30 6963 O 645.686 -3.23507 7.35934 0
M  V30 6964 H 645.418 -0.535014 0.413203 0
M  V30 6965 H 647.972 -1.14645 1.70428 0
M  V30 6966 H 646.202 -3.66005 1.24808 0
M  V30 6967 H 647.891 -3.70185 1.66486 0
M  V30 6968 H 648.657 -2.78302 3.97206 0
M  V30 6969 H 644.536 -3.51212 2.98615 0
M  V30 6970 H 648.08 -2.83919 6.37209 0
M  V30 6971 H 643.977 -3.5707 5.37747 0
M  V30 6972 H 644.745 -3.3984 7.44615 0
M  V30 6973 N 647.408 -1.11026 -1.11852 0
M  V30 6974 C 648.338 -0.786812 -2.19844 0
M  V30 6975 C 649.319 0.242935 -1.68356 0
M  V30 6976 O 650.504 0.107355 -1.93903 0
M  V30 6977 C 647.634 -0.224516 -3.46574 0
M  V30 6978 C 646.588 -1.18564 -4.1125 0
M  V30 6979 C 645.914 -0.484261 -5.32503 0
M  V30 6980 C 647.214 -2.53465 -4.56676 0
M  V30 6981 H 648.908 -1.68978 -2.47158 0
M  V30 6982 H 646.454 -0.813906 -1.18792 0
M  V30 6983 H 648.407 0.0139435 -4.21398 0
M  V30 6984 H 647.131 0.713722 -3.18706 0
M  V30 6985 H 645.79 -1.40966 -3.38414 0
M  V30 6986 H 645.438 0.458646 -5.00905 0
M  V30 6987 H 645.138 -1.12526 -5.76725 0
M  V30 6988 H 646.662 -0.254492 -6.10069 0
M  V30 6989 H 648.076 -2.35177 -5.22843 0
M  V30 6990 H 646.473 -3.13507 -5.11697 0
M  V30 6991 H 647.543 -3.13008 -3.70343 0
M  V30 6992 N 648.886 1.2938 -0.899927 0
M  V30 6993 C 649.833 2.27713 -0.376243 0
M  V30 6994 C 650.803 1.57016 0.541774 0
M  V30 6995 O 651.988 1.84997 0.466966 0
M  V30 6996 C 649.128 3.42889 0.39 0
M  V30 6997 C 648.241 4.28369 -0.558938 0
M  V30 6998 C 647.376 5.30726 0.224379 0
M  V30 6999 C 646.415 6.07862 -0.719068 0
M  V30 7000 N 645.552 7.02094 0.0298569 0
M  V30 7001 H 650.392 2.71888 -1.21988 0
M  V30 7002 H 647.929 1.33724 -0.612879 0
M  V30 7003 H 649.887 4.08443 0.850314 0
M  V30 7004 H 648.517 2.99743 1.19809 0
M  V30 7005 H 647.569 3.62986 -1.13777 0
M  V30 7006 H 648.881 4.82068 -1.2811 0
M  V30 7007 H 648.035 6.02098 0.745881 0
M  V30 7008 H 646.774 4.77759 0.979674 0
M  V30 7009 H 645.779 5.35353 -1.25207 0
M  V30 7010 H 647.004 6.62917 -1.4737 0
M  V30 7011 H 644.95 6.51496 0.767415 0
M  V30 7012 H 644.867 7.5335 -0.632391 0
M  V30 7013 H 646.135 7.77685 0.531615 0
M  V30 7014 N 650.364 0.662433 1.43002 0
M  V30 7015 C 651.613 0.176873 2.00923 0
M  V30 7016 C 651.926 -1.21954 1.52927 0
M  V30 7017 O 653.132 -1.80081 2.03182 0
M  V30 7018 C 651.588 0.265379 3.5892 0
M  V30 7019 C 651.196 1.66507 4.15908 0
M  V30 7020 C 652.94 -0.162103 4.2419 0
M  V30 7021 C 650.847 1.707 5.66229 0
M  V30 7022 H 649.777 0.0623627 0.751417 0
M  V30 7023 H 652.428 0.825813 1.63868 0
M  V30 7024 H 650.81 -0.451235 3.93421 0
M  V30 7025 H 651.984 2.40777 3.92891 0
M  V30 7026 H 650.299 2.03932 3.63044 0
M  V30 7027 H 652.896 -0.150745 5.34487 0
M  V30 7028 H 653.239 -1.19519 3.98774 0
M  V30 7029 H 653.772 0.503075 3.94606 0
M  V30 7030 H 650.511 2.7195 5.96426 0
M  V30 7031 H 650.031 1.00768 5.91275 0
M  V30 7032 H 651.71 1.45487 6.3043 0
M  V30 7033 N 651.842 -1.52309 0.404946 0
M  V30 7034 C 653.07 -2.06185 -0.171818 0
M  V30 7035 C 653.485 -1.27536 -1.39212 0
M  V30 7036 O 652.842 -0.326112 -1.79563 0
M  V30 7037 C 652.893 -3.57647 -0.526417 0
M  V30 7038 O 652.614 -4.3332 0.645417 0
M  V30 7039 C 654.115 -4.27925 -1.15736 0
M  V30 7040 H 651.335 -0.670632 -0.0222328 0
M  V30 7041 H 653.879 -1.96259 0.574692 0
M  V30 7042 H 652.034 -3.67595 -1.22282 0
M  V30 7043 H 652.448 -5.23328 0.35042 0
M  V30 7044 H 653.922 -5.35093 -1.35572 0
M  V30 7045 H 654.399 -3.84134 -2.12926 0
M  V30 7046 H 655.005 -4.22335 -0.501281 0
M  V30 7047 N 653.32 -0.135238 -1.57019 0
M  V30 7048 C 654.597 0.563227 -1.87316 0
M  V30 7049 C 654.977 1.83749 -1.03921 0
M  V30 7050 O 654.325 2.2817 -0.122675 0
M  V30 7051 C 654.535 0.840031 -3.3874 0
M  V30 7052 C 655.883 1.18598 -4.077 0
M  V30 7053 O 656.907 0.92977 -3.43851 0
M  V30 7054 O 655.766 1.66758 -5.20436 0
M  V30 7055 H 652.86 0.285971 -0.775983 0
M  V30 7056 H 655.406 -0.170965 -1.68837 0
M  V30 7057 H 654.178 -0.0622785 -3.9125 0
M  V30 7058 H 653.801 1.62882 -3.62706 0
M  V30 7059 N 654.798 1.5699 0.138552 0
M  V30 7060 C 655.73 1.95515 1.1961 0
M  V30 7061 C 656.743 0.852002 1.38726 0
M  V30 7062 O 657.932 1.13038 1.38147 0
M  V30 7063 C 655.032 2.2213 2.55952 0
M  V30 7064 C 654.205 3.53424 2.57702 0
M  V30 7065 C 653.264 3.6848 3.75645 0
M  V30 7066 O 652.29 4.4079 3.60129 0
M  V30 7067 N 653.492 3.05777 4.93438 0
M  V30 7068 H 656.257 2.86838 0.868557 0
M  V30 7069 H 653.818 1.58542 0.328033 0
M  V30 7070 H 655.81 2.29435 3.33379 0
M  V30 7071 H 654.38 1.3703 2.80965 0
M  V30 7072 H 653.6 3.57484 1.6613 0
M  V30 7073 H 654.888 4.39759 2.55909 0
M  V30 7074 H 654.286 2.46961 5.08947 0
M  V30 7075 H 652.843 3.18631 5.6861 0
M  V30 7076 N 656.276 -0.40816 1.52223 0
M  V30 7077 C 657.553 -1.16807 1.56893 0
M  V30 7078 C 657.933 -2.08169 0.350537 0
M  V30 7079 O 657.281 -2.18684 -0.662536 0
M  V30 7080 C 657.491 -1.94451 2.8981 0
M  V30 7081 C 658.839 -2.50484 3.42845 0
M  V30 7082 O 659.863 -2.0463 2.91556 0
M  V30 7083 O 658.722 -3.34192 4.3241 0
M  V30 7084 H 655.816 -0.533382 0.632007 0
M  V30 7085 H 658.362 -0.414862 1.64551 0
M  V30 7086 H 657.134 -1.27527 3.69936 0
M  V30 7087 H 656.757 -2.76775 2.85449 0
M  V30 7088 N 657.755 -1.42862 -0.66545 0
M  V30 7089 C 659.003 -1.43546 -1.42264 0
M  V30 7090 C 659.324 -0.0563116 -1.94919 0
M  V30 7091 O 658.594 0.906568 -1.73661 0
M  V30 7092 H 657.174 -0.528464 -0.527953 0
M  V30 7093 H 659.836 -1.78363 -0.785665 0
M  V30 7094 H 658.932 -2.14079 -2.27105 0
M  V30 7095 N 659.233 0.902656 -1.29189 0
M  V30 7096 C 660.51 1.63296 -1.07674 0
M  V30 7097 C 660.89 2.07649 0.380137 0
M  V30 7098 O 660.238 1.82997 1.36837 0
M  V30 7099 C 660.448 2.81603 -2.06158 0
M  V30 7100 C 661.796 3.52359 -2.36914 0
M  V30 7101 O 662.82 2.91767 -2.04329 0
M  V30 7102 O 661.679 4.61586 -2.92576 0
M  V30 7103 H 658.773 0.716889 -0.41231 0
M  V30 7104 H 661.319 0.950984 -1.4055 0
M  V30 7105 H 660.091 2.46004 -3.04299 0
M  V30 7106 H 659.714 3.57508 -1.73993 0
M  V30 7107 N 660.711 1.11618 1.11262 0
M  V30 7108 C 661.658 0.7762 2.17356 0
M  V30 7109 C 662.628 -0.253152 1.6416 0
M  V30 7110 O 663.813 -0.129655 1.90359 0
M  V30 7111 C 660.953 0.227581 3.44349 0
M  V30 7112 C 660.066 1.31372 4.1154 0
M  V30 7113 C 659.201 0.72544 5.26223 0
M  V30 7114 C 658.24 1.7913 5.85302 0
M  V30 7115 N 657.377 1.22237 6.91377 0
M  V30 7116 H 662.217 1.68508 2.45783 0
M  V30 7117 H 659.754 0.841475 1.20655 0
M  V30 7118 H 661.712 -0.108483 4.17059 0
M  V30 7119 H 660.342 -0.644486 3.16301 0
M  V30 7120 H 659.394 1.7667 3.36885 0
M  V30 7121 H 660.706 2.12005 4.51504 0
M  V30 7122 H 659.86 0.339541 6.05749 0
M  V30 7123 H 658.599 -0.112188 4.87571 0
M  V30 7124 H 657.604 2.18648 5.04453 0
M  V30 7125 H 658.829 2.63199 6.26022 0
M  V30 7126 H 656.775 0.406423 6.5474 0
M  V30 7127 H 656.692 1.9654 7.30006 0
M  V30 7128 H 657.96 0.863426 7.74703 0
M  V30 7129 N 662.189 -1.289 0.906776 0
M  V30 7130 C 663.437 -1.94883 0.535266 0
M  V30 7131 C 663.758 -1.71784 -0.922791 0
M  V30 7132 O 663.028 -1.05359 -1.65156 0
M  V30 7133 H 661.608 -0.721109 0.194962 0
M  V30 7134 H 664.27 -1.57018 1.15461 0
M  V30 7135 H 663.366 -3.03591 0.723821 0
M  V30 7136 N 663.667 -0.670007 -1.42649 0
M  V30 7137 C 664.895 -0.19854 -2.05945 0
M  V30 7138 C 665.31 1.14243 -1.50313 0
M  V30 7139 O 664.667 1.70872 -0.641027 0
M  V30 7140 C 664.718 -0.11966 -3.61302 0
M  V30 7141 O 664.439 -1.40764 -4.1487 0
M  V30 7142 C 665.94 0.375878 -4.41704 0
M  V30 7143 H 663.16 -0.0976894 -0.663851 0
M  V30 7144 H 665.704 -0.915392 -1.82868 0
M  V30 7145 H 663.859 0.547851 -3.83507 0
M  V30 7146 H 664.273 -1.27784 -5.08696 0
M  V30 7147 H 665.747 0.379988 -5.50691 0
M  V30 7148 H 666.224 1.41028 -4.15942 0
M  V30 7149 H 666.83 -0.259727 -4.24506 0
M  V30 7150 N 665.145 1.52092 -0.413018 0
M  V30 7151 C 666.077 2.24819 0.445994 0
M  V30 7152 C 667.09 1.27925 1.00692 0
M  V30 7153 O 668.279 1.53845 0.905204 0
M  V30 7154 C 665.379 2.96951 1.6332 0
M  V30 7155 C 664.552 4.20746 1.19548 0
M  V30 7156 C 663.611 4.75668 2.25003 0
M  V30 7157 O 662.637 5.38148 1.85434 0
M  V30 7158 N 663.839 4.57579 3.57214 0
M  V30 7159 H 666.604 2.99176 -0.177209 0
M  V30 7160 H 664.165 1.60102 -0.240601 0
M  V30 7161 H 666.157 3.30586 2.33441 0
M  V30 7162 H 664.727 2.25756 2.16225 0
M  V30 7163 H 663.947 3.92881 0.32224 0
M  V30 7164 H 665.235 5.01132 0.880033 0
M  V30 7165 H 664.633 4.07758 3.92109 0
M  V30 7166 H 663.19 4.95642 4.23299 0
M  V30 7167 N 666.623 0.143563 1.56945 0
M  V30 7168 C 668.039 -0.212877 1.58174 0
M  V30 7169 C 668.239 -1.64926 1.15766 0
M  V30 7170 O 667.295 -2.37535 0.856361 0
M  V30 7171 C 668.608 0.0427573 3.0067 0
M  V30 7172 C 670.156 -0.0212221 3.12993 0
M  V30 7173 C 670.631 0.207036 4.57532 0
M  V30 7174 N 672.122 0.153845 4.62944 0
M  V30 7175 C 672.857 0.305018 5.72588 0
M  V30 7176 N 672.353 0.513722 6.90893 0
M  V30 7177 N 674.146 0.242862 5.61575 0
M  V30 7178 H 666.297 1.08148 1.82805 0
M  V30 7179 H 668.56 0.427831 0.84597 0
M  V30 7180 H 668.266 1.03672 3.36073 0
M  V30 7181 H 668.14 -0.678195 3.71053 0
M  V30 7182 H 670.527 -1.00574 2.77433 0
M  V30 7183 H 670.608 0.732004 2.45103 0
M  V30 7184 H 670.252 1.18863 4.93795 0
M  V30 7185 H 670.182 -0.566473 5.23544 0
M  V30 7186 H 672.673 -0.00294866 3.779 0
M  V30 7187 H 672.986 0.619273 7.70315 0
M  V30 7188 H 671.331 0.550001 6.9282 0
M  V30 7189 H 674.522 0.0806015 4.68031 0
M  V30 7190 H 674.695 0.364112 6.46976 0
M  V30 7191 N 668.101 -1.57061 -0.130224 0
M  V30 7192 C 669.35 -1.83446 -0.838488 0
M  V30 7193 C 669.663 -0.727468 -1.81569 0
M  V30 7194 O 670.869 -0.877394 -2.56932 0
M  V30 7195 C 669.325 -3.25201 -1.54182 0
M  V30 7196 C 668.933 -4.4388 -0.606178 0
M  V30 7197 C 670.677 -3.60844 -2.23588 0
M  V30 7198 C 668.584 -5.76661 -1.31209 0
M  V30 7199 H 667.514 -0.684185 -0.316871 0
M  V30 7200 H 670.165 -1.83273 -0.0912059 0
M  V30 7201 H 668.547 -3.1981 -2.33533 0
M  V30 7202 H 669.721 -4.60545 0.153308 0
M  V30 7203 H 668.036 -4.16395 -0.0196705 0
M  V30 7204 H 670.633 -4.57313 -2.77072 0
M  V30 7205 H 670.976 -2.87724 -3.00867 0
M  V30 7206 H 671.509 -3.67971 -1.51137 0
M  V30 7207 H 668.248 -6.52922 -0.580823 0
M  V30 7208 H 667.768 -5.63902 -2.04387 0
M  V30 7209 H 669.447 -6.20035 -1.8484 0
M  V30 7210 N 669.579 0.400081 -1.52437 0
M  V30 7211 C 670.825 1.14456 -1.68141 0
M  V30 7212 C 671.18 1.87965 -0.410722 0
M  V30 7213 O 670.473 1.82121 0.595195 0
M  V30 7214 C 670.667 2.15914 -2.84808 0
M  V30 7215 C 670.496 1.5237 -4.231 0
M  V30 7216 C 669.266 1.29252 -4.8849 0
M  V30 7217 C 671.464 0.979722 -5.04882 0
M  V30 7218 N 669.446 0.616955 -6.10792 0
M  V30 7219 C 670.817 0.43159 -6.18496 0
M  V30 7220 C 672.872 0.875059 -4.9015 0
M  V30 7221 C 671.575 -0.210958 -7.18991 0
M  V30 7222 C 673.601 0.246351 -5.90887 0
M  V30 7223 C 672.963 -0.291062 -7.03798 0
M  V30 7224 H 669.062 0.405181 -0.668844 0
M  V30 7225 H 671.646 0.435655 -1.89763 0
M  V30 7226 H 669.817 2.84154 -2.64785 0
M  V30 7227 H 671.549 2.8279 -2.89503 0
M  V30 7228 H 668.304 1.56451 -4.47012 0
M  V30 7229 H 668.728 0.295536 -6.76355 0
M  V30 7230 H 673.37 1.27636 -4.03074 0
M  V30 7231 H 671.088 -0.6243 -8.05685 0
M  V30 7232 H 674.674 0.166765 -5.81561 0
M  V30 7233 H 673.554 -0.76988 -7.80412 0
M  V30 7234 N 671.057 1.43213 0.657864 0
M  V30 7235 C 672.02 1.47687 1.75275 0
M  V30 7236 C 673.02 0.362179 1.56668 0
M  V30 7237 O 674.21 0.623734 1.62651 0
M  V30 7238 C 671.342 1.32497 3.14098 0
M  V30 7239 H 672.535 2.4519 1.7269 0
M  V30 7240 H 670.088 1.2991 0.869087 0
M  V30 7241 H 670.823 0.359831 3.22298 0
M  V30 7242 H 670.608 2.13299 3.29008 0
M  V30 7243 H 672.098 1.38549 3.93946 0
M  V30 7244 N 672.536 -0.895792 1.29666 0
M  V30 7245 C 673.499 -1.98189 1.15124 0
M  V30 7246 C 674.499 -1.60572 0.0855717 0
M  V30 7247 O 675.689 -1.70991 0.332826 0
M  V30 7248 C 672.821 -3.32289 0.761372 0
M  V30 7249 H 674.014 -2.12518 2.11603 0
M  V30 7250 H 671.567 -1.0808 1.12908 0
M  V30 7251 H 672.302 -3.23662 -0.203393 0
M  V30 7252 H 672.087 -3.60958 1.53139 0
M  V30 7253 H 673.577 -4.1198 0.682792 0
M  V30 7254 N 674.014 -1.12206 -1.10668 0
M  V30 7255 C 674.944 -0.810086 -2.18997 0
M  V30 7256 C 675.925 0.225065 -1.68604 0
M  V30 7257 O 677.11 0.086783 -1.94006 0
M  V30 7258 C 674.24 -0.261262 -3.46316 0
M  V30 7259 C 673.194 -1.2292 -4.09969 0
M  V30 7260 C 672.52 -0.540713 -5.31959 0
M  V30 7261 C 673.82 -2.58295 -4.53962 0
M  V30 7262 H 675.514 -1.7159 -2.45352 0
M  V30 7263 H 673.06 -0.82646 -1.17922 0
M  V30 7264 H 675.013 -0.0307522 -4.21389 0
M  V30 7265 H 673.737 0.679879 -3.19445 0
M  V30 7266 H 672.396 -1.44548 -3.369 0
M  V30 7267 H 672.044 0.405492 -5.01363 0
M  V30 7268 H 671.744 -1.18637 -5.75499 0
M  V30 7269 H 673.268 -0.319184 -6.09765 0
M  V30 7270 H 674.682 -2.40709 -5.20319 0
M  V30 7271 H 673.079 -3.18916 -5.08343 0
M  V30 7272 H 674.149 -3.16918 -3.67002 0
M  V30 7273 N 675.492 1.28418 -0.913599 0
M  V30 7274 C 676.739 1.94981 -0.546674 0
M  V30 7275 C 677.067 1.7192 0.909606 0
M  V30 7276 O 676.322 1.03314 1.66207 0
M  V30 7277 C 676.621 3.48283 -0.802099 0
M  V30 7278 C 676.287 3.91444 -2.2379 0
M  V30 7279 C 674.949 4.02939 -2.63046 0
M  V30 7280 C 677.301 4.13542 -3.17227 0
M  V30 7281 C 674.629 4.3391 -3.94891 0
M  V30 7282 C 676.981 4.45992 -4.48636 0
M  V30 7283 C 675.645 4.55698 -4.87746 0
M  V30 7284 H 674.915 0.713487 -0.200042 0
M  V30 7285 H 677.562 1.52756 -1.15489 0
M  V30 7286 H 675.867 3.91643 -0.111076 0
M  V30 7287 H 677.564 3.97903 -0.497375 0
M  V30 7288 H 674.154 3.83024 -1.9233 0
M  V30 7289 H 678.338 4.04114 -2.88107 0
M  V30 7290 H 673.594 4.39631 -4.24894 0
M  V30 7291 H 677.768 4.62038 -5.21051 0
M  V30 7292 H 675.395 4.79451 -5.89942 0
M  V30 7293 N 676.97 0.677563 1.42291 0
M  V30 7294 C 677.9 0.014968 2.33495 0
M  V30 7295 C 678.881 -0.786376 1.50831 0
M  V30 7296 O 680.066 -0.742975 1.79426 0
M  V30 7297 C 677.196 -0.935023 3.34477 0
M  V30 7298 C 676.15 -0.242074 4.27315 0
M  V30 7299 C 675.476 -1.30519 5.18526 0
M  V30 7300 C 676.776 0.880604 5.14823 0
M  V30 7301 H 678.47 0.776671 2.89151 0
M  V30 7302 H 676.016 0.37494 1.39033 0
M  V30 7303 H 677.969 -1.40766 3.97194 0
M  V30 7304 H 676.693 -1.72818 2.77131 0
M  V30 7305 H 675.352 0.210351 3.65996 0
M  V30 7306 H 675 -2.09041 4.57505 0
M  V30 7307 H 674.7 -0.846652 5.81468 0
M  V30 7308 H 676.224 -1.7787 5.84119 0
M  V30 7309 H 677.638 0.489062 5.7121 0
M  V30 7310 H 676.035 1.26511 5.86613 0
M  V30 7311 H 677.105 1.72818 4.53059 0
M  V30 7312 N 678.448 -1.51871 0.421078 0
M  V30 7313 C 679.696 -2.01539 -0.150492 0
M  V30 7314 C 680.017 -1.30803 -1.44623 0
M  V30 7315 O 679.287 -0.437568 -1.90951 0
M  V30 7316 H 677.867 -0.744698 -0.0586041 0
M  V30 7317 H 680.529 -1.8668 0.560059 0
M  V30 7318 H 679.625 -3.10264 -0.338068 0
M  V30 7319 N 679.926 -0.151884 -1.56866 0
M  V30 7320 C 680.856 0.781943 -2.20018 0
M  V30 7321 C 681.837 1.25347 -1.14987 0
M  V30 7322 O 683.022 1.31015 -1.43348 0
M  V30 7323 C 680.152 2.01928 -2.82564 0
M  V30 7324 C 679.106 1.68434 -3.93464 0
M  V30 7325 C 678.432 2.99472 -4.42968 0
M  V30 7326 C 679.732 0.927244 -5.14003 0
M  V30 7327 H 681.426 0.255607 -2.98307 0
M  V30 7328 H 678.972 0.121502 -1.43486 0
M  V30 7329 H 680.925 2.67741 -3.25411 0
M  V30 7330 H 679.649 2.56943 -2.01614 0
M  V30 7331 H 678.308 1.04998 -3.51242 0
M  V30 7332 H 677.956 3.52488 -3.58834 0
M  V30 7333 H 677.656 2.77823 -5.17772 0
M  V30 7334 H 679.18 3.66348 -4.88489 0
M  V30 7335 H 680.594 1.48756 -5.53665 0
M  V30 7336 H 678.991 0.810513 -5.94601 0
M  V30 7337 H 680.061 -0.0801163 -4.84834 0
M  V30 7338 N 681.404 1.57128 0.121893 0
M  V30 7339 C 682.652 1.84335 0.828548 0
M  V30 7340 C 682.973 0.736632 1.80551 0
M  V30 7341 O 682.243 -0.23962 1.94429 0
M  V30 7342 H 680.823 0.680108 0.30897 0
M  V30 7343 H 683.485 1.9459 0.109906 0
M  V30 7344 H 682.581 2.80152 1.37554 0
M  V30 7345 N 682.882 -0.391992 1.52647 0
M  V30 7346 C 684.128 -1.139 1.67793 0
M  V30 7347 C 684.461 -1.89711 0.41514 0
M  V30 7348 O 683.736 -1.85431 -0.586979 0
M  V30 7349 C 684.019 -2.11966 2.91105 0
M  V30 7350 C 683.872 -1.39939 4.27478 0
M  V30 7351 C 685.191 -3.1243 3.09961 0
M  V30 7352 H 682.31 -0.412707 0.610608 0
M  V30 7353 H 684.952 -0.422725 1.85238 0
M  V30 7354 H 683.102 -2.73048 2.76364 0
M  V30 7355 H 684.774 -0.818439 4.53982 0
M  V30 7356 H 683.017 -0.701246 4.28095 0
M  V30 7357 H 683.688 -2.1158 5.09841 0
M  V30 7358 H 686.164 -2.61435 3.23714 0
M  V30 7359 H 685.04 -3.78294 3.97725 0
M  V30 7360 H 685.301 -3.81127 2.24042 0
M  V30 7361 N 684.36 -1.4356 -0.65026 0
M  V30 7362 C 685.29 -1.51758 -1.77459 0
M  V30 7363 C 686.271 -0.372019 -1.65982 0
M  V30 7364 O 687.456 -0.589627 -1.85033 0
M  V30 7365 C 684.586 -1.44302 -3.15902 0
M  V30 7366 C 683.54 -2.57138 -3.42146 0
M  V30 7367 C 682.866 -2.34735 -4.8042 0
M  V30 7368 C 684.166 -3.99373 -3.36598 0
M  V30 7369 H 685.86 -2.45863 -1.70855 0
M  V30 7370 H 683.406 -1.18333 -0.820566 0
M  V30 7371 H 685.359 -1.48641 -3.94314 0
M  V30 7372 H 684.083 -0.467026 -3.23244 0
M  V30 7373 H 682.742 -2.52157 -2.66106 0
M  V30 7374 H 682.39 -1.35372 -4.84441 0
M  V30 7375 H 682.09 -3.10375 -4.9894 0
M  V30 7376 H 683.614 -2.40862 -5.61086 0
M  V30 7377 H 685.028 -4.05826 -4.04942 0
M  V30 7378 H 683.425 -4.75063 -3.66654 0
M  V30 7379 H 684.495 -4.243 -2.34729 0
M  V30 7380 N 685.838 0.888903 -1.30139 0
M  V30 7381 C 687.085 1.64037 -1.18736 0
M  V30 7382 C 687.413 1.92771 0.258801 0
M  V30 7383 O 686.668 1.54427 1.20212 0
M  V30 7384 C 686.967 2.99041 -1.95728 0
M  V30 7385 C 686.633 2.89874 -3.45375 0
M  V30 7386 C 685.295 2.87082 -3.86183 0
M  V30 7387 C 687.647 2.78289 -4.40687 0
M  V30 7388 C 684.975 2.70536 -5.20603 0
M  V30 7389 C 687.327 2.63282 -5.75209 0
M  V30 7390 C 685.991 2.58861 -6.15262 0
M  V30 7391 H 685.261 0.600253 -0.434485 0
M  V30 7392 H 687.908 1.0338 -1.61198 0
M  V30 7393 H 686.213 3.63626 -1.45888 0
M  V30 7394 H 687.91 3.56139 -1.843 0
M  V30 7395 H 684.5 2.92856 -3.12943 0
M  V30 7396 H 688.684 2.79516 -4.10103 0
M  V30 7397 H 683.94 2.65526 -5.50732 0
M  V30 7398 H 688.114 2.5329 -6.48704 0
M  V30 7399 H 685.741 2.45799 -7.19366 0
M  V30 7400 N 687.317 1.12792 1.10072 0
M  V30 7401 C 688.542 0.908838 1.86427 0
M  V30 7402 C 688.967 -0.536793 1.80278 0
M  V30 7403 O 688.325 -1.38033 1.17543 0
M  V30 7404 C 688.373 1.39295 3.3261 0
M  V30 7405 O 687.477 0.573846 4.08388 0
M  V30 7406 H 686.818 0.326234 0.578331 0
M  V30 7407 H 689.348 1.50094 1.39043 0
M  V30 7408 H 689.358 1.39366 3.83459 0
M  V30 7409 H 688.033 2.44555 3.36401 0
M  V30 7410 H 686.61 0.640438 3.67359 0
M  V30 7411 N 688.795 -1.27931 0.920396 0
M  V30 7412 C 689.725 -2.29487 0.431024 0
M  V30 7413 C 690.706 -1.62435 -0.504861 0
M  V30 7414 O 691.891 -1.89797 -0.411176 0
M  V30 7415 C 689.021 -3.45788 -0.323709 0
M  V30 7416 C 687.975 -4.24784 0.523658 0
M  V30 7417 C 687.301 -5.33488 -0.359809 0
M  V30 7418 C 688.601 -4.90874 1.78437 0
M  V30 7419 H 690.295 -2.70671 1.27975 0
M  V30 7420 H 687.841 -1.30121 0.616813 0
M  V30 7421 H 689.794 -4.15927 -0.676952 0
M  V30 7422 H 688.518 -3.03502 -1.2064 0
M  V30 7423 H 687.177 -3.56382 0.85951 0
M  V30 7424 H 686.825 -4.87445 -1.24124 0
M  V30 7425 H 686.525 -5.87247 0.203605 0
M  V30 7426 H 688.049 -6.06472 -0.708787 0
M  V30 7427 H 689.463 -5.53339 1.49963 0
M  V30 7428 H 687.86 -5.54659 2.29071 0
M  V30 7429 H 688.93 -4.14988 2.50824 0
M  V30 7430 N 690.273 -0.685099 -1.4193 0
M  V30 7431 C 691.519 -0.211971 -2.01689 0
M  V30 7432 C 691.852 1.18189 -1.54094 0
M  V30 7433 O 691.127 1.79559 -0.747572 0
M  V30 7434 C 691.41 -0.258019 -3.59174 0
M  V30 7435 C 691.263 -1.68807 -4.16922 0
M  V30 7436 C 692.582 0.388044 -4.38386 0
M  V30 7437 H 689.701 -0.0784987 -0.732808 0
M  V30 7438 H 692.343 -0.871837 -1.68816 0
M  V30 7439 H 690.493 0.303832 -3.8731 0
M  V30 7440 H 692.165 -2.30296 -3.99702 0
M  V30 7441 H 690.408 -2.22553 -3.72361 0
M  V30 7442 H 691.079 -1.6719 -5.26072 0
M  V30 7443 H 693.555 -0.0903432 -4.16002 0
M  V30 7444 H 692.431 0.325232 -5.47936 0
M  V30 7445 H 692.692 1.4672 -4.17044 0
M  V30 7446 N 691.751 1.51645 -0.429126 0
M  V30 7447 C 692.976 2.06917 0.141399 0
M  V30 7448 C 693.401 1.29527 1.36398 0
M  V30 7449 O 692.759 0.33094 1.78254 0
M  V30 7450 C 692.807 3.57776 0.4504 0
M  V30 7451 O 691.911 3.82639 1.53821 0
M  V30 7452 H 691.252 0.663978 0.0054647 0
M  V30 7453 H 693.782 1.95355 -0.608093 0
M  V30 7454 H 693.792 4.01894 0.703249 0
M  V30 7455 H 692.467 4.13532 -0.443213 0
M  V30 7456 H 691.044 3.5039 1.27597 0
M  V30 7457 N 693.229 0.160201 1.56784 0
M  V30 7458 C 694.478 -0.487619 1.95717 0
M  V30 7459 C 694.791 -1.65136 1.0483 0
M  V30 7460 O 695.997 -2.36468 1.33398 0
M  V30 7461 C 694.453 -0.91888 3.47972 0
M  V30 7462 C 694.061 0.218655 4.47466 0
M  V30 7463 C 695.805 -1.53575 3.95746 0
M  V30 7464 C 693.712 -0.231614 5.90946 0
M  V30 7465 H 692.642 -0.185939 0.730714 0
M  V30 7466 H 695.293 0.246657 1.81835 0
M  V30 7467 H 693.675 -1.70881 3.57234 0
M  V30 7468 H 694.849 0.995825 4.49911 0
M  V30 7469 H 693.164 0.744767 4.09685 0
M  V30 7470 H 695.761 -1.88448 5.00391 0
M  V30 7471 H 696.104 -2.42959 3.38048 0
M  V30 7472 H 696.637 -0.810467 3.89456 0
M  V30 7473 H 693.376 0.62718 6.52493 0
M  V30 7474 H 692.896 -0.974379 5.91833 0
M  V30 7475 H 694.575 -0.67922 6.43425 0
M  V30 7476 N 694.707 -1.5719 -0.113559 0
M  V30 7477 C 696.118 -1.74259 -0.670116 0
M  V30 7478 C 696.469 -0.779694 -1.80042 0
M  V30 7479 O 695.594 0.0461353 -2.16351 0
M  V30 7480 C 696.189 -3.15981 -1.22236 0
M  V30 7481 C 694.748 -3.34537 -1.72516 0
M  V30 7482 C 693.895 -2.70116 -0.627098 0
M  V30 7483 H 696.846 -1.58301 0.112396 0
M  V30 7484 H 696.867 -3.17832 -2.09197 0
M  V30 7485 H 696.379 -3.86038 -0.39949 0
M  V30 7486 H 694.48 -2.6953 -2.57263 0
M  V30 7487 H 694.593 -4.42737 -1.83086 0
M  V30 7488 H 692.957 -2.31501 -1.06204 0
M  V30 7489 H 693.74 -3.42802 0.184889 0
M  V30 7490 N 696.185 0.383891 -1.52853 0
M  V30 7491 C 697.115 1.47559 -1.80965 0
M  V30 7492 C 698.096 1.5669 -0.661986 0
M  V30 7493 O 699.281 1.71556 -0.910072 0
M  V30 7494 C 696.411 2.85114 -1.98312 0
M  V30 7495 C 695.365 2.9082 -3.14019 0
M  V30 7496 C 694.691 4.30873 -3.16627 0
M  V30 7497 C 695.991 2.60001 -4.52986 0
M  V30 7498 H 697.685 1.24283 -2.72386 0
M  V30 7499 H 695.231 0.596445 -1.31067 0
M  V30 7500 H 697.184 3.61496 -2.16561 0
M  V30 7501 H 695.908 3.09738 -1.03585 0
M  V30 7502 H 694.567 2.16886 -2.9556 0
M  V30 7503 H 694.215 4.52545 -2.19573 0
M  V30 7504 H 693.915 4.3561 -3.94357 0
M  V30 7505 H 695.439 5.09154 -3.37038 0
M  V30 7506 H 696.853 3.261 -4.71521 0
M  V30 7507 H 695.25 2.76081 -5.32822 0
M  V30 7508 H 696.32 1.5532 -4.59351 0
M  V30 7509 N 697.663 1.43903 0.642637 0
M  V30 7510 C 698.909 1.46296 1.40447 0
M  V30 7511 C 699.242 0.0908361 1.93987 0
M  V30 7512 O 698.517 -0.889884 1.72949 0
M  V30 7513 C 698.8 2.51399 2.57819 0
M  V30 7514 C 698.653 3.97926 2.09702 0
M  V30 7515 C 699.972 2.53125 3.60022 0
M  V30 7516 H 697.091 0.532676 0.509338 0
M  V30 7517 H 699.733 1.75515 0.727635 0
M  V30 7518 H 697.883 2.26614 3.1556 0
M  V30 7519 H 699.555 4.33804 1.5688 0
M  V30 7520 H 697.798 4.10252 1.40982 0
M  V30 7521 H 698.469 4.67096 2.94152 0
M  V30 7522 H 700.945 2.75242 3.12059 0
M  V30 7523 H 699.821 3.28589 4.39682 0
M  V30 7524 H 700.082 1.56895 4.13324 0
M  V30 7525 N 699.141 -0.881989 1.30609 0
M  V30 7526 C 700.39 -1.62878 1.18969 0
M  V30 7527 C 700.703 -1.93946 -0.253859 0
M  V30 7528 O 701.909 -2.67008 -0.491813 0
M  V30 7529 C 700.365 -2.93573 2.0819 0
M  V30 7530 C 699.973 -2.70034 3.57471 0
M  V30 7531 C 701.717 -3.71543 2.0532 0
M  V30 7532 C 699.624 -3.96563 4.38739 0
M  V30 7533 H 698.554 -0.611092 0.441682 0
M  V30 7534 H 701.205 -0.976201 1.55379 0
M  V30 7535 H 699.587 -3.6014 1.64666 0
M  V30 7536 H 700.761 -2.11949 4.09163 0
M  V30 7537 H 699.076 -2.05435 3.62195 0
M  V30 7538 H 701.673 -4.65386 2.63288 0
M  V30 7539 H 702.016 -4.03167 1.03739 0
M  V30 7540 H 702.549 -3.11842 2.46981 0
M  V30 7541 H 699.288 -3.70095 5.41027 0
M  V30 7542 H 698.808 -4.54142 3.9181 0
M  V30 7543 H 700.487 -4.64557 4.50329 0
M  V30 7544 N 700.619 -1.13374 -1.09472 0
M  V30 7545 C 701.849 -0.917019 -1.85133 0
M  V30 7546 C 702.257 0.537568 -1.81402 0
M  V30 7547 O 701.6 1.38385 -1.20811 0
M  V30 7548 C 701.662 -1.32646 -3.34134 0
M  V30 7549 C 701.326 -2.79437 -3.61613 0
M  V30 7550 C 702.323 -3.77596 -3.57375 0
M  V30 7551 C 700.008 -3.16586 -3.89973 0
M  V30 7552 C 702.002 -5.10916 -3.81108 0
M  V30 7553 C 699.689 -4.50085 -4.13361 0
M  V30 7554 C 700.687 -5.47059 -4.0892 0
M  V30 7555 O 700.375 -6.78149 -4.31705 0
M  V30 7556 H 700.107 -0.326997 -0.591649 0
M  V30 7557 H 702.661 -1.51002 -1.39239 0
M  V30 7558 H 700.891 -0.676719 -3.80733 0
M  V30 7559 H 702.58 -1.08229 -3.91205 0
M  V30 7560 H 703.346 -3.50242 -3.35493 0
M  V30 7561 H 699.225 -2.41707 -3.92554 0
M  V30 7562 H 702.769 -5.86597 -3.77558 0
M  V30 7563 H 698.666 -4.77163 -4.34724 0
M  V30 7564 H 699.434 -6.84244 -4.49168 0
M  V30 7565 N 702.098 1.27442 -0.927168 0
M  V30 7566 C 703.375 1.89473 -0.485742 0
M  V30 7567 C 703.755 1.83922 1.03614 0
M  V30 7568 O 703.103 1.28409 1.89007 0
M  V30 7569 C 703.313 3.33417 -1.03123 0
M  V30 7570 C 704.661 4.10333 -1.0914 0
M  V30 7571 O 705.685 3.4243 -0.98082 0
M  V30 7572 O 704.544 5.31737 -1.26165 0
M  V30 7573 H 701.638 0.812124 -0.156154 0
M  V30 7574 H 704.184 1.35713 -1.01882 0
M  V30 7575 H 702.956 3.31747 -2.07508 0
M  V30 7576 H 702.579 3.94695 -0.479767 0
M  V30 7577 N 703.576 0.692616 1.41565 0
M  V30 7578 C 704.822 0.231408 2.02079 0
M  V30 7579 C 705.177 -1.15514 1.53864 0
M  V30 7580 O 704.47 -1.76786 0.73873 0
M  V30 7581 C 704.664 0.225073 3.56691 0
M  V30 7582 C 704.493 1.60947 4.19912 0
M  V30 7583 C 703.263 2.2116 4.54331 0
M  V30 7584 C 705.461 2.55553 4.46315 0
M  V30 7585 N 703.443 3.52195 5.02824 0
M  V30 7586 C 704.814 3.71263 4.96552 0
M  V30 7587 C 706.869 2.53857 4.28323 0
M  V30 7588 C 705.572 4.85555 5.30687 0
M  V30 7589 C 707.598 3.67259 4.63546 0
M  V30 7590 C 706.96 4.81699 5.13951 0
M  V30 7591 H 703.059 0.130001 0.771119 0
M  V30 7592 H 705.643 0.909459 1.72154 0
M  V30 7593 H 703.814 -0.422453 3.86096 0
M  V30 7594 H 705.546 -0.250685 4.03923 0
M  V30 7595 H 702.301 1.73474 4.40685 0
M  V30 7596 H 702.725 4.19354 5.3148 0
M  V30 7597 H 707.367 1.66598 3.88594 0
M  V30 7598 H 705.085 5.73477 5.69341 0
M  V30 7599 H 708.671 3.67195 4.51286 0
M  V30 7600 H 707.551 5.67995 5.40695 0
M  V30 7601 N 705.054 -1.51416 0.437162 0
M  V30 7602 C 706.017 -2.26312 -0.362729 0
M  V30 7603 C 707.017 -1.29748 -0.949847 0
M  V30 7604 O 708.207 -1.53462 -0.824325 0
M  V30 7605 C 705.339 -3.05475 -1.5132 0
M  V30 7606 H 706.532 -2.98459 0.29365 0
M  V30 7607 H 704.085 -1.55137 0.190327 0
M  V30 7608 H 704.82 -2.37744 -2.20563 0
M  V30 7609 H 704.605 -3.76401 -1.09838 0
M  V30 7610 H 706.095 -3.62209 -2.07833 0
M  V30 7611 N 706.532 -0.168513 -1.56696 0
M  V30 7612 C 707.772 0.479648 -1.98693 0
M  V30 7613 C 708.136 1.60609 -1.05209 0
M  V30 7614 O 709.337 2.3166 -1.36334 0
M  V30 7615 C 707.608 0.952852 -3.44464 0
M  V30 7616 S 709.167 1.60259 -4.08488 0
M  V30 7617 H 705.985 0.154377 -0.694038 0
M  V30 7618 H 708.587 -0.265312 -1.93691 0
M  V30 7619 H 707.291 0.12257 -4.10217 0
M  V30 7620 H 706.822 1.73192 -3.53225 0
M  V30 7621 H 708.837 2.89065 -4.03307 0
M  V30 7622 N 708.01 1.57248 0.105221 0
M  V30 7623 C 709.235 1.90143 0.828264 0
M  V30 7624 C 709.66 0.761811 1.71983 0
M  V30 7625 O 709.018 -0.287086 1.79013 0
M  V30 7626 C 709.066 3.21856 1.62608 0
M  V30 7627 O 708.17 3.08732 2.7342 0
M  V30 7628 H 707.511 0.623558 0.228192 0
M  V30 7629 H 710.041 2.0443 0.0834826 0
M  V30 7630 H 710.051 3.54916 2.01243 0
M  V30 7631 H 708.726 4.0439 0.971687 0
M  V30 7632 H 707.303 2.87167 2.37886 0
M  V30 7633 N 709.488 -0.375779 1.53054 0
M  V30 7634 C 710.713 -1.14484 1.7294 0
M  V30 7635 C 711.138 -1.82572 0.452668 0
M  V30 7636 O 710.496 -1.71343 -0.592567 0
M  V30 7637 C 710.544 -2.15857 2.88857 0
M  V30 7638 O 709.648 -3.22725 2.56753 0
M  V30 7639 H 708.989 -0.332666 0.574656 0
M  V30 7640 H 711.519 -0.436025 1.999 0
M  V30 7641 H 711.529 -2.59631 3.14731 0
M  V30 7642 H 710.204 -1.65689 3.81471 0
M  V30 7643 H 708.781 -2.83996 2.41663 0
M  V30 7644 N 710.966 -1.44241 -0.634997 0
M  V30 7645 C 712.191 -1.50516 -1.42687 0
M  V30 7646 C 712.616 -0.129864 -1.87651 0
M  V30 7647 O 711.974 0.880164 -1.58502 0
M  V30 7648 C 712.022 -2.4714 -2.62591 0
M  V30 7649 O 711.126 -1.97025 -3.62291 0
M  V30 7650 H 710.467 -0.50841 -0.427101 0
M  V30 7651 H 712.997 -1.89337 -0.775408 0
M  V30 7652 H 713.007 -2.65048 -3.10183 0
M  V30 7653 H 711.682 -3.47039 -2.29209 0
M  V30 7654 H 710.259 -1.88866 -3.21534 0
M  V30 7655 N 712.444 0.87505 -1.31075 0
M  V30 7656 C 713.669 1.66583 -1.23551 0
M  V30 7657 C 714.094 1.87067 0.19686 0
M  V30 7658 O 713.452 1.40877 1.1412 0
M  V30 7659 C 713.5 3.01401 -1.97965 0
M  V30 7660 O 712.604 3.90923 -1.31351 0
M  V30 7661 H 711.945 0.508645 -0.426821 0
M  V30 7662 H 714.475 1.09139 -1.7306 0
M  V30 7663 H 714.485 3.51374 -2.07366 0
M  V30 7664 H 713.16 2.85812 -3.02133 0
M  V30 7665 H 711.737 3.49369 -1.30368 0
M  V30 7666 N 713.922 1.13953 1.08869 0
M  V30 7667 C 715.199 0.815768 1.77777 0
M  V30 7668 C 715.579 -0.691624 1.99449 0
M  V30 7669 O 714.927 -1.63085 1.60049 0
M  V30 7670 C 715.137 1.60916 3.09689 0
M  V30 7671 C 716.485 1.80549 3.84301 0
M  V30 7672 O 717.509 1.57562 3.19457 0
M  V30 7673 O 716.368 2.18946 5.00724 0
M  V30 7674 H 713.462 0.298445 0.771271 0
M  V30 7675 H 716.008 1.24446 1.15374 0
M  V30 7676 H 714.78 2.6333 2.89435 0
M  V30 7677 H 714.403 1.17578 3.79817 0
M  V30 7678 N 715.4 -1.26948 0.933913 0
M  V30 7679 C 716.31 -2.30366 0.443671 0
M  V30 7680 C 717.326 -1.67284 -0.478745 0
M  V30 7681 O 718.502 -1.98156 -0.360043 0
M  V30 7682 C 715.567 -3.45485 -0.289974 0
M  V30 7683 C 714.628 -4.24069 0.668114 0
M  V30 7684 C 713.861 -5.33691 -0.0306138 0
M  V30 7685 O 714.084 -5.5656 -1.24888 0
M  V30 7686 O 713.018 -5.98441 0.644384 0
M  V30 7687 H 716.844 -2.74349 1.30254 0
M  V30 7688 H 714.429 -1.32012 0.699506 0
M  V30 7689 H 716.311 -4.15486 -0.70353 0
M  V30 7690 H 714.986 -3.03546 -1.12435 0
M  V30 7691 H 713.893 -3.56579 1.13147 0
M  V30 7692 H 715.226 -4.69739 1.46989 0
M  V30 7693 N 716.879 -0.700114 -1.41195 0
M  V30 7694 C 718.127 -0.232546 -2.00758 0
M  V30 7695 C 718.448 1.1734 -1.55745 0
M  V30 7696 O 717.718 1.79262 -0.790058 0
M  V30 7697 H 716.298 -0.0829845 -0.742376 0
M  V30 7698 H 718.96 -0.902289 -1.72756 0
M  V30 7699 H 718.056 -0.253521 -3.11069 0
M  V30 7700 N 718.357 1.51182 -0.445186 0
M  V30 7701 C 719.307 2.24804 0.380394 0
M  V30 7702 C 720.291 1.27344 0.983482 0
M  V30 7703 O 721.483 1.52392 0.900322 0
M  V30 7704 C 718.612 3.09922 1.4766 0
M  V30 7705 C 717.698 4.14816 0.882517 0
M  V30 7706 N 718.089 5.05797 0.0183278 0
M  V30 7707 C 716.387 4.30938 1.14927 0
M  V30 7708 C 717.088 5.8084 -0.316152 0
M  V30 7709 N 716.064 5.42759 0.302214 0
M  V30 7710 H 719.866 2.92508 -0.285737 0
M  V30 7711 H 717.38 1.60342 -0.257733 0
M  V30 7712 H 719.377 3.61249 2.08098 0
M  V30 7713 H 718.037 2.43763 2.14498 0
M  V30 7714 H 719.048 5.16725 -0.348679 0
M  V30 7715 H 715.725 3.76005 1.81457 0
M  V30 7716 H 717.115 6.64115 -1.01986 0
M  V30 7717 O 719.874 0.317958 1.58339 0
M  V30 7718 H 720.565 -0.243085 1.92169 0
M  V30 END ATOM
M  V30 BEGIN BOND
M  V30 END BOND
M  V30 END CTAB
M  END
$$$$
