drugbank_target|Q8I2Z8 Probable ATP-dependent 6-phosphofructokinase (DB11638)
 OpenBabel12092121103D

  0  0  0     0  0            999 V3000
M  V30 BEGIN CTAB
M  V30 COUNTS 22413 22626 0 0 0
M  V30 BEGIN ATOM
M  V30 1 H -0.908 1.98254 -0.117106 0
M  V30 2 N 0 1.576 0 0
M  V30 3 C 0.933 2.03868 1.02534 0
M  V30 4 C 1.911 0.928543 1.3348 0
M  V30 5 O 3.095 1.19667 1.45644 0
M  V30 6 C 0.222 2.43627 2.35294 0
M  V30 7 C -0.732 3.65373 2.2001 0
M  V30 8 S 0.101 5.13292 1.52614 0
M  V30 9 C 1.257 5.56322 2.86805 0
M  V30 10 H 1.49 2.90518 0.631377 0
M  V30 11 H -0.977 1.52953 0.210867 0
M  V30 12 H 0.981 2.67203 3.11629 0
M  V30 13 H -0.358 1.57376 2.7183 0
M  V30 14 H -1.165 3.90944 3.18086 0
M  V30 15 H -1.563 3.418 1.51819 0
M  V30 16 H 0.729 5.58782 3.83104 0
M  V30 17 H 1.672 6.56266 2.65933 0
M  V30 18 H 2.08 4.83886 2.90714 0
M  V30 19 N 1.4781 -0.272755 1.55222 0
M  V30 20 C 2.7551 -1.02562 1.66555 0
M  V30 21 C 3.1351 -2.04282 0.532189 0
M  V30 22 O 2.4831 -2.23662 -0.467717 0
M  V30 23 C 2.6931 -1.6822 3.05782 0
M  V30 24 C 4.0411 -2.19373 3.63539 0
M  V30 25 O 5.0651 -1.78206 3.08417 0
M  V30 26 O 3.9241 -2.94883 4.60115 0
M  V30 27 H 1.0181 -0.475755 0.676451 0
M  V30 28 H 3.5641 -0.268593 1.67561 0
M  V30 29 H 2.3361 -0.945112 3.79715 0
M  V30 30 H 1.9591 -2.50609 3.08676 0
M  V30 31 N 2.9562 -1.48159 -0.537278 0
M  V30 32 C 4.1842 -1.59454 -1.31841 0
M  V30 33 C 4.5992 -0.252065 -1.8711 0
M  V30 34 O 3.9562 0.757621 -1.66031 0
M  V30 35 C 4.0072 -2.63546 -2.47439 0
M  V30 36 O 3.7282 -3.92583 -1.94449 0
M  V30 37 C 5.2292 -2.85212 -3.39366 0
M  V30 38 H 2.4492 -0.53785 -0.401196 0
M  V30 39 H 4.9932 -1.93932 -0.648891 0
M  V30 40 H 3.1482 -2.31946 -3.1029 0
M  V30 41 H 3.5622 -4.49629 -2.70063 0
M  V30 42 H 5.0362 -3.61863 -4.16844 0
M  V30 43 H 5.5132 -1.93765 -3.94147 0
M  V30 44 H 6.1192 -3.18086 -2.82314 0
M  V30 45 N 4.4343 0.785586 -1.36625 0
M  V30 46 C 5.3813 1.89838 -1.31264 0
M  V30 47 C 6.3513 1.65115 -0.180633 0
M  V30 48 O 7.5363 1.87222 -0.36777 0
M  V30 49 C 4.6763 3.26706 -1.11163 0
M  V30 50 C 3.7893 3.63476 -2.33472 0
M  V30 51 C 2.9243 4.89481 -2.06353 0
M  V30 52 C 1.9633 5.18941 -3.24602 0
M  V30 53 N 1.1003 6.36131 -2.97123 0
M  V30 54 H 5.9403 1.93756 -2.26413 0
M  V30 55 H 3.4773 0.947454 -1.12524 0
M  V30 56 H 5.4353 4.05639 -0.975337 0
M  V30 57 H 4.0653 3.222 -0.196674 0
M  V30 58 H 3.1173 2.79636 -2.57891 0
M  V30 59 H 4.4293 3.81193 -3.21704 0
M  V30 60 H 3.5833 5.76288 -1.89675 0
M  V30 61 H 2.3223 4.73841 -1.15437 0
M  V30 62 H 1.3273 4.30615 -3.41834 0
M  V30 63 H 2.5523 5.36498 -4.16349 0
M  V30 64 H 0.4983 6.21875 -2.08823 0
M  V30 65 H 0.4153 6.54198 -3.78894 0
M  V30 66 H 1.6833 7.2591 -2.84033 0
M  V30 67 N 5.9124 1.20967 1.01018 0
M  V30 68 C 7.1374 1.0503 1.78839 0
M  V30 69 C 7.5624 -0.395752 1.8389 0
M  V30 70 O 6.9204 -1.28529 1.27867 0
M  V30 71 C 6.9684 1.64602 3.2084 0
M  V30 72 O 6.0724 0.887988 4.02726 0
M  V30 73 H 5.4134 0.369987 0.551367 0
M  V30 74 H 7.9434 1.60399 1.27018 0
M  V30 75 H 7.9534 1.68607 3.71532 0
M  V30 76 H 6.6284 2.69841 3.16479 0
M  V30 77 H 5.2054 0.922648 3.61305 0
M  V30 78 N 7.3905 -1.2043 1.01659 0
M  V30 79 C 8.6385 -1.89423 0.704522 0
M  V30 80 C 8.9595 -1.79231 -0.768197 0
M  V30 81 O 8.2295 -1.1947 -1.55254 0
M  V30 82 H 6.8095 -0.701178 0.257602 0
M  V30 83 H 9.4715 -1.4626 1.28818 0
M  V30 84 H 8.5675 -2.96052 0.987916 0
M  V30 85 N 8.8686 -0.792821 -1.36206 0
M  V30 86 C 10.1456 -0.290627 -1.93429 0
M  V30 87 C 10.5256 1.21773 -1.72437 0
M  V30 88 O 9.8736 2.0108 -1.08531 0
M  V30 89 C 10.0836 -0.686973 -3.42172 0
M  V30 90 C 11.4316 -0.668643 -4.19302 0
M  V30 91 O 12.4556 -0.627658 -3.50626 0
M  V30 92 O 11.3146 -0.714597 -5.41808 0
M  V30 93 H 8.4086 -0.0727927 -0.82379 0
M  V30 94 H 10.9546 -0.875593 -1.45367 0
M  V30 95 H 9.7266 -1.72711 -3.51122 0
M  V30 96 H 9.3496 -0.0760733 -3.97527 0
M  V30 97 N 10.3467 1.47872 -0.545128 0
M  V30 98 C 11.2937 2.29849 0.2093 0
M  V30 99 C 12.2637 1.38313 0.919707 0
M  V30 100 O 13.4487 1.67277 0.917772 0
M  V30 101 C 10.5887 3.22019 1.24088 0
M  V30 102 C 9.7017 4.2864 0.537778 0
M  V30 103 C 8.8367 5.07973 1.5536 0
M  V30 104 C 7.8757 6.06381 0.8348 0
M  V30 105 N 7.0127 6.78717 1.79688 0
M  V30 106 H 11.8527 2.93845 -0.49591 0
M  V30 107 H 9.3897 1.44848 -0.256389 0
M  V30 108 H 11.3477 3.73868 1.85144 0
M  V30 109 H 9.9777 2.59914 1.91428 0
M  V30 110 H 9.0297 3.7994 -0.187046 0
M  V30 111 H 10.3417 4.98793 -0.0258907 0
M  V30 112 H 9.4957 5.63912 2.23803 0
M  V30 113 H 8.2347 4.37693 2.15118 0
M  V30 114 H 7.2397 5.49631 0.136388 0
M  V30 115 H 8.4647 6.78665 0.24313 0
M  V30 116 H 6.4107 6.11177 2.38326 0
M  V30 117 H 6.3277 7.44998 1.28505 0
M  V30 118 H 7.5957 7.39237 2.47282 0
M  V30 119 N 11.8248 0.280983 1.55075 0
M  V30 120 C 12.7728 -0.619864 2.24188 0
M  V30 121 C 13.7668 -1.15315 1.24092 0
M  V30 122 O 14.9728 -1.1061 1.42005 0
M  V30 123 H 11.3478 -0.218459 0.719569 0
M  V30 124 H 13.3188 -0.0141831 2.98397 0
M  V30 125 C 12.0678 -1.7899 2.98091 0
M  V30 126 H 11.3908 -1.38874 3.74905 0
M  V30 127 H 12.8308 -2.39672 3.49762 0
M  V30 128 C 11.2898 -2.68192 2.03899 0
M  V30 129 O 11.8198 -3.6872 1.594 0
M  V30 130 N 10.0258 -2.35488 1.70275 0
M  V30 131 H 9.5728 -1.53787 2.06658 0
M  V30 132 H 9.5308 -2.95442 1.07524 0
M  V30 133 N 13.3029 -1.57598 0.00835791 0
M  V30 134 C 14.2659 -2.07884 -0.965242 0
M  V30 135 C 15.2659 -0.989825 -1.26725 0
M  V30 136 O 16.4559 -1.25218 -1.21104 0
M  V30 137 C 13.5879 -2.52731 -2.28779 0
M  V30 138 H 14.7809 -2.95178 -0.530112 0
M  V30 139 H 12.3339 -1.54458 -0.239283 0
M  V30 140 H 13.0689 -1.68705 -2.76964 0
M  V30 141 H 12.8539 -3.32272 -2.08177 0
M  V30 142 H 14.3439 -2.91933 -2.98605 0
M  V30 143 N 14.781 0.264519 -1.55364 0
M  V30 144 C 15.744 1.31046 -1.88042 0
M  V30 145 C 16.744 1.41943 -0.755569 0
M  V30 146 O 17.934 1.40947 -1.02369 0
M  V30 147 C 15.066 2.69067 -2.09323 0
M  V30 148 H 16.259 1.03297 -2.81549 0
M  V30 149 H 13.812 0.502989 -1.47986 0
M  V30 150 H 14.547 3.01982 -1.18226 0
M  V30 151 H 14.332 2.62542 -2.91229 0
M  V30 152 H 15.822 3.44623 -2.35848 0
M  V30 153 N 16.2591 1.48442 0.529413 0
M  V30 154 C 17.2071 1.63452 1.65487 0
M  V30 155 C 18.2011 0.500955 1.61823 0
M  V30 156 O 19.4071 0.679695 1.66674 0
M  V30 157 H 15.7821 0.514905 0.548066 0
M  V30 158 H 17.7531 2.57975 1.49971 0
M  V30 159 C 16.5021 1.69196 3.03756 0
M  V30 160 H 15.8251 2.55784 3.07269 0
M  V30 161 H 17.2651 1.83743 3.82119 0
M  V30 162 C 15.7241 0.430765 3.34135 0
M  V30 163 O 16.2541 -0.4561 3.99102 0
M  V30 164 N 14.4601 0.302293 2.89023 0
M  V30 165 H 14.0071 1.02496 2.36331 0
M  V30 166 H 13.9651 -0.540546 3.09718 0
M  V30 167 N 17.7372 -0.778329 1.37039 0
M  V30 168 C 18.6842 -1.89139 1.32269 0
M  V30 169 C 19.6542 -1.65017 0.189387 0
M  V30 170 O 20.8392 -1.87024 0.377693 0
M  V30 171 C 17.9792 -3.26112 1.12894 0
M  V30 172 C 17.0922 -3.62233 2.35396 0
M  V30 173 C 16.2272 -4.8838 2.08946 0
M  V30 174 C 15.2662 -5.17212 3.2735 0
M  V30 175 N 14.4032 -6.34546 3.00492 0
M  V30 176 H 19.2432 -1.92552 2.27437 0
M  V30 177 H 16.7802 -0.941473 1.13025 0
M  V30 178 H 18.7382 -4.05116 0.996835 0
M  V30 179 H 17.3682 -3.22091 0.213758 0
M  V30 180 H 16.4202 -2.78265 2.5937 0
M  V30 181 H 17.7322 -3.79481 3.23721 0
M  V30 182 H 16.8862 -5.75274 1.92729 0
M  V30 183 H 15.6252 -4.73222 1.17949 0
M  V30 184 H 14.6302 -4.28796 3.44113 0
M  V30 185 H 15.8552 -5.34283 4.19188 0
M  V30 186 H 13.8012 -6.20759 2.12118 0
M  V30 187 H 13.7182 -6.52179 3.82358 0
M  V30 188 H 14.9862 -7.24394 2.87879 0
M  V30 189 N 19.2153 -1.21501 -1.00376 0
M  V30 190 C 20.4633 -1.03095 -1.73827 0
M  V30 191 C 20.7843 0.436341 -1.90055 0
M  V30 192 O 20.0543 1.31466 -1.45236 0
M  V30 193 H 18.6343 -0.378487 -0.644016 0
M  V30 194 H 21.2963 -1.52831 -1.20949 0
M  V30 195 H 20.3923 -1.49991 -2.73695 0
M  V30 196 N 20.6934 1.19889 -1.02296 0
M  V30 197 C 21.9414 1.89046 -0.714558 0
M  V30 198 C 22.2624 1.79636 0.758681 0
M  V30 199 O 21.5324 1.20292 1.54618 0
M  V30 200 H 20.1124 0.699802 -0.261317 0
M  V30 201 H 22.7744 1.45574 -1.29592 0
M  V30 202 H 21.8704 2.95524 -1.0036 0
M  V30 203 N 22.1715 0.800033 1.35784 0
M  V30 204 C 23.1345 0.211565 2.28221 0
M  V30 205 C 24.1345 -0.59728 1.49296 0
M  V30 206 O 25.3245 -0.416721 1.69142 0
M  V30 207 C 22.4565 -0.705846 3.33513 0
M  V30 208 H 23.6495 1.02677 2.81776 0
M  V30 209 H 21.2025 0.570211 1.45528 0
M  V30 210 H 21.9375 -1.54498 2.85133 0
M  V30 211 H 21.7225 -0.127655 3.91892 0
M  V30 212 H 23.2125 -1.11211 4.02519 0
M  V30 213 N 23.6496 -1.47581 0.552962 0
M  V30 214 C 24.9266 -1.95563 -0.0381515 0
M  V30 215 C 25.3066 -1.49552 -1.48988 0
M  V30 216 O 24.6546 -0.732414 -2.16444 0
M  V30 217 C 24.8646 -3.48848 0.102919 0
M  V30 218 C 26.2126 -4.24577 -0.0446082 0
M  V30 219 O 27.2366 -3.56187 0.0302548 0
M  V30 220 O 26.0956 -5.46116 -0.204923 0
M  V30 221 H 23.1896 -0.824321 -0.0665067 0
M  V30 222 H 25.7356 -1.58001 0.619186 0
M  V30 223 H 24.5076 -3.75129 1.11328 0
M  V30 224 H 24.1306 -3.93165 -0.592224 0
M  V30 225 N 25.1277 -0.289203 -1.54924 0
M  V30 226 C 26.3757 0.322879 -1.99504 0
M  V30 227 C 26.6967 1.55313 -1.1791 0
M  V30 228 O 25.9667 1.94001 -0.272097 0
M  V30 229 H 24.5467 0.122291 -0.736922 0
M  V30 230 H 27.2087 -0.397802 -1.90797 0
M  V30 231 H 26.3047 0.603061 -3.06218 0
M  V30 232 N 26.6058 1.57591 -0.0167156 0
M  V30 233 C 27.5358 2.12496 0.967858 0
M  V30 234 C 28.5168 1.03807 1.34752 0
M  V30 235 O 29.7018 1.31577 1.42833 0
M  V30 236 C 26.8318 2.64194 2.25431 0
M  V30 237 C 25.7858 3.77559 2.01576 0
M  V30 238 C 25.1118 4.15636 3.36379 0
M  V30 239 C 26.4118 5.04151 1.36489 0
M  V30 240 H 28.1058 2.95013 0.510643 0
M  V30 241 H 25.6518 1.41915 0.244181 0
M  V30 242 H 27.6048 3.01236 2.94678 0
M  V30 243 H 26.3288 1.78821 2.73296 0
M  V30 244 H 24.9878 3.40937 1.34751 0
M  V30 245 H 24.6358 3.27263 3.81979 0
M  V30 246 H 24.3358 4.92022 3.21229 0
M  V30 247 H 25.8598 4.5525 4.06915 0
M  V30 248 H 27.2738 5.38857 1.95718 0
M  V30 249 H 25.6708 5.85453 1.31776 0
M  V30 250 H 26.7408 4.83733 0.336219 0
M  V30 251 N 28.0839 -0.256276 1.55502 0
M  V30 252 C 29.3299 -0.987079 1.77157 0
M  V30 253 C 29.6629 -1.85327 0.580315 0
M  V30 254 O 28.9379 -1.89874 -0.421686 0
M  V30 255 C 29.2209 -1.85553 3.08613 0
M  V30 256 C 29.0739 -1.01816 4.38125 0
M  V30 257 C 30.3929 -2.8397 3.36228 0
M  V30 258 H 27.5119 -0.357428 0.644526 0
M  V30 259 H 30.1539 -0.258239 1.88237 0
M  V30 260 H 28.3039 -2.47695 2.99298 0
M  V30 261 H 29.9759 -0.416159 4.59419 0
M  V30 262 H 28.2189 -0.322178 4.32602 0
M  V30 263 H 28.8899 -1.65939 5.26468 0
M  V30 264 H 31.3659 -2.31964 3.45445 0
M  V30 265 H 30.2419 -3.41864 4.29442 0
M  V30 266 H 30.5029 -3.59955 2.56681 0
M  V30 267 N 29.562 -1.4872 -0.521534 0
M  V30 268 C 30.509 -1.63871 -1.62527 0
M  V30 269 C 31.479 -0.480559 -1.58996 0
M  V30 270 O 32.664 -0.705085 -1.77294 0
M  V30 271 C 29.804 -1.69227 -3.00759 0
M  V30 272 C 28.917 -2.96207 -3.14461 0
M  V30 273 C 28.052 -2.92671 -4.43303 0
M  V30 274 C 27.091 -4.14318 -4.50563 0
M  V30 275 N 26.228 -4.0881 -5.70805 0
M  V30 276 H 31.068 -2.58123 -1.48918 0
M  V30 277 H 28.605 -1.28 -0.724878 0
M  V30 278 H 30.563 -1.70314 -3.80853 0
M  V30 279 H 29.193 -0.784586 -3.1312 0
M  V30 280 H 28.245 -3.04826 -2.27564 0
M  V30 281 H 29.557 -3.86192 -3.15686 0
M  V30 282 H 28.711 -2.92206 -5.31696 0
M  V30 283 H 27.45 -2.00429 -4.44612 0
M  V30 284 H 26.455 -4.15049 -3.60575 0
M  V30 285 H 27.68 -5.07729 -4.50986 0
M  V30 286 H 25.626 -3.19394 -5.72995 0
M  V30 287 H 25.543 -4.92509 -5.7356 0
M  V30 288 H 26.811 -4.12418 -6.61462 0
M  V30 289 N 31.0401 0.771051 -1.3745 0
M  V30 290 C 32.2681 1.56015 -1.35893 0
M  V30 291 C 32.6831 1.88718 0.0555523 0
M  V30 292 O 32.0401 1.51502 1.01752 0
M  V30 293 C 32.0911 2.87001 -2.19801 0
M  V30 294 O 31.8121 2.557 -3.55738 0
M  V30 295 C 33.3131 3.81228 -2.26231 0
M  V30 296 H 30.5331 0.483317 -0.465453 0
M  V30 297 H 33.0771 0.955611 -1.80799 0
M  V30 298 H 31.2321 3.43877 -1.78402 0
M  V30 299 H 31.6461 3.39584 -3.99729 0
M  V30 300 H 33.1201 4.70139 -2.89263 0
M  V30 301 H 33.5971 4.20409 -1.27093 0
M  V30 302 H 34.2031 3.30281 -2.67945 0
M  V30 303 N 32.5182 1.22032 0.997298 0
M  V30 304 C 33.7642 1.04376 1.73878 0
M  V30 305 C 34.0972 -0.420716 1.89588 0
M  V30 306 O 33.3722 -1.31202 1.43583 0
M  V30 307 C 33.6552 1.75047 3.14691 0
M  V30 308 C 33.5082 3.29062 3.06656 0
M  V30 309 C 34.8272 1.49928 4.13775 0
M  V30 310 H 31.9462 0.380578 0.631133 0
M  V30 311 H 34.5882 1.50312 1.16217 0
M  V30 312 H 32.7382 1.35996 3.63919 0
M  V30 313 H 34.4102 3.7753 2.65083 0
M  V30 314 H 32.6532 3.58967 2.43568 0
M  V30 315 H 33.3242 3.73683 4.06282 0
M  V30 316 H 35.8002 1.83842 3.73285 0
M  V30 317 H 34.6762 2.01878 5.10428 0
M  V30 318 H 34.9372 0.430929 4.39995 0
M  V30 319 N 33.9963 -1.19345 1.0293 0
M  V30 320 C 35.2213 -1.93538 0.745511 0
M  V30 321 C 35.6463 -1.75007 -0.689511 0
M  V30 322 O 35.0043 -1.05265 -1.47611 0
M  V30 323 C 35.0523 -3.43336 1.10239 0
M  V30 324 O 34.1563 -4.11806 0.221289 0
M  V30 325 H 33.4973 -0.604193 0.275404 0
M  V30 326 H 36.0273 -1.5141 1.37609 0
M  V30 327 H 36.0373 -3.94004 1.05947 0
M  V30 328 H 34.7123 -3.56146 2.14786 0
M  V30 329 H 33.2893 -3.715 0.322842 0
M  V30 330 N 35.4744 -0.807222 -1.35358 0
M  V30 331 C 36.7204 -0.388463 -1.99045 0
M  V30 332 C 37.0534 1.04184 -1.63888 0
M  V30 333 O 36.3284 1.72292 -0.902535 0
M  V30 334 C 36.6114 -0.572783 -3.55515 0
M  V30 335 C 36.4644 -2.04807 -4.00468 0
M  V30 336 C 37.7834 0.00114064 -4.401 0
M  V30 337 H 34.9024 -0.142619 -0.723069 0
M  V30 338 H 37.5444 -1.01687 -1.60498 0
M  V30 339 H 35.6944 -0.0378425 -3.88482 0
M  V30 340 H 37.3664 -2.64544 -3.77908 0
M  V30 341 H 35.6094 -2.54427 -3.51353 0
M  V30 342 H 36.2804 -2.12792 -5.09337 0
M  V30 343 H 38.7564 -0.455716 -4.13597 0
M  V30 344 H 37.6324 -0.157737 -5.48673 0
M  V30 345 H 37.8934 1.09488 -4.28328 0
M  V30 346 N 36.9525 1.47285 -0.560781 0
M  V30 347 C 37.8825 2.32857 0.173105 0
M  V30 348 C 38.8635 1.44009 0.905281 0
M  V30 349 O 40.0485 1.7286 0.885046 0
M  V30 350 C 37.1785 3.25861 1.20133 0
M  V30 351 C 36.1325 4.23978 0.585388 0
M  V30 352 C 35.4585 5.06332 1.7185 0
M  V30 353 C 36.7585 5.20242 -0.463178 0
M  V30 354 H 38.4525 2.94466 -0.541307 0
M  V30 355 H 35.9985 1.41601 -0.261764 0
M  V30 356 H 37.9515 3.84569 1.72293 0
M  V30 357 H 36.6755 2.62315 1.94573 0
M  V30 358 H 35.3345 3.66501 0.085054 0
M  V30 359 H 34.9825 4.39186 2.45203 0
M  V30 360 H 34.6825 5.72762 1.31213 0
M  V30 361 H 36.2065 5.67899 2.24329 0
M  V30 362 H 37.6205 5.73293 -0.027502 0
M  V30 363 H 36.0175 5.94896 -0.788627 0
M  V30 364 H 37.0875 4.65504 -1.35773 0
M  V30 365 N 38.4306 0.297415 1.54768 0
M  V30 366 C 39.3606 -0.573494 2.26348 0
M  V30 367 C 40.3416 -1.14085 1.26169 0
M  V30 368 O 41.5266 -1.17086 1.54934 0
M  V30 369 C 38.6566 -1.74716 3.00153 0
M  V30 370 C 37.6106 -1.31032 4.07449 0
M  V30 371 C 36.9366 -2.56887 4.68949 0
M  V30 372 C 38.2366 -0.444183 5.20408 0
M  V30 373 H 39.9306 0.0235131 2.99391 0
M  V30 374 H 37.4766 0.0127488 1.43994 0
M  V30 375 H 39.4296 -2.3625 3.48947 0
M  V30 376 H 38.1536 -2.37035 2.24682 0
M  V30 377 H 36.8126 -0.718066 3.59499 0
M  V30 378 H 36.4606 -3.17512 3.90122 0
M  V30 379 H 36.1606 -2.2836 5.41411 0
M  V30 380 H 37.6846 -3.19229 5.20505 0
M  V30 381 H 39.0986 -0.9651 5.65118 0
M  V30 382 H 37.4956 -0.252846 5.99567 0
M  V30 383 H 38.5656 0.531609 4.81977 0
M  V30 384 N 39.9087 -1.5758 0.0250728 0
M  V30 385 C 41.3247 -1.56124 -0.331282 0
M  V30 386 C 41.5247 -1.03029 -1.73169 0
M  V30 387 O 40.5807 -0.675215 -2.43305 0
M  V30 388 C 41.8937 -3.00139 -0.183584 0
M  V30 389 C 43.4417 -3.11946 -0.256654 0
M  V30 390 C 43.9167 -4.57793 -0.137792 0
M  V30 391 N 45.4077 -4.6279 -0.194904 0
M  V30 392 C 46.1427 -5.7326 -0.126655 0
M  V30 393 N 45.6387 -6.928 -0.00755288 0
M  V30 394 N 47.4317 -5.61811 -0.180348 0
M  V30 395 H 39.5827 -1.90424 0.94087 0
M  V30 396 H 41.8457 -0.875761 0.362968 0
M  V30 397 H 41.5517 -3.4292 0.780927 0
M  V30 398 H 41.4257 -3.64899 -0.955448 0
M  V30 399 H 43.8127 -2.69079 -1.21162 0
M  V30 400 H 43.8937 -2.49915 0.545517 0
M  V30 401 H 43.5377 -5.01339 0.813739 0
M  V30 402 H 43.4677 -5.17798 -0.958775 0
M  V30 403 H 45.9587 -3.76807 -0.287267 0
M  V30 404 H 46.2717 -7.72791 0.0379428 0
M  V30 405 H 44.6167 -6.94995 0.0271731 0
M  V30 406 H 47.8077 -4.6731 -0.271767 0
M  V30 407 H 47.9807 -6.47882 -0.123697 0
M  V30 408 N 41.3868 0.248026 -1.55636 0
M  V30 409 C 42.6638 0.998988 -1.68165 0
M  V30 410 C 43.0438 2.03409 -0.564621 0
M  V30 411 O 42.3918 2.24378 0.432076 0
M  V30 412 C 42.6018 1.63334 -3.0842 0
M  V30 413 C 43.9498 2.13562 -3.66983 0
M  V30 414 O 44.9738 1.73277 -3.11213 0
M  V30 415 O 43.8328 2.87526 -4.64749 0
M  V30 416 H 40.9268 0.464933 -0.683935 0
M  V30 417 H 43.4728 0.241902 -1.67967 0
M  V30 418 H 42.2448 0.884583 -3.8117 0
M  V30 419 H 41.8678 2.45666 -3.12624 0
M  V30 420 N 42.8649 1.48995 0.513639 0
M  V30 421 C 43.8129 1.65199 1.63744 0
M  V30 422 C 44.8069 0.51809 1.61283 0
M  V30 423 O 46.0129 0.697335 1.65943 0
M  V30 424 H 42.3879 0.52069 0.542574 0
M  V30 425 H 44.3589 2.59552 1.47226 0
M  V30 426 C 43.1079 1.72409 3.01945 0
M  V30 427 H 42.4309 2.59029 3.04539 0
M  V30 428 H 43.8709 1.87785 3.80148 0
M  V30 429 C 42.3299 0.46618 3.33659 0
M  V30 430 O 42.8599 -0.413744 3.99564 0
M  V30 431 N 41.0659 0.332931 2.88687 0
M  V30 432 H 40.6129 1.04996 2.35231 0
M  V30 433 H 40.5709 -0.507665 3.10274 0
M  V30 434 N 44.343 -0.763751 1.37857 0
M  V30 435 C 45.29 -1.87726 1.34267 0
M  V30 436 C 46.26 -1.64807 0.206879 0
M  V30 437 O 47.445 -1.86613 0.397508 0
M  V30 438 C 44.585 -3.24896 1.16346 0
M  V30 439 C 43.698 -3.59716 2.39225 0
M  V30 440 C 42.833 -4.86137 2.14114 0
M  V30 441 C 41.872 -5.13711 3.32817 0
M  V30 442 N 41.009 -6.31323 3.07206 0
M  V30 443 H 45.849 -1.90129 2.29466 0
M  V30 444 H 43.386 -0.929433 1.14017 0
M  V30 445 H 45.344 -4.04036 1.03975 0
M  V30 446 H 43.974 -3.21847 0.247909 0
M  V30 447 H 43.026 -2.75498 2.62307 0
M  V30 448 H 44.338 -3.76027 3.27728 0
M  V30 449 H 43.492 -5.73198 1.9882 0
M  V30 450 H 42.231 -4.71945 1.22961 0
M  V30 451 H 41.236 -4.25123 3.48641 0
M  V30 452 H 42.461 -5.29807 4.24832 0
M  V30 453 H 40.407 -6.18474 2.1869 0
M  V30 454 H 40.324 -6.48087 3.89254 0
M  V30 455 H 41.592 -7.213 2.95546 0
M  V30 456 N 45.8211 -1.22559 -0.990812 0
M  V30 457 C 47.0611 -1.06302 -1.74583 0
M  V30 458 C 47.4251 0.394737 -1.87898 0
M  V30 459 O 48.6261 0.678214 -2.60103 0
M  V30 460 C 46.8971 -1.75699 -3.11231 0
M  V30 461 S 48.4561 -1.74882 -4.02445 0
M  V30 462 H 45.2741 -0.380639 -0.600529 0
M  V30 463 H 47.8761 -1.55532 -1.18449 0
M  V30 464 H 46.5801 -2.80923 -2.99183 0
M  V30 465 H 46.1111 -1.26708 -3.72436 0
M  V30 466 H 48.1261 -0.799997 -4.89709 0
M  V30 467 N 47.2992 1.18797 -1.03562 0
M  V30 468 C 48.2312 2.21731 -0.580337 0
M  V30 469 C 49.2442 1.59051 0.347349 0
M  V30 470 O 50.4332 1.77929 0.142669 0
M  V30 471 C 47.5332 3.38459 0.172805 0
M  V30 472 C 46.7062 4.3072 -0.761496 0
M  V30 473 C 45.7652 5.26174 -0.0525547 0
M  V30 474 O 44.7912 5.65108 -0.681333 0
M  V30 475 N 45.9932 5.67624 1.21586 0
M  V30 476 H 48.7582 2.61417 -1.46565 0
M  V30 477 H 46.3192 1.33531 -0.915476 0
M  V30 478 H 48.3112 3.99335 0.656793 0
M  V30 479 H 46.8812 2.97507 0.959602 0
M  V30 480 H 46.1012 3.67525 -1.42544 0
M  V30 481 H 47.3892 4.89267 -1.39626 0
M  V30 482 H 46.7872 5.38038 1.74732 0
M  V30 483 H 45.3442 6.30721 1.64421 0
M  V30 484 N 48.7773 0.814389 1.34928 0
M  V30 485 C 50.0243 0.398423 1.98542 0
M  V30 486 C 50.3523 -1.03638 1.64589 0
M  V30 487 O 49.6073 -1.73509 0.90516 0
M  V30 488 C 49.9063 0.537781 3.53331 0
M  V30 489 C 49.5723 1.93704 4.07172 0
M  V30 490 C 48.2343 2.31984 4.21589 0
M  V30 491 C 50.5863 2.85213 4.36237 0
M  V30 492 C 47.9143 3.61125 4.62391 0
M  V30 493 C 50.2663 4.13809 4.78482 0
M  V30 494 C 48.9303 4.52077 4.91104 0
M  V30 495 H 48.2003 0.145793 0.726516 0
M  V30 496 H 50.8473 1.03669 1.61012 0
M  V30 497 H 49.1523 -0.183906 3.91368 0
M  V30 498 H 50.8493 0.196588 4.00518 0
M  V30 499 H 47.4393 1.62966 3.96409 0
M  V30 500 H 51.6233 2.56885 4.24645 0
M  V30 501 H 46.8793 3.90612 4.70353 0
M  V30 502 H 51.0533 4.84811 4.99932 0
M  V30 503 H 48.6803 5.52196 5.22478 0
M  V30 504 N 50.2554 -1.46986 0.568584 0
M  V30 505 C 51.2034 -2.31858 -0.185649 0
M  V30 506 C 52.1974 -1.43624 -0.898249 0
M  V30 507 O 53.4034 -1.60327 -0.818242 0
M  V30 508 H 49.7784 -0.747866 -0.0787399 0
M  V30 509 H 51.7494 -2.93303 0.549191 0
M  V30 510 C 50.4984 -3.26513 -1.19519 0
M  V30 511 H 49.8214 -3.94377 -0.656285 0
M  V30 512 H 51.2614 -3.88707 -1.6936 0
M  V30 513 C 49.7204 -2.50847 -2.24894 0
M  V30 514 O 50.2504 -2.26119 -3.32014 0
M  V30 515 N 48.4564 -2.11656 -1.99124 0
M  V30 516 H 48.0034 -2.31966 -1.12024 0
M  V30 517 H 47.9614 -1.61347 -2.69842 0
M  V30 518 N 51.7335 -0.305618 -1.54608 0
M  V30 519 C 52.9825 0.303098 -1.9941 0
M  V30 520 C 53.2955 1.54648 -1.19764 0
M  V30 521 O 54.5015 2.23007 -1.54855 0
M  V30 522 C 52.9575 0.590588 -3.55021 0
M  V30 523 C 52.5655 -0.634719 -4.43481 0
M  V30 524 C 54.3095 1.16025 -4.08336 0
M  V30 525 C 52.2165 -0.320126 -5.90533 0
M  V30 526 H 51.1465 0.117031 -0.744862 0
M  V30 527 H 53.7975 -0.415045 -1.78745 0
M  V30 528 H 52.1795 1.36845 -3.71604 0
M  V30 529 H 53.3535 -1.41079 -4.38672 0
M  V30 530 H 51.6685 -1.12333 -4.00962 0
M  V30 531 H 54.2655 1.40994 -5.15776 0
M  V30 532 H 54.6085 2.10397 -3.5922 0
M  V30 533 H 55.1415 0.443985 -3.95315 0
M  V30 534 H 51.8805 -1.23254 -6.43808 0
M  V30 535 H 51.4005 0.418579 -5.98338 0
M  V30 536 H 53.0795 0.0766241 -6.46955 0
M  V30 537 N 53.2116 1.57565 -0.0334293 0
M  V30 538 C 54.4886 1.83282 0.683163 0
M  V30 539 C 54.8686 0.91823 1.90084 0
M  V30 540 O 54.2166 -0.025113 2.28486 0
M  V30 541 C 54.4266 3.32599 1.0573 0
M  V30 542 C 55.7746 3.99179 1.44711 0
M  V30 543 O 56.7986 3.3712 1.15015 0
M  V30 544 O 55.6576 5.08565 2.0006 0
M  V30 545 H 52.7516 0.755869 0.335546 0
M  V30 546 H 55.2976 1.69589 -0.0614402 0
M  V30 547 H 54.0696 3.90834 0.190828 0
M  V30 548 H 53.6926 3.51415 1.85993 0
M  V30 549 N 54.6897 -0.239769 1.55765 0
M  V30 550 C 55.5997 -1.31831 1.94056 0
M  V30 551 C 56.6157 -1.52275 0.841925 0
M  V30 552 O 57.7917 -1.65759 1.14394 0
M  V30 553 C 54.8567 -2.65156 2.23368 0
M  V30 554 C 53.9177 -2.53173 3.46701 0
M  V30 555 C 53.1507 -3.8014 3.74606 0
M  V30 556 O 53.3737 -4.82343 3.04469 0
M  V30 557 O 52.3077 -3.78344 4.68123 0
M  V30 558 H 56.1337 -1.02347 2.85935 0
M  V30 559 H 53.7187 -0.441123 1.42739 0
M  V30 560 H 55.6007 -3.43929 2.43497 0
M  V30 561 H 54.2757 -2.94358 1.34666 0
M  V30 562 H 53.1827 -1.72662 3.31871 0
M  V30 563 H 54.5157 -2.28915 4.35728 0
M  V30 564 N 56.1678 -1.49265 -0.50573 0
M  V30 565 C 57.1158 -1.66065 -1.62866 0
M  V30 566 C 58.1098 -0.526636 -1.61006 0
M  V30 567 O 59.3158 -0.706126 -1.65571 0
M  V30 568 H 55.6908 -0.52356 -0.539805 0
M  V30 569 H 57.6618 -2.60329 -1.45848 0
M  V30 570 C 56.4108 -1.74008 -3.01026 0
M  V30 571 H 55.7338 -2.6064 -3.03161 0
M  V30 572 H 57.1738 -1.89798 -3.79147 0
M  V30 573 C 55.6328 -0.483868 -3.33407 0
M  V30 574 O 56.1628 0.392548 -3.99777 0
M  V30 575 N 54.3688 -0.348236 -2.88506 0
M  V30 576 H 53.9158 -1.06242 -2.34671 0
M  V30 577 H 53.8738 0.491204 -3.10539 0
M  V30 578 N 57.6459 0.756429 -1.3826 0
M  V30 579 C 58.8759 1.54341 -1.3734 0
M  V30 580 C 59.2839 1.89159 0.0393917 0
M  V30 581 O 58.6269 1.5307 1.01565 0
M  V30 582 C 58.6889 2.87238 -2.16182 0
M  V30 583 C 58.3529 2.74973 -3.65019 0
M  V30 584 C 59.3499 2.44962 -4.58574 0
M  V30 585 C 57.0349 2.92515 -4.08338 0
M  V30 586 C 59.0289 2.32642 -5.93428 0
M  V30 587 C 56.7159 2.79815 -5.43274 0
M  V30 588 C 57.7139 2.49921 -6.35632 0
M  V30 589 O 57.4019 2.37275 -7.68086 0
M  V30 590 H 57.1339 0.484281 -0.471643 0
M  V30 591 H 59.6879 0.944152 -1.82414 0
M  V30 592 H 57.9179 3.49342 -1.65822 0
M  V30 593 H 59.6069 3.48731 -2.07705 0
M  V30 594 H 60.3729 2.31081 -4.26412 0
M  V30 595 H 56.2519 3.14781 -3.368 0
M  V30 596 H 59.7959 2.0923 -6.65484 0
M  V30 597 H 55.6929 2.93269 -5.75034 0
M  V30 598 H 56.4609 2.52509 -7.78577 0
M  V30 599 N 59.124 1.23083 0.984299 0
M  V30 600 C 60.401 0.9689 1.69917 0
M  V30 601 C 60.781 -0.513604 2.04757 0
M  V30 602 O 60.129 -1.48383 1.73767 0
M  V30 603 C 60.339 1.87518 2.94343 0
M  V30 604 C 61.687 2.13636 3.6694 0
M  V30 605 O 62.711 1.85036 3.04368 0
M  V30 606 O 61.57 2.62119 4.79537 0
M  V30 607 H 58.664 0.365095 0.742048 0
M  V30 608 H 61.21 1.34107 1.03987 0
M  V30 609 H 59.982 2.87756 2.65164 0
M  V30 610 H 59.605 1.50514 3.6801 0
M  V30 611 N 60.6021 -1.18246 1.0419 0
M  V30 612 C 61.5521 -2.19843 0.604392 0
M  V30 613 C 62.5361 -1.56962 -0.353814 0
M  V30 614 O 63.7281 -1.76156 -0.17267 0
M  V30 615 C 60.8571 -3.43287 -0.0298975 0
M  V30 616 C 59.9431 -4.13288 0.951531 0
M  V30 617 N 60.3341 -4.59271 2.11906 0
M  V30 618 C 58.6321 -4.39165 0.7778 0
M  V30 619 C 59.3331 -5.13173 2.73912 0
M  V30 620 N 58.3091 -5.04763 2.01779 0
M  V30 621 H 62.1111 -2.53089 1.4941 0
M  V30 622 H 59.6251 -1.34465 0.910658 0
M  V30 623 H 61.6221 -4.15334 -0.361037 0
M  V30 624 H 60.2821 -3.11537 -0.915127 0
M  V30 625 H 61.2931 -4.5368 2.49789 0
M  V30 626 H 57.9701 -4.17461 -0.0572331 0
M  V30 627 H 59.3601 -5.58947 3.72864 0
M  V30 628 N 62.0802 -0.821533 -1.34494 0
M  V30 629 C 63.0282 -0.230702 -2.31453 0
M  V30 630 C 64.0222 0.627793 -1.57338 0
M  V30 631 O 65.2282 0.519288 -1.72347 0
M  V30 632 H 61.6032 -0.0558577 -0.749923 0
M  V30 633 H 63.5742 -1.06332 -2.78812 0
M  V30 634 C 62.3232 0.59391 -3.4259 0
M  V30 635 H 61.6462 -0.0573588 -3.99759 0
M  V30 636 H 63.0862 0.973446 -4.12674 0
M  V30 637 C 61.5452 1.76568 -2.86924 0
M  V30 638 O 62.0752 2.8638 -2.81691 0
M  V30 639 N 60.2812 1.58198 -2.43766 0
M  V30 640 H 59.8282 0.68872 -2.48222 0
M  V30 641 H 59.7862 2.36752 -2.06871 0
M  V30 642 N 63.5583 1.46682 -0.576371 0
M  V30 643 C 64.8353 1.95599 0.00703437 0
M  V30 644 C 65.2153 1.51904 1.46589 0
M  V30 645 O 64.5633 0.766755 2.15251 0
M  V30 646 C 64.7733 3.4864 -0.158404 0
M  V30 647 C 66.1213 4.24594 -0.0229439 0
M  V30 648 O 67.1453 3.56094 -0.0869173 0
M  V30 649 O 66.0043 5.46373 0.118015 0
M  V30 650 H 63.0983 0.825275 0.053384 0
M  V30 651 H 65.6443 1.56996 -0.644244 0
M  V30 652 H 64.4163 3.7331 -1.17282 0
M  V30 653 H 64.0393 3.94057 0.5296 0
M  V30 654 N 65.0364 0.313813 1.54444 0
M  V30 655 C 65.9834 -0.55655 2.23989 0
M  V30 656 C 66.9534 -1.11943 1.22711 0
M  V30 657 O 68.1384 -1.16158 1.51367 0
M  V30 658 C 65.2784 -1.71635 2.99392 0
M  V30 659 C 64.3914 -1.18364 4.15468 0
M  V30 660 C 63.5264 -2.30834 4.78424 0
M  V30 661 C 62.5654 -1.74762 5.86622 0
M  V30 662 N 61.7024 -2.80855 6.43479 0
M  V30 663 H 66.5424 0.0430893 2.97969 0
M  V30 664 H 64.0794 0.0330359 1.47063 0
M  V30 665 H 66.0374 -2.39868 3.41349 0
M  V30 666 H 64.6674 -2.28742 2.27765 0
M  V30 667 H 63.7194 -0.393163 3.78363 0
M  V30 668 H 65.0314 -0.733262 4.93381 0
M  V30 669 H 64.1854 -3.0699 5.23299 0
M  V30 670 H 62.9244 -2.79204 3.99871 0
M  V30 671 H 61.9294 -0.970995 5.41158 0
M  V30 672 H 63.1544 -1.2728 6.67066 0
M  V30 673 H 61.1004 -3.28535 5.67804 0
M  V30 674 H 61.0174 -2.40351 7.16776 0
M  V30 675 H 62.2854 -3.5687 6.93011 0
M  V30 676 N 66.5145 -1.57545 0.0417849 0
M  V30 677 C 67.4245 -2.14451 -0.951213 0
M  V30 678 C 68.4405 -1.09992 -1.34825 0
M  V30 679 O 69.6165 -1.42114 -1.42708 0
M  V30 680 C 66.6815 -2.67063 -2.21084 0
M  V30 681 C 65.7425 -3.86284 -1.87304 0
M  V30 682 C 64.9755 -4.36378 -3.07261 0
M  V30 683 O 65.1985 -3.85587 -4.20332 0
M  V30 684 O 64.1325 -5.28077 -2.88822 0
M  V30 685 H 67.9585 -2.99601 -0.497287 0
M  V30 686 H 65.5435 -1.48317 -0.179567 0
M  V30 687 H 67.4255 -3.00914 -2.95006 0
M  V30 688 H 66.1005 -1.84989 -2.65633 0
M  V30 689 H 65.0075 -3.57338 -1.10727 0
M  V30 690 H 66.3405 -4.6956 -1.47562 0
M  V30 691 N 67.9926 0.231505 -1.5589 0
M  V30 692 C 68.9396 1.28682 -1.91598 0
M  V30 693 C 69.9096 1.47071 -0.771974 0
M  V30 694 O 71.0946 1.60802 -1.027 0
M  V30 695 C 68.2346 2.6342 -2.22944 0
M  V30 696 C 67.3476 2.52912 -3.50228 0
M  V30 697 C 66.4826 3.80106 -3.7107 0
M  V30 698 C 65.5216 3.64279 -4.91902 0
M  V30 699 N 64.6586 4.834 -5.09184 0
M  V30 700 H 69.4986 0.975305 -2.81588 0
M  V30 701 H 67.0356 0.470299 -1.39379 0
M  V30 702 H 68.9936 3.41869 -2.39126 0
M  V30 703 H 67.6236 2.92687 -1.36139 0
M  V30 704 H 66.6756 1.6595 -3.42294 0
M  V30 705 H 67.9876 2.37133 -4.38827 0
M  V30 706 H 67.1416 4.66999 -3.87295 0
M  V30 707 H 65.8806 3.98799 -2.80733 0
M  V30 708 H 64.8856 2.7577 -4.75637 0
M  V30 709 H 66.1106 3.47067 -5.83714 0
M  V30 710 H 64.0566 5.02425 -4.21788 0
M  V30 711 H 63.9736 4.70311 -5.91898 0
M  V30 712 H 65.2416 5.71747 -5.29835 0
M  V30 713 N 69.4707 1.49531 0.497807 0
M  V30 714 C 70.4007 1.6935 1.60757 0
M  V30 715 C 71.3817 0.542218 1.61227 0
M  V30 716 O 72.5667 0.778417 1.77917 0
M  V30 717 C 69.6967 1.76298 2.99226 0
M  V30 718 C 68.6507 2.91248 3.13622 0
M  V30 719 C 67.9767 2.83312 4.53474 0
M  V30 720 C 69.2767 4.3214 2.93346 0
M  V30 721 H 70.9707 2.62263 1.44425 0
M  V30 722 H 68.5167 1.26208 0.693367 0
M  V30 723 H 70.4697 1.88749 3.76765 0
M  V30 724 H 69.1937 0.799871 3.16654 0
M  V30 725 H 67.8527 2.78404 2.38509 0
M  V30 726 H 67.5007 1.84902 4.67782 0
M  V30 727 H 67.2007 3.60465 4.64046 0
M  V30 728 H 68.7247 2.97775 5.33069 0
M  V30 729 H 70.1387 4.45649 3.60652 0
M  V30 730 H 68.5357 5.1054 3.15387 0
M  V30 731 H 69.6057 4.46363 1.89441 0
M  V30 732 N 70.9488 -0.749086 1.3866 0
M  V30 733 C 71.8588 -1.89358 1.38494 0
M  V30 734 C 72.8748 -1.71708 0.281476 0
M  V30 735 O 74.0508 -1.94554 0.520643 0
M  V30 736 C 71.1158 -3.24782 1.21316 0
M  V30 737 C 70.1768 -3.54926 2.41508 0
M  V30 738 C 69.4098 -4.83888 2.2514 0
M  V30 739 O 69.6328 -5.56592 1.24746 0
M  V30 740 O 68.5668 -5.13612 3.13826 0
M  V30 741 H 72.3928 -1.92452 2.34938 0
M  V30 742 H 69.9778 -0.894981 1.19626 0
M  V30 743 H 71.8598 -4.05739 1.13814 0
M  V30 744 H 70.5348 -3.2249 0.279592 0
M  V30 745 H 69.4418 -2.74112 2.54585 0
M  V30 746 H 70.7748 -3.61983 3.3351 0
M  V30 747 N 72.4269 -1.23603 -0.977757 0
M  V30 748 C 73.6669 -1.08148 -1.73446 0
M  V30 749 C 74.0309 0.374785 -1.88307 0
M  V30 750 O 75.2319 0.650588 -2.60808 0
M  V30 751 C 73.5029 -1.78991 -3.0935 0
M  V30 752 S 75.0619 -1.79141 -4.00567 0
M  V30 753 H 71.8799 -0.386987 -0.596458 0
M  V30 754 H 74.4819 -1.5678 -1.16792 0
M  V30 755 H 73.1859 -2.8408 -2.96187 0
M  V30 756 H 72.7169 -1.30651 -3.71071 0
M  V30 757 H 74.7319 -0.851892 -4.88833 0
M  V30 758 N 73.905 1.17692 -1.04816 0
M  V30 759 C 74.815 2.25229 -0.65643 0
M  V30 760 C 75.831 1.71018 0.320761 0
M  V30 761 O 77.007 2.00649 0.173805 0
M  V30 762 C 74.072 3.46684 -0.0332629 0
M  V30 763 C 73.133 4.15997 -1.06042 0
M  V30 764 C 72.366 5.31654 -0.466893 0
M  V30 765 O 72.589 5.65777 0.724758 0
M  V30 766 O 71.523 5.89831 -1.1993 0
M  V30 767 H 75.349 2.61016 -1.55255 0
M  V30 768 H 72.934 1.24919 -0.81949 0
M  V30 769 H 74.816 4.20234 0.313256 0
M  V30 770 H 73.491 3.12703 0.836566 0
M  V30 771 H 72.398 3.44482 -1.45886 0
M  V30 772 H 73.731 4.53996 -1.90127 0
M  V30 773 N 75.3831 0.828654 1.34056 0
M  V30 774 C 76.6291 0.42008 1.98402 0
M  V30 775 C 76.9621 -1.01564 1.65525 0
M  V30 776 O 76.2371 -1.70834 0.929831 0
M  V30 777 C 76.5201 0.62927 3.54559 0
M  V30 778 C 76.3731 2.11152 3.97159 0
M  V30 779 C 77.6921 0.0688756 4.40046 0
M  V30 780 H 74.8111 0.154104 0.720709 0
M  V30 781 H 77.4531 1.04228 1.5886 0
M  V30 782 H 75.6031 0.0996418 3.88372 0
M  V30 783 H 77.2751 2.70522 3.73651 0
M  V30 784 H 75.5181 2.59985 3.47261 0
M  V30 785 H 76.1891 2.20868 5.05887 0
M  V30 786 H 78.6651 0.521458 4.1282 0
M  V30 787 H 77.5411 0.245006 5.48353 0
M  V30 788 H 77.8021 -1.0266 4.30015 0
M  V30 789 N 76.8612 -1.46375 0.584142 0
M  V30 790 C 78.1092 -2.01978 0.0701287 0
M  V30 791 C 78.4302 -1.4579 -1.295 0
M  V30 792 O 77.7002 -0.64314 -1.85042 0
M  V30 793 H 76.2802 -0.746648 0.0229345 0
M  V30 794 H 78.9422 -1.79461 0.760245 0
M  V30 795 H 78.0382 -3.121 0.0022064 0
M  V30 796 N 78.3393 -0.321999 -1.54275 0
M  V30 797 C 79.2863 0.544664 -2.24281 0
M  V30 798 C 80.2563 1.1129 -1.23303 0
M  V30 799 O 81.4413 1.15354 -1.51981 0
M  V30 800 C 78.5813 1.70045 -3.00298 0
M  V30 801 C 77.6943 1.16159 -4.1609 0
M  V30 802 C 76.8293 2.28293 -4.79641 0
M  V30 803 C 75.8683 1.71648 -5.8754 0
M  V30 804 N 75.0053 2.77438 -6.44959 0
M  V30 805 H 79.8453 -0.0588907 -2.97942 0
M  V30 806 H 77.3823 -0.0408345 -1.47043 0
M  V30 807 H 79.3403 2.38054 -3.42616 0
M  V30 808 H 77.9703 2.27531 -2.28975 0
M  V30 809 H 77.0223 0.373092 -3.78566 0
M  V30 810 H 78.3343 0.707087 -4.93763 0
M  V30 811 H 77.4883 3.0421 -5.2492 0
M  V30 812 H 76.2273 2.77079 -4.01346 0
M  V30 813 H 75.2323 0.942282 -5.41665 0
M  V30 814 H 76.4573 1.23741 -6.67731 0
M  V30 815 H 74.4033 3.25519 -5.69538 0
M  V30 816 H 74.3203 2.36547 -7.1804 0
M  V30 817 H 75.5883 3.53189 -6.94894 0
M  V30 818 N 79.8174 1.5752 -0.0501392 0
M  V30 819 C 81.2334 1.56631 0.306402 0
M  V30 820 C 81.4334 1.0577 1.71508 0
M  V30 821 O 80.4894 0.713837 2.422 0
M  V30 822 C 81.8024 3.00393 0.135811 0
M  V30 823 C 83.3504 3.12315 0.206993 0
M  V30 824 C 83.8254 4.57954 0.064944 0
M  V30 825 N 85.3164 4.63041 0.121254 0
M  V30 826 C 86.0514 5.73389 0.0354381 0
M  V30 827 N 85.5474 6.92724 -0.102666 0
M  V30 828 N 87.3404 5.62026 0.090946 0
M  V30 829 H 79.4914 1.88903 -0.971046 0
M  V30 830 H 81.7544 0.869876 -0.376855 0
M  V30 831 H 81.4604 3.41635 -0.835384 0
M  V30 832 H 81.3344 3.66373 0.897275 0
M  V30 833 H 83.7214 2.70973 1.16866 0
M  V30 834 H 83.8024 2.49016 -0.585208 0
M  V30 835 H 83.4464 4.99981 -0.893394 0
M  V30 836 H 83.3764 5.19258 0.876277 0
M  V30 837 H 85.8674 3.77216 0.227284 0
M  V30 838 H 86.1804 7.72633 -0.160882 0
M  V30 839 H 84.5254 6.94864 -0.137737 0
M  V30 840 H 87.7164 4.67684 0.197388 0
M  V30 841 H 87.8894 6.47997 0.0206089 0
M  V30 842 N 81.2955 -0.223234 1.56011 0
M  V30 843 C 82.5725 -0.972108 1.69733 0
M  V30 844 C 82.9525 -2.02485 0.59691 0
M  V30 845 O 82.3005 -2.25037 -0.396324 0
M  V30 846 C 82.5105 -1.58407 3.10979 0
M  V30 847 C 83.8585 -2.07696 3.70334 0
M  V30 848 O 84.8825 -1.68304 3.1393 0
M  V30 849 O 83.7415 -2.80096 4.69264 0
M  V30 850 H 80.8355 -0.453993 0.691245 0
M  V30 851 H 83.3815 -0.215149 1.68331 0
M  V30 852 H 82.1535 -0.823831 3.82529 0
M  V30 853 H 81.7765 -2.40661 3.16493 0
M  V30 854 N 82.7736 -1.49793 -0.48987 0
M  V30 855 C 83.9986 -1.63836 -1.27172 0
M  V30 856 C 84.4236 -0.31402 -1.8546 0
M  V30 857 O 83.7816 0.719803 -1.66399 0
M  V30 858 C 83.8296 -2.71797 -2.36978 0
M  V30 859 O 82.9336 -2.31744 -3.41128 0
M  V30 860 H 82.2746 -0.547997 -0.37496 0
M  V30 861 H 84.8046 -1.96053 -0.585191 0
M  V30 862 H 84.8146 -2.94305 -2.82575 0
M  V30 863 H 83.4896 -3.67923 -1.93921 0
M  V30 864 H 82.0666 -2.1961 -3.01373 0
M  V30 865 N 84.2517 0.741722 -1.39055 0
M  V30 866 C 85.4997 1.49818 -1.35643 0
M  V30 867 C 85.8207 1.94938 0.0491642 0
M  V30 868 O 85.0907 1.68505 0.999141 0
M  V30 869 H 83.6707 0.555755 -0.499144 0
M  V30 870 H 86.3327 0.880957 -1.73854 0
M  V30 871 H 85.4287 2.38348 -2.01486 0
M  V30 872 N 85.7298 1.2412 0.971189 0
M  V30 873 C 86.6628 0.97373 2.06382 0
M  V30 874 C 87.6408 -0.0912662 1.62344 0
M  V30 875 O 88.8248 0.0449365 1.88446 0
M  V30 876 C 85.9518 0.468746 3.35441 0
M  V30 877 C 84.9978 1.52176 3.98428 0
M  V30 878 S 85.8308 3.10203 4.36503 0
M  V30 879 C 86.9868 2.61398 5.68702 0
M  V30 880 H 87.2198 1.89893 2.28753 0
M  V30 881 H 84.7528 1.07466 1.10862 0
M  V30 882 H 86.7108 0.184012 4.10087 0
M  V30 883 H 85.3718 -0.435688 3.11064 0
M  V30 884 H 84.5648 1.11876 4.91426 0
M  V30 885 H 84.1668 1.75632 3.30196 0
M  V30 886 H 86.4588 2.03992 6.4606 0
M  V30 887 H 87.4018 3.52972 6.13854 0
M  V30 888 H 87.8098 2.01941 5.27143 0
M  V30 889 N 87.2079 -1.17134 1.05439 0
M  V30 890 C 88.4569 -1.86791 0.761049 0
M  V30 891 C 88.7699 -1.82072 -0.714795 0
M  V30 892 O 89.9759 -2.47223 -1.12218 0
M  V30 893 C 88.4319 -3.35166 1.31117 0
M  V30 894 C 88.0399 -3.48381 2.81664 0
M  V30 895 C 89.7839 -4.10134 1.09499 0
M  V30 896 C 87.6909 -4.90793 3.29964 0
M  V30 897 H 86.6209 -0.699681 0.281002 0
M  V30 898 H 89.2719 -1.3226 1.27199 0
M  V30 899 H 87.6539 -3.8925 0.72803 0
M  V30 900 H 88.8279 -3.04502 3.45855 0
M  V30 901 H 87.1429 -2.86836 3.01851 0
M  V30 902 H 89.7399 -5.152 1.43084 0
M  V30 903 H 90.0829 -4.16287 0.0328772 0
M  V30 904 H 90.6159 -3.62264 1.64346 0
M  V30 905 H 87.3549 -4.89816 4.35616 0
M  V30 906 H 86.8749 -5.35333 2.70516 0
M  V30 907 H 88.5539 -5.59573 3.24787 0
M  V30 908 N 88.686 -0.835752 -1.33615 0
M  V30 909 C 89.634 -0.255238 -2.31195 0
M  V30 910 C 90.628 0.61107 -1.57995 0
M  V30 911 O 91.834 0.500979 -1.72888 0
M  V30 912 H 88.209 -0.0638085 -0.749288 0
M  V30 913 H 90.18 -1.09283 -2.77669 0
M  V30 914 C 88.929 0.55754 -3.43201 0
M  V30 915 H 88.252 -0.0997553 -3.99676 0
M  V30 916 H 89.692 0.929622 -4.13683 0
M  V30 917 C 88.151 1.73515 -2.88781 0
M  V30 918 O 88.681 2.83376 -2.84712 0
M  V30 919 N 86.887 1.55603 -2.4543 0
M  V30 920 H 86.434 0.662354 -2.48939 0
M  V30 921 H 86.392 2.34545 -2.09371 0
M  V30 922 N 90.1641 1.46063 -0.591896 0
M  V30 923 C 91.4041 2.04228 -0.0838014 0
M  V30 924 C 91.7681 1.45231 1.25587 0
M  V30 925 O 92.9691 1.94653 1.85375 0
M  V30 926 C 91.2401 3.57389 -0.0286282 0
M  V30 927 S 92.7991 4.3678 0.420557 0
M  V30 928 H 89.6171 0.709762 -0.0419319 0
M  V30 929 H 92.2191 1.78983 -0.786465 0
M  V30 930 H 90.9231 3.97843 -1.00743 0
M  V30 931 H 90.4541 3.87185 0.69652 0
M  V30 932 H 92.4691 4.67131 1.67341 0
M  V30 933 N 91.6422 0.330177 1.54103 0
M  V30 934 C 92.5722 -0.525353 2.27513 0
M  V30 935 C 93.5532 -1.11383 1.2856 0
M  V30 936 O 94.7382 -1.13773 1.57383 0
M  V30 937 C 91.8682 -1.6831 3.03791 0
M  V30 938 C 90.8222 -1.2236 4.10137 0
M  V30 939 C 90.1482 -2.46882 4.74293 0
M  V30 940 C 91.4482 -0.333697 5.21233 0
M  V30 941 H 93.1422 0.087013 2.99274 0
M  V30 942 H 90.6882 0.0432893 1.43935 0
M  V30 943 H 92.6412 -2.28795 3.5388 0
M  V30 944 H 91.3652 -2.32216 2.29659 0
M  V30 945 H 90.0242 -0.64165 3.60941 0
M  V30 946 H 89.6722 -3.09165 3.96769 0
M  V30 947 H 89.3722 -2.16825 5.46133 0
M  V30 948 H 90.8962 -3.08117 5.27159 0
M  V30 949 H 92.3102 -0.845013 5.67038 0
M  V30 950 H 90.7072 -0.125612 5.99969 0
M  V30 951 H 91.7772 0.633724 4.80741 0
M  V30 952 N 93.1203 -1.57491 0.0584922 0
M  V30 953 C 94.0533 -2.07533 -0.948969 0
M  V30 954 C 95.0313 -0.977444 -1.29942 0
M  V30 955 O 96.2153 -1.2499 -1.41102 0
M  V30 956 C 93.3423 -2.52192 -2.2609 0
M  V30 957 C 92.3883 -3.73287 -2.06298 0
M  V30 958 S 93.2213 -5.18603 -1.33459 0
M  V30 959 C 94.3773 -5.66583 -2.65959 0
M  V30 960 H 94.6103 -2.92662 -0.523118 0
M  V30 961 H 92.1433 -1.53631 -0.153954 0
M  V30 962 H 94.1013 -2.78585 -3.01498 0
M  V30 963 H 92.7623 -1.67356 -2.65802 0
M  V30 964 H 91.9553 -4.0248 -3.03357 0
M  V30 965 H 91.5573 -3.47199 -1.39029 0
M  V30 966 H 93.8493 -5.72616 -3.62101 0
M  V30 967 H 94.7923 -6.65684 -2.41393 0
M  V30 968 H 95.2003 -4.94342 -2.72554 0
M  V30 969 N 94.5984 0.214957 -1.56127 0
M  V30 970 C 95.5084 1.28727 -1.96129 0
M  V30 971 C 96.5244 1.50916 -0.866044 0
M  V30 972 O 97.7004 1.63918 -1.17016 0
M  V30 973 C 94.7654 2.61569 -2.27558 0
M  V30 974 C 93.8264 2.47625 -3.50685 0
M  V30 975 C 93.0594 3.74132 -3.80606 0
M  V30 976 O 93.2824 4.77438 -3.12104 0
M  V30 977 O 92.2164 3.70849 -4.74083 0
M  V30 978 H 96.0424 0.977855 -2.87527 0
M  V30 979 H 93.6274 0.418358 -1.43423 0
M  V30 980 H 95.5094 3.40012 -2.48938 0
M  V30 981 H 94.1844 2.92178 -1.39332 0
M  V30 982 H 93.0914 1.67361 -3.34576 0
M  V30 983 H 94.4244 2.21954 -4.39315 0
M  V30 984 N 96.0765 1.50051 0.48192 0
M  V30 985 C 97.0235 1.68122 1.58125 0
M  V30 986 C 97.9935 0.522545 1.57666 0
M  V30 987 O 99.1785 0.751844 1.75362 0
M  V30 988 C 96.3185 1.77142 2.96167 0
M  V30 989 C 95.4315 3.0444 3.06497 0
M  V30 990 C 94.5665 3.04321 4.35387 0
M  V30 991 C 93.6055 4.26118 4.3942 0
M  V30 992 N 92.7425 4.238 5.59766 0
M  V30 993 H 97.5825 2.6198 1.42022 0
M  V30 994 H 95.1195 1.29877 0.690687 0
M  V30 995 H 97.0775 1.80352 3.76203 0
M  V30 996 H 95.7075 0.867329 3.1093 0
M  V30 997 H 94.7595 3.10752 2.19402 0
M  V30 998 H 96.0715 3.94426 3.05336 0
M  V30 999 H 95.2255 3.062 5.23762 0
M  V30 1000 H 93.9645 2.12147 4.39141 0
M  V30 1001 H 92.9695 4.24463 3.49444 0
M  V30 1002 H 94.1945 5.19507 4.37366 0
M  V30 1003 H 92.1405 3.34474 5.64326 0
M  V30 1004 H 92.0575 5.07542 5.60301 0
M  V30 1005 H 93.3255 4.2981 6.50295 0
M  V30 1006 N 97.5546 -0.734337 1.39446 0
M  V30 1007 C 98.4846 -1.86155 1.40955 0
M  V30 1008 C 99.4656 -1.67898 0.272827 0
M  V30 1009 O 100.651 -1.88207 0.478743 0
M  V30 1010 C 97.7806 -3.23912 1.25294 0
M  V30 1011 C 96.7346 -3.56808 2.36373 0
M  V30 1012 C 96.0606 -4.93508 2.058 0
M  V30 1013 C 97.3606 -3.59713 3.78687 0
M  V30 1014 H 99.0546 -1.8515 2.35287 0
M  V30 1015 H 96.6006 -0.889367 1.13253 0
M  V30 1016 H 98.5536 -4.02443 1.2497 0
M  V30 1017 H 97.2776 -3.25446 0.274308 0
M  V30 1018 H 95.9366 -2.80606 2.35914 0
M  V30 1019 H 95.5846 -4.91623 1.06374 0
M  V30 1020 H 95.2846 -5.16486 2.80208 0
M  V30 1021 H 96.8086 -5.74396 2.07128 0
M  V30 1022 H 98.2226 -4.2832 3.81071 0
M  V30 1023 H 96.6196 -3.94209 4.52459 0
M  V30 1024 H 97.6896 -2.59504 4.09617 0
M  V30 1025 N 99.0327 -1.24633 -0.964593 0
M  V30 1026 C 100.261 -1.11501 -1.74285 0
M  V30 1027 C 100.676 0.332165 -1.85855 0
M  V30 1028 O 100.033 1.22903 -1.34911 0
M  V30 1029 C 100.084 -1.75258 -3.16175 0
M  V30 1030 O 99.8047 -3.14318 -3.05182 0
M  V30 1031 C 101.306 -1.67776 -4.10324 0
M  V30 1032 H 98.5257 -0.389407 -0.546446 0
M  V30 1033 H 101.07 -1.64801 -1.21083 0
M  V30 1034 H 99.2247 -1.25954 -3.66353 0
M  V30 1035 H 99.6387 -3.4551 -3.94618 0
M  V30 1036 H 101.113 -2.17064 -5.0753 0
M  V30 1037 H 101.59 -0.639584 -4.34518 0
M  V30 1038 H 102.196 -2.16522 -3.66058 0
M  V30 1039 N 100.511 1.16574 -1.06058 0
M  V30 1040 C 101.736 1.91493 -0.796562 0
M  V30 1041 C 102.161 1.76773 0.642868 0
M  V30 1042 O 101.519 1.09142 1.44768 0
M  V30 1043 C 101.567 3.40293 -1.19303 0
M  V30 1044 O 100.671 4.11074 -0.330394 0
M  V30 1045 H 100.012 0.596678 -0.291326 0
M  V30 1046 H 102.542 1.47708 -1.41575 0
M  V30 1047 H 102.552 3.91057 -1.16356 0
M  V30 1048 H 101.227 3.50326 -2.24153 0
M  V30 1049 H 99.8038 3.70513 -0.421225 0
M  V30 1050 N 101.989 0.842826 1.3317 0
M  V30 1051 C 102.936 0.276885 2.29133 0
M  V30 1052 C 103.906 -0.609527 1.54512 0
M  V30 1053 O 105.091 -0.546955 1.82792 0
M  V30 1054 C 102.231 -0.538707 3.40869 0
M  V30 1055 C 101.344 0.372169 4.30394 0
M  V30 1056 C 100.479 -0.454908 5.29249 0
M  V30 1057 C 99.5179 0.45411 6.10413 0
M  V30 1058 N 98.6549 -0.335075 7.013 0
M  V30 1059 H 103.495 1.10052 2.76934 0
M  V30 1060 H 101.032 0.554161 1.36262 0
M  V30 1061 H 102.99 -1.02709 4.0436 0
M  V30 1062 H 101.62 -1.32727 2.9425 0
M  V30 1063 H 100.672 0.97888 3.6759 0
M  V30 1064 H 101.984 1.0703 4.87182 0
M  V30 1065 H 101.138 -1.00695 5.98285 0
M  V30 1066 H 99.8769 -1.18646 4.73048 0
M  V30 1067 H 98.8819 1.01813 5.40291 0
M  V30 1068 H 100.107 1.18409 6.68697 0
M  V30 1069 H 98.0529 -1.04994 6.47543 0
M  V30 1070 H 97.9699 0.304262 7.55387 0
M  V30 1071 H 99.2379 -0.869224 7.74638 0
M  V30 1072 N 103.467 -1.45747 0.599634 0
M  V30 1073 C 104.414 -2.30467 -0.123849 0
M  V30 1074 C 105.384 -1.41632 -0.86774 0
M  V30 1075 O 106.569 -1.70568 -0.855056 0
M  V30 1076 C 103.709 -3.26402 -1.12051 0
M  V30 1077 C 102.822 -4.3034 -0.37832 0
M  V30 1078 C 101.957 -5.13389 -1.364 0
M  V30 1079 C 100.996 -6.09061 -0.609171 0
M  V30 1080 N 100.133 -6.84918 -1.54374 0
M  V30 1081 H 104.973 -2.91802 0.604627 0
M  V30 1082 H 102.51 -1.43797 0.309972 0
M  V30 1083 H 104.468 -3.80482 -1.7114 0
M  V30 1084 H 103.098 -2.66839 -1.8165 0
M  V30 1085 H 102.15 -3.78984 0.327929 0
M  V30 1086 H 103.462 -4.98354 0.210997 0
M  V30 1087 H 102.616 -5.7183 -2.02719 0
M  V30 1088 H 101.355 -4.45376 -1.98725 0
M  V30 1089 H 100.36 -5.49758 0.0676979 0
M  V30 1090 H 101.585 -6.79099 0.00891991 0
M  V30 1091 H 99.531 -6.19601 -2.15478 0
M  V30 1092 H 99.448 -7.49254 -1.00766 0
M  V30 1093 H 100.716 -7.47906 -2.19676 0
M  V30 1094 N 104.945 -0.338344 -1.53925 0
M  V30 1095 C 106.192 0.259758 -2.00827 0
M  V30 1096 C 106.52 1.50973 -1.22628 0
M  V30 1097 O 105.775 1.93379 -0.300509 0
M  V30 1098 C 106.074 0.62448 -3.51902 0
M  V30 1099 C 105.74 -0.528006 -4.47798 0
M  V30 1100 C 104.402 -0.844298 -4.73735 0
M  V30 1101 C 106.754 -1.30143 -5.0469 0
M  V30 1102 C 104.082 -1.93648 -5.53821 0
M  V30 1103 C 106.434 -2.38382 -5.85967 0
M  V30 1104 C 105.098 -2.70576 -6.10201 0
M  V30 1105 H 104.368 0.0950523 -0.734878 0
M  V30 1106 H 107.015 -0.465182 -1.85764 0
M  V30 1107 H 105.32 1.43006 -3.64769 0
M  V30 1108 H 107.017 1.09905 -3.85645 0
M  V30 1109 H 103.607 -0.271421 -4.2774 0
M  V30 1110 H 107.791 -1.07033 -4.84621 0
M  V30 1111 H 103.047 -2.19021 -5.70824 0
M  V30 1112 H 107.221 -2.98746 -6.29066 0
M  V30 1113 H 104.848 -3.55333 -6.72044 0
M  V30 1114 N 106.423 1.57458 -0.0668435 0
M  V30 1115 C 107.353 2.15468 0.899764 0
M  V30 1116 C 108.334 1.08042 1.31381 0
M  V30 1117 O 109.519 1.36054 1.38574 0
M  V30 1118 C 106.649 2.71232 2.16911 0
M  V30 1119 C 105.603 3.83781 1.89463 0
M  V30 1120 C 104.929 4.26127 3.22986 0
M  V30 1121 C 106.229 5.08238 1.20381 0
M  V30 1122 H 107.923 2.96488 0.416529 0
M  V30 1123 H 105.469 1.4262 0.198908 0
M  V30 1124 H 107.422 3.10458 2.84945 0
M  V30 1125 H 106.146 1.87426 2.67468 0
M  V30 1126 H 104.805 3.45051 1.23836 0
M  V30 1127 H 104.453 3.39249 3.71374 0
M  V30 1128 H 104.153 5.01993 3.05413 0
M  V30 1129 H 105.677 4.67966 3.92225 0
M  V30 1130 H 107.091 5.44811 1.78475 0
M  V30 1131 H 105.488 5.89349 1.13083 0
M  V30 1132 H 106.558 4.84558 0.182153 0
M  V30 1133 N 107.901 -0.206675 1.56239 0
M  V30 1134 C 108.811 -1.27686 1.96808 0
M  V30 1135 C 109.827 -1.50455 0.874035 0
M  V30 1136 O 111.003 -1.63295 1.17884 0
M  V30 1137 C 108.068 -2.60358 2.28942 0
M  V30 1138 C 107.129 -2.45762 3.51994 0
M  V30 1139 C 106.362 -3.72108 3.82585 0
M  V30 1140 O 106.585 -4.75776 3.14631 0
M  V30 1141 O 105.519 -3.6833 4.76043 0
M  V30 1142 H 109.345 -0.962593 2.88041 0
M  V30 1143 H 106.93 -0.410746 1.43643 0
M  V30 1144 H 108.812 -3.38687 2.50737 0
M  V30 1145 H 107.487 -2.91435 1.4088 0
M  V30 1146 H 106.394 -1.65584 3.35459 0
M  V30 1147 H 107.727 -2.19621 4.40486 0
M  V30 1148 N 109.379 -1.50304 -0.473955 0
M  V30 1149 C 110.289 -1.7174 -1.5982 0
M  V30 1150 C 111.305 -0.600457 -1.63311 0
M  V30 1151 O 112.481 -0.878441 -1.81233 0
M  V30 1152 C 109.546 -1.80427 -2.96052 0
M  V30 1153 C 108.607 -3.04148 -3.02972 0
M  V30 1154 C 107.84 -3.12411 -4.32706 0
M  V30 1155 O 108.063 -2.27542 -5.23049 0
M  V30 1156 O 106.997 -4.05113 -4.45159 0
M  V30 1157 H 110.823 -2.67035 -1.44657 0
M  V30 1158 H 108.408 -1.34366 -0.653148 0
M  V30 1159 H 110.29 -1.88338 -3.7697 0
M  V30 1160 H 108.965 -0.883156 -3.11419 0
M  V30 1161 H 107.872 -3.0174 -2.21142 0
M  V30 1162 H 109.205 -3.95829 -2.92541 0
M  V30 1163 N 110.857 0.726932 -1.39834 0
M  V30 1164 C 111.804 1.841 -1.39197 0
M  V30 1165 C 112.774 1.642 -0.250502 0
M  V30 1166 O 113.959 1.85494 -0.446846 0
M  V30 1167 C 111.099 3.21697 -1.24919 0
M  V30 1168 C 110.212 3.53247 -2.48678 0
M  V30 1169 C 109.347 4.80289 -2.26928 0
M  V30 1170 C 108.386 5.04707 -3.4632 0
M  V30 1171 N 107.523 6.22956 -3.23836 0
M  V30 1172 H 112.363 1.83979 -2.34427 0
M  V30 1173 H 109.9 0.898876 -1.16442 0
M  V30 1174 H 111.858 4.01137 -1.1465 0
M  V30 1175 H 110.488 3.21076 -0.333153 0
M  V30 1176 H 109.54 2.68447 -2.69519 0
M  V30 1177 H 110.852 3.67205 -3.37582 0
M  V30 1178 H 110.006 5.67725 -2.13947 0
M  V30 1179 H 108.745 4.68519 -1.35431 0
M  V30 1180 H 107.75 4.1573 -3.5979 0
M  V30 1181 H 108.975 5.18357 -4.38729 0
M  V30 1182 H 106.921 6.12459 -2.35011 0
M  V30 1183 H 106.838 6.37539 -4.063 0
M  V30 1184 H 108.106 7.1321 -3.14566 0
M  V30 1185 N 112.336 1.25143 0.95797 0
M  V30 1186 C 113.246 1.06968 2.08794 0
M  V30 1187 C 114.262 0.00773911 1.73998 0
M  V30 1188 O 115.438 0.207972 2.00323 0
M  V30 1189 C 112.503 0.68691 3.39827 0
M  V30 1190 C 111.564 1.82641 3.88511 0
M  V30 1191 C 110.797 1.46181 5.1329 0
M  V30 1192 O 111.02 0.355971 5.69288 0
M  V30 1193 O 109.954 2.29085 5.566 0
M  V30 1194 H 113.78 2.01723 2.27027 0
M  V30 1195 H 111.365 1.04051 1.07209 0
M  V30 1196 H 113.247 0.485417 4.18595 0
M  V30 1197 H 111.922 -0.231417 3.22872 0
M  V30 1198 H 110.829 2.08274 3.10762 0
M  V30 1199 H 112.162 2.72386 4.09959 0
M  V30 1200 N 113.814 -1.1601 1.06675 0
M  V30 1201 C 115.039 -1.91068 0.806706 0
M  V30 1202 C 115.464 -1.77112 -0.633485 0
M  V30 1203 O 114.822 -1.09908 -1.44187 0
M  V30 1204 C 114.87 -3.39655 1.21106 0
M  V30 1205 O 113.974 -4.10893 0.352189 0
M  V30 1206 H 113.315 -0.595125 0.294486 0
M  V30 1207 H 115.845 -1.46955 1.42356 0
M  V30 1208 H 115.855 -3.90434 1.18428 0
M  V30 1209 H 114.53 -3.49132 2.26008 0
M  V30 1210 H 113.107 -3.70285 0.440868 0
M  V30 1211 N 115.292 -0.849877 -1.32721 0
M  V30 1212 C 116.239 -0.289033 -2.28983 0
M  V30 1213 C 117.209 0.601324 -1.54833 0
M  V30 1214 O 118.394 0.537253 -1.8308 0
M  V30 1215 C 115.534 0.520623 -3.4115 0
M  V30 1216 C 114.647 -0.394989 -4.3019 0
M  V30 1217 C 113.782 0.426834 -5.29482 0
M  V30 1218 C 112.821 -0.486476 -6.10164 0
M  V30 1219 N 111.958 0.297879 -7.01468 0
M  V30 1220 H 116.798 -1.11519 -2.76347 0
M  V30 1221 H 114.335 -0.56138 -1.35967 0
M  V30 1222 H 116.293 1.00563 -4.04899 0
M  V30 1223 H 114.923 1.31165 -2.9495 0
M  V30 1224 H 113.975 -0.99836 -3.67065 0
M  V30 1225 H 115.287 -1.09612 -4.86607 0
M  V30 1226 H 114.441 0.975205 -5.98811 0
M  V30 1227 H 113.18 1.16136 -4.73671 0
M  V30 1228 H 112.185 -1.04677 -5.39743 0
M  V30 1229 H 113.41 -1.21953 -6.6806 0
M  V30 1230 H 111.356 1.01558 -6.48091 0
M  V30 1231 H 111.273 -0.344318 -7.55216 0
M  V30 1232 H 112.541 0.828131 -7.75089 0
M  V30 1233 N 116.77 1.45427 -0.607355 0
M  V30 1234 C 117.718 2.32269 0.12411 0
M  V30 1235 C 118.712 1.45955 0.859854 0
M  V30 1236 O 119.918 1.6244 0.775447 0
M  V30 1237 H 116.293 0.749691 0.0588839 0
M  V30 1238 H 118.264 2.91743 -0.626762 0
M  V30 1239 C 117.013 3.29567 1.1082 0
M  V30 1240 H 116.336 3.95978 0.551492 0
M  V30 1241 H 117.776 3.93061 1.58995 0
M  V30 1242 C 116.235 2.56722 2.18164 0
M  V30 1243 O 116.765 2.34842 3.25902 0
M  V30 1244 N 114.971 2.16861 1.93442 0
M  V30 1245 H 114.518 2.34855 1.05834 0
M  V30 1246 H 114.476 1.68444 2.65469 0
M  V30 1247 N 118.248 0.346503 1.53744 0
M  V30 1248 C 119.473 -0.253074 2.0585 0
M  V30 1249 C 119.898 -1.43202 1.21962 0
M  V30 1250 O 119.256 -1.79783 0.234073 0
M  V30 1251 C 119.304 -0.643193 3.54817 0
M  V30 1252 O 118.408 -1.74286 3.73762 0
M  V30 1253 H 117.749 -0.0413583 0.662711 0
M  V30 1254 H 120.279 0.501574 1.98357 0
M  V30 1255 H 120.289 -0.919526 3.97503 0
M  V30 1256 H 118.964 0.218966 4.15323 0
M  V30 1257 H 117.541 -1.46356 3.42979 0
M  V30 1258 N 119.726 -1.57421 0.075193 0
M  V30 1259 C 120.973 -1.93618 -0.593146 0
M  V30 1260 C 121.301 -0.955484 -1.69413 0
M  V30 1261 O 120.556 0.0283251 -1.9568 0
M  V30 1262 C 120.855 -3.36428 -1.20626 0
M  V30 1263 C 120.521 -4.50307 -0.231078 0
M  V30 1264 C 119.183 -4.81186 0.0371936 0
M  V30 1265 C 121.535 -5.19374 0.435888 0
M  V30 1266 C 118.863 -5.78466 0.979461 0
M  V30 1267 C 121.215 -6.17665 1.3665 0
M  V30 1268 C 119.879 -6.46958 1.6432 0
M  V30 1269 H 119.149 -0.708499 -0.217047 0
M  V30 1270 H 121.796 -1.90937 0.146793 0
M  V30 1271 H 120.101 -3.35592 -2.02201 0
M  V30 1272 H 121.798 -3.61727 -1.73073 0
M  V30 1273 H 118.388 -4.26227 -0.450357 0
M  V30 1274 H 122.572 -4.95711 0.241748 0
M  V30 1275 H 117.828 -5.99487 1.20106 0
M  V30 1276 H 122.002 -6.70284 1.88924 0
M  V30 1277 H 119.629 -7.2215 2.37494 0
M  V30 1278 N 121.204 0.198386 -1.56346 0
M  V30 1279 C 122.434 0.934215 -1.84271 0
M  V30 1280 C 122.842 1.77496 -0.655125 0
M  V30 1281 O 122.185 1.7961 0.385488 0
M  V30 1282 C 122.247 1.88278 -3.06254 0
M  V30 1283 C 121.911 1.22431 -4.40295 0
M  V30 1284 C 122.908 0.602839 -5.16393 0
M  V30 1285 C 120.593 1.22915 -4.87029 0
M  V30 1286 C 122.587 -0.0050083 -6.374 0
M  V30 1287 C 120.274 0.617465 -6.07973 0
M  V30 1288 C 121.272 0.00146341 -6.83 0
M  V30 1289 O 120.96 -0.600642 -8.01653 0
M  V30 1290 H 120.692 0.278245 -0.616081 0
M  V30 1291 H 123.246 0.211626 -2.04307 0
M  V30 1292 H 121.476 2.64498 -2.82095 0
M  V30 1293 H 123.165 2.48612 -3.20853 0
M  V30 1294 H 123.931 0.591265 -4.81382 0
M  V30 1295 H 119.81 1.69801 -4.28589 0
M  V30 1296 H 123.354 -0.48643 -6.95902 0
M  V30 1297 H 119.251 0.62653 -6.42452 0
M  V30 1298 H 120.019 -0.497225 -8.16988 0
M  V30 1299 N 122.682 1.50554 0.465978 0
M  V30 1300 C 123.612 1.72722 1.57128 0
M  V30 1301 C 124.593 0.576294 1.6004 0
M  V30 1302 O 125.778 0.81598 1.76225 0
M  V30 1303 C 122.908 1.82605 2.95419 0
M  V30 1304 C 121.862 2.97835 3.07373 0
M  V30 1305 C 121.188 2.92867 4.47363 0
M  V30 1306 C 122.488 4.38265 2.84114 0
M  V30 1307 H 124.182 2.65267 1.38829 0
M  V30 1308 H 121.728 1.2765 0.666441 0
M  V30 1309 H 123.681 1.96698 3.72677 0
M  V30 1310 H 122.405 0.866858 3.14886 0
M  V30 1311 H 121.064 2.83401 2.3255 0
M  V30 1312 H 120.712 1.94783 4.63755 0
M  V30 1313 H 120.412 3.70227 4.56296 0
M  V30 1314 H 121.936 3.09015 5.26633 0
M  V30 1315 H 123.35 4.53198 3.51118 0
M  V30 1316 H 121.747 5.17115 3.04487 0
M  V30 1317 H 122.817 4.50281 1.7993 0
M  V30 1318 N 124.16 -0.719506 1.40217 0
M  V30 1319 C 125.406 -1.48152 1.38488 0
M  V30 1320 C 125.739 -1.94195 -0.0141867 0
M  V30 1321 O 125.014 -1.67884 -0.982096 0
M  V30 1322 C 125.297 -2.71035 2.37091 0
M  V30 1323 C 125.15 -2.30912 3.86005 0
M  V30 1324 C 126.469 -3.73182 2.33288 0
M  V30 1325 H 123.588 -0.537395 0.504357 0
M  V30 1326 H 126.23 -0.821472 1.71324 0
M  V30 1327 H 124.38 -3.27352 2.0922 0
M  V30 1328 H 126.052 -1.80107 4.24687 0
M  V30 1329 H 124.295 -1.62958 4.02029 0
M  V30 1330 H 124.966 -3.18978 4.50508 0
M  V30 1331 H 127.442 -3.26485 2.57966 0
M  V30 1332 H 126.318 -4.56806 3.04334 0
M  V30 1333 H 126.579 -4.21202 1.34317 0
M  V30 1334 N 125.638 -1.25649 -0.95132 0
M  V30 1335 C 126.915 -1.01361 -1.67288 0
M  V30 1336 C 127.295 0.459135 -2.06046 0
M  V30 1337 O 126.643 1.43723 -1.7764 0
M  V30 1338 C 126.853 -1.95256 -2.89268 0
M  V30 1339 C 128.201 -2.23289 -3.61147 0
M  V30 1340 O 129.225 -1.93041 -2.99355 0
M  V30 1341 O 128.084 -2.74741 -4.72419 0
M  V30 1342 H 125.178 -0.38464 -0.732107 0
M  V30 1343 H 127.724 -1.36817 -1.00395 0
M  V30 1344 H 126.496 -2.94685 -2.57442 0
M  V30 1345 H 126.119 -1.60218 -3.6389 0
M  V30 1346 N 127.117 1.15442 -1.07289 0
M  V30 1347 C 128.065 2.22225 -0.686952 0
M  V30 1348 C 129.059 1.66688 0.30193 0
M  V30 1349 O 130.265 1.79236 0.165712 0
M  V30 1350 H 126.64 0.723783 -0.204064 0
M  V30 1351 H 128.611 2.52056 -1.5972 0
M  V30 1352 C 127.36 3.47556 -0.100149 0
M  V30 1353 H 126.683 3.90612 -0.852211 0
M  V30 1354 H 128.123 4.23794 0.132235 0
M  V30 1355 C 126.582 3.16337 1.159 0
M  V30 1356 O 127.112 3.33074 2.24555 0
M  V30 1357 N 125.318 2.70385 1.06491 0
M  V30 1358 H 124.865 2.56966 0.180668 0
M  V30 1359 H 124.823 2.49871 1.90819 0
M  V30 1360 N 128.595 0.856903 1.32268 0
M  V30 1361 C 129.505 0.306131 2.32594 0
M  V30 1362 C 130.521 -0.577209 1.64147 0
M  V30 1363 O 131.697 -0.477043 1.95669 0
M  V30 1364 C 128.762 -0.494561 3.43154 0
M  V30 1365 C 127.823 0.415186 4.27288 0
M  V30 1366 C 127.056 -0.347387 5.32568 0
M  V30 1367 O 127.279 -1.57708 5.48165 0
M  V30 1368 O 126.213 0.287982 6.01211 0
M  V30 1369 H 130.039 1.13737 2.81598 0
M  V30 1370 H 127.624 0.619902 1.35932 0
M  V30 1371 H 129.506 -0.948944 4.10576 0
M  V30 1372 H 128.181 -1.30257 2.96336 0
M  V30 1373 H 127.088 0.917793 3.62667 0
M  V30 1374 H 128.421 1.18844 4.77637 0
M  V30 1375 N 130.073 -1.45103 0.615059 0
M  V30 1376 C 131.021 -2.32331 -0.111791 0
M  V30 1377 C 132.015 -1.46409 -0.852102 0
M  V30 1378 O 133.221 -1.62849 -0.766821 0
M  V30 1379 H 129.596 -0.749993 -0.0549072 0
M  V30 1380 H 131.567 -2.91407 0.642225 0
M  V30 1381 C 130.316 -3.3015 -1.09071 0
M  V30 1382 H 129.639 -3.96265 -0.530485 0
M  V30 1383 H 131.079 -3.93898 -1.56908 0
M  V30 1384 C 129.538 -2.57875 -2.168 0
M  V30 1385 O 130.068 -2.36567 -3.24652 0
M  V30 1386 N 128.274 -2.17884 -1.92289 0
M  V30 1387 H 127.821 -2.35413 -1.04587 0
M  V30 1388 H 127.779 -1.6985 -2.64572 0
M  V30 1389 N 131.551 -0.354651 -1.53558 0
M  V30 1390 C 132.484 0.540273 -2.21712 0
M  V30 1391 C 133.462 1.09161 -1.2051 0
M  V30 1392 O 134.646 1.14979 -1.49372 0
M  V30 1393 C 131.773 1.74435 -2.90328 0
M  V30 1394 C 130.819 1.32146 -4.05512 0
M  V30 1395 S 131.652 0.331924 -5.3447 0
M  V30 1396 C 132.808 1.54258 -6.06593 0
M  V30 1397 H 133.041 -0.0385776 -2.97275 0
M  V30 1398 H 130.574 -0.138736 -1.53775 0
M  V30 1399 H 132.532 2.43507 -3.30476 0
M  V30 1400 H 131.193 2.29444 -2.1451 0
M  V30 1401 H 130.386 2.21952 -4.52497 0
M  V30 1402 H 129.988 0.710091 -3.67197 0
M  V30 1403 H 132.28 2.47534 -6.30661 0
M  V30 1404 H 133.223 1.11431 -6.99277 0
M  V30 1405 H 133.631 1.74367 -5.36895 0
M  V30 1406 N 133.029 1.57378 -0.0835403 0
M  V30 1407 C 133.976 2.13384 0.879539 0
M  V30 1408 C 134.946 1.04936 1.28754 0
M  V30 1409 O 136.131 1.32662 1.37133 0
M  V30 1410 C 133.271 2.70932 2.13752 0
M  V30 1411 C 132.384 3.93575 1.7811 0
M  V30 1412 C 131.519 4.39326 2.98607 0
M  V30 1413 C 130.558 5.54587 2.59037 0
M  V30 1414 N 129.695 5.95243 3.72331 0
M  V30 1415 H 134.535 2.9537 0.395076 0
M  V30 1416 H 132.072 1.45953 0.183349 0
M  V30 1417 H 134.03 3.02411 2.87408 0
M  V30 1418 H 132.66 1.91693 2.59718 0
M  V30 1419 H 131.712 3.68483 0.94469 0
M  V30 1420 H 133.024 4.77258 1.45005 0
M  V30 1421 H 132.178 4.72528 3.80529 0
M  V30 1422 H 130.917 3.5452 3.34913 0
M  V30 1423 H 129.922 5.21024 1.75539 0
M  V30 1424 H 131.147 6.41133 2.23887 0
M  V30 1425 H 129.093 5.13385 4.08378 0
M  V30 1426 H 129.01 6.73694 3.43034 0
M  V30 1427 H 130.278 6.33072 4.54797 0
M  V30 1428 N 134.507 -0.190092 1.56449 0
M  V30 1429 C 135.756 -0.907912 1.80111 0
M  V30 1430 C 136.069 -1.84214 0.657619 0
M  V30 1431 O 137.275 -2.60094 0.778663 0
M  V30 1432 C 135.731 -1.66485 3.19078 0
M  V30 1433 C 135.339 -0.7752 4.41242 0
M  V30 1434 C 137.083 -2.37201 3.52045 0
M  V30 1435 C 134.99 -1.53129 5.71231 0
M  V30 1436 H 133.92 -0.34276 0.671589 0
M  V30 1437 H 136.571 -0.161109 1.82791 0
M  V30 1438 H 134.953 -2.45572 3.10661 0
M  V30 1439 H 136.127 -0.0226298 4.60794 0
M  V30 1440 H 134.442 -0.178627 4.16017 0
M  V30 1441 H 137.039 -2.94329 4.46402 0
M  V30 1442 H 137.382 -3.11632 2.76028 0
M  V30 1443 H 137.915 -1.65075 3.61932 0
M  V30 1444 H 134.654 -0.82967 6.50228 0
M  V30 1445 H 134.174 -2.25767 5.55688 0
M  V30 1446 H 135.853 -2.08377 6.12526 0
M  V30 1447 N 135.985 -1.50799 -0.457987 0
M  V30 1448 C 136.932 -1.70617 -1.5543 0
M  V30 1449 C 137.902 -0.547562 -1.56815 0
M  V30 1450 O 139.087 -0.779647 -1.74144 0
M  V30 1451 C 136.227 -1.81831 -2.93311 0
M  V30 1452 C 135.34 -3.09278 -3.01615 0
M  V30 1453 C 134.475 -3.11209 -4.30491 0
M  V30 1454 C 133.514 -4.33055 -4.32585 0
M  V30 1455 N 132.651 -4.32652 -5.52952 0
M  V30 1456 H 137.491 -2.64207 -1.37836 0
M  V30 1457 H 135.028 -1.30959 -0.669937 0
M  V30 1458 H 136.986 -1.86314 -3.73287 0
M  V30 1459 H 135.616 -0.916685 -3.0951 0
M  V30 1460 H 134.668 -3.14203 -2.1443 0
M  V30 1461 H 135.98 -3.99233 -2.99022 0
M  V30 1462 H 135.134 -3.14494 -5.18824 0
M  V30 1463 H 133.873 -2.19106 -4.35711 0
M  V30 1464 H 132.878 -4.29969 -3.42647 0
M  V30 1465 H 134.103 -5.264 -4.29046 0
M  V30 1466 H 132.049 -3.43409 -5.58933 0
M  V30 1467 H 131.966 -5.16392 -5.52155 0
M  V30 1468 H 133.234 -4.40101 -6.43375 0
M  V30 1469 N 137.463 0.71206 -1.40597 0
M  V30 1470 C 138.41 1.82613 -1.41142 0
M  V30 1471 C 139.38 1.63925 -0.267903 0
M  V30 1472 O 140.565 1.85009 -0.466495 0
M  V30 1473 C 137.705 3.20354 -1.28324 0
M  V30 1474 C 136.818 3.50589 -2.52411 0
M  V30 1475 C 135.953 4.77855 -2.32009 0
M  V30 1476 C 134.992 5.01005 -3.51654 0
M  V30 1477 N 134.129 6.19487 -3.30425 0
M  V30 1478 H 138.969 1.81482 -2.36365 0
M  V30 1479 H 136.506 0.886475 -1.17388 0
M  V30 1480 H 138.464 3.99899 -1.18899 0
M  V30 1481 H 137.094 3.20705 -0.367189 0
M  V30 1482 H 136.146 2.65573 -2.72351 0
M  V30 1483 H 137.458 3.63604 -3.41458 0
M  V30 1484 H 136.612 5.65424 -2.19956 0
M  V30 1485 H 135.351 4.67056 -1.40392 0
M  V30 1486 H 134.356 4.1189 -3.64179 0
M  V30 1487 H 135.581 5.13674 -4.44202 0
M  V30 1488 H 133.527 6.09932 -2.41494 0
M  V30 1489 H 133.444 6.33194 -4.13039 0
M  V30 1490 H 134.712 7.09834 -3.22113 0
M  V30 1491 N 138.941 1.26152 0.944643 0
M  V30 1492 C 139.871 1.09902 2.06019 0
M  V30 1493 C 140.852 0.00519538 1.70099 0
M  V30 1494 O 142.037 0.176583 1.93396 0
M  V30 1495 C 139.167 0.727562 3.39594 0
M  V30 1496 C 138.121 1.77274 3.89561 0
M  V30 1497 C 137.447 1.25569 5.19747 0
M  V30 1498 C 138.747 3.17357 4.14827 0
M  V30 1499 H 140.441 2.03217 2.19871 0
M  V30 1500 H 137.987 0.978452 1.05652 0
M  V30 1501 H 139.94 0.600777 4.17095 0
M  V30 1502 H 138.664 -0.241287 3.25707 0
M  V30 1503 H 137.323 1.88814 3.14237 0
M  V30 1504 H 136.971 0.276783 5.02238 0
M  V30 1505 H 136.671 1.95433 5.54148 0
M  V30 1506 H 138.195 1.1415 5.99835 0
M  V30 1507 H 139.609 3.08914 4.82954 0
M  V30 1508 H 138.006 3.84781 4.60504 0
M  V30 1509 H 139.076 3.63673 3.20734 0
M  V30 1510 N 140.419 -1.14872 1.07899 0
M  V30 1511 C 141.366 -2.19791 0.704319 0
M  V30 1512 C 142.336 -1.63238 -0.306987 0
M  V30 1513 O 143.521 -1.8983 -0.192171 0
M  V30 1514 C 140.661 -3.44911 0.114244 0
M  V30 1515 C 139.774 -4.15637 1.1777 0
M  V30 1516 C 138.909 -5.28324 0.552037 0
M  V30 1517 C 137.948 -5.90875 1.59789 0
M  V30 1518 N 137.085 -6.95022 0.994404 0
M  V30 1519 H 141.925 -2.5119 1.60336 0
M  V30 1520 H 139.462 -1.23356 0.801352 0
M  V30 1521 H 141.42 -4.16477 -0.245544 0
M  V30 1522 H 140.05 -3.14011 -0.74813 0
M  V30 1523 H 139.102 -3.42512 1.65499 0
M  V30 1524 H 140.414 -4.5823 1.97046 0
M  V30 1525 H 139.568 -6.06538 0.1402 0
M  V30 1526 H 138.307 -4.86939 -0.272431 0
M  V30 1527 H 137.312 -5.11369 2.01945 0
M  V30 1528 H 138.537 -6.34337 2.42474 0
M  V30 1529 H 136.483 -6.55722 0.190939 0
M  V30 1530 H 136.4 -7.36073 1.72432 0
M  V30 1531 H 137.668 -7.77123 0.608253 0
M  V30 1532 N 141.898 -0.863906 -1.31812 0
M  V30 1533 C 142.808 -0.318461 -2.32428 0
M  V30 1534 C 143.824 0.568496 -1.64451 0
M  V30 1535 O 145 0.46666 -1.95919 0
M  V30 1536 C 142.065 0.476355 -3.43412 0
M  V30 1537 C 141.126 -0.43784 -4.27061 0
M  V30 1538 C 140.359 0.319138 -5.32745 0
M  V30 1539 O 140.582 1.54799 -5.48993 0
M  V30 1540 O 139.516 -0.319861 -6.01049 0
M  V30 1541 H 143.342 -1.15229 -2.80991 0
M  V30 1542 H 140.927 -0.627103 -1.35602 0
M  V30 1543 H 142.809 0.927156 -4.11074 0
M  V30 1544 H 141.484 1.28683 -2.97022 0
M  V30 1545 H 140.391 -0.937013 -3.62175 0
M  V30 1546 H 141.724 -1.21375 -4.77 0
M  V30 1547 N 143.376 1.44774 -0.622745 0
M  V30 1548 C 144.326 2.2774 0.108889 0
M  V30 1549 C 145.31 1.38189 0.824175 0
M  V30 1550 O 146.502 1.62063 0.711664 0
M  V30 1551 C 143.631 3.25353 1.09546 0
M  V30 1552 C 142.717 4.22392 0.380232 0
M  V30 1553 N 143.108 5.02388 -0.586535 0
M  V30 1554 C 141.406 4.41588 0.625792 0
M  V30 1555 C 142.107 5.72894 -1.00834 0
M  V30 1556 N 141.083 5.42479 -0.348878 0
M  V30 1557 H 144.885 2.86993 -0.63341 0
M  V30 1558 H 142.399 1.5611 -0.447589 0
M  V30 1559 H 144.396 3.83538 1.63414 0
M  V30 1560 H 143.056 2.6766 1.83815 0
M  V30 1561 H 144.067 5.0885 -0.963975 0
M  V30 1562 H 140.744 3.95003 1.352 0
M  V30 1563 H 142.134 6.47158 -1.80656 0
M  V30 1564 N 144.854 0.36279 1.53368 0
M  V30 1565 C 146.102 -0.227326 2.00817 0
M  V30 1566 C 146.423 -1.49511 1.25186 0
M  V30 1567 O 145.693 -1.92482 0.364348 0
M  V30 1568 H 144.273 -0.0869923 0.741917 0
M  V30 1569 H 146.935 0.488381 1.88682 0
M  V30 1570 H 146.031 -0.456273 3.08747 0
M  V30 1571 N 146.332 -1.57332 0.0918853 0
M  V30 1572 C 147.282 -2.10385 -0.87876 0
M  V30 1573 C 148.266 -1.01814 -1.24591 0
M  V30 1574 O 149.458 -1.28093 -1.22152 0
M  V30 1575 C 146.587 -2.68517 -2.13901 0
M  V30 1576 C 145.673 -3.84126 -1.79744 0
M  V30 1577 N 146.064 -4.92288 -1.1613 0
M  V30 1578 C 144.362 -3.93801 -2.09373 0
M  V30 1579 C 145.063 -5.7295 -1.00513 0
M  V30 1580 N 144.039 -5.21876 -1.5214 0
M  V30 1581 H 147.841 -2.91395 -0.38293 0
M  V30 1582 H 145.355 -1.62017 -0.111423 0
M  V30 1583 H 147.352 -3.04852 -2.84378 0
M  V30 1584 H 146.012 -1.88961 -2.64053 0
M  V30 1585 H 147.023 -5.1123 -0.828504 0
M  V30 1586 H 143.7 -3.25249 -2.61762 0
M  V30 1587 H 145.09 -6.69978 -0.507902 0
M  V30 1588 N 147.81 0.181792 -1.56548 0
M  V30 1589 C 149.035 0.920019 -1.85877 0
M  V30 1590 C 149.46 1.75494 -0.677021 0
M  V30 1591 O 148.818 1.77399 0.374056 0
M  V30 1592 C 148.866 1.78112 -3.13542 0
M  V30 1593 O 147.97 2.88152 -2.95029 0
M  V30 1594 H 147.311 0.258334 -0.611686 0
M  V30 1595 H 149.841 0.183092 -2.03779 0
M  V30 1596 H 149.851 2.18314 -3.44678 0
M  V30 1597 H 148.526 1.16777 -3.99169 0
M  V30 1598 H 147.103 2.51609 -2.75222 0
M  V30 1599 N 149.288 1.51039 0.449983 0
M  V30 1600 C 150.251 1.70863 1.5277 0
M  V30 1601 C 151.251 0.578846 1.5002 0
M  V30 1602 O 152.441 0.846213 1.52266 0
M  V30 1603 C 149.573 1.75341 2.9235 0
M  V30 1604 H 150.766 2.67034 1.36502 0
M  V30 1605 H 148.319 1.40838 0.677812 0
M  V30 1606 H 149.054 0.809383 3.14037 0
M  V30 1607 H 148.839 2.57436 2.95752 0
M  V30 1608 H 150.329 1.92559 3.70555 0
M  V30 1609 N 150.766 -0.704594 1.40972 0
M  V30 1610 C 151.991 -1.49858 1.43378 0
M  V30 1611 C 152.416 -1.88061 0.038184 0
M  V30 1612 O 151.774 -1.5402 -0.956425 0
M  V30 1613 C 151.822 -2.74333 2.34038 0
M  V30 1614 O 150.926 -3.7147 1.7912 0
M  V30 1615 H 150.267 -0.45139 0.486974 0
M  V30 1616 H 152.797 -0.866832 1.8533 0
M  V30 1617 H 152.807 -3.22741 2.49604 0
M  V30 1618 H 151.482 -2.45863 3.35446 0
M  V30 1619 H 150.059 -3.30363 1.72958 0
M  V30 1620 N 152.244 -1.26651 -0.937939 0
M  V30 1621 C 153.174 -1.10993 -2.05433 0
M  V30 1622 C 154.155 -0.0142161 -1.70094 0
M  V30 1623 O 155.34 -0.186837 -1.93299 0
M  V30 1624 C 152.47 -0.745561 -3.39203 0
M  V30 1625 C 151.424 -1.79337 -3.88616 0
M  V30 1626 C 150.75 -1.28324 -5.19073 0
M  V30 1627 C 152.05 -3.19553 -4.13138 0
M  V30 1628 H 153.744 -2.0438 -2.1879 0
M  V30 1629 H 151.29 -0.984041 -1.05131 0
M  V30 1630 H 153.243 -0.622888 -4.16771 0
M  V30 1631 H 151.967 0.22401 -3.25831 0
M  V30 1632 H 150.626 -1.90477 -3.13231 0
M  V30 1633 H 150.274 -0.303414 -5.02084 0
M  V30 1634 H 149.974 -1.98369 -5.53103 0
M  V30 1635 H 151.498 -1.1733 -5.99221 0
M  V30 1636 H 152.912 -3.11471 -4.81309 0
M  V30 1637 H 151.309 -3.87218 -4.58457 0
M  V30 1638 H 152.379 -3.65368 -3.18801 0
M  V30 1639 N 153.722 1.14298 -1.08507 0
M  V30 1640 C 154.67 2.21483 -0.710483 0
M  V30 1641 C 155.664 1.66998 0.284234 0
M  V30 1642 O 156.87 1.79401 0.146692 0
M  V30 1643 H 153.245 0.721578 -0.211729 0
M  V30 1644 H 155.216 2.50348 -1.62384 0
M  V30 1645 C 153.965 3.4743 -0.137007 0
M  V30 1646 H 153.288 3.89686 -0.893592 0
M  V30 1647 H 154.728 4.2391 0.0872789 0
M  V30 1648 C 153.187 3.17548 1.12538 0
M  V30 1649 O 153.717 3.35437 2.21009 0
M  V30 1650 N 151.923 2.71499 1.03617 0
M  V30 1651 H 151.47 2.57143 0.153403 0
M  V30 1652 H 151.428 2.51881 1.88158 0
M  V30 1653 N 155.201 0.870884 1.31352 0
M  V30 1654 C 156.478 0.402907 1.91405 0
M  V30 1655 C 156.858 -1.11512 1.79244 0
M  V30 1656 O 156.206 -1.94411 1.2007 0
M  V30 1657 C 156.416 0.885301 3.37585 0
M  V30 1658 C 157.764 0.911971 4.14691 0
M  V30 1659 O 158.788 0.831016 3.46371 0
M  V30 1660 O 157.647 1.02927 5.3672 0
M  V30 1661 H 154.741 0.120698 0.818145 0
M  V30 1662 H 157.287 0.958857 1.40014 0
M  V30 1663 H 156.059 1.92889 3.40455 0
M  V30 1664 H 155.682 0.307714 3.96407 0
M  V30 1665 N 156.679 -1.44442 0.630414 0
M  V30 1666 C 157.956 -1.9549 0.0655657 0
M  V30 1667 C 158.336 -1.5724 -1.40851 0
M  V30 1668 O 157.684 -0.846116 -2.12257 0
M  V30 1669 C 157.894 -3.47812 0.287691 0
M  V30 1670 C 159.242 -4.24216 0.180513 0
M  V30 1671 O 160.266 -3.55526 0.219019 0
M  V30 1672 O 159.125 -5.46434 0.0848493 0
M  V30 1673 H 156.219 -0.826688 -0.0227177 0
M  V30 1674 H 158.765 -1.54496 0.702068 0
M  V30 1675 H 157.537 -3.687 1.31056 0
M  V30 1676 H 157.16 -3.95751 -0.382984 0
M  V30 1677 N 158.157 -0.370918 -1.53173 0
M  V30 1678 C 159.087 0.464847 -2.28826 0
M  V30 1679 C 160.068 1.07936 -1.31468 0
M  V30 1680 O 161.253 1.0956 -1.60344 0
M  V30 1681 C 158.383 1.60196 -3.08147 0
M  V30 1682 C 157.337 1.11443 -4.13237 0
M  V30 1683 C 156.663 2.3422 -4.80672 0
M  V30 1684 C 157.963 0.195384 -5.21934 0
M  V30 1685 H 159.657 -0.166329 -2.98938 0
M  V30 1686 H 157.203 -0.0814359 -1.4377 0
M  V30 1687 H 159.156 2.19332 -3.59822 0
M  V30 1688 H 157.88 2.26045 -2.35735 0
M  V30 1689 H 156.539 0.545727 -3.62515 0
M  V30 1690 H 156.187 2.98537 -4.04827 0
M  V30 1691 H 155.887 2.02269 -5.51689 0
M  V30 1692 H 157.411 2.94032 -5.35143 0
M  V30 1693 H 158.825 0.694375 -5.69079 0
M  V30 1694 H 157.222 -0.0335027 -6.00091 0
M  V30 1695 H 158.292 -0.760961 -4.78892 0
M  V30 1696 N 159.635 1.57281 -0.100228 0
M  V30 1697 C 160.86 1.99302 0.573881 0
M  V30 1698 C 161.285 0.979059 1.60611 0
M  V30 1699 O 160.643 -0.0517803 1.81226 0
M  V30 1700 C 160.691 3.40274 1.19358 0
M  V30 1701 O 159.795 3.41676 2.30935 0
M  V30 1702 H 159.136 0.647944 0.145138 0
M  V30 1703 H 161.666 2.03779 -0.183156 0
M  V30 1704 H 161.676 3.78078 1.53365 0
M  V30 1705 H 160.351 4.13594 0.437385 0
M  V30 1706 H 158.928 3.15672 1.98509 0
M  V30 1707 N 161.113 -0.173488 1.56642 0
M  V30 1708 C 162.524 -0.736155 1.71574 0
M  V30 1709 C 162.875 -1.82888 0.710389 0
M  V30 1710 O 162 -2.16017 -0.1287 0
M  V30 1711 C 162.595 -1.34211 3.11083 0
M  V30 1712 C 161.154 -1.85162 3.27707 0
M  V30 1713 C 160.301 -0.729765 2.67525 0
M  V30 1714 H 163.252 0.0518786 1.58615 0
M  V30 1715 H 163.273 -2.21178 3.09613 0
M  V30 1716 H 162.785 -0.546579 3.84232 0
M  V30 1717 H 160.886 -2.67366 2.59512 0
M  V30 1718 H 160.999 -1.99855 4.35425 0
M  V30 1719 H 159.363 -1.14965 2.27278 0
M  V30 1720 H 160.146 0.0538806 3.43258 0
M  V30 1721 N 162.591 -1.51276 -0.441967 0
M  V30 1722 C 163.521 -1.752 -1.54361 0
M  V30 1723 C 164.502 -0.601682 -1.59103 0
M  V30 1724 O 165.687 -0.843913 -1.74905 0
M  V30 1725 C 162.817 -1.87282 -2.92477 0
M  V30 1726 C 161.771 -3.02687 -3.02596 0
M  V30 1727 C 161.097 -2.99947 -4.42647 0
M  V30 1728 C 162.397 -4.4273 -2.77106 0
M  V30 1729 H 164.091 -2.67442 -1.34592 0
M  V30 1730 H 161.637 -1.28694 -0.646048 0
M  V30 1731 H 163.59 -2.02602 -3.695 0
M  V30 1732 H 162.314 -0.916844 -3.13467 0
M  V30 1733 H 160.973 -2.87065 -2.28012 0
M  V30 1734 H 160.621 -2.02136 -4.60597 0
M  V30 1735 H 160.321 -3.77439 -4.50348 0
M  V30 1736 H 161.845 -3.17354 -5.2165 0
M  V30 1737 H 163.259 -4.58727 -3.43864 0
M  V30 1738 H 161.656 -5.21893 -2.96222 0
M  V30 1739 H 162.726 -4.53087 -1.72744 0
M  V30 1740 N 164.069 0.697108 -1.41344 0
M  V30 1741 C 165.001 1.8224 -1.39001 0
M  V30 1742 C 166.014 1.60152 -0.292428 0
M  V30 1743 O 167.203 1.69684 -0.554048 0
M  V30 1744 C 164.303 3.18976 -1.14489 0
M  V30 1745 C 163.476 3.68105 -2.36258 0
M  V30 1746 C 162.535 4.83506 -2.07625 0
M  V30 1747 O 161.561 4.95201 -2.8065 0
M  V30 1748 N 162.763 5.70637 -1.06555 0
M  V30 1749 H 165.528 1.84742 -2.35988 0
M  V30 1750 H 163.089 0.87937 -1.35936 0
M  V30 1751 H 165.081 3.93801 -0.932885 0
M  V30 1752 H 163.651 3.11508 -0.261043 0
M  V30 1753 H 162.871 2.84204 -2.7317 0
M  V30 1754 H 164.159 3.97667 -3.17393 0
M  V30 1755 H 163.557 5.63817 -0.461125 0
M  V30 1756 H 162.114 6.45368 -0.913444 0
M  V30 1757 N 165.547 1.27147 0.931209 0
M  V30 1758 C 166.777 1.15914 1.71019 0
M  V30 1759 C 167.185 -0.287112 1.87009 0
M  V30 1760 O 166.528 -1.20761 1.38429 0
M  V30 1761 C 166.59 1.76647 3.13107 0
M  V30 1762 C 166.254 3.25807 3.20467 0
M  V30 1763 C 167.251 4.22489 3.02983 0
M  V30 1764 C 164.936 3.66452 3.43538 0
M  V30 1765 C 166.93 5.57794 3.08454 0
M  V30 1766 C 164.617 5.01888 3.48643 0
M  V30 1767 C 165.615 5.97369 3.31119 0
M  V30 1768 O 165.303 7.30337 3.35952 0
M  V30 1769 H 165.035 0.404062 0.54195 0
M  V30 1770 H 167.589 1.68457 1.17521 0
M  V30 1771 H 165.819 1.18578 3.68071 0
M  V30 1772 H 167.508 1.60179 3.72958 0
M  V30 1773 H 168.274 3.92425 2.85004 0
M  V30 1774 H 164.153 2.92611 3.5623 0
M  V30 1775 H 167.697 6.32298 2.94694 0
M  V30 1776 H 163.594 5.31609 3.66145 0
M  V30 1777 H 164.362 7.38739 3.5243 0
M  V30 1778 N 167.025 -1.13721 1.09112 0
M  V30 1779 C 167.935 -2.22638 0.73957 0
M  V30 1780 C 168.951 -1.72091 -0.257068 0
M  V30 1781 O 170.127 -2.01155 -0.0992154 0
M  V30 1782 C 167.192 -3.46322 0.16191 0
M  V30 1783 C 166.253 -4.11775 1.21408 0
M  V30 1784 C 165.486 -5.29555 0.663891 0
M  V30 1785 O 165.709 -5.68077 -0.514274 0
M  V30 1786 O 164.643 -5.84973 1.41738 0
M  V30 1787 H 168.469 -2.55074 1.64836 0
M  V30 1788 H 166.054 -1.21791 0.865289 0
M  V30 1789 H 167.936 -4.21107 -0.157073 0
M  V30 1790 H 166.611 -3.15593 -0.719932 0
M  V30 1791 H 165.518 -3.3883 1.58571 0
M  V30 1792 H 166.851 -4.46627 2.06845 0
M  V30 1793 N 168.503 -0.877838 -1.30888 0
M  V30 1794 C 169.919 -0.570844 -1.49042 0
M  V30 1795 C 170.119 0.893159 -1.80624 0
M  V30 1796 O 169.175 1.67485 -1.88958 0
M  V30 1797 C 170.488 -1.47784 -2.61878 0
M  V30 1798 C 172.036 -1.48071 -2.75761 0
M  V30 1799 C 172.511 -2.37347 -3.91702 0
M  V30 1800 N 174.002 -2.35271 -3.99001 0
M  V30 1801 C 174.737 -3.01063 -4.88004 0
M  V30 1802 N 174.233 -3.76055 -5.81854 0
M  V30 1803 N 176.026 -2.90332 -4.81315 0
M  V30 1804 H 168.177 -1.82502 -1.0866 0
M  V30 1805 H 170.44 -0.780797 -0.537644 0
M  V30 1806 H 170.146 -2.51993 -2.45341 0
M  V30 1807 H 170.02 -1.18215 -3.58197 0
M  V30 1808 H 172.407 -0.446166 -2.91708 0
M  V30 1809 H 172.488 -1.81668 -1.80085 0
M  V30 1810 H 172.132 -3.40883 -3.76512 0
M  V30 1811 H 172.062 -2.01071 -4.86701 0
M  V30 1812 H 174.553 -1.80768 -3.3186 0
M  V30 1813 H 174.866 -4.23366 -6.46514 0
M  V30 1814 H 173.211 -3.80163 -5.81808 0
M  V30 1815 H 176.402 -2.31278 -4.06974 0
M  V30 1816 H 176.575 -3.41885 -5.50471 0
M  V30 1817 N 169.982 1.44106 -0.638065 0
M  V30 1818 C 171.21 2.06336 -0.152615 0
M  V30 1819 C 171.625 1.47731 1.17563 0
M  V30 1820 O 170.982 0.602806 1.72257 0
M  V30 1821 C 171.033 3.61479 -0.0391491 0
M  V30 1822 O 170.754 4.17903 -1.31487 0
M  V30 1823 C 172.255 4.40757 0.474176 0
M  V30 1824 H 169.475 0.665862 -0.0828776 0
M  V30 1825 H 172.019 1.84862 -0.87443 0
M  V30 1826 H 170.174 3.82191 0.633142 0
M  V30 1827 H 170.588 5.11416 -1.16421 0
M  V30 1828 H 172.062 5.49707 0.502562 0
M  V30 1829 H 172.539 4.12697 1.50258 0
M  V30 1830 H 173.145 4.24979 -0.165102 0
M  V30 1831 N 171.46 0.379036 1.52974 0
M  V30 1832 C 172.407 -0.461048 2.26148 0
M  V30 1833 C 173.377 -1.06637 1.27349 0
M  V30 1834 O 174.562 -1.09633 1.56157 0
M  V30 1835 C 171.702 -1.58782 3.06402 0
M  V30 1836 C 170.815 -1.00636 4.20115 0
M  V30 1837 C 169.95 -2.10334 4.87784 0
M  V30 1838 C 168.989 -1.49724 5.93506 0
M  V30 1839 N 168.126 -2.5331 6.54812 0
M  V30 1840 H 172.966 0.169429 2.97518 0
M  V30 1841 H 170.503 0.0953806 1.4679 0
M  V30 1842 H 172.461 -2.25174 3.51215 0
M  V30 1843 H 171.091 -2.18876 2.37261 0
M  V30 1844 H 170.143 -0.232332 3.7969 0
M  V30 1845 H 171.455 -0.523343 4.96047 0
M  V30 1846 H 170.609 -2.84519 5.35849 0
M  V30 1847 H 169.348 -2.61992 4.11353 0
M  V30 1848 H 168.353 -0.740598 5.44789 0
M  V30 1849 H 169.578 -0.988732 6.71864 0
M  V30 1850 H 167.524 -3.04156 5.81227 0
M  V30 1851 H 167.441 -2.09734 7.26325 0
M  V30 1852 H 168.709 -3.27155 7.07524 0
M  V30 1853 N 172.938 -1.57226 0.108567 0
M  V30 1854 C 174.168 -1.9889 -0.559142 0
M  V30 1855 C 174.576 -0.986889 -1.61422 0
M  V30 1856 O 173.919 0.0298705 -1.83676 0
M  V30 1857 C 173.981 -3.36952 -1.25315 0
M  V30 1858 C 173.645 -4.55679 -0.347248 0
M  V30 1859 C 174.642 -5.18281 0.409996 0
M  V30 1860 C 172.327 -5.0162 -0.261367 0
M  V30 1861 C 174.321 -6.25203 1.24096 0
M  V30 1862 C 172.008 -6.08405 0.573238 0
M  V30 1863 C 173.006 -6.70063 1.32304 0
M  V30 1864 O 172.694 -7.74788 2.14381 0
M  V30 1865 H 172.426 -0.658343 -0.153492 0
M  V30 1866 H 174.98 -2.04532 0.188584 0
M  V30 1867 H 173.21 -3.28032 -2.04773 0
M  V30 1868 H 174.899 -3.62974 -1.81673 0
M  V30 1869 H 175.665 -4.8371 0.353457 0
M  V30 1870 H 171.544 -4.53381 -0.834656 0
M  V30 1871 H 175.088 -6.73259 1.82669 0
M  V30 1872 H 170.985 -6.42406 0.631208 0
M  V30 1873 H 171.753 -7.91837 2.07209 0
M  V30 1874 N 174.416 0.165178 -1.56732 0
M  V30 1875 C 175.665 0.879143 -1.81532 0
M  V30 1876 C 175.978 1.83144 -0.686842 0
M  V30 1877 O 177.184 2.58823 -0.819944 0
M  V30 1878 C 175.64 1.61388 -3.21686 0
M  V30 1879 C 175.248 0.704904 -4.4242 0
M  V30 1880 C 176.992 2.3157 -3.55774 0
M  V30 1881 C 174.899 1.44022 -5.73595 0
M  V30 1882 H 173.829 0.332033 -0.676957 0
M  V30 1883 H 176.48 0.132008 -1.83025 0
M  V30 1884 H 174.862 2.40599 -3.14529 0
M  V30 1885 H 176.036 -0.0506815 -4.60772 0
M  V30 1886 H 174.351 0.112419 -4.16248 0
M  V30 1887 H 176.948 2.8719 -4.51028 0
M  V30 1888 H 177.291 3.07201 -2.8095 0
M  V30 1889 H 177.824 1.59297 -3.64513 0
M  V30 1890 H 174.563 0.72612 -6.51466 0
M  V30 1891 H 174.083 2.16898 -5.5921 0
M  V30 1892 H 175.762 1.98606 -6.15764 0
M  V30 1893 N 175.894 1.51508 0.433938 0
M  V30 1894 C 177.305 1.56784 1.01369 0
M  V30 1895 C 177.656 0.393349 1.92217 0
M  V30 1896 O 176.781 -0.489441 2.10792 0
M  V30 1897 C 177.376 2.84144 1.8452 0
M  V30 1898 C 175.935 2.9198 2.37539 0
M  V30 1899 C 175.082 2.51482 1.16843 0
M  V30 1900 H 178.033 1.57236 0.215081 0
M  V30 1901 H 178.054 2.68098 2.70007 0
M  V30 1902 H 177.566 3.69607 1.18373 0
M  V30 1903 H 175.667 2.10955 3.0713 0
M  V30 1904 H 175.78 3.95704 2.70103 0
M  V30 1905 H 174.144 2.04758 1.51481 0
M  V30 1906 H 174.927 3.39293 0.523015 0
M  V30 1907 N 177.372 -0.689602 1.41712 0
M  V30 1908 C 178.597 -1.48329 1.44959 0
M  V30 1909 C 179.022 -1.8801 0.0581283 0
M  V30 1910 O 178.38 -1.55026 -0.940035 0
M  V30 1911 C 178.428 -2.71835 2.36935 0
M  V30 1912 O 177.532 -3.69549 1.8305 0
M  V30 1913 H 176.873 -0.446199 0.491734 0
M  V30 1914 H 179.403 -0.847127 1.86239 0
M  V30 1915 H 179.413 -3.20076 2.53013 0
M  V30 1916 H 178.088 -2.42291 3.38035 0
M  V30 1917 H 176.665 -3.2851 1.76452 0
M  V30 1918 N 178.85 -1.27639 -0.924453 0
M  V30 1919 C 179.78 -1.13166 -2.04244 0
M  V30 1920 C 180.761 -0.032256 -1.70069 0
M  V30 1921 O 181.946 -0.207328 -1.9309 0
M  V30 1922 C 179.076 -0.781496 -3.38393 0
M  V30 1923 C 178.03 -1.83449 -3.86692 0
M  V30 1924 C 177.356 -1.33822 -5.17683 0
M  V30 1925 C 178.656 -3.23917 -4.09726 0
M  V30 1926 H 180.35 -2.06689 -2.1661 0
M  V30 1927 H 177.896 -0.995136 -1.04082 0
M  V30 1928 H 179.849 -0.667057 -4.16087 0
M  V30 1929 H 178.573 0.189439 -3.2605 0
M  V30 1930 H 177.232 -1.93789 -3.11193 0
M  V30 1931 H 176.88 -0.35665 -5.01734 0
M  V30 1932 H 176.58 -2.04224 -5.50968 0
M  V30 1933 H 178.104 -1.23679 -5.97943 0
M  V30 1934 H 179.518 -3.16559 -4.77978 0
M  V30 1935 H 177.915 -3.92059 -4.54324 0
M  V30 1936 H 178.985 -3.68729 -3.14908 0
M  V30 1937 N 180.328 1.1314 -1.09713 0
M  V30 1938 C 181.739 1.66029 -0.853885 0
M  V30 1939 C 182.09 1.86241 0.617142 0
M  V30 1940 O 181.215 1.5834 1.47503 0
M  V30 1941 C 181.81 3.01599 -1.5435 0
M  V30 1942 C 180.369 3.51467 -1.34714 0
M  V30 1943 C 179.516 2.26648 -1.59769 0
M  V30 1944 H 182.467 0.970226 -1.25588 0
M  V30 1945 H 182.488 3.67709 -0.978267 0
M  V30 1946 H 182 2.86856 -2.6141 0
M  V30 1947 H 180.101 3.71408 -0.297838 0
M  V30 1948 H 180.214 4.314 -2.08401 0
M  V30 1949 H 178.578 2.33385 -1.01998 0
M  V30 1950 H 179.361 2.14467 -2.68065 0
M  V30 1951 N 181.806 0.884767 1.30421 0
M  V30 1952 C 182.753 0.349642 2.28136 0
M  V30 1953 C 183.723 -0.560061 1.56373 0
M  V30 1954 O 184.908 -0.488524 1.8444 0
M  V30 1955 C 182.048 -0.42999 3.42411 0
M  V30 1956 C 181.161 0.508907 4.28992 0
M  V30 1957 C 180.296 -0.286301 5.30428 0
M  V30 1958 C 179.335 0.648079 6.08659 0
M  V30 1959 N 178.472 -0.111792 7.02011 0
M  V30 1960 H 183.312 1.18807 2.73293 0
M  V30 1961 H 180.849 0.597231 1.3443 0
M  V30 1962 H 182.807 -0.897923 4.07423 0
M  V30 1963 H 181.437 -1.23299 2.98324 0
M  V30 1964 H 180.489 1.09533 3.64289 0
M  V30 1965 H 181.801 1.22475 4.8353 0
M  V30 1966 H 180.955 -0.816098 6.01186 0
M  V30 1967 H 179.694 -1.03536 4.76583 0
M  V30 1968 H 178.699 1.18951 5.36778 0
M  V30 1969 H 179.924 1.39623 6.64592 0
M  V30 1970 H 177.87 -0.843395 6.50556 0
M  V30 1971 H 177.787 0.544429 7.54037 0
M  V30 1972 H 179.055 -0.622339 7.77012 0
M  V30 1973 N 183.284 -1.43765 0.645699 0
M  V30 1974 C 184.247 -2.29163 -0.0409488 0
M  V30 1975 C 185.247 -1.41813 -0.757996 0
M  V30 1976 O 186.437 -1.63527 -0.600382 0
M  V30 1977 C 183.569 -3.23716 -1.06869 0
M  V30 1978 H 184.762 -2.91366 0.710345 0
M  V30 1979 H 182.315 -1.5092 0.406547 0
M  V30 1980 H 183.05 -2.66393 -1.84947 0
M  V30 1981 H 182.835 -3.88105 -0.558277 0
M  V30 1982 H 184.325 -3.87831 -1.54845 0
M  V30 1983 N 184.763 -0.387143 -1.52771 0
M  V30 1984 C 185.693 0.440551 -2.29306 0
M  V30 1985 C 186.674 1.06535 -1.32606 0
M  V30 1986 O 187.859 1.07853 -1.61497 0
M  V30 1987 C 184.989 1.56919 -3.09829 0
M  V30 1988 C 183.943 1.07054 -4.14395 0
M  V30 1989 C 183.269 2.29109 -4.83129 0
M  V30 1990 C 184.569 0.140015 -5.22112 0
M  V30 1991 H 186.263 -0.198026 -2.98744 0
M  V30 1992 H 183.809 -0.09668 -1.43675 0
M  V30 1993 H 185.762 2.15503 -3.62128 0
M  V30 1994 H 184.486 2.23532 -2.3812 0
M  V30 1995 H 183.145 0.507247 -3.63074 0
M  V30 1996 H 182.793 2.94227 -4.0797 0
M  V30 1997 H 182.493 1.96406 -5.53804 0
M  V30 1998 H 184.017 2.88339 -5.38231 0
M  V30 1999 H 185.431 0.633978 -5.69784 0
M  V30 2000 H 183.828 -0.0971485 -6.00021 0
M  V30 2001 H 184.898 -0.811711 -4.78058 0
M  V30 2002 N 186.241 1.57166 -0.116904 0
M  V30 2003 C 187.204 2.14039 0.819742 0
M  V30 2004 C 188.204 1.07477 1.19605 0
M  V30 2005 O 189.394 1.33263 1.1219 0
M  V30 2006 C 186.526 2.67891 2.10826 0
M  V30 2007 H 187.719 2.98128 0.325511 0
M  V30 2008 H 185.272 1.55739 0.132312 0
M  V30 2009 H 186.007 1.87384 2.64685 0
M  V30 2010 H 185.792 3.45823 1.84793 0
M  V30 2011 H 187.282 3.11809 2.77785 0
M  V30 2012 N 187.719 -0.156864 1.56817 0
M  V30 2013 C 188.944 -0.890331 1.87318 0
M  V30 2014 C 189.369 -1.74394 0.704855 0
M  V30 2015 O 188.727 -1.77972 -0.345786 0
M  V30 2016 C 188.775 -1.73102 3.16336 0
M  V30 2017 O 187.879 -2.83422 2.99576 0
M  V30 2018 H 187.22 -0.24857 0.615718 0
M  V30 2019 H 189.75 -0.150649 2.04045 0
M  V30 2020 H 189.76 -2.12803 3.48107 0
M  V30 2021 H 188.435 -1.10412 4.00976 0
M  V30 2022 H 187.012 -2.47199 2.7919 0
M  V30 2023 N 189.197 -1.51736 -0.425897 0
M  V30 2024 C 190.107 -1.76738 -1.54275 0
M  V30 2025 C 191.123 -0.65211 -1.61318 0
M  V30 2026 O 192.299 -0.935654 -1.78346 0
M  V30 2027 C 189.364 -1.89755 -2.90162 0
M  V30 2028 C 188.425 -3.13633 -2.93143 0
M  V30 2029 C 187.658 -3.2602 -4.22548 0
M  V30 2030 O 187.881 -2.44067 -5.15546 0
M  V30 2031 O 186.815 -4.19071 -4.32046 0
M  V30 2032 H 190.641 -2.71502 -1.36089 0
M  V30 2033 H 188.226 -1.36376 -0.610069 0
M  V30 2034 H 190.108 -2.00236 -3.70788 0
M  V30 2035 H 188.783 -0.981785 -3.08452 0
M  V30 2036 H 187.69 -3.08622 -2.11431 0
M  V30 2037 H 189.023 -4.04936 -2.798 0
M  V30 2038 N 190.675 0.682077 -1.42076 0
M  V30 2039 C 191.905 1.46844 -1.45329 0
M  V30 2040 C 192.313 1.89102 -0.0609328 0
M  V30 2041 O 191.656 1.58238 0.933082 0
M  V30 2042 C 191.718 2.75375 -2.31104 0
M  V30 2043 C 191.382 2.55238 -3.79081 0
M  V30 2044 C 192.379 2.20309 -4.70914 0
M  V30 2045 C 190.064 2.70459 -4.2327 0
M  V30 2046 C 192.058 2.00859 -6.04925 0
M  V30 2047 C 189.745 2.50624 -5.57343 0
M  V30 2048 C 190.743 2.15876 -6.47986 0
M  V30 2049 O 190.431 1.96227 -7.79583 0
M  V30 2050 H 190.163 0.4586 -0.496651 0
M  V30 2051 H 192.717 0.846131 -1.87162 0
M  V30 2052 H 190.947 3.40061 -1.84107 0
M  V30 2053 H 192.636 3.37231 -2.25898 0
M  V30 2054 H 193.402 2.08153 -4.38061 0
M  V30 2055 H 189.281 2.96485 -3.53012 0
M  V30 2056 H 192.825 1.7366 -6.75639 0
M  V30 2057 H 188.722 2.62375 -5.89771 0
M  V30 2058 H 189.49 2.10883 -7.90867 0
M  V30 2059 N 192.153 1.28127 0.917671 0
M  V30 2060 C 193.085 1.07517 2.02417 0
M  V30 2061 C 194.098 0.0281099 1.62776 0
M  V30 2062 O 195.287 0.270748 1.76435 0
M  V30 2063 C 192.387 0.610957 3.33347 0
M  V30 2064 C 191.56 1.73255 4.01624 0
M  V30 2065 C 190.619 1.26238 5.10833 0
M  V30 2066 O 189.645 1.96389 5.34247 0
M  V30 2067 N 190.847 0.123448 5.80369 0
M  V30 2068 H 193.612 2.02806 2.20658 0
M  V30 2069 H 191.173 1.19827 1.08871 0
M  V30 2070 H 193.165 0.280101 4.0373 0
M  V30 2071 H 191.735 -0.24898 3.11607 0
M  V30 2072 H 190.955 2.23319 3.24842 0
M  V30 2073 H 192.243 2.48503 4.43986 0
M  V30 2074 H 191.641 -0.461847 5.63812 0
M  V30 2075 H 190.198 -0.148158 6.51632 0
M  V30 2076 N 193.631 -1.12557 1.10312 0
M  V30 2077 C 194.88 -1.83395 0.839588 0
M  V30 2078 C 195.193 -1.84939 -0.636929 0
M  V30 2079 O 196.399 -2.51761 -1.01631 0
M  V30 2080 C 194.855 -3.29303 1.45215 0
M  V30 2081 C 194.463 -3.36122 2.96186 0
M  V30 2082 C 196.207 -4.05121 1.26796 0
M  V30 2083 C 194.114 -4.76357 3.50483 0
M  V30 2084 H 193.044 -0.687133 0.310425 0
M  V30 2085 H 195.695 -1.26746 1.32694 0
M  V30 2086 H 194.077 -3.85812 0.892469 0
M  V30 2087 H 195.251 -2.89559 3.58458 0
M  V30 2088 H 193.566 -2.73776 3.13745 0
M  V30 2089 H 196.163 -5.08668 1.64806 0
M  V30 2090 H 196.506 -4.15773 0.209409 0
M  V30 2091 H 197.039 -3.54967 1.79563 0
M  V30 2092 H 193.778 -4.70899 4.55998 0
M  V30 2093 H 193.298 -5.23377 2.92978 0
M  V30 2094 H 194.977 -5.45294 3.48228 0
M  V30 2095 N 195.109 -0.891671 -1.2995 0
M  V30 2096 C 196.039 -0.379797 -2.30391 0
M  V30 2097 C 197.02 0.540919 -1.6127 0
M  V30 2098 O 198.205 0.453352 -1.88834 0
M  V30 2099 C 195.335 0.400654 -3.44981 0
M  V30 2100 C 194.289 -0.428905 -4.25846 0
M  V30 2101 C 193.615 0.478557 -5.32554 0
M  V30 2102 C 194.915 -1.67458 -4.94727 0
M  V30 2103 H 196.609 -1.21914 -2.73454 0
M  V30 2104 H 194.155 -0.587675 -1.31462 0
M  V30 2105 H 196.108 0.769434 -4.14316 0
M  V30 2106 H 194.832 1.27371 -3.0074 0
M  V30 2107 H 193.491 -0.779911 -3.58208 0
M  V30 2108 H 193.139 1.34951 -4.84559 0
M  V30 2109 H 192.839 -0.0727433 -5.87555 0
M  V30 2110 H 194.363 0.843705 -6.04743 0
M  V30 2111 H 195.777 -1.376 -5.56542 0
M  V30 2112 H 194.174 -2.16659 -5.59624 0
M  V30 2113 H 195.244 -2.41518 -4.20473 0
M  V30 2114 N 196.587 1.43421 -0.653314 0
M  V30 2115 C 197.864 1.95361 -0.0966581 0
M  V30 2116 C 198.244 1.59461 1.38331 0
M  V30 2117 O 197.592 0.879777 2.10884 0
M  V30 2118 C 197.802 3.47311 -0.342988 0
M  V30 2119 C 199.15 4.23875 -0.24798 0
M  V30 2120 O 200.174 3.55133 -0.275553 0
M  V30 2121 O 199.033 5.4623 -0.171771 0
M  V30 2122 H 196.127 0.826945 0.00956291 0
M  V30 2123 H 198.673 1.5336 -0.726558 0
M  V30 2124 H 197.445 3.66569 -1.36906 0
M  V30 2125 H 197.068 3.9631 0.319975 0
M  V30 2126 N 198.065 0.39524 1.52563 0
M  V30 2127 C 198.975 -0.444232 2.30356 0
M  V30 2128 C 199.991 -1.06615 1.37511 0
M  V30 2129 O 201.167 -1.07067 1.70583 0
M  V30 2130 C 198.232 -1.55315 3.09964 0
M  V30 2131 C 197.293 -0.955734 4.18526 0
M  V30 2132 C 196.526 -2.01181 4.9433 0
M  V30 2133 O 196.749 -3.22781 4.70285 0
M  V30 2134 O 195.683 -1.62579 5.79527 0
M  V30 2135 H 199.509 0.189667 3.03107 0
M  V30 2136 H 197.094 0.1588 1.48554 0
M  V30 2137 H 198.976 -2.19724 3.59582 0
M  V30 2138 H 197.651 -2.17191 2.4002 0
M  V30 2139 H 196.558 -0.274743 3.7309 0
M  V30 2140 H 197.891 -0.381109 4.90722 0
M  V30 2141 N 199.544 -1.57102 0.125237 0
M  V30 2142 C 200.492 -2.16905 -0.839927 0
M  V30 2143 C 201.486 -1.11998 -1.27094 0
M  V30 2144 O 202.692 -1.3029 -1.24195 0
M  V30 2145 H 199.067 -0.694252 -0.288995 0
M  V30 2146 H 201.038 -2.96774 -0.311115 0
M  V30 2147 C 199.787 -2.78795 -2.07771 0
M  V30 2148 H 199.11 -3.59221 -1.755 0
M  V30 2149 H 200.55 -3.2417 -2.73295 0
M  V30 2150 C 199.009 -1.76193 -2.87155 0
M  V30 2151 O 199.539 -1.21909 -3.82755 0
M  V30 2152 N 197.745 -1.45991 -2.51267 0
M  V30 2153 H 197.292 -1.90325 -1.73592 0
M  V30 2154 H 197.25 -0.775844 -3.04677 0
M  V30 2155 N 201.022 0.148545 -1.56898 0
M  V30 2156 C 202.252 0.875118 -1.8715 0
M  V30 2157 C 202.66 1.75322 -0.711262 0
M  V30 2158 O 202.003 1.80745 0.328151 0
M  V30 2159 C 202.065 1.7844 -3.12089 0
M  V30 2160 C 201.729 1.08361 -4.43967 0
M  V30 2161 C 202.726 0.438247 -5.1805 0
M  V30 2162 C 200.411 1.07358 -4.90693 0
M  V30 2163 C 202.405 -0.20779 -6.37061 0
M  V30 2164 C 200.092 0.42373 -6.09629 0
M  V30 2165 C 201.09 -0.215829 -6.82659 0
M  V30 2166 O 200.778 -0.855378 -7.99336 0
M  V30 2167 H 200.51 0.258504 -0.624621 0
M  V30 2168 H 203.064 0.14652 -2.04877 0
M  V30 2169 H 201.294 2.55389 -2.90367 0
M  V30 2170 H 202.983 2.38279 -3.286 0
M  V30 2171 H 203.749 0.437817 -4.8302 0
M  V30 2172 H 199.628 1.5608 -4.33774 0
M  V30 2173 H 203.172 -0.70758 -6.94002 0
M  V30 2174 H 199.069 0.421822 -6.4412 0
M  V30 2175 H 199.837 -0.756892 -8.14993 0
M  V30 2176 N 202.5 1.5196 0.417844 0
M  V30 2177 C 203.748 1.65263 1.16329 0
M  V30 2178 C 204.069 0.380634 1.91249 0
M  V30 2179 O 203.339 -0.604214 1.86349 0
M  V30 2180 H 201.919 0.60912 0.432414 0
M  V30 2181 H 204.581 1.88969 0.477162 0
M  V30 2182 H 203.677 2.4896 1.88217 0
M  V30 2183 N 203.978 -0.674533 1.42435 0
M  V30 2184 C 205.255 -1.4305 1.33402 0
M  V30 2185 C 205.635 -2.11081 -0.0284674 0
M  V30 2186 O 204.983 -2.03257 -1.04397 0
M  V30 2187 C 205.193 -2.43272 2.50239 0
M  V30 2188 C 206.541 -3.07907 2.92367 0
M  V30 2189 O 207.565 -2.53599 2.50132 0
M  V30 2190 O 206.424 -4.0632 3.65467 0
M  V30 2191 H 203.518 -0.638076 0.526106 0
M  V30 2192 H 206.064 -0.703235 1.54443 0
M  V30 2193 H 204.836 -1.91803 3.41068 0
M  V30 2194 H 204.459 -3.23479 2.31186 0
M  V30 2195 N 205.456 -1.28612 -0.910864 0
M  V30 2196 C 206.366 -1.14643 -2.0468 0
M  V30 2197 C 207.382 -0.0723121 -1.7385 0
M  V30 2198 O 208.558 -0.282178 -1.99413 0
M  V30 2199 C 205.623 -0.812561 -3.37044 0
M  V30 2200 C 204.684 -1.96935 -3.81465 0
M  V30 2201 C 203.917 -1.65131 -5.07511 0
M  V30 2202 O 204.14 -0.567013 -5.67575 0
M  V30 2203 O 203.074 -2.49585 -5.47714 0
M  V30 2204 H 206.9 -2.1001 -2.19384 0
M  V30 2205 H 204.485 -1.07958 -1.03274 0
M  V30 2206 H 206.367 -0.640441 -4.16505 0
M  V30 2207 H 205.042 0.111426 -3.23508 0
M  V30 2208 H 203.949 -2.19664 -3.02818 0
M  V30 2209 H 205.282 -2.87414 -3.99567 0
M  V30 2210 N 206.934 1.1197 -1.10907 0
M  V30 2211 C 208.181 1.83588 -0.854507 0
M  V30 2212 C 208.509 1.84357 0.6199 0
M  V30 2213 O 207.764 1.28809 1.47332 0
M  V30 2214 C 208.063 3.30749 -1.35425 0
M  V30 2215 C 207.729 3.50146 -2.84093 0
M  V30 2216 C 206.391 3.55148 -3.2469 0
M  V30 2217 C 208.743 3.56857 -3.79872 0
M  V30 2218 C 206.071 3.6441 -4.59806 0
M  V30 2219 C 208.423 3.6765 -5.14797 0
M  V30 2220 C 207.087 3.7091 -5.54961 0
M  V30 2221 H 206.357 0.671795 -0.312686 0
M  V30 2222 H 209.004 1.32091 -1.38652 0
M  V30 2223 H 207.309 3.84703 -0.742361 0
M  V30 2224 H 209.006 3.8464 -1.1337 0
M  V30 2225 H 205.596 3.46919 -2.51685 0
M  V30 2226 H 209.78 3.52258 -3.49611 0
M  V30 2227 H 205.036 3.65208 -4.9034 0
M  V30 2228 H 209.21 3.71786 -5.88853 0
M  V30 2229 H 206.837 3.7784 -6.59652 0
M  V30 2230 N 208.412 0.89855 1.29475 0
M  V30 2231 C 209.661 0.519863 1.94885 0
M  V30 2232 C 209.974 -0.9383 1.71625 0
M  V30 2233 O 211.18 -1.42445 2.31131 0
M  V30 2234 C 209.636 0.878836 3.49005 0
M  V30 2235 C 209.244 2.35569 3.81066 0
M  V30 2236 C 210.988 0.570004 4.20656 0
M  V30 2237 C 208.895 2.65558 5.28425 0
M  V30 2238 H 207.825 0.190692 0.729488 0
M  V30 2239 H 210.476 1.09539 1.47219 0
M  V30 2240 H 208.858 0.232253 3.95318 0
M  V30 2241 H 210.032 3.04773 3.45616 0
M  V30 2242 H 208.347 2.63343 3.22552 0
M  V30 2243 H 210.944 0.770925 5.29113 0
M  V30 2244 H 211.287 -0.491404 4.1339 0
M  V30 2245 H 211.82 1.17438 3.8007 0
M  V30 2246 H 208.559 3.70493 5.40754 0
M  V30 2247 H 208.079 2.00977 5.65127 0
M  V30 2248 H 209.758 2.51765 5.96006 0
M  V30 2249 N 209.89 -1.43072 0.660911 0
M  V30 2250 C 210.838 -2.32569 -0.0378199 0
M  V30 2251 C 211.832 -1.49046 -0.805092 0
M  V30 2252 O 213.038 -1.65206 -0.714624 0
M  V30 2253 H 209.413 -0.75136 -0.031019 0
M  V30 2254 H 211.384 -2.89216 0.734609 0
M  V30 2255 C 210.133 -3.33453 -0.985124 0
M  V30 2256 H 209.456 -3.97752 -0.404147 0
M  V30 2257 H 210.896 -3.98691 -1.44297 0
M  V30 2258 C 209.355 -2.64642 -2.08486 0
M  V30 2259 O 209.885 -2.46776 -3.16961 0
M  V30 2260 N 208.091 -2.23891 -1.8526 0
M  V30 2261 H 207.638 -2.38621 -0.970449 0
M  V30 2262 H 207.596 -1.78181 -2.59034 0
M  V30 2263 N 211.368 -0.403325 -1.52352 0
M  V30 2264 C 212.315 0.425011 -2.26853 0
M  V30 2265 C 213.285 1.04598 -1.29029 0
M  V30 2266 O 214.47 1.07135 -1.57882 0
M  V30 2267 C 211.61 1.53888 -3.08889 0
M  V30 2268 C 210.723 0.939396 -4.21663 0
M  V30 2269 C 209.858 2.02547 -4.91068 0
M  V30 2270 C 208.897 1.40263 -5.95813 0
M  V30 2271 N 208.034 2.4286 -6.58759 0
M  V30 2272 H 212.874 -0.21674 -2.97211 0
M  V30 2273 H 210.411 -0.118722 -1.4662 0
M  V30 2274 H 212.369 2.19558 -3.54753 0
M  V30 2275 H 210.999 2.15074 -2.40714 0
M  V30 2276 H 210.051 0.171898 -3.80011 0
M  V30 2277 H 211.363 0.44436 -4.96817 0
M  V30 2278 H 210.517 2.75958 -5.40308 0
M  V30 2279 H 209.256 2.55415 -4.15469 0
M  V30 2280 H 208.261 0.653833 -5.45898 0
M  V30 2281 H 209.486 0.881719 -6.73352 0
M  V30 2282 H 207.432 2.94871 -5.85992 0
M  V30 2283 H 207.349 1.98152 -7.2957 0
M  V30 2284 H 208.617 3.15858 -7.12639 0
M  V30 2285 N 212.846 1.57033 -0.133567 0
M  V30 2286 C 213.794 2.17348 0.828412 0
M  V30 2287 C 214.788 1.12671 1.26498 0
M  V30 2288 O 215.994 1.30947 1.23502 0
M  V30 2289 H 212.369 0.695775 0.285309 0
M  V30 2290 H 214.34 2.96935 0.295372 0
M  V30 2291 C 213.089 2.79893 2.06289 0
M  V30 2292 H 212.412 3.60147 1.73592 0
M  V30 2293 H 213.852 3.25615 2.71572 0
M  V30 2294 C 212.311 1.77713 2.86216 0
M  V30 2295 O 212.841 1.23937 3.82103 0
M  V30 2296 N 211.047 1.47321 2.50489 0
M  V30 2297 H 210.594 1.91243 1.7258 0
M  V30 2298 H 210.552 0.79199 3.04261 0
M  V30 2299 N 214.325 -0.140222 1.56975 0
M  V30 2300 C 215.602 -0.880769 1.74648 0
M  V30 2301 C 215.982 -1.99036 0.703404 0
M  V30 2302 O 215.33 -2.26821 -0.27648 0
M  V30 2303 C 215.54 -1.417 3.18939 0
M  V30 2304 C 216.888 -1.87774 3.80823 0
M  V30 2305 O 217.912 -1.51427 3.2241 0
M  V30 2306 O 216.771 -2.54827 4.83452 0
M  V30 2307 H 213.865 -0.416713 0.714338 0
M  V30 2308 H 216.411 -0.125618 1.69234 0
M  V30 2309 H 215.183 -0.619902 3.86359 0
M  V30 2310 H 214.806 -2.23546 3.28805 0
M  V30 2311 N 215.803 -1.52179 -0.40978 0
M  V30 2312 C 217.033 -1.69807 -1.17682 0
M  V30 2313 C 217.441 -0.406908 -1.84773 0
M  V30 2314 O 216.784 0.626863 -1.72673 0
M  V30 2315 C 216.846 -2.77712 -2.2829 0
M  V30 2316 C 216.51 -4.19481 -1.81341 0
M  V30 2317 C 217.507 -5.03345 -1.30154 0
M  V30 2318 C 215.192 -4.65713 -1.88194 0
M  V30 2319 C 217.186 -6.31511 -0.864416 0
M  V30 2320 C 214.873 -5.93869 -1.44093 0
M  V30 2321 C 215.871 -6.76597 -0.933023 0
M  V30 2322 O 215.559 -8.02354 -0.49838 0
M  V30 2323 H 215.291 -0.572372 -0.359675 0
M  V30 2324 H 217.845 -1.99511 -0.488311 0
M  V30 2325 H 216.075 -2.43383 -3.00502 0
M  V30 2326 H 217.764 -2.83946 -2.90051 0
M  V30 2327 H 218.53 -4.68819 -1.24232 0
M  V30 2328 H 214.409 -4.01424 -2.26671 0
M  V30 2329 H 217.953 -6.96033 -0.467286 0
M  V30 2330 H 213.85 -6.27903 -1.49694 0
M  V30 2331 H 214.618 -8.16135 -0.621747 0
M  V30 2332 N 217.281 0.66697 -1.42791 0
M  V30 2333 C 218.191 1.80962 -1.49299 0
M  V30 2334 C 219.207 1.69775 -0.381108 0
M  V30 2335 O 220.383 1.91188 -0.633188 0
M  V30 2336 C 217.448 3.17156 -1.40045 0
M  V30 2337 C 216.509 3.40242 -2.6179 0
M  V30 2338 C 215.742 4.69939 -2.52969 0
M  V30 2339 O 215.965 5.48372 -1.56985 0
M  V30 2340 O 214.899 4.94441 -3.43237 0
M  V30 2341 H 218.725 1.78427 -2.45759 0
M  V30 2342 H 216.31 0.823713 -1.24641 0
M  V30 2343 H 218.192 3.98413 -1.37276 0
M  V30 2344 H 216.867 3.20312 -0.467138 0
M  V30 2345 H 215.774 2.58802 -2.70134 0
M  V30 2346 H 217.107 3.41923 -3.54047 0
M  V30 2347 N 218.759 1.29093 0.90403 0
M  V30 2348 C 220.036 1.075 1.63411 0
M  V30 2349 C 220.416 -0.382346 2.07609 0
M  V30 2350 O 219.764 -1.37031 1.82851 0
M  V30 2351 C 219.974 2.05858 2.81822 0
M  V30 2352 C 221.322 2.36539 3.52611 0
M  V30 2353 O 222.346 2.04019 2.91984 0
M  V30 2354 O 221.205 2.92085 4.61897 0
M  V30 2355 H 218.299 0.411547 0.717327 0
M  V30 2356 H 220.845 1.40449 0.952479 0
M  V30 2357 H 219.617 3.04037 2.46327 0
M  V30 2358 H 219.24 1.73613 3.57693 0
M  V30 2359 N 220.237 -1.11381 1.11499 0
M  V30 2360 C 221.483 -1.83403 0.865512 0
M  V30 2361 C 221.816 -1.84459 -0.607329 0
M  V30 2362 O 221.091 -1.29811 -1.44842 0
M  V30 2363 C 221.374 -3.30552 1.42855 0
M  V30 2364 C 221.227 -3.37886 2.96906 0
M  V30 2365 C 222.546 -4.26643 1.08 0
M  V30 2366 H 219.665 -0.665879 0.31587 0
M  V30 2367 H 222.307 -1.30601 1.37998 0
M  V30 2368 H 220.457 -3.75648 0.990985 0
M  V30 2369 H 222.129 -3.01343 3.49271 0
M  V30 2370 H 220.372 -2.78088 3.32941 0
M  V30 2371 H 221.043 -4.41458 3.31389 0
M  V30 2372 H 223.519 -3.89729 1.45775 0
M  V30 2373 H 222.395 -5.27986 1.50072 0
M  V30 2374 H 222.656 -4.42099 -0.00915037 0
M  V30 2375 N 221.715 -0.905404 -1.28997 0
M  V30 2376 C 222.662 -0.385892 -2.27551 0
M  V30 2377 C 223.632 0.535113 -1.57244 0
M  V30 2378 O 224.817 0.459119 -1.85194 0
M  V30 2379 C 221.957 0.375461 -3.43051 0
M  V30 2380 C 221.07 -0.577092 -4.28128 0
M  V30 2381 C 220.205 0.201879 -5.30816 0
M  V30 2382 C 219.244 -0.744829 -6.07551 0
M  V30 2383 N 218.381 9.42587e-05 -7.021 0
M  V30 2384 H 223.221 -1.23139 -2.71368 0
M  V30 2385 H 220.758 -0.618542 -1.33463 0
M  V30 2386 H 222.716 0.832992 -4.088 0
M  V30 2387 H 221.346 1.18537 -3.00248 0
M  V30 2388 H 220.398 -1.15315 -3.62501 0
M  V30 2389 H 221.71 -1.30152 -4.8152 0
M  V30 2390 H 220.864 0.720351 -6.02408 0
M  V30 2391 H 219.603 0.959413 -4.7817 0
M  V30 2392 H 218.608 -1.27475 -5.34818 0
M  V30 2393 H 219.833 -1.50178 -6.62286 0
M  V30 2394 H 217.779 0.739791 -6.51815 0
M  V30 2395 H 217.696 -0.664321 -7.53076 0
M  V30 2396 H 218.964 0.498644 -7.77903 0
M  V30 2397 N 223.193 1.4272 -0.668489 0
M  V30 2398 C 224.609 1.55992 -0.33745 0
M  V30 2399 C 224.809 1.64933 1.15756 0
M  V30 2400 O 223.865 1.61278 1.94282 0
M  V30 2401 C 225.178 2.81314 -1.06222 0
M  V30 2402 C 226.726 2.95078 -1.04394 0
M  V30 2403 C 227.201 4.23252 -1.74991 0
M  V30 2404 N 228.692 4.3015 -1.71829 0
M  V30 2405 C 229.427 5.28127 -2.23315 0
M  V30 2406 N 228.923 6.32293 -2.83156 0
M  V30 2407 N 230.716 5.19882 -2.13726 0
M  V30 2408 H 222.867 1.3516 -1.63846 0
M  V30 2409 H 225.13 0.650174 -0.689912 0
M  V30 2410 H 224.836 2.80823 -2.11734 0
M  V30 2411 H 224.71 3.72012 -0.62344 0
M  V30 2412 H 227.097 2.951 0.0028244 0
M  V30 2413 H 227.178 2.05627 -1.52155 0
M  V30 2414 H 226.822 4.2399 -2.79633 0
M  V30 2415 H 226.752 5.11626 -1.24685 0
M  V30 2416 H 229.243 3.55499 -1.28175 0
M  V30 2417 H 229.556 7.03398 -3.20079 0
M  V30 2418 H 227.901 6.32873 -2.87223 0
M  V30 2419 H 231.092 4.37423 -1.66669 0
M  V30 2420 H 231.265 5.96077 -2.54158 0
M  V30 2421 N 224.671 0.411399 1.52136 0
M  V30 2422 C 225.918 -0.163645 2.01838 0
M  V30 2423 C 226.246 -1.4495 1.29691 0
M  V30 2424 O 225.501 -1.91725 0.392431 0
M  V30 2425 C 225.8 -0.455872 3.54481 0
M  V30 2426 C 225.466 0.741055 4.44769 0
M  V30 2427 C 224.128 1.06936 4.69167 0
M  V30 2428 C 226.48 1.54075 4.97906 0
M  V30 2429 C 223.808 2.19851 5.43951 0
M  V30 2430 C 226.16 2.66067 5.73926 0
M  V30 2431 C 224.824 2.99381 5.96596 0
M  V30 2432 H 224.094 -0.0598821 0.738576 0
M  V30 2433 H 226.741 0.553283 1.83333 0
M  V30 2434 H 225.046 -1.2544 3.71177 0
M  V30 2435 H 226.743 -0.913802 3.90449 0
M  V30 2436 H 223.333 0.475192 4.25958 0
M  V30 2437 H 227.517 1.30033 4.78963 0
M  V30 2438 H 222.773 2.46006 5.59724 0
M  V30 2439 H 226.947 3.28419 6.14096 0
M  V30 2440 H 224.574 3.86992 6.54325 0
M  V30 2441 N 226.149 -1.5696 0.141893 0
M  V30 2442 C 227.079 -2.19516 -0.795936 0
M  V30 2443 C 228.06 -1.14187 -1.26077 0
M  V30 2444 O 229.245 -1.42511 -1.31925 0
M  V30 2445 C 226.375 -2.81272 -2.03723 0
M  V30 2446 C 225.329 -3.92384 -1.70936 0
M  V30 2447 C 224.655 -4.41052 -3.02287 0
M  V30 2448 C 225.955 -5.13403 -0.959954 0
M  V30 2449 H 227.649 -2.98138 -0.274596 0
M  V30 2450 H 225.195 -1.43406 -0.130636 0
M  V30 2451 H 227.148 -3.237 -2.69808 0
M  V30 2452 H 225.872 -1.99973 -2.58221 0
M  V30 2453 H 224.531 -3.50566 -1.07232 0
M  V30 2454 H 224.179 -3.56582 -3.54765 0
M  V30 2455 H 223.879 -5.15993 -2.81114 0
M  V30 2456 H 225.403 -4.86146 -3.69451 0
M  V30 2457 H 226.817 -5.52706 -1.52279 0
M  V30 2458 H 225.214 -5.94073 -0.848357 0
M  V30 2459 H 226.284 -4.84875 0.0492434 0
M  V30 2460 N 227.627 0.131896 -1.57047 0
M  V30 2461 C 228.574 1.16236 -1.99393 0
M  V30 2462 C 229.544 1.41863 -0.863943 0
M  V30 2463 O 230.729 1.53946 -1.12718 0
M  V30 2464 C 227.869 2.48708 -2.39245 0
M  V30 2465 C 226.982 2.30127 -3.65603 0
M  V30 2466 C 226.117 3.55738 -3.94492 0
M  V30 2467 C 225.156 3.32259 -5.14073 0
M  V30 2468 N 224.293 4.50039 -5.38896 0
M  V30 2469 H 229.133 0.794251 -2.87221 0
M  V30 2470 H 226.67 0.380707 -1.42088 0
M  V30 2471 H 228.628 3.25969 -2.60384 0
M  V30 2472 H 227.258 2.83437 -1.54478 0
M  V30 2473 H 226.31 1.43845 -3.52154 0
M  V30 2474 H 227.622 2.08746 -4.5302 0
M  V30 2475 H 226.776 4.41423 -4.1621 0
M  V30 2476 H 225.515 3.80138 -3.05526 0
M  V30 2477 H 224.52 2.44963 -4.92212 0
M  V30 2478 H 225.745 3.09242 -6.04604 0
M  V30 2479 H 223.691 4.74584 -4.52886 0
M  V30 2480 H 223.608 4.31716 -6.2061 0
M  V30 2481 H 224.876 5.36895 -5.65123 0
M  V30 2482 N 229.106 1.52395 0.401703 0
M  V30 2483 C 230.054 1.7689 1.51039 0
M  V30 2484 C 231.048 0.636298 1.56996 0
M  V30 2485 O 232.254 0.818507 1.60314 0
M  V30 2486 H 228.629 0.559502 0.502456 0
M  V30 2487 H 230.6 2.69757 1.27568 0
M  V30 2488 C 229.349 1.94331 2.88324 0
M  V30 2489 H 228.672 2.80905 2.84486 0
M  V30 2490 H 230.112 2.15466 3.65172 0
M  V30 2491 C 228.571 0.712396 3.29282 0
M  V30 2492 O 229.101 -0.116218 4.01532 0
M  V30 2493 N 227.307 0.546154 2.85422 0
M  V30 2494 H 226.854 1.22156 2.26794 0
M  V30 2495 H 226.812 -0.276113 3.13185 0
M  V30 2496 N 230.584 -0.659388 1.43143 0
M  V30 2497 C 231.514 -1.78422 1.50625 0
M  V30 2498 C 232.495 -1.66216 0.361443 0
M  V30 2499 O 233.68 -1.85404 0.577834 0
M  V30 2500 C 230.81 -3.16815 1.42287 0
M  V30 2501 C 229.764 -3.43777 2.54954 0
M  V30 2502 C 229.09 -4.81905 2.31671 0
M  V30 2503 C 230.39 -3.39134 3.97222 0
M  V30 2504 H 232.084 -1.72417 2.44771 0
M  V30 2505 H 229.63 -0.828084 1.17808 0
M  V30 2506 H 231.583 -3.95253 1.46127 0
M  V30 2507 H 230.307 -3.23534 0.446435 0
M  V30 2508 H 228.966 -2.67707 2.50457 0
M  V30 2509 H 228.614 -4.85294 1.32284 0
M  V30 2510 H 228.314 -5.00906 3.07192 0
M  V30 2511 H 229.838 -5.62609 2.37284 0
M  V30 2512 H 231.252 -4.07518 4.03239 0
M  V30 2513 H 229.649 -3.69671 4.72719 0
M  V30 2514 H 230.719 -2.37426 4.22797 0
M  V30 2515 N 232.062 -1.29571 -0.897171 0
M  V30 2516 C 233.012 -1.11539 -1.98855 0
M  V30 2517 C 233.996 -0.0340716 -1.60864 0
M  V30 2518 O 235.188 -0.256062 -1.75138 0
M  V30 2519 C 232.317 -0.796603 -3.3393 0
M  V30 2520 C 231.403 -1.91758 -3.78272 0
M  V30 2521 N 231.794 -3.16143 -3.94826 0
M  V30 2522 C 230.092 -1.81119 -4.07568 0
M  V30 2523 C 230.793 -3.89293 -4.32233 0
M  V30 2524 N 229.769 -3.17255 -4.41419 0
M  V30 2525 H 233.571 -2.05894 -2.09726 0
M  V30 2526 H 231.085 -1.20732 -1.08616 0
M  V30 2527 H 233.082 -0.648459 -4.11826 0
M  V30 2528 H 231.742 0.139003 -3.24402 0
M  V30 2529 H 232.753 -3.5157 -3.80288 0
M  V30 2530 H 229.43 -0.948461 -4.06584 0
M  V30 2531 H 230.82 -4.9635 -4.52865 0
M  V30 2532 N 233.54 1.10788 -1.12088 0
M  V30 2533 C 234.488 2.19111 -0.780587 0
M  V30 2534 C 235.482 1.67818 0.230961 0
M  V30 2535 O 236.688 1.79777 0.0895427 0
M  V30 2536 H 233.063 0.714477 -0.234578 0
M  V30 2537 H 235.034 2.45055 -1.70266 0
M  V30 2538 C 233.783 3.46818 -0.24747 0
M  V30 2539 H 233.106 3.86646 -1.01712 0
M  V30 2540 H 234.546 4.23973 -0.0476291 0
M  V30 2541 C 233.005 3.20968 1.02378 0
M  V30 2542 O 233.535 3.42298 2.10226 0
M  V30 2543 N 231.741 2.74658 0.949271 0
M  V30 2544 H 231.288 2.57501 0.0715173 0
M  V30 2545 H 231.246 2.57739 1.80049 0
M  V30 2546 N 235.018 0.912232 1.28515 0
M  V30 2547 C 235.948 0.416403 2.29757 0
M  V30 2548 C 236.929 -0.515194 1.6211 0
M  V30 2549 O 238.114 -0.423253 1.89532 0
M  V30 2550 C 235.244 -0.34572 3.45575 0
M  V30 2551 C 234.198 0.496599 4.25109 0
M  V30 2552 C 233.524 -0.393771 5.33248 0
M  V30 2553 C 234.824 1.75307 4.92001 0
M  V30 2554 H 236.518 1.26249 2.7148 0
M  V30 2555 H 234.064 0.608515 1.30511 0
M  V30 2556 H 236.017 -0.703422 4.15488 0
M  V30 2557 H 234.741 -1.2257 3.02728 0
M  V30 2558 H 233.4 0.8368 3.56922 0
M  V30 2559 H 233.048 -1.27225 4.86644 0
M  V30 2560 H 232.748 0.166209 5.87365 0
M  V30 2561 H 234.272 -0.747389 6.06009 0
M  V30 2562 H 235.686 1.46437 5.54283 0
M  V30 2563 H 234.083 2.25534 5.56106 0
M  V30 2564 H 235.153 2.48176 4.16577 0
M  V30 2565 N 236.496 -1.42363 0.676048 0
M  V30 2566 C 237.907 -1.84649 0.275948 0
M  V30 2567 C 238.258 -1.56588 -1.18214 0
M  V30 2568 O 237.383 -1.02634 -1.90513 0
M  V30 2569 C 237.978 -3.35178 0.494053 0
M  V30 2570 C 236.537 -3.76109 0.148061 0
M  V30 2571 C 235.684 -2.65931 0.785891 0
M  V30 2572 H 238.635 -1.32192 0.878121 0
M  V30 2573 H 238.656 -3.79655 -0.25343 0
M  V30 2574 H 238.168 -3.55571 1.55535 0
M  V30 2575 H 236.269 -3.61323 -0.909742 0
M  V30 2576 H 236.382 -4.7546 0.589454 0
M  V30 2577 H 234.746 -2.53773 0.217113 0
M  V30 2578 H 235.529 -2.89146 1.85067 0
M  V30 2579 N 237.974 -0.419461 -1.51915 0
M  V30 2580 C 238.907 0.445751 -2.23804 0
M  V30 2581 C 239.885 1.03951 -1.25031 0
M  V30 2582 O 241.069 1.08541 -1.54114 0
M  V30 2583 C 238.196 1.61964 -2.97465 0
M  V30 2584 C 237.242 1.14828 -4.10751 0
M  V30 2585 S 238.075 0.104938 -5.35397 0
M  V30 2586 C 239.231 1.28391 -6.1259 0
M  V30 2587 H 239.464 -0.164627 -2.96844 0
M  V30 2588 H 236.997 -0.203833 -1.53049 0
M  V30 2589 H 238.955 2.29271 -3.40507 0
M  V30 2590 H 237.616 2.20139 -2.24048 0
M  V30 2591 H 236.809 2.02561 -4.61503 0
M  V30 2592 H 236.411 0.553712 -3.69878 0
M  V30 2593 H 238.703 2.20563 -6.40592 0
M  V30 2594 H 239.646 0.816724 -7.03374 0
M  V30 2595 H 240.054 1.51439 -5.43807 0
M  V30 2596 N 239.452 1.56882 -0.150215 0
M  V30 2597 C 240.382 2.19935 0.784284 0
M  V30 2598 C 241.363 1.14854 1.25469 0
M  V30 2599 O 242.548 1.43209 1.31168 0
M  V30 2600 C 239.678 2.82349 2.02229 0
M  V30 2601 C 238.632 3.93285 1.68853 0
M  V30 2602 C 237.958 4.42649 2.99944 0
M  V30 2603 C 239.258 5.13904 0.932714 0
M  V30 2604 H 240.952 2.9828 0.258781 0
M  V30 2605 H 238.498 1.43473 0.123029 0
M  V30 2606 H 240.451 3.25126 2.68088 0
M  V30 2607 H 239.175 2.0134 2.57157 0
M  V30 2608 H 237.834 3.5113 1.05371 0
M  V30 2609 H 237.482 3.58458 3.52869 0
M  V30 2610 H 237.182 5.17476 2.78374 0
M  V30 2611 H 238.706 4.88099 3.66868 0
M  V30 2612 H 240.12 5.53506 1.49345 0
M  V30 2613 H 238.517 5.94515 0.81684 0
M  V30 2614 H 239.587 4.84842 -0.0749568 0
M  V30 2615 N 240.93 -0.123565 1.57115 0
M  V30 2616 C 241.878 -1.17082 2.00984 0
M  V30 2617 C 242.872 -1.43136 0.906009 0
M  V30 2618 O 244.078 -1.43152 1.09121 0
M  V30 2619 H 240.453 -0.394653 0.64012 0
M  V30 2620 H 242.424 -0.774292 2.88179 0
M  V30 2621 C 241.173 -2.49057 2.42623 0
M  V30 2622 H 240.496 -2.29846 3.27125 0
M  V30 2623 H 241.936 -3.20906 2.7712 0
M  V30 2624 C 240.395 -3.11305 1.28805 0
M  V30 2625 O 240.925 -3.97171 0.60153 0
M  V30 2626 N 239.131 -2.71111 1.04628 0
M  V30 2627 H 238.678 -2.01382 1.60634 0
M  V30 2628 H 238.636 -3.1309 0.286685 0
M  V30 2629 N 242.408 -1.52605 -0.393616 0
M  V30 2630 C 243.654 -1.67672 -1.14079 0
M  V30 2631 C 243.987 -0.413121 -1.89755 0
M  V30 2632 O 243.262 0.588952 -1.85369 0
M  V30 2633 C 243.545 -2.9088 -2.12276 0
M  V30 2634 C 243.398 -4.27329 -1.40394 0
M  V30 2635 C 244.717 -3.09628 -3.12759 0
M  V30 2636 H 241.836 -0.610168 -0.413356 0
M  V30 2637 H 244.478 -1.85193 -0.424696 0
M  V30 2638 H 242.628 -2.76073 -2.73342 0
M  V30 2639 H 244.3 -4.53894 -0.82327 0
M  V30 2640 H 242.543 -4.2802 -0.705801 0
M  V30 2641 H 243.214 -5.09615 -2.12123 0
M  V30 2642 H 245.69 -3.23436 -2.61779 0
M  V30 2643 H 244.566 -3.97322 -3.78717 0
M  V30 2644 H 244.827 -2.23637 -3.81365 0
M  V30 2645 N 243.887 0.651787 -1.4349 0
M  V30 2646 C 244.834 1.76462 -1.4876 0
M  V30 2647 C 245.804 1.62641 -0.337189 0
M  V30 2648 O 246.989 1.82864 -0.544544 0
M  V30 2649 C 244.129 3.14623 -1.41796 0
M  V30 2650 C 243.242 3.39568 -2.67053 0
M  V30 2651 C 242.377 4.67585 -2.52068 0
M  V30 2652 C 241.416 4.85639 -3.72587 0
M  V30 2653 N 240.553 6.04915 -3.56402 0
M  V30 2654 H 245.393 1.71293 -2.43849 0
M  V30 2655 H 242.93 0.835889 -1.21043 0
M  V30 2656 H 244.888 3.94496 -1.35753 0
M  V30 2657 H 243.518 3.18859 -0.50288 0
M  V30 2658 H 242.57 2.53783 -2.8337 0
M  V30 2659 H 243.882 3.48795 -3.56572 0
M  V30 2660 H 243.036 5.55586 -2.4374 0
M  V30 2661 H 241.775 4.60681 -1.60075 0
M  V30 2662 H 240.78 3.96073 -3.81321 0
M  V30 2663 H 242.005 4.94372 -4.65589 0
M  V30 2664 H 239.951 5.9914 -2.67146 0
M  V30 2665 H 239.868 6.15106 -4.39524 0
M  V30 2666 H 241.136 6.95533 -3.51929 0
M  V30 2667 N 245.365 1.30045 0.890287 0
M  V30 2668 C 246.642 1.09227 1.62262 0
M  V30 2669 C 247.022 -0.360305 2.08002 0
M  V30 2670 O 246.37 -1.35084 1.84295 0
M  V30 2671 C 246.58 2.08835 2.79623 0
M  V30 2672 C 247.928 2.40266 3.50082 0
M  V30 2673 O 248.952 2.07104 2.89804 0
M  V30 2674 O 247.811 2.96967 4.58773 0
M  V30 2675 H 244.905 0.419132 0.712922 0
M  V30 2676 H 247.451 1.41451 0.937529 0
M  V30 2677 H 246.223 3.06633 2.43089 0
M  V30 2678 H 245.846 1.77397 3.55832 0
M  V30 2679 N 246.843 -1.10192 1.12674 0
M  V30 2680 C 248.068 -1.86523 0.906853 0
M  V30 2681 C 248.493 -1.80221 -0.538711 0
M  V30 2682 O 247.851 -1.17396 -1.38158 0
M  V30 2683 C 247.899 -3.32758 1.3894 0
M  V30 2684 O 247.003 -4.08449 0.5695 0
M  V30 2685 H 246.344 -0.578678 0.325619 0
M  V30 2686 H 248.874 -1.39203 1.49946 0
M  V30 2687 H 248.884 -3.83608 1.38958 0
M  V30 2688 H 247.559 -3.36661 2.44197 0
M  V30 2689 H 246.136 -3.67427 0.636528 0
M  V30 2690 N 248.321 -0.919034 -1.28029 0
M  V30 2691 C 249.269 -0.401753 -2.29104 0
M  V30 2692 C 250.263 0.509354 -1.61561 0
M  V30 2693 O 251.469 0.390014 -1.75724 0
M  V30 2694 H 247.844 -0.111331 -0.743713 0
M  V30 2695 H 249.815 -1.2672 -2.70156 0
M  V30 2696 C 248.564 0.338148 -3.46052 0
M  V30 2697 H 247.887 -0.353732 -3.98232 0
M  V30 2698 H 249.327 0.664653 -4.18758 0
M  V30 2699 C 247.786 1.54798 -2.99231 0
M  V30 2700 O 248.316 2.64696 -3.02157 0
M  V30 2701 N 246.522 1.3968 -2.54829 0
M  V30 2702 H 246.069 0.502698 -2.52647 0
M  V30 2703 H 246.027 2.20755 -2.23863 0
M  V30 2704 N 249.799 1.42003 -0.683588 0
M  V30 2705 C 250.747 2.326 0.000815408 0
M  V30 2706 C 251.741 1.50308 0.781278 0
M  V30 2707 O 252.947 1.66322 0.688251 0
M  V30 2708 H 249.322 0.751758 0.0190616 0
M  V30 2709 H 251.293 2.88011 -0.780528 0
M  V30 2710 C 250.042 3.34978 0.93195 0
M  V30 2711 H 249.365 3.98345 0.340817 0
M  V30 2712 H 250.805 4.00936 1.37936 0
M  V30 2713 C 249.264 2.67925 2.04249 0
M  V30 2714 O 249.794 2.51788 3.12995 0
M  V30 2715 N 248 2.2681 1.81675 0
M  V30 2716 H 247.547 2.40135 0.932363 0
M  V30 2717 H 247.505 1.8228 2.56167 0
M  V30 2718 N 251.277 0.427512 1.51691 0
M  V30 2719 C 252.225 -0.403359 2.29076 0
M  V30 2720 C 253.219 -1.02962 1.34518 0
M  V30 2721 O 254.425 -0.965715 1.51901 0
M  V30 2722 H 250.8 -0.148879 0.737115 0
M  V30 2723 H 252.771 0.270295 2.97173 0
M  V30 2724 C 251.52 -1.49763 3.13794 0
M  V30 2725 H 250.843 -1.02508 3.86435 0
M  V30 2726 H 252.283 -2.05244 3.71014 0
M  V30 2727 C 250.742 -2.47536 2.28533 0
M  V30 2728 O 251.272 -3.51848 1.93819 0
M  V30 2729 N 249.478 -2.18187 1.91945 0
M  V30 2730 H 249.025 -1.33389 2.20375 0
M  V30 2731 H 248.983 -2.83848 1.35195 0
M  V30 2732 N 252.755 -1.56801 0.158532 0
M  V30 2733 C 253.665 -2.20916 -0.789518 0
M  V30 2734 C 254.681 -1.1969 -1.26294 0
M  V30 2735 O 255.857 -1.52308 -1.31773 0
M  V30 2736 C 252.922 -2.82727 -2.00665 0
M  V30 2737 C 251.983 -3.99114 -1.58134 0
M  V30 2738 C 251.216 -4.57968 -2.74045 0
M  V30 2739 O 251.439 -4.15704 -3.90572 0
M  V30 2740 O 250.373 -5.48047 -2.48855 0
M  V30 2741 H 254.199 -3.02464 -0.273681 0
M  V30 2742 H 251.784 -1.4924 -0.0690548 0
M  V30 2743 H 253.666 -3.21968 -2.71872 0
M  V30 2744 H 252.341 -2.04184 -2.51179 0
M  V30 2745 H 251.248 -3.64567 -0.839155 0
M  V30 2746 H 252.581 -4.79212 -1.12325 0
M  V30 2747 N 254.233 0.115231 -1.57178 0
M  V30 2748 C 255.458 0.840354 -1.89612 0
M  V30 2749 C 255.883 1.72464 -0.750845 0
M  V30 2750 O 255.241 1.78826 0.298478 0
M  V30 2751 C 255.289 1.64654 -3.20814 0
M  V30 2752 O 254.393 2.7538 -3.06985 0
M  V30 2753 H 253.734 0.232158 -0.622092 0
M  V30 2754 H 256.264 0.0964977 -2.04372 0
M  V30 2755 H 256.274 2.03499 -3.53627 0
M  V30 2756 H 254.949 0.997416 -4.03763 0
M  V30 2757 H 253.526 2.3971 -2.85646 0
M  V30 2758 N 255.711 1.52812 0.385517 0
M  V30 2759 C 256.958 1.68026 1.1302 0
M  V30 2760 C 257.286 0.421934 1.89868 0
M  V30 2761 O 256.541 -0.595749 1.86412 0
M  V30 2762 C 256.84 2.86856 2.13187 0
M  V30 2763 C 256.506 4.24159 1.5297 0
M  V30 2764 C 255.168 4.61501 1.36274 0
M  V30 2765 C 257.52 5.09627 1.09223 0
M  V30 2766 C 254.848 5.81966 0.743837 0
M  V30 2767 C 257.2 6.30719 0.487411 0
M  V30 2768 C 255.864 6.6679 0.307777 0
M  V30 2769 H 255.134 0.614849 0.413571 0
M  V30 2770 H 257.781 1.86962 0.414405 0
M  V30 2771 H 256.086 2.6235 2.90998 0
M  V30 2772 H 257.783 2.95821 2.70722 0
M  V30 2773 H 254.373 3.94746 1.66954 0
M  V30 2774 H 258.557 4.81343 1.20922 0
M  V30 2775 H 253.813 6.08519 0.592891 0
M  V30 2776 H 257.987 6.96259 0.140143 0
M  V30 2777 H 255.614 7.60001 -0.173879 0
M  V30 2778 N 257.189 -0.644168 1.43834 0
M  V30 2779 C 258.136 -1.75671 1.49694 0
M  V30 2780 C 259.106 -1.6246 0.345809 0
M  V30 2781 O 260.291 -1.82573 0.554234 0
M  V30 2782 C 257.431 -3.13867 1.43463 0
M  V30 2783 C 256.544 -3.38147 2.6885 0
M  V30 2784 C 255.679 -4.66241 2.54544 0
M  V30 2785 C 254.718 -4.83657 3.75157 0
M  V30 2786 N 253.855 -6.03016 3.59605 0
M  V30 2787 H 258.695 -1.69998 2.44754 0
M  V30 2788 H 256.232 -0.829458 1.21484 0
M  V30 2789 H 258.19 -3.9377 1.37843 0
M  V30 2790 H 256.82 -3.18588 0.519783 0
M  V30 2791 H 255.872 -2.52276 2.84712 0
M  V30 2792 H 257.184 -3.46899 3.58417 0
M  V30 2793 H 256.338 -5.54285 2.46683 0
M  V30 2794 H 255.077 -4.59826 1.62516 0
M  V30 2795 H 254.082 -3.94046 3.83416 0
M  V30 2796 H 255.307 -4.91896 4.68204 0
M  V30 2797 H 253.253 -5.97715 2.7032 0
M  V30 2798 H 253.17 -6.12766 4.42779 0
M  V30 2799 H 254.438 -6.93657 3.55613 0
M  V30 2800 N 258.668 -1.30515 -0.883378 0
M  V30 2801 C 259.916 -1.19194 -1.63209 0
M  V30 2802 C 260.237 0.253205 -1.93349 0
M  V30 2803 O 259.507 1.17025 -1.57105 0
M  V30 2804 H 258.087 -0.438148 -0.605009 0
M  V30 2805 H 260.749 -1.63663 -1.05832 0
M  V30 2806 H 259.845 -1.75396 -2.58153 0
M  V30 2807 N 260.146 1.09593 -1.13257 0
M  V30 2808 C 261.394 1.81375 -0.891492 0
M  V30 2809 C 261.715 1.86049 0.584009 0
M  V30 2810 O 260.985 1.34481 1.42449 0
M  V30 2811 H 259.565 0.671708 -0.326828 0
M  V30 2812 H 262.227 1.3256 -1.42877 0
M  V30 2813 H 261.323 2.84612 -1.28071 0
M  V30 2814 N 261.624 0.925811 1.2754 0
M  V30 2815 C 262.572 0.413897 2.28888 0
M  V30 2816 C 263.566 -0.500779 1.61829 0
M  V30 2817 O 264.772 -0.38069 1.75928 0
M  V30 2818 H 261.147 0.115274 0.743112 0
M  V30 2819 H 263.118 1.28151 2.69481 0
M  V30 2820 C 261.867 -0.319792 3.46226 0
M  V30 2821 H 261.19 0.374846 3.98039 0
M  V30 2822 H 262.63 -0.642435 4.19105 0
M  V30 2823 C 261.089 -1.53209 3.00048 0
M  V30 2824 O 261.619 -2.6309 3.03557 0
M  V30 2825 N 259.825 -1.38326 2.55566 0
M  V30 2826 H 259.372 -0.489292 2.5291 0
M  V30 2827 H 259.33 -2.19564 2.25031 0
M  V30 2828 N 263.102 -1.41638 0.69111 0
M  V30 2829 C 264.351 -2.00526 0.217318 0
M  V30 2830 C 264.664 -1.55353 -1.18848 0
M  V30 2831 O 265.87 -2.06769 -1.75951 0
M  V30 2832 C 264.326 -3.58313 0.337639 0
M  V30 2833 C 263.934 -4.12469 1.74852 0
M  V30 2834 C 265.678 -4.24431 -0.0766066 0
M  V30 2835 C 263.585 -5.62675 1.82074 0
M  V30 2836 H 262.515 -0.750008 0.0774893 0
M  V30 2837 H 265.166 -1.6217 0.858661 0
M  V30 2838 H 263.548 -3.9425 -0.371879 0
M  V30 2839 H 264.722 -3.8796 2.48644 0
M  V30 2840 H 263.037 -3.58861 2.11205 0
M  V30 2841 H 265.634 -5.34683 -0.0430284 0
M  V30 2842 H 265.977 -4.01101 -1.1146 0
M  V30 2843 H 266.51 -3.93512 0.582476 0
M  V30 2844 H 263.249 -5.90826 2.83911 0
M  V30 2845 H 262.769 -5.89124 1.12661 0
M  V30 2846 H 264.448 -6.27371 1.58159 0
M  V30 2847 N 264.58 -0.43555 -1.51462 0
M  V30 2848 C 265.51 0.367376 -2.30592 0
M  V30 2849 C 266.491 1.02263 -1.35928 0
M  V30 2850 O 267.676 1.02661 -1.64847 0
M  V30 2851 C 264.806 1.46983 -3.14664 0
M  V30 2852 C 263.76 0.938161 -4.17591 0
M  V30 2853 C 263.086 2.13622 -4.90173 0
M  V30 2854 C 264.386 -0.0261621 -5.22293 0
M  V30 2855 H 266.08 -0.292969 -2.97963 0
M  V30 2856 H 263.626 -0.14234 -1.43295 0
M  V30 2857 H 265.579 2.03873 -3.688 0
M  V30 2858 H 264.303 2.15843 -2.4511 0
M  V30 2859 H 262.962 0.391481 -3.64504 0
M  V30 2860 H 262.61 2.81098 -4.17124 0
M  V30 2861 H 262.31 1.78688 -5.59772 0
M  V30 2862 H 263.834 2.7107 -5.47132 0
M  V30 2863 H 265.248 0.452384 -5.71512 0
M  V30 2864 H 263.645 -0.287992 -5.99409 0
M  V30 2865 H 264.715 -0.963391 -4.75233 0
M  V30 2866 N 266.058 1.56714 -0.166846 0
M  V30 2867 C 267.005 2.17746 0.765193 0
M  V30 2868 C 267.975 1.11614 1.23011 0
M  V30 2869 O 269.16 1.39745 1.29908 0
M  V30 2870 C 266.3 2.81882 1.9909 0
M  V30 2871 C 265.413 4.02462 1.56997 0
M  V30 2872 C 264.548 4.54537 2.749 0
M  V30 2873 C 263.587 5.67538 2.29275 0
M  V30 2874 N 262.724 6.14142 3.40255 0
M  V30 2875 H 267.564 2.97048 0.237952 0
M  V30 2876 H 265.101 1.4672 0.105725 0
M  V30 2877 H 267.059 3.17221 2.70974 0
M  V30 2878 H 265.689 2.05191 2.49192 0
M  V30 2879 H 264.741 3.72973 0.748037 0
M  V30 2880 H 266.053 4.84273 1.19503 0
M  V30 2881 H 265.207 4.92035 3.54946 0
M  V30 2882 H 263.946 3.71774 3.1565 0
M  V30 2883 H 262.951 5.29597 1.47674 0
M  V30 2884 H 264.176 6.52099 1.89588 0
M  V30 2885 H 262.122 5.3431 3.8059 0
M  V30 2886 H 262.039 6.9093 3.06841 0
M  V30 2887 H 263.307 6.56289 4.206 0
M  V30 2888 N 267.536 -0.106894 1.57237 0
M  V30 2889 C 268.785 -0.811163 1.8467 0
M  V30 2890 C 269.098 -1.80469 0.754342 0
M  V30 2891 O 270.304 -2.55601 0.915439 0
M  V30 2892 C 268.76 -1.49337 3.27454 0
M  V30 2893 C 268.368 -0.540217 4.44731 0
M  V30 2894 C 270.112 -2.18206 3.64124 0
M  V30 2895 C 268.019 -1.22634 5.78545 0
M  V30 2896 H 266.949 -0.306679 0.688813 0
M  V30 2897 H 269.6 -0.0639887 1.83388 0
M  V30 2898 H 267.982 -2.2876 3.23241 0
M  V30 2899 H 269.156 0.221659 4.60267 0
M  V30 2900 H 267.471 0.042146 4.16379 0
M  V30 2901 H 270.068 -2.70253 4.61376 0
M  V30 2902 H 270.411 -2.96562 2.92158 0
M  V30 2903 H 270.944 -1.45658 3.70174 0
M  V30 2904 H 267.683 -0.483832 6.53712 0
M  V30 2905 H 267.203 -1.95993 5.66874 0
M  V30 2906 H 268.882 -1.75615 6.2271 0
M  V30 2907 N 269.014 -1.53014 -0.377408 0
M  V30 2908 C 270.262 -1.6829 -1.11906 0
M  V30 2909 C 270.583 -0.431206 -1.90173 0
M  V30 2910 O 269.853 0.554595 -1.87886 0
M  V30 2911 H 268.433 -0.620371 -0.416112 0
M  V30 2912 H 271.095 -1.90167 -0.426893 0
M  V30 2913 H 270.191 -2.53862 -1.8155 0
M  V30 2914 N 270.492 0.636531 -1.44174 0
M  V30 2915 C 271.741 1.39213 -1.45954 0
M  V30 2916 C 272.054 1.95374 -0.0939119 0
M  V30 2917 O 273.26 2.71498 0.0107767 0
M  V30 2918 C 271.716 2.52025 -2.56927 0
M  V30 2919 C 271.324 2.024 -3.99673 0
M  V30 2920 C 273.068 3.29269 -2.67922 0
M  V30 2921 C 270.975 3.12521 -5.0208 0
M  V30 2922 H 269.905 0.523132 -0.542999 0
M  V30 2923 H 272.556 0.685349 -1.70221 0
M  V30 2924 H 270.938 3.25253 -2.25891 0
M  V30 2925 H 272.112 1.36073 -4.40251 0
M  V30 2926 H 270.427 1.37987 -3.92872 0
M  V30 2927 H 273.024 4.11352 -3.41605 0
M  V30 2928 H 273.367 3.78397 -1.73555 0
M  V30 2929 H 273.9 2.63129 -2.98342 0
M  V30 2930 H 270.639 2.68343 -5.98057 0
M  V30 2931 H 270.159 3.77507 -4.66099 0
M  V30 2932 H 271.838 3.77385 -5.25538 0
M  V30 2933 N 271.97 1.30982 0.876444 0
M  V30 2934 C 273.219 1.19658 1.62373 0
M  V30 2935 C 273.532 -0.245636 1.94052 0
M  V30 2936 O 274.738 -0.48049 2.67214 0
M  V30 2937 C 273.194 2.09433 2.92687 0
M  V30 2938 C 272.802 3.58613 2.68516 0
M  V30 2939 C 274.546 2.06893 3.70669 0
M  V30 2940 C 272.453 4.40416 3.94699 0
M  V30 2941 H 271.383 0.444268 0.609214 0
M  V30 2942 H 274.034 1.55791 0.969605 0
M  V30 2943 H 272.416 1.66191 3.59439 0
M  V30 2944 H 273.59 4.10058 2.10212 0
M  V30 2945 H 271.905 3.63063 2.03898 0
M  V30 2946 H 274.502 2.65258 4.64265 0
M  V30 2947 H 274.845 1.05448 4.02724 0
M  V30 2948 H 275.378 2.48301 3.10792 0
M  V30 2949 H 272.117 5.42591 3.67798 0
M  V30 2950 H 271.637 3.93731 4.52477 0
M  V30 2951 H 273.316 4.52294 4.62644 0
M  V30 2952 N 273.449 -1.08991 1.13837 0
M  V30 2953 C 274.379 -2.17771 0.842507 0
M  V30 2954 C 275.36 -1.6892 -0.20001 0
M  V30 2955 O 276.545 -1.94113 -0.0579731 0
M  V30 2956 C 273.675 -3.4589 0.312644 0
M  V30 2957 C 272.629 -4.08099 1.28992 0
M  V30 2958 C 271.955 -5.31098 0.619623 0
M  V30 2959 C 273.255 -4.50077 2.65005 0
M  V30 2960 H 274.949 -2.42777 1.75213 0
M  V30 2961 H 272.495 -1.16682 0.843875 0
M  V30 2962 H 274.448 -4.21297 0.0933043 0
M  V30 2963 H 273.172 -3.20419 -0.632382 0
M  V30 2964 H 271.831 -3.34717 1.49533 0
M  V30 2965 H 271.479 -5.0191 -0.33102 0
M  V30 2966 H 271.179 -5.73674 1.27167 0
M  V30 2967 H 272.703 -6.09224 0.409669 0
M  V30 2968 H 274.117 -5.16688 2.48407 0
M  V30 2969 H 272.514 -5.03553 3.26427 0
M  V30 2970 H 273.584 -3.62257 3.22332 0
M  V30 2971 N 274.927 -0.932562 -1.27047 0
M  V30 2972 C 276.152 -0.591474 -1.98787 0
M  V30 2973 C 276.577 0.824601 -1.69062 0
M  V30 2974 O 275.935 1.5541 -0.933677 0
M  V30 2975 C 275.983 -0.829808 -3.50922 0
M  V30 2976 O 275.087 0.102266 -4.12273 0
M  V30 2977 H 274.428 -0.227185 -0.623926 0
M  V30 2978 H 276.958 -1.25314 -1.61733 0
M  V30 2979 H 276.968 -0.747292 -4.01098 0
M  V30 2980 H 275.643 -1.86201 -3.7189 0
M  V30 2981 H 274.22 -0.0305761 -3.72887 0
M  V30 2982 N 276.405 1.4127 -0.698611 0
M  V30 2983 C 277.653 2.00782 -0.230409 0
M  V30 2984 C 277.974 1.5562 1.17505 0
M  V30 2985 O 277.244 0.78815 1.79346 0
M  V30 2986 H 275.824 0.742464 -0.0821944 0
M  V30 2987 H 278.486 1.72852 -0.90045 0
M  V30 2988 H 277.582 3.11095 -0.25021 0
M  V30 2989 N 277.883 0.443576 1.51229 0
M  V30 2990 C 279.131 -0.120557 2.0174 0
M  V30 2991 C 279.452 -1.42665 1.32935 0
M  V30 2992 O 278.722 -1.9028 0.465866 0
M  V30 2993 H 277.302 -0.0475426 0.745486 0
M  V30 2994 H 279.964 0.587711 1.85828 0
M  V30 2995 H 279.06 -0.291972 3.10731 0
M  V30 2996 N 279.361 -1.56624 0.175154 0
M  V30 2997 C 280.772 -1.83561 -0.340916 0
M  V30 2998 C 281.123 -1.09511 -1.62794 0
M  V30 2999 O 280.248 -0.349389 -2.13561 0
M  V30 3000 C 280.843 -3.32979 -0.625313 0
M  V30 3001 C 279.402 -3.60399 -1.08581 0
M  V30 3002 C 278.549 -2.77024 -0.123722 0
M  V30 3003 H 281.5 -1.53593 0.399344 0
M  V30 3004 H 281.521 -3.50666 -1.47694 0
M  V30 3005 H 281.033 -3.86847 0.311575 0
M  V30 3006 H 279.134 -3.11945 -2.03767 0
M  V30 3007 H 279.247 -4.68711 -0.992317 0
M  V30 3008 H 277.611 -2.46993 -0.621821 0
M  V30 3009 H 278.394 -3.33674 0.807256 0
M  V30 3010 N 280.839 0.0985539 -1.57292 0
M  V30 3011 C 281.802 1.10402 -2.00858 0
M  V30 3012 C 282.802 1.33146 -0.901593 0
M  V30 3013 O 283.992 1.29318 -1.16716 0
M  V30 3014 C 281.124 2.45394 -2.36632 0
M  V30 3015 H 282.317 0.729099 -2.90902 0
M  V30 3016 H 279.87 0.343495 -1.52479 0
M  V30 3017 H 280.605 2.87769 -1.49531 0
M  V30 3018 H 280.39 2.30235 -3.17387 0
M  V30 3019 H 281.88 3.17718 -2.71007 0
M  V30 3020 N 282.317 1.53212 0.369288 0
M  V30 3021 C 283.728 1.60943 0.946276 0
M  V30 3022 C 284.079 0.47452 1.90375 0
M  V30 3023 O 283.204 -0.399597 2.12679 0
M  V30 3024 C 283.799 2.91715 1.72302 0
M  V30 3025 C 282.358 3.01792 2.24941 0
M  V30 3026 C 281.505 2.56211 1.06072 0
M  V30 3027 H 284.456 1.58007 0.148198 0
M  V30 3028 H 284.477 2.79309 2.58393 0
M  V30 3029 H 283.989 3.74295 1.0259 0
M  V30 3030 H 282.09 2.23791 2.97906 0
M  V30 3031 H 282.203 4.06803 2.53077 0
M  V30 3032 H 280.567 2.10998 1.4266 0
M  V30 3033 H 281.35 3.41206 0.378639 0
M  V30 3034 N 283.795 -0.628877 1.44509 0
M  V30 3035 C 285.043 -1.38565 1.4712 0
M  V30 3036 C 285.364 -1.94712 0.105899 0
M  V30 3037 O 284.634 -1.75912 -0.862079 0
M  V30 3038 H 283.214 -0.514333 0.541729 0
M  V30 3039 H 285.876 -0.740018 1.80305 0
M  V30 3040 H 284.972 -2.21583 2.19789 0
M  V30 3041 N 285.273 -1.31445 -0.869486 0
M  V30 3042 C 286.521 -1.20918 -1.61936 0
M  V30 3043 C 286.842 0.232683 -1.93607 0
M  V30 3044 O 286.112 1.15352 -1.58338 0
M  V30 3045 H 284.692 -0.44454 -0.600328 0
M  V30 3046 H 287.354 -1.64776 -1.0409 0
M  V30 3047 H 286.45 -1.78124 -2.56278 0
M  V30 3048 N 286.751 1.08385 -1.14413 0
M  V30 3049 C 287.701 2.13509 -0.79987 0
M  V30 3050 C 288.685 1.5951 0.211059 0
M  V30 3051 O 289.877 1.76995 0.0133694 0
M  V30 3052 C 287.006 3.42162 -0.279297 0
M  V30 3053 C 286.092 4.03042 -1.31976 0
M  V30 3054 N 286.483 4.38327 -2.52395 0
M  V30 3055 C 284.781 4.30379 -1.17004 0
M  V30 3056 C 285.482 4.86428 -3.19003 0
M  V30 3057 N 284.458 4.84547 -2.46405 0
M  V30 3058 H 288.26 2.38609 -1.7159 0
M  V30 3059 H 285.774 1.2572 -1.02802 0
M  V30 3060 H 287.771 4.16898 -0.0143688 0
M  V30 3061 H 286.431 3.18511 0.630923 0
M  V30 3062 H 287.442 4.29349 -2.89621 0
M  V30 3063 H 284.119 4.16281 -0.318854 0
M  V30 3064 H 285.509 5.23107 -4.21674 0
M  V30 3065 N 288.23 0.939286 1.26551 0
M  V30 3066 C 289.178 0.43815 2.28436 0
M  V30 3067 C 290.172 -0.483587 1.62351 0
M  V30 3068 O 291.378 -0.362009 1.76322 0
M  V30 3069 H 287.753 0.123149 0.741848 0
M  V30 3070 H 289.724 1.31002 2.68106 0
M  V30 3071 C 288.473 -0.283052 3.46546 0
M  V30 3072 H 287.796 0.417043 3.97619 0
M  V30 3073 H 289.236 -0.597948 4.19763 0
M  V30 3074 C 287.695 -1.50018 3.01656 0
M  V30 3075 O 288.225 -2.59855 3.0633 0
M  V30 3076 N 286.431 -1.35608 2.57019 0
M  V30 3077 H 285.978 -0.46244 2.53415 0
M  V30 3078 H 285.936 -2.17165 2.27347 0
M  V30 3079 N 289.708 -1.40897 0.706093 0
M  V30 3080 C 290.954 -2.01352 0.241889 0
M  V30 3081 C 291.287 -1.55832 -1.15888 0
M  V30 3082 O 290.562 -0.774145 -1.7843 0
M  V30 3083 C 290.845 -3.58752 0.311311 0
M  V30 3084 C 290.698 -4.1437 1.74978 0
M  V30 3085 C 292.017 -4.38914 -0.322922 0
M  V30 3086 H 289.136 -0.731562 0.0893687 0
M  V30 3087 H 291.778 -1.67504 0.896802 0
M  V30 3088 H 289.928 -3.87718 -0.246302 0
M  V30 3089 H 291.6 -3.96239 2.36205 0
M  V30 3090 H 289.843 -3.69016 2.28057 0
M  V30 3091 H 290.514 -5.23532 1.74981 0
M  V30 3092 H 292.99 -4.15822 0.152089 0
M  V30 3093 H 291.866 -5.48358 -0.243855 0
M  V30 3094 H 292.127 -4.19176 -1.40513 0
M  V30 3095 N 291.186 -0.45159 -1.50991 0
M  V30 3096 C 292.435 0.111653 -2.01391 0
M  V30 3097 C 292.748 1.42529 -1.33959 0
M  V30 3098 O 293.954 2.07232 -1.75405 0
M  V30 3099 C 292.41 0.249514 -3.59034 0
M  V30 3100 C 292.018 -1.05453 -4.35412 0
M  V30 3101 C 293.762 0.765762 -4.17536 0
M  V30 3102 C 291.669 -0.881529 -5.84793 0
M  V30 3103 H 290.599 0.0455022 -0.752626 0
M  V30 3104 H 293.25 -0.583524 -1.73975 0
M  V30 3105 H 291.632 1.00803 -3.82955 0
M  V30 3106 H 292.806 -1.82248 -4.23229 0
M  V30 3107 H 291.121 -1.50039 -3.88429 0
M  V30 3108 H 293.718 0.911913 -5.26866 0
M  V30 3109 H 294.061 1.75201 -3.77638 0
M  V30 3110 H 294.594 0.0651744 -3.97747 0
M  V30 3111 H 291.333 -1.84057 -6.29129 0
M  V30 3112 H 290.853 -0.153625 -5.99603 0
M  V30 3113 H 292.532 -0.540363 -6.4474 0
M  V30 3114 N 292.664 1.56529 -0.183458 0
M  V30 3115 C 293.889 2.02064 0.467428 0
M  V30 3116 C 294.314 1.06282 1.55196 0
M  V30 3117 O 293.672 0.0443565 1.81246 0
M  V30 3118 C 293.72 3.46122 1.01153 0
M  V30 3119 O 292.824 3.53437 2.12499 0
M  V30 3120 H 292.165 0.654726 0.110588 0
M  V30 3121 H 294.695 2.02521 -0.290917 0
M  V30 3122 H 294.705 3.85676 1.33108 0
M  V30 3123 H 293.38 4.15331 0.217533 0
M  V30 3124 H 291.957 3.2575 1.81497 0
M  V30 3125 N 294.142 -0.090211 1.57342 0
M  V30 3126 C 295.39 -0.791241 1.85967 0
M  V30 3127 C 295.711 -1.7903 0.772859 0
M  V30 3128 O 294.981 -1.94872 -0.200398 0
M  V30 3129 H 293.561 -0.295205 0.686195 0
M  V30 3130 H 296.223 -0.0706782 1.94772 0
M  V30 3131 H 295.319 -1.31882 2.82867 0
M  V30 3132 N 295.62 -1.53406 -0.361157 0
M  V30 3133 C 296.869 -1.69022 -1.10066 0
M  V30 3134 C 297.182 -0.450838 -1.90333 0
M  V30 3135 O 298.388 -0.487617 -2.67085 0
M  V30 3136 C 296.844 -2.98812 -2.00598 0
M  V30 3137 C 296.452 -4.30027 -1.25621 0
M  V30 3138 C 298.196 -3.23795 -2.74513 0
M  V30 3139 C 296.103 -5.50903 -2.1508 0
M  V30 3140 H 295.033 -0.629776 -0.414606 0
M  V30 3141 H 297.684 -1.79907 -0.361348 0
M  V30 3142 H 296.066 -2.8174 -2.78278 0
M  V30 3143 H 297.24 -4.57745 -0.529739 0
M  V30 3144 H 295.555 -4.11522 -0.635496 0
M  V30 3145 H 298.152 -4.11289 -3.41681 0
M  V30 3146 H 298.495 -2.40045 -3.40123 0
M  V30 3147 H 299.028 -3.41561 -2.03914 0
M  V30 3148 H 295.767 -6.37143 -1.54041 0
M  V30 3149 H 295.287 -5.27459 -2.85565 0
M  V30 3150 H 296.966 -5.85865 -2.74538 0
M  V30 3151 N 297.098 0.621204 -1.44841 0
M  V30 3152 C 298.328 1.40548 -1.51426 0
M  V30 3153 C 298.736 1.88673 -0.141083 0
M  V30 3154 O 298.079 1.62053 0.865128 0
M  V30 3155 C 298.141 2.65325 -2.42576 0
M  V30 3156 C 297.805 2.3893 -3.89566 0
M  V30 3157 C 298.802 2.00138 -4.79834 0
M  V30 3158 C 296.487 2.52263 -4.3436 0
M  V30 3159 C 298.481 1.75021 -6.129 0
M  V30 3160 C 296.168 2.2676 -5.67471 0
M  V30 3161 C 297.166 1.88199 -6.56559 0
M  V30 3162 O 296.854 1.62986 -7.87204 0
M  V30 3163 H 296.586 0.437122 -0.515655 0
M  V30 3164 H 299.14 0.765987 -1.90583 0
M  V30 3165 H 297.37 3.31947 -1.98364 0
M  V30 3166 H 299.059 3.27347 -2.39998 0
M  V30 3167 H 299.825 1.89386 -4.46495 0
M  V30 3168 H 295.704 2.81246 -3.65269 0
M  V30 3169 H 299.248 1.44848 -6.82396 0
M  V30 3170 H 295.145 2.37125 -6.00368 0
M  V30 3171 H 295.913 1.7715 -7.991 0
M  V30 3172 N 298.576 1.31904 0.862503 0
M  V30 3173 C 299.853 1.12644 1.59908 0
M  V30 3174 C 300.233 -0.316104 2.0872 0
M  V30 3175 O 299.581 -1.31145 1.87118 0
M  V30 3176 C 299.791 2.1472 2.7513 0
M  V30 3177 C 301.139 2.47637 3.44907 0
M  V30 3178 O 302.163 2.13205 2.85346 0
M  V30 3179 O 301.022 3.06632 4.52371 0
M  V30 3180 H 298.116 0.43416 0.703871 0
M  V30 3181 H 300.662 1.43408 0.907314 0
M  V30 3182 H 299.434 3.1172 2.3653 0
M  V30 3183 H 299.057 1.84905 3.51989 0
M  V30 3184 N 300.054 -1.07777 1.14986 0
M  V30 3185 C 301.284 -1.83752 0.944402 0
M  V30 3186 C 301.692 -1.8218 -0.51058 0
M  V30 3187 O 301.035 -1.22852 -1.36576 0
M  V30 3188 C 301.097 -3.32128 1.37592 0
M  V30 3189 C 300.761 -3.57425 2.84775 0
M  V30 3190 C 301.758 -3.5173 3.8286 0
M  V30 3191 C 299.443 -3.8523 3.2234 0
M  V30 3192 C 301.437 -3.73482 5.16517 0
M  V30 3193 C 299.124 -4.06634 4.56171 0
M  V30 3194 C 300.122 -4.00754 5.53069 0
M  V30 3195 O 299.81 -4.2159 6.84483 0
M  V30 3196 H 299.542 -0.58673 0.335744 0
M  V30 3197 H 302.096 -1.36982 1.53052 0
M  V30 3198 H 300.326 -3.79686 0.733165 0
M  V30 3199 H 302.015 -3.89555 1.14024 0
M  V30 3200 H 302.781 -3.30256 3.55184 0
M  V30 3201 H 298.66 -3.88923 2.47508 0
M  V30 3202 H 302.204 -3.68808 5.92137 0
M  V30 3203 H 298.101 -4.27593 4.83564 0
M  V30 3204 H 298.869 -4.38961 6.90837 0
M  V30 3205 N 301.532 -0.945985 -1.26051 0
M  V30 3206 C 302.495 -0.463897 -2.24456 0
M  V30 3207 C 303.495 0.427655 -1.55009 0
M  V30 3208 O 304.685 0.226157 -1.72726 0
M  V30 3209 C 301.817 0.330812 -3.39291 0
M  V30 3210 H 303.01 -1.33357 -2.68619 0
M  V30 3211 H 300.563 -0.728416 -1.38289 0
M  V30 3212 H 301.298 1.21852 -3.00537 0
M  V30 3213 H 301.083 -0.308679 -3.90883 0
M  V30 3214 H 302.573 0.657865 -4.12386 0
M  V30 3215 N 303.011 1.40521 -0.713556 0
M  V30 3216 C 303.958 2.30723 -0.059684 0
M  V30 3217 C 304.928 1.48079 0.752448 0
M  V30 3218 O 306.113 1.76823 0.71681 0
M  V30 3219 C 303.253 3.34274 0.857594 0
M  V30 3220 C 302.366 4.31986 0.0351536 0
M  V30 3221 C 301.501 5.22605 0.951724 0
M  V30 3222 C 300.54 6.11976 0.123253 0
M  V30 3223 N 299.677 6.9502 0.99459 0
M  V30 3224 H 304.517 2.86074 -0.834596 0
M  V30 3225 H 302.054 1.40879 -0.42326 0
M  V30 3226 H 304.012 3.92879 1.40364 0
M  V30 3227 H 302.642 2.8043 1.59871 0
M  V30 3228 H 301.694 3.7518 -0.628052 0
M  V30 3229 H 303.006 4.95101 -0.606347 0
M  V30 3230 H 302.16 5.86131 1.56638 0
M  V30 3231 H 300.899 4.59759 1.62705 0
M  V30 3232 H 299.904 5.47482 -0.50435 0
M  V30 3233 H 301.129 6.76881 -0.548539 0
M  V30 3234 H 299.075 6.34764 1.6556 0
M  V30 3235 H 298.992 7.54892 0.40908 0
M  V30 3236 H 300.26 7.62997 1.59549 0
M  V30 3237 N 304.489 0.459591 1.5075 0
M  V30 3238 C 305.905 0.113092 1.59199 0
M  V30 3239 C 306.105 -1.37951 1.46874 0
M  V30 3240 O 305.161 -2.15168 1.32132 0
M  V30 3241 C 306.474 0.653043 2.93523 0
M  V30 3242 C 308.022 0.615449 3.0689 0
M  V30 3243 C 308.497 1.13275 4.43771 0
M  V30 3244 N 309.988 1.09167 4.50152 0
M  V30 3245 C 310.723 1.46256 5.54434 0
M  V30 3246 N 310.219 1.90739 6.66026 0
M  V30 3247 N 312.012 1.37932 5.44914 0
M  V30 3248 H 304.163 1.43049 1.57005 0
M  V30 3249 H 306.426 0.590861 0.741341 0
M  V30 3250 H 306.132 1.69822 3.07983 0
M  V30 3251 H 306.006 0.0902132 3.77092 0
M  V30 3252 H 308.393 -0.420793 2.92084 0
M  V30 3253 H 308.474 1.21495 2.25106 0
M  V30 3254 H 308.118 2.16757 4.59324 0
M  V30 3255 H 308.048 0.509576 5.24129 0
M  V30 3256 H 310.539 0.76528 3.7007 0
M  V30 3257 H 310.852 2.17218 7.41644 0
M  V30 3258 H 309.197 1.94683 6.67176 0
M  V30 3259 H 312.388 1.0303 4.56621 0
M  V30 3260 H 312.561 1.67164 6.26067 0
M  V30 3261 N 305.967 -1.56429 0.191757 0
M  V30 3262 C 307.197 -2.01574 -0.452928 0
M  V30 3263 C 307.605 -1.07107 -1.55964 0
M  V30 3264 O 306.948 -0.067534 -1.83576 0
M  V30 3265 C 307.01 -3.43121 -1.07278 0
M  V30 3266 C 306.674 -4.56879 -0.105214 0
M  V30 3267 C 307.671 -5.15379 0.684149 0
M  V30 3268 C 305.356 -5.023 0.00489824 0
M  V30 3269 C 307.35 -6.17746 1.57062 0
M  V30 3270 C 305.037 -6.04511 0.894935 0
M  V30 3271 C 306.035 -6.62108 1.67637 0
M  V30 3272 O 305.723 -7.62335 2.55149 0
M  V30 3273 H 305.455 -0.665554 -0.118379 0
M  V30 3274 H 308.009 -2.03245 0.296737 0
M  V30 3275 H 306.239 -3.38425 -1.87097 0
M  V30 3276 H 307.928 -3.72093 -1.62177 0
M  V30 3277 H 308.694 -4.81157 0.609365 0
M  V30 3278 H 304.573 -4.57168 -0.593156 0
M  V30 3279 H 308.117 -6.6263 2.181 0
M  V30 3280 H 304.014 -6.38157 0.970847 0
M  V30 3281 H 304.782 -7.79741 2.48892 0
M  V30 3282 N 307.445 0.0818655 -1.57387 0
M  V30 3283 C 308.393 1.11712 -2.04018 0
M  V30 3284 C 309.387 1.40683 -0.94364 0
M  V30 3285 O 310.593 1.40209 -1.12878 0
M  V30 3286 H 306.968 0.377542 -0.650358 0
M  V30 3287 H 308.939 0.697614 -2.90131 0
M  V30 3288 C 307.688 2.42537 -2.49141 0
M  V30 3289 H 307.011 2.21092 -3.33104 0
M  V30 3290 H 308.451 3.13446 -2.85531 0
M  V30 3291 C 306.91 3.0778 -1.37014 0
M  V30 3292 O 307.44 3.95436 -0.706621 0
M  V30 3293 N 305.646 2.68242 -1.11779 0
M  V30 3294 H 305.193 1.97052 -1.65917 0
M  V30 3295 H 305.151 3.1222 -0.369594 0
M  V30 3296 N 308.923 1.53595 0.353017 0
M  V30 3297 C 309.833 1.83897 1.45667 0
M  V30 3298 C 310.849 0.728334 1.58023 0
M  V30 3299 O 312.025 1.01968 1.73679 0
M  V30 3300 C 309.09 2.03383 2.80778 0
M  V30 3301 C 308.151 3.27262 2.77845 0
M  V30 3302 C 307.384 3.45809 4.06512 0
M  V30 3303 O 307.607 2.68387 5.03314 0
M  V30 3304 O 306.541 4.39207 4.11559 0
M  V30 3305 H 310.367 2.77686 1.2298 0
M  V30 3306 H 307.952 1.39132 0.544308 0
M  V30 3307 H 309.834 2.17698 3.60812 0
M  V30 3308 H 308.509 1.12783 3.03417 0
M  V30 3309 H 307.416 3.18359 1.96465 0
M  V30 3310 H 308.749 4.17824 2.60161 0
M  V30 3311 N 310.401 -0.613514 1.45168 0
M  V30 3312 C 311.333 -1.73825 1.4939 0
M  V30 3313 C 312.346 -1.58175 0.385304 0
M  V30 3314 O 313.535 -1.66165 0.652036 0
M  V30 3315 C 310.635 -3.11758 1.32891 0
M  V30 3316 C 309.808 -3.53704 2.57317 0
M  V30 3317 C 308.867 -4.70579 2.35462 0
M  V30 3318 O 307.893 -4.77996 3.09044 0
M  V30 3319 N 309.095 -5.63454 1.39644 0
M  V30 3320 H 311.86 -1.70669 2.46358 0
M  V30 3321 H 309.421 -0.79862 1.40832 0
M  V30 3322 H 311.413 -3.87692 1.1609 0
M  V30 3323 H 309.983 -3.09456 0.442218 0
M  V30 3324 H 309.203 -2.67794 2.89275 0
M  V30 3325 H 310.491 -3.78486 3.40038 0
M  V30 3326 H 309.889 -5.6017 0.789062 0
M  V30 3327 H 308.446 -6.38944 1.28816 0
M  V30 3328 N 311.879 -1.3236 -0.855495 0
M  V30 3329 C 313.104 -1.2601 -1.64731 0
M  V30 3330 C 313.529 0.169068 -1.87339 0
M  V30 3331 O 312.887 1.12016 -1.42556 0
M  V30 3332 C 312.935 -2.02417 -2.98429 0
M  V30 3333 O 312.039 -1.3714 -3.8893 0
M  V30 3334 H 311.38 -0.434325 -0.502253 0
M  V30 3335 H 313.91 -1.74661 -1.06558 0
M  V30 3336 H 313.92 -2.12559 -3.48257 0
M  V30 3337 H 312.595 -3.06343 -2.81295 0
M  V30 3338 H 311.172 -1.3554 -3.47395 0
M  V30 3339 N 313.357 1.07166 -1.15556 0
M  V30 3340 C 314.289 2.14341 -0.811815 0
M  V30 3341 C 315.302 1.61835 0.177015 0
M  V30 3342 O 316.491 1.78439 -0.0464996 0
M  V30 3343 C 313.591 3.38387 -0.186481 0
M  V30 3344 C 312.764 4.20238 -1.21321 0
M  V30 3345 C 311.823 5.2266 -0.609302 0
M  V30 3346 O 310.849 5.54719 -1.27576 0
M  V30 3347 N 312.051 5.77306 0.608099 0
M  V30 3348 H 314.816 2.44431 -1.73417 0
M  V30 3349 H 312.377 1.23089 -1.0517 0
M  V30 3350 H 314.369 4.04044 0.230339 0
M  V30 3351 H 312.939 3.05994 0.639249 0
M  V30 3352 H 312.159 3.50369 -1.80652 0
M  V30 3353 H 313.447 4.71736 -1.90638 0
M  V30 3354 H 312.845 5.53513 1.1679 0
M  V30 3355 H 311.402 6.44583 0.96725 0
M  V30 3356 N 314.835 0.952656 1.25548 0
M  V30 3357 C 316.081 0.607272 1.93494 0
M  V30 3358 C 316.414 -0.853245 1.74452 0
M  V30 3359 O 315.689 -1.61194 1.08843 0
M  V30 3360 C 315.972 0.96435 3.46947 0
M  V30 3361 C 315.825 2.48045 3.75225 0
M  V30 3362 C 317.144 0.487987 4.37386 0
M  V30 3363 H 314.263 0.222096 0.702739 0
M  V30 3364 H 316.905 1.18895 1.48203 0
M  V30 3365 H 315.055 0.469361 3.85654 0
M  V30 3366 H 316.727 3.04905 3.46166 0
M  V30 3367 H 314.97 2.919 3.209 0
M  V30 3368 H 315.641 2.6808 4.82532 0
M  V30 3369 H 318.117 0.912558 4.0597 0
M  V30 3370 H 316.993 0.766547 5.43521 0
M  V30 3371 H 317.254 -0.612063 4.37843 0
M  V30 3372 N 316.313 -1.40141 0.720998 0
M  V30 3373 C 317.562 -2.0002 0.259804 0
M  V30 3374 C 317.875 -1.57839 -1.15526 0
M  V30 3375 O 319.081 -2.10455 -1.71525 0
M  V30 3376 C 317.537 -3.57516 0.413566 0
M  V30 3377 C 317.145 -4.08667 1.83562 0
M  V30 3378 C 318.889 -4.24498 0.0134387 0
M  V30 3379 C 316.796 -5.58686 1.93968 0
M  V30 3380 H 315.726 -0.748195 0.0933806 0
M  V30 3381 H 318.377 -1.60313 0.892866 0
M  V30 3382 H 316.759 -3.9495 -0.288169 0
M  V30 3383 H 317.933 -3.82598 2.56817 0
M  V30 3384 H 316.248 -3.543 2.1877 0
M  V30 3385 H 318.845 -5.34654 0.0703954 0
M  V30 3386 H 319.188 -4.03375 -1.02927 0
M  V30 3387 H 319.721 -3.92188 0.665815 0
M  V30 3388 H 316.46 -5.8467 2.96379 0
M  V30 3389 H 315.98 -5.86602 1.25131 0
M  V30 3390 H 317.659 -6.23875 1.71431 0
M  V30 3391 N 317.792 -0.46758 -1.50504 0
M  V30 3392 C 319.04 0.0884469 -2.01906 0
M  V30 3393 C 319.361 1.40532 -1.35188 0
M  V30 3394 O 318.631 1.89515 -0.496079 0
M  V30 3395 H 317.211 0.0356765 -0.746148 0
M  V30 3396 H 319.873 -0.6172 -1.84869 0
M  V30 3397 H 318.969 0.2425 -3.11156 0
M  V30 3398 N 319.27 1.56325 -0.20005 0
M  V30 3399 C 320.517 1.97719 0.437411 0
M  V30 3400 C 320.845 1.08709 1.61284 0
M  V30 3401 O 320.1 0.127261 1.95286 0
M  V30 3402 C 320.399 3.4495 0.935103 0
M  V30 3403 C 320.065 4.5072 -0.12749 0
M  V30 3404 C 318.727 4.79368 -0.419451 0
M  V30 3405 C 321.079 5.14268 -0.847231 0
M  V30 3406 C 318.407 5.68854 -1.43604 0
M  V30 3407 C 320.759 6.04852 -1.85301 0
M  V30 3408 C 319.423 6.31855 -2.15211 0
M  V30 3409 H 318.693 0.723507 0.16006 0
M  V30 3410 H 321.34 1.89166 -0.298056 0
M  V30 3411 H 319.645 3.50599 1.74894 0
M  V30 3412 H 321.342 3.74337 1.43781 0
M  V30 3413 H 317.932 4.28458 0.11023 0
M  V30 3414 H 322.116 4.92222 -0.634901 0
M  V30 3415 H 317.372 5.88047 -1.67364 0
M  V30 3416 H 321.546 6.53152 -2.41591 0
M  V30 3417 H 319.173 7.00994 -2.94129 0
M  V30 3418 N 320.748 -0.0735177 1.57428 0
M  V30 3419 C 321.678 -1.0879 2.06608 0
M  V30 3420 C 322.659 -1.40473 0.959237 0
M  V30 3421 O 323.844 -1.5013 1.23185 0
M  V30 3422 C 320.974 -2.40183 2.50857 0
M  V30 3423 C 319.928 -2.22858 3.65402 0
M  V30 3424 C 319.254 -3.59619 3.957 0
M  V30 3425 C 320.554 -1.65123 4.95511 0
M  V30 3426 H 322.248 -0.678673 2.91607 0
M  V30 3427 H 319.794 -0.325013 1.40284 0
M  V30 3428 H 321.747 -3.11437 2.83874 0
M  V30 3429 H 320.471 -2.83083 1.62885 0
M  V30 3430 H 319.13 -1.54045 3.32664 0
M  V30 3431 H 318.778 -4.00086 3.04861 0
M  V30 3432 H 318.478 -3.48866 4.72828 0
M  V30 3433 H 320.002 -4.32306 4.31212 0
M  V30 3434 H 321.416 -2.26241 5.26771 0
M  V30 3435 H 319.813 -1.65071 5.7695 0
M  V30 3436 H 320.883 -0.612559 4.81015 0
M  V30 3437 N 322.226 -1.5378 -0.344866 0
M  V30 3438 C 323.474 -1.70625 -1.08311 0
M  V30 3439 C 323.795 -0.471447 -1.89215 0
M  V30 3440 O 323.065 0.514616 -1.8902 0
M  V30 3441 H 321.645 -0.629058 -0.402859 0
M  V30 3442 H 324.307 -1.9103 -0.386459 0
M  V30 3443 H 323.403 -2.57656 -1.76124 0
M  V30 3444 N 323.704 0.605807 -1.45491 0
M  V30 3445 C 324.952 1.36207 -1.49305 0
M  V30 3446 C 325.273 1.94519 -0.136863 0
M  V30 3447 O 324.543 1.77261 0.833983 0
M  V30 3448 H 323.123 0.50565 -0.549843 0
M  V30 3449 H 325.785 0.711239 -1.81459 0
M  V30 3450 H 324.881 2.18058 -2.23287 0
M  V30 3451 N 325.182 1.32811 0.848464 0
M  V30 3452 C 326.431 1.23075 1.59798 0
M  V30 3453 C 326.744 -0.204419 1.94529 0
M  V30 3454 O 327.95 -0.423701 2.68173 0
M  V30 3455 C 326.406 2.15594 2.88179 0
M  V30 3456 C 326.014 3.64228 2.60849 0
M  V30 3457 C 327.758 2.14709 3.66197 0
M  V30 3458 C 325.665 4.48689 3.85269 0
M  V30 3459 H 324.595 0.457091 0.599653 0
M  V30 3460 H 327.246 1.57813 0.936342 0
M  V30 3461 H 325.628 1.73778 3.55833 0
M  V30 3462 H 326.802 4.14424 2.01467 0
M  V30 3463 H 325.117 3.67306 1.96151 0
M  V30 3464 H 327.714 2.75046 4.58534 0
M  V30 3465 H 328.057 1.13966 4.00397 0
M  V30 3466 H 328.59 2.54837 3.05455 0
M  V30 3467 H 325.329 5.5027 3.56207 0
M  V30 3468 H 324.849 4.03241 4.44024 0
M  V30 3469 H 326.528 4.62006 4.52946 0
M  V30 3470 N 326.66 -1.06551 1.16123 0
M  V30 3471 C 327.937 -1.76097 0.85142 0
M  V30 3472 C 328.317 -2.00802 -0.6513 0
M  V30 3473 O 327.665 -1.63302 -1.59827 0
M  V30 3474 C 327.875 -3.06384 1.67122 0
M  V30 3475 C 329.223 -3.80585 1.88255 0
M  V30 3476 O 330.247 -3.16218 1.63966 0
M  V30 3477 O 329.106 -4.96212 2.2899 0
M  V30 3478 H 326.2 -0.765102 0.313923 0
M  V30 3479 H 328.746 -1.12844 1.26745 0
M  V30 3480 H 327.518 -2.84071 2.69108 0
M  V30 3481 H 327.141 -3.77371 1.25206 0
M  V30 3482 N 328.138 -0.959301 -1.25041 0
M  V30 3483 C 329.386 -0.615393 -1.92503 0
M  V30 3484 C 329.707 0.850969 -1.75452 0
M  V30 3485 O 328.977 1.60658 -1.12098 0
M  V30 3486 H 327.557 -0.224613 -0.712431 0
M  V30 3487 H 330.219 -1.21855 -1.5211 0
M  V30 3488 H 329.315 -0.848738 -3.00338 0
M  V30 3489 N 329.616 1.39756 -0.72842 0
M  V30 3490 C 330.546 2.33289 -0.0991354 0
M  V30 3491 C 331.527 1.53568 0.731489 0
M  V30 3492 O 332.712 1.81987 0.677807 0
M  V30 3493 C 329.842 3.3763 0.813834 0
M  V30 3494 C 328.796 4.2791 0.0878663 0
M  V30 3495 C 328.122 5.22894 1.11741 0
M  V30 3496 C 329.422 5.11314 -1.06563 0
M  V30 3497 H 331.116 2.86163 -0.880408 0
M  V30 3498 H 328.662 1.37591 -0.424819 0
M  V30 3499 H 330.615 4.0201 1.26355 0
M  V30 3500 H 329.339 2.83181 1.62715 0
M  V30 3501 H 327.998 3.65 -0.342159 0
M  V30 3502 H 327.646 4.64744 1.92412 0
M  V30 3503 H 327.346 5.84143 0.636477 0
M  V30 3504 H 328.87 5.90151 1.56697 0
M  V30 3505 H 330.284 5.69076 -0.694671 0
M  V30 3506 H 328.681 5.81671 -1.47577 0
M  V30 3507 H 329.751 4.46534 -1.89038 0
M  V30 3508 N 331.094 0.475555 1.50254 0
M  V30 3509 C 332.324 -0.0753399 2.06463 0
M  V30 3510 C 332.732 -1.33661 1.33908 0
M  V30 3511 O 332.075 -1.79219 0.403257 0
M  V30 3512 C 332.137 -0.424921 3.5698 0
M  V30 3513 C 331.801 0.734965 4.51051 0
M  V30 3514 C 332.798 1.61827 4.94073 0
M  V30 3515 C 330.483 0.926557 4.9368 0
M  V30 3516 C 332.477 2.67754 5.78434 0
M  V30 3517 C 330.164 1.98904 5.77824 0
M  V30 3518 C 331.162 2.8629 6.20103 0
M  V30 3519 O 330.85 3.90708 7.02568 0
M  V30 3520 H 330.582 0.00576308 0.675975 0
M  V30 3521 H 333.136 0.664662 1.94349 0
M  V30 3522 H 331.366 -1.21817 3.67012 0
M  V30 3523 H 333.055 -0.911422 3.95535 0
M  V30 3524 H 333.821 1.48196 4.61804 0
M  V30 3525 H 329.7 0.25584 4.6029 0
M  V30 3526 H 333.244 3.35992 6.11355 0
M  V30 3527 H 329.141 2.12541 6.09505 0
M  V30 3528 H 329.909 3.87751 7.20827 0
M  V30 3529 N 332.573 -1.56217 0.208337 0
M  V30 3530 C 333.798 -2.02782 -0.435222 0
M  V30 3531 C 334.223 -1.08738 -1.53485 0
M  V30 3532 O 333.581 -0.0731855 -1.81152 0
M  V30 3533 C 333.629 -3.47687 -0.956335 0
M  V30 3534 O 332.733 -3.56773 -2.06849 0
M  V30 3535 H 332.074 -0.656403 -0.100158 0
M  V30 3536 H 334.604 -2.02033 0.3231 0
M  V30 3537 H 334.614 -3.87745 -1.26955 0
M  V30 3538 H 333.289 -4.15624 -0.15143 0
M  V30 3539 H 331.866 -3.28597 -1.76292 0
M  V30 3540 N 334.051 0.0651679 -1.57465 0
M  V30 3541 C 334.998 1.07675 -2.04144 0
M  V30 3542 C 335.968 1.38071 -0.923335 0
M  V30 3543 O 337.153 1.49026 -1.19146 0
M  V30 3544 C 334.293 2.38337 -2.49579 0
M  V30 3545 C 333.406 2.14413 -3.75035 0
M  V30 3546 C 332.541 3.38686 -4.09225 0
M  V30 3547 C 331.58 3.10156 -5.27702 0
M  V30 3548 N 330.717 4.26778 -5.57499 0
M  V30 3549 H 335.557 0.671716 -2.90331 0
M  V30 3550 H 333.094 0.3201 -1.43575 0
M  V30 3551 H 335.052 3.14632 -2.73975 0
M  V30 3552 H 333.682 2.7663 -1.6636 0
M  V30 3553 H 332.734 1.2878 -3.57939 0
M  V30 3554 H 334.046 1.89344 -4.61466 0
M  V30 3555 H 333.2 4.23373 -4.34558 0
M  V30 3556 H 331.939 3.66837 -3.21374 0
M  V30 3557 H 330.944 2.23866 -5.02159 0
M  V30 3558 H 332.169 2.8332 -6.17176 0
M  V30 3559 H 330.115 4.54948 -4.72608 0
M  V30 3560 H 330.032 4.05005 -6.38362 0
M  V30 3561 H 331.3 5.12443 -5.87386 0
M  V30 3562 N 335.529 1.53961 0.336706 0
M  V30 3563 C 336.477 1.83136 1.43401 0
M  V30 3564 C 337.471 0.702313 1.54156 0
M  V30 3565 O 338.677 0.885765 1.56698 0
M  V30 3566 H 335.052 0.580309 0.478273 0
M  V30 3567 H 337.023 2.74925 1.16012 0
M  V30 3568 C 335.772 2.06385 2.79822 0
M  V30 3569 H 335.095 2.92718 2.72316 0
M  V30 3570 H 336.535 2.30761 3.55704 0
M  V30 3571 C 334.994 0.851414 3.25964 0
M  V30 3572 O 335.524 0.0541904 4.01663 0
M  V30 3573 N 333.73 0.66672 2.82848 0
M  V30 3574 H 333.277 1.31665 2.21409 0
M  V30 3575 H 333.235 -0.143032 3.14074 0
M  V30 3576 N 337.007 -0.598083 1.45811 0
M  V30 3577 C 338.237 -1.38121 1.53643 0
M  V30 3578 C 338.645 -1.88425 0.171081 0
M  V30 3579 O 337.988 -1.63409 -0.839237 0
M  V30 3580 C 338.05 -2.61432 2.46766 0
M  V30 3581 C 337.714 -2.32702 3.93318 0
M  V30 3582 C 338.711 -1.92479 4.82957 0
M  V30 3583 C 336.396 -2.45321 4.38318 0
M  V30 3584 C 338.39 -1.65248 6.15607 0
M  V30 3585 C 336.077 -2.17703 5.71007 0
M  V30 3586 C 337.075 -1.7773 6.5947 0
M  V30 3587 O 336.763 -1.50441 7.89698 0
M  V30 3588 H 336.495 -0.428863 0.522544 0
M  V30 3589 H 339.049 -0.73557 1.91777 0
M  V30 3590 H 337.279 -3.28749 2.0362 0
M  V30 3591 H 338.968 -3.23487 2.45175 0
M  V30 3592 H 339.734 -1.82258 4.49452 0
M  V30 3593 H 335.613 -2.75399 3.69697 0
M  V30 3594 H 339.157 -1.33973 6.84614 0
M  V30 3595 H 335.054 -2.27544 6.04065 0
M  V30 3596 H 335.822 -1.64415 8.01817 0
M  V30 3597 N 338.485 -1.33259 -0.841409 0
M  V30 3598 C 339.731 -1.24757 -1.59886 0
M  V30 3599 C 340.064 0.186913 -1.93298 0
M  V30 3600 O 339.339 1.12757 -1.5848 0
M  V30 3601 C 339.622 -2.12036 -2.91055 0
M  V30 3602 C 339.475 -3.63929 -2.6434 0
M  V30 3603 C 340.794 -1.9916 -3.92458 0
M  V30 3604 H 337.913 -0.454542 -0.580138 0
M  V30 3605 H 340.555 -1.63335 -0.970647 0
M  V30 3606 H 338.705 -1.79265 -3.44669 0
M  V30 3607 H 340.377 -4.06978 -2.17178 0
M  V30 3608 H 338.62 -3.85935 -1.98082 0
M  V30 3609 H 339.291 -4.20341 -3.57796 0
M  V30 3610 H 341.767 -2.27895 -3.48143 0
M  V30 3611 H 340.643 -2.62484 -4.82072 0
M  V30 3612 H 340.904 -0.963082 -4.31482 0
M  V30 3613 N 339.963 1.05934 -1.16686 0
M  V30 3614 C 341.191 1.8249 -0.974929 0
M  V30 3615 C 341.606 1.82679 0.476861 0
M  V30 3616 O 340.963 1.2486 1.33103 0
M  V30 3617 C 341.014 3.28943 -1.49929 0
M  V30 3618 O 340.735 3.28886 -2.89423 0
M  V30 3619 C 342.236 4.22215 -1.35089 0
M  V30 3620 H 339.456 0.575295 -0.345365 0
M  V30 3621 H 342 1.33631 -1.548 0
M  V30 3622 H 340.155 3.751 -0.968423 0
M  V30 3623 H 340.569 4.20493 -3.13506 0
M  V30 3624 H 342.043 5.22987 -1.76603 0
M  V30 3625 H 342.52 4.38195 -0.296935 0
M  V30 3626 H 343.126 3.81907 -1.87155 0
M  V30 3627 N 341.441 0.965919 1.2453 0
M  V30 3628 C 342.69 0.622437 1.91856 0
M  V30 3629 C 343.003 -0.846006 1.76358 0
M  V30 3630 O 344.209 -1.29993 2.38357 0
M  V30 3631 C 342.665 1.0626 3.43856 0
M  V30 3632 C 342.273 2.55437 3.68043 0
M  V30 3633 C 344.017 0.792183 4.17043 0
M  V30 3634 C 341.924 2.93196 5.13605 0
M  V30 3635 H 340.854 0.229092 0.718354 0
M  V30 3636 H 343.505 1.17189 1.41206 0
M  V30 3637 H 341.887 0.441476 3.93531 0
M  V30 3638 H 343.061 3.22665 3.28974 0
M  V30 3639 H 341.376 2.8007 3.08139 0
M  V30 3640 H 343.973 1.05031 5.24283 0
M  V30 3641 H 344.316 -0.271584 4.15413 0
M  V30 3642 H 344.849 1.37419 3.73311 0
M  V30 3643 H 341.588 3.98636 5.20355 0
M  V30 3644 H 341.108 2.30651 5.53679 0
M  V30 3645 H 342.787 2.83004 5.81823 0
M  V30 3646 N 342.919 -1.39368 0.735821 0
M  V30 3647 C 344.147 -2.04795 0.294393 0
M  V30 3648 C 344.562 -1.55478 -1.07107 0
M  V30 3649 O 343.919 -0.720038 -1.67695 0
M  V30 3650 C 343.97 -3.6035 0.288071 0
M  V30 3651 O 343.691 -4.07852 1.59963 0
M  V30 3652 C 345.192 -4.42976 -0.169422 0
M  V30 3653 H 342.412 -0.658571 0.128551 0
M  V30 3654 H 344.956 -1.78399 0.999701 0
M  V30 3655 H 343.111 -3.85645 -0.368355 0
M  V30 3656 H 343.525 -5.02181 1.51375 0
M  V30 3657 H 344.999 -5.51864 -0.122687 0
M  V30 3658 H 345.476 -4.22068 -1.21472 0
M  V30 3659 H 346.082 -4.22832 0.457469 0
M  V30 3660 N 344.397 -0.483516 -1.5 0
M  V30 3661 C 345.674 0.129337 -1.95172 0
M  V30 3662 C 346.054 1.55802 -1.4244 0
M  V30 3663 O 345.402 2.19625 -0.630649 0
M  V30 3664 C 345.612 0.0599251 -3.48949 0
M  V30 3665 C 346.96 0.242617 -4.23906 0
M  V30 3666 O 347.984 0.135933 -3.55941 0
M  V30 3667 O 346.843 0.459454 -5.44565 0
M  V30 3668 H 343.937 0.104887 -0.820322 0
M  V30 3669 H 346.483 -0.544807 -1.60717 0
M  V30 3670 H 345.255 -0.937079 -3.79914 0
M  V30 3671 H 344.878 0.774984 -3.89974 0
M  V30 3672 N 345.875 1.56104 -0.216619 0
M  V30 3673 C 347.1 2.0301 0.424462 0
M  V30 3674 C 347.525 1.0955 1.52907 0
M  V30 3675 O 346.883 0.0827914 1.81111 0
M  V30 3676 C 346.931 3.4819 0.937883 0
M  V30 3677 O 346.035 3.57865 2.04955 0
M  V30 3678 H 345.376 0.656925 0.0966755 0
M  V30 3679 H 347.906 2.01859 -0.33381 0
M  V30 3680 H 347.916 3.88413 1.24897 0
M  V30 3681 H 346.591 4.15699 0.129387 0
M  V30 3682 H 345.168 3.29527 1.74546 0
M  V30 3683 N 347.353 -0.0568162 1.57498 0
M  V30 3684 C 348.286 -1.09817 2.00039 0
M  V30 3685 C 349.264 -1.3674 0.879819 0
M  V30 3686 O 350.448 -1.49863 1.14338 0
M  V30 3687 C 347.575 -2.43924 2.34986 0
M  V30 3688 C 346.621 -2.33039 3.57204 0
M  V30 3689 S 347.454 -1.7102 5.07457 0
M  V30 3690 C 348.61 -3.06674 5.45621 0
M  V30 3691 H 348.843 -0.735701 2.88053 0
M  V30 3692 H 346.376 -0.265871 1.52094 0
M  V30 3693 H 348.334 -3.2106 2.55795 0
M  V30 3694 H 346.995 -2.77327 1.47474 0
M  V30 3695 H 346.188 -3.31973 3.79223 0
M  V30 3696 H 345.79 -1.64043 3.36104 0
M  V30 3697 H 348.082 -4.03 5.44608 0
M  V30 3698 H 349.025 -2.8942 6.46252 0
M  V30 3699 H 349.433 -3.07969 4.73091 0
M  V30 3700 N 348.832 -1.54138 -0.328536 0
M  V30 3701 C 349.765 -1.78014 -1.4278 0
M  V30 3702 C 350.743 -0.629889 -1.49904 0
M  V30 3703 O 351.927 -0.866763 -1.6739 0
M  V30 3704 C 349.054 -1.89225 -2.80912 0
M  V30 3705 C 348.1 -3.11483 -2.91343 0
M  V30 3706 S 348.933 -4.70201 -2.56263 0
M  V30 3707 C 350.089 -4.84312 -3.96476 0
M  V30 3708 H 350.322 -2.70974 -1.22313 0
M  V30 3709 H 347.855 -1.45197 -0.525084 0
M  V30 3710 H 349.813 -1.9637 -3.60485 0
M  V30 3711 H 348.474 -0.972518 -2.98665 0
M  V30 3712 H 347.667 -3.16046 -3.92595 0
M  V30 3713 H 347.269 -3.02642 -2.19736 0
M  V30 3714 H 349.561 -4.66643 -4.91173 0
M  V30 3715 H 350.504 -5.86411 -3.96898 0
M  V30 3716 H 350.912 -4.12652 -3.85199 0
M  V30 3717 N 350.31 0.590341 -1.46126 0
M  V30 3718 C 351.258 1.72105 -1.5647 0
M  V30 3719 C 352.252 1.63756 -0.433612 0
M  V30 3720 O 353.458 1.69342 -0.610194 0
M  V30 3721 H 349.833 0.568889 -0.491802 0
M  V30 3722 H 351.804 1.6051 -2.51553 0
M  V30 3723 C 350.553 3.10493 -1.56491 0
M  V30 3724 H 349.876 3.17583 -2.4286 0
M  V30 3725 H 351.316 3.8939 -1.67785 0
M  V30 3726 C 349.775 3.3563 -0.292231 0
M  V30 3727 O 350.305 3.96875 0.620739 0
M  V30 3728 N 348.511 2.90026 -0.182523 0
M  V30 3729 H 348.058 2.40367 -0.926356 0
M  V30 3730 H 348.016 3.07218 0.668152 0
M  V30 3731 N 351.788 1.33704 0.83433 0
M  V30 3732 C 353.204 1.13137 1.12571 0
M  V30 3733 C 353.404 -0.0747261 2.01361 0
M  V30 3734 O 352.46 -0.753647 2.4099 0
M  V30 3735 C 353.773 2.42105 1.78342 0
M  V30 3736 C 355.321 2.48054 1.90888 0
M  V30 3737 C 355.796 3.76995 2.60075 0
M  V30 3738 N 357.287 3.78092 2.67584 0
M  V30 3739 C 358.022 4.74574 3.21818 0
M  V30 3740 N 357.518 5.81434 3.76705 0
M  V30 3741 N 359.311 4.62044 3.20112 0
M  V30 3742 H 351.462 2.11 0.243489 0
M  V30 3743 H 353.725 0.932532 0.17055 0
M  V30 3744 H 353.431 3.30391 1.20561 0
M  V30 3745 H 353.305 2.54594 2.7832 0
M  V30 3746 H 355.692 1.60215 2.47821 0
M  V30 3747 H 355.773 2.39502 0.898459 0
M  V30 3748 H 355.417 4.65219 2.03799 0
M  V30 3749 H 355.347 3.82825 3.61597 0
M  V30 3750 H 357.838 3.00865 2.28667 0
M  V30 3751 H 358.151 6.51084 4.16305 0
M  V30 3752 H 356.496 5.85163 3.7498 0
M  V30 3753 H 359.687 3.77716 2.76493 0
M  V30 3754 H 359.86 5.37406 3.62076 0
M  V30 3755 N 353.266 -1.05314 1.17247 0
M  V30 3756 C 354.513 -1.78293 0.960091 0
M  V30 3757 C 354.841 -1.87658 -0.51136 0
M  V30 3758 O 354.096 -1.3718 -1.39571 0
M  V30 3759 C 354.395 -3.2229 1.54479 0
M  V30 3760 C 354.061 -3.32987 3.04024 0
M  V30 3761 C 352.723 -3.35613 3.44844 0
M  V30 3762 C 355.075 -3.34102 4.00031 0
M  V30 3763 C 352.403 -3.36982 4.8027 0
M  V30 3764 C 354.755 -3.3701 5.35357 0
M  V30 3765 C 353.419 -3.37923 5.75642 0
M  V30 3766 H 352.689 -0.652422 0.351322 0
M  V30 3767 H 355.336 -1.23782 1.46117 0
M  V30 3768 H 353.641 -3.7972 0.965391 0
M  V30 3769 H 355.338 -3.77376 1.35603 0
M  V30 3770 H 351.928 -3.31655 2.71483 0
M  V30 3771 H 356.112 -3.31276 3.69554 0
M  V30 3772 H 351.368 -3.35999 5.10798 0
M  V30 3773 H 355.542 -3.36822 6.09528 0
M  V30 3774 H 353.169 -3.38738 6.80559 0
M  V30 3775 N 354.744 -0.972509 -1.24016 0
M  V30 3776 C 356.16 -0.679827 -1.44397 0
M  V30 3777 C 356.36 0.756716 -1.86751 0
M  V30 3778 O 355.416 1.53007 -2.00861 0
M  V30 3779 C 356.729 -1.66803 -2.50195 0
M  V30 3780 C 358.277 -1.68119 -2.64017 0
M  V30 3781 C 358.752 -2.65748 -3.73017 0
M  V30 3782 N 360.243 -2.64219 -3.8045 0
M  V30 3783 C 360.978 -3.36433 -4.64328 0
M  V30 3784 N 360.474 -4.1818 -5.52356 0
M  V30 3785 N 362.267 -3.25235 -4.58453 0
M  V30 3786 H 354.418 -1.90059 -0.948228 0
M  V30 3787 H 356.681 -0.818527 -0.478245 0
M  V30 3788 H 356.387 -2.69498 -2.25973 0
M  V30 3789 H 356.261 -1.4446 -3.48441 0
M  V30 3790 H 358.648 -0.661319 -2.87594 0
M  V30 3791 H 358.729 -1.94525 -1.66113 0
M  V30 3792 H 358.373 -3.67872 -3.50189 0
M  V30 3793 H 358.303 -2.36619 -4.70446 0
M  V30 3794 H 360.794 -2.04887 -3.17537 0
M  V30 3795 H 361.107 -4.70157 -6.13329 0
M  V30 3796 H 359.452 -4.22273 -5.52006 0
M  V30 3797 H 362.643 -2.60829 -3.88698 0
M  V30 3798 H 362.816 -3.81776 -5.23594 0
M  V30 3799 N 356.222 1.38976 -0.743202 0
M  V30 3800 C 357.17 2.32394 -0.0978389 0
M  V30 3801 C 358.164 1.53486 0.716824 0
M  V30 3802 O 359.37 1.69092 0.617088 0
M  V30 3803 H 355.745 0.75189 -0.0128402 0
M  V30 3804 H 357.716 2.84441 -0.901981 0
M  V30 3805 C 356.465 3.38629 0.789036 0
M  V30 3806 H 355.788 3.99432 0.171559 0
M  V30 3807 H 357.228 4.06426 1.20807 0
M  V30 3808 C 355.687 2.76347 1.92702 0
M  V30 3809 O 356.217 2.64836 3.02034 0
M  V30 3810 N 354.423 2.34311 1.71891 0
M  V30 3811 H 353.97 2.43873 0.829675 0
M  V30 3812 H 353.928 1.9298 2.48205 0
M  V30 3813 N 357.7 0.491464 1.49741 0
M  V30 3814 C 358.63 -0.28154 2.31796 0
M  V30 3815 C 359.611 -0.971473 1.3963 0
M  V30 3816 O 360.796 -0.964719 1.68543 0
M  V30 3817 C 357.926 -1.35203 3.19902 0
M  V30 3818 C 356.88 -0.782529 4.20786 0
M  V30 3819 C 356.206 -1.95283 4.97764 0
M  V30 3820 C 357.506 0.21999 5.21837 0
M  V30 3821 H 359.2 0.403355 2.96671 0
M  V30 3822 H 356.746 0.195425 1.42668 0
M  V30 3823 H 358.699 -1.90045 3.76113 0
M  V30 3824 H 357.423 -2.06598 2.52953 0
M  V30 3825 H 356.082 -0.255928 3.65706 0
M  V30 3826 H 355.73 -2.65423 4.2727 0
M  V30 3827 H 355.43 -1.57789 5.66018 0
M  V30 3828 H 356.954 -2.50577 5.56816 0
M  V30 3829 H 358.368 -0.23996 5.72798 0
M  V30 3830 H 356.765 0.51026 5.97927 0
M  V30 3831 H 357.835 1.13911 4.7133 0
M  V30 3832 N 359.178 -1.55987 0.224894 0
M  V30 3833 C 360.426 -1.97998 -0.405099 0
M  V30 3834 C 360.747 -1.11387 -1.60056 0
M  V30 3835 O 360.017 -0.191645 -1.9496 0
M  V30 3836 H 358.597 -0.731235 -0.152658 0
M  V30 3837 H 361.259 -1.92279 0.318567 0
M  V30 3838 H 360.355 -3.03463 -0.729167 0
M  V30 3839 N 360.656 0.0484629 -1.57525 0
M  V30 3840 C 361.904 0.741657 -1.88 0
M  V30 3841 C 362.225 1.76918 -0.820054 0
M  V30 3842 O 361.495 1.95335 0.148661 0
M  V30 3843 H 360.075 0.276908 -0.69378 0
M  V30 3844 H 362.737 0.019013 -1.94891 0
M  V30 3845 H 361.833 1.24336 -2.86264 0
M  V30 3846 N 362.134 1.5431 0.320358 0
M  V30 3847 C 363.381 1.72668 1.05792 0
M  V30 3848 C 363.709 0.502084 1.87908 0
M  V30 3849 O 362.964 -0.516149 1.88771 0
M  V30 3850 C 363.263 2.95639 2.00828 0
M  V30 3851 C 362.929 4.30265 1.34843 0
M  V30 3852 C 361.591 4.66865 1.16578 0
M  V30 3853 C 363.943 5.13801 0.875095 0
M  V30 3854 C 361.271 5.84597 0.496336 0
M  V30 3855 C 363.623 6.32219 0.219463 0
M  V30 3856 C 362.287 6.67495 0.0246915 0
M  V30 3857 H 361.557 0.631837 0.387121 0
M  V30 3858 H 364.204 1.88552 0.334735 0
M  V30 3859 H 362.509 2.74456 2.79609 0
M  V30 3860 H 364.206 3.07038 2.57932 0
M  V30 3861 H 360.796 4.01472 1.50061 0
M  V30 3862 H 364.98 4.86039 1.00398 0
M  V30 3863 H 360.236 6.10486 0.334264 0
M  V30 3864 H 364.41 6.96227 -0.155291 0
M  V30 3865 H 362.037 7.5858 -0.496065 0
M  V30 3866 N 363.613 -0.582584 1.46437 0
M  V30 3867 C 364.561 -1.71272 1.5738 0
M  V30 3868 C 365.555 -1.63524 0.44229 0
M  V30 3869 O 366.761 -1.69016 0.619166 0
M  V30 3870 H 363.136 -0.566273 0.494813 0
M  V30 3871 H 365.107 -1.59174 2.52401 0
M  V30 3872 C 363.856 -3.09658 1.58136 0
M  V30 3873 H 363.179 -3.16291 2.44541 0
M  V30 3874 H 364.619 -3.88494 1.69847 0
M  V30 3875 C 363.078 -3.3547 0.310026 0
M  V30 3876 O 363.608 -3.97199 -0.599683 0
M  V30 3877 N 361.814 -2.89925 0.197901 0
M  V30 3878 H 361.361 -2.39873 0.93909 0
M  V30 3879 H 361.319 -3.07568 -0.65185 0
M  V30 3880 N 365.091 -1.34144 -0.827227 0
M  V30 3881 C 366.024 -1.19707 -1.94282 0
M  V30 3882 C 367.002 -0.0897256 -1.62352 0
M  V30 3883 O 368.186 -0.254095 -1.8678 0
M  V30 3884 C 365.313 -0.838646 -3.28153 0
M  V30 3885 C 364.359 -1.95514 -3.79047 0
M  V30 3886 S 365.192 -3.56793 -3.99323 0
M  V30 3887 C 366.348 -3.22983 -5.36127 0
M  V30 3888 H 366.581 -2.1414 -2.06231 0
M  V30 3889 H 364.114 -1.19121 -0.982321 0
M  V30 3890 H 366.072 -0.638637 -4.05502 0
M  V30 3891 H 364.733 0.0872776 -3.13979 0
M  V30 3892 H 363.926 -1.658 -4.75948 0
M  V30 3893 H 363.528 -2.11241 -3.08631 0
M  V30 3894 H 365.82 -2.74531 -6.19386 0
M  V30 3895 H 366.763 -4.19008 -5.70822 0
M  V30 3896 H 367.171 -2.59276 -5.01434 0
M  V30 3897 N 366.569 1.04691 -1.17803 0
M  V30 3898 C 367.499 2.14494 -0.92275 0
M  V30 3899 C 368.48 1.69546 0.137179 0
M  V30 3900 O 369.665 1.94195 -0.0141108 0
M  V30 3901 C 366.795 3.44491 -0.440803 0
M  V30 3902 C 365.749 4.03031 -1.4405 0
M  V30 3903 C 365.075 5.28432 -0.81631 0
M  V30 3904 C 366.375 4.39932 -2.81527 0
M  V30 3905 H 368.069 2.36107 -1.84103 0
M  V30 3906 H 365.615 1.1347 -0.886599 0
M  V30 3907 H 367.568 4.2066 -0.249602 0
M  V30 3908 H 366.292 3.22546 0.513025 0
M  V30 3909 H 364.951 3.28937 -1.61853 0
M  V30 3910 H 364.599 5.02792 0.144511 0
M  V30 3911 H 364.299 5.68559 -1.48371 0
M  V30 3912 H 365.823 6.07284 -0.635496 0
M  V30 3913 H 367.237 5.07113 -2.67412 0
M  V30 3914 H 365.634 4.9109 -3.44892 0
M  V30 3915 H 366.704 3.50045 -3.35554 0
M  V30 3916 N 368.047 0.979072 1.23499 0
M  V30 3917 C 369.293 0.6578 1.9247 0
M  V30 3918 C 369.648 -0.799746 1.74991 0
M  V30 3919 O 368.941 -1.56922 1.09937 0
M  V30 3920 C 369.135 0.981932 3.43646 0
M  V30 3921 C 368.964 2.46944 3.75831 0
M  V30 3922 C 367.734 3.13119 3.96591 0
M  V30 3923 C 369.932 3.45006 3.81412 0
M  V30 3924 N 367.914 4.51489 4.15969 0
M  V30 3925 C 369.285 4.68778 4.05768 0
M  V30 3926 C 371.34 3.39505 3.64198 0
M  V30 3927 C 370.043 5.87723 4.14697 0
M  V30 3928 C 372.069 4.57814 3.7438 0
M  V30 3929 C 371.431 5.80381 3.99171 0
M  V30 3930 H 367.53 0.291746 0.72554 0
M  V30 3931 H 370.114 1.25626 1.48749 0
M  V30 3932 H 368.285 0.412179 3.86207 0
M  V30 3933 H 370.017 0.618068 3.99953 0
M  V30 3934 H 366.772 2.63619 3.93449 0
M  V30 3935 H 367.196 5.23221 4.29615 0
M  V30 3936 H 371.838 2.45773 3.44029 0
M  V30 3937 H 369.556 6.81874 4.33675 0
M  V30 3938 H 373.142 4.55132 3.62417 0
M  V30 3939 H 372.022 6.70398 4.06861 0
M  V30 3940 N 369.525 -1.3858 0.750561 0
M  V30 3941 C 370.75 -2.04997 0.314812 0
M  V30 3942 C 371.175 -1.56235 -1.04749 0
M  V30 3943 O 370.533 -0.712981 -1.66692 0
M  V30 3944 C 370.581 -3.58961 0.343415 0
M  V30 3945 O 369.685 -4.07025 -0.663628 0
M  V30 3946 H 369.026 -0.649081 0.139962 0
M  V30 3947 H 371.556 -1.77313 1.02084 0
M  V30 3948 H 371.566 -4.07542 0.193233 0
M  V30 3949 H 370.241 -3.93811 1.33738 0
M  V30 3950 H 368.818 -3.6982 -0.478307 0
M  V30 3951 N 371.003 -0.499398 -1.49478 0
M  V30 3952 C 372.251 0.0455996 -2.02049 0
M  V30 3953 C 372.572 1.37633 -1.38138 0
M  V30 3954 O 371.842 1.8842 -0.536166 0
M  V30 3955 H 370.422 0.0198416 -0.746736 0
M  V30 3956 H 373.084 -0.656274 -1.83519 0
M  V30 3957 H 372.18 0.176445 -3.11601 0
M  V30 3958 N 372.481 1.55866 -0.233164 0
M  V30 3959 C 373.897 1.59133 0.121988 0
M  V30 3960 C 374.097 1.25016 1.58029 0
M  V30 3961 O 373.153 0.990922 2.32243 0
M  V30 3962 C 374.466 2.99932 -0.214792 0
M  V30 3963 C 376.014 3.12601 -0.157971 0
M  V30 3964 C 376.489 4.55597 -0.46859 0
M  V30 3965 N 377.98 4.61305 -0.418585 0
M  V30 3966 C 378.715 5.69903 -0.63227 0
M  V30 3967 N 378.211 6.86819 -0.90835 0
M  V30 3968 N 380.004 5.59264 -0.563913 0
M  V30 3969 H 372.155 1.76315 -1.18434 0
M  V30 3970 H 374.418 0.820093 -0.475553 0
M  V30 3971 H 374.124 3.29588 -1.22739 0
M  V30 3972 H 373.998 3.74327 0.464691 0
M  V30 3973 H 376.385 2.82735 0.845283 0
M  V30 3974 H 376.466 2.40511 -0.871102 0
M  V30 3975 H 376.11 4.86182 -1.46934 0
M  V30 3976 H 376.04 5.25928 0.265865 0
M  V30 3977 H 378.531 3.77297 -0.213368 0
M  V30 3978 H 378.844 7.65507 -1.05919 0
M  V30 3979 H 377.189 6.88536 -0.945673 0
M  V30 3980 H 380.38 4.66802 -0.348372 0
M  V30 3981 H 380.553 6.43831 -0.733847 0
M  V30 3982 N 373.959 -0.0401083 1.57549 0
M  V30 3983 C 375.207 -0.731677 1.8839 0
M  V30 3984 C 375.528 -1.76481 0.829425 0
M  V30 3985 O 374.798 -1.95411 -0.1383 0
M  V30 3986 H 373.378 -0.273225 0.695239 0
M  V30 3987 H 376.04 -0.00867725 1.94898 0
M  V30 3988 H 375.136 -1.22816 2.86919 0
M  V30 3989 N 375.437 -1.54477 -0.31217 0
M  V30 3990 C 376.384 -1.84655 -1.38461 0
M  V30 3991 C 377.354 -0.694536 -1.50882 0
M  V30 3992 O 378.539 -0.942081 -1.6592 0
M  V30 3993 C 375.679 -2.0896 -2.74645 0
M  V30 3994 C 374.792 -3.36618 -2.70763 0
M  V30 3995 C 373.927 -3.50824 -3.98868 0
M  V30 3996 C 372.966 -4.72315 -3.89339 0
M  V30 3997 N 372.103 -4.83387 -5.09197 0
M  V30 3998 H 376.943 -2.76142 -1.12026 0
M  V30 3999 H 374.48 -1.36748 -0.542065 0
M  V30 4000 H 376.438 -2.21045 -3.53829 0
M  V30 4001 H 375.068 -1.20752 -2.99364 0
M  V30 4002 H 374.12 -3.33211 -1.83506 0
M  V30 4003 H 375.432 -4.25917 -2.59608 0
M  V30 4004 H 374.586 -3.62513 -4.86486 0
M  V30 4005 H 373.325 -2.59638 -4.12843 0
M  V30 4006 H 372.33 -4.6067 -3.00105 0
M  V30 4007 H 373.555 -5.64897 -3.76919 0
M  V30 4008 H 371.501 -3.9512 -5.23657 0
M  V30 4009 H 371.418 -5.66669 -5.00422 0
M  V30 4010 H 372.686 -4.9942 -5.98498 0
M  V30 4011 N 376.915 0.57481 -1.46744 0
M  V30 4012 C 378.161 1.3347 -1.52688 0
M  V30 4013 C 378.494 1.93353 -0.181229 0
M  V30 4014 O 377.769 1.76912 0.808237 0
M  V30 4015 C 378.052 2.45811 -2.63152 0
M  V30 4016 C 377.905 1.90912 -4.07275 0
M  V30 4017 C 379.224 3.47822 -2.69644 0
M  V30 4018 H 376.343 0.483935 -0.555856 0
M  V30 4019 H 378.985 0.644968 -1.78718 0
M  V30 4020 H 377.135 3.04646 -2.41088 0
M  V30 4021 H 378.807 1.36473 -4.4065 0
M  V30 4022 H 377.05 1.21691 -4.16382 0
M  V30 4023 H 377.721 2.72042 -4.80309 0
M  V30 4024 H 380.197 2.9888 -2.895 0
M  V30 4025 H 379.073 4.23876 -3.48742 0
M  V30 4026 H 379.334 4.05555 -1.76005 0
M  V30 4027 N 378.394 1.34581 0.820102 0
M  V30 4028 C 379.341 1.2639 1.93117 0
M  V30 4029 C 380.311 0.138554 1.65521 0
M  V30 4030 O 381.496 0.320004 1.88097 0
M  V30 4031 C 378.636 1.02812 3.29429 0
M  V30 4032 C 377.749 2.24146 3.693 0
M  V30 4033 C 376.884 1.93829 4.94574 0
M  V30 4034 C 375.923 3.1129 5.27034 0
M  V30 4035 N 375.06 2.80838 6.43486 0
M  V30 4036 H 379.9 2.21408 1.99455 0
M  V30 4037 H 377.437 1.10077 0.975784 0
M  V30 4038 H 379.395 0.871788 4.0799 0
M  V30 4039 H 378.025 0.114612 3.22596 0
M  V30 4040 H 377.077 2.50691 2.86109 0
M  V30 4041 H 378.389 3.11899 3.89257 0
M  V30 4042 H 377.543 1.74948 5.80929 0
M  V30 4043 H 376.282 1.03341 4.76626 0
M  V30 4044 H 375.287 3.30764 4.39175 0
M  V30 4045 H 376.512 4.02561 5.4692 0
M  V30 4046 H 374.458 1.92929 6.26988 0
M  V30 4047 H 374.375 3.62123 6.63629 0
M  V30 4048 H 375.643 2.65467 7.32903 0
M  V30 4049 N 379.872 -1.04064 1.18357 0
M  V30 4050 C 380.82 -2.14187 0.907007 0
M  V30 4051 C 381.814 -1.68879 -0.132725 0
M  V30 4052 O 383.02 -1.79993 0.0154248 0
M  V30 4053 H 379.395 -0.699585 0.275835 0
M  V30 4054 H 381.366 -2.34711 1.84264 0
M  V30 4055 C 380.115 -3.44785 0.449254 0
M  V30 4056 H 379.438 -3.80058 1.24081 0
M  V30 4057 H 380.878 -4.22974 0.294737 0
M  V30 4058 C 379.337 -3.26391 -0.834909 0
M  V30 4059 O 379.867 -3.53973 -1.89911 0
M  V30 4060 N 378.073 -2.79726 -0.787523 0
M  V30 4061 H 377.62 -2.5748 0.0787347 0
M  V30 4062 H 377.578 -2.67798 -1.64716 0
M  V30 4063 N 381.35 -0.985608 -1.22978 0
M  V30 4064 C 382.297 -0.529825 -2.24636 0
M  V30 4065 C 383.267 0.434028 -1.60329 0
M  V30 4066 O 384.452 0.340414 -1.87739 0
M  V30 4067 C 381.592 0.156533 -3.44745 0
M  V30 4068 C 380.705 -0.848197 -4.23591 0
M  V30 4069 C 379.84 -0.136109 -5.31026 0
M  V30 4070 C 378.879 -1.1297 -6.01585 0
M  V30 4071 N 378.016 -0.446415 -7.00679 0
M  V30 4072 H 382.856 -1.40148 -2.62988 0
M  V30 4073 H 380.393 -0.702168 -1.29259 0
M  V30 4074 H 382.351 0.571324 -4.1327 0
M  V30 4075 H 380.981 0.992025 -3.07179 0
M  V30 4076 H 380.033 -1.38135 -3.54433 0
M  V30 4077 H 381.345 -1.60512 -4.72268 0
M  V30 4078 H 380.499 0.335784 -6.0577 0
M  V30 4079 H 379.238 0.653373 -4.83304 0
M  V30 4080 H 378.243 -1.6123 -5.25628 0
M  V30 4081 H 379.468 -1.91993 -6.51395 0
M  V30 4082 H 377.414 0.323763 -6.55201 0
M  V30 4083 H 377.331 -1.1419 -7.47326 0
M  V30 4084 H 378.599 0.00291697 -7.795 0
M  V30 4085 N 382.828 1.3818 -0.7579 0
M  V30 4086 C 384.105 1.94106 -0.241306 0
M  V30 4087 C 384.485 1.69282 1.26122 0
M  V30 4088 O 383.833 1.03378 2.03777 0
M  V30 4089 C 384.043 3.43809 -0.59967 0
M  V30 4090 C 385.391 4.20868 -0.561717 0
M  V30 4091 O 386.415 3.5211 -0.538222 0
M  V30 4092 O 385.274 5.43451 -0.576478 0
M  V30 4093 H 382.368 0.825376 -0.0518042 0
M  V30 4094 H 384.914 1.47548 -0.838315 0
M  V30 4095 H 383.686 3.55403 -1.6372 0
M  V30 4096 H 383.309 3.97592 0.0251197 0
M  V30 4097 N 384.306 0.507319 1.49211 0
M  V30 4098 C 385.583 -0.0982702 1.95353 0
M  V30 4099 C 385.963 -1.53516 1.449 0
M  V30 4100 O 385.311 -2.18594 0.66551 0
M  V30 4101 C 385.521 -0.00440283 3.49 0
M  V30 4102 C 386.869 -0.175147 4.24239 0
M  V30 4103 O 387.893 -0.0792891 3.56112 0
M  V30 4104 O 386.752 -0.37276 5.45227 0
M  V30 4105 H 383.846 -0.0918236 0.821887 0
M  V30 4106 H 386.392 0.570307 1.5983 0
M  V30 4107 H 385.164 0.997402 3.78375 0
M  V30 4108 H 384.787 -0.712845 3.91158 0
M  V30 4109 N 385.784 -1.5574 0.241426 0
M  V30 4110 C 386.714 -2.24133 -0.654722 0
M  V30 4111 C 387.695 -1.21974 -1.1856 0
M  V30 4112 O 388.88 -1.50612 -1.22595 0
M  V30 4113 C 386.01 -2.93659 -1.85423 0
M  V30 4114 C 384.964 -4.0246 -1.45636 0
M  V30 4115 C 384.29 -4.59383 -2.73626 0
M  V30 4116 C 385.59 -5.18468 -0.631506 0
M  V30 4117 H 387.284 -2.99281 -0.0844353 0
M  V30 4118 H 384.83 -1.43947 -0.0391707 0
M  V30 4119 H 386.783 -3.40203 -2.48676 0
M  V30 4120 H 385.507 -2.15991 -2.44981 0
M  V30 4121 H 384.166 -3.56676 -0.847202 0
M  V30 4122 H 383.814 -3.78422 -3.3137 0
M  V30 4123 H 383.514 -5.32826 -2.4773 0
M  V30 4124 H 385.038 -5.08658 -3.37786 0
M  V30 4125 H 386.452 -5.61272 -1.1682 0
M  V30 4126 H 384.849 -5.98266 -0.468831 0
M  V30 4127 H 385.919 -4.8358 0.357506 0
M  V30 4128 N 387.262 0.0317525 -1.57568 0
M  V30 4129 C 388.511 0.722131 -1.8833 0
M  V30 4130 C 388.824 1.76664 -0.839587 0
M  V30 4131 O 390.03 2.50942 -1.03635 0
M  V30 4132 C 388.486 1.33544 -3.34207 0
M  V30 4133 C 388.094 0.327415 -4.46802 0
M  V30 4134 C 389.838 2.00585 -3.7412 0
M  V30 4135 C 387.745 0.948915 -5.83738 0
M  V30 4136 H 386.675 0.273466 -0.702661 0
M  V30 4137 H 389.326 -0.0235811 -1.83485 0
M  V30 4138 H 387.708 2.13077 -3.33788 0
M  V30 4139 H 388.882 -0.441006 -4.58685 0
M  V30 4140 H 387.197 -0.240758 -4.15703 0
M  V30 4141 H 389.794 2.47932 -4.73744 0
M  V30 4142 H 390.137 2.82285 -3.05975 0
M  V30 4143 H 390.67 1.27831 -3.76702 0
M  V30 4144 H 387.409 0.171387 -6.55276 0
M  V30 4145 H 386.929 1.68724 -5.7558 0
M  V30 4146 H 388.608 1.45705 -6.3038 0
M  V30 4147 N 388.74 1.54641 0.303973 0
M  V30 4148 C 389.703 1.84646 1.35789 0
M  V30 4149 C 390.703 0.7192 1.4382 0
M  V30 4150 O 391.893 0.987491 1.43507 0
M  V30 4151 C 389.025 2.02407 2.74307 0
M  V30 4152 H 390.218 2.78829 1.10429 0
M  V30 4153 H 387.771 1.46658 0.540487 0
M  V30 4154 H 388.506 1.10502 3.04893 0
M  V30 4155 H 388.291 2.84453 2.69868 0
M  V30 4156 H 389.781 2.27002 3.50514 0
M  V30 4157 N 390.218 -0.567019 1.47046 0
M  V30 4158 C 391.467 -1.32091 1.5243 0
M  V30 4159 C 391.78 -1.94704 0.187021 0
M  V30 4160 O 392.986 -2.7124 0.118771 0
M  V30 4161 C 391.442 -2.39479 2.68659 0
M  V30 4162 C 391.05 -1.831 4.08874 0
M  V30 4163 C 392.794 -3.16111 2.83327 0
M  V30 4164 C 390.701 -2.8821 5.16419 0
M  V30 4165 H 389.631 -0.496629 0.56734 0
M  V30 4166 H 392.282 -0.603354 1.73297 0
M  V30 4167 H 390.664 -3.14105 2.41152 0
M  V30 4168 H 391.838 -1.14913 4.46242 0
M  V30 4169 H 390.153 -1.19085 3.99008 0
M  V30 4170 H 392.75 -3.94585 3.60842 0
M  V30 4171 H 393.093 -3.69686 1.91411 0
M  V30 4172 H 393.626 -2.48595 3.10556 0
M  V30 4173 H 390.365 -2.39504 6.10179 0
M  V30 4174 H 389.885 -3.54839 4.8358 0
M  V30 4175 H 391.564 -3.51881 5.42945 0
M  V30 4176 N 391.696 -1.35014 -0.812953 0
M  V30 4177 C 392.606 -1.2951 -1.95613 0
M  V30 4178 C 393.622 -0.20107 -1.72834 0
M  V30 4179 O 394.798 -0.42932 -1.96771 0
M  V30 4180 C 391.863 -1.06033 -3.30088 0
M  V30 4181 C 390.924 -2.24688 -3.65805 0
M  V30 4182 C 390.157 -2.02322 -4.93864 0
M  V30 4183 O 390.38 -0.986464 -5.61805 0
M  V30 4184 O 389.314 -2.89525 -5.27692 0
M  V30 4185 H 393.14 -2.25705 -2.03202 0
M  V30 4186 H 390.725 -1.15321 -0.949811 0
M  V30 4187 H 392.607 -0.94763 -4.10607 0
M  V30 4188 H 391.282 -0.128852 -3.23443 0
M  V30 4189 H 390.189 -2.41521 -2.85689 0
M  V30 4190 H 391.522 -3.16261 -3.77147 0
M  V30 4191 N 393.175 1.03435 -1.18907 0
M  V30 4192 C 394.123 2.13703 -0.918353 0
M  V30 4193 C 395.117 1.68947 0.123767 0
M  V30 4194 O 396.323 1.79983 -0.0249701 0
M  V30 4195 H 392.698 0.698112 -0.279542 0
M  V30 4196 H 394.669 2.33731 -1.85506 0
M  V30 4197 C 393.418 3.44542 -0.467532 0
M  V30 4198 H 392.741 3.79394 -1.26095 0
M  V30 4199 H 394.181 4.22812 -0.317164 0
M  V30 4200 C 392.64 3.26829 0.817588 0
M  V30 4201 O 393.17 3.54975 1.88031 0
M  V30 4202 N 391.376 2.80139 0.772677 0
M  V30 4203 H 390.923 2.57434 -0.0923883 0
M  V30 4204 H 390.881 2.68668 1.63294 0
M  V30 4205 N 394.653 0.992116 1.22453 0
M  V30 4206 C 395.902 0.662992 1.90492 0
M  V30 4207 C 396.215 -0.808407 1.78113 0
M  V30 4208 O 397.421 -1.24908 2.41061 0
M  V30 4209 C 395.877 1.1353 3.41524 0
M  V30 4210 C 395.485 2.63187 3.62542 0
M  V30 4211 C 397.229 0.880465 4.15269 0
M  V30 4212 C 395.136 3.04024 5.0727 0
M  V30 4213 H 394.066 0.244278 0.713333 0
M  V30 4214 H 396.717 1.20157 1.38688 0
M  V30 4215 H 395.099 0.52485 3.92506 0
M  V30 4216 H 396.273 3.2957 3.22056 0
M  V30 4217 H 394.588 2.86543 3.02129 0
M  V30 4218 H 397.185 1.16128 5.21937 0
M  V30 4219 H 397.528 -0.183408 4.15896 0
M  V30 4220 H 398.061 1.45307 3.70312 0
M  V30 4221 H 394.8 4.09584 5.11782 0
M  V30 4222 H 394.32 2.42343 5.48662 0
M  V30 4223 H 395.999 2.95282 5.75689 0
M  V30 4224 N 396.131 -1.37776 0.765217 0
M  V30 4225 C 397.377 -2.00145 0.327072 0
M  V30 4226 C 397.71 -1.60607 -1.09175 0
M  V30 4227 O 396.985 -0.849127 -1.74986 0
M  V30 4228 C 397.268 -3.57109 0.46319 0
M  V30 4229 C 397.121 -4.06576 1.92395 0
M  V30 4230 C 398.44 -4.39888 -0.136473 0
M  V30 4231 H 395.559 -0.727113 0.120316 0
M  V30 4232 H 398.201 -1.63549 0.967039 0
M  V30 4233 H 396.351 -3.88414 -0.0816358 0
M  V30 4234 H 398.023 -3.85864 2.52798 0
M  V30 4235 H 396.266 -3.59011 2.43503 0
M  V30 4236 H 396.937 -5.15639 1.97028 0
M  V30 4237 H 399.413 -4.14803 0.328317 0
M  V30 4238 H 398.289 -5.48899 -0.0110582 0
M  V30 4239 H 398.55 -4.24758 -1.22608 0
M  V30 4240 N 397.609 -0.515225 -1.4894 0
M  V30 4241 C 398.572 0.244681 -2.2789 0
M  V30 4242 C 399.572 0.881166 -1.34507 0
M  V30 4243 O 400.762 0.743497 -1.57537 0
M  V30 4244 C 397.894 1.35247 -3.12923 0
M  V30 4245 H 399.087 -0.448289 -2.96531 0
M  V30 4246 H 396.64 -0.270656 -1.53939 0
M  V30 4247 H 397.375 2.07916 -2.48881 0
M  V30 4248 H 397.16 0.901374 -3.81599 0
M  V30 4249 H 398.65 1.88737 -3.72516 0
M  V30 4250 N 399.087 1.5561 -0.249682 0
M  V30 4251 C 400.034 2.21496 0.648694 0
M  V30 4252 C 401.004 1.17977 1.16921 0
M  V30 4253 O 402.189 1.46434 1.22318 0
M  V30 4254 C 399.329 2.92039 1.83868 0
M  V30 4255 C 398.442 4.10219 1.35442 0
M  V30 4256 C 397.577 4.6847 2.50419 0
M  V30 4257 C 396.616 5.78893 1.98869 0
M  V30 4258 N 395.753 6.31315 3.07223 0
M  V30 4259 H 400.593 2.97892 0.0801582 0
M  V30 4260 H 398.13 1.47074 0.0278031 0
M  V30 4261 H 400.088 3.31138 2.53778 0
M  V30 4262 H 398.718 2.18111 2.37965 0
M  V30 4263 H 397.77 3.76413 0.54928 0
M  V30 4264 H 399.082 4.89927 0.936649 0
M  V30 4265 H 398.236 5.10158 3.28366 0
M  V30 4266 H 396.975 3.87984 2.95499 0
M  V30 4267 H 395.98 5.3668 1.19393 0
M  V30 4268 H 397.205 6.61232 1.54755 0
M  V30 4269 H 395.151 5.53733 3.51732 0
M  V30 4270 H 395.068 7.06224 2.69784 0
M  V30 4271 H 396.336 6.77662 3.8522 0
M  V30 4272 N 400.565 -0.0233959 1.57583 0
M  V30 4273 C 401.495 -1.02162 2.09965 0
M  V30 4274 C 402.476 -1.3735 1.00344 0
M  V30 4275 O 403.661 -1.46135 1.27899 0
M  V30 4276 C 400.791 -2.32081 2.58371 0
M  V30 4277 C 399.745 -2.1112 3.72307 0
M  V30 4278 C 399.071 -3.46848 4.06941 0
M  V30 4279 C 400.371 -1.49276 5.00514 0
M  V30 4280 H 402.065 -0.585557 2.93618 0
M  V30 4281 H 399.611 -0.280218 1.41247 0
M  V30 4282 H 401.564 -3.02249 2.93639 0
M  V30 4283 H 400.288 -2.77758 1.71808 0
M  V30 4284 H 398.947 -1.43384 3.37397 0
M  V30 4285 H 398.595 -3.90184 3.17436 0
M  V30 4286 H 398.295 -3.33646 4.83688 0
M  V30 4287 H 399.819 -4.18369 4.44747 0
M  V30 4288 H 401.233 -2.09368 5.33702 0
M  V30 4289 H 399.63 -1.46632 5.8191 0
M  V30 4290 H 400.7 -0.459217 4.82721 0
M  V30 4291 N 402.043 -1.548 -0.295768 0
M  V30 4292 C 402.99 -1.86113 -1.36494 0
M  V30 4293 C 403.96 -0.7105 -1.50137 0
M  V30 4294 O 405.145 -0.959626 -1.64912 0
M  V30 4295 C 402.285 -2.11861 -2.72413 0
M  V30 4296 C 401.398 -3.39471 -2.67177 0
M  V30 4297 C 400.533 -3.55035 -3.95125 0
M  V30 4298 C 399.572 -4.76418 -3.84308 0
M  V30 4299 N 398.709 -4.8876 -5.04042 0
M  V30 4300 H 403.549 -2.77314 -1.09091 0
M  V30 4301 H 401.086 -1.37315 -0.52753 0
M  V30 4302 H 403.044 -2.24786 -3.51464 0
M  V30 4303 H 401.674 -1.2392 -2.98066 0
M  V30 4304 H 400.726 -3.35139 -1.79962 0
M  V30 4305 H 402.038 -4.28646 -2.55076 0
M  V30 4306 H 401.192 -3.67653 -4.82614 0
M  V30 4307 H 399.931 -2.64002 -4.10066 0
M  V30 4308 H 398.936 -4.63827 -2.95202 0
M  V30 4309 H 400.161 -5.68863 -3.70906 0
M  V30 4310 H 398.107 -4.00652 -5.19436 0
M  V30 4311 H 398.024 -5.71945 -4.94384 0
M  V30 4312 H 399.292 -5.0574 -5.93167 0
M  V30 4313 N 403.521 0.559213 -1.47345 0
M  V30 4314 C 404.451 1.67622 -1.62558 0
M  V30 4315 C 405.432 1.63331 -0.475087 0
M  V30 4316 O 406.617 1.80983 -0.704182 0
M  V30 4317 C 403.747 3.0626 -1.63774 0
M  V30 4318 C 402.701 3.25397 -2.7803 0
M  V30 4319 C 402.027 4.64801 -2.64318 0
M  V30 4320 C 403.327 3.10965 -4.19641 0
M  V30 4321 H 405.021 1.55146 -2.56067 0
M  V30 4322 H 402.567 0.744961 -1.23233 0
M  V30 4323 H 404.52 3.84247 -1.73008 0
M  V30 4324 H 403.244 3.1969 -0.66825 0
M  V30 4325 H 401.903 2.49817 -2.68304 0
M  V30 4326 H 401.551 4.75028 -1.65401 0
M  V30 4327 H 401.251 4.78555 -3.40968 0
M  V30 4328 H 402.775 5.44926 -2.75478 0
M  V30 4329 H 404.189 3.78772 -4.30354 0
M  V30 4330 H 402.586 3.36229 -4.97062 0
M  V30 4331 H 403.656 2.07736 -4.38148 0
M  V30 4332 N 404.999 1.35443 0.805782 0
M  V30 4333 C 405.947 1.28465 1.93906 0
M  V30 4334 C 406.941 0.17943 1.68447 0
M  V30 4335 O 408.147 0.345459 1.76654 0
M  V30 4336 H 404.522 0.399528 0.637088 0
M  V30 4337 H 406.493 2.24206 1.96912 0
M  V30 4338 C 405.242 1.07432 3.30687 0
M  V30 4339 H 404.565 1.91716 3.50835 0
M  V30 4340 H 406.005 1.06591 4.10383 0
M  V30 4341 C 404.464 -0.22179 3.36169 0
M  V30 4342 O 404.994 -1.21731 3.82811 0
M  V30 4343 N 403.2 -0.260841 2.89427 0
M  V30 4344 H 402.747 0.549884 2.51663 0
M  V30 4345 H 402.705 -1.12777 2.93477 0
M  V30 4346 N 406.477 -1.02803 1.19454 0
M  V30 4347 C 407.725 -1.75869 0.995722 0
M  V30 4348 C 408.046 -1.89138 -0.474543 0
M  V30 4349 O 407.316 -1.42558 -1.34366 0
M  V30 4350 H 405.896 -0.651511 0.365435 0
M  V30 4351 H 408.558 -1.24004 1.50363 0
M  V30 4352 H 407.654 -2.76661 1.44447 0
M  V30 4353 N 407.956 -0.998596 -1.21925 0
M  V30 4354 C 408.886 -0.573688 -2.26343 0
M  V30 4355 C 409.867 0.402296 -1.65274 0
M  V30 4356 O 411.052 0.291683 -1.91997 0
M  V30 4357 C 408.182 0.106839 -3.47136 0
M  V30 4358 C 407.136 -0.788269 -4.20678 0
M  V30 4359 C 406.462 0.0254927 -5.34694 0
M  V30 4360 C 407.762 -2.08784 -4.78755 0
M  V30 4361 H 409.456 -1.44651 -2.62138 0
M  V30 4362 H 407.002 -0.696975 -1.26009 0
M  V30 4363 H 408.955 0.415531 -4.19346 0
M  V30 4364 H 407.679 1.01424 -3.10452 0
M  V30 4365 H 406.338 -1.08069 -3.50309 0
M  V30 4366 H 405.986 0.933989 -4.94253 0
M  V30 4367 H 405.686 -0.570437 -5.84825 0
M  V30 4368 H 407.21 0.328147 -6.09718 0
M  V30 4369 H 408.624 -1.84272 -5.42878 0
M  V30 4370 H 407.021 -2.63307 -5.39249 0
M  V30 4371 H 408.091 -2.76284 -3.98491 0
M  V30 4372 N 409.434 1.37368 -0.772513 0
M  V30 4373 C 410.68 1.99969 -0.337681 0
M  V30 4374 C 411.013 1.61184 1.08321 0
M  V30 4375 O 410.288 0.858395 1.74533 0
M  V30 4376 C 410.571 3.56858 -0.482121 0
M  V30 4377 C 410.424 4.0555 -1.94549 0
M  V30 4378 C 411.743 4.39955 0.113143 0
M  V30 4379 H 408.862 0.726464 -0.124171 0
M  V30 4380 H 411.504 1.63034 -0.975699 0
M  V30 4381 H 409.654 3.88452 0.0610361 0
M  V30 4382 H 411.326 3.84518 -2.54841 0
M  V30 4383 H 409.569 3.57715 -2.45403 0
M  V30 4384 H 410.24 5.14587 -1.9976 0
M  V30 4385 H 412.716 4.14623 -0.35031 0
M  V30 4386 H 411.592 5.48897 -0.0180514 0
M  V30 4387 H 411.853 4.25403 1.20354 0
M  V30 4388 N 410.912 0.523116 1.48665 0
M  V30 4389 C 412.161 -0.01544 2.01694 0
M  V30 4390 C 412.474 -1.35975 1.40606 0
M  V30 4391 O 413.68 -1.98627 1.85093 0
M  V30 4392 C 412.136 -0.0779303 3.59816 0
M  V30 4393 C 411.744 1.26107 4.29885 0
M  V30 4394 C 413.488 -0.565678 4.20714 0
M  V30 4395 C 411.395 1.15954 5.79921 0
M  V30 4396 H 410.325 -0.00954163 0.75394 0
M  V30 4397 H 412.976 0.665865 1.70993 0
M  V30 4398 H 411.358 -0.824165 3.87329 0
M  V30 4399 H 412.532 2.02233 4.14051 0
M  V30 4400 H 410.847 1.68401 3.80828 0
M  V30 4401 H 413.444 -0.6595 5.30617 0
M  V30 4402 H 413.787 -1.56984 3.85567 0
M  V30 4403 H 414.32 0.12467 3.97605 0
M  V30 4404 H 411.059 2.13864 6.19631 0
M  V30 4405 H 410.579 0.439529 5.98187 0
M  V30 4406 H 412.258 0.847361 6.41427 0
M  V30 4407 N 412.39 -1.55475 0.257931 0
M  V30 4408 C 413.639 -1.98383 -0.364275 0
M  V30 4409 C 413.952 -1.14952 -1.58258 0
M  V30 4410 O 415.158 -1.47924 -2.27664 0
M  V30 4411 C 413.614 -3.53037 -0.699479 0
M  V30 4412 C 413.222 -4.45223 0.498046 0
M  V30 4413 C 414.966 -4.04575 -1.28526 0
M  V30 4414 C 412.873 -5.91238 0.138383 0
M  V30 4415 H 411.803 -0.740911 -0.13988 0
M  V30 4416 H 414.454 -1.79936 0.359883 0
M  V30 4417 H 412.836 -3.6722 -1.48207 0
M  V30 4418 H 414.01 -4.42803 1.27522 0
M  V30 4419 H 412.325 -4.04226 0.999503 0
M  V30 4420 H 414.922 -5.11196 -1.56788 0
M  V30 4421 H 415.265 -3.5258 -2.21344 0
M  V30 4422 H 415.798 -3.93762 -0.565337 0
M  V30 4423 H 412.537 -6.47294 1.03398 0
M  V30 4424 H 412.057 -5.96768 -0.602374 0
M  V30 4425 H 413.736 -6.46413 -0.27553 0
M  V30 4426 N 413.868 0.0150385 -1.57593 0
M  V30 4427 C 415.116 0.701613 -1.8953 0
M  V30 4428 C 415.437 1.75139 -0.857396 0
M  V30 4429 O 414.707 1.95607 0.107194 0
M  V30 4430 H 413.287 0.26213 -0.699498 0
M  V30 4431 H 415.949 -0.0223304 -1.94887 0
M  V30 4432 H 415.045 1.18236 -2.88837 0
M  V30 4433 N 415.346 1.54954 0.287554 0
M  V30 4434 C 416.594 1.74528 1.01904 0
M  V30 4435 C 416.915 0.541349 1.87335 0
M  V30 4436 O 416.185 -0.444108 1.908 0
M  V30 4437 H 414.765 0.643576 0.379235 0
M  V30 4438 H 417.427 1.92333 0.315294 0
M  V30 4439 H 416.523 2.64015 1.6644 0
M  V30 4440 N 416.824 -0.551391 1.4764 0
M  V30 4441 C 418.101 -1.31229 1.45046 0
M  V30 4442 C 418.481 -2.10563 0.150527 0
M  V30 4443 O 417.829 -2.11374 -0.867956 0
M  V30 4444 C 418.039 -2.21189 2.69956 0
M  V30 4445 C 419.387 -2.82021 3.1741 0
M  V30 4446 O 420.411 -2.31488 2.70724 0
M  V30 4447 O 419.27 -3.73885 3.98588 0
M  V30 4448 H 416.364 -0.591193 0.578291 0
M  V30 4449 H 418.91 -0.569813 1.59847 0
M  V30 4450 H 417.682 -1.62207 3.56096 0
M  V30 4451 H 417.305 -3.02722 2.57769 0
M  V30 4452 N 418.302 -1.35869 -0.798587 0
M  V30 4453 C 419.55 -1.29332 -1.55298 0
M  V30 4454 C 419.871 0.129729 -1.94568 0
M  V30 4455 O 419.141 1.06796 -1.6423 0
M  V30 4456 H 417.721 -0.475737 -0.57592 0
M  V30 4457 H 420.383 -1.70062 -0.952093 0
M  V30 4458 H 419.479 -1.91458 -2.46476 0
M  V30 4459 N 419.78 1.02168 -1.19998 0
M  V30 4460 C 421.005 1.79833 -1.03319 0
M  V30 4461 C 421.43 1.83504 0.413281 0
M  V30 4462 O 420.788 1.26635 1.29743 0
M  V30 4463 C 420.836 3.22396 -1.61533 0
M  V30 4464 O 419.94 4.03555 -0.849519 0
M  V30 4465 H 419.281 0.554872 -0.364709 0
M  V30 4466 H 421.811 1.28542 -1.59179 0
M  V30 4467 H 421.821 3.73124 -1.65054 0
M  V30 4468 H 420.496 3.19039 -2.66809 0
M  V30 4469 H 419.073 3.62169 -0.888129 0
M  V30 4470 N 421.258 1.00505 1.21394 0
M  V30 4471 C 422.206 0.558623 2.25792 0
M  V30 4472 C 423.2 -0.396848 1.64686 0
M  V30 4473 O 424.406 -0.268035 1.77993 0
M  V30 4474 H 420.781 0.1623 0.734277 0
M  V30 4475 H 422.752 1.4503 2.60785 0
M  V30 4476 C 421.501 -0.0989574 3.47559 0
M  V30 4477 H 420.824 0.627225 3.94849 0
M  V30 4478 H 422.264 -0.3746 4.22342 0
M  V30 4479 C 420.723 -1.33817 3.09184 0
M  V30 4480 O 421.253 -2.43252 3.19674 0
M  V30 4481 N 419.459 -1.21793 2.63846 0
M  V30 4482 H 419.006 -0.32746 2.5551 0
M  V30 4483 H 418.964 -2.04809 2.38539 0
M  V30 4484 N 422.737 -1.36956 0.779787 0
M  V30 4485 C 423.962 -2.04283 0.358224 0
M  V30 4486 C 424.387 -1.58422 -1.01411 0
M  V30 4487 O 423.745 -0.748179 -1.65142 0
M  V30 4488 C 423.793 -3.58152 0.419479 0
M  V30 4489 O 422.897 -4.08342 -0.577142 0
M  V30 4490 H 422.238 -0.645967 0.153698 0
M  V30 4491 H 424.768 -1.75108 1.05822 0
M  V30 4492 H 424.778 -4.07041 0.279636 0
M  V30 4493 H 423.453 -3.90886 1.42061 0
M  V30 4494 H 422.03 -3.70751 -0.399755 0
M  V30 4495 N 424.215 -0.530993 -1.48385 0
M  V30 4496 C 425.163 0.244595 -2.3131 0
M  V30 4497 C 426.157 0.93451 -1.41291 0
M  V30 4498 O 427.363 0.85878 -1.58193 0
M  V30 4499 H 423.738 0.0977472 -0.74562 0
M  V30 4500 H 425.709 -0.474369 -2.94605 0
M  V30 4501 C 424.458 1.2779 -3.23365 0
M  V30 4502 H 423.781 0.756439 -3.92579 0
M  V30 4503 H 425.221 1.79198 -3.84271 0
M  V30 4504 C 423.68 2.31205 -2.45042 0
M  V30 4505 O 424.21 3.37661 -2.17596 0
M  V30 4506 N 422.416 2.04446 -2.0652 0
M  V30 4507 H 421.963 1.17891 -2.2904 0
M  V30 4508 H 421.921 2.73861 -1.54427 0
M  V30 4509 N 425.693 1.55336 -0.266172 0
M  V30 4510 C 426.656 2.20878 0.612001 0
M  V30 4511 C 427.656 1.18388 1.08816 0
M  V30 4512 O 428.846 1.4335 0.989774 0
M  V30 4513 C 425.978 2.86765 1.84332 0
M  V30 4514 H 427.171 2.99873 0.0398718 0
M  V30 4515 H 424.724 1.56291 -0.0167309 0
M  V30 4516 H 425.459 2.11759 2.45619 0
M  V30 4517 H 425.244 3.61862 1.5099 0
M  V30 4518 H 426.734 3.36867 2.46801 0
M  V30 4519 N 427.171 -0.0066808 1.57599 0
M  V30 4520 C 428.134 -0.985035 2.06953 0
M  V30 4521 C 429.134 -1.27663 0.977687 0
M  V30 4522 O 430.324 -1.22293 1.24057 0
M  V30 4523 C 427.456 -2.3118 2.50536 0
M  V30 4524 H 428.649 -0.558255 2.94658 0
M  V30 4525 H 426.202 -0.254011 1.54222 0
M  V30 4526 H 426.937 -2.78561 1.66054 0
M  V30 4527 H 426.722 -2.11338 3.3027 0
M  V30 4528 H 428.212 -3.01377 2.8907 0
M  V30 4529 N 428.649 -1.55105 -0.279332 0
M  V30 4530 C 429.579 -1.90557 -1.34945 0
M  V30 4531 C 430.56 -0.766738 -1.51839 0
M  V30 4532 O 431.745 -1.02434 -1.64988 0
M  V30 4533 C 428.875 -2.17193 -2.71006 0
M  V30 4534 C 427.829 -3.33021 -2.68851 0
M  V30 4535 C 427.155 -3.45123 -4.08405 0
M  V30 4536 C 428.455 -4.69578 -2.28678 0
M  V30 4537 H 430.149 -2.80188 -1.05522 0
M  V30 4538 H 427.695 -1.34811 -0.506173 0
M  V30 4539 H 429.648 -2.40581 -3.45975 0
M  V30 4540 H 428.372 -1.24355 -3.01999 0
M  V30 4541 H 427.031 -3.0959 -1.9634 0
M  V30 4542 H 426.679 -2.49762 -4.3661 0
M  V30 4543 H 426.379 -4.22995 -4.07859 0
M  V30 4544 H 427.903 -3.70796 -4.85121 0
M  V30 4545 H 429.317 -4.92553 -2.93368 0
M  V30 4546 H 427.714 -5.5032 -2.39306 0
M  V30 4547 H 428.784 -4.68828 -1.23807 0
M  V30 4548 N 430.127 0.543554 -1.4793 0
M  V30 4549 C 431.06 1.66556 -1.55995 0
M  V30 4550 C 432.038 1.57315 -0.411205 0
M  V30 4551 O 433.222 1.7798 -0.620922 0
M  V30 4552 C 430.349 3.04883 -1.47527 0
M  V30 4553 C 429.395 3.32526 -2.67074 0
M  V30 4554 S 430.228 3.20282 -4.29162 0
M  V30 4555 C 431.384 4.61079 -4.23269 0
M  V30 4556 H 431.617 1.59462 -2.50917 0
M  V30 4557 H 429.15 0.725456 -1.36296 0
M  V30 4558 H 431.108 3.84665 -1.43328 0
M  V30 4559 H 429.769 3.09429 -0.539665 0
M  V30 4560 H 428.962 4.33403 -2.5725 0
M  V30 4561 H 428.564 2.60389 -2.68466 0
M  V30 4562 H 430.856 5.52318 -3.92365 0
M  V30 4563 H 431.799 4.75959 -5.24279 0
M  V30 4564 H 432.207 4.39766 -3.5393 0
M  V30 4565 N 431.605 1.3629 0.791371 0
M  V30 4566 C 432.568 1.30309 1.88553 0
M  V30 4567 C 433.568 0.211204 1.59407 0
M  V30 4568 O 434.758 0.465865 1.67855 0
M  V30 4569 C 431.89 1.01956 3.25297 0
M  V30 4570 H 433.083 2.27614 1.95273 0
M  V30 4571 H 430.636 1.21035 0.988953 0
M  V30 4572 H 431.371 0.050998 3.2426 0
M  V30 4573 H 431.156 1.80968 3.4784 0
M  V30 4574 H 432.646 1.0037 4.05359 0
M  V30 4575 N 433.083 -1.0153 1.20538 0
M  V30 4576 C 433.993 -2.13557 0.971113 0
M  V30 4577 C 435.009 -1.73845 -0.0734366 0
M  V30 4578 O 436.185 -2.01075 0.114299 0
M  V30 4579 C 433.25 -3.42661 0.527639 0
M  V30 4580 C 432.311 -3.96608 1.64319 0
M  V30 4581 C 431.544 -5.1955 1.22078 0
M  V30 4582 O 431.767 -5.70329 0.0900198 0
M  V30 4583 O 430.701 -5.66681 2.02871 0
M  V30 4584 H 434.527 -2.3619 1.90913 0
M  V30 4585 H 432.112 -1.11946 0.989362 0
M  V30 4586 H 433.994 -4.20404 0.289621 0
M  V30 4587 H 432.669 -3.21441 -0.381779 0
M  V30 4588 H 431.576 -3.20139 1.93551 0
M  V30 4589 H 432.909 -4.22219 2.52966 0
M  V30 4590 N 434.561 -1.01147 -1.20859 0
M  V30 4591 C 435.791 -0.715872 -1.93801 0
M  V30 4592 C 436.199 0.726592 -1.74692 0
M  V30 4593 O 435.542 1.50397 -1.05482 0
M  V30 4594 C 435.604 -0.965269 -3.46299 0
M  V30 4595 C 435.268 -2.39584 -3.89164 0
M  V30 4596 C 436.265 -3.3764 -3.95342 0
M  V30 4597 C 433.95 -2.73522 -4.21297 0
M  V30 4598 C 435.944 -4.67698 -4.33056 0
M  V30 4599 C 433.631 -4.03794 -4.58687 0
M  V30 4600 C 434.629 -5.00693 -4.64538 0
M  V30 4601 O 434.317 -6.28635 -5.01072 0
M  V30 4602 H 434.049 -0.262524 -0.622942 0
M  V30 4603 H 436.603 -1.35413 -1.54443 0
M  V30 4604 H 434.833 -0.269847 -3.85757 0
M  V30 4605 H 436.522 -0.662051 -4.00464 0
M  V30 4606 H 437.288 -3.12757 -3.70686 0
M  V30 4607 H 433.167 -1.9879 -4.15937 0
M  V30 4608 H 436.711 -5.4333 -4.37537 0
M  V30 4609 H 432.608 -4.28459 -4.82797 0
M  V30 4610 H 433.376 -6.32847 -5.19083 0
M  V30 4611 N 436.039 1.36541 -0.78704 0
M  V30 4612 C 437.286 1.99304 -0.358341 0
M  V30 4613 C 437.614 1.62467 1.06933 0
M  V30 4614 O 436.869 0.870019 1.75297 0
M  V30 4615 C 437.168 3.54343 -0.466485 0
M  V30 4616 C 436.834 4.10993 -1.85461 0
M  V30 4617 C 435.496 4.26177 -2.23443 0
M  V30 4618 C 437.848 4.41895 -2.76366 0
M  V30 4619 C 435.176 4.69573 -3.51736 0
M  V30 4620 C 437.528 4.86722 -4.04084 0
M  V30 4621 C 436.192 5.00112 -4.42091 0
M  V30 4622 H 435.462 0.729306 -0.131126 0
M  V30 4623 H 438.109 1.63068 -1.00404 0
M  V30 4624 H 436.414 3.90918 0.262719 0
M  V30 4625 H 438.111 4.00833 -0.115854 0
M  V30 4626 H 434.701 3.99612 -1.54946 0
M  V30 4627 H 438.885 4.29735 -2.48277 0
M  V30 4628 H 434.141 4.78127 -3.81057 0
M  V30 4629 H 438.315 5.09598 -4.7464 0
M  V30 4630 H 435.942 5.33498 -5.41557 0
M  V30 4631 N 437.518 0.538854 1.48102 0
M  V30 4632 C 438.481 -0.208395 2.28251 0
M  V30 4633 C 439.481 -0.859656 1.35892 0
M  V30 4634 O 440.671 -0.71834 1.58699 0
M  V30 4635 C 437.803 -1.30252 3.15035 0
M  V30 4636 H 438.996 0.495407 2.9578 0
M  V30 4637 H 436.549 0.295112 1.53489 0
M  V30 4638 H 437.284 -2.0393 2.52157 0
M  V30 4639 H 437.069 -0.840551 3.82985 0
M  V30 4640 H 438.559 -1.82787 3.75471 0
M  V30 4641 N 438.996 -1.55193 0.274407 0
M  V30 4642 C 439.906 -2.26164 -0.623473 0
M  V30 4643 C 440.922 -1.28729 -1.17068 0
M  V30 4644 O 442.098 -1.61663 -1.20112 0
M  V30 4645 C 439.163 -2.96833 -1.7914 0
M  V30 4646 C 438.224 -4.09745 -1.28093 0
M  V30 4647 C 437.457 -4.77034 -2.3932 0
M  V30 4648 O 437.68 -4.4353 -3.5866 0
M  V30 4649 O 436.614 -5.64996 -2.07516 0
M  V30 4650 H 440.44 -3.03661 -0.0485661 0
M  V30 4651 H 438.025 -1.49341 0.0418382 0
M  V30 4652 H 439.907 -3.41248 -2.4724 0
M  V30 4653 H 438.582 -2.22253 -2.35341 0
M  V30 4654 H 437.489 -3.69787 -0.566416 0
M  V30 4655 H 438.822 -4.86224 -0.764683 0
M  V30 4656 N 440.474 -0.00167713 -1.576 0
M  V30 4657 C 441.89 0.354422 -1.55615 0
M  V30 4658 C 442.09 1.74679 -1.00447 0
M  V30 4659 O 441.146 2.4428 -0.639022 0
M  V30 4660 C 442.459 0.22812 -2.99833 0
M  V30 4661 C 444.007 0.302934 -3.11531 0
M  V30 4662 C 444.482 0.205737 -4.57538 0
M  V30 4663 N 445.973 0.263584 -4.62449 0
M  V30 4664 C 446.708 0.211742 -5.73009 0
M  V30 4665 N 446.204 0.110399 -6.92712 0
M  V30 4666 N 447.997 0.263729 -5.61481 0
M  V30 4667 H 440.148 -0.912498 -1.918 0
M  V30 4668 H 442.411 -0.349928 -0.881053 0
M  V30 4669 H 442.117 -0.729934 -3.44042 0
M  V30 4670 H 441.991 1.00951 -3.6344 0
M  V30 4671 H 444.378 1.25143 -2.67251 0
M  V30 4672 H 444.459 -0.508357 -2.50698 0
M  V30 4673 H 444.103 -0.739225 -5.02492 0
M  V30 4674 H 444.033 1.03554 -5.16318 0
M  V30 4675 H 446.524 0.343173 -3.76339 0
M  V30 4676 H 446.837 0.0767828 -7.72762 0
M  V30 4677 H 445.182 0.0760025 -6.94958 0
M  V30 4678 H 448.373 0.34111 -4.66855 0
M  V30 4679 H 448.546 0.219862 -6.47627 0
M  V30 4680 N 441.952 1.55251 0.271103 0
M  V30 4681 C 442.884 1.84675 1.35749 0
M  V30 4682 C 443.897 0.731366 1.45447 0
M  V30 4683 O 445.086 1.00924 1.4723 0
M  V30 4684 C 442.186 1.99638 2.73857 0
M  V30 4685 C 441.359 3.30312 2.86727 0
M  V30 4686 C 440.418 3.35318 4.05522 0
M  V30 4687 O 439.444 4.08682 3.96191 0
M  V30 4688 N 440.646 2.62857 5.17577 0
M  V30 4689 H 443.411 2.78445 1.10853 0
M  V30 4690 H 440.972 1.55191 0.461218 0
M  V30 4691 H 442.964 2.00355 3.51625 0
M  V30 4692 H 441.534 1.12725 2.91568 0
M  V30 4693 H 440.754 3.42118 1.95829 0
M  V30 4694 H 442.042 4.16488 2.92258 0
M  V30 4695 H 441.44 2.02939 5.28046 0
M  V30 4696 H 439.997 2.69295 5.93568 0
M  V30 4697 N 443.43 -0.535701 1.48216 0
M  V30 4698 C 444.679 -1.28828 1.55197 0
M  V30 4699 C 444.992 -1.94263 0.228278 0
M  V30 4700 O 446.198 -2.70927 0.176278 0
M  V30 4701 C 444.654 -2.33727 2.73678 0
M  V30 4702 C 444.262 -1.74386 4.12666 0
M  V30 4703 C 446.006 -3.1003 2.89968 0
M  V30 4704 C 443.913 -2.77192 5.22416 0
M  V30 4705 H 442.843 -0.484484 0.577747 0
M  V30 4706 H 445.494 -0.56646 1.74538 0
M  V30 4707 H 443.876 -3.08919 2.4776 0
M  V30 4708 H 445.05 -1.05421 4.48579 0
M  V30 4709 H 443.365 -1.10595 4.01445 0
M  V30 4710 H 445.962 -3.86842 3.6913 0
M  V30 4711 H 446.305 -3.65542 1.9921 0
M  V30 4712 H 446.838 -2.41952 3.15759 0
M  V30 4713 H 443.577 -2.26507 6.15122 0
M  V30 4714 H 443.097 -3.44502 4.90998 0
M  V30 4715 H 444.776 -3.40285 5.50286 0
M  V30 4716 N 444.908 -1.36708 -0.784132 0
M  V30 4717 C 446.319 -1.27947 -1.35965 0
M  V30 4718 C 446.67 0.0784013 -1.96043 0
M  V30 4719 O 445.795 0.979989 -1.92938 0
M  V30 4720 C 446.39 -2.31689 -2.47195 0
M  V30 4721 C 444.949 -2.26601 -3.00548 0
M  V30 4722 C 444.096 -2.16184 -1.73666 0
M  V30 4723 H 447.047 -1.4751 -0.585358 0
M  V30 4724 H 447.068 -1.95638 -3.26352 0
M  V30 4725 H 446.58 -3.30506 -2.03439 0
M  V30 4726 H 444.681 -1.31268 -3.48711 0
M  V30 4727 H 444.794 -3.19508 -3.57004 0
M  V30 4728 H 443.158 -1.62524 -1.96107 0
M  V30 4729 H 443.941 -3.16896 -1.32031 0
M  V30 4730 N 446.386 1.0089 -1.21074 0
M  V30 4731 C 447.635 1.74019 -1.01981 0
M  V30 4732 C 447.948 1.90408 0.447665 0
M  V30 4733 O 449.154 2.60707 0.757906 0
M  V30 4734 C 447.61 3.13026 -1.77603 0
M  V30 4735 C 447.218 3.04623 -3.28495 0
M  V30 4736 C 448.962 3.90312 -1.66904 0
M  V30 4737 C 446.869 4.38685 -3.96623 0
M  V30 4738 H 445.799 0.652422 -0.377971 0
M  V30 4739 H 448.45 1.12755 -1.44771 0
M  V30 4740 H 446.832 3.74878 -1.27604 0
M  V30 4741 H 448.006 2.52032 -3.85767 0
M  V30 4742 H 446.321 2.40827 -3.39693 0
M  V30 4743 H 448.918 4.8951 -2.15138 0
M  V30 4744 H 449.261 4.11558 -0.62658 0
M  V30 4745 H 449.794 3.35104 -2.14359 0
M  V30 4746 H 446.533 4.22641 -5.01054 0
M  V30 4747 H 446.053 4.91252 -3.4414 0
M  V30 4748 H 447.732 5.075 -4.01314 0
M  V30 4749 N 447.864 1.01787 1.20321 0
M  V30 4750 C 449.089 0.727009 1.9424 0
M  V30 4751 C 449.514 -0.706179 1.74341 0
M  V30 4752 O 448.872 -1.48609 1.03852 0
M  V30 4753 C 448.92 1.06958 3.44372 0
M  V30 4754 O 448.024 0.181983 4.11998 0
M  V30 4755 H 447.365 0.269626 0.606793 0
M  V30 4756 H 449.895 1.36158 1.52716 0
M  V30 4757 H 449.905 1.02182 3.94997 0
M  V30 4758 H 448.58 2.11378 3.58179 0
M  V30 4759 H 447.157 0.287378 3.71791 0
M  V30 4760 N 449.342 -1.36122 0.79427 0
M  V30 4761 C 450.591 -1.98361 0.365464 0
M  V30 4762 C 450.904 -1.6374 -1.06997 0
M  V30 4763 O 452.11 -2.19251 -1.60129 0
M  V30 4764 C 450.566 -3.54821 0.602496 0
M  V30 4765 C 450.174 -3.98362 2.04967 0
M  V30 4766 C 451.918 -4.2383 0.238437 0
M  V30 4767 C 449.825 -5.47619 2.2331 0
M  V30 4768 H 448.755 -0.742193 0.13291 0
M  V30 4769 H 451.406 -1.55354 0.976589 0
M  V30 4770 H 449.788 -3.95922 -0.078409 0
M  V30 4771 H 450.962 -3.68447 2.76737 0
M  V30 4772 H 449.277 -3.42206 2.37243 0
M  V30 4773 H 451.874 -5.33529 0.353705 0
M  V30 4774 H 452.217 -4.08264 -0.814006 0
M  V30 4775 H 452.75 -3.88108 0.872769 0
M  V30 4776 H 449.489 -5.68138 3.26955 0
M  V30 4777 H 449.009 -5.79145 1.5605 0
M  V30 4778 H 450.688 -6.13911 2.0426 0
M  V30 4779 N 450.82 -0.546701 -1.47814 0
M  V30 4780 C 452.069 -0.0166497 -2.01693 0
M  V30 4781 C 452.382 1.33721 -1.42752 0
M  V30 4782 O 453.588 1.95658 -1.8823 0
M  V30 4783 C 452.044 0.0206769 -3.59894 0
M  V30 4784 C 451.652 -1.3293 -4.27824 0
M  V30 4785 C 453.396 0.498674 -4.21561 0
M  V30 4786 C 451.303 -1.25165 -5.78003 0
M  V30 4787 H 450.233 -0.0024541 -0.753996 0
M  V30 4788 H 452.884 -0.692984 -1.69912 0
M  V30 4789 H 451.266 0.76244 -3.88591 0
M  V30 4790 H 452.44 -2.08795 -4.10781 0
M  V30 4791 H 450.755 -1.74438 -3.78101 0
M  V30 4792 H 453.352 0.575 -5.31599 0
M  V30 4793 H 453.695 1.5083 -3.88016 0
M  V30 4794 H 454.228 -0.18791 -3.97356 0
M  V30 4795 H 450.967 -2.23695 -6.1615 0
M  V30 4796 H 450.487 -0.53464 -5.97412 0
M  V30 4797 H 452.166 -0.949299 -6.39998 0
M  V30 4798 N 452.299 1.55045 -0.282633 0
M  V30 4799 C 453.547 1.99365 0.331334 0
M  V30 4800 C 453.868 1.1725 1.55812 0
M  V30 4801 O 453.138 0.263871 1.94115 0
M  V30 4802 H 451.718 0.736397 0.125414 0
M  V30 4803 H 454.38 1.90964 -0.389711 0
M  V30 4804 H 453.476 3.0596 0.616036 0
M  V30 4805 N 453.777 0.010035 1.57597 0
M  V30 4806 C 455.023 -0.673697 1.91283 0
M  V30 4807 C 455.356 -1.72863 0.884979 0
M  V30 4808 O 454.631 -1.94268 -0.0949487 0
M  V30 4809 C 454.914 -1.30766 3.35518 0
M  V30 4810 C 454.767 -0.263578 4.49027 0
M  V30 4811 C 456.086 -2.23105 3.79358 0
M  V30 4812 H 453.205 -0.243439 0.695634 0
M  V30 4813 H 455.847 0.0633864 1.89894 0
M  V30 4814 H 453.997 -1.93588 3.36832 0
M  V30 4815 H 455.669 0.365738 4.59848 0
M  V30 4816 H 453.912 0.413077 4.31829 0
M  V30 4817 H 454.583 -0.746398 5.4693 0
M  V30 4818 H 457.059 -1.70289 3.79659 0
M  V30 4819 H 455.935 -2.64424 4.81011 0
M  V30 4820 H 456.196 -3.11433 3.13787 0
M  V30 4821 N 455.255 -1.55392 -0.262866 0
M  V30 4822 C 456.666 -1.67079 -0.833158 0
M  V30 4823 C 457.017 -0.604539 -1.86654 0
M  V30 4824 O 456.142 0.252138 -2.14926 0
M  V30 4825 C 456.737 -3.02891 -1.51797 0
M  V30 4826 C 455.296 -3.16571 -2.03617 0
M  V30 4827 C 454.443 -2.62909 -0.881701 0
M  V30 4828 H 457.394 -1.58652 -0.0389986 0
M  V30 4829 H 457.415 -2.96445 -2.38538 0
M  V30 4830 H 456.927 -3.80473 -0.765619 0
M  V30 4831 H 455.028 -2.43782 -2.81782 0
M  V30 4832 H 455.141 -4.23271 -2.24452 0
M  V30 4833 H 453.505 -2.20324 -1.27786 0
M  V30 4834 H 454.288 -3.43003 -0.14269 0
M  V30 4835 N 456.733 0.527833 -1.48498 0
M  V30 4836 C 457.68 1.6322 -1.6318 0
M  V30 4837 C 458.65 1.59199 -0.473815 0
M  V30 4838 O 459.835 1.77591 -0.697563 0
M  V30 4839 C 456.975 3.01474 -1.67951 0
M  V30 4840 C 456.088 3.15713 -2.94871 0
M  V30 4841 C 455.223 4.44539 -2.90789 0
M  V30 4842 C 454.262 4.52315 -4.12404 0
M  V30 4843 N 453.399 5.72533 -4.06387 0
M  V30 4844 H 458.239 1.50011 -2.57489 0
M  V30 4845 H 455.776 0.730298 -1.27691 0
M  V30 4846 H 457.734 3.81572 -1.68698 0
M  V30 4847 H 456.364 3.1345 -0.771306 0
M  V30 4848 H 455.416 2.28854 -3.03859 0
M  V30 4849 H 456.728 3.1732 -3.8485 0
M  V30 4850 H 455.882 5.3293 -2.89949 0
M  V30 4851 H 454.621 4.45457 -1.98542 0
M  V30 4852 H 453.626 3.62331 -4.13517 0
M  V30 4853 H 454.851 4.53134 -5.05812 0
M  V30 4854 H 452.797 5.74344 -3.16962 0
M  V30 4855 H 452.714 5.75643 -4.90073 0
M  V30 4856 H 453.982 6.63204 -4.0961 0
M  V30 4857 N 458.211 1.37122 0.776871 0
M  V30 4858 C 459.439 1.3523 1.5659 0
M  V30 4859 C 459.854 -0.0635518 1.88693 0
M  V30 4860 O 459.211 -1.02394 1.51069 0
M  V30 4861 C 459.262 2.18583 2.8793 0
M  V30 4862 O 458.983 3.5465 2.57206 0
M  V30 4863 C 460.484 2.24612 3.82183 0
M  V30 4864 H 457.704 0.4634 0.485285 0
M  V30 4865 H 460.248 1.80392 0.963266 0
M  V30 4866 H 458.403 1.76943 3.4463 0
M  V30 4867 H 458.817 3.98286 3.41275 0
M  V30 4868 H 460.291 2.87267 4.71361 0
M  V30 4869 H 460.768 1.25309 4.20944 0
M  V30 4870 H 461.374 2.66543 3.31414 0
M  V30 4871 N 459.689 -1.00246 1.21608 0
M  V30 4872 C 460.938 -1.73476 1.02902 0
M  V30 4873 C 461.251 -1.90643 -0.437561 0
M  V30 4874 O 462.457 -2.61105 -0.74407 0
M  V30 4875 C 460.913 -3.12079 1.79261 0
M  V30 4876 C 460.521 -3.02877 3.30106 0
M  V30 4877 C 462.265 -3.89421 1.68972 0
M  V30 4878 C 460.172 -4.36575 3.98944 0
M  V30 4879 H 459.102 -0.650408 0.381425 0
M  V30 4880 H 461.753 -1.11985 1.45367 0
M  V30 4881 H 460.135 -3.74196 1.2959 0
M  V30 4882 H 461.309 -2.49983 3.87098 0
M  V30 4883 H 459.624 -2.39022 3.40965 0
M  V30 4884 H 462.221 -4.88362 2.17731 0
M  V30 4885 H 462.564 -4.1122 0.648397 0
M  V30 4886 H 463.097 -3.33963 2.16133 0
M  V30 4887 H 459.836 -4.19978 5.03288 0
M  V30 4888 H 459.356 -4.8942 3.4674 0
M  V30 4889 H 461.035 -5.05364 4.04 0
M  V30 4890 N 461.167 -1.02423 -1.1978 0
M  V30 4891 C 462.444 -0.632802 -1.85081 0
M  V30 4892 C 462.824 0.888745 -1.9148 0
M  V30 4893 O 462.172 1.78357 -1.42832 0
M  V30 4894 C 462.382 -1.28947 -3.24305 0
M  V30 4895 C 463.73 -1.40976 -4.00513 0
M  V30 4896 O 464.754 -1.24628 -3.33686 0
M  V30 4897 O 463.613 -1.67467 -5.20209 0
M  V30 4898 H 460.707 -0.219348 -0.79738 0
M  V30 4899 H 463.253 -1.12209 -1.27307 0
M  V30 4900 H 462.025 -2.3288 -3.14456 0
M  V30 4901 H 461.648 -0.787748 -3.89718 0
M  V30 4902 N 462.645 1.35699 -0.801477 0
M  V30 4903 C 463.893 1.9852 -0.37871 0
M  V30 4904 C 464.214 1.63907 1.05638 0
M  V30 4905 O 463.484 0.919013 1.73006 0
M  V30 4906 H 462.064 0.734322 -0.137042 0
M  V30 4907 H 464.726 1.65697 -1.02619 0
M  V30 4908 H 463.822 3.08382 -0.480284 0
M  V30 4909 N 464.123 0.554532 1.47522 0
M  V30 4910 C 465.4 -0.0360704 1.95567 0
M  V30 4911 C 465.78 -1.48828 1.49711 0
M  V30 4912 O 465.128 -2.16366 0.734717 0
M  V30 4913 C 465.338 0.106631 3.48837 0
M  V30 4914 C 466.686 -0.0400899 4.24581 0
M  V30 4915 O 467.71 0.0340453 3.56184 0
M  V30 4916 O 466.569 -0.199111 5.46137 0
M  V30 4917 H 463.663 -0.0656294 0.824392 0
M  V30 4918 H 466.209 0.620867 1.57935 0
M  V30 4919 H 464.981 1.11727 3.7501 0
M  V30 4920 H 464.604 -0.58804 3.93227 0
M  V30 4921 N 465.601 -1.54893 0.290851 0
M  V30 4922 C 466.531 -2.26103 -0.583084 0
M  V30 4923 C 467.512 -1.25684 -1.14619 0
M  V30 4924 O 468.697 -1.54436 -1.17741 0
M  V30 4925 C 465.827 -2.99409 -1.75987 0
M  V30 4926 C 464.781 -4.0689 -1.32758 0
M  V30 4927 C 464.107 -4.67856 -2.58872 0
M  V30 4928 C 465.407 -5.20215 -0.46624 0
M  V30 4929 H 467.101 -2.99398 0.0108214 0
M  V30 4930 H 464.647 -1.43998 0.00664468 0
M  V30 4931 H 466.6 -3.47943 -2.37727 0
M  V30 4932 H 465.324 -2.23675 -2.37985 0
M  V30 4933 H 463.983 -3.59191 -0.733299 0
M  V30 4934 H 463.631 -3.88772 -3.19163 0
M  V30 4935 H 463.331 -5.40438 -2.30653 0
M  V30 4936 H 464.855 -5.19147 -3.21433 0
M  V30 4937 H 466.269 -5.64704 -0.989047 0
M  V30 4938 H 464.666 -5.99455 -0.27826 0
M  V30 4939 H 465.736 -4.82198 0.511173 0
M  V30 4940 N 467.08 -0.0183926 -1.57589 0
M  V30 4941 C 468.027 0.967022 -2.09565 0
M  V30 4942 C 468.997 1.32983 -0.995225 0
M  V30 4943 O 470.182 1.42501 -1.26878 0
M  V30 4944 C 467.322 2.24772 -2.61861 0
M  V30 4945 C 466.435 1.94232 -3.85873 0
M  V30 4946 C 465.57 3.16518 -4.26603 0
M  V30 4947 C 464.609 2.81748 -5.43401 0
M  V30 4948 N 463.746 3.96626 -5.79338 0
M  V30 4949 H 468.586 0.516874 -2.93483 0
M  V30 4950 H 466.123 0.243544 -1.4507 0
M  V30 4951 H 468.081 2.99667 -2.90268 0
M  V30 4952 H 466.711 2.67423 -1.8079 0
M  V30 4953 H 465.763 1.09625 -3.64262 0
M  V30 4954 H 467.075 1.64616 -4.70853 0
M  V30 4955 H 466.229 3.99743 -4.56389 0
M  V30 4956 H 464.968 3.49286 -3.40368 0
M  V30 4957 H 463.973 1.96933 -5.1332 0
M  V30 4958 H 465.198 2.50207 -6.31327 0
M  V30 4959 H 463.144 4.29257 -4.96059 0
M  V30 4960 H 463.061 3.70598 -6.58933 0
M  V30 4961 H 464.329 4.80586 -6.13724 0
M  V30 4962 N 468.558 1.5553 0.254621 0
M  V30 4963 C 469.783 1.81383 1.00573 0
M  V30 4964 C 470.208 0.594419 1.78461 0
M  V30 4965 O 469.566 -0.456403 1.75461 0
M  V30 4966 C 469.614 3.04892 1.92545 0
M  V30 4967 O 468.718 2.81266 3.01601 0
M  V30 4968 H 468.059 0.598969 0.286587 0
M  V30 4969 H 470.589 2.02703 0.277952 0
M  V30 4970 H 470.599 3.34119 2.34155 0
M  V30 4971 H 469.274 3.93287 1.3527 0
M  V30 4972 H 467.851 2.63185 2.64174 0
M  V30 4973 N 470.036 -0.519951 1.48776 0
M  V30 4974 C 470.946 -1.65025 1.66745 0
M  V30 4975 C 471.962 -1.6508 0.549954 0
M  V30 4976 O 473.138 -1.83848 0.822295 0
M  V30 4977 C 470.203 -3.0146 1.71238 0
M  V30 4978 C 469.264 -3.12182 2.94688 0
M  V30 4979 C 468.497 -4.42109 2.98958 0
M  V30 4980 O 468.72 -5.29799 2.1135 0
M  V30 4981 O 467.654 -4.57406 3.91233 0
M  V30 4982 H 471.48 -1.52801 2.62461 0
M  V30 4983 H 469.065 -0.694157 1.32294 0
M  V30 4984 H 470.947 -3.82584 1.76657 0
M  V30 4985 H 469.622 -3.13988 0.786975 0
M  V30 4986 H 468.529 -2.30316 2.94797 0
M  V30 4987 H 469.862 -3.04574 3.86646 0
M  V30 4988 N 471.514 -1.37532 -0.769588 0
M  V30 4989 C 472.477 -1.33292 -1.86456 0
M  V30 4990 C 473.477 -0.236537 -1.59051 0
M  V30 4991 O 474.667 -0.492511 -1.67093 0
M  V30 4992 C 471.799 -1.07118 -3.23633 0
M  V30 4993 H 472.992 -2.30692 -1.91628 0
M  V30 4994 H 470.545 -1.22593 -0.969572 0
M  V30 4995 H 471.28 -0.102578 -3.24138 0
M  V30 4996 H 471.065 -1.86479 -3.44917 0
M  V30 4997 H 472.555 -1.06806 -4.03711 0
M  V30 4998 N 472.992 0.995999 -1.22138 0
M  V30 4999 C 474.241 1.72928 -1.03821 0
M  V30 5000 C 474.554 1.90872 0.427444 0
M  V30 5001 O 475.76 2.61496 0.730212 0
M  V30 5002 C 474.216 3.11124 -1.80913 0
M  V30 5003 C 473.824 3.01122 -3.31707 0
M  V30 5004 C 475.568 3.8852 -1.71035 0
M  V30 5005 C 473.475 4.34453 -4.01253 0
M  V30 5006 H 472.405 0.648376 -0.384869 0
M  V30 5007 H 475.056 1.11213 -1.45959 0
M  V30 5008 H 473.438 3.73503 -1.31573 0
M  V30 5009 H 474.612 2.47926 -3.88419 0
M  V30 5010 H 472.927 2.3721 -3.42228 0
M  V30 5011 H 475.524 4.872 -2.20318 0
M  V30 5012 H 475.867 4.1087 -0.670196 0
M  V30 5013 H 476.4 3.32812 -2.17902 0
M  V30 5014 H 473.139 4.17303 -5.05508 0
M  V30 5015 H 472.659 4.87574 -3.49331 0
M  V30 5016 H 474.338 5.03215 -4.06674 0
M  V30 5017 N 474.47 1.03057 1.19235 0
M  V30 5018 C 475.38 0.622922 2.26179 0
M  V30 5019 C 476.396 -0.346113 1.70523 0
M  V30 5020 O 477.572 -0.203572 2.00369 0
M  V30 5021 C 474.637 -0.0182063 3.46695 0
M  V30 5022 C 473.698 0.998546 4.17526 0
M  V30 5023 C 472.931 0.387917 5.32288 0
M  V30 5024 O 473.154 -0.808668 5.64639 0
M  V30 5025 O 472.088 1.1116 5.91546 0
M  V30 5026 H 475.914 1.51363 2.63292 0
M  V30 5027 H 473.499 0.800856 1.26122 0
M  V30 5028 H 475.381 -0.375606 4.19723 0
M  V30 5029 H 474.056 -0.882895 3.11427 0
M  V30 5030 H 472.963 1.40756 3.4661 0
M  V30 5031 H 474.296 1.83366 4.56769 0
M  V30 5032 N 475.948 -1.35272 0.808662 0
M  V30 5033 C 477.197 -1.97963 0.386483 0
M  V30 5034 C 477.51 -1.64866 -1.05255 0
M  V30 5035 O 478.716 -2.20937 -1.57794 0
M  V30 5036 C 477.172 -3.54162 0.640096 0
M  V30 5037 C 476.78 -3.96166 2.0918 0
M  V30 5038 C 478.524 -4.23553 0.283376 0
M  V30 5039 C 476.431 -5.4522 2.29106 0
M  V30 5040 H 475.361 -0.740742 0.140774 0
M  V30 5041 H 478.012 -1.5431 0.993012 0
M  V30 5042 H 476.394 -3.95983 -0.0364117 0
M  V30 5043 H 477.568 -3.65491 2.80629 0
M  V30 5044 H 475.883 -3.3967 2.40859 0
M  V30 5045 H 478.48 -5.33124 0.410273 0
M  V30 5046 H 478.823 -4.09105 -0.770659 0
M  V30 5047 H 479.356 -3.8716 0.913884 0
M  V30 5048 H 476.095 -5.64638 3.32962 0
M  V30 5049 H 475.615 -5.77457 1.62184 0
M  V30 5050 H 477.294 -6.1171 2.1076 0
M  V30 5051 N 477.426 -0.562348 -1.47226 0
M  V30 5052 C 478.651 -0.0432632 -2.07355 0
M  V30 5053 C 479.076 1.24332 -1.41149 0
M  V30 5054 O 478.434 1.74603 -0.488226 0
M  V30 5055 C 478.482 0.130288 -3.60365 0
M  V30 5056 O 477.586 1.19166 -3.94808 0
M  V30 5057 H 476.927 -0.0536334 -0.66183 0
M  V30 5058 H 479.457 -0.779495 -1.89169 0
M  V30 5059 H 479.467 0.342881 -4.06557 0
M  V30 5060 H 478.142 -0.809389 -4.07948 0
M  V30 5061 H 476.719 0.959153 -3.60354 0
M  V30 5062 N 478.904 1.54736 -0.299062 0
M  V30 5063 C 480.151 2.00101 0.310784 0
M  V30 5064 C 480.479 1.18746 1.54045 0
M  V30 5065 O 479.734 0.251198 1.94081 0
M  V30 5066 C 480.033 3.50199 0.713835 0
M  V30 5067 C 479.699 4.48997 -0.413873 0
M  V30 5068 C 478.361 4.7573 -0.723462 0
M  V30 5069 C 480.713 5.07839 -1.17257 0
M  V30 5070 C 478.041 5.5857 -1.79491 0
M  V30 5071 C 480.393 5.91844 -2.23392 0
M  V30 5072 C 479.057 6.16889 -2.54959 0
M  V30 5073 H 478.327 0.732221 0.113724 0
M  V30 5074 H 480.974 1.86888 -0.417756 0
M  V30 5075 H 479.279 3.61012 1.52243 0
M  V30 5076 H 480.976 3.82723 1.19684 0
M  V30 5077 H 477.566 4.28292 -0.162476 0
M  V30 5078 H 481.75 4.87188 -0.946651 0
M  V30 5079 H 477.006 5.76213 -2.04423 0
M  V30 5080 H 481.18 6.36465 -2.8264 0
M  V30 5081 H 478.807 6.80869 -3.38114 0
M  V30 5082 N 480.382 0.0267497 1.57577 0
M  V30 5083 C 481.63 -0.651116 1.91324 0
M  V30 5084 C 481.951 -1.72804 0.90353 0
M  V30 5085 O 481.221 -1.95822 -0.0552946 0
M  V30 5086 H 479.801 -0.243491 0.706202 0
M  V30 5087 H 482.463 0.0739935 1.94759 0
M  V30 5088 H 481.559 -1.10536 2.9187 0
M  V30 5089 N 481.861 -1.55662 -0.24637 0
M  V30 5090 C 483.108 -1.77519 -0.974335 0
M  V30 5091 C 483.436 -0.591165 -1.85298 0
M  V30 5092 O 482.691 0.425497 -1.91018 0
M  V30 5093 C 482.99 -3.04885 -1.86494 0
M  V30 5094 C 482.656 -4.36209 -1.14161 0
M  V30 5095 C 481.318 -4.71896 -0.941701 0
M  V30 5096 C 483.67 -5.17391 -0.628957 0
M  V30 5097 C 480.998 -5.86299 -0.216852 0
M  V30 5098 C 483.35 -6.32546 0.0824273 0
M  V30 5099 C 482.014 -6.66853 0.293807 0
M  V30 5100 H 481.284 -0.649588 -0.356535 0
M  V30 5101 H 483.931 -1.89934 -0.244394 0
M  V30 5102 H 482.236 -2.87484 -2.66196 0
M  V30 5103 H 483.933 -3.18994 -2.42989 0
M  V30 5104 H 480.523 -4.08174 -1.30736 0
M  V30 5105 H 484.707 -4.90276 -0.770943 0
M  V30 5106 H 479.963 -6.11385 -0.0426124 0
M  V30 5107 H 484.137 -6.94693 0.487292 0
M  V30 5108 H 481.764 -7.55349 0.857428 0
M  V30 5109 N 483.339 0.512053 -1.4905 0
M  V30 5110 C 484.616 1.27337 -1.48474 0
M  V30 5111 C 484.996 2.1009 -0.206301 0
M  V30 5112 O 484.344 2.136 0.811609 0
M  V30 5113 C 484.554 2.13954 -2.75726 0
M  V30 5114 C 485.902 2.73507 -3.24776 0
M  V30 5115 O 486.926 2.24229 -2.76767 0
M  V30 5116 O 485.785 3.63186 -4.08361 0
M  V30 5117 H 482.879 0.575652 -0.593762 0
M  V30 5118 H 485.425 0.527232 -1.61302 0
M  V30 5119 H 484.197 1.52709 -3.60272 0
M  V30 5120 H 483.82 2.95782 -2.65705 0
M  V30 5121 N 484.817 1.37938 0.762283 0
M  V30 5122 C 486.045 1.36883 1.55147 0
M  V30 5123 C 486.46 -0.0435348 1.8875 0
M  V30 5124 O 485.817 -1.00786 1.52146 0
M  V30 5125 C 485.868 2.21624 2.85596 0
M  V30 5126 O 485.589 3.57358 2.5343 0
M  V30 5127 C 487.09 2.28653 3.7978 0
M  V30 5128 H 484.31 0.468521 0.480343 0
M  V30 5129 H 486.854 1.81404 0.944079 0
M  V30 5130 H 485.009 1.80588 3.42734 0
M  V30 5131 H 485.423 4.01883 3.37032 0
M  V30 5132 H 486.897 2.9225 4.68288 0
M  V30 5133 H 487.374 1.29767 4.19592 0
M  V30 5134 H 487.98 2.70043 3.28568 0
M  V30 5135 N 486.295 -0.989507 1.22664 0
M  V30 5136 C 487.258 -2.06183 1.00106 0
M  V30 5137 C 488.258 -1.60765 -0.0337726 0
M  V30 5138 O 489.448 -1.72989 0.205072 0
M  V30 5139 C 486.58 -3.37021 0.51279 0
M  V30 5140 H 487.773 -2.27629 1.95256 0
M  V30 5141 H 485.326 -1.16158 1.0458 0
M  V30 5142 H 486.061 -3.21261 -0.442917 0
M  V30 5143 H 485.846 -3.71323 1.25942 0
M  V30 5144 H 487.336 -4.1591 0.375315 0
M  V30 5145 N 487.773 -1.03688 -1.18687 0
M  V30 5146 C 489.001 -0.757918 -1.92518 0
M  V30 5147 C 489.416 0.684398 -1.75959 0
M  V30 5148 O 488.773 1.46617 -1.08673 0
M  V30 5149 C 488.824 -1.10985 -3.44042 0
M  V30 5150 O 488.545 -2.49554 -3.60076 0
M  V30 5151 C 490.046 -0.854844 -4.3498 0
M  V30 5152 H 487.266 -0.276699 -0.611293 0
M  V30 5153 H 489.81 -1.38352 -1.50595 0
M  V30 5154 H 487.965 -0.529279 -3.83767 0
M  V30 5155 H 488.379 -2.6291 -4.53849 0
M  V30 5156 H 489.853 -1.15098 -5.39867 0
M  V30 5157 H 490.33 0.210507 -4.38695 0
M  V30 5158 H 490.936 -1.41853 -4.00946 0
M  V30 5159 N 489.251 1.34841 -0.815825 0
M  V30 5160 C 490.667 1.51543 -0.500697 0
M  V30 5161 C 490.867 1.76261 0.976444 0
M  V30 5162 O 489.923 1.8094 1.76117 0
M  V30 5163 C 491.236 2.68487 -1.35407 0
M  V30 5164 C 492.784 2.82368 -1.35046 0
M  V30 5165 C 493.259 4.02347 -2.18816 0
M  V30 5166 N 494.75 4.09542 -2.16402 0
M  V30 5167 C 495.485 5.01517 -2.77971 0
M  V30 5168 N 494.981 5.98763 -3.48503 0
M  V30 5169 N 496.774 4.94334 -2.67563 0
M  V30 5170 H 488.925 1.17055 -1.77234 0
M  V30 5171 H 491.188 0.573481 -0.754866 0
M  V30 5172 H 490.894 2.56829 -2.40274 0
M  V30 5173 H 490.768 3.63321 -1.01377 0
M  V30 5174 H 493.155 2.93471 -0.309604 0
M  V30 5175 H 493.236 1.88363 -1.73069 0
M  V30 5176 H 492.88 3.92004 -3.22948 0
M  V30 5177 H 492.81 4.95551 -1.78148 0
M  V30 5178 H 495.301 3.39932 -1.65091 0
M  V30 5179 H 495.614 6.6556 -3.92747 0
M  V30 5180 H 493.959 5.98909 -3.52609 0
M  V30 5181 H 497.15 4.1732 -2.12041 0
M  V30 5182 H 497.323 5.6582 -3.15834 0
M  V30 5183 N 490.729 0.570148 1.46925 0
M  V30 5184 C 491.957 0.0561966 2.06824 0
M  V30 5185 C 492.372 -1.24326 1.42086 0
M  V30 5186 O 491.729 -1.74882 0.521794 0
M  V30 5187 C 491.78 -0.129517 3.61268 0
M  V30 5188 O 491.501 1.1185 4.23581 0
M  V30 5189 C 493.002 -0.679266 4.38065 0
M  V30 5190 H 490.222 0.0517261 0.669003 0
M  V30 5191 H 492.766 0.787243 1.8874 0
M  V30 5192 H 490.921 -0.810739 3.78822 0
M  V30 5193 H 491.335 0.924375 5.1629 0
M  V30 5194 H 492.809 -0.758445 5.46765 0
M  V30 5195 H 493.286 -1.69346 4.05239 0
M  V30 5196 H 493.892 -0.0333237 4.25287 0
M  V30 5197 N 492.207 -1.54576 0.307264 0
M  V30 5198 C 493.437 -2.04378 -0.302158 0
M  V30 5199 C 493.845 -1.18381 -1.47589 0
M  V30 5200 O 493.188 -0.20352 -1.82569 0
M  V30 5201 C 493.25 -3.50133 -0.815305 0
M  V30 5202 C 492.914 -4.56401 0.233977 0
M  V30 5203 C 493.911 -5.08884 1.06456 0
M  V30 5204 C 491.596 -5.0088 0.377478 0
M  V30 5205 C 493.59 -6.04394 2.02452 0
M  V30 5206 C 491.277 -5.96208 1.34088 0
M  V30 5207 C 492.275 -6.47849 2.16288 0
M  V30 5208 O 491.963 -7.41308 3.10994 0
M  V30 5209 H 491.695 -0.672502 -0.0686839 0
M  V30 5210 H 494.249 -2.00484 0.446682 0
M  V30 5211 H 492.479 -3.51371 -1.61478 0
M  V30 5212 H 494.168 -3.83098 -1.34129 0
M  V30 5213 H 494.934 -4.75311 0.964596 0
M  V30 5214 H 490.813 -4.60309 -0.252405 0
M  V30 5215 H 494.357 -6.44626 2.66652 0
M  V30 5216 H 490.254 -6.29198 1.44154 0
M  V30 5217 H 491.022 -7.5913 3.06045 0
M  V30 5218 N 493.685 -0.035106 -1.57561 0
M  V30 5219 C 494.91 0.655802 -1.96759 0
M  V30 5220 C 495.335 1.64523 -0.911809 0
M  V30 5221 O 494.693 1.80857 0.126673 0
M  V30 5222 C 494.741 1.33326 -3.35047 0
M  V30 5223 O 493.845 2.44866 -3.31835 0
M  V30 5224 H 493.186 0.171807 -0.641388 0
M  V30 5225 H 495.716 -0.0987369 -2.04362 0
M  V30 5226 H 495.726 1.68867 -3.71413 0
M  V30 5227 H 494.401 0.608033 -4.11431 0
M  V30 5228 H 492.978 2.11392 -3.07193 0
M  V30 5229 N 495.163 1.55791 0.238111 0
M  V30 5230 C 496.073 1.94196 1.31625 0
M  V30 5231 C 497.089 0.843545 1.52185 0
M  V30 5232 O 498.265 1.1457 1.65637 0
M  V30 5233 C 495.33 2.2365 2.64918 0
M  V30 5234 C 494.391 3.46971 2.52804 0
M  V30 5235 C 493.624 3.7501 3.79741 0
M  V30 5236 O 493.847 3.04982 4.82019 0
M  V30 5237 O 492.781 4.68525 3.77846 0
M  V30 5238 H 496.607 2.86044 1.02043 0
M  V30 5239 H 494.192 1.42786 0.439603 0
M  V30 5240 H 496.074 2.43863 3.4367 0
M  V30 5241 H 494.749 1.34979 2.94215 0
M  V30 5242 H 493.656 3.32055 1.72309 0
M  V30 5243 H 494.989 4.35971 2.28451 0
M  V30 5244 N 496.642 -0.504142 1.49319 0
M  V30 5245 C 497.891 -1.25507 1.57895 0
M  V30 5246 C 498.204 -1.93735 0.269433 0
M  V30 5247 O 499.41 -2.70492 0.233706 0
M  V30 5248 C 497.866 -2.27869 2.78574 0
M  V30 5249 C 497.474 -1.65594 4.16272 0
M  V30 5250 C 499.218 -3.0381 2.96479 0
M  V30 5251 C 497.125 -2.66048 5.28178 0
M  V30 5252 H 496.055 -0.47212 0.587894 0
M  V30 5253 H 498.706 -0.52931 1.757 0
M  V30 5254 H 497.088 -3.03594 2.54257 0
M  V30 5255 H 498.262 -0.958826 4.50714 0
M  V30 5256 H 496.577 -1.02055 4.037 0
M  V30 5257 H 499.174 -3.78925 3.77253 0
M  V30 5258 H 499.517 -3.61235 2.06918 0
M  V30 5259 H 500.05 -2.352 3.20821 0
M  V30 5260 H 496.789 -2.13408 6.19788 0
M  V30 5261 H 496.309 -3.34009 4.98195 0
M  V30 5262 H 497.988 -3.28536 5.57381 0
M  V30 5263 N 498.12 -1.38341 -0.754957 0
M  V30 5264 C 499.369 -1.33791 -1.5094 0
M  V30 5265 C 499.682 0.0699267 -1.95475 0
M  V30 5266 O 500.888 0.237956 -2.70455 0
M  V30 5267 C 499.344 -2.34934 -2.72643 0
M  V30 5268 C 498.952 -3.81332 -2.35138 0
M  V30 5269 C 500.696 -2.39425 -3.50536 0
M  V30 5270 C 498.603 -4.74164 -3.53444 0
M  V30 5271 H 497.533 -0.497314 -0.566741 0
M  V30 5272 H 500.184 -1.63888 -0.825403 0
M  V30 5273 H 498.566 -1.97878 -3.43017 0
M  V30 5274 H 499.74 -4.27319 -1.7244 0
M  V30 5275 H 498.055 -3.79946 -1.70382 0
M  V30 5276 H 500.652 -3.0598 -4.38498 0
M  V30 5277 H 500.995 -1.41278 -3.91594 0
M  V30 5278 H 501.528 -2.75274 -2.87174 0
M  V30 5279 H 498.267 -5.73501 -3.17453 0
M  V30 5280 H 497.787 -4.3287 -4.15191 0
M  V30 5281 H 499.466 -4.92111 -4.20043 0
M  V30 5282 N 499.598 0.982988 -1.23187 0
M  V30 5283 C 500.846 1.72052 -1.06031 0
M  V30 5284 C 501.167 1.90769 0.404019 0
M  V30 5285 O 500.437 1.47446 1.28982 0
M  V30 5286 H 499.017 0.637499 -0.389363 0
M  V30 5287 H 501.679 1.18338 -1.54862 0
M  V30 5288 H 500.775 2.7111 -1.54615 0
M  V30 5289 N 501.076 1.04316 1.18135 0
M  V30 5290 C 502.024 0.630175 2.23901 0
M  V30 5291 C 503.018 -0.344254 1.65865 0
M  V30 5292 O 504.224 -0.211273 1.78756 0
M  V30 5293 H 500.599 0.185578 0.728742 0
M  V30 5294 H 502.57 1.53253 2.56039 0
M  V30 5295 C 501.319 0.011666 3.47698 0
M  V30 5296 H 500.642 0.752526 3.92654 0
M  V30 5297 H 502.082 -0.240046 4.2332 0
M  V30 5298 C 500.541 -1.23913 3.13285 0
M  V30 5299 O 501.071 -2.32959 3.27251 0
M  V30 5300 N 499.277 -1.13338 2.67587 0
M  V30 5301 H 498.824 -0.246006 2.56423 0
M  V30 5302 H 498.782 -1.97116 2.44934 0
M  V30 5303 N 502.554 -1.34406 0.822964 0
M  V30 5304 C 503.484 -2.32052 0.259608 0
M  V30 5305 C 504.465 -1.58243 -0.623961 0
M  V30 5306 O 505.65 -1.86224 -0.55083 0
M  V30 5307 C 502.78 -3.42434 -0.579314 0
M  V30 5308 C 501.734 -4.27499 0.20712 0
M  V30 5309 C 501.06 -5.29349 -0.754547 0
M  V30 5310 C 502.36 -5.02758 1.41533 0
M  V30 5311 H 504.054 -2.79418 1.07545 0
M  V30 5312 H 501.6 -1.34338 0.518593 0
M  V30 5313 H 503.553 -4.0976 -0.983612 0
M  V30 5314 H 502.277 -2.93717 -1.4282 0
M  V30 5315 H 500.936 -3.61776 0.592787 0
M  V30 5316 H 500.584 -4.76895 -1.59939 0
M  V30 5317 H 500.284 -5.8714 -0.232561 0
M  V30 5318 H 501.808 -5.99544 -1.1567 0
M  V30 5319 H 503.222 -5.62938 1.08504 0
M  V30 5320 H 501.619 -5.70123 1.87296 0
M  V30 5321 H 502.689 -4.32451 2.1935 0
M  V30 5322 N 504.032 -0.577932 -1.46621 0
M  V30 5323 C 505.272 -0.0643097 -2.04299 0
M  V30 5324 C 505.636 1.26967 -1.44026 0
M  V30 5325 O 506.837 1.87224 -1.92875 0
M  V30 5326 C 505.108 0.00547588 -3.574 0
M  V30 5327 S 506.667 0.462216 -4.36359 0
M  V30 5328 H 503.485 -0.0351573 -0.71013 0
M  V30 5329 H 506.087 -0.76935 -1.79725 0
M  V30 5330 H 504.791 -0.969423 -3.98786 0
M  V30 5331 H 504.322 0.733435 -3.86503 0
M  V30 5332 H 506.337 1.71791 -4.65513 0
M  V30 5333 N 505.51 1.54411 -0.315457 0
M  V30 5334 C 506.738 2.04833 0.291738 0
M  V30 5335 C 507.153 1.19203 1.46411 0
M  V30 5336 O 506.51 0.220867 1.81159 0
M  V30 5337 C 506.561 3.53969 0.73404 0
M  V30 5338 O 506.282 4.36346 -0.391682 0
M  V30 5339 C 507.783 4.2045 1.40489 0
M  V30 5340 H 505.003 0.668195 0.0612947 0
M  V30 5341 H 507.547 1.99276 -0.45929 0
M  V30 5342 H 505.702 3.5984 1.43506 0
M  V30 5343 H 506.116 5.24481 -0.0447088 0
M  V30 5344 H 507.59 5.26278 1.66539 0
M  V30 5345 H 508.067 3.71067 2.3496 0
M  V30 5346 H 508.673 4.18694 0.746662 0
M  V30 5347 N 506.988 0.0434614 1.5754 0
M  V30 5348 C 508.265 -0.671479 1.83713 0
M  V30 5349 C 508.645 -1.89495 0.930315 0
M  V30 5350 O 507.993 -2.28498 -0.0105639 0
M  V30 5351 C 508.203 -1.0361 3.33266 0
M  V30 5352 C 509.551 -1.42167 4.00092 0
M  V30 5353 O 510.575 -1.12866 3.37846 0
M  V30 5354 O 509.434 -1.96817 5.09829 0
M  V30 5355 H 506.528 -0.330726 0.75799 0
M  V30 5356 H 509.074 0.0722373 1.69546 0
M  V30 5357 H 507.846 -0.165938 3.90948 0
M  V30 5358 H 507.469 -1.83751 3.52592 0
M  V30 5359 N 508.466 -1.55915 -0.229846 0
M  V30 5360 C 509.712 -1.78807 -0.956868 0
M  V30 5361 C 510.045 -0.611687 -1.84315 0
M  V30 5362 O 509.32 0.389398 -1.90562 0
M  V30 5363 C 509.603 -3.11718 -1.80288 0
M  V30 5364 C 509.456 -4.3979 -0.943649 0
M  V30 5365 C 510.775 -3.40999 -2.78222 0
M  V30 5366 H 507.894 -0.6505 -0.346437 0
M  V30 5367 H 510.536 -1.88648 -0.226252 0
M  V30 5368 H 508.686 -3.03459 -2.42579 0
M  V30 5369 H 510.358 -4.60059 -0.338121 0
M  V30 5370 H 508.601 -4.33086 -0.248705 0
M  V30 5371 H 509.272 -5.29208 -1.5698 0
M  V30 5372 H 511.748 -3.49332 -2.26067 0
M  V30 5373 H 510.624 -4.35183 -3.34526 0
M  V30 5374 H 510.885 -2.62754 -3.55546 0
M  V30 5375 N 509.944 0.496216 -1.49584 0
M  V30 5376 C 510.891 1.59722 -1.66606 0
M  V30 5377 C 511.861 1.58158 -0.507477 0
M  V30 5378 O 513.046 1.76072 -0.735076 0
M  V30 5379 C 510.186 2.97844 -1.74308 0
M  V30 5380 C 509.299 3.09388 -3.01502 0
M  V30 5381 C 508.434 4.38271 -3.00153 0
M  V30 5382 C 507.473 4.43466 -4.21906 0
M  V30 5383 N 506.61 5.63784 -4.1844 0
M  V30 5384 H 511.45 1.44515 -2.60613 0
M  V30 5385 H 508.987 0.703048 -1.29212 0
M  V30 5386 H 510.945 3.77907 -1.76754 0
M  V30 5387 H 509.575 3.11743 -0.837619 0
M  V30 5388 H 508.627 2.22357 -3.08645 0
M  V30 5389 H 509.939 3.09085 -3.91494 0
M  V30 5390 H 509.093 5.2666 -3.01188 0
M  V30 5391 H 507.832 4.41146 -2.07947 0
M  V30 5392 H 506.837 3.53478 -4.21109 0
M  V30 5393 H 508.062 4.42303 -5.1531 0
M  V30 5394 H 506.008 5.67491 -3.29074 0
M  V30 5395 H 505.925 5.65118 -5.02173 0
M  V30 5396 H 507.193 6.54367 -4.23585 0
M  V30 5397 N 511.423 1.38739 0.74761 0
M  V30 5398 C 512.651 1.38521 1.53686 0
M  V30 5399 C 513.066 -0.0235129 1.88785 0
M  V30 5400 O 512.423 -0.991662 1.53207 0
M  V30 5401 C 512.474 2.24641 2.83229 0
M  V30 5402 O 512.195 3.60026 2.49625 0
M  V30 5403 C 513.696 2.32669 3.77333 0
M  V30 5404 H 510.916 0.473589 0.475347 0
M  V30 5405 H 513.46 1.82395 0.924786 0
M  V30 5406 H 511.615 1.84213 3.40799 0
M  V30 5407 H 512.029 4.05435 3.3275 0
M  V30 5408 H 513.503 2.97201 4.65162 0
M  V30 5409 H 513.98 1.3421 4.18192 0
M  V30 5410 H 514.586 2.73512 3.25685 0
M  V30 5411 N 512.901 -0.976442 1.23707 0
M  V30 5412 C 514.149 -1.71487 1.06942 0
M  V30 5413 C 514.47 -1.9098 -0.393897 0
M  V30 5414 O 513.74 -1.48128 -1.28198 0
M  V30 5415 H 512.32 -0.635425 0.392739 0
M  V30 5416 H 514.982 -1.17515 1.55487 0
M  V30 5417 H 514.078 -2.70286 1.56051 0
M  V30 5418 N 514.379 -1.04941 -1.1758 0
M  V30 5419 C 515.329 -0.618378 -2.19454 0
M  V30 5420 C 516.313 0.343813 -1.57184 0
M  V30 5421 O 517.505 0.16145 -1.76262 0
M  V30 5422 C 514.634 0.00803847 -3.43299 0
M  V30 5423 C 513.72 -0.977827 -4.12673 0
M  V30 5424 N 514.111 -2.14826 -4.57912 0
M  V30 5425 C 512.409 -0.805748 -4.38661 0
M  V30 5426 C 513.11 -2.77174 -5.11419 0
M  V30 5427 N 512.086 -2.04989 -5.03468 0
M  V30 5428 H 515.888 -1.51018 -2.52132 0
M  V30 5429 H 513.402 -0.919201 -1.33882 0
M  V30 5430 H 515.399 0.334584 -4.15555 0
M  V30 5431 H 514.059 0.895272 -3.12114 0
M  V30 5432 H 515.07 -2.52673 -4.52081 0
M  V30 5433 H 511.747 0.0306506 -4.17489 0
M  V30 5434 H 513.137 -3.76416 -5.56562 0
M  V30 5435 N 515.857 1.33968 -0.830081 0
M  V30 5436 C 516.805 2.31301 -0.245435 0
M  V30 5437 C 517.799 1.57734 0.617762 0
M  V30 5438 O 519.005 1.72674 0.508303 0
M  V30 5439 H 515.38 0.749552 -0.0606316 0
M  V30 5440 H 517.351 2.78129 -1.08105 0
M  V30 5441 C 516.1 3.42961 0.572084 0
M  V30 5442 H 515.423 3.99714 -0.0828118 0
M  V30 5443 H 516.863 4.13286 0.94715 0
M  V30 5444 C 515.322 2.88043 1.74737 0
M  V30 5445 O 515.852 2.83508 2.8458 0
M  V30 5446 N 514.058 2.44768 1.56642 0
M  V30 5447 H 513.605 2.48656 0.672901 0
M  V30 5448 H 513.563 2.08375 2.3543 0
M  V30 5449 N 517.335 0.585699 1.46312 0
M  V30 5450 C 518.581 0.0725284 2.0267 0
M  V30 5451 C 518.914 -1.28523 1.45586 0
M  V30 5452 O 518.189 -1.84283 0.622101 0
M  V30 5453 C 518.472 0.0099788 3.60099 0
M  V30 5454 C 518.325 1.39685 4.27561 0
M  V30 5455 C 519.644 -0.689117 4.34671 0
M  V30 5456 H 516.763 0.0278307 0.736474 0
M  V30 5457 H 519.405 0.753472 1.74421 0
M  V30 5458 H 517.555 -0.56992 3.84297 0
M  V30 5459 H 519.227 2.02215 4.14617 0
M  V30 5460 H 517.47 1.96374 3.86807 0
M  V30 5461 H 518.141 1.30553 5.36339 0
M  V30 5462 H 520.617 -0.196446 4.15636 0
M  V30 5463 H 519.493 -0.701921 5.44393 0
M  V30 5464 H 519.754 -1.75101 4.05946 0
M  V30 5465 N 518.813 -1.54241 0.323641 0
M  V30 5466 C 520.043 -2.04687 -0.280464 0
M  V30 5467 C 520.451 -1.19939 -1.46326 0
M  V30 5468 O 519.794 -0.222872 -1.82343 0
M  V30 5469 C 519.856 -3.50978 -0.778123 0
M  V30 5470 C 519.52 -4.56127 0.282371 0
M  V30 5471 C 520.517 -5.07726 1.11847 0
M  V30 5472 C 518.202 -5.00451 0.430582 0
M  V30 5473 C 520.196 -6.02212 2.08851 0
M  V30 5474 C 517.883 -5.94752 1.40404 0
M  V30 5475 C 518.881 -6.45519 2.23147 0
M  V30 5476 O 518.569 -7.37968 3.1884 0
M  V30 5477 H 518.301 -0.673192 -0.0615473 0
M  V30 5478 H 520.855 -1.99999 0.467921 0
M  V30 5479 H 519.085 -3.53064 -1.57742 0
M  V30 5480 H 520.774 -3.84499 -1.30058 0
M  V30 5481 H 521.54 -4.74261 1.01496 0
M  V30 5482 H 517.419 -4.6055 -0.203569 0
M  V30 5483 H 520.963 -6.41761 2.73474 0
M  V30 5484 H 516.86 -6.27633 1.5082 0
M  V30 5485 H 517.628 -7.55841 3.14079 0
M  V30 5486 N 520.291 -0.0518155 -1.57515 0
M  V30 5487 C 521.241 0.932017 -2.0808 0
M  V30 5488 C 522.225 1.27141 -0.986098 0
M  V30 5489 O 523.417 1.25373 -1.24943 0
M  V30 5490 C 520.546 2.20665 -2.62986 0
M  V30 5491 C 519.632 1.89462 -3.79427 0
M  V30 5492 N 520.023 1.28621 -4.89173 0
M  V30 5493 C 518.321 2.19327 -3.88345 0
M  V30 5494 C 519.022 1.15062 -5.70207 0
M  V30 5495 N 517.998 1.65372 -5.17835 0
M  V30 5496 H 521.8 0.456964 -2.90326 0
M  V30 5497 H 519.314 0.152619 -1.61681 0
M  V30 5498 H 521.311 2.92044 -2.97516 0
M  V30 5499 H 519.971 2.68776 -1.8218 0
M  V30 5500 H 520.982 0.958341 -5.08956 0
M  V30 5501 H 517.659 2.69955 -3.18482 0
M  V30 5502 H 519.049 0.678243 -6.68468 0
M  V30 5503 N 521.769 1.56035 0.221574 0
M  V30 5504 C 523.015 1.79312 0.947372 0
M  V30 5505 C 523.348 0.621453 1.83988 0
M  V30 5506 O 522.623 -0.379287 1.90766 0
M  V30 5507 C 522.906 3.1267 1.78633 0
M  V30 5508 C 522.759 4.40284 0.920312 0
M  V30 5509 C 524.078 3.4247 2.7641 0
M  V30 5510 H 521.197 0.652328 0.342982 0
M  V30 5511 H 523.839 1.88765 0.216244 0
M  V30 5512 H 521.989 3.04741 2.40967 0
M  V30 5513 H 523.661 4.60232 0.313718 0
M  V30 5514 H 521.904 4.33212 0.225734 0
M  V30 5515 H 522.575 5.30033 1.54171 0
M  V30 5516 H 525.051 3.50526 2.24211 0
M  V30 5517 H 523.927 4.3695 3.32213 0
M  V30 5518 H 524.188 2.64635 3.54148 0
M  V30 5519 N 523.247 -0.488276 1.49845 0
M  V30 5520 C 524.493 -1.24341 1.6021 0
M  V30 5521 C 524.826 -1.91967 0.293651 0
M  V30 5522 O 524.101 -1.81323 -0.703718 0
M  V30 5523 C 524.384 -2.3005 2.77036 0
M  V30 5524 C 524.237 -1.66842 4.17713 0
M  V30 5525 C 525.556 -3.31509 2.89464 0
M  V30 5526 H 522.675 -0.450704 0.583125 0
M  V30 5527 H 525.317 -0.539673 1.82174 0
M  V30 5528 H 523.467 -2.90071 2.58439 0
M  V30 5529 H 525.139 -1.1055 4.47858 0
M  V30 5530 H 523.382 -0.972079 4.22768 0
M  V30 5531 H 524.053 -2.43576 4.95353 0
M  V30 5532 H 526.529 -2.81493 3.06433 0
M  V30 5533 H 525.405 -4.02822 3.72861 0
M  V30 5534 H 525.666 -3.94603 1.99351 0
M  V30 5535 N 524.725 -1.39134 -0.740242 0
M  V30 5536 C 526.141 -1.20623 -1.0451 0
M  V30 5537 C 526.341 -0.0641651 -2.01398 0
M  V30 5538 O 525.397 0.585843 -2.4561 0
M  V30 5539 C 526.71 -2.53815 -1.6124 0
M  V30 5540 C 528.258 -2.60615 -1.73346 0
M  V30 5541 C 528.733 -3.94015 -2.33486 0
M  V30 5542 N 530.224 -3.95627 -2.40902 0
M  V30 5543 C 530.959 -4.95616 -2.88361 0
M  V30 5544 N 530.455 -6.06003 -3.35756 0
M  V30 5545 N 532.248 -4.82998 -2.87523 0
M  V30 5546 H 524.399 -2.12176 -0.0975576 0
M  V30 5547 H 526.662 -0.942066 -0.105904 0
M  V30 5548 H 526.368 -3.37911 -0.975144 0
M  V30 5549 H 526.242 -2.73162 -2.6012 0
M  V30 5550 H 528.629 -1.76906 -2.36195 0
M  V30 5551 H 528.71 -2.45123 -0.731336 0
M  V30 5552 H 528.354 -4.78153 -1.71267 0
M  V30 5553 H 528.284 -4.06825 -3.34366 0
M  V30 5554 H 530.775 -3.15903 -2.07398 0
M  V30 5555 H 531.088 -6.78215 -3.70464 0
M  V30 5556 H 529.433 -6.09604 -3.33778 0
M  V30 5557 H 532.624 -3.95866 -2.49816 0
M  V30 5558 H 532.797 -5.61072 -3.24196 0
M  V30 5559 N 526.204 0.969867 -1.24223 0
M  V30 5560 C 527.45 1.7151 -1.08223 0
M  V30 5561 C 527.783 1.90478 0.37838 0
M  V30 5562 O 527.058 1.4647 1.27971 0
M  V30 5563 C 527.341 3.10714 -1.82013 0
M  V30 5564 C 527.194 2.9925 -3.35811 0
M  V30 5565 C 528.513 4.10332 -1.59108 0
M  V30 5566 H 525.632 0.622499 -0.394543 0
M  V30 5567 H 528.274 1.1284 -1.52863 0
M  V30 5568 H 526.424 3.608 -1.44068 0
M  V30 5569 H 528.096 2.56608 -3.83341 0
M  V30 5570 H 526.339 2.35512 -3.64303 0
M  V30 5571 H 527.01 3.97857 -3.82641 0
M  V30 5572 H 529.486 3.69097 -1.92111 0
M  V30 5573 H 528.362 5.05804 -2.13198 0
M  V30 5574 H 528.623 4.38926 -0.528832 0
M  V30 5575 N 527.682 1.05563 1.17022 0
M  V30 5576 C 528.615 0.604197 2.20056 0
M  V30 5577 C 529.593 -0.369169 1.58354 0
M  V30 5578 O 530.777 -0.279898 1.8641 0
M  V30 5579 C 527.904 -0.115265 3.38504 0
M  V30 5580 C 526.95 0.813698 4.18666 0
M  V30 5581 S 527.783 2.30492 4.83357 0
M  V30 5582 C 528.939 1.59674 6.0519 0
M  V30 5583 H 529.172 1.47713 2.58008 0
M  V30 5584 H 526.705 0.867932 1.27696 0
M  V30 5585 H 528.663 -0.524162 4.0714 0
M  V30 5586 H 527.324 -0.964284 2.98932 0
M  V30 5587 H 526.517 0.256736 5.03346 0
M  V30 5588 H 526.119 1.16213 3.55486 0
M  V30 5589 H 528.411 0.898164 6.7152 0
M  V30 5590 H 529.354 2.42115 6.65422 0
M  V30 5591 H 529.762 1.08252 5.54023 0
M  V30 5592 N 529.16 -1.33526 0.837174 0
M  V30 5593 C 530.408 -1.97446 0.431211 0
M  V30 5594 C 530.729 -1.6665 -1.01255 0
M  V30 5595 O 529.999 -0.964559 -1.70508 0
M  V30 5596 H 528.579 -0.73043 0.156463 0
M  V30 5597 H 531.241 -1.62918 1.06976 0
M  V30 5598 H 530.337 -3.07001 0.561877 0
M  V30 5599 N 530.638 -0.59345 -1.46 0
M  V30 5600 C 532.054 -0.255965 -1.57534 0
M  V30 5601 C 532.254 1.24167 -1.58697 0
M  V30 5602 O 531.31 2.02398 -1.50968 0
M  V30 5603 C 532.623 -0.91466 -2.86451 0
M  V30 5604 C 534.171 -0.889253 -3.00102 0
M  V30 5605 C 534.646 -1.52769 -4.3177 0
M  V30 5606 N 536.137 -1.49253 -4.38495 0
M  V30 5607 C 536.872 -1.9558 -5.39014 0
M  V30 5608 N 536.368 -2.49929 -6.46148 0
M  V30 5609 N 538.161 -1.86432 -5.30282 0
M  V30 5610 H 530.312 -1.56604 -1.43489 0
M  V30 5611 H 532.575 -0.655207 -0.685133 0
M  V30 5612 H 532.281 -1.96861 -2.91442 0
M  V30 5613 H 532.155 -0.429356 -3.74748 0
M  V30 5614 H 534.542 0.156111 -2.94687 0
M  V30 5615 H 534.623 -1.41268 -2.13253 0
M  V30 5616 H 534.267 -2.57231 -4.37944 0
M  V30 5617 H 534.197 -0.979398 -5.17412 0
M  V30 5618 H 536.688 -1.09536 -3.61677 0
M  V30 5619 H 537.001 -2.83109 -7.19075 0
M  V30 5620 H 535.346 -2.53961 -6.46938 0
M  V30 5621 H 538.537 -1.43722 -4.4549 0
M  V30 5622 H 538.71 -2.22852 -6.08474 0
M  V30 5623 N 532.116 1.54067 -0.331816 0
M  V30 5624 C 533.341 2.05599 0.272705 0
M  V30 5625 C 533.766 1.2059 1.44359 0
M  V30 5626 O 533.124 0.216907 1.79998 0
M  V30 5627 C 533.172 3.54188 0.677021 0
M  V30 5628 O 532.276 3.72082 1.77844 0
M  V30 5629 H 531.617 0.662286 0.0476801 0
M  V30 5630 H 534.147 1.98826 -0.482624 0
M  V30 5631 H 534.157 3.96608 0.957415 0
M  V30 5632 H 532.832 4.15513 -0.179325 0
M  V30 5633 H 531.409 3.41566 1.49622 0
M  V30 5634 N 533.594 0.0601682 1.57485 0
M  V30 5635 C 534.557 -0.896373 2.10945 0
M  V30 5636 C 535.557 -1.23402 1.03095 0
M  V30 5637 O 536.747 -1.16921 1.29132 0
M  V30 5638 C 533.879 -2.20346 2.60116 0
M  V30 5639 H 535.072 -0.432778 2.96761 0
M  V30 5640 H 532.625 -0.188372 1.55161 0
M  V30 5641 H 533.36 -2.71268 1.7772 0
M  V30 5642 H 533.145 -1.9714 3.38937 0
M  V30 5643 H 534.635 -2.88846 3.01592 0
M  V30 5644 N 535.072 -1.5615 -0.213296 0
M  V30 5645 C 536.297 -1.83986 -0.957282 0
M  V30 5646 C 536.722 -0.641526 -1.76822 0
M  V30 5647 O 536.08 0.409722 -1.7661 0
M  V30 5648 C 536.128 -3.09889 -1.84393 0
M  V30 5649 O 535.232 -2.89163 -2.94038 0
M  V30 5650 H 534.573 -0.606357 -0.270605 0
M  V30 5651 H 537.103 -2.03369 -0.224111 0
M  V30 5652 H 537.113 -3.40209 -2.25215 0
M  V30 5653 H 535.788 -3.96735 -1.24795 0
M  V30 5654 H 534.365 -2.70097 -2.57103 0
M  V30 5655 N 536.55 0.480323 -1.50102 0
M  V30 5656 C 537.5 1.57685 -1.6468 0
M  V30 5657 C 538.484 1.52878 -0.5017 0
M  V30 5658 O 539.676 1.60058 -0.755668 0
M  V30 5659 C 536.805 2.96185 -1.73578 0
M  V30 5660 C 535.891 3.0591 -2.93734 0
M  V30 5661 N 536.282 2.85471 -4.1754 0
M  V30 5662 C 534.58 3.37036 -2.92101 0
M  V30 5663 C 535.281 2.99921 -4.9842 0
M  V30 5664 N 534.257 3.29715 -4.32191 0
M  V30 5665 H 538.059 1.40568 -2.58104 0
M  V30 5666 H 535.573 0.686874 -1.47159 0
M  V30 5667 H 537.57 3.75015 -1.82124 0
M  V30 5668 H 536.23 3.14356 -0.813057 0
M  V30 5669 H 537.241 2.61235 -4.47188 0
M  V30 5670 H 533.918 3.61253 -2.09291 0
M  V30 5671 H 535.308 2.88436 -6.06839 0
M  V30 5672 N 538.028 1.39524 0.732853 0
M  V30 5673 C 539.274 1.37068 1.49467 0
M  V30 5674 C 539.607 -0.0327166 1.94172 0
M  V30 5675 O 538.882 -0.998071 1.66939 0
M  V30 5676 C 539.165 2.34494 2.73285 0
M  V30 5677 C 539.018 3.83784 2.34585 0
M  V30 5678 C 540.337 2.29717 3.75391 0
M  V30 5679 H 537.456 0.499206 0.542183 0
M  V30 5680 H 540.098 1.70532 0.837783 0
M  V30 5681 H 538.248 2.06087 3.29333 0
M  V30 5682 H 539.92 4.22949 1.84151 0
M  V30 5683 H 538.163 4.00455 1.66787 0
M  V30 5684 H 538.834 4.47444 3.23262 0
M  V30 5685 H 541.31 2.54839 3.28932 0
M  V30 5686 H 540.186 2.99962 4.59689 0
M  V30 5687 H 540.447 1.30291 4.22465 0
M  V30 5688 N 539.506 -0.963266 1.24736 0
M  V30 5689 C 540.752 -1.70933 1.09131 0
M  V30 5690 C 541.085 -1.90676 -0.368273 0
M  V30 5691 O 540.36 -1.47147 -1.27193 0
M  V30 5692 C 540.643 -3.09744 1.83658 0
M  V30 5693 C 540.496 -2.97465 3.37394 0
M  V30 5694 C 541.815 -4.09483 1.61282 0
M  V30 5695 H 538.934 -0.620398 0.397838 0
M  V30 5696 H 541.576 -1.12028 1.53459 0
M  V30 5697 H 539.726 -3.60031 1.4598 0
M  V30 5698 H 541.398 -2.54571 3.84696 0
M  V30 5699 H 539.641 -2.33576 3.65547 0
M  V30 5700 H 540.312 -3.95822 3.84745 0
M  V30 5701 H 542.788 -3.68073 1.94066 0
M  V30 5702 H 541.664 -5.04666 2.15878 0
M  V30 5703 H 541.925 -4.38639 0.552102 0
M  V30 5704 N 540.985 -1.06182 -1.16461 0
M  V30 5705 C 541.915 -0.692861 -2.22984 0
M  V30 5706 C 542.896 0.314122 -1.67174 0
M  V30 5707 O 544.081 0.189499 -1.93273 0
M  V30 5708 C 541.211 -0.07732 -3.47214 0
M  V30 5709 C 540.165 -1.01015 -4.15909 0
M  V30 5710 C 539.491 -0.257973 -5.34077 0
M  V30 5711 C 540.791 -2.33868 -4.67015 0
M  V30 5712 H 542.485 -1.58343 -2.54102 0
M  V30 5713 H 540.031 -0.76279 -1.22137 0
M  V30 5714 H 541.984 0.19266 -4.20959 0
M  V30 5715 H 540.708 0.848254 -3.15392 0
M  V30 5716 H 539.367 -1.26486 -3.44088 0
M  V30 5717 H 539.015 0.670684 -4.98509 0
M  V30 5718 H 538.715 -0.879638 -5.80979 0
M  V30 5719 H 540.239 0.00448788 -6.106 0
M  V30 5720 H 541.653 -2.1279 -5.32347 0
M  V30 5721 H 540.05 -2.91522 -5.24533 0
M  V30 5722 H 541.12 -2.97019 -3.83286 0
M  V30 5723 N 542.463 1.3308 -0.844243 0
M  V30 5724 C 543.373 2.32876 -0.283922 0
M  V30 5725 C 544.389 1.63589 0.592846 0
M  V30 5726 O 545.565 1.95205 0.495693 0
M  V30 5727 C 542.63 3.42667 0.527283 0
M  V30 5728 C 541.691 4.27664 -0.374394 0
M  V30 5729 C 540.924 5.32212 0.39819 0
M  V30 5730 O 541.147 5.46635 1.62932 0
M  V30 5731 O 540.081 6.01458 -0.2306 0
M  V30 5732 H 543.907 2.82671 -1.11045 0
M  V30 5733 H 541.492 1.36518 -0.606903 0
M  V30 5734 H 543.374 4.09652 0.988078 0
M  V30 5735 H 542.049 2.95079 1.33078 0
M  V30 5736 H 540.956 3.63526 -0.883144 0
M  V30 5737 H 542.289 4.78749 -1.1428 0
M  V30 5738 N 543.941 0.601185 1.45683 0
M  V30 5739 C 545.181 0.0968037 2.04171 0
M  V30 5740 C 545.545 -1.2466 1.46027 0
M  V30 5741 O 546.746 -1.84132 1.95829 0
M  V30 5742 C 545.017 0.051384 3.57363 0
M  V30 5743 S 546.576 -0.392737 4.37039 0
M  V30 5744 H 543.394 0.0464504 0.709481 0
M  V30 5745 H 545.996 0.797846 1.78479 0
M  V30 5746 H 544.7 1.03274 3.97193 0
M  V30 5747 H 544.231 -0.671853 3.87621 0
M  V30 5748 H 546.246 -1.64364 4.68187 0
M  V30 5749 N 545.419 -1.53889 0.339982 0
M  V30 5750 C 546.382 -2.23547 -0.50592 0
M  V30 5751 C 547.382 -1.23445 -1.03044 0
M  V30 5752 O 548.572 -1.47909 -0.920253 0
M  V30 5753 C 545.704 -2.95234 -1.7044 0
M  V30 5754 H 546.897 -2.99722 0.103247 0
M  V30 5755 H 544.45 -1.56033 0.0912804 0
M  V30 5756 H 545.185 -2.23236 -2.35236 0
M  V30 5757 H 544.97 -3.68654 -1.33553 0
M  V30 5758 H 546.46 -3.48258 -2.30447 0
M  V30 5759 N 546.897 -0.0685191 -1.57451 0
M  V30 5760 C 547.827 0.89747 -2.15564 0
M  V30 5761 C 548.808 1.31266 -1.08181 0
M  V30 5762 O 549.993 1.38429 -1.36202 0
M  V30 5763 C 547.123 2.16623 -2.71463 0
M  V30 5764 C 546.077 1.89054 -3.83982 0
M  V30 5765 C 545.403 3.22532 -4.26471 0
M  V30 5766 C 546.703 1.1984 -5.08366 0
M  V30 5767 H 548.397 0.413373 -2.96533 0
M  V30 5768 H 545.943 0.197391 -1.42641 0
M  V30 5769 H 547.896 2.84614 -3.10761 0
M  V30 5770 H 546.62 2.67269 -1.8771 0
M  V30 5771 H 545.279 1.23469 -3.45183 0
M  V30 5772 H 544.927 3.71013 -3.39644 0
M  V30 5773 H 544.627 3.04879 -5.02317 0
M  V30 5774 H 546.151 3.91727 -4.68383 0
M  V30 5775 H 547.565 1.77896 -5.45001 0
M  V30 5776 H 545.962 1.12456 -5.89469 0
M  V30 5777 H 547.032 0.176996 -4.84577 0
M  V30 5778 N 548.375 1.56261 0.205012 0
M  V30 5779 C 549.307 1.90266 1.27795 0
M  V30 5780 C 550.32 0.792397 1.42214 0
M  V30 5781 O 551.509 1.07077 1.42817 0
M  V30 5782 C 548.609 2.11074 2.65143 0
M  V30 5783 C 547.782 3.42176 2.7246 0
M  V30 5784 C 546.841 3.52216 3.90936 0
M  V30 5785 O 545.867 4.25119 3.78501 0
M  V30 5786 N 547.069 2.84573 5.05963 0
M  V30 5787 H 549.834 2.82896 0.989434 0
M  V30 5788 H 547.395 1.57008 0.394981 0
M  V30 5789 H 549.387 2.15089 3.4281 0
M  V30 5790 H 547.957 1.2499 2.86524 0
M  V30 5791 H 547.177 3.50116 1.81142 0
M  V30 5792 H 548.465 4.28509 2.74331 0
M  V30 5793 H 547.863 2.25152 5.18963 0
M  V30 5794 H 546.42 2.94228 5.81613 0
M  V30 5795 N 549.853 -0.472356 1.50355 0
M  V30 5796 C 551.081 -1.24784 1.65035 0
M  V30 5797 C 551.496 -1.85837 0.333176 0
M  V30 5798 O 550.853 -1.69168 -0.68472 0
M  V30 5799 C 550.904 -2.35747 2.74054 0
M  V30 5800 O 550.625 -1.77197 4.00665 0
M  V30 5801 C 552.126 -3.26645 2.99696 0
M  V30 5802 H 549.346 -0.377432 0.554785 0
M  V30 5803 H 551.89 -0.563962 1.9657 0
M  V30 5804 H 550.045 -2.99912 2.45217 0
M  V30 5805 H 550.459 -2.5026 4.60945 0
M  V30 5806 H 551.933 -4.00718 3.79644 0
M  V30 5807 H 552.41 -3.8535 2.10718 0
M  V30 5808 H 553.016 -2.68218 3.3006 0
M  V30 5809 N 551.331 -1.39911 -0.725443 0
M  V30 5810 C 552.747 -1.21725 -1.03224 0
M  V30 5811 C 552.947 -0.0855224 -2.01318 0
M  V30 5812 O 552.003 0.55976 -2.46217 0
M  V30 5813 C 553.316 -2.55511 -1.58539 0
M  V30 5814 C 554.864 -2.62439 -1.70572 0
M  V30 5815 C 555.339 -3.9647 -2.29294 0
M  V30 5816 N 556.83 -3.98159 -2.36692 0
M  V30 5817 C 557.565 -4.98647 -2.83088 0
M  V30 5818 N 557.061 -6.0953 -3.2931 0
M  V30 5819 N 558.854 -4.8602 -2.82384 0
M  V30 5820 H 551.005 -2.12267 -0.075048 0
M  V30 5821 H 553.268 -0.943136 -0.0959066 0
M  V30 5822 H 552.974 -3.38926 -0.939249 0
M  V30 5823 H 552.848 -2.75905 -2.57208 0
M  V30 5824 H 555.235 -1.79401 -2.34306 0
M  V30 5825 H 555.316 -2.45885 -0.705297 0
M  V30 5826 H 554.96 -4.79942 -1.66186 0
M  V30 5827 H 554.89 -4.10349 -3.30032 0
M  V30 5828 H 557.381 -3.18085 -2.04035 0
M  V30 5829 H 557.694 -6.82106 -3.6325 0
M  V30 5830 H 556.039 -6.1311 -3.27294 0
M  V30 5831 H 559.23 -3.98493 -2.45603 0
M  V30 5832 H 559.403 -5.64478 -3.18226 0
M  V30 5833 N 552.809 0.956637 -1.25245 0
M  V30 5834 C 554.22 1.51569 -1.09012 0
M  V30 5835 C 554.571 1.93322 0.334813 0
M  V30 5836 O 553.696 1.78421 1.22454 0
M  V30 5837 C 554.291 2.75444 -1.97271 0
M  V30 5838 C 552.85 3.27669 -1.8523 0
M  V30 5839 C 551.997 2.00517 -1.91542 0
M  V30 5840 H 554.948 0.773746 -1.3856 0
M  V30 5841 H 554.969 3.4919 -1.51151 0
M  V30 5842 H 554.481 2.45024 -3.00973 0
M  V30 5843 H 552.582 3.62914 -0.844045 0
M  V30 5844 H 552.695 3.9582 -2.69932 0
M  V30 5845 H 551.059 2.15727 -1.35404 0
M  V30 5846 H 551.842 1.72448 -2.96844 0
M  V30 5847 N 554.287 1.06798 1.15896 0
M  V30 5848 C 555.235 0.677525 2.22514 0
M  V30 5849 C 556.229 -0.308994 1.66558 0
M  V30 5850 O 557.435 -0.173308 1.79164 0
M  V30 5851 H 553.81 0.200994 0.724642 0
M  V30 5852 H 555.781 1.5865 2.52731 0
M  V30 5853 C 554.53 0.0854153 3.47595 0
M  V30 5854 H 553.853 0.835645 3.90969 0
M  V30 5855 H 555.293 -0.150199 4.23734 0
M  V30 5856 C 553.752 -1.1724 3.15843 0
M  V30 5857 O 554.282 -2.25965 3.32119 0
M  V30 5858 N 552.488 -1.07636 2.69931 0
M  V30 5859 H 552.035 -0.191559 2.56887 0
M  V30 5860 H 551.993 -1.91876 2.4906 0
M  V30 5861 N 555.766 -1.3263 0.851289 0
M  V30 5862 C 557.012 -1.9766 0.453694 0
M  V30 5863 C 557.345 -1.67225 -0.987396 0
M  V30 5864 O 556.62 -0.958693 -1.69232 0
M  V30 5865 C 556.903 -3.5344 0.68936 0
M  V30 5866 C 556.756 -3.93517 2.17862 0
M  V30 5867 C 558.075 -4.39866 0.143555 0
M  V30 5868 H 555.194 -0.717989 0.166314 0
M  V30 5869 H 557.836 -1.57068 1.06909 0
M  V30 5870 H 555.986 -3.88147 0.165546 0
M  V30 5871 H 557.658 -3.69006 2.76826 0
M  V30 5872 H 555.901 -3.42798 2.65841 0
M  V30 5873 H 556.572 -5.02065 2.29422 0
M  V30 5874 H 559.048 -4.11875 0.591451 0
M  V30 5875 H 557.924 -5.47858 0.338043 0
M  V30 5876 H 558.185 -4.31696 -0.953466 0
M  V30 5877 N 557.244 -0.608902 -1.45362 0
M  V30 5878 C 558.49 -0.104762 -2.02529 0
M  V30 5879 C 558.823 1.26191 -1.47613 0
M  V30 5880 O 558.098 1.8327 -0.65134 0
M  V30 5881 C 558.381 -0.0672661 -3.60037 0
M  V30 5882 C 558.234 -1.4647 -4.25284 0
M  V30 5883 C 559.553 0.619877 -4.35713 0
M  V30 5884 H 556.672 -0.0395438 -0.735938 0
M  V30 5885 H 559.314 -0.781126 -1.73201 0
M  V30 5886 H 557.464 0.50871 -3.85155 0
M  V30 5887 H 559.136 -2.08785 -4.11347 0
M  V30 5888 H 557.379 -2.02502 -3.83634 0
M  V30 5889 H 558.05 -1.39069 -5.34195 0
M  V30 5890 H 560.526 0.130297 -4.15896 0
M  V30 5891 H 559.402 0.615224 -5.45441 0
M  V30 5892 H 559.663 1.68621 -4.0868 0
M  V30 5893 N 558.722 1.53707 -0.348139 0
M  V30 5894 C 559.652 2.28111 0.498766 0
M  V30 5895 C 560.633 1.29851 1.09876 0
M  V30 5896 O 561.818 1.587 1.11928 0
M  V30 5897 C 558.948 3.05735 1.64753 0
M  V30 5898 C 557.902 4.11537 1.17565 0
M  V30 5899 C 557.228 4.77142 2.4133 0
M  V30 5900 C 558.528 5.21587 0.272844 0
M  V30 5901 H 560.222 2.99152 -0.121934 0
M  V30 5902 H 557.768 1.43875 -0.0600842 0
M  V30 5903 H 559.721 3.56526 2.24649 0
M  V30 5904 H 558.445 2.32354 2.2952 0
M  V30 5905 H 557.104 3.61665 0.599483 0
M  V30 5906 H 556.752 4.0035 3.04514 0
M  V30 5907 H 556.452 5.48626 2.10436 0
M  V30 5908 H 557.976 5.30719 3.01943 0
M  V30 5909 H 559.39 5.67986 0.778779 0
M  V30 5910 H 557.787 6.00074 0.0555849 0
M  V30 5911 H 558.857 4.79969 -0.689785 0
M  V30 5912 N 560.2 0.0768682 1.57412 0
M  V30 5913 C 561.449 -0.590679 1.92857 0
M  V30 5914 C 561.762 -1.70461 0.959293 0
M  V30 5915 O 562.968 -2.43207 1.20675 0
M  V30 5916 C 561.424 -1.10204 3.42612 0
M  V30 5917 C 561.032 -0.0188447 4.47996 0
M  V30 5918 C 562.776 -1.74336 3.87049 0
M  V30 5919 C 560.683 -0.544536 5.88888 0
M  V30 5920 H 559.613 -0.224411 0.71983 0
M  V30 5921 H 562.264 0.149924 1.82887 0
M  V30 5922 H 560.646 -1.89577 3.47673 0
M  V30 5923 H 561.82 0.755936 4.54557 0
M  V30 5924 H 560.135 0.526555 4.13057 0
M  V30 5925 H 562.732 -2.14708 4.89699 0
M  V30 5926 H 563.075 -2.60537 3.24694 0
M  V30 5927 H 563.608 -1.01577 3.84613 0
M  V30 5928 H 560.347 0.280426 6.549 0
M  V30 5929 H 559.867 -1.28673 5.85836 0
M  V30 5930 H 561.546 -1.01933 6.3892 0
M  V30 5931 N 561.678 -1.56367 -0.196722 0
M  V30 5932 C 562.926 -1.80172 -0.915554 0
M  V30 5933 C 563.247 -0.649649 -1.8386 0
M  V30 5934 O 562.517 0.332111 -1.93064 0
M  V30 5935 H 561.097 -0.664592 -0.341067 0
M  V30 5936 H 563.759 -1.93844 -0.202622 0
M  V30 5937 H 562.855 -2.7327 -1.50764 0
M  V30 5938 N 563.156 0.464375 -1.50603 0
M  V30 5939 C 564.066 1.58723 -1.72754 0
M  V30 5940 C 565.082 1.62925 -0.610844 0
M  V30 5941 O 566.258 1.8067 -0.889963 0
M  V30 5942 C 563.323 2.94897 -1.82309 0
M  V30 5943 C 562.384 3.0103 -3.06071 0
M  V30 5944 C 561.617 4.30708 -3.1516 0
M  V30 5945 O 561.84 5.2159 -2.30868 0
M  V30 5946 O 560.774 4.42571 -4.0794 0
M  V30 5947 H 564.6 1.42954 -2.67951 0
M  V30 5948 H 562.185 0.644579 -1.3478 0
M  V30 5949 H 564.067 3.75764 -1.90735 0
M  V30 5950 H 562.742 3.10851 -0.902967 0
M  V30 5951 H 561.649 2.19217 -3.03142 0
M  V30 5952 H 562.982 2.90014 -3.97684 0
M  V30 5953 N 564.634 1.40294 0.718013 0
M  V30 5954 C 565.544 1.42678 1.86226 0
M  V30 5955 C 566.56 0.319655 1.71039 0
M  V30 5956 O 567.736 0.563852 1.93346 0
M  V30 5957 C 564.801 1.2852 3.21999 0
M  V30 5958 C 563.862 2.49354 3.49458 0
M  V30 5959 C 563.095 2.35863 4.78753 0
M  V30 5960 O 563.318 1.37114 5.53675 0
M  V30 5961 O 562.252 3.25189 5.06494 0
M  V30 5962 H 566.078 2.39167 1.87171 0
M  V30 5963 H 563.663 1.2159 0.868112 0
M  V30 5964 H 565.545 1.22824 4.03103 0
M  V30 5965 H 564.22 0.351359 3.21787 0
M  V30 5966 H 563.127 2.60628 2.68373 0
M  V30 5967 H 564.46 3.41491 3.54464 0
M  V30 5968 N 566.112 -0.949982 1.2575 0
M  V30 5969 C 567.358 -1.69766 1.10938 0
M  V30 5970 C 567.691 -1.91056 -0.348028 0
M  V30 5971 O 566.966 -1.48488 -1.25625 0
M  V30 5972 C 567.249 -3.07779 1.86933 0
M  V30 5973 C 567.102 -2.9387 3.4053 0
M  V30 5974 C 568.421 -4.07749 1.65616 0
M  V30 5975 H 565.54 -0.616144 0.404396 0
M  V30 5976 H 568.182 -1.10394 1.54639 0
M  V30 5977 H 566.332 -3.58462 1.4979 0
M  V30 5978 H 568.004 -2.50476 3.87375 0
M  V30 5979 H 566.247 -2.29686 3.68004 0
M  V30 5980 H 566.918 -3.91719 3.88922 0
M  V30 5981 H 569.394 -3.65994 1.97959 0
M  V30 5982 H 568.27 -5.02348 2.21218 0
M  V30 5983 H 568.531 -4.38029 0.598595 0
M  V30 5984 N 567.59 -1.07411 -1.15328 0
M  V30 5985 C 568.5 -0.706438 -2.23711 0
M  V30 5986 C 569.516 0.282586 -1.7169 0
M  V30 5987 O 570.692 0.129066 -2.00986 0
M  V30 5988 C 567.757 -0.11048 -3.46524 0
M  V30 5989 C 566.818 -1.15282 -4.13532 0
M  V30 5990 C 566.051 -0.585205 -5.30482 0
M  V30 5991 O 566.274 0.598549 -5.67251 0
M  V30 5992 O 565.208 -1.33039 -5.87013 0
M  V30 5993 H 569.034 -1.61031 -2.57493 0
M  V30 5994 H 566.619 -0.847113 -1.23062 0
M  V30 5995 H 568.501 0.21957 -4.20828 0
M  V30 5996 H 567.176 0.766703 -3.14489 0
M  V30 5997 H 566.083 -1.53523 -3.41147 0
M  V30 5998 H 567.416 -2.00192 -4.49649 0
M  V30 5999 N 569.068 1.32177 -0.85831 0
M  V30 6000 C 570 2.27688 -0.262835 0
M  V30 6001 C 571.013 1.52588 0.567513 0
M  V30 6002 O 572.202 1.74156 0.391407 0
M  V30 6003 C 569.302 3.32668 0.646937 0
M  V30 6004 C 568.475 4.37148 -0.148372 0
M  V30 6005 C 567.534 5.21686 0.687728 0
M  V30 6006 O 566.56 5.69074 0.119934 0
M  V30 6007 N 567.762 5.44892 2.00182 0
M  V30 6008 H 570.527 2.79426 -1.08356 0
M  V30 6009 H 568.088 1.45076 -0.718647 0
M  V30 6010 H 570.08 3.86134 1.2117 0
M  V30 6011 H 568.65 2.81061 1.36834 0
M  V30 6012 H 567.87 3.83915 -0.894572 0
M  V30 6013 H 569.158 5.04038 -0.694514 0
M  V30 6014 H 568.556 5.08128 2.4864 0
M  V30 6015 H 567.113 6.0134 2.51463 0
M  V30 6016 N 570.547 0.616602 1.45037 0
M  V30 6017 C 571.477 -0.0840787 2.33349 0
M  V30 6018 C 572.458 -0.849641 1.4736 0
M  V30 6019 O 573.643 -0.818407 1.76113 0
M  V30 6020 C 570.773 -1.07604 3.3021 0
M  V30 6021 C 569.727 -0.423096 4.25904 0
M  V30 6022 C 569.053 -1.52394 5.12523 0
M  V30 6023 C 570.353 0.661457 5.18095 0
M  V30 6024 H 572.047 0.653333 2.92185 0
M  V30 6025 H 569.593 0.315634 1.40498 0
M  V30 6026 H 571.546 -1.57485 3.90866 0
M  V30 6027 H 570.27 -1.84416 2.69552 0
M  V30 6028 H 568.929 0.05493 3.66559 0
M  V30 6029 H 568.577 -2.28257 4.48227 0
M  V30 6030 H 568.277 -1.09251 5.77354 0
M  V30 6031 H 569.801 -2.02485 5.76049 0
M  V30 6032 H 571.215 0.246353 5.7277 0
M  V30 6033 H 569.612 1.01517 5.91451 0
M  V30 6034 H 570.682 1.53446 4.59981 0
M  V30 6035 N 572.025 -1.5352 0.356285 0
M  V30 6036 C 572.973 -2.26945 -0.50978 0
M  V30 6037 C 573.967 -1.29569 -1.09125 0
M  V30 6038 O 575.173 -1.47231 -1.03552 0
M  V30 6039 H 571.548 -0.729368 -0.183102 0
M  V30 6040 H 573.519 -2.98111 0.131374 0
M  V30 6041 C 572.268 -3.06466 -1.64237 0
M  V30 6042 H 571.591 -3.81233 -1.20423 0
M  V30 6043 H 573.031 -3.61035 -2.22327 0
M  V30 6044 C 571.49 -2.16737 -2.57928 0
M  V30 6045 O 572.02 -1.77195 -3.60507 0
M  V30 6046 N 570.226 -1.81558 -2.26903 0
M  V30 6047 H 569.773 -2.13913 -1.43524 0
M  V30 6048 H 569.731 -1.21806 -2.89846 0
M  V30 6049 N 573.503 -0.0852151 -1.57369 0
M  V30 6050 C 574.433 0.874556 -2.16503 0
M  V30 6051 C 575.414 1.30111 -1.09568 0
M  V30 6052 O 576.599 1.36977 -1.37662 0
M  V30 6053 C 573.729 2.13731 -2.73745 0
M  V30 6054 C 572.683 1.84971 -3.85966 0
M  V30 6055 C 572.009 3.17991 -4.29867 0
M  V30 6056 C 573.309 1.14442 -5.09608 0
M  V30 6057 H 575.003 0.381899 -2.96954 0
M  V30 6058 H 572.549 0.18225 -1.42842 0
M  V30 6059 H 574.502 2.81302 -3.13763 0
M  V30 6060 H 573.226 2.65263 -1.90534 0
M  V30 6061 H 571.885 1.19801 -3.46473 0
M  V30 6062 H 571.533 3.6739 -3.4356 0
M  V30 6063 H 571.233 2.99534 -5.05523 0
M  V30 6064 H 572.757 3.86737 -4.72511 0
M  V30 6065 H 574.171 1.72105 -5.46857 0
M  V30 6066 H 572.568 1.06197 -5.90629 0
M  V30 6067 H 573.638 0.12559 -4.84737 0
M  V30 6068 N 574.981 1.5647 0.188427 0
M  V30 6069 C 576.206 1.85486 0.927891 0
M  V30 6070 C 576.631 0.669575 1.75779 0
M  V30 6071 O 575.989 -0.381573 1.77239 0
M  V30 6072 C 576.037 3.12784 1.7944 0
M  V30 6073 O 575.141 2.93805 2.894 0
M  V30 6074 H 574.482 0.610585 0.260925 0
M  V30 6075 H 577.012 2.037 0.191729 0
M  V30 6076 H 577.022 3.43749 2.19774 0
M  V30 6077 H 575.697 3.98671 1.18468 0
M  V30 6078 H 574.274 2.74153 2.52774 0
M  V30 6079 N 576.459 -0.456382 1.50847 0
M  V30 6080 C 577.389 -1.56025 1.73719 0
M  V30 6081 C 578.37 -1.5967 0.586473 0
M  V30 6082 O 579.555 -1.75702 0.827185 0
M  V30 6083 C 576.685 -2.94251 1.84483 0
M  V30 6084 C 575.639 -3.05471 2.99786 0
M  V30 6085 C 574.965 -4.45489 2.95709 0
M  V30 6086 C 576.265 -2.81318 4.40065 0
M  V30 6087 H 577.959 -1.37138 2.66146 0
M  V30 6088 H 575.505 -0.658299 1.28072 0
M  V30 6089 H 577.458 -3.71417 1.99067 0
M  V30 6090 H 576.182 -3.14328 0.886891 0
M  V30 6091 H 574.841 -2.30741 2.84876 0
M  V30 6092 H 574.489 -4.62505 1.97732 0
M  V30 6093 H 574.189 -4.53929 3.73125 0
M  V30 6094 H 575.713 -5.24655 3.12362 0
M  V30 6095 H 577.127 -3.48226 4.55425 0
M  V30 6096 H 575.524 -3.01188 5.19043 0
M  V30 6097 H 576.594 -1.7706 4.51418 0
M  V30 6098 N 577.937 -1.40673 -0.710563 0
M  V30 6099 C 578.884 -1.41336 -1.82463 0
M  V30 6100 C 579.854 -0.269648 -1.63897 0
M  V30 6101 O 581.039 -0.468463 -1.8496 0
M  V30 6102 C 578.179 -1.28665 -3.20218 0
M  V30 6103 C 577.292 -2.52784 -3.5032 0
M  V30 6104 C 576.427 -2.32517 -4.77608 0
M  V30 6105 C 575.466 -3.52187 -5.0063 0
M  V30 6106 N 574.603 -3.31084 -6.19135 0
M  V30 6107 H 579.443 -2.36558 -1.8123 0
M  V30 6108 H 576.98 -1.17483 -0.885226 0
M  V30 6109 H 578.938 -1.19324 -3.99772 0
M  V30 6110 H 577.568 -0.370602 -3.20666 0
M  V30 6111 H 576.62 -2.72634 -2.65283 0
M  V30 6112 H 577.932 -3.41845 -3.63241 0
M  V30 6113 H 577.086 -2.20558 -5.65189 0
M  V30 6114 H 575.825 -1.40889 -4.66906 0
M  V30 6115 H 574.83 -3.64617 -4.11502 0
M  V30 6116 H 576.055 -4.44749 -5.13201 0
M  V30 6117 H 574.001 -2.42143 -6.09674 0
M  V30 6118 H 573.918 -4.13713 -6.32754 0
M  V30 6119 H 575.186 -3.22868 -7.0949 0
M  V30 6120 N 579.415 0.9433 -1.26252 0
M  V30 6121 C 580.692 1.66639 -1.02424 0
M  V30 6122 C 581.072 2.06335 0.446006 0
M  V30 6123 O 580.42 1.78551 1.42589 0
M  V30 6124 C 580.63 2.88019 -1.97094 0
M  V30 6125 C 581.978 3.59718 -2.25584 0
M  V30 6126 O 583.002 2.9812 -1.94943 0
M  V30 6127 O 581.861 4.7066 -2.77743 0
M  V30 6128 H 578.955 0.729643 -0.389294 0
M  V30 6129 H 581.501 0.995218 -1.37454 0
M  V30 6130 H 580.273 2.5556 -2.96319 0
M  V30 6131 H 579.896 3.62863 -1.62532 0
M  V30 6132 N 580.893 1.08022 1.14757 0
M  V30 6133 C 582.142 0.802468 1.8505 0
M  V30 6134 C 582.455 -0.674061 1.83619 0
M  V30 6135 O 583.661 -1.06683 2.49662 0
M  V30 6136 C 582.117 1.38551 3.32162 0
M  V30 6137 C 581.725 2.89354 3.42021 0
M  V30 6138 C 583.469 1.18608 4.07594 0
M  V30 6139 C 581.376 3.40815 4.83321 0
M  V30 6140 H 580.306 0.296518 0.693248 0
M  V30 6141 H 582.957 1.30114 1.29393 0
M  V30 6142 H 581.339 0.814556 3.87532 0
M  V30 6143 H 582.513 3.52552 2.96722 0
M  V30 6144 H 580.828 3.08165 2.80041 0
M  V30 6145 H 583.425 1.54525 5.11885 0
M  V30 6146 H 583.768 0.125599 4.1611 0
M  V30 6147 H 584.301 1.72375 3.58513 0
M  V30 6148 H 581.04 4.46418 4.79991 0
M  V30 6149 H 580.56 2.82374 5.29174 0
M  V30 6150 H 582.239 3.37171 5.522 0
M  V30 6151 N 582.371 -1.3172 0.865308 0
M  V30 6152 C 583.617 -1.97168 0.474633 0
M  V30 6153 C 583.95 -1.68263 -0.969604 0
M  V30 6154 O 583.225 -0.976588 -1.68205 0
M  V30 6155 C 583.508 -3.52689 0.726808 0
M  V30 6156 C 583.361 -3.91185 2.22024 0
M  V30 6157 C 584.68 -4.39689 0.190201 0
M  V30 6158 H 581.799 -0.716185 0.17392 0
M  V30 6159 H 584.441 -1.55925 1.08569 0
M  V30 6160 H 582.591 -3.8795 0.206705 0
M  V30 6161 H 584.263 -3.66049 2.80724 0
M  V30 6162 H 582.506 -3.3996 2.69462 0
M  V30 6163 H 583.177 -4.99604 2.34735 0
M  V30 6164 H 585.653 -4.11225 0.635103 0
M  V30 6165 H 584.529 -5.47469 0.396132 0
M  V30 6166 H 584.79 -4.32683 -0.907625 0
M  V30 6167 N 583.85 -0.624285 -1.44708 0
M  V30 6168 C 584.797 0.0847135 -2.30644 0
M  V30 6169 C 585.767 0.843575 -1.43084 0
M  V30 6170 O 586.952 0.825982 -1.71995 0
M  V30 6171 C 584.091 1.06495 -3.28257 0
M  V30 6172 C 583.205 0.305224 -4.3092 0
M  V30 6173 C 582.34 1.27667 -5.1563 0
M  V30 6174 C 581.379 0.505706 -6.10007 0
M  V30 6175 N 580.516 1.42727 -6.8744 0
M  V30 6176 H 585.356 -0.654068 -2.90733 0
M  V30 6177 H 582.893 -0.334334 -1.4325 0
M  V30 6178 H 584.851 1.64658 -3.83332 0
M  V30 6179 H 583.481 1.77094 -2.69884 0
M  V30 6180 H 582.533 -0.392207 -3.78373 0
M  V30 6181 H 583.845 -0.295553 -4.97924 0
M  V30 6182 H 582.999 1.92984 -5.75189 0
M  V30 6183 H 581.738 1.91137 -4.48685 0
M  V30 6184 H 580.743 -0.160999 -5.49564 0
M  V30 6185 H 581.968 -0.124183 -6.78986 0
M  V30 6186 H 579.913 2.04931 -6.23169 0
M  V30 6187 H 579.831 0.880345 -7.50857 0
M  V30 6188 H 581.099 2.0695 -7.51526 0
M  V30 6189 N 585.328 1.53329 -0.364422 0
M  V30 6190 C 586.276 2.27212 0.497737 0
M  V30 6191 C 587.27 1.30146 1.08437 0
M  V30 6192 O 588.476 1.47778 1.0277 0
M  V30 6193 H 584.851 0.730329 0.179232 0
M  V30 6194 H 586.822 2.98037 -0.147182 0
M  V30 6195 C 585.571 3.07333 1.6261 0
M  V30 6196 H 584.894 3.81866 1.184 0
M  V30 6197 H 586.334 3.62209 2.20409 0
M  V30 6198 C 584.793 2.18102 2.56775 0
M  V30 6199 O 585.323 1.79104 3.59562 0
M  V30 6200 N 583.529 1.82759 2.25937 0
M  V30 6201 H 583.076 2.14671 1.42387 0
M  V30 6202 H 583.034 1.23342 2.89196 0
M  V30 6203 N 586.806 0.0935595 1.57322 0
M  V30 6204 C 588.055 -0.570191 1.93473 0
M  V30 6205 C 588.368 -1.69434 0.977318 0
M  V30 6206 O 589.574 -2.41914 1.23248 0
M  V30 6207 C 588.03 -1.06564 3.43762 0
M  V30 6208 C 587.638 0.0286723 4.47991 0
M  V30 6209 C 589.382 -1.70221 3.88877 0
M  V30 6210 C 587.289 -0.482046 5.89432 0
M  V30 6211 H 586.219 -0.216764 0.72217 0
M  V30 6212 H 588.87 0.169313 1.82717 0
M  V30 6213 H 587.252 -1.85878 3.49664 0
M  V30 6214 H 588.426 0.804106 4.5373 0
M  V30 6215 H 586.741 0.570336 4.12476 0
M  V30 6216 H 589.338 -2.09502 4.91948 0
M  V30 6217 H 589.681 -2.57078 3.27439 0
M  V30 6218 H 590.214 -0.974919 3.85668 0
M  V30 6219 H 586.953 0.349871 6.54566 0
M  V30 6220 H 586.473 -1.22452 5.87167 0
M  V30 6221 H 588.152 -0.951508 6.39965 0
M  V30 6222 N 588.284 -1.56567 -0.180126 0
M  V30 6223 C 589.53 -1.81761 -0.899497 0
M  V30 6224 C 589.863 -0.670015 -1.82276 0
M  V30 6225 O 589.138 0.328575 -1.91705 0
M  V30 6226 C 589.421 -3.17296 -1.7028 0
M  V30 6227 C 589.274 -4.4257 -0.803255 0
M  V30 6228 C 590.593 -3.49678 -2.67233 0
M  V30 6229 H 587.712 -0.661192 -0.325567 0
M  V30 6230 H 590.354 -1.89272 -0.16612 0
M  V30 6231 H 588.504 -3.11023 -2.32802 0
M  V30 6232 H 590.176 -4.60902 -0.191585 0
M  V30 6233 H 588.419 -4.33658 -0.110796 0
M  V30 6234 H 589.09 -5.33935 -1.40064 0
M  V30 6235 H 591.566 -3.56347 -2.14839 0
M  V30 6236 H 590.442 -4.45605 -3.20511 0
M  V30 6237 H 590.703 -2.73932 -3.47007 0
M  V30 6238 N 589.762 0.448376 -1.51087 0
M  V30 6239 C 590.71 1.56407 -1.72161 0
M  V30 6240 C 591.704 1.58878 -0.587721 0
M  V30 6241 O 592.91 1.62755 -0.768822 0
M  V30 6242 H 589.285 0.519423 -0.543786 0
M  V30 6243 H 591.256 1.35803 -2.65707 0
M  V30 6244 C 590.005 2.94163 -1.85373 0
M  V30 6245 H 589.328 2.9299 -2.72024 0
M  V30 6246 H 590.768 3.71625 -2.04135 0
M  V30 6247 C 589.227 3.31317 -0.610803 0
M  V30 6248 O 589.757 4.00985 0.239636 0
M  V30 6249 N 587.963 2.86966 -0.458127 0
M  V30 6250 H 587.51 2.30443 -1.15124 0
M  V30 6251 H 587.468 3.12188 0.372289 0
M  V30 6252 N 591.24 1.41047 0.703093 0
M  V30 6253 C 592.489 1.39301 1.4587 0
M  V30 6254 C 592.802 0.00267077 1.956 0
M  V30 6255 O 594.008 -0.137414 2.71152 0
M  V30 6256 C 592.464 2.44891 2.63735 0
M  V30 6257 C 592.072 3.89796 2.20824 0
M  V30 6258 C 593.816 2.5227 3.41409 0
M  V30 6259 C 591.723 4.86955 3.35602 0
M  V30 6260 H 590.653 0.518005 0.547893 0
M  V30 6261 H 593.304 1.66839 0.764009 0
M  V30 6262 H 591.686 2.10472 3.35436 0
M  V30 6263 H 592.86 4.33424 1.56461 0
M  V30 6264 H 591.175 3.86008 1.56163 0
M  V30 6265 H 593.772 3.22044 4.26839 0
M  V30 6266 H 594.115 1.55714 3.86081 0
M  V30 6267 H 594.648 2.85742 2.7676 0
M  V30 6268 H 591.387 5.84888 2.9595 0
M  V30 6269 H 590.907 4.47982 3.98839 0
M  V30 6270 H 592.586 5.07361 4.01489 0
M  V30 6271 N 592.718 -0.936591 1.26751 0
M  V30 6272 C 593.967 -1.67778 1.11953 0
M  V30 6273 C 594.28 -1.92694 -0.33589 0
M  V30 6274 O 595.486 -2.64682 -0.604618 0
M  V30 6275 C 593.942 -3.02138 1.95551 0
M  V30 6276 C 593.55 -2.84953 3.45696 0
M  V30 6277 C 595.294 -3.79917 1.89377 0
M  V30 6278 C 593.201 -4.14814 4.21525 0
M  V30 6279 H 592.131 -0.629275 0.415366 0
M  V30 6280 H 594.782 -1.04122 1.51099 0
M  V30 6281 H 593.164 -3.668 1.49243 0
M  V30 6282 H 594.338 -2.29112 3.99805 0
M  V30 6283 H 592.653 -2.20612 3.53156 0
M  V30 6284 H 595.25 -4.76134 2.43312 0
M  V30 6285 H 595.593 -4.07204 0.865464 0
M  V30 6286 H 596.126 -3.22037 2.33532 0
M  V30 6287 H 592.865 -3.92709 5.24843 0
M  V30 6288 H 592.385 -4.70352 3.72195 0
M  V30 6289 H 594.064 -4.83239 4.3022 0
M  V30 6290 N 594.196 -1.08629 -1.14182 0
M  V30 6291 C 595.126 -0.740003 -2.21464 0
M  V30 6292 C 596.107 0.278591 -1.67803 0
M  V30 6293 O 597.292 0.148461 -1.93632 0
M  V30 6294 C 594.422 -0.150952 -3.46972 0
M  V30 6295 C 593.376 -1.09815 -4.13672 0
M  V30 6296 C 592.702 -0.3712 -5.3341 0
M  V30 6297 C 594.002 -2.43722 -4.61949 0
M  V30 6298 H 595.696 -1.63697 -2.50686 0
M  V30 6299 H 593.242 -0.788526 -1.20492 0
M  V30 6300 H 595.195 0.103325 -4.21273 0
M  V30 6301 H 593.919 0.781164 -3.1712 0
M  V30 6302 H 592.578 -1.33756 -3.41328 0
M  V30 6303 H 592.226 0.564792 -4.99819 0
M  V30 6304 H 591.926 -1.00267 -5.78982 0
M  V30 6305 H 593.45 -0.12503 -6.10472 0
M  V30 6306 H 594.864 -2.24034 -5.27714 0
M  V30 6307 H 593.261 -3.02582 -5.18232 0
M  V30 6308 H 594.331 -3.05082 -3.76899 0
M  V30 6309 N 595.674 1.31259 -0.872281 0
M  V30 6310 C 596.621 2.28459 -0.327857 0
M  V30 6311 C 597.591 1.55831 0.574957 0
M  V30 6312 O 598.776 1.83965 0.506101 0
M  V30 6313 C 595.916 3.41985 0.462644 0
M  V30 6314 C 595.029 4.29458 -0.467949 0
M  V30 6315 C 594.164 5.30131 0.336903 0
M  V30 6316 C 593.203 6.0925 -0.58997 0
M  V30 6317 N 592.34 7.01872 0.178775 0
M  V30 6318 H 597.18 2.74414 -1.16193 0
M  V30 6319 H 594.717 1.34994 -0.584376 0
M  V30 6320 H 596.675 4.06547 0.936759 0
M  V30 6321 H 595.305 2.97134 1.2614 0
M  V30 6322 H 594.357 3.65318 -1.06052 0
M  V30 6323 H 595.669 4.84677 -1.17856 0
M  V30 6324 H 594.823 6.0038 0.873427 0
M  V30 6325 H 593.562 4.75573 1.08079 0
M  V30 6326 H 592.567 5.37889 -1.13823 0
M  V30 6327 H 593.792 6.65894 -1.33275 0
M  V30 6328 H 591.738 6.49721 0.905435 0
M  V30 6329 H 591.655 7.54522 -0.472452 0
M  V30 6330 H 592.923 7.76382 0.696454 0
M  V30 6331 N 597.152 0.631951 1.44375 0
M  V30 6332 C 598.568 0.297642 1.568 0
M  V30 6333 C 598.768 -1.19916 1.61934 0
M  V30 6334 O 597.824 -1.98324 1.56281 0
M  V30 6335 C 599.137 0.990286 2.83926 0
M  V30 6336 C 600.685 0.968507 2.97639 0
M  V30 6337 C 601.16 1.64163 4.27568 0
M  V30 6338 N 602.651 1.60826 4.34384 0
M  V30 6339 C 603.386 2.09802 5.33639 0
M  V30 6340 N 602.882 2.66973 6.39294 0
M  V30 6341 N 604.675 2.00426 5.25153 0
M  V30 6342 H 596.826 1.60353 1.39286 0
M  V30 6343 H 599.089 0.673142 0.667521 0
M  V30 6344 H 598.795 2.04519 2.8612 0
M  V30 6345 H 598.669 0.528563 3.73478 0
M  V30 6346 H 601.056 -0.0779247 2.94997 0
M  V30 6347 H 601.137 1.46873 2.09433 0
M  V30 6348 H 600.781 2.68752 4.3097 0
M  V30 6349 H 600.711 1.11624 5.14634 0
M  V30 6350 H 603.202 1.19087 3.58646 0
M  V30 6351 H 603.515 3.02074 7.11316 0
M  V30 6352 H 601.86 2.71024 6.39977 0
M  V30 6353 H 605.051 1.55483 4.41523 0
M  V30 6354 H 605.224 2.38906 6.02352 0
M  V30 6355 N 598.631 -1.53133 0.372548 0
M  V30 6356 C 599.578 -2.25951 -0.470631 0
M  V30 6357 C 600.548 -1.26895 -1.07176 0
M  V30 6358 O 601.733 -1.55691 -1.10294 0
M  V30 6359 C 598.873 -3.05726 -1.6008 0
M  V30 6360 C 597.986 -4.19684 -1.02416 0
M  V30 6361 C 597.121 -4.86888 -2.124 0
M  V30 6362 C 596.16 -5.92866 -1.52238 0
M  V30 6363 N 595.297 -6.53732 -2.56084 0
M  V30 6364 H 600.137 -2.97587 0.156816 0
M  V30 6365 H 597.674 -1.4683 0.0891571 0
M  V30 6366 H 599.632 -3.50258 -2.26661 0
M  V30 6367 H 598.262 -2.36331 -2.1988 0
M  V30 6368 H 597.314 -3.79588 -0.248426 0
M  V30 6369 H 598.626 -4.95821 -0.544366 0
M  V30 6370 H 597.78 -5.34638 -2.86787 0
M  V30 6371 H 596.519 -4.10239 -2.63734 0
M  V30 6372 H 595.524 -5.4447 -0.763685 0
M  V30 6373 H 596.749 -6.71439 -1.0172 0
M  V30 6374 H 594.695 -5.79932 -3.06618 0
M  V30 6375 H 594.612 -7.25429 -2.12811 0
M  V30 6376 H 595.88 -7.0613 -3.30152 0
M  V30 6377 N 600.109 -0.101901 -1.5727 0
M  V30 6378 C 601.334 0.571759 -1.99363 0
M  V30 6379 C 601.759 1.60507 -0.980768 0
M  V30 6380 O 601.117 1.81231 0.0498517 0
M  V30 6381 C 601.165 1.18996 -3.404 0
M  V30 6382 O 600.269 2.30572 -3.41922 0
M  V30 6383 H 599.61 0.144449 -0.648098 0
M  V30 6384 H 602.14 -0.185325 -2.03759 0
M  V30 6385 H 602.15 1.52962 -3.78241 0
M  V30 6386 H 600.825 0.432984 -4.1364 0
M  V30 6387 H 599.402 1.98173 -3.15883 0
M  V30 6388 N 601.587 1.56661 0.17182 0
M  V30 6389 C 602.517 1.99401 1.21498 0
M  V30 6390 C 603.498 0.869516 1.46197 0
M  V30 6391 O 604.683 1.13556 1.57539 0
M  V30 6392 C 601.813 2.35346 2.55401 0
M  V30 6393 C 600.767 3.5075 2.45272 0
M  V30 6394 C 600.093 3.72437 3.8366 0
M  V30 6395 C 601.393 4.84216 1.95787 0
M  V30 6396 H 603.087 2.86792 0.859699 0
M  V30 6397 H 600.633 1.37977 0.412103 0
M  V30 6398 H 602.586 2.63843 3.2858 0
M  V30 6399 H 601.31 1.44864 2.92715 0
M  V30 6400 H 599.969 3.2238 1.74547 0
M  V30 6401 H 599.617 2.79246 4.18367 0
M  V30 6402 H 599.317 4.50087 3.77751 0
M  V30 6403 H 600.841 4.03334 4.58426 0
M  V30 6404 H 602.255 5.11592 2.5874 0
M  V30 6405 H 600.652 5.65498 2.00827 0
M  V30 6406 H 601.722 4.76243 0.912159 0
M  V30 6407 N 603.065 -0.440357 1.51323 0
M  V30 6408 C 604.013 -1.55492 1.72988 0
M  V30 6409 C 605.007 -1.58564 0.596138 0
M  V30 6410 O 606.213 -1.62345 0.777443 0
M  V30 6411 H 602.588 -0.516532 0.546533 0
M  V30 6412 H 604.559 -1.34392 2.66423 0
M  V30 6413 C 603.308 -2.93176 1.86931 0
M  V30 6414 H 602.631 -2.91543 2.73574 0
M  V30 6415 H 604.071 -3.70537 2.06103 0
M  V30 6416 C 602.53 -3.30988 0.628365 0
M  V30 6417 O 603.06 -4.01106 -0.218367 0
M  V30 6418 N 601.266 -2.86719 0.473339 0
M  V30 6419 H 600.813 -2.2983 1.16345 0
M  V30 6420 H 600.771 -3.12381 -0.355727 0
M  V30 6421 N 604.543 -1.41418 -0.695603 0
M  V30 6422 C 605.49 -1.43264 -1.80954 0
M  V30 6423 C 606.46 -0.287016 -1.63601 0
M  V30 6424 O 607.645 -0.488054 -1.84452 0
M  V30 6425 C 604.785 -1.32054 -3.18835 0
M  V30 6426 C 603.898 -2.56485 -3.4762 0
M  V30 6427 C 603.033 -2.3757 -4.75115 0
M  V30 6428 C 602.072 -3.57477 -4.96867 0
M  V30 6429 N 601.209 -3.37632 -6.15588 0
M  V30 6430 H 606.049 -2.38467 -1.78711 0
M  V30 6431 H 603.586 -1.18415 -0.872715 0
M  V30 6432 H 605.544 -1.23558 -3.98484 0
M  V30 6433 H 604.174 -0.404592 -3.20254 0
M  V30 6434 H 603.226 -2.75432 -2.62376 0
M  V30 6435 H 604.538 -3.45678 -3.59594 0
M  V30 6436 H 603.692 -2.2654 -5.62818 0
M  V30 6437 H 602.431 -1.45834 -4.65386 0
M  V30 6438 H 601.436 -3.68961 -4.07612 0
M  V30 6439 H 602.661 -4.50167 -5.08455 0
M  V30 6440 H 600.607 -2.48596 -6.07072 0
M  V30 6441 H 600.524 -4.20401 -6.2833 0
M  V30 6442 H 601.792 -3.30375 -7.06026 0
M  V30 6443 N 606.021 0.929856 -1.27246 0
M  V30 6444 C 606.969 2.05151 -1.09616 0
M  V30 6445 C 607.963 1.69388 -0.0198617 0
M  V30 6446 O 609.169 1.79124 -0.177417 0
M  V30 6447 H 605.544 0.671909 -0.337701 0
M  V30 6448 H 607.515 2.17168 -2.04648 0
M  V30 6449 C 606.264 3.3934 -0.757851 0
M  V30 6450 H 605.587 3.67343 -1.57795 0
M  V30 6451 H 607.027 4.18603 -0.674358 0
M  V30 6452 C 605.486 3.32582 0.537658 0
M  V30 6453 O 606.016 3.69633 1.57271 0
M  V30 6454 N 604.222 2.8568 0.532478 0
M  V30 6455 H 603.769 2.55725 -0.310233 0
M  V30 6456 H 603.727 2.81541 1.39936 0
M  V30 6457 N 607.499 1.09233 1.13605 0
M  V30 6458 C 608.729 0.847677 1.88409 0
M  V30 6459 C 609.137 -0.604524 1.79282 0
M  V30 6460 O 608.48 -1.42773 1.15592 0
M  V30 6461 C 608.542 1.20153 3.38827 0
M  V30 6462 C 608.206 2.65824 3.71735 0
M  V30 6463 C 609.203 3.64072 3.71143 0
M  V30 6464 C 606.888 3.01894 4.01454 0
M  V30 6465 C 608.882 4.96419 3.99808 0
M  V30 6466 C 606.569 4.34433 4.29781 0
M  V30 6467 C 607.567 5.31505 4.28942 0
M  V30 6468 O 607.255 6.61659 4.56576 0
M  V30 6469 H 606.987 0.304813 0.603378 0
M  V30 6470 H 609.541 1.4573 1.44748 0
M  V30 6471 H 607.771 0.534946 3.82982 0
M  V30 6472 H 609.46 0.936349 3.94952 0
M  V30 6473 H 610.226 3.37549 3.4826 0
M  V30 6474 H 606.105 2.26971 4.01255 0
M  V30 6475 H 609.649 5.7218 3.99069 0
M  V30 6476 H 605.546 4.607 4.52135 0
M  V30 6477 H 606.314 6.67102 4.74254 0
M  V30 6478 N 608.977 -1.30795 0.87923 0
M  V30 6479 C 610.225 -1.95974 0.493809 0
M  V30 6480 C 610.546 -1.69787 -0.959021 0
M  V30 6481 O 609.816 -1.01832 -1.67353 0
M  V30 6482 H 608.396 -0.725083 0.179622 0
M  V30 6483 H 611.058 -1.59432 1.12105 0
M  V30 6484 H 610.154 -3.05058 0.659263 0
M  V30 6485 N 610.455 -0.639598 -1.44038 0
M  V30 6486 C 611.701 -0.147698 -2.02261 0
M  V30 6487 C 612.034 1.23031 -1.50256 0
M  V30 6488 O 611.309 1.81847 -0.690068 0
M  V30 6489 C 611.592 -0.14362 -3.59813 0
M  V30 6490 C 611.445 -1.55458 -4.22082 0
M  V30 6491 C 612.764 0.527317 -4.36929 0
M  V30 6492 H 609.883 -0.0551453 -0.734934 0
M  V30 6493 H 612.525 -0.817688 -1.71505 0
M  V30 6494 H 610.675 0.426898 -3.86147 0
M  V30 6495 H 612.347 -2.17464 -4.06826 0
M  V30 6496 H 610.59 -2.10594 -3.79253 0
M  V30 6497 H 611.261 -1.50369 -5.31124 0
M  V30 6498 H 613.737 0.0420504 -4.16079 0
M  V30 6499 H 612.613 0.499389 -5.46624 0
M  V30 6500 H 612.874 1.59914 -4.12165 0
M  V30 6501 N 611.933 1.52934 -0.380664 0
M  V30 6502 C 613.182 2.00651 0.205477 0
M  V30 6503 C 613.495 1.27164 1.48623 0
M  V30 6504 O 614.701 1.65547 2.15189 0
M  V30 6505 C 613.157 3.57479 0.416726 0
M  V30 6506 C 612.765 4.39857 -0.850268 0
M  V30 6507 C 614.509 4.13509 0.959702 0
M  V30 6508 C 612.416 5.88269 -0.607773 0
M  V30 6509 H 611.346 0.749684 0.0805614 0
M  V30 6510 H 613.997 1.76508 -0.501732 0
M  V30 6511 H 612.379 3.77836 1.18557 0
M  V30 6512 H 613.553 4.31269 -1.62307 0
M  V30 6513 H 611.868 3.95005 -1.31756 0
M  V30 6514 H 614.465 5.22039 1.15669 0
M  V30 6515 H 614.808 3.69054 1.92626 0
M  V30 6516 H 615.341 3.9701 0.250645 0
M  V30 6517 H 612.08 6.3703 -1.54509 0
M  V30 6518 H 611.6 5.99667 0.126247 0
M  V30 6519 H 613.279 6.46558 -0.239014 0
M  V30 6520 N 613.412 0.11024 1.57214 0
M  V30 6521 C 614.342 -0.840002 2.17867 0
M  V30 6522 C 615.323 -1.28352 1.11624 0
M  V30 6523 O 616.508 -1.3477 1.39824 0
M  V30 6524 C 613.638 -2.09349 2.77111 0
M  V30 6525 C 612.592 -1.78807 3.8886 0
M  V30 6526 C 611.918 -3.11112 4.34872 0
M  V30 6527 C 613.218 -1.0632 5.11364 0
M  V30 6528 H 614.912 -0.334608 2.97524 0
M  V30 6529 H 612.458 -0.159502 1.43114 0
M  V30 6530 H 614.411 -2.76275 3.18198 0
M  V30 6531 H 613.135 -2.62198 1.9473 0
M  V30 6532 H 611.794 -1.14273 3.48335 0
M  V30 6533 H 611.442 -3.61877 3.49362 0
M  V30 6534 H 611.142 -2.91453 5.10224 0
M  V30 6535 H 612.666 -3.79171 4.78604 0
M  V30 6536 H 614.08 -1.63383 5.49526 0
M  V30 6537 H 612.477 -0.967876 5.92243 0
M  V30 6538 H 613.547 -0.0484569 4.84876 0
M  V30 6539 N 614.89 -1.56749 -0.16351 0
M  V30 6540 C 615.82 -2.00042 -1.20438 0
M  V30 6541 C 616.801 -0.877256 -1.45733 0
M  V30 6542 O 617.986 -1.1439 -1.56935 0
M  V30 6543 C 615.116 -2.36697 -2.54149 0
M  V30 6544 C 614.07 -3.52046 -2.43408 0
M  V30 6545 C 613.396 -3.74466 -3.81679 0
M  V30 6546 C 614.696 -4.85247 -1.93216 0
M  V30 6547 H 616.39 -2.87244 -0.844477 0
M  V30 6548 H 613.936 -1.38194 -0.40478 0
M  V30 6549 H 615.889 -2.65582 -3.27176 0
M  V30 6550 H 614.613 -1.46414 -2.91943 0
M  V30 6551 H 613.272 -3.23301 -1.72834 0
M  V30 6552 H 612.92 -2.81461 -4.1688 0
M  V30 6553 H 612.62 -4.52084 -3.75359 0
M  V30 6554 H 614.144 -4.0576 -4.5628 0
M  V30 6555 H 615.558 -5.12957 -2.56023 0
M  V30 6556 H 613.955 -5.66556 -1.97825 0
M  V30 6557 H 615.025 -4.7672 -0.88689 0
M  V30 6558 N 616.368 0.432326 -1.51554 0
M  V30 6559 C 617.779 1.01202 -1.56892 0
M  V30 6560 C 618.13 1.92175 -0.395394 0
M  V30 6561 O 617.255 2.10844 0.487198 0
M  V30 6562 C 617.85 1.84217 -2.8434 0
M  V30 6563 C 616.409 2.37228 -2.92233 0
M  V30 6564 C 615.556 1.16576 -2.51606 0
M  V30 6565 H 618.507 0.213407 -1.57259 0
M  V30 6566 H 618.528 2.69721 -2.68385 0
M  V30 6567 H 618.04 1.17979 -3.69733 0
M  V30 6568 H 616.141 3.06905 -2.11282 0
M  V30 6569 H 616.254 2.69682 -3.95991 0
M  V30 6570 H 614.618 1.51263 -2.04919 0
M  V30 6571 H 615.401 0.519404 -3.39348 0
M  V30 6572 N 617.846 1.41785 0.688094 0
M  V30 6573 C 618.756 1.46596 1.83158 0
M  V30 6574 C 619.772 0.355862 1.70322 0
M  V30 6575 O 620.948 0.604737 1.92106 0
M  V30 6576 C 618.013 1.35322 3.192 0
M  V30 6577 C 617.074 2.56711 3.4409 0
M  V30 6578 C 616.307 2.45965 4.73642 0
M  V30 6579 O 616.53 1.48827 5.50642 0
M  V30 6580 O 615.464 3.35859 4.99482 0
M  V30 6581 H 619.29 2.43083 1.82056 0
M  V30 6582 H 616.875 1.23404 0.842126 0
M  V30 6583 H 618.757 1.31347 4.00407 0
M  V30 6584 H 617.432 0.419536 3.2097 0
M  V30 6585 H 616.339 2.66262 2.62784 0
M  V30 6586 H 617.672 3.48933 3.47141 0
M  V30 6587 N 619.324 -0.923095 1.27737 0
M  V30 6588 C 620.572 -1.66797 1.14119 0
M  V30 6589 C 620.893 -1.92479 -0.312541 0
M  V30 6590 O 620.163 -1.53432 -1.218 0
M  V30 6591 H 618.743 -0.618196 0.419336 0
M  V30 6592 H 621.405 -1.10815 1.60331 0
M  V30 6593 H 620.501 -2.63424 1.67374 0
M  V30 6594 N 620.802 -1.09834 -1.13024 0
M  V30 6595 C 621.732 -0.763451 -2.20666 0
M  V30 6596 C 622.713 0.260778 -1.68089 0
M  V30 6597 O 623.898 0.127915 -1.93778 0
M  V30 6598 C 621.028 -0.187744 -3.46792 0
M  V30 6599 C 619.982 -1.14196 -4.12484 0
M  V30 6600 C 619.308 -0.427755 -5.32986 0
M  V30 6601 C 620.608 -2.48607 -4.59338 0
M  V30 6602 H 622.302 -1.66347 -2.48936 0
M  V30 6603 H 619.848 -0.801261 -1.19649 0
M  V30 6604 H 621.801 0.0586375 -4.21359 0
M  V30 6605 H 620.525 0.747485 -3.17931 0
M  V30 6606 H 619.184 -1.37369 -3.3989 0
M  V30 6607 H 618.832 0.511747 -5.0039 0
M  V30 6608 H 618.532 -1.06403 -5.77886 0
M  V30 6609 H 620.056 -0.189772 -6.10305 0
M  V30 6610 H 621.47 -2.29618 -5.25308 0
M  V30 6611 H 619.867 -3.08062 -5.14993 0
M  V30 6612 H 620.937 -3.09062 -3.73642 0
M  V30 6613 N 622.28 1.30327 -0.886154 0
M  V30 6614 C 623.529 1.95373 -0.501243 0
M  V30 6615 C 623.842 1.70722 0.954634 0
M  V30 6616 O 625.048 2.29761 1.44644 0
M  V30 6617 C 623.504 3.49828 -0.845493 0
M  V30 6618 C 623.112 3.83296 -2.31922 0
M  V30 6619 C 624.856 4.2118 -0.529838 0
M  V30 6620 C 622.763 5.30935 -2.60504 0
M  V30 6621 H 621.693 0.731274 -0.183722 0
M  V30 6622 H 624.344 1.48258 -1.08129 0
M  V30 6623 H 622.726 3.95522 -0.19452 0
M  V30 6624 H 623.9 3.48508 -3.01461 0
M  V30 6625 H 622.215 3.2505 -2.60253 0
M  V30 6626 H 624.812 5.29825 -0.720401 0
M  V30 6627 H 625.155 4.12902 0.530828 0
M  V30 6628 H 625.688 3.81173 -1.13806 0
M  V30 6629 H 622.427 5.44265 -3.65316 0
M  V30 6630 H 621.947 5.67019 -1.95575 0
M  V30 6631 H 623.626 5.98381 -2.46066 0
M  V30 6632 N 623.758 0.647228 1.43697 0
M  V30 6633 C 624.668 -0.0487997 2.34549 0
M  V30 6634 C 625.684 -0.818586 1.53542 0
M  V30 6635 O 626.86 -0.767195 1.86215 0
M  V30 6636 C 623.925 -1.00734 3.31743 0
M  V30 6637 C 622.986 -0.23515 4.28655 0
M  V30 6638 C 622.219 -1.14803 5.21206 0
M  V30 6639 O 622.442 -2.38717 5.18045 0
M  V30 6640 O 621.376 -0.623667 5.9866 0
M  V30 6641 H 625.202 0.698863 2.9555 0
M  V30 6642 H 622.787 0.407412 1.43738 0
M  V30 6643 H 624.669 -1.55837 3.91526 0
M  V30 6644 H 623.344 -1.73534 2.73254 0
M  V30 6645 H 622.251 0.359319 3.7237 0
M  V30 6646 H 623.584 0.453152 4.9011 0
M  V30 6647 N 625.236 -1.5273 0.388769 0
M  V30 6648 C 626.483 -2.01573 -0.19359 0
M  V30 6649 C 626.811 -1.27525 -1.46859 0
M  V30 6650 O 626.066 -0.363926 -1.92286 0
M  V30 6651 C 626.365 -3.53765 -0.508445 0
M  V30 6652 C 626.031 -4.4582 0.674947 0
M  V30 6653 C 624.693 -4.70703 0.999596 0
M  V30 6654 C 627.045 -5.00138 1.46666 0
M  V30 6655 C 624.373 -5.47155 2.11751 0
M  V30 6656 C 626.725 -5.77812 2.57518 0
M  V30 6657 C 625.389 -6.00975 2.90492 0
M  V30 6658 H 624.659 -0.737606 -0.0708397 0
M  V30 6659 H 627.306 -1.84134 0.526006 0
M  V30 6660 H 625.611 -3.69274 -1.30936 0
M  V30 6661 H 627.308 -3.8905 -0.971664 0
M  V30 6662 H 623.898 -4.26616 0.411906 0
M  V30 6663 H 628.082 -4.8084 1.22909 0
M  V30 6664 H 623.338 -5.63314 2.3767 0
M  V30 6665 H 627.512 -6.18904 3.19267 0
M  V30 6666 H 625.139 -6.59998 3.77236 0
M  V30 6667 N 626.714 -0.118576 -1.57153 0
M  V30 6668 C 627.96 0.540326 -1.95469 0
M  V30 6669 C 628.293 1.66356 -1.00196 0
M  V30 6670 O 627.568 1.94461 -0.039104 0
M  V30 6671 C 627.851 1.07342 -3.43729 0
M  V30 6672 C 627.704 -0.0463732 -4.49776 0
M  V30 6673 C 629.023 1.96442 -3.93826 0
M  V30 6674 H 626.142 0.19494 -0.710751 0
M  V30 6675 H 628.784 -0.19405 -1.89006 0
M  V30 6676 H 626.934 1.69925 -3.49368 0
M  V30 6677 H 628.606 -0.681648 -4.56236 0
M  V30 6678 H 626.849 -0.709574 -4.27957 0
M  V30 6679 H 627.52 0.367856 -5.50773 0
M  V30 6680 H 629.996 1.43731 -3.90488 0
M  V30 6681 H 628.872 2.3066 -4.98084 0
M  V30 6682 H 629.133 2.89077 -3.34495 0
M  V30 6683 N 628.193 1.56834 0.155195 0
M  V30 6684 C 629.604 1.72421 0.716082 0
M  V30 6685 C 629.955 0.731685 1.82046 0
M  V30 6686 O 629.08 -0.103481 2.16152 0
M  V30 6687 C 629.675 3.12629 1.30571 0
M  V30 6688 C 628.234 3.29846 1.81325 0
M  V30 6689 C 627.381 2.68359 0.698494 0
M  V30 6690 H 630.332 1.58544 -0.0703861 0
M  V30 6691 H 630.353 3.12174 2.1755 0
M  V30 6692 H 629.865 3.84844 0.501701 0
M  V30 6693 H 627.966 2.62614 2.64319 0
M  V30 6694 H 628.079 4.37727 1.9476 0
M  V30 6695 H 626.443 2.28604 1.12305 0
M  V30 6696 H 627.226 3.43171 -0.0939366 0
M  V30 6697 N 629.671 -0.424282 1.51781 0
M  V30 6698 C 630.581 -1.54087 1.76902 0
M  V30 6699 C 631.597 -1.61249 0.653826 0
M  V30 6700 O 632.773 -1.78247 0.937552 0
M  V30 6701 C 629.838 -2.8996 1.90063 0
M  V30 6702 C 628.899 -2.92809 3.13945 0
M  V30 6703 C 628.132 -4.22201 3.26469 0
M  V30 6704 O 628.355 -5.15286 2.44616 0
M  V30 6705 O 627.289 -4.31599 4.1953 0
M  V30 6706 H 631.115 -1.358 2.71647 0
M  V30 6707 H 628.7 -0.608618 1.36441 0
M  V30 6708 H 630.582 -3.70575 2.0063 0
M  V30 6709 H 629.257 -3.08347 0.985067 0
M  V30 6710 H 628.164 -2.11102 3.08847 0
M  V30 6711 H 629.497 -2.79369 4.05233 0
M  V30 6712 N 631.149 -1.42148 -0.680565 0
M  V30 6713 C 632.082 -1.39602 -1.80517 0
M  V30 6714 C 633.06 -0.261098 -1.6049 0
M  V30 6715 O 634.244 -0.450404 -1.8304 0
M  V30 6716 C 631.371 -1.18134 -3.1743 0
M  V30 6717 C 630.417 -2.34543 -3.56219 0
M  V30 6718 S 631.25 -3.97063 -3.59306 0
M  V30 6719 C 632.406 -3.77926 -4.98921 0
M  V30 6720 H 632.639 -2.3477 -1.82402 0
M  V30 6721 H 630.172 -1.28851 -0.850691 0
M  V30 6722 H 632.13 -1.06434 -3.96462 0
M  V30 6723 H 630.791 -0.245611 -3.13138 0
M  V30 6724 H 629.984 -2.15255 -4.55721 0
M  V30 6725 H 629.586 -2.42728 -2.84533 0
M  V30 6726 H 631.878 -3.3856 -5.86842 0
M  V30 6727 H 632.821 -4.77084 -5.23256 0
M  V30 6728 H 633.229 -3.10904 -4.71167 0
M  V30 6729 N 632.627 0.916307 -1.28225 0
M  V30 6730 C 633.574 2.01841 -1.11932 0
M  V30 6731 C 634.544 1.66091 -0.0171604 0
M  V30 6732 O 635.729 1.89934 -0.181617 0
M  V30 6733 C 632.869 3.36065 -0.784504 0
M  V30 6734 C 631.982 3.847 -1.96544 0
M  V30 6735 C 631.117 5.07423 -1.57149 0
M  V30 6736 C 630.156 5.48384 -2.71922 0
M  V30 6737 N 629.293 6.62298 -2.33037 0
M  V30 6738 H 634.133 2.1511 -2.06232 0
M  V30 6739 H 631.67 1.05366 -1.02647 0
M  V30 6740 H 633.628 4.13272 -0.571148 0
M  V30 6741 H 632.258 3.22571 0.121565 0
M  V30 6742 H 631.31 3.03673 -2.291 0
M  V30 6743 H 632.622 4.1102 -2.82603 0
M  V30 6744 H 631.776 5.92165 -1.32004 0
M  V30 6745 H 630.515 4.82906 -0.682153 0
M  V30 6746 H 629.52 4.62184 -2.97768 0
M  V30 6747 H 630.745 5.7489 -3.61494 0
M  V30 6748 H 628.691 6.39416 -1.4657 0
M  V30 6749 H 628.608 6.8833 -3.12631 0
M  V30 6750 H 629.876 7.50352 -2.11169 0
M  V30 6751 N 634.105 1.10431 1.1244 0
M  V30 6752 C 635.354 0.841539 1.83306 0
M  V30 6753 C 635.667 -0.634961 1.85007 0
M  V30 6754 O 636.873 -1.01363 2.51869 0
M  V30 6755 C 635.329 1.45565 3.29149 0
M  V30 6756 C 634.937 2.96544 3.35806 0
M  V30 6757 C 636.681 1.27227 4.04986 0
M  V30 6758 C 634.588 3.5099 4.75983 0
M  V30 6759 H 633.518 0.311156 0.686803 0
M  V30 6760 H 636.169 1.32829 1.26604 0
M  V30 6761 H 634.551 0.896574 3.85717 0
M  V30 6762 H 635.725 3.58766 2.89177 0
M  V30 6763 H 634.04 3.14036 2.73442 0
M  V30 6764 H 636.637 1.65348 5.08492 0
M  V30 6765 H 636.98 0.213834 4.1575 0
M  V30 6766 H 637.513 1.79941 3.54776 0
M  V30 6767 H 634.252 4.56499 4.70413 0
M  V30 6768 H 633.772 2.93535 5.23065 0
M  V30 6769 H 635.451 3.48808 5.44924 0
M  V30 6770 N 635.583 -1.29855 0.893053 0
M  V30 6771 C 636.513 -2.3035 0.382249 0
M  V30 6772 C 637.494 -1.61328 -0.539203 0
M  V30 6773 O 638.679 -1.88882 -0.451342 0
M  V30 6774 C 635.809 -3.45024 -0.396983 0
M  V30 6775 C 634.763 -4.258 0.433437 0
M  V30 6776 C 634.089 -5.32605 -0.472889 0
M  V30 6777 C 635.389 -4.94549 1.67984 0
M  V30 6778 H 637.083 -2.73325 1.22205 0
M  V30 6779 H 634.629 -1.314 0.589073 0
M  V30 6780 H 636.582 -4.14398 -0.765024 0
M  V30 6781 H 635.306 -3.00875 -1.2705 0
M  V30 6782 H 633.965 -3.58125 0.783723 0
M  V30 6783 H 633.613 -4.84702 -1.34435 0
M  V30 6784 H 633.313 -5.87547 0.0789958 0
M  V30 6785 H 634.837 -6.04832 -0.837269 0
M  V30 6786 H 636.251 -5.56395 1.38192 0
M  V30 6787 H 634.648 -5.59393 2.17254 0
M  V30 6788 H 635.718 -4.20215 2.41965 0
M  V30 6789 N 637.061 -0.65484 -1.43351 0
M  V30 6790 C 638.31 -0.166215 -2.01014 0
M  V30 6791 C 638.623 1.22764 -1.52278 0
M  V30 6792 O 639.829 1.81156 -2.02224 0
M  V30 6793 C 638.285 -0.246341 -3.59056 0
M  V30 6794 C 637.893 -1.64299 -4.16785 0
M  V30 6795 C 639.637 0.184597 -4.24098 0
M  V30 6796 C 637.544 -1.67695 -5.67126 0
M  V30 6797 H 636.474 -0.0583769 -0.751737 0
M  V30 6798 H 639.125 -0.817111 -1.64303 0
M  V30 6799 H 637.507 0.472092 -3.93176 0
M  V30 6800 H 638.681 -2.3869 -3.94162 0
M  V30 6801 H 636.996 -2.02004 -3.6412 0
M  V30 6802 H 639.593 0.179088 -5.344 0
M  V30 6803 H 639.936 1.21632 -3.98135 0
M  V30 6804 H 640.469 -0.482141 -3.94867 0
M  V30 6805 H 637.208 -2.68783 -5.9786 0
M  V30 6806 H 636.728 -0.976313 -5.91801 0
M  V30 6807 H 638.407 -1.42142 -6.31193 0
M  V30 6808 N 638.539 1.52521 -0.396863 0
M  V30 6809 C 639.764 2.06571 0.185258 0
M  V30 6810 C 640.189 1.26605 1.39115 0
M  V30 6811 O 639.547 0.293055 1.78916 0
M  V30 6812 C 639.595 3.5674 0.526189 0
M  V30 6813 O 638.699 3.7929 1.61903 0
M  V30 6814 H 638.04 0.663712 0.0195474 0
M  V30 6815 H 640.57 1.966 -0.566519 0
M  V30 6816 H 640.58 4.00311 0.788338 0
M  V30 6817 H 639.255 4.14379 -0.355397 0
M  V30 6818 H 637.832 3.47605 1.35 0
M  V30 6819 N 640.017 0.126909 1.57088 0
M  V30 6820 C 640.927 -0.833867 2.1928 0
M  V30 6821 C 641.943 -1.2868 1.17122 0
M  V30 6822 O 643.119 -1.34815 1.49622 0
M  V30 6823 C 640.184 -2.0632 2.78627 0
M  V30 6824 C 639.245 -1.66143 3.95847 0
M  V30 6825 C 638.478 -2.83217 4.52354 0
M  V30 6826 O 638.701 -3.98868 4.0775 0
M  V30 6827 O 637.635 -2.59846 5.42922 0
M  V30 6828 H 641.461 -0.334564 3.01852 0
M  V30 6829 H 639.046 -0.0991091 1.49071 0
M  V30 6830 H 640.928 -2.78304 3.16425 0
M  V30 6831 H 639.603 -2.55242 1.99082 0
M  V30 6832 H 638.51 -0.912435 3.62802 0
M  V30 6833 H 639.843 -1.21957 4.76852 0
M  V30 6834 N 641.495 -1.56914 -0.146875 0
M  V30 6835 C 642.425 -2.01308 -1.1831 0
M  V30 6836 C 643.406 -0.892664 -1.44795 0
M  V30 6837 O 644.591 -1.16048 -1.55713 0
M  V30 6838 C 641.721 -2.3938 -2.51624 0
M  V30 6839 C 640.675 -3.54608 -2.3966 0
M  V30 6840 C 640.001 -3.78493 -3.77686 0
M  V30 6841 C 641.301 -4.87269 -1.88058 0
M  V30 6842 H 642.995 -2.88123 -0.813964 0
M  V30 6843 H 640.541 -1.38615 -0.3901 0
M  V30 6844 H 642.494 -2.69037 -3.24341 0
M  V30 6845 H 641.218 -1.49502 -2.90373 0
M  V30 6846 H 639.877 -3.25116 -1.69396 0
M  V30 6847 H 639.525 -2.85866 -4.13871 0
M  V30 6848 H 639.225 -4.56039 -3.70543 0
M  V30 6849 H 640.749 -4.10576 -4.51951 0
M  V30 6850 H 642.163 -5.15644 -2.50568 0
M  V30 6851 H 640.56 -5.68622 -1.91805 0
M  V30 6852 H 641.63 -4.77634 -0.836277 0
M  V30 6853 N 642.974 0.416227 -1.52004 0
M  V30 6854 C 643.922 1.5272 -1.7544 0
M  V30 6855 C 644.916 1.57596 -0.621289 0
M  V30 6856 O 646.122 1.61087 -0.803172 0
M  V30 6857 H 642.497 0.507772 -0.554682 0
M  V30 6858 H 644.468 1.30136 -2.68528 0
M  V30 6859 C 643.217 2.90165 -1.91571 0
M  V30 6860 H 642.54 2.87154 -2.78178 0
M  V30 6861 H 643.98 3.67211 -2.11972 0
M  V30 6862 C 642.439 3.29947 -0.680942 0
M  V30 6863 O 642.969 4.01403 0.154527 0
M  V30 6864 N 641.175 2.8593 -0.518894 0
M  V30 6865 H 640.722 2.2795 -1.19986 0
M  V30 6866 H 640.68 3.12907 0.305985 0
M  V30 6867 N 644.452 1.42507 0.673017 0
M  V30 6868 C 645.698 1.43284 1.43519 0
M  V30 6869 C 646.031 0.049668 1.94136 0
M  V30 6870 O 645.306 -0.926369 1.71022 0
M  V30 6871 C 645.589 2.45874 2.63093 0
M  V30 6872 C 645.442 3.93388 2.18096 0
M  V30 6873 C 646.761 2.45431 3.6531 0
M  V30 6874 H 643.88 0.521752 0.520522 0
M  V30 6875 H 646.522 1.73932 0.764701 0
M  V30 6876 H 644.672 2.19869 3.20296 0
M  V30 6877 H 646.344 4.30379 1.66046 0
M  V30 6878 H 644.587 4.07169 1.49652 0
M  V30 6879 H 645.258 4.60752 3.03993 0
M  V30 6880 H 647.734 2.68561 3.17827 0
M  V30 6881 H 646.61 3.19189 4.46553 0
M  V30 6882 H 646.871 1.48092 4.16559 0
M  V30 6883 N 645.93 -0.909495 1.28709 0
M  V30 6884 C 647.179 -1.65365 1.15487 0
M  V30 6885 C 647.492 -1.93364 -0.294941 0
M  V30 6886 O 648.698 -2.65905 -0.548338 0
M  V30 6887 C 647.154 -2.97923 2.01916 0
M  V30 6888 C 646.762 -2.77556 3.51663 0
M  V30 6889 C 648.506 -3.75814 1.97393 0
M  V30 6890 C 646.413 -4.0578 4.30229 0
M  V30 6891 H 645.343 -0.620323 0.42862 0
M  V30 6892 H 647.994 -1.00894 1.53273 0
M  V30 6893 H 646.376 -3.63552 1.5699 0
M  V30 6894 H 647.55 -2.2058 4.04575 0
M  V30 6895 H 645.865 -2.13072 3.57756 0
M  V30 6896 H 648.462 -4.70866 2.53357 0
M  V30 6897 H 648.805 -4.05277 0.951643 0
M  V30 6898 H 649.338 -3.1701 2.40311 0
M  V30 6899 H 646.077 -3.81488 5.33055 0
M  V30 6900 H 645.597 -4.62351 3.82089 0
M  V30 6901 H 647.276 -4.74004 4.40374 0
M  V30 6902 N 647.408 -1.11026 -1.11852 0
M  V30 6903 C 648.338 -0.786812 -2.19844 0
M  V30 6904 C 649.319 0.242935 -1.68356 0
M  V30 6905 O 650.504 0.107355 -1.93903 0
M  V30 6906 C 647.634 -0.224516 -3.46574 0
M  V30 6907 C 646.588 -1.18564 -4.1125 0
M  V30 6908 C 645.914 -0.484261 -5.32503 0
M  V30 6909 C 647.214 -2.53465 -4.56676 0
M  V30 6910 H 648.908 -1.68978 -2.47158 0
M  V30 6911 H 646.454 -0.813906 -1.18792 0
M  V30 6912 H 648.407 0.0139435 -4.21398 0
M  V30 6913 H 647.131 0.713722 -3.18706 0
M  V30 6914 H 645.79 -1.40966 -3.38414 0
M  V30 6915 H 645.438 0.458646 -5.00905 0
M  V30 6916 H 645.138 -1.12526 -5.76725 0
M  V30 6917 H 646.662 -0.254492 -6.10069 0
M  V30 6918 H 648.076 -2.35177 -5.22843 0
M  V30 6919 H 646.473 -3.13507 -5.11697 0
M  V30 6920 H 647.543 -3.13008 -3.70343 0
M  V30 6921 N 648.886 1.2938 -0.899927 0
M  V30 6922 C 649.833 2.27713 -0.376243 0
M  V30 6923 C 650.803 1.57016 0.541774 0
M  V30 6924 O 651.988 1.84997 0.466966 0
M  V30 6925 C 649.128 3.42889 0.39 0
M  V30 6926 C 648.241 4.28369 -0.558938 0
M  V30 6927 C 647.376 5.30726 0.224379 0
M  V30 6928 C 646.415 6.07862 -0.719068 0
M  V30 6929 N 645.552 7.02094 0.0298569 0
M  V30 6930 H 650.392 2.71888 -1.21988 0
M  V30 6931 H 647.929 1.33724 -0.612879 0
M  V30 6932 H 649.887 4.08443 0.850314 0
M  V30 6933 H 648.517 2.99743 1.19809 0
M  V30 6934 H 647.569 3.62986 -1.13777 0
M  V30 6935 H 648.881 4.82068 -1.2811 0
M  V30 6936 H 648.035 6.02098 0.745881 0
M  V30 6937 H 646.774 4.77759 0.979674 0
M  V30 6938 H 645.779 5.35353 -1.25207 0
M  V30 6939 H 647.004 6.62917 -1.4737 0
M  V30 6940 H 644.95 6.51496 0.767415 0
M  V30 6941 H 644.867 7.5335 -0.632391 0
M  V30 6942 H 646.135 7.77685 0.531615 0
M  V30 6943 N 650.364 0.662433 1.43002 0
M  V30 6944 C 651.641 0.109096 1.95296 0
M  V30 6945 C 652.021 -1.37313 1.60338 0
M  V30 6946 O 651.369 -2.1032 0.893187 0
M  V30 6947 C 651.579 0.365096 3.47085 0
M  V30 6948 C 652.927 0.274964 4.23709 0
M  V30 6949 O 653.951 0.29816 3.5495 0
M  V30 6950 O 652.81 0.206549 5.4611 0
M  V30 6951 H 649.904 -0.00429724 0.826989 0
M  V30 6952 H 652.45 0.736308 1.52894 0
M  V30 6953 H 651.222 1.39237 3.65689 0
M  V30 6954 H 650.845 -0.294733 3.96506 0
M  V30 6955 N 651.842 -1.52309 0.404946 0
M  V30 6956 C 653.09 -2.01368 -0.17186 0
M  V30 6957 C 653.411 -1.29261 -1.46002 0
M  V30 6958 O 652.681 -0.41729 -1.91404 0
M  V30 6959 H 651.261 -0.744034 -0.0664993 0
M  V30 6960 H 653.923 -1.87263 0.540228 0
M  V30 6961 H 653.019 -3.09888 -0.370957 0
M  V30 6962 N 653.32 -0.135238 -1.57019 0
M  V30 6963 C 654.731 0.387521 -1.82634 0
M  V30 6964 C 655.082 1.65528 -1.05332 0
M  V30 6965 O 654.207 2.14381 -0.294926 0
M  V30 6966 C 654.802 0.709852 -3.3128 0
M  V30 6967 C 653.361 1.17718 -3.57518 0
M  V30 6968 C 652.508 0.194183 -2.76619 0
M  V30 6969 H 655.459 -0.360126 -1.5456 0
M  V30 6970 H 655.48 1.5657 -3.46794 0
M  V30 6971 H 654.992 -0.213024 -3.87515 0
M  V30 6972 H 653.093 2.1164 -3.06658 0
M  V30 6973 H 653.206 1.11128 -4.66034 0
M  V30 6974 H 651.57 0.684478 -2.4533 0
M  V30 6975 H 652.353 -0.722076 -3.3562 0
M  V30 6976 N 654.798 1.5699 0.138552 0
M  V30 6977 C 656.045 1.83809 0.849732 0
M  V30 6978 C 656.373 0.717409 1.80786 0
M  V30 6979 O 655.628 -0.292897 1.93496 0
M  V30 6980 C 655.927 3.17007 1.65049 0
M  V30 6981 C 655.593 4.43037 0.838398 0
M  V30 6982 C 654.255 4.77262 0.614385 0
M  V30 6983 C 656.607 5.20495 0.271044 0
M  V30 6984 C 653.935 5.864 -0.187552 0
M  V30 6985 C 656.287 6.30476 -0.517979 0
M  V30 6986 C 654.951 6.63245 -0.75249 0
M  V30 6987 H 654.221 0.672605 0.310939 0
M  V30 6988 H 656.868 1.91166 0.112971 0
M  V30 6989 H 655.173 3.05138 2.4576 0
M  V30 6990 H 656.87 3.34975 2.20437 0
M  V30 6991 H 653.46 4.16211 1.02307 0
M  V30 6992 H 657.644 4.94422 0.431371 0
M  V30 6993 H 652.9 6.10226 -0.378659 0
M  V30 6994 H 657.074 6.89686 -0.964694 0
M  V30 6995 H 654.701 7.47648 -1.37573 0
M  V30 6996 N 656.276 -0.40816 1.52223 0
M  V30 6997 C 657.553 -1.16807 1.56893 0
M  V30 6998 C 657.933 -2.08169 0.350537 0
M  V30 6999 O 657.281 -2.18684 -0.662536 0
M  V30 7000 C 657.491 -1.94451 2.8981 0
M  V30 7001 C 658.839 -2.50484 3.42845 0
M  V30 7002 O 659.863 -2.0463 2.91556 0
M  V30 7003 O 658.722 -3.34192 4.3241 0
M  V30 7004 H 655.816 -0.533382 0.632007 0
M  V30 7005 H 658.362 -0.414862 1.64551 0
M  V30 7006 H 657.134 -1.27527 3.69936 0
M  V30 7007 H 656.757 -2.76775 2.85449 0
M  V30 7008 N 657.755 -1.42862 -0.66545 0
M  V30 7009 C 658.718 -1.46756 -1.76055 0
M  V30 7010 C 659.718 -0.353866 -1.56858 0
M  V30 7011 O 660.908 -0.615099 -1.62979 0
M  V30 7012 C 658.04 -1.30829 -3.14796 0
M  V30 7013 H 659.233 -2.44271 -1.73987 0
M  V30 7014 H 656.786 -1.29447 -0.875965 0
M  V30 7015 H 657.521 -0.342733 -3.22484 0
M  V30 7016 H 657.306 -2.11551 -3.30134 0
M  V30 7017 H 658.796 -1.36458 -3.94676 0
M  V30 7018 N 659.233 0.902656 -1.29189 0
M  V30 7019 C 660.458 1.69167 -1.19989 0
M  V30 7020 C 660.883 1.86607 0.236495 0
M  V30 7021 O 660.241 1.38425 1.17082 0
M  V30 7022 C 660.289 3.05532 -1.91527 0
M  V30 7023 O 659.393 3.93621 -1.2303 0
M  V30 7024 H 658.734 0.517584 -0.415936 0
M  V30 7025 H 661.264 1.12785 -1.70706 0
M  V30 7026 H 661.274 3.55693 -1.99866 0
M  V30 7027 H 659.949 2.92156 -2.96003 0
M  V30 7028 H 658.526 3.52055 -1.22928 0
M  V30 7029 N 660.711 1.11618 1.11262 0
M  V30 7030 C 661.658 0.7762 2.17356 0
M  V30 7031 C 662.628 -0.253152 1.6416 0
M  V30 7032 O 663.813 -0.129655 1.90359 0
M  V30 7033 C 660.953 0.227581 3.44349 0
M  V30 7034 C 660.066 1.31372 4.1154 0
M  V30 7035 C 659.201 0.72544 5.26223 0
M  V30 7036 C 658.24 1.7913 5.85302 0
M  V30 7037 N 657.377 1.22237 6.91377 0
M  V30 7038 H 662.217 1.68508 2.45783 0
M  V30 7039 H 659.754 0.841475 1.20655 0
M  V30 7040 H 661.712 -0.108483 4.17059 0
M  V30 7041 H 660.342 -0.644486 3.16301 0
M  V30 7042 H 659.394 1.7667 3.36885 0
M  V30 7043 H 660.706 2.12005 4.51504 0
M  V30 7044 H 659.86 0.339541 6.05749 0
M  V30 7045 H 658.599 -0.112188 4.87571 0
M  V30 7046 H 657.604 2.18648 5.04453 0
M  V30 7047 H 658.829 2.63199 6.26022 0
M  V30 7048 H 656.775 0.406423 6.5474 0
M  V30 7049 H 656.692 1.9654 7.30006 0
M  V30 7050 H 657.96 0.863426 7.74703 0
M  V30 7051 N 662.189 -1.289 0.906776 0
M  V30 7052 C 663.119 -2.29932 0.406659 0
M  V30 7053 C 664.1 -1.6189 -0.522061 0
M  V30 7054 O 665.285 -1.8935 -0.431283 0
M  V30 7055 C 662.415 -3.45425 -0.360366 0
M  V30 7056 C 661.369 -4.25316 0.478574 0
M  V30 7057 C 660.695 -5.33076 -0.416373 0
M  V30 7058 C 661.995 -4.92739 1.7322 0
M  V30 7059 H 663.689 -2.72013 1.25097 0
M  V30 7060 H 661.235 -1.30768 0.602977 0
M  V30 7061 H 663.188 -4.15186 -0.721029 0
M  V30 7062 H 661.912 -3.02206 -1.23852 0
M  V30 7063 H 660.571 -3.57273 0.821662 0
M  V30 7064 H 660.219 -4.86101 -1.29287 0
M  V30 7065 H 659.919 -5.8743 0.141309 0
M  V30 7066 H 661.443 -6.05686 -0.773072 0
M  V30 7067 H 662.857 -5.54898 1.44086 0
M  V30 7068 H 661.254 -5.57057 2.23175 0
M  V30 7069 H 662.324 -4.17625 2.46408 0
M  V30 7070 N 663.667 -0.670007 -1.42649 0
M  V30 7071 C 664.599 0.0501746 -2.29145 0
M  V30 7072 C 665.612 0.770331 -1.43422 0
M  V30 7073 O 666.801 0.625288 -1.6719 0
M  V30 7074 C 663.901 1.09463 -3.20735 0
M  V30 7075 C 663.074 0.44926 -4.35087 0
M  V30 7076 C 662.133 1.39285 -5.07431 0
M  V30 7077 O 661.159 0.894997 -5.6212 0
M  V30 7078 N 662.361 2.72631 -5.12496 0
M  V30 7079 H 665.126 -0.692312 -2.91594 0
M  V30 7080 H 662.687 -0.514056 -1.53522 0
M  V30 7081 H 664.679 1.72705 -3.65999 0
M  V30 7082 H 663.249 1.73891 -2.59771 0
M  V30 7083 H 662.469 -0.362573 -3.92529 0
M  V30 7084 H 663.757 -0.000544776 -5.088 0
M  V30 7085 H 663.155 3.15623 -4.69467 0
M  V30 7086 H 661.712 3.31132 -5.61422 0
M  V30 7087 N 665.145 1.52092 -0.413018 0
M  V30 7088 C 666.092 2.27119 0.410558 0
M  V30 7089 C 667.062 1.29692 1.03774 0
M  V30 7090 O 668.247 1.58561 1.06128 0
M  V30 7091 C 665.387 3.09863 1.51918 0
M  V30 7092 C 664.5 4.22252 0.912528 0
M  V30 7093 C 663.635 4.92348 1.99417 0
M  V30 7094 C 662.674 5.96694 1.36466 0
M  V30 7095 N 661.811 6.60292 2.38661 0
M  V30 7096 H 666.651 2.97067 -0.235661 0
M  V30 7097 H 664.188 1.46542 -0.128055 0
M  V30 7098 H 666.146 3.56144 2.17295 0
M  V30 7099 H 664.776 2.42078 2.13537 0
M  V30 7100 H 663.828 3.80113 0.147697 0
M  V30 7101 H 665.14 4.9709 0.412717 0
M  V30 7102 H 664.294 5.42054 2.72512 0
M  V30 7103 H 663.033 4.17087 2.52764 0
M  V30 7104 H 662.038 5.46304 0.61906 0
M  V30 7105 H 663.263 6.73899 0.838827 0
M  V30 7106 H 661.209 5.87858 2.91134 0
M  V30 7107 H 661.126 7.30816 1.93503 0
M  V30 7108 H 662.394 7.14635 3.11314 0
M  V30 7109 N 666.623 0.143563 1.56945 0
M  V30 7110 C 667.848 -0.518701 2.00809 0
M  V30 7111 C 668.273 -1.5785 1.02298 0
M  V30 7112 O 667.631 -1.813 -0.0017839 0
M  V30 7113 C 667.679 -1.09929 3.43436 0
M  V30 7114 O 666.783 -2.21425 3.47915 0
M  V30 7115 H 666.124 -0.127215 0.6517 0
M  V30 7116 H 668.654 0.239283 2.03196 0
M  V30 7117 H 668.664 -1.4288 3.82164 0
M  V30 7118 H 667.339 -0.323162 4.14643 0
M  V30 7119 H 665.916 -1.89728 3.21026 0
M  V30 7120 N 668.101 -1.57061 -0.130224 0
M  V30 7121 C 669.048 -1.99517 -1.16024 0
M  V30 7122 C 670.018 -0.865452 -1.41771 0
M  V30 7123 O 671.203 -1.12882 -1.53826 0
M  V30 7124 C 668.343 -2.3951 -2.48453 0
M  V30 7125 C 667.456 -3.65848 -2.29737 0
M  V30 7126 C 666.591 -3.9487 -3.55318 0
M  V30 7127 C 665.63 -5.14426 -3.31711 0
M  V30 7128 N 664.767 -5.39375 -4.49466 0
M  V30 7129 H 669.607 -2.87305 -0.791194 0
M  V30 7130 H 667.144 -1.42129 -0.379195 0
M  V30 7131 H 669.102 -2.60731 -3.25692 0
M  V30 7132 H 667.732 -1.54779 -2.83272 0
M  V30 7133 H 666.784 -3.52307 -1.4347 0
M  V30 7134 H 668.096 -4.53241 -2.08263 0
M  V30 7135 H 667.25 -4.16679 -4.4098 0
M  V30 7136 H 665.989 -3.05931 -3.79813 0
M  V30 7137 H 664.994 -4.92473 -2.44439 0
M  V30 7138 H 666.219 -6.04933 -3.08598 0
M  V30 7139 H 664.165 -4.53391 -4.74102 0
M  V30 7140 H 664.082 -6.21069 -4.31055 0
M  V30 7141 H 665.35 -5.65694 -5.36293 0
M  V30 7142 N 669.579 0.400081 -1.52437 0
M  V30 7143 C 670.489 1.51253 -1.79331 0
M  V30 7144 C 671.505 1.60188 -0.679396 0
M  V30 7145 O 672.681 1.76733 -0.965791 0
M  V30 7146 C 669.746 2.869 -1.94652 0
M  V30 7147 C 668.807 2.87777 -3.18564 0
M  V30 7148 C 668.04 4.16954 -3.33145 0
M  V30 7149 O 668.263 5.11329 -2.52783 0
M  V30 7150 O 667.197 4.2487 -4.26343 0
M  V30 7151 H 671.023 1.31461 -2.73773 0
M  V30 7152 H 668.608 0.586834 -1.37392 0
M  V30 7153 H 670.49 3.67336 -2.065 0
M  V30 7154 H 669.165 3.06741 -1.034 0
M  V30 7155 H 668.072 2.06162 -3.12167 0
M  V30 7156 H 669.405 2.72886 -4.09627 0
M  V30 7157 N 671.057 1.43213 0.657864 0
M  V30 7158 C 672.303 1.44798 1.41991 0
M  V30 7159 C 672.636 0.070256 1.94073 0
M  V30 7160 O 671.911 -0.908177 1.71995 0
M  V30 7161 C 672.194 2.4865 2.60471 0
M  V30 7162 C 672.047 3.95679 2.13911 0
M  V30 7163 C 673.366 2.49292 3.62686 0
M  V30 7164 H 670.485 0.527244 0.514959 0
M  V30 7165 H 673.127 1.74733 0.74621 0
M  V30 7166 H 671.277 2.23254 3.17946 0
M  V30 7167 H 672.949 4.32116 1.61472 0
M  V30 7168 H 671.192 4.08733 1.45325 0
M  V30 7169 H 671.863 4.6395 2.99089 0
M  V30 7170 H 674.339 2.71917 3.14961 0
M  V30 7171 H 673.215 3.23907 4.43143 0
M  V30 7172 H 673.476 1.52502 4.14964 0
M  V30 7173 N 672.536 -0.895792 1.29666 0
M  V30 7174 C 673.782 -1.64921 1.19049 0
M  V30 7175 C 674.137 -1.90707 -0.254678 0
M  V30 7176 O 673.43 -1.5092 -1.18041 0
M  V30 7177 C 673.624 -3.00075 1.94139 0
M  V30 7178 C 673.453 -2.87482 3.4581 0
M  V30 7179 C 672.223 -2.88041 4.15163 0
M  V30 7180 C 674.421 -2.64224 4.41237 0
M  V30 7181 N 672.403 -2.66226 5.5317 0
M  V30 7182 C 673.774 -2.51427 5.66732 0
M  V30 7183 C 675.829 -2.49362 4.30956 0
M  V30 7184 C 674.532 -2.25281 6.83111 0
M  V30 7185 C 676.558 -2.246 5.47091 0
M  V30 7186 C 675.92 -2.12571 6.7156 0
M  V30 7187 H 672.019 -0.608926 0.490646 0
M  V30 7188 H 674.603 -1.05648 1.63544 0
M  V30 7189 H 672.774 -3.574 1.52052 0
M  V30 7190 H 674.506 -3.64544 1.75754 0
M  V30 7191 H 671.261 -2.99471 3.66898 0
M  V30 7192 H 671.685 -2.58361 6.25762 0
M  V30 7193 H 676.327 -2.57403 3.35415 0
M  V30 7194 H 674.045 -2.15978 7.78704 0
M  V30 7195 H 677.631 -2.13939 5.41037 0
M  V30 7196 H 676.511 -1.93676 7.59907 0
M  V30 7197 N 674.014 -1.12206 -1.10668 0
M  V30 7198 C 675.291 -0.787382 -1.79052 0
M  V30 7199 C 675.671 0.723267 -1.98323 0
M  V30 7200 O 675.019 1.6561 -1.57434 0
M  V30 7201 C 675.229 -1.55968 -3.1221 0
M  V30 7202 C 676.577 -1.74413 -3.87125 0
M  V30 7203 O 677.601 -1.5246 -3.21923 0
M  V30 7204 O 676.46 -2.10952 -5.04144 0
M  V30 7205 H 673.554 -0.286137 -0.775922 0
M  V30 7206 H 676.1 -1.22595 -1.1734 0
M  V30 7207 H 674.872 -2.58692 -2.93588 0
M  V30 7208 H 674.495 -1.1152 -3.8164 0
M  V30 7209 N 675.492 1.28418 -0.913599 0
M  V30 7210 C 676.739 1.94981 -0.546674 0
M  V30 7211 C 677.067 1.7192 0.909606 0
M  V30 7212 O 676.322 1.03314 1.66207 0
M  V30 7213 C 676.621 3.48283 -0.802099 0
M  V30 7214 C 676.287 3.91444 -2.2379 0
M  V30 7215 C 674.949 4.02939 -2.63046 0
M  V30 7216 C 677.301 4.13542 -3.17227 0
M  V30 7217 C 674.629 4.3391 -3.94891 0
M  V30 7218 C 676.981 4.45992 -4.48636 0
M  V30 7219 C 675.645 4.55698 -4.87746 0
M  V30 7220 H 674.915 0.713487 -0.200042 0
M  V30 7221 H 677.562 1.52756 -1.15489 0
M  V30 7222 H 675.867 3.91643 -0.111076 0
M  V30 7223 H 677.564 3.97903 -0.497375 0
M  V30 7224 H 674.154 3.83024 -1.9233 0
M  V30 7225 H 678.338 4.04114 -2.88107 0
M  V30 7226 H 673.594 4.39631 -4.24894 0
M  V30 7227 H 677.768 4.62038 -5.21051 0
M  V30 7228 H 675.395 4.79451 -5.89942 0
M  V30 7229 N 676.97 0.677563 1.42291 0
M  V30 7230 C 677.9 0.014968 2.33495 0
M  V30 7231 C 678.881 -0.786376 1.50831 0
M  V30 7232 O 680.066 -0.742975 1.79426 0
M  V30 7233 C 677.196 -0.935023 3.34477 0
M  V30 7234 C 676.15 -0.242074 4.27315 0
M  V30 7235 C 675.476 -1.30519 5.18526 0
M  V30 7236 C 676.776 0.880604 5.14823 0
M  V30 7237 H 678.47 0.776671 2.89151 0
M  V30 7238 H 676.016 0.37494 1.39033 0
M  V30 7239 H 677.969 -1.40766 3.97194 0
M  V30 7240 H 676.693 -1.72818 2.77131 0
M  V30 7241 H 675.352 0.210351 3.65996 0
M  V30 7242 H 675 -2.09041 4.57505 0
M  V30 7243 H 674.7 -0.846652 5.81468 0
M  V30 7244 H 676.224 -1.7787 5.84119 0
M  V30 7245 H 677.638 0.489062 5.7121 0
M  V30 7246 H 676.035 1.26511 5.86613 0
M  V30 7247 H 677.105 1.72818 4.53059 0
M  V30 7248 N 678.448 -1.51871 0.421078 0
M  V30 7249 C 679.859 -1.86644 -0.0457991 0
M  V30 7250 C 680.21 -1.33919 -1.43388 0
M  V30 7251 O 679.335 -0.683316 -2.05328 0
M  V30 7252 C 679.93 -3.38681 -0.0898844 0
M  V30 7253 C 678.489 -3.73049 -0.501127 0
M  V30 7254 C 677.636 -2.75485 0.316723 0
M  V30 7255 H 680.587 -1.45327 0.637635 0
M  V30 7256 H 680.608 -3.69636 -0.902734 0
M  V30 7257 H 680.12 -3.77025 0.920513 0
M  V30 7258 H 678.221 -3.40288 -1.51773 0
M  V30 7259 H 678.334 -4.78512 -0.237217 0
M  V30 7260 H 676.698 -2.53725 -0.222663 0
M  V30 7261 H 677.481 -3.16671 1.32569 0
M  V30 7262 N 679.926 -0.151884 -1.56866 0
M  V30 7263 C 681.337 0.368128 -1.83035 0
M  V30 7264 C 681.688 1.64402 -1.07082 0
M  V30 7265 O 680.813 2.14056 -0.317647 0
M  V30 7266 C 681.408 0.674676 -3.32014 0
M  V30 7267 C 679.967 1.13919 -3.58747 0
M  V30 7268 C 679.114 0.164833 -2.7681 0
M  V30 7269 H 682.065 -0.376499 -1.54169 0
M  V30 7270 H 682.086 1.52883 -3.48435 0
M  V30 7271 H 681.598 -0.254113 -3.87267 0
M  V30 7272 H 679.699 2.08375 -3.08886 0
M  V30 7273 H 679.812 1.06179 -4.67186 0
M  V30 7274 H 678.176 0.658419 -2.46043 0
M  V30 7275 H 678.959 -0.757633 -3.34836 0
M  V30 7276 N 681.404 1.57128 0.121893 0
M  V30 7277 C 682.653 1.83888 0.828748 0
M  V30 7278 C 682.966 0.737087 1.81181 0
M  V30 7279 O 684.172 0.891007 2.56463 0
M  V30 7280 C 682.628 3.26014 1.52455 0
M  V30 7281 C 682.236 4.44195 0.58263 0
M  V30 7282 C 683.98 3.62025 2.21671 0
M  V30 7283 C 681.887 5.77349 1.28149 0
M  V30 7284 H 680.817 0.685856 0.313238 0
M  V30 7285 H 683.468 1.83319 0.0814851 0
M  V30 7286 H 681.85 3.21044 2.31834 0
M  V30 7287 H 683.024 4.60457 -0.177729 0
M  V30 7288 H 681.339 4.164 -0.00241228 0
M  V30 7289 H 683.936 4.58776 2.74643 0
M  V30 7290 H 684.279 2.89315 2.99337 0
M  V30 7291 H 684.812 3.68767 1.49184 0
M  V30 7292 H 681.551 6.53221 0.546189 0
M  V30 7293 H 681.071 5.64978 2.01394 0
M  V30 7294 H 682.75 6.21006 1.81549 0
M  V30 7295 N 682.882 -0.391992 1.52647 0
M  V30 7296 C 684.131 -1.13449 1.6677 0
M  V30 7297 C 684.444 -1.91203 0.412399 0
M  V30 7298 O 685.65 -2.68013 0.433707 0
M  V30 7299 C 684.106 -2.06577 2.9471 0
M  V30 7300 C 683.714 -1.3426 4.27409 0
M  V30 7301 C 685.458 -2.80981 3.18198 0
M  V30 7302 C 683.365 -2.26136 5.46458 0
M  V30 7303 H 682.295 -0.427211 0.621295 0
M  V30 7304 H 684.946 -0.397522 1.79142 0
M  V30 7305 H 683.328 -2.83898 2.76076 0
M  V30 7306 H 684.502 -0.621856 4.56585 0
M  V30 7307 H 682.817 -0.718279 4.10158 0
M  V30 7308 H 685.414 -3.49898 4.04321 0
M  V30 7309 H 685.757 -3.44891 2.33144 0
M  V30 7310 H 686.29 -2.10754 3.37383 0
M  V30 7311 H 683.029 -1.66846 6.33911 0
M  V30 7312 H 682.549 -2.96134 5.21598 0
M  V30 7313 H 684.228 -2.86286 5.80215 0
M  V30 7314 N 684.36 -1.4356 -0.65026 0
M  V30 7315 C 685.776 -1.27025 -0.966269 0
M  V30 7316 C 685.976 -0.192117 -2.00582 0
M  V30 7317 O 685.032 0.428459 -2.48838 0
M  V30 7318 C 686.345 -2.63556 -1.44772 0
M  V30 7319 C 687.893 -2.71111 -1.56421 0
M  V30 7320 C 688.368 -4.08067 -2.07956 0
M  V30 7321 N 689.859 -4.10146 -2.15254 0
M  V30 7322 C 690.594 -5.12952 -2.56258 0
M  V30 7323 N 690.09 -6.26129 -2.96537 0
M  V30 7324 N 691.883 -5.00306 -2.56224 0
M  V30 7325 H 684.034 -2.12367 0.0375758 0
M  V30 7326 H 686.297 -0.946894 -0.0457782 0
M  V30 7327 H 686.003 -3.43429 -0.758271 0
M  V30 7328 H 685.877 -2.89152 -2.42221 0
M  V30 7329 H 688.264 -1.91569 -2.24467 0
M  V30 7330 H 688.345 -2.49277 -0.573967 0
M  V30 7331 H 687.989 -4.88077 -1.40511 0
M  V30 7332 H 687.919 -4.27266 -3.07817 0
M  V30 7333 H 690.41 -3.28453 -1.86887 0
M  V30 7334 H 690.723 -7.00403 -3.26582 0
M  V30 7335 H 689.068 -6.29597 -2.94334 0
M  V30 7336 H 692.259 -4.10952 -2.24135 0
M  V30 7337 H 692.432 -5.80553 -2.87857 0
M  V30 7338 N 685.838 0.888903 -1.30139 0
M  V30 7339 C 687.115 1.62145 -1.094 0
M  V30 7340 C 687.495 2.08041 0.358091 0
M  V30 7341 O 686.843 1.84438 1.34888 0
M  V30 7342 C 687.053 2.794 -2.09133 0
M  V30 7343 C 688.401 3.49826 -2.40638 0
M  V30 7344 O 689.425 2.89583 -2.07412 0
M  V30 7345 O 688.284 4.58457 -2.97455 0
M  V30 7346 H 685.378 0.712475 -0.41989 0
M  V30 7347 H 687.924 0.936023 -1.41551 0
M  V30 7348 H 686.696 2.42762 -3.06891 0
M  V30 7349 H 686.319 3.55643 -1.77776 0
M  V30 7350 N 687.317 1.12792 1.10072 0
M  V30 7351 C 688.249 0.757003 2.16338 0
M  V30 7352 C 689.262 -0.218144 1.61332 0
M  V30 7353 O 690.451 0.0010727 1.785 0
M  V30 7354 C 687.551 0.100303 3.38752 0
M  V30 7355 C 686.724 1.10586 4.2319 0
M  V30 7356 C 685.783 0.47609 5.24042 0
M  V30 7357 O 684.809 1.13418 5.57786 0
M  V30 7358 N 686.011 -0.754823 5.75572 0
M  V30 7359 H 688.776 1.6714 2.48766 0
M  V30 7360 H 686.337 1.02003 1.25726 0
M  V30 7361 H 688.329 -0.333092 4.03327 0
M  V30 7362 H 686.899 -0.716915 3.04268 0
M  V30 7363 H 686.119 1.71677 3.54853 0
M  V30 7364 H 687.407 1.78571 4.76435 0
M  V30 7365 H 686.805 -1.30838 5.50362 0
M  V30 7366 H 685.362 -1.13098 6.41913 0
M  V30 7367 N 688.795 -1.27931 0.920396 0
M  V30 7368 C 689.725 -2.29487 0.431024 0
M  V30 7369 C 690.706 -1.62435 -0.504861 0
M  V30 7370 O 691.891 -1.89797 -0.411176 0
M  V30 7371 C 689.021 -3.45788 -0.323709 0
M  V30 7372 C 687.975 -4.24784 0.523658 0
M  V30 7373 C 687.301 -5.33488 -0.359809 0
M  V30 7374 C 688.601 -4.90874 1.78437 0
M  V30 7375 H 690.295 -2.70671 1.27975 0
M  V30 7376 H 687.841 -1.30121 0.616813 0
M  V30 7377 H 689.794 -4.15927 -0.676952 0
M  V30 7378 H 688.518 -3.03502 -1.2064 0
M  V30 7379 H 687.177 -3.56382 0.85951 0
M  V30 7380 H 686.825 -4.87445 -1.24124 0
M  V30 7381 H 686.525 -5.87247 0.203605 0
M  V30 7382 H 688.049 -6.06472 -0.708787 0
M  V30 7383 H 689.463 -5.53339 1.49963 0
M  V30 7384 H 687.86 -5.54659 2.29071 0
M  V30 7385 H 688.93 -4.14988 2.50824 0
M  V30 7386 N 690.273 -0.685099 -1.4193 0
M  V30 7387 C 691.203 -0.0273506 -2.33484 0
M  V30 7388 C 692.184 0.778366 -1.51246 0
M  V30 7389 O 693.369 0.733449 -1.79817 0
M  V30 7390 C 690.499 0.917272 -3.34968 0
M  V30 7391 C 689.453 0.21941 -4.27437 0
M  V30 7392 C 688.779 1.27768 -5.1921 0
M  V30 7393 C 690.079 -0.907894 -5.14349 0
M  V30 7394 H 691.773 -0.791994 -2.88735 0
M  V30 7395 H 689.319 -0.382308 -1.38832 0
M  V30 7396 H 691.272 1.38657 -3.97935 0
M  V30 7397 H 689.996 1.71346 -2.78043 0
M  V30 7398 H 688.655 -0.229757 -3.65879 0
M  V30 7399 H 688.303 2.06612 -4.58607 0
M  V30 7400 H 688.003 0.815803 -5.81909 0
M  V30 7401 H 689.527 1.7477 -5.85054 0
M  V30 7402 H 690.941 -0.519348 -5.70943 0
M  V30 7403 H 689.338 -1.2962 -5.85934 0
M  V30 7404 H 690.408 -1.75218 -4.52136 0
M  V30 7405 N 691.751 1.51645 -0.429126 0
M  V30 7406 C 692.684 2.24083 0.431492 0
M  V30 7407 C 693.662 1.25691 1.03153 0
M  V30 7408 O 694.846 1.54802 1.07557 0
M  V30 7409 C 691.973 2.9849 1.60067 0
M  V30 7410 C 691.019 4.11474 1.12211 0
M  V30 7411 S 691.852 5.35453 0.0708449 0
M  V30 7412 C 693.008 6.13395 1.24488 0
M  V30 7413 H 693.241 2.96733 -0.183525 0
M  V30 7414 H 690.774 1.52916 -0.213574 0
M  V30 7415 H 692.732 3.4196 2.27099 0
M  V30 7416 H 691.393 2.25445 2.18708 0
M  V30 7417 H 690.586 4.62784 1.99618 0
M  V30 7418 H 690.188 3.70223 0.530149 0
M  V30 7419 H 692.48 6.41984 2.16479 0
M  V30 7420 H 693.423 7.0388 0.771921 0
M  V30 7421 H 693.831 5.44761 1.47973 0
M  V30 7422 N 693.229 0.160201 1.56784 0
M  V30 7423 C 694.506 -0.533355 1.88188 0
M  V30 7424 C 694.886 -1.82072 1.06831 0
M  V30 7425 O 694.234 -2.27946 0.158959 0
M  V30 7426 C 694.444 -0.786034 3.40033 0
M  V30 7427 C 695.792 -1.12097 4.09536 0
M  V30 7428 O 696.816 -0.874949 3.45287 0
M  V30 7429 O 695.675 -1.58457 5.23023 0
M  V30 7430 H 692.769 -0.273589 0.780434 0
M  V30 7431 H 695.315 0.197803 1.68543 0
M  V30 7432 H 694.087 0.124515 3.91102 0
M  V30 7433 H 693.71 -1.57091 3.65251 0
M  V30 7434 N 694.707 -1.5719 -0.113559 0
M  V30 7435 C 696.123 -1.52607 -0.467253 0
M  V30 7436 C 696.323 -0.874058 -1.81556 0
M  V30 7437 O 695.379 -0.458703 -2.48299 0
M  V30 7438 C 696.692 -2.97363 -0.446736 0
M  V30 7439 C 698.24 -3.08482 -0.529903 0
M  V30 7440 C 698.715 -4.54809 -0.539721 0
M  V30 7441 N 700.206 -4.59284 -0.601005 0
M  V30 7442 C 700.941 -5.69927 -0.630138 0
M  V30 7443 N 700.437 -6.90051 -0.616589 0
M  V30 7444 N 702.23 -5.5805 -0.673558 0
M  V30 7445 H 694.381 -1.97958 0.769819 0
M  V30 7446 H 696.644 -0.90428 0.284572 0
M  V30 7447 H 696.35 -3.48458 0.47643 0
M  V30 7448 H 696.224 -3.55086 -1.27254 0
M  V30 7449 H 698.611 -2.57386 -1.44349 0
M  V30 7450 H 698.692 -2.53744 0.323695 0
M  V30 7451 H 698.336 -5.06552 0.369843 0
M  V30 7452 H 698.266 -5.07364 -1.41028 0
M  V30 7453 H 700.757 -3.72822 -0.617419 0
M  V30 7454 H 701.07 -7.70132 -0.641592 0
M  V30 7455 H 699.415 -6.92543 -0.583927 0
M  V30 7456 H 702.606 -4.63112 -0.681544 0
M  V30 7457 H 702.779 -6.44286 -0.692794 0
M  V30 7458 N 696.185 0.383891 -1.52853 0
M  V30 7459 C 697.095 1.49343 -1.80925 0
M  V30 7460 C 698.111 1.59458 -0.696348 0
M  V30 7461 O 699.287 1.75698 -0.984481 0
M  V30 7462 C 696.352 2.84819 -1.97684 0
M  V30 7463 C 695.413 2.84382 -3.21598 0
M  V30 7464 C 694.646 4.13397 -3.37548 0
M  V30 7465 O 694.869 5.08619 -2.58192 0
M  V30 7466 O 693.803 4.20325 -4.30826 0
M  V30 7467 H 697.629 1.2855 -2.75152 0
M  V30 7468 H 695.214 0.572229 -1.38007 0
M  V30 7469 H 697.096 3.65125 -2.10385 0
M  V30 7470 H 695.771 3.05627 -1.06647 0
M  V30 7471 H 694.678 2.0284 -3.14336 0
M  V30 7472 H 696.011 2.68526 -4.12498 0
M  V30 7473 N 697.663 1.43903 0.642637 0
M  V30 7474 C 698.888 1.49758 1.43483 0
M  V30 7475 C 699.313 0.119911 1.87717 0
M  V30 7476 O 698.671 -0.888558 1.58033 0
M  V30 7477 C 698.719 2.45744 2.63898 0
M  V30 7478 O 697.823 1.95101 3.63331 0
M  V30 7479 H 697.164 0.506138 0.429791 0
M  V30 7480 H 699.694 1.88923 0.785438 0
M  V30 7481 H 699.704 2.63399 3.11584 0
M  V30 7482 H 698.379 3.45818 2.31046 0
M  V30 7483 H 696.956 1.87158 3.22531 0
M  V30 7484 N 699.141 -0.881989 1.30609 0
M  V30 7485 C 700.369 -1.66711 1.22536 0
M  V30 7486 C 700.784 -1.87614 -0.2113 0
M  V30 7487 O 700.141 -1.42576 -1.13923 0
M  V30 7488 C 700.192 -3.04182 1.95335 0
M  V30 7489 O 699.913 -2.8422 3.33393 0
M  V30 7490 C 701.414 -3.98617 1.93956 0
M  V30 7491 H 698.634 -0.520124 0.423925 0
M  V30 7492 H 701.178 -1.10174 1.72285 0
M  V30 7493 H 699.333 -3.57442 1.49378 0
M  V30 7494 H 699.747 -3.71452 3.70302 0
M  V30 7495 H 701.221 -4.92433 2.49426 0
M  V30 7496 H 701.698 -4.29473 0.919198 0
M  V30 7497 H 702.304 -3.51292 2.39738 0
M  V30 7498 N 700.619 -1.13374 -1.09472 0
M  V30 7499 C 701.867 -0.893422 -1.8128 0
M  V30 7500 C 702.188 0.582029 -1.86111 0
M  V30 7501 O 701.458 1.42305 -1.34633 0
M  V30 7502 H 700.038 -0.327543 -0.67136 0
M  V30 7503 H 702.7 -1.43018 -1.32408 0
M  V30 7504 H 701.796 -1.28374 -2.84476 0
M  V30 7505 N 702.098 1.27442 -0.927168 0
M  V30 7506 C 703.328 1.9821 -0.582775 0
M  V30 7507 C 703.736 1.69361 0.843406 0
M  V30 7508 O 703.079 0.950381 1.57205 0
M  V30 7509 C 703.141 3.52048 -0.728165 0
M  V30 7510 C 702.805 4.04518 -2.12637 0
M  V30 7511 C 703.802 4.17332 -3.10048 0
M  V30 7512 C 701.487 4.38879 -2.44317 0
M  V30 7513 C 703.481 4.6378 -4.37249 0
M  V30 7514 C 701.168 4.85018 -3.71753 0
M  V30 7515 C 702.166 4.97428 -4.68033 0
M  V30 7516 O 701.854 5.42556 -5.93202 0
M  V30 7517 H 701.586 0.639314 -0.219667 0
M  V30 7518 H 704.14 1.63272 -1.24626 0
M  V30 7519 H 702.37 3.86699 -0.00758143 0
M  V30 7520 H 704.059 4.04033 -0.388906 0
M  V30 7521 H 704.825 3.91046 -2.86894 0
M  V30 7522 H 700.704 4.28462 -1.70121 0
M  V30 7523 H 704.248 4.73382 -5.12402 0
M  V30 7524 H 700.145 5.10746 -3.94726 0
M  V30 7525 H 700.913 5.60811 -5.96182 0
M  V30 7526 N 703.576 0.692616 1.41565 0
M  V30 7527 C 704.825 0.219452 2.00503 0
M  V30 7528 C 705.138 -1.18683 1.55479 0
M  V30 7529 O 706.344 -1.75731 2.06956 0
M  V30 7530 C 704.8 0.341451 3.58277 0
M  V30 7531 C 704.408 1.75291 4.12283 0
M  V30 7532 C 706.152 -0.0720899 4.24439 0
M  V30 7533 C 704.059 1.82673 5.62481 0
M  V30 7534 H 702.989 0.0782874 0.749925 0
M  V30 7535 H 705.64 0.860386 1.62079 0
M  V30 7536 H 704.022 -0.367683 3.94289 0
M  V30 7537 H 705.196 2.49057 3.87695 0
M  V30 7538 H 703.511 2.11587 3.58636 0
M  V30 7539 H 706.108 -0.0373385 5.34687 0
M  V30 7540 H 706.451 -1.11034 4.0122 0
M  V30 7541 H 706.984 0.586663 3.9345 0
M  V30 7542 H 703.723 2.84539 5.90523 0
M  V30 7543 H 703.243 1.13288 5.89004 0
M  V30 7544 H 704.922 1.58827 6.27203 0
M  V30 7545 N 705.054 -1.51416 0.437162 0
M  V30 7546 C 705.986 -2.255 -0.410171 0
M  V30 7547 C 706.999 -1.29511 -0.986444 0
M  V30 7548 O 708.188 -1.55266 -0.880614 0
M  V30 7549 C 705.288 -2.99511 -1.58575 0
M  V30 7550 C 704.461 -4.22595 -1.12839 0
M  V30 7551 C 703.52 -4.79187 -2.17407 0
M  V30 7552 O 702.546 -5.4103 -1.76849 0
M  V30 7553 N 703.748 -4.63204 -3.49889 0
M  V30 7554 H 706.513 -2.98856 0.224783 0
M  V30 7555 H 704.074 -1.59699 0.266041 0
M  V30 7556 H 706.066 -3.34258 -2.28152 0
M  V30 7557 H 704.636 -2.29167 -2.12606 0
M  V30 7558 H 703.856 -3.93344 -0.259695 0
M  V30 7559 H 705.144 -5.02468 -0.800196 0
M  V30 7560 H 704.542 -4.13945 -3.85573 0
M  V30 7561 H 703.099 -5.02313 -4.15361 0
M  V30 7562 N 706.532 -0.168513 -1.56696 0
M  V30 7563 C 707.778 0.477865 -1.9709 0
M  V30 7564 C 708.111 1.63084 -1.05438 0
M  V30 7565 O 707.386 1.94238 -0.10095 0
M  V30 7566 C 707.669 0.963521 -3.4697 0
M  V30 7567 C 707.522 -0.189443 -4.49401 0
M  V30 7568 C 708.841 1.83813 -3.99876 0
M  V30 7569 H 705.96 0.172229 -0.716593 0
M  V30 7570 H 708.602 -0.254083 -1.88293 0
M  V30 7571 H 706.752 1.58724 -3.54597 0
M  V30 7572 H 708.424 -0.826451 -4.53836 0
M  V30 7573 H 706.667 -0.845366 -4.25483 0
M  V30 7574 H 707.338 0.192446 -5.51664 0
M  V30 7575 H 709.814 1.31235 -3.94863 0
M  V30 7576 H 708.69 2.14697 -5.0517 0
M  V30 7577 H 708.951 2.78289 -3.43523 0
M  V30 7578 N 708.01 1.57248 0.105221 0
M  V30 7579 C 709.258 1.85204 0.808951 0
M  V30 7580 C 709.579 0.75574 1.7976 0
M  V30 7581 O 708.849 -0.218984 1.94672 0
M  V30 7582 H 707.429 0.683346 0.301739 0
M  V30 7583 H 710.091 1.94695 0.0892605 0
M  V30 7584 H 709.187 2.81595 1.34575 0
M  V30 7585 N 709.488 -0.375779 1.53054 0
M  V30 7586 C 710.435 -1.45978 1.78771 0
M  V30 7587 C 711.405 -1.53625 0.631552 0
M  V30 7588 O 712.59 -1.69674 0.872667 0
M  V30 7589 C 709.73 -2.8305 1.97425 0
M  V30 7590 C 708.843 -2.84451 3.25134 0
M  V30 7591 C 707.978 -4.13034 3.34031 0
M  V30 7592 C 707.017 -4.08536 4.55812 0
M  V30 7593 N 706.154 -5.2875 4.61918 0
M  V30 7594 H 710.994 -1.23349 2.71273 0
M  V30 7595 H 708.531 -0.598147 1.3439 0
M  V30 7596 H 710.489 -3.62666 2.06225 0
M  V30 7597 H 709.119 -3.04101 1.0827 0
M  V30 7598 H 708.171 -1.97127 3.25338 0
M  V30 7599 H 709.483 -2.76998 4.14818 0
M  V30 7600 H 708.637 -5.0106 3.42087 0
M  V30 7601 H 707.376 -4.23226 2.42345 0
M  V30 7602 H 706.381 -3.18897 4.47867 0
M  V30 7603 H 707.606 -3.99955 5.48828 0
M  V30 7604 H 705.552 -5.39547 3.73129 0
M  V30 7605 H 705.469 -5.23426 5.45492 0
M  V30 7606 H 706.737 -6.18637 4.74245 0
M  V30 7607 N 710.966 -1.44241 -0.634997 0
M  V30 7608 C 712.215 -1.46102 -1.39058 0
M  V30 7609 C 712.528 -0.0959909 -1.95364 0
M  V30 7610 O 713.734 0.00788751 -2.71499 0
M  V30 7611 C 712.19 -2.57195 -2.51751 0
M  V30 7612 C 711.798 -3.99888 -2.01974 0
M  V30 7613 C 713.542 -2.68272 -3.28984 0
M  V30 7614 C 711.449 -5.02412 -3.11987 0
M  V30 7615 H 710.379 -0.543556 -0.522554 0
M  V30 7616 H 713.03 -1.70294 -0.683538 0
M  V30 7617 H 711.412 -2.26237 -3.25012 0
M  V30 7618 H 712.586 -4.40396 -1.35604 0
M  V30 7619 H 710.901 -3.93019 -1.37568 0
M  V30 7620 H 713.498 -3.42042 -4.10988 0
M  V30 7621 H 713.841 -1.73957 -3.78212 0
M  V30 7622 H 714.374 -2.98622 -2.62812 0
M  V30 7623 H 711.113 -5.98342 -2.67707 0
M  V30 7624 H 710.633 -4.66501 -3.77011 0
M  V30 7625 H 712.312 -5.25939 -3.76825 0
M  V30 7626 N 712.444 0.87505 -1.31075 0
M  V30 7627 C 713.407 1.96333 -1.18263 0
M  V30 7628 C 714.407 1.60416 -0.111106 0
M  V30 7629 O 715.597 1.7044 -0.359987 0
M  V30 7630 C 712.729 3.31036 -0.81414 0
M  V30 7631 H 713.922 2.09125 -2.14958 0
M  V30 7632 H 711.475 1.06271 -1.14614 0
M  V30 7633 H 712.21 3.23944 0.151875 0
M  V30 7634 H 711.995 3.58476 -1.58862 0
M  V30 7635 H 713.485 4.10842 -0.748249 0
M  V30 7636 N 713.922 1.13953 1.08869 0
M  V30 7637 C 715.15 0.92817 1.84912 0
M  V30 7638 C 715.565 -0.523197 1.81406 0
M  V30 7639 O 714.922 -1.36237 1.21432 0
M  V30 7640 C 714.973 1.41509 3.32652 0
M  V30 7641 O 714.694 2.80959 3.36145 0
M  V30 7642 C 716.195 1.243 4.25517 0
M  V30 7643 H 713.415 0.330612 0.583898 0
M  V30 7644 H 715.959 1.51349 1.37527 0
M  V30 7645 H 714.114 0.872648 3.77444 0
M  V30 7646 H 714.528 3.02704 4.28335 0
M  V30 7647 H 716.002 1.63237 5.27312 0
M  V30 7648 H 716.479 0.18532 4.38809 0
M  V30 7649 H 717.085 1.77375 3.86546 0
M  V30 7650 N 715.4 -1.26948 0.933913 0
M  V30 7651 C 716.31 -2.30366 0.443671 0
M  V30 7652 C 717.326 -1.67284 -0.478745 0
M  V30 7653 O 718.502 -1.98156 -0.360043 0
M  V30 7654 C 715.567 -3.45485 -0.289974 0
M  V30 7655 C 714.628 -4.24069 0.668114 0
M  V30 7656 C 713.861 -5.33691 -0.0306138 0
M  V30 7657 O 714.084 -5.5656 -1.24888 0
M  V30 7658 O 713.018 -5.98441 0.644384 0
M  V30 7659 H 716.844 -2.74349 1.30254 0
M  V30 7660 H 714.429 -1.32012 0.699506 0
M  V30 7661 H 716.311 -4.15486 -0.70353 0
M  V30 7662 H 714.986 -3.03546 -1.12435 0
M  V30 7663 H 713.893 -3.56579 1.13147 0
M  V30 7664 H 715.226 -4.69739 1.46989 0
M  V30 7665 N 716.879 -0.700114 -1.41195 0
M  V30 7666 C 718.295 -0.372114 -1.55201 0
M  V30 7667 C 718.495 1.12053 -1.6747 0
M  V30 7668 O 717.551 1.90642 -1.65566 0
M  V30 7669 C 718.864 -1.12462 -2.78878 0
M  V30 7670 C 720.412 -1.10941 -2.92679 0
M  V30 7671 C 720.887 -1.84376 -4.19249 0
M  V30 7672 N 722.378 -1.81368 -4.26216 0
M  V30 7673 C 723.113 -2.35024 -5.23021 0
M  V30 7674 N 722.609 -2.9717 -6.25829 0
M  V30 7675 N 724.402 -2.25254 -5.14992 0
M  V30 7676 H 716.553 -1.66816 -1.31477 0
M  V30 7677 H 718.816 -0.704223 -0.634644 0
M  V30 7678 H 718.522 -2.17937 -2.76037 0
M  V30 7679 H 718.396 -0.706152 -3.70531 0
M  V30 7680 H 720.783 -0.062911 -2.95033 0
M  V30 7681 H 720.864 -1.56698 -2.02187 0
M  V30 7682 H 720.508 -2.89008 -4.17656 0
M  V30 7683 H 720.438 -1.3605 -5.08722 0
M  V30 7684 H 722.929 -1.36062 -3.52556 0
M  V30 7685 H 723.242 -3.35668 -6.96094 0
M  V30 7686 H 721.587 -3.01249 -6.26318 0
M  V30 7687 H 724.778 -1.76372 -4.33602 0
M  V30 7688 H 724.951 -2.67373 -5.90268 0
M  V30 7689 N 718.357 1.51182 -0.445186 0
M  V30 7690 C 719.287 2.30821 0.352686 0
M  V30 7691 C 720.268 1.36576 1.01395 0
M  V30 7692 O 721.453 1.65497 1.01609 0
M  V30 7693 C 718.583 3.15593 1.44976 0
M  V30 7694 C 717.537 4.1818 0.911553 0
M  V30 7695 C 716.863 4.91523 2.10497 0
M  V30 7696 C 718.163 5.22266 -0.059418 0
M  V30 7697 H 719.857 2.97771 -0.311936 0
M  V30 7698 H 717.403 1.43201 -0.151461 0
M  V30 7699 H 719.356 3.70091 2.01521 0
M  V30 7700 H 718.08 2.4648 2.14278 0
M  V30 7701 H 716.739 3.64746 0.368264 0
M  V30 7702 H 716.387 4.18906 2.78437 0
M  V30 7703 H 716.087 5.60898 1.7512 0
M  V30 7704 H 717.611 5.48847 2.6758 0
M  V30 7705 H 719.025 5.71789 0.415985 0
M  V30 7706 H 717.422 5.99213 -0.326152 0
M  V30 7707 H 718.492 4.7461 -0.993631 0
M  V30 7708 N 719.835 0.176821 1.56605 0
M  V30 7709 C 721.084 -0.466833 1.96223 0
M  V30 7710 C 721.397 -1.64015 1.06576 0
M  V30 7711 O 722.603 -2.3504 1.35898 0
M  V30 7712 C 721.059 -0.881921 3.48927 0
M  V30 7713 C 720.667 0.266102 4.47209 0
M  V30 7714 C 722.411 -1.49368 3.97353 0
M  V30 7715 C 720.318 -0.168923 5.91159 0
M  V30 7716 H 719.248 -0.178178 0.732645 0
M  V30 7717 H 721.899 0.265929 1.81563 0
M  V30 7718 H 720.281 -1.67082 3.59026 0
M  V30 7719 H 721.455 1.04349 4.4883 0
M  V30 7720 H 719.77 0.788178 4.08872 0
M  V30 7721 H 722.367 -1.8313 5.02362 0
M  V30 7722 H 722.71 -2.3936 3.40606 0
M  V30 7723 H 723.243 -0.769114 3.90294 0
M  V30 7724 H 719.982 0.696351 6.51791 0
M  V30 7725 H 719.502 -0.911552 5.92833 0
M  V30 7726 H 721.181 -0.610938 6.44109 0
M  V30 7727 N 721.313 -1.57302 -0.09688 0
M  V30 7728 C 722.562 -1.85183 -0.799388 0
M  V30 7729 C 722.875 -0.765818 -1.79985 0
M  V30 7730 O 724.081 -0.931696 -2.55013 0
M  V30 7731 C 722.537 -3.28399 -1.47249 0
M  V30 7732 C 722.145 -4.45066 -0.511888 0
M  V30 7733 C 723.889 -3.65506 -2.15883 0
M  V30 7734 C 721.796 -5.79315 -1.18948 0
M  V30 7735 H 720.726 -0.690752 -0.302287 0
M  V30 7736 H 723.377 -1.83425 -0.0523104 0
M  V30 7737 H 721.759 -3.24692 -2.26697 0
M  V30 7738 H 722.933 -4.60116 0.250962 0
M  V30 7739 H 721.248 -4.16343 0.0686576 0
M  V30 7740 H 723.845 -4.63087 -2.67309 0
M  V30 7741 H 724.188 -2.94041 -2.94696 0
M  V30 7742 H 724.721 -3.71094 -1.43298 0
M  V30 7743 H 721.46 -6.54007 -0.442198 0
M  V30 7744 H 720.98 -5.68111 -1.9238 0
M  V30 7745 H 722.659 -6.23816 -1.71646 0
M  V30 7746 N 722.791 0.367657 -1.53252 0
M  V30 7747 C 724.037 1.11216 -1.69584 0
M  V30 7748 C 724.37 1.89026 -0.445269 0
M  V30 7749 O 723.645 1.86342 0.557404 0
M  V30 7750 C 723.928 2.07308 -2.94441 0
M  V30 7751 C 723.781 1.3312 -4.2965 0
M  V30 7752 C 725.1 3.07459 -3.14892 0
M  V30 7753 H 722.219 0.40294 -0.617096 0
M  V30 7754 H 724.861 0.393201 -1.85887 0
M  V30 7755 H 723.011 2.68617 -2.80673 0
M  V30 7756 H 724.683 0.746111 -4.55226 0
M  V30 7757 H 722.926 0.633051 -4.29156 0
M  V30 7758 H 723.597 2.03443 -5.13142 0
M  V30 7759 H 726.073 2.56252 -3.27832 0
M  V30 7760 H 724.949 3.71919 -4.03693 0
M  V30 7761 H 725.21 3.77514 -2.30077 0
M  V30 7762 N 724.269 1.44576 0.627338 0
M  V30 7763 C 725.199 1.54562 1.75022 0
M  V30 7764 C 726.18 0.398378 1.65369 0
M  V30 7765 O 727.365 0.61899 1.84071 0
M  V30 7766 C 724.495 1.49309 3.13567 0
M  V30 7767 C 723.449 2.62549 3.38012 0
M  V30 7768 C 722.775 2.42348 4.76625 0
M  V30 7769 C 724.075 4.04678 3.30202 0
M  V30 7770 H 725.769 2.4855 1.66922 0
M  V30 7771 H 723.315 1.19624 0.801636 0
M  V30 7772 H 725.268 1.54895 3.919 0
M  V30 7773 H 723.992 0.518392 3.2246 0
M  V30 7774 H 722.651 2.56358 2.62061 0
M  V30 7775 H 722.299 1.43062 4.82226 0
M  V30 7776 H 721.999 3.18273 4.93939 0
M  V30 7777 H 723.523 2.49758 5.57183 0
M  V30 7778 H 724.937 4.12217 3.98435 0
M  V30 7779 H 723.334 4.80836 3.5905 0
M  V30 7780 H 724.404 4.2798 2.27949 0
M  V30 7781 N 725.747 -0.868086 1.31537 0
M  V30 7782 C 726.993 -1.62367 1.2151 0
M  V30 7783 C 727.326 -1.92883 -0.225819 0
M  V30 7784 O 726.601 -1.56176 -1.15927 0
M  V30 7785 C 726.884 -2.95268 2.06129 0
M  V30 7786 C 726.737 -2.71619 3.58529 0
M  V30 7787 C 728.056 -3.96391 1.91212 0
M  V30 7788 H 725.175 -0.589178 0.442762 0
M  V30 7789 H 727.817 -1.00336 1.61347 0
M  V30 7790 H 725.967 -3.4821 1.72284 0
M  V30 7791 H 727.639 -2.25334 4.0252 0
M  V30 7792 H 725.882 -2.05817 3.81866 0
M  V30 7793 H 726.553 -3.66192 4.13047 0
M  V30 7794 H 729.029 -3.52663 2.20834 0
M  V30 7795 H 727.905 -4.87263 2.52718 0
M  V30 7796 H 728.166 -4.33335 0.875953 0
M  V30 7797 N 727.225 -1.14528 -1.08264 0
M  V30 7798 C 728.135 -0.84728 -2.18765 0
M  V30 7799 C 729.151 0.172826 -1.7314 0
M  V30 7800 O 730.327 0.000985336 -2.014 0
M  V30 7801 C 727.392 -0.330633 -3.4512 0
M  V30 7802 C 726.453 -1.41348 -4.05363 0
M  V30 7803 C 725.686 -0.921387 -5.25686 0
M  V30 7804 O 725.909 0.236587 -5.69909 0
M  V30 7805 O 724.843 -1.70101 -5.77364 0
M  V30 7806 H 728.669 -1.7708 -2.46731 0
M  V30 7807 H 726.254 -0.923661 -1.17426 0
M  V30 7808 H 728.136 -0.0485053 -4.21372 0
M  V30 7809 H 726.811 0.565147 -3.18728 0
M  V30 7810 H 725.718 -1.74908 -3.30693 0
M  V30 7811 H 727.051 -2.28383 -4.36007 0
M  V30 7812 N 728.703 1.26451 -0.940633 0
M  V30 7813 C 729.928 1.98407 -0.60412 0
M  V30 7814 C 730.353 1.69584 0.81382 0
M  V30 7815 O 729.711 0.943553 1.54812 0
M  V30 7816 C 729.759 3.50387 -0.852136 0
M  V30 7817 O 728.863 4.1233 0.076013 0
M  V30 7818 H 728.204 0.622466 -0.231153 0
M  V30 7819 H 730.734 1.60932 -1.26342 0
M  V30 7820 H 730.744 4.00614 -0.772816 0
M  V30 7821 H 729.419 3.70696 -1.88566 0
M  V30 7822 H 727.996 3.7286 -0.0543187 0
M  V30 7823 N 730.181 0.707592 1.40822 0
M  V30 7824 C 731.091 0.0507246 2.34545 0
M  V30 7825 C 732.107 -0.752727 1.56876 0
M  V30 7826 O 733.283 -0.687524 1.89302 0
M  V30 7827 C 730.348 -0.865731 3.35717 0
M  V30 7828 C 729.409 -0.0531313 4.29267 0
M  V30 7829 C 728.642 -0.925939 5.25606 0
M  V30 7830 O 728.865 -2.16531 5.27703 0
M  V30 7831 O 727.799 -0.369194 6.00767 0
M  V30 7832 H 731.625 0.823587 2.9232 0
M  V30 7833 H 729.21 0.46801 1.4188 0
M  V30 7834 H 731.092 -1.39091 3.97783 0
M  V30 7835 H 729.767 -1.61788 2.80368 0
M  V30 7836 H 728.674 0.516931 3.70511 0
M  V30 7837 H 730.007 0.660617 4.87747 0
M  V30 7838 N 731.66 -1.50943 0.453197 0
M  V30 7839 C 732.59 -2.31005 -0.34044 0
M  V30 7840 C 733.571 -1.37112 -1.00669 0
M  V30 7841 O 734.756 -1.66033 -1.0073 0
M  V30 7842 C 731.886 -3.16358 -1.433 0
M  V30 7843 C 730.84 -4.18658 -0.889363 0
M  V30 7844 C 730.166 -4.92633 -2.07887 0
M  V30 7845 C 731.466 -5.22227 0.0871142 0
M  V30 7846 H 733.16 -2.97601 0.327723 0
M  V30 7847 H 730.706 -1.43119 0.159054 0
M  V30 7848 H 732.659 -3.71155 -1.99555 0
M  V30 7849 H 731.383 -2.47613 -2.12968 0
M  V30 7850 H 730.042 -3.64936 -0.348915 0
M  V30 7851 H 729.69 -4.20376 -2.76211 0
M  V30 7852 H 729.39 -5.61819 -1.72143 0
M  V30 7853 H 730.914 -5.50258 -2.64666 0
M  V30 7854 H 732.328 -5.72001 -0.385656 0
M  V30 7855 H 730.725 -5.99032 0.357926 0
M  V30 7856 H 731.795 -4.74077 1.01879 0
M  V30 7857 N 733.138 -0.185124 -1.56509 0
M  V30 7858 C 734.101 0.72591 -2.17401 0
M  V30 7859 C 735.101 1.14819 -1.12575 0
M  V30 7860 O 736.291 1.0629 -1.38015 0
M  V30 7861 C 733.423 1.98979 -2.76803 0
M  V30 7862 H 734.616 0.195588 -2.99262 0
M  V30 7863 H 732.169 0.0644772 -1.56167 0
M  V30 7864 H 732.904 2.56287 -1.98714 0
M  V30 7865 H 732.689 1.69583 -3.53531 0
M  V30 7866 H 734.179 2.63966 -3.23592 0
M  V30 7867 N 734.616 1.57351 0.0885366 0
M  V30 7868 C 735.563 2.02523 1.10693 0
M  V30 7869 C 736.533 0.902736 1.39427 0
M  V30 7870 O 737.718 1.16921 1.50779 0
M  V30 7871 C 734.858 2.46013 2.42016 0
M  V30 7872 C 733.971 3.7181 2.19957 0
M  V30 7873 C 733.106 4.04152 3.44724 0
M  V30 7874 C 732.145 5.2304 3.17956 0
M  V30 7875 N 731.282 5.51102 4.35007 0
M  V30 7876 H 736.122 2.89302 0.714742 0
M  V30 7877 H 733.659 1.43084 0.341378 0
M  V30 7878 H 735.617 2.69274 3.18665 0
M  V30 7879 H 734.247 1.62235 2.79069 0
M  V30 7880 H 733.299 3.55987 1.34079 0
M  V30 7881 H 734.611 4.58604 1.96173 0
M  V30 7882 H 733.765 4.28225 4.29777 0
M  V30 7883 H 732.504 3.15893 3.71568 0
M  V30 7884 H 731.509 4.98781 2.31296 0
M  V30 7885 H 732.734 6.12902 2.92451 0
M  V30 7886 H 730.68 4.65802 4.61914 0
M  V30 7887 H 730.597 6.3228 4.14437 0
M  V30 7888 H 731.865 5.79714 5.21106 0
M  V30 7889 N 736.094 -0.359525 1.53444 0
M  V30 7890 C 737.024 -1.44662 1.8329 0
M  V30 7891 C 738.005 -1.55617 0.68683 0
M  V30 7892 O 739.19 -1.70086 0.93725 0
M  V30 7893 C 736.32 -2.81923 2.02822 0
M  V30 7894 C 735.274 -2.85787 3.18606 0
M  V30 7895 C 734.6 -4.25781 3.23442 0
M  V30 7896 C 735.9 -2.52762 4.57065 0
M  V30 7897 H 737.594 -1.19934 2.74329 0
M  V30 7898 H 735.14 -0.575517 1.31999 0
M  V30 7899 H 737.093 -3.58005 2.22285 0
M  V30 7900 H 735.817 -3.08051 1.085 0
M  V30 7901 H 734.476 -2.12157 2.98973 0
M  V30 7902 H 734.124 -4.48994 2.26745 0
M  V30 7903 H 733.824 -4.29281 4.01238 0
M  V30 7904 H 735.348 -5.03727 3.45096 0
M  V30 7905 H 736.762 -3.18557 4.76649 0
M  V30 7906 H 735.159 -2.67569 5.37147 0
M  V30 7907 H 736.229 -1.47993 4.61764 0
M  V30 7908 N 737.572 -1.44907 -0.619662 0
M  V30 7909 C 738.52 -1.52971 -1.75222 0
M  V30 7910 C 739.514 -0.400531 -1.64597 0
M  V30 7911 O 740.72 -0.575952 -1.70537 0
M  V30 7912 H 737.095 -0.480241 -0.578682 0
M  V30 7913 H 739.066 -2.48269 -1.65545 0
M  V30 7914 C 737.815 -1.50204 -3.13583 0
M  V30 7915 H 737.138 -2.36412 -3.22412 0
M  V30 7916 H 738.578 -1.59905 -3.92691 0
M  V30 7917 C 737.037 -0.22455 -3.36151 0
M  V30 7918 O 737.567 0.700574 -3.95544 0
M  V30 7919 N 735.773 -0.124052 -2.90335 0
M  V30 7920 H 735.32 -0.87774 -2.42185 0
M  V30 7921 H 735.278 0.729914 -3.0581 0
M  V30 7922 N 739.05 0.861098 -1.31996 0
M  V30 7923 C 740.327 1.59788 -1.12814 0
M  V30 7924 C 740.707 2.08753 0.313882 0
M  V30 7925 O 740.055 1.87258 1.30946 0
M  V30 7926 C 740.265 2.74901 -2.15012 0
M  V30 7927 C 741.613 3.44643 -2.48004 0
M  V30 7928 O 742.637 2.85119 -2.13508 0
M  V30 7929 O 741.496 4.52044 -3.07113 0
M  V30 7930 H 738.59 0.703408 -0.434909 0
M  V30 7931 H 741.136 0.905788 -1.43505 0
M  V30 7932 H 739.908 2.36198 -3.11971 0
M  V30 7933 H 739.531 3.51792 -1.85279 0
M  V30 7934 N 740.528 1.15101 1.07655 0
M  V30 7935 C 741.475 0.844958 2.14777 0
M  V30 7936 C 742.445 -0.200798 1.64882 0
M  V30 7937 O 743.63 -0.0690278 1.90675 0
M  V30 7938 C 740.77 0.337018 3.4345 0
M  V30 7939 C 739.883 1.44398 4.07153 0
M  V30 7940 C 739.018 0.892487 5.23649 0
M  V30 7941 C 738.057 1.9766 5.79307 0
M  V30 7942 N 737.194 1.44171 6.87138 0
M  V30 7943 H 742.034 1.76242 2.40297 0
M  V30 7944 H 739.571 0.879435 1.17917 0
M  V30 7945 H 741.529 0.024256 4.17193 0
M  V30 7946 H 740.159 -0.543531 3.18191 0
M  V30 7947 H 739.211 1.87299 3.31094 0
M  V30 7948 H 740.523 2.26262 4.4453 0
M  V30 7949 H 739.677 0.532083 6.04362 0
M  V30 7950 H 738.416 0.0429854 4.87681 0
M  V30 7951 H 737.421 2.34586 4.97242 0
M  V30 7952 H 738.646 2.82982 6.17331 0
M  V30 7953 H 736.592 0.614518 6.53115 0
M  V30 7954 H 736.509 2.19665 7.23383 0
M  V30 7955 H 737.777 1.10945 7.71564 0
M  V30 7956 N 742.006 -1.2595 0.947325 0
M  V30 7957 C 742.954 -2.28152 0.452687 0
M  V30 7958 C 743.948 -1.62655 -0.473239 0
M  V30 7959 O 745.154 -1.76549 -0.350774 0
M  V30 7960 H 741.529 -0.741049 0.12787 0
M  V30 7961 H 743.5 -2.67267 1.32707 0
M  V30 7962 C 742.249 -3.46719 -0.26098 0
M  V30 7963 H 741.572 -3.97345 0.442352 0
M  V30 7964 H 743.012 -4.20135 -0.571208 0
M  V30 7965 C 741.471 -3.02605 -1.48094 0
M  V30 7966 O 742.001 -3.07979 -2.57899 0
M  V30 7967 N 740.207 -2.57877 -1.33969 0
M  V30 7968 H 739.754 -2.53704 -0.446295 0
M  V30 7969 H 739.712 -2.28725 -2.15713 0
M  V30 7970 N 743.484 -0.715051 -1.40445 0
M  V30 7971 C 744.414 -0.0768699 -2.33373 0
M  V30 7972 C 745.395 0.746109 -1.52863 0
M  V30 7973 O 746.58 0.695142 -1.81332 0
M  V30 7974 C 743.71 0.846014 -3.36838 0
M  V30 7975 C 742.664 0.128694 -4.27806 0
M  V30 7976 C 741.99 1.16726 -5.21804 0
M  V30 7977 C 743.29 -1.01679 -5.12307 0
M  V30 7978 H 744.984 -0.853061 -2.8699 0
M  V30 7979 H 742.53 -0.41167 -1.3799 0
M  V30 7980 H 744.483 1.30185 -4.00786 0
M  V30 7981 H 743.207 1.6541 -2.81615 0
M  V30 7982 H 741.866 -0.307314 -3.6531 0
M  V30 7983 H 741.514 1.96838 -4.62887 0
M  V30 7984 H 741.214 0.692188 -5.83509 0
M  V30 7985 H 742.738 1.62321 -5.88629 0
M  V30 7986 H 744.152 -0.640337 -5.69713 0
M  V30 7987 H 742.549 -1.4202 -5.83053 0
M  V30 7988 H 743.619 -1.84769 -4.48317 0
M  V30 7989 N 744.962 1.50701 -0.461195 0
M  V30 7990 C 745.91 2.29918 0.352231 0
M  V30 7991 C 746.904 1.36778 0.999403 0
M  V30 7992 O 748.11 1.54015 0.931639 0
M  V30 7993 H 744.485 0.740249 0.132423 0
M  V30 7994 H 746.456 2.96497 -0.336424 0
M  V30 7995 C 745.205 3.17052 1.42736 0
M  V30 7996 H 744.528 3.88623 0.938747 0
M  V30 7997 H 745.968 3.75493 1.96928 0
M  V30 7998 C 744.427 2.3399 2.42384 0
M  V30 7999 O 744.957 2.01608 3.47444 0
M  V30 8000 N 743.163 1.96758 2.13857 0
M  V30 8001 H 742.71 2.23292 1.28447 0
M  V30 8002 H 742.668 1.41484 2.80766 0
M  V30 8003 N 746.441 0.193421 1.56409 0
M  V30 8004 C 747.69 -0.445995 1.96707 0
M  V30 8005 C 748.003 -1.62876 1.08309 0
M  V30 8006 O 749.209 -2.33586 1.38383 0
M  V30 8007 C 747.665 -0.844863 3.49843 0
M  V30 8008 C 747.273 0.31352 4.46902 0
M  V30 8009 C 749.017 -1.45146 3.98915 0
M  V30 8010 C 746.924 -0.106214 5.91305 0
M  V30 8011 H 745.854 -0.170398 0.734493 0
M  V30 8012 H 748.505 0.285172 1.81271 0
M  V30 8013 H 746.887 -1.63265 3.60778 0
M  V30 8014 H 748.061 1.09103 4.47698 0
M  V30 8015 H 746.376 0.8315 4.08014 0
M  V30 8016 H 748.973 -1.77792 5.04276 0
M  V30 8017 H 749.316 -2.35734 3.43126 0
M  V30 8018 H 749.849 -0.727675 3.91088 0
M  V30 8019 H 746.588 0.765442 6.51016 0
M  V30 8020 H 746.108 -0.848623 5.93766 0
M  V30 8021 H 747.787 -0.542588 6.44721 0
M  V30 8022 N 747.919 -1.57396 -0.0801906 0
M  V30 8023 C 748.851 -1.9982 -1.12271 0
M  V30 8024 C 749.864 -0.902902 -1.35468 0
M  V30 8025 O 751.053 -1.18088 -1.33856 0
M  V30 8026 C 748.153 -2.31476 -2.47532 0
M  V30 8027 C 747.326 -3.62745 -2.44407 0
M  V30 8028 C 746.385 -3.82168 -3.6171 0
M  V30 8029 O 745.411 -4.53852 -3.43522 0
M  V30 8030 N 746.613 -3.2388 -4.81749 0
M  V30 8031 H 749.378 -2.89864 -0.761501 0
M  V30 8032 H 746.939 -1.5965 -0.268965 0
M  V30 8033 H 748.931 -2.4165 -3.24634 0
M  V30 8034 H 747.501 -1.47364 -2.75686 0
M  V30 8035 H 746.721 -3.63403 -1.52747 0
M  V30 8036 H 748.009 -4.48954 -2.39412 0
M  V30 8037 H 747.407 -2.6568 -4.9943 0
M  V30 8038 H 745.964 -3.39515 -5.56392 0
M  V30 8039 N 749.397 0.351382 -1.53633 0
M  V30 8040 C 750.644 1.0925 -1.70502 0
M  V30 8041 C 750.972 1.88881 -0.464123 0
M  V30 8042 O 750.227 1.87693 0.554077 0
M  V30 8043 C 750.526 2.06744 -2.91533 0
M  V30 8044 C 750.192 1.43484 -4.27461 0
M  V30 8045 C 748.854 1.2596 -4.64422 0
M  V30 8046 C 751.206 0.978436 -5.11934 0
M  V30 8047 C 748.534 0.614017 -5.83478 0
M  V30 8048 C 750.886 0.346795 -6.31649 0
M  V30 8049 C 749.55 0.15917 -6.6731 0
M  V30 8050 H 748.82 0.399773 -0.623909 0
M  V30 8051 H 751.467 0.372656 -1.87839 0
M  V30 8052 H 749.772 2.85082 -2.68767 0
M  V30 8053 H 751.469 2.64066 -3.01778 0
M  V30 8054 H 748.059 1.5812 -3.98367 0
M  V30 8055 H 752.243 1.1017 -4.83918 0
M  V30 8056 H 747.499 0.457194 -6.09688 0
M  V30 8057 H 751.673 -0.0149864 -6.96398 0
M  V30 8058 H 749.3 -0.343129 -7.59425 0
M  V30 8059 N 750.875 1.45233 0.611969 0
M  V30 8060 C 751.808 1.48056 1.73651 0
M  V30 8061 C 752.786 0.337373 1.59061 0
M  V30 8062 O 753.97 0.537222 1.80683 0
M  V30 8063 C 751.097 1.33144 3.11433 0
M  V30 8064 C 750.143 2.51272 3.44623 0
M  V30 8065 S 750.976 4.13754 3.39953 0
M  V30 8066 C 752.132 4.013 4.80322 0
M  V30 8067 H 752.365 2.43205 1.70993 0
M  V30 8068 H 749.898 1.32763 0.788246 0
M  V30 8069 H 751.856 1.25228 3.90932 0
M  V30 8070 H 750.517 0.394734 3.1161 0
M  V30 8071 H 749.71 2.36753 4.44932 0
M  V30 8072 H 749.312 2.56027 2.72629 0
M  V30 8073 H 751.604 3.66174 5.7002 0
M  V30 8074 H 752.547 5.01506 4.99897 0
M  V30 8075 H 752.955 3.3303 4.55797 0
M  V30 8076 N 752.353 -0.854086 1.3245 0
M  V30 8077 C 753.578 -1.64597 1.26185 0
M  V30 8078 C 754.003 -1.87357 -0.167074 0
M  V30 8079 O 753.361 -1.42675 -1.11864 0
M  V30 8080 C 753.409 -2.98213 2.02734 0
M  V30 8081 O 752.513 -3.88784 1.37554 0
M  V30 8082 H 751.854 -0.50179 0.434859 0
M  V30 8083 H 754.384 -1.06372 1.74775 0
M  V30 8084 H 754.394 -3.4803 2.1293 0
M  V30 8085 H 753.069 -2.80969 3.06642 0
M  V30 8086 H 751.646 -3.4725 1.3591 0
M  V30 8087 N 753.831 -1.1567 -1.07043 0
M  V30 8088 C 754.781 -0.824733 -2.12561 0
M  V30 8089 C 755.765 0.19243 -1.59745 0
M  V30 8090 O 756.957 -0.00728759 -1.76998 0
M  V30 8091 C 754.086 -0.31921 -3.41813 0
M  V30 8092 C 753.172 -1.36671 -4.01475 0
M  V30 8093 N 753.563 -2.57493 -4.35351 0
M  V30 8094 C 751.861 -1.22018 -4.28984 0
M  V30 8095 C 752.562 -3.24658 -4.82672 0
M  V30 8096 N 751.538 -2.52043 -4.81638 0
M  V30 8097 H 755.34 -1.74363 -2.3659 0
M  V30 8098 H 752.854 -1.04262 -1.24511 0
M  V30 8099 H 754.851 -0.0630216 -4.16852 0
M  V30 8100 H 753.511 0.593708 -3.19226 0
M  V30 8101 H 754.522 -2.94612 -4.25939 0
M  V30 8102 H 751.199 -0.367414 -4.1588 0
M  V30 8103 H 752.589 -4.2775 -5.1815 0
M  V30 8104 N 755.309 1.25446 -0.953992 0
M  V30 8105 C 756.539 1.96929 -0.624688 0
M  V30 8106 C 756.947 1.71112 0.807292 0
M  V30 8107 O 756.29 0.983512 1.55154 0
M  V30 8108 C 756.352 3.50425 -0.802676 0
M  V30 8109 C 756.016 3.99916 -2.21169 0
M  V30 8110 C 757.013 4.10662 -3.18831 0
M  V30 8111 C 754.698 4.33598 -2.53571 0
M  V30 8112 C 756.692 4.54401 -4.46988 0
M  V30 8113 C 754.379 4.77024 -3.81958 0
M  V30 8114 C 755.377 4.87388 -4.78478 0
M  V30 8115 O 755.065 5.29851 -6.04577 0
M  V30 8116 H 754.797 0.634511 -0.233179 0
M  V30 8117 H 757.351 1.60591 -1.28061 0
M  V30 8118 H 755.581 3.86596 -0.0896044 0
M  V30 8119 H 757.27 4.03117 -0.47452 0
M  V30 8120 H 758.036 3.84872 -2.95124 0
M  V30 8121 H 753.915 4.24757 -1.79171 0
M  V30 8122 H 757.459 4.62406 -5.22328 0
M  V30 8123 H 753.356 5.02258 -4.05471 0
M  V30 8124 H 754.124 5.48039 -6.07944 0
M  V30 8125 N 756.787 0.722489 1.40064 0
M  V30 8126 C 757.717 0.0892452 2.33329 0
M  V30 8127 C 758.698 -0.737992 1.53257 0
M  V30 8128 O 759.883 -0.685516 1.81698 0
M  V30 8129 C 757.013 -0.828139 3.37282 0
M  V30 8130 C 755.967 -0.106005 4.27869 0
M  V30 8131 C 755.293 -1.13957 5.22415 0
M  V30 8132 C 756.593 1.04395 5.11761 0
M  V30 8133 H 758.287 0.868269 2.86534 0
M  V30 8134 H 755.833 0.418982 1.3777 0
M  V30 8135 H 757.786 -1.28058 4.01471 0
M  V30 8136 H 756.51 -1.63914 2.82489 0
M  V30 8137 H 755.169 0.326683 3.65142 0
M  V30 8138 H 754.817 -1.9438 4.63924 0
M  V30 8139 H 754.517 -0.661233 5.83868 0
M  V30 8140 H 756.041 -1.59197 5.89482 0
M  V30 8141 H 757.455 0.670541 5.69365 0
M  V30 8142 H 755.852 1.4511 5.82291 0
M  V30 8143 H 756.922 1.87144 4.47331 0
M  V30 8144 N 758.265 -1.50454 0.469181 0
M  V30 8145 C 759.513 -2.01916 -0.0862982 0
M  V30 8146 C 759.834 -1.35337 -1.40388 0
M  V30 8147 O 759.104 -0.498096 -1.89462 0
M  V30 8148 H 757.684 -0.746185 -0.0348825 0
M  V30 8149 H 760.346 -1.84804 0.619167 0
M  V30 8150 H 759.442 -3.11182 -0.239189 0
M  V30 8151 N 759.743 -0.201713 -1.56304 0
M  V30 8152 C 760.973 0.440084 -2.01858 0
M  V30 8153 C 761.381 1.55279 -1.08098 0
M  V30 8154 O 760.724 1.83529 -0.0792216 0
M  V30 8155 C 760.786 1.05091 -3.43797 0
M  V30 8156 C 760.45 0.0761208 -4.56937 0
M  V30 8157 C 761.447 -0.716951 -5.14933 0
M  V30 8158 C 759.132 -0.0368815 -5.02286 0
M  V30 8159 C 761.126 -1.60993 -6.16733 0
M  V30 8160 C 758.813 -0.933409 -6.03929 0
M  V30 8161 C 759.811 -1.71849 -6.61027 0
M  V30 8162 O 759.499 -2.59998 -7.60695 0
M  V30 8163 H 759.231 0.114139 -0.666294 0
M  V30 8164 H 761.785 -0.309672 -2.03052 0
M  V30 8165 H 760.015 1.84938 -3.3961 0
M  V30 8166 H 761.704 1.59804 -3.73118 0
M  V30 8167 H 762.47 -0.63999 -4.80759 0
M  V30 8168 H 758.349 0.564034 -4.57537 0
M  V30 8169 H 761.893 -2.22315 -6.61227 0
M  V30 8170 H 757.79 -1.01146 -6.37526 0
M  V30 8171 H 758.558 -2.53851 -7.7814 0
M  V30 8172 N 761.222 1.57436 0.0718424 0
M  V30 8173 C 762.132 2.07039 1.10326 0
M  V30 8174 C 763.148 0.999918 1.424 0
M  V30 8175 O 764.324 1.31462 1.52577 0
M  V30 8176 C 761.389 2.50439 2.39752 0
M  V30 8177 C 760.45 3.71784 2.14651 0
M  V30 8178 C 759.683 4.13104 3.37906 0
M  V30 8179 O 759.906 3.54298 4.47023 0
M  V30 8180 O 758.84 5.05894 3.26121 0
M  V30 8181 H 762.666 2.95239 0.711872 0
M  V30 8182 H 760.251 1.46638 0.28597 0
M  V30 8183 H 762.133 2.78876 3.15921 0
M  V30 8184 H 760.808 1.65368 2.78271 0
M  V30 8185 H 759.715 3.48431 1.36187 0
M  V30 8186 H 761.048 4.57707 1.81012 0
M  V30 8187 N 762.7 -0.34323 1.53817 0
M  V30 8188 C 763.948 -1.0813 1.70741 0
M  V30 8189 C 764.269 -1.89165 0.473461 0
M  V30 8190 O 763.539 -1.89075 -0.512605 0
M  V30 8191 H 762.119 -0.40219 0.629486 0
M  V30 8192 H 764.781 -0.384426 1.91071 0
M  V30 8193 H 763.877 -1.7585 2.57843 0
M  V30 8194 N 764.178 -1.45556 -0.604258 0
M  V30 8195 C 765.594 -1.30035 -0.925368 0
M  V30 8196 C 765.794 -0.255833 -1.99869 0
M  V30 8197 O 764.85 0.349076 -2.50075 0
M  V30 8198 C 766.163 -2.68028 -1.36314 0
M  V30 8199 C 767.711 -2.75951 -1.47717 0
M  V30 8200 C 768.186 -4.14476 -1.94868 0
M  V30 8201 N 769.677 -4.16787 -2.02097 0
M  V30 8202 C 770.412 -5.20845 -2.39809 0
M  V30 8203 N 769.908 -6.35246 -2.76467 0
M  V30 8204 N 771.701 -5.08204 -2.40177 0
M  V30 8205 H 763.852 -2.1214 0.10512 0
M  V30 8206 H 766.115 -0.947871 -0.0156303 0
M  V30 8207 H 765.821 -3.45667 -0.648628 0
M  V30 8208 H 765.695 -2.96711 -2.329 0
M  V30 8209 H 768.082 -1.98613 -2.18258 0
M  V30 8210 H 768.163 -2.50977 -0.494371 0
M  V30 8211 H 767.807 -4.923 -1.24912 0
M  V30 8212 H 767.737 -4.36843 -2.94068 0
M  V30 8213 H 770.228 -3.34233 -1.76343 0
M  V30 8214 H 770.541 -7.10438 -3.04134 0
M  V30 8215 H 768.886 -6.38642 -2.74155 0
M  V30 8216 H 772.077 -4.17874 -2.10947 0
M  V30 8217 H 772.25 -5.89417 -2.69242 0
M  V30 8218 N 765.656 0.84705 -1.32902 0
M  V30 8219 C 766.896 1.61554 -1.25218 0
M  V30 8220 C 767.26 1.91141 0.18143 0
M  V30 8221 O 768.461 2.6607 0.382106 0
M  V30 8222 C 766.732 2.89553 -2.09509 0
M  V30 8223 S 768.291 3.80283 -2.18931 0
M  V30 8224 H 765.109 0.554031 -0.445613 0
M  V30 8225 H 767.711 1.00251 -1.67839 0
M  V30 8226 H 766.415 2.65776 -3.12716 0
M  V30 8227 H 765.946 3.55868 -1.67694 0
M  V30 8228 H 767.961 4.77641 -1.34438 0
M  V30 8229 N 767.134 1.16236 1.06428 0
M  V30 8230 C 768.097 0.870163 2.1204 0
M  V30 8231 C 769.097 -0.134239 1.60239 0
M  V30 8232 O 770.287 0.0964932 1.73933 0
M  V30 8233 C 767.419 0.301033 3.39568 0
M  V30 8234 H 768.612 1.8064 2.39394 0
M  V30 8235 H 766.165 0.971116 1.2247 0
M  V30 8236 H 766.9 -0.642948 3.17863 0
M  V30 8237 H 766.685 1.02475 3.78472 0
M  V30 8238 H 768.175 0.114494 4.17443 0
M  V30 8239 N 768.612 -1.24939 0.960631 0
M  V30 8240 C 769.861 -1.92118 0.614298 0
M  V30 8241 C 770.174 -1.75998 -0.853474 0
M  V30 8242 O 771.38 -2.37804 -1.31003 0
M  V30 8243 C 769.836 -3.44303 1.04801 0
M  V30 8244 C 769.444 -3.69123 2.53875 0
M  V30 8245 C 771.188 -4.17375 0.774497 0
M  V30 8246 C 769.095 -5.14843 2.91016 0
M  V30 8247 H 768.025 -0.719319 0.226045 0
M  V30 8248 H 770.676 -1.41701 1.16589 0
M  V30 8249 H 769.058 -3.93715 0.42479 0
M  V30 8250 H 770.232 -3.30339 3.21267 0
M  V30 8251 H 768.547 -3.09323 2.78762 0
M  V30 8252 H 771.144 -5.24723 1.02808 0
M  V30 8253 H 771.487 -4.15294 -0.289192 0
M  V30 8254 H 772.02 -3.7389 1.35835 0
M  V30 8255 H 768.759 -5.2204 3.96427 0
M  V30 8256 H 768.279 -5.54652 2.28302 0
M  V30 8257 H 769.958 -5.83017 2.80535 0
M  V30 8258 N 770.09 -0.729906 -1.39679 0
M  V30 8259 C 771.501 -0.346241 -1.83461 0
M  V30 8260 C 771.852 1.1215 -1.60987 0
M  V30 8261 O 770.977 1.86456 -1.09832 0
M  V30 8262 C 771.572 -0.621656 -3.33048 0
M  V30 8263 C 770.131 -0.291543 -3.75269 0
M  V30 8264 C 769.278 -0.886844 -2.62736 0
M  V30 8265 H 772.229 -0.927949 -1.28743 0
M  V30 8266 H 772.25 0.108301 -3.80346 0
M  V30 8267 H 771.762 -1.68996 -3.49373 0
M  V30 8268 H 769.863 0.771133 -3.64533 0
M  V30 8269 H 769.976 -0.770544 -4.72863 0
M  V30 8270 H 768.34 -0.313839 -2.52759 0
M  V30 8271 H 769.123 -1.95971 -2.81869 0
M  V30 8272 N 771.568 1.50203 -0.477153 0
M  V30 8273 C 772.793 2.07263 0.0754986 0
M  V30 8274 C 773.218 1.33801 1.32208 0
M  V30 8275 O 772.576 0.387482 1.77111 0
M  V30 8276 C 772.624 3.59028 0.336348 0
M  V30 8277 O 771.728 3.87339 1.4157 0
M  V30 8278 H 771.069 0.663815 -0.015662 0
M  V30 8279 H 773.599 1.93321 -0.669936 0
M  V30 8280 H 773.609 4.03927 0.575034 0
M  V30 8281 H 772.284 4.11912 -0.574551 0
M  V30 8282 H 770.861 3.54272 1.16385 0
M  V30 8283 N 773.046 0.209999 1.56195 0
M  V30 8284 C 773.994 -0.721416 2.2113 0
M  V30 8285 C 774.988 -1.20852 1.18706 0
M  V30 8286 O 776.194 -1.16968 1.36815 0
M  V30 8287 H 772.569 -0.251033 0.708863 0
M  V30 8288 H 774.54 -0.150193 2.98022 0
M  V30 8289 C 773.289 -1.92392 2.89621 0
M  V30 8290 H 772.612 -1.5582 3.68185 0
M  V30 8291 H 774.052 -2.55367 3.38473 0
M  V30 8292 C 772.511 -2.77208 1.91461 0
M  V30 8293 O 773.041 -3.75603 1.42426 0
M  V30 8294 N 771.247 -2.43006 1.59363 0
M  V30 8295 H 770.794 -1.63047 1.99433 0
M  V30 8296 H 770.752 -3.00036 0.939449 0
M  V30 8297 N 774.524 -1.57472 -0.0634922 0
M  V30 8298 C 775.771 -1.87654 -0.761066 0
M  V30 8299 C 776.099 -0.802847 -1.77157 0
M  V30 8300 O 775.354 0.200244 -1.94673 0
M  V30 8301 C 775.653 -3.24521 -1.49736 0
M  V30 8302 C 775.319 -4.46532 -0.626065 0
M  V30 8303 C 773.981 -4.7965 -0.385978 0
M  V30 8304 C 776.333 -5.21195 -0.0224001 0
M  V30 8305 C 773.661 -5.84837 0.467118 0
M  V30 8306 C 776.013 -6.27286 0.818198 0
M  V30 8307 C 774.677 -6.58899 1.06808 0
M  V30 8308 H 773.947 -0.686675 -0.278494 0
M  V30 8309 H 776.594 -1.91488 -0.0216348 0
M  V30 8310 H 774.899 -3.16516 -2.30921 0
M  V30 8311 H 776.596 -3.45111 -2.04204 0
M  V30 8312 H 773.186 -4.20618 -0.823325 0
M  V30 8313 H 777.37 -4.95917 -0.194985 0
M  V30 8314 H 772.626 -6.07725 0.669375 0
M  V30 8315 H 776.8 -6.84298 1.29265 0
M  V30 8316 H 774.427 -7.40233 1.73088 0
M  V30 8317 N 776.003 0.335068 -1.53997 0
M  V30 8318 C 777.28 1.09188 -1.62288 0
M  V30 8319 C 777.66 2.0626 -0.449458 0
M  V30 8320 O 777.008 2.21596 0.557444 0
M  V30 8321 C 777.218 1.80403 -2.98757 0
M  V30 8322 C 778.566 2.33841 -3.54406 0
M  V30 8323 O 779.59 1.90487 -3.00987 0
M  V30 8324 O 778.449 3.1318 -4.47862 0
M  V30 8325 H 775.543 0.502621 -0.656736 0
M  V30 8326 H 778.089 0.33588 -1.66343 0
M  V30 8327 H 776.861 1.09732 -3.75599 0
M  V30 8328 H 776.484 2.62841 -2.9833 0
M  V30 8329 N 777.481 1.45874 0.596531 0
M  V30 8330 C 778.721 1.52015 1.36641 0
M  V30 8331 C 779.085 0.16226 1.91313 0
M  V30 8332 O 780.286 0.0983889 2.6862 0
M  V30 8333 C 778.557 2.57776 2.4756 0
M  V30 8334 S 780.116 2.83223 3.35157 0
M  V30 8335 H 776.934 0.537251 0.465706 0
M  V30 8336 H 779.536 1.83024 0.687205 0
M  V30 8337 H 778.24 3.55091 2.05764 0
M  V30 8338 H 777.771 2.28455 3.20269 0
M  V30 8339 H 779.786 2.17442 4.4602 0
M  V30 8340 N 778.959 -0.83999 1.33349 0
M  V30 8341 C 779.907 -1.97113 1.23488 0
M  V30 8342 C 780.901 -1.68849 0.136503 0
M  V30 8343 O 782.107 -1.77476 0.300389 0
M  V30 8344 H 778.482 -0.647049 0.383185 0
M  V30 8345 H 780.453 -2.02554 2.19122 0
M  V30 8346 C 779.202 -3.33314 0.989815 0
M  V30 8347 H 778.525 -3.556 1.82726 0
M  V30 8348 H 779.965 -4.12963 0.961123 0
M  V30 8349 C 778.424 -3.35496 -0.307272 0
M  V30 8350 O 778.954 -3.79589 -1.31434 0
M  V30 8351 N 777.16 -2.88669 -0.334414 0
M  V30 8352 H 776.707 -2.5298 0.485659 0
M  V30 8353 H 776.665 -2.90512 -1.20209 0
M  V30 8354 N 780.437 -1.16799 -1.0581 0
M  V30 8355 C 781.667 -0.975454 -1.82122 0
M  V30 8356 C 782.075 0.479584 -1.83021 0
M  V30 8357 O 781.418 1.34471 -1.25153 0
M  V30 8358 C 781.48 -1.43209 -3.29744 0
M  V30 8359 C 781.144 -2.908 -3.5254 0
M  V30 8360 C 782.141 -3.88775 -3.45181 0
M  V30 8361 C 779.826 -3.28832 -3.79703 0
M  V30 8362 C 781.82 -5.22782 -3.64661 0
M  V30 8363 C 779.507 -4.63007 -3.98832 0
M  V30 8364 C 780.505 -5.59791 -3.91309 0
M  V30 8365 O 780.193 -6.9154 -4.09911 0
M  V30 8366 H 779.925 -0.345655 -0.580947 0
M  V30 8367 H 782.479 -1.55355 -1.34365 0
M  V30 8368 H 780.709 -0.797504 -3.78387 0
M  V30 8369 H 782.398 -1.2062 -3.87564 0
M  V30 8370 H 783.164 -3.60738 -3.2418 0
M  V30 8371 H 779.043 -2.54073 -3.84666 0
M  V30 8372 H 782.587 -5.98312 -3.58705 0
M  V30 8373 H 778.484 -4.90752 -4.19324 0
M  V30 8374 H 779.252 -6.98188 -4.27172 0
M  V30 8375 N 781.915 1.24427 -0.967243 0
M  V30 8376 C 783.155 1.9423 -0.636723 0
M  V30 8377 C 783.519 1.73939 0.812971 0
M  V30 8378 O 784.72 2.37773 1.25369 0
M  V30 8379 C 782.991 3.43105 -1.00067 0
M  V30 8380 S 784.55 4.31728 -0.784633 0
M  V30 8381 H 781.368 0.671527 -0.233607 0
M  V30 8382 H 783.97 1.50806 -1.2441 0
M  V30 8383 H 782.674 3.5538 -2.05264 0
M  V30 8384 H 782.205 3.91521 -0.384054 0
M  V30 8385 H 784.22 4.95046 0.338244 0
M  V30 8386 N 783.393 0.737304 1.3929 0
M  V30 8387 C 784.623 0.296143 2.04467 0
M  V30 8388 C 785.031 -1.0748 1.55707 0
M  V30 8389 O 784.374 -1.69082 0.718123 0
M  V30 8390 C 784.436 0.222161 3.58813 0
M  V30 8391 C 784.1 1.53195 4.30558 0
M  V30 8392 C 785.097 2.47809 4.57041 0
M  V30 8393 C 782.782 1.79688 4.6906 0
M  V30 8394 C 784.776 3.67147 5.21039 0
M  V30 8395 C 782.463 2.99304 5.32785 0
M  V30 8396 C 783.461 3.92855 5.58708 0
M  V30 8397 O 783.149 5.1037 6.2111 0
M  V30 8398 H 782.881 0.126896 0.663983 0
M  V30 8399 H 785.435 1.00242 1.79278 0
M  V30 8400 H 783.665 -0.540239 3.82908 0
M  V30 8401 H 785.354 -0.187311 4.05468 0
M  V30 8402 H 786.12 2.28611 4.2774 0
M  V30 8403 H 781.999 1.07716 4.48239 0
M  V30 8404 H 785.543 4.40183 5.41188 0
M  V30 8405 H 781.44 3.18401 5.61508 0
M  V30 8406 H 782.208 5.10735 6.39603 0
M  V30 8407 N 784.871 -1.49948 0.485112 0
M  V30 8408 C 785.834 -2.27351 -0.290546 0
M  V30 8409 C 786.834 -1.32704 -0.908087 0
M  V30 8410 O 788.024 -1.56007 -0.775085 0
M  V30 8411 C 785.156 -3.10135 -1.41524 0
M  V30 8412 H 786.349 -2.97374 0.388454 0
M  V30 8413 H 783.902 -1.54453 0.239586 0
M  V30 8414 H 784.637 -2.44641 -2.12888 0
M  V30 8415 H 784.422 -3.79705 -0.978074 0
M  V30 8416 H 785.912 -3.68638 -1.96204 0
M  V30 8417 N 786.349 -0.21828 -1.56081 0
M  V30 8418 C 787.279 0.687922 -2.23136 0
M  V30 8419 C 788.26 1.20357 -1.202 0
M  V30 8420 O 789.445 1.24817 -1.48776 0
M  V30 8421 C 786.575 1.89762 -2.90874 0
M  V30 8422 C 785.529 1.51595 -4.00254 0
M  V30 8423 C 784.855 2.80415 -4.55271 0
M  V30 8424 C 786.155 0.708404 -5.17474 0
M  V30 8425 H 787.849 0.128854 -2.99123 0
M  V30 8426 H 785.395 0.0605354 -1.43873 0
M  V30 8427 H 787.348 2.53699 -3.36474 0
M  V30 8428 H 786.072 2.4816 -2.1233 0
M  V30 8429 H 784.731 0.900058 -3.55379 0
M  V30 8430 H 784.379 3.36951 -3.73461 0
M  V30 8431 H 784.079 2.55613 -5.2909 0
M  V30 8432 H 785.603 3.453 -5.03587 0
M  V30 8433 H 787.017 1.2514 -5.59476 0
M  V30 8434 H 785.414 0.557593 -5.97504 0
M  V30 8435 H 786.484 -0.285679 -4.84058 0
M  V30 8436 N 787.827 1.57504 0.0551401 0
M  V30 8437 C 789.075 1.87684 0.74962 0
M  V30 8438 C 789.396 0.812547 1.77264 0
M  V30 8439 O 788.666 -0.15694 1.9527 0
M  V30 8440 H 787.246 0.6926 0.279846 0
M  V30 8441 H 789.908 1.94881 0.0272745 0
M  V30 8442 H 789.004 2.85734 1.25548 0
M  V30 8443 N 789.305 -0.326896 1.54172 0
M  V30 8444 C 790.535 -1.08328 1.75922 0
M  V30 8445 C 790.943 -1.82302 0.50622 0
M  V30 8446 O 790.286 -1.7581 -0.532581 0
M  V30 8447 C 790.348 -2.1294 2.8965 0
M  V30 8448 C 790.012 -1.58394 4.28673 0
M  V30 8449 C 791.009 -1.02747 5.09646 0
M  V30 8450 C 788.694 -1.62737 4.75207 0
M  V30 8451 C 790.688 -0.52169 6.35261 0
M  V30 8452 C 788.375 -1.11772 6.00791 0
M  V30 8453 C 789.373 -0.565819 6.80652 0
M  V30 8454 O 789.061 -0.0638146 8.03875 0
M  V30 8455 H 788.793 -0.3282 0.590983 0
M  V30 8456 H 791.347 -0.37972 2.0186 0
M  V30 8457 H 789.577 -2.86903 2.59275 0
M  V30 8458 H 791.266 -2.74274 2.99213 0
M  V30 8459 H 792.032 -0.987007 4.74851 0
M  V30 8460 H 787.911 -2.04635 4.13093 0
M  V30 8461 H 791.455 -0.0902544 6.97542 0
M  V30 8462 H 787.352 -1.15524 6.35078 0
M  V30 8463 H 788.12 -0.17955 8.18303 0
M  V30 8464 N 790.784 -1.46188 -0.588786 0
M  V30 8465 C 791.732 -1.56653 -1.71938 0
M  V30 8466 C 792.726 -0.435354 -1.6371 0
M  V30 8467 O 793.932 -0.611996 -1.69277 0
M  V30 8468 H 790.307 -0.492408 -0.568365 0
M  V30 8469 H 792.278 -2.51724 -1.60242 0
M  V30 8470 C 791.027 -1.56822 -3.10326 0
M  V30 8471 H 790.35 -2.43198 -3.17325 0
M  V30 8472 H 791.79 -1.68199 -3.89211 0
M  V30 8473 C 790.249 -0.295802 -3.35599 0
M  V30 8474 O 790.779 0.616515 -3.96941 0
M  V30 8475 N 788.985 -0.185609 -2.90007 0
M  V30 8476 H 788.532 -0.928914 -2.40269 0
M  V30 8477 H 788.49 0.664883 -3.07289 0
M  V30 8478 N 792.262 0.832906 -1.33792 0
M  V30 8479 C 793.225 1.92471 -1.24449 0
M  V30 8480 C 794.225 1.59981 -0.162085 0
M  V30 8481 O 795.415 1.69208 -0.414029 0
M  V30 8482 C 792.547 3.28278 -0.919044 0
M  V30 8483 H 793.74 2.0218 -2.21502 0
M  V30 8484 H 791.293 1.0257 -1.17936 0
M  V30 8485 H 792.028 3.24263 0.048738 0
M  V30 8486 H 791.813 3.53241 -1.70187 0
M  V30 8487 H 793.303 4.08253 -0.878576 0
M  V30 8488 N 793.74 1.17359 1.05189 0
M  V30 8489 C 794.703 0.892604 2.11105 0
M  V30 8490 C 795.703 -0.117236 1.60372 0
M  V30 8491 O 796.893 0.114936 1.7382 0
M  V30 8492 C 794.025 0.337032 3.3923 0
M  V30 8493 H 795.218 1.83169 2.37464 0
M  V30 8494 H 792.771 0.984051 1.21434 0
M  V30 8495 H 793.506 -0.609198 3.18527 0
M  V30 8496 H 793.291 1.06484 3.77364 0
M  V30 8497 H 794.781 0.158763 4.17298 0
M  V30 8498 N 795.218 -1.23913 0.973828 0
M  V30 8499 C 796.148 -2.27453 0.527969 0
M  V30 8500 C 797.129 -1.6443 -0.435513 0
M  V30 8501 O 798.314 -1.9137 -0.330306 0
M  V30 8502 C 795.444 -3.4685 -0.176757 0
M  V30 8503 C 794.398 -4.22181 0.703352 0
M  V30 8504 C 793.724 -5.34534 -0.133215 0
M  V30 8505 C 795.024 -4.82865 1.99096 0
M  V30 8506 H 796.718 -2.65 1.3934 0
M  V30 8507 H 794.264 -1.27388 0.671446 0
M  V30 8508 H 796.217 -4.18424 -0.499934 0
M  V30 8509 H 794.941 -3.08346 -1.07659 0
M  V30 8510 H 793.6 -3.52416 1.00989 0
M  V30 8511 H 793.248 -4.92271 -1.03338 0
M  V30 8512 H 792.948 -5.85855 0.452494 0
M  V30 8513 H 794.472 -6.08933 -0.450924 0
M  V30 8514 H 795.886 -5.46481 1.73297 0
M  V30 8515 H 794.283 -5.44444 2.52389 0
M  V30 8516 H 795.353 -4.03977 2.68199 0
M  V30 8517 N 796.696 -0.74468 -1.38897 0
M  V30 8518 C 797.626 -0.126355 -2.33158 0
M  V30 8519 C 798.607 0.713517 -1.54412 0
M  V30 8520 O 799.792 0.656523 -1.82766 0
M  V30 8521 C 796.922 0.774375 -3.38557 0
M  V30 8522 C 795.876 0.0379214 -4.27983 0
M  V30 8523 C 795.202 1.05631 -5.24162 0
M  V30 8524 C 796.502 -1.12523 -5.10035 0
M  V30 8525 H 798.196 -0.913744 -2.85116 0
M  V30 8526 H 795.742 -0.440847 -1.37086 0
M  V30 8527 H 797.695 1.21655 -4.03458 0
M  V30 8528 H 796.419 1.59399 -2.85061 0
M  V30 8529 H 795.078 -0.384733 -3.64576 0
M  V30 8530 H 794.726 1.86975 -4.66958 0
M  V30 8531 H 794.426 0.568261 -5.84846 0
M  V30 8532 H 795.95 1.49799 -5.9194 0
M  V30 8533 H 797.364 -0.761037 -5.68226 0
M  V30 8534 H 795.761 -1.54355 -5.79909 0
M  V30 8535 H 796.831 -1.94237 -4.44297 0
M  V30 8536 N 798.174 1.49689 -0.493057 0
M  V30 8537 C 799.423 2.01622 0.0560733 0
M  V30 8538 C 799.736 1.37838 1.3878 0
M  V30 8539 O 800.942 1.81054 2.02316 0
M  V30 8540 C 799.398 3.59586 0.150409 0
M  V30 8541 C 799.006 4.32338 -1.1742 0
M  V30 8542 C 800.75 4.19489 0.650327 0
M  V30 8543 C 798.657 5.8214 -1.04246 0
M  V30 8544 H 797.587 0.753594 0.0247297 0
M  V30 8545 H 800.238 1.723 -0.631279 0
M  V30 8546 H 798.62 3.8559 0.902035 0
M  V30 8547 H 799.794 4.18042 -1.9385 0
M  V30 8548 H 798.109 3.84144 -1.60694 0
M  V30 8549 H 800.706 5.29181 0.766272 0
M  V30 8550 H 801.049 3.82326 1.6472 0
M  V30 8551 H 801.582 3.97775 -0.0445371 0
M  V30 8552 H 798.321 6.23814 -2.01336 0
M  V30 8553 H 797.841 5.98952 -0.31892 0
M  V30 8554 H 799.52 6.43004 -0.717957 0
M  V30 8555 N 799.652 0.226554 1.55963 0
M  V30 8556 C 800.929 -0.453058 1.90281 0
M  V30 8557 C 801.309 -1.77377 1.14458 0
M  V30 8558 O 800.657 -2.27067 0.255496 0
M  V30 8559 C 800.867 -0.641108 3.43061 0
M  V30 8560 C 802.215 -0.946265 4.13921 0
M  V30 8561 O 803.239 -0.727713 3.48687 0
M  V30 8562 O 802.098 -1.36131 5.29274 0
M  V30 8563 H 799.192 -0.240242 0.791336 0
M  V30 8564 H 801.738 0.26911 1.67553 0
M  V30 8565 H 800.51 0.290283 3.90222 0
M  V30 8566 H 800.133 -1.41458 3.71585 0
M  V30 8567 N 801.13 -1.57531 -0.0467866 0
M  V30 8568 C 802.08 -2.01845 -1.06031 0
M  V30 8569 C 803.064 -0.904662 -1.33059 0
M  V30 8570 O 804.256 -1.16858 -1.32941 0
M  V30 8571 C 801.385 -2.48673 -2.36679 0
M  V30 8572 C 800.471 -3.66837 -2.12818 0
M  V30 8573 N 800.862 -4.80172 -1.5896 0
M  V30 8574 C 799.16 -3.73869 -2.43183 0
M  V30 8575 C 799.861 -5.61895 -1.50494 0
M  V30 8576 N 798.837 -5.0648 -1.97431 0
M  V30 8577 H 802.639 -2.869 -0.637623 0
M  V30 8578 H 800.153 -1.6041 -0.253427 0
M  V30 8579 H 802.15 -2.78671 -3.10077 0
M  V30 8580 H 800.81 -1.65016 -2.79642 0
M  V30 8581 H 801.821 -5.01967 -1.27474 0
M  V30 8582 H 798.498 -3.00977 -2.89342 0
M  V30 8583 H 799.888 -6.62918 -1.09494 0
M  V30 8584 N 802.608 0.318715 -1.54344 0
M  V30 8585 C 803.555 1.39242 -1.84066 0
M  V30 8586 C 804.525 1.51175 -0.688134 0
M  V30 8587 O 805.71 1.66318 -0.935039 0
M  V30 8588 C 802.85 2.75528 -2.07794 0
M  V30 8589 C 801.963 2.72187 -3.35467 0
M  V30 8590 C 801.098 4.00352 -3.4913 0
M  V30 8591 C 800.137 3.91338 -4.7066 0
M  V30 8592 N 799.274 5.11242 -4.81224 0
M  V30 8593 H 804.114 1.13196 -2.75664 0
M  V30 8594 H 801.651 0.547857 -1.36517 0
M  V30 8595 H 803.609 3.54763 -2.19543 0
M  V30 8596 H 802.239 2.99873 -1.19482 0
M  V30 8597 H 801.291 1.84917 -3.3243 0
M  V30 8598 H 802.603 2.61411 -4.24812 0
M  V30 8599 H 801.757 4.88019 -3.60448 0
M  V30 8600 H 800.496 4.1394 -2.57886 0
M  V30 8601 H 799.501 3.02055 -4.59394 0
M  V30 8602 H 800.726 3.7931 -5.63294 0
M  V30 8603 H 798.672 5.25327 -3.92897 0
M  V30 8604 H 798.589 5.0282 -5.64543 0
M  V30 8605 H 799.857 6.0061 -4.96879 0
M  V30 8606 N 804.086 1.46499 0.581025 0
M  V30 8607 C 805.033 1.5719 1.68997 0
M  V30 8608 C 806.003 0.416114 1.60803 0
M  V30 8609 O 807.188 0.633086 1.79991 0
M  V30 8610 C 804.328 1.56973 3.07333 0
M  V30 8611 C 803.441 2.83298 3.26139 0
M  V30 8612 C 802.576 2.74574 4.54734 0
M  V30 8613 C 801.615 3.9583 4.66889 0
M  V30 8614 N 800.752 3.85482 5.86811 0
M  V30 8615 H 805.592 2.51914 1.59196 0
M  V30 8616 H 803.129 1.24975 0.775857 0
M  V30 8617 H 805.087 1.54832 3.87405 0
M  V30 8618 H 803.717 0.657803 3.16027 0
M  V30 8619 H 802.769 2.95411 2.3966 0
M  V30 8620 H 804.081 3.7316 3.30988 0
M  V30 8621 H 803.235 2.70548 5.43036 0
M  V30 8622 H 801.974 1.82354 4.52325 0
M  V30 8623 H 800.979 4.00186 3.77003 0
M  V30 8624 H 802.204 4.89148 4.71075 0
M  V30 8625 H 800.15 2.96051 5.85397 0
M  V30 8626 H 800.067 4.69002 5.92936 0
M  V30 8627 H 801.335 3.85434 6.7754 0
M  V30 8628 N 805.565 -0.825799 1.34232 0
M  V30 8629 C 806.793 -1.61363 1.29497 0
M  V30 8630 C 807.208 -1.88341 -0.131536 0
M  V30 8631 O 806.565 -1.47279 -1.07773 0
M  V30 8632 C 806.616 -2.95623 2.08061 0
M  V30 8633 O 806.337 -2.69824 3.45147 0
M  V30 8634 C 807.838 -3.90032 2.10688 0
M  V30 8635 H 805.058 -0.501676 0.445603 0
M  V30 8636 H 807.602 -1.02767 1.76803 0
M  V30 8637 H 805.757 -3.50785 1.64404 0
M  V30 8638 H 806.171 -3.55412 3.85723 0
M  V30 8639 H 807.645 -4.81411 2.70087 0
M  V30 8640 H 808.122 -4.25188 1.10052 0
M  V30 8641 H 808.728 -3.40807 2.54422 0
M  V30 8642 N 807.043 -1.17915 -1.04565 0
M  V30 8643 C 808.291 -0.969505 -1.77327 0
M  V30 8644 C 808.612 0.502569 -1.88412 0
M  V30 8645 O 807.882 1.36467 -1.40547 0
M  V30 8646 H 806.462 -0.355723 -0.656864 0
M  V30 8647 H 809.124 -1.48506 -1.26223 0
M  V30 8648 H 808.22 -1.40324 -2.78775 0
M  V30 8649 N 808.521 1.23394 -0.980386 0
M  V30 8650 C 809.751 1.9556 -0.666319 0
M  V30 8651 C 810.159 1.72786 0.770815 0
M  V30 8652 O 809.502 1.0162 1.53033 0
M  V30 8653 C 809.564 3.48643 -0.876825 0
M  V30 8654 C 809.228 3.95135 -2.29602 0
M  V30 8655 C 810.225 4.03806 -3.2747 0
M  V30 8656 C 807.91 4.28122 -2.62711 0
M  V30 8657 C 809.904 4.44818 -4.56526 0
M  V30 8658 C 807.591 4.68814 -3.9199 0
M  V30 8659 C 808.589 4.77129 -4.88709 0
M  V30 8660 O 808.277 5.16908 -6.15679 0
M  V30 8661 H 808.009 0.629422 -0.246585 0
M  V30 8662 H 810.563 1.57839 -1.31438 0
M  V30 8663 H 808.793 3.86319 -0.171587 0
M  V30 8664 H 810.482 4.0202 -0.55992 0
M  V30 8665 H 811.248 3.78526 -3.03222 0
M  V30 8666 H 807.127 4.20861 -1.8814 0
M  V30 8667 H 810.671 4.51223 -5.32018 0
M  V30 8668 H 806.568 4.93545 -4.16033 0
M  V30 8669 H 807.336 5.3502 -6.19432 0
M  V30 8670 N 809.999 0.752036 1.385 0
M  V30 8671 C 810.932 0.0717411 2.28087 0
M  V30 8672 C 811.91 -0.729945 1.45295 0
M  V30 8673 O 813.094 -0.708902 1.74662 0
M  V30 8674 C 810.221 -0.905237 3.26379 0
M  V30 8675 C 809.267 -0.189973 4.26077 0
M  V30 8676 S 810.1 1.10815 5.23909 0
M  V30 8677 C 811.256 0.134202 6.25756 0
M  V30 8678 H 811.489 0.831438 2.85437 0
M  V30 8679 H 809.022 0.544552 1.44478 0
M  V30 8680 H 810.98 -1.46358 3.83523 0
M  V30 8681 H 809.641 -1.63789 2.68015 0
M  V30 8682 H 808.834 -0.92985 4.95348 0
M  V30 8683 H 808.436 0.296804 3.7282 0
M  V30 8684 H 810.728 -0.700345 6.7387 0
M  V30 8685 H 811.671 0.794532 7.03628 0
M  V30 8686 H 812.079 -0.245801 5.63965 0
M  V30 8687 N 811.477 -1.49425 0.500989 0
M  V30 8688 C 812.702 -2.07356 -0.0425154 0
M  V30 8689 C 813.127 -1.35887 -1.30063 0
M  V30 8690 O 812.485 -0.41561 -1.76472 0
M  V30 8691 C 812.533 -3.59518 -0.279188 0
M  V30 8692 O 811.637 -3.89542 -1.3539 0
M  V30 8693 H 810.978 -0.663482 0.0262207 0
M  V30 8694 H 813.508 -1.92231 0.700607 0
M  V30 8695 H 813.518 -4.04791 -0.5107 0
M  V30 8696 H 812.193 -4.10946 0.640009 0
M  V30 8697 H 810.77 -3.56079 -1.10734 0
M  V30 8698 N 812.955 -0.234822 -1.55841 0
M  V30 8699 C 814.204 0.393685 -1.97821 0
M  V30 8700 C 814.517 1.59947 -1.1259 0
M  V30 8701 O 815.723 2.29835 -1.44528 0
M  V30 8702 C 814.179 0.751811 -3.5196 0
M  V30 8703 C 813.787 -0.431898 -4.45913 0
M  V30 8704 C 815.531 1.34518 -4.02623 0
M  V30 8705 C 813.438 -0.0505976 -5.91378 0
M  V30 8706 H 812.368 0.150864 -0.738753 0
M  V30 8707 H 815.019 -0.333132 -1.80451 0
M  V30 8708 H 813.401 1.53642 -3.6498 0
M  V30 8709 H 814.575 -1.20935 -4.44647 0
M  V30 8710 H 812.89 -0.939385 -4.05666 0
M  V30 8711 H 815.487 1.64359 -5.08813 0
M  V30 8712 H 815.83 2.26554 -3.49255 0
M  V30 8713 H 816.363 0.623729 -3.9288 0
M  V30 8714 H 813.102 -0.937779 -6.48757 0
M  V30 8715 H 812.622 0.690898 -5.95808 0
M  V30 8716 H 814.301 0.37146 -6.45933 0
M  V30 8717 N 814.433 1.57553 0.0384317 0
M  V30 8718 C 815.682 1.88022 0.730108 0
M  V30 8719 C 815.995 0.83209 1.77019 0
M  V30 8720 O 817.201 1.0257 2.51379 0
M  V30 8721 C 815.657 3.33637 1.3496 0
M  V30 8722 C 815.265 4.46659 0.346352 0
M  V30 8723 C 817.009 3.73266 2.02169 0
M  V30 8724 C 814.916 5.8333 0.973652 0
M  V30 8725 H 813.846 0.701496 0.276442 0
M  V30 8726 H 816.497 1.83493 -0.0158028 0
M  V30 8727 H 814.879 3.32882 2.1449 0
M  V30 8728 H 816.053 4.58868 -0.421558 0
M  V30 8729 H 814.368 4.15802 -0.223133 0
M  V30 8730 H 816.965 4.72689 2.49938 0
M  V30 8731 H 817.308 3.04776 2.8358 0
M  V30 8732 H 817.841 3.76156 1.29427 0
M  V30 8733 H 814.58 6.55197 0.199163 0
M  V30 8734 H 814.1 5.7486 1.71162 0
M  V30 8735 H 815.779 6.29757 1.48376 0
M  V30 8736 N 815.911 -0.310526 1.54511 0
M  V30 8737 C 817.327 -0.655637 1.45511 0
M  V30 8738 C 817.527 -1.91114 0.638564 0
M  V30 8739 O 816.583 -2.52098 0.142497 0
M  V30 8740 C 817.896 -0.817501 2.89374 0
M  V30 8741 C 819.444 -0.914003 2.99358 0
M  V30 8742 C 819.919 -1.10794 4.44397 0
M  V30 8743 N 821.41 -1.17437 4.48066 0
M  V30 8744 C 822.145 -1.34255 5.57461 0
M  V30 8745 N 821.641 -1.48032 6.768 0
M  V30 8746 N 823.434 -1.37067 5.45132 0
M  V30 8747 H 815.585 0.514506 2.06074 0
M  V30 8748 H 817.848 0.168478 0.932909 0
M  V30 8749 H 817.554 0.034003 3.51684 0
M  V30 8750 H 817.428 -1.7094 3.36243 0
M  V30 8751 H 819.815 -1.756 2.37168 0
M  V30 8752 H 819.896 0.00170958 2.558 0
M  V30 8753 H 819.54 -0.270743 5.07178 0
M  V30 8754 H 819.47 -2.03773 4.85576 0
M  V30 8755 H 821.961 -1.08181 3.62084 0
M  V30 8756 H 822.274 -1.60593 7.5593 0
M  V30 8757 H 820.619 -1.45105 6.79683 0
M  V30 8758 H 823.81 -1.25909 4.50849 0
M  V30 8759 H 823.983 -1.49831 6.3044 0
M  V30 8760 N 817.389 -1.46805 -0.573248 0
M  V30 8761 C 818.337 -1.58468 -1.70267 0
M  V30 8762 C 819.331 -0.452694 -1.63239 0
M  V30 8763 O 820.537 -0.629915 -1.68618 0
M  V30 8764 H 816.912 -0.498408 -0.56311 0
M  V30 8765 H 818.883 -2.5341 -1.57563 0
M  V30 8766 C 817.632 -1.60104 -3.08645 0
M  V30 8767 H 816.955 -2.4655 -3.14727 0
M  V30 8768 H 818.395 -1.72318 -3.87405 0
M  V30 8769 C 816.854 -0.33138 -3.35266 0
M  V30 8770 O 817.384 0.57438 -3.97572 0
M  V30 8771 N 815.59 -0.216358 -2.89793 0
M  V30 8772 H 815.137 -0.954345 -2.3927 0
M  V30 8773 H 815.095 0.632253 -3.07977 0
M  V30 8774 N 818.867 0.818669 -1.34668 0
M  V30 8775 C 819.797 1.94468 -1.29245 0
M  V30 8776 C 820.778 1.69257 -0.169101 0
M  V30 8777 O 821.963 1.90794 -0.362143 0
M  V30 8778 C 819.093 3.31001 -1.05145 0
M  V30 8779 C 818.047 3.70663 -2.13992 0
M  V30 8780 C 817.373 5.05226 -1.75074 0
M  V30 8781 C 818.673 3.82312 -3.55858 0
M  V30 8782 H 820.367 1.99263 -2.2346 0
M  V30 8783 H 817.913 0.957304 -1.07572 0
M  V30 8784 H 819.866 4.09364 -0.999949 0
M  V30 8785 H 818.59 3.26517 -0.0737312 0
M  V30 8786 H 817.249 2.94578 -2.18219 0
M  V30 8787 H 816.897 4.97233 -0.759518 0
M  V30 8788 H 816.597 5.32734 -2.47928 0
M  V30 8789 H 818.121 5.86042 -1.71427 0
M  V30 8790 H 819.535 4.50935 -3.5402 0
M  V30 8791 H 817.932 4.21278 -4.2737 0
M  V30 8792 H 819.002 2.84193 -3.9289 0
M  V30 8793 N 820.346 1.18468 1.03938 0
M  V30 8794 C 821.256 0.927889 2.1547 0
M  V30 8795 C 822.272 -0.108447 1.73662 0
M  V30 8796 O 823.448 0.0737636 2.01265 0
M  V30 8797 C 820.513 0.458494 3.43655 0
M  V30 8798 C 819.574 1.56295 3.99838 0
M  V30 8799 C 818.807 1.11586 5.21904 0
M  V30 8800 O 819.03 -0.0249057 5.70395 0
M  V30 8801 O 817.964 1.91412 5.70653 0
M  V30 8802 H 821.79 1.86116 2.39989 0
M  V30 8803 H 819.375 0.966607 1.13917 0
M  V30 8804 H 821.257 0.204861 4.20902 0
M  V30 8805 H 819.932 -0.446464 3.20606 0
M  V30 8806 H 818.839 1.87061 3.23974 0
M  V30 8807 H 820.172 2.44408 4.2723 0
M  V30 8808 N 821.824 -1.22873 0.986916 0
M  V30 8809 C 823.101 -1.86939 0.575589 0
M  V30 8810 C 823.481 -1.88656 -0.947205 0
M  V30 8811 O 822.829 -1.3728 -1.82665 0
M  V30 8812 C 823.039 -3.28117 1.18914 0
M  V30 8813 C 824.387 -4.04659 1.28593 0
M  V30 8814 O 825.411 -3.3736 1.14308 0
M  V30 8815 O 824.27 -5.25112 1.51391 0
M  V30 8816 H 821.364 -0.803748 0.194724 0
M  V30 8817 H 823.91 -1.30698 1.08241 0
M  V30 8818 H 822.682 -3.21468 2.231 0
M  V30 8819 H 822.305 -3.91956 0.667535 0
M  V30 8820 N 823.302 -0.75937 -1.38099 0
M  V30 8821 C 824.527 -0.327859 -2.04792 0
M  V30 8822 C 824.952 1.03752 -1.56899 0
M  V30 8823 O 824.31 1.66235 -0.723581 0
M  V30 8824 C 824.358 -0.366264 -3.58735 0
M  V30 8825 O 823.462 0.637697 -4.0744 0
M  V30 8826 H 822.803 -0.144092 -0.648177 0
M  V30 8827 H 825.333 -1.03211 -1.7666 0
M  V30 8828 H 825.343 -0.219179 -4.07411 0
M  V30 8829 H 824.018 -1.36243 -3.92951 0
M  V30 8830 H 822.595 0.454749 -3.70117 0
M  V30 8831 N 824.78 1.49157 -0.508906 0
M  V30 8832 C 826.01 2.06579 0.0293308 0
M  V30 8833 C 826.418 1.36852 1.30645 0
M  V30 8834 O 825.761 0.443079 1.78276 0
M  V30 8835 C 825.823 3.57838 0.345296 0
M  V30 8836 C 825.487 4.49302 -0.835256 0
M  V30 8837 C 826.484 4.90345 -1.72793 0
M  V30 8838 C 824.169 4.91494 -1.0363 0
M  V30 8839 C 826.163 5.72327 -2.80573 0
M  V30 8840 C 823.85 5.7325 -2.11726 0
M  V30 8841 C 824.848 6.13572 -3.00032 0
M  V30 8842 O 824.536 6.93691 -4.06261 0
M  V30 8843 H 824.268 0.675679 -0.0208193 0
M  V30 8844 H 826.822 1.9282 -0.707789 0
M  V30 8845 H 825.052 3.69634 1.13612 0
M  V30 8846 H 826.741 3.97467 0.823089 0
M  V30 8847 H 827.507 4.58388 -1.58446 0
M  V30 8848 H 823.386 4.59605 -0.358308 0
M  V30 8849 H 826.93 6.03719 -3.49527 0
M  V30 8850 H 822.827 6.0462 -2.26065 0
M  V30 8851 H 823.595 7.12011 -4.03711 0
M  V30 8852 N 826.258 0.243083 1.55714 0
M  V30 8853 C 827.486 -0.386971 2.03249 0
M  V30 8854 C 827.901 -1.51812 1.12243 0
M  V30 8855 O 827.258 -1.81992 0.136119 0
M  V30 8856 C 827.309 -0.898361 3.5016 0
M  V30 8857 O 827.03 0.187708 4.37698 0
M  V30 8858 C 828.531 -1.59949 4.13438 0
M  V30 8859 H 825.751 -0.0923981 0.664608 0
M  V30 8860 H 828.295 0.365832 2.01201 0
M  V30 8861 H 826.45 -1.60136 3.52754 0
M  V30 8862 H 826.864 -0.200001 5.24119 0
M  V30 8863 H 828.338 -1.90907 5.17937 0
M  V30 8864 H 828.815 -2.52014 3.59702 0
M  V30 8865 H 829.421 -0.941163 4.14756 0
M  V30 8866 N 827.736 -1.57571 -0.0300757 0
M  V30 8867 C 828.684 -2.0758 -1.04944 0
M  V30 8868 C 829.678 -0.989384 -1.37505 0
M  V30 8869 O 830.884 -1.17427 -1.36422 0
M  V30 8870 H 827.259 -0.662419 -0.355956 0
M  V30 8871 H 829.23 -2.92268 -0.601848 0
M  V30 8872 C 827.979 -2.5698 -2.34215 0
M  V30 8873 H 827.302 -3.40193 -2.10021 0
M  V30 8874 H 828.742 -2.95682 -3.03888 0
M  V30 8875 C 827.201 -1.47059 -3.03109 0
M  V30 8876 O 827.731 -0.83625 -3.92899 0
M  V30 8877 N 825.937 -1.20538 -2.64422 0
M  V30 8878 H 825.484 -1.72305 -1.9149 0
M  V30 8879 H 825.442 -0.472045 -3.10836 0
M  V30 8880 N 829.214 0.302327 -1.54673 0
M  V30 8881 C 830.46 1.03532 -1.75079 0
M  V30 8882 C 830.815 1.84972 -0.52943 0
M  V30 8883 O 830.108 1.85537 0.478169 0
M  V30 8884 C 830.302 1.97365 -2.97963 0
M  V30 8885 C 830.131 1.25154 -4.31934 0
M  V30 8886 C 828.901 0.979243 -4.95721 0
M  V30 8887 C 831.099 0.656653 -5.10091 0
M  V30 8888 N 829.081 0.227265 -6.13479 0
M  V30 8889 C 830.452 0.0373759 -6.19989 0
M  V30 8890 C 832.507 0.561571 -4.94723 0
M  V30 8891 C 831.21 -0.667782 -7.16194 0
M  V30 8892 C 833.236 -0.12993 -5.91257 0
M  V30 8893 C 832.598 -0.738063 -7.00523 0
M  V30 8894 H 828.697 0.361824 -0.693258 0
M  V30 8895 H 831.281 0.314091 -1.9215 0
M  V30 8896 H 829.452 2.66739 -2.8232 0
M  V30 8897 H 831.184 2.63806 -3.06902 0
M  V30 8898 H 827.939 1.27706 -4.56057 0
M  V30 8899 H 828.363 -0.135199 -6.76865 0
M  V30 8900 H 833.005 1.01744 -4.10375 0
M  V30 8901 H 830.723 -1.13542 -8.00084 0
M  V30 8902 H 834.309 -0.203423 -5.81444 0
M  V30 8903 H 833.189 -1.26463 -7.73936 0
M  V30 8904 N 830.692 1.47107 0.565454 0
M  V30 8905 C 831.941 1.5257 1.31929 0
M  V30 8906 C 832.254 0.189092 1.94684 0
M  V30 8907 O 833.46 0.121657 2.71227 0
M  V30 8908 C 831.916 2.68914 2.39193 0
M  V30 8909 C 831.524 4.09069 1.82665 0
M  V30 8910 C 833.268 2.83663 3.1581 0
M  V30 8911 C 831.175 5.16726 2.87661 0
M  V30 8912 H 830.105 0.567869 0.496025 0
M  V30 8913 H 832.756 1.73361 0.60151 0
M  V30 8914 H 831.138 2.41486 3.13848 0
M  V30 8915 H 832.312 4.46364 1.14438 0
M  V30 8916 H 830.627 3.99135 1.1866 0
M  V30 8917 H 833.224 3.61261 3.94201 0
M  V30 8918 H 833.567 1.91804 3.69482 0
M  V30 8919 H 834.1 3.10821 2.48265 0
M  V30 8920 H 830.839 6.10433 2.38854 0
M  V30 8921 H 830.359 4.83957 3.54324 0
M  V30 8922 H 832.038 5.43319 3.51303 0
M  V30 8923 N 832.17 -0.811516 1.35101 0
M  V30 8924 C 833.581 -1.38515 1.25182 0
M  V30 8925 C 833.932 -1.95846 -0.117883 0
M  V30 8926 O 833.057 -1.90925 -1.01866 0
M  V30 8927 C 833.652 -2.51813 2.26662 0
M  V30 8928 C 832.211 -3.05052 2.20499 0
M  V30 8929 C 831.358 -1.77987 2.12641 0
M  V30 8930 H 834.309 -0.614959 1.46301 0
M  V30 8931 H 834.33 -3.30228 1.89023 0
M  V30 8932 H 833.842 -2.10057 3.2634 0
M  V30 8933 H 831.943 -3.51285 1.24215 0
M  V30 8934 H 832.056 -3.63368 3.1225 0
M  V30 8935 H 830.42 -1.99342 1.5854 0
M  V30 8936 H 831.203 -1.38389 3.14171 0
M  V30 8937 N 833.648 -1.19017 -1.03309 0
M  V30 8938 C 834.611 -0.926076 -2.09658 0
M  V30 8939 C 835.611 0.0917077 -1.60538 0
M  V30 8940 O 836.801 -0.142574 -1.73616 0
M  V30 8941 C 833.933 -0.390958 -3.38651 0
M  V30 8942 H 835.126 -1.86923 -2.3452 0
M  V30 8943 H 832.679 -1.00325 -1.19853 0
M  V30 8944 H 833.414 0.558446 -3.19456 0
M  V30 8945 H 833.199 -1.12474 -3.75622 0
M  V30 8946 H 834.689 -0.225131 -4.16993 0
M  V30 8947 N 835.127 1.22348 -0.993418 0
M  V30 8948 C 836.09 2.22522 -0.549251 0
M  V30 8949 C 837.09 1.56529 0.368164 0
M  V30 8950 O 838.28 1.73463 0.16005 0
M  V30 8951 C 835.412 3.40307 0.201037 0
M  V30 8952 H 836.605 2.63332 -1.43515 0
M  V30 8953 H 834.158 1.35407 -0.78068 0
M  V30 8954 H 834.893 3.0497 1.10289 0
M  V30 8955 H 834.678 3.8942 -0.457685 0
M  V30 8956 H 836.168 4.14597 0.499946 0
M  V30 8957 N 836.605 0.766683 1.37694 0
M  V30 8958 C 837.854 0.325425 1.99057 0
M  V30 8959 C 838.167 -1.10275 1.61551 0
M  V30 8960 O 839.373 -1.64513 2.1598 0
M  V30 8961 C 837.829 0.530886 3.55963 0
M  V30 8962 C 837.437 1.96899 4.02411 0
M  V30 8963 C 839.181 0.152997 4.24224 0
M  V30 8964 C 837.088 2.12232 5.52007 0
M  V30 8965 H 836.018 0.117929 0.744721 0
M  V30 8966 H 838.669 0.945091 1.5729 0
M  V30 8967 H 837.051 -0.158162 3.95684 0
M  V30 8968 H 838.225 2.69258 3.73948 0
M  V30 8969 H 836.54 2.303 3.46916 0
M  V30 8970 H 839.137 0.24614 5.34133 0
M  V30 8971 H 839.48 -0.896096 4.06541 0
M  V30 8972 H 840.013 0.794398 3.89787 0
M  V30 8973 H 836.752 3.15442 5.7461 0
M  V30 8974 H 836.272 1.4435 5.82171 0
M  V30 8975 H 837.951 1.9185 6.17902 0
M  V30 8976 N 838.083 -1.48885 0.516809 0
M  V30 8977 C 839.494 -1.86557 0.0729921 0
M  V30 8978 C 839.845 -1.42767 -1.34581 0
M  V30 8979 O 838.97 -0.812514 -2.00567 0
M  V30 8980 C 839.565 -3.38567 0.125686 0
M  V30 8981 C 838.124 -3.75481 -0.262867 0
M  V30 8982 C 837.271 -2.72913 0.491281 0
M  V30 8983 H 840.222 -1.40978 0.728767 0
M  V30 8984 H 840.243 -3.74629 -0.665831 0
M  V30 8985 H 839.755 -3.70408 1.15842 0
M  V30 8986 H 837.856 -3.49251 -1.29824 0
M  V30 8987 H 837.969 -4.79052 0.067579 0
M  V30 8988 H 836.333 -2.54627 -0.0608525 0
M  V30 8989 H 837.116 -3.07599 1.5244 0
M  V30 8990 N 839.561 -0.251338 -1.55583 0
M  V30 8991 C 840.808 0.372169 -1.99051 0
M  V30 8992 C 841.136 1.57623 -1.13953 0
M  V30 8993 O 840.391 1.94762 -0.191398 0
M  V30 8994 C 840.69 0.821186 -3.47838 0
M  V30 8995 C 840.356 -0.275608 -4.50057 0
M  V30 8996 C 839.018 -0.57683 -4.7773 0
M  V30 8997 C 841.37 -1.01585 -5.11204 0
M  V30 8998 C 838.698 -1.62229 -5.63825 0
M  V30 8999 C 841.05 -2.05087 -5.98433 0
M  V30 9000 C 839.714 -2.35869 -6.24437 0
M  V30 9001 H 838.984 0.136186 -0.728378 0
M  V30 9002 H 841.631 -0.360089 -1.88084 0
M  V30 9003 H 839.936 1.63272 -3.56159 0
M  V30 9004 H 841.633 1.31396 -3.78861 0
M  V30 9005 H 838.223 -0.030697 -4.28589 0
M  V30 9006 H 842.407 -0.79639 -4.89869 0
M  V30 9007 H 837.663 -1.86607 -5.82226 0
M  V30 9008 H 841.837 -2.62934 -6.44855 0
M  V30 9009 H 839.464 -3.17017 -6.90944 0
M  V30 9010 N 841.039 1.57585 0.0217189 0
M  V30 9011 C 841.969 2.10073 1.01939 0
M  V30 9012 C 842.95 1.0049 1.37243 0
M  V30 9013 O 844.135 1.28055 1.45999 0
M  V30 9014 C 841.265 2.58618 2.31806 0
M  V30 9015 C 840.219 3.72531 2.10724 0
M  V30 9016 C 839.545 4.07309 3.46415 0
M  V30 9017 C 840.845 5.00672 1.48743 0
M  V30 9018 H 842.539 2.9368 0.582432 0
M  V30 9019 H 840.085 1.41277 0.278715 0
M  V30 9020 H 842.038 2.9396 3.01936 0
M  V30 9021 H 840.762 1.72104 2.77575 0
M  V30 9022 H 839.421 3.37549 1.43025 0
M  V30 9023 H 839.069 3.17851 3.89846 0
M  V30 9024 H 838.769 4.84042 3.33132 0
M  V30 9025 H 840.293 4.45192 4.17895 0
M  V30 9026 H 841.707 5.33925 2.088 0
M  V30 9027 H 840.104 5.82065 1.46013 0
M  V30 9028 H 841.174 4.82769 0.45408 0
M  V30 9029 N 842.517 -0.29412 1.54831 0
M  V30 9030 C 843.933 -0.640167 1.46199 0
M  V30 9031 C 844.133 -1.90426 0.658798 0
M  V30 9032 O 843.189 -2.51932 0.169228 0
M  V30 9033 C 844.502 -0.786763 2.90225 0
M  V30 9034 C 846.05 -0.882201 3.0031 0
M  V30 9035 C 846.525 -1.06074 4.45547 0
M  V30 9036 N 848.016 -1.12678 4.49286 0
M  V30 9037 C 848.751 -1.28334 5.58854 0
M  V30 9038 N 848.247 -1.40845 6.78332 0
M  V30 9039 N 850.04 -1.31277 5.46555 0
M  V30 9040 H 842.191 0.536334 2.05517 0
M  V30 9041 H 844.454 0.178363 0.93107 0
M  V30 9042 H 844.16 0.0713018 3.51628 0
M  V30 9043 H 844.034 -1.67364 3.38037 0
M  V30 9044 H 846.421 -1.73075 2.39017 0
M  V30 9045 H 846.502 0.0288405 2.55784 0
M  V30 9046 H 846.146 -0.216935 5.07437 0
M  V30 9047 H 846.076 -1.98611 4.8771 0
M  V30 9048 H 848.567 -1.04335 3.63212 0
M  V30 9049 H 848.88 -1.52566 7.57591 0
M  V30 9050 H 847.225 -1.37888 6.81184 0
M  V30 9051 H 850.416 -1.2112 4.52159 0
M  V30 9052 H 850.589 -1.43136 6.31994 0
M  V30 9053 N 843.995 -1.47404 -0.557645 0
M  V30 9054 C 845.244 -1.53268 -1.31118 0
M  V30 9055 C 845.557 -0.199414 -1.94581 0
M  V30 9056 O 846.763 -0.136039 -2.71159 0
M  V30 9057 C 845.219 -2.70178 -2.37764 0
M  V30 9058 C 844.827 -4.10032 -1.80493 0
M  V30 9059 C 846.571 -2.85334 -3.14301 0
M  V30 9060 C 844.478 -5.18244 -2.84916 0
M  V30 9061 H 843.408 -0.570491 -0.493007 0
M  V30 9062 H 846.059 -1.73678 -0.592308 0
M  V30 9063 H 844.441 -2.43147 -3.12563 0
M  V30 9064 H 845.615 -4.46964 -1.12069 0
M  V30 9065 H 843.93 -3.99759 -1.16542 0
M  V30 9066 H 846.527 -3.63347 -3.92279 0
M  V30 9067 H 846.87 -1.93761 -3.68459 0
M  V30 9068 H 847.403 -3.12133 -2.46613 0
M  V30 9069 H 844.142 -6.11691 -2.35614 0
M  V30 9070 H 843.662 -4.85829 -3.51753 0
M  V30 9071 H 845.341 -5.45174 -3.48417 0
M  V30 9072 N 845.473 0.80434 -1.35529 0
M  V30 9073 C 846.406 1.92222 -1.22987 0
M  V30 9074 C 847.384 1.62177 -0.117269 0
M  V30 9075 O 848.568 1.86321 -0.285761 0
M  V30 9076 C 845.695 3.26682 -0.894223 0
M  V30 9077 C 844.741 3.75674 -2.01919 0
M  V30 9078 S 845.574 3.93209 -3.6352 0
M  V30 9079 C 846.73 5.30568 -3.32037 0
M  V30 9080 H 846.963 2.02567 -2.1761 0
M  V30 9081 H 844.496 0.961961 -1.20771 0
M  V30 9082 H 846.454 4.04359 -0.707371 0
M  V30 9083 H 845.115 3.14082 0.0339729 0
M  V30 9084 H 844.308 4.73065 -1.73854 0
M  V30 9085 H 843.91 3.05001 -2.16449 0
M  V30 9086 H 846.202 6.14637 -2.85004 0
M  V30 9087 H 847.145 5.63628 -4.28636 0
M  V30 9088 H 847.553 4.96961 -2.6775 0
M  V30 9089 N 846.951 1.19563 1.02676 0
M  V30 9090 C 847.901 0.903055 2.09354 0
M  V30 9091 C 848.885 -0.133009 1.60349 0
M  V30 9092 O 850.077 0.0729744 1.7685 0
M  V30 9093 C 847.206 0.445852 3.40392 0
M  V30 9094 C 846.292 1.51477 3.96126 0
M  V30 9095 N 846.683 2.73474 4.25495 0
M  V30 9096 C 844.981 1.37856 4.2416 0
M  V30 9097 C 845.682 3.42348 4.7029 0
M  V30 9098 N 844.658 2.69746 4.71952 0
M  V30 9099 H 848.46 1.83023 2.29956 0
M  V30 9100 H 845.974 1.08812 1.20556 0
M  V30 9101 H 847.971 0.21769 4.16331 0
M  V30 9102 H 846.631 -0.47482 3.2121 0
M  V30 9103 H 847.642 3.10217 4.14711 0
M  V30 9104 H 844.319 0.521512 4.1423 0
M  V30 9105 H 845.709 4.46686 5.01917 0
M  V30 9106 N 848.429 -1.21819 0.999893 0
M  V30 9107 C 849.675 -1.91035 0.680701 0
M  V30 9108 C 850.008 -1.77582 -0.786021 0
M  V30 9109 O 849.283 -1.14917 -1.56921 0
M  V30 9110 C 849.566 -3.43013 1.0961 0
M  V30 9111 C 849.419 -3.65481 2.6219 0
M  V30 9112 C 850.738 -4.35204 0.654616 0
M  V30 9113 H 847.857 -0.693748 0.248763 0
M  V30 9114 H 850.499 -1.43555 1.24466 0
M  V30 9115 H 848.649 -3.83581 0.616253 0
M  V30 9116 H 850.321 -3.34273 3.17899 0
M  V30 9117 H 848.564 -3.09522 3.03938 0
M  V30 9118 H 849.235 -4.71945 2.86307 0
M  V30 9119 H 851.711 -4.0219 1.06688 0
M  V30 9120 H 850.587 -5.40198 0.973492 0
M  V30 9121 H 850.848 -4.3986 -0.444458 0
M  V30 9122 N 849.908 -0.773975 -1.37286 0
M  V30 9123 C 851.157 -0.335977 -1.98882 0
M  V30 9124 C 851.47 1.09416 -1.62134 0
M  V30 9125 O 852.676 1.63366 -2.1685 0
M  V30 9126 C 851.132 -0.549756 -3.55676 0
M  V30 9127 C 850.74 -1.9903 -4.01361 0
M  V30 9128 C 852.484 -0.175493 -4.24137 0
M  V30 9129 C 850.391 -2.15156 -5.50874 0
M  V30 9130 H 849.321 -0.121877 -0.744085 0
M  V30 9131 H 851.972 -0.953419 -1.56787 0
M  V30 9132 H 850.354 0.137175 -3.95762 0
M  V30 9133 H 851.528 -2.71237 -3.72515 0
M  V30 9134 H 849.843 -2.32137 -3.4569 0
M  V30 9135 H 852.44 -0.274463 -5.33995 0
M  V30 9136 H 852.783 0.874524 -4.07011 0
M  V30 9137 H 853.316 -0.815058 -3.89361 0
M  V30 9138 H 850.055 -3.18485 -5.72929 0
M  V30 9139 H 849.575 -1.47435 -5.81397 0
M  V30 9140 H 851.254 -1.95124 -6.16876 0
M  V30 9141 N 851.386 1.48609 -0.524698 0
M  V30 9142 C 852.333 2.29539 0.240956 0
M  V30 9143 C 853.303 1.37033 0.938681 0
M  V30 9144 O 854.488 1.65996 0.940737 0
M  V30 9145 C 851.628 3.20278 1.28514 0
M  V30 9146 C 850.741 4.27858 0.596798 0
M  V30 9147 C 849.876 5.05784 1.62346 0
M  V30 9148 C 848.915 6.05173 0.918287 0
M  V30 9149 N 848.052 6.76176 1.89025 0
M  V30 9150 H 852.892 2.945 -0.455368 0
M  V30 9151 H 850.429 1.45188 -0.236403 0
M  V30 9152 H 852.387 3.71281 1.90279 0
M  V30 9153 H 851.017 2.57251 1.94992 0
M  V30 9154 H 850.069 3.80162 -0.134668 0
M  V30 9155 H 851.381 4.98782 0.0428506 0
M  V30 9156 H 850.535 5.60775 2.31553 0
M  V30 9157 H 849.274 4.34687 2.2113 0
M  V30 9158 H 848.279 5.49391 0.21212 0
M  V30 9159 H 849.504 6.78265 0.336633 0
M  V30 9160 H 847.45 6.07834 2.46726 0
M  V30 9161 H 847.367 7.43157 1.3876 0
M  V30 9162 H 848.635 7.35759 2.57446 0
M  V30 9163 N 852.864 0.259585 1.55447 0
M  V30 9164 C 854.141 -0.412595 1.91199 0
M  V30 9165 C 854.521 -1.74909 1.18194 0
M  V30 9166 O 853.869 -2.26474 0.303603 0
M  V30 9167 C 854.079 -0.568195 3.44344 0
M  V30 9168 C 855.427 -0.858253 4.15836 0
M  V30 9169 O 856.451 -0.653588 3.50152 0
M  V30 9170 O 855.31 -1.24874 5.32042 0
M  V30 9171 H 852.404 -0.223403 0.796254 0
M  V30 9172 H 854.95 0.30459 1.66944 0
M  V30 9173 H 853.722 0.372989 3.89518 0
M  V30 9174 H 853.345 -1.33544 3.74502 0
M  V30 9175 N 854.342 -1.57594 -0.0133615 0
M  V30 9176 C 855.29 -2.08682 -1.02736 0
M  V30 9177 C 856.284 -1.00391 -1.36448 0
M  V30 9178 O 857.49 -1.18868 -1.35168 0
M  V30 9179 H 853.865 -0.666158 -0.34891 0
M  V30 9180 H 855.836 -2.9289 -0.570815 0
M  V30 9181 C 854.585 -2.5945 -2.31476 0
M  V30 9182 H 853.908 -3.42401 -2.06401 0
M  V30 9183 H 855.348 -2.98888 -3.00735 0
M  V30 9184 C 853.807 -1.50266 -3.01533 0
M  V30 9185 O 854.337 -0.877875 -3.9199 0
M  V30 9186 N 852.543 -1.23336 -2.63129 0
M  V30 9187 H 852.09 -1.74327 -1.89652 0
M  V30 9188 H 852.048 -0.504987 -3.10318 0
M  V30 9189 N 855.82 0.285905 -1.54985 0
M  V30 9190 C 857.048 1.03776 -1.78992 0
M  V30 9191 C 857.463 1.80402 -0.556814 0
M  V30 9192 O 856.82 1.76242 0.473801 0
M  V30 9193 C 856.871 2.0065 -3.00702 0
M  V30 9194 O 856.592 1.27131 -4.19249 0
M  V30 9195 C 858.093 2.87753 -3.37214 0
M  V30 9196 H 855.313 0.307126 -0.596586 0
M  V30 9197 H 857.857 0.3206 -2.01971 0
M  V30 9198 H 856.012 2.67847 -2.79887 0
M  V30 9199 H 856.426 1.92316 -4.8797 0
M  V30 9200 H 857.9 3.51548 -4.2558 0
M  V30 9201 H 858.377 3.56848 -2.56039 0
M  V30 9202 H 858.983 2.26065 -3.60242 0
M  V30 9203 N 857.298 1.47698 0.54982 0
M  V30 9204 C 858.546 1.54397 1.30407 0
M  V30 9205 C 858.867 0.211026 1.93855 0
M  V30 9206 O 858.137 -0.765701 1.80316 0
M  V30 9207 H 856.717 0.568747 0.484289 0
M  V30 9208 H 859.379 1.84042 0.641444 0
M  V30 9209 H 858.475 2.31449 2.09375 0
M  V30 9210 N 858.776 -0.797141 1.35954 0
M  V30 9211 C 859.724 -1.93084 1.29697 0
M  V30 9212 C 860.718 -1.68329 0.190152 0
M  V30 9213 O 861.924 -1.7643 0.3567 0
M  V30 9214 H 858.299 -0.634531 0.403577 0
M  V30 9215 H 860.27 -1.95481 2.25455 0
M  V30 9216 C 859.019 -3.29996 1.09536 0
M  V30 9217 H 858.342 -3.49607 1.93946 0
M  V30 9218 H 859.782 -4.09696 1.09202 0
M  V30 9219 C 858.241 -3.36304 -0.200381 0
M  V30 9220 O 858.771 -3.83579 -1.19291 0
M  V30 9221 N 856.977 -2.89587 -0.242406 0
M  V30 9222 H 856.524 -2.51307 0.565897 0
M  V30 9223 H 856.482 -2.94189 -1.10906 0
M  V30 9224 N 860.254 -1.20106 -1.0204 0
M  V30 9225 C 861.164 -0.962051 -2.13967 0
M  V30 9226 C 862.18 0.0808053 -1.73812 0
M  V30 9227 O 863.356 -0.105774 -2.01122 0
M  V30 9228 C 860.421 -0.513108 -3.42882 0
M  V30 9229 C 859.482 -1.62636 -3.97301 0
M  V30 9230 C 858.715 -1.19875 -5.20063 0
M  V30 9231 O 858.938 -0.0658423 -5.70362 0
M  V30 9232 O 857.872 -2.00467 -5.67536 0
M  V30 9233 H 861.698 -1.8991 -2.36998 0
M  V30 9234 H 859.283 -0.984608 -1.12365 0
M  V30 9235 H 861.165 -0.271797 -4.20523 0
M  V30 9236 H 859.84 0.395402 -3.21276 0
M  V30 9237 H 858.747 -1.92192 -3.20957 0
M  V30 9238 H 860.08 -2.51174 -4.23288 0
M  V30 9239 N 861.732 1.21287 -1.00634 0
M  V30 9240 C 862.979 1.90389 -0.6898 0
M  V30 9241 C 863.307 1.78193 0.779574 0
M  V30 9242 O 862.562 1.15358 1.58085 0
M  V30 9243 C 862.861 3.41374 -1.05824 0
M  V30 9244 C 862.527 3.73766 -2.5221 0
M  V30 9245 C 861.189 3.82317 -2.92211 0
M  V30 9246 C 863.541 3.88871 -3.47028 0
M  V30 9247 C 860.869 4.03423 -4.2599 0
M  V30 9248 C 863.221 4.11484 -4.80483 0
M  V30 9249 C 861.885 4.18263 -5.20204 0
M  V30 9250 H 861.155 0.696683 -0.252416 0
M  V30 9251 H 863.802 1.43769 -1.26502 0
M  V30 9252 H 862.107 3.8974 -0.401281 0
M  V30 9253 H 863.804 3.93118 -0.79116 0
M  V30 9254 H 860.394 3.67702 -2.20212 0
M  V30 9255 H 864.578 3.8163 -3.17289 0
M  V30 9256 H 859.834 4.06902 -4.56334 0
M  V30 9257 H 864.008 4.22115 -5.53888 0
M  V30 9258 H 861.635 4.34369 -6.23881 0
M  V30 9259 N 863.21 0.781244 1.36873 0
M  V30 9260 C 864.621 0.414093 1.8205 0
M  V30 9261 C 864.972 -1.06098 1.65039 0
M  V30 9262 O 864.097 -1.82251 1.16677 0
M  V30 9263 C 864.692 0.744837 3.30511 0
M  V30 9264 C 863.251 0.430621 3.73929 0
M  V30 9265 C 862.398 0.983746 2.59264 0
M  V30 9266 H 865.349 0.975091 1.2521 0
M  V30 9267 H 865.37 0.032936 3.80486 0
M  V30 9268 H 864.882 1.81847 3.42861 0
M  V30 9269 H 862.983 -0.635308 3.67144 0
M  V30 9270 H 863.096 0.945514 4.69677 0
M  V30 9271 H 861.46 0.407433 2.5142 0
M  V30 9272 H 862.243 2.06297 2.74402 0
M  V30 9273 N 864.689 -1.48329 0.532571 0
M  V30 9274 C 865.652 -2.2816 -0.218069 0
M  V30 9275 C 866.652 -1.35526 -0.865409 0
M  V30 9276 O 867.842 -1.58394 -0.725061 0
M  V30 9277 C 864.974 -3.1448 -1.31586 0
M  V30 9278 H 866.167 -2.95987 0.482865 0
M  V30 9279 H 863.72 -1.53612 0.288603 0
M  V30 9280 H 864.455 -2.5129 -2.04997 0
M  V30 9281 H 864.24 -3.82625 -0.856779 0
M  V30 9282 H 865.73 -3.74693 -1.84377 0
M  V30 9283 N 866.167 -0.267825 -1.55308 0
M  V30 9284 C 867.413 0.351556 -1.9973 0
M  V30 9285 C 867.746 1.56049 -1.15596 0
M  V30 9286 O 867.021 1.93203 -0.224274 0
M  V30 9287 C 867.304 0.74091 -3.52395 0
M  V30 9288 C 867.157 -0.474861 -4.47286 0
M  V30 9289 C 868.476 1.5801 -4.10756 0
M  V30 9290 H 865.595 0.126308 -0.726096 0
M  V30 9291 H 868.237 -0.373316 -1.86296 0
M  V30 9292 H 866.387 1.35851 -3.63973 0
M  V30 9293 H 868.059 -1.1134 -4.47662 0
M  V30 9294 H 866.302 -1.11425 -4.19246 0
M  V30 9295 H 866.973 -0.158782 -5.51772 0
M  V30 9296 H 869.449 1.05857 -4.0241 0
M  V30 9297 H 868.325 1.82135 -5.17801 0
M  V30 9298 H 868.586 2.55878 -3.60526 0
M  V30 9299 N 867.645 1.57599 0.00500368 0
M  V30 9300 C 868.592 2.08106 0.998025 0
M  V30 9301 C 869.562 0.975374 1.34446 0
M  V30 9302 O 870.747 1.24749 1.44369 0
M  V30 9303 C 867.887 2.58496 2.28635 0
M  V30 9304 C 867 3.82947 1.99939 0
M  V30 9305 C 866.135 4.21857 3.22816 0
M  V30 9306 C 865.174 5.39159 2.89783 0
M  V30 9307 N 864.311 5.73386 4.05183 0
M  V30 9308 H 869.151 2.92684 0.560385 0
M  V30 9309 H 866.688 1.44692 0.265053 0
M  V30 9310 H 868.646 2.85787 3.03943 0
M  V30 9311 H 867.276 1.768 2.70077 0
M  V30 9312 H 866.328 3.62594 1.1502 0
M  V30 9313 H 867.64 4.68358 1.71588 0
M  V30 9314 H 866.794 4.50404 4.06474 0
M  V30 9315 H 865.533 3.35145 3.54301 0
M  V30 9316 H 864.538 5.1034 2.04532 0
M  V30 9317 H 865.763 6.27543 2.59551 0
M  V30 9318 H 863.709 4.89632 4.36574 0
M  V30 9319 H 863.626 6.53359 3.80339 0
M  V30 9320 H 864.894 6.06522 4.89644 0
M  V30 9321 N 869.123 -0.277682 1.55134 0
M  V30 9322 C 870.539 -0.624625 1.46869 0
M  V30 9323 C 870.739 -1.89717 0.678958 0
M  V30 9324 O 869.795 -2.51739 0.195939 0
M  V30 9325 C 871.108 -0.755937 2.91043 0
M  V30 9326 C 872.656 -0.850299 3.01229 0
M  V30 9327 C 873.131 -1.01343 4.46647 0
M  V30 9328 N 874.622 -1.07906 4.50456 0
M  V30 9329 C 875.357 -1.224 5.60184 0
M  V30 9330 N 874.853 -1.33642 6.79788 0
M  V30 9331 N 876.646 -1.25473 5.47917 0
M  V30 9332 H 868.797 0.558102 2.04937 0
M  V30 9333 H 871.06 0.188228 0.929125 0
M  V30 9334 H 870.766 0.108593 3.51532 0
M  V30 9335 H 870.64 -1.6377 3.39793 0
M  V30 9336 H 873.027 -1.7053 2.40839 0
M  V30 9337 H 873.108 0.0559681 2.55739 0
M  V30 9338 H 872.752 -0.163102 5.07638 0
M  V30 9339 H 872.682 -1.93427 4.89789 0
M  V30 9340 H 875.173 -1.00477 3.64298 0
M  V30 9341 H 875.486 -1.44522 7.59166 0
M  V30 9342 H 873.831 -1.30655 6.82608 0
M  V30 9343 H 877.022 -1.16317 4.53418 0
M  V30 9344 H 877.195 -1.36424 6.33476 0
M  V30 9345 N 870.601 -1.47988 -0.541979 0
M  V30 9346 C 871.831 -1.58804 -1.32155 0
M  V30 9347 C 872.239 -0.242893 -1.87634 0
M  V30 9348 O 871.582 0.776239 -1.66494 0
M  V30 9349 C 871.644 -2.56567 -2.51821 0
M  V30 9350 C 871.308 -4.01915 -2.17517 0
M  V30 9351 C 872.305 -4.89954 -1.73901 0
M  V30 9352 C 869.99 -4.47365 -2.28408 0
M  V30 9353 C 871.984 -6.21467 -1.41625 0
M  V30 9354 C 869.671 -5.78902 -1.95745 0
M  V30 9355 C 870.669 -6.65775 -1.52423 0
M  V30 9356 O 870.357 -7.94866 -1.20183 0
M  V30 9357 H 870.089 -0.538536 -0.408601 0
M  V30 9358 H 872.643 -1.94446 -0.661818 0
M  V30 9359 H 870.873 -2.16023 -3.20735 0
M  V30 9360 H 872.562 -2.57347 -3.13891 0
M  V30 9361 H 873.328 -4.56082 -1.64966 0
M  V30 9362 H 869.207 -3.79942 -2.61084 0
M  V30 9363 H 872.751 -6.8923 -1.07738 0
M  V30 9364 H 868.648 -6.12311 -2.04316 0
M  V30 9365 H 869.416 -8.07509 -1.33683 0
M  V30 9366 N 872.079 0.78992 -1.36375 0
M  V30 9367 C 873.009 1.91683 -1.33341 0
M  V30 9368 C 873.99 1.68861 -0.204965 0
M  V30 9369 O 875.175 1.89982 -0.402531 0
M  V30 9370 C 872.305 3.28696 -1.12143 0
M  V30 9371 C 871.259 3.66041 -2.21806 0
M  V30 9372 C 870.585 5.01399 -1.85751 0
M  V30 9373 C 871.885 3.74677 -3.63888 0
M  V30 9374 H 873.579 1.94478 -2.27637 0
M  V30 9375 H 871.125 0.934271 -1.09578 0
M  V30 9376 H 873.078 4.07151 -1.08656 0
M  V30 9377 H 871.802 3.26287 -0.142974 0
M  V30 9378 H 870.461 2.89883 -2.24418 0
M  V30 9379 H 870.109 4.9551 -0.864817 0
M  V30 9380 H 869.809 5.27355 -2.59173 0
M  V30 9381 H 871.333 5.82274 -1.83819 0
M  V30 9382 H 872.747 4.43324 -3.63506 0
M  V30 9383 H 871.144 4.12118 -4.3621 0
M  V30 9384 H 872.214 2.75795 -3.9883 0
M  V30 9385 N 873.557 1.20646 1.01402 0
M  V30 9386 C 874.803 1.0197 1.753 0
M  V30 9387 C 875.136 -0.446803 1.8899 0
M  V30 9388 O 874.411 -1.33169 1.41762 0
M  V30 9389 C 874.694 1.70693 3.17074 0
M  V30 9390 C 874.547 3.24805 3.11162 0
M  V30 9391 C 875.866 1.44212 4.15802 0
M  V30 9392 H 872.985 0.371844 0.636318 0
M  V30 9393 H 875.627 1.48696 1.18277 0
M  V30 9394 H 873.777 1.30968 3.65759 0
M  V30 9395 H 875.449 3.73841 2.70261 0
M  V30 9396 H 873.692 3.55576 2.48492 0
M  V30 9397 H 874.363 3.68049 4.11393 0
M  V30 9398 H 876.839 1.7868 3.75783 0
M  V30 9399 H 875.715 1.94825 5.13161 0
M  V30 9400 H 875.976 0.370252 4.40547 0
M  V30 9401 N 875.035 -1.20752 1.01276 0
M  V30 9402 C 876.312 -1.85676 0.615112 0
M  V30 9403 C 876.692 -1.90623 -0.906976 0
M  V30 9404 O 876.04 -1.41124 -1.79712 0
M  V30 9405 C 876.25 -3.2552 1.25847 0
M  V30 9406 C 877.598 -4.0184 1.37148 0
M  V30 9407 O 878.622 -3.3486 1.21438 0
M  V30 9408 O 877.481 -5.21783 1.62495 0
M  V30 9409 H 874.575 -0.799437 0.211729 0
M  V30 9410 H 877.121 -1.28372 1.10989 0
M  V30 9411 H 875.893 -3.16664 2.29869 0
M  V30 9412 H 875.516 -3.90452 0.750524 0
M  V30 9413 N 876.513 -0.788492 -1.36457 0
M  V30 9414 C 877.443 -0.200468 -2.32638 0
M  V30 9415 C 878.424 0.664031 -1.56603 0
M  V30 9416 O 879.609 0.598045 -1.84762 0
M  V30 9417 C 876.739 0.666274 -3.40849 0
M  V30 9418 C 875.693 -0.0982574 -4.27887 0
M  V30 9419 C 875.019 0.889018 -5.27258 0
M  V30 9420 C 876.319 -1.28692 -5.06197 0
M  V30 9421 H 878.013 -1.00399 -2.82065 0
M  V30 9422 H 875.559 -0.484237 -1.35614 0
M  V30 9423 H 877.512 1.08757 -4.07124 0
M  V30 9424 H 876.236 1.50249 -2.89987 0
M  V30 9425 H 874.895 -0.500525 -3.63167 0
M  V30 9426 H 874.543 1.72024 -4.7267 0
M  V30 9427 H 874.243 0.381909 -5.86358 0
M  V30 9428 H 875.767 1.30891 -5.96406 0
M  V30 9429 H 877.181 -0.941429 -5.65517 0
M  V30 9430 H 875.578 -1.72726 -5.74705 0
M  V30 9431 H 876.648 -2.08273 -4.37893 0
M  V30 9432 N 877.991 1.48044 -0.54043 0
M  V30 9433 C 878.939 2.31461 0.229862 0
M  V30 9434 C 879.933 1.41884 0.925495 0
M  V30 9435 O 881.139 1.58736 0.848689 0
M  V30 9436 H 877.514 0.746227 0.0929975 0
M  V30 9437 H 879.485 2.94297 -0.493118 0
M  V30 9438 C 878.234 3.24172 1.25729 0
M  V30 9439 H 877.557 3.93052 0.731426 0
M  V30 9440 H 878.997 3.85404 1.76747 0
M  V30 9441 C 877.456 2.4651 2.2964 0
M  V30 9442 O 877.986 2.19742 3.36268 0
M  V30 9443 N 876.192 2.07817 2.03127 0
M  V30 9444 H 875.739 2.29786 1.1643 0
M  V30 9445 H 875.697 1.56168 2.72872 0
M  V30 9446 N 879.47 0.276058 1.55163 0
M  V30 9447 C 880.695 -0.346648 2.04483 0
M  V30 9448 C 881.12 -1.48613 1.15308 0
M  V30 9449 O 880.478 -1.80663 0.151875 0
M  V30 9450 C 880.526 -0.804268 3.51517 0
M  V30 9451 O 879.63 -1.91143 3.65429 0
M  V30 9452 H 878.971 -0.0715251 0.660136 0
M  V30 9453 H 881.501 0.410631 2.00437 0
M  V30 9454 H 881.511 -1.09977 3.92898 0
M  V30 9455 H 880.186 0.0294123 4.1589 0
M  V30 9456 H 878.763 -1.61839 3.3595 0
M  V30 9457 N 880.948 -1.576 0.00335426 0
M  V30 9458 C 882.359 -1.7875 -0.539008 0
M  V30 9459 C 882.71 -0.911097 -1.73763 0
M  V30 9460 O 881.835 -0.114476 -2.16097 0
M  V30 9461 C 882.43 -3.24177 -0.984611 0
M  V30 9462 C 880.989 -3.46412 -1.47226 0
M  V30 9463 C 880.136 -2.74024 -0.425004 0
M  V30 9464 H 883.087 -1.57032 0.229511 0
M  V30 9465 H 883.108 -3.32474 -1.85044 0
M  V30 9466 H 882.62 -3.87938 -0.112035 0
M  V30 9467 H 880.721 -2.8787 -2.36562 0
M  V30 9468 H 880.834 -4.55098 -1.49741 0
M  V30 9469 H 879.198 -2.38741 -0.887394 0
M  V30 9470 H 879.981 -3.40486 0.438662 0
M  V30 9471 N 882.426 0.269451 -1.5528 0
M  V30 9472 C 883.356 1.33729 -1.91413 0
M  V30 9473 C 884.337 1.51348 -0.776391 0
M  V30 9474 O 885.522 1.64332 -1.03482 0
M  V30 9475 C 882.652 2.69618 -2.18914 0
M  V30 9476 C 881.606 2.66725 -3.34726 0
M  V30 9477 C 880.932 4.06199 -3.47716 0
M  V30 9478 C 882.232 2.25684 -4.71025 0
M  V30 9479 H 883.926 1.03736 -2.80854 0
M  V30 9480 H 881.472 0.497579 -1.3513 0
M  V30 9481 H 883.425 3.44436 -2.42779 0
M  V30 9482 H 882.149 3.01201 -1.26275 0
M  V30 9483 H 880.808 1.94365 -3.10834 0
M  V30 9484 H 880.456 4.3501 -2.52537 0
M  V30 9485 H 880.156 4.05157 -4.25583 0
M  V30 9486 H 881.68 4.8275 -3.73877 0
M  V30 9487 H 883.094 2.90225 -4.94411 0
M  V30 9488 H 881.491 2.35797 -5.51833 0
M  V30 9489 H 882.561 1.20819 -4.69607 0
M  V30 9490 N 883.904 1.48273 0.534124 0
M  V30 9491 C 885.151 1.56079 1.29017 0
M  V30 9492 C 885.479 0.232912 1.931 0
M  V30 9493 O 884.734 -0.77642 1.79639 0
M  V30 9494 C 885.033 2.64468 2.40398 0
M  V30 9495 C 884.699 4.07034 1.93995 0
M  V30 9496 C 883.361 4.45838 1.81058 0
M  V30 9497 C 885.713 4.96395 1.58877 0
M  V30 9498 C 883.041 5.71812 1.31331 0
M  V30 9499 C 885.393 6.22854 1.10614 0
M  V30 9500 C 884.057 6.60518 0.962895 0
M  V30 9501 H 883.327 0.571135 0.472108 0
M  V30 9502 H 885.974 1.81973 0.5965 0
M  V30 9503 H 884.279 2.32419 3.15418 0
M  V30 9504 H 885.976 2.67725 2.98537 0
M  V30 9505 H 882.566 3.76387 2.05015 0
M  V30 9506 H 886.75 4.67096 1.67734 0
M  V30 9507 H 882.006 5.99722 1.18924 0
M  V30 9508 H 886.18 6.91495 0.825095 0
M  V30 9509 H 883.807 7.58019 0.575369 0
M  V30 9510 N 885.382 -0.782676 1.36792 0
M  V30 9511 C 886.33 -1.91698 1.31737 0
M  V30 9512 C 887.324 -1.68118 0.207994 0
M  V30 9513 O 888.53 -1.76042 0.375393 0
M  V30 9514 H 884.905 -0.630215 0.410284 0
M  V30 9515 H 886.876 -1.93078 2.27516 0
M  V30 9516 C 885.625 -3.28816 1.13029 0
M  V30 9517 H 884.948 -3.4753 1.97643 0
M  V30 9518 H 886.388 -4.08515 1.13541 0
M  V30 9519 C 884.847 -3.36497 -0.1647 0
M  V30 9520 O 885.377 -3.84822 -1.15216 0
M  V30 9521 N 883.583 -2.89828 -0.211678 0
M  V30 9522 H 883.13 -2.50693 0.59252 0
M  V30 9523 H 883.088 -2.95349 -1.07779 0
M  V30 9524 N 886.86 -1.21182 -1.00761 0
M  V30 9525 C 888.106 -1.02898 -1.74756 0
M  V30 9526 C 888.439 0.436774 -1.89225 0
M  V30 9527 O 887.714 1.32415 -1.42466 0
M  V30 9528 C 887.997 -1.72372 -3.16164 0
M  V30 9529 C 887.85 -3.2645 -3.09435 0
M  V30 9530 C 889.169 -1.46415 -4.15031 0
M  V30 9531 H 886.288 -0.375214 -0.634337 0
M  V30 9532 H 888.93 -1.49321 -1.17487 0
M  V30 9533 H 887.08 -1.32906 -3.65059 0
M  V30 9534 H 888.752 -3.75269 -2.68274 0
M  V30 9535 H 886.995 -3.56889 -2.46603 0
M  V30 9536 H 887.666 -3.70226 -4.09435 0
M  V30 9537 H 890.142 -1.80671 -3.7483 0
M  V30 9538 H 889.018 -1.97544 -5.12121 0
M  V30 9539 H 889.279 -0.39361 -4.40344 0
M  V30 9540 N 888.338 1.20213 -1.01915 0
M  V30 9541 C 889.268 2.25336 -0.612023 0
M  V30 9542 C 890.249 1.65933 0.374186 0
M  V30 9543 O 891.434 1.92464 0.259053 0
M  V30 9544 C 888.564 3.47267 0.047904 0
M  V30 9545 C 887.518 4.1928 -0.859557 0
M  V30 9546 C 886.844 5.3466 -0.0652655 0
M  V30 9547 C 888.144 4.75143 -2.1688 0
M  V30 9548 H 889.838 2.59645 -1.49079 0
M  V30 9549 H 887.384 1.24808 -0.718263 0
M  V30 9550 H 889.337 4.19991 0.344294 0
M  V30 9551 H 888.061 3.12129 0.961404 0
M  V30 9552 H 886.72 3.48425 -1.13999 0
M  V30 9553 H 886.368 4.95767 0.849964 0
M  V30 9554 H 886.068 5.83772 -0.669618 0
M  V30 9555 H 887.592 6.10187 0.224612 0
M  V30 9556 H 889.006 5.39672 -1.9346 0
M  V30 9557 H 887.403 5.34702 -2.72422 0
M  V30 9558 H 888.473 3.93744 -2.83008 0
M  V30 9559 N 889.816 0.795718 1.36037 0
M  V30 9560 C 890.763 0.196548 2.29962 0
M  V30 9561 C 891.733 -0.663213 1.52285 0
M  V30 9562 O 892.918 -0.610574 1.80767 0
M  V30 9563 C 890.058 -0.657639 3.38776 0
M  V30 9564 C 889.171 0.221358 4.31433 0
M  V30 9565 C 888.306 -0.6398 5.27333 0
M  V30 9566 C 887.345 0.240265 6.11628 0
M  V30 9567 N 886.482 -0.580237 6.99698 0
M  V30 9568 H 891.322 1.00295 2.80615 0
M  V30 9569 H 888.859 0.506147 1.38118 0
M  V30 9570 H 890.817 -1.16793 4.00519 0
M  V30 9571 H 889.447 -1.42941 2.89426 0
M  V30 9572 H 888.499 0.84967 3.70789 0
M  V30 9573 H 889.811 0.899195 4.90628 0
M  V30 9574 H 888.965 -1.21566 5.94396 0
M  V30 9575 H 887.704 -1.35124 4.68607 0
M  V30 9576 H 886.709 0.828474 5.43522 0
M  V30 9577 H 887.934 0.949403 6.72431 0
M  V30 9578 H 885.88 -1.27585 6.43473 0
M  V30 9579 H 885.797 0.0397853 7.5599 0
M  V30 9580 H 887.065 -1.13972 7.71123 0
M  V30 9581 N 891.294 -1.47756 0.548274 0
M  V30 9582 C 892.204 -2.33678 -0.207773 0
M  V30 9583 C 893.22 -1.47636 -0.920843 0
M  V30 9584 O 894.396 -1.80583 -0.89173 0
M  V30 9585 C 891.461 -3.24147 -1.23003 0
M  V30 9586 C 890.522 -4.26073 -0.52535 0
M  V30 9587 C 889.755 -5.12219 -1.4989 0
M  V30 9588 O 889.978 -5.0066 -2.73305 0
M  V30 9589 O 888.912 -5.93051 -1.02828 0
M  V30 9590 H 892.738 -2.99609 0.496794 0
M  V30 9591 H 890.323 -1.4617 0.308982 0
M  V30 9592 H 892.205 -3.80055 -1.82034 0
M  V30 9593 H 890.88 -2.60855 -1.91668 0
M  V30 9594 H 889.787 -3.7395 0.105927 0
M  V30 9595 H 891.12 -4.92054 0.119686 0
M  V30 9596 N 892.772 -0.284283 -1.55015 0
M  V30 9597 C 894.018 0.330352 -2.00091 0
M  V30 9598 C 894.351 1.54814 -1.17244 0
M  V30 9599 O 893.626 1.92954 -0.244753 0
M  V30 9600 C 893.909 0.703492 -3.53161 0
M  V30 9601 C 893.762 -0.522275 -4.46758 0
M  V30 9602 C 895.081 1.53645 -4.12409 0
M  V30 9603 H 892.2 0.118599 -0.727395 0
M  V30 9604 H 894.842 -0.393054 -1.8589 0
M  V30 9605 H 892.992 1.31983 -3.65394 0
M  V30 9606 H 894.664 -1.16082 -4.46456 0
M  V30 9607 H 892.907 -1.15865 -4.1804 0
M  V30 9608 H 893.578 -0.217295 -5.51572 0
M  V30 9609 H 896.054 1.01583 -4.0351 0
M  V30 9610 H 894.93 1.76633 -5.19704 0
M  V30 9611 H 895.191 2.5204 -3.63219 0
M  V30 9612 N 894.251 1.57596 -0.0117121 0
M  V30 9613 C 895.667 1.55837 0.344506 0
M  V30 9614 C 895.867 1.01557 1.74036 0
M  V30 9615 O 894.923 0.654563 2.43868 0
M  V30 9616 C 896.236 2.99973 0.209023 0
M  V30 9617 C 897.784 3.11717 0.283092 0
M  V30 9618 C 898.259 4.57659 0.176599 0
M  V30 9619 N 899.75 4.62608 0.234133 0
M  V30 9620 C 900.485 5.73132 0.175252 0
M  V30 9621 N 899.981 6.92768 0.0662888 0
M  V30 9622 N 901.774 5.61638 0.227972 0
M  V30 9623 H 893.925 1.91215 -0.924692 0
M  V30 9624 H 896.188 0.878807 -0.355531 0
M  V30 9625 H 895.894 3.4357 -0.751826 0
M  V30 9626 H 895.768 3.64075 0.98635 0
M  V30 9627 H 898.155 2.68043 1.23439 0
M  V30 9628 H 898.236 2.50369 -0.52431 0
M  V30 9629 H 897.88 5.02011 -0.771205 0
M  V30 9630 H 897.81 5.16967 1.00264 0
M  V30 9631 H 900.301 3.76549 0.319203 0
M  V30 9632 H 900.614 7.72795 0.0275765 0
M  V30 9633 H 898.959 6.94993 0.0317502 0
M  V30 9634 H 902.15 4.67063 0.311377 0
M  V30 9635 H 902.323 6.47754 0.178621 0
M  V30 9636 N 895.729 -0.261212 1.5542 0
M  V30 9637 C 896.954 -1.01341 1.80955 0
M  V30 9638 C 897.379 -1.78711 0.586849 0
M  V30 9639 O 896.737 -1.75266 -0.463837 0
M  V30 9640 C 896.785 -1.93835 3.04073 0
M  V30 9641 O 895.889 -3.02791 2.79985 0
M  V30 9642 H 895.23 -0.289123 0.597749 0
M  V30 9643 H 897.76 -0.286543 2.02584 0
M  V30 9644 H 897.77 -2.3557 3.33123 0
M  V30 9645 H 896.445 -1.36936 3.9271 0
M  V30 9646 H 895.022 -2.65287 2.62063 0
M  V30 9647 N 897.207 -1.48554 -0.526253 0
M  V30 9648 C 898.137 -1.66252 -1.63959 0
M  V30 9649 C 899.118 -0.511351 -1.62232 0
M  V30 9650 O 900.303 -0.744322 -1.7937 0
M  V30 9651 C 897.433 -1.70556 -3.02536 0
M  V30 9652 C 896.387 -2.8521 -3.19123 0
M  V30 9653 C 895.713 -2.74606 -4.58798 0
M  V30 9654 C 897.013 -4.26463 -3.0154 0
M  V30 9655 H 898.707 -2.59459 -1.49404 0
M  V30 9656 H 896.253 -1.24862 -0.717326 0
M  V30 9657 H 898.206 -1.81524 -3.80298 0
M  V30 9658 H 896.93 -0.739297 -3.18123 0
M  V30 9659 H 895.589 -2.73802 -2.43779 0
M  V30 9660 H 895.237 -1.75941 -4.71226 0
M  V30 9661 H 894.937 -3.51544 -4.70841 0
M  V30 9662 H 896.461 -2.87548 -5.38655 0
M  V30 9663 H 897.875 -4.38685 -3.69091 0
M  V30 9664 H 896.272 -5.04428 -3.25073 0
M  V30 9665 H 897.342 -4.42667 -1.97925 0
M  V30 9666 N 898.685 0.775411 -1.37205 0
M  V30 9667 C 899.931 1.53533 -1.33414 0
M  V30 9668 C 900.286 1.92225 0.0819435 0
M  V30 9669 O 899.579 1.60935 1.03974 0
M  V30 9670 C 899.773 2.81377 -2.20367 0
M  V30 9671 C 899.602 2.5518 -3.70288 0
M  V30 9672 C 898.372 2.49493 -4.3941 0
M  V30 9673 C 900.57 2.23425 -4.63234 0
M  V30 9674 N 898.552 2.15341 -5.74892 0
M  V30 9675 C 899.923 1.99381 -5.87067 0
M  V30 9676 C 901.978 2.09549 -4.51657 0
M  V30 9677 C 900.681 1.62863 -7.0062 0
M  V30 9678 C 902.707 1.74431 -5.65091 0
M  V30 9679 C 902.069 1.51245 -6.87971 0
M  V30 9680 H 898.168 0.562278 -0.543477 0
M  V30 9681 H 900.752 0.90495 -1.72391 0
M  V30 9682 H 898.923 3.42259 -1.83612 0
M  V30 9683 H 900.655 3.4724 -2.07861 0
M  V30 9684 H 897.41 2.65221 -3.9237 0
M  V30 9685 H 897.834 2.00972 -6.46482 0
M  V30 9686 H 902.476 2.26159 -3.57228 0
M  V30 9687 H 900.194 1.44991 -7.94986 0
M  V30 9688 H 903.78 1.64359 -5.58102 0
M  V30 9689 H 902.66 1.24472 -7.74259 0
M  V30 9690 N 900.163 1.21714 1.00117 0
M  V30 9691 C 901.388 1.06357 1.78054 0
M  V30 9692 C 901.813 -0.382075 1.84179 0
M  V30 9693 O 901.171 -1.27575 1.28819 0
M  V30 9694 C 901.219 1.66982 3.19608 0
M  V30 9695 O 900.323 0.917892 4.02055 0
M  V30 9696 H 899.664 0.374074 0.548602 0
M  V30 9697 H 902.194 1.61338 1.25822 0
M  V30 9698 H 902.204 1.71363 3.70268 0
M  V30 9699 H 900.879 2.72185 3.14465 0
M  V30 9700 H 899.456 0.949473 3.6061 0
M  V30 9701 N 901.641 -1.19671 1.02551 0
M  V30 9702 C 902.571 -2.25009 0.623965 0
M  V30 9703 C 903.552 -1.66129 -0.36538 0
M  V30 9704 O 904.737 -1.92599 -0.248842 0
M  V30 9705 C 901.867 -3.47287 -0.0294869 0
M  V30 9706 C 900.821 -4.18818 0.881781 0
M  V30 9707 C 900.147 -5.34618 0.0936189 0
M  V30 9708 C 901.447 -4.73986 2.19396 0
M  V30 9709 H 903.141 -2.58851 1.50454 0
M  V30 9710 H 900.687 -1.24425 0.724872 0
M  V30 9711 H 902.64 -4.20168 -0.322016 0
M  V30 9712 H 901.364 -3.12635 -0.944838 0
M  V30 9713 H 900.023 -3.47815 1.15845 0
M  V30 9714 H 899.671 -4.9621 -0.823661 0
M  V30 9715 H 899.371 -5.83409 0.700568 0
M  V30 9716 H 900.895 -6.10297 -0.192249 0
M  V30 9717 H 902.309 -5.38639 1.96319 0
M  V30 9718 H 900.706 -5.3325 2.75254 0
M  V30 9719 H 901.776 -3.92238 2.85092 0
M  V30 9720 N 903.119 -0.802921 -1.35613 0
M  V30 9721 C 904.349 -0.393359 -2.02821 0
M  V30 9722 C 904.757 0.999282 -1.60658 0
M  V30 9723 O 904.1 1.65463 -0.797977 0
M  V30 9724 C 904.162 -0.393102 -3.57344 0
M  V30 9725 C 903.826 -1.73563 -4.22759 0
M  V30 9726 C 904.823 -2.69333 -4.44698 0
M  V30 9727 C 902.508 -2.01863 -4.59953 0
M  V30 9728 C 904.502 -3.91589 -5.02928 0
M  V30 9729 C 902.189 -3.24383 -5.17898 0
M  V30 9730 C 903.187 -4.19064 -5.39328 0
M  V30 9731 O 902.875 -5.39422 -5.96053 0
M  V30 9732 H 902.607 -0.158431 -0.657172 0
M  V30 9733 H 905.161 -1.08682 -1.74291 0
M  V30 9734 H 903.391 0.356934 -3.85049 0
M  V30 9735 H 905.08 -0.00635596 -4.059 0
M  V30 9736 H 905.846 -2.48759 -4.16346 0
M  V30 9737 H 901.725 -1.28979 -4.42589 0
M  V30 9738 H 905.269 -4.65502 -5.1957 0
M  V30 9739 H 901.166 -3.44829 -5.45677 0
M  V30 9740 H 901.934 -5.40669 -6.14507 0
M  V30 9741 N 904.597 1.47463 -0.556102 0
M  V30 9742 C 905.874 1.9557 0.0339892 0
M  V30 9743 C 906.254 1.49869 1.48669 0
M  V30 9744 O 905.602 0.737019 2.16288 0
M  V30 9745 C 905.812 3.48826 -0.110343 0
M  V30 9746 C 907.16 4.24585 0.0355716 0
M  V30 9747 O 908.184 3.5618 -0.0378356 0
M  V30 9748 O 907.043 5.46158 0.193299 0
M  V30 9749 H 904.137 0.824461 0.0647521 0
M  V30 9750 H 906.683 1.57868 -0.622547 0
M  V30 9751 H 905.455 3.74891 -1.12126 0
M  V30 9752 H 905.078 3.9329 0.583855 0
M  V30 9753 N 906.075 0.2925 1.54862 0
M  V30 9754 C 907.005 -0.580677 2.26165 0
M  V30 9755 C 907.986 -1.14485 1.25806 0
M  V30 9756 O 909.171 -1.17577 1.54562 0
M  V30 9757 C 906.301 -1.75668 2.99596 0
M  V30 9758 C 905.255 -1.32325 4.07031 0
M  V30 9759 C 904.581 -2.58374 4.68131 0
M  V30 9760 C 905.881 -0.460703 5.20264 0
M  V30 9761 H 907.575 0.0140075 2.99397 0
M  V30 9762 H 905.121 0.00817706 1.43998 0
M  V30 9763 H 907.074 -2.37356 3.48195 0
M  V30 9764 H 905.798 -2.37747 2.23928 0
M  V30 9765 H 904.457 -0.729477 3.59269 0
M  V30 9766 H 904.105 -3.18749 3.89112 0
M  V30 9767 H 903.805 -2.30078 5.40683 0
M  V30 9768 H 905.329 -3.2088 5.19489 0
M  V30 9769 H 906.743 -0.983037 5.64809 0
M  V30 9770 H 905.14 -0.271881 5.99484 0
M  V30 9771 H 906.21 0.516304 4.82143 0
M  V30 9772 N 907.553 -1.57587 0.0200696 0
M  V30 9773 C 908.783 -1.95435 -0.669991 0
M  V30 9774 C 909.191 -0.894647 -1.66711 0
M  V30 9775 O 908.534 0.133009 -1.83218 0
M  V30 9776 C 908.596 -3.29379 -1.44047 0
M  V30 9777 C 908.26 -4.53008 -0.602691 0
M  V30 9778 C 909.257 -5.19766 0.118188 0
M  V30 9779 C 906.942 -4.99359 -0.542754 0
M  V30 9780 C 908.936 -6.31187 0.887774 0
M  V30 9781 C 906.623 -6.10665 0.230543 0
M  V30 9782 C 907.621 -6.76438 0.944522 0
M  V30 9783 O 907.309 -7.85608 1.70516 0
M  V30 9784 H 907.041 -0.648681 -0.190234 0
M  V30 9785 H 909.595 -2.05269 0.0733838 0
M  V30 9786 H 907.825 -3.1601 -2.22878 0
M  V30 9787 H 909.514 -3.52194 -2.01777 0
M  V30 9788 H 910.28 -4.84932 0.0811604 0
M  V30 9789 H 906.159 -4.47976 -1.08804 0
M  V30 9790 H 909.703 -6.82458 1.44558 0
M  V30 9791 H 905.6 -6.44938 0.26932 0
M  V30 9792 H 906.368 -8.02228 1.62398 0
M  V30 9793 N 909.032 0.252966 -1.55557 0
M  V30 9794 C 910.448 0.60118 -1.47844 0
M  V30 9795 C 910.648 1.88612 -0.709055 0
M  V30 9796 O 909.704 2.51395 -0.235964 0
M  V30 9797 C 911.017 0.709539 -2.92209 0
M  V30 9798 C 912.565 0.802269 -3.02544 0
M  V30 9799 C 913.04 0.94224 -4.48203 0
M  V30 9800 N 914.531 1.00726 -4.52116 0
M  V30 9801 C 915.266 1.13472 -5.6206 0
M  V30 9802 N 914.762 1.22811 -6.81828 0
M  V30 9803 N 916.555 1.1674 -5.49844 0
M  V30 9804 H 908.706 -0.590635 -2.04023 0
M  V30 9805 H 910.969 -0.202986 -0.926013 0
M  V30 9806 H 910.675 -0.164505 -3.51315 0
M  V30 9807 H 910.549 1.58343 -3.42356 0
M  V30 9808 H 912.936 1.66677 -2.43522 0
M  V30 9809 H 913.017 -0.0966469 -2.55617 0
M  V30 9810 H 912.661 0.0823209 -5.07833 0
M  V30 9811 H 912.591 1.85611 -4.92805 0
M  V30 9812 H 915.082 0.946684 -3.6585 0
M  V30 9813 H 915.395 1.32426 -7.61369 0
M  V30 9814 H 913.74 1.19779 -6.84601 0
M  V30 9815 H 916.931 1.09089 -4.55211 0
M  V30 9816 H 917.104 1.26329 -6.35567 0
M  V30 9817 N 910.51 1.48831 0.518367 0
M  V30 9818 C 911.735 1.61379 1.30275 0
M  V30 9819 C 912.16 0.278571 1.86026 0
M  V30 9820 O 911.518 -0.751427 1.64995 0
M  V30 9821 C 911.566 2.67225 2.42122 0
M  V30 9822 O 910.67 2.25192 3.45489 0
M  V30 9823 H 910.011 0.540742 0.385349 0
M  V30 9824 H 912.541 1.949 0.622498 0
M  V30 9825 H 912.551 2.88859 2.8814 0
M  V30 9826 H 911.226 3.64155 2.00907 0
M  V30 9827 H 909.803 2.13819 3.05509 0
M  V30 9828 N 911.988 -0.768124 1.37614 0
M  V30 9829 C 913.399 -1.34462 1.29525 0
M  V30 9830 C 913.75 -1.96121 -0.0555168 0
M  V30 9831 O 912.875 -1.94069 -0.957406 0
M  V30 9832 C 913.47 -2.44475 2.34558 0
M  V30 9833 C 912.029 -2.97883 2.30093 0
M  V30 9834 C 911.176 -1.71131 2.18196 0
M  V30 9835 H 914.127 -0.568103 1.48183 0
M  V30 9836 H 914.148 -3.24047 1.99434 0
M  V30 9837 H 913.66 -1.99568 3.32858 0
M  V30 9838 H 911.761 -3.47156 1.35328 0
M  V30 9839 H 911.874 -3.53251 3.23652 0
M  V30 9840 H 910.238 -1.94197 1.64802 0
M  V30 9841 H 911.021 -1.28323 3.18415 0
M  V30 9842 N 913.466 -1.22244 -0.994698 0
M  V30 9843 C 914.714 -1.04384 -1.73056 0
M  V30 9844 C 915.035 0.422204 -1.90374 0
M  V30 9845 O 914.305 1.30383 -1.46209 0
M  V30 9846 H 912.885 -0.383263 -0.641185 0
M  V30 9847 H 915.547 -1.53725 -1.1981 0
M  V30 9848 H 914.643 -1.52021 -2.72573 0
M  V30 9849 N 914.944 1.19125 -1.03184 0
M  V30 9850 C 916.355 1.70564 -0.759264 0
M  V30 9851 C 916.706 1.8248 0.720794 0
M  V30 9852 O 915.831 1.49804 1.56166 0
M  V30 9853 C 916.426 3.09793 -1.37163 0
M  V30 9854 C 914.985 3.5848 -1.14757 0
M  V30 9855 C 914.132 2.35265 -1.46784 0
M  V30 9856 H 917.083 1.03925 -1.19939 0
M  V30 9857 H 917.104 3.72624 -0.77015 0
M  V30 9858 H 916.616 3.01088 -2.44882 0
M  V30 9859 H 914.717 3.72494 -0.0887182 0
M  V30 9860 H 914.83 4.42426 -1.83836 0
M  V30 9861 H 913.194 2.38747 -0.887254 0
M  V30 9862 H 913.977 2.29188 -2.55593 0
M  V30 9863 N 916.422 0.810101 1.35185 0
M  V30 9864 C 917.671 0.388589 1.97921 0
M  V30 9865 C 917.984 -1.05079 1.64978 0
M  V30 9866 O 919.19 -1.57559 2.21105 0
M  V30 9867 C 917.646 0.643864 3.54094 0
M  V30 9868 C 917.254 2.09602 3.95943 0
M  V30 9869 C 918.998 0.287883 4.23523 0
M  V30 9870 C 916.905 2.29686 5.44976 0
M  V30 9871 H 915.835 0.141562 0.740592 0
M  V30 9872 H 918.486 0.994653 1.54204 0
M  V30 9873 H 916.868 -0.0321978 3.95987 0
M  V30 9874 H 918.042 2.81018 3.65192 0
M  V30 9875 H 916.357 2.4122 3.39414 0
M  V30 9876 H 918.954 0.415946 5.3308 0
M  V30 9877 H 919.297 -0.766305 4.09186 0
M  V30 9878 H 919.83 0.918004 3.87063 0
M  V30 9879 H 916.569 3.33563 5.64284 0
M  V30 9880 H 916.089 1.62798 5.77284 0
M  V30 9881 H 917.768 2.11411 6.11485 0
M  V30 9882 N 917.9 -1.47166 0.563914 0
M  V30 9883 C 918.832 -2.28165 -0.217583 0
M  V30 9884 C 919.845 -1.37405 -0.873134 0
M  V30 9885 O 921.034 -1.6217 -0.745857 0
M  V30 9886 C 918.134 -3.11873 -1.32621 0
M  V30 9887 C 917.307 -4.30637 -0.766177 0
M  V30 9888 C 916.366 -4.95889 -1.76014 0
M  V30 9889 O 915.392 -5.54071 -1.3036 0
M  V30 9890 N 916.594 -4.91191 -3.09373 0
M  V30 9891 H 919.359 -2.95876 0.477256 0
M  V30 9892 H 916.92 -1.5687 0.40043 0
M  V30 9893 H 918.912 -3.52392 -1.99003 0
M  V30 9894 H 917.482 -2.46361 -1.92419 0
M  V30 9895 H 916.702 -3.94129 0.0745998 0
M  V30 9896 H 917.99 -5.07442 -0.371472 0
M  V30 9897 H 917.388 -4.45133 -3.49104 0
M  V30 9898 H 915.945 -5.35708 -3.71295 0
M  V30 9899 N 919.378 -0.300708 -1.54705 0
M  V30 9900 C 920.625 0.308654 -2.00134 0
M  V30 9901 C 920.953 1.53918 -1.1891 0
M  V30 9902 O 920.208 1.94054 -0.253263 0
M  V30 9903 C 920.507 0.710108 -3.50275 0
M  V30 9904 C 920.173 -0.418651 -4.48952 0
M  V30 9905 C 918.835 -0.728524 -4.75653 0
M  V30 9906 C 921.187 -1.17797 -5.07714 0
M  V30 9907 C 918.515 -1.80085 -5.58378 0
M  V30 9908 C 920.867 -2.24022 -5.91606 0
M  V30 9909 C 919.531 -2.55616 -6.16617 0
M  V30 9910 H 918.801 0.112945 -0.732342 0
M  V30 9911 H 921.448 -0.419744 -1.86843 0
M  V30 9912 H 919.753 1.51859 -3.61173 0
M  V30 9913 H 921.45 1.19277 -3.8285 0
M  V30 9914 H 918.04 -0.167034 -4.28274 0
M  V30 9915 H 922.224 -0.951835 -4.87087 0
M  V30 9916 H 917.48 -2.05036 -5.75995 0
M  V30 9917 H 921.654 -2.83317 -6.36164 0
M  V30 9918 H 919.281 -3.38839 -6.80509 0
M  V30 9919 N 920.856 1.57574 -0.0284266 0
M  V30 9920 C 921.804 2.11332 0.971675 0
M  V30 9921 C 922.798 1.03974 1.33738 0
M  V30 9922 O 924.004 1.22409 1.31969 0
M  V30 9923 H 920.379 0.675174 0.331125 0
M  V30 9924 H 922.35 2.943 0.49296 0
M  V30 9925 C 921.099 2.65496 2.24516 0
M  V30 9926 H 920.422 3.47753 1.9725 0
M  V30 9927 H 921.862 3.06757 2.92705 0
M  V30 9928 C 920.321 1.58207 2.97443 0
M  V30 9929 O 920.851 0.981496 3.89525 0
M  V30 9930 N 919.057 1.30269 2.59766 0
M  V30 9931 H 918.604 1.79294 1.84963 0
M  V30 9932 H 918.562 0.587085 3.0887 0
M  V30 9933 N 922.334 -0.244713 1.55689 0
M  V30 9934 C 923.582 -0.970525 1.77272 0
M  V30 9935 C 923.903 -1.85771 0.592804 0
M  V30 9936 O 923.173 -1.91952 -0.391323 0
M  V30 9937 H 921.753 -0.361342 0.653789 0
M  V30 9938 H 924.415 -0.262134 1.93129 0
M  V30 9939 H 923.511 -1.59096 2.68505 0
M  V30 9940 N 923.813 -1.49104 -0.510467 0
M  V30 9941 C 924.763 -1.6147 -1.6097 0
M  V30 9942 C 925.747 -0.470797 -1.53858 0
M  V30 9943 O 926.939 -0.723266 -1.61548 0
M  V30 9944 C 924.068 -1.67575 -2.99622 0
M  V30 9945 C 923.154 -2.87511 -3.11766 0
M  V30 9946 N 923.545 -4.11704 -2.93826 0
M  V30 9947 C 921.843 -2.85251 -3.42852 0
M  V30 9948 C 922.544 -4.92276 -3.09902 0
M  V30 9949 N 921.52 -4.2546 -3.38355 0
M  V30 9950 H 925.322 -2.5522 -1.45739 0
M  V30 9951 H 922.836 -1.45745 -0.716383 0
M  V30 9952 H 924.833 -1.74531 -3.78609 0
M  V30 9953 H 923.493 -0.749557 -3.1593 0
M  V30 9954 H 924.504 -4.41834 -2.70191 0
M  V30 9955 H 921.181 -2.0197 -3.65396 0
M  V30 9956 H 922.571 -6.00905 -3.00604 0
M  V30 9957 N 925.291 0.760815 -1.38019 0
M  V30 9958 C 926.221 1.88811 -1.37377 0
M  V30 9959 C 927.202 1.68388 -0.240737 0
M  V30 9960 O 928.387 1.89086 -0.442739 0
M  V30 9961 C 925.517 3.26244 -1.1909 0
M  V30 9962 C 924.471 3.61254 -2.29521 0
M  V30 9963 C 923.797 4.97346 -1.96345 0
M  V30 9964 C 925.097 3.66874 -3.71753 0
M  V30 9965 H 926.791 1.89606 -2.31711 0
M  V30 9966 H 924.337 0.910818 -1.11535 0
M  V30 9967 H 926.29 4.04755 -1.17267 0
M  V30 9968 H 925.014 3.2591 -0.212152 0
M  V30 9969 H 923.673 2.85057 -2.30517 0
M  V30 9970 H 923.321 4.93564 -0.969728 0
M  V30 9971 H 923.021 5.21739 -2.703 0
M  V30 9972 H 924.545 5.78244 -1.96129 0
M  V30 9973 H 925.959 4.35514 -3.72828 0
M  V30 9974 H 924.356 4.02772 -4.44853 0
M  V30 9975 H 925.426 2.67273 -4.0459 0
M  V30 9976 N 926.769 1.22769 0.988202 0
M  V30 9977 C 928.017 1.05301 1.725 0
M  V30 9978 C 928.338 -0.412103 1.90596 0
M  V30 9979 O 927.608 -1.29606 1.46898 0
M  V30 9980 H 926.188 0.386658 0.639144 0
M  V30 9981 H 928.85 1.54359 1.18993 0
M  V30 9982 H 927.946 1.53465 2.71763 0
M  V30 9983 N 928.247 -1.18576 1.03814 0
M  V30 9984 C 929.195 -2.24166 0.620678 0
M  V30 9985 C 930.189 -1.65718 -0.351282 0
M  V30 9986 O 931.395 -1.78665 -0.218848 0
M  V30 9987 H 927.77 -0.729522 0.182487 0
M  V30 9988 H 929.741 -2.56686 1.52166 0
M  V30 9989 C 928.49 -3.477 -0.00307331 0
M  V30 9990 H 927.813 -3.92969 0.735874 0
M  V30 9991 H 929.253 -4.23214 -0.257988 0
M  V30 9992 C 927.712 -3.12757 -1.2524 0
M  V30 9993 O 928.242 -3.26261 -2.34344 0
M  V30 9994 N 926.448 -2.67104 -1.14471 0
M  V30 9995 H 925.995 -2.56316 -0.256873 0
M  V30 9996 H 925.953 -2.44096 -1.98153 0
M  V30 9997 N 929.725 -0.817259 -1.34754 0
M  V30 9998 C 930.688 -0.240611 -2.27934 0
M  V30 9999 C 931.688 0.578219 -1.50044 0
M  V30 10000 O 932.878 0.395148 -1.69659 0
M  V30 10001 C 930.01 0.663318 -3.34384 0
M  V30 10002 H 931.203 -1.06257 -2.80445 0
M  V30 10003 H 928.756 -0.588697 -1.4479 0
M  V30 10004 H 929.491 1.50855 -2.87077 0
M  V30 10005 H 929.276 0.0777388 -3.92023 0
M  V30 10006 H 930.766 1.06076 -4.03903 0
M  V30 10007 N 931.203 1.46865 -0.571711 0
M  V30 10008 C 932.619 1.57897 -0.23255 0
M  V30 10009 C 932.819 1.56836 1.26509 0
M  V30 10010 O 931.875 1.47947 2.04617 0
M  V30 10011 C 933.188 2.87778 -0.872036 0
M  V30 10012 C 934.736 3.01389 -0.844605 0
M  V30 10013 C 935.211 4.33991 -1.46343 0
M  V30 10014 N 936.702 4.40662 -1.42727 0
M  V30 10015 C 937.437 5.41858 -1.87557 0
M  V30 10016 N 936.933 6.49787 -2.4031 0
M  V30 10017 N 938.726 5.32992 -1.7854 0
M  V30 10018 H 930.877 1.45798 -1.54457 0
M  V30 10019 H 933.14 0.694785 -0.644964 0
M  V30 10020 H 932.846 2.94332 -1.92513 0
M  V30 10021 H 932.72 3.75345 -0.373677 0
M  V30 10022 H 935.107 2.94423 0.19984 0
M  V30 10023 H 935.188 2.15327 -1.38087 0
M  V30 10024 H 934.832 4.41714 -2.50701 0
M  V30 10025 H 934.762 5.18809 -0.902479 0
M  V30 10026 H 937.253 3.63263 -1.04155 0
M  V30 10027 H 937.566 7.23199 -2.72403 0
M  V30 10028 H 935.911 6.50637 -2.44329 0
M  V30 10029 H 939.102 4.47575 -1.37093 0
M  V30 10030 H 939.275 6.11716 -2.13794 0
M  V30 10031 N 932.681 0.308908 1.54543 0
M  V30 10032 C 933.921 -0.298811 2.02204 0
M  V30 10033 C 934.285 -1.50484 1.19242 0
M  V30 10034 O 935.486 -2.18445 1.56637 0
M  V30 10035 C 933.757 -0.638849 3.51644 0
M  V30 10036 S 935.316 -1.22831 4.21258 0
M  V30 10037 H 932.134 -0.0912638 0.705118 0
M  V30 10038 H 934.736 0.438622 1.90516 0
M  V30 10039 H 933.44 0.24726 4.09654 0
M  V30 10040 H 932.971 -1.40687 3.67384 0
M  V30 10041 H 934.986 -2.51579 4.27694 0
M  V30 10042 N 934.159 -1.57557 0.0367827 0
M  V30 10043 C 935.389 -1.96134 -0.649225 0
M  V30 10044 C 935.797 -0.912279 -1.65753 0
M  V30 10045 O 935.14 0.113569 -1.83349 0
M  V30 10046 C 935.202 -3.30889 -1.40545 0
M  V30 10047 C 934.866 -4.53622 -0.554609 0
M  V30 10048 C 935.863 -5.19611 0.17331 0
M  V30 10049 C 933.548 -4.99907 -0.48976 0
M  V30 10050 C 935.542 -6.3021 0.95467 0
M  V30 10051 C 933.229 -6.10386 0.295299 0
M  V30 10052 C 934.227 -6.75398 1.01621 0
M  V30 10053 O 933.915 -7.83755 1.78839 0
M  V30 10054 H 933.647 -0.650662 -0.183344 0
M  V30 10055 H 936.201 -2.05179 0.0951512 0
M  V30 10056 H 934.431 -3.18356 -2.19513 0
M  V30 10057 H 936.12 -3.54315 -1.9803 0
M  V30 10058 H 936.886 -4.84819 0.132589 0
M  V30 10059 H 932.765 -4.49105 -1.04046 0
M  V30 10060 H 936.309 -6.80886 1.51789 0
M  V30 10061 H 932.206 -6.44616 0.33771 0
M  V30 10062 H 932.974 -8.0046 1.70898 0
M  V30 10063 N 935.637 0.236453 -1.55816 0
M  V30 10064 C 936.865 0.980295 -1.82203 0
M  V30 10065 C 937.28 1.7854 -0.613926 0
M  V30 10066 O 936.637 1.77661 0.417491 0
M  V30 10067 C 936.688 1.90982 -3.06933 0
M  V30 10068 O 936.409 1.13728 -4.23081 0
M  V30 10069 C 937.91 2.76879 -3.46198 0
M  V30 10070 H 935.13 0.28799 -0.606055 0
M  V30 10071 H 937.674 0.256182 -2.02889 0
M  V30 10072 H 935.829 2.58808 -2.88266 0
M  V30 10073 H 936.243 1.76694 -4.93842 0
M  V30 10074 H 937.717 3.37831 -4.36548 0
M  V30 10075 H 938.194 3.48522 -2.67262 0
M  V30 10076 H 938.8 2.1449 -3.67252 0
M  V30 10077 N 937.115 1.49373 0.502552 0
M  V30 10078 C 938.361 1.59016 1.25864 0
M  V30 10079 C 938.694 0.27532 1.92238 0
M  V30 10080 O 937.969 -0.720988 1.80643 0
M  V30 10081 C 938.252 2.74828 2.32683 0
M  V30 10082 C 938.105 4.16102 1.7082 0
M  V30 10083 C 939.424 2.86288 3.34256 0
M  V30 10084 H 936.543 0.578798 0.456248 0
M  V30 10085 H 939.185 1.81651 0.557032 0
M  V30 10086 H 937.335 2.5566 2.92524 0
M  V30 10087 H 939.007 4.46782 1.14818 0
M  V30 10088 H 937.25 4.21822 1.01238 0
M  V30 10089 H 937.921 4.93006 2.48292 0
M  V30 10090 H 940.397 3.03733 2.84404 0
M  V30 10091 H 939.273 3.69001 4.06362 0
M  V30 10092 H 939.534 1.95576 3.96488 0
M  V30 10093 N 938.594 -0.753485 1.38421 0
M  V30 10094 C 939.541 -1.86723 1.35659 0
M  V30 10095 C 940.511 -1.64648 0.219121 0
M  V30 10096 O 941.696 -1.86313 0.411366 0
M  V30 10097 C 938.836 -3.24023 1.18758 0
M  V30 10098 C 937.949 -3.57928 2.41892 0
M  V30 10099 C 937.084 -4.84532 2.17721 0
M  V30 10100 C 936.123 -5.11224 3.36626 0
M  V30 10101 N 935.26 -6.29023 3.11889 0
M  V30 10102 H 940.1 -1.88419 2.30873 0
M  V30 10103 H 937.637 -0.920934 1.14705 0
M  V30 10104 H 939.595 -4.03252 1.06974 0
M  V30 10105 H 938.225 -3.21654 0.27182 0
M  V30 10106 H 937.277 -2.73541 2.64347 0
M  V30 10107 H 938.589 -3.73581 3.30513 0
M  V30 10108 H 937.743 -5.71704 2.03074 0
M  V30 10109 H 936.482 -4.71018 1.26465 0
M  V30 10110 H 935.487 -4.2252 3.51791 0
M  V30 10111 H 936.712 -5.26635 4.28757 0
M  V30 10112 H 934.658 -6.16832 2.2328 0
M  V30 10113 H 934.575 -6.45177 3.9406 0
M  V30 10114 H 935.843 -7.19083 3.00898 0
M  V30 10115 N 940.072 -1.23292 -0.981677 0
M  V30 10116 C 941.3 -1.09088 -1.75805 0
M  V30 10117 C 941.715 0.357746 -1.8538 0
M  V30 10118 O 941.072 1.24751 -1.33205 0
M  V30 10119 C 941.123 -1.70885 -3.1856 0
M  V30 10120 O 940.844 -3.10082 -3.09484 0
M  V30 10121 C 942.345 -1.62106 -4.12597 0
M  V30 10122 H 939.565 -0.38184 -0.55176 0
M  V30 10123 H 942.109 -1.63116 -1.23342 0
M  V30 10124 H 940.264 -1.20893 -3.68054 0
M  V30 10125 H 940.678 -3.40039 -3.99342 0
M  V30 10126 H 942.152 -2.10049 -5.10474 0
M  V30 10127 H 942.629 -0.579642 -4.35358 0
M  V30 10128 H 943.235 -2.11457 -3.69007 0
M  V30 10129 N 941.55 1.18024 -1.04442 0
M  V30 10130 C 942.961 1.69749 -0.777312 0
M  V30 10131 C 943.312 1.83234 0.701399 0
M  V30 10132 O 942.437 1.51452 1.54568 0
M  V30 10133 C 943.032 3.08321 -1.40441 0
M  V30 10134 C 941.591 3.57243 -1.18553 0
M  V30 10135 C 940.738 2.33695 -1.49271 0
M  V30 10136 H 943.689 1.02647 -1.21035 0
M  V30 10137 H 943.71 3.71787 -0.809628 0
M  V30 10138 H 943.222 2.98474 -2.48062 0
M  V30 10139 H 941.323 3.72379 -0.128221 0
M  V30 10140 H 941.436 4.40451 -1.88519 0
M  V30 10141 H 939.8 2.37792 -0.912526 0
M  V30 10142 H 940.583 2.26464 -2.5801 0
M  V30 10143 N 943.028 0.824394 1.34319 0
M  V30 10144 C 944.256 0.426194 2.02463 0
M  V30 10145 C 944.671 -0.968298 1.62078 0
M  V30 10146 O 944.028 -1.62689 0.82696 0
M  V30 10147 C 944.079 0.520465 3.57734 0
M  V30 10148 O 943.8 1.86 3.96656 0
M  V30 10149 C 945.301 0.117353 4.43145 0
M  V30 10150 H 942.521 0.170864 0.648881 0
M  V30 10151 H 945.065 1.11296 1.71562 0
M  V30 10152 H 943.22 -0.118233 3.8722 0
M  V30 10153 H 943.634 1.83528 4.91343 0
M  V30 10154 H 945.108 0.234395 5.51502 0
M  V30 10155 H 945.585 -0.939271 4.29039 0
M  V30 10156 H 946.191 0.729908 4.1899 0
M  V30 10157 N 944.506 -1.46559 0.579492 0
M  V30 10158 C 945.453 -2.30275 -0.155598 0
M  V30 10159 C 946.423 -1.40422 -0.887175 0
M  V30 10160 O 947.608 -1.69373 -0.878481 0
M  V30 10161 C 944.748 -3.24827 -1.16539 0
M  V30 10162 C 943.861 -4.29778 -0.43759 0
M  V30 10163 C 942.996 -5.11461 -1.43462 0
M  V30 10164 C 942.035 -6.08164 -0.693048 0
M  V30 10165 N 941.172 -6.82726 -1.63799 0
M  V30 10166 H 946.012 -2.92607 0.564356 0
M  V30 10167 H 943.549 -1.44211 0.290126 0
M  V30 10168 H 945.507 -3.78088 -1.76368 0
M  V30 10169 H 944.137 -2.64311 -1.8531 0
M  V30 10170 H 943.189 -3.794 0.27567 0
M  V30 10171 H 944.501 -4.98597 0.142298 0
M  V30 10172 H 943.655 -5.68982 -2.1058 0
M  V30 10173 H 942.394 -4.42595 -2.04844 0
M  V30 10174 H 941.399 -5.49799 -0.00807093 0
M  V30 10175 H 942.624 -6.79047 -0.0846678 0
M  V30 10176 H 940.57 -6.16572 -2.23997 0
M  V30 10177 H 940.487 -7.47795 -1.11082 0
M  V30 10178 H 941.755 -7.44807 -2.29962 0
M  V30 10179 N 945.984 -0.3171 -1.54377 0
M  V30 10180 C 947.261 0.341348 -1.92598 0
M  V30 10181 C 947.641 1.70402 -1.24605 0
M  V30 10182 O 946.989 2.25191 -0.387448 0
M  V30 10183 C 947.199 0.440003 -3.46215 0
M  V30 10184 C 948.547 0.703327 -4.18734 0
M  V30 10185 O 949.571 0.523181 -3.52337 0
M  V30 10186 O 948.43 1.05042 -5.3631 0
M  V30 10187 H 945.524 0.193696 -0.803997 0
M  V30 10188 H 948.07 -0.366341 -1.65699 0
M  V30 10189 H 946.842 -0.517299 -3.87866 0
M  V30 10190 H 946.465 1.19553 -3.792 0
M  V30 10191 N 947.462 1.57535 -0.0451378 0
M  V30 10192 C 948.41 2.12351 0.949205 0
M  V30 10193 C 949.404 1.05386 1.32628 0
M  V30 10194 O 950.61 1.23802 1.30664 0
M  V30 10195 H 946.985 0.678648 0.323945 0
M  V30 10196 H 948.956 2.94806 0.461718 0
M  V30 10197 C 947.705 2.67862 2.21687 0
M  V30 10198 H 947.028 3.49826 1.93551 0
M  V30 10199 H 948.468 3.09844 2.89435 0
M  V30 10200 C 946.927 1.61353 2.95748 0
M  V30 10201 O 947.457 1.02276 3.88462 0
M  V30 10202 N 945.663 1.33017 2.5837 0
M  V30 10203 H 945.21 1.81246 1.83051 0
M  V30 10204 H 945.168 0.619812 3.0823 0
M  V30 10205 N 948.94 -0.228186 1.55939 0
M  V30 10206 C 949.87 -1.28607 1.94891 0
M  V30 10207 C 950.851 -1.49236 0.816245 0
M  V30 10208 O 952.036 -1.61531 1.07803 0
M  V30 10209 C 949.166 -2.63719 2.25986 0
M  V30 10210 C 948.12 -2.57757 3.4168 0
M  V30 10211 C 947.446 -3.96837 3.58364 0
M  V30 10212 C 948.746 -2.13116 4.76843 0
M  V30 10213 H 950.44 -0.962531 2.83506 0
M  V30 10214 H 947.986 -0.461577 1.36402 0
M  V30 10215 H 949.939 -3.37878 2.51826 0
M  V30 10216 H 948.663 -2.97747 1.34217 0
M  V30 10217 H 947.322 -1.86055 3.15878 0
M  V30 10218 H 946.97 -4.28162 2.63982 0
M  V30 10219 H 946.67 -3.93731 4.36176 0
M  V30 10220 H 948.194 -4.72668 3.86545 0
M  V30 10221 H 949.608 -2.77015 5.01932 0
M  V30 10222 H 948.005 -2.21083 5.57891 0
M  V30 10223 H 949.075 -1.08326 4.72645 0
M  V30 10224 N 950.418 -1.49637 -0.494624 0
M  V30 10225 C 951.348 -1.69692 -1.60396 0
M  V30 10226 C 952.329 -0.545648 -1.61111 0
M  V30 10227 O 953.514 -0.782202 -1.77751 0
M  V30 10228 C 950.644 -1.76934 -2.9885 0
M  V30 10229 C 949.598 -2.91915 -3.13001 0
M  V30 10230 C 948.924 -2.84276 -4.5287 0
M  V30 10231 C 950.224 -4.32764 -2.92426 0
M  V30 10232 H 951.918 -2.6257 -1.43866 0
M  V30 10233 H 949.464 -1.26355 -0.690679 0
M  V30 10234 H 951.417 -1.8955 -3.76362 0
M  V30 10235 H 950.141 -0.806609 -3.16483 0
M  V30 10236 H 948.8 -2.78911 -2.37916 0
M  V30 10237 H 948.448 -1.85897 -4.67388 0
M  V30 10238 H 948.148 -3.61452 -4.63278 0
M  V30 10239 H 949.672 -2.98909 -5.32434 0
M  V30 10240 H 951.086 -4.46415 -3.59703 0
M  V30 10241 H 949.483 -5.1121 -3.143 0
M  V30 10242 H 950.553 -4.46765 -1.88491 0
M  V30 10243 N 951.896 0.746133 -1.38819 0
M  V30 10244 C 953.136 1.51821 -1.36857 0
M  V30 10245 C 953.5 1.9196 0.0391461 0
M  V30 10246 O 954.701 2.68172 0.183689 0
M  V30 10247 C 952.972 2.73214 -2.3041 0
M  V30 10248 S 954.531 3.62995 -2.46536 0
M  V30 10249 H 951.349 0.51945 -0.485482 0
M  V30 10250 H 953.951 0.875244 -1.74813 0
M  V30 10251 H 952.655 2.41847 -3.31569 0
M  V30 10252 H 952.186 3.42449 -1.9363 0
M  V30 10253 H 954.201 4.66353 -1.69498 0
M  V30 10254 N 953.375 1.23811 0.975125 0
M  V30 10255 C 954.307 0.981779 2.07108 0
M  V30 10256 C 955.32 -0.0461211 1.62735 0
M  V30 10257 O 956.509 0.190039 1.77486 0
M  V30 10258 C 953.609 0.458364 3.35786 0
M  V30 10259 C 952.782 1.54767 4.09104 0
M  V30 10260 C 951.841 1.0282 5.16057 0
M  V30 10261 O 950.867 1.71831 5.42644 0
M  V30 10262 N 952.069 -0.141243 5.80328 0
M  V30 10263 H 954.834 1.92537 2.29673 0
M  V30 10264 H 952.395 1.1474 1.14221 0
M  V30 10265 H 954.387 0.0957686 4.04587 0
M  V30 10266 H 952.957 -0.390768 3.10148 0
M  V30 10267 H 952.177 2.08279 3.34684 0
M  V30 10268 H 953.465 2.28006 4.54853 0
M  V30 10269 H 952.863 -0.718382 5.6112 0
M  V30 10270 H 951.42 -0.445052 6.50279 0
M  V30 10271 N 954.853 -1.17469 1.05066 0
M  V30 10272 C 955.801 -2.23495 0.644418 0
M  V30 10273 C 956.795 -1.66081 -0.333685 0
M  V30 10274 O 958.001 -1.78887 -0.199886 0
M  V30 10275 H 954.376 -0.727546 0.190214 0
M  V30 10276 H 956.347 -2.55058 1.5488 0
M  V30 10277 C 955.096 -3.47684 0.0338051 0
M  V30 10278 H 954.419 -3.92167 0.777513 0
M  V30 10279 H 955.859 -4.23464 -0.213086 0
M  V30 10280 C 954.318 -3.14067 -1.21915 0
M  V30 10281 O 954.848 -3.28728 -2.3087 0
M  V30 10282 N 953.054 -2.68304 -1.11631 0
M  V30 10283 H 952.601 -2.56574 -0.229673 0
M  V30 10284 H 952.559 -2.46184 -1.95553 0
M  V30 10285 N 956.331 -0.831506 -1.3388 0
M  V30 10286 C 957.294 -0.264773 -2.27666 0
M  V30 10287 C 958.294 0.562273 -1.50649 0
M  V30 10288 O 959.484 0.377131 -1.70069 0
M  V30 10289 C 956.616 0.627814 -3.35069 0
M  V30 10290 H 957.809 -1.09225 -2.79303 0
M  V30 10291 H 955.362 -0.604021 -1.44157 0
M  V30 10292 H 956.097 1.47802 -2.88661 0
M  V30 10293 H 955.882 0.0361552 -3.92083 0
M  V30 10294 H 957.372 1.01786 -4.05005 0
M  V30 10295 N 957.809 1.4625 -0.587256 0
M  V30 10296 C 959.086 1.95599 -0.00750181 0
M  V30 10297 C 959.466 1.52989 1.45457 0
M  V30 10298 O 958.814 0.782731 2.14676 0
M  V30 10299 C 959.024 3.48513 -0.184309 0
M  V30 10300 C 960.372 4.24565 -0.0544972 0
M  V30 10301 O 961.396 3.5602 -0.113378 0
M  V30 10302 O 960.255 5.46445 0.0774075 0
M  V30 10303 H 957.349 0.825649 0.0472495 0
M  V30 10304 H 959.895 1.56512 -0.655893 0
M  V30 10305 H 958.667 3.72428 -1.20053 0
M  V30 10306 H 958.29 3.9444 0.500301 0
M  V30 10307 N 959.287 0.325282 1.54207 0
M  V30 10308 C 960.564 -0.33113 1.92777 0
M  V30 10309 C 960.944 -1.69739 1.25506 0
M  V30 10310 O 960.292 -2.24983 0.399385 0
M  V30 10311 C 960.502 -0.421636 3.46444 0
M  V30 10312 C 961.85 -0.681111 4.19101 0
M  V30 10313 O 962.874 -0.504488 3.52609 0
M  V30 10314 O 961.733 -1.02196 5.3686 0
M  V30 10315 H 958.827 -0.18943 0.805013 0
M  V30 10316 H 961.373 0.375123 1.65502 0
M  V30 10317 H 960.145 0.537862 3.87586 0
M  V30 10318 H 959.768 -1.1754 3.79829 0
M  V30 10319 N 960.765 -1.57509 0.0534917 0
M  V30 10320 C 961.695 -2.14698 -0.917999 0
M  V30 10321 C 962.676 -1.06924 -1.32292 0
M  V30 10322 O 963.861 -1.34875 -1.39723 0
M  V30 10323 C 960.991 -2.69383 -2.19203 0
M  V30 10324 C 959.945 -3.82161 -1.9271 0
M  V30 10325 C 959.271 -4.23373 -3.26587 0
M  V30 10326 C 960.571 -5.07199 -1.24686 0
M  V30 10327 H 962.265 -2.96125 -0.44165 0
M  V30 10328 H 959.811 -1.42446 -0.210993 0
M  V30 10329 H 961.764 -3.08031 -2.87567 0
M  V30 10330 H 960.488 -1.85151 -2.69048 0
M  V30 10331 H 959.147 -3.43989 -1.26757 0
M  V30 10332 H 958.795 -3.36089 -3.74237 0
M  V30 10333 H 958.495 -4.99385 -3.09658 0
M  V30 10334 H 960.019 -4.64623 -3.96178 0
M  V30 10335 H 961.433 -5.43279 -1.83088 0
M  V30 10336 H 959.83 -5.88369 -1.18076 0
M  V30 10337 H 960.9 -4.84386 -0.223227 0
M  V30 10338 N 962.243 0.219913 -1.56058 0
M  V30 10339 C 963.153 1.29349 -1.95719 0
M  V30 10340 C 964.169 1.5119 -0.861248 0
M  V30 10341 O 965.345 1.64289 -1.16495 0
M  V30 10342 C 962.41 2.6229 -2.26726 0
M  V30 10343 C 961.471 2.48738 -3.49897 0
M  V30 10344 C 960.704 3.75339 -3.79416 0
M  V30 10345 O 960.927 4.78427 -3.10586 0
M  V30 10346 O 959.861 3.72352 -4.72903 0
M  V30 10347 H 963.687 0.986979 -2.87215 0
M  V30 10348 H 961.272 0.42291 -1.43289 0
M  V30 10349 H 963.154 3.408 -2.47857 0
M  V30 10350 H 961.829 2.92619 -1.38404 0
M  V30 10351 H 960.736 1.68422 -3.34043 0
M  V30 10352 H 962.069 2.23347 -4.38608 0
M  V30 10353 N 963.721 1.49897 0.486681 0
M  V30 10354 C 964.651 1.7054 1.59494 0
M  V30 10355 C 965.632 0.554184 1.60819 0
M  V30 10356 O 966.817 0.791617 1.77333 0
M  V30 10357 C 963.947 1.78517 2.97908 0
M  V30 10358 C 962.901 2.93571 3.11449 0
M  V30 10359 C 962.227 2.86674 4.51356 0
M  V30 10360 C 963.527 4.34308 2.90127 0
M  V30 10361 H 965.221 2.63329 1.42472 0
M  V30 10362 H 962.767 1.2672 0.683969 0
M  V30 10363 H 964.72 1.91544 3.75352 0
M  V30 10364 H 963.444 0.823381 3.16051 0
M  V30 10365 H 962.103 2.80169 2.36433 0
M  V30 10366 H 961.751 1.88373 4.66395 0
M  V30 10367 H 961.451 3.63903 4.61355 0
M  V30 10368 H 962.975 3.01728 5.30841 0
M  V30 10369 H 964.389 4.48317 3.57331 0
M  V30 10370 H 962.786 5.12869 3.11585 0
M  V30 10371 H 963.856 4.47759 1.86119 0
M  V30 10372 N 965.199 -0.738761 1.39212 0
M  V30 10373 C 966.448 -1.49368 1.35543 0
M  V30 10374 C 966.761 -1.95543 -0.0471091 0
M  V30 10375 O 967.967 -2.70714 -0.206376 0
M  V30 10376 C 966.423 -2.69882 2.381 0
M  V30 10377 C 966.031 -2.30672 3.8405 0
M  V30 10378 C 967.775 -3.47718 2.435 0
M  V30 10379 C 965.682 -3.47886 4.78256 0
M  V30 10380 H 964.612 -0.560898 0.503894 0
M  V30 10381 H 967.263 -0.806221 1.6484 0
M  V30 10382 H 965.645 -3.40684 2.01867 0
M  V30 10383 H 966.819 -1.67441 4.29302 0
M  V30 10384 H 965.134 -1.65936 3.81909 0
M  V30 10385 H 967.731 -4.34897 3.11077 0
M  V30 10386 H 968.074 -3.89919 1.45838 0
M  V30 10387 H 968.607 -2.83942 2.78606 0
M  V30 10388 H 965.346 -3.10739 5.77167 0
M  V30 10389 H 964.866 -4.10111 4.37686 0
M  V30 10390 H 966.545 -4.14271 4.96979 0
M  V30 10391 N 966.677 -1.24326 -0.968545 0
M  V30 10392 C 967.926 -1.07647 -1.70572 0
M  V30 10393 C 968.239 0.384821 -1.91777 0
M  V30 10394 O 969.445 0.671782 -2.63058 0
M  V30 10395 C 967.901 -1.87799 -3.07017 0
M  V30 10396 C 967.509 -3.38333 -2.93658 0
M  V30 10397 C 969.253 -1.79647 -3.84613 0
M  V30 10398 C 967.16 -4.10831 -4.25407 0
M  V30 10399 H 966.09 -0.399216 -0.639642 0
M  V30 10400 H 968.741 -1.484 -1.07934 0
M  V30 10401 H 967.123 -1.3986 -3.7048 0
M  V30 10402 H 968.297 -3.93845 -2.39213 0
M  V30 10403 H 966.612 -3.47427 -2.29528 0
M  V30 10404 H 969.209 -2.31116 -4.82172 0
M  V30 10405 H 969.552 -0.761553 -4.09275 0
M  V30 10406 H 970.085 -2.25261 -3.27875 0
M  V30 10407 H 966.824 -5.14679 -4.05939 0
M  V30 10408 H 966.344 -3.60105 -4.79671 0
M  V30 10409 H 968.023 -4.17783 -4.94031 0
M  V30 10410 N 968.156 1.1691 -1.05688 0
M  V30 10411 C 969.104 2.2315 -0.656262 0
M  V30 10412 C 970.098 1.66256 0.324873 0
M  V30 10413 O 971.304 1.7899 0.190397 0
M  V30 10414 H 967.679 0.726527 -0.19407 0
M  V30 10415 H 969.65 2.54233 -1.56231 0
M  V30 10416 C 968.399 3.47661 -0.0522431 0
M  V30 10417 H 967.722 3.91749 -0.798299 0
M  V30 10418 H 969.162 4.23571 0.190626 0
M  V30 10419 C 967.621 3.14709 1.20248 0
M  V30 10420 O 968.151 3.29947 2.29124 0
M  V30 10421 N 966.357 2.68892 1.10207 0
M  V30 10422 H 965.904 2.56692 0.216063 0
M  V30 10423 H 965.862 2.47218 1.94244 0
M  V30 10424 N 969.634 0.838594 1.33437 0
M  V30 10425 C 970.564 0.286672 2.31734 0
M  V30 10426 C 971.545 -0.605451 1.5896 0
M  V30 10427 O 972.73 -0.529059 1.86854 0
M  V30 10428 C 969.86 -0.539311 3.43087 0
M  V30 10429 C 968.814 0.256997 4.27228 0
M  V30 10430 C 968.14 -0.692718 5.30194 0
M  V30 10431 C 969.44 1.47391 5.01072 0
M  V30 10432 H 971.134 1.10798 2.78144 0
M  V30 10433 H 968.68 0.534235 1.33723 0
M  V30 10434 H 970.633 -0.935724 4.1088 0
M  V30 10435 H 969.357 -1.39383 2.95364 0
M  V30 10436 H 968.016 0.634967 3.61059 0
M  V30 10437 H 967.664 -1.54363 4.78729 0
M  V30 10438 H 967.364 -0.164023 5.87371 0
M  V30 10439 H 968.888 -1.08665 6.00853 0
M  V30 10440 H 970.302 1.15067 5.61634 0
M  V30 10441 H 968.699 1.93937 5.67898 0
M  V30 10442 H 969.769 2.24382 4.29861 0
M  V30 10443 N 971.112 -1.45937 0.595003 0
M  V30 10444 C 972.34 -2.06698 0.091293 0
M  V30 10445 C 972.755 -1.44176 -1.21897 0
M  V30 10446 O 972.112 -0.551402 -1.73971 0
M  V30 10447 C 972.163 -3.61436 -0.0681801 0
M  V30 10448 O 971.884 -4.21622 1.19023 0
M  V30 10449 C 973.385 -4.39155 -0.604814 0
M  V30 10450 H 970.605 -0.668029 0.0630737 0
M  V30 10451 H 973.149 -1.87376 0.819165 0
M  V30 10452 H 971.304 -3.80143 -0.746324 0
M  V30 10453 H 971.718 -5.14647 1.01187 0
M  V30 10454 H 973.192 -5.47973 -0.665532 0
M  V30 10455 H 973.669 -4.08055 -1.62444 0
M  V30 10456 H 974.275 -4.25282 0.0388658 0
M  V30 10457 N 972.59 -0.333456 -1.54032 0
M  V30 10458 C 973.538 0.543414 -2.26163 0
M  V30 10459 C 974.532 1.11037 -1.27934 0
M  V30 10460 O 975.738 1.05727 -1.45677 0
M  V30 10461 H 972.113 0.19391 -0.726569 0
M  V30 10462 H 974.084 -0.0871052 -2.98273 0
M  V30 10463 C 972.833 1.68769 -3.03994 0
M  V30 10464 H 972.156 1.26069 -3.79403 0
M  V30 10465 H 973.596 2.27662 -3.57695 0
M  V30 10466 C 972.055 2.61117 -2.12884 0
M  V30 10467 O 972.585 3.63097 -1.71823 0
M  V30 10468 N 970.791 2.29573 -1.7817 0
M  V30 10469 H 970.338 1.46684 -2.11759 0
M  V30 10470 H 970.296 2.91622 -1.1749 0
M  V30 10471 N 974.068 1.57479 -0.061844 0
M  V30 10472 C 975.015 2.12152 0.908862 0
M  V30 10473 C 975.985 1.03152 1.30188 0
M  V30 10474 O 977.17 1.3076 1.38948 0
M  V30 10475 C 974.31 2.6796 2.17465 0
M  V30 10476 C 973.423 3.91083 1.83517 0
M  V30 10477 C 972.558 4.35169 3.04633 0
M  V30 10478 C 971.597 5.50964 2.66655 0
M  V30 10479 N 970.734 5.90055 3.80499 0
M  V30 10480 H 975.574 2.94797 0.435743 0
M  V30 10481 H 973.111 1.45686 0.203445 0
M  V30 10482 H 975.069 2.98421 2.91548 0
M  V30 10483 H 973.699 1.88096 2.62335 0
M  V30 10484 H 972.751 3.67146 0.995381 0
M  V30 10485 H 974.063 4.75214 1.51569 0
M  V30 10486 H 973.217 4.67239 3.87005 0
M  V30 10487 H 971.956 3.49871 3.39767 0
M  V30 10488 H 970.961 5.18556 1.82703 0
M  V30 10489 H 972.186 6.37986 2.32702 0
M  V30 10490 H 970.132 5.07708 4.15414 0
M  V30 10491 H 970.049 6.68903 3.52285 0
M  V30 10492 H 971.317 6.26744 4.63479 0
M  V30 10493 N 975.546 -0.211634 1.56173 0
M  V30 10494 C 976.494 -1.28188 1.94089 0
M  V30 10495 C 977.488 -1.47999 0.824167 0
M  V30 10496 O 978.694 -1.49056 1.00907 0
M  V30 10497 H 975.069 -0.42999 0.616938 0
M  V30 10498 H 977.04 -0.934962 2.83374 0
M  V30 10499 C 975.789 -2.62294 2.28248 0
M  V30 10500 H 975.112 -2.4786 3.13696 0
M  V30 10501 H 976.552 -3.35967 2.58655 0
M  V30 10502 C 975.011 -3.18049 1.11113 0
M  V30 10503 O 975.541 -3.99923 0.377458 0
M  V30 10504 N 973.747 -2.76561 0.892321 0
M  V30 10505 H 973.294 -2.10088 1.49067 0
M  V30 10506 H 973.252 -3.14206 0.110344 0
M  V30 10507 N 977.024 -1.50153 -0.478725 0
M  V30 10508 C 977.957 -1.63089 -1.59616 0
M  V30 10509 C 978.935 -0.479211 -1.55378 0
M  V30 10510 O 980.119 -0.697715 -1.75112 0
M  V30 10511 C 977.246 -1.60643 -2.9818 0
M  V30 10512 C 976.292 -2.81279 -3.206 0
M  V30 10513 S 977.125 -4.42681 -3.0132 0
M  V30 10514 C 978.281 -4.42915 -4.42241 0
M  V30 10515 H 978.514 -2.57612 -1.48402 0
M  V30 10516 H 976.047 -1.39321 -0.665513 0
M  V30 10517 H 978.005 -1.59917 -3.7807 0
M  V30 10518 H 976.666 -0.673684 -3.0679 0
M  V30 10519 H 975.859 -2.7585 -4.21809 0
M  V30 10520 H 975.461 -2.79533 -2.4847 0
M  V30 10521 H 977.753 -4.16007 -5.34737 0
M  V30 10522 H 978.696 -5.44477 -4.52715 0
M  V30 10523 H 979.104 -3.72715 -4.23962 0
M  V30 10524 N 978.502 0.731368 -1.39602 0
M  V30 10525 C 979.732 1.51839 -1.40102 0
M  V30 10526 C 980.14 1.89199 0.00526634 0
M  V30 10527 O 979.483 1.54877 0.987874 0
M  V30 10528 C 979.545 2.83292 -2.21328 0
M  V30 10529 C 979.209 2.68345 -3.69919 0
M  V30 10530 C 980.206 2.36651 -4.62917 0
M  V30 10531 C 977.891 2.85102 -4.13548 0
M  V30 10532 C 979.885 2.21901 -5.97527 0
M  V30 10533 C 977.572 2.69971 -5.48233 0
M  V30 10534 C 978.57 2.38416 -6.40037 0
M  V30 10535 O 978.258 2.23383 -7.72241 0
M  V30 10536 H 977.99 0.475695 -0.480302 0
M  V30 10537 H 980.544 0.911096 -1.84087 0
M  V30 10538 H 978.774 3.46294 -1.72096 0
M  V30 10539 H 980.463 3.44928 -2.13961 0
M  V30 10540 H 981.229 2.23352 -4.3051 0
M  V30 10541 H 977.108 3.08655 -3.42423 0
M  V30 10542 H 980.652 1.97193 -6.69149 0
M  V30 10543 H 976.549 2.82849 -5.8023 0
M  V30 10544 H 977.317 2.38425 -7.83004 0
M  V30 10545 N 979.98 1.24838 0.961938 0
M  V30 10546 C 980.89 1.06304 2.09133 0
M  V30 10547 C 981.906 0.00221475 1.74 0
M  V30 10548 O 983.082 0.201611 2.00388 0
M  V30 10549 C 980.147 0.676117 3.40043 0
M  V30 10550 C 979.208 1.81407 3.89089 0
M  V30 10551 C 978.441 1.44551 5.13752 0
M  V30 10552 O 978.664 0.337894 5.69398 0
M  V30 10553 O 977.598 2.27316 5.57325 0
M  V30 10554 H 981.424 2.01001 2.27667 0
M  V30 10555 H 979.009 1.0371 1.07539 0
M  V30 10556 H 980.891 0.472124 4.18747 0
M  V30 10557 H 979.566 -0.241667 3.22797 0
M  V30 10558 H 978.473 2.07286 3.11421 0
M  V30 10559 H 979.806 2.71083 4.10822 0
M  V30 10560 N 981.458 -1.16348 1.06306 0
M  V30 10561 C 982.406 -2.22799 0.668087 0
M  V30 10562 C 983.4 -1.66426 -0.316051 0
M  V30 10563 O 984.606 -1.79089 -0.180902 0
M  V30 10564 H 980.981 -0.725487 0.19792 0
M  V30 10565 H 982.952 -2.53401 1.57577 0
M  V30 10566 C 981.701 -3.47628 0.0706797 0
M  V30 10567 H 981.024 -3.9132 0.819064 0
M  V30 10568 H 982.464 -4.23666 -0.16816 0
M  V30 10569 C 980.923 -3.15343 -1.18577 0
M  V30 10570 O 981.453 -3.31158 -2.27371 0
M  V30 10571 N 979.659 -2.69472 -1.08779 0
M  V30 10572 H 979.206 -2.56803 -0.202447 0
M  V30 10573 H 979.164 -2.48244 -1.92931 0
M  V30 10574 N 982.937 -0.845659 -1.3299 0
M  V30 10575 C 983.885 -0.272412 -2.30999 0
M  V30 10576 C 984.879 0.599311 -1.58444 0
M  V30 10577 O 986.085 0.488117 -1.73255 0
M  V30 10578 H 982.46 -0.0693751 -0.748793 0
M  V30 10579 H 984.431 -1.11343 -2.76849 0
M  V30 10580 C 983.18 0.532019 -3.43606 0
M  V30 10581 H 982.503 -0.129455 -3.9959 0
M  V30 10582 H 983.943 0.898853 -4.14363 0
M  V30 10583 C 982.402 1.71364 -2.90062 0
M  V30 10584 O 982.932 2.81252 -2.8681 0
M  V30 10585 N 981.138 1.53775 -2.4658 0
M  V30 10586 H 980.685 0.643836 -2.49424 0
M  V30 10587 H 980.643 2.32982 -2.11108 0
M  V30 10588 N 984.415 1.45619 -0.602734 0
M  V30 10589 C 985.663 2.01873 -0.095844 0
M  V30 10590 C 985.984 1.47427 1.27633 0
M  V30 10591 O 985.254 0.666652 1.84208 0
M  V30 10592 H 983.834 0.746295 -0.0324408 0
M  V30 10593 H 986.496 1.78478 -0.783037 0
M  V30 10594 H 985.592 3.12072 -0.0419507 0
M  V30 10595 N 985.893 0.34162 1.53853 0
M  V30 10596 C 987.17 -0.310664 1.93117 0
M  V30 10597 C 987.55 -1.68398 1.273 0
M  V30 10598 O 986.898 -2.24546 0.423225 0
M  V30 10599 C 987.108 -0.384867 3.46871 0
M  V30 10600 C 988.456 -0.636621 4.198 0
M  V30 10601 O 989.48 -0.467061 3.53125 0
M  V30 10602 O 988.339 -0.964962 5.37913 0
M  V30 10603 H 985.433 -0.180881 0.806977 0
M  V30 10604 H 987.979 0.392656 1.65095 0
M  V30 10605 H 986.751 0.57894 3.86994 0
M  V30 10606 H 986.374 -1.13505 3.81054 0
M  V30 10607 N 987.371 -1.57444 0.0701946 0
M  V30 10608 C 988.319 -2.13834 -0.915302 0
M  V30 10609 C 989.313 -1.07483 -1.30934 0
M  V30 10610 O 990.519 -1.25865 -1.28678 0
M  V30 10611 H 986.894 -0.683716 -0.313108 0
M  V30 10612 H 988.865 -2.95503 -0.414758 0
M  V30 10613 C 987.614 -2.71355 -2.17398 0
M  V30 10614 H 986.937 -3.52861 -1.87961 0
M  V30 10615 H 988.377 -3.1441 -2.84469 0
M  V30 10616 C 986.836 -1.66038 -2.93143 0
M  V30 10617 O 987.366 -1.08443 -3.86786 0
M  V30 10618 N 985.572 -1.3711 -2.56221 0
M  V30 10619 H 985.119 -1.84135 -1.80145 0
M  V30 10620 H 985.077 -0.66877 -3.07205 0
M  V30 10621 N 988.849 0.203349 -1.56283 0
M  V30 10622 C 989.797 1.27157 -1.94766 0
M  V30 10623 C 990.791 1.4756 -0.832005 0
M  V30 10624 O 991.997 1.48519 -1.01696 0
M  V30 10625 H 988.372 0.426712 -0.61921 0
M  V30 10626 H 990.343 0.919921 -2.83866 0
M  V30 10627 C 989.092 2.6108 -2.29636 0
M  V30 10628 H 988.415 2.46193 -3.15006 0
M  V30 10629 H 989.855 3.34591 -2.60433 0
M  V30 10630 C 988.314 3.17456 -1.12799 0
M  V30 10631 O 988.844 3.99717 -0.398661 0
M  V30 10632 N 987.05 2.76084 -0.906975 0
M  V30 10633 H 986.597 2.09294 -1.50179 0
M  V30 10634 H 986.555 3.14143 -0.127005 0
M  V30 10635 N 990.327 1.50405 0.470755 0
M  V30 10636 C 991.277 1.65681 1.56633 0
M  V30 10637 C 992.261 0.511424 1.52556 0
M  V30 10638 O 993.453 0.765844 1.59574 0
M  V30 10639 C 990.582 1.7546 2.95074 0
M  V30 10640 C 989.668 2.95676 3.04034 0
M  V30 10641 N 990.059 4.1935 2.82807 0
M  V30 10642 C 988.357 2.94241 3.35169 0
M  V30 10643 C 989.058 5.0032 2.96741 0
M  V30 10644 N 988.034 4.34282 3.26956 0
M  V30 10645 H 991.836 2.58994 1.38922 0
M  V30 10646 H 989.35 1.47593 0.67749 0
M  V30 10647 H 991.347 1.84508 3.73848 0
M  V30 10648 H 990.007 0.833057 3.13832 0
M  V30 10649 H 991.018 4.48842 2.58382 0
M  V30 10650 H 987.695 2.11587 3.59913 0
M  V30 10651 H 989.085 6.08664 2.84566 0
M  V30 10652 N 991.805 -0.723954 1.39988 0
M  V30 10653 C 992.753 -1.85938 1.39749 0
M  V30 10654 C 993.747 -1.67085 0.279112 0
M  V30 10655 O 994.953 -1.74291 0.44972 0
M  V30 10656 H 991.328 -0.612246 0.436644 0
M  V30 10657 H 993.299 -1.83255 2.355 0
M  V30 10658 C 992.048 -3.23726 1.26874 0
M  V30 10659 H 991.371 -3.38835 2.12206 0
M  V30 10660 H 992.811 -4.03332 1.30765 0
M  V30 10661 C 991.27 -3.36893 -0.0218317 0
M  V30 10662 O 991.8 -3.89363 -0.987905 0
M  V30 10663 N 990.006 -2.90465 -0.0885618 0
M  V30 10664 H 989.553 -2.47954 0.698314 0
M  V30 10665 H 989.511 -2.99654 -0.951557 0
M  V30 10666 N 993.283 -1.25346 -0.955304 0
M  V30 10667 C 994.532 -1.0945 -1.69421 0
M  V30 10668 C 994.845 0.364459 -1.92175 0
M  V30 10669 O 996.051 0.643843 -2.63755 0
M  V30 10670 C 994.507 -1.91045 -3.05008 0
M  V30 10671 C 994.115 -3.41428 -2.90053 0
M  V30 10672 C 995.859 -1.83716 -3.82686 0
M  V30 10673 C 993.766 -4.1532 -4.21026 0
M  V30 10674 H 992.696 -0.405978 -0.635372 0
M  V30 10675 H 995.347 -1.49536 -1.06354 0
M  V30 10676 H 993.729 -1.43781 -3.68975 0
M  V30 10677 H 994.903 -3.9636 -2.35022 0
M  V30 10678 H 993.218 -3.49842 -2.25831 0
M  V30 10679 H 995.815 -2.36217 -4.79693 0
M  V30 10680 H 996.158 -0.804919 -4.08444 0
M  V30 10681 H 996.691 -2.28726 -3.25468 0
M  V30 10682 H 993.43 -5.18955 -4.00457 0
M  V30 10683 H 992.95 -3.65172 -4.75825 0
M  V30 10684 H 994.629 -4.22999 -4.89572 0
M  V30 10685 N 994.761 1.15782 -1.06922 0
M  V30 10686 C 995.986 1.90896 -0.810771 0
M  V30 10687 C 996.411 1.77246 0.629714 0
M  V30 10688 O 995.769 1.10215 1.43953 0
M  V30 10689 C 995.817 3.39397 -1.21829 0
M  V30 10690 O 994.921 4.10818 -0.360934 0
M  V30 10691 H 994.262 0.594497 -0.295752 0
M  V30 10692 H 996.792 1.46652 -1.42669 0
M  V30 10693 H 996.802 3.90181 -1.19259 0
M  V30 10694 H 995.477 3.4865 -2.2675 0
M  V30 10695 H 994.054 3.7019 -0.448748 0
M  V30 10696 N 996.239 0.8527 1.3254 0
M  V30 10697 C 997.516 0.376491 1.91942 0
M  V30 10698 C 997.896 -1.13972 1.7769 0
M  V30 10699 O 997.244 -1.96047 1.17379 0
M  V30 10700 C 997.454 0.838694 3.38773 0
M  V30 10701 C 998.802 0.854736 4.15908 0
M  V30 10702 O 999.826 0.783203 3.47483 0
M  V30 10703 O 998.685 0.955207 5.38087 0
M  V30 10704 H 995.779 0.109412 0.81973 0
M  V30 10705 H 998.325 0.93947 1.41322 0
M  V30 10706 H 997.097 1.88179 3.43081 0
M  V30 10707 H 996.72 0.253055 3.96794 0
M  V30 10708 N 997.718 -1.45297 0.610449 0
M  V30 10709 C 998.995 -1.95562 0.0386189 0
M  V30 10710 C 999.375 -1.55284 -1.43004 0
M  V30 10711 O 998.723 -0.816785 -2.13403 0
M  V30 10712 C 998.933 -3.48176 0.239731 0
M  V30 10713 C 1000.28 -4.24425 0.122035 0
M  V30 10714 O 1001.3 -3.55794 0.170003 0
M  V30 10715 O 1000.16 -5.46499 0.00953695 0
M  V30 10716 H 997.258 -0.826296 -0.0341081 0
M  V30 10717 H 999.804 -1.55449 0.68071 0
M  V30 10718 H 998.576 -3.70471 1.25963 0
M  V30 10719 H 998.199 -3.95186 -0.437486 0
M  V30 10720 N 999.196 -0.349774 -1.5367 0
M  V30 10721 C 1000.14 0.504121 -2.25227 0
M  V30 10722 C 1001.11 1.09048 -1.2529 0
M  V30 10723 O 1002.3 1.12594 -1.54037 0
M  V30 10724 C 999.438 1.64601 -3.03316 0
M  V30 10725 C 998.551 1.08635 -4.18118 0
M  V30 10726 C 997.686 2.19605 -4.83681 0
M  V30 10727 C 996.725 1.61023 -5.90541 0
M  V30 10728 N 995.862 2.6576 -6.49858 0
M  V30 10729 H 1000.7 -0.112621 -2.97787 0
M  V30 10730 H 998.239 -0.0673503 -1.46946 0
M  V30 10731 H 1000.2 2.31836 -3.46854 0
M  V30 10732 H 998.827 2.23364 -2.33041 0
M  V30 10733 H 997.879 0.304748 -3.79177 0
M  V30 10734 H 999.191 0.617911 -4.94958 0
M  V30 10735 H 998.345 2.94693 -5.30322 0
M  V30 10736 H 997.084 2.69795 -4.06278 0
M  V30 10737 H 996.089 0.844428 -5.43277 0
M  V30 10738 H 997.314 1.11677 -6.69855 0
M  V30 10739 H 995.26 3.15193 -5.75317 0
M  V30 10740 H 995.177 2.23557 -7.2219 0
M  V30 10741 H 996.445 3.40598 -7.01151 0
M  V30 10742 N 1000.67 1.57404 -0.0785433 0
M  V30 10743 C 1001.64 2.11977 0.871693 0
M  V30 10744 C 1002.64 1.04529 1.2219 0
M  V30 10745 O 1003.83 1.30488 1.15406 0
M  V30 10746 C 1000.96 2.6267 2.17296 0
M  V30 10747 H 1002.15 2.97246 0.398115 0
M  V30 10748 H 999.705 1.5537 0.170251 0
M  V30 10749 H 1000.44 1.80873 2.69175 0
M  V30 10750 H 1000.22 3.41214 1.93171 0
M  V30 10751 H 1001.71 3.04943 2.85306 0
M  V30 10752 N 1002.15 -0.195058 1.56388 0
M  V30 10753 C 1003.57 -0.545894 1.49974 0
M  V30 10754 C 1003.77 -1.85851 0.778568 0
M  V30 10755 O 1002.82 -2.50346 0.329105 0
M  V30 10756 C 1004.14 -0.600599 2.94641 0
M  V30 10757 C 1005.68 -0.689429 3.05313 0
M  V30 10758 C 1006.16 -0.775243 4.51391 0
M  V30 10759 N 1007.65 -0.838769 4.55542 0
M  V30 10760 C 1008.39 -0.925337 5.65884 0
M  V30 10761 N 1007.88 -0.974204 6.85916 0
M  V30 10762 N 1009.67 -0.962528 5.53798 0
M  V30 10763 H 1001.83 0.66595 2.0169 0
M  V30 10764 H 1004.09 0.237215 0.917842 0
M  V30 10765 H 1003.79 0.29478 3.50462 0
M  V30 10766 H 1003.67 -1.45528 3.47996 0
M  V30 10767 H 1006.06 -1.57524 2.4954 0
M  V30 10768 H 1006.14 0.191451 2.55083 0
M  V30 10769 H 1005.78 0.106215 5.07789 0
M  V30 10770 H 1005.71 -1.67193 4.99354 0
M  V30 10771 H 1008.2 -0.810249 3.69112 0
M  V30 10772 H 1008.51 -1.04077 7.6576 0
M  V30 10773 H 1006.86 -0.942881 6.88574 0
M  V30 10774 H 1010.05 -0.921188 4.58946 0
M  V30 10775 H 1010.22 -1.02653 6.39817 0
M  V30 10776 N 1003.63 -1.50653 -0.462772 0
M  V30 10777 C 1004.91 -1.5258 -1.22387 0
M  V30 10778 C 1005.29 -0.275263 -2.09298 0
M  V30 10779 O 1004.63 0.740943 -2.16153 0
M  V30 10780 C 1004.84 -2.82611 -2.04773 0
M  V30 10781 C 1006.19 -3.33592 -2.62681 0
M  V30 10782 O 1007.22 -2.83989 -2.15008 0
M  V30 10783 O 1006.08 -4.20081 -3.49563 0
M  V30 10784 H 1003.17 -0.612367 -0.55582 0
M  V30 10785 H 1005.72 -1.62948 -0.473914 0
M  V30 10786 H 1004.49 -3.65098 -1.40781 0
M  V30 10787 H 1004.11 -2.75286 -2.86886 0
M  V30 10788 N 1005.11 0.71652 -1.4037 0
M  V30 10789 C 1006.36 1.47347 -1.38324 0
M  V30 10790 C 1006.68 1.94995 0.0139949 0
M  V30 10791 O 1005.95 1.7028 0.968585 0
M  V30 10792 H 1004.53 0.546662 -0.509087 0
M  V30 10793 H 1007.19 0.849455 -1.75415 0
M  V30 10794 H 1006.29 2.34675 -2.05752 0
M  V30 10795 N 1006.59 1.25851 0.948643 0
M  V30 10796 C 1007.83 1.10735 1.69062 0
M  V30 10797 C 1008.16 -0.351257 1.9181 0
M  V30 10798 O 1007.43 -1.24867 1.50947 0
M  V30 10799 H 1006.01 0.406796 0.626519 0
M  V30 10800 H 1008.67 1.58066 1.14022 0
M  V30 10801 H 1007.76 1.62033 2.66743 0
M  V30 10802 N 1008.06 -1.15214 1.07534 0
M  V30 10803 C 1009.29 -1.90463 0.820883 0
M  V30 10804 C 1009.71 -1.77578 -0.620305 0
M  V30 10805 O 1009.07 -1.10976 -1.43366 0
M  V30 10806 C 1009.12 -3.38746 1.23627 0
M  V30 10807 O 1008.22 -4.1062 0.382715 0
M  V30 10808 H 1007.57 -0.59292 0.298901 0
M  V30 10809 H 1010.1 -1.45893 1.43445 0
M  V30 10810 H 1010.11 -3.89543 1.21327 0
M  V30 10811 H 1008.78 -3.47443 2.28596 0
M  V30 10812 H 1007.36 -3.69947 0.468374 0
M  V30 10813 N 1009.54 -0.859717 -1.32086 0
M  V30 10814 C 1010.77 -0.478865 -2.01796 0
M  V30 10815 C 1011.19 0.918274 -1.64163 0
M  V30 10816 O 1010.55 1.60409 -0.844896 0
M  V30 10817 C 1010.6 -0.631356 -3.5503 0
M  V30 10818 O 1009.7 0.333712 -4.11048 0
M  V30 10819 H 1009.04 -0.191775 -0.635703 0
M  V30 10820 H 1011.57 -1.16031 -1.68517 0
M  V30 10821 H 1011.58 -0.520783 -4.04663 0
M  V30 10822 H 1010.26 -1.65015 -3.81763 0
M  V30 10823 H 1008.84 0.178953 -3.7247 0
M  V30 10824 N 1011.02 1.44971 -0.618145 0
M  V30 10825 C 1012.43 1.85611 -0.201334 0
M  V30 10826 C 1012.78 1.51698 1.24427 0
M  V30 10827 O 1011.91 0.94875 1.94493 0
M  V30 10828 C 1012.5 3.36897 -0.358619 0
M  V30 10829 C 1011.06 3.764 0.00358196 0
M  V30 10830 C 1010.21 2.68881 -0.678118 0
M  V30 10831 H 1013.16 1.35622 -0.824152 0
M  V30 10832 H 1013.18 3.78326 0.406176 0
M  V30 10833 H 1012.69 3.61548 -1.41084 0
M  V30 10834 H 1010.79 3.57365 1.05457 0
M  V30 10835 H 1010.91 4.77449 -0.397427 0
M  V30 10836 H 1009.27 2.54442 -0.114699 0
M  V30 10837 H 1010.05 2.96367 -1.73268 0
M  V30 10838 N 1012.5 0.357919 1.53482 0
M  V30 10839 C 1013.73 -0.23514 2.05559 0
M  V30 10840 C 1014.14 -1.43068 1.23195 0
M  V30 10841 O 1013.5 -1.80481 0.270741 0
M  V30 10842 C 1013.55 -0.636147 3.55859 0
M  V30 10843 O 1013.27 0.511864 4.35099 0
M  V30 10844 C 1014.77 -1.28841 4.24164 0
M  V30 10845 H 1011.99 -0.0428446 0.669631 0
M  V30 10846 H 1014.54 0.51407 1.97933 0
M  V30 10847 H 1012.69 -1.33528 3.63661 0
M  V30 10848 H 1013.1 0.189328 5.24158 0
M  V30 10849 H 1014.58 -1.51962 5.30671 0
M  V30 10850 H 1015.06 -2.24638 3.77405 0
M  V30 10851 H 1015.66 -0.630914 4.20594 0
M  V30 10852 N 1013.98 -1.5736 0.0868897 0
M  V30 10853 C 1015.2 -1.98809 -0.590757 0
M  V30 10854 C 1015.63 -0.965407 -1.61436 0
M  V30 10855 O 1014.98 0.067143 -1.81176 0
M  V30 10856 C 1015.03 -3.39249 -1.22238 0
M  V30 10857 O 1014.14 -3.39706 -2.33824 0
M  V30 10858 H 1013.48 -0.64669 -0.150626 0
M  V30 10859 H 1016.01 -2.03927 0.165873 0
M  V30 10860 H 1016.02 -3.76765 -1.56564 0
M  V30 10861 H 1014.69 -4.13208 -0.472434 0
M  V30 10862 H 1013.27 -3.13977 -2.01178 0
M  V30 10863 N 1015.45 0.186762 -1.56489 0
M  V30 10864 C 1016.68 0.925916 -1.85584 0
M  V30 10865 C 1017.1 1.75708 -0.671446 0
M  V30 10866 O 1016.46 1.7728 0.379687 0
M  V30 10867 C 1016.51 1.79107 -3.12975 0
M  V30 10868 O 1015.61 2.89088 -2.94112 0
M  V30 10869 H 1014.96 0.260275 -0.610863 0
M  V30 10870 H 1017.49 0.189561 -2.0372 0
M  V30 10871 H 1017.5 2.19408 -3.43983 0
M  V30 10872 H 1016.17 1.18044 -3.98796 0
M  V30 10873 H 1014.75 2.52482 -2.74422 0
M  V30 10874 N 1016.93 1.50896 0.454776 0
M  V30 10875 C 1017.9 1.70377 1.53312 0
M  V30 10876 C 1018.9 0.57408 1.50203 0
M  V30 10877 O 1020.09 0.841374 1.52534 0
M  V30 10878 C 1017.22 1.74411 2.92905 0
M  V30 10879 H 1018.41 2.66599 1.37349 0
M  V30 10880 H 1015.96 1.40622 0.68228 0
M  V30 10881 H 1016.7 0.799408 3.14293 0
M  V30 10882 H 1016.48 2.56496 2.96568 0
M  V30 10883 H 1017.97 1.91382 3.71164 0
M  V30 10884 N 1018.41 -0.709066 1.40748 0
M  V30 10885 C 1019.36 -1.82312 1.4153 0
M  V30 10886 C 1020.33 -1.63868 0.271392 0
M  V30 10887 O 1021.51 -1.8491 0.470431 0
M  V30 10888 C 1018.65 -3.2008 1.29006 0
M  V30 10889 C 1017.77 -3.50051 2.53156 0
M  V30 10890 C 1016.9 -4.7736 2.33025 0
M  V30 10891 C 1015.94 -5.00255 3.52719 0
M  V30 10892 N 1015.08 -6.18782 3.31743 0
M  V30 10893 H 1019.92 -1.80978 2.36751 0
M  V30 10894 H 1017.45 -0.883975 1.17577 0
M  V30 10895 H 1019.41 -3.99645 1.19749 0
M  V30 10896 H 1018.04 -3.20626 0.374014 0
M  V30 10897 H 1017.09 -2.64993 2.72916 0
M  V30 10898 H 1018.41 -3.62877 3.42231 0
M  V30 10899 H 1017.56 -5.64954 2.21159 0
M  V30 10900 H 1016.3 -4.66756 1.41386 0
M  V30 10901 H 1015.3 -4.11114 3.65055 0
M  V30 10902 H 1016.53 -5.12728 4.45295 0
M  V30 10903 H 1014.47 -6.09416 2.42791 0
M  V30 10904 H 1014.39 -6.32313 4.14386 0
M  V30 10905 H 1015.66 -7.09146 3.23623 0
M  V30 10906 N 1019.89 -1.26353 -0.941956 0
M  V30 10907 C 1020.84 -1.07842 -2.04056 0
M  V30 10908 C 1021.81 0.0163064 -1.66092 0
M  V30 10909 O 1022.99 -0.143313 -1.90261 0
M  V30 10910 C 1020.13 -0.716636 -3.37577 0
M  V30 10911 C 1019.24 -1.88754 -3.88582 0
M  V30 10912 C 1018.38 -1.46893 -5.10486 0
M  V30 10913 C 1017.42 -2.60819 -5.53751 0
M  V30 10914 N 1016.56 -2.19646 -6.66858 0
M  V30 10915 H 1021.4 -2.01856 -2.19221 0
M  V30 10916 H 1018.93 -1.00504 -1.07412 0
M  V30 10917 H 1020.89 -0.487768 -4.14339 0
M  V30 10918 H 1019.52 0.18653 -3.22261 0
M  V30 10919 H 1018.57 -2.22936 -3.08227 0
M  V30 10920 H 1019.88 -2.74264 -4.1663 0
M  V30 10921 H 1019.04 -1.20047 -5.94705 0
M  V30 10922 H 1017.78 -0.584721 -4.84182 0
M  V30 10923 H 1016.78 -2.88396 -4.6809 0
M  V30 10924 H 1018.01 -3.49838 -5.82057 0
M  V30 10925 H 1015.95 -1.33657 -6.4224 0
M  V30 10926 H 1015.87 -2.987 -6.94489 0
M  V30 10927 H 1017.14 -1.96009 -7.54454 0
M  V30 10928 N 1021.37 1.14642 -1.08144 0
M  V30 10929 C 1022.6 1.89484 -0.830864 0
M  V30 10930 C 1023.01 1.78443 0.616722 0
M  V30 10931 O 1022.37 1.14191 1.42361 0
M  V30 10932 C 1022.42 3.39554 -1.24039 0
M  V30 10933 O 1022.14 3.50286 -2.63119 0
M  V30 10934 C 1023.64 4.31399 -1.02029 0
M  V30 10935 H 1020.86 0.600283 -0.299835 0
M  V30 10936 H 1023.4 1.45204 -1.44001 0
M  V30 10937 H 1021.56 3.81467 -0.675407 0
M  V30 10938 H 1021.97 4.43481 -2.80045 0
M  V30 10939 H 1023.45 5.35079 -1.35625 0
M  V30 10940 H 1023.92 4.39179 0.0428697 0
M  V30 10941 H 1024.53 3.95238 -1.57057 0
M  V30 10942 N 1022.85 0.866709 1.31628 0
M  V30 10943 C 1023.79 0.318169 2.28596 0
M  V30 10944 C 1024.76 -0.581558 1.55586 0
M  V30 10945 O 1025.95 -0.513895 1.83749 0
M  V30 10946 C 1023.09 -0.477137 3.41786 0
M  V30 10947 C 1022.2 0.449739 4.29653 0
M  V30 10948 C 1021.34 -0.359373 5.29983 0
M  V30 10949 C 1020.37 0.564138 6.09495 0
M  V30 10950 N 1019.51 -0.208526 7.0179 0
M  V30 10951 H 1024.35 1.15029 2.74904 0
M  V30 10952 H 1021.89 0.578649 1.35241 0
M  V30 10953 H 1023.85 -0.953985 4.06146 0
M  V30 10954 H 1022.48 -1.27398 2.96597 0
M  V30 10955 H 1021.53 1.04502 3.65764 0
M  V30 10956 H 1022.84 1.158 4.85172 0
M  V30 10957 H 1021.99 -0.89887 6.00004 0
M  V30 10958 H 1020.73 -1.10094 4.75111 0
M  V30 10959 H 1019.74 1.11542 5.38366 0
M  V30 10960 H 1020.96 1.30451 6.66453 0
M  V30 10961 H 1018.91 -0.932969 6.49332 0
M  V30 10962 H 1018.83 0.440463 7.54716 0
M  V30 10963 H 1020.09 -0.72936 7.7608 0
M  V30 10964 N 1024.32 -1.44642 0.625825 0
M  V30 10965 C 1025.55 -2.06159 0.13492 0
M  V30 10966 C 1025.96 -1.46801 -1.19357 0
M  V30 10967 O 1025.3 -0.583345 -1.74192 0
M  V30 10968 C 1025.37 -3.5945 -0.0598481 0
M  V30 10969 C 1025.03 -4.41244 1.18965 0
M  V30 10970 C 1026.03 -4.75064 2.11212 0
M  V30 10971 C 1023.71 -4.81705 1.42359 0
M  V30 10972 C 1025.71 -5.48221 3.25165 0
M  V30 10973 C 1023.39 -5.54612 2.5661 0
M  V30 10974 C 1024.39 -5.87789 3.4784 0
M  V30 10975 O 1024.08 -6.59213 4.60101 0
M  V30 10976 H 1023.81 -0.671888 0.0744464 0
M  V30 10977 H 1026.37 -1.86586 0.858775 0
M  V30 10978 H 1024.6 -3.77493 -0.838792 0
M  V30 10979 H 1026.28 -4.02751 -0.504639 0
M  V30 10980 H 1027.05 -4.44348 1.94371 0
M  V30 10981 H 1022.93 -4.55305 0.722401 0
M  V30 10982 H 1026.47 -5.74035 3.96396 0
M  V30 10983 H 1022.37 -5.84743 2.73396 0
M  V30 10984 H 1023.14 -6.77678 4.59015 0
M  V30 10985 N 1025.8 -0.366053 -1.5329 0
M  V30 10986 C 1026.75 0.495319 -2.27265 0
M  V30 10987 C 1027.74 1.08298 -1.30261 0
M  V30 10988 O 1028.95 1.02613 -1.47887 0
M  V30 10989 H 1025.32 0.178454 -0.730519 0
M  V30 10990 H 1027.3 -0.150354 -2.98021 0
M  V30 10991 C 1026.04 1.62283 -3.07505 0
M  V30 10992 H 1025.37 1.17993 -3.81992 0
M  V30 10993 H 1026.81 2.20024 -3.62444 0
M  V30 10994 C 1025.27 2.56542 -2.18375 0
M  V30 10995 O 1025.8 3.59371 -1.79486 0
M  V30 10996 N 1024 2.25742 -1.82999 0
M  V30 10997 H 1023.55 1.42159 -2.14822 0
M  V30 10998 H 1023.51 2.89064 -1.2365 0
M  V30 10999 N 1027.28 1.57312 -0.0952337 0
M  V30 11000 C 1028.21 2.17056 0.860753 0
M  V30 11001 C 1029.19 1.10394 1.29411 0
M  V30 11002 O 1030.38 1.38532 1.36098 0
M  V30 11003 C 1027.51 2.751 2.11984 0
M  V30 11004 C 1026.46 3.87136 1.8251 0
M  V30 11005 C 1025.79 4.31883 3.15247 0
M  V30 11006 C 1027.09 5.10326 1.11194 0
M  V30 11007 H 1028.78 2.97192 0.362983 0
M  V30 11008 H 1026.33 1.42955 0.173151 0
M  V30 11009 H 1028.28 3.15547 2.79299 0
M  V30 11010 H 1027 1.92219 2.64044 0
M  V30 11011 H 1025.66 3.47229 1.17592 0
M  V30 11012 H 1025.31 3.45893 3.65195 0
M  V30 11013 H 1025.01 5.0742 2.96309 0
M  V30 11014 H 1026.53 4.74964 3.83721 0
M  V30 11015 H 1027.95 5.47942 1.6862 0
M  V30 11016 H 1026.34 5.91293 1.02435 0
M  V30 11017 H 1027.41 4.84807 0.0947227 0
M  V30 11018 N 1028.76 -0.17846 1.56586 0
M  V30 11019 C 1029.98 -0.916061 1.86073 0
M  V30 11020 C 1030.41 -1.75349 0.680754 0
M  V30 11021 O 1029.77 -1.77479 -0.37028 0
M  V30 11022 C 1029.81 -1.77445 3.1392 0
M  V30 11023 O 1028.92 -2.87524 2.95641 0
M  V30 11024 H 1028.26 -0.257031 0.612234 0
M  V30 11025 H 1030.79 -0.178755 2.03818 0
M  V30 11026 H 1030.8 -2.1758 3.45142 0
M  V30 11027 H 1029.47 -1.15927 3.99417 0
M  V30 11028 H 1028.05 -2.51023 2.75757 0
M  V30 11029 N 1030.24 -1.51135 -0.446768 0
M  V30 11030 C 1031.51 -1.5387 -1.20762 0
M  V30 11031 C 1031.89 -0.297446 -2.08994 0
M  V30 11032 O 1031.24 0.717975 -2.16927 0
M  V30 11033 C 1031.45 -2.84767 -2.01764 0
M  V30 11034 C 1032.8 -3.3636 -2.59128 0
M  V30 11035 O 1033.82 -2.86254 -2.11984 0
M  V30 11036 O 1032.68 -4.23765 -3.45088 0
M  V30 11037 H 1029.78 -0.618228 -0.549293 0
M  V30 11038 H 1032.32 -1.63442 -0.456605 0
M  V30 11039 H 1031.09 -3.6657 -1.36901 0
M  V30 11040 H 1030.72 -2.78313 -2.8395 0
M  V30 11041 N 1031.71 0.701592 -1.41122 0
M  V30 11042 C 1032.99 1.45569 -1.30648 0
M  V30 11043 C 1033.37 2.10988 0.068744 0
M  V30 11044 O 1032.72 2.01228 1.08257 0
M  V30 11045 C 1032.93 2.48003 -2.45551 0
M  V30 11046 C 1034.28 3.13431 -2.86437 0
M  V30 11047 O 1035.3 2.58327 -2.45247 0
M  V30 11048 O 1034.16 4.13221 -3.57646 0
M  V30 11049 H 1031.25 0.648 -0.513834 0
M  V30 11050 H 1033.8 0.73258 -1.53073 0
M  V30 11051 H 1032.57 1.98276 -3.37346 0
M  V30 11052 H 1032.19 3.27832 -2.24971 0
M  V30 11053 N 1033.19 1.2685 0.935242 0
M  V30 11054 C 1034.14 1.08746 2.05614 0
M  V30 11055 C 1035.13 0.012681 1.69395 0
M  V30 11056 O 1036.34 0.169822 1.79197 0
M  V30 11057 H 1032.71 0.33485 0.673335 0
M  V30 11058 H 1034.69 2.03725 2.18033 0
M  V30 11059 C 1033.43 0.74346 3.39659 0
M  V30 11060 H 1032.76 1.56236 3.68008 0
M  V30 11061 H 1034.2 0.656607 4.18885 0
M  V30 11062 C 1032.66 -0.551751 3.32351 0
M  V30 11063 O 1033.19 -1.58836 3.68963 0
M  V30 11064 N 1031.39 -0.544583 2.85452 0
M  V30 11065 H 1030.94 0.29939 2.55854 0
M  V30 11066 H 1030.9 -1.41129 2.80945 0
M  V30 11067 N 1034.67 -1.14067 1.0875 0
M  V30 11068 C 1035.62 -2.21332 0.715195 0
M  V30 11069 C 1036.61 -1.67059 -0.280679 0
M  V30 11070 O 1037.82 -1.79432 -0.142874 0
M  V30 11071 H 1034.19 -0.721126 0.213264 0
M  V30 11072 H 1036.16 -2.50002 1.62916 0
M  V30 11073 C 1034.91 -3.474 0.144401 0
M  V30 11074 H 1034.24 -3.89495 0.901884 0
M  V30 11075 H 1035.68 -4.23928 -0.0782564 0
M  V30 11076 C 1034.14 -3.17787 -1.11862 0
M  V30 11077 O 1034.67 -3.35906 -2.20295 0
M  V30 11078 N 1032.87 -2.71719 -1.03039 0
M  V30 11079 H 1032.42 -2.57175 -0.14793 0
M  V30 11080 H 1032.38 -2.52281 -1.87621 0
M  V30 11081 N 1036.15 -0.873678 -1.31166 0
M  V30 11082 C 1037.1 -0.321349 -2.3037 0
M  V30 11083 C 1038.09 0.565568 -1.5968 0
M  V30 11084 O 1039.3 0.451257 -1.74252 0
M  V30 11085 H 1035.67 -0.0852425 -0.747153 0
M  V30 11086 H 1037.64 -1.17191 -2.74425 0
M  V30 11087 C 1036.39 0.459016 -3.44657 0
M  V30 11088 H 1035.71 -0.214185 -3.99226 0
M  V30 11089 H 1037.15 0.810758 -4.16176 0
M  V30 11090 C 1035.61 1.65173 -2.93632 0
M  V30 11091 O 1036.14 2.75105 -2.92711 0
M  V30 11092 N 1034.35 1.4851 -2.49786 0
M  V30 11093 H 1033.9 0.590785 -2.50734 0
M  V30 11094 H 1033.85 2.28452 -2.16002 0
M  V30 11095 N 1037.63 1.44308 -0.633487 0
M  V30 11096 C 1038.57 2.32455 0.0821956 0
M  V30 11097 C 1039.57 1.47482 0.833388 0
M  V30 11098 O 1040.77 1.63812 0.746021 0
M  V30 11099 H 1037.15 0.750631 0.045352 0
M  V30 11100 H 1039.12 2.90566 -0.679282 0
M  V30 11101 C 1037.87 3.31512 1.04858 0
M  V30 11102 H 1037.19 3.96908 0.479979 0
M  V30 11103 H 1038.63 3.95865 1.51879 0
M  V30 11104 C 1037.09 2.60615 2.13498 0
M  V30 11105 O 1037.62 2.40682 3.21613 0
M  V30 11106 N 1035.83 2.20315 1.89499 0
M  V30 11107 H 1035.37 2.36726 1.01581 0
M  V30 11108 H 1035.33 1.73205 2.62388 0
M  V30 11109 N 1039.1 0.374177 1.53094 0
M  V30 11110 C 1040.05 -0.48326 2.27524 0
M  V30 11111 C 1041.05 -1.07606 1.30833 0
M  V30 11112 O 1042.25 -1.01827 1.48429 0
M  V30 11113 H 1038.63 -0.174578 0.731455 0
M  V30 11114 H 1040.6 0.166156 2.97937 0
M  V30 11115 C 1039.35 -1.6065 3.08362 0
M  V30 11116 H 1038.67 -1.15966 3.82612 0
M  V30 11117 H 1040.11 -2.18099 3.63606 0
M  V30 11118 C 1038.57 -2.55381 2.19732 0
M  V30 11119 O 1039.1 -3.58414 1.8139 0
M  V30 11120 N 1037.31 -2.24769 1.84194 0
M  V30 11121 H 1036.85 -1.41018 2.15573 0
M  V30 11122 H 1036.81 -2.88404 1.25181 0
M  V30 11123 N 1040.58 -1.57259 0.103575 0
M  V30 11124 C 1041.53 -2.15727 -0.869739 0
M  V30 11125 C 1042.52 -1.10236 -1.28625 0
M  V30 11126 O 1043.73 -1.28567 -1.25979 0
M  V30 11127 H 1040.11 -0.690204 -0.298535 0
M  V30 11128 H 1042.08 -2.96317 -0.351984 0
M  V30 11129 C 1040.83 -2.75905 -2.11593 0
M  V30 11130 H 1040.15 -3.56768 -1.80434 0
M  V30 11131 H 1041.59 -3.20373 -2.77736 0
M  V30 11132 C 1040.05 -1.72218 -2.89556 0
M  V30 11133 O 1040.58 -1.16623 -3.84398 0
M  V30 11134 N 1038.78 -1.42514 -2.53255 0
M  V30 11135 H 1038.33 -1.87914 -1.76198 0
M  V30 11136 H 1038.29 -0.733782 -3.05717 0
M  V30 11137 N 1042.06 0.170153 -1.56679 0
M  V30 11138 C 1043.01 1.22997 -1.9742 0
M  V30 11139 C 1044 1.45762 -0.863117 0
M  V30 11140 O 1045.21 1.46328 -1.04824 0
M  V30 11141 H 1041.58 0.413482 -0.628122 0
M  V30 11142 H 1043.55 0.859502 -2.85754 0
M  V30 11143 C 1042.3 2.5615 -2.35122 0
M  V30 11144 H 1041.63 2.39456 -3.20158 0
M  V30 11145 H 1043.07 3.28991 -2.67471 0
M  V30 11146 C 1041.53 3.14992 -1.19507 0
M  V30 11147 O 1042.06 3.98781 -0.483357 0
M  V30 11148 N 1040.26 2.74098 -0.965332 0
M  V30 11149 H 1039.81 2.06062 -1.54585 0
M  V30 11150 H 1039.77 3.13803 -0.193611 0
M  V30 11151 N 1043.54 1.5137 0.438746 0
M  V30 11152 C 1044.49 1.73154 1.55308 0
M  V30 11153 C 1045.48 0.597825 1.58501 0
M  V30 11154 O 1046.69 0.77917 1.62262 0
M  V30 11155 H 1043.06 0.547083 0.51595 0
M  V30 11156 H 1045.03 2.66566 1.34108 0
M  V30 11157 C 1043.78 1.87242 2.92977 0
M  V30 11158 H 1043.1 2.73884 2.91252 0
M  V30 11159 H 1044.54 2.06497 3.70317 0
M  V30 11160 C 1043 0.631887 3.30921 0
M  V30 11161 O 1043.53 -0.214099 4.01129 0
M  V30 11162 N 1041.74 0.47639 2.86669 0
M  V30 11163 H 1041.29 1.16589 2.29706 0
M  V30 11164 H 1041.24 -0.352403 3.12419 0
M  V30 11165 N 1045.02 -0.694098 1.41492 0
M  V30 11166 C 1046.27 -1.4498 1.40227 0
M  V30 11167 C 1046.58 -1.95594 0.0151253 0
M  V30 11168 O 1047.78 -2.71234 -0.120146 0
M  V30 11169 C 1046.24 -2.62171 2.46565 0
M  V30 11170 C 1045.85 -2.18337 3.91194 0
M  V30 11171 C 1047.59 -3.39796 2.54439 0
M  V30 11172 C 1045.5 -3.32495 4.89082 0
M  V30 11173 H 1044.43 -0.544584 0.521483 0
M  V30 11174 H 1047.08 -0.75337 1.67322 0
M  V30 11175 H 1045.46 -3.34089 2.12604 0
M  V30 11176 H 1046.64 -1.53698 4.34412 0
M  V30 11177 H 1044.95 -1.53702 3.86994 0
M  V30 11178 H 1047.55 -4.2478 3.24755 0
M  V30 11179 H 1047.89 -3.85082 1.5817 0
M  V30 11180 H 1048.42 -2.74935 2.87499 0
M  V30 11181 H 1045.16 -2.92219 5.86761 0
M  V30 11182 H 1044.68 -3.95978 4.50512 0
M  V30 11183 H 1046.36 -3.98251 5.09907 0
M  V30 11184 N 1046.49 -1.27344 -0.928501 0
M  V30 11185 C 1047.44 -1.09835 -2.05034 0
M  V30 11186 C 1048.44 -0.0216643 -1.69386 0
M  V30 11187 O 1049.64 -0.179323 -1.79105 0
M  V30 11188 H 1046.02 -0.338416 -0.671549 0
M  V30 11189 H 1047.99 -2.04879 -2.1695 0
M  V30 11190 C 1046.74 -0.761462 -3.3926 0
M  V30 11191 H 1046.06 -1.58186 -3.67175 0
M  V30 11192 H 1047.5 -0.678812 -4.18531 0
M  V30 11193 C 1045.96 0.534118 -3.32639 0
M  V30 11194 O 1046.49 1.56877 -3.69801 0
M  V30 11195 N 1044.7 0.529437 -2.85736 0
M  V30 11196 H 1044.24 -0.312954 -2.55692 0
M  V30 11197 H 1044.2 1.39637 -2.81689 0
M  V30 11198 N 1047.97 1.13488 -1.09353 0
M  V30 11199 C 1048.92 2.20949 -0.726923 0
M  V30 11200 C 1049.91 1.67205 0.271816 0
M  V30 11201 O 1051.12 1.79505 0.133356 0
M  V30 11202 H 1047.5 0.719985 -0.217086 0
M  V30 11203 H 1049.47 2.49134 -1.6424 0
M  V30 11204 C 1048.22 3.47319 -0.162822 0
M  V30 11205 H 1047.54 3.89011 -0.922527 0
M  V30 11206 H 1048.98 4.23963 0.0557734 0
M  V30 11207 C 1047.44 3.18376 1.10175 0
M  V30 11208 O 1047.97 3.3707 2.18511 0
M  V30 11209 N 1046.17 2.72262 1.01597 0
M  V30 11210 H 1045.72 2.5725 0.134289 0
M  V30 11211 H 1045.68 2.53272 1.86281 0
M  V30 11212 N 1049.45 0.880621 1.30701 0
M  V30 11213 C 1050.7 0.497611 1.966 0
M  V30 11214 C 1051.03 -0.949901 1.69383 0
M  V30 11215 O 1050.31 -1.67054 0.996152 0
M  V30 11216 C 1050.59 0.767919 3.51817 0
M  V30 11217 C 1050.44 2.26574 3.88567 0
M  V30 11218 C 1051.76 0.241502 4.39437 0
M  V30 11219 H 1048.88 0.182267 0.714106 0
M  V30 11220 H 1051.52 1.10382 1.54648 0
M  V30 11221 H 1049.67 0.251967 3.87682 0
M  V30 11222 H 1051.34 2.84977 3.62748 0
M  V30 11223 H 1049.59 2.73411 3.36792 0
M  V30 11224 H 1050.26 2.40549 4.9683 0
M  V30 11225 H 1052.73 0.683051 4.10455 0
M  V30 11226 H 1051.61 0.459997 5.46969 0
M  V30 11227 H 1051.87 -0.857068 4.33713 0
M  V30 11228 N 1050.93 -1.4397 0.641131 0
M  V30 11229 C 1052.15 -2.06818 0.155318 0
M  V30 11230 C 1052.58 -1.47665 -1.16519 0
M  V30 11231 O 1051.94 -0.58192 -1.71707 0
M  V30 11232 C 1051.99 -3.60542 0.0647537 0
M  V30 11233 O 1051.09 -4.00674 -0.976447 0
M  V30 11234 H 1050.43 -0.657962 0.0893404 0
M  V30 11235 H 1052.96 -1.84678 0.88064 0
M  V30 11236 H 1052.97 -4.07816 -0.122552 0
M  V30 11237 H 1051.65 -4.02975 1.02878 0
M  V30 11238 H 1050.22 -3.65013 -0.762905 0
M  V30 11239 N 1052.41 -0.382291 -1.52893 0
M  V30 11240 C 1053.64 0.202408 -2.05908 0
M  V30 11241 C 1054.05 1.4109 -1.25456 0
M  V30 11242 O 1053.41 1.80027 -0.29942 0
M  V30 11243 C 1053.46 0.579452 -3.56826 0
M  V30 11244 O 1053.18 -0.58102 -4.3423 0
M  V30 11245 C 1054.68 1.22076 -4.2616 0
M  V30 11246 H 1051.9 0.0321859 -0.670228 0
M  V30 11247 H 1054.44 -0.545494 -1.9709 0
M  V30 11248 H 1052.6 1.27726 -3.65739 0
M  V30 11249 H 1053.01 -0.272693 -5.23791 0
M  V30 11250 H 1054.49 1.435 -5.33021 0
M  V30 11251 H 1054.96 2.18605 -3.80931 0
M  V30 11252 H 1055.57 0.563922 -4.21545 0
M  V30 11253 N 1053.89 1.57202 -0.111913 0
M  V30 11254 C 1054.83 2.16186 0.858286 0
M  V30 11255 C 1055.83 1.10917 1.28039 0
M  V30 11256 O 1057.03 1.29233 1.25295 0
M  V30 11257 H 1053.41 0.691777 0.29487 0
M  V30 11258 H 1055.38 2.96499 0.336265 0
M  V30 11259 C 1054.13 2.77024 2.10127 0
M  V30 11260 H 1053.45 3.5772 1.78539 0
M  V30 11261 H 1054.89 3.21841 2.76033 0
M  V30 11262 C 1053.35 1.73752 2.88638 0
M  V30 11263 O 1053.88 1.18659 3.83774 0
M  V30 11264 N 1052.09 1.43855 2.52496 0
M  V30 11265 H 1051.63 1.88846 1.75199 0
M  V30 11266 H 1051.59 0.749985 3.05324 0
M  V30 11267 N 1055.36 -0.161842 1.56767 0
M  V30 11268 C 1056.59 -0.890953 1.86402 0
M  V30 11269 C 1057 -1.75918 0.696373 0
M  V30 11270 O 1056.34 -1.80461 -0.343463 0
M  V30 11271 C 1056.41 -1.81079 3.10565 0
M  V30 11272 C 1056.07 -1.12121 4.43032 0
M  V30 11273 C 1057.07 -0.482152 5.17659 0
M  V30 11274 C 1054.75 -1.11514 4.89765 0
M  V30 11275 C 1056.75 0.153772 6.37214 0
M  V30 11276 C 1054.43 -0.4754 6.09248 0
M  V30 11277 C 1055.43 0.157944 6.82817 0
M  V30 11278 O 1055.12 0.787579 8.00033 0
M  V30 11279 H 1054.85 -0.26379 0.622407 0
M  V30 11280 H 1057.41 -0.163884 2.04745 0
M  V30 11281 H 1055.64 -2.57842 2.88192 0
M  V30 11282 H 1057.32 -2.41056 3.26568 0
M  V30 11283 H 1058.09 -0.478752 4.82631 0
M  V30 11284 H 1053.97 -1.59752 4.32435 0
M  V30 11285 H 1057.51 0.648716 6.94577 0
M  V30 11286 H 1053.41 -0.476416 6.43739 0
M  V30 11287 H 1054.18 0.687769 8.15605 0
M  V30 11288 N 1056.84 -1.516 -0.430713 0
M  V30 11289 C 1057.79 -1.73975 -1.54387 0
M  V30 11290 C 1058.78 -0.606222 -1.58181 0
M  V30 11291 O 1059.99 -0.787764 -1.61846 0
M  V30 11292 H 1056.36 -0.549811 -0.513041 0
M  V30 11293 H 1058.34 -2.67274 -1.32692 0
M  V30 11294 C 1057.08 -1.88794 -2.9198 0
M  V30 11295 H 1056.41 -2.75425 -2.89795 0
M  V30 11296 H 1057.85 -2.08458 -3.69217 0
M  V30 11297 C 1056.31 -0.649427 -3.30581 0
M  V30 11298 O 1056.84 0.192823 -4.01237 0
M  V30 11299 N 1055.04 -0.491586 -2.86412 0
M  V30 11300 H 1054.59 -1.17806 -2.29084 0
M  V30 11301 H 1054.55 0.33583 -3.12601 0
M  V30 11302 N 1058.32 0.686584 -1.41858 0
M  V30 11303 C 1059.27 1.82167 -1.4463 0
M  V30 11304 C 1060.26 1.66286 -0.323313 0
M  V30 11305 O 1061.47 1.73038 -0.495773 0
M  V30 11306 H 1057.84 0.600454 -0.452724 0
M  V30 11307 H 1059.81 1.76947 -2.40276 0
M  V30 11308 C 1058.56 3.20248 -1.35412 0
M  V30 11309 H 1057.89 3.33089 -2.21115 0
M  V30 11310 H 1059.33 3.99723 -1.41413 0
M  V30 11311 C 1057.78 3.36832 -0.0674972 0
M  V30 11312 O 1058.31 3.91845 0.884325 0
M  V30 11313 N 1056.52 2.90598 0.011519 0
M  V30 11314 H 1056.07 2.46016 -0.76381 0
M  V30 11315 H 1056.03 3.02072 0.871774 0
M  V30 11316 N 1059.8 1.27835 0.921735 0
M  V30 11317 C 1061.03 1.17352 1.704 0
M  V30 11318 C 1061.44 -0.268892 1.86875 0
M  V30 11319 O 1060.8 -1.18253 1.39005 0
M  V30 11320 C 1060.85 1.85889 3.10045 0
M  V30 11321 O 1060.57 3.24495 2.94338 0
M  V30 11322 C 1062.07 1.81607 4.04393 0
M  V30 11323 H 1059.29 0.40773 0.532914 0
M  V30 11324 H 1061.83 1.68815 1.15419 0
M  V30 11325 H 1059.99 1.38316 3.61867 0
M  V30 11326 H 1060.4 3.58705 3.82663 0
M  V30 11327 H 1061.88 2.34165 4.99871 0
M  V30 11328 H 1062.35 0.786697 4.32097 0
M  V30 11329 H 1062.96 2.28822 3.58498 0
M  V30 11330 N 1061.28 -1.12907 1.09954 0
M  V30 11331 C 1062.5 -1.88679 0.861099 0
M  V30 11332 C 1062.93 -1.78853 -0.582499 0
M  V30 11333 O 1062.28 -1.13992 -1.4098 0
M  V30 11334 C 1062.33 -3.36047 1.30785 0
M  V30 11335 O 1061.44 -4.09716 0.469728 0
M  V30 11336 H 1060.78 -0.586447 0.31141 0
M  V30 11337 H 1063.31 -1.42818 1.46507 0
M  V30 11338 H 1063.32 -3.86882 1.29562 0
M  V30 11339 H 1061.99 -3.42516 2.35914 0
M  V30 11340 H 1060.57 -3.6887 0.54674 0
M  V30 11341 N 1062.75 -0.88754 -1.30232 0
M  V30 11342 C 1064.03 -0.427249 -1.90877 0
M  V30 11343 C 1064.41 1.0922 -1.80649 0
M  V30 11344 O 1063.76 1.92866 -1.22536 0
M  V30 11345 C 1063.97 -0.928219 -3.3643 0
M  V30 11346 C 1065.32 -0.964706 -4.13496 0
M  V30 11347 O 1066.34 -0.875057 -3.45284 0
M  V30 11348 O 1065.2 -1.09754 -5.35366 0
M  V30 11349 H 1062.29 -0.131107 -0.816541 0
M  V30 11350 H 1064.84 -0.976609 -1.38782 0
M  V30 11351 H 1063.61 -1.97209 -3.37971 0
M  V30 11352 H 1063.23 -0.358169 -3.95983 0
M  V30 11353 N 1064.23 1.43628 -0.648757 0
M  V30 11354 C 1065.48 2.01465 -0.16002 0
M  V30 11355 C 1065.8 1.51413 1.22878 0
M  V30 11356 O 1065.07 0.724919 1.81994 0
M  V30 11357 H 1063.65 0.744885 -0.0561672 0
M  V30 11358 H 1066.31 1.75897 -0.839422 0
M  V30 11359 H 1065.41 3.1178 -0.141213 0
M  V30 11360 N 1065.71 0.390394 1.52688 0
M  V30 11361 C 1066.94 -0.194013 2.06491 0
M  V30 11362 C 1067.36 -1.3965 1.26014 0
M  V30 11363 O 1066.72 -1.79038 0.285468 0
M  V30 11364 C 1066.77 -0.541306 3.56514 0
M  V30 11365 O 1065.87 -1.63509 3.78601 0
M  V30 11366 H 1065.21 -0.0223608 0.663623 0
M  V30 11367 H 1067.74 0.558179 1.96839 0
M  V30 11368 H 1067.75 -0.805301 3.99974 0
M  V30 11369 H 1066.43 0.337828 4.14526 0
M  V30 11370 H 1065 -1.36473 3.4703 0
M  V30 11371 N 1067.19 -1.57141 0.120249 0
M  V30 11372 C 1068.42 -1.99589 -0.545136 0
M  V30 11373 C 1068.83 -0.999951 -1.60145 0
M  V30 11374 O 1068.19 0.00698897 -1.82499 0
M  V30 11375 C 1068.24 -3.42038 -1.17014 0
M  V30 11376 O 1067.96 -4.37822 -0.156044 0
M  V30 11377 C 1069.46 -3.99625 -1.91872 0
M  V30 11378 H 1066.68 -0.655318 -0.144222 0
M  V30 11379 H 1069.23 -2.0345 0.206955 0
M  V30 11380 H 1067.38 -3.39113 -1.873 0
M  V30 11381 H 1067.79 -5.20937 -0.610317 0
M  V30 11382 H 1069.27 -5.01374 -2.30928 0
M  V30 11383 H 1069.75 -3.38836 -2.7944 0
M  V30 11384 H 1070.35 -4.061 -1.26345 0
M  V30 11385 N 1068.67 0.153526 -1.5685 0
M  V30 11386 C 1069.91 0.867232 -1.8299 0
M  V30 11387 C 1070.24 1.81462 -0.700125 0
M  V30 11388 O 1069.5 1.93207 0.311348 0
M  V30 11389 C 1069.8 1.68066 -3.15418 0
M  V30 11390 C 1069.46 0.880635 -4.42217 0
M  V30 11391 C 1068.12 0.659899 -4.76654 0
M  V30 11392 C 1070.48 0.320698 -5.20212 0
M  V30 11393 C 1067.8 -0.131588 -5.86552 0
M  V30 11394 C 1070.16 -0.457794 -6.30941 0
M  V30 11395 C 1068.82 -0.689168 -6.63933 0
M  V30 11396 H 1068.09 0.317343 -0.669608 0
M  V30 11397 H 1070.74 0.131208 -1.9105 0
M  V30 11398 H 1069.04 2.4866 -3.02779 0
M  V30 11399 H 1070.74 2.23623 -3.32857 0
M  V30 11400 H 1067.33 1.06274 -4.15215 0
M  V30 11401 H 1071.51 0.47853 -4.93988 0
M  V30 11402 H 1066.77 -0.320413 -6.1056 0
M  V30 11403 H 1070.94 -0.898839 -6.90575 0
M  V30 11404 H 1068.57 -1.30433 -7.48927 0
M  V30 11405 N 1070.14 1.51827 0.422667 0
M  V30 11406 C 1071.39 1.64893 1.16853 0
M  V30 11407 C 1071.71 0.37456 1.91369 0
M  V30 11408 O 1070.98 -0.610128 1.86157 0
M  V30 11409 H 1069.56 0.607744 0.434345 0
M  V30 11410 H 1072.23 1.88816 0.483159 0
M  V30 11411 H 1071.32 2.48361 1.89006 0
M  V30 11412 N 1071.62 -0.679052 1.4222 0
M  V30 11413 C 1072.57 -1.81398 1.45594 0
M  V30 11414 C 1073.56 -1.66112 0.332127 0
M  V30 11415 O 1074.77 -1.72772 0.504942 0
M  V30 11416 H 1071.15 -0.598045 0.455902 0
M  V30 11417 H 1073.12 -1.7567 2.41211 0
M  V30 11418 C 1071.87 -3.19525 1.37109 0
M  V30 11419 H 1071.19 -3.31912 2.22878 0
M  V30 11420 H 1072.63 -3.98967 1.43531 0
M  V30 11421 C 1071.09 -3.36792 0.0853593 0
M  V30 11422 O 1071.62 -3.92309 -0.863532 0
M  V30 11423 N 1069.82 -2.906 0.00389229 0
M  V30 11424 H 1069.37 -2.45607 0.776846 0
M  V30 11425 H 1069.33 -3.0253 -0.855742 0
M  V30 11426 N 1073.1 -1.28322 -0.914942 0
M  V30 11427 C 1074.33 -1.18254 -1.69775 0
M  V30 11428 C 1074.74 0.258978 -1.87015 0
M  V30 11429 O 1074.1 1.17514 -1.3963 0
M  V30 11430 C 1074.15 -1.8753 -3.09054 0
M  V30 11431 O 1073.87 -3.26051 -2.92613 0
M  V30 11432 C 1075.37 -1.83749 -4.03424 0
M  V30 11433 H 1072.59 -0.41055 -0.530744 0
M  V30 11434 H 1075.14 -1.69425 -1.14523 0
M  V30 11435 H 1073.29 -1.40233 -3.61128 0
M  V30 11436 H 1073.71 -3.60729 -3.80756 0
M  V30 11437 H 1075.18 -2.36813 -4.98622 0
M  V30 11438 H 1075.66 -0.809601 -4.31674 0
M  V30 11439 H 1076.26 -2.3072 -3.57279 0
M  V30 11440 N 1074.58 1.12322 -1.10551 0
M  V30 11441 C 1075.81 1.87679 -0.87087 0
M  V30 11442 C 1076.22 1.79711 0.578733 0
M  V30 11443 O 1075.58 1.17185 1.39907 0
M  V30 11444 C 1075.63 3.36846 -1.31213 0
M  V30 11445 O 1075.35 3.44626 -2.70489 0
M  V30 11446 C 1076.85 4.29138 -1.11156 0
M  V30 11447 H 1074.07 0.593788 -0.3125 0
M  V30 11448 H 1076.62 1.42116 -1.47048 0
M  V30 11449 H 1074.77 3.79948 -0.756169 0
M  V30 11450 H 1075.18 4.37441 -2.89389 0
M  V30 11451 H 1076.66 5.32082 -1.46944 0
M  V30 11452 H 1077.14 4.39171 -0.0502963 0
M  V30 11453 H 1077.74 3.91818 -1.65405 0
M  V30 11454 N 1076.06 0.894434 1.2976 0
M  V30 11455 C 1076.99 0.3847 2.30309 0
M  V30 11456 C 1077.97 -0.537486 1.61385 0
M  V30 11457 O 1079.15 -0.449332 1.8893 0
M  V30 11458 C 1076.28 -0.393311 3.45066 0
M  V30 11459 C 1075.24 0.437968 4.25753 0
M  V30 11460 C 1074.56 -0.467221 5.32655 0
M  V30 11461 C 1075.86 1.6851 4.9437 0
M  V30 11462 H 1077.56 1.22496 2.73194 0
M  V30 11463 H 1075.1 0.590471 1.31337 0
M  V30 11464 H 1077.06 -0.760614 4.14479 0
M  V30 11465 H 1075.78 -1.2673 3.0101 0
M  V30 11466 H 1074.44 0.787533 3.58041 0
M  V30 11467 H 1074.09 -1.33919 4.84845 0
M  V30 11468 H 1073.79 0.0852482 5.87538 0
M  V30 11469 H 1075.31 -0.830833 6.04921 0
M  V30 11470 H 1076.72 1.38784 5.56248 0
M  V30 11471 H 1075.12 2.17849 5.59162 0
M  V30 11472 H 1076.19 2.42412 4.19958 0
M  V30 11473 N 1077.53 -1.43282 0.656365 0
M  V30 11474 C 1078.46 -2.33492 -0.0196962 0
M  V30 11475 C 1079.45 -1.49647 -0.80868 0
M  V30 11476 O 1080.63 -1.78303 -0.769529 0
M  V30 11477 C 1077.76 -3.33052 -0.984574 0
M  V30 11478 C 1076.71 -4.26908 -0.305483 0
M  V30 11479 C 1076.04 -5.16531 -1.38202 0
M  V30 11480 C 1077.34 -5.16073 0.804081 0
M  V30 11481 H 1079.03 -2.90272 0.733661 0
M  V30 11482 H 1076.58 -1.39574 0.354259 0
M  V30 11483 H 1078.53 -3.9506 -1.46647 0
M  V30 11484 H 1077.26 -2.74535 -1.76913 0
M  V30 11485 H 1075.92 -3.66268 0.155995 0
M  V30 11486 H 1075.56 -4.54351 -2.1581 0
M  V30 11487 H 1075.26 -5.80148 -0.932878 0
M  V30 11488 H 1076.79 -5.81414 -1.86522 0
M  V30 11489 H 1078.2 -5.71873 0.404212 0
M  V30 11490 H 1076.6 -5.88427 1.17789 0
M  V30 11491 H 1077.67 -4.55574 1.66073 0
M  V30 11492 N 1079.01 -0.398486 -1.52479 0
M  V30 11493 C 1079.96 0.447001 -2.28264 0
M  V30 11494 C 1080.96 1.05511 -1.32529 0
M  V30 11495 O 1082.16 0.994528 -1.5003 0
M  V30 11496 H 1078.54 0.162919 -0.73414 0
M  V30 11497 H 1080.51 -0.213534 -2.97635 0
M  V30 11498 C 1079.26 1.55724 -3.10879 0
M  V30 11499 H 1078.58 1.09864 -3.84409 0
M  V30 11500 H 1080.02 2.12286 -3.67029 0
M  V30 11501 C 1078.48 2.51853 -2.23768 0
M  V30 11502 O 1079.01 3.55483 -1.87069 0
M  V30 11503 N 1077.21 2.2181 -1.87746 0
M  V30 11504 H 1076.76 1.3757 -2.17789 0
M  V30 11505 H 1076.72 2.86376 -1.29753 0
M  V30 11506 N 1080.49 1.57075 -0.12858 0
M  V30 11507 C 1081.72 1.99876 0.534544 0
M  V30 11508 C 1082.13 1.00843 1.59612 0
M  V30 11509 O 1081.49 0.00268947 1.825 0
M  V30 11510 C 1081.54 3.42654 1.15198 0
M  V30 11511 O 1081.26 4.37899 0.132823 0
M  V30 11512 C 1082.76 4.00637 1.8975 0
M  V30 11513 H 1079.98 0.656073 0.140744 0
M  V30 11514 H 1082.53 2.03337 -0.217742 0
M  V30 11515 H 1080.68 3.40101 1.85499 0
M  V30 11516 H 1081.1 5.21253 0.582682 0
M  V30 11517 H 1082.57 5.02592 2.28266 0
M  V30 11518 H 1083.05 3.40313 2.7764 0
M  V30 11519 H 1083.65 4.06764 1.2419 0
M  V30 11520 N 1081.97 -0.145205 1.5693 0
M  V30 11521 C 1082.93 -1.16316 1.97492 0
M  V30 11522 C 1083.93 -1.35764 0.861668 0
M  V30 11523 O 1085.12 -1.32726 1.12825 0
M  V30 11524 C 1082.25 -2.52311 2.29242 0
M  V30 11525 H 1083.45 -0.815138 2.8861 0
M  V30 11526 H 1081 -0.38861 1.51392 0
M  V30 11527 H 1081.74 -2.92081 1.40922 0
M  V30 11528 H 1081.52 -2.39555 3.10412 0
M  V30 11529 H 1083.01 -3.25624 2.61456 0
M  V30 11530 N 1083.45 -1.52049 -0.414609 0
M  V30 11531 C 1084.68 -1.69433 -1.18221 0
M  V30 11532 C 1085.09 -0.40104 -1.84901 0
M  V30 11533 O 1084.43 0.632342 -1.72474 0
M  V30 11534 C 1084.49 -2.76986 -2.2917 0
M  V30 11535 C 1084.15 -4.18903 -1.82671 0
M  V30 11536 C 1085.15 -5.02929 -1.31751 0
M  V30 11537 C 1082.84 -4.65113 -1.89672 0
M  V30 11538 C 1084.83 -6.31234 -0.884461 0
M  V30 11539 C 1082.52 -5.93408 -1.45978 0
M  V30 11540 C 1083.52 -6.76297 -0.9545 0
M  V30 11541 O 1083.2 -8.02191 -0.523852 0
M  V30 11542 H 1082.94 -0.571228 -0.36149 0
M  V30 11543 H 1085.49 -1.99355 -0.494643 0
M  V30 11544 H 1083.72 -2.42428 -3.01273 0
M  V30 11545 H 1085.41 -2.83023 -2.90951 0
M  V30 11546 H 1086.17 -4.68422 -1.2572 0
M  V30 11547 H 1082.05 -4.00702 -2.27945 0
M  V30 11548 H 1085.6 -6.95881 -0.489383 0
M  V30 11549 H 1081.49 -6.27424 -1.51687 0
M  V30 11550 H 1082.26 -8.15934 -0.647656 0
M  V30 11551 N 1084.93 0.6715 -1.42579 0
M  V30 11552 C 1085.87 1.80623 -1.46554 0
M  V30 11553 C 1086.87 1.65934 -0.340932 0
M  V30 11554 O 1088.07 1.72502 -0.514098 0
M  V30 11555 H 1084.45 0.595619 -0.459067 0
M  V30 11556 H 1086.42 1.74388 -2.42139 0
M  V30 11557 C 1085.17 3.18794 -1.38801 0
M  V30 11558 H 1084.49 3.30725 -2.24635 0
M  V30 11559 H 1085.93 3.98201 -1.45645 0
M  V30 11560 C 1084.39 3.36742 -0.103219 0
M  V30 11561 O 1084.92 3.92761 0.842715 0
M  V30 11562 N 1083.13 2.90594 -0.0193034 0
M  V30 11563 H 1082.67 2.45192 -0.78986 0
M  V30 11564 H 1082.63 3.0298 0.839686 0
M  V30 11565 N 1086.4 1.28806 0.908124 0
M  V30 11566 C 1087.65 1.1646 1.66027 0
M  V30 11567 C 1087.98 -0.285025 1.92097 0
M  V30 11568 O 1087.26 -1.20675 1.52538 0
M  V30 11569 C 1087.54 1.96951 3.01467 0
M  V30 11570 C 1087.39 3.50007 2.82515 0
M  V30 11571 C 1088.71 1.78932 4.02084 0
M  V30 11572 H 1085.83 0.424435 0.602515 0
M  V30 11573 H 1088.47 1.58185 1.0525 0
M  V30 11574 H 1086.62 1.61495 3.53344 0
M  V30 11575 H 1088.3 3.95401 2.37605 0
M  V30 11576 H 1086.54 3.75356 2.17463 0
M  V30 11577 H 1087.21 4.01591 3.7872 0
M  V30 11578 H 1089.69 2.09885 3.59287 0
M  V30 11579 H 1088.56 2.37615 4.94803 0
M  V30 11580 H 1088.82 0.742286 4.35824 0
M  V30 11581 N 1087.88 -1.11734 1.11145 0
M  V30 11582 C 1088.83 -2.19765 0.761982 0
M  V30 11583 C 1089.82 -1.67616 -0.24518 0
M  V30 11584 O 1091.03 -1.79695 -0.104781 0
M  V30 11585 H 1087.4 -0.71644 0.228513 0
M  V30 11586 H 1089.38 -2.4649 1.68183 0
M  V30 11587 C 1088.12 -3.47016 0.218057 0
M  V30 11588 H 1087.45 -3.87494 0.984299 0
M  V30 11589 H 1088.89 -4.23998 0.0116825 0
M  V30 11590 C 1087.35 -3.20088 -1.05096 0
M  V30 11591 O 1087.88 -3.40503 -2.1312 0
M  V30 11592 N 1086.08 -2.73844 -0.972523 0
M  V30 11593 H 1085.63 -2.57431 -0.0933459 0
M  V30 11594 H 1085.59 -2.56204 -1.82228 0
M  V30 11595 N 1089.36 -0.901303 -1.29284 0
M  V30 11596 C 1090.61 -0.527 -1.95108 0
M  V30 11597 C 1090.93 0.930065 -1.71391 0
M  V30 11598 O 1090.2 1.65601 -1.04658 0
M  V30 11599 H 1088.78 -0.191903 -0.721929 0
M  V30 11600 H 1091.44 -1.14795 -1.57506 0
M  V30 11601 H 1090.54 -0.710945 -3.03895 0
M  V30 11602 N 1090.84 1.42931 -0.663954 0
M  V30 11603 C 1092.11 1.95284 -0.111174 0
M  V30 11604 C 1092.49 1.60484 1.37142 0
M  V30 11605 O 1091.84 0.895425 2.10225 0
M  V30 11606 C 1092.05 3.47046 -0.368789 0
M  V30 11607 C 1093.4 4.23679 -0.279473 0
M  V30 11608 O 1094.42 3.54918 -0.301937 0
M  V30 11609 O 1093.28 5.46087 -0.21236 0
M  V30 11610 H 1090.38 0.826993 0.00341718 0
M  V30 11611 H 1092.92 1.52816 -0.737935 0
M  V30 11612 H 1091.7 3.65541 -1.39626 0
M  V30 11613 H 1091.32 3.96537 0.290514 0
M  V30 11614 N 1092.32 0.406567 1.52266 0
M  V30 11615 C 1093.56 -0.169717 2.01386 0
M  V30 11616 C 1093.88 -1.45864 1.29417 0
M  V30 11617 O 1093.15 -1.9136 0.419327 0
M  V30 11618 H 1091.73 -0.0657075 0.744105 0
M  V30 11619 H 1094.4 0.542221 1.87206 0
M  V30 11620 H 1093.49 -0.367659 3.09927 0
M  V30 11621 N 1093.79 -1.57004 0.136909 0
M  V30 11622 C 1094.73 -2.12004 -0.844362 0
M  V30 11623 C 1095.71 -1.04099 -1.24909 0
M  V30 11624 O 1096.89 -1.31866 -1.34698 0
M  V30 11625 C 1094.02 -2.63147 -2.13241 0
M  V30 11626 C 1093.06 -3.83105 -1.87438 0
M  V30 11627 S 1093.9 -5.2461 -1.07447 0
M  V30 11628 C 1095.05 -5.79134 -2.37392 0
M  V30 11629 H 1095.28 -2.94905 -0.376614 0
M  V30 11630 H 1092.82 -1.54207 -0.0771977 0
M  V30 11631 H 1094.78 -2.93264 -2.87239 0
M  V30 11632 H 1093.44 -1.80395 -2.57131 0
M  V30 11633 H 1092.63 -4.17099 -2.82922 0
M  V30 11634 H 1092.23 -3.53696 -1.21553 0
M  V30 11635 H 1094.52 -5.8995 -3.33114 0
M  V30 11636 H 1095.47 -6.76887 -2.07918 0
M  V30 11637 H 1095.87 -5.07311 -2.47579 0
M  V30 11638 N 1095.27 0.136881 -1.57004 0
M  V30 11639 C 1096.22 1.18782 -1.99984 0
M  V30 11640 C 1097.21 1.43899 -0.893841 0
M  V30 11641 O 1098.42 1.44072 -1.07904 0
M  V30 11642 H 1094.8 0.400065 -0.636751 0
M  V30 11643 H 1096.77 0.798696 -2.87512 0
M  V30 11644 C 1095.52 2.51105 -2.40502 0
M  V30 11645 H 1094.84 2.32611 -3.25165 0
M  V30 11646 H 1096.28 3.23244 -2.74389 0
M  V30 11647 C 1094.74 3.12386 -1.26161 0
M  V30 11648 O 1095.27 3.97666 -0.567836 0
M  V30 11649 N 1093.47 2.71989 -1.02326 0
M  V30 11650 H 1093.02 2.02736 -1.58921 0
M  V30 11651 H 1092.98 3.13322 -0.26013 0
M  V30 11652 N 1096.75 1.52266 0.40654 0
M  V30 11653 C 1097.98 1.70304 1.17491 0
M  V30 11654 C 1098.39 0.413656 1.84213 0
M  V30 11655 O 1097.75 -0.610524 1.71985 0
M  V30 11656 C 1097.8 2.84045 2.23609 0
M  V30 11657 O 1097.52 4.0799 1.5961 0
M  V30 11658 C 1099.02 3.13614 3.13306 0
M  V30 11659 H 1096.24 0.570669 0.352955 0
M  V30 11660 H 1098.79 1.98836 0.477967 0
M  V30 11661 H 1096.94 2.58025 2.88967 0
M  V30 11662 H 1097.36 4.7139 2.29983 0
M  V30 11663 H 1098.83 3.96707 3.83833 0
M  V30 11664 H 1099.31 2.27272 3.75824 0
M  V30 11665 H 1099.91 3.41409 2.53614 0
M  V30 11666 N 1098.23 -0.663929 1.42933 0
M  V30 11667 C 1099.16 -1.78899 1.50058 0
M  V30 11668 C 1100.14 -1.66329 0.356164 0
M  V30 11669 O 1101.32 -1.85587 0.571944 0
M  V30 11670 C 1098.45 -3.17265 1.41281 0
M  V30 11671 C 1097.41 -3.44584 2.53861 0
M  V30 11672 C 1096.73 -4.82638 2.3014 0
M  V30 11673 C 1098.03 -3.40394 3.96143 0
M  V30 11674 H 1099.73 -1.73194 2.44222 0
M  V30 11675 H 1097.27 -0.83182 1.17545 0
M  V30 11676 H 1099.23 -3.95715 1.44872 0
M  V30 11677 H 1097.95 -3.23675 0.43616 0
M  V30 11678 H 1096.61 -2.685 2.49606 0
M  V30 11679 H 1096.26 -4.85711 1.30743 0
M  V30 11680 H 1095.96 -5.01879 3.056 0
M  V30 11681 H 1097.48 -5.63359 2.35497 0
M  V30 11682 H 1098.9 -4.08796 4.01943 0
M  V30 11683 H 1097.29 -3.7117 4.71543 0
M  V30 11684 H 1098.36 -2.38767 4.22041 0
M  V30 11685 N 1099.71 -1.29285 -0.901281 0
M  V30 11686 C 1100.65 -1.14159 -2.02659 0
M  V30 11687 C 1101.65 -0.0575887 -1.69302 0
M  V30 11688 O 1102.85 -0.217273 -1.78684 0
M  V30 11689 H 1099.23 -0.352584 -0.66422 0
M  V30 11690 H 1101.2 -2.09434 -2.12555 0
M  V30 11691 C 1099.95 -0.833253 -3.37568 0
M  V30 11692 H 1099.27 -1.65939 -3.63737 0
M  V30 11693 H 1100.71 -0.767436 -4.16997 0
M  V30 11694 C 1099.17 0.46344 -3.33697 0
M  V30 11695 O 1099.7 1.48998 -3.73045 0
M  V30 11696 N 1097.91 0.468709 -2.86795 0
M  V30 11697 H 1097.45 -0.36712 -2.54971 0
M  V30 11698 H 1097.41 1.3363 -2.84588 0
M  V30 11699 N 1101.18 1.11143 -1.11736 0
M  V30 11700 C 1102.42 1.84576 -0.878119 0
M  V30 11701 C 1102.79 1.82851 0.585605 0
M  V30 11702 O 1103.99 2.51763 0.941732 0
M  V30 11703 C 1102.26 3.27628 -1.4281 0
M  V30 11704 S 1103.82 4.18276 -1.3263 0
M  V30 11705 H 1100.64 0.636442 -0.316958 0
M  V30 11706 H 1103.24 1.33794 -1.42546 0
M  V30 11707 H 1101.94 3.2645 -2.48714 0
M  V30 11708 H 1101.47 3.83479 -0.877925 0
M  V30 11709 H 1103.49 4.95335 -0.292878 0
M  V30 11710 N 1102.66 0.908147 1.28804 0
M  V30 11711 C 1103.59 0.34957 2.26519 0
M  V30 11712 C 1104.61 -0.508845 1.54643 0
M  V30 11713 O 1105.8 -0.324633 1.75523 0
M  V30 11714 C 1102.9 -0.519461 3.34895 0
M  V30 11715 C 1102.07 0.315157 4.36263 0
M  V30 11716 C 1101.13 -0.488059 5.23932 0
M  V30 11717 O 1100.15 0.0974133 5.69117 0
M  V30 11718 N 1101.36 -1.79233 5.52137 0
M  V30 11719 H 1104.12 1.18945 2.75086 0
M  V30 11720 H 1101.68 0.77351 1.42227 0
M  V30 11721 H 1103.67 -1.0634 3.90479 0
M  V30 11722 H 1102.24 -1.26004 2.8608 0
M  V30 11723 H 1101.46 1.04049 3.8022 0
M  V30 11724 H 1102.75 0.886438 5.01019 0
M  V30 11725 H 1102.15 -2.2906 5.1725 0
M  V30 11726 H 1100.71 -2.28322 6.10502 0
M  V30 11727 N 1104.14 -1.42577 0.671525 0
M  V30 11728 C 1105.09 -2.30798 -0.00883676 0
M  V30 11729 C 1106.06 -1.4578 -0.796076 0
M  V30 11730 O 1107.24 -1.74617 -0.768987 0
M  V30 11731 C 1104.38 -3.31581 -0.956452 0
M  V30 11732 C 1103.5 -4.31691 -0.163381 0
M  V30 11733 C 1102.63 -5.19549 -1.10645 0
M  V30 11734 C 1101.67 -6.1134 -0.304876 0
M  V30 11735 N 1100.81 -6.91761 -1.20048 0
M  V30 11736 H 1105.65 -2.88426 0.749301 0
M  V30 11737 H 1103.18 -1.42074 0.381251 0
M  V30 11738 H 1105.14 -3.88539 -1.51966 0
M  V30 11739 H 1103.77 -2.75561 -1.68126 0
M  V30 11740 H 1102.82 -3.76879 0.516396 0
M  V30 11741 H 1104.14 -4.96683 0.459099 0
M  V30 11742 H 1103.29 -5.81223 -1.73969 0
M  V30 11743 H 1102.03 -4.54726 -1.76282 0
M  V30 11744 H 1101.03 -5.48738 0.341597 0
M  V30 11745 H 1102.26 -6.78211 0.347352 0
M  V30 11746 H 1100.2 -6.2957 -1.84331 0
M  V30 11747 H 1100.12 -7.53345 -0.633003 0
M  V30 11748 H 1101.39 -7.57924 -1.82129 0
M  V30 11749 N 1105.62 -0.414636 -1.52048 0
M  V30 11750 C 1106.84 0.161137 -2.06773 0
M  V30 11751 C 1107.27 1.37628 -1.2822 0
M  V30 11752 O 1106.63 1.78562 -0.313915 0
M  V30 11753 C 1106.67 0.48452 -3.5733 0
M  V30 11754 O 1105.78 1.57466 -3.81154 0
M  V30 11755 H 1105.12 0.0118003 -0.663895 0
M  V30 11756 H 1107.65 -0.589424 -1.95926 0
M  V30 11757 H 1107.66 0.741567 -4.01204 0
M  V30 11758 H 1106.33 -0.403733 -4.13936 0
M  V30 11759 H 1104.91 1.30935 -3.49157 0
M  V30 11760 N 1107.1 1.56929 -0.145233 0
M  V30 11761 C 1108.04 2.17958 0.812237 0
M  V30 11762 C 1109.04 1.13608 1.25657 0
M  V30 11763 O 1110.24 1.31861 1.22526 0
M  V30 11764 H 1106.62 0.697876 0.28013 0
M  V30 11765 H 1108.59 2.97146 0.273297 0
M  V30 11766 C 1107.34 2.81418 2.04203 0
M  V30 11767 H 1106.66 3.61427 1.70911 0
M  V30 11768 H 1108.1 3.27624 2.69144 0
M  V30 11769 C 1106.56 1.79835 2.84888 0
M  V30 11770 O 1107.09 1.26773 3.81171 0
M  V30 11771 N 1105.3 1.49179 2.49387 0
M  V30 11772 H 1104.84 1.9252 1.71154 0
M  V30 11773 H 1104.8 0.81458 3.03664 0
M  V30 11774 N 1108.58 -0.128553 1.57075 0
M  V30 11775 C 1109.8 -0.85245 1.88523 0
M  V30 11776 C 1110.22 -1.73886 0.735459 0
M  V30 11777 O 1109.58 -1.80114 -0.294113 0
M  V30 11778 C 1109.63 -1.69384 3.19361 0
M  V30 11779 O 1109.35 -0.84313 4.2991 0
M  V30 11780 C 1110.85 -2.52373 3.64449 0
M  V30 11781 H 1108.07 -0.245556 0.624454 0
M  V30 11782 H 1110.61 -0.115807 2.04172 0
M  V30 11783 H 1108.77 -2.38335 3.0541 0
M  V30 11784 H 1109.18 -1.42255 5.0484 0
M  V30 11785 H 1110.66 -3.06955 4.58784 0
M  V30 11786 H 1111.13 -3.29283 2.90636 0
M  V30 11787 H 1111.74 -1.88681 3.81155 0
M  V30 11788 N 1110.05 -1.5248 -0.398459 0
M  V30 11789 C 1111.28 -1.71221 -1.17039 0
M  V30 11790 C 1111.7 -0.425515 -1.83224 0
M  V30 11791 O 1111.06 0.617938 -1.70444 0
M  V30 11792 C 1111.11 -2.8562 -2.20121 0
M  V30 11793 O 1110.21 -2.51934 -3.26501 0
M  V30 11794 H 1109.55 -0.569654 -0.34116 0
M  V30 11795 H 1112.08 -1.99231 -0.465652 0
M  V30 11796 H 1112.09 -3.10842 -2.64275 0
M  V30 11797 H 1110.77 -3.78969 -1.71334 0
M  V30 11798 H 1109.35 -2.3742 -2.87552 0
M  V30 11799 N 1111.53 0.65634 -1.43283 0
M  V30 11800 C 1112.81 1.41339 -1.35213 0
M  V30 11801 C 1113.19 2.111 0.00158494 0
M  V30 11802 O 1112.54 2.0457 1.018 0
M  V30 11803 C 1112.75 2.40066 -2.53317 0
M  V30 11804 C 1114.09 3.04159 -2.96264 0
M  V30 11805 O 1115.12 2.50393 -2.53341 0
M  V30 11806 O 1113.98 4.01633 -3.70612 0
M  V30 11807 H 1111.07 0.631325 -0.534189 0
M  V30 11808 H 1113.62 0.68351 -1.55326 0
M  V30 11809 H 1112.39 1.87444 -3.43483 0
M  V30 11810 H 1112.01 3.20509 -2.35287 0
M  V30 11811 N 1113.01 1.29761 0.894412 0
M  V30 11812 C 1114.26 1.18214 1.64782 0
M  V30 11813 C 1114.59 -0.264635 1.92388 0
M  V30 11814 O 1113.86 -1.19051 1.53809 0
M  V30 11815 C 1114.15 2.00138 2.99361 0
M  V30 11816 C 1114 3.52984 2.78787 0
M  V30 11817 C 1115.32 1.83187 4.00163 0
M  V30 11818 H 1112.44 0.430802 0.597979 0
M  V30 11819 H 1115.08 1.59292 1.03566 0
M  V30 11820 H 1113.23 1.65233 3.51611 0
M  V30 11821 H 1114.9 3.97898 2.33398 0
M  V30 11822 H 1113.14 3.77642 2.13469 0
M  V30 11823 H 1113.82 4.05585 3.7444 0
M  V30 11824 H 1116.29 2.13684 3.57041 0
M  V30 11825 H 1115.17 2.42849 4.92255 0
M  V30 11826 H 1115.43 0.788469 4.35012 0
M  V30 11827 N 1114.49 -1.10549 1.12324 0
M  V30 11828 C 1115.42 -2.18911 0.812416 0
M  V30 11829 C 1116.4 -1.68628 -0.22327 0
M  V30 11830 O 1117.58 -1.94015 -0.0847184 0
M  V30 11831 C 1114.71 -3.46288 0.264947 0
M  V30 11832 C 1113.67 -4.09838 1.23356 0
M  V30 11833 C 1112.99 -5.31901 0.546374 0
M  V30 11834 C 1114.29 -4.53686 2.58778 0
M  V30 11835 H 1115.99 -2.45169 1.71851 0
M  V30 11836 H 1113.53 -1.17834 0.827715 0
M  V30 11837 H 1115.49 -4.21385 0.0352364 0
M  V30 11838 H 1114.21 -3.19517 -0.676479 0
M  V30 11839 H 1112.87 -3.36746 1.44906 0
M  V30 11840 H 1112.52 -5.01406 -0.400157 0
M  V30 11841 H 1112.22 -5.75372 1.19249 0
M  V30 11842 H 1113.74 -6.09731 0.325673 0
M  V30 11843 H 1115.16 -5.20063 2.41263 0
M  V30 11844 H 1113.55 -5.08003 3.19457 0
M  V30 11845 H 1114.62 -3.66665 3.17309 0
M  V30 11846 N 1115.97 -0.914965 -1.28321 0
M  V30 11847 C 1117.19 -0.564023 -1.99583 0
M  V30 11848 C 1117.62 0.847821 -1.6791 0
M  V30 11849 O 1116.97 1.56682 -0.912171 0
M  V30 11850 C 1117.02 -0.781368 -3.52033 0
M  V30 11851 O 1116.13 0.159072 -4.12093 0
M  V30 11852 H 1115.47 -0.218565 -0.626997 0
M  V30 11853 H 1118 -1.23074 -1.63444 0
M  V30 11854 H 1118.01 -0.691946 -4.0209 0
M  V30 11855 H 1116.68 -1.81059 -3.7442 0
M  V30 11856 H 1115.26 0.0208145 -3.72894 0
M  V30 11857 N 1117.44 1.42219 -0.679077 0
M  V30 11858 C 1118.67 2.06333 -0.210097 0
M  V30 11859 C 1119.09 1.50703 1.12562 0
M  V30 11860 O 1118.45 0.627241 1.70104 0
M  V30 11861 C 1118.5 3.60243 -0.160322 0
M  V30 11862 O 1117.6 4.03122 0.869872 0
M  V30 11863 H 1116.94 0.655362 -0.106754 0
M  V30 11864 H 1119.47 1.82278 -0.929294 0
M  V30 11865 H 1119.48 4.07997 0.014384 0
M  V30 11866 H 1118.16 4.00106 -1.13526 0
M  V30 11867 H 1116.74 3.66907 0.66586 0
M  V30 11868 N 1118.92 0.422693 1.51826 0
M  V30 11869 C 1119.83 -0.40261 2.31119 0
M  V30 11870 C 1120.85 -1.04117 1.39412 0
M  V30 11871 O 1122.02 -1.03973 1.72486 0
M  V30 11872 C 1119.09 -1.49699 3.12716 0
M  V30 11873 C 1118.15 -0.880088 4.20182 0
M  V30 11874 C 1117.38 -1.92232 4.97878 0
M  V30 11875 O 1117.61 -3.14246 4.76031 0
M  V30 11876 O 1116.54 -1.521 5.82365 0
M  V30 11877 H 1120.37 0.244308 3.02716 0
M  V30 11878 H 1117.95 0.185569 1.48243 0
M  V30 11879 H 1119.83 -2.13202 3.63487 0
M  V30 11880 H 1118.51 -2.12826 2.43899 0
M  V30 11881 H 1117.41 -0.207404 3.73525 0
M  V30 11882 H 1118.75 -0.292535 4.9133 0
M  V30 11883 N 1120.4 -1.5685 0.153553 0
M  V30 11884 C 1121.81 -1.83074 -0.36618 0
M  V30 11885 C 1122.16 -1.07257 -1.64288 0
M  V30 11886 O 1121.29 -0.319925 -2.14022 0
M  V30 11887 C 1121.88 -3.32086 -0.671142 0
M  V30 11888 C 1120.44 -3.58868 -1.13537 0
M  V30 11889 C 1119.59 -2.76827 -0.161887 0
M  V30 11890 H 1122.54 -1.54129 0.378139 0
M  V30 11891 H 1122.56 -3.48598 -1.52512 0
M  V30 11892 H 1122.07 -3.8724 0.258234 0
M  V30 11893 H 1120.17 -3.09107 -2.08047 0
M  V30 11894 H 1120.29 -4.67299 -1.05682 0
M  V30 11895 H 1118.65 -2.46112 -0.6558 0
M  V30 11896 H 1119.43 -3.34755 0.761195 0
M  V30 11897 N 1121.88 0.120221 -1.57141 0
M  V30 11898 C 1123.12 0.829449 -1.85062 0
M  V30 11899 C 1123.46 1.79585 -0.739116 0
M  V30 11900 O 1122.73 1.92819 0.255147 0
M  V30 11901 C 1123.01 1.58042 -3.23566 0
M  V30 11902 C 1122.87 0.633706 -4.45314 0
M  V30 11903 C 1124.19 2.53688 -3.59625 0
M  V30 11904 H 1121.31 0.300086 -0.67314 0
M  V30 11905 H 1123.95 0.0937393 -1.89769 0
M  V30 11906 H 1122.1 2.20758 -3.19684 0
M  V30 11907 H 1123.77 0.0154836 -4.61297 0
M  V30 11908 H 1122.01 -0.054846 -4.33765 0
M  V30 11909 H 1122.68 1.19577 -5.38893 0
M  V30 11910 H 1125.16 2.01078 -3.6429 0
M  V30 11911 H 1124.04 3.03265 -4.57516 0
M  V30 11912 H 1124.3 3.36296 -2.8698 0
M  V30 11913 N 1123.36 1.52689 0.390367 0
M  V30 11914 C 1124.3 1.78007 1.4972 0
M  V30 11915 C 1125.3 0.647948 1.56518 0
M  V30 11916 O 1126.5 0.830398 1.59701 0
M  V30 11917 H 1122.88 0.56322 0.498284 0
M  V30 11918 H 1124.85 2.70698 1.25559 0
M  V30 11919 C 1123.6 1.96469 2.86872 0
M  V30 11920 H 1122.92 2.83012 2.82391 0
M  V30 11921 H 1124.36 2.18174 3.6356 0
M  V30 11922 C 1122.82 0.736847 3.28743 0
M  V30 11923 O 1123.35 -0.0863743 4.01607 0
M  V30 11924 N 1121.56 0.56735 2.85008 0
M  V30 11925 H 1121.1 1.23838 2.2588 0
M  V30 11926 H 1121.06 -0.252831 3.13382 0
M  V30 11927 N 1124.83 -0.648732 1.43629 0
M  V30 11928 C 1125.77 -1.77417 1.45107 0
M  V30 11929 C 1126.78 -1.59067 0.346618 0
M  V30 11930 O 1127.97 -1.67705 0.611322 0
M  V30 11931 C 1125.07 -3.14906 1.25249 0
M  V30 11932 C 1124.24 -3.59874 2.48616 0
M  V30 11933 C 1123.3 -4.76181 2.23916 0
M  V30 11934 O 1122.33 -4.8539 2.97296 0
M  V30 11935 N 1123.53 -5.66691 1.25862 0
M  V30 11936 H 1126.29 -1.76626 2.42123 0
M  V30 11937 H 1123.85 -0.832725 1.38843 0
M  V30 11938 H 1125.85 -3.90408 1.06601 0
M  V30 11939 H 1124.42 -3.10443 0.366623 0
M  V30 11940 H 1123.64 -2.74768 2.82659 0
M  V30 11941 H 1124.92 -3.86665 3.30708 0
M  V30 11942 H 1124.32 -5.61927 0.652227 0
M  V30 11943 H 1122.88 -6.41895 1.13196 0
M  V30 11944 N 1126.31 -1.30234 -0.887518 0
M  V30 11945 C 1127.56 -1.18675 -1.63587 0
M  V30 11946 C 1127.88 0.259342 -1.93268 0
M  V30 11947 O 1127.15 1.17523 -1.56733 0
M  V30 11948 H 1125.73 -0.436224 -0.606397 0
M  V30 11949 H 1128.39 -1.63326 -1.06351 0
M  V30 11950 H 1127.49 -1.74575 -2.58708 0
M  V30 11951 N 1127.79 1.09952 -1.12909 0
M  V30 11952 C 1129.04 1.82016 -0.887482 0
M  V30 11953 C 1129.37 1.85445 0.586546 0
M  V30 11954 O 1128.62 1.31446 1.44984 0
M  V30 11955 C 1128.92 3.28252 -1.41369 0
M  V30 11956 C 1128.59 3.44965 -2.90362 0
M  V30 11957 C 1127.25 3.49233 -3.31043 0
M  V30 11958 C 1129.6 3.49947 -3.86247 0
M  V30 11959 C 1126.93 3.56057 -4.66305 0
M  V30 11960 C 1129.28 3.58305 -5.21345 0
M  V30 11961 C 1127.94 3.6084 -5.61561 0
M  V30 11962 H 1127.21 0.666046 -0.324753 0
M  V30 11963 H 1129.86 1.29568 -1.41012 0
M  V30 11964 H 1128.17 3.83301 -0.81163 0
M  V30 11965 H 1129.86 3.82533 -1.20289 0
M  V30 11966 H 1126.45 3.42323 -2.57901 0
M  V30 11967 H 1130.64 3.45895 -3.55908 0
M  V30 11968 H 1125.89 3.56305 -4.96847 0
M  V30 11969 H 1130.07 3.61104 -5.95463 0
M  V30 11970 H 1127.69 3.6588 -6.6636 0
M  V30 11971 N 1129.27 0.921757 1.27833 0
M  V30 11972 C 1130.5 0.574368 1.98455 0
M  V30 11973 C 1130.91 -0.850577 1.69002 0
M  V30 11974 O 1130.25 -1.57607 0.943708 0
M  V30 11975 C 1130.31 0.713235 3.52354 0
M  V30 11976 C 1129.98 2.1092 4.05415 0
M  V30 11977 C 1130.97 3.08276 4.18643 0
M  V30 11978 C 1128.66 2.42454 4.3991 0
M  V30 11979 C 1130.65 4.35279 4.6563 0
M  V30 11980 C 1128.34 3.69694 4.8659 0
M  V30 11981 C 1129.34 4.6592 4.99407 0
M  V30 11982 O 1129.02 5.90896 5.45066 0
M  V30 11983 H 1128.76 0.216955 0.640239 0
M  V30 11984 H 1131.31 1.23932 1.63798 0
M  V30 11985 H 1129.54 -0.00881115 3.86699 0
M  V30 11986 H 1131.23 0.371776 4.04194 0
M  V30 11987 H 1132 2.85234 3.92258 0
M  V30 11988 H 1127.87 1.68303 4.2918 0
M  V30 11989 H 1131.42 5.10391 4.75549 0
M  V30 11990 H 1127.32 3.92557 5.12415 0
M  V30 11991 H 1128.08 5.938 5.63333 0
M  V30 11992 N 1130.75 -1.41857 0.686609 0
M  V30 11993 C 1131.66 -2.34595 0.0159005 0
M  V30 11994 C 1132.67 -1.55741 -0.775933 0
M  V30 11995 O 1133.85 -1.8826 -0.71555 0
M  V30 11996 C 1130.91 -3.34395 -0.915473 0
M  V30 11997 C 1129.97 -4.29141 -0.116851 0
M  V30 11998 C 1129.21 -5.24174 -1.00386 0
M  V30 11999 O 1129.43 -5.24431 -2.2434 0
M  V30 12000 O 1128.36 -6.00152 -0.458337 0
M  V30 12001 H 1132.19 -2.9351 0.780101 0
M  V30 12002 H 1129.78 -1.42559 0.446896 0
M  V30 12003 H 1131.66 -3.95675 -1.44981 0
M  V30 12004 H 1130.33 -2.77936 -1.65932 0
M  V30 12005 H 1129.24 -3.71238 0.461871 0
M  V30 12006 H 1130.57 -4.88673 0.588138 0
M  V30 12007 N 1132.22 -0.430739 -1.51599 0
M  V30 12008 C 1133.16 0.419726 -2.25324 0
M  V30 12009 C 1134.17 0.991925 -1.29092 0
M  V30 12010 O 1135.36 0.887188 -1.54891 0
M  V30 12011 C 1132.46 1.59844 -2.98836 0
M  V30 12012 C 1131.63 1.14629 -4.22112 0
M  V30 12013 C 1130.69 2.19437 -4.78261 0
M  V30 12014 O 1129.72 1.79141 -5.40275 0
M  V30 12015 N 1130.92 3.51849 -4.61717 0
M  V30 12016 H 1133.68 -0.212112 -2.98948 0
M  V30 12017 H 1131.24 -0.259269 -1.59811 0
M  V30 12018 H 1133.24 2.29567 -3.33288 0
M  V30 12019 H 1131.81 2.13575 -2.28264 0
M  V30 12020 H 1131.03 0.276367 -3.9323 0
M  V30 12021 H 1132.31 0.821488 -5.02124 0
M  V30 12022 H 1131.71 3.87324 -4.12306 0
M  V30 12023 H 1130.27 4.17486 -5.00548 0
M  V30 12024 N 1133.7 1.56767 -0.161869 0
M  V30 12025 C 1134.65 2.1409 0.784183 0
M  V30 12026 C 1135.64 1.07262 1.19932 0
M  V30 12027 O 1136.83 1.33406 1.16326 0
M  V30 12028 C 1133.96 2.77778 2.01729 0
M  V30 12029 C 1133.04 3.91751 1.62457 0
M  V30 12030 N 1133.43 4.96972 0.940888 0
M  V30 12031 C 1131.73 4.02735 1.91626 0
M  V30 12032 C 1132.43 5.76858 0.748946 0
M  V30 12033 N 1131.41 5.28134 1.28745 0
M  V30 12034 H 1135.21 2.92811 0.252763 0
M  V30 12035 H 1132.73 1.62353 0.0391501 0
M  V30 12036 H 1134.72 3.17216 2.70517 0
M  V30 12037 H 1133.38 2.00535 2.55374 0
M  V30 12038 H 1134.39 5.14413 0.599981 0
M  V30 12039 H 1131.07 3.36585 2.47016 0
M  V30 12040 H 1132.46 6.71575 0.208991 0
M  V30 12041 N 1135.18 -0.111886 1.57202 0
M  V30 12042 C 1136.14 -1.12101 1.99915 0
M  V30 12043 C 1137.14 -1.33906 0.890272 0
M  V30 12044 O 1138.33 -1.30303 1.15615 0
M  V30 12045 C 1135.47 -2.47392 2.34543 0
M  V30 12046 H 1136.66 -0.753736 2.90274 0
M  V30 12047 H 1134.21 -0.35641 1.52182 0
M  V30 12048 H 1134.95 -2.89026 1.47086 0
M  V30 12049 H 1134.73 -2.32917 3.15423 0
M  V30 12050 H 1136.22 -3.20004 2.68304 0
M  V30 12051 N 1136.66 -1.52894 -0.382264 0
M  V30 12052 C 1137.88 -1.72453 -1.15216 0
M  V30 12053 C 1138.31 -0.444925 -1.82762 0
M  V30 12054 O 1137.67 0.599825 -1.7109 0
M  V30 12055 C 1137.71 -2.87939 -2.17079 0
M  V30 12056 O 1136.82 -2.55383 -3.23811 0
M  V30 12057 H 1136.16 -0.57324 -0.335099 0
M  V30 12058 H 1138.69 -1.99713 -0.444495 0
M  V30 12059 H 1138.7 -3.13628 -2.60963 0
M  V30 12060 H 1137.37 -3.80765 -1.67305 0
M  V30 12061 H 1135.95 -2.40457 -2.85018 0
M  V30 12062 N 1138.14 0.641106 -1.43971 0
M  V30 12063 C 1139.36 1.43324 -1.4991 0
M  V30 12064 C 1139.79 1.87705 -0.121908 0
M  V30 12065 O 1139.15 1.58127 0.886875 0
M  V30 12066 C 1139.19 2.63637 -2.46025 0
M  V30 12067 O 1138.3 3.63123 -1.95488 0
M  V30 12068 H 1137.64 0.429252 -0.506595 0
M  V30 12069 H 1140.17 0.783427 -1.89007 0
M  V30 12070 H 1140.18 3.11304 -2.63731 0
M  V30 12071 H 1138.85 2.30678 -3.46064 0
M  V30 12072 H 1137.43 3.22332 -1.87501 0
M  V30 12073 N 1139.62 1.30703 0.880598 0
M  V30 12074 C 1140.85 1.22536 1.66339 0
M  V30 12075 C 1141.25 -0.213507 1.87991 0
M  V30 12076 O 1140.6 -1.15236 1.43061 0
M  V30 12077 C 1140.66 1.88798 3.05934 0
M  V30 12078 C 1140.32 3.38131 3.07435 0
M  V30 12079 C 1141.32 4.34053 2.86171 0
M  V30 12080 C 1139 3.79651 3.28893 0
M  V30 12081 C 1141 5.69469 2.86328 0
M  V30 12082 C 1138.69 5.15182 3.2868 0
M  V30 12083 C 1139.68 6.09902 3.07423 0
M  V30 12084 O 1139.37 7.42957 3.07034 0
M  V30 12085 H 1139.1 0.425018 0.525677 0
M  V30 12086 H 1141.66 1.72939 1.1082 0
M  V30 12087 H 1139.89 1.3293 3.63134 0
M  V30 12088 H 1141.58 1.74691 3.66385 0
M  V30 12089 H 1142.34 4.03307 2.69385 0
M  V30 12090 H 1138.22 3.06365 3.44473 0
M  V30 12091 H 1141.77 6.43375 2.69655 0
M  V30 12092 H 1137.66 5.45567 3.45002 0
M  V30 12093 H 1138.43 7.52 3.23169 0
M  V30 12094 N 1141.09 -1.09351 1.1349 0
M  V30 12095 C 1142.04 -2.16008 0.812981 0
M  V30 12096 C 1143.01 -1.64566 -0.225252 0
M  V30 12097 O 1144.2 -1.90552 -0.0973261 0
M  V30 12098 C 1141.34 -3.43913 0.285996 0
M  V30 12099 C 1140.45 -4.09251 1.38338 0
M  V30 12100 C 1139.58 -5.24916 0.814652 0
M  V30 12101 C 1138.62 -5.82178 1.89038 0
M  V30 12102 N 1137.76 -6.89203 1.33955 0
M  V30 12103 H 1142.6 -2.42887 1.72655 0
M  V30 12104 H 1140.14 -1.19209 0.861833 0
M  V30 12105 H 1142.09 -4.17183 -0.0376794 0
M  V30 12106 H 1140.72 -3.17349 -0.590707 0
M  V30 12107 H 1139.78 -3.33838 1.82363 0
M  V30 12108 H 1141.09 -4.4784 2.19638 0
M  V30 12109 H 1140.24 -6.05086 0.442306 0
M  V30 12110 H 1138.98 -4.87691 -0.029416 0
M  V30 12111 H 1137.99 -5.00669 2.27179 0
M  V30 12112 H 1139.21 -6.21464 2.73787 0
M  V30 12113 H 1137.16 -6.53956 0.517494 0
M  V30 12114 H 1137.07 -7.26565 2.08902 0
M  V30 12115 H 1138.34 -7.73126 0.994793 0
M  V30 12116 N 1142.57 -0.928524 -1.27343 0
M  V30 12117 C 1143.8 -0.58516 -1.98974 0
M  V30 12118 C 1144.22 0.829964 -1.68799 0
M  V30 12119 O 1143.58 1.55705 -0.928738 0
M  V30 12120 C 1143.63 -0.818662 -3.51184 0
M  V30 12121 O 1142.73 0.115355 -4.12239 0
M  V30 12122 H 1142.07 -0.225203 -0.624644 0
M  V30 12123 H 1144.6 -1.248 -1.6213 0
M  V30 12124 H 1144.61 -0.734554 -4.01333 0
M  V30 12125 H 1143.29 -1.8502 -3.72479 0
M  V30 12126 H 1141.86 -0.0187371 -3.72895 0
M  V30 12127 N 1144.05 1.41491 -0.694123 0
M  V30 12128 C 1144.98 2.33462 -0.0422169 0
M  V30 12129 C 1145.96 1.51739 0.76872 0
M  V30 12130 O 1147.15 1.8028 0.721985 0
M  V30 12131 C 1144.28 3.35545 0.895925 0
M  V30 12132 C 1143.23 4.27568 0.192188 0
M  V30 12133 C 1142.56 5.20014 1.24459 0
M  V30 12134 C 1143.86 5.1376 -0.940626 0
M  V30 12135 H 1145.55 2.88225 -0.810363 0
M  V30 12136 H 1143.1 1.38586 -0.39114 0
M  V30 12137 H 1145.05 3.9881 1.36121 0
M  V30 12138 H 1143.77 2.79129 1.69572 0
M  V30 12139 H 1142.43 3.65726 -0.25305 0
M  V30 12140 H 1142.08 4.59913 2.03687 0
M  V30 12141 H 1141.78 5.82417 0.778734 0
M  V30 12142 H 1143.3 5.86155 1.71041 0
M  V30 12143 H 1144.72 5.70601 -0.555692 0
M  V30 12144 H 1143.11 5.85097 -1.33349 0
M  V30 12145 H 1144.18 4.51011 -1.78093 0
M  V30 12146 N 1145.53 0.438773 1.51369 0
M  V30 12147 C 1146.78 -0.126962 2.01701 0
M  V30 12148 C 1147.1 -1.43086 1.32481 0
M  V30 12149 O 1146.37 -1.90427 0.459823 0
M  V30 12150 H 1144.95 -0.0499092 0.745331 0
M  V30 12151 H 1147.61 0.581808 1.86013 0
M  V30 12152 H 1146.7 -0.301836 3.10637 0
M  V30 12153 N 1147.01 -1.56678 0.170181 0
M  V30 12154 C 1148.25 -1.98743 -0.477534 0
M  V30 12155 C 1148.61 -1.0538 -1.60497 0
M  V30 12156 O 1149.81 -1.3658 -2.31515 0
M  V30 12157 C 1148.08 -3.44565 -0.949186 0
M  V30 12158 S 1149.64 -4.08658 -1.59824 0
M  V30 12159 H 1146.46 -0.694202 -0.153639 0
M  V30 12160 H 1149.06 -1.93663 0.267373 0
M  V30 12161 H 1147.76 -4.1023 -0.118205 0
M  V30 12162 H 1147.3 -3.53409 -1.72816 0
M  V30 12163 H 1149.31 -4.03614 -2.88635 0
M  V30 12164 N 1148.48 0.103547 -1.57259 0
M  V30 12165 C 1149.42 1.15707 -1.9669 0
M  V30 12166 C 1150.39 1.39292 -0.838837 0
M  V30 12167 O 1151.58 1.53192 -1.09839 0
M  V30 12168 C 1148.71 2.50793 -2.27642 0
M  V30 12169 C 1147.75 2.43541 -3.50129 0
M  V30 12170 S 1148.58 1.86009 -5.02156 0
M  V30 12171 C 1149.74 3.22737 -5.36276 0
M  V30 12172 H 1149.97 0.820891 -2.85742 0
M  V30 12173 H 1147.51 0.310906 -1.51237 0
M  V30 12174 H 1149.46 3.28512 -2.46151 0
M  V30 12175 H 1148.13 2.81583 -1.39176 0
M  V30 12176 H 1147.32 3.43085 -3.692 0
M  V30 12177 H 1146.92 1.73948 -3.31086 0
M  V30 12178 H 1149.21 4.1899 -5.32404 0
M  V30 12179 H 1150.16 3.08477 -6.37375 0
M  V30 12180 H 1150.56 3.21878 -4.6374 0
M  V30 12181 N 1149.96 1.53094 0.37415 0
M  V30 12182 C 1151.19 1.73061 1.143 0
M  V30 12183 C 1151.61 0.454611 1.82524 0
M  V30 12184 O 1150.97 -0.590743 1.71406 0
M  V30 12185 C 1151.02 2.89086 2.15549 0
M  V30 12186 O 1150.12 2.57096 3.22452 0
M  V30 12187 H 1149.46 0.575009 0.332055 0
M  V30 12188 H 1151.99 1.99946 0.433897 0
M  V30 12189 H 1152 3.15007 2.59296 0
M  V30 12190 H 1150.68 3.81647 1.65283 0
M  V30 12191 H 1149.25 2.41965 2.83738 0
M  V30 12192 N 1151.44 -0.633461 1.44309 0
M  V30 12193 C 1152.35 -1.77428 1.53481 0
M  V30 12194 C 1153.37 -1.68839 0.420628 0
M  V30 12195 O 1154.54 -1.89658 0.677638 0
M  V30 12196 C 1151.61 -3.13801 1.47409 0
M  V30 12197 C 1150.67 -3.34039 2.6966 0
M  V30 12198 C 1149.9 -4.63907 2.63868 0
M  V30 12199 O 1150.12 -5.44559 1.69741 0
M  V30 12200 O 1149.06 -4.86295 3.54684 0
M  V30 12201 H 1152.88 -1.72642 2.49857 0
M  V30 12202 H 1150.47 -0.794399 1.26529 0
M  V30 12203 H 1152.35 -3.95101 1.46537 0
M  V30 12204 H 1151.03 -3.19134 0.541769 0
M  V30 12205 H 1149.93 -2.52427 2.761 0
M  V30 12206 H 1151.27 -3.33566 3.61931 0
M  V30 12207 N 1152.92 -1.31168 -0.873655 0
M  V30 12208 C 1153.85 -1.21094 -1.99646 0
M  V30 12209 C 1154.83 -0.0989684 -1.69812 0
M  V30 12210 O 1156.01 -0.282939 -1.92128 0
M  V30 12211 C 1153.14 -0.913684 -3.35066 0
M  V30 12212 C 1152.1 -1.98482 -3.79195 0
M  V30 12213 C 1151.42 -1.54033 -5.12033 0
M  V30 12214 C 1152.72 -3.39745 -3.96699 0
M  V30 12215 H 1154.42 -2.1503 -2.08333 0
M  V30 12216 H 1151.96 -1.03521 -1.00097 0
M  V30 12217 H 1153.92 -0.829821 -4.13149 0
M  V30 12218 H 1152.64 0.0613471 -3.26542 0
M  V30 12219 H 1151.3 -2.05851 -3.03349 0
M  V30 12220 H 1150.95 -0.553261 -4.99948 0
M  V30 12221 H 1150.65 -2.25688 -5.4253 0
M  V30 12222 H 1152.17 -1.47047 -5.92629 0
M  V30 12223 H 1153.59 -3.35071 -4.65188 0
M  V30 12224 H 1151.98 -4.09585 -4.38589 0
M  V30 12225 H 1153.05 -3.80802 -3.00196 0
M  V30 12226 N 1154.4 1.08748 -1.14068 0
M  V30 12227 C 1155.33 2.1544 -0.782199 0
M  V30 12228 C 1156.34 1.61575 0.199301 0
M  V30 12229 O 1157.53 1.78487 -0.0219044 0
M  V30 12230 C 1154.63 3.38611 -0.13983 0
M  V30 12231 C 1153.8 4.2187 -1.15518 0
M  V30 12232 C 1152.86 5.23451 -0.537216 0
M  V30 12233 O 1151.89 5.56424 -1.1992 0
M  V30 12234 N 1153.09 5.76413 0.6876 0
M  V30 12235 H 1155.86 2.46798 -1.70032 0
M  V30 12236 H 1153.42 1.24527 -1.03463 0
M  V30 12237 H 1155.41 4.03688 0.285999 0
M  V30 12238 H 1153.98 3.05084 0.681357 0
M  V30 12239 H 1153.2 3.52825 -1.75806 0
M  V30 12240 H 1154.49 4.74318 -1.84119 0
M  V30 12241 H 1153.88 5.51851 1.24406 0
M  V30 12242 H 1152.44 6.43189 1.05599 0
M  V30 12243 N 1155.87 0.935264 1.26849 0
M  V30 12244 C 1157.1 0.596249 1.98122 0
M  V30 12245 C 1157.52 -0.827452 1.69702 0
M  V30 12246 O 1156.87 -1.55095 0.961864 0
M  V30 12247 C 1156.93 0.821773 3.52036 0
M  V30 12248 O 1156.65 2.18947 3.79465 0
M  V30 12249 C 1158.15 0.492498 4.40556 0
M  V30 12250 H 1155.37 0.225242 0.632066 0
M  V30 12251 H 1157.91 1.25435 1.61512 0
M  V30 12252 H 1156.07 0.210363 3.86828 0
M  V30 12253 H 1156.48 2.24509 4.74021 0
M  V30 12254 H 1157.95 0.700953 5.47531 0
M  V30 12255 H 1158.43 -0.57228 4.35456 0
M  V30 12256 H 1159.04 1.08238 4.11296 0
M  V30 12257 N 1157.35 -1.41121 0.701616 0
M  V30 12258 C 1158.58 -2.05973 0.242896 0
M  V30 12259 C 1159 -1.52474 -1.10151 0
M  V30 12260 O 1158.36 -0.654224 -1.69085 0
M  V30 12261 C 1158.41 -3.59943 0.217614 0
M  V30 12262 O 1157.51 -4.04454 -0.805629 0
M  V30 12263 H 1156.85 -0.653581 0.117166 0
M  V30 12264 H 1159.38 -1.80777 0.958175 0
M  V30 12265 H 1159.39 -4.07969 0.0505267 0
M  V30 12266 H 1158.07 -3.98249 1.19877 0
M  V30 12267 H 1156.65 -3.6792 -0.607404 0
M  V30 12268 N 1158.83 -0.446794 -1.51134 0
M  V30 12269 C 1160.25 -0.0995905 -1.59289 0
M  V30 12270 C 1160.45 1.39191 -1.45699 0
M  V30 12271 O 1159.5 2.1628 -1.30303 0
M  V30 12272 C 1160.82 -0.628135 -2.94066 0
M  V30 12273 C 1162.36 -0.589409 -3.074 0
M  V30 12274 C 1162.84 -1.09509 -4.44715 0
M  V30 12275 N 1164.33 -1.05347 -4.51061 0
M  V30 12276 C 1165.06 -1.41551 -5.55654 0
M  V30 12277 N 1164.56 -1.85086 -6.67619 0
M  V30 12278 N 1166.35 -1.33307 -5.46064 0
M  V30 12279 H 1158.5 -1.41713 -1.58213 0
M  V30 12280 H 1160.77 -0.584555 -0.746324 0
M  V30 12281 H 1160.47 -1.67205 -3.09411 0
M  V30 12282 H 1160.35 -0.0582398 -3.77155 0
M  V30 12283 H 1162.73 0.445541 -2.91717 0
M  V30 12284 H 1162.82 -1.19582 -2.26128 0
M  V30 12285 H 1162.46 -2.12855 -4.61146 0
M  V30 12286 H 1162.39 -0.465122 -5.24542 0
M  V30 12287 H 1164.88 -0.733877 -3.70706 0
M  V30 12288 H 1165.19 -2.10923 -7.43459 0
M  V30 12289 H 1163.54 -1.8902 -6.68802 0
M  V30 12290 H 1166.73 -0.991547 -4.57478 0
M  V30 12291 H 1166.9 -1.6185 -6.27462 0
M  V30 12292 N 1160.31 1.56586 -0.178487 0
M  V30 12293 C 1161.24 2.21313 0.744486 0
M  V30 12294 C 1162.22 1.17098 1.23377 0
M  V30 12295 O 1163.4 1.45551 1.28563 0
M  V30 12296 C 1160.53 2.8595 1.97103 0
M  V30 12297 C 1159.49 3.96266 1.61732 0
M  V30 12298 C 1158.81 4.47987 2.91911 0
M  V30 12299 C 1160.11 5.15503 0.839868 0
M  V30 12300 H 1161.81 2.98698 0.204938 0
M  V30 12301 H 1159.35 1.43672 0.0971306 0
M  V30 12302 H 1161.31 3.29909 2.6218 0
M  V30 12303 H 1160.03 2.05946 2.53484 0
M  V30 12304 H 1158.69 3.52974 0.990208 0
M  V30 12305 H 1158.34 3.64765 3.46346 0
M  V30 12306 H 1158.04 5.22413 2.68995 0
M  V30 12307 H 1159.56 4.94637 3.58004 0
M  V30 12308 H 1160.98 5.5611 1.39337 0
M  V30 12309 H 1159.37 5.95891 0.709473 0
M  V30 12310 H 1160.44 4.84628 -0.162396 0
M  V30 12311 N 1161.79 -0.095206 1.57312 0
M  V30 12312 C 1163.02 -0.811092 1.90013 0
M  V30 12313 C 1163.42 -1.72807 0.770359 0
M  V30 12314 O 1162.77 -1.81755 -0.266615 0
M  V30 12315 C 1162.83 -1.67744 3.17966 0
M  V30 12316 C 1162.49 -0.932301 4.47389 0
M  V30 12317 C 1163.49 -0.262161 5.19239 0
M  V30 12318 C 1161.18 -0.906414 4.94054 0
M  V30 12319 C 1163.17 0.423898 6.35989 0
M  V30 12320 C 1160.86 -0.216569 6.10716 0
M  V30 12321 C 1161.85 0.447408 6.81533 0
M  V30 12322 O 1161.54 1.12619 7.95972 0
M  V30 12323 H 1161.27 -0.237154 0.633035 0
M  V30 12324 H 1163.83 -0.0768976 2.05256 0
M  V30 12325 H 1162.06 -2.45387 2.98868 0
M  V30 12326 H 1163.75 -2.26988 3.36498 0
M  V30 12327 H 1164.51 -0.273621 4.84228 0
M  V30 12328 H 1160.39 -1.41267 4.38822 0
M  V30 12329 H 1163.94 0.942727 6.91201 0
M  V30 12330 H 1159.83 -0.202955 6.45181 0
M  V30 12331 H 1160.6 1.03308 8.11954 0
M  V30 12332 N 1163.26 -1.53291 -0.366026 0
M  V30 12333 C 1164.21 -1.80367 -1.4687 0
M  V30 12334 C 1165.21 -0.672767 -1.55468 0
M  V30 12335 O 1166.41 -0.8557 -1.5836 0
M  V30 12336 H 1162.79 -0.571076 -0.48926 0
M  V30 12337 H 1164.76 -2.72661 -1.21237 0
M  V30 12338 C 1163.51 -2.01008 -2.8371 0
M  V30 12339 H 1162.83 -2.87468 -2.77853 0
M  V30 12340 H 1164.27 -2.2393 -3.60043 0
M  V30 12341 C 1162.73 -0.789054 -3.27529 0
M  V30 12342 O 1163.26 0.0224712 -4.01694 0
M  V30 12343 N 1161.47 -0.612621 -2.84069 0
M  V30 12344 H 1161.01 -1.27416 -2.23881 0
M  V30 12345 H 1160.97 0.202943 -3.13744 0
M  V30 12346 N 1164.74 0.6258 -1.44643 0
M  V30 12347 C 1165.69 1.73751 -1.51919 0
M  V30 12348 C 1166.66 1.62007 -0.36647 0
M  V30 12349 O 1167.84 1.81852 -0.577439 0
M  V30 12350 C 1164.98 3.12015 -1.47448 0
M  V30 12351 C 1164.1 3.34696 -2.73135 0
M  V30 12352 C 1163.23 4.62962 -2.6046 0
M  V30 12353 C 1162.27 4.7884 -3.81286 0
M  V30 12354 N 1161.41 5.98388 -3.67255 0
M  V30 12355 H 1166.25 1.66867 -2.46899 0
M  V30 12356 H 1163.79 0.813921 -1.22531 0
M  V30 12357 H 1165.74 3.91983 -1.42846 0
M  V30 12358 H 1164.37 3.179 -0.560312 0
M  V30 12359 H 1163.43 2.4863 -2.87901 0
M  V30 12360 H 1164.74 3.42306 -3.62806 0
M  V30 12361 H 1163.89 5.51099 -2.53722 0
M  V30 12362 H 1162.63 4.57719 -1.68359 0
M  V30 12363 H 1161.64 3.89131 -3.88403 0
M  V30 12364 H 1162.86 4.85893 -4.74431 0
M  V30 12365 H 1160.81 5.94224 -2.77909 0
M  V30 12366 H 1160.72 6.07078 -4.50547 0
M  V30 12367 H 1161.99 6.89072 -3.64417 0
M  V30 12368 N 1166.22 1.31629 0.866686 0
M  V30 12369 C 1167.15 1.22151 1.99001 0
M  V30 12370 C 1168.13 0.107972 1.69757 0
M  V30 12371 O 1169.32 0.293125 1.91975 0
M  V30 12372 C 1166.45 0.93144 3.34577 0
M  V30 12373 C 1165.4 2.0049 3.78137 0
M  V30 12374 C 1164.73 1.56747 5.11209 0
M  V30 12375 C 1166.03 3.41844 3.94892 0
M  V30 12376 H 1167.72 2.16132 2.0719 0
M  V30 12377 H 1165.27 1.04051 0.995463 0
M  V30 12378 H 1167.22 0.851719 4.12703 0
M  V30 12379 H 1165.94 -0.0440289 3.2657 0
M  V30 12380 H 1164.6 2.07457 3.02253 0
M  V30 12381 H 1164.25 0.579767 4.99648 0
M  V30 12382 H 1163.95 2.28562 5.41326 0
M  V30 12383 H 1165.47 1.50188 5.91841 0
M  V30 12384 H 1166.89 3.37534 4.63405 0
M  V30 12385 H 1165.29 4.11905 4.36411 0
M  V30 12386 H 1166.36 3.82389 2.98172 0
M  V30 12387 N 1167.7 -1.08142 1.14644 0
M  V30 12388 C 1168.61 -2.18675 0.849607 0
M  V30 12389 C 1169.63 -1.73158 -0.170983 0
M  V30 12390 O 1170.8 -2.014 0.0011579 0
M  V30 12391 C 1167.87 -3.45084 0.334305 0
M  V30 12392 C 1166.93 -4.05213 1.41779 0
M  V30 12393 C 1166.16 -5.25588 0.926981 0
M  V30 12394 O 1166.38 -5.69934 -0.230522 0
M  V30 12395 O 1165.32 -5.77183 1.70715 0
M  V30 12396 H 1169.14 -2.46542 1.77343 0
M  V30 12397 H 1166.73 -1.17328 0.924911 0
M  V30 12398 H 1168.61 -4.21367 0.0529893 0
M  V30 12399 H 1167.29 -3.18788 -0.561755 0
M  V30 12400 H 1166.19 -3.30507 1.7526 0
M  V30 12401 H 1167.53 -4.35764 2.28847 0
M  V30 12402 N 1169.18 -0.941978 -1.26351 0
M  V30 12403 C 1170.11 -0.469913 -2.28723 0
M  V30 12404 C 1171.09 0.477218 -1.63269 0
M  V30 12405 O 1172.27 0.378902 -1.90468 0
M  V30 12406 C 1169.4 0.264971 -3.46288 0
M  V30 12407 C 1168.36 -0.595682 -4.23834 0
M  V30 12408 C 1167.68 0.269208 -5.34022 0
M  V30 12409 C 1168.98 -1.86743 -4.87775 0
M  V30 12410 H 1170.68 -1.32551 -2.6846 0
M  V30 12411 H 1168.22 -0.638809 -1.29055 0
M  V30 12412 H 1170.18 0.606259 -4.17016 0
M  V30 12413 H 1168.9 1.15471 -3.05506 0
M  V30 12414 H 1167.56 -0.919875 -3.54872 0
M  V30 12415 H 1167.21 1.15832 -4.89481 0
M  V30 12416 H 1166.91 -0.30325 -5.86817 0
M  V30 12417 H 1168.43 0.605748 -6.07588 0
M  V30 12418 H 1169.85 -1.59333 -5.50714 0
M  V30 12419 H 1168.24 -2.38452 -5.50691 0
M  V30 12420 H 1169.31 -2.57831 -4.10671 0
M  V30 12421 N 1170.66 1.40747 -0.709091 0
M  V30 12422 C 1172.07 1.83955 -0.318968 0
M  V30 12423 C 1172.42 1.59304 1.14527 0
M  V30 12424 O 1171.54 1.07052 1.88066 0
M  V30 12425 C 1172.14 3.33934 -0.572147 0
M  V30 12426 C 1170.7 3.75661 -0.235802 0
M  V30 12427 C 1169.84 2.64024 -0.847743 0
M  V30 12428 H 1172.79 1.30107 -0.908734 0
M  V30 12429 H 1172.82 3.80143 0.164752 0
M  V30 12430 H 1172.33 3.51844 -1.63791 0
M  V30 12431 H 1170.43 3.63348 0.825164 0
M  V30 12432 H 1170.54 4.73955 -0.700263 0
M  V30 12433 H 1168.91 2.53197 -0.276283 0
M  V30 12434 H 1169.69 2.84748 -1.91765 0
M  V30 12435 N 1172.13 0.454803 1.50895 0
M  V30 12436 C 1173.04 -0.353495 2.31921 0
M  V30 12437 C 1174.06 -1.01136 1.41589 0
M  V30 12438 O 1175.24 -1.00291 1.74653 0
M  V30 12439 C 1172.3 -1.43032 3.15821 0
M  V30 12440 C 1171.36 -0.790763 4.21954 0
M  V30 12441 C 1170.59 -1.81628 5.01843 0
M  V30 12442 O 1170.82 -3.04078 4.8259 0
M  V30 12443 O 1169.75 -1.39713 5.8546 0
M  V30 12444 H 1173.58 0.308463 3.02129 0
M  V30 12445 H 1171.16 0.216971 1.47816 0
M  V30 12446 H 1173.04 -2.05444 3.67927 0
M  V30 12447 H 1171.72 -2.07605 2.48358 0
M  V30 12448 H 1170.63 -0.128127 3.73881 0
M  V30 12449 H 1171.96 -0.188251 4.9184 0
M  V30 12450 N 1173.61 -1.56489 0.186789 0
M  V30 12451 C 1174.54 -2.21705 -0.732739 0
M  V30 12452 C 1175.52 -1.17751 -1.22755 0
M  V30 12453 O 1176.71 -1.46231 -1.27789 0
M  V30 12454 C 1173.84 -2.86992 -1.95584 0
M  V30 12455 C 1172.79 -3.97118 -1.59628 0
M  V30 12456 C 1172.12 -4.49529 -2.89531 0
M  V30 12457 C 1173.42 -5.15941 -0.812518 0
M  V30 12458 H 1175.11 -2.98802 -0.189094 0
M  V30 12459 H 1172.66 -1.43722 -0.0895099 0
M  V30 12460 H 1174.61 -3.31295 -2.60426 0
M  V30 12461 H 1173.33 -2.07287 -2.52388 0
M  V30 12462 H 1171.99 -3.53494 -0.971475 0
M  V30 12463 H 1171.64 -3.66596 -3.44407 0
M  V30 12464 H 1171.34 -5.23832 -2.66221 0
M  V30 12465 H 1172.87 -4.96528 -3.55376 0
M  V30 12466 H 1174.28 -5.56841 -1.36386 0
M  V30 12467 H 1172.68 -5.96259 -0.677862 0
M  V30 12468 H 1173.75 -4.84535 0.188095 0
M  V30 12469 N 1175.09 0.086862 -1.5736 0
M  V30 12470 C 1176.33 0.794358 -1.88333 0
M  V30 12471 C 1176.69 1.75496 -0.778783 0
M  V30 12472 O 1177.89 2.50643 -0.971152 0
M  V30 12473 C 1176.17 1.49686 -3.24544 0
M  V30 12474 S 1177.72 2.2415 -3.7723 0
M  V30 12475 H 1174.54 0.264479 -0.659979 0
M  V30 12476 H 1177.14 0.0511046 -1.95433 0
M  V30 12477 H 1175.85 0.783713 -4.02847 0
M  V30 12478 H 1175.38 2.27984 -3.20604 0
M  V30 12479 H 1177.39 3.50426 -3.51306 0
M  V30 12480 N 1176.57 1.53483 0.357892 0
M  V30 12481 C 1177.79 1.74264 1.12458 0
M  V30 12482 C 1178.22 0.473944 1.82031 0
M  V30 12483 O 1177.58 -0.57253 1.72023 0
M  V30 12484 C 1177.62 2.91356 2.12471 0
M  V30 12485 O 1176.73 2.60502 3.19707 0
M  V30 12486 H 1176.07 0.578499 0.325937 0
M  V30 12487 H 1178.6 2.00395 0.412666 0
M  V30 12488 H 1178.61 3.1774 2.5594 0
M  V30 12489 H 1177.28 3.83378 1.61226 0
M  V30 12490 H 1175.86 2.44961 2.81156 0
M  V30 12491 N 1178.05 -0.61812 1.44973 0
M  V30 12492 C 1179.32 -1.37705 1.38913 0
M  V30 12493 C 1179.7 -2.1103 0.054385 0
M  V30 12494 O 1179.05 -2.07197 -0.963409 0
M  V30 12495 C 1179.26 -2.33265 2.59593 0
M  V30 12496 C 1180.61 -2.96197 3.04224 0
M  V30 12497 O 1181.63 -2.43589 2.59891 0
M  V30 12498 O 1180.49 -3.91666 3.8113 0
M  V30 12499 H 1177.59 -0.61694 0.55074 0
M  V30 12500 H 1180.13 -0.642088 1.57084 0
M  V30 12501 H 1178.9 -1.78271 3.48332 0
M  V30 12502 H 1178.53 -3.14158 2.43702 0
M  V30 12503 N 1179.52 -1.32087 -0.859693 0
M  V30 12504 C 1180.45 -1.23204 -1.98351 0
M  V30 12505 C 1181.43 -0.116974 -1.69697 0
M  V30 12506 O 1182.62 -0.303301 -1.91817 0
M  V30 12507 C 1179.75 -0.949171 -3.34078 0
M  V30 12508 C 1178.7 -2.02493 -3.77069 0
M  V30 12509 C 1178.03 -1.59455 -5.1037 0
M  V30 12510 C 1179.33 -3.43934 -3.93074 0
M  V30 12511 H 1181.02 -2.17227 -2.0604 0
M  V30 12512 H 1178.57 -1.04577 -0.989931 0
M  V30 12513 H 1180.52 -0.873594 -4.12245 0
M  V30 12514 H 1179.25 0.0267095 -3.26589 0
M  V30 12515 H 1177.91 -2.09057 -3.01149 0
M  V30 12516 H 1177.55 -0.606256 -4.99333 0
M  V30 12517 H 1177.25 -2.31429 -5.40106 0
M  V30 12518 H 1178.78 -1.53325 -5.91036 0
M  V30 12519 H 1180.19 -3.39986 -4.61608 0
M  V30 12520 H 1178.59 -4.14214 -4.3422 0
M  V30 12521 H 1179.66 -3.83965 -2.9614 0
M  V30 12522 N 1181 1.07532 -1.15215 0
M  V30 12523 C 1181.95 2.14687 -0.847243 0
M  V30 12524 C 1182.92 1.64903 0.199043 0
M  V30 12525 O 1184.1 1.90682 0.0669986 0
M  V30 12526 C 1181.24 3.43414 -0.340673 0
M  V30 12527 C 1180.36 4.06999 -1.44831 0
M  V30 12528 C 1179.49 5.23554 -0.898059 0
M  V30 12529 C 1178.53 5.79097 -1.98276 0
M  V30 12530 N 1177.67 6.86985 -1.44902 0
M  V30 12531 H 1182.51 2.4011 -1.76498 0
M  V30 12532 H 1180.04 1.17823 -0.880689 0
M  V30 12533 H 1182 4.1719 -0.0286956 0
M  V30 12534 H 1180.63 3.18249 0.540144 0
M  V30 12535 H 1179.68 3.30895 -1.87651 0
M  V30 12536 H 1181 4.44289 -2.26735 0
M  V30 12537 H 1180.15 6.04305 -0.538514 0
M  V30 12538 H 1178.89 4.87676 -0.0481752 0
M  V30 12539 H 1177.89 4.96992 -2.35115 0
M  V30 12540 H 1179.12 6.1703 -2.83639 0
M  V30 12541 H 1177.07 6.5305 -0.621468 0
M  V30 12542 H 1176.98 7.23149 -2.20434 0
M  V30 12543 H 1178.25 7.71446 -1.11767 0
M  V30 12544 N 1182.48 0.948665 1.2585 0
M  V30 12545 C 1183.44 0.468673 2.24357 0
M  V30 12546 C 1184.44 -0.424355 1.551 0
M  V30 12547 O 1185.63 -0.222481 1.72773 0
M  V30 12548 C 1182.77 -0.32359 3.39361 0
M  V30 12549 H 1183.96 1.33928 2.68334 0
M  V30 12550 H 1181.51 0.731357 1.38133 0
M  V30 12551 H 1182.25 -1.21212 3.00796 0
M  V30 12552 H 1182.03 0.316998 3.90816 0
M  V30 12553 H 1183.52 -0.649087 4.12525 0
M  V30 12554 N 1183.96 -1.40369 0.716545 0
M  V30 12555 C 1184.91 -2.3071 0.0645944 0
M  V30 12556 C 1185.88 -1.48239 -0.749294 0
M  V30 12557 O 1187.06 -1.76975 -0.713045 0
M  V30 12558 C 1184.2 -3.34456 -0.850478 0
M  V30 12559 C 1183.31 -4.31992 -0.0259594 0
M  V30 12560 C 1182.45 -5.22806 -0.940599 0
M  V30 12561 C 1181.49 -6.12001 -0.110228 0
M  V30 12562 N 1180.62 -6.9523 -0.979796 0
M  V30 12563 H 1185.46 -2.85896 0.840682 0
M  V30 12564 H 1183 -1.40789 0.426258 0
M  V30 12565 H 1184.96 -3.93177 -1.39528 0
M  V30 12566 H 1183.59 -2.8077 -1.59274 0
M  V30 12567 H 1182.64 -3.75045 0.636036 0
M  V30 12568 H 1183.95 -4.94971 0.616883 0
M  V30 12569 H 1183.11 -5.86463 -1.5539 0
M  V30 12570 H 1181.85 -4.60104 -1.61726 0
M  V30 12571 H 1180.85 -5.47373 0.516001 0
M  V30 12572 H 1182.08 -6.76763 0.562944 0
M  V30 12573 H 1180.02 -6.35115 -1.64209 0
M  V30 12574 H 1179.94 -7.54978 -0.393012 0
M  V30 12575 H 1181.21 -7.63335 -1.57924 0
M  V30 12576 N 1185.44 -0.462799 -1.50652 0
M  V30 12577 C 1186.68 0.0951853 -2.02576 0
M  V30 12578 C 1187.02 1.40113 -1.34469 0
M  V30 12579 O 1186.29 1.88793 -0.467702 0
M  V30 12580 C 1186.57 0.287603 -3.5895 0
M  V30 12581 C 1186.43 -1.03878 -4.37641 0
M  V30 12582 C 1187.75 1.04593 -4.27491 0
M  V30 12583 H 1184.86 0.0331191 -0.736255 0
M  V30 12584 H 1187.51 -0.606772 -1.80051 0
M  V30 12585 H 1185.66 0.885514 -3.78274 0
M  V30 12586 H 1187.33 -1.67263 -4.29908 0
M  V30 12587 H 1185.57 -1.6374 -4.01711 0
M  V30 12588 H 1186.24 -0.857889 -5.45293 0
M  V30 12589 H 1188.72 0.539213 -4.12591 0
M  V30 12590 H 1187.59 1.14935 -5.36732 0
M  V30 12591 H 1187.86 2.08045 -3.90089 0
M  V30 12592 N 1186.91 1.56388 -0.195085 0
M  V30 12593 C 1188.33 1.58788 0.160758 0
M  V30 12594 C 1188.53 1.21125 1.61031 0
M  V30 12595 O 1187.59 0.933994 2.34591 0
M  V30 12596 C 1188.9 3.00366 -0.141588 0
M  V30 12597 C 1190.45 3.12893 -0.0816947 0
M  V30 12598 C 1190.92 4.56604 -0.35735 0
M  V30 12599 N 1192.41 4.62188 -0.305968 0
M  V30 12600 C 1193.15 5.71276 -0.493108 0
M  V30 12601 N 1192.64 6.8883 -0.740595 0
M  V30 12602 N 1194.44 5.60473 -0.427365 0
M  V30 12603 H 1186.59 1.79151 -1.14099 0
M  V30 12604 H 1188.85 0.831446 -0.455413 0
M  V30 12605 H 1188.56 3.32483 -1.14666 0
M  V30 12606 H 1188.43 3.73082 0.555834 0
M  V30 12607 H 1190.82 2.80589 0.913978 0
M  V30 12608 H 1190.9 2.42564 -0.812193 0
M  V30 12609 H 1190.54 4.8962 -1.35034 0
M  V30 12610 H 1190.47 5.25124 0.394036 0
M  V30 12611 H 1192.96 3.77705 -0.121298 0
M  V30 12612 H 1193.28 7.67862 -0.872201 0
M  V30 12613 H 1191.62 6.90637 -0.777488 0
M  V30 12614 H 1194.81 4.67513 -0.234436 0
M  V30 12615 H 1194.99 6.45429 -0.576627 0
M  V30 12616 N 1188.39 -0.0785156 1.57404 0
M  V30 12617 C 1189.36 -1.07835 2.02248 0
M  V30 12618 C 1190.36 -1.31987 0.918475 0
M  V30 12619 O 1191.55 -1.27821 1.18353 0
M  V30 12620 C 1188.68 -2.42361 2.39737 0
M  V30 12621 H 1189.87 -0.691995 2.91807 0
M  V30 12622 H 1187.42 -0.32405 1.52904 0
M  V30 12623 H 1188.16 -2.85841 1.53183 0
M  V30 12624 H 1187.94 -2.26174 3.20293 0
M  V30 12625 H 1189.43 -3.14241 2.75031 0
M  V30 12626 N 1189.87 -1.5367 -0.349747 0
M  V30 12627 C 1191.12 -1.70281 -1.08853 0
M  V30 12628 C 1191.44 -0.465438 -1.89364 0
M  V30 12629 O 1190.71 0.520615 -1.88856 0
M  V30 12630 H 1189.29 -0.627775 -0.404854 0
M  V30 12631 H 1191.95 -1.90906 -0.392523 0
M  V30 12632 H 1191.05 -2.57096 -1.76941 0
M  V30 12633 N 1191.35 0.610423 -1.45298 0
M  V30 12634 C 1192.3 1.7213 -1.53753 0
M  V30 12635 C 1193.27 1.61609 -0.383632 0
M  V30 12636 O 1194.45 1.8123 -0.596694 0
M  V30 12637 C 1191.59 3.10433 -1.50749 0
M  V30 12638 C 1190.7 3.3178 -2.76669 0
M  V30 12639 C 1189.84 4.60173 -2.65356 0
M  V30 12640 C 1188.88 4.74769 -3.86343 0
M  V30 12641 N 1188.01 5.94459 -3.73581 0
M  V30 12642 H 1192.85 1.64239 -2.48655 0
M  V30 12643 H 1190.39 0.800879 -1.23387 0
M  V30 12644 H 1192.35 3.90446 -1.46996 0
M  V30 12645 H 1190.98 3.17288 -0.593998 0
M  V30 12646 H 1190.03 2.45563 -2.90522 0
M  V30 12647 H 1191.34 3.38439 -3.66416 0
M  V30 12648 H 1190.5 5.48377 -2.59553 0
M  V30 12649 H 1189.24 4.55907 -1.73204 0
M  V30 12650 H 1188.24 3.8499 -3.92509 0
M  V30 12651 H 1189.47 4.80834 -4.79557 0
M  V30 12652 H 1187.41 5.91243 -2.84196 0
M  V30 12653 H 1187.33 6.02265 -4.5696 0
M  V30 12654 H 1188.6 6.85168 -3.71705 0
M  V30 12655 N 1192.83 1.32541 0.852676 0
M  V30 12656 C 1193.76 1.17471 1.96807 0
M  V30 12657 C 1194.77 0.109198 1.62433 0
M  V30 12658 O 1195.96 0.358342 1.74866 0
M  V30 12659 C 1193.06 0.776328 3.29888 0
M  V30 12660 C 1192.23 1.93055 3.9249 0
M  V30 12661 C 1191.29 1.51539 5.03907 0
M  V30 12662 O 1190.32 2.22771 5.23796 0
M  V30 12663 N 1191.52 0.412533 5.79032 0
M  V30 12664 H 1194.29 2.13551 2.10276 0
M  V30 12665 H 1191.85 1.25104 1.02764 0
M  V30 12666 H 1193.84 0.48096 4.01832 0
M  V30 12667 H 1192.41 -0.0933749 3.12461 0
M  V30 12668 H 1191.63 2.39231 3.13309 0
M  V30 12669 H 1192.92 2.70321 4.3105 0
M  V30 12670 H 1192.31 -0.180286 5.65413 0
M  V30 12671 H 1190.87 0.17678 6.5156 0
M  V30 12672 N 1194.3 -1.0692 1.15784 0
M  V30 12673 C 1195.53 -1.83045 0.958031 0
M  V30 12674 C 1195.94 -1.82555 -0.497027 0
M  V30 12675 O 1195.29 -1.23864 -1.35659 0
M  V30 12676 C 1195.35 -3.31096 1.40056 0
M  V30 12677 C 1195.01 -3.55299 2.87423 0
M  V30 12678 C 1196.01 -3.48875 3.85463 0
M  V30 12679 C 1193.69 -3.82824 3.25194 0
M  V30 12680 C 1195.69 -3.69633 5.19279 0
M  V30 12681 C 1193.37 -4.03232 4.59181 0
M  V30 12682 C 1194.37 -3.96633 5.56032 0
M  V30 12683 O 1194.06 -4.16492 6.87597 0
M  V30 12684 H 1193.79 -0.584218 0.340095 0
M  V30 12685 H 1196.35 -1.35841 1.54066 0
M  V30 12686 H 1194.58 -3.79131 0.761361 0
M  V30 12687 H 1196.27 -3.88697 1.16916 0
M  V30 12688 H 1197.03 -3.27608 3.57629 0
M  V30 12689 H 1192.91 -3.87073 2.50391 0
M  V30 12690 H 1196.45 -3.64398 5.94861 0
M  V30 12691 H 1192.35 -4.23988 4.86729 0
M  V30 12692 H 1193.12 -4.33815 6.9408 0
M  V30 12693 N 1195.78 -0.955326 -1.25345 0
M  V30 12694 C 1197.03 -0.606149 -1.92377 0
M  V30 12695 C 1197.34 0.860927 -1.75634 0
M  V30 12696 O 1198.55 1.3201 -2.37246 0
M  V30 12697 C 1197.01 -1.03341 -3.44744 0
M  V30 12698 C 1196.61 -2.52308 -3.70196 0
M  V30 12699 C 1198.36 -0.756797 -4.17699 0
M  V30 12700 C 1196.27 -2.88831 -5.16072 0
M  V30 12701 H 1195.2 -0.222994 -0.720271 0
M  V30 12702 H 1197.85 -1.15987 -1.42194 0
M  V30 12703 H 1196.23 -0.408096 -3.93892 0
M  V30 12704 H 1197.4 -3.19864 -3.31698 0
M  V30 12705 H 1195.72 -2.77448 -3.10502 0
M  V30 12706 H 1198.31 -1.00583 -5.25154 0
M  V30 12707 H 1198.66 0.306794 -4.15168 0
M  V30 12708 H 1199.19 -1.34249 -3.74462 0
M  V30 12709 H 1195.93 -3.9421 -5.23716 0
M  V30 12710 H 1195.45 -2.25948 -5.55614 0
M  V30 12711 H 1197.13 -2.78061 -5.84201 0
M  V30 12712 N 1197.26 1.39987 -0.723979 0
M  V30 12713 C 1198.49 2.0556 -0.275634 0
M  V30 12714 C 1198.91 1.54207 1.07711 0
M  V30 12715 O 1198.27 0.681041 1.68022 0
M  V30 12716 C 1198.32 3.59551 -0.27485 0
M  V30 12717 O 1197.42 4.05685 0.741182 0
M  V30 12718 H 1196.76 0.651634 -0.12755 0
M  V30 12719 H 1199.29 1.79229 -0.986814 0
M  V30 12720 H 1199.3 4.07837 -0.115425 0
M  V30 12721 H 1197.98 3.96291 -1.26198 0
M  V30 12722 H 1196.55 3.6884 0.548795 0
M  V30 12723 N 1198.74 0.470782 1.50404 0
M  V30 12724 C 1199.69 -0.337584 2.30137 0
M  V30 12725 C 1200.68 -0.990673 1.37412 0
M  V30 12726 O 1201.89 -0.921813 1.54605 0
M  V30 12727 H 1198.26 -0.127707 0.741077 0
M  V30 12728 H 1200.23 0.355297 2.96277 0
M  V30 12729 C 1198.98 -1.40714 3.17954 0
M  V30 12730 H 1198.31 -0.913982 3.89213 0
M  V30 12731 H 1199.75 -1.94533 3.7674 0
M  V30 12732 C 1198.2 -2.40889 2.35529 0
M  V30 12733 O 1198.73 -3.46153 2.03816 0
M  V30 12734 N 1196.94 -2.126 1.98115 0
M  V30 12735 H 1196.49 -1.27023 2.24105 0
M  V30 12736 H 1196.45 -2.7986 1.43269 0
M  V30 12737 N 1200.22 -1.56282 0.203376 0
M  V30 12738 C 1201.49 -1.89587 -0.481256 0
M  V30 12739 C 1201.87 -1.11812 -1.79057 0
M  V30 12740 O 1201.22 -0.221759 -2.27421 0
M  V30 12741 C 1201.43 -3.42071 -0.691965 0
M  V30 12742 C 1202.78 -4.12471 -1.00761 0
M  V30 12743 O 1203.8 -3.47568 -0.779396 0
M  V30 12744 O 1202.66 -5.27194 -1.43974 0
M  V30 12745 H 1199.76 -0.787682 -0.251963 0
M  V30 12746 H 1202.3 -1.67934 0.244207 0
M  V30 12747 H 1201.08 -3.9061 0.232322 0
M  V30 12748 H 1200.7 -3.69444 -1.46958 0
M  V30 12749 N 1201.7 0.070167 -1.57444 0
M  V30 12750 C 1203.11 0.621805 -1.76041 0
M  V30 12751 C 1203.46 1.77824 -0.829047 0
M  V30 12752 O 1202.58 2.16396 -0.0135453 0
M  V30 12753 C 1203.18 1.13476 -3.19231 0
M  V30 12754 C 1201.74 1.63225 -3.39167 0
M  V30 12755 C 1200.88 0.552369 -2.71743 0
M  V30 12756 H 1203.83 -0.156009 -1.57931 0
M  V30 12757 H 1203.86 2.00352 -3.2348 0
M  V30 12758 H 1203.37 0.29288 -3.86993 0
M  V30 12759 H 1201.47 2.49733 -2.76522 0
M  V30 12760 H 1201.58 1.70807 -4.47618 0
M  V30 12761 H 1199.95 0.997797 -2.34342 0
M  V30 12762 H 1200.73 -0.279354 -3.42162 0
M  V30 12763 N 1203.17 1.53854 0.341593 0
M  V30 12764 C 1204.4 1.7488 1.10002 0
M  V30 12765 C 1204.81 0.488802 1.82777 0
M  V30 12766 O 1204.15 -0.549333 1.75294 0
M  V30 12767 C 1204.22 2.87604 2.15694 0
M  V30 12768 C 1203.88 4.27142 1.62477 0
M  V30 12769 C 1204.88 5.08642 1.07606 0
M  V30 12770 C 1202.56 4.73633 1.67265 0
M  V30 12771 C 1204.56 6.34735 0.582284 0
M  V30 12772 C 1202.24 5.99697 1.175 0
M  V30 12773 C 1203.24 6.80081 0.630742 0
M  V30 12774 O 1202.93 8.03777 0.140519 0
M  V30 12775 H 1202.66 0.587824 0.333824 0
M  V30 12776 H 1205.22 2.01488 0.398965 0
M  V30 12777 H 1203.45 2.56526 2.89364 0
M  V30 12778 H 1205.13 2.96583 2.77117 0
M  V30 12779 H 1205.9 4.73887 1.03227 0
M  V30 12780 H 1201.78 4.11121 2.08567 0
M  V30 12781 H 1205.32 6.97424 0.156811 0
M  V30 12782 H 1201.22 6.33947 1.21579 0
M  V30 12783 H 1201.99 8.18094 0.257626 0
M  V30 12784 N 1204.65 -0.602709 1.4562 0
M  V30 12785 C 1205.88 -1.3881 1.53426 0
M  V30 12786 C 1206.29 -1.88046 0.16851 0
M  V30 12787 O 1205.65 -1.62493 -0.830791 0
M  V30 12788 C 1205.7 -2.58927 2.52268 0
M  V30 12789 O 1205.42 -2.11735 3.83536 0
M  V30 12790 C 1206.92 -3.51728 2.69819 0
M  V30 12791 H 1204.14 -0.424744 0.519455 0
M  V30 12792 H 1206.69 -0.73459 1.90851 0
M  V30 12793 H 1204.84 -3.20309 2.17902 0
M  V30 12794 H 1205.26 -2.89814 4.37159 0
M  V30 12795 H 1206.73 -4.32542 3.42945 0
M  V30 12796 H 1207.21 -4.02383 1.76024 0
M  V30 12797 H 1207.81 -2.96196 3.05202 0
M  V30 12798 N 1206.13 -1.32992 -0.845635 0
M  V30 12799 C 1207.06 -1.18513 -1.96182 0
M  V30 12800 C 1208.07 -0.11781 -1.62373 0
M  V30 12801 O 1209.26 -0.36761 -1.74674 0
M  V30 12802 C 1206.36 -0.793812 -3.29472 0
M  V30 12803 C 1205.54 -1.95134 -3.91461 0
M  V30 12804 C 1204.6 -1.54209 -5.03096 0
M  V30 12805 O 1203.62 -2.25545 -5.22607 0
M  V30 12806 N 1204.82 -0.443235 -5.78805 0
M  V30 12807 H 1207.59 -2.14663 -2.09141 0
M  V30 12808 H 1205.15 -1.25648 -1.02099 0
M  V30 12809 H 1207.14 -0.502263 -4.01571 0
M  V30 12810 H 1205.71 0.0768031 -3.12506 0
M  V30 12811 H 1204.93 -2.40889 -3.12035 0
M  V30 12812 H 1206.22 -2.72604 -4.2961 0
M  V30 12813 H 1205.62 0.150298 -5.655 0
M  V30 12814 H 1204.17 -0.211331 -6.51457 0
M  V30 12815 N 1207.61 1.06304 -1.1635 0
M  V30 12816 C 1208.55 2.13776 -0.869965 0
M  V30 12817 C 1209.52 1.65105 0.181541 0
M  V30 12818 O 1210.71 1.90743 0.0467705 0
M  V30 12819 C 1207.85 3.43034 -0.377077 0
M  V30 12820 C 1206.96 4.0544 -1.4914 0
M  V30 12821 C 1206.1 5.22572 -0.953538 0
M  V30 12822 C 1205.14 5.76961 -2.04407 0
M  V30 12823 N 1204.27 6.85409 -1.52181 0
M  V30 12824 H 1209.11 2.38224 -1.79034 0
M  V30 12825 H 1206.65 1.16882 -0.893136 0
M  V30 12826 H 1208.61 4.17136 -0.0729426 0
M  V30 12827 H 1207.24 3.18804 0.506359 0
M  V30 12828 H 1206.29 3.28886 -1.9115 0
M  V30 12829 H 1207.6 4.41859 -2.31434 0
M  V30 12830 H 1206.76 6.037 -0.602579 0
M  V30 12831 H 1205.5 4.87598 -0.099897 0
M  V30 12832 H 1204.5 4.9447 -2.40373 0
M  V30 12833 H 1205.73 6.13987 -2.90167 0
M  V30 12834 H 1203.67 6.52354 -0.690697 0
M  V30 12835 H 1203.59 7.2077 -2.28092 0
M  V30 12836 H 1204.86 7.70217 -1.19942 0
M  V30 12837 N 1209.09 0.96196 1.24836 0
M  V30 12838 C 1210.02 0.445329 2.24832 0
M  V30 12839 C 1211.03 -0.442797 1.56663 0
M  V30 12840 O 1212.22 -0.249896 1.76742 0
M  V30 12841 C 1209.32 -0.376953 3.36797 0
M  V30 12842 C 1208.49 0.499908 4.34534 0
M  V30 12843 C 1207.55 -0.265402 5.2553 0
M  V30 12844 O 1206.58 0.338707 5.68191 0
M  V30 12845 N 1207.78 -1.55654 5.59243 0
M  V30 12846 H 1210.54 1.30505 2.69793 0
M  V30 12847 H 1208.11 0.833137 1.38818 0
M  V30 12848 H 1210.1 -0.896831 3.94638 0
M  V30 12849 H 1208.67 -1.13757 2.91167 0
M  V30 12850 H 1207.89 1.20082 3.75465 0
M  V30 12851 H 1209.18 1.09814 4.96808 0
M  V30 12852 H 1208.57 -2.06916 5.265 0
M  V30 12853 H 1207.13 -2.02223 6.19636 0
M  V30 12854 N 1210.56 -1.39601 0.731392 0
M  V30 12855 C 1211.81 -1.99821 0.274661 0
M  V30 12856 C 1212.13 -1.58693 -1.1435 0
M  V30 12857 O 1213.33 -2.11724 -1.69957 0
M  V30 12858 C 1211.79 -3.57199 0.440124 0
M  V30 12859 C 1211.4 -4.07292 1.86594 0
M  V30 12860 C 1213.14 -4.24476 0.0449851 0
M  V30 12861 C 1211.05 -5.57229 1.98115 0
M  V30 12862 H 1209.98 -0.747481 0.0989383 0
M  V30 12863 H 1212.63 -1.59645 0.904755 0
M  V30 12864 H 1211.01 -3.95153 -0.25881 0
M  V30 12865 H 1212.18 -3.80679 2.59654 0
M  V30 12866 H 1210.5 -3.52665 2.21397 0
M  V30 12867 H 1213.1 -5.34587 0.110126 0
M  V30 12868 H 1213.44 -4.04129 -0.999269 0
M  V30 12869 H 1213.97 -3.91683 0.694942 0
M  V30 12870 H 1210.71 -5.82452 3.00716 0
M  V30 12871 H 1210.23 -5.85656 1.29487 0
M  V30 12872 H 1211.91 -6.22584 1.76063 0
M  V30 12873 N 1212.04 -0.478751 -1.50152 0
M  V30 12874 C 1212.97 0.301182 -2.31549 0
M  V30 12875 C 1213.95 0.983276 -1.38801 0
M  V30 12876 O 1215.14 0.978973 -1.67719 0
M  V30 12877 C 1212.27 1.3791 -3.18745 0
M  V30 12878 C 1211.22 0.818175 -4.20107 0
M  V30 12879 C 1210.55 1.99496 -4.9609 0
M  V30 12880 C 1211.85 -0.17574 -5.22004 0
M  V30 12881 H 1213.54 -0.378188 -2.97002 0
M  V30 12882 H 1211.09 -0.183323 -1.42828 0
M  V30 12883 H 1213.04 1.93227 -3.74488 0
M  V30 12884 H 1211.77 2.08735 -2.51192 0
M  V30 12885 H 1210.42 0.286924 -3.65475 0
M  V30 12886 H 1210.07 2.69036 -4.25004 0
M  V30 12887 H 1209.77 1.62582 -5.6466 0
M  V30 12888 H 1211.3 2.55288 -5.54671 0
M  V30 12889 H 1212.71 0.288513 -5.72574 0
M  V30 12890 H 1211.11 -0.459549 -5.98338 0
M  V30 12891 H 1212.18 -1.09911 -4.72279 0
M  V30 12892 N 1213.52 1.56172 -0.211661 0
M  V30 12893 C 1214.75 2.02874 0.430905 0
M  V30 12894 C 1215.17 1.09064 1.53254 0
M  V30 12895 O 1214.53 0.0770408 1.81136 0
M  V30 12896 C 1214.58 3.4789 0.948933 0
M  V30 12897 O 1213.68 3.57213 2.0609 0
M  V30 12898 H 1213.02 0.656614 0.0987607 0
M  V30 12899 H 1215.55 2.01964 -0.327399 0
M  V30 12900 H 1215.56 3.88015 1.2613 0
M  V30 12901 H 1214.24 4.15656 0.142584 0
M  V30 12902 H 1212.81 3.28971 1.75592 0
M  V30 12903 N 1215 -0.0618163 1.57479 0
M  V30 12904 C 1215.95 -1.09105 2.05424 0
M  V30 12905 C 1216.94 -1.3947 0.961479 0
M  V30 12906 O 1218.15 -1.3876 1.14655 0
M  V30 12907 H 1214.52 -0.36923 0.655113 0
M  V30 12908 H 1216.49 -0.66061 2.90996 0
M  V30 12909 C 1215.24 -2.39345 2.52209 0
M  V30 12910 H 1214.56 -2.16832 3.35893 0
M  V30 12911 H 1216 -3.09784 2.89499 0
M  V30 12912 C 1214.46 -3.06011 1.40922 0
M  V30 12913 O 1214.99 -3.94504 0.756921 0
M  V30 12914 N 1213.2 -2.66797 1.15186 0
M  V30 12915 H 1212.75 -1.94923 1.68412 0
M  V30 12916 H 1212.7 -3.11724 0.409324 0
M  V30 12917 N 1216.48 -1.54033 -0.333429 0
M  V30 12918 C 1217.71 -1.75461 -1.09073 0
M  V30 12919 C 1218.11 -0.498488 -1.82515 0
M  V30 12920 O 1217.46 0.540029 -1.75583 0
M  V30 12921 C 1217.52 -2.88744 -2.14166 0
M  V30 12922 C 1217.18 -4.27998 -1.60209 0
M  V30 12923 C 1218.18 -5.09206 -1.04907 0
M  V30 12924 C 1215.87 -4.74513 -1.6475 0
M  V30 12925 C 1217.86 -6.35035 -0.548615 0
M  V30 12926 C 1215.55 -6.00312 -1.14318 0
M  V30 12927 C 1216.54 -6.80406 -0.594667 0
M  V30 12928 O 1216.23 -8.0384 -0.097891 0
M  V30 12929 H 1215.96 -0.589586 -0.330702 0
M  V30 12930 H 1218.52 -2.01697 -0.388274 0
M  V30 12931 H 1216.75 -2.58057 -2.87999 0
M  V30 12932 H 1218.44 -2.98048 -2.7554 0
M  V30 12933 H 1219.2 -4.74428 -1.00713 0
M  V30 12934 H 1215.08 -4.12222 -2.06384 0
M  V30 12935 H 1218.63 -6.97497 -0.119823 0
M  V30 12936 H 1214.52 -6.34583 -1.18215 0
M  V30 12937 H 1215.29 -8.1822 -0.214237 0
M  V30 12938 N 1217.95 0.594978 -1.45938 0
M  V30 12939 C 1219.37 1.17703 -1.44924 0
M  V30 12940 C 1219.72 1.9534 -0.183522 0
M  V30 12941 O 1218.84 2.04276 0.714163 0
M  V30 12942 C 1219.44 2.14119 -2.62561 0
M  V30 12943 C 1218 2.67674 -2.64627 0
M  V30 12944 C 1217.14 1.43312 -2.37397 0
M  V30 12945 H 1220.09 0.383583 -1.53995 0
M  V30 12946 H 1220.11 2.97374 -2.3738 0
M  V30 12947 H 1219.63 1.57586 -3.54667 0
M  V30 12948 H 1217.73 3.28111 -1.76562 0
M  V30 12949 H 1217.84 3.11246 -3.64229 0
M  V30 12950 H 1216.2 1.72702 -1.87206 0
M  V30 12951 H 1216.99 0.886276 -3.31663 0
M  V30 12952 N 1219.43 1.33438 0.838571 0
M  V30 12953 C 1220.38 1.20285 1.93689 0
M  V30 12954 C 1221.37 0.105686 1.60553 0
M  V30 12955 O 1222.56 0.333814 1.73824 0
M  V30 12956 C 1219.69 0.944544 3.3005 0
M  V30 12957 C 1218.77 2.08416 3.69356 0
M  V30 12958 N 1219.16 3.33415 3.80353 0
M  V30 12959 C 1217.46 1.99092 3.99097 0
M  V30 12960 C 1218.16 4.08159 4.14465 0
M  V30 12961 N 1217.14 3.36601 4.2685 0
M  V30 12962 H 1220.94 2.1503 2.00348 0
M  V30 12963 H 1218.46 1.2545 1.03131 0
M  V30 12964 H 1220.45 0.831242 4.08529 0
M  V30 12965 H 1219.11 0.00562273 3.247 0
M  V30 12966 H 1220.12 3.68159 3.64252 0
M  V30 12967 H 1216.8 1.12861 4.01956 0
M  V30 12968 H 1218.19 5.16027 4.30308 0
M  V30 12969 N 1220.91 -1.05686 1.16912 0
M  V30 12970 C 1221.84 -2.12775 0.824755 0
M  V30 12971 C 1222.82 -1.61286 -0.206289 0
M  V30 12972 O 1224.01 -1.8829 -0.0889616 0
M  V30 12973 C 1221.13 -3.37922 0.229422 0
M  V30 12974 C 1220.18 -4.08226 1.23506 0
M  V30 12975 S 1221.01 -4.57424 2.78431 0
M  V30 12976 C 1222.17 -5.85825 2.20364 0
M  V30 12977 H 1222.4 -2.41657 1.73174 0
M  V30 12978 H 1219.93 -1.18212 0.99324 0
M  V30 12979 H 1221.89 -4.10359 -0.107588 0
M  V30 12980 H 1220.55 -3.07186 -0.655424 0
M  V30 12981 H 1219.75 -4.98129 0.767059 0
M  V30 12982 H 1219.35 -3.41832 1.51747 0
M  V30 12983 H 1221.64 -6.58912 1.57611 0
M  V30 12984 H 1222.58 -6.37364 3.08501 0
M  V30 12985 H 1222.99 -5.4015 1.64008 0
M  V30 12986 N 1222.39 -0.968567 -1.24324 0
M  V30 12987 C 1223.61 -0.648166 -1.97012 0
M  V30 12988 C 1224.04 0.775842 -1.71354 0
M  V30 12989 O 1223.4 1.52672 -0.977804 0
M  V30 12990 C 1223.44 -0.929974 -3.48402 0
M  V30 12991 O 1222.55 -0.015854 -4.12397 0
M  V30 12992 H 1221.89 -0.244961 -0.617163 0
M  V30 12993 H 1224.42 -1.29895 -1.58077 0
M  V30 12994 H 1224.43 -0.861863 -3.98793 0
M  V30 12995 H 1223.1 -1.96776 -3.66404 0
M  V30 12996 H 1221.68 -0.137361 -3.72647 0
M  V30 12997 N 1223.87 1.39211 -0.738786 0
M  V30 12998 C 1225.1 2.04435 -0.298318 0
M  V30 12999 C 1225.5 1.55822 1.07314 0
M  V30 13000 O 1224.85 0.719922 1.69005 0
M  V30 13001 C 1224.91 3.58789 -0.225979 0
M  V30 13002 C 1224.57 4.30395 -1.53653 0
M  V30 13003 C 1225.57 4.56777 -2.48295 0
M  V30 13004 C 1223.26 4.68869 -1.80187 0
M  V30 13005 C 1225.25 5.20648 -3.67702 0
M  V30 13006 C 1222.94 5.32467 -2.99871 0
M  V30 13007 C 1223.93 5.58289 -3.93449 0
M  V30 13008 O 1223.62 6.20567 -5.1103 0
M  V30 13009 H 1223.35 0.663848 -0.127603 0
M  V30 13010 H 1225.91 1.79171 -1.00433 0
M  V30 13011 H 1224.14 3.82965 0.536164 0
M  V30 13012 H 1225.83 4.05487 0.182996 0
M  V30 13013 H 1226.59 4.27497 -2.29066 0
M  V30 13014 H 1222.47 4.48124 -1.08193 0
M  V30 13015 H 1226.02 5.4072 -4.40759 0
M  V30 13016 H 1221.91 5.61169 -3.18998 0
M  V30 13017 H 1222.68 6.39059 -5.11415 0
M  V30 13018 N 1225.34 0.486708 1.49896 0
M  V30 13019 C 1226.25 -0.304222 2.32619 0
M  V30 13020 C 1227.27 -0.981103 1.43702 0
M  V30 13021 O 1228.45 -0.965639 1.76741 0
M  V30 13022 C 1225.51 -1.36301 3.18783 0
M  V30 13023 C 1224.57 -0.701082 4.23537 0
M  V30 13024 C 1223.81 -1.70943 5.05583 0
M  V30 13025 O 1224.03 -2.93773 4.88931 0
M  V30 13026 O 1222.96 -1.27263 5.88292 0
M  V30 13027 H 1226.79 0.37248 3.01407 0
M  V30 13028 H 1224.37 0.248277 1.47323 0
M  V30 13029 H 1226.26 -1.97594 3.72202 0
M  V30 13030 H 1224.93 -2.0229 2.52706 0
M  V30 13031 H 1223.84 -0.0487926 3.74068 0
M  V30 13032 H 1225.17 -0.0838817 4.92129 0
M  V30 13033 N 1226.82 -1.56058 0.219941 0
M  V30 13034 C 1227.77 -2.21585 -0.707321 0
M  V30 13035 C 1228.77 -1.19473 -1.20094 0
M  V30 13036 O 1229.97 -1.37557 -1.16095 0
M  V30 13037 H 1226.35 -0.710447 -0.246515 0
M  V30 13038 H 1228.32 -2.98111 -0.131214 0
M  V30 13039 C 1227.07 -2.90841 -1.90544 0
M  V30 13040 H 1226.39 -3.6917 -1.53472 0
M  V30 13041 H 1227.83 -3.40092 -2.53206 0
M  V30 13042 C 1226.29 -1.93223 -2.75983 0
M  V30 13043 O 1226.82 -1.44815 -3.74689 0
M  V30 13044 N 1225.02 -1.60907 -2.41986 0
M  V30 13045 H 1224.57 -2.00467 -1.61774 0
M  V30 13046 H 1224.53 -0.958534 -2.99432 0
M  V30 13047 N 1228.3 0.053464 -1.57509 0
M  V30 13048 C 1229.25 1.06155 -2.04939 0
M  V30 13049 C 1230.22 1.37382 -0.93357 0
M  V30 13050 O 1231.4 1.48137 -1.2025 0
M  V30 13051 C 1228.54 2.36476 -2.51343 0
M  V30 13052 C 1227.66 2.1162 -3.76618 0
M  V30 13053 C 1226.79 3.35636 -4.11731 0
M  V30 13054 C 1225.83 3.06226 -5.29993 0
M  V30 13055 N 1224.97 4.22623 -5.60655 0
M  V30 13056 H 1229.81 0.650122 -2.90822 0
M  V30 13057 H 1227.34 0.309421 -1.43809 0
M  V30 13058 H 1229.3 3.12588 -2.76306 0
M  V30 13059 H 1227.93 2.75386 -1.68411 0
M  V30 13060 H 1226.98 1.26116 -3.58886 0
M  V30 13061 H 1228.3 1.85909 -4.6286 0
M  V30 13062 H 1227.45 4.20132 -4.37692 0
M  V30 13063 H 1226.19 3.64439 -3.24092 0
M  V30 13064 H 1225.19 2.20128 -5.03809 0
M  V30 13065 H 1226.42 2.78726 -6.19265 0
M  V30 13066 H 1224.37 4.51424 -4.75976 0
M  V30 13067 H 1224.28 4.0025 -6.41355 0
M  V30 13068 H 1225.55 5.08063 -5.91178 0
M  V30 13069 N 1229.78 1.54207 0.325255 0
M  V30 13070 C 1231.03 1.72331 1.0634 0
M  V30 13071 C 1231.35 0.496115 1.88066 0
M  V30 13072 O 1230.61 -0.52214 1.88606 0
M  V30 13073 C 1230.91 2.95 2.01766 0
M  V30 13074 C 1230.57 4.29835 1.36208 0
M  V30 13075 C 1229.24 4.66493 1.18059 0
M  V30 13076 C 1231.59 5.13521 0.891404 0
M  V30 13077 C 1228.92 5.84436 0.514894 0
M  V30 13078 C 1231.27 6.32146 0.239534 0
M  V30 13079 C 1229.93 6.67484 0.0458839 0
M  V30 13080 H 1229.2 0.630605 0.389125 0
M  V30 13081 H 1231.85 1.88445 0.34072 0
M  V30 13082 H 1230.15 2.73567 2.80479 0
M  V30 13083 H 1231.85 3.06217 2.58906 0
M  V30 13084 H 1228.44 4.00993 1.51335 0
M  V30 13085 H 1232.63 4.85718 1.01941 0
M  V30 13086 H 1227.88 6.10376 0.353644 0
M  V30 13087 H 1232.06 6.96273 -0.133185 0
M  V30 13088 H 1229.68 7.58733 -0.471978 0
M  V30 13089 N 1231.26 -0.58723 1.46251 0
M  V30 13090 C 1232.19 -1.71103 1.52501 0
M  V30 13091 C 1233.2 -1.57454 0.413772 0
M  V30 13092 O 1234.39 -1.64962 0.681902 0
M  V30 13093 C 1231.49 -3.0931 1.38493 0
M  V30 13094 C 1230.66 -3.49005 2.63655 0
M  V30 13095 C 1229.72 -4.66255 2.43911 0
M  V30 13096 O 1228.75 -4.72344 3.17616 0
M  V30 13097 N 1229.95 -5.60843 1.49784 0
M  V30 13098 H 1232.72 -1.66198 2.49396 0
M  V30 13099 H 1230.28 -0.773087 1.4225 0
M  V30 13100 H 1232.27 -3.85535 1.23064 0
M  V30 13101 H 1230.84 -3.08608 0.497963 0
M  V30 13102 H 1230.06 -2.62533 2.94058 0
M  V30 13103 H 1231.35 -3.72291 3.4681 0
M  V30 13104 H 1230.75 -5.58656 0.889972 0
M  V30 13105 H 1229.3 -6.36517 1.4032 0
M  V30 13106 N 1232.74 -1.33881 -0.831482 0
M  V30 13107 C 1233.98 -1.251 -1.58218 0
M  V30 13108 C 1234.3 0.17963 -1.94773 0
M  V30 13109 O 1235.5 0.389516 -2.68691 0
M  V30 13110 C 1233.96 -2.19246 -2.8541 0
M  V30 13111 C 1233.57 -3.6752 -2.5619 0
M  V30 13112 C 1235.31 -2.19355 -3.63433 0
M  V30 13113 C 1233.22 -4.53559 -3.79523 0
M  V30 13114 H 1232.15 -0.46469 -0.593784 0
M  V30 13115 H 1234.8 -1.58992 -0.916169 0
M  V30 13116 H 1233.18 -1.78295 -3.53591 0
M  V30 13117 H 1234.36 -4.16956 -1.96173 0
M  V30 13118 H 1232.67 -3.69774 -1.91458 0
M  V30 13119 H 1235.27 -2.80863 -4.54995 0
M  V30 13120 H 1235.61 -1.19056 -3.98913 0
M  V30 13121 H 1236.14 -2.58706 -3.02185 0
M  V30 13122 H 1232.88 -5.54762 -3.4917 0
M  V30 13123 H 1232.4 -4.08862 -4.38853 0
M  V30 13124 H 1234.08 -4.67736 -4.47025 0
M  V30 13125 N 1234.21 1.05064 -1.1747 0
M  V30 13126 C 1235.15 2.12842 -0.850344 0
M  V30 13127 C 1236.16 1.62128 0.147796 0
M  V30 13128 O 1237.35 1.78327 -0.0786774 0
M  V30 13129 C 1234.45 3.37995 -0.247486 0
M  V30 13130 C 1233.62 4.17981 -1.28881 0
M  V30 13131 C 1232.68 5.21476 -0.703476 0
M  V30 13132 O 1231.71 5.52327 -1.37561 0
M  V30 13133 N 1232.91 5.78309 0.50387 0
M  V30 13134 H 1235.67 2.41264 -1.77797 0
M  V30 13135 H 1233.23 1.21172 -1.07373 0
M  V30 13136 H 1235.23 4.04394 0.157424 0
M  V30 13137 H 1233.8 3.07097 0.583952 0
M  V30 13138 H 1233.02 3.47054 -1.86942 0
M  V30 13139 H 1234.3 4.6822 -1.99116 0
M  V30 13140 H 1233.7 5.5553 1.06787 0
M  V30 13141 H 1232.26 6.46223 0.850828 0
M  V30 13142 N 1235.69 0.975146 1.23809 0
M  V30 13143 C 1236.6 0.51917 2.28783 0
M  V30 13144 C 1237.62 -0.423487 1.68768 0
M  V30 13145 O 1238.79 -0.294699 1.99232 0
M  V30 13146 C 1235.86 -0.176229 3.46252 0
M  V30 13147 C 1234.92 0.807177 4.21643 0
M  V30 13148 C 1234.15 0.144869 5.33503 0
M  V30 13149 O 1234.38 -1.06522 5.60365 0
M  V30 13150 O 1233.31 0.84079 5.95999 0
M  V30 13151 H 1237.14 1.39204 2.69919 0
M  V30 13152 H 1234.72 0.74253 1.29641 0
M  V30 13153 H 1236.6 -0.566547 4.17574 0
M  V30 13154 H 1235.28 -1.02394 3.07078 0
M  V30 13155 H 1234.18 1.2481 3.52666 0
M  V30 13156 H 1235.52 1.62354 4.64653 0
M  V30 13157 N 1237.17 -1.38817 0.746158 0
M  V30 13158 C 1238.42 -1.99519 0.295839 0
M  V30 13159 C 1238.73 -1.59897 -1.12661 0
M  V30 13160 O 1239.94 -2.13514 -1.67702 0
M  V30 13161 C 1238.39 -3.56712 0.477984 0
M  V30 13162 C 1238 -4.0529 1.90904 0
M  V30 13163 C 1239.75 -4.24405 0.0900039 0
M  V30 13164 C 1237.65 -5.55097 2.04014 0
M  V30 13165 H 1236.58 -0.746389 0.106861 0
M  V30 13166 H 1239.23 -1.58676 0.921637 0
M  V30 13167 H 1237.62 -3.95406 -0.216884 0
M  V30 13168 H 1238.79 -3.77904 2.63677 0
M  V30 13169 H 1237.1 -3.50297 2.25125 0
M  V30 13170 H 1239.7 -5.3444 0.16682 0
M  V30 13171 H 1240.04 -4.05166 -0.956349 0
M  V30 13172 H 1240.58 -3.90924 0.736446 0
M  V30 13173 H 1237.32 -5.7923 3.06877 0
M  V30 13174 H 1236.84 -5.8425 1.35692 0
M  V30 13175 H 1238.52 -6.20682 1.82656 0
M  V30 13176 N 1238.65 -0.49465 -1.49636 0
M  V30 13177 C 1239.89 0.0521172 -2.02433 0
M  V30 13178 C 1240.22 1.37579 -1.37485 0
M  V30 13179 O 1239.48 1.8927 -0.497538 0
M  V30 13180 C 1239.78 0.259743 -3.56455 0
M  V30 13181 C 1239.44 -0.985143 -4.40007 0
M  V30 13182 C 1238.1 -1.3264 -4.62558 0
M  V30 13183 C 1240.46 -1.81291 -4.88654 0
M  V30 13184 C 1237.78 -2.49506 -5.31003 0
M  V30 13185 C 1240.14 -2.97305 -5.58384 0
M  V30 13186 C 1238.8 -3.31818 -5.79183 0
M  V30 13187 H 1238.07 0.0190711 -0.740755 0
M  V30 13188 H 1240.72 -0.653519 -1.80004 0
M  V30 13189 H 1239.02 1.04785 -3.77528 0
M  V30 13190 H 1240.72 0.697146 -3.94893 0
M  V30 13191 H 1237.31 -0.709313 -4.2269 0
M  V30 13192 H 1241.49 -1.56242 -4.71065 0
M  V30 13193 H 1236.75 -2.76491 -5.4531 0
M  V30 13194 H 1240.92 -3.61777 -5.95055 0
M  V30 13195 H 1238.55 -4.22478 -6.31994 0
M  V30 13196 N 1240.13 1.55939 -0.228214 0
M  V30 13197 C 1241.08 2.17223 0.692674 0
M  V30 13198 C 1242.06 1.12252 1.15275 0
M  V30 13199 O 1243.25 1.3822 1.10563 0
M  V30 13200 C 1240.38 2.86084 1.89766 0
M  V30 13201 C 1239.47 3.98288 1.45695 0
M  V30 13202 N 1239.86 5.00515 0.729258 0
M  V30 13203 C 1238.16 4.105 1.74372 0
M  V30 13204 C 1238.86 5.79516 0.503606 0
M  V30 13205 N 1237.83 5.33119 1.06229 0
M  V30 13206 H 1241.63 2.9362 0.128345 0
M  V30 13207 H 1239.15 1.62373 -0.0297445 0
M  V30 13208 H 1241.15 3.28404 2.5682 0
M  V30 13209 H 1239.81 2.11185 2.46639 0
M  V30 13210 H 1240.82 5.16495 0.381261 0
M  V30 13211 H 1237.49 3.46759 2.32518 0
M  V30 13212 H 1238.88 6.71857 -0.0760344 0
M  V30 13213 N 1241.6 -0.0451101 1.57535 0
M  V30 13214 C 1242.88 -0.773625 1.79651 0
M  V30 13215 C 1243.26 -1.94422 0.822391 0
M  V30 13216 O 1242.61 -2.28077 -0.138913 0
M  V30 13217 C 1242.82 -1.22168 3.26919 0
M  V30 13218 C 1244.17 -1.64419 3.91474 0
M  V30 13219 O 1245.19 -1.31668 3.30971 0
M  V30 13220 O 1244.05 -2.25148 4.97967 0
M  V30 13221 H 1241.14 -0.372786 0.738214 0
M  V30 13222 H 1243.69 -0.0231245 1.69684 0
M  V30 13223 H 1242.46 -0.385302 3.89398 0
M  V30 13224 H 1242.09 -2.03269 3.41713 0
M  V30 13225 N 1243.08 -1.54377 -0.317073 0
M  V30 13226 C 1244.03 -1.84214 -1.39046 0
M  V30 13227 C 1245 -0.689742 -1.51102 0
M  V30 13228 O 1246.18 -0.936809 -1.66218 0
M  V30 13229 C 1243.32 -2.08087 -2.75307 0
M  V30 13230 C 1242.44 -3.35756 -2.7183 0
M  V30 13231 C 1241.57 -3.49556 -3.9998 0
M  V30 13232 C 1240.61 -4.71076 -3.90837 0
M  V30 13233 N 1239.75 -4.81767 -5.10729 0
M  V30 13234 H 1244.59 -2.75785 -1.12902 0
M  V30 13235 H 1242.13 -1.36575 -0.546404 0
M  V30 13236 H 1244.08 -2.19921 -3.54529 0
M  V30 13237 H 1242.71 -1.19801 -2.99746 0
M  V30 13238 H 1241.77 -3.32627 -1.84563 0
M  V30 13239 H 1243.08 -4.2509 -2.60959 0
M  V30 13240 H 1242.23 -3.60967 -4.87635 0
M  V30 13241 H 1240.97 -2.58326 -4.13665 0
M  V30 13242 H 1239.98 -4.59715 -3.01566 0
M  V30 13243 H 1241.2 -5.63698 -3.78711 0
M  V30 13244 H 1239.15 -3.93455 -5.24908 0
M  V30 13245 H 1239.06 -5.65077 -5.02219 0
M  V30 13246 H 1240.33 -4.97517 -6.00081 0
M  V30 13247 N 1244.56 0.579466 -1.4656 0
M  V30 13248 C 1245.79 1.36153 -1.55389 0
M  V30 13249 C 1246.2 1.88192 -0.195062 0
M  V30 13250 O 1245.54 1.64464 0.81836 0
M  V30 13251 C 1245.6 2.58269 -2.50075 0
M  V30 13252 C 1245.27 2.27675 -3.96249 0
M  V30 13253 C 1246.26 1.86313 -4.85369 0
M  V30 13254 C 1243.95 2.39719 -4.41407 0
M  V30 13255 C 1245.94 1.57395 -6.17661 0
M  V30 13256 C 1243.63 2.10414 -5.73733 0
M  V30 13257 C 1244.63 1.69317 -6.6168 0
M  V30 13258 O 1244.32 1.40373 -7.9155 0
M  V30 13259 H 1244.05 0.422174 -0.527963 0
M  V30 13260 H 1246.6 0.711089 -1.92698 0
M  V30 13261 H 1244.83 3.26129 -2.0779 0
M  V30 13262 H 1246.52 3.20339 -2.49275 0
M  V30 13263 H 1247.29 1.7652 -4.51736 0
M  V30 13264 H 1243.17 2.70669 -3.73175 0
M  V30 13265 H 1246.71 1.25244 -6.86265 0
M  V30 13266 H 1242.61 2.19833 -6.06913 0
M  V30 13267 H 1243.38 1.54191 -8.03845 0
M  V30 13268 N 1246.04 1.3432 0.824371 0
M  V30 13269 C 1247 1.25672 1.91675 0
M  V30 13270 C 1248 0.172269 1.59875 0
M  V30 13271 O 1249.19 0.424794 1.68941 0
M  V30 13272 C 1246.32 0.939928 3.27686 0
M  V30 13273 H 1247.52 2.22785 2.00766 0
M  V30 13274 H 1245.07 1.18587 1.01817 0
M  V30 13275 H 1245.8 -0.0280898 3.24288 0
M  V30 13276 H 1245.59 1.72432 3.5215 0
M  V30 13277 H 1247.08 0.904553 4.07686 0
M  V30 13278 N 1247.52 -1.0444 1.18026 0
M  V30 13279 C 1248.74 -1.81772 0.998684 0
M  V30 13280 C 1249.17 -1.82682 -0.448225 0
M  V30 13281 O 1248.52 -1.24136 -1.32136 0
M  V30 13282 C 1248.57 -3.2542 1.55352 0
M  V30 13283 O 1247.68 -4.05103 0.772351 0
M  V30 13284 H 1247.02 -0.561731 0.354054 0
M  V30 13285 H 1249.55 -1.31557 1.56697 0
M  V30 13286 H 1249.56 -3.76206 1.57903 0
M  V30 13287 H 1248.23 -3.24073 2.60672 0
M  V30 13288 H 1246.81 -3.63798 0.818852 0
M  V30 13289 N 1248.99 -0.981699 -1.2329 0
M  V30 13290 C 1250.41 -0.688087 -1.73558 0
M  V30 13291 C 1250.76 0.795633 -1.79344 0
M  V30 13292 O 1249.88 1.62227 -1.43218 0
M  V30 13293 C 1250.48 -1.24235 -3.152 0
M  V30 13294 C 1249.04 -0.998356 -3.62918 0
M  V30 13295 C 1248.18 -1.3693 -2.41134 0
M  V30 13296 H 1251.13 -1.15539 -1.08795 0
M  V30 13297 H 1251.15 -0.61541 -3.7549 0
M  V30 13298 H 1250.67 -2.32223 -3.10957 0
M  V30 13299 H 1248.77 0.0653847 -3.72543 0
M  V30 13300 H 1248.88 -1.65385 -4.49649 0
M  V30 13301 H 1247.24 -0.787773 -2.42211 0
M  V30 13302 H 1248.03 -2.45898 -2.39561 0
M  V30 13303 N 1250.47 1.3842 -0.753509 0
M  V30 13304 C 1251.72 1.99359 -0.306416 0
M  V30 13305 C 1252.03 1.60492 1.11811 0
M  V30 13306 O 1253.24 2.14401 1.66567 0
M  V30 13307 C 1251.7 3.56453 -0.496895 0
M  V30 13308 C 1251.3 4.04272 -1.9305 0
M  V30 13309 C 1253.05 4.24351 -0.11251 0
M  V30 13310 C 1250.96 5.54007 -2.06955 0
M  V30 13311 H 1249.89 0.745812 -0.110818 0
M  V30 13312 H 1252.54 1.58185 -0.930039 0
M  V30 13313 H 1250.92 3.95515 0.195912 0
M  V30 13314 H 1252.09 3.765 -2.65677 0
M  V30 13315 H 1250.41 3.49098 -2.26979 0
M  V30 13316 H 1253 5.34344 -0.195161 0
M  V30 13317 H 1253.35 4.05668 0.934849 0
M  V30 13318 H 1253.88 3.90528 -0.757168 0
M  V30 13319 H 1250.62 5.77594 -3.09944 0
M  V30 13320 H 1250.14 5.83522 -1.38788 0
M  V30 13321 H 1251.82 6.19704 -1.85945 0
M  V30 13322 N 1251.95 0.502579 1.49372 0
M  V30 13323 C 1253.18 -0.0403087 2.07361 0
M  V30 13324 C 1253.6 -1.29918 1.36026 0
M  V30 13325 O 1252.96 -1.76428 0.417488 0
M  V30 13326 C 1253.01 -0.275362 3.59547 0
M  V30 13327 O 1252.11 -1.34975 3.89686 0
M  V30 13328 H 1251.45 0.0269268 0.663454 0
M  V30 13329 H 1253.98 0.702652 1.92156 0
M  V30 13330 H 1253.99 -0.506392 4.04845 0
M  V30 13331 H 1252.67 0.644382 4.10878 0
M  V30 13332 H 1251.24 -1.10355 3.56197 0
M  V30 13333 N 1253.43 -1.55816 0.23648 0
M  V30 13334 C 1254.68 -1.98686 -0.391146 0
M  V30 13335 C 1255 -1.12443 -1.58703 0
M  V30 13336 O 1254.26 -0.172805 -1.94936 0
M  V30 13337 C 1254.56 -3.47039 -0.85434 0
M  V30 13338 C 1254.22 -4.50299 0.232651 0
M  V30 13339 C 1252.89 -4.78259 0.531218 0
M  V30 13340 C 1255.24 -5.1215 0.967027 0
M  V30 13341 C 1252.57 -5.65347 1.56842 0
M  V30 13342 C 1254.92 -6.00363 1.99367 0
M  V30 13343 C 1253.58 -6.2666 2.299 0
M  V30 13344 H 1252.85 -0.727045 -0.14313 0
M  V30 13345 H 1255.5 -1.88419 0.342125 0
M  V30 13346 H 1253.8 -3.54585 -1.66663 0
M  V30 13347 H 1255.5 -3.7759 -1.35005 0
M  V30 13348 H 1252.09 -4.28599 -0.0102014 0
M  V30 13349 H 1256.27 -4.90606 0.749609 0
M  V30 13350 H 1251.53 -5.83981 1.81043 0
M  V30 13351 H 1255.7 -6.47335 2.56769 0
M  V30 13352 H 1253.33 -6.93938 3.1041 0
M  V30 13353 N 1254.91 0.036755 -1.57557 0
M  V30 13354 C 1255.82 1.05687 -2.09446 0
M  V30 13355 C 1256.83 1.40137 -1.03139 0
M  V30 13356 O 1258.01 1.49611 -1.34828 0
M  V30 13357 C 1255.07 2.34114 -2.55717 0
M  V30 13358 C 1254.13 2.06316 -3.76473 0
M  V30 13359 C 1253.37 3.2862 -4.20529 0
M  V30 13360 O 1253.59 4.3902 -3.64167 0
M  V30 13361 O 1252.52 3.14772 -5.13033 0
M  V30 13362 H 1256.35 0.64593 -2.96751 0
M  V30 13363 H 1253.94 0.253235 -1.47238 0
M  V30 13364 H 1255.82 3.09631 -2.85844 0
M  V30 13365 H 1254.49 2.74519 -1.71526 0
M  V30 13366 H 1253.4 1.28392 -3.51378 0
M  V30 13367 H 1254.73 1.70772 -4.61625 0
M  V30 13368 N 1256.39 1.54543 0.308881 0
M  V30 13369 C 1257.63 1.7266 1.04266 0
M  V30 13370 C 1257.95 0.51518 1.88694 0
M  V30 13371 O 1259.15 0.577988 2.65276 0
M  V30 13372 C 1257.61 3.05448 1.9034 0
M  V30 13373 C 1257.22 4.34043 1.10953 0
M  V30 13374 C 1258.96 3.32925 2.63365 0
M  V30 13375 C 1256.87 5.57886 1.96258 0
M  V30 13376 H 1255.8 0.643485 0.392992 0
M  V30 13377 H 1258.45 1.8103 0.300077 0
M  V30 13378 H 1256.83 2.91023 2.68555 0
M  V30 13379 H 1258.01 4.59279 0.374069 0
M  V30 13380 H 1256.32 4.13442 0.495453 0
M  V30 13381 H 1258.92 4.22649 3.27524 0
M  V30 13382 H 1259.26 2.51451 3.3178 0
M  V30 13383 H 1259.79 3.48285 1.92204 0
M  V30 13384 H 1256.53 6.42005 1.32326 0
M  V30 13385 H 1256.05 5.36847 2.67498 0
M  V30 13386 H 1257.73 5.94846 2.54494 0
M  V30 13387 N 1257.86 -0.571685 1.46866 0
M  V30 13388 C 1259.28 -0.896172 1.32064 0
M  V30 13389 C 1259.48 -1.9925 0.300291 0
M  V30 13390 O 1258.54 -2.50791 -0.293284 0
M  V30 13391 C 1259.85 -1.3031 2.70998 0
M  V30 13392 C 1261.4 -1.41533 2.79173 0
M  V30 13393 C 1261.87 -1.85587 4.18714 0
M  V30 13394 N 1263.36 -1.92762 4.21185 0
M  V30 13395 C 1264.1 -2.28148 5.26057 0
M  V30 13396 N 1263.59 -2.62248 6.41247 0
M  V30 13397 N 1265.39 -2.28797 5.13428 0
M  V30 13398 H 1257.54 0.152349 2.11853 0
M  V30 13399 H 1259.8 0.00548777 0.947984 0
M  V30 13400 H 1259.51 -0.571469 3.47026 0
M  V30 13401 H 1259.38 -2.26233 3.01826 0
M  V30 13402 H 1261.77 -2.1378 2.03426 0
M  V30 13403 H 1261.85 -0.438342 2.52016 0
M  V30 13404 H 1261.49 -1.13915 4.9496 0
M  V30 13405 H 1261.42 -2.84264 4.43285 0
M  V30 13406 H 1263.91 -1.68854 3.38078 0
M  V30 13407 H 1264.23 -2.88234 7.17036 0
M  V30 13408 H 1262.57 -2.59861 6.44591 0
M  V30 13409 H 1265.76 -2.01587 4.22469 0
M  V30 13410 H 1265.94 -2.56045 5.95269 0
M  V30 13411 N 1259.34 -1.34755 -0.817236 0
M  V30 13412 C 1260.59 -1.26771 -1.56882 0
M  V30 13413 C 1260.9 0.158962 -1.94953 0
M  V30 13414 O 1262.11 0.360996 -2.69089 0
M  V30 13415 C 1260.57 -2.22261 -2.83069 0
M  V30 13416 C 1260.17 -3.70216 -2.52277 0
M  V30 13417 C 1261.92 -2.23197 -3.61086 0
M  V30 13418 C 1259.82 -4.57559 -3.74691 0
M  V30 13419 H 1258.75 -0.470961 -0.588822 0
M  V30 13420 H 1261.41 -1.59955 -0.899254 0
M  V30 13421 H 1259.79 -1.82036 -3.5168 0
M  V30 13422 H 1260.96 -4.19014 -1.9174 0
M  V30 13423 H 1259.28 -3.71784 -1.87525 0
M  V30 13424 H 1261.87 -2.85673 -4.5199 0
M  V30 13425 H 1262.22 -1.2328 -3.97628 0
M  V30 13426 H 1262.75 -2.61897 -2.99424 0
M  V30 13427 H 1259.49 -5.58434 -3.43267 0
M  V30 13428 H 1259.01 -4.13494 -4.34491 0
M  V30 13429 H 1260.69 -4.72451 -4.42039 0
M  V30 13430 N 1260.82 1.03812 -1.18578 0
M  V30 13431 C 1262.07 1.76706 -0.980776 0
M  V30 13432 C 1262.39 1.88729 0.490562 0
M  V30 13433 O 1261.66 1.41413 1.35569 0
M  V30 13434 H 1260.24 0.654586 -0.359898 0
M  V30 13435 H 1262.9 1.25274 -1.49306 0
M  V30 13436 H 1262 2.77876 -1.42096 0
M  V30 13437 N 1262.3 0.988223 1.22768 0
M  V30 13438 C 1263.55 0.656941 1.90702 0
M  V30 13439 C 1263.86 -0.814058 1.77855 0
M  V30 13440 O 1265.07 -1.25673 2.40663 0
M  V30 13441 C 1263.52 1.12445 3.41883 0
M  V30 13442 C 1263.13 2.62034 3.63376 0
M  V30 13443 C 1264.87 0.867277 4.15546 0
M  V30 13444 C 1262.78 3.02412 5.08233 0
M  V30 13445 H 1261.71 0.242012 0.714105 0
M  V30 13446 H 1264.36 1.19716 1.39069 0
M  V30 13447 H 1262.74 0.512386 3.92671 0
M  V30 13448 H 1263.92 3.28546 3.23101 0
M  V30 13449 H 1262.23 2.85583 3.03037 0
M  V30 13450 H 1264.83 1.14471 5.22303 0
M  V30 13451 H 1265.17 -0.196611 4.15835 0
M  V30 13452 H 1265.71 1.4413 3.70771 0
M  V30 13453 H 1262.44 4.07957 5.1308 0
M  V30 13454 H 1261.96 2.406 5.49429 0
M  V30 13455 H 1263.64 2.93452 5.76624 0
M  V30 13456 N 1263.78 -1.38018 0.760839 0
M  V30 13457 C 1265.02 -2.00248 0.320716 0
M  V30 13458 C 1265.35 -1.60259 -1.09684 0
M  V30 13459 O 1264.63 -0.843567 -1.75255 0
M  V30 13460 C 1264.91 -3.57254 0.451849 0
M  V30 13461 C 1264.77 -4.07185 1.91103 0
M  V30 13462 C 1266.08 -4.39843 -0.150439 0
M  V30 13463 H 1263.2 -0.727491 0.118007 0
M  V30 13464 H 1265.85 -1.63855 0.961842 0
M  V30 13465 H 1264 -3.88386 -0.0939672 0
M  V30 13466 H 1265.67 -3.86665 2.51571 0
M  V30 13467 H 1263.91 -3.59782 2.42362 0
M  V30 13468 H 1264.58 -5.16262 1.9539 0
M  V30 13469 H 1267.06 -4.14905 0.315145 0
M  V30 13470 H 1265.93 -5.48893 -0.0284853 0
M  V30 13471 H 1266.19 -4.24367 -1.23956 0
M  V30 13472 N 1265.25 -0.510493 -1.49103 0
M  V30 13473 C 1266.5 0.0306436 -2.02477 0
M  V30 13474 C 1266.83 1.36113 -1.38937 0
M  V30 13475 O 1266.08 1.88731 -0.517584 0
M  V30 13476 C 1266.38 0.221921 -3.5671 0
M  V30 13477 C 1266.05 -1.03176 -4.38937 0
M  V30 13478 C 1264.71 -1.37539 -4.61125 0
M  V30 13479 C 1267.06 -1.86464 -4.86704 0
M  V30 13480 C 1264.39 -2.55124 -5.28326 0
M  V30 13481 C 1266.74 -3.03211 -5.55199 0
M  V30 13482 C 1265.41 -3.37943 -5.75631 0
M  V30 13483 H 1264.68 0.0112133 -0.740915 0
M  V30 13484 H 1267.32 -0.672574 -1.79301 0
M  V30 13485 H 1265.63 1.00775 -3.78618 0
M  V30 13486 H 1267.33 0.655223 -3.95611 0
M  V30 13487 H 1263.92 -0.754105 -4.21914 0
M  V30 13488 H 1268.1 -1.61229 -4.69381 0
M  V30 13489 H 1263.36 -2.8226 -5.42346 0
M  V30 13490 H 1267.53 -3.68068 -5.91185 0
M  V30 13491 H 1265.16 -4.29158 -6.27477 0
M  V30 13492 N 1266.73 1.55688 -0.24474 0
M  V30 13493 C 1267.66 2.24272 0.64995 0
M  V30 13494 C 1268.64 1.22226 1.183 0
M  V30 13495 O 1269.83 1.50873 1.22274 0
M  V30 13496 C 1266.96 2.94053 1.84798 0
M  V30 13497 C 1265.91 4.02769 1.44779 0
M  V30 13498 C 1265.24 4.59965 2.72647 0
M  V30 13499 C 1266.54 5.18601 0.62047 0
M  V30 13500 H 1268.23 2.99298 0.0780654 0
M  V30 13501 H 1265.78 1.43955 0.0361069 0
M  V30 13502 H 1267.73 3.40732 2.47951 0
M  V30 13503 H 1266.45 2.16511 2.44521 0
M  V30 13504 H 1265.11 3.56856 0.839609 0
M  V30 13505 H 1264.76 3.79126 3.30564 0
M  V30 13506 H 1264.46 5.33352 2.46596 0
M  V30 13507 H 1265.99 5.09376 3.36703 0
M  V30 13508 H 1267.4 5.61519 1.15625 0
M  V30 13509 H 1265.8 5.98364 0.456097 0
M  V30 13510 H 1266.87 4.83503 -0.367798 0
M  V30 13511 N 1268.21 -0.0283989 1.57574 0
M  V30 13512 C 1269.43 -0.734537 1.93957 0
M  V30 13513 C 1269.86 -1.68062 0.844787 0
M  V30 13514 O 1269.22 -1.802 -0.199432 0
M  V30 13515 C 1269.27 -1.46716 3.29404 0
M  V30 13516 O 1268.37 -2.58036 3.217 0
M  V30 13517 H 1267.71 -0.197507 0.633946 0
M  V30 13518 H 1270.24 0.0163258 2.04593 0
M  V30 13519 H 1270.25 -1.83693 3.64309 0
M  V30 13520 H 1268.93 -0.773292 4.08648 0
M  V30 13521 H 1267.5 -2.23597 2.98427 0
M  V30 13522 N 1269.69 -1.54705 -0.300681 0
M  V30 13523 C 1271.1 -1.45926 -0.646359 0
M  V30 13524 C 1271.3 -0.65072 -1.90704 0
M  V30 13525 O 1270.36 -0.158547 -2.52002 0
M  V30 13526 C 1271.67 -2.89889 -0.799059 0
M  V30 13527 C 1273.22 -2.99934 -0.894923 0
M  V30 13528 C 1273.7 -4.45093 -1.07962 0
M  V30 13529 N 1275.19 -4.48804 -1.14581 0
M  V30 13530 C 1275.92 -5.58305 -1.30702 0
M  V30 13531 N 1275.42 -6.77729 -1.43719 0
M  V30 13532 N 1277.21 -5.45994 -1.33593 0
M  V30 13533 H 1269.36 -2.05742 0.527617 0
M  V30 13534 H 1271.62 -0.931817 0.174415 0
M  V30 13535 H 1271.33 -3.51655 0.0563954 0
M  V30 13536 H 1271.2 -3.37325 -1.68796 0
M  V30 13537 H 1273.59 -2.38281 -1.74086 0
M  V30 13538 H 1273.67 -2.55794 0.0179973 0
M  V30 13539 H 1273.32 -5.0734 -0.238444 0
M  V30 13540 H 1273.25 -4.86864 -2.00677 0
M  V30 13541 H 1275.74 -3.62766 -1.05874 0
M  V30 13542 H 1276.05 -7.56937 -1.55776 0
M  V30 13543 H 1274.4 -6.80594 -1.40774 0
M  V30 13544 H 1277.59 -4.51641 -1.23035 0
M  V30 13545 H 1277.76 -6.31381 -1.45813 0
M  V30 13546 N 1271.17 0.563888 -1.47167 0
M  V30 13547 C 1272.1 1.68655 -1.55204 0
M  V30 13548 C 1273.11 1.56776 -0.438769 0
M  V30 13549 O 1274.3 1.63856 -0.708059 0
M  V30 13550 C 1271.4 3.07068 -1.43396 0
M  V30 13551 C 1270.57 3.44767 -2.69174 0
M  V30 13552 C 1269.63 4.62316 -2.51298 0
M  V30 13553 O 1268.66 4.67231 -3.2509 0
M  V30 13554 N 1269.86 5.58389 -1.58688 0
M  V30 13555 H 1272.63 1.62209 -2.52009 0
M  V30 13556 H 1270.19 0.750359 -1.43462 0
M  V30 13557 H 1272.18 3.83529 -1.29181 0
M  V30 13558 H 1270.75 3.07777 -0.546997 0
M  V30 13559 H 1269.97 2.57821 -2.98198 0
M  V30 13560 H 1271.26 3.66726 -3.52689 0
M  V30 13561 H 1270.65 5.57169 -0.978737 0
M  V30 13562 H 1269.21 6.34204 -1.50428 0
M  V30 13563 N 1272.64 1.35187 0.810078 0
M  V30 13564 C 1273.61 1.27698 1.90331 0
M  V30 13565 C 1274.61 0.189216 1.59683 0
M  V30 13566 O 1275.8 0.442689 1.68481 0
M  V30 13567 C 1272.93 0.974631 3.26671 0
M  V30 13568 H 1274.12 2.24902 1.98392 0
M  V30 13569 H 1271.68 1.1966 1.00554 0
M  V30 13570 H 1272.41 0.0063068 3.24299 0
M  V30 13571 H 1272.2 1.76158 3.50301 0
M  V30 13572 H 1273.69 0.947743 4.06703 0
M  V30 13573 N 1274.12 -1.03182 1.19127 0
M  V30 13574 C 1275.53 -1.57984 0.994888 0
M  V30 13575 C 1275.88 -1.90898 -0.453019 0
M  V30 13576 O 1275.01 -1.70556 -1.33191 0
M  V30 13577 C 1275.6 -2.8705 1.79966 0
M  V30 13578 C 1274.16 -3.38435 1.64737 0
M  V30 13579 C 1273.31 -2.11912 1.78854 0
M  V30 13580 H 1276.26 -0.857458 1.33542 0
M  V30 13581 H 1276.28 -3.57821 1.294 0
M  V30 13582 H 1275.79 -2.63062 2.85341 0
M  V30 13583 H 1273.9 -3.67416 0.619358 0
M  V30 13584 H 1274.01 -4.11665 2.45089 0
M  V30 13585 H 1272.37 -2.23642 1.21886 0
M  V30 13586 H 1273.16 -1.90369 2.85682 0
M  V30 13587 N 1275.6 -0.99472 -1.22242 0
M  V30 13588 C 1276.85 -0.670275 -1.90661 0
M  V30 13589 C 1277.17 0.800369 -1.77818 0
M  V30 13590 O 1276.44 1.57381 -1.16653 0
M  V30 13591 H 1275.02 -0.244925 -0.705706 0
M  V30 13592 H 1277.68 -1.26162 -1.48557 0
M  V30 13593 H 1276.78 -0.934408 -2.97784 0
M  V30 13594 N 1277.08 1.37613 -0.768148 0
M  V30 13595 C 1278.04 2.28653 -0.158283 0
M  V30 13596 C 1279.04 1.47862 0.631936 0
M  V30 13597 O 1280.23 1.68124 0.456055 0
M  V30 13598 C 1277.36 3.31776 0.783435 0
M  V30 13599 H 1278.56 2.84094 -0.960772 0
M  V30 13600 H 1276.11 1.46818 -0.536116 0
M  V30 13601 H 1276.84 2.81452 1.61106 0
M  V30 13602 H 1276.63 3.91488 0.219016 0
M  V30 13603 H 1278.12 3.99816 1.20568 0
M  V30 13604 N 1278.56 0.518393 1.4883 0
M  V30 13605 C 1279.49 -0.297703 2.2625 0
M  V30 13606 C 1280.47 -0.955096 1.31593 0
M  V30 13607 O 1281.65 -0.981776 1.60914 0
M  V30 13608 C 1278.78 -1.42065 3.07466 0
M  V30 13609 C 1277.82 -0.875854 4.1741 0
M  V30 13610 S 1278.66 0.247153 5.34929 0
M  V30 13611 C 1279.81 -0.878544 6.19703 0
M  V30 13612 H 1280.05 0.359358 2.9512 0
M  V30 13613 H 1277.58 0.303976 1.51378 0
M  V30 13614 H 1279.54 -2.06398 3.54838 0
M  V30 13615 H 1278.2 -2.04939 2.38031 0
M  V30 13616 H 1277.39 -1.71793 4.73818 0
M  V30 13617 H 1276.99 -0.30943 3.72718 0
M  V30 13618 H 1279.29 -1.77986 6.53703 0
M  V30 13619 H 1280.23 -0.3527 7.07221 0
M  V30 13620 H 1280.64 -1.15372 5.52584 0
M  V30 13621 N 1280.03 -1.55556 0.252993 0
M  V30 13622 C 1280.98 -2.23035 -0.660161 0
M  V30 13623 C 1281.98 -1.21994 -1.17532 0
M  V30 13624 O 1283.18 -1.39989 -1.13151 0
M  V30 13625 H 1279.56 -0.715516 -0.23139 0
M  V30 13626 H 1281.53 -2.98323 -0.0679506 0
M  V30 13627 C 1280.28 -2.94817 -1.84332 0
M  V30 13628 H 1279.6 -3.72342 -1.45607 0
M  V30 13629 H 1281.04 -3.45386 -2.45936 0
M  V30 13630 C 1279.5 -1.99033 -2.71822 0
M  V30 13631 O 1280.03 -1.5273 -3.71533 0
M  V30 13632 N 1278.24 -1.66004 -2.38518 0
M  V30 13633 H 1277.78 -2.03853 -1.57485 0
M  V30 13634 H 1277.74 -1.02183 -2.97331 0
M  V30 13635 N 1281.51 0.0200419 -1.57587 0
M  V30 13636 C 1282.76 0.710078 -1.89962 0
M  V30 13637 C 1283.09 1.74521 -0.851829 0
M  V30 13638 O 1282.37 1.94052 0.132005 0
M  V30 13639 C 1282.65 1.37145 -3.32961 0
M  V30 13640 C 1282.5 0.349221 -4.48442 0
M  V30 13641 C 1283.82 2.30304 -3.75031 0
M  V30 13642 H 1280.94 0.25667 -0.690862 0
M  V30 13643 H 1283.58 -0.0271362 -1.89981 0
M  V30 13644 H 1281.73 1.99981 -3.33076 0
M  V30 13645 H 1283.4 -0.277916 -4.60462 0
M  V30 13646 H 1281.65 -0.330594 -4.32538 0
M  V30 13647 H 1282.32 0.850636 -5.45406 0
M  V30 13648 H 1284.79 1.77503 -3.7634 0
M  V30 13649 H 1283.67 2.73555 -4.75877 0
M  V30 13650 H 1283.93 3.17364 -3.07786 0
M  V30 13651 N 1282.99 1.54862 0.292472 0
M  V30 13652 C 1283.92 1.89406 1.36556 0
M  V30 13653 C 1284.9 0.753838 1.52484 0
M  V30 13654 O 1286.09 1.01031 1.6585 0
M  V30 13655 C 1283.22 2.14888 2.72838 0
M  V30 13656 C 1282.17 3.3073 2.71665 0
M  V30 13657 C 1281.5 3.41648 4.11316 0
M  V30 13658 C 1282.8 4.67622 2.32651 0
M  V30 13659 H 1284.49 2.79284 1.07894 0
M  V30 13660 H 1282.04 1.34377 0.517585 0
M  V30 13661 H 1283.99 2.3764 3.48002 0
M  V30 13662 H 1282.71 1.2179 3.03042 0
M  V30 13663 H 1281.37 3.07915 1.98958 0
M  V30 13664 H 1281.02 2.46051 4.38711 0
M  V30 13665 H 1280.72 4.19522 4.11431 0
M  V30 13666 H 1282.24 3.6667 4.88248 0
M  V30 13667 H 1283.66 4.90048 2.97533 0
M  V30 13668 H 1282.06 5.48272 2.43963 0
M  V30 13669 H 1283.13 4.67762 1.27777 0
M  V30 13670 N 1284.47 -0.556076 1.47464 0
M  V30 13671 C 1285.71 -1.32397 1.55726 0
M  V30 13672 C 1286.07 -1.90793 0.214956 0
M  V30 13673 O 1287.27 -2.68246 0.172429 0
M  V30 13674 C 1285.54 -2.40358 2.64505 0
M  V30 13675 S 1287.1 -3.27219 2.92358 0
M  V30 13676 H 1283.92 -0.450713 0.549889 0
M  V30 13677 H 1286.52 -0.636471 1.84849 0
M  V30 13678 H 1285.23 -1.95893 3.6063 0
M  V30 13679 H 1284.76 -3.13847 2.372 0
M  V30 13680 H 1286.77 -4.39854 2.29659 0
M  V30 13681 N 1285.95 -1.35615 -0.802897 0
M  V30 13682 C 1287.2 -1.28839 -1.55708 0
M  V30 13683 C 1287.52 0.135906 -1.94526 0
M  V30 13684 O 1286.79 1.07317 -1.6389 0
M  V30 13685 H 1285.37 -0.473906 -0.577427 0
M  V30 13686 H 1288.03 -1.69759 -0.957487 0
M  V30 13687 H 1287.12 -1.90675 -2.47082 0
M  V30 13688 N 1287.43 1.02549 -1.19673 0
M  V30 13689 C 1288.36 2.12794 -0.961289 0
M  V30 13690 C 1289.34 1.69766 0.106575 0
M  V30 13691 O 1290.52 1.94138 -0.0491358 0
M  V30 13692 C 1287.65 3.4364 -0.502868 0
M  V30 13693 C 1286.61 4.00367 -1.51296 0
M  V30 13694 C 1285.93 5.26874 -0.911491 0
M  V30 13695 C 1287.23 4.34782 -2.89416 0
M  V30 13696 H 1288.93 2.32748 -1.88331 0
M  V30 13697 H 1286.47 1.11852 -0.906922 0
M  V30 13698 H 1288.42 4.20141 -0.325436 0
M  V30 13699 H 1287.15 3.23418 0.454764 0
M  V30 13700 H 1285.81 3.25964 -1.67759 0
M  V30 13701 H 1285.46 5.02971 0.0537982 0
M  V30 13702 H 1285.16 5.65791 -1.58602 0
M  V30 13703 H 1286.68 6.06039 -0.74493 0
M  V30 13704 H 1288.09 5.02207 -2.76516 0
M  V30 13705 H 1286.49 4.8479 -3.53693 0
M  V30 13706 H 1287.56 3.43935 -3.41814 0
M  V30 13707 N 1288.9 1.00119 1.21713 0
M  V30 13708 C 1290.13 0.699416 1.94401 0
M  V30 13709 C 1290.54 -0.741376 1.7407 0
M  V30 13710 O 1289.88 -1.51286 1.04203 0
M  V30 13711 C 1289.95 0.935875 3.47105 0
M  V30 13712 C 1289.61 2.36276 3.91181 0
M  V30 13713 C 1290.61 3.34276 3.9819 0
M  V30 13714 C 1288.29 2.6994 4.23601 0
M  V30 13715 C 1290.29 4.6401 4.37005 0
M  V30 13716 C 1287.97 3.99891 4.62094 0
M  V30 13717 C 1288.97 4.96737 4.68766 0
M  V30 13718 O 1288.66 6.24364 5.06384 0
M  V30 13719 H 1288.39 0.257233 0.625146 0
M  V30 13720 H 1290.95 1.34098 1.55585 0
M  V30 13721 H 1289.18 0.237133 3.85972 0
M  V30 13722 H 1290.86 0.628075 4.01011 0
M  V30 13723 H 1291.63 3.09603 3.73324 0
M  V30 13724 H 1287.51 1.95257 4.17607 0
M  V30 13725 H 1291.05 5.39601 4.42128 0
M  V30 13726 H 1286.95 4.2435 4.86412 0
M  V30 13727 H 1287.72 6.28424 5.24429 0
M  V30 13728 N 1290.38 -1.37203 0.775435 0
M  V30 13729 C 1291.8 -1.52962 0.455488 0
M  V30 13730 C 1292 -1.73284 -1.02834 0
M  V30 13731 O 1291.05 -1.75631 -1.81411 0
M  V30 13732 C 1292.37 -2.72389 1.27377 0
M  V30 13733 C 1293.91 -2.86252 1.26604 0
M  V30 13734 C 1294.39 -4.08666 2.06775 0
M  V30 13735 N 1295.88 -4.15786 2.04148 0
M  V30 13736 C 1296.62 -5.09548 2.6296 0
M  V30 13737 N 1296.11 -6.08845 3.30574 0
M  V30 13738 N 1297.9 -5.02059 2.5277 0
M  V30 13739 H 1290.06 -1.22265 1.73681 0
M  V30 13740 H 1292.32 -0.595638 0.737509 0
M  V30 13741 H 1292.02 -2.63849 2.32544 0
M  V30 13742 H 1291.9 -3.66171 0.905467 0
M  V30 13743 H 1294.29 -2.94261 0.222345 0
M  V30 13744 H 1294.37 -1.93418 1.67401 0
M  V30 13745 H 1294.01 -4.01419 3.11168 0
M  V30 13746 H 1293.94 -5.00621 1.63358 0
M  V30 13747 H 1296.43 -3.44683 1.54926 0
M  V30 13748 H 1296.74 -6.76926 3.72815 0
M  V30 13749 H 1295.09 -6.09113 3.34674 0
M  V30 13750 H 1298.28 -4.23431 1.99559 0
M  V30 13751 H 1298.45 -5.74947 2.98898 0
M  V30 13752 N 1291.86 -0.526279 -1.48553 0
M  V30 13753 C 1293.28 -0.183886 -1.58537 0
M  V30 13754 C 1293.48 1.31272 -1.52872 0
M  V30 13755 O 1292.53 2.09069 -1.41585 0
M  V30 13756 C 1293.84 -0.78313 -2.90323 0
M  V30 13757 C 1295.39 -0.751527 -3.03844 0
M  V30 13758 C 1295.87 -1.32928 -4.38285 0
M  V30 13759 N 1297.36 -1.29109 -4.44843 0
M  V30 13760 C 1298.09 -1.70806 -5.47369 0
M  V30 13761 N 1297.59 -2.20215 -6.56869 0
M  V30 13762 N 1299.38 -1.62065 -5.3823 0
M  V30 13763 H 1291.53 -1.499 -1.50478 0
M  V30 13764 H 1293.8 -0.623294 -0.714289 0
M  V30 13765 H 1293.5 -1.83371 -3.00113 0
M  V30 13766 H 1293.38 -0.25808 -3.76316 0
M  V30 13767 H 1295.76 0.290282 -2.93669 0
M  V30 13768 H 1295.84 -1.314 -2.19471 0
M  V30 13769 H 1295.49 -2.37 -4.49214 0
M  V30 13770 H 1295.42 -0.742516 -5.21339 0
M  V30 13771 H 1297.91 -0.929348 -3.66294 0
M  V30 13772 H 1298.22 -2.50035 -7.31233 0
M  V30 13773 H 1296.57 -2.24206 -6.57842 0
M  V30 13774 H 1299.76 -1.23265 -4.51579 0
M  V30 13775 H 1299.93 -1.94883 -6.18001 0
M  V30 13776 N 1293.34 1.5542 -0.261239 0
M  V30 13777 C 1294.27 2.24949 0.626126 0
M  V30 13778 C 1295.25 1.23474 1.16997 0
M  V30 13779 O 1296.43 1.52161 1.20667 0
M  V30 13780 C 1293.56 2.95996 1.81669 0
M  V30 13781 C 1292.52 4.04282 1.40499 0
M  V30 13782 C 1291.84 4.62831 2.67753 0
M  V30 13783 C 1293.14 5.1923 0.56543 0
M  V30 13784 H 1294.84 2.99364 0.0463164 0
M  V30 13785 H 1292.38 1.43985 0.0208366 0
M  V30 13786 H 1294.34 3.43343 2.44323 0
M  V30 13787 H 1293.06 2.19093 2.42211 0
M  V30 13788 H 1291.72 3.57726 0.801712 0
M  V30 13789 H 1291.37 3.82611 3.26524 0
M  V30 13790 H 1291.07 5.35938 2.40925 0
M  V30 13791 H 1292.59 5.12918 3.31281 0
M  V30 13792 H 1294.01 5.62714 1.09663 0
M  V30 13793 H 1292.4 5.98814 0.392607 0
M  V30 13794 H 1293.47 4.83086 -0.419059 0
M  V30 13795 N 1294.82 -0.0116844 1.57596 0
M  V30 13796 C 1295.76 -1.00684 2.07681 0
M  V30 13797 C 1296.73 -1.34858 0.969666 0
M  V30 13798 O 1297.92 -1.44896 1.24136 0
M  V30 13799 C 1295.06 -2.29729 2.57524 0
M  V30 13800 C 1294.17 -2.0156 3.82096 0
M  V30 13801 C 1293.31 -3.24601 4.20485 0
M  V30 13802 C 1292.34 -2.92066 5.37925 0
M  V30 13803 N 1291.48 -4.0761 5.71663 0
M  V30 13804 H 1296.32 -0.572787 2.92443 0
M  V30 13805 H 1293.86 -0.271184 1.44579 0
M  V30 13806 H 1295.82 -3.05152 2.84496 0
M  V30 13807 H 1294.45 -2.70824 1.75653 0
M  V30 13808 H 1293.5 -1.16556 3.62103 0
M  V30 13809 H 1294.81 -1.73572 4.67626 0
M  V30 13810 H 1293.96 -4.08379 4.48677 0
M  V30 13811 H 1292.7 -3.55718 3.3364 0
M  V30 13812 H 1291.71 -2.06693 5.09468 0
M  V30 13813 H 1292.93 -2.62209 6.26437 0
M  V30 13814 H 1290.88 -4.38645 4.87777 0
M  V30 13815 H 1290.8 -3.83105 6.51741 0
M  V30 13816 H 1292.06 -4.92211 6.04441 0
M  V30 13817 N 1296.29 -1.55015 -0.284256 0
M  V30 13818 C 1297.22 -1.90128 -1.3555 0
M  V30 13819 C 1298.2 -0.761914 -1.52082 0
M  V30 13820 O 1299.39 -1.01909 -1.65312 0
M  V30 13821 C 1296.52 -2.16332 -2.71695 0
M  V30 13822 C 1295.47 -3.32166 -2.69907 0
M  V30 13823 C 1294.8 -3.43824 -4.09498 0
M  V30 13824 C 1296.1 -4.6885 -2.30168 0
M  V30 13825 H 1297.79 -2.79852 -1.06411 0
M  V30 13826 H 1295.34 -1.34649 -0.510451 0
M  V30 13827 H 1297.29 -2.39482 -3.46737 0
M  V30 13828 H 1296.02 -1.23395 -3.02392 0
M  V30 13829 H 1294.68 -3.08965 -1.97322 0
M  V30 13830 H 1294.32 -2.48375 -4.374 0
M  V30 13831 H 1294.02 -4.21698 -4.092 0
M  V30 13832 H 1295.55 -3.69254 -4.86296 0
M  V30 13833 H 1296.96 -4.91619 -2.9493 0
M  V30 13834 H 1295.36 -5.49558 -2.41052 0
M  V30 13835 H 1296.43 -4.68433 -1.25294 0
M  V30 13836 N 1297.77 0.548248 -1.47757 0
M  V30 13837 C 1298.7 1.66409 -1.63799 0
M  V30 13838 C 1299.68 1.62973 -0.487211 0
M  V30 13839 O 1300.87 1.80455 -0.717612 0
M  V30 13840 C 1298 3.05035 -1.66046 0
M  V30 13841 C 1296.95 3.23322 -2.80441 0
M  V30 13842 C 1296.28 4.62824 -2.67765 0
M  V30 13843 C 1297.58 3.07837 -4.2194 0
M  V30 13844 H 1299.27 1.53239 -2.57212 0
M  V30 13845 H 1296.82 0.735783 -1.23783 0
M  V30 13846 H 1298.77 3.82951 -1.75859 0
M  V30 13847 H 1297.49 3.19185 -0.69199 0
M  V30 13848 H 1296.15 2.47816 -2.70153 0
M  V30 13849 H 1295.8 4.73786 -1.68927 0
M  V30 13850 H 1295.5 4.76007 -3.44515 0
M  V30 13851 H 1297.03 5.42864 -2.7952 0
M  V30 13852 H 1298.44 3.75563 -4.33157 0
M  V30 13853 H 1296.84 3.32525 -4.99547 0
M  V30 13854 H 1297.91 2.04474 -4.3968 0
M  V30 13855 N 1299.25 1.36039 0.795694 0
M  V30 13856 C 1300.2 1.29853 1.90806 0
M  V30 13857 C 1301.17 0.168387 1.65244 0
M  V30 13858 O 1302.35 0.353879 1.8749 0
M  V30 13859 C 1299.49 1.08737 3.27521 0
M  V30 13860 C 1298.6 2.30771 3.65197 0
M  V30 13861 C 1297.74 2.02718 4.90998 0
M  V30 13862 C 1296.78 3.20746 5.21333 0
M  V30 13863 N 1295.92 2.92399 6.38316 0
M  V30 13864 H 1300.76 2.2497 1.95429 0
M  V30 13865 H 1298.29 1.11819 0.955771 0
M  V30 13866 H 1300.25 0.945236 4.06351 0
M  V30 13867 H 1298.88 0.172781 3.22337 0
M  V30 13868 H 1297.93 2.5581 2.81541 0
M  V30 13869 H 1299.24 3.18869 3.83568 0
M  V30 13870 H 1298.4 1.85398 5.77679 0
M  V30 13871 H 1297.14 1.11921 4.74684 0
M  V30 13872 H 1296.14 3.38632 4.33138 0
M  V30 13873 H 1297.37 4.1236 5.3957 0
M  V30 13874 H 1295.31 2.04207 6.23406 0
M  V30 13875 H 1295.23 3.74034 6.56989 0
M  V30 13876 H 1296.5 2.78643 7.27996 0
M  V30 13877 N 1300.73 -1.01913 1.20215 0
M  V30 13878 C 1301.98 -1.75124 1.00876 0
M  V30 13879 C 1302.3 -1.89485 -0.460475 0
M  V30 13880 O 1301.57 -1.43552 -1.33302 0
M  V30 13881 H 1300.15 -0.648777 0.370266 0
M  V30 13882 H 1302.81 -1.22883 1.5128 0
M  V30 13883 H 1301.91 -2.7558 1.46499 0
M  V30 13884 N 1302.21 -1.00763 -1.2118 0
M  V30 13885 C 1303.45 -0.692851 -1.90598 0
M  V30 13886 C 1303.79 0.774698 -1.78079 0
M  V30 13887 O 1303.06 1.56186 -1.15914 0
M  V30 13888 C 1303.34 -1.11792 -3.42308 0
M  V30 13889 C 1303.2 -2.64511 -3.63805 0
M  V30 13890 C 1304.52 -0.682314 -4.34779 0
M  V30 13891 H 1301.63 -0.253175 -0.69215 0
M  V30 13892 H 1304.28 -1.25378 -1.4276 0
M  V30 13893 H 1302.43 -0.640665 -3.83181 0
M  V30 13894 H 1304.1 -3.20021 -3.32242 0
M  V30 13895 H 1302.34 -3.05903 -3.0758 0
M  V30 13896 H 1303.01 -2.89306 -4.70113 0
M  V30 13897 H 1305.49 -1.09247 -4.01503 0
M  V30 13898 H 1304.36 -1.00787 -5.39568 0
M  V30 13899 H 1304.63 0.416441 -4.40134 0
M  V30 13900 N 1303.68 1.3679 -0.7827 0
M  V30 13901 C 1304.92 2.01252 -0.357327 0
M  V30 13902 C 1305.29 1.60782 1.04944 0
M  V30 13903 O 1306.49 2.17785 1.57553 0
M  V30 13904 C 1304.76 3.53766 -0.508352 0
M  V30 13905 S 1306.32 4.38471 -0.169862 0
M  V30 13906 H 1303.14 0.697701 -0.136875 0
M  V30 13907 H 1305.74 1.66799 -1.01972 0
M  V30 13908 H 1304.44 3.80708 -1.53262 0
M  V30 13909 H 1303.97 3.93032 0.170209 0
M  V30 13910 H 1305.99 4.85373 1.03088 0
M  V30 13911 N 1305.16 0.53415 1.48272 0
M  V30 13912 C 1306.41 -0.000450626 2.017 0
M  V30 13913 C 1306.72 -1.34926 1.41613 0
M  V30 13914 O 1307.93 -1.97246 1.86564 0
M  V30 13915 C 1306.39 -0.0511883 3.59864 0
M  V30 13916 C 1305.99 1.29298 4.28936 0
M  V30 13917 C 1307.74 -0.534397 4.21123 0
M  V30 13918 C 1305.65 1.2026 5.79044 0
M  V30 13919 H 1304.58 -0.00393844 0.75399 0
M  V30 13920 H 1307.23 0.678554 1.70493 0
M  V30 13921 H 1305.61 -0.795358 3.8793 0
M  V30 13922 H 1306.78 2.05305 4.12537 0
M  V30 13923 H 1305.1 1.71226 3.79566 0
M  V30 13924 H 1307.69 -0.620048 5.31093 0
M  V30 13925 H 1308.04 -1.54114 3.86723 0
M  V30 13926 H 1308.57 0.154215 3.97501 0
M  V30 13927 H 1305.31 2.18463 6.18025 0
M  V30 13928 H 1304.83 0.483971 5.97844 0
M  V30 13929 H 1306.51 0.895005 6.4078 0
M  V30 13930 N 1306.64 -1.55279 0.269478 0
M  V30 13931 C 1307.6 -2.21008 -0.607299 0
M  V30 13932 C 1308.6 -1.18619 -1.08564 0
M  V30 13933 O 1309.79 -1.4356 -0.986721 0
M  V30 13934 C 1306.93 -2.87157 -1.83721 0
M  V30 13935 H 1308.12 -2.99881 -0.0334894 0
M  V30 13936 H 1305.67 -1.56287 0.0200573 0
M  V30 13937 H 1306.41 -2.12281 -2.45168 0
M  V30 13938 H 1306.19 -3.62183 -1.5022 0
M  V30 13939 H 1307.68 -3.37391 -2.46083 0
M  V30 13940 N 1308.12 0.00332656 -1.576 0
M  V30 13941 C 1309.37 0.688869 -1.90423 0
M  V30 13942 C 1309.69 1.73963 -0.869896 0
M  V30 13943 O 1308.95 1.95295 0.125777 0
M  V30 13944 C 1309.25 1.37237 -3.30001 0
M  V30 13945 C 1308.91 0.455132 -4.48597 0
M  V30 13946 C 1307.58 0.202577 -4.80773 0
M  V30 13947 C 1309.93 -0.176597 -5.20901 0
M  V30 13948 C 1307.26 -0.690055 -5.82628 0
M  V30 13949 C 1309.61 -1.05708 -6.23705 0
M  V30 13950 C 1308.27 -1.31885 -6.54341 0
M  V30 13951 H 1307.54 0.252075 -0.696806 0
M  V30 13952 H 1310.19 -0.0514867 -1.91431 0
M  V30 13953 H 1308.49 2.18669 -3.25102 0
M  V30 13954 H 1310.19 1.9088 -3.52656 0
M  V30 13955 H 1306.78 0.662142 -4.23454 0
M  V30 13956 H 1310.96 0.0055127 -4.963 0
M  V30 13957 H 1306.22 -0.900902 -6.04726 0
M  V30 13958 H 1310.39 -1.55296 -6.78864 0
M  V30 13959 H 1308.02 -2.01222 -7.33085 0
M  V30 13960 N 1309.6 1.55164 0.276031 0
M  V30 13961 C 1310.83 1.79388 1.02486 0
M  V30 13962 C 1311.23 0.565884 1.80539 0
M  V30 13963 O 1310.58 -0.47449 1.77466 0
M  V30 13964 C 1310.64 2.96494 2.03302 0
M  V30 13965 C 1310.3 4.33649 1.44214 0
M  V30 13966 C 1311.3 5.12749 0.859355 0
M  V30 13967 C 1308.99 4.80301 1.47026 0
M  V30 13968 C 1310.98 6.36633 0.312548 0
M  V30 13969 C 1308.67 6.04141 0.919587 0
M  V30 13970 C 1309.66 6.82145 0.341729 0
M  V30 13971 O 1309.35 8.0365 -0.200517 0
M  V30 13972 H 1309.08 0.601454 0.308592 0
M  V30 13973 H 1311.64 2.02999 0.313148 0
M  V30 13974 H 1309.87 2.68568 2.78223 0
M  V30 13975 H 1311.56 3.08069 2.64288 0
M  V30 13976 H 1312.32 4.77839 0.830353 0
M  V30 13977 H 1308.2 4.19597 1.90942 0
M  V30 13978 H 1311.75 6.97461 -0.139131 0
M  V30 13979 H 1307.64 6.38533 0.945819 0
M  V30 13980 H 1308.41 8.18451 -0.0895877 0
M  V30 13981 N 1311.07 -0.540404 1.48045 0
M  V30 13982 C 1312.32 -1.29422 1.55224 0
M  V30 13983 C 1312.64 -1.93716 0.223365 0
M  V30 13984 O 1311.91 -1.808 -0.754204 0
M  V30 13985 H 1310.49 -0.480658 0.571819 0
M  V30 13986 H 1313.16 -0.629712 1.84447 0
M  V30 13987 H 1312.25 -2.07897 2.32777 0
M  V30 13988 N 1312.55 -1.36459 -0.788468 0
M  V30 13989 C 1313.48 -1.33545 -1.91541 0
M  V30 13990 C 1314.46 -0.206762 -1.68839 0
M  V30 13991 O 1315.65 -0.404553 -1.89939 0
M  V30 13992 C 1312.78 -1.12492 -3.28577 0
M  V30 13993 C 1311.73 -2.22196 -3.65805 0
M  V30 13994 C 1311.06 -1.86285 -5.01201 0
M  V30 13995 C 1312.36 -3.64286 -3.7429 0
M  V30 13996 H 1314.05 -2.27844 -1.94236 0
M  V30 13997 H 1311.6 -1.09677 -0.933105 0
M  V30 13998 H 1313.55 -1.09089 -4.07035 0
M  V30 13999 H 1312.28 -0.146446 -3.26272 0
M  V30 14000 H 1310.93 -2.24727 -2.89644 0
M  V30 14001 H 1310.58 -0.87009 -4.95417 0
M  V30 14002 H 1310.28 -2.59734 -5.27079 0
M  V30 14003 H 1311.81 -1.84439 -5.82078 0
M  V30 14004 H 1313.22 -3.63977 -4.42937 0
M  V30 14005 H 1311.62 -4.36648 -4.11653 0
M  V30 14006 H 1312.69 -3.99123 -2.75371 0
M  V30 14007 N 1314.03 1.01274 -1.20754 0
M  V30 14008 C 1315.26 1.78265 -1.04427 0
M  V30 14009 C 1315.67 1.84718 0.409361 0
M  V30 14010 O 1315.01 1.30195 1.29595 0
M  V30 14011 C 1315.07 3.24037 -1.55693 0
M  V30 14012 C 1314.74 3.41181 -3.04047 0
M  V30 14013 C 1315.73 3.30087 -4.0167 0
M  V30 14014 C 1313.42 3.66872 -3.43089 0
M  V30 14015 C 1315.41 3.44436 -5.36323 0
M  V30 14016 C 1313.1 3.80865 -4.77896 0
M  V30 14017 C 1314.1 3.69652 -5.74322 0
M  V30 14018 O 1313.79 3.83211 -7.06686 0
M  V30 14019 H 1313.52 0.567327 -0.367582 0
M  V30 14020 H 1316.07 1.28336 -1.60372 0
M  V30 14021 H 1314.3 3.75067 -0.941382 0
M  V30 14022 H 1315.99 3.82676 -1.35328 0
M  V30 14023 H 1316.76 3.10172 -3.72852 0
M  V30 14024 H 1312.64 3.74685 -2.68574 0
M  V30 14025 H 1316.18 3.35601 -6.1157 0
M  V30 14026 H 1312.08 4.00282 -5.06403 0
M  V30 14027 H 1312.85 4.00205 -7.13987 0
M  V30 14028 N 1315.51 1.01404 1.20644 0
M  V30 14029 C 1316.76 0.700523 1.89571 0
M  V30 14030 C 1317.08 -0.771978 1.79068 0
M  V30 14031 O 1316.35 -1.55506 1.19142 0
M  V30 14032 H 1314.93 0.256122 0.70172 0
M  V30 14033 H 1317.59 1.28509 1.46531 0
M  V30 14034 H 1316.69 0.981665 2.9626 0
M  V30 14035 N 1316.99 -1.36373 0.789944 0
M  V30 14036 C 1317.92 -2.32616 0.202944 0
M  V30 14037 C 1318.9 -1.56674 -0.662364 0
M  V30 14038 O 1320.08 -1.84826 -0.596078 0
M  V30 14039 C 1317.21 -3.4092 -0.662646 0
M  V30 14040 C 1316.17 -4.27877 0.102811 0
M  V30 14041 C 1315.49 -5.27352 -0.883407 0
M  V30 14042 C 1316.79 -5.0606 1.29231 0
M  V30 14043 H 1318.49 -2.81958 1.00699 0
M  V30 14044 H 1316.03 -1.35562 0.48568 0
M  V30 14045 H 1317.99 -4.07239 -1.08324 0
M  V30 14046 H 1316.71 -2.90147 -1.4994 0
M  V30 14047 H 1315.37 -3.63114 0.504389 0
M  V30 14048 H 1315.02 -4.72853 -1.71521 0
M  V30 14049 H 1314.72 -5.86398 -0.375669 0
M  V30 14050 H 1316.24 -5.96545 -1.30256 0
M  V30 14051 H 1317.66 -5.65417 0.947446 0
M  V30 14052 H 1316.05 -5.74521 1.73338 0
M  V30 14053 H 1317.12 -4.37671 2.08739 0
M  V30 14054 N 1318.47 -0.542005 -1.47987 0
M  V30 14055 C 1319.4 0.202703 -2.32618 0
M  V30 14056 C 1320.38 0.923521 -1.42846 0
M  V30 14057 O 1321.56 0.906957 -1.7172 0
M  V30 14058 C 1318.69 1.24267 -3.24307 0
M  V30 14059 C 1317.65 0.639257 -4.23199 0
M  V30 14060 C 1316.97 1.78275 -5.04105 0
M  V30 14061 C 1318.27 -0.396982 -5.20789 0
M  V30 14062 H 1319.97 -0.503817 -2.95131 0
M  V30 14063 H 1317.51 -0.243736 -1.41922 0
M  V30 14064 H 1319.46 1.7717 -3.82347 0
M  V30 14065 H 1318.19 1.97893 -2.59819 0
M  V30 14066 H 1316.85 0.131655 -3.66364 0
M  V30 14067 H 1316.5 2.50768 -4.36032 0
M  V30 14068 H 1316.2 1.38487 -5.71047 0
M  V30 14069 H 1317.72 2.31533 -5.65 0
M  V30 14070 H 1319.13 0.0454057 -5.73282 0
M  V30 14071 H 1317.53 -0.712911 -5.9585 0
M  V30 14072 H 1318.6 -1.29843 -4.67193 0
M  V30 14073 N 1319.94 1.55134 -0.277709 0
M  V30 14074 C 1320.89 2.19317 0.623216 0
M  V30 14075 C 1321.88 1.15863 1.11645 0
M  V30 14076 O 1323.07 1.41668 1.0611 0
M  V30 14077 C 1320.2 2.91976 1.80568 0
M  V30 14078 C 1319.28 4.02722 1.3295 0
M  V30 14079 N 1319.68 5.02582 0.569654 0
M  V30 14080 C 1317.97 4.1584 1.61224 0
M  V30 14081 C 1318.67 5.80825 0.318983 0
M  V30 14082 N 1317.65 5.36229 0.892145 0
M  V30 14083 H 1321.45 2.93879 0.0348669 0
M  V30 14084 H 1318.97 1.62196 -0.0813871 0
M  V30 14085 H 1320.96 3.36408 2.46242 0
M  V30 14086 H 1319.62 2.18925 2.39796 0
M  V30 14087 H 1320.63 5.17446 0.216749 0
M  V30 14088 H 1317.31 3.53981 2.21368 0
M  V30 14089 H 1318.7 6.71275 -0.289742 0
M  V30 14090 N 1321.42 0.00503138 1.57599 0
M  V30 14091 C 1322.37 -1.00294 2.09866 0
M  V30 14092 C 1323.36 -1.35267 1.01977 0
M  V30 14093 O 1324.57 -1.33772 1.20437 0
M  V30 14094 H 1320.94 -0.341112 0.670184 0
M  V30 14095 H 1322.92 -0.536595 2.93536 0
M  V30 14096 C 1321.66 -2.28432 2.62133 0
M  V30 14097 H 1320.99 -2.02391 3.44787 0
M  V30 14098 H 1322.43 -2.97227 3.02378 0
M  V30 14099 C 1320.89 -2.99758 1.53774 0
M  V30 14100 O 1321.42 -3.90939 0.923563 0
M  V30 14101 N 1319.62 -2.61671 1.26398 0
M  V30 14102 H 1319.17 -1.87605 1.76528 0
M  V30 14103 H 1319.13 -3.09707 0.541168 0
M  V30 14104 N 1322.9 -1.55308 -0.267798 0
M  V30 14105 C 1323.85 -1.88544 -1.33115 0
M  V30 14106 C 1324.82 -0.737465 -1.48831 0
M  V30 14107 O 1326 -0.989215 -1.63154 0
M  V30 14108 C 1323.14 -2.1674 -2.68547 0
M  V30 14109 C 1322.25 -3.44234 -2.61011 0
M  V30 14110 C 1321.39 -3.62104 -3.88657 0
M  V30 14111 C 1320.43 -4.83272 -3.75652 0
M  V30 14112 N 1319.57 -4.97772 -4.95144 0
M  V30 14113 H 1324.41 -2.79237 -1.04071 0
M  V30 14114 H 1321.94 -1.38245 -0.502677 0
M  V30 14115 H 1323.9 -2.31088 -3.47353 0
M  V30 14116 H 1322.53 -1.29276 -2.95783 0
M  V30 14117 H 1321.58 -3.3833 -1.73887 0
M  V30 14118 H 1322.89 -4.33177 -2.47303 0
M  V30 14119 H 1322.05 -3.76298 -4.75904 0
M  V30 14120 H 1320.79 -2.71356 -4.05238 0
M  V30 14121 H 1319.79 -4.69076 -2.86788 0
M  V30 14122 H 1321.02 -5.75461 -3.60585 0
M  V30 14123 H 1318.96 -4.09956 -5.12125 0
M  V30 14124 H 1318.88 -5.80769 -4.83987 0
M  V30 14125 H 1320.15 -5.16357 -5.83949 0
M  V30 14126 N 1324.38 0.532545 -1.4833 0
M  V30 14127 C 1325.61 1.31141 -1.59642 0
M  V30 14128 C 1326.02 1.87476 -0.254835 0
M  V30 14129 O 1325.36 1.66985 0.765622 0
M  V30 14130 C 1325.42 2.50182 -2.58165 0
M  V30 14131 C 1325.08 2.14953 -4.03292 0
M  V30 14132 C 1326.08 1.70777 -4.91051 0
M  V30 14133 C 1323.77 2.25555 -4.4881 0
M  V30 14134 C 1325.76 1.37665 -6.22356 0
M  V30 14135 C 1323.45 1.92055 -5.80136 0
M  V30 14136 C 1324.45 1.48181 -6.66732 0
M  V30 14137 O 1324.13 1.15119 -7.95615 0
M  V30 14138 H 1323.87 0.405164 -0.541127 0
M  V30 14139 H 1326.42 0.649423 -1.94863 0
M  V30 14140 H 1324.65 3.19353 -2.1806 0
M  V30 14141 H 1326.34 3.12246 -2.5934 0
M  V30 14142 H 1327.1 1.62059 -4.57124 0
M  V30 14143 H 1322.98 2.5866 -3.81597 0
M  V30 14144 H 1326.53 1.03348 -6.89902 0
M  V30 14145 H 1322.42 2.00413 -6.136 0
M  V30 14146 H 1323.19 1.28539 -8.08344 0
M  V30 14147 N 1325.86 1.36875 0.78122 0
M  V30 14148 C 1327.1 1.30886 1.53466 0
M  V30 14149 C 1327.42 -0.107218 1.95306 0
M  V30 14150 O 1328.62 -0.289525 2.69952 0
M  V30 14151 C 1327.08 2.29688 2.77076 0
M  V30 14152 C 1326.69 3.76775 2.42373 0
M  V30 14153 C 1328.43 2.32692 3.55042 0
M  V30 14154 C 1326.34 4.67332 3.62428 0
M  V30 14155 H 1325.27 0.486408 0.576128 0
M  V30 14156 H 1327.92 1.62283 0.856529 0
M  V30 14157 H 1326.3 1.91296 3.4673 0
M  V30 14158 H 1327.48 4.2395 1.80563 0
M  V30 14159 H 1325.79 3.76625 1.77602 0
M  V30 14160 H 1328.39 2.97556 4.44257 0
M  V30 14161 H 1328.73 1.33779 3.94219 0
M  V30 14162 H 1329.26 2.69743 2.92375 0
M  V30 14163 H 1326 5.67339 3.2834 0
M  V30 14164 H 1325.52 4.24868 4.23376 0
M  V30 14165 H 1327.2 4.84005 4.29358 0
M  V30 14166 N 1327.33 -1.00632 1.21289 0
M  V30 14167 C 1328.58 -1.73802 1.02351 0
M  V30 14168 C 1328.9 -1.90503 -0.443611 0
M  V30 14169 O 1330.1 -2.60868 -0.752356 0
M  V30 14170 C 1328.56 -3.12647 1.78269 0
M  V30 14171 C 1328.17 -3.03923 3.29142 0
M  V30 14172 C 1329.91 -3.89956 1.67735 0
M  V30 14173 C 1327.82 -4.3784 3.97556 0
M  V30 14174 H 1326.75 -0.651616 0.379358 0
M  V30 14175 H 1329.4 -1.12446 1.45011 0
M  V30 14176 H 1327.78 -3.74605 1.28401 0
M  V30 14177 H 1328.95 -2.51211 3.86303 0
M  V30 14178 H 1327.27 -2.40103 3.40205 0
M  V30 14179 H 1329.87 -4.89051 2.1618 0
M  V30 14180 H 1330.21 -4.11423 0.635338 0
M  V30 14181 H 1330.74 -3.34647 2.15072 0
M  V30 14182 H 1327.48 -4.21573 5.01952 0
M  V30 14183 H 1327 -4.90518 3.45184 0
M  V30 14184 H 1328.68 -5.06644 4.02393 0
M  V30 14185 N 1328.81 -1.02043 -1.20104 0
M  V30 14186 C 1330.06 -0.707271 -1.88893 0
M  V30 14187 C 1330.37 0.766617 -1.79951 0
M  V30 14188 O 1331.58 1.19248 -2.4391 0
M  V30 14189 C 1330.04 -1.2147 -3.38782 0
M  V30 14190 C 1329.64 -2.71576 -3.56301 0
M  V30 14191 C 1331.39 -0.977146 -4.13101 0
M  V30 14192 C 1329.29 -3.15781 -5.00037 0
M  V30 14193 H 1328.22 -0.26086 -0.707438 0
M  V30 14194 H 1330.88 -1.23361 -1.35846 0
M  V30 14195 H 1329.26 -0.616315 -3.91175 0
M  V30 14196 H 1330.43 -3.36997 -3.14276 0
M  V30 14197 H 1328.75 -2.93517 -2.95359 0
M  V30 14198 H 1331.34 -1.28278 -5.19085 0
M  V30 14199 H 1331.69 0.0862909 -4.16211 0
M  V30 14200 H 1332.22 -1.5391 -3.6682 0
M  V30 14201 H 1328.96 -4.21417 -5.02084 0
M  V30 14202 H 1328.48 -2.55083 -5.42856 0
M  V30 14203 H 1330.16 -3.08637 -5.6864 0
M  V30 14204 N 1330.29 1.35952 -0.797165 0
M  V30 14205 C 1331.57 1.93335 -0.2968 0
M  V30 14206 C 1331.95 1.72825 1.21222 0
M  V30 14207 O 1331.3 1.09172 2.00733 0
M  V30 14208 C 1331.51 3.41951 -0.697894 0
M  V30 14209 C 1332.85 4.19087 -0.682026 0
M  V30 14210 O 1333.88 3.50424 -0.638849 0
M  V30 14211 O 1332.74 5.41577 -0.73189 0
M  V30 14212 H 1329.83 0.823554 -0.0754223 0
M  V30 14213 H 1332.38 1.45086 -0.88023 0
M  V30 14214 H 1331.15 3.50569 -1.73831 0
M  V30 14215 H 1330.77 3.97501 -0.088764 0
M  V30 14216 N 1331.77 0.549846 1.47697 0
M  V30 14217 C 1333.05 -0.0422793 1.95554 0
M  V30 14218 C 1333.43 -1.49303 1.49238 0
M  V30 14219 O 1332.77 -2.16598 0.727844 0
M  V30 14220 C 1332.98 0.0955552 3.48869 0
M  V30 14221 C 1334.33 -0.0535698 4.24566 0
M  V30 14222 O 1335.36 0.0227365 3.56193 0
M  V30 14223 O 1334.21 -0.21645 5.46071 0
M  V30 14224 H 1331.31 -0.0682465 0.824179 0
M  V30 14225 H 1333.85 0.615849 1.58131 0
M  V30 14226 H 1332.63 1.10536 3.75363 0
M  V30 14227 H 1332.25 -0.600522 3.93039 0
M  V30 14228 N 1333.25 -1.54984 0.285932 0
M  V30 14229 C 1334.52 -1.91872 -0.380083 0
M  V30 14230 C 1334.9 -1.21146 -1.72878 0
M  V30 14231 O 1334.25 -0.341999 -2.25926 0
M  V30 14232 C 1334.46 -3.45258 -0.509667 0
M  V30 14233 C 1335.81 -4.17232 -0.787549 0
M  V30 14234 O 1336.83 -3.51211 -0.594062 0
M  V30 14235 O 1335.69 -5.34085 -1.15826 0
M  V30 14236 H 1332.79 -0.799931 -0.209856 0
M  V30 14237 H 1335.33 -1.66403 0.332882 0
M  V30 14238 H 1334.1 -3.88829 0.439049 0
M  V30 14239 H 1333.73 -3.76715 -1.27168 0
M  V30 14240 N 1334.72 -0.0133892 -1.57594 0
M  V30 14241 C 1335.67 0.991796 -2.10395 0
M  V30 14242 C 1336.67 1.34724 -1.02693 0
M  V30 14243 O 1337.87 1.33131 -1.21145 0
M  V30 14244 H 1334.25 0.337553 -0.671984 0
M  V30 14245 H 1336.22 0.52102 -2.93816 0
M  V30 14246 C 1334.97 2.27039 -2.63341 0
M  V30 14247 H 1334.29 2.00559 -3.45855 0
M  V30 14248 H 1335.73 2.95619 -3.0395 0
M  V30 14249 C 1334.19 2.98939 -1.55362 0
M  V30 14250 O 1334.72 3.90444 -0.944282 0
M  V30 14251 N 1332.93 2.60997 -1.27784 0
M  V30 14252 H 1332.47 1.86666 -1.77521 0
M  V30 14253 H 1332.43 3.09416 -0.557585 0
M  V30 14254 N 1336.2 1.55448 0.259558 0
M  V30 14255 C 1337.45 1.7589 0.987201 0
M  V30 14256 C 1337.76 0.574951 1.86959 0
M  V30 14257 O 1338.97 0.662091 2.63303 0
M  V30 14258 C 1337.43 3.11349 1.80526 0
M  V30 14259 C 1337.03 4.37353 0.970882 0
M  V30 14260 C 1338.78 3.41136 2.5264 0
M  V30 14261 C 1336.69 5.63847 1.7841 0
M  V30 14262 H 1335.62 0.655662 0.372321 0
M  V30 14263 H 1338.27 1.81893 0.242332 0
M  V30 14264 H 1336.65 2.9942 2.5916 0
M  V30 14265 H 1337.82 4.60237 0.227763 0
M  V30 14266 H 1336.14 4.14809 0.363669 0
M  V30 14267 H 1338.73 4.32855 3.13912 0
M  V30 14268 H 1339.08 2.61879 3.23612 0
M  V30 14269 H 1339.61 3.54224 1.81026 0
M  V30 14270 H 1336.35 6.4589 1.11834 0
M  V30 14271 H 1335.87 5.45086 2.50283 0
M  V30 14272 H 1337.55 6.02641 2.35441 0
M  V30 14273 N 1337.68 -0.524672 1.4861 0
M  V30 14274 C 1338.64 -1.61092 1.63039 0
M  V30 14275 C 1339.64 -1.52718 0.503387 0
M  V30 14276 O 1340.83 -1.56293 0.769304 0
M  V30 14277 C 1337.97 -3.00722 1.60558 0
M  V30 14278 H 1339.16 -1.49636 2.59902 0
M  V30 14279 H 1336.71 -0.747135 1.37287 0
M  V30 14280 H 1337.45 -3.1768 0.651926 0
M  V30 14281 H 1337.23 -3.0821 2.42382 0
M  V30 14282 H 1338.72 -3.79688 1.73859 0
M  V30 14283 N 1339.16 -1.37287 -0.77395 0
M  V30 14284 C 1340.11 -1.32872 -1.88716 0
M  V30 14285 C 1341.08 -0.194655 -1.64955 0
M  V30 14286 O 1342.26 -0.383662 -1.86903 0
M  V30 14287 C 1339.4 -1.13934 -3.2575 0
M  V30 14288 C 1338.51 -2.36552 -3.61479 0
M  V30 14289 C 1337.65 -2.10504 -4.87711 0
M  V30 14290 C 1336.69 -3.28999 -5.16165 0
M  V30 14291 N 1335.82 -3.02517 -6.33584 0
M  V30 14292 H 1340.66 -2.28051 -1.91825 0
M  V30 14293 H 1338.2 -1.13325 -0.93786 0
M  V30 14294 H 1340.16 -1.00976 -4.04796 0
M  V30 14295 H 1338.79 -0.22404 -3.22022 0
M  V30 14296 H 1337.84 -2.60257 -2.77435 0
M  V30 14297 H 1339.15 -3.24931 -3.78446 0
M  V30 14298 H 1338.31 -1.94564 -5.74656 0
M  V30 14299 H 1337.05 -1.19459 -4.72843 0
M  V30 14300 H 1336.05 -3.4548 -4.27696 0
M  V30 14301 H 1337.28 -4.20892 -5.32942 0
M  V30 14302 H 1335.22 -2.14099 -6.20079 0
M  V30 14303 H 1335.14 -3.84439 -6.50955 0
M  V30 14304 H 1336.41 -2.9019 -7.23471 0
M  V30 14305 N 1340.64 0.999871 -1.21821 0
M  V30 14306 C 1341.87 1.77148 -1.06312 0
M  V30 14307 C 1342.27 1.85142 0.389747 0
M  V30 14308 O 1341.62 1.31562 1.28207 0
M  V30 14309 C 1341.68 3.22367 -1.59122 0
M  V30 14310 C 1341.34 3.37937 -3.07649 0
M  V30 14311 C 1342.34 3.25808 -4.05148 0
M  V30 14312 C 1340.03 3.63213 -3.46961 0
M  V30 14313 C 1342.02 3.38729 -5.39946 0
M  V30 14314 C 1339.71 3.75775 -4.81909 0
M  V30 14315 C 1340.7 3.6354 -5.78211 0
M  V30 14316 O 1340.39 3.75694 -7.1071 0
M  V30 14317 H 1340.12 0.563396 -0.373578 0
M  V30 14318 H 1342.68 1.26627 -1.61724 0
M  V30 14319 H 1340.91 3.74047 -0.98111 0
M  V30 14320 H 1342.6 3.81219 -1.39379 0
M  V30 14321 H 1343.36 3.062 -3.76121 0
M  V30 14322 H 1339.24 3.71816 -2.72533 0
M  V30 14323 H 1342.79 3.29096 -6.15095 0
M  V30 14324 H 1338.68 3.94889 -5.1062 0
M  V30 14325 H 1339.45 3.9261 -7.18192 0
M  V30 14326 N 1342.11 1.02678 1.19562 0
M  V30 14327 C 1343.36 0.723086 1.89471 0
M  V30 14328 C 1343.69 -0.746269 1.79289 0
M  V30 14329 O 1342.97 -1.54322 1.18384 0
M  V30 14330 C 1343.25 1.17224 3.40486 0
M  V30 14331 C 1343.1 2.70266 3.5955 0
M  V30 14332 C 1344.42 0.751397 4.33638 0
M  V30 14333 H 1341.54 0.264155 0.688034 0
M  V30 14334 H 1344.18 1.27633 1.40747 0
M  V30 14335 H 1342.33 0.701544 3.82113 0
M  V30 14336 H 1344.01 3.25266 3.27108 0
M  V30 14337 H 1342.25 3.10758 3.02675 0
M  V30 14338 H 1342.92 2.96748 4.65451 0
M  V30 14339 H 1345.4 1.15621 3.99714 0
M  V30 14340 H 1344.27 1.09358 5.37896 0
M  V30 14341 H 1344.53 -0.346367 4.40741 0
M  V30 14342 N 1343.59 -1.35528 0.804364 0
M  V30 14343 C 1344.54 -2.31728 0.20125 0
M  V30 14344 C 1345.53 -1.56527 -0.647751 0
M  V30 14345 O 1346.74 -1.71672 -0.541163 0
M  V30 14346 H 1343.12 -0.750572 0.0463165 0
M  V30 14347 H 1345.09 -2.80142 1.02777 0
M  V30 14348 C 1343.84 -3.41807 -0.637429 0
M  V30 14349 H 1343.16 -3.99799 0.00651699 0
M  V30 14350 H 1344.6 -4.11403 -1.02585 0
M  V30 14351 C 1343.06 -2.84655 -1.80202 0
M  V30 14352 O 1343.59 -2.78026 -2.89939 0
M  V30 14353 N 1341.79 -2.41735 -1.61285 0
M  V30 14354 H 1341.34 -2.47327 -0.720231 0
M  V30 14355 H 1341.3 -2.03844 -2.39364 0
M  V30 14356 N 1345.07 -0.557671 -1.47404 0
M  V30 14357 C 1346 0.227253 -2.28071 0
M  V30 14358 C 1347.02 0.878951 -1.37034 0
M  V30 14359 O 1348.21 0.752725 -1.61853 0
M  V30 14360 C 1345.31 1.33942 -3.11308 0
M  V30 14361 C 1344.48 0.784425 -4.30309 0
M  V30 14362 C 1343.54 1.78114 -4.95138 0
M  V30 14363 O 1342.56 1.32708 -5.53514 0
M  V30 14364 N 1343.77 3.11453 -4.89875 0
M  V30 14365 H 1346.53 -0.464709 -2.96075 0
M  V30 14366 H 1344.09 -0.393777 -1.57038 0
M  V30 14367 H 1346.08 2.00495 -3.51545 0
M  V30 14368 H 1344.65 1.93461 -2.45543 0
M  V30 14369 H 1343.87 -0.0578917 -3.94157 0
M  V30 14370 H 1345.16 0.39298 -5.0728 0
M  V30 14371 H 1344.56 3.50987 -4.43649 0
M  V30 14372 H 1343.12 3.73563 -5.34129 0
M  V30 14373 N 1346.55 1.54831 -0.294147 0
M  V30 14374 C 1347.8 1.99606 0.316509 0
M  V30 14375 C 1348.12 1.18405 1.54936 0
M  V30 14376 O 1347.39 0.278289 1.93913 0
M  V30 14377 H 1345.97 0.737309 0.119938 0
M  V30 14378 H 1348.63 1.90669 -0.403891 0
M  V30 14379 H 1347.73 3.06409 0.593282 0
M  V30 14380 N 1348.03 0.0217466 1.57585 0
M  V30 14381 C 1349.28 -0.657187 1.91116 0
M  V30 14382 C 1349.6 -1.7309 0.898039 0
M  V30 14383 O 1348.87 -1.95803 -0.0615116 0
M  V30 14384 H 1347.45 -0.245732 0.705425 0
M  V30 14385 H 1350.11 0.0678096 1.94782 0
M  V30 14386 H 1349.2 -1.11462 2.91518 0
M  V30 14387 N 1349.51 -1.55583 -0.251311 0
M  V30 14388 C 1350.44 -1.9296 -1.31486 0
M  V30 14389 C 1351.42 -0.794001 -1.50431 0
M  V30 14390 O 1352.6 -1.05393 -1.63113 0
M  V30 14391 C 1349.73 -2.22046 -2.67045 0
M  V30 14392 C 1348.69 -3.37816 -2.62801 0
M  V30 14393 C 1348.01 -3.52433 -4.02113 0
M  V30 14394 C 1349.31 -4.73626 -2.20171 0
M  V30 14395 H 1351.01 -2.82046 -1.00451 0
M  V30 14396 H 1348.55 -1.35702 -0.481775 0
M  V30 14397 H 1350.5 -2.46783 -3.41579 0
M  V30 14398 H 1349.23 -1.29782 -2.99707 0
M  V30 14399 H 1347.89 -3.13081 -1.90724 0
M  V30 14400 H 1347.54 -2.57597 -4.32034 0
M  V30 14401 H 1347.24 -4.30283 -4.00163 0
M  V30 14402 H 1348.76 -3.79486 -4.78354 0
M  V30 14403 H 1350.17 -4.97764 -2.84436 0
M  V30 14404 H 1348.57 -5.54547 -2.29341 0
M  V30 14405 H 1349.64 -4.70985 -1.1533 0
M  V30 14406 N 1350.98 0.516783 -1.48886 0
M  V30 14407 C 1351.89 1.6467 -1.67095 0
M  V30 14408 C 1352.91 1.64963 -0.553466 0
M  V30 14409 O 1354.09 1.83673 -0.826206 0
M  V30 14410 C 1351.15 3.01095 -1.71879 0
M  V30 14411 C 1350.21 3.11554 -2.95352 0
M  V30 14412 C 1349.44 4.41471 -2.99898 0
M  V30 14413 O 1349.67 5.29348 -2.12477 0
M  V30 14414 O 1348.6 4.56573 -3.92205 0
M  V30 14415 H 1352.43 1.52242 -2.62785 0
M  V30 14416 H 1350.01 0.69134 -1.32442 0
M  V30 14417 H 1351.89 3.82207 -1.77471 0
M  V30 14418 H 1350.57 3.1382 -0.793656 0
M  V30 14419 H 1349.48 2.29689 -2.95286 0
M  V30 14420 H 1350.81 3.03751 -3.87294 0
M  V30 14421 N 1352.46 1.37696 0.766659 0
M  V30 14422 C 1353.39 1.36576 1.89392 0
M  V30 14423 C 1354.37 0.233597 1.68488 0
M  V30 14424 O 1355.56 0.434719 1.89272 0
M  V30 14425 C 1352.69 1.17705 3.26746 0
M  V30 14426 C 1351.64 2.27987 3.62224 0
M  V30 14427 C 1350.97 1.94235 4.98174 0
M  V30 14428 C 1352.27 3.70195 3.68447 0
M  V30 14429 H 1353.96 2.30905 1.90587 0
M  V30 14430 H 1351.51 1.11148 0.915538 0
M  V30 14431 H 1353.46 1.15551 4.05248 0
M  V30 14432 H 1352.18 0.198334 3.25997 0
M  V30 14433 H 1350.84 2.29306 2.86032 0
M  V30 14434 H 1350.49 0.948796 4.93971 0
M  V30 14435 H 1350.19 2.68086 5.2288 0
M  V30 14436 H 1351.72 1.93676 5.7907 0
M  V30 14437 H 1353.13 3.70978 4.37091 0
M  V30 14438 H 1351.53 4.43142 4.04654 0
M  V30 14439 H 1352.6 4.03453 2.68986 0
M  V30 14440 N 1353.94 -0.993397 1.22349 0
M  V30 14441 C 1355.17 -1.76838 1.07406 0
M  V30 14442 C 1355.58 -1.8503 -0.37542 0
M  V30 14443 O 1354.94 -1.32008 -1.26016 0
M  V30 14444 C 1354.99 -3.20177 1.67837 0
M  V30 14445 O 1354.71 -3.12429 3.07115 0
M  V30 14446 C 1356.21 -4.14125 1.58161 0
M  V30 14447 H 1353.43 -0.555379 0.376557 0
M  V30 14448 H 1355.98 -1.24893 1.61932 0
M  V30 14449 H 1354.13 -3.69191 1.17375 0
M  V30 14450 H 1354.55 -4.02568 3.36213 0
M  V30 14451 H 1356.02 -5.12455 2.05169 0
M  V30 14452 H 1356.5 -4.35892 0.538073 0
M  V30 14453 H 1357.1 -3.71008 2.07926 0
M  V30 14454 N 1355.42 -1.03311 -1.19015 0
M  V30 14455 C 1356.67 -0.730593 -1.88432 0
M  V30 14456 C 1356.99 0.743392 -1.80274 0
M  V30 14457 O 1356.26 1.5359 -1.21601 0
M  V30 14458 H 1354.84 -0.267253 -0.697556 0
M  V30 14459 H 1357.5 -1.30824 -1.44468 0
M  V30 14460 H 1356.59 -1.02867 -2.9466 0
M  V30 14461 N 1356.9 1.35099 -0.81154 0
M  V30 14462 C 1357.84 2.31618 -0.213536 0
M  V30 14463 C 1358.84 1.56868 0.63944 0
M  V30 14464 O 1360.04 1.71957 0.532051 0
M  V30 14465 H 1356.42 0.750316 -0.0502963 0
M  V30 14466 H 1358.39 2.79593 -1.04262 0
M  V30 14467 C 1357.14 3.4214 0.619293 0
M  V30 14468 H 1356.46 3.9979 -0.0277192 0
M  V30 14469 H 1357.9 4.11941 1.00401 0
M  V30 14470 C 1356.36 2.85607 1.7869 0
M  V30 14471 O 1356.89 2.7956 2.8846 0
M  V30 14472 N 1355.1 2.42587 1.6 0
M  V30 14473 H 1354.64 2.47705 0.707105 0
M  V30 14474 H 1354.6 2.0511 2.38279 0
M  V30 14475 N 1358.37 0.56548 1.47106 0
M  V30 14476 C 1359.6 0.0476763 2.07345 0
M  V30 14477 C 1360.02 -1.24032 1.41413 0
M  V30 14478 O 1359.38 -1.74498 0.491941 0
M  V30 14479 C 1359.43 -0.122618 3.60391 0
M  V30 14480 O 1358.53 -1.18326 3.9506 0
M  V30 14481 H 1357.87 0.0550419 0.661715 0
M  V30 14482 H 1360.4 0.78352 1.89003 0
M  V30 14483 H 1360.41 -0.334227 4.06629 0
M  V30 14484 H 1359.09 0.81807 4.07775 0
M  V30 14485 H 1357.67 -0.951481 3.60557 0
M  V30 14486 N 1359.85 -1.54672 0.302354 0
M  V30 14487 C 1361.26 -1.85731 -0.190019 0
M  V30 14488 C 1361.61 -1.22427 -1.53317 0
M  V30 14489 O 1360.74 -0.522461 -2.09998 0
M  V30 14490 C 1361.33 -3.36971 -0.351562 0
M  V30 14491 C 1359.89 -3.68056 -0.788155 0
M  V30 14492 C 1359.04 -2.7711 0.102705 0
M  V30 14493 H 1361.99 -1.49823 0.523324 0
M  V30 14494 H 1362.01 -3.61547 -1.18592 0
M  V30 14495 H 1361.52 -3.83016 0.626152 0
M  V30 14496 H 1359.63 -3.2753 -1.77637 0
M  V30 14497 H 1359.74 -4.75244 -0.606604 0
M  V30 14498 H 1358.1 -2.51243 -0.418235 0
M  V30 14499 H 1358.89 -3.25975 1.0768 0
M  V30 14500 N 1361.33 -0.0301034 -1.57571 0
M  V30 14501 C 1362.24 0.967086 -2.1374 0
M  V30 14502 C 1363.26 1.35636 -1.0899 0
M  V30 14503 O 1364.43 1.43758 -1.41052 0
M  V30 14504 C 1361.5 2.23058 -2.65417 0
M  V30 14505 C 1360.56 1.90163 -3.84885 0
M  V30 14506 C 1359.79 3.10488 -4.34088 0
M  V30 14507 O 1360.01 4.23179 -3.8246 0
M  V30 14508 O 1358.95 2.92729 -5.25921 0
M  V30 14509 H 1362.77 0.519486 -2.99224 0
M  V30 14510 H 1360.36 0.190559 -1.4818 0
M  V30 14511 H 1362.24 2.97229 -2.98719 0
M  V30 14512 H 1360.92 2.66997 -1.83015 0
M  V30 14513 H 1359.82 1.13373 -3.56507 0
M  V30 14514 H 1361.16 1.51039 -4.68453 0
M  V30 14515 N 1362.81 1.55714 0.243056 0
M  V30 14516 C 1363.76 1.87031 1.30397 0
M  V30 14517 C 1364.74 0.731497 1.43311 0
M  V30 14518 O 1365.93 0.9935 1.46487 0
M  V30 14519 C 1363.06 2.17185 2.65868 0
M  V30 14520 C 1362.15 3.37403 2.56944 0
M  V30 14521 N 1362.54 4.56575 2.17653 0
M  V30 14522 C 1360.84 3.4059 2.87949 0
M  V30 14523 C 1361.54 5.38715 2.19455 0
M  V30 14524 N 1360.52 4.77875 2.59108 0
M  V30 14525 H 1364.32 2.76697 0.990755 0
M  V30 14526 H 1361.83 1.55992 0.451675 0
M  V30 14527 H 1363.83 2.37787 3.42437 0
M  V30 14528 H 1362.49 1.28819 2.98053 0
M  V30 14529 H 1363.5 4.82129 1.89134 0
M  V30 14530 H 1360.18 2.62506 3.24648 0
M  V30 14531 H 1361.57 6.44066 1.91385 0
M  V30 14532 N 1364.29 -0.50888 1.49158 0
M  V30 14533 C 1365.51 -1.29245 1.62205 0
M  V30 14534 C 1365.94 -1.85845 0.29041 0
M  V30 14535 O 1365.29 -1.6547 -0.740906 0
M  V30 14536 C 1365.34 -2.40415 2.68762 0
M  V30 14537 O 1364.45 -3.44048 2.27387 0
M  V30 14538 H 1363.79 -0.381898 0.543185 0
M  V30 14539 H 1366.32 -0.610076 1.95293 0
M  V30 14540 H 1366.33 -2.86295 2.90688 0
M  V30 14541 H 1365 -1.98584 3.65427 0
M  V30 14542 H 1363.58 -3.04141 2.1576 0
M  V30 14543 N 1365.76 -1.381 -0.759346 0
M  V30 14544 C 1366.69 -1.37578 -1.88665 0
M  V30 14545 C 1367.68 -0.242529 -1.68362 0
M  V30 14546 O 1368.86 -0.444751 -1.89039 0
M  V30 14547 C 1365.99 -1.19437 -3.26117 0
M  V30 14548 C 1364.94 -2.29905 -3.61009 0
M  V30 14549 C 1364.27 -1.96874 -4.97136 0
M  V30 14550 C 1365.57 -3.72143 -3.66479 0
M  V30 14551 H 1367.26 -2.31912 -1.89359 0
M  V30 14552 H 1364.81 -1.11632 -0.909631 0
M  V30 14553 H 1366.76 -1.17698 -4.0463 0
M  V30 14554 H 1365.49 -0.21562 -3.25887 0
M  V30 14555 H 1364.15 -2.3082 -2.84812 0
M  V30 14556 H 1363.79 -0.974979 -4.9346 0
M  V30 14557 H 1363.49 -2.70855 -5.21451 0
M  V30 14558 H 1365.02 -1.96744 -5.78035 0
M  V30 14559 H 1366.43 -3.73291 -4.35117 0
M  V30 14560 H 1364.83 -4.45282 -4.02299 0
M  V30 14561 H 1365.9 -4.04874 -2.66843 0
M  V30 14562 N 1367.24 0.986894 -1.22875 0
M  V30 14563 C 1368.49 1.72729 -1.05693 0
M  V30 14564 C 1368.82 1.90191 0.407121 0
M  V30 14565 O 1368.07 1.44667 1.31796 0
M  V30 14566 C 1368.37 3.13283 -1.72012 0
M  V30 14567 C 1368.04 3.15719 -3.2192 0
M  V30 14568 C 1366.7 3.1609 -3.62823 0
M  V30 14569 C 1369.05 3.11539 -4.17843 0
M  V30 14570 C 1366.38 3.09991 -4.98119 0
M  V30 14571 C 1368.73 3.06982 -5.53123 0
M  V30 14572 C 1367.4 3.05672 -5.93397 0
M  V30 14573 H 1366.67 0.63206 -0.386758 0
M  V30 14574 H 1369.31 1.15538 -1.52719 0
M  V30 14575 H 1367.62 3.7382 -1.17327 0
M  V30 14576 H 1369.31 3.69326 -1.56203 0
M  V30 14577 H 1365.9 3.16183 -2.89355 0
M  V30 14578 H 1370.09 3.10397 -3.87256 0
M  V30 14579 H 1365.34 3.07326 -5.28546 0
M  V30 14580 H 1369.52 3.02705 -6.27171 0
M  V30 14581 H 1367.15 3.00701 -6.982 0
M  V30 14582 N 1368.72 1.0394 1.18466 0
M  V30 14583 C 1370 0.65632 1.8426 0
M  V30 14584 C 1370.38 -0.864288 1.92596 0
M  V30 14585 O 1369.73 -1.76524 1.45092 0
M  V30 14586 C 1369.94 1.33067 3.22636 0
M  V30 14587 C 1371.28 1.46065 3.98686 0
M  V30 14588 O 1372.31 1.28867 3.32072 0
M  V30 14589 O 1371.17 1.74078 5.18034 0
M  V30 14590 H 1368.26 0.229484 0.794523 0
M  V30 14591 H 1370.81 1.13821 1.25868 0
M  V30 14592 H 1369.58 2.36866 3.11465 0
M  V30 14593 H 1369.2 0.837313 3.88683 0
M  V30 14594 N 1370.2 -1.34667 0.818693 0
M  V30 14595 C 1371.15 -2.29595 0.235551 0
M  V30 14596 C 1372.12 -1.53389 -0.63727 0
M  V30 14597 O 1373.3 -1.81777 -0.579804 0
M  V30 14598 C 1370.44 -3.39843 -0.600043 0
M  V30 14599 C 1369.55 -4.30995 0.294553 0
M  V30 14600 C 1368.69 -5.28343 -0.550203 0
M  V30 14601 C 1367.73 -6.11132 0.344043 0
M  V30 14602 N 1366.86 -7.00582 -0.461392 0
M  V30 14603 H 1371.7 -2.78872 1.05044 0
M  V30 14604 H 1369.24 -1.37239 0.529517 0
M  V30 14605 H 1371.2 -4.02443 -1.09978 0
M  V30 14606 H 1369.83 -2.91811 -1.38008 0
M  V30 14607 H 1368.88 -3.69294 0.912483 0
M  V30 14608 H 1370.19 -4.89031 0.982341 0
M  V30 14609 H 1369.35 -5.96374 -1.11459 0
M  V30 14610 H 1368.09 -4.70833 -1.27151 0
M  V30 14611 H 1367.09 -5.42038 0.920608 0
M  V30 14612 H 1368.32 -6.70722 1.0634 0
M  V30 14613 H 1366.26 -6.45546 -1.16645 0
M  V30 14614 H 1366.18 -7.55813 0.168095 0
M  V30 14615 H 1367.45 -7.72946 -1.00867 0
M  V30 14616 N 1371.68 -0.573274 -1.46804 0
M  V30 14617 C 1372.59 0.168081 -2.33997 0
M  V30 14618 C 1373.6 0.895652 -1.49178 0
M  V30 14619 O 1374.78 0.860951 -1.8207 0
M  V30 14620 C 1371.84 1.17483 -3.26188 0
M  V30 14621 C 1370.9 0.452956 -4.26904 0
M  V30 14622 C 1370.14 1.41175 -5.1469 0
M  V30 14623 O 1370.36 2.64767 -5.05227 0
M  V30 14624 O 1369.29 0.927472 -5.94711 0
M  V30 14625 H 1373.12 -0.547576 -2.98723 0
M  V30 14626 H 1370.71 -0.333747 -1.45624 0
M  V30 14627 H 1372.59 1.75557 -3.8309 0
M  V30 14628 H 1371.26 1.87213 -2.6407 0
M  V30 14629 H 1370.17 -0.169383 -3.73716 0
M  V30 14630 H 1371.5 -0.203186 -4.9178 0
M  V30 14631 N 1373.15 1.5451 -0.310553 0
M  V30 14632 C 1374.1 2.25332 0.576928 0
M  V30 14633 C 1375.1 1.26272 1.12924 0
M  V30 14634 O 1376.3 1.44092 1.07878 0
M  V30 14635 H 1372.68 0.723611 0.204674 0
M  V30 14636 H 1374.65 2.98369 -0.0428167 0
M  V30 14637 C 1373.4 3.01455 1.73263 0
M  V30 14638 H 1372.72 3.7749 1.31688 0
M  V30 14639 H 1374.16 3.54276 2.32947 0
M  V30 14640 C 1372.62 2.08984 2.64248 0
M  V30 14641 O 1373.15 1.66414 3.65608 0
M  V30 14642 N 1371.36 1.74742 2.32193 0
M  V30 14643 H 1370.9 2.09558 1.49811 0
M  V30 14644 H 1370.86 1.13148 2.93334 0
M  V30 14645 N 1374.63 0.0384594 1.57553 0
M  V30 14646 C 1376.05 -0.318006 1.564 0
M  V30 14647 C 1376.25 -1.72287 1.04496 0
M  V30 14648 O 1375.31 -2.42722 0.695861 0
M  V30 14649 C 1376.62 -0.158079 3.00284 0
M  V30 14650 C 1378.17 -0.230143 3.12153 0
M  V30 14651 C 1378.64 -0.0988948 4.57893 0
M  V30 14652 N 1380.13 -0.15558 4.62939 0
M  V30 14653 C 1380.87 -0.077948 5.73347 0
M  V30 14654 N 1380.36 0.0513054 6.92781 0
M  V30 14655 N 1382.16 -0.132612 5.61944 0
M  V30 14656 H 1374.31 0.957014 1.89618 0
M  V30 14657 H 1376.57 0.370396 0.872646 0
M  V30 14658 H 1376.28 0.810032 3.42245 0
M  V30 14659 H 1376.15 -0.924413 3.65697 0
M  V30 14660 H 1378.54 -1.18872 2.70099 0
M  V30 14661 H 1378.62 0.56673 2.49443 0
M  V30 14662 H 1378.26 0.856301 5.00629 0
M  V30 14663 H 1378.19 -0.91475 5.18594 0
M  V30 14664 H 1380.68 -0.255245 3.77037 0
M  V30 14665 H 1381 0.103595 7.72731 0
M  V30 14666 H 1379.34 0.0862166 6.94947 0
M  V30 14667 H 1382.53 -0.232056 4.67524 0
M  V30 14668 H 1382.71 -0.0686506 6.47964 0
M  V30 14669 N 1376.11 -1.55841 -0.234795 0
M  V30 14670 C 1377.06 -1.92165 -1.31055 0
M  V30 14671 C 1378.05 -0.802106 -1.49207 0
M  V30 14672 O 1379.26 -0.986832 -1.50538 0
M  V30 14673 H 1375.63 -0.610487 -0.439101 0
M  V30 14674 H 1377.61 -2.81955 -0.976926 0
M  V30 14675 C 1376.35 -2.24329 -2.65654 0
M  V30 14676 H 1375.68 -3.09982 -2.5249 0
M  V30 14677 H 1377.12 -2.53639 -3.3977 0
M  V30 14678 C 1375.58 -1.0638 -3.19664 0
M  V30 14679 O 1376.11 -0.318047 -4.00439 0
M  V30 14680 N 1374.31 -0.851167 -2.77855 0
M  V30 14681 H 1373.86 -1.45932 -2.12277 0
M  V30 14682 H 1373.82 -0.0636875 -3.14335 0
M  V30 14683 N 1377.59 0.500963 -1.49426 0
M  V30 14684 C 1378.54 1.6025 -1.66098 0
M  V30 14685 C 1379.51 1.58318 -0.502453 0
M  V30 14686 O 1380.69 1.76304 -0.729482 0
M  V30 14687 C 1377.83 2.98396 -1.73361 0
M  V30 14688 C 1376.94 3.10343 -3.00518 0
M  V30 14689 C 1376.08 4.39222 -2.9876 0
M  V30 14690 C 1375.12 4.44803 -4.20496 0
M  V30 14691 N 1374.26 5.6511 -4.16648 0
M  V30 14692 H 1379.1 1.45342 -2.60153 0
M  V30 14693 H 1376.63 0.707147 -1.28988 0
M  V30 14694 H 1378.59 3.78467 -1.75553 0
M  V30 14695 H 1377.22 3.12007 -0.827718 0
M  V30 14696 H 1376.27 2.23336 -3.07937 0
M  V30 14697 H 1377.58 3.10327 -3.90511 0
M  V30 14698 H 1376.74 5.27613 -2.99515 0
M  V30 14699 H 1375.48 4.41804 -2.06545 0
M  V30 14700 H 1374.48 3.54814 -4.19985 0
M  V30 14701 H 1375.71 4.43937 -5.13903 0
M  V30 14702 H 1373.65 5.68533 -3.2727 0
M  V30 14703 H 1373.57 5.6671 -5.00376 0
M  V30 14704 H 1374.84 6.55708 -4.21506 0
M  V30 14705 N 1379.07 1.38501 0.752011 0
M  V30 14706 C 1380.31 1.34995 1.51341 0
M  V30 14707 C 1380.65 -0.0594724 1.94109 0
M  V30 14708 O 1379.92 -1.02098 1.65548 0
M  V30 14709 C 1380.2 2.30705 2.76491 0
M  V30 14710 C 1380.06 3.80515 2.39851 0
M  V30 14711 C 1381.38 2.24521 3.78521 0
M  V30 14712 H 1378.5 0.491687 0.549011 0
M  V30 14713 H 1381.14 1.69361 0.861205 0
M  V30 14714 H 1379.29 2.01529 3.32142 0
M  V30 14715 H 1380.96 4.20371 1.89962 0
M  V30 14716 H 1379.2 3.98119 1.7229 0
M  V30 14717 H 1379.87 4.42946 3.29397 0
M  V30 14718 H 1382.35 2.50282 3.32413 0
M  V30 14719 H 1381.23 2.93598 4.63779 0
M  V30 14720 H 1381.49 1.24457 4.2422 0
M  V30 14721 N 1380.55 -0.980364 1.23396 0
M  V30 14722 C 1381.79 -1.73674 1.07781 0
M  V30 14723 C 1382.15 -1.88227 -0.378759 0
M  V30 14724 O 1383.35 -2.6067 -0.656092 0
M  V30 14725 C 1381.62 -3.09727 1.78337 0
M  V30 14726 S 1383.18 -4.00944 1.78295 0
M  V30 14727 H 1380 -0.597273 0.385728 0
M  V30 14728 H 1382.6 -1.17123 1.56533 0
M  V30 14729 H 1381.3 -2.96786 2.83455 0
M  V30 14730 H 1380.84 -3.71346 1.29868 0
M  V30 14731 H 1382.85 -4.89011 0.841572 0
M  V30 14732 N 1382.02 -1.04567 -1.17913 0
M  V30 14733 C 1382.93 -0.651674 -2.25367 0
M  V30 14734 C 1383.95 0.32437 -1.7095 0
M  V30 14735 O 1385.13 0.178039 -2.00612 0
M  V30 14736 C 1382.19 -0.0259452 -3.4669 0
M  V30 14737 C 1381.25 -1.05163 -4.1622 0
M  V30 14738 C 1380.48 -0.45567 -5.31751 0
M  V30 14739 O 1380.71 0.736698 -5.65623 0
M  V30 14740 O 1379.64 -1.18684 -5.90083 0
M  V30 14741 H 1383.47 -1.54704 -2.61344 0
M  V30 14742 H 1381.05 -0.816852 -1.25092 0
M  V30 14743 H 1382.93 0.322126 -4.20167 0
M  V30 14744 H 1381.61 0.843165 -3.12526 0
M  V30 14745 H 1380.52 -1.45159 -3.44789 0
M  V30 14746 H 1381.85 -1.89168 -4.54397 0
M  V30 14747 N 1383.5 1.34231 -0.825823 0
M  V30 14748 C 1384.73 2.02417 -0.428348 0
M  V30 14749 C 1385.14 1.62181 0.966573 0
M  V30 14750 O 1384.5 0.828691 1.62601 0
M  V30 14751 C 1384.55 3.57678 -0.524271 0
M  V30 14752 O 1384.27 3.96458 -1.86422 0
M  V30 14753 C 1385.77 4.43132 -0.122069 0
M  V30 14754 H 1382.99 0.648699 -0.171554 0
M  V30 14755 H 1385.54 1.71443 -1.11478 0
M  V30 14756 H 1383.69 3.87232 0.114112 0
M  V30 14757 H 1384.11 4.91147 -1.84051 0
M  V30 14758 H 1385.58 5.51477 -0.240264 0
M  V30 14759 H 1386.06 4.29139 0.934705 0
M  V30 14760 H 1386.66 4.18912 -0.734366 0
M  V30 14761 N 1384.98 0.581051 1.46498 0
M  V30 14762 C 1386.23 0.0660934 2.02692 0
M  V30 14763 C 1386.56 -1.28985 1.45178 0
M  V30 14764 O 1385.83 -1.84479 0.616247 0
M  V30 14765 C 1386.12 -0.00145411 3.601 0
M  V30 14766 C 1385.97 1.38327 4.28002 0
M  V30 14767 C 1387.29 -0.702914 4.3445 0
M  V30 14768 H 1384.41 0.0254923 0.736559 0
M  V30 14769 H 1387.05 0.74793 1.7466 0
M  V30 14770 H 1385.2 -0.582118 3.84114 0
M  V30 14771 H 1386.87 2.00897 4.15257 0
M  V30 14772 H 1385.11 1.95144 3.87429 0
M  V30 14773 H 1385.79 1.28849 5.36751 0
M  V30 14774 H 1388.26 -0.209641 4.15572 0
M  V30 14775 H 1387.14 -0.719202 5.44168 0
M  V30 14776 H 1387.4 -1.76389 4.05388 0
M  V30 14777 N 1386.46 -1.54343 0.318742 0
M  V30 14778 C 1387.69 -2.04894 -0.287378 0
M  V30 14779 C 1388.1 -1.19514 -1.46157 0
M  V30 14780 O 1387.46 -0.224722 -1.81111 0
M  V30 14781 C 1387.51 -3.54124 -0.726505 0
M  V30 14782 O 1387.23 -4.36261 0.400968 0
M  V30 14783 C 1388.73 -4.20748 -1.39594 0
M  V30 14784 H 1385.95 -0.668323 -0.0598724 0
M  V30 14785 H 1388.49 -1.99177 0.463531 0
M  V30 14786 H 1386.65 -3.60145 -1.4274 0
M  V30 14787 H 1387.06 -5.2447 0.0558714 0
M  V30 14788 H 1388.54 -5.26632 -1.65418 0
M  V30 14789 H 1389.01 -3.71566 -2.3417 0
M  V30 14790 H 1389.62 -4.18852 -0.737749 0
M  V30 14791 N 1387.94 -0.0468143 -1.5753 0
M  V30 14792 C 1388.88 0.929065 -2.11275 0
M  V30 14793 C 1389.85 1.31166 -1.01905 0
M  V30 14794 O 1391.04 1.40189 -1.29428 0
M  V30 14795 C 1388.18 2.20012 -2.65873 0
M  V30 14796 C 1387.29 1.8724 -3.89314 0
M  V30 14797 C 1386.43 3.08772 -4.32242 0
M  V30 14798 C 1385.46 2.719 -5.48395 0
M  V30 14799 N 1384.6 3.86112 -5.86397 0
M  V30 14800 H 1389.44 0.463854 -2.94368 0
M  V30 14801 H 1386.98 0.217338 -1.45486 0
M  V30 14802 H 1388.94 2.94383 -2.95626 0
M  V30 14803 H 1387.57 2.64118 -1.85584 0
M  V30 14804 H 1386.62 1.03037 -3.6618 0
M  V30 14805 H 1387.93 1.56096 -4.73746 0
M  V30 14806 H 1387.08 3.91446 -4.63525 0
M  V30 14807 H 1385.82 3.4309 -3.46613 0
M  V30 14808 H 1384.83 1.87642 -5.16789 0
M  V30 14809 H 1386.05 2.38779 -6.35737 0
M  V30 14810 H 1384 4.2024 -5.03721 0
M  V30 14811 H 1383.92 3.58652 -6.65511 0
M  V30 14812 H 1385.18 4.69438 -6.22293 0
M  V30 14813 N 1389.41 1.55964 0.226527 0
M  V30 14814 C 1390.34 1.95028 1.284 0
M  V30 14815 C 1391.33 0.817833 1.49149 0
M  V30 14816 O 1392.51 1.07975 1.61416 0
M  V30 14817 C 1389.64 2.26266 2.63478 0
M  V30 14818 C 1388.59 3.41954 2.57393 0
M  V30 14819 C 1387.92 3.58786 3.96456 0
M  V30 14820 C 1389.22 4.77069 2.12608 0
M  V30 14821 H 1390.91 2.83608 0.959513 0
M  V30 14822 H 1388.46 1.36451 0.460125 0
M  V30 14823 H 1390.41 2.52186 3.3761 0
M  V30 14824 H 1389.14 1.34533 2.97604 0
M  V30 14825 H 1387.8 3.16076 1.85719 0
M  V30 14826 H 1387.44 2.64437 4.27881 0
M  V30 14827 H 1387.14 4.36595 3.93267 0
M  V30 14828 H 1388.67 3.87048 4.72256 0
M  V30 14829 H 1390.08 5.02226 2.76481 0
M  V30 14830 H 1388.48 5.58126 2.2049 0
M  V30 14831 H 1389.55 4.7276 1.07823 0
M  V30 14832 N 1390.89 -0.493031 1.4969 0
M  V30 14833 C 1391.82 -1.61058 1.63074 0
M  V30 14834 C 1392.84 -1.54504 0.513069 0
M  V30 14835 O 1394.03 -1.60291 0.785431 0
M  V30 14836 C 1391.13 -2.99877 1.57883 0
M  V30 14837 C 1390.3 -3.31531 2.85317 0
M  V30 14838 C 1389.36 -4.49799 2.7307 0
M  V30 14839 O 1388.38 -4.51189 3.47012 0
M  V30 14840 N 1389.59 -5.50182 1.85148 0
M  V30 14841 H 1392.35 -1.5 2.59461 0
M  V30 14842 H 1389.91 -0.681057 1.46878 0
M  V30 14843 H 1391.9 -3.76928 1.47333 0
M  V30 14844 H 1390.47 -3.04817 0.693218 0
M  V30 14845 H 1389.69 -2.433 3.10159 0
M  V30 14846 H 1390.98 -3.49481 3.69784 0
M  V30 14847 H 1390.38 -5.51865 1.24345 0
M  V30 14848 H 1388.94 -6.26305 1.80516 0
M  V30 14849 N 1392.37 -1.38898 -0.744656 0
M  V30 14850 C 1393.3 -1.39571 -1.87195 0
M  V30 14851 C 1394.28 -0.260372 -1.68095 0
M  V30 14852 O 1395.47 -0.464776 -1.88556 0
M  V30 14853 C 1392.6 -1.22889 -3.24832 0
M  V30 14854 C 1391.55 -2.33721 -3.58551 0
M  V30 14855 C 1390.88 -2.02136 -4.9502 0
M  V30 14856 C 1392.18 -3.7601 -3.62511 0
M  V30 14857 H 1393.87 -2.33908 -1.86889 0
M  V30 14858 H 1391.42 -1.12591 -0.897739 0
M  V30 14859 H 1393.37 -1.21983 -4.03359 0
M  V30 14860 H 1392.09 -0.250172 -3.2564 0
M  V30 14861 H 1390.75 -2.33828 -2.82348 0
M  V30 14862 H 1390.4 -1.02726 -4.92399 0
M  V30 14863 H 1390.1 -2.76371 -5.18549 0
M  V30 14864 H 1391.62 -2.02864 -5.75915 0
M  V30 14865 H 1393.04 -3.77885 -4.31133 0
M  V30 14866 H 1391.44 -4.49524 -3.97553 0
M  V30 14867 H 1392.51 -4.07682 -2.62533 0
M  V30 14868 N 1393.85 0.973806 -1.23914 0
M  V30 14869 C 1394.8 2.08861 -1.02372 0
M  V30 14870 C 1395.79 1.69354 0.039415 0
M  V30 14871 O 1397 1.79635 -0.114637 0
M  V30 14872 H 1393.37 0.683313 -0.313986 0
M  V30 14873 H 1395.34 2.24195 -1.96924 0
M  V30 14874 C 1394.09 3.41784 -0.638661 0
M  V30 14875 H 1393.41 3.72639 -1.44846 0
M  V30 14876 H 1394.85 4.20706 -0.527487 0
M  V30 14877 C 1393.31 3.30497 0.65369 0
M  V30 14878 O 1393.84 3.63905 1.70107 0
M  V30 14879 N 1392.05 2.83642 0.632104 0
M  V30 14880 H 1391.6 2.56654 -0.220571 0
M  V30 14881 H 1391.55 2.76472 1.49701 0
M  V30 14882 N 1395.33 1.05191 1.17357 0
M  V30 14883 C 1396.57 0.760479 1.87246 0
M  V30 14884 C 1396.9 -0.714618 1.81434 0
M  V30 14885 O 1396.17 -1.51636 1.24029 0
M  V30 14886 H 1394.75 0.278317 0.693216 0
M  V30 14887 H 1397.41 1.33106 1.42369 0
M  V30 14888 H 1396.5 1.07542 2.92987 0
M  V30 14889 N 1396.8 -1.33791 0.83293 0
M  V30 14890 C 1397.73 -2.31853 0.276846 0
M  V30 14891 C 1398.72 -1.58702 -0.612184 0
M  V30 14892 O 1399.9 -1.86629 -0.536975 0
M  V30 14893 C 1397.03 -3.42855 -0.55385 0
M  V30 14894 C 1395.98 -4.27333 0.238884 0
M  V30 14895 C 1395.31 -5.29895 -0.715187 0
M  V30 14896 C 1396.61 -5.01692 1.45265 0
M  V30 14897 H 1398.3 -2.78611 1.09618 0
M  V30 14898 H 1395.85 -1.33949 0.528562 0
M  V30 14899 H 1397.8 -4.10479 -0.953133 0
M  V30 14900 H 1396.53 -2.94771 -1.40634 0
M  V30 14901 H 1395.19 -3.61325 0.619656 0
M  V30 14902 H 1394.83 -4.7807 -1.56391 0
M  V30 14903 H 1394.53 -5.87296 -0.188921 0
M  V30 14904 H 1396.06 -6.00387 -1.11211 0
M  V30 14905 H 1397.47 -5.62117 1.12685 0
M  V30 14906 H 1395.87 -5.68715 1.91528 0
M  V30 14907 H 1396.94 -4.30809 2.22558 0
M  V30 14908 N 1398.28 -0.588812 -1.46187 0
M  V30 14909 C 1399.53 -0.0768417 -2.02654 0
M  V30 14910 C 1399.86 1.28213 -1.4586 0
M  V30 14911 O 1399.14 1.8415 -0.626022 0
M  V30 14912 C 1399.42 -0.0176429 -3.60096 0
M  V30 14913 C 1399.27 -1.40595 -4.27262 0
M  V30 14914 C 1400.59 0.679864 -4.34817 0
M  V30 14915 H 1397.71 -0.0293981 -0.736413 0
M  V30 14916 H 1400.35 -0.757183 -1.74261 0
M  V30 14917 H 1398.5 0.56174 -3.84417 0
M  V30 14918 H 1400.17 -2.03097 -4.14185 0
M  V30 14919 H 1398.42 -1.97196 -3.86388 0
M  V30 14920 H 1399.09 -1.31694 -5.3606 0
M  V30 14921 H 1401.56 0.1876 -4.15677 0
M  V30 14922 H 1400.44 0.690333 -5.44542 0
M  V30 14923 H 1400.7 1.74237 -4.06318 0
M  V30 14924 N 1399.76 1.54172 -0.326923 0
M  V30 14925 C 1400.69 2.20703 0.580137 0
M  V30 14926 C 1401.67 1.18523 1.11315 0
M  V30 14927 O 1402.86 1.47276 1.17652 0
M  V30 14928 C 1399.98 2.87137 1.79638 0
M  V30 14929 C 1399.03 4.03064 1.39432 0
M  V30 14930 S 1399.86 5.33785 0.428179 0
M  V30 14931 C 1401.02 6.03715 1.65163 0
M  V30 14932 H 1401.25 2.97296 0.0149964 0
M  V30 14933 H 1398.78 1.54 -0.111004 0
M  V30 14934 H 1400.74 3.26035 2.49423 0
M  V30 14935 H 1399.4 2.1034 2.33272 0
M  V30 14936 H 1398.6 4.48424 2.3007 0
M  V30 14937 H 1398.2 3.65858 0.776144 0
M  V30 14938 H 1400.49 6.26098 2.58858 0
M  V30 14939 H 1401.43 6.97156 1.24014 0
M  V30 14940 H 1401.84 5.33666 1.84014 0
M  V30 14941 N 1401.24 0.0551678 1.57503 0
M  V30 14942 C 1402.65 -0.479948 1.80426 0
M  V30 14943 C 1403 -1.70673 0.967733 0
M  V30 14944 O 1402.13 -2.15604 0.185462 0
M  V30 14945 C 1402.72 -0.877496 3.27239 0
M  V30 14946 C 1401.28 -1.35757 3.51066 0
M  V30 14947 C 1400.43 -0.334681 2.75273 0
M  V30 14948 H 1403.38 0.281016 1.56192 0
M  V30 14949 H 1403.4 -1.74013 3.38378 0
M  V30 14950 H 1402.91 0.015571 3.88097 0
M  V30 14951 H 1401.01 -2.26969 2.95492 0
M  V30 14952 H 1401.12 -1.34697 4.59776 0
M  V30 14953 H 1399.49 -0.808421 2.4153 0
M  V30 14954 H 1400.27 0.550369 3.3886 0
M  V30 14955 N 1402.72 -1.56081 -0.218252 0
M  V30 14956 C 1403.96 -1.78893 -0.940296 0
M  V30 14957 C 1404.29 -0.62425 -1.84738 0
M  V30 14958 O 1403.56 0.358686 -1.92588 0
M  V30 14959 H 1402.14 -0.659828 -0.350193 0
M  V30 14960 H 1404.8 -1.93546 -0.229316 0
M  V30 14961 H 1403.89 -2.71167 -1.54516 0
M  V30 14962 N 1404.2 0.485086 -1.49949 0
M  V30 14963 C 1405.42 1.26648 -1.64241 0
M  V30 14964 C 1405.85 1.85359 -0.319939 0
M  V30 14965 O 1405.2 1.66628 0.714487 0
M  V30 14966 C 1405.25 2.36109 -2.72552 0
M  V30 14967 O 1404.36 3.40387 -2.32832 0
M  V30 14968 H 1403.7 0.373208 -0.549192 0
M  V30 14969 H 1406.23 0.578929 -1.96239 0
M  V30 14970 H 1406.24 2.81634 -2.95205 0
M  V30 14971 H 1404.91 1.92745 -3.6854 0
M  V30 14972 H 1403.49 3.0067 -2.20571 0
M  V30 14973 N 1405.67 1.39291 0.737279 0
M  V30 14974 C 1406.62 1.37969 1.87263 0
M  V30 14975 C 1407.62 0.263156 1.67344 0
M  V30 14976 O 1408.82 0.433069 1.74713 0
M  V30 14977 H 1405.2 0.430782 0.616385 0
M  V30 14978 H 1407.17 2.33741 1.85494 0
M  V30 14979 C 1405.92 1.23779 3.24922 0
M  V30 14980 H 1405.24 2.08963 3.40844 0
M  V30 14981 H 1406.68 1.26911 4.04561 0
M  V30 14982 C 1405.14 -0.0539778 3.36857 0
M  V30 14983 O 1405.67 -1.02501 3.88402 0
M  V30 14984 N 1403.87 -0.116275 2.90367 0
M  V30 14985 H 1403.42 0.674622 2.48609 0
M  V30 14986 H 1403.38 -0.980107 2.98733 0
M  V30 14987 N 1407.15 -0.967221 1.24429 0
M  V30 14988 C 1408.4 -1.70458 1.07829 0
M  V30 14989 C 1408.71 -1.91818 -0.38278 0
M  V30 14990 O 1409.92 -2.63129 -0.668982 0
M  V30 14991 C 1408.38 -3.06817 1.88125 0
M  V30 14992 C 1407.98 -2.93298 3.38645 0
M  V30 14993 C 1409.73 -3.84422 1.80056 0
M  V30 14994 C 1407.63 -4.2497 4.11284 0
M  V30 14995 H 1406.56 -0.639217 0.399897 0
M  V30 14996 H 1409.22 -1.07776 1.48515 0
M  V30 14997 H 1407.6 -3.70331 1.40254 0
M  V30 14998 H 1408.77 -2.38793 3.94099 0
M  V30 14999 H 1407.09 -2.29159 3.47671 0
M  V30 15000 H 1409.68 -4.81925 2.31629 0
M  V30 15001 H 1410.03 -4.09194 0.765908 0
M  V30 15002 H 1410.56 -3.27636 2.2561 0
M  V30 15003 H 1407.3 -4.05391 5.1511 0
M  V30 15004 H 1406.82 -4.79288 3.60615 0
M  V30 15005 H 1408.5 -4.93586 4.18308 0
M  V30 15006 N 1408.63 -1.05812 -1.16797 0
M  V30 15007 C 1409.86 -0.792519 -1.9112 0
M  V30 15008 C 1410.27 0.652549 -1.77164 0
M  V30 15009 O 1409.63 1.44633 -1.113 0
M  V30 15010 C 1409.68 -1.17172 -3.41984 0
M  V30 15011 O 1409.4 -2.56008 -3.55516 0
M  V30 15012 C 1410.9 -0.933162 -4.33367 0
M  V30 15013 H 1408.12 -0.28768 -0.606202 0
M  V30 15014 H 1410.67 -1.41046 -1.48075 0
M  V30 15015 H 1408.82 -0.598413 -3.8275 0
M  V30 15016 H 1409.24 -2.71053 -4.49033 0
M  V30 15017 H 1410.71 -1.24817 -5.37703 0
M  V30 15018 H 1411.19 0.131345 -4.39004 0
M  V30 15019 H 1411.79 -1.49062 -3.98322 0
M  V30 15020 N 1410.11 1.33347 -0.840014 0
M  V30 15021 C 1411.36 1.97007 -0.432581 0
M  V30 15022 C 1411.67 1.67278 1.01378 0
M  V30 15023 O 1412.88 2.2456 1.52595 0
M  V30 15024 C 1411.33 3.52572 -0.72258 0
M  V30 15025 C 1410.94 3.91176 -2.1837 0
M  V30 15026 C 1412.68 4.22776 -0.382153 0
M  V30 15027 C 1410.59 5.39724 -2.41768 0
M  V30 15028 H 1409.52 0.737255 -0.158024 0
M  V30 15029 H 1412.17 1.5195 -1.02876 0
M  V30 15030 H 1410.55 3.9596 -0.0560179 0
M  V30 15031 H 1411.73 3.58842 -2.89083 0
M  V30 15032 H 1410.04 3.33956 -2.48721 0
M  V30 15033 H 1412.64 5.32021 -0.534588 0
M  V30 15034 H 1412.98 4.10792 0.674967 0
M  V30 15035 H 1413.52 3.84922 -1.004 0
M  V30 15036 H 1410.25 5.56713 -3.4605 0
M  V30 15037 H 1409.77 5.73514 -1.75617 0
M  V30 15038 H 1411.45 6.06624 -2.2498 0
M  V30 15039 N 1411.59 0.596556 1.45873 0
M  V30 15040 C 1412.81 0.0934926 2.06689 0
M  V30 15041 C 1413.23 -1.21743 1.44305 0
M  V30 15042 O 1412.59 -1.73912 0.553253 0
M  V30 15043 C 1412.64 -0.0643337 3.61443 0
M  V30 15044 O 1412.36 1.19472 4.21495 0
M  V30 15045 C 1413.86 -0.600141 4.39219 0
M  V30 15046 H 1411.08 0.0637846 0.667961 0
M  V30 15047 H 1413.62 0.821159 1.87289 0
M  V30 15048 H 1411.78 -0.742278 3.80222 0
M  V30 15049 H 1412.19 1.01735 5.14539 0
M  V30 15050 H 1413.67 -0.6597 5.48044 0
M  V30 15051 H 1414.14 -1.62009 4.08227 0
M  V30 15052 H 1414.75 0.0433915 4.25278 0
M  V30 15053 N 1413.06 -1.53996 0.335095 0
M  V30 15054 C 1413.97 -2.28436 -0.534244 0
M  V30 15055 C 1414.99 -1.33224 -1.11926 0
M  V30 15056 O 1416.17 -1.66252 -1.13676 0
M  V30 15057 C 1413.23 -3.03634 -1.67354 0
M  V30 15058 C 1412.29 -4.14455 -1.11916 0
M  V30 15059 C 1411.52 -4.86058 -2.20416 0
M  V30 15060 O 1411.75 -4.57263 -3.40979 0
M  V30 15061 O 1410.68 -5.72704 -1.85185 0
M  V30 15062 H 1414.51 -3.03618 0.0706314 0
M  V30 15063 H 1412.09 -1.49062 0.100409 0
M  V30 15064 H 1413.97 -3.50687 -2.33659 0
M  V30 15065 H 1412.65 -2.31317 -2.26438 0
M  V30 15066 H 1411.56 -3.71725 -0.420871 0
M  V30 15067 H 1412.89 -4.8885 -0.573295 0
M  V30 15068 N 1414.54 -0.0635198 -1.57472 0
M  V30 15069 C 1415.5 0.891881 -2.11135 0
M  V30 15070 C 1416.5 1.23182 -1.03358 0
M  V30 15071 O 1417.69 1.16646 -1.2938 0
M  V30 15072 C 1414.83 2.19792 -2.60584 0
M  V30 15073 H 1416.02 0.426461 -2.96852 0
M  V30 15074 H 1413.57 0.185069 -1.552 0
M  V30 15075 H 1414.31 2.70889 -1.78297 0
M  V30 15076 H 1414.09 1.96419 -3.39355 0
M  V30 15077 H 1415.58 2.88203 -3.02206 0
M  V30 15078 N 1416.02 1.56195 0.209972 0
M  V30 15079 C 1416.98 1.92514 1.24383 0
M  V30 15080 C 1417.98 0.804793 1.39211 0
M  V30 15081 O 1419.17 1.0724 1.37278 0
M  V30 15082 C 1416.3 2.18613 2.61574 0
M  V30 15083 H 1417.5 2.84992 0.933781 0
M  V30 15084 H 1415.05 1.49656 0.450878 0
M  V30 15085 H 1415.79 1.28724 2.97659 0
M  V30 15086 H 1415.57 3.00241 2.52186 0
M  V30 15087 H 1417.06 2.47767 3.36156 0
M  V30 15088 N 1417.5 -0.477127 1.50204 0
M  V30 15089 C 1418.43 -1.58405 1.71552 0
M  V30 15090 C 1419.41 -1.60463 0.564413 0
M  V30 15091 O 1420.59 -1.76826 0.802893 0
M  V30 15092 C 1417.72 -2.96765 1.8041 0
M  V30 15093 C 1416.68 -3.09573 2.95548 0
M  V30 15094 C 1416 -4.49522 2.89542 0
M  V30 15095 C 1417.3 -2.87356 4.36147 0
M  V30 15096 H 1419 -1.40792 2.64231 0
M  V30 15097 H 1416.54 -0.675886 1.27153 0
M  V30 15098 H 1418.5 -3.74125 1.9393 0
M  V30 15099 H 1417.22 -3.1552 0.843489 0
M  V30 15100 H 1415.88 -2.34645 2.81669 0
M  V30 15101 H 1415.53 -4.65186 1.91339 0
M  V30 15102 H 1415.23 -4.59028 3.66834 0
M  V30 15103 H 1416.75 -5.28909 3.05102 0
M  V30 15104 H 1418.17 -3.54469 4.50583 0
M  V30 15105 H 1416.56 -3.08313 5.14843 0
M  V30 15106 H 1417.63 -1.83264 4.48935 0
M  V30 15107 N 1418.98 -1.3968 -0.729882 0
M  V30 15108 C 1419.91 -1.41549 -1.85704 0
M  V30 15109 C 1420.89 -0.278186 -1.6781 0
M  V30 15110 O 1422.07 -0.484749 -1.88053 0
M  V30 15111 C 1419.2 -1.26327 -3.2351 0
M  V30 15112 C 1418.16 -2.37511 -3.56051 0
M  V30 15113 C 1417.48 -2.07375 -4.92849 0
M  V30 15114 C 1418.78 -3.79833 -3.58502 0
M  V30 15115 H 1420.48 -2.35877 -1.84398 0
M  V30 15116 H 1418.02 -1.13536 -0.885747 0
M  V30 15117 H 1419.98 -1.26254 -4.02042 0
M  V30 15118 H 1418.7 -0.284697 -3.25357 0
M  V30 15119 H 1417.36 -2.36809 -2.79852 0
M  V30 15120 H 1417.01 -1.07943 -4.91281 0
M  V30 15121 H 1416.71 -2.81855 -5.15588 0
M  V30 15122 H 1418.23 -2.08961 -5.73731 0
M  V30 15123 H 1419.64 -3.82436 -4.27101 0
M  V30 15124 H 1418.04 -4.53715 -3.92763 0
M  V30 15125 H 1419.11 -4.10443 -2.58195 0
M  V30 15126 N 1420.45 0.960609 -1.2494 0
M  V30 15127 C 1421.68 1.7446 -1.12153 0
M  V30 15128 C 1422.1 1.85335 0.321315 0
M  V30 15129 O 1421.46 1.32944 1.23271 0
M  V30 15130 C 1421.51 3.13945 -1.774 0
M  V30 15131 O 1420.61 3.9882 -1.04958 0
M  V30 15132 H 1419.96 0.536007 -0.391909 0
M  V30 15133 H 1422.49 1.2045 -1.65388 0
M  V30 15134 H 1422.5 3.64434 -1.83444 0
M  V30 15135 H 1421.17 3.05346 -2.82377 0
M  V30 15136 H 1419.75 3.57293 -1.06752 0
M  V30 15137 N 1421.93 1.0643 1.16234 0
M  V30 15138 C 1422.84 0.687446 2.24302 0
M  V30 15139 C 1423.86 -0.297132 1.71444 0
M  V30 15140 O 1425.03 -0.146101 2.00869 0
M  V30 15141 C 1422.1 0.0810973 3.46605 0
M  V30 15142 C 1421.16 1.11772 4.14494 0
M  V30 15143 C 1420.39 0.54021 5.30959 0
M  V30 15144 O 1420.62 -0.646619 5.66723 0
M  V30 15145 O 1419.55 1.28057 5.8812 0
M  V30 15146 H 1423.38 1.58842 2.58849 0
M  V30 15147 H 1420.96 0.836649 1.23776 0
M  V30 15148 H 1422.84 -0.25524 4.20626 0
M  V30 15149 H 1421.52 -0.793338 3.13828 0
M  V30 15150 H 1420.43 1.50626 3.42436 0
M  V30 15151 H 1421.76 1.96373 4.5133 0
M  V30 15152 N 1423.41 -1.329 0.847073 0
M  V30 15153 C 1424.64 -2.01418 0.459829 0
M  V30 15154 C 1425.05 -1.63857 -0.945921 0
M  V30 15155 O 1424.39 -0.851946 -1.6275 0
M  V30 15156 C 1424.45 -3.55859 0.510376 0
M  V30 15157 C 1424.12 -4.16824 1.87368 0
M  V30 15158 C 1425.11 -4.35602 2.83808 0
M  V30 15159 C 1422.8 -4.53067 2.16876 0
M  V30 15160 C 1424.79 -4.89782 4.07912 0
M  V30 15161 C 1422.48 -5.06953 3.41235 0
M  V30 15162 C 1423.48 -5.25258 4.36569 0
M  V30 15163 O 1423.17 -5.77995 5.58728 0
M  V30 15164 H 1422.9 -0.651608 0.179952 0
M  V30 15165 H 1425.45 -1.70624 1.14353 0
M  V30 15166 H 1423.68 -3.86015 -0.230145 0
M  V30 15167 H 1425.37 -4.05659 0.139804 0
M  V30 15168 H 1426.14 -4.07942 2.62313 0
M  V30 15169 H 1422.02 -4.3811 1.43461 0
M  V30 15170 H 1425.56 -5.03985 4.82333 0
M  V30 15171 H 1421.46 -5.34045 3.62583 0
M  V30 15172 H 1422.23 -5.96399 5.60581 0
M  V30 15173 N 1424.89 -0.604284 -1.45555 0
M  V30 15174 C 1426.14 -0.0981861 -2.02262 0
M  V30 15175 C 1426.46 1.27002 -1.47312 0
M  V30 15176 O 1425.72 1.85058 -0.636563 0
M  V30 15177 C 1426.02 -0.00538243 -3.574 0
M  V30 15178 C 1425.68 -1.30881 -4.31487 0
M  V30 15179 C 1424.35 -1.66586 -4.51445 0
M  V30 15180 C 1426.7 -2.17039 -4.7386 0
M  V30 15181 C 1424.03 -2.88207 -5.11032 0
M  V30 15182 C 1426.38 -3.37905 -5.34792 0
M  V30 15183 C 1425.04 -3.73866 -5.52974 0
M  V30 15184 H 1424.31 -0.0359289 -0.740128 0
M  V30 15185 H 1426.96 -0.785241 -1.7466 0
M  V30 15186 H 1425.26 0.764919 -3.84261 0
M  V30 15187 H 1426.96 0.402303 -3.98977 0
M  V30 15188 H 1423.55 -1.0209 -4.16264 0
M  V30 15189 H 1427.73 -1.90754 -4.58177 0
M  V30 15190 H 1422.99 -3.16179 -5.23298 0
M  V30 15191 H 1427.16 -4.0492 -5.6658 0
M  V30 15192 H 1424.79 -4.68194 -5.98914 0
M  V30 15193 N 1426.37 1.53816 -0.343257 0
M  V30 15194 C 1427.3 2.27951 0.506005 0
M  V30 15195 C 1428.28 1.29502 1.10287 0
M  V30 15196 O 1429.46 1.58344 1.12432 0
M  V30 15197 C 1426.59 3.0521 1.65723 0
M  V30 15198 C 1425.55 4.11161 1.18871 0
M  V30 15199 C 1424.87 4.76373 2.42843 0
M  V30 15200 C 1426.17 5.21498 0.289403 0
M  V30 15201 H 1427.87 2.99189 -0.112435 0
M  V30 15202 H 1425.41 1.43893 -0.055516 0
M  V30 15203 H 1427.37 3.55811 2.2578 0
M  V30 15204 H 1426.09 2.31624 2.30256 0
M  V30 15205 H 1424.75 3.61473 0.610962 0
M  V30 15206 H 1424.4 3.99381 3.05784 0
M  V30 15207 H 1424.1 5.47955 2.12177 0
M  V30 15208 H 1425.62 5.29758 3.03627 0
M  V30 15209 H 1427.03 5.67736 0.796808 0
M  V30 15210 H 1425.43 6.00054 0.0746366 0
M  V30 15211 H 1426.5 4.80185 -0.674543 0
M  V30 15212 N 1427.84 0.0718701 1.57436 0
M  V30 15213 C 1428.75 -0.910077 2.16229 0
M  V30 15214 C 1429.77 -1.32699 1.12548 0
M  V30 15215 O 1430.95 -1.39967 1.44814 0
M  V30 15216 C 1428.01 -2.15942 2.71238 0
M  V30 15217 C 1427.07 -1.79891 3.89792 0
M  V30 15218 C 1426.31 -2.9887 4.42168 0
M  V30 15219 O 1426.53 -4.1289 3.93545 0
M  V30 15220 O 1425.46 -2.78682 5.33498 0
M  V30 15221 H 1429.29 -0.439969 3.00496 0
M  V30 15222 H 1426.87 -0.151204 1.48633 0
M  V30 15223 H 1428.76 -2.89204 3.06494 0
M  V30 15224 H 1427.43 -2.62051 1.90029 0
M  V30 15225 H 1426.34 -1.03881 3.59388 0
M  V30 15226 H 1427.67 -1.38566 4.72293 0
M  V30 15227 N 1429.32 -1.56304 -0.201686 0
M  V30 15228 C 1430.27 -1.94021 -1.24999 0
M  V30 15229 C 1431.24 -0.799926 -1.45569 0
M  V30 15230 O 1432.42 -1.05752 -1.58811 0
M  V30 15231 C 1429.56 -2.27935 -2.59113 0
M  V30 15232 C 1428.68 -3.54995 -2.46176 0
M  V30 15233 C 1427.81 -3.78262 -3.72949 0
M  V30 15234 C 1426.85 -4.9877 -3.54817 0
M  V30 15235 N 1425.99 -5.18325 -4.73586 0
M  V30 15236 H 1430.83 -2.834 -0.92134 0
M  V30 15237 H 1428.37 -1.40252 -0.44359 0
M  V30 15238 H 1430.32 -2.45613 -3.37239 0
M  V30 15239 H 1428.95 -1.41705 -2.90034 0
M  V30 15240 H 1428.01 -3.45401 -1.59381 0
M  V30 15241 H 1429.32 -4.43277 -2.28708 0
M  V30 15242 H 1428.47 -3.96144 -4.59516 0
M  V30 15243 H 1427.21 -2.88299 -3.93364 0
M  V30 15244 H 1426.22 -4.80818 -2.66635 0
M  V30 15245 H 1427.44 -5.90237 -3.35854 0
M  V30 15246 H 1425.39 -4.31308 -4.94277 0
M  V30 15247 H 1425.3 -6.00774 -4.58919 0
M  V30 15248 H 1426.57 -5.40659 -5.61523 0
M  V30 15249 N 1430.8 0.469154 -1.50455 0
M  V30 15250 C 1431.75 1.56691 -1.6946 0
M  V30 15251 C 1432.72 1.57217 -0.535921 0
M  V30 15252 O 1433.9 1.74717 -0.766715 0
M  V30 15253 C 1431.04 2.94651 -1.79651 0
M  V30 15254 C 1430.16 3.03899 -3.07033 0
M  V30 15255 C 1429.29 4.32786 -3.08009 0
M  V30 15256 C 1428.33 4.35784 -4.29836 0
M  V30 15257 N 1427.47 5.56145 -4.28541 0
M  V30 15258 H 1432.31 1.39791 -2.63178 0
M  V30 15259 H 1429.84 0.679628 -1.30459 0
M  V30 15260 H 1431.8 3.74658 -1.83541 0
M  V30 15261 H 1430.43 3.10182 -0.893713 0
M  V30 15262 H 1429.48 2.16754 -3.12605 0
M  V30 15263 H 1430.8 3.01974 -3.97005 0
M  V30 15264 H 1429.95 5.21141 -3.10639 0
M  V30 15265 H 1428.69 4.37323 -2.1587 0
M  V30 15266 H 1427.69 3.45825 -4.27417 0
M  V30 15267 H 1428.92 4.32937 -5.23204 0
M  V30 15268 H 1426.86 5.61464 -3.39256 0
M  V30 15269 H 1426.78 5.55969 -5.12284 0
M  V30 15270 H 1428.05 6.4662 -4.35319 0
M  V30 15271 N 1432.28 1.40065 0.722464 0
M  V30 15272 C 1433.53 1.37277 1.47776 0
M  V30 15273 C 1433.84 -0.0242852 1.95585 0
M  V30 15274 O 1435.05 -0.174769 2.70937 0
M  V30 15275 C 1433.5 2.41233 2.67085 0
M  V30 15276 C 1433.11 3.86716 2.26174 0
M  V30 15277 C 1434.85 2.47541 3.44853 0
M  V30 15278 C 1432.76 4.82284 3.42281 0
M  V30 15279 H 1431.69 0.510405 0.55498 0
M  V30 15280 H 1434.34 1.6577 0.786928 0
M  V30 15281 H 1432.72 2.0583 3.38305 0
M  V30 15282 H 1433.9 4.31227 1.6242 0
M  V30 15283 H 1432.21 3.83819 1.61468 0
M  V30 15284 H 1434.81 3.16131 4.31237 0
M  V30 15285 H 1435.15 1.50379 3.8819 0
M  V30 15286 H 1435.69 2.81901 2.80672 0
M  V30 15287 H 1432.43 5.80754 3.03982 0
M  V30 15288 H 1431.95 4.42443 4.04975 0
M  V30 15289 H 1433.62 5.0178 4.08443 0
M  V30 15290 N 1433.76 -0.95397 1.25448 0
M  V30 15291 C 1435.17 -1.51337 1.09335 0
M  V30 15292 C 1435.52 -1.93393 -0.330698 0
M  V30 15293 O 1434.64 -1.78681 -1.22074 0
M  V30 15294 C 1435.24 -2.75024 1.97857 0
M  V30 15295 C 1433.8 -3.27274 1.85927 0
M  V30 15296 C 1432.95 -2.00108 1.91969 0
M  V30 15297 H 1435.9 -0.770795 1.38724 0
M  V30 15298 H 1435.92 -3.48867 1.51894 0
M  V30 15299 H 1435.43 -2.44383 3.01494 0
M  V30 15300 H 1433.53 -3.62734 0.851767 0
M  V30 15301 H 1433.64 -3.95245 2.70773 0
M  V30 15302 H 1432.01 -2.15438 1.35862 0
M  V30 15303 H 1432.79 -1.71816 2.97211 0
M  V30 15304 N 1435.24 -1.07045 -1.15668 0
M  V30 15305 C 1436.46 -0.812746 -1.90268 0
M  V30 15306 C 1436.88 0.633722 -1.77847 0
M  V30 15307 O 1436.24 1.43444 -1.12828 0
M  V30 15308 C 1436.29 -1.20793 -3.40722 0
M  V30 15309 O 1436.01 -2.59764 -3.52781 0
M  V30 15310 C 1437.51 -0.979074 -4.32353 0
M  V30 15311 H 1434.73 -0.294093 -0.603117 0
M  V30 15312 H 1437.27 -1.42609 -1.46571 0
M  V30 15313 H 1435.43 -0.638975 -3.82094 0
M  V30 15314 H 1435.84 -2.75801 -4.46133 0
M  V30 15315 H 1437.32 -1.30513 -5.36349 0
M  V30 15316 H 1437.79 0.0847752 -4.39118 0
M  V30 15317 H 1438.4 -1.53278 -3.96719 0
M  V30 15318 N 1436.71 1.32449 -0.85411 0
M  V30 15319 C 1437.94 2.01997 -0.470307 0
M  V30 15320 C 1438.36 1.63772 0.925225 0
M  V30 15321 O 1437.72 0.838089 1.60766 0
M  V30 15322 C 1437.77 3.55294 -0.616301 0
M  V30 15323 O 1436.87 4.10902 0.351133 0
M  V30 15324 H 1436.21 0.63651 -0.189079 0
M  V30 15325 H 1438.74 1.69008 -1.15315 0
M  V30 15326 H 1438.75 4.0488 -0.503624 0
M  V30 15327 H 1437.43 3.82459 -1.63396 0
M  V30 15328 H 1436.01 3.72391 0.194741 0
M  V30 15329 N 1438.19 0.611994 1.45232 0
M  V30 15330 C 1439.44 0.109073 2.02506 0
M  V30 15331 C 1439.77 -1.25876 1.47881 0
M  V30 15332 O 1439.05 -1.83131 0.65524 0
M  V30 15333 C 1439.33 0.0749288 3.60022 0
M  V30 15334 C 1439.18 1.47374 4.24972 0
M  V30 15335 C 1440.5 -0.610602 4.35844 0
M  V30 15336 H 1437.62 0.0411101 0.735853 0
M  V30 15337 H 1440.26 0.78481 1.73034 0
M  V30 15338 H 1438.41 -0.500511 3.85262 0
M  V30 15339 H 1440.08 2.0966 4.10902 0
M  V30 15340 H 1438.33 2.03319 3.83202 0
M  V30 15341 H 1439 1.40206 5.33897 0
M  V30 15342 H 1441.47 -0.121445 4.15923 0
M  V30 15343 H 1440.35 -0.603614 5.45571 0
M  V30 15344 H 1440.61 -1.6775 4.09038 0
M  V30 15345 N 1439.67 -1.53632 0.351409 0
M  V30 15346 C 1440.92 -2.01338 -0.243047 0
M  V30 15347 C 1441.25 -1.23864 -1.4957 0
M  V30 15348 O 1440.52 -0.328412 -1.91707 0
M  V30 15349 C 1440.81 -3.55886 -0.549284 0
M  V30 15350 C 1440.66 -4.44064 0.716016 0
M  V30 15351 C 1441.98 -4.18699 -1.35569 0
M  V30 15352 H 1439.1 -0.731863 -0.0868627 0
M  V30 15353 H 1441.74 -1.84005 0.473501 0
M  V30 15354 H 1439.89 -3.70787 -1.15972 0
M  V30 15355 H 1441.56 -4.40987 1.35383 0
M  V30 15356 H 1439.8 -4.12608 1.3393 0
M  V30 15357 H 1440.48 -5.50106 0.456895 0
M  V30 15358 H 1442.95 -4.07545 -0.839441 0
M  V30 15359 H 1441.83 -5.26892 -1.53871 0
M  V30 15360 H 1442.09 -3.73834 -2.3601 0
M  V30 15361 N 1441.15 -0.0802183 -1.57396 0
M  V30 15362 C 1442.4 0.585802 -1.93424 0
M  V30 15363 C 1442.72 1.69638 -0.961662 0
M  V30 15364 O 1441.99 1.95897 -0.011202 0
M  V30 15365 H 1440.57 0.219382 -0.714059 0
M  V30 15366 H 1443.23 -0.140055 -1.94396 0
M  V30 15367 H 1442.32 1.00566 -2.95454 0
M  V30 15368 N 1442.63 1.56409 0.193394 0
M  V30 15369 C 1443.87 1.79919 0.911712 0
M  V30 15370 C 1444.19 0.653729 1.84352 0
M  V30 15371 O 1445.39 0.773172 2.60258 0
M  V30 15372 C 1443.85 3.18726 1.67158 0
M  V30 15373 C 1443.46 4.41078 0.784512 0
M  V30 15374 C 1445.2 3.51544 2.37944 0
M  V30 15375 C 1443.11 5.70907 1.54335 0
M  V30 15376 H 1442.04 0.670864 0.344177 0
M  V30 15377 H 1444.69 1.82757 0.164967 0
M  V30 15378 H 1443.07 3.10142 2.46227 0
M  V30 15379 H 1444.25 4.60789 0.032356 0
M  V30 15380 H 1442.56 4.15978 0.187407 0
M  V30 15381 H 1445.16 4.45779 2.95271 0
M  V30 15382 H 1445.5 2.75369 3.12214 0
M  V30 15383 H 1446.03 3.61583 1.65839 0
M  V30 15384 H 1442.77 6.50052 0.843393 0
M  V30 15385 H 1442.29 5.5521 2.26939 0
M  V30 15386 H 1443.97 6.12085 2.09669 0
M  V30 15387 N 1444.1 -0.461169 1.50702 0
M  V30 15388 C 1445.51 -1.04177 1.54932 0
M  V30 15389 C 1445.87 -1.92894 0.358648 0
M  V30 15390 O 1444.99 -2.09876 -0.527346 0
M  V30 15391 C 1445.59 -1.8961 2.80773 0
M  V30 15392 C 1444.14 -2.42761 2.87652 0
M  V30 15393 C 1443.29 -1.21356 2.49335 0
M  V30 15394 H 1446.24 -0.243379 1.56823 0
M  V30 15395 H 1446.26 -2.74794 2.63189 0
M  V30 15396 H 1445.78 -1.25014 3.67414 0
M  V30 15397 H 1443.88 -3.10881 2.05386 0
M  V30 15398 H 1443.99 -2.77189 3.90772 0
M  V30 15399 H 1442.35 -1.55146 2.01995 0
M  V30 15400 H 1443.14 -0.584069 3.38295 0
M  V30 15401 N 1445.58 -1.40446 -0.715026 0
M  V30 15402 C 1446.51 -1.43511 -1.84193 0
M  V30 15403 C 1447.49 -0.295969 -1.67505 0
M  V30 15404 O 1448.68 -0.504667 -1.87528 0
M  V30 15405 C 1445.81 -1.29751 -3.22152 0
M  V30 15406 C 1444.76 -2.41274 -3.53512 0
M  V30 15407 C 1444.09 -2.12591 -4.90621 0
M  V30 15408 C 1445.39 -3.83614 -3.54454 0
M  V30 15409 H 1447.08 -2.37819 -1.81885 0
M  V30 15410 H 1444.63 -1.14469 -0.873655 0
M  V30 15411 H 1446.58 -1.30511 -4.0068 0
M  V30 15412 H 1445.3 -0.319189 -3.25037 0
M  V30 15413 H 1443.96 -2.39764 -2.77324 0
M  V30 15414 H 1443.61 -1.13148 -4.90109 0
M  V30 15415 H 1443.31 -2.87308 -5.1257 0
M  V30 15416 H 1444.84 -2.15034 -5.71483 0
M  V30 15417 H 1446.25 -3.86945 -4.23021 0
M  V30 15418 H 1444.65 -4.57855 -3.87929 0
M  V30 15419 H 1445.72 -4.13159 -2.53827 0
M  V30 15420 N 1447.06 0.947303 -1.25952 0
M  V30 15421 C 1448.29 1.7273 -1.13895 0
M  V30 15422 C 1448.7 1.86296 0.306488 0
M  V30 15423 O 1448.06 1.36594 1.2103 0
M  V30 15424 C 1448.11 3.13727 -1.79604 0
M  V30 15425 O 1447.83 3.00816 -3.18499 0
M  V30 15426 C 1449.33 4.0797 -1.73422 0
M  V30 15427 H 1446.55 0.54102 -0.39691 0
M  V30 15428 H 1449.1 1.18797 -1.66456 0
M  V30 15429 H 1447.25 3.6458 -1.30997 0
M  V30 15430 H 1447.67 3.89813 -3.50922 0
M  V30 15431 H 1449.14 5.04487 -2.24047 0
M  V30 15432 H 1449.62 4.33594 -0.699481 0
M  V30 15433 H 1450.22 3.63035 -2.21553 0
M  V30 15434 N 1448.54 1.07657 1.15099 0
M  V30 15435 C 1449.79 0.800025 1.85591 0
M  V30 15436 C 1450.11 -0.675973 1.82909 0
M  V30 15437 O 1449.38 -1.48971 1.27218 0
M  V30 15438 H 1447.96 0.292958 0.687157 0
M  V30 15439 H 1450.62 1.36096 1.39513 0
M  V30 15440 H 1449.72 1.13733 2.90639 0
M  V30 15441 N 1450.02 -1.31994 0.861122 0
M  V30 15442 C 1451.24 -2.01745 0.481013 0
M  V30 15443 C 1451.67 -1.6426 -0.916527 0
M  V30 15444 O 1451.02 -0.846603 -1.60319 0
M  V30 15445 C 1451.07 -3.54963 0.635134 0
M  V30 15446 O 1450.18 -4.11083 -0.329337 0
M  V30 15447 H 1449.52 -0.635499 0.192452 0
M  V30 15448 H 1452.05 -1.68394 1.1621 0
M  V30 15449 H 1452.06 -4.04607 0.525089 0
M  V30 15450 H 1450.73 -3.81587 1.65422 0
M  V30 15451 H 1449.31 -3.72489 -0.174989 0
M  V30 15452 N 1451.49 -0.619688 -1.44906 0
M  V30 15453 C 1452.44 0.104373 -2.32366 0
M  V30 15454 C 1453.44 0.847423 -1.4668 0
M  V30 15455 O 1454.64 0.761618 -1.63093 0
M  V30 15456 H 1451.02 0.0525126 -0.750164 0
M  V30 15457 H 1452.99 -0.651525 -2.912 0
M  V30 15458 C 1451.74 1.08017 -3.30496 0
M  V30 15459 H 1451.06 0.517831 -3.96432 0
M  V30 15460 H 1452.5 1.5565 -3.94397 0
M  V30 15461 C 1450.96 2.15975 -2.58566 0
M  V30 15462 O 1451.49 3.23895 -2.37603 0
M  V30 15463 N 1449.7 1.91593 -2.18496 0
M  V30 15464 H 1449.24 1.03835 -2.35746 0
M  V30 15465 H 1449.2 2.64028 -1.70694 0
M  V30 15466 N 1452.97 1.53444 -0.359552 0
M  V30 15467 C 1453.92 2.27053 0.504949 0
M  V30 15468 C 1454.91 1.29801 1.08849 0
M  V30 15469 O 1456.12 1.47451 1.03239 0
M  V30 15470 H 1452.5 0.729756 0.181549 0
M  V30 15471 H 1454.47 2.98082 -0.137719 0
M  V30 15472 C 1453.22 3.06815 1.63585 0
M  V30 15473 H 1452.54 3.81488 1.19611 0
M  V30 15474 H 1453.98 3.61508 2.21558 0
M  V30 15475 C 1452.44 2.17286 2.57466 0
M  V30 15476 O 1452.97 1.77961 3.60129 0
M  V30 15477 N 1451.17 1.82041 2.26516 0
M  V30 15478 H 1450.72 2.14218 1.43068 0
M  V30 15479 H 1450.68 1.22423 2.89586 0
M  V30 15480 N 1454.45 0.0885642 1.57351 0
M  V30 15481 C 1455.38 -0.869946 2.16689 0
M  V30 15482 C 1456.36 -1.29878 1.09844 0
M  V30 15483 O 1457.55 -1.36684 1.37954 0
M  V30 15484 C 1454.68 -2.13148 2.74199 0
M  V30 15485 C 1453.63 -1.84149 3.86359 0
M  V30 15486 C 1452.96 -3.17075 4.30543 0
M  V30 15487 C 1454.26 -1.13357 5.09851 0
M  V30 15488 H 1455.95 -0.375578 2.97035 0
M  V30 15489 H 1453.5 -0.17921 1.42881 0
M  V30 15490 H 1455.45 -2.80634 3.14361 0
M  V30 15491 H 1454.17 -2.64856 1.91098 0
M  V30 15492 H 1452.83 -1.19063 3.46727 0
M  V30 15493 H 1452.48 -3.66658 3.44342 0
M  V30 15494 H 1452.18 -2.98457 5.06159 0
M  V30 15495 H 1453.7 -3.85731 4.73333 0
M  V30 15496 H 1455.12 -1.70941 5.47222 0
M  V30 15497 H 1453.52 -1.0494 5.90853 0
M  V30 15498 H 1454.59 -0.115273 4.84763 0
M  V30 15499 N 1455.93 -1.56509 -0.185096 0
M  V30 15500 C 1457.18 -1.804 -0.902158 0
M  V30 15501 C 1457.49 -0.663496 -1.84003 0
M  V30 15502 O 1458.7 -0.786963 -2.59844 0
M  V30 15503 C 1457.15 -3.19608 -1.65466 0
M  V30 15504 C 1456.76 -4.41487 -0.761109 0
M  V30 15505 C 1458.5 -3.52801 -2.36076 0
M  V30 15506 C 1456.41 -5.71717 -1.51305 0
M  V30 15507 H 1455.34 -0.67268 -0.340614 0
M  V30 15508 H 1457.99 -1.82842 -0.155273 0
M  V30 15509 H 1456.37 -3.11443 -2.44579 0
M  V30 15510 H 1457.55 -4.60799 -0.00791878 0
M  V30 15511 H 1455.86 -4.16072 -0.165344 0
M  V30 15512 H 1458.46 -4.47339 -2.92902 0
M  V30 15513 H 1458.8 -2.77021 -3.10749 0
M  V30 15514 H 1459.34 -3.62457 -1.63919 0
M  V30 15515 H 1456.08 -6.5049 -0.808907 0
M  V30 15516 H 1455.6 -5.56406 -2.23992 0
M  V30 15517 H 1457.27 -6.13188 -2.0642 0
M  V30 15518 N 1457.41 0.45317 -1.50944 0
M  V30 15519 C 1458.36 1.54689 -1.67498 0
M  V30 15520 C 1459.34 1.51949 -0.529193 0
M  V30 15521 O 1460.53 1.58669 -0.784415 0
M  V30 15522 C 1457.66 2.93006 -1.78892 0
M  V30 15523 C 1456.75 3.00562 -2.99204 0
M  V30 15524 N 1457.14 2.77893 -4.22621 0
M  V30 15525 C 1455.44 3.31712 -2.98132 0
M  V30 15526 C 1456.14 2.90882 -5.03749 0
M  V30 15527 N 1455.11 3.21866 -4.38068 0
M  V30 15528 H 1458.92 1.35889 -2.60598 0
M  V30 15529 H 1456.43 0.660219 -1.48374 0
M  V30 15530 H 1458.43 3.71669 -1.88858 0
M  V30 15531 H 1457.09 3.12838 -0.869626 0
M  V30 15532 H 1458.1 2.53126 -4.51827 0
M  V30 15533 H 1454.77 3.57419 -2.15773 0
M  V30 15534 H 1456.16 2.77444 -6.11943 0
M  V30 15535 N 1458.88 1.40823 0.707568 0
M  V30 15536 C 1459.79 1.44058 1.85161 0
M  V30 15537 C 1460.81 0.332357 1.70796 0
M  V30 15538 O 1461.99 0.578205 1.92922 0
M  V30 15539 C 1459.05 1.3091 3.21035 0
M  V30 15540 C 1458.11 2.51944 3.47595 0
M  V30 15541 C 1457.35 2.39414 4.76987 0
M  V30 15542 O 1457.57 1.41224 5.52641 0
M  V30 15543 O 1456.5 3.28944 5.04063 0
M  V30 15544 H 1460.33 2.40551 1.85388 0
M  V30 15545 H 1457.91 1.22232 0.859052 0
M  V30 15546 H 1459.8 1.25816 4.02179 0
M  V30 15547 H 1458.47 0.375263 3.21517 0
M  V30 15548 H 1457.38 2.62615 2.66428 0
M  V30 15549 H 1458.71 3.44115 3.51917 0
M  V30 15550 N 1460.36 -0.94061 1.26453 0
M  V30 15551 C 1461.29 -2.05667 1.10559 0
M  V30 15552 C 1462.27 -1.70097 0.0106258 0
M  V30 15553 O 1463.46 -1.93338 0.182756 0
M  V30 15554 C 1460.59 -3.3936 0.7384 0
M  V30 15555 C 1459.54 -3.88993 1.78517 0
M  V30 15556 C 1458.87 -5.19343 1.27228 0
M  V30 15557 C 1460.17 -4.13812 3.1868 0
M  V30 15558 H 1461.86 -2.19221 2.03918 0
M  V30 15559 H 1459.41 -1.05339 0.98182 0
M  V30 15560 H 1461.36 -4.16902 0.61409 0
M  V30 15561 H 1460.09 -3.25783 -0.230887 0
M  V30 15562 H 1458.74 -3.13633 1.89816 0
M  V30 15563 H 1458.39 -5.02147 0.292816 0
M  V30 15564 H 1458.09 -5.53521 1.97201 0
M  V30 15565 H 1459.62 -5.99468 1.16065 0
M  V30 15566 H 1461.03 -4.81966 3.10455 0
M  V30 15567 H 1459.43 -4.59273 3.86249 0
M  V30 15568 H 1460.5 -3.19571 3.64695 0
M  V30 15569 N 1461.84 -1.08266 -1.14527 0
M  V30 15570 C 1463.09 -0.806405 -1.84878 0
M  V30 15571 C 1463.4 0.670151 -1.83762 0
M  V30 15572 O 1464.61 1.06151 -2.49888 0
M  V30 15573 C 1463.06 -1.39257 -3.31867 0
M  V30 15574 C 1462.67 -2.90081 -3.41404 0
M  V30 15575 C 1464.42 -1.19475 -4.0734 0
M  V30 15576 C 1462.32 -3.41842 -4.82595 0
M  V30 15577 H 1461.25 -0.297993 -0.692615 0
M  V30 15578 H 1463.9 -1.30389 -1.29116 0
M  V30 15579 H 1462.29 -0.822802 -3.87358 0
M  V30 15580 H 1463.46 -3.53182 -2.95971 0
M  V30 15581 H 1461.78 -3.08761 -2.79385 0
M  V30 15582 H 1464.37 -1.55614 -5.11555 0
M  V30 15583 H 1464.72 -0.134455 -4.16083 0
M  V30 15584 H 1465.25 -1.73138 -3.58145 0
M  V30 15585 H 1461.99 -4.47439 -4.79039 0
M  V30 15586 H 1461.51 -2.835 -5.28572 0
M  V30 15587 H 1463.19 -3.38346 -5.51481 0
M  V30 15588 N 1463.32 1.31536 -0.86811 0
M  V30 15589 C 1464.23 2.32326 -0.32588 0
M  V30 15590 C 1465.25 1.64632 0.563243 0
M  V30 15591 O 1466.42 1.96067 0.460403 0
M  V30 15592 C 1463.49 3.43562 0.46539 0
M  V30 15593 C 1462.55 4.26919 -0.451472 0
M  V30 15594 C 1461.78 5.32844 0.302129 0
M  V30 15595 O 1462 5.49485 1.53045 0
M  V30 15596 O 1460.94 6.00944 -0.339048 0
M  V30 15597 H 1464.76 2.80622 -1.16126 0
M  V30 15598 H 1462.35 1.35401 -0.631428 0
M  V30 15599 H 1464.23 4.11368 0.914028 0
M  V30 15600 H 1462.91 2.97432 1.27734 0
M  V30 15601 H 1461.81 3.61874 -0.948571 0
M  V30 15602 H 1463.15 4.7661 -1.22897 0
M  V30 15603 N 1464.8 0.627364 1.44575 0
M  V30 15604 C 1466.03 0.137313 2.06444 0
M  V30 15605 C 1466.44 -1.18655 1.46855 0
M  V30 15606 O 1465.8 -1.72699 0.590018 0
M  V30 15607 C 1465.85 0.0123481 3.61498 0
M  V30 15608 O 1465.57 1.28385 4.18866 0
M  V30 15609 C 1467.07 -0.506841 4.40393 0
M  V30 15610 H 1464.29 0.0779387 0.666458 0
M  V30 15611 H 1466.83 0.860701 1.85505 0
M  V30 15612 H 1464.99 -0.66146 3.81711 0
M  V30 15613 H 1465.4 1.12626 5.12265 0
M  V30 15614 H 1466.88 -0.543304 5.4932 0
M  V30 15615 H 1467.35 -1.53314 4.11572 0
M  V30 15616 H 1467.96 0.133589 4.2509 0
M  V30 15617 N 1466.28 -1.53251 0.367684 0
M  V30 15618 C 1467.52 -2.03197 -0.221396 0
M  V30 15619 C 1467.88 -1.249 -1.45822 0
M  V30 15620 O 1469.08 -1.64863 -2.12306 0
M  V30 15621 C 1467.35 -3.53827 -0.504134 0
M  V30 15622 S 1468.91 -4.2564 -1.06658 0
M  V30 15623 H 1465.73 -0.708089 -0.0642774 0
M  V30 15624 H 1468.33 -1.88703 0.511037 0
M  V30 15625 H 1467.03 -4.08412 0.403477 0
M  V30 15626 H 1466.57 -3.72487 -1.26558 0
M  V30 15627 H 1468.58 -4.36987 -2.35068 0
M  V30 15628 N 1467.75 -0.0969077 -1.57302 0
M  V30 15629 C 1469 0.567212 -1.94706 0
M  V30 15630 C 1469.33 1.67721 -0.978937 0
M  V30 15631 O 1468.61 1.94496 -0.0123016 0
M  V30 15632 C 1468.89 1.12069 -3.42217 0
M  V30 15633 C 1468.74 0.015615 -4.49797 0
M  V30 15634 C 1470.06 2.0185 -3.91081 0
M  V30 15635 H 1467.18 0.204716 -0.707997 0
M  V30 15636 H 1469.82 -0.167984 -1.89256 0
M  V30 15637 H 1467.97 1.74723 -3.46993 0
M  V30 15638 H 1469.65 -0.61871 -4.57132 0
M  V30 15639 H 1467.89 -0.650529 -4.28895 0
M  V30 15640 H 1468.56 0.443724 -5.50214 0
M  V30 15641 H 1471.04 1.49098 -3.8847 0
M  V30 15642 H 1469.91 2.37502 -4.94858 0
M  V30 15643 H 1470.17 2.93659 -3.3048 0
M  V30 15644 N 1469.23 1.56605 0.176793 0
M  V30 15645 C 1470.48 1.81324 0.892535 0
M  V30 15646 C 1470.8 0.67301 1.83018 0
M  V30 15647 O 1470.07 -0.307498 1.93472 0
M  V30 15648 H 1468.65 0.668881 0.332576 0
M  V30 15649 H 1471.31 1.94086 0.17792 0
M  V30 15650 H 1470.41 2.75168 1.47272 0
M  V30 15651 N 1470.71 -0.445159 1.51182 0
M  V30 15652 C 1471.96 -1.19524 1.63463 0
M  V30 15653 C 1472.28 -1.91377 0.347136 0
M  V30 15654 O 1471.54 -1.83932 -0.668408 0
M  V30 15655 C 1471.84 -2.24274 2.78273 0
M  V30 15656 C 1471.5 -1.6949 4.17833 0
M  V30 15657 C 1470.17 -1.54271 4.558 0
M  V30 15658 C 1472.52 -1.29128 5.04951 0
M  V30 15659 C 1469.85 -0.971532 5.786 0
M  V30 15660 C 1472.2 -0.734426 6.28322 0
M  V30 15661 C 1470.86 -0.569079 6.6507 0
M  V30 15662 H 1470.13 -0.437369 0.598155 0
M  V30 15663 H 1472.78 -0.48742 1.85193 0
M  V30 15664 H 1471.08 -3.01065 2.50734 0
M  V30 15665 H 1472.78 -2.82117 2.84975 0
M  V30 15666 H 1469.37 -1.82309 3.87894 0
M  V30 15667 H 1473.56 -1.39709 4.7623 0
M  V30 15668 H 1468.81 -0.831117 6.05725 0
M  V30 15669 H 1472.99 -0.413133 6.95173 0
M  V30 15670 H 1470.61 -0.124355 7.60098 0
M  V30 15671 N 1472.19 -1.41197 -0.700089 0
M  V30 15672 C 1473.46 -1.30803 -1.4543 0
M  V30 15673 C 1473.84 0.0664987 -2.10995 0
M  V30 15674 O 1473.19 1.08043 -2.01343 0
M  V30 15675 C 1473.4 -2.45815 -2.47742 0
M  V30 15676 C 1474.75 -2.86771 -3.13126 0
M  V30 15677 O 1475.77 -2.45521 -2.58065 0
M  V30 15678 O 1474.63 -3.58086 -4.1284 0
M  V30 15679 H 1471.73 -0.514523 -0.647453 0
M  V30 15680 H 1474.27 -1.53151 -0.73095 0
M  V30 15681 H 1473.05 -3.37557 -1.97917 0
M  V30 15682 H 1472.67 -2.25319 -3.27593 0
M  V30 15683 N 1473.67 0.933891 -1.2695 0
M  V30 15684 C 1474.89 1.72042 -1.15828 0
M  V30 15685 C 1475.32 1.85975 0.28193 0
M  V30 15686 O 1474.67 1.35528 1.20423 0
M  V30 15687 C 1474.72 3.10112 -1.84019 0
M  V30 15688 O 1473.83 3.96504 -1.13394 0
M  V30 15689 H 1473.17 0.527573 -0.40319 0
M  V30 15690 H 1475.7 1.16914 -1.67905 0
M  V30 15691 H 1475.71 3.60461 -1.91133 0
M  V30 15692 H 1474.38 2.99287 -2.8879 0
M  V30 15693 H 1472.96 3.54948 -1.14307 0
M  V30 15694 N 1475.14 1.08871 1.13951 0
M  V30 15695 C 1476.37 0.843055 1.89492 0
M  V30 15696 C 1476.79 -0.599539 1.78289 0
M  V30 15697 O 1476.15 -1.42062 1.12642 0
M  V30 15698 C 1476.2 1.27572 3.3728 0
M  V30 15699 O 1475.3 0.430611 4.10146 0
M  V30 15700 H 1474.64 0.3058 0.589391 0
M  V30 15701 H 1477.17 1.45137 1.44209 0
M  V30 15702 H 1477.18 1.25864 3.88101 0
M  V30 15703 H 1475.86 2.32635 3.44751 0
M  V30 15704 H 1474.44 0.511516 3.69375 0
M  V30 15705 N 1476.62 -1.31073 0.875073 0
M  V30 15706 C 1477.85 -2.00688 0.503179 0
M  V30 15707 C 1478.26 -1.65657 -0.905714 0
M  V30 15708 O 1477.62 -0.888468 -1.59413 0
M  V30 15709 C 1477.67 -3.55486 0.65666 0
M  V30 15710 O 1477.39 -3.89265 2.01007 0
M  V30 15711 C 1478.89 -4.42374 0.28645 0
M  V30 15712 H 1476.11 -0.641885 0.195512 0
M  V30 15713 H 1478.66 -1.67188 1.17765 0
M  V30 15714 H 1476.81 -3.87389 0.0296852 0
M  V30 15715 H 1477.23 -4.83978 2.02153 0
M  V30 15716 H 1478.7 -5.50205 0.444776 0
M  V30 15717 H 1479.18 -4.32312 -0.774789 0
M  V30 15718 H 1479.78 -4.15898 0.889336 0
M  V30 15719 N 1478.1 -0.635022 -1.4424 0
M  V30 15720 C 1479.05 0.0675707 -2.30701 0
M  V30 15721 C 1480.02 0.832919 -1.43707 0
M  V30 15722 O 1481.2 0.813177 -1.72604 0
M  V30 15723 C 1478.34 1.04053 -3.2904 0
M  V30 15724 C 1477.46 0.273191 -4.31135 0
M  V30 15725 C 1476.59 1.23831 -5.16565 0
M  V30 15726 C 1475.63 0.460359 -6.10366 0
M  V30 15727 N 1474.77 1.37614 -6.88481 0
M  V30 15728 H 1479.61 -0.675656 -2.90239 0
M  V30 15729 H 1477.14 -0.344971 -1.42998 0
M  V30 15730 H 1479.1 1.61805 -3.84545 0
M  V30 15731 H 1477.73 1.75084 -2.71193 0
M  V30 15732 H 1476.78 -0.420315 -3.78071 0
M  V30 15733 H 1478.1 -0.332548 -4.9769 0
M  V30 15734 H 1477.25 1.88704 -5.76607 0
M  V30 15735 H 1475.99 1.87797 -4.50093 0
M  V30 15736 H 1474.99 -0.201836 -5.49429 0
M  V30 15737 H 1476.22 -0.174639 -6.78875 0
M  V30 15738 H 1474.16 2.00294 -6.24675 0
M  V30 15739 H 1474.08 0.82452 -7.5149 0
M  V30 15740 H 1475.35 2.01359 -7.53044 0
M  V30 15741 N 1479.58 1.53054 -0.375806 0
M  V30 15742 C 1480.82 2.017 0.210985 0
M  V30 15743 C 1481.16 1.26228 1.47581 0
M  V30 15744 O 1480.43 0.358869 1.91161 0
M  V30 15745 C 1480.72 3.56715 0.492596 0
M  V30 15746 C 1480.57 4.42869 -0.786573 0
M  V30 15747 C 1481.89 4.20803 1.28891 0
M  V30 15748 H 1479.01 0.733153 0.0752084 0
M  V30 15749 H 1481.65 1.83229 -0.502715 0
M  V30 15750 H 1479.8 3.72585 1.10059 0
M  V30 15751 H 1481.47 4.38777 -1.42381 0
M  V30 15752 H 1479.71 4.10425 -1.40478 0
M  V30 15753 H 1480.38 5.49309 -0.544354 0
M  V30 15754 H 1482.86 4.08828 0.774498 0
M  V30 15755 H 1481.74 5.29273 1.45469 0
M  V30 15756 H 1482 3.77541 2.30033 0
M  V30 15757 N 1481.06 0.105248 1.57248 0
M  V30 15758 C 1482.29 -0.563339 1.98771 0
M  V30 15759 C 1482.69 -1.6163 0.98348 0
M  V30 15760 O 1482.04 -1.83669 -0.0337474 0
M  V30 15761 C 1482.1 -1.26026 3.36686 0
M  V30 15762 C 1481.76 -0.356865 4.55605 0
M  V30 15763 C 1482.76 0.399055 5.18366 0
M  V30 15764 C 1480.45 -0.271954 5.01563 0
M  V30 15765 C 1482.44 1.22776 6.25464 0
M  V30 15766 C 1480.13 0.560395 6.08525 0
M  V30 15767 C 1481.12 1.30889 6.70341 0
M  V30 15768 O 1480.81 2.12745 7.75239 0
M  V30 15769 H 1480.54 -0.154882 0.658018 0
M  V30 15770 H 1483.1 0.184266 2.04572 0
M  V30 15771 H 1481.33 -2.05465 3.27599 0
M  V30 15772 H 1483.02 -1.82439 3.62589 0
M  V30 15773 H 1483.78 0.343247 4.83784 0
M  V30 15774 H 1479.66 -0.844224 4.53204 0
M  V30 15775 H 1483.21 1.81248 6.73643 0
M  V30 15776 H 1479.1 0.617647 6.42538 0
M  V30 15777 H 1479.87 2.05537 7.92273 0
M  V30 15778 N 1482.53 -1.56697 -0.168486 0
M  V30 15779 C 1483.5 -1.95744 -1.19235 0
M  V30 15780 C 1484.5 -0.841419 -1.37028 0
M  V30 15781 O 1485.69 -1.10842 -1.34386 0
M  V30 15782 C 1482.82 -2.25471 -2.55686 0
M  V30 15783 H 1484.01 -2.87368 -0.857892 0
M  V30 15784 H 1481.57 -1.50798 -0.411041 0
M  V30 15785 H 1482.3 -1.36571 -2.94141 0
M  V30 15786 H 1482.09 -3.06822 -2.44137 0
M  V30 15787 H 1483.58 -2.56593 -3.29469 0
M  V30 15788 N 1484.01 0.437135 -1.51416 0
M  V30 15789 C 1485.24 1.21359 -1.68187 0
M  V30 15790 C 1485.66 1.84247 -0.378748 0
M  V30 15791 O 1485.02 1.68816 0.661115 0
M  V30 15792 C 1485.07 2.27319 -2.79926 0
M  V30 15793 O 1484.17 3.32807 -2.43543 0
M  V30 15794 H 1483.51 0.355547 -0.560787 0
M  V30 15795 H 1486.04 0.516204 -1.97981 0
M  V30 15796 H 1486.05 2.721 -3.04016 0
M  V30 15797 H 1484.73 1.80923 -3.74486 0
M  V30 15798 H 1483.31 2.93501 -2.30025 0
M  V30 15799 N 1485.49 1.41566 0.692592 0
M  V30 15800 C 1486.42 1.46423 1.81886 0
M  V30 15801 C 1487.4 0.32258 1.67013 0
M  V30 15802 O 1488.59 0.534437 1.86701 0
M  V30 15803 C 1485.72 1.3486 3.20047 0
M  V30 15804 C 1484.67 2.46867 3.49629 0
M  V30 15805 C 1484 2.20369 4.87177 0
M  V30 15806 C 1485.3 3.89205 3.48306 0
M  V30 15807 H 1486.99 2.40683 1.78079 0
M  V30 15808 H 1484.54 1.15845 0.855334 0
M  V30 15809 H 1486.49 1.36869 3.98553 0
M  V30 15810 H 1485.21 0.370859 3.24488 0
M  V30 15811 H 1483.87 2.44146 2.73475 0
M  V30 15812 H 1483.52 1.20931 4.88247 0
M  V30 15813 H 1483.22 2.95426 5.07934 0
M  V30 15814 H 1484.74 2.24099 5.6799 0
M  V30 15815 H 1486.16 3.93626 4.16811 0
M  V30 15816 H 1484.56 4.63969 3.80595 0
M  V30 15817 H 1485.63 4.17144 2.47222 0
M  V30 15818 N 1486.97 -0.927146 1.27443 0
M  V30 15819 C 1488.22 -1.66941 1.13197 0
M  V30 15820 C 1488.53 -1.92939 -0.32156 0
M  V30 15821 O 1489.74 -2.65124 -0.584931 0
M  V30 15822 C 1488.19 -3.00677 1.97791 0
M  V30 15823 C 1487.8 -2.82376 3.47805 0
M  V30 15824 C 1489.54 -3.78499 1.92195 0
M  V30 15825 C 1487.45 -4.1167 4.24596 0
M  V30 15826 H 1486.38 -0.626171 0.420031 0
M  V30 15827 H 1489.03 -1.02997 1.51868 0
M  V30 15828 H 1487.41 -3.65681 1.51965 0
M  V30 15829 H 1488.59 -2.26135 4.01497 0
M  V30 15830 H 1486.9 -2.17982 3.54786 0
M  V30 15831 H 1489.5 -4.74312 2.46844 0
M  V30 15832 H 1489.84 -4.0655 0.895702 0
M  V30 15833 H 1490.38 -3.20292 2.35919 0
M  V30 15834 H 1487.12 -3.88798 5.27747 0
M  V30 15835 H 1486.64 -4.67573 3.75681 0
M  V30 15836 H 1488.31 -4.80028 4.338 0
M  V30 15837 N 1488.45 -1.09474 -1.13372 0
M  V30 15838 C 1489.69 -0.82945 -1.84295 0
M  V30 15839 C 1490.02 0.646788 -1.83961 0
M  V30 15840 O 1489.29 1.46929 -1.29572 0
M  V30 15841 H 1487.87 -0.303853 -0.682409 0
M  V30 15842 H 1490.53 -1.38298 -1.3733 0
M  V30 15843 H 1489.62 -1.18342 -2.88793 0
M  V30 15844 N 1489.92 1.30607 -0.882012 0
M  V30 15845 C 1490.87 2.3016 -0.336011 0
M  V30 15846 C 1491.87 1.60037 0.555389 0
M  V30 15847 O 1493.07 1.74536 0.440152 0
M  V30 15848 H 1489.45 0.746595 -0.0899982 0
M  V30 15849 H 1491.42 2.73673 -1.18936 0
M  V30 15850 C 1490.17 3.44942 0.437061 0
M  V30 15851 H 1489.49 3.99081 -0.2396 0
M  V30 15852 H 1490.93 4.16684 0.784242 0
M  V30 15853 C 1489.39 2.94678 1.633 0
M  V30 15854 O 1489.92 2.94457 2.73236 0
M  V30 15855 N 1488.13 2.50727 1.46917 0
M  V30 15856 H 1487.67 2.51105 0.574807 0
M  V30 15857 H 1487.63 2.17453 2.27072 0
M  V30 15858 N 1491.4 0.642663 1.43901 0
M  V30 15859 C 1492.65 0.152003 2.0223 0
M  V30 15860 C 1492.98 -1.22711 1.50518 0
M  V30 15861 O 1492.26 -1.817 0.693937 0
M  V30 15862 C 1492.54 0.151278 3.59782 0
M  V30 15863 C 1492.39 1.56356 4.2175 0
M  V30 15864 C 1493.71 -0.518016 4.37041 0
M  V30 15865 H 1490.83 0.0567094 0.734815 0
M  V30 15866 H 1493.47 0.821337 1.7133 0
M  V30 15867 H 1491.62 -0.418679 3.86237 0
M  V30 15868 H 1493.29 2.18329 4.06362 0
M  V30 15869 H 1491.54 2.11401 3.78803 0
M  V30 15870 H 1492.21 1.51499 5.30803 0
M  V30 15871 H 1494.68 -0.0331947 4.16087 0
M  V30 15872 H 1493.56 -0.487754 5.46729 0
M  V30 15873 H 1493.82 -1.59036 4.12504 0
M  V30 15874 N 1492.88 -1.52852 0.383918 0
M  V30 15875 C 1493.81 -2.29213 -0.44539 0
M  V30 15876 C 1494.79 -1.3238 -1.06815 0
M  V30 15877 O 1495.98 -1.61269 -1.08194 0
M  V30 15878 C 1493.11 -3.09497 -1.57573 0
M  V30 15879 C 1492.06 -4.14168 -1.07928 0
M  V30 15880 C 1491.39 -4.82644 -2.30128 0
M  V30 15881 C 1492.69 -5.22082 -0.151035 0
M  V30 15882 H 1494.38 -2.98786 0.19172 0
M  V30 15883 H 1491.93 -1.43695 0.0936471 0
M  V30 15884 H 1493.88 -3.61672 -2.16267 0
M  V30 15885 H 1492.6 -2.37647 -2.24034 0
M  V30 15886 H 1491.26 -3.62966 -0.514909 0
M  V30 15887 H 1490.91 -4.07348 -2.95087 0
M  V30 15888 H 1490.61 -5.53388 -1.97574 0
M  V30 15889 H 1492.14 -5.37621 -2.89475 0
M  V30 15890 H 1493.55 -5.69649 -0.646003 0
M  V30 15891 H 1491.95 -6.00041 0.0844833 0
M  V30 15892 H 1493.02 -4.78228 0.801618 0
M  V30 15893 N 1494.36 -0.113586 -1.5719 0
M  V30 15894 C 1495.59 0.553592 -1.99356 0
M  V30 15895 C 1496 1.60567 -0.993154 0
M  V30 15896 O 1495.36 1.82494 0.0147252 0
M  V30 15897 C 1495.41 1.18462 -3.41539 0
M  V30 15898 O 1495.13 0.174602 -4.37752 0
M  V30 15899 C 1496.63 1.93564 -3.98808 0
M  V30 15900 H 1493.85 0.146998 -0.6547 0
M  V30 15901 H 1496.4 -0.198329 -2.03536 0
M  V30 15902 H 1494.55 1.88736 -3.38316 0
M  V30 15903 H 1494.97 0.632395 -5.20674 0
M  V30 15904 H 1496.44 2.33051 -5.00391 0
M  V30 15905 H 1496.92 2.80874 -3.37648 0
M  V30 15906 H 1497.52 1.28066 -4.0556 0
M  V30 15907 N 1495.84 1.56784 0.160173 0
M  V30 15908 C 1497.11 1.73513 0.902908 0
M  V30 15909 C 1497.49 0.678036 1.99915 0
M  V30 15910 O 1496.84 -0.305302 2.26451 0
M  V30 15911 C 1497.05 3.17111 1.45744 0
M  V30 15912 C 1498.4 3.78404 1.92602 0
M  V30 15913 O 1499.42 3.20459 1.55515 0
M  V30 15914 O 1498.28 4.80172 2.60954 0
M  V30 15915 H 1495.38 0.708981 0.425764 0
M  V30 15916 H 1497.92 1.69061 0.147129 0
M  V30 15917 H 1496.7 3.85539 0.668985 0
M  V30 15918 H 1496.32 3.25936 2.2771 0
M  V30 15919 N 1497.32 -0.429099 1.51646 0
M  V30 15920 C 1498.28 -1.50398 1.72954 0
M  V30 15921 C 1499.28 -1.49207 0.599491 0
M  V30 15922 O 1500.47 -1.51084 0.867143 0
M  V30 15923 C 1497.6 -2.89903 1.79358 0
M  V30 15924 H 1498.79 -1.32805 2.68892 0
M  V30 15925 H 1496.35 -0.658313 1.4176 0
M  V30 15926 H 1497.08 -3.12891 0.852639 0
M  V30 15927 H 1496.87 -2.92171 2.61492 0
M  V30 15928 H 1498.36 -3.67862 1.97654 0
M  V30 15929 N 1498.79 -1.41931 -0.685074 0
M  V30 15930 C 1500.04 -1.42062 -1.44728 0
M  V30 15931 C 1500.37 -0.0332072 -1.94172 0
M  V30 15932 O 1499.65 0.940835 -1.70231 0
M  V30 15933 C 1499.93 -2.43634 -2.65168 0
M  V30 15934 C 1499.78 -3.91525 -2.21423 0
M  V30 15935 C 1501.1 -2.42325 -3.67378 0
M  V30 15936 H 1498.22 -0.517321 -0.524927 0
M  V30 15937 H 1500.86 -1.73277 -0.779419 0
M  V30 15938 H 1499.01 -2.17146 -3.22149 0
M  V30 15939 H 1500.69 -4.28956 -1.69689 0
M  V30 15940 H 1498.93 -4.05886 -1.53099 0
M  V30 15941 H 1499.6 -4.58158 -3.07889 0
M  V30 15942 H 1502.08 -2.65857 -3.20093 0
M  V30 15943 H 1500.95 -3.15391 -4.49243 0
M  V30 15944 H 1501.21 -1.44555 -4.17799 0
M  V30 15945 N 1500.27 0.920374 -1.27933 0
M  V30 15946 C 1501.5 1.70804 -1.17647 0
M  V30 15947 C 1501.92 1.86264 0.262189 0
M  V30 15948 O 1501.28 1.36798 1.18979 0
M  V30 15949 C 1501.33 3.08142 -1.87298 0
M  V30 15950 O 1500.43 3.95279 -1.17593 0
M  V30 15951 H 1499.77 0.523267 -0.408763 0
M  V30 15952 H 1502.3 1.15127 -1.69136 0
M  V30 15953 H 1502.31 3.58414 -1.94945 0
M  V30 15954 H 1500.99 2.96208 -2.91948 0
M  V30 15955 H 1499.56 3.53716 -1.18065 0
M  V30 15956 N 1501.75 1.10074 1.1279 0
M  V30 15957 C 1502.68 0.690084 2.17516 0
M  V30 15958 C 1503.66 -0.306745 1.5968 0
M  V30 15959 O 1504.84 -0.206533 1.87365 0
M  V30 15960 C 1501.97 0.0176562 3.38695 0
M  V30 15961 C 1501.02 0.97736 4.1515 0
M  V30 15962 S 1501.85 2.49282 4.7394 0
M  V30 15963 C 1503.01 1.83299 5.98458 0
M  V30 15964 H 1503.24 1.57723 2.52013 0
M  V30 15965 H 1500.77 0.917373 1.24192 0
M  V30 15966 H 1502.73 -0.363992 4.08883 0
M  V30 15967 H 1501.39 -0.846237 3.02486 0
M  V30 15968 H 1500.58 0.454057 5.01951 0
M  V30 15969 H 1500.19 1.30073 3.50652 0
M  V30 15970 H 1502.48 1.16098 6.67478 0
M  V30 15971 H 1503.42 2.68041 6.55408 0
M  V30 15972 H 1503.83 1.29909 5.49349 0
M  V30 15973 N 1503.23 -1.30138 0.888926 0
M  V30 15974 C 1504.64 -1.78124 0.559346 0
M  V30 15975 C 1504.99 -1.73046 -0.924633 0
M  V30 15976 O 1504.11 -1.30974 -1.72264 0
M  V30 15977 C 1504.71 -3.2344 1.00856 0
M  V30 15978 C 1503.27 -3.69247 0.730332 0
M  V30 15979 C 1502.42 -2.505 1.18933 0
M  V30 15980 H 1505.37 -1.16952 1.07275 0
M  V30 15981 H 1505.39 -3.78985 0.339219 0
M  V30 15982 H 1504.9 -3.27104 2.08865 0
M  V30 15983 H 1503 -3.71067 -0.337599 0
M  V30 15984 H 1503.11 -4.60538 1.32066 0
M  V30 15985 H 1501.48 -2.47323 0.608568 0
M  V30 15986 H 1502.26 -2.56899 2.27724 0
M  V30 15987 N 1504.71 -0.650285 -1.43559 0
M  V30 15988 C 1505.65 0.043098 -2.3076 0
M  V30 15989 C 1506.62 0.81763 -1.44582 0
M  V30 15990 O 1507.81 0.794825 -1.73457 0
M  V30 15991 C 1504.95 1.00557 -3.30125 0
M  V30 15992 C 1504.06 0.227448 -4.31401 0
M  V30 15993 C 1503.2 1.18345 -5.17849 0
M  V30 15994 C 1502.23 0.395596 -6.1082 0
M  V30 15995 N 1501.37 1.30304 -6.89902 0
M  V30 15996 H 1506.21 -0.706402 -2.89506 0
M  V30 15997 H 1503.75 -0.360118 -1.42624 0
M  V30 15998 H 1505.71 1.57717 -3.8624 0
M  V30 15999 H 1504.34 1.72198 -2.73034 0
M  V30 16000 H 1503.39 -0.460391 -3.77604 0
M  V30 16001 H 1504.7 -0.385316 -4.9731 0
M  V30 16002 H 1503.85 1.82578 -5.78576 0
M  V30 16003 H 1502.59 1.83013 -4.52059 0
M  V30 16004 H 1501.6 -0.260099 -5.49184 0
M  V30 16005 H 1502.82 -0.246633 -6.78652 0
M  V30 16006 H 1500.77 1.93657 -6.26764 0
M  V30 16007 H 1500.69 0.744768 -7.52323 0
M  V30 16008 H 1501.95 1.93361 -7.55137 0
M  V30 16009 N 1506.18 1.52647 -0.392018 0
M  V30 16010 C 1507.41 2.05734 0.189018 0
M  V30 16011 C 1507.82 1.26338 1.40838 0
M  V30 16012 O 1507.16 0.303866 1.81169 0
M  V30 16013 C 1507.23 3.54095 0.621026 0
M  V30 16014 C 1506.89 4.54416 -0.485249 0
M  V30 16015 C 1507.89 5.02241 -1.3435 0
M  V30 16016 C 1505.57 4.98037 -0.653055 0
M  V30 16017 C 1507.57 5.92313 -2.35467 0
M  V30 16018 C 1505.25 5.87908 -1.66755 0
M  V30 16019 C 1506.25 6.34939 -2.51677 0
M  V30 16020 O 1505.94 7.23034 -3.51392 0
M  V30 16021 H 1505.67 0.675266 0.0315024 0
M  V30 16022 H 1508.23 1.97717 -0.556535 0
M  V30 16023 H 1506.46 3.5974 1.4186 0
M  V30 16024 H 1508.14 3.8991 1.12804 0
M  V30 16025 H 1508.91 4.6927 -1.22518 0
M  V30 16026 H 1504.79 4.61 -0.00176071 0
M  V30 16027 H 1508.33 6.28944 -3.01786 0
M  V30 16028 H 1504.23 6.20293 -1.78624 0
M  V30 16029 H 1505 7.41102 -3.47433 0
M  V30 16030 N 1507.66 0.121921 1.57128 0
M  V30 16031 C 1508.91 -0.5299 1.96376 0
M  V30 16032 C 1509.26 -1.64103 1.00439 0
M  V30 16033 O 1508.56 -1.91568 0.0349355 0
M  V30 16034 C 1508.75 -1.10579 3.39863 0
M  V30 16035 C 1508.58 -0.051992 4.4967 0
M  V30 16036 C 1507.35 0.380828 5.03863 0
M  V30 16037 C 1509.55 0.730085 5.09092 0
M  V30 16038 N 1507.53 1.4201 5.97249 0
M  V30 16039 C 1508.9 1.62048 5.98448 0
M  V30 16040 C 1510.96 0.780651 4.91742 0
M  V30 16041 C 1509.66 2.55704 6.72315 0
M  V30 16042 C 1511.68 1.70493 5.66291 0
M  V30 16043 C 1511.05 2.5829 6.55336 0
M  V30 16044 H 1507.15 -0.163445 0.764728 0
M  V30 16045 H 1509.73 0.210716 1.93556 0
M  V30 16046 H 1507.9 -1.81612 3.43325 0
M  V30 16047 H 1509.63 -1.72217 3.66229 0
M  V30 16048 H 1506.39 -0.0121324 4.73598 0
M  V30 16049 H 1506.81 1.93874 6.48646 0
M  V30 16050 H 1511.45 0.115994 4.22641 0
M  V30 16051 H 1509.17 3.23182 7.40661 0
M  V30 16052 H 1512.76 1.74954 5.54872 0
M  V30 16053 H 1511.64 3.28647 7.12012 0
M  V30 16054 N 1509.14 -1.56867 -0.151857 0
M  V30 16055 C 1510.09 -1.94315 -1.19271 0
M  V30 16056 C 1511.07 -0.813807 -1.38802 0
M  V30 16057 O 1512.27 -1.07722 -1.40446 0
M  V30 16058 C 1509.4 -2.32316 -2.52753 0
M  V30 16059 C 1508.48 -3.5181 -2.36835 0
M  V30 16060 N 1508.87 -4.68488 -1.90663 0
M  V30 16061 C 1507.17 -3.56799 -2.67602 0
M  V30 16062 C 1507.87 -5.50594 -1.87673 0
M  V30 16063 N 1506.85 -4.92169 -2.30805 0
M  V30 16064 H 1510.65 -2.82003 -0.827747 0
M  V30 16065 H 1508.16 -1.58361 -0.359958 0
M  V30 16066 H 1510.16 -2.57347 -3.27991 0
M  V30 16067 H 1508.82 -1.45977 -2.90036 0
M  V30 16068 H 1509.83 -4.92336 -1.60703 0
M  V30 16069 H 1506.51 -2.80988 -3.08791 0
M  V30 16070 H 1507.9 -6.54129 -1.53509 0
M  V30 16071 N 1510.62 0.421051 -1.51871 0
M  V30 16072 C 1511.87 1.16908 -1.65344 0
M  V30 16073 C 1512.19 1.90801 -0.377538 0
M  V30 16074 O 1511.45 1.84972 0.639061 0
M  V30 16075 C 1511.75 2.19819 -2.81806 0
M  V30 16076 C 1511.41 1.62821 -4.20476 0
M  V30 16077 C 1510.08 1.47 -4.58197 0
M  V30 16078 C 1512.43 1.21079 -5.06941 0
M  V30 16079 C 1509.76 0.879359 -5.80073 0
M  V30 16080 C 1512.11 0.634373 -6.29411 0
M  V30 16081 C 1510.77 0.4632 -6.65891 0
M  V30 16082 H 1510.04 0.427798 -0.605037 0
M  V30 16083 H 1512.69 0.457896 -1.85945 0
M  V30 16084 H 1510.99 2.97037 -2.55492 0
M  V30 16085 H 1512.69 2.77548 -2.89427 0
M  V30 16086 H 1509.28 1.76115 -3.90745 0
M  V30 16087 H 1513.46 1.32115 -4.78392 0
M  V30 16088 H 1508.72 0.734646 -6.0697 0
M  V30 16089 H 1512.89 0.302484 -6.95743 0
M  V30 16090 H 1510.52 0.00341397 -7.602 0
M  V30 16091 N 1512.1 1.42293 0.677538 0
M  V30 16092 C 1513.35 1.41909 1.43334 0
M  V30 16093 C 1513.66 0.037951 1.95563 0
M  V30 16094 O 1514.86 -0.0884836 2.71356 0
M  V30 16095 C 1513.32 2.49608 2.59275 0
M  V30 16096 C 1512.93 3.93716 2.13757 0
M  V30 16097 C 1514.67 2.58387 3.36803 0
M  V30 16098 C 1512.58 4.92929 3.26764 0
M  V30 16099 H 1511.51 0.527803 0.538461 0
M  V30 16100 H 1514.16 1.6819 0.733791 0
M  V30 16101 H 1512.54 2.16488 3.31585 0
M  V30 16102 H 1513.72 4.36176 1.48618 0
M  V30 16103 H 1512.03 3.88762 1.49175 0
M  V30 16104 H 1514.63 3.29691 4.20961 0
M  V30 16105 H 1514.97 1.62653 3.8321 0
M  V30 16106 H 1515.5 2.90688 2.71561 0
M  V30 16107 H 1512.24 5.90131 2.85352 0
M  V30 16108 H 1511.76 4.55103 3.90694 0
M  V30 16109 H 1513.44 5.1452 3.92273 0
M  V30 16110 N 1513.57 -0.913576 1.28419 0
M  V30 16111 C 1514.99 -1.192 1.0613 0
M  V30 16112 C 1515.19 -2.00542 -0.196232 0
M  V30 16113 O 1514.25 -2.35998 -0.897853 0
M  V30 16114 C 1515.56 -1.92642 2.30889 0
M  V30 16115 C 1517.11 -2.05524 2.3607 0
M  V30 16116 C 1517.58 -2.82374 3.60595 0
M  V30 16117 N 1519.07 -2.89935 3.61236 0
M  V30 16118 C 1519.81 -3.49899 4.54266 0
M  V30 16119 N 1519.3 -4.11141 5.57615 0
M  V30 16120 N 1521.1 -3.4744 4.41862 0
M  V30 16121 H 1513.25 -0.370509 2.09143 0
M  V30 16122 H 1515.51 -0.226573 0.920526 0
M  V30 16123 H 1515.22 -1.40299 3.22504 0
M  V30 16124 H 1515.09 -2.93191 2.37316 0
M  V30 16125 H 1517.48 -2.57047 1.44951 0
M  V30 16126 H 1517.56 -1.0415 2.33637 0
M  V30 16127 H 1517.2 -2.3153 4.52058 0
M  V30 16128 H 1517.13 -3.84063 3.60282 0
M  V30 16129 H 1519.62 -2.46424 2.86502 0
M  V30 16130 H 1519.94 -4.54877 6.24746 0
M  V30 16131 H 1518.28 -4.09645 5.61441 0
M  V30 16132 H 1521.47 -2.98806 3.60323 0
M  V30 16133 H 1521.65 -3.9388 5.14551 0
M  V30 16134 N 1515.05 -1.1067 -1.12204 0
M  V30 16135 C 1515.98 -0.779829 -2.20093 0
M  V30 16136 C 1516.96 0.248279 -1.68278 0
M  V30 16137 O 1518.15 0.113511 -1.93868 0
M  V30 16138 C 1515.28 -0.213511 -3.46643 0
M  V30 16139 C 1514.23 -1.17258 -4.11624 0
M  V30 16140 C 1513.56 -0.467352 -5.32654 0
M  V30 16141 C 1514.86 -2.52014 -4.57478 0
M  V30 16142 H 1516.55 -1.68192 -2.47693 0
M  V30 16143 H 1514.1 -0.810131 -1.1905 0
M  V30 16144 H 1516.05 0.0273225 -4.21391 0
M  V30 16145 H 1514.78 0.723837 -3.18478 0
M  V30 16146 H 1513.43 -1.39891 -3.3886 0
M  V30 16147 H 1513.08 0.474547 -5.00756 0
M  V30 16148 H 1512.78 -1.10694 -5.77079 0
M  V30 16149 H 1514.31 -0.235122 -6.10147 0
M  V30 16150 H 1515.72 -2.33516 -5.23587 0
M  V30 16151 H 1514.12 -3.1188 -5.1269 0
M  V30 16152 H 1515.19 -3.11831 -3.71335 0
M  V30 16153 N 1516.53 1.29665 -0.895815 0
M  V30 16154 C 1517.46 2.26013 -0.315211 0
M  V30 16155 C 1518.44 1.52267 0.570404 0
M  V30 16156 O 1519.63 1.81241 0.518081 0
M  V30 16157 C 1516.75 3.34187 0.551068 0
M  V30 16158 C 1515.8 4.25665 -0.266698 0
M  V30 16159 S 1516.63 5.09056 -1.66198 0
M  V30 16160 C 1517.79 6.20734 -0.80252 0
M  V30 16161 H 1518.02 2.74911 -1.13187 0
M  V30 16162 H 1515.55 1.37827 -0.695913 0
M  V30 16163 H 1517.51 3.96973 1.04511 0
M  V30 16164 H 1516.17 2.83991 1.34193 0
M  V30 16165 H 1515.37 5.02451 0.394869 0
M  V30 16166 H 1514.97 3.6751 -0.69374 0
M  V30 16167 H 1517.26 6.77496 -0.0242039 0
M  V30 16168 H 1518.2 6.91099 -1.54233 0
M  V30 16169 H 1518.61 5.6336 -0.358625 0
M  V30 16170 N 1518.01 0.657889 1.43212 0
M  V30 16171 C 1519.26 0.172845 2.0136 0
M  V30 16172 C 1519.58 -1.21911 1.52193 0
M  V30 16173 O 1518.85 -1.81529 0.736492 0
M  V30 16174 H 1517.43 0.0609091 0.744513 0
M  V30 16175 H 1520.09 0.850605 1.75359 0
M  V30 16176 H 1519.19 0.161062 3.11684 0
M  V30 16177 N 1519.49 -1.52437 0.400108 0
M  V30 16178 C 1520.9 -1.5952 0.0505611 0
M  V30 16179 C 1521.1 -1.4135 -1.43606 0
M  V30 16180 O 1520.16 -1.23591 -2.20185 0
M  V30 16181 C 1521.47 -2.95859 0.537411 0
M  V30 16182 C 1523.02 -3.09067 0.494603 0
M  V30 16183 C 1523.49 -4.47873 0.957815 0
M  V30 16184 N 1524.99 -4.54087 0.914267 0
M  V30 16185 C 1525.72 -5.59744 1.24397 0
M  V30 16186 N 1525.22 -6.72995 1.64469 0
M  V30 16187 N 1527.01 -5.49905 1.16452 0
M  V30 16188 H 1519.16 -1.62496 1.36781 0
M  V30 16189 H 1521.42 -0.763947 0.561328 0
M  V30 16190 H 1521.13 -3.14407 1.57611 0
M  V30 16191 H 1521 -3.77156 -0.0577652 0
M  V30 16192 H 1523.39 -2.90209 -0.535035 0
M  V30 16193 H 1523.47 -2.29698 1.12572 0
M  V30 16194 H 1523.12 -4.67473 1.98574 0
M  V30 16195 H 1523.05 -5.25724 0.303602 0
M  V30 16196 H 1525.54 -3.72787 0.619536 0
M  V30 16197 H 1525.85 -7.49594 1.87961 0
M  V30 16198 H 1524.19 -6.74298 1.68364 0
M  V30 16199 H 1527.39 -4.60311 0.850401 0
M  V30 16200 H 1527.56 -6.32142 1.42478 0
M  V30 16201 N 1520.96 -0.130252 -1.57061 0
M  V30 16202 C 1522.19 0.535707 -2.00362 0
M  V30 16203 C 1522.61 1.58712 -1.00956 0
M  V30 16204 O 1521.97 1.81292 0.0171546 0
M  V30 16205 C 1522.02 1.12836 -3.42491 0
M  V30 16206 O 1521.12 2.24367 -3.46025 0
M  V30 16207 H 1520.47 0.132735 -0.650598 0
M  V30 16208 H 1523 -0.222047 -2.03392 0
M  V30 16209 H 1523.01 1.46115 -3.80939 0
M  V30 16210 H 1521.68 0.358304 -4.14354 0
M  V30 16211 H 1520.26 1.92443 -3.19406 0
M  V30 16212 N 1522.44 1.56945 0.143535 0
M  V30 16213 C 1523.85 1.72949 0.703249 0
M  V30 16214 C 1524.21 0.745193 1.81497 0
M  V30 16215 O 1523.33 -0.0874144 2.16223 0
M  V30 16216 C 1523.93 3.1359 1.28244 0
M  V30 16217 C 1522.48 3.31184 1.78869 0
M  V30 16218 C 1521.63 2.6887 0.678531 0
M  V30 16219 H 1524.58 1.58487 -0.0821664 0
M  V30 16220 H 1524.6 3.13782 2.15224 0
M  V30 16221 H 1524.12 3.85206 0.473087 0
M  V30 16222 H 1522.22 2.64571 2.6236 0
M  V30 16223 H 1522.33 4.39163 1.91502 0
M  V30 16224 H 1520.69 2.29432 1.10603 0
M  V30 16225 H 1521.48 3.43092 -0.119437 0
M  V30 16226 N 1523.92 -0.412991 1.52093 0
M  V30 16227 C 1525.15 -1.18667 1.70096 0
M  V30 16228 C 1525.57 -1.83622 0.408012 0
M  V30 16229 O 1524.93 -1.69847 -0.634174 0
M  V30 16230 C 1524.98 -2.22837 2.83507 0
M  V30 16231 O 1524.08 -3.2889 2.48807 0
M  V30 16232 H 1523.42 -0.346581 0.566373 0
M  V30 16233 H 1525.95 -0.484642 1.98777 0
M  V30 16234 H 1525.96 -2.67229 3.08306 0
M  V30 16235 H 1524.64 -1.74942 3.77317 0
M  V30 16236 H 1523.21 -2.89804 2.34665 0
M  V30 16237 N 1525.4 -1.4265 -0.669982 0
M  V30 16238 C 1526.35 -1.42958 -1.77615 0
M  V30 16239 C 1527.33 -0.30025 -1.58074 0
M  V30 16240 O 1528.53 -0.54283 -1.68471 0
M  V30 16241 C 1525.65 -1.33911 -3.16106 0
M  V30 16242 C 1524.74 -2.51808 -3.41253 0
M  V30 16243 N 1525.13 -3.77216 -3.36959 0
M  V30 16244 C 1523.43 -2.46172 -3.71908 0
M  V30 16245 C 1524.13 -4.55555 -3.61724 0
M  V30 16246 N 1523.11 -3.86036 -3.82724 0
M  V30 16247 H 1526.91 -2.3781 -1.72696 0
M  V30 16248 H 1524.42 -1.37066 -0.871009 0
M  V30 16249 H 1526.42 -1.32214 -3.9538 0
M  V30 16250 H 1525.08 -0.400652 -3.22219 0
M  V30 16251 H 1526.09 -4.09743 -3.16751 0
M  V30 16252 H 1522.77 -1.6093 -3.85237 0
M  V30 16253 H 1524.16 -5.6455 -3.64325 0
M  V30 16254 N 1526.88 0.906753 -1.28902 0
M  V30 16255 C 1527.79 2.04313 -1.15296 0
M  V30 16256 C 1528.8 1.73826 -0.0778619 0
M  V30 16257 O 1529.98 1.99322 -0.288543 0
M  V30 16258 C 1527.04 3.36782 -0.823317 0
M  V30 16259 C 1526.11 3.80834 -1.98152 0
M  V30 16260 C 1525.34 5.06981 -1.66751 0
M  V30 16261 O 1525.56 5.67391 -0.58513 0
M  V30 16262 O 1524.5 5.46915 -2.51332 0
M  V30 16263 H 1528.32 2.18713 -2.10709 0
M  V30 16264 H 1525.91 1.02928 -1.08287 0
M  V30 16265 H 1527.79 4.16298 -0.653735 0
M  V30 16266 H 1526.46 3.23542 0.101097 0
M  V30 16267 H 1525.37 3.02115 -2.2063 0
M  V30 16268 H 1526.7 3.98648 -2.88688 0
M  V30 16269 N 1528.36 1.11264 1.11616 0
M  V30 16270 C 1529.6 0.861639 1.83585 0
M  V30 16271 C 1529.93 -0.611221 1.8433 0
M  V30 16272 O 1529.21 -1.45116 1.29505 0
M  V30 16273 C 1529.49 1.42157 3.30852 0
M  V30 16274 C 1529.35 2.96192 3.38512 0
M  V30 16275 C 1530.66 1.07099 4.2687 0
M  V30 16276 H 1527.78 0.314464 0.666545 0
M  V30 16277 H 1530.43 1.37722 1.30892 0
M  V30 16278 H 1528.58 0.983054 3.75857 0
M  V30 16279 H 1530.25 3.48634 3.0208 0
M  V30 16280 H 1528.49 3.32353 2.7879 0
M  V30 16281 H 1529.16 3.30457 4.42156 0
M  V30 16282 H 1531.64 1.44952 3.90036 0
M  V30 16283 H 1530.51 1.48957 5.28302 0
M  V30 16284 H 1530.77 -0.018482 4.42096 0
M  V30 16285 N 1529.83 -1.29188 0.902679 0
M  V30 16286 C 1530.76 -2.3006 0.399357 0
M  V30 16287 C 1531.74 -1.61724 -0.527199 0
M  V30 16288 O 1532.93 -1.89213 -0.437293 0
M  V30 16289 C 1530.06 -3.45309 -0.371331 0
M  V30 16290 C 1529.01 -4.25466 0.465068 0
M  V30 16291 C 1528.34 -5.32941 -0.433295 0
M  V30 16292 C 1529.64 -4.93287 1.71655 0
M  V30 16293 H 1531.33 -2.72409 1.24233 0
M  V30 16294 H 1528.88 -1.30958 0.598822 0
M  V30 16295 H 1530.83 -4.14955 -0.734207 0
M  V30 16296 H 1529.56 -3.01811 -1.24811 0
M  V30 16297 H 1528.22 -3.57532 0.810315 0
M  V30 16298 H 1527.86 -4.85688 -1.3083 0
M  V30 16299 H 1527.56 -5.87472 0.122657 0
M  V30 16300 H 1529.09 -6.05438 -0.792298 0
M  V30 16301 H 1530.5 -5.55353 1.42323 0
M  V30 16302 H 1528.9 -5.57763 2.21405 0
M  V30 16303 H 1529.97 -4.18406 2.45081 0
M  V30 16304 N 1531.31 -0.665475 -1.42861 0
M  V30 16305 C 1532.22 0.018927 -2.34592 0
M  V30 16306 C 1533.24 0.798967 -1.54572 0
M  V30 16307 O 1534.41 0.743419 -1.87177 0
M  V30 16308 C 1531.48 0.965013 -3.32999 0
M  V30 16309 C 1530.54 0.180544 -4.2892 0
M  V30 16310 C 1529.77 1.08157 -5.22626 0
M  V30 16311 O 1530 2.32101 -5.21043 0
M  V30 16312 O 1528.93 0.54738 -5.99406 0
M  V30 16313 H 1532.76 -0.736444 -2.94636 0
M  V30 16314 H 1530.34 -0.425684 -1.43207 0
M  V30 16315 H 1532.22 1.50839 -3.93479 0
M  V30 16316 H 1530.9 1.7004 -2.75442 0
M  V30 16317 H 1529.8 -0.40671 -3.71883 0
M  V30 16318 H 1531.14 -0.515529 -4.89493 0
M  V30 16319 N 1532.79 1.52222 -0.408187 0
M  V30 16320 C 1534.03 2.03713 0.167444 0
M  V30 16321 C 1534.39 1.28722 1.42459 0
M  V30 16322 O 1535.59 1.70434 2.0786 0
M  V30 16323 C 1533.87 3.55039 0.410146 0
M  V30 16324 S 1535.42 4.28318 0.953358 0
M  V30 16325 H 1532.24 0.709544 0.0454811 0
M  V30 16326 H 1534.84 1.87281 -0.560888 0
M  V30 16327 H 1533.55 4.07199 -0.511618 0
M  V30 16328 H 1533.08 3.75712 1.16638 0
M  V30 16329 H 1535.09 4.43066 2.23399 0
M  V30 16330 N 1534.27 0.138579 1.5699 0
M  V30 16331 C 1535.23 -0.79013 2.1515 0
M  V30 16332 C 1536.23 -1.1811 1.09117 0
M  V30 16333 O 1537.42 -1.1034 1.34798 0
M  V30 16334 C 1534.55 -2.07109 2.70774 0
M  V30 16335 H 1535.75 -0.284343 2.98549 0
M  V30 16336 H 1533.3 -0.11081 1.55907 0
M  V30 16337 H 1534.03 -2.62074 1.91018 0
M  V30 16338 H 1533.82 -1.80004 3.4834 0
M  V30 16339 H 1535.31 -2.73456 3.15613 0
M  V30 16340 N 1535.75 -1.57019 -0.13521 0
M  V30 16341 C 1536.68 -2.02182 -1.16811 0
M  V30 16342 C 1537.66 -0.9034 -1.44127 0
M  V30 16343 O 1538.84 -1.17202 -1.54846 0
M  V30 16344 C 1535.97 -2.41243 -2.49838 0
M  V30 16345 C 1534.93 -3.56379 -2.37018 0
M  V30 16346 C 1534.25 -3.8129 -3.74863 0
M  V30 16347 C 1535.55 -4.88653 -1.84432 0
M  V30 16348 H 1537.25 -2.8872 -0.792529 0
M  V30 16349 H 1534.79 -1.38901 -0.379788 0
M  V30 16350 H 1536.74 -2.7144 -3.22332 0
M  V30 16351 H 1535.47 -1.51656 -2.89254 0
M  V30 16352 H 1534.13 -3.26366 -1.66975 0
M  V30 16353 H 1533.78 -2.88934 -4.11735 0
M  V30 16354 H 1533.48 -4.58781 -3.67143 0
M  V30 16355 H 1535 -4.13924 -4.48887 0
M  V30 16356 H 1536.41 -5.17492 -2.46729 0
M  V30 16357 H 1534.81 -5.70032 -1.87574 0
M  V30 16358 H 1535.88 -4.78242 -0.800759 0
M  V30 16359 N 1537.22 0.404919 -1.52309 0
M  V30 16360 C 1538.16 1.51276 -1.72186 0
M  V30 16361 C 1539.17 1.5125 -0.602276 0
M  V30 16362 O 1540.36 1.55439 -0.877549 0
M  V30 16363 C 1537.46 2.90162 -1.75099 0
M  V30 16364 C 1536.63 3.14333 -3.04161 0
M  V30 16365 C 1535.69 4.33113 -2.9883 0
M  V30 16366 O 1534.72 4.30189 -3.72728 0
M  V30 16367 N 1535.92 5.38451 -2.16911 0
M  V30 16368 H 1538.68 1.34618 -2.67765 0
M  V30 16369 H 1536.24 0.594264 -1.50599 0
M  V30 16370 H 1538.24 3.67697 -1.69058 0
M  V30 16371 H 1536.81 3.00257 -0.869756 0
M  V30 16372 H 1536.03 2.24803 -3.23817 0
M  V30 16373 H 1537.31 3.27327 -3.89531 0
M  V30 16374 H 1536.71 5.43676 -1.56309 0
M  V30 16375 H 1535.27 6.14715 -2.16724 0
M  V30 16376 N 1538.7 1.43003 0.662408 0
M  V30 16377 C 1539.93 1.47555 1.45035 0
M  V30 16378 C 1540.35 0.0906083 1.88582 0
M  V30 16379 O 1539.7 -0.897271 1.58919 0
M  V30 16380 C 1539.75 2.41345 2.69137 0
M  V30 16381 O 1539.47 3.74453 2.27413 0
M  V30 16382 C 1540.98 2.55045 3.62584 0
M  V30 16383 H 1538.2 0.501448 0.44586 0
M  V30 16384 H 1540.74 1.8765 0.812879 0
M  V30 16385 H 1538.89 2.0447 3.29045 0
M  V30 16386 H 1539.31 4.24801 3.07643 0
M  V30 16387 H 1540.78 3.24766 4.46353 0
M  V30 16388 H 1541.26 1.59235 4.09318 0
M  V30 16389 H 1541.87 2.92693 3.08563 0
M  V30 16390 N 1540.18 -0.899904 1.29381 0
M  V30 16391 C 1541.13 -1.9909 1.11119 0
M  V30 16392 C 1542.11 -1.60871 0.030676 0
M  V30 16393 O 1543.31 -1.75192 0.252365 0
M  V30 16394 C 1540.44 -3.34097 0.789552 0
M  V30 16395 C 1539.52 -3.78676 1.90959 0
M  V30 16396 N 1539.91 -3.95492 3.15309 0
M  V30 16397 C 1538.21 -4.0795 1.80258 0
M  V30 16398 C 1538.91 -4.33054 3.8838 0
M  V30 16399 N 1537.89 -4.42087 3.16322 0
M  V30 16400 H 1541.69 -2.1016 2.0545 0
M  V30 16401 H 1539.2 -1.08871 1.20503 0
M  V30 16402 H 1541.2 -4.11962 0.639765 0
M  V30 16403 H 1539.86 -3.24372 -0.14585 0
M  V30 16404 H 1540.87 -3.8103 3.50766 0
M  V30 16405 H 1537.55 -4.06783 0.939877 0
M  V30 16406 H 1538.94 -4.53912 4.95393 0
M  V30 16407 N 1541.66 -1.11854 -1.11024 0
M  V30 16408 C 1543.07 -0.885443 -1.64368 0
M  V30 16409 C 1543.42 0.581455 -1.87386 0
M  V30 16410 O 1542.55 1.44452 -1.61129 0
M  V30 16411 C 1543.14 -1.60082 -2.98595 0
M  V30 16412 C 1541.7 -1.41403 -3.4883 0
M  V30 16413 C 1540.85 -1.64069 -2.23555 0
M  V30 16414 H 1543.8 -1.27418 -0.94606 0
M  V30 16415 H 1543.82 -1.04832 -3.65774 0
M  V30 16416 H 1543.33 -2.66842 -2.8181 0
M  V30 16417 H 1541.43 -0.368727 -3.70771 0
M  V30 16418 H 1541.54 -2.16603 -4.27341 0
M  V30 16419 H 1539.91 -1.06437 -2.31394 0
M  V30 16420 H 1540.69 -2.72112 -2.09308 0
M  V30 16421 N 1543.14 1.28707 -0.909517 0
M  V30 16422 C 1544.08 2.29396 -0.384756 0
M  V30 16423 C 1545.08 1.61179 0.521318 0
M  V30 16424 O 1546.28 1.7543 0.403032 0
M  V30 16425 H 1542.66 0.744518 -0.105814 0
M  V30 16426 H 1544.63 2.71089 -1.24714 0
M  V30 16427 C 1543.38 3.45792 0.363795 0
M  V30 16428 H 1542.7 3.98483 -0.324198 0
M  V30 16429 H 1544.14 4.18254 0.695681 0
M  V30 16430 C 1542.6 2.98075 1.57012 0
M  V30 16431 O 1543.13 3.00187 2.66929 0
M  V30 16432 N 1541.34 2.53787 1.41565 0
M  V30 16433 H 1540.88 2.52268 0.521415 0
M  V30 16434 H 1540.84 2.2222 2.22408 0
M  V30 16435 N 1544.61 0.673042 1.42506 0
M  V30 16436 C 1545.86 0.194864 2.01862 0
M  V30 16437 C 1546.19 -1.19491 1.53087 0
M  V30 16438 O 1545.47 -1.80187 0.732322 0
M  V30 16439 C 1545.75 0.227559 3.5938 0
M  V30 16440 C 1545.6 1.65266 4.18338 0
M  V30 16441 C 1546.92 -0.425197 4.38041 0
M  V30 16442 H 1544.04 0.0722831 0.733447 0
M  V30 16443 H 1546.68 0.857493 1.6955 0
M  V30 16444 H 1544.83 -0.336658 3.87039 0
M  V30 16445 H 1546.51 2.26899 4.0164 0
M  V30 16446 H 1544.75 2.19388 3.74234 0
M  V30 16447 H 1545.42 1.62724 5.2747 0
M  V30 16448 H 1547.9 0.0550709 4.16064 0
M  V30 16449 H 1546.77 -0.371675 5.4764 0
M  V30 16450 H 1547.03 -1.50251 4.15785 0
M  V30 16451 N 1546.09 -1.52004 0.416254 0
M  V30 16452 C 1547.34 -2.02188 -0.157434 0
M  V30 16453 C 1547.67 -1.30097 -1.44182 0
M  V30 16454 O 1546.95 -0.409426 -1.90142 0
M  V30 16455 C 1547.23 -3.57896 -0.397847 0
M  V30 16456 C 1547.08 -4.40628 0.903715 0
M  V30 16457 C 1548.4 -4.24072 -1.17689 0
M  V30 16458 H 1545.52 -0.734889 -0.0557437 0
M  V30 16459 H 1548.16 -1.81831 0.551118 0
M  V30 16460 H 1546.31 -3.75372 -1.00142 0
M  V30 16461 H 1547.98 -4.34848 1.53964 0
M  V30 16462 H 1546.23 -4.06556 1.5131 0
M  V30 16463 H 1546.9 -5.47673 0.689802 0
M  V30 16464 H 1549.37 -4.10738 -0.665832 0
M  V30 16465 H 1548.25 -5.32944 -1.31386 0
M  V30 16466 H 1548.51 -3.83507 -2.19942 0
M  V30 16467 N 1547.57 -0.146903 -1.56914 0
M  V30 16468 C 1548.82 0.504195 -1.95297 0
M  V30 16469 C 1549.13 1.66019 -1.03426 0
M  V30 16470 O 1550.34 2.37591 -1.31388 0
M  V30 16471 C 1548.79 0.948348 -3.47181 0
M  V30 16472 C 1548.4 -0.18071 -4.47635 0
M  V30 16473 C 1550.15 1.56924 -3.9443 0
M  V30 16474 C 1548.05 0.281707 -5.90729 0
M  V30 16475 H 1546.98 0.192127 -0.729111 0
M  V30 16476 H 1549.63 -0.231232 -1.82037 0
M  V30 16477 H 1548.02 1.73903 -3.55772 0
M  V30 16478 H 1549.19 -0.957645 -4.50739 0
M  V30 16479 H 1547.51 -0.710007 -4.10302 0
M  V30 16480 H 1550.1 1.92684 -4.98776 0
M  V30 16481 H 1550.45 2.45816 -3.35976 0
M  V30 16482 H 1550.98 0.843456 -3.88755 0
M  V30 16483 H 1547.72 -0.571839 -6.53001 0
M  V30 16484 H 1547.24 1.02452 -5.90985 0
M  V30 16485 H 1548.92 0.733746 -6.42826 0
M  V30 16486 N 1549.05 1.57088 0.126881 0
M  V30 16487 C 1550.3 1.83624 0.834582 0
M  V30 16488 C 1550.61 0.731331 1.81414 0
M  V30 16489 O 1551.82 0.88286 2.56745 0
M  V30 16490 C 1550.27 3.25529 1.5349 0
M  V30 16491 C 1549.88 4.44008 0.59673 0
M  V30 16492 C 1551.62 3.6132 2.22819 0
M  V30 16493 C 1549.53 5.76939 1.29982 0
M  V30 16494 H 1548.46 0.684858 0.315414 0
M  V30 16495 H 1551.11 1.83292 0.087305 0
M  V30 16496 H 1549.49 3.20306 2.32852 0
M  V30 16497 H 1550.67 4.60511 -0.163109 0
M  V30 16498 H 1548.98 4.16399 0.0108081 0
M  V30 16499 H 1551.58 4.57902 2.76098 0
M  V30 16500 H 1551.92 2.88363 3.00254 0
M  V30 16501 H 1552.46 3.68291 1.50354 0
M  V30 16502 H 1549.2 6.53044 0.566925 0
M  V30 16503 H 1548.72 5.64336 2.03187 0
M  V30 16504 H 1550.39 6.20427 1.8352 0
M  V30 16505 N 1550.53 -0.396836 1.52522 0
M  V30 16506 C 1551.75 -1.16857 1.71345 0
M  V30 16507 C 1552.18 -1.83178 0.427465 0
M  V30 16508 O 1551.53 -1.7051 -0.616123 0
M  V30 16509 C 1551.58 -2.19817 2.85855 0
M  V30 16510 O 1550.69 -3.26233 2.52281 0
M  V30 16511 H 1550.03 -0.340554 0.570017 0
M  V30 16512 H 1552.56 -0.463532 1.9928 0
M  V30 16513 H 1552.57 -2.63944 3.11123 0
M  V30 16514 H 1551.24 -1.70931 3.79151 0
M  V30 16515 H 1549.82 -2.87299 2.37726 0
M  V30 16516 N 1552.01 -1.43353 -0.654814 0
M  V30 16517 C 1552.92 -1.50831 -1.79687 0
M  V30 16518 C 1553.93 -0.395518 -1.69445 0
M  V30 16519 O 1555.11 -0.649408 -1.90643 0
M  V30 16520 C 1552.17 -1.42735 -3.15955 0
M  V30 16521 C 1551.23 -2.64671 -3.38005 0
M  V30 16522 C 1550.47 -2.56952 -4.67773 0
M  V30 16523 O 1550.69 -1.61638 -5.47019 0
M  V30 16524 O 1549.62 -3.47425 -4.91507 0
M  V30 16525 H 1553.45 -2.47266 -1.76333 0
M  V30 16526 H 1551.03 -1.25336 -0.813095 0
M  V30 16527 H 1552.92 -1.40656 -3.97233 0
M  V30 16528 H 1551.59 -0.494334 -3.19903 0
M  V30 16529 H 1550.5 -2.72323 -2.56498 0
M  V30 16530 H 1551.83 -3.5694 -3.38903 0
M  V30 16531 N 1553.48 0.89303 -1.29857 0
M  V30 16532 C 1554.39 2.03079 -1.17457 0
M  V30 16533 C 1555.41 1.73733 -0.0962941 0
M  V30 16534 O 1556.59 1.99005 -0.309667 0
M  V30 16535 C 1553.65 3.3589 -0.858991 0
M  V30 16536 C 1552.71 3.78711 -2.0218 0
M  V30 16537 C 1551.94 5.05184 -1.72118 0
M  V30 16538 O 1552.17 5.66738 -0.645276 0
M  V30 16539 O 1551.1 5.44218 -2.57119 0
M  V30 16540 H 1554.93 2.16465 -2.13017 0
M  V30 16541 H 1552.51 1.01774 -1.09373 0
M  V30 16542 H 1554.39 4.15582 -0.697852 0
M  V30 16543 H 1553.07 3.23631 0.0667756 0
M  V30 16544 H 1551.98 2.99758 -2.23822 0
M  V30 16545 H 1553.31 3.95563 -2.929 0
M  V30 16546 N 1554.96 1.12442 1.10429 0
M  V30 16547 C 1556.19 0.901291 1.85904 0
M  V30 16548 C 1556.6 -0.552928 1.8094 0
M  V30 16549 O 1555.94 -1.39404 1.19633 0
M  V30 16550 C 1556 1.29808 3.35246 0
M  V30 16551 C 1555.67 2.76361 3.63969 0
M  V30 16552 C 1556.67 3.74553 3.60564 0
M  V30 16553 C 1554.35 3.13268 3.92643 0
M  V30 16554 C 1556.34 5.07667 3.85426 0
M  V30 16555 C 1554.03 4.46564 4.17162 0
M  V30 16556 C 1555.03 5.43572 4.13544 0
M  V30 16557 O 1554.72 6.74465 4.37439 0
M  V30 16558 H 1554.45 0.321969 0.5944 0
M  V30 16559 H 1557 1.49816 1.40514 0
M  V30 16560 H 1555.23 0.644416 3.81293 0
M  V30 16561 H 1556.92 1.04908 3.92108 0
M  V30 16562 H 1557.69 3.47385 3.3845 0
M  V30 16563 H 1553.57 2.3837 3.94589 0
M  V30 16564 H 1557.11 5.83375 3.82518 0
M  V30 16565 H 1553.01 4.73461 4.38754 0
M  V30 16566 H 1553.78 6.80412 4.54953 0
M  V30 16567 N 1556.44 -1.28223 0.91633 0
M  V30 16568 C 1557.69 -1.9448 0.549734 0
M  V30 16569 C 1558.01 -1.72465 -0.909999 0
M  V30 16570 O 1557.28 -1.06583 -1.64368 0
M  V30 16571 H 1555.86 -0.719641 0.200315 0
M  V30 16572 H 1558.52 -1.56156 1.16625 0
M  V30 16573 H 1557.62 -3.03044 0.746363 0
M  V30 16574 N 1557.92 -0.68059 -1.42147 0
M  V30 16575 C 1558.88 -0.0149865 -2.29195 0
M  V30 16576 C 1559.88 0.723163 -1.43621 0
M  V30 16577 O 1561.07 0.560297 -1.64943 0
M  V30 16578 C 1558.2 0.989375 -3.26227 0
M  V30 16579 H 1559.4 -0.781236 -2.89546 0
M  V30 16580 H 1556.95 -0.443256 -1.49883 0
M  V30 16581 H 1557.68 1.78391 -2.70827 0
M  V30 16582 H 1557.47 0.463401 -3.89352 0
M  V30 16583 H 1558.96 1.45334 -3.91494 0
M  V30 16584 N 1559.4 1.51781 -0.424309 0
M  V30 16585 C 1560.36 2.25996 0.381903 0
M  V30 16586 C 1561.36 1.28938 0.960813 0
M  V30 16587 O 1562.55 1.52757 0.837306 0
M  V30 16588 C 1559.68 3.04181 1.53904 0
M  V30 16589 H 1560.87 2.98697 -0.268336 0
M  V30 16590 H 1558.43 1.55293 -0.177167 0
M  V30 16591 H 1559.16 2.35866 2.22571 0
M  V30 16592 H 1558.95 3.75457 1.13025 0
M  V30 16593 H 1560.44 3.60434 2.10896 0
M  V30 16594 N 1560.87 0.155222 1.56834 0
M  V30 16595 C 1562.15 -0.539327 1.88018 0
M  V30 16596 C 1562.53 -1.8241 1.06253 0
M  V30 16597 O 1561.88 -2.27996 0.151721 0
M  V30 16598 C 1562.09 -0.796826 3.39782 0
M  V30 16599 C 1563.44 -1.13397 4.09178 0
M  V30 16600 O 1564.46 -0.885907 3.45007 0
M  V30 16601 O 1563.32 -1.60117 5.22518 0
M  V30 16602 H 1560.41 -0.276066 0.779562 0
M  V30 16603 H 1562.96 0.192451 1.68605 0
M  V30 16604 H 1561.73 0.112097 3.91139 0
M  V30 16605 H 1561.35 -1.5825 3.6475 0
M  V30 16606 N 1562.35 -1.57153 -0.118549 0
M  V30 16607 C 1563.3 -2.00374 -1.14538 0
M  V30 16608 C 1564.27 -0.875964 -1.41124 0
M  V30 16609 O 1565.45 -1.14022 -1.52982 0
M  V30 16610 C 1562.59 -2.4135 -2.46666 0
M  V30 16611 C 1561.71 -3.67545 -2.27012 0
M  V30 16612 C 1560.84 -3.975 -3.52374 0
M  V30 16613 C 1559.88 -5.16877 -3.27879 0
M  V30 16614 N 1559.02 -5.427 -4.45445 0
M  V30 16615 H 1563.86 -2.87885 -0.769821 0
M  V30 16616 H 1561.39 -1.42406 -0.368622 0
M  V30 16617 H 1563.35 -2.63144 -3.23745 0
M  V30 16618 H 1561.98 -1.5688 -2.82114 0
M  V30 16619 H 1561.03 -3.53364 -1.40848 0
M  V30 16620 H 1562.35 -4.54777 -2.04889 0
M  V30 16621 H 1561.5 -4.19945 -4.37871 0
M  V30 16622 H 1560.24 -3.08745 -3.77529 0
M  V30 16623 H 1559.24 -4.94276 -2.40773 0
M  V30 16624 H 1560.47 -6.0721 -3.04094 0
M  V30 16625 H 1558.42 -4.56902 -4.70719 0
M  V30 16626 H 1558.33 -6.24256 -4.26428 0
M  V30 16627 H 1559.6 -5.69664 -5.32074 0
M  V30 16628 N 1563.83 0.388742 -1.5273 0
M  V30 16629 C 1565.06 1.15495 -1.71664 0
M  V30 16630 C 1565.47 1.83717 -0.435127 0
M  V30 16631 O 1564.83 1.72686 0.590411 0
M  V30 16632 C 1564.88 2.20279 -2.86635 0
M  V30 16633 O 1564.6 1.54838 -4.09825 0
M  V30 16634 C 1566.1 3.09625 -3.1725 0
M  V30 16635 H 1563.32 0.346271 -0.57475 0
M  V30 16636 H 1565.87 0.454729 -1.9938 0
M  V30 16637 H 1564.02 2.85936 -2.61379 0
M  V30 16638 H 1564.44 2.24466 -4.74042 0
M  V30 16639 H 1565.91 3.79177 -4.01159 0
M  V30 16640 H 1566.39 3.73147 -2.31643 0
M  V30 16641 H 1566.99 2.49612 -3.44345 0
M  V30 16642 N 1565.31 1.43698 0.647203 0
M  V30 16643 C 1566.24 1.52135 1.77136 0
M  V30 16644 C 1567.22 0.375551 1.65902 0
M  V30 16645 O 1568.4 0.593564 1.84907 0
M  V30 16646 C 1565.53 1.44974 3.15594 0
M  V30 16647 C 1564.49 2.57866 3.41598 0
M  V30 16648 C 1563.81 2.35757 4.7992 0
M  V30 16649 C 1565.11 4.00089 3.35747 0
M  V30 16650 H 1566.81 2.46227 1.70332 0
M  V30 16651 H 1564.35 1.18507 0.818046 0
M  V30 16652 H 1566.31 1.4948 3.93997 0
M  V30 16653 H 1565.03 0.473905 3.23143 0
M  V30 16654 H 1563.69 2.52722 2.65569 0
M  V30 16655 H 1563.34 1.36403 4.84152 0
M  V30 16656 H 1563.04 3.11436 4.98278 0
M  V30 16657 H 1564.56 2.42055 5.60572 0
M  V30 16658 H 1565.98 4.06687 4.04078 0
M  V30 16659 H 1564.37 4.75842 3.65642 0
M  V30 16660 H 1565.44 4.24798 2.33825 0
M  V30 16661 N 1566.79 -0.886131 1.30328 0
M  V30 16662 C 1568.03 -1.64032 1.20271 0
M  V30 16663 C 1568.39 -1.90891 -0.240498 0
M  V30 16664 O 1567.68 -1.51793 -1.16916 0
M  V30 16665 C 1567.87 -2.98624 1.96364 0
M  V30 16666 C 1567.7 -2.84904 3.47936 0
M  V30 16667 C 1566.47 -2.84948 4.17292 0
M  V30 16668 C 1568.67 -2.60937 4.43189 0
M  V30 16669 N 1566.65 -2.62108 5.55133 0
M  V30 16670 C 1568.02 -2.47208 5.68584 0
M  V30 16671 C 1570.08 -2.46153 4.32797 0
M  V30 16672 C 1568.78 -2.20198 6.84767 0
M  V30 16673 C 1570.81 -2.20528 5.48745 0
M  V30 16674 C 1570.17 -2.07574 6.73121 0
M  V30 16675 H 1566.27 -0.605263 0.495158 0
M  V30 16676 H 1568.85 -1.0443 1.64324 0
M  V30 16677 H 1567.02 -3.5626 1.54703 0
M  V30 16678 H 1568.76 -3.63228 1.78458 0
M  V30 16679 H 1565.51 -2.96736 3.69114 0
M  V30 16680 H 1565.94 -2.53703 6.27665 0
M  V30 16681 H 1570.58 -2.54904 3.37319 0
M  V30 16682 H 1568.3 -2.10185 7.80287 0
M  V30 16683 H 1571.88 -2.09912 5.42612 0
M  V30 16684 H 1570.76 -1.88023 7.61326 0
M  V30 16685 N 1568.26 -1.13026 -1.09832 0
M  V30 16686 C 1569.68 -0.867598 -1.33959 0
M  V30 16687 C 1569.88 0.499047 -1.95222 0
M  V30 16688 O 1568.94 1.24644 -2.19591 0
M  V30 16689 C 1570.25 -1.98893 -2.25526 0
M  V30 16690 C 1571.8 -2.02054 -2.39047 0
M  V30 16691 C 1572.27 -3.13438 -3.33947 0
M  V30 16692 N 1573.76 -3.12921 -3.41518 0
M  V30 16693 C 1574.5 -3.95746 -4.14937 0
M  V30 16694 N 1573.99 -4.88574 -4.91189 0
M  V30 16695 N 1575.79 -3.8386 -4.10619 0
M  V30 16696 H 1567.94 -2.01072 -0.684382 0
M  V30 16697 H 1570.2 -0.875341 -0.363982 0
M  V30 16698 H 1569.91 -2.97405 -1.87731 0
M  V30 16699 H 1569.78 -1.89948 -3.25883 0
M  V30 16700 H 1572.17 -1.04158 -2.76107 0
M  V30 16701 H 1572.25 -2.15072 -1.38483 0
M  V30 16702 H 1571.89 -4.11571 -2.9761 0
M  V30 16703 H 1571.82 -2.97658 -4.34405 0
M  V30 16704 H 1574.31 -2.45677 -2.87144 0
M  V30 16705 H 1574.63 -5.48269 -5.44629 0
M  V30 16706 H 1572.97 -4.92583 -4.90292 0
M  V30 16707 H 1576.16 -3.10669 -3.50146 0
M  V30 16708 H 1576.34 -4.48637 -4.67577 0
M  V30 16709 N 1569.74 1.27735 -0.923117 0
M  V30 16710 C 1570.99 1.94858 -0.56198 0
M  V30 16711 C 1571.32 1.72414 0.893698 0
M  V30 16712 O 1570.6 1.05054 1.63689 0
M  V30 16713 C 1570.88 3.49102 -0.883173 0
M  V30 16714 C 1570.73 3.80908 -2.39227 0
M  V30 16715 C 1572.05 4.38405 -0.385848 0
M  V30 16716 H 1569.17 0.707728 -0.205646 0
M  V30 16717 H 1571.81 1.50935 -1.15406 0
M  V30 16718 H 1569.96 3.86644 -0.379292 0
M  V30 16719 H 1571.63 3.53182 -2.96749 0
M  V30 16720 H 1569.88 3.2762 -2.84337 0
M  V30 16721 H 1570.55 4.88653 -2.56754 0
M  V30 16722 H 1573.02 4.07988 -0.817631 0
M  V30 16723 H 1571.9 5.45161 -0.63958 0
M  V30 16724 H 1572.16 4.36296 0.714009 0
M  V30 16725 N 1571.22 0.688118 1.41784 0
M  V30 16726 C 1572.47 0.216263 2.01644 0
M  V30 16727 C 1572.8 -1.17861 1.54345 0
M  V30 16728 O 1572.07 -1.794 0.751392 0
M  V30 16729 C 1572.36 0.265663 3.59119 0
M  V30 16730 C 1572.21 1.69694 4.16562 0
M  V30 16731 C 1573.53 -0.378713 4.38468 0
M  V30 16732 H 1570.65 0.0800582 0.732639 0
M  V30 16733 H 1573.29 0.875428 1.68631 0
M  V30 16734 H 1571.44 -0.295588 3.87374 0
M  V30 16735 H 1573.11 2.31146 3.9921 0
M  V30 16736 H 1571.36 2.23345 3.71886 0
M  V30 16737 H 1572.03 1.68309 5.25715 0
M  V30 16738 H 1574.5 0.0991969 4.15982 0
M  V30 16739 H 1573.38 -0.31357 5.48004 0
M  V30 16740 H 1573.64 -1.45832 4.17355 0
M  V30 16741 N 1572.7 -1.51554 0.432352 0
M  V30 16742 C 1573.63 -2.25369 -0.417328 0
M  V30 16743 C 1574.64 -1.29197 -0.990551 0
M  V30 16744 O 1575.83 -1.54985 -0.885539 0
M  V30 16745 C 1572.93 -2.99006 -1.59526 0
M  V30 16746 C 1572.11 -4.22234 -1.1418 0
M  V30 16747 C 1571.16 -4.78495 -2.18928 0
M  V30 16748 O 1570.19 -5.40465 -1.78566 0
M  V30 16749 N 1571.39 -4.62091 -3.51358 0
M  V30 16750 H 1574.16 -2.98926 0.215294 0
M  V30 16751 H 1571.72 -1.59783 0.26097 0
M  V30 16752 H 1573.71 -3.33532 -2.29212 0
M  V30 16753 H 1572.28 -2.28491 -2.13332 0
M  V30 16754 H 1571.5 -3.93259 -0.272182 0
M  V30 16755 H 1572.79 -5.02212 -0.816145 0
M  V30 16756 H 1572.19 -4.12718 -3.86885 0
M  V30 16757 H 1570.74 -5.00992 -4.16953 0
M  V30 16758 N 1574.18 -0.163538 -1.56749 0
M  V30 16759 C 1575.45 0.529349 -1.88301 0
M  V30 16760 C 1575.83 1.81844 -1.07219 0
M  V30 16761 O 1575.18 2.27912 -0.16381 0
M  V30 16762 C 1575.39 0.778796 -3.402 0
M  V30 16763 C 1576.74 1.11225 -4.09773 0
M  V30 16764 O 1577.76 0.867598 -3.45472 0
M  V30 16765 O 1576.62 1.57344 -5.2336 0
M  V30 16766 H 1573.72 0.271928 -0.781015 0
M  V30 16767 H 1576.26 -0.20139 -1.68501 0
M  V30 16768 H 1575.03 -0.132839 -3.91074 0
M  V30 16769 H 1574.66 1.56313 -3.65584 0
M  V30 16770 N 1575.65 1.57214 0.110213 0
M  V30 16771 C 1576.9 1.84498 0.815059 0
M  V30 16772 C 1577.22 0.750531 1.80628 0
M  V30 16773 O 1578.42 0.910042 2.55794 0
M  V30 16774 C 1576.88 3.27138 1.50028 0
M  V30 16775 C 1576.49 4.44616 0.549603 0
M  V30 16776 C 1578.23 3.63662 2.18975 0
M  V30 16777 C 1576.14 5.78285 1.23855 0
M  V30 16778 H 1575.07 0.688165 0.308132 0
M  V30 16779 H 1577.72 1.83374 0.0678595 0
M  V30 16780 H 1576.1 3.22758 2.29441 0
M  V30 16781 H 1577.27 4.60312 -0.211944 0
M  V30 16782 H 1575.59 4.16387 -0.0333571 0
M  V30 16783 H 1578.19 4.60804 2.71226 0
M  V30 16784 H 1578.53 2.91532 2.97178 0
M  V30 16785 H 1579.06 3.69865 1.46439 0
M  V30 16786 H 1575.8 6.53608 0.497629 0
M  V30 16787 H 1575.32 5.66459 1.9719 0
M  V30 16788 H 1577 6.22338 1.76929 0
M  V30 16789 N 1577.13 -0.380637 1.52934 0
M  V30 16790 C 1578.1 -1.44819 1.77652 0
M  V30 16791 C 1579.1 -1.47224 0.646657 0
M  V30 16792 O 1580.29 -1.48248 0.91477 0
M  V30 16793 C 1577.42 -2.8405 1.8849 0
M  V30 16794 H 1578.61 -1.24183 2.72981 0
M  V30 16795 H 1576.16 -0.61288 1.43783 0
M  V30 16796 H 1576.9 -3.1002 0.951751 0
M  V30 16797 H 1576.68 -2.83704 2.70655 0
M  V30 16798 H 1578.17 -3.61388 2.09257 0
M  V30 16799 N 1578.61 -1.44039 -0.639573 0
M  V30 16800 C 1579.89 -1.36853 -1.39752 0
M  V30 16801 C 1580.27 -0.0230515 -2.11087 0
M  V30 16802 O 1579.62 0.994061 -2.05744 0
M  V30 16803 C 1579.83 -2.56101 -2.37093 0
M  V30 16804 C 1581.17 -2.99793 -3.00681 0
M  V30 16805 O 1582.2 -2.56246 -2.4742 0
M  V30 16806 O 1581.06 -3.75274 -3.97281 0
M  V30 16807 H 1578.15 -0.541521 -0.625047 0
M  V30 16808 H 1580.7 -1.56113 -0.665336 0
M  V30 16809 H 1579.47 -3.45647 -1.83422 0
M  V30 16810 H 1579.09 -2.39011 -3.17741 0
M  V30 16811 N 1580.09 0.879207 -1.30796 0
M  V30 16812 C 1581.33 1.63392 -1.20129 0
M  V30 16813 C 1581.67 1.92684 0.242164 0
M  V30 16814 O 1580.94 1.55188 1.17247 0
M  V30 16815 C 1581.23 2.97005 -2.03618 0
M  V30 16816 C 1581.08 2.74649 -3.56214 0
M  V30 16817 C 1582.4 3.97998 -1.87845 0
M  V30 16818 H 1579.52 0.592911 -0.437751 0
M  V30 16819 H 1582.16 1.017 -1.6049 0
M  V30 16820 H 1580.31 3.49659 -1.69326 0
M  V30 16821 H 1581.98 2.28738 -4.00595 0
M  V30 16822 H 1580.22 2.09048 -3.80107 0
M  V30 16823 H 1580.89 3.69681 -4.09927 0
M  V30 16824 H 1583.37 3.54523 -2.17836 0
M  V30 16825 H 1582.25 4.89388 -2.48578 0
M  V30 16826 H 1582.51 4.34062 -0.839183 0
M  V30 16827 N 1581.57 1.13606 1.09231 0
M  V30 16828 C 1582.81 0.900386 1.81717 0
M  V30 16829 C 1583.15 -0.571984 1.85586 0
M  V30 16830 O 1582.42 -1.42336 1.32554 0
M  V30 16831 C 1582.7 1.49143 3.27763 0
M  V30 16832 C 1582.56 3.03306 3.32153 0
M  V30 16833 C 1583.88 1.16129 4.24502 0
M  V30 16834 H 1581 0.328531 0.659724 0
M  V30 16835 H 1583.64 1.40467 1.27941 0
M  V30 16836 H 1581.79 1.06256 3.73687 0
M  V30 16837 H 1583.46 3.54963 2.94617 0
M  V30 16838 H 1581.7 3.38192 2.71677 0
M  V30 16839 H 1582.37 3.39761 4.35047 0
M  V30 16840 H 1584.85 1.53193 3.86874 0
M  V30 16841 H 1583.73 1.60129 5.25024 0
M  V30 16842 H 1583.99 0.0752973 4.42036 0
M  V30 16843 N 1583.05 -1.27244 0.929878 0
M  V30 16844 C 1584.29 -1.96034 0.578782 0
M  V30 16845 C 1584.65 -1.71449 -0.86425 0
M  V30 16846 O 1585.85 -2.33946 -1.32373 0
M  V30 16847 C 1584.12 -3.45925 0.898374 0
M  V30 16848 S 1585.68 -4.33867 0.65612 0
M  V30 16849 H 1582.5 -0.678166 0.213569 0
M  V30 16850 H 1585.1 -1.54433 1.19878 0
M  V30 16851 H 1583.8 -3.61317 1.94624 0
M  V30 16852 H 1583.34 -3.92488 0.267655 0
M  V30 16853 H 1585.35 -4.93823 -0.485059 0
M  V30 16854 N 1584.52 -0.695628 -1.41417 0
M  V30 16855 C 1585.49 -0.0392949 -2.29166 0
M  V30 16856 C 1586.49 0.70789 -1.4438 0
M  V30 16857 O 1587.68 0.542771 -1.65528 0
M  V30 16858 C 1584.81 0.954719 -3.27258 0
M  V30 16859 H 1586 -0.811902 -2.88701 0
M  V30 16860 H 1583.55 -0.459128 -1.49405 0
M  V30 16861 H 1584.29 1.75509 -2.72703 0
M  V30 16862 H 1584.07 0.422079 -3.89822 0
M  V30 16863 H 1585.56 1.41174 -3.93014 0
M  V30 16864 N 1586 1.51322 -0.440383 0
M  V30 16865 C 1587.42 1.5933 -0.0928372 0
M  V30 16866 C 1587.62 1.45107 1.39807 0
M  V30 16867 O 1586.67 1.29385 2.16831 0
M  V30 16868 C 1587.99 2.9433 -0.615663 0
M  V30 16869 C 1589.53 3.07647 -0.576373 0
M  V30 16870 C 1590.01 4.45176 -1.07622 0
M  V30 16871 N 1591.5 4.51504 -1.03434 0
M  V30 16872 C 1592.24 5.56249 -1.39194 0
M  V30 16873 N 1591.73 6.68398 -1.82254 0
M  V30 16874 N 1593.52 5.46624 -1.30991 0
M  V30 16875 H 1585.68 1.58812 -1.41041 0
M  V30 16876 H 1587.94 0.748795 -0.581386 0
M  V30 16877 H 1587.64 3.10117 -1.65892 0
M  V30 16878 H 1587.52 3.77176 -0.0422513 0
M  V30 16879 H 1589.91 2.91526 0.457904 0
M  V30 16880 H 1589.99 2.26633 -1.18622 0
M  V30 16881 H 1589.63 4.62044 -2.10898 0
M  V30 16882 H 1589.56 5.24734 -0.442882 0
M  V30 16883 H 1592.05 3.71013 -0.718156 0
M  V30 16884 H 1592.36 7.44347 -2.07769 0
M  V30 16885 H 1590.71 6.69598 -1.86183 0
M  V30 16886 H 1593.9 4.57894 -0.972145 0
M  V30 16887 H 1594.07 6.28143 -1.59188 0
M  V30 16888 N 1587.48 0.171848 1.5666 0
M  V30 16889 C 1588.44 -0.744316 2.16778 0
M  V30 16890 C 1589.44 -1.15769 1.11598 0
M  V30 16891 O 1590.63 -1.07456 1.37109 0
M  V30 16892 C 1587.76 -2.01319 2.75106 0
M  V30 16893 H 1588.96 -0.220952 2.99085 0
M  V30 16894 H 1586.51 -0.0777149 1.56107 0
M  V30 16895 H 1587.25 -2.57963 1.96534 0
M  V30 16896 H 1587.03 -1.72575 3.5208 0
M  V30 16897 H 1588.52 -2.667 3.21342 0
M  V30 16898 N 1588.96 -1.5727 -0.101874 0
M  V30 16899 C 1590.23 -1.76745 -0.837888 0
M  V30 16900 C 1590.61 -0.751766 -1.9726 0
M  V30 16901 O 1589.96 0.221046 -2.27428 0
M  V30 16902 C 1590.17 -3.22302 -1.33875 0
M  V30 16903 C 1591.52 -3.85292 -1.78425 0
M  V30 16904 O 1592.54 -3.2601 -1.43514 0
M  V30 16905 O 1591.4 -4.89526 -2.42953 0
M  V30 16906 H 1588.5 -0.724294 -0.399157 0
M  V30 16907 H 1591.04 -1.69491 -0.0842821 0
M  V30 16908 H 1589.82 -3.87756 -0.525434 0
M  V30 16909 H 1589.44 -3.34162 -2.15456 0
M  V30 16910 N 1590.44 0.372521 -1.53134 0
M  V30 16911 C 1591.68 1.11754 -1.6923 0
M  V30 16912 C 1592.01 1.89167 -0.439265 0
M  V30 16913 O 1591.29 1.86164 0.563317 0
M  V30 16914 C 1591.57 2.08242 -2.93781 0
M  V30 16915 C 1591.43 1.34484 -4.29225 0
M  V30 16916 C 1592.74 3.08457 -3.13914 0
M  V30 16917 H 1589.86 0.404898 -0.615814 0
M  V30 16918 H 1592.51 0.399101 -1.85761 0
M  V30 16919 H 1590.66 2.69507 -2.79818 0
M  V30 16920 H 1592.33 0.76056 -4.54987 0
M  V30 16921 H 1590.57 0.646673 -4.28953 0
M  V30 16922 H 1591.24 2.05071 -5.12494 0
M  V30 16923 H 1593.72 2.57292 -3.27017 0
M  V30 16924 H 1592.59 3.73198 -4.0251 0
M  V30 16925 H 1592.85 3.78243 -2.28878 0
M  V30 16926 N 1591.91 1.44376 0.631925 0
M  V30 16927 C 1593.16 1.46827 1.38875 0
M  V30 16928 C 1593.48 0.101789 1.94734 0
M  V30 16929 O 1592.75 -0.86579 1.7573 0
M  V30 16930 H 1591.33 0.540642 0.515475 0
M  V30 16931 H 1593.99 1.80148 0.743822 0
M  V30 16932 H 1593.09 2.19321 2.22047 0
M  V30 16933 N 1593.39 -0.872258 1.31261 0
M  V30 16934 C 1594.34 -1.97926 1.18718 0
M  V30 16935 C 1595.31 -1.65937 0.0735242 0
M  V30 16936 O 1596.49 -1.89208 0.245979 0
M  V30 16937 C 1593.63 -3.33208 0.898117 0
M  V30 16938 C 1592.75 -3.77808 2.09488 0
M  V30 16939 C 1591.88 -5.01796 1.74281 0
M  V30 16940 C 1590.92 -5.38838 2.90379 0
M  V30 16941 N 1590.06 -6.54007 2.55382 0
M  V30 16942 H 1594.9 -2.07986 2.13415 0
M  V30 16943 H 1592.43 -1.01821 1.06165 0
M  V30 16944 H 1594.39 -4.11095 0.711089 0
M  V30 16945 H 1593.02 -3.22798 -0.0120097 0
M  V30 16946 H 1592.07 -2.95722 2.39276 0
M  V30 16947 H 1593.39 -4.01191 2.96391 0
M  V30 16948 H 1592.54 -5.87344 1.52027 0
M  V30 16949 H 1591.28 -4.80312 0.845665 0
M  V30 16950 H 1590.28 -4.51811 3.13284 0
M  V30 16951 H 1591.51 -5.62289 3.80799 0
M  V30 16952 H 1589.46 -6.34073 1.68188 0
M  V30 16953 H 1589.37 -6.77322 3.35814 0
M  V30 16954 H 1590.64 -7.42752 2.36516 0
M  V30 16955 N 1594.87 -1.14184 -1.08627 0
M  V30 16956 C 1595.82 -0.822297 -2.1758 0
M  V30 16957 C 1596.81 0.198863 -1.68229 0
M  V30 16958 O 1598.02 0.0551869 -1.79915 0
M  V30 16959 H 1594.39 -0.248183 -0.709866 0
M  V30 16960 H 1596.36 -1.74916 -2.41758 0
M  V30 16961 C 1595.11 -0.313671 -3.46282 0
M  V30 16962 H 1594.44 -1.09078 -3.84632 0
M  V30 16963 H 1595.88 -0.128604 -4.23805 0
M  V30 16964 C 1594.33 0.962289 -3.22865 0
M  V30 16965 O 1594.86 2.03649 -3.46251 0
M  V30 16966 N 1593.07 0.896635 -2.76421 0
M  V30 16967 H 1592.62 0.0223186 -2.5759 0
M  V30 16968 H 1592.58 1.75093 -2.61132 0
M  V30 16969 N 1596.35 1.26749 -0.936613 0
M  V30 16970 C 1597.58 1.97772 -0.597489 0
M  V30 16971 C 1597.99 1.69984 0.830796 0
M  V30 16972 O 1597.33 0.962037 1.56495 0
M  V30 16973 C 1597.39 3.51497 -0.754307 0
M  V30 16974 C 1597.06 4.02926 -2.15637 0
M  V30 16975 C 1598.05 4.15016 -3.13141 0
M  V30 16976 C 1595.74 4.37051 -2.47572 0
M  V30 16977 C 1597.73 4.60518 -4.40683 0
M  V30 16978 C 1595.42 4.82242 -3.75347 0
M  V30 16979 C 1596.42 4.93936 -4.71716 0
M  V30 16980 O 1596.1 5.38133 -5.97217 0
M  V30 16981 H 1595.84 0.637664 -0.224412 0
M  V30 16982 H 1598.39 1.62341 -1.25836 0
M  V30 16983 H 1596.62 3.86683 -0.0363189 0
M  V30 16984 H 1598.31 4.03732 -0.418921 0
M  V30 16985 H 1599.08 3.88903 -2.89792 0
M  V30 16986 H 1594.95 4.27186 -1.733 0
M  V30 16987 H 1598.5 4.69561 -5.15906 0
M  V30 16988 H 1594.4 5.07799 -3.98511 0
M  V30 16989 H 1595.16 5.56365 -6.00334 0
M  V30 16990 N 1597.83 0.703118 1.41046 0
M  V30 16991 C 1599.07 0.236818 2.00708 0
M  V30 16992 C 1599.4 -1.17008 1.55994 0
M  V30 16993 O 1598.67 -1.79094 0.793871 0
M  V30 16994 H 1597.25 0.0845643 0.742198 0
M  V30 16995 H 1599.91 0.905964 1.72564 0
M  V30 16996 H 1599 0.260141 3.11014 0
M  V30 16997 N 1599.3 -1.51086 0.448402 0
M  V30 16998 C 1600.53 -2.06593 -0.112695 0
M  V30 16999 C 1600.95 -1.31471 -1.35502 0
M  V30 17000 O 1600.3 -0.377406 -1.78555 0
M  V30 17001 C 1600.36 -3.59008 -0.423769 0
M  V30 17002 O 1600.08 -4.31293 0.769259 0
M  V30 17003 C 1601.58 -4.31064 -1.03433 0
M  V30 17004 H 1598.8 -0.670993 -0.00301626 0
M  V30 17005 H 1601.34 -1.94532 0.630667 0
M  V30 17006 H 1599.5 -3.70946 -1.11704 0
M  V30 17007 H 1599.91 -5.2211 0.500162 0
M  V30 17008 H 1601.38 -5.38756 -1.20191 0
M  V30 17009 H 1601.86 -3.90075 -2.01837 0
M  V30 17010 H 1602.47 -4.23598 -0.380115 0
M  V30 17011 N 1600.78 -0.180154 -1.56567 0
M  V30 17012 C 1602.03 0.463205 -1.97439 0
M  V30 17013 C 1602.36 1.62296 -1.06647 0
M  V30 17014 O 1601.64 1.94157 -0.115382 0
M  V30 17015 C 1601.92 0.937709 -3.47677 0
M  V30 17016 C 1601.77 -0.222835 -4.49248 0
M  V30 17017 C 1603.09 1.80836 -4.01231 0
M  V30 17018 H 1600.21 0.166899 -0.717854 0
M  V30 17019 H 1602.85 -0.268069 -1.88099 0
M  V30 17020 H 1601 1.56084 -3.55767 0
M  V30 17021 H 1602.67 -0.860155 -4.5321 0
M  V30 17022 H 1600.92 -0.876962 -4.24843 0
M  V30 17023 H 1601.59 0.151444 -5.51792 0
M  V30 17024 H 1604.06 1.28297 -3.95827 0
M  V30 17025 H 1602.94 2.10937 -5.06751 0
M  V30 17026 H 1603.2 2.75728 -3.45581 0
M  V30 17027 N 1602.26 1.57322 0.0935319 0
M  V30 17028 C 1603.19 2.05208 1.11409 0
M  V30 17029 C 1604.17 0.941295 1.41681 0
M  V30 17030 O 1605.36 1.21266 1.51684 0
M  V30 17031 C 1602.49 2.47782 2.43354 0
M  V30 17032 C 1601.44 3.62538 2.27486 0
M  V30 17033 C 1600.77 3.91095 3.64622 0
M  V30 17034 C 1602.07 4.93371 1.71412 0
M  V30 17035 H 1603.76 2.9072 0.715702 0
M  V30 17036 H 1601.31 1.3986 0.342827 0
M  V30 17037 H 1603.26 2.79891 3.15022 0
M  V30 17038 H 1601.98 1.59272 2.85132 0
M  V30 17039 H 1600.64 3.30679 1.58263 0
M  V30 17040 H 1600.29 2.99749 4.0393 0
M  V30 17041 H 1599.99 4.68353 3.5485 0
M  V30 17042 H 1601.51 4.25679 4.37755 0
M  V30 17043 H 1602.93 5.23851 2.32922 0
M  V30 17044 H 1601.33 5.74804 1.72395 0
M  V30 17045 H 1602.4 4.80197 0.67368 0
M  V30 17046 N 1603.74 -0.364395 1.53329 0
M  V30 17047 C 1604.99 -1.10423 1.68789 0
M  V30 17048 C 1605.3 -1.90428 0.446819 0
M  V30 17049 O 1606.51 -2.67188 0.481978 0
M  V30 17050 C 1604.96 -2.01228 2.98388 0
M  V30 17051 C 1604.57 -1.26529 4.29761 0
M  V30 17052 C 1606.31 -2.75196 3.23214 0
M  V30 17053 C 1604.22 -2.16243 5.50448 0
M  V30 17054 H 1603.15 -0.415935 0.628899 0
M  V30 17055 H 1605.8 -0.365145 1.7983 0
M  V30 17056 H 1604.18 -2.78872 2.81152 0
M  V30 17057 H 1605.36 -0.5394 4.57632 0
M  V30 17058 H 1603.67 -0.644181 4.11387 0
M  V30 17059 H 1606.27 -3.42548 4.10567 0
M  V30 17060 H 1606.61 -3.40629 2.39327 0
M  V30 17061 H 1607.15 -2.04635 3.4113 0
M  V30 17062 H 1603.89 -1.55385 6.36817 0
M  V30 17063 H 1603.41 -2.86678 5.26855 0
M  V30 17064 H 1605.08 -2.75774 5.85284 0
M  V30 17065 N 1605.22 -1.44709 -0.62426 0
M  V30 17066 C 1606.63 -1.42523 -1.20599 0
M  V30 17067 C 1606.98 -0.144129 -1.9567 0
M  V30 17068 O 1606.1 0.755175 -2.02796 0
M  V30 17069 C 1606.7 -2.58194 -2.19365 0
M  V30 17070 C 1605.26 -2.59181 -2.72951 0
M  V30 17071 C 1604.4 -2.34461 -1.48065 0
M  V30 17072 H 1607.36 -1.5319 -0.414532 0
M  V30 17073 H 1607.38 -2.3134 -3.02096 0
M  V30 17074 H 1606.89 -3.5142 -1.64699 0
M  V30 17075 H 1604.99 -1.69916 -3.31601 0
M  V30 17076 H 1605.1 -3.57884 -3.18521 0
M  V30 17077 H 1603.47 -1.83688 -1.76439 0
M  V30 17078 H 1604.25 -3.2981 -0.952918 0
M  V30 17079 N 1606.69 0.865285 -1.31722 0
M  V30 17080 C 1607.97 1.60146 -1.12306 0
M  V30 17081 C 1608.35 2.08653 0.320508 0
M  V30 17082 O 1607.7 1.86841 1.31539 0
M  V30 17083 C 1607.91 2.75583 -2.14138 0
M  V30 17084 C 1609.26 3.45429 -2.46909 0
M  V30 17085 O 1610.28 2.85795 -2.12602 0
M  V30 17086 O 1609.14 4.53017 -3.05676 0
M  V30 17087 H 1606.23 0.704786 -0.432673 0
M  V30 17088 H 1608.78 0.910339 -1.43216 0
M  V30 17089 H 1607.55 2.37187 -3.1122 0
M  V30 17090 H 1607.18 3.52378 -1.84161 0
M  V30 17091 N 1608.17 1.14759 1.0802 0
M  V30 17092 C 1609.14 0.840859 2.13219 0
M  V30 17093 C 1610.14 -0.156309 1.60038 0
M  V30 17094 O 1611.33 0.0725143 1.74049 0
M  V30 17095 C 1608.46 0.254208 3.39951 0
M  V30 17096 H 1609.65 1.77323 2.4186 0
M  V30 17097 H 1607.2 0.954146 1.23797 0
M  V30 17098 H 1607.94 -0.686692 3.16946 0
M  V30 17099 H 1607.72 0.972499 3.79848 0
M  V30 17100 H 1609.21 0.0569551 4.17561 0
M  V30 17101 N 1609.65 -1.26251 0.943322 0
M  V30 17102 C 1610.58 -2.28673 0.472347 0
M  V30 17103 C 1611.56 -1.63319 -0.475481 0
M  V30 17104 O 1612.75 -1.90508 -0.376875 0
M  V30 17105 C 1609.88 -3.46316 -0.261286 0
M  V30 17106 C 1608.83 -4.23771 0.600192 0
M  V30 17107 C 1608.16 -5.3405 -0.263525 0
M  V30 17108 C 1609.46 -4.87576 1.87262 0
M  V30 17109 H 1611.15 -2.68319 1.32836 0
M  V30 17110 H 1608.7 -1.28987 0.640182 0
M  V30 17111 H 1610.65 -4.1708 -0.601821 0
M  V30 17112 H 1609.37 -3.05629 -1.15146 0
M  V30 17113 H 1608.03 -3.54774 0.923651 0
M  V30 17114 H 1607.68 -4.89604 -1.15312 0
M  V30 17115 H 1607.38 -5.86784 0.309495 0
M  V30 17116 H 1608.9 -6.07652 -0.599281 0
M  V30 17117 H 1610.32 -5.50544 1.59919 0
M  V30 17118 H 1608.72 -5.50437 2.39038 0
M  V30 17119 H 1609.79 -4.10397 2.58268 0
M  V30 17120 N 1611.13 -0.710588 -1.40671 0
M  V30 17121 C 1612.06 -0.0694601 -2.33397 0
M  V30 17122 C 1613.04 0.750959 -1.52626 0
M  V30 17123 O 1614.23 0.700896 -1.81111 0
M  V30 17124 C 1611.36 0.856704 -3.36568 0
M  V30 17125 C 1610.31 0.142276 -4.27763 0
M  V30 17126 C 1609.64 1.18382 -5.21431 0
M  V30 17127 C 1610.94 -1.00052 -5.12627 0
M  V30 17128 H 1612.63 -0.843945 -2.87259 0
M  V30 17129 H 1610.18 -0.407287 -1.3812 0
M  V30 17130 H 1612.13 1.31457 -4.00371 0
M  V30 17131 H 1610.85 1.66303 -2.81089 0
M  V30 17132 H 1609.51 -0.295714 -3.65405 0
M  V30 17133 H 1609.16 1.98306 -4.62259 0
M  V30 17134 H 1608.86 0.71071 -5.83286 0
M  V30 17135 H 1610.38 1.64189 -5.88111 0
M  V30 17136 H 1611.8 -0.622246 -5.69913 0
M  V30 17137 H 1610.19 -1.40168 -5.83501 0
M  V30 17138 H 1611.26 -1.83345 -4.48902 0
M  V30 17139 N 1612.61 1.50847 -0.456408 0
M  V30 17140 C 1613.54 2.24825 0.391003 0
M  V30 17141 C 1614.52 1.27531 1.00869 0
M  V30 17142 O 1615.7 1.56717 1.04747 0
M  V30 17143 C 1612.83 3.01329 1.54657 0
M  V30 17144 C 1611.88 4.13431 1.0477 0
M  V30 17145 S 1612.71 5.35494 -0.0257471 0
M  V30 17146 C 1613.86 6.15541 1.13404 0
M  V30 17147 H 1614.1 2.96354 -0.237018 0
M  V30 17148 H 1611.63 1.52506 -0.241121 0
M  V30 17149 H 1613.59 3.46 2.20894 0
M  V30 17150 H 1612.25 2.29354 2.14606 0
M  V30 17151 H 1611.44 4.66309 1.91238 0
M  V30 17152 H 1611.04 3.71119 0.463285 0
M  V30 17153 H 1613.34 6.45784 2.04865 0
M  V30 17154 H 1614.28 7.05158 0.644835 0
M  V30 17155 H 1614.69 5.47341 1.38123 0
M  V30 17156 N 1614.09 0.188454 1.56469 0
M  V30 17157 C 1615.04 -0.747732 2.1539 0
M  V30 17158 C 1616.02 -1.18094 1.09282 0
M  V30 17159 O 1617.21 -1.14045 1.35362 0
M  V30 17160 C 1614.34 -1.96985 2.81162 0
M  V30 17161 C 1613.43 -1.55784 3.94452 0
M  V30 17162 N 1613.82 -0.8564 4.98497 0
M  V30 17163 C 1612.12 -1.84762 4.0593 0
M  V30 17164 C 1612.82 -0.650927 5.78047 0
M  V30 17165 N 1611.79 -1.19762 5.30243 0
M  V30 17166 H 1615.59 -0.203028 2.93198 0
M  V30 17167 H 1613.11 -0.0115881 1.62396 0
M  V30 17168 H 1615.11 -2.65094 3.21762 0
M  V30 17169 H 1613.77 -2.51934 2.0484 0
M  V30 17170 H 1614.78 -0.512583 5.15357 0
M  V30 17171 H 1611.45 -2.41267 3.40729 0
M  V30 17172 H 1612.84 -0.0949739 6.71833 0
M  V30 17173 N 1615.56 -1.5737 -0.0851874 0
M  V30 17174 C 1616.49 -2.05796 -1.10319 0
M  V30 17175 C 1617.47 -0.948796 -1.4118 0
M  V30 17176 O 1618.66 -1.22069 -1.51039 0
M  V30 17177 C 1615.79 -2.49069 -2.42037 0
M  V30 17178 C 1614.74 -3.6374 -2.25561 0
M  V30 17179 C 1614.07 -3.93023 -3.62543 0
M  V30 17180 C 1615.37 -4.94274 -1.68793 0
M  V30 17181 H 1617.06 -2.91095 -0.700274 0
M  V30 17182 H 1614.61 -1.40039 -0.335405 0
M  V30 17183 H 1616.56 -2.81558 -3.13534 0
M  V30 17184 H 1615.29 -1.60781 -2.84283 0
M  V30 17185 H 1613.95 -3.31513 -1.56507 0
M  V30 17186 H 1613.59 -3.01887 -4.02335 0
M  V30 17187 H 1613.29 -4.70229 -3.52362 0
M  V30 17188 H 1614.82 -4.27995 -4.35491 0
M  V30 17189 H 1616.23 -5.25079 -2.30141 0
M  V30 17190 H 1614.63 -5.75711 -1.69344 0
M  V30 17191 H 1615.7 -4.80548 -0.648204 0
M  V30 17192 N 1617.04 0.356258 -1.53521 0
M  V30 17193 C 1618.45 0.932569 -1.61741 0
M  V30 17194 C 1618.8 1.89965 -0.490677 0
M  V30 17195 O 1617.93 2.1301 0.381514 0
M  V30 17196 C 1618.52 1.69818 -2.93168 0
M  V30 17197 C 1617.08 2.22369 -3.03692 0
M  V30 17198 C 1616.23 1.03891 -2.57103 0
M  V30 17199 H 1619.18 0.134769 -1.58127 0
M  V30 17200 H 1619.2 2.56011 -2.81494 0
M  V30 17201 H 1618.71 0.994065 -3.75153 0
M  V30 17202 H 1616.81 2.95994 -2.26314 0
M  V30 17203 H 1616.93 2.49611 -4.08939 0
M  V30 17204 H 1615.29 1.40862 -2.12202 0
M  V30 17205 H 1616.07 0.349637 -3.41515 0
M  V30 17206 N 1618.52 1.45038 0.616577 0
M  V30 17207 C 1619.47 1.49451 1.72187 0
M  V30 17208 C 1620.45 0.358711 1.5685 0
M  V30 17209 O 1621.65 0.604983 1.6634 0
M  V30 17210 C 1618.77 1.45551 3.10918 0
M  V30 17211 C 1617.86 2.643 3.31672 0
M  V30 17212 N 1618.25 3.89462 3.22727 0
M  V30 17213 C 1616.55 2.59805 3.62515 0
M  V30 17214 C 1617.25 4.68667 3.44567 0
M  V30 17215 N 1616.23 3.99974 3.68132 0
M  V30 17216 H 1620.03 2.44055 1.6375 0
M  V30 17217 H 1617.54 1.40205 0.819538 0
M  V30 17218 H 1619.54 1.46797 3.902 0
M  V30 17219 H 1618.2 0.519966 3.2051 0
M  V30 17220 H 1619.21 4.21217 3.01325 0
M  V30 17221 H 1615.89 1.75117 3.78999 0
M  V30 17222 H 1617.28 5.77683 3.43121 0
M  V30 17223 N 1620 -0.858287 1.32179 0
M  V30 17224 C 1620.93 -1.97021 1.15143 0
M  V30 17225 C 1621.91 -1.62517 0.0518379 0
M  V30 17226 O 1623.09 -1.87321 0.210465 0
M  V30 17227 C 1620.22 -3.3002 0.761887 0
M  V30 17228 C 1619.27 -3.83504 1.8662 0
M  V30 17229 S 1620.1 -4.07535 3.47383 0
M  V30 17230 C 1621.25 -5.43514 3.10392 0
M  V30 17231 H 1621.49 -2.11169 2.09272 0
M  V30 17232 H 1619.02 -1.00983 1.16798 0
M  V30 17233 H 1620.98 -4.06881 0.543893 0
M  V30 17234 H 1619.64 -3.1369 -0.160479 0
M  V30 17235 H 1618.83 -4.79685 1.54655 0
M  V30 17236 H 1618.43 -3.13474 2.03986 0
M  V30 17237 H 1620.73 -6.2562 2.60011 0
M  V30 17238 H 1621.67 -5.80439 4.05581 0
M  V30 17239 H 1622.08 -5.07344 2.47511 0
M  V30 17240 N 1621.48 -1.1533 -1.07409 0
M  V30 17241 C 1622.42 -0.849527 -2.14597 0
M  V30 17242 C 1623.39 0.197288 -1.64924 0
M  V30 17243 O 1624.58 0.0649694 -1.90689 0
M  V30 17244 C 1621.72 -0.344327 -3.43378 0
M  V30 17245 C 1620.83 -1.45264 -4.06844 0
M  V30 17246 C 1619.97 -0.90363 -5.23458 0
M  V30 17247 C 1619 -1.98892 -5.78885 0
M  V30 17248 N 1618.14 -1.45633 -6.8683 0
M  V30 17249 H 1622.98 -1.76753 -2.39922 0
M  V30 17250 H 1620.52 -0.881942 -1.17729 0
M  V30 17251 H 1622.48 -0.0331352 -4.17187 0
M  V30 17252 H 1621.11 0.536757 -3.18306 0
M  V30 17253 H 1620.16 -1.88003 -3.30695 0
M  V30 17254 H 1621.47 -2.27207 -4.44048 0
M  V30 17255 H 1620.62 -0.544945 -6.04248 0
M  V30 17256 H 1619.36 -0.0533648 -4.87671 0
M  V30 17257 H 1618.37 -2.35644 -4.96741 0
M  V30 17258 H 1619.59 -2.84295 -6.16728 0
M  V30 17259 H 1617.54 -0.628417 -6.52983 0
M  V30 17260 H 1617.46 -2.21204 -7.22914 0
M  V30 17261 H 1618.72 -1.12587 -7.71326 0
M  V30 17262 N 1622.95 1.25748 -0.950004 0
M  V30 17263 C 1624.2 1.92632 -0.597988 0
M  V30 17264 C 1624.52 1.75268 0.868365 0
M  V30 17265 O 1625.72 2.36684 1.33014 0
M  V30 17266 C 1624.18 3.45179 -1.01879 0
M  V30 17267 C 1623.79 3.71262 -2.50736 0
M  V30 17268 C 1625.53 4.18017 -0.739084 0
M  V30 17269 C 1623.44 5.17292 -2.8664 0
M  V30 17270 H 1622.37 0.72121 -0.219938 0
M  V30 17271 H 1625.02 1.42685 -1.15383 0
M  V30 17272 H 1623.4 3.94061 -0.391395 0
M  V30 17273 H 1624.57 3.33051 -3.18455 0
M  V30 17274 H 1622.89 3.11676 -2.76129 0
M  V30 17275 H 1625.49 5.25576 -0.983555 0
M  V30 17276 H 1625.83 4.15034 0.32439 0
M  V30 17277 H 1626.36 3.75028 -1.32661 0
M  V30 17278 H 1623.1 5.25383 -3.91987 0
M  V30 17279 H 1622.62 5.56567 -2.23591 0
M  V30 17280 H 1624.3 5.85375 -2.75582 0
M  V30 17281 N 1624.43 0.718038 1.40292 0
M  V30 17282 C 1625.36 0.0818367 2.33357 0
M  V30 17283 C 1626.34 -0.742854 1.53022 0
M  V30 17284 O 1627.53 -0.691281 1.8148 0
M  V30 17285 C 1624.66 -0.838843 3.37017 0
M  V30 17286 C 1623.61 -0.119589 4.27833 0
M  V30 17287 C 1622.94 -1.15615 5.22051 0
M  V30 17288 C 1624.24 1.02769 5.1209 0
M  V30 17289 H 1625.93 0.859167 2.86808 0
M  V30 17290 H 1623.48 0.414606 1.37902 0
M  V30 17291 H 1625.43 -1.29332 4.01063 0
M  V30 17292 H 1624.15 -1.6481 2.81967 0
M  V30 17293 H 1622.81 0.315088 3.65243 0
M  V30 17294 H 1622.46 -1.95852 4.63304 0
M  V30 17295 H 1622.16 -0.679767 5.83655 0
M  V30 17296 H 1623.69 -1.61068 5.88973 0
M  V30 17297 H 1625.1 0.652461 5.69575 0
M  V30 17298 H 1623.5 1.4326 5.82749 0
M  V30 17299 H 1624.57 1.85723 4.47923 0
M  V30 17300 N 1625.91 -1.50602 0.464402 0
M  V30 17301 C 1626.84 -2.31252 -0.323263 0
M  V30 17302 C 1627.82 -1.37856 -0.996476 0
M  V30 17303 O 1629.01 -1.66777 -0.994933 0
M  V30 17304 C 1626.14 -3.17414 -1.40945 0
M  V30 17305 C 1625.09 -4.19307 -0.858226 0
M  V30 17306 C 1624.42 -4.94164 -2.0422 0
M  V30 17307 C 1625.72 -5.22148 0.125921 0
M  V30 17308 H 1627.41 -2.97349 0.34983 0
M  V30 17309 H 1624.96 -1.42997 0.169685 0
M  V30 17310 H 1626.91 -3.72627 -1.96791 0
M  V30 17311 H 1625.63 -2.49189 -2.11122 0
M  V30 17312 H 1624.29 -3.65185 -0.321785 0
M  V30 17313 H 1623.94 -4.22417 -2.7308 0
M  V30 17314 H 1623.64 -5.63083 -1.67963 0
M  V30 17315 H 1625.16 -5.5221 -2.60569 0
M  V30 17316 H 1626.58 -5.72272 -0.343136 0
M  V30 17317 H 1624.98 -5.98749 0.402433 0
M  V30 17318 H 1626.05 -4.73307 1.05399 0
M  V30 17319 N 1627.39 -0.19675 -1.56367 0
M  V30 17320 C 1628.61 0.450245 -2.02454 0
M  V30 17321 C 1629.04 1.54287 -1.07597 0
M  V30 17322 O 1628.4 1.81202 -0.0597529 0
M  V30 17323 C 1628.44 0.982087 -3.46969 0
M  V30 17324 O 1627.55 2.09489 -3.5523 0
M  V30 17325 H 1626.89 0.105022 -0.655642 0
M  V30 17326 H 1629.42 -0.308112 -2.02267 0
M  V30 17327 H 1629.43 1.29826 -3.86793 0
M  V30 17328 H 1628.1 0.18224 -4.15501 0
M  V30 17329 H 1626.68 1.78723 -3.27281 0
M  V30 17330 N 1628.87 1.57413 0.0768405 0
M  V30 17331 C 1629.78 2.06688 1.10983 0
M  V30 17332 C 1630.79 0.995392 1.42716 0
M  V30 17333 O 1631.97 1.30977 1.52994 0
M  V30 17334 C 1629.03 2.49676 2.40546 0
M  V30 17335 C 1628.09 3.71101 2.1583 0
M  V30 17336 C 1627.33 4.1203 3.39216 0
M  V30 17337 O 1627.55 3.52877 4.48145 0
M  V30 17338 O 1626.48 5.04856 3.27726 0
M  V30 17339 H 1630.31 2.95012 0.721242 0
M  V30 17340 H 1627.9 1.46546 0.290624 0
M  V30 17341 H 1629.78 2.77871 3.16805 0
M  V30 17342 H 1628.45 1.64484 2.78795 0
M  V30 17343 H 1627.36 3.47996 1.37293 0
M  V30 17344 H 1628.69 4.5713 1.82465 0
M  V30 17345 N 1630.34 -0.348112 1.53707 0
M  V30 17346 C 1631.59 -1.08626 1.69951 0
M  V30 17347 C 1631.91 -1.89944 0.466992 0
M  V30 17348 O 1633.11 -2.66661 0.51029 0
M  V30 17349 C 1631.57 -1.98052 3.00505 0
M  V30 17350 C 1631.18 -1.21963 4.31079 0
M  V30 17351 C 1632.92 -2.71752 3.26115 0
M  V30 17352 C 1630.83 -2.10392 5.52711 0
M  V30 17353 H 1629.76 -0.409241 0.633275 0
M  V30 17354 H 1632.41 -0.346051 1.80207 0
M  V30 17355 H 1630.79 -2.75874 2.84094 0
M  V30 17356 H 1631.96 -0.490831 4.58178 0
M  V30 17357 H 1630.28 -0.600511 4.12047 0
M  V30 17358 H 1632.88 -3.38174 4.14177 0
M  V30 17359 H 1633.22 -3.38072 2.42926 0
M  V30 17360 H 1633.75 -2.01005 3.43281 0
M  V30 17361 H 1630.49 -1.48622 6.38429 0
M  V30 17362 H 1630.01 -2.81074 5.29866 0
M  V30 17363 H 1631.69 -2.69551 5.88176 0
M  V30 17364 N 1631.82 -1.45363 -0.608876 0
M  V30 17365 C 1633.05 -1.53066 -1.39949 0
M  V30 17366 C 1633.47 -0.16369 -1.87386 0
M  V30 17367 O 1632.83 0.851432 -1.60064 0
M  V30 17368 C 1632.88 -2.51836 -2.58091 0
M  V30 17369 O 1631.98 -2.03528 -3.58678 0
M  V30 17370 H 1631.32 -0.516031 -0.417861 0
M  V30 17371 H 1633.85 -1.90705 -0.74113 0
M  V30 17372 H 1633.86 -2.706 -3.05352 0
M  V30 17373 H 1632.54 -3.51117 -2.22912 0
M  V30 17374 H 1631.12 -1.94634 -3.18075 0
M  V30 17375 N 1633.3 0.851265 -1.32632 0
M  V30 17376 C 1634.58 1.58945 -1.13999 0
M  V30 17377 C 1634.96 2.08981 0.29836 0
M  V30 17378 O 1634.31 1.88226 1.2955 0
M  V30 17379 C 1634.52 2.73296 -2.17049 0
M  V30 17380 C 1635.86 3.42791 -2.50559 0
M  V30 17381 O 1636.89 2.83524 -2.15621 0
M  V30 17382 O 1635.75 4.49749 -3.10464 0
M  V30 17383 H 1632.84 0.700157 -0.440124 0
M  V30 17384 H 1635.39 0.895098 -1.44174 0
M  V30 17385 H 1634.16 2.33873 -3.13718 0
M  V30 17386 H 1633.78 3.50405 -1.87888 0
M  V30 17387 N 1634.78 1.15898 1.06796 0
M  V30 17388 C 1636.03 0.931848 1.78884 0
M  V30 17389 C 1636.34 -0.54197 1.87942 0
M  V30 17390 O 1637.55 -0.886848 2.56607 0
M  V30 17391 C 1636 1.61788 3.21485 0
M  V30 17392 C 1635.61 3.12911 3.2061 0
M  V30 17393 C 1637.35 1.47252 3.98142 0
M  V30 17394 C 1635.26 3.74275 4.579 0
M  V30 17395 H 1634.19 0.344998 0.670442 0
M  V30 17396 H 1636.84 1.38974 1.19827 0
M  V30 17397 H 1635.22 1.08769 3.80769 0
M  V30 17398 H 1636.4 3.72732 2.70938 0
M  V30 17399 H 1634.71 3.27273 2.57451 0
M  V30 17400 H 1637.31 1.90484 4.9962 0
M  V30 17401 H 1637.65 0.420766 4.14168 0
M  V30 17402 H 1638.19 1.97398 3.45367 0
M  V30 17403 H 1634.93 4.79376 4.47078 0
M  V30 17404 H 1634.45 3.19238 5.07786 0
M  V30 17405 H 1636.12 3.75532 5.26863 0
M  V30 17406 N 1636.26 -1.25243 0.956659 0
M  V30 17407 C 1637.19 -2.28159 0.496574 0
M  V30 17408 C 1638.17 -1.63814 -0.458132 0
M  V30 17409 O 1639.35 -1.90897 -0.356648 0
M  V30 17410 C 1636.48 -3.46573 -0.22454 0
M  V30 17411 C 1635.44 -4.2311 0.645104 0
M  V30 17412 C 1634.76 -5.343 -0.206867 0
M  V30 17413 C 1636.06 -4.85562 1.92422 0
M  V30 17414 H 1637.76 -2.66895 1.35675 0
M  V30 17415 H 1635.3 -1.28301 0.653827 0
M  V30 17416 H 1637.26 -4.17695 -0.55755 0
M  V30 17417 H 1635.98 -3.06833 -1.11898 0
M  V30 17418 H 1634.64 -3.53774 0.961228 0
M  V30 17419 H 1634.29 -4.908 -1.10112 0
M  V30 17420 H 1633.99 -5.86423 0.371714 0
M  V30 17421 H 1635.51 -6.08253 -0.534798 0
M  V30 17422 H 1636.92 -5.48817 1.65749 0
M  V30 17423 H 1635.32 -5.47871 2.44862 0
M  V30 17424 H 1636.39 -4.07634 2.62607 0
M  V30 17425 N 1637.73 -0.725468 -1.3991 0
M  V30 17426 C 1638.68 -0.0682776 -2.325 0
M  V30 17427 C 1639.68 0.736285 -1.52562 0
M  V30 17428 O 1640.88 0.638542 -1.68293 0
M  V30 17429 H 1637.26 -0.00327742 -0.751993 0
M  V30 17430 H 1639.23 -0.865735 -2.85565 0
M  V30 17431 C 1637.98 0.832036 -3.37598 0
M  V30 17432 H 1637.3 0.222341 -3.99181 0
M  V30 17433 H 1638.74 1.25965 -4.04856 0
M  V30 17434 C 1637.2 1.96201 -2.73874 0
M  V30 17435 O 1637.73 3.05378 -2.60974 0
M  V30 17436 N 1635.94 1.74857 -2.32106 0
M  V30 17437 H 1635.48 0.860621 -2.42798 0
M  V30 17438 H 1635.44 2.50639 -1.89808 0
M  V30 17439 N 1639.21 1.50354 -0.472382 0
M  V30 17440 C 1640.12 2.32318 0.326405 0
M  V30 17441 C 1641.14 1.4276 0.994771 0
M  V30 17442 O 1642.31 1.75811 0.98246 0
M  V30 17443 C 1639.38 3.17468 1.39337 0
M  V30 17444 C 1638.44 4.22848 0.741465 0
M  V30 17445 C 1637.67 5.03929 1.75759 0
M  V30 17446 O 1637.9 4.86105 2.98425 0
M  V30 17447 O 1636.83 5.87051 1.32871 0
M  V30 17448 H 1640.66 3.01749 -0.343702 0
M  V30 17449 H 1638.24 1.47553 -0.234207 0
M  V30 17450 H 1640.12 3.703 2.01136 0
M  V30 17451 H 1638.8 2.50764 2.04692 0
M  V30 17452 H 1637.71 3.74005 0.0844848 0
M  V30 17453 H 1639.04 4.92026 0.130838 0
M  V30 17454 N 1640.69 0.205039 1.56261 0
M  V30 17455 C 1641.65 -0.698166 2.18308 0
M  V30 17456 C 1642.65 -1.13376 1.14029 0
M  V30 17457 O 1643.84 -1.04524 1.39357 0
M  V30 17458 C 1640.98 -1.95438 2.79315 0
M  V30 17459 H 1642.17 -0.157462 2.99486 0
M  V30 17460 H 1639.72 -0.0445849 1.56236 0
M  V30 17461 H 1640.46 -2.53736 2.01962 0
M  V30 17462 H 1640.24 -1.65068 3.55662 0
M  V30 17463 H 1641.73 -2.59824 3.26927 0
M  V30 17464 N 1642.17 -1.57451 -0.0684915 0
M  V30 17465 C 1643.39 -1.92025 -0.78366 0
M  V30 17466 C 1643.82 -0.801743 -1.70158 0
M  V30 17467 O 1643.18 0.245227 -1.79634 0
M  V30 17468 C 1643.23 -3.25563 -1.55051 0
M  V30 17469 O 1642.33 -3.15029 -2.6614 0
M  V30 17470 H 1641.67 -0.628714 -0.213576 0
M  V30 17471 H 1644.2 -2.04569 -0.0357474 0
M  V30 17472 H 1644.21 -3.59516 -1.92905 0
M  V30 17473 H 1642.89 -4.06547 -0.87704 0
M  V30 17474 H 1641.46 -2.9264 -2.31119 0
M  V30 17475 N 1643.65 0.339955 -1.5389 0
M  V30 17476 C 1644.56 1.441 -1.85128 0
M  V30 17477 C 1645.57 1.57399 -0.741733 0
M  V30 17478 O 1646.75 1.72807 -1.0344 0
M  V30 17479 C 1643.81 2.7904 -2.05761 0
M  V30 17480 C 1642.88 2.75055 -3.29611 0
M  V30 17481 C 1642.11 4.0356 -3.4925 0
M  V30 17482 O 1642.33 5.01015 -2.72653 0
M  V30 17483 O 1641.27 4.07813 -4.42687 0
M  V30 17484 H 1645.09 1.20616 -2.78721 0
M  V30 17485 H 1642.68 0.532468 -1.39589 0
M  V30 17486 H 1644.56 3.5895 -2.20756 0
M  V30 17487 H 1643.23 3.02447 -1.15357 0
M  V30 17488 H 1642.14 1.93753 -3.20016 0
M  V30 17489 H 1643.47 2.56602 -4.20019 0
M  V30 17490 N 1645.13 1.45684 0.601159 0
M  V30 17491 C 1646.07 1.54846 1.71147 0
M  V30 17492 C 1647.04 0.393914 1.61361 0
M  V30 17493 O 1648.23 0.608222 1.80846 0
M  V30 17494 C 1645.37 1.52723 3.09467 0
M  V30 17495 C 1644.48 2.78776 3.30012 0
M  V30 17496 C 1643.62 2.68281 4.58474 0
M  V30 17497 C 1642.65 3.89358 4.72299 0
M  V30 17498 N 1641.79 3.77359 5.92068 0
M  V30 17499 H 1646.63 2.49696 1.62653 0
M  V30 17500 H 1644.17 1.23894 0.793006 0
M  V30 17501 H 1646.13 1.49479 3.89502 0
M  V30 17502 H 1644.76 0.614189 3.16903 0
M  V30 17503 H 1643.81 2.9208 2.43708 0
M  V30 17504 H 1645.12 3.68563 3.36099 0
M  V30 17505 H 1644.27 2.63039 5.46713 0
M  V30 17506 H 1643.01 1.76103 4.54795 0
M  V30 17507 H 1642.02 3.94952 3.82482 0
M  V30 17508 H 1643.24 4.82609 4.77771 0
M  V30 17509 H 1641.19 2.87955 5.89422 0
M  V30 17510 H 1641.11 4.60786 5.99343 0
M  V30 17511 H 1642.37 3.76061 6.82787 0
M  V30 17512 N 1646.6 -0.84422 1.33082 0
M  V30 17513 C 1647.85 -1.59596 1.2399 0
M  V30 17514 C 1648.17 -1.94016 -0.19566 0
M  V30 17515 O 1647.44 -1.60512 -1.12306 0
M  V30 17516 H 1646.02 -0.591727 0.455926 0
M  V30 17517 H 1648.68 -1.00924 1.66735 0
M  V30 17518 H 1647.78 -2.52829 1.82986 0
M  V30 17519 N 1648.08 -1.16463 -1.0618 0
M  V30 17520 C 1649.01 -0.829995 -2.13644 0
M  V30 17521 C 1650.03 0.16326 -1.61979 0
M  V30 17522 O 1651.22 -0.0616575 -1.78393 0
M  V30 17523 C 1648.32 -0.215222 -3.38216 0
M  V30 17524 C 1647.49 -1.24886 -4.19192 0
M  V30 17525 C 1646.55 -0.653683 -5.22124 0
M  V30 17526 O 1645.57 -1.32285 -5.53615 0
M  V30 17527 N 1646.78 0.559031 -5.77802 0
M  V30 17528 H 1649.54 -1.75487 -2.42949 0
M  V30 17529 H 1647.1 -1.06212 -1.22191 0
M  V30 17530 H 1649.09 0.196005 -4.04225 0
M  V30 17531 H 1647.66 0.613229 -3.06526 0
M  V30 17532 H 1646.88 -1.83622 -3.48822 0
M  V30 17533 H 1648.17 -1.94639 -4.70099 0
M  V30 17534 H 1647.57 1.12083 -5.54485 0
M  V30 17535 H 1646.13 0.912453 -6.45382 0
M  V30 17536 N 1649.56 1.24734 -0.963288 0
M  V30 17537 C 1650.49 2.27892 -0.508667 0
M  V30 17538 C 1651.47 1.64055 0.449438 0
M  V30 17539 O 1652.66 1.91083 0.346519 0
M  V30 17540 C 1649.79 3.46688 0.206157 0
M  V30 17541 C 1648.74 4.22762 -0.667534 0
M  V30 17542 C 1648.07 5.34402 0.178529 0
M  V30 17543 C 1649.37 4.84535 -1.94995 0
M  V30 17544 H 1651.06 2.66171 -1.37088 0
M  V30 17545 H 1648.61 1.27952 -0.660622 0
M  V30 17546 H 1650.56 4.17985 0.535391 0
M  V30 17547 H 1649.28 3.07422 1.10269 0
M  V30 17548 H 1647.94 3.53259 -0.979976 0
M  V30 17549 H 1647.59 4.91377 1.07508 0
M  V30 17550 H 1647.29 5.86218 -0.402808 0
M  V30 17551 H 1648.81 6.08529 0.502533 0
M  V30 17552 H 1650.23 5.4793 -1.68658 0
M  V30 17553 H 1648.62 5.46564 -2.47765 0
M  V30 17554 H 1649.69 4.06236 -2.64765 0
M  V30 17555 N 1651.04 0.732878 1.39523 0
M  V30 17556 C 1651.97 0.106583 2.33257 0
M  V30 17557 C 1652.95 -0.726582 1.53801 0
M  V30 17558 O 1654.13 -0.671994 1.82203 0
M  V30 17559 C 1651.26 -0.803051 3.37888 0
M  V30 17560 C 1650.22 -0.0742048 4.27936 0
M  V30 17561 C 1649.54 -1.10071 5.23248 0
M  V30 17562 C 1650.84 1.08195 5.10971 0
M  V30 17563 H 1652.54 0.889539 2.8588 0
M  V30 17564 H 1650.08 0.429209 1.37455 0
M  V30 17565 H 1652.04 -1.25071 4.02412 0
M  V30 17566 H 1650.76 -1.6181 2.83699 0
M  V30 17567 H 1649.42 0.35381 3.64889 0
M  V30 17568 H 1649.07 -1.90927 4.65356 0
M  V30 17569 H 1648.77 -0.617825 5.84343 0
M  V30 17570 H 1650.29 -1.54812 5.90649 0
M  V30 17571 H 1651.71 0.712835 5.68851 0
M  V30 17572 H 1650.1 1.49433 5.81197 0
M  V30 17573 H 1651.17 1.90463 4.45928 0
M  V30 17574 N 1652.52 -1.50101 0.480349 0
M  V30 17575 C 1653.43 -2.32488 -0.31408 0
M  V30 17576 C 1654.44 -1.43285 -0.987186 0
M  V30 17577 O 1655.62 -1.7633 -0.973123 0
M  V30 17578 C 1652.68 -3.18203 -1.37651 0
M  V30 17579 C 1651.74 -4.23236 -0.71903 0
M  V30 17580 C 1650.98 -5.04854 -1.73084 0
M  V30 17581 O 1651.2 -4.87681 -2.95843 0
M  V30 17582 O 1650.13 -5.87748 -1.29755 0
M  V30 17583 H 1653.96 -3.01562 0.3597 0
M  V30 17584 H 1651.54 -1.47427 0.242029 0
M  V30 17585 H 1653.43 -3.71362 -1.9917 0
M  V30 17586 H 1652.1 -2.51846 -2.0336 0
M  V30 17587 H 1651.01 -3.74044 -0.0646492 0
M  V30 17588 H 1652.34 -4.92089 -0.104743 0
M  V30 17589 N 1653.99 -0.213323 -1.5615 0
M  V30 17590 C 1654.96 0.686579 -2.18675 0
M  V30 17591 C 1655.96 1.1277 -1.14628 0
M  V30 17592 O 1657.15 1.03783 -1.39909 0
M  V30 17593 C 1654.28 1.93954 -2.80347 0
M  V30 17594 H 1655.47 0.141578 -2.99566 0
M  V30 17595 H 1653.02 0.0362987 -1.56258 0
M  V30 17596 H 1653.76 2.52661 -2.03304 0
M  V30 17597 H 1653.54 1.63179 -3.56532 0
M  V30 17598 H 1655.03 2.58087 -3.283 0
M  V30 17599 N 1655.47 1.57485 0.0601405 0
M  V30 17600 C 1656.89 1.54105 0.415187 0
M  V30 17601 C 1657.09 0.935177 1.78484 0
M  V30 17602 O 1656.14 0.542715 2.46599 0
M  V30 17603 C 1657.46 2.98708 0.34555 0
M  V30 17604 C 1659.01 3.10103 0.424895 0
M  V30 17605 C 1659.48 4.56379 0.385041 0
M  V30 17606 N 1660.97 4.6106 0.444771 0
M  V30 17607 C 1661.71 5.71737 0.436334 0
M  V30 17608 N 1661.2 6.91746 0.38202 0
M  V30 17609 N 1663 5.60014 0.483759 0
M  V30 17610 H 1655.15 1.95232 -0.836565 0
M  V30 17611 H 1657.41 0.894101 -0.3151 0
M  V30 17612 H 1657.12 3.4664 -0.594427 0
M  V30 17613 H 1656.99 3.59201 1.15129 0
M  V30 17614 H 1659.38 2.62137 1.3553 0
M  V30 17615 H 1659.46 2.52499 -0.409633 0
M  V30 17616 H 1659.1 5.05004 -0.541561 0
M  V30 17617 H 1659.03 5.11859 1.23726 0
M  V30 17618 H 1661.52 3.74703 0.490522 0
M  V30 17619 H 1661.84 7.71866 0.379829 0
M  V30 17620 H 1660.18 6.94126 0.348532 0
M  V30 17621 H 1663.37 4.65158 0.523965 0
M  V30 17622 H 1663.54 6.46266 0.473715 0
M  V30 17623 N 1656.95 -0.331789 1.54068 0
M  V30 17624 C 1657.9 -1.42815 1.83593 0
M  V30 17625 C 1658.89 -1.53931 0.707231 0
M  V30 17626 O 1660.1 -1.56414 0.890763 0
M  V30 17627 H 1656.47 -0.476418 0.581833 0
M  V30 17628 H 1658.44 -1.15133 2.75294 0
M  V30 17629 C 1657.19 -2.79162 2.07277 0
M  V30 17630 H 1656.52 -2.7138 2.93586 0
M  V30 17631 H 1657.96 -3.54966 2.31895 0
M  V30 17632 C 1656.42 -3.25691 0.861816 0
M  V30 17633 O 1656.95 -4.01644 0.0670133 0
M  V30 17634 N 1655.15 -2.82634 0.675746 0
M  V30 17635 H 1654.7 -2.20988 1.32371 0
M  V30 17636 H 1654.66 -3.14119 -0.133004 0
M  V30 17637 N 1658.43 -1.46001 -0.593424 0
M  V30 17638 C 1659.71 -1.4123 -1.35327 0
M  V30 17639 C 1660.09 -0.0901956 -2.10907 0
M  V30 17640 O 1659.43 0.928102 -2.08803 0
M  V30 17641 C 1659.64 -2.63515 -2.28825 0
M  V30 17642 C 1660.99 -3.09208 -2.90991 0
M  V30 17643 O 1662.02 -2.63988 -2.39142 0
M  V30 17644 O 1660.87 -3.87723 -3.8514 0
M  V30 17645 H 1657.97 -0.561132 -0.607503 0
M  V30 17646 H 1660.51 -1.58151 -0.615333 0
M  V30 17647 H 1659.29 -3.51308 -1.72333 0
M  V30 17648 H 1658.91 -2.48999 -3.09976 0
M  V30 17649 N 1659.91 0.83715 -1.33527 0
M  V30 17650 C 1660.84 1.96231 -1.26553 0
M  V30 17651 C 1661.82 1.69474 -0.14576 0
M  V30 17652 O 1663 1.91274 -0.335815 0
M  V30 17653 C 1660.13 3.32419 -1.00574 0
M  V30 17654 C 1659.09 3.73577 -2.08864 0
M  V30 17655 C 1658.41 5.07591 -1.68095 0
M  V30 17656 C 1659.71 3.87179 -3.50556 0
M  V30 17657 H 1661.41 2.02324 -2.20693 0
M  V30 17658 H 1658.95 0.972038 -1.06242 0
M  V30 17659 H 1660.91 4.10703 -0.943439 0
M  V30 17660 H 1659.63 3.26587 -0.0287268 0
M  V30 17661 H 1658.29 2.97557 -2.14139 0
M  V30 17662 H 1657.94 4.98232 -0.690922 0
M  V30 17663 H 1657.64 5.361 -2.40563 0
M  V30 17664 H 1659.16 5.88349 -1.63334 0
M  V30 17665 H 1660.57 4.55771 -3.47772 0
M  V30 17666 H 1658.97 4.27127 -4.21524 0
M  V30 17667 H 1660.04 2.8958 -3.88936 0
M  V30 17668 N 1661.38 1.17024 1.05561 0
M  V30 17669 C 1662.63 0.957742 1.7876 0
M  V30 17670 C 1662.96 -0.512652 1.87311 0
M  V30 17671 O 1662.24 -1.38047 1.37016 0
M  V30 17672 C 1662.52 1.59495 3.22852 0
M  V30 17673 C 1662.37 3.13719 3.22336 0
M  V30 17674 C 1663.69 1.29576 4.20593 0
M  V30 17675 H 1660.81 0.349354 0.648938 0
M  V30 17676 H 1663.45 1.44467 1.23408 0
M  V30 17677 H 1661.6 1.18091 3.70117 0
M  V30 17678 H 1663.28 3.64156 2.83175 0
M  V30 17679 H 1661.52 3.46664 2.60781 0
M  V30 17680 H 1662.19 3.5343 4.24018 0
M  V30 17681 H 1664.67 1.65423 3.81804 0
M  V30 17682 H 1663.54 1.76751 5.19663 0
M  V30 17683 H 1663.8 0.21589 4.41573 0
M  V30 17684 N 1662.86 -1.24221 0.969889 0
M  V30 17685 C 1663.81 -2.27299 0.493765 0
M  V30 17686 C 1664.8 -1.63483 -0.443824 0
M  V30 17687 O 1666.01 -1.77153 -0.318873 0
M  V30 17688 H 1662.39 -0.738622 0.141216 0
M  V30 17689 H 1664.36 -2.6483 1.37506 0
M  V30 17690 C 1663.11 -3.47134 -0.198399 0
M  V30 17691 H 1662.43 -3.96483 0.51395 0
M  V30 17692 H 1663.87 -4.21097 -0.495334 0
M  V30 17693 C 1662.33 -3.05227 -1.42612 0
M  V30 17694 O 1662.86 -3.1258 -2.52302 0
M  V30 17695 N 1661.06 -2.60252 -1.29295 0
M  V30 17696 H 1660.61 -2.54468 -0.400461 0
M  V30 17697 H 1660.57 -2.32579 -2.11553 0
M  V30 17698 N 1664.34 -0.740267 -1.39132 0
M  V30 17699 C 1665.27 -0.118951 -2.33197 0
M  V30 17700 C 1666.25 0.718416 -1.54184 0
M  V30 17701 O 1667.44 0.662322 -1.82557 0
M  V30 17702 C 1664.57 0.78512 -3.38309 0
M  V30 17703 C 1663.52 0.0515093 -4.27969 0
M  V30 17704 C 1662.85 1.07295 -5.23824 0
M  V30 17705 C 1664.15 -1.10903 -5.1039 0
M  V30 17706 H 1665.84 -0.904687 -2.85405 0
M  V30 17707 H 1663.39 -0.436493 -1.37225 0
M  V30 17708 H 1665.34 1.22935 -4.03069 0
M  V30 17709 H 1664.06 1.60303 -2.84553 0
M  V30 17710 H 1662.72 -0.373156 -3.64696 0
M  V30 17711 H 1662.37 1.88456 -4.66362 0
M  V30 17712 H 1662.07 0.586827 -5.84662 0
M  V30 17713 H 1663.59 1.51677 -5.91461 0
M  V30 17714 H 1665.01 -0.742993 -5.68465 0
M  V30 17715 H 1663.41 -1.52513 -5.80396 0
M  V30 17716 H 1664.48 -1.92825 -4.44912 0
M  V30 17717 N 1665.82 1.49844 -0.488302 0
M  V30 17718 C 1667.04 2.07313 0.0600937 0
M  V30 17719 C 1667.47 1.3478 1.3121 0
M  V30 17720 O 1666.83 0.400634 1.76818 0
M  V30 17721 C 1666.87 3.59268 0.309658 0
M  V30 17722 O 1665.98 3.88381 1.38688 0
M  V30 17723 H 1665.32 0.663681 -0.0205947 0
M  V30 17724 H 1667.85 1.92818 -0.684284 0
M  V30 17725 H 1667.86 4.04344 0.545 0
M  V30 17726 H 1666.53 4.11474 -0.605146 0
M  V30 17727 H 1665.11 3.55128 1.13749 0
M  V30 17728 N 1667.3 0.221601 1.56034 0
M  V30 17729 C 1668.54 -0.409277 1.97912 0
M  V30 17730 C 1668.87 -1.60291 1.11049 0
M  V30 17731 O 1668.14 -1.95 0.187529 0
M  V30 17732 H 1666.72 -0.154201 0.730911 0
M  V30 17733 H 1669.38 0.314508 1.92346 0
M  V30 17734 H 1668.47 -0.73557 3.03308 0
M  V30 17735 N 1668.77 -1.57515 -0.0517878 0
M  V30 17736 C 1670.02 -1.88493 -0.748206 0
M  V30 17737 C 1670.35 -0.816494 -1.76202 0
M  V30 17738 O 1669.63 0.171075 -1.93746 0
M  V30 17739 C 1669.91 -3.30131 -1.43825 0
M  V30 17740 C 1669.76 -4.47648 -0.4395 0
M  V30 17741 C 1671.08 -3.70315 -2.37813 0
M  V30 17742 H 1668.2 -0.68555 -0.270537 0
M  V30 17743 H 1670.84 -1.89997 -0.0111457 0
M  V30 17744 H 1668.99 -3.2898 -2.06651 0
M  V30 17745 H 1670.67 -4.60929 0.185088 0
M  V30 17746 H 1668.91 -4.33117 0.243381 0
M  V30 17747 H 1669.58 -5.43582 -0.96035 0
M  V30 17748 H 1672.06 -3.72687 -1.8505 0
M  V30 17749 H 1670.93 -4.70269 -2.83087 0
M  V30 17750 H 1671.19 -3.0133 -3.23501 0
M  V30 17751 N 1670.25 0.323614 -1.54242 0
M  V30 17752 C 1671.53 1.07979 -1.63095 0
M  V30 17753 C 1671.91 2.0592 -0.464774 0
M  V30 17754 O 1671.26 2.22004 0.540961 0
M  V30 17755 C 1671.47 1.78178 -3.0009 0
M  V30 17756 C 1672.82 2.31201 -3.56134 0
M  V30 17757 O 1673.84 1.88245 -3.02394 0
M  V30 17758 O 1672.7 3.09843 -4.50177 0
M  V30 17759 H 1669.79 0.497726 -0.660453 0
M  V30 17760 H 1672.34 0.323509 -1.66588 0
M  V30 17761 H 1671.11 1.06938 -3.76404 0
M  V30 17762 H 1670.73 2.60616 -3.00275 0
M  V30 17763 N 1671.73 1.46313 0.585673 0
M  V30 17764 C 1672.68 1.5307 1.68978 0
M  V30 17765 C 1673.67 0.391901 1.56054 0
M  V30 17766 O 1674.86 0.64013 1.65019 0
M  V30 17767 C 1671.99 1.52113 3.07761 0
M  V30 17768 C 1671.07 2.71276 3.25991 0
M  V30 17769 N 1671.46 3.9622 3.14393 0
M  V30 17770 C 1669.76 2.67436 3.56923 0
M  V30 17771 C 1670.46 4.7587 3.34549 0
M  V30 17772 N 1669.44 4.07693 3.59565 0
M  V30 17773 H 1673.24 2.47474 1.58537 0
M  V30 17774 H 1670.75 1.41911 0.789614 0
M  V30 17775 H 1672.75 1.5504 3.86999 0
M  V30 17776 H 1671.41 0.587834 3.19335 0
M  V30 17777 H 1672.42 4.27513 2.92323 0
M  V30 17778 H 1669.1 1.83116 3.75199 0
M  V30 17779 H 1670.49 5.84831 3.3079 0
M  V30 17780 N 1673.21 -0.830057 1.33969 0
M  V30 17781 C 1674.46 -1.58272 1.25675 0
M  V30 17782 C 1674.78 -1.94213 -0.175071 0
M  V30 17783 O 1674.05 -1.61694 -1.10597 0
M  V30 17784 H 1672.63 -0.586858 0.462176 0
M  V30 17785 H 1675.29 -0.991495 1.67796 0
M  V30 17786 H 1674.39 -2.50874 1.85658 0
M  V30 17787 N 1674.69 -1.17582 -1.04939 0
M  V30 17788 C 1675.64 -0.862938 -2.11039 0
M  V30 17789 C 1676.62 0.163585 -1.60066 0
M  V30 17790 O 1677.81 -0.0392119 -1.76957 0
M  V30 17791 C 1674.94 -0.380811 -3.41181 0
M  V30 17792 C 1674.03 -1.4389 -3.98944 0
M  V30 17793 N 1674.42 -2.65304 -4.30636 0
M  V30 17794 C 1672.72 -1.29736 -4.26714 0
M  V30 17795 C 1673.42 -3.33311 -4.76737 0
M  V30 17796 N 1672.39 -2.6069 -4.77013 0
M  V30 17797 H 1676.2 -1.78602 -2.33407 0
M  V30 17798 H 1673.71 -1.06491 -1.22611 0
M  V30 17799 H 1675.71 -0.1382 -4.16671 0
M  V30 17800 H 1674.37 0.536032 -3.20245 0
M  V30 17801 H 1675.38 -3.02247 -4.20556 0
M  V30 17802 H 1672.06 -0.442367 -4.1515 0
M  V30 17803 H 1673.45 -4.37026 -5.1035 0
M  V30 17804 N 1676.17 1.23705 -0.976463 0
M  V30 17805 C 1677.1 2.2734 -0.532809 0
M  V30 17806 C 1678.08 1.64523 0.432012 0
M  V30 17807 O 1679.26 1.9144 0.326233 0
M  V30 17808 C 1676.39 3.46887 0.169374 0
M  V30 17809 C 1675.35 4.22031 -0.712336 0
M  V30 17810 C 1674.67 5.34561 0.121838 0
M  V30 17811 C 1675.97 4.8244 -2.00123 0
M  V30 17812 H 1677.67 2.64702 -1.39904 0
M  V30 17813 H 1675.21 1.27244 -0.674156 0
M  V30 17814 H 1677.16 4.18529 0.491028 0
M  V30 17815 H 1675.89 3.08574 1.07002 0
M  V30 17816 H 1674.55 3.522 -1.01739 0
M  V30 17817 H 1674.2 4.92489 1.0229 0
M  V30 17818 H 1673.9 5.85758 -0.464962 0
M  V30 17819 H 1675.42 6.09027 0.437963 0
M  V30 17820 H 1676.83 5.46111 -1.7446 0
M  V30 17821 H 1675.23 5.43906 -2.53548 0
M  V30 17822 H 1676.3 4.03405 -2.69059 0
M  V30 17823 N 1677.64 0.747635 1.38738 0
M  V30 17824 C 1678.87 0.311781 2.04537 0
M  V30 17825 C 1679.29 -1.05782 1.56383 0
M  V30 17826 O 1678.64 -1.67077 0.734259 0
M  V30 17827 C 1678.69 0.318675 3.60093 0
M  V30 17828 O 1678.42 1.63423 4.06478 0
M  V30 17829 C 1679.92 -0.131782 4.43104 0
M  V30 17830 H 1677.14 0.134141 0.657455 0
M  V30 17831 H 1679.68 1.01482 1.77543 0
M  V30 17832 H 1677.84 -0.335578 3.85944 0
M  V30 17833 H 1678.25 1.55636 5.00877 0
M  V30 17834 H 1679.72 -0.0757978 5.51948 0
M  V30 17835 H 1680.2 -1.17881 4.23085 0
M  V30 17836 H 1680.81 0.493375 4.22429 0
M  V30 17837 N 1679.12 -1.49583 0.496242 0
M  V30 17838 C 1680.35 -2.07342 -0.0490986 0
M  V30 17839 C 1680.77 -1.35474 -1.30493 0
M  V30 17840 O 1680.13 -0.410005 -1.76603 0
M  V30 17841 C 1680.18 -3.59427 -0.290601 0
M  V30 17842 O 1679.28 -3.89111 -1.36626 0
M  V30 17843 H 1678.62 -0.663562 0.0241141 0
M  V30 17844 H 1681.15 -1.92452 0.6945 0
M  V30 17845 H 1681.16 -4.04627 -0.523549 0
M  V30 17846 H 1679.84 -4.11147 0.626959 0
M  V30 17847 H 1678.41 -3.55726 -1.11864 0
M  V30 17848 N 1680.6 -0.229873 -1.55915 0
M  V30 17849 C 1681.51 0.687953 -2.24286 0
M  V30 17850 C 1682.53 1.20705 -1.25325 0
M  V30 17851 O 1683.7 1.2469 -1.58159 0
M  V30 17852 C 1680.77 1.87563 -2.91584 0
M  V30 17853 C 1679.83 1.39769 -4.0591 0
M  V30 17854 C 1679.06 2.52876 -4.69989 0
M  V30 17855 O 1679.28 3.71208 -4.33083 0
M  V30 17856 O 1678.22 2.23603 -5.58825 0
M  V30 17857 H 1682.04 0.135464 -3.03398 0
M  V30 17858 H 1679.63 0.000925172 -1.494 0
M  V30 17859 H 1681.51 2.56907 -3.34031 0
M  V30 17860 H 1680.19 2.41606 -2.15426 0
M  V30 17861 H 1679.09 0.672029 -3.68014 0
M  V30 17862 H 1680.43 0.903543 -4.83836 0
M  V30 17863 N 1682.08 1.5754 0.0434337 0
M  V30 17864 C 1683.32 1.89741 0.7328 0
M  V30 17865 C 1683.68 0.826869 1.73726 0
M  V30 17866 O 1682.97 -0.166036 1.90879 0
M  V30 17867 C 1683.17 3.26402 1.45591 0
M  V30 17868 C 1682.99 4.46648 0.522997 0
M  V30 17869 C 1681.76 5.05079 0.14936 0
M  V30 17870 C 1683.96 5.1394 -0.192494 0
M  V30 17871 N 1681.94 6.08843 -0.786309 0
M  V30 17872 C 1683.32 6.12136 -0.984327 0
M  V30 17873 C 1685.37 4.97216 -0.260965 0
M  V30 17874 C 1684.07 6.95412 -1.83831 0
M  V30 17875 C 1686.1 5.81042 -1.10202 0
M  V30 17876 C 1685.46 6.78798 -1.88182 0
M  V30 17877 H 1681.56 0.743386 0.242695 0
M  V30 17878 H 1684.14 1.94699 -0.00669196 0
M  V30 17879 H 1682.32 3.22399 2.16595 0
M  V30 17880 H 1684.05 3.46162 2.09653 0
M  V30 17881 H 1680.8 4.70863 0.508436 0
M  V30 17882 H 1681.23 6.65393 -1.24823 0
M  V30 17883 H 1685.87 4.21529 0.327607 0
M  V30 17884 H 1683.59 7.70454 -2.43774 0
M  V30 17885 H 1687.17 5.70152 -1.15835 0
M  V30 17886 H 1686.05 7.42535 -2.52212 0
M  V30 17887 N 1683.56 -0.31543 1.54411 0
M  V30 17888 C 1684.8 -1.05396 1.73261 0
M  V30 17889 C 1685.13 -1.87406 0.509171 0
M  V30 17890 O 1684.41 -1.88126 -0.493836 0
M  V30 17891 C 1684.69 -1.97195 3.01308 0
M  V30 17892 C 1684.55 -1.18461 4.33921 0
M  V30 17893 C 1685.86 -2.96594 3.25146 0
M  V30 17894 H 1682.98 -0.381763 0.630417 0
M  V30 17895 H 1685.63 -0.329882 1.87114 0
M  V30 17896 H 1683.78 -2.58936 2.89628 0
M  V30 17897 H 1685.45 -0.591171 4.57496 0
M  V30 17898 H 1683.69 -0.487025 4.31057 0
M  V30 17899 H 1684.36 -1.85909 5.19752 0
M  V30 17900 H 1686.84 -2.44977 3.36341 0
M  V30 17901 H 1685.71 -3.58002 4.16084 0
M  V30 17902 H 1685.97 -3.69487 2.42758 0
M  V30 17903 N 1685.03 -1.46622 -0.577906 0
M  V30 17904 C 1686.26 -1.56 -1.36671 0
M  V30 17905 C 1686.68 -0.2034 -1.86997 0
M  V30 17906 O 1686.04 0.817288 -1.61834 0
M  V30 17907 C 1686.09 -2.57254 -2.52691 0
M  V30 17908 O 1685.19 -2.1109 -3.54281 0
M  V30 17909 H 1684.54 -0.524779 -0.406821 0
M  V30 17910 H 1687.07 -1.92234 -0.700512 0
M  V30 17911 H 1687.08 -2.77016 -2.99543 0
M  V30 17912 H 1685.75 -3.55766 -2.15415 0
M  V30 17913 H 1684.33 -2.01337 -3.13875 0
M  V30 17914 N 1686.51 0.822941 -1.34408 0
M  V30 17915 C 1687.46 1.93383 -1.25982 0
M  V30 17916 C 1688.43 1.6555 -0.13506 0
M  V30 17917 O 1689.61 1.88164 -0.316033 0
M  V30 17918 C 1686.75 3.29646 -1.02117 0
M  V30 17919 C 1685.87 3.69772 -2.23366 0
M  V30 17920 C 1685 4.94982 -1.92784 0
M  V30 17921 C 1684.04 5.2769 -3.10177 0
M  V30 17922 N 1683.18 6.44078 -2.79479 0
M  V30 17923 H 1688.02 1.99922 -2.20987 0
M  V30 17924 H 1685.56 0.978105 -1.0987 0
M  V30 17925 H 1687.51 4.08173 -0.863175 0
M  V30 17926 H 1686.14 3.2262 -0.107803 0
M  V30 17927 H 1685.2 2.86637 -2.50086 0
M  V30 17928 H 1686.51 3.89914 -3.11076 0
M  V30 17929 H 1685.66 5.81297 -1.73721 0
M  V30 17930 H 1684.4 4.76843 -1.02335 0
M  V30 17931 H 1683.41 4.39873 -3.29837 0
M  V30 17932 H 1684.63 5.47769 -4.01405 0
M  V30 17933 H 1682.58 6.27394 -1.91605 0
M  V30 17934 H 1682.49 6.64392 -3.60721 0
M  V30 17935 H 1683.76 7.33462 -2.63919 0
M  V30 17936 N 1687.99 1.18137 1.04314 0
M  V30 17937 C 1688.92 0.929593 2.14198 0
M  V30 17938 C 1689.9 -0.131766 1.69589 0
M  V30 17939 O 1691.09 0.0203104 1.94189 0
M  V30 17940 C 1688.22 0.451799 3.44349 0
M  V30 17941 C 1687.17 1.45336 4.02569 0
M  V30 17942 C 1686.5 0.833176 5.28169 0
M  V30 17943 C 1687.8 2.8293 4.39031 0
M  V30 17944 H 1689.49 1.84856 2.35518 0
M  V30 17945 H 1687.04 0.890217 1.13186 0
M  V30 17946 H 1688.99 0.26303 4.20578 0
M  V30 17947 H 1687.71 -0.502725 3.22708 0
M  V30 17948 H 1686.37 1.62902 3.28418 0
M  V30 17949 H 1686.02 -0.128459 5.02836 0
M  V30 17950 H 1685.72 1.50185 5.68083 0
M  V30 17951 H 1687.24 0.654881 6.07078 0
M  V30 17952 H 1688.66 2.6903 5.06257 0
M  V30 17953 H 1687.06 3.46458 4.89987 0
M  V30 17954 H 1688.13 3.3667 3.48972 0
M  V30 17955 N 1689.47 -1.23186 0.98301 0
M  V30 17956 C 1690.7 -1.95702 0.671453 0
M  V30 17957 C 1691.11 -1.72737 -0.76206 0
M  V30 17958 O 1690.47 -1.02037 -1.5131 0
M  V30 17959 C 1690.52 -3.48642 0.955573 0
M  V30 17960 O 1690.24 -3.70829 2.33275 0
M  V30 17961 C 1691.74 -4.38354 0.660333 0
M  V30 17962 H 1688.96 -0.623006 0.249209 0
M  V30 17963 H 1691.51 -1.56606 1.3151 0
M  V30 17964 H 1689.66 -3.85743 0.357892 0
M  V30 17965 H 1690.07 -4.65104 2.42443 0
M  V30 17966 H 1691.55 -5.44456 0.909477 0
M  V30 17967 H 1692.03 -4.37323 -0.405615 0
M  V30 17968 H 1692.63 -4.06864 1.23861 0
M  V30 17969 N 1690.95 -0.754982 -1.38339 0
M  V30 17970 C 1692.36 -0.379276 -1.82807 0
M  V30 17971 C 1692.71 1.09228 -1.62984 0
M  V30 17972 O 1691.83 1.84445 -1.13177 0
M  V30 17973 C 1692.43 -0.681628 -3.31872 0
M  V30 17974 C 1690.99 -0.359183 -3.74682 0
M  V30 17975 C 1690.13 -0.93409 -2.61094 0
M  V30 17976 H 1693.09 -0.951019 -1.27048 0
M  V30 17977 H 1693.11 0.0396803 -3.80479 0
M  V30 17978 H 1692.62 -1.75271 -3.46268 0
M  V30 17979 H 1690.72 0.705257 -3.65865 0
M  V30 17980 H 1690.83 -0.85571 -4.71396 0
M  V30 17981 H 1689.2 -0.359379 -2.52152 0
M  V30 17982 H 1689.98 -2.01023 -2.78289 0
M  V30 17983 N 1692.42 1.49318 -0.504168 0
M  V30 17984 C 1693.67 2.03376 0.0312661 0
M  V30 17985 C 1694.03 1.37674 1.34401 0
M  V30 17986 O 1693.32 0.504451 1.8484 0
M  V30 17987 C 1693.51 3.56613 0.237041 0
M  V30 17988 C 1693.34 4.37169 -1.05421 0
M  V30 17989 C 1692.11 4.79069 -1.60689 0
M  V30 17990 C 1694.31 4.75558 -1.95829 0
M  V30 17991 N 1692.29 5.44064 -2.84372 0
M  V30 17992 C 1693.66 5.40304 -3.04091 0
M  V30 17993 C 1695.72 4.57498 -1.96469 0
M  V30 17994 C 1694.42 5.88901 -4.13023 0
M  V30 17995 C 1696.45 5.07058 -3.04378 0
M  V30 17996 C 1695.81 5.71807 -4.11358 0
M  V30 17997 H 1691.91 0.781446 -0.0294179 0
M  V30 17998 H 1694.49 1.82449 -0.679729 0
M  V30 17999 H 1692.66 3.77417 0.917095 0
M  V30 18000 H 1694.39 3.97312 0.769765 0
M  V30 18001 H 1691.15 4.59385 -1.15163 0
M  V30 18002 H 1691.57 5.81146 -3.47273 0
M  V30 18003 H 1696.22 4.06841 -1.15065 0
M  V30 18004 H 1693.93 6.38577 -4.95222 0
M  V30 18005 H 1697.52 4.94892 -3.05897 0
M  V30 18006 H 1696.4 6.09463 -4.93482 0
M  V30 18007 N 1693.9 0.238138 1.5579 0
M  V30 18008 C 1695.13 -0.396409 2.03576 0
M  V30 18009 C 1695.55 -1.5138 1.11649 0
M  V30 18010 O 1694.91 -1.80979 0.107774 0
M  V30 18011 C 1694.96 -0.889749 3.49451 0
M  V30 18012 O 1694.06 -1.99997 3.60659 0
M  V30 18013 H 1693.4 -0.0876017 0.658196 0
M  V30 18014 H 1695.93 0.361632 2.01379 0
M  V30 18015 H 1695.94 -1.19526 3.901 0
M  V30 18016 H 1694.62 -0.0720136 4.15838 0
M  V30 18017 H 1693.2 -1.69983 3.31904 0
M  V30 18018 N 1695.38 -1.57561 -0.0350783 0
M  V30 18019 C 1696.31 -2.09201 -1.03716 0
M  V30 18020 C 1697.29 -0.993231 -1.3809 0
M  V30 18021 O 1698.48 -1.26812 -1.47079 0
M  V30 18022 C 1695.61 -2.56643 -2.3399 0
M  V30 18023 C 1694.56 -3.70731 -2.13874 0
M  V30 18024 C 1693.89 -4.04358 -3.49855 0
M  V30 18025 C 1695.19 -4.99393 -1.52982 0
M  V30 18026 H 1696.88 -2.93176 -0.60731 0
M  V30 18027 H 1694.43 -1.41036 -0.290683 0
M  V30 18028 H 1696.38 -2.9139 -3.04417 0
M  V30 18029 H 1695.1 -1.69744 -2.79024 0
M  V30 18030 H 1693.76 -3.36325 -1.45881 0
M  V30 18031 H 1693.41 -3.14534 -3.92527 0
M  V30 18032 H 1693.11 -4.81201 -3.37223 0
M  V30 18033 H 1694.63 -4.41633 -4.21654 0
M  V30 18034 H 1696.05 -5.32135 -2.13319 0
M  V30 18035 H 1694.45 -5.80807 -1.50943 0
M  V30 18036 H 1695.52 -4.82367 -0.494993 0
M  V30 18037 N 1696.86 0.307236 -1.54576 0
M  V30 18038 C 1697.82 1.36178 -1.84359 0
M  V30 18039 C 1698.82 1.43971 -0.716163 0
M  V30 18040 O 1700.01 1.43715 -0.98446 0
M  V30 18041 C 1697.14 2.74733 -2.01828 0
M  V30 18042 H 1698.34 1.11017 -2.78595 0
M  V30 18043 H 1695.89 0.543582 -1.46543 0
M  V30 18044 H 1696.62 3.05126 -1.09858 0
M  V30 18045 H 1696.41 2.70468 -2.83883 0
M  V30 18046 H 1697.9 3.50992 -2.26261 0
M  V30 18047 N 1698.34 1.46926 0.570122 0
M  V30 18048 C 1699.27 1.61311 1.68822 0
M  V30 18049 C 1700.25 0.462964 1.63678 0
M  V30 18050 O 1701.43 0.690745 1.815 0
M  V30 18051 C 1698.56 1.61499 3.07466 0
M  V30 18052 C 1697.52 2.7561 3.27449 0
M  V30 18053 C 1696.84 2.60865 4.66748 0
M  V30 18054 C 1698.14 4.17324 3.14067 0
M  V30 18055 H 1699.84 2.54909 1.5704 0
M  V30 18056 H 1697.38 1.22677 0.754077 0
M  V30 18057 H 1699.34 1.70155 3.8552 0
M  V30 18058 H 1698.06 0.64453 3.20177 0
M  V30 18059 H 1696.72 2.66444 2.51799 0
M  V30 18060 H 1696.37 1.61875 4.76241 0
M  V30 18061 H 1696.07 3.37411 4.81069 0
M  V30 18062 H 1697.59 2.7143 5.46954 0
M  V30 18063 H 1699 4.27534 3.81952 0
M  V30 18064 H 1697.4 4.94555 3.39905 0
M  V30 18065 H 1698.47 4.36596 2.10979 0
M  V30 18066 N 1699.82 -0.815801 1.34842 0
M  V30 18067 C 1700.75 -1.94193 1.29659 0
M  V30 18068 C 1701.73 -1.69221 0.172703 0
M  V30 18069 O 1702.91 -1.90716 0.366203 0
M  V30 18070 C 1700.04 -3.30777 1.0585 0
M  V30 18071 C 1699 -3.70207 2.1478 0
M  V30 18072 C 1698.32 -5.04852 1.76149 0
M  V30 18073 C 1699.62 -3.81553 3.56671 0
M  V30 18074 H 1701.32 -1.98787 2.23884 0
M  V30 18075 H 1698.86 -0.955013 1.07775 0
M  V30 18076 H 1700.81 -4.0915 1.00866 0
M  V30 18077 H 1699.54 -3.265 0.0806804 0
M  V30 18078 H 1698.2 -2.94113 2.18845 0
M  V30 18079 H 1697.85 -4.9707 0.770099 0
M  V30 18080 H 1697.55 -5.32205 2.49062 0
M  V30 18081 H 1699.07 -5.85676 1.72674 0
M  V30 18082 H 1700.48 -4.50181 3.54979 0
M  V30 18083 H 1698.88 -4.20367 4.28266 0
M  V30 18084 H 1699.95 -2.83356 3.93494 0
M  V30 18085 N 1701.29 -1.18689 -1.03686 0
M  V30 18086 C 1702.24 -0.917369 -2.11785 0
M  V30 18087 C 1703.21 0.144719 -1.65468 0
M  V30 18088 O 1704.4 0.00427016 -1.908 0
M  V30 18089 C 1701.54 -0.453396 -3.42109 0
M  V30 18090 C 1700.65 -1.58134 -4.02017 0
M  V30 18091 C 1699.78 -1.06971 -5.20318 0
M  V30 18092 C 1698.82 -2.17208 -5.72265 0
M  V30 18093 N 1697.96 -1.67411 -6.81849 0
M  V30 18094 H 1702.8 -1.84297 -2.34177 0
M  V30 18095 H 1700.34 -0.918951 -1.14864 0
M  V30 18096 H 1702.29 -0.165843 -4.1687 0
M  V30 18097 H 1700.92 0.435219 -3.19853 0
M  V30 18098 H 1699.98 -1.98429 -3.24546 0
M  V30 18099 H 1701.29 -2.41219 -4.36594 0
M  V30 18100 H 1700.44 -0.736906 -6.02208 0
M  V30 18101 H 1699.18 -0.208487 -4.87254 0
M  V30 18102 H 1698.19 -2.51328 -4.88993 0
M  V30 18103 H 1699.41 -3.03772 -6.07371 0
M  V30 18104 H 1697.36 -0.83584 -6.50653 0
M  V30 18105 H 1697.27 -2.44091 -7.15511 0
M  V30 18106 H 1698.54 -1.3707 -7.67354 0
M  V30 18107 N 1702.77 1.22662 -0.989529 0
M  V30 18108 C 1704 1.95343 -0.681822 0
M  V30 18109 C 1704.41 1.73139 0.752889 0
M  V30 18110 O 1703.77 1.02838 1.50766 0
M  V30 18111 C 1703.82 3.4813 -0.974049 0
M  V30 18112 O 1703.54 3.69587 -2.35238 0
M  V30 18113 C 1705.04 4.37998 -0.683571 0
M  V30 18114 H 1702.26 0.621675 -0.252509 0
M  V30 18115 H 1704.81 1.55906 -1.32339 0
M  V30 18116 H 1702.96 3.85548 -0.378344 0
M  V30 18117 H 1703.38 4.63812 -2.44906 0
M  V30 18118 H 1704.85 5.43966 -0.938338 0
M  V30 18119 H 1705.33 4.37532 0.382417 0
M  V30 18120 H 1705.93 4.06202 -1.26017 0
M  V30 18121 N 1704.25 0.762308 1.37937 0
M  V30 18122 C 1705.5 0.322369 1.99918 0
M  V30 18123 C 1705.82 -1.09843 1.60514 0
M  V30 18124 O 1705.08 -1.76837 0.83829 0
M  V30 18125 C 1705.38 0.402558 3.55126 0
M  V30 18126 C 1705.04 1.78025 4.14268 0
M  V30 18127 C 1703.71 2.15727 4.30134 0
M  V30 18128 C 1706.06 2.68359 4.46803 0
M  V30 18129 C 1703.39 3.43217 4.75835 0
M  V30 18130 C 1705.74 3.95248 4.93925 0
M  V30 18131 C 1704.4 4.33007 5.07997 0
M  V30 18132 H 1703.67 0.117963 0.73155 0
M  V30 18133 H 1706.32 0.974491 1.64851 0
M  V30 18134 H 1704.62 -0.333119 3.90381 0
M  V30 18135 H 1706.32 0.0436064 4.00976 0
M  V30 18136 H 1702.91 1.4772 4.02339 0
M  V30 18137 H 1707.1 2.40493 4.34139 0
M  V30 18138 H 1702.35 3.72379 4.84916 0
M  V30 18139 H 1706.53 4.6538 5.18068 0
M  V30 18140 H 1704.15 5.31856 5.4317 0
M  V30 18141 N 1705.73 -1.49049 0.51208 0
M  V30 18142 C 1707.14 -1.86579 0.0670687 0
M  V30 18143 C 1707.49 -1.42339 -1.35034 0
M  V30 18144 O 1706.61 -0.806142 -2.00824 0
M  V30 18145 C 1707.21 -3.38605 0.114936 0
M  V30 18146 C 1705.77 -3.75396 -0.274787 0
M  V30 18147 C 1704.92 -2.73068 0.482613 0
M  V30 18148 H 1707.87 -1.41208 0.724287 0
M  V30 18149 H 1707.89 -3.74416 -0.677722 0
M  V30 18150 H 1707.4 -3.70774 1.14666 0
M  V30 18151 H 1705.5 -3.48837 -1.30933 0
M  V30 18152 H 1705.61 -4.79071 0.0523691 0
M  V30 18153 H 1703.98 -2.54607 -0.0689364 0
M  V30 18154 H 1704.76 -3.08081 1.51463 0
M  V30 18155 N 1707.21 -0.246397 -1.55662 0
M  V30 18156 C 1708.14 0.686113 -2.1869 0
M  V30 18157 C 1709.15 1.13915 -1.16306 0
M  V30 18158 O 1710.34 1.06601 -1.43173 0
M  V30 18159 C 1707.44 1.94426 -2.77582 0
M  V30 18160 C 1706.61 1.64275 -4.0538 0
M  V30 18161 C 1705.67 2.75044 -4.48595 0
M  V30 18162 O 1704.7 2.42451 -5.14982 0
M  V30 18163 N 1705.9 4.04528 -4.16338 0
M  V30 18164 H 1708.66 0.146832 -2.9934 0
M  V30 18165 H 1706.23 -0.0663398 -1.61764 0
M  V30 18166 H 1708.22 2.67768 -3.0345 0
M  V30 18167 H 1706.79 2.39334 -2.01091 0
M  V30 18168 H 1706.01 0.744531 -3.87105 0
M  V30 18169 H 1707.3 1.41594 -4.88701 0
M  V30 18170 H 1706.69 4.33841 -3.6304 0
M  V30 18171 H 1705.25 4.74337 -4.47043 0
M  V30 18172 N 1708.68 1.57577 0.026722 0
M  V30 18173 C 1709.93 1.89379 0.717062 0
M  V30 18174 C 1710.26 0.843976 1.75235 0
M  V30 18175 O 1709.51 -0.154755 1.95087 0
M  V30 18176 C 1709.81 3.27927 1.42121 0
M  V30 18177 C 1709.48 4.47872 0.521676 0
M  V30 18178 C 1708.14 4.8042 0.273926 0
M  V30 18179 C 1710.49 5.21105 -0.0992493 0
M  V30 18180 C 1707.82 5.83588 -0.603488 0
M  V30 18181 C 1710.17 6.25206 -0.964379 0
M  V30 18182 C 1708.84 6.56227 -1.22157 0
M  V30 18183 H 1708.11 0.692988 0.262391 0
M  V30 18184 H 1710.75 1.91486 -0.0230629 0
M  V30 18185 H 1709.06 3.2182 2.23471 0
M  V30 18186 H 1710.76 3.49783 1.96094 0
M  V30 18187 H 1707.35 4.22425 0.724931 0
M  V30 18188 H 1711.53 4.96237 0.0791882 0
M  V30 18189 H 1706.79 6.05997 -0.811031 0
M  V30 18190 H 1710.96 6.81094 -1.45201 0
M  V30 18191 H 1708.59 7.35991 -1.90317 0
M  V30 18192 N 1710.16 -0.299034 1.54737 0
M  V30 18193 C 1711.41 -1.03164 1.7332 0
M  V30 18194 C 1711.72 -1.88362 0.527184 0
M  V30 18195 O 1712.93 -2.64903 0.594868 0
M  V30 18196 C 1711.39 -1.88391 3.06654 0
M  V30 18197 C 1710.99 -1.08187 4.34741 0
M  V30 18198 C 1712.74 -2.6124 3.34595 0
M  V30 18199 C 1710.64 -1.92702 5.59124 0
M  V30 18200 H 1709.57 -0.388887 0.645975 0
M  V30 18201 H 1712.23 -0.288544 1.81217 0
M  V30 18202 H 1710.61 -2.66696 2.92727 0
M  V30 18203 H 1711.78 -0.344817 4.59508 0
M  V30 18204 H 1710.1 -0.469118 4.13749 0
M  V30 18205 H 1712.69 -3.24826 4.24726 0
M  V30 18206 H 1713.04 -3.30172 2.53559 0
M  V30 18207 H 1713.57 -1.89982 3.49502 0
M  V30 18208 H 1710.31 -1.28236 6.42834 0
M  V30 18209 H 1709.83 -2.64074 5.38539 0
M  V30 18210 H 1711.51 -2.50702 5.96454 0
M  V30 18211 N 1711.64 -1.47227 -0.562322 0
M  V30 18212 C 1712.89 -1.52851 -1.31604 0
M  V30 18213 C 1713.2 -0.193236 -1.94643 0
M  V30 18214 O 1714.41 -0.127429 -2.71201 0
M  V30 18215 C 1712.86 -2.69422 -2.3862 0
M  V30 18216 C 1712.47 -4.09457 -1.81794 0
M  V30 18217 C 1714.22 -2.84334 -3.15205 0
M  V30 18218 C 1712.12 -5.17337 -2.8656 0
M  V30 18219 H 1711.05 -0.568923 -0.494816 0
M  V30 18220 H 1713.7 -1.73489 -0.597819 0
M  V30 18221 H 1712.09 -2.42153 -3.13333 0
M  V30 18222 H 1713.26 -4.46606 -1.13487 0
M  V30 18223 H 1711.57 -3.99387 -1.17811 0
M  V30 18224 H 1714.17 -3.621 -3.93431 0
M  V30 18225 H 1714.51 -1.9259 -3.69073 0
M  V30 18226 H 1715.05 -3.11348 -2.47603 0
M  V30 18227 H 1711.79 -6.1094 -2.37554 0
M  V30 18228 H 1711.31 -4.8471 -3.53293 0
M  V30 18229 H 1712.99 -5.44065 -3.50146 0
M  V30 18230 N 1713.12 0.808639 -1.35273 0
M  V30 18231 C 1714.06 1.92036 -1.28026 0
M  V30 18232 C 1715.03 1.65397 -0.152611 0
M  V30 18233 O 1716.22 1.87819 -0.335972 0
M  V30 18234 C 1713.36 3.28544 -1.05607 0
M  V30 18235 C 1712.47 3.67382 -2.27276 0
M  V30 18236 C 1711.61 4.9291 -1.98024 0
M  V30 18237 C 1710.65 5.2437 -3.15757 0
M  V30 18238 N 1709.78 6.41077 -2.86294 0
M  V30 18239 H 1714.62 1.97567 -2.23095 0
M  V30 18240 H 1712.16 0.966397 -1.10902 0
M  V30 18241 H 1714.12 4.07234 -0.906418 0
M  V30 18242 H 1712.75 3.22487 -0.142015 0
M  V30 18243 H 1711.8 2.83969 -2.53112 0
M  V30 18244 H 1713.11 3.86593 -3.15194 0
M  V30 18245 H 1712.27 5.79421 -1.79877 0
M  V30 18246 H 1711.01 4.7573 -1.07387 0
M  V30 18247 H 1710.01 4.36349 -3.34483 0
M  V30 18248 H 1711.24 5.4348 -4.07193 0
M  V30 18249 H 1709.18 6.25327 -1.98249 0
M  V30 18250 H 1709.1 6.60528 -3.67748 0
M  V30 18251 H 1710.37 7.30622 -2.71684 0
M  V30 18252 N 1714.6 1.19237 1.03055 0
M  V30 18253 C 1715.51 0.943876 2.14775 0
M  V30 18254 C 1716.52 -0.0955384 1.73738 0
M  V30 18255 O 1717.7 0.0887187 2.01204 0
M  V30 18256 C 1714.76 0.48402 3.43305 0
M  V30 18257 C 1713.82 1.59262 3.98665 0
M  V30 18258 C 1713.06 1.15461 5.21061 0
M  V30 18259 O 1713.28 0.0174841 5.70397 0
M  V30 18260 O 1712.21 1.95648 5.69215 0
M  V30 18261 H 1716.04 1.87894 2.38599 0
M  V30 18262 H 1713.63 0.975046 1.13195 0
M  V30 18263 H 1715.51 0.236135 4.20738 0
M  V30 18264 H 1714.18 -0.422626 3.20929 0
M  V30 18265 H 1713.09 1.89464 3.22574 0
M  V30 18266 H 1714.42 2.47576 4.25402 0
M  V30 18267 N 1716.07 -1.22136 0.99602 0
M  V30 18268 C 1717 -2.26463 0.568909 0
M  V30 18269 C 1717.99 -1.65189 -0.405783 0
M  V30 18270 O 1719.17 -1.91935 -0.295735 0
M  V30 18271 C 1716.3 -3.47112 -0.114166 0
M  V30 18272 C 1715.25 -4.20844 0.779387 0
M  V30 18273 C 1714.58 -5.34687 -0.0367787 0
M  V30 18274 C 1715.88 -4.79195 2.07773 0
M  V30 18275 H 1717.57 -2.62443 1.44097 0
M  V30 18276 H 1715.12 -1.26156 0.694314 0
M  V30 18277 H 1717.07 -4.19258 -0.424381 0
M  V30 18278 H 1715.8 -3.10238 -1.02079 0
M  V30 18279 H 1714.46 -3.50537 1.07329 0
M  V30 18280 H 1714.1 -4.94054 -0.94442 0
M  V30 18281 H 1713.8 -5.84944 0.558092 0
M  V30 18282 H 1715.33 -6.09647 -0.341016 0
M  V30 18283 H 1716.74 -5.43266 1.83126 0
M  V30 18284 H 1715.14 -5.39803 2.62169 0
M  V30 18285 H 1716.21 -3.99073 2.75442 0
M  V30 18286 N 1717.55 -0.769612 -1.37531 0
M  V30 18287 C 1718.48 -0.168389 -2.32892 0
M  V30 18288 C 1719.46 0.685549 -1.55673 0
M  V30 18289 O 1720.65 0.62345 -1.8392 0
M  V30 18290 C 1717.78 0.713183 -3.39898 0
M  V30 18291 C 1716.73 -0.0392808 -4.27982 0
M  V30 18292 C 1716.06 0.961596 -5.25982 0
M  V30 18293 C 1717.36 -1.21704 -5.07923 0
M  V30 18294 H 1719.05 -0.965022 -2.83421 0
M  V30 18295 H 1716.6 -0.465502 -1.36268 0
M  V30 18296 H 1718.55 1.14358 -4.05586 0
M  V30 18297 H 1717.28 1.54231 -2.87889 0
M  V30 18298 H 1715.93 -0.450429 -3.63822 0
M  V30 18299 H 1715.58 1.78522 -4.70254 0
M  V30 18300 H 1715.28 0.462679 -5.85776 0
M  V30 18301 H 1716.81 1.39097 -5.94545 0
M  V30 18302 H 1718.22 -0.863405 -5.66761 0
M  V30 18303 H 1716.62 -1.6479 -5.77031 0
M  V30 18304 H 1717.69 -2.02219 -4.40722 0
M  V30 18305 N 1719.03 1.48775 -0.519977 0
M  V30 18306 C 1719.96 2.27418 0.285222 0
M  V30 18307 C 1720.98 1.34753 0.91354 0
M  V30 18308 O 1722.16 1.59885 0.793672 0
M  V30 18309 C 1719.26 3.07799 1.41821 0
M  V30 18310 C 1718.44 4.28173 0.893682 0
M  V30 18311 C 1717.5 4.90445 1.90658 0
M  V30 18312 O 1716.52 5.49957 1.46751 0
M  V30 18313 N 1717.72 4.8179 3.23819 0
M  V30 18314 H 1720.49 2.97162 -0.38921 0
M  V30 18315 H 1718.05 1.5799 -0.353684 0
M  V30 18316 H 1720.04 3.46329 2.09377 0
M  V30 18317 H 1718.61 2.4054 1.99648 0
M  V30 18318 H 1717.83 3.94177 0.0424379 0
M  V30 18319 H 1719.12 5.06116 0.521952 0
M  V30 18320 H 1718.52 4.34573 3.62164 0
M  V30 18321 H 1717.08 5.2445 3.87035 0
M  V30 18322 N 1720.51 0.254649 1.55529 0
M  V30 18323 C 1721.75 -0.368477 1.99424 0
M  V30 18324 C 1722.09 -1.57023 1.14269 0
M  V30 18325 O 1721.36 -1.93386 0.207886 0
M  V30 18326 C 1721.65 -0.77076 3.51755 0
M  V30 18327 C 1721.5 0.436923 4.47673 0
M  V30 18328 C 1722.82 -1.61487 4.09402 0
M  V30 18329 H 1719.94 -0.132459 0.724999 0
M  V30 18330 H 1722.58 0.357508 1.86606 0
M  V30 18331 H 1720.73 -1.38932 3.62809 0
M  V30 18332 H 1722.4 1.07541 4.4859 0
M  V30 18333 H 1720.64 1.07866 4.20175 0
M  V30 18334 H 1721.31 0.111996 5.51886 0
M  V30 18335 H 1723.79 -1.09265 4.01498 0
M  V30 18336 H 1722.67 -1.86519 5.16238 0
M  V30 18337 H 1722.93 -2.58926 3.58343 0
M  V30 18338 N 1721.99 -1.57589 -0.0183649 0
M  V30 18339 C 1723.26 -1.80938 -0.743021 0
M  V30 18340 C 1723.64 -0.855272 -1.92998 0
M  V30 18341 O 1722.99 0.100181 -2.2828 0
M  V30 18342 C 1723.2 -3.28945 -1.16602 0
M  V30 18343 C 1724.55 -3.94208 -1.5775 0
M  V30 18344 O 1725.57 -3.33159 -1.26031 0
M  V30 18345 O 1724.43 -5.01716 -2.16663 0
M  V30 18346 H 1721.53 -0.744435 -0.360203 0
M  V30 18347 H 1724.07 -1.69699 0.00567963 0
M  V30 18348 H 1722.84 -3.89996 -0.319154 0
M  V30 18349 H 1722.47 -3.45113 -1.9744 0
M  V30 18350 N 1723.46 0.290824 -1.54893 0
M  V30 18351 C 1724.39 1.36354 -1.89551 0
M  V30 18352 C 1725.38 1.52403 -0.75546 0
M  V30 18353 O 1726.56 1.65743 -1.01208 0
M  V30 18354 C 1723.69 2.72609 -2.15178 0
M  V30 18355 C 1722.64 2.71313 -3.31019 0
M  V30 18356 C 1721.97 4.10952 -3.42085 0
M  V30 18357 C 1723.27 2.32153 -4.6787 0
M  V30 18358 H 1724.96 1.07597 -2.79398 0
M  V30 18359 H 1722.51 0.516154 -1.34432 0
M  V30 18360 H 1724.46 3.47749 -2.3801 0
M  V30 18361 H 1723.19 3.02913 -1.22112 0
M  V30 18362 H 1721.85 1.9863 -3.08126 0
M  V30 18363 H 1721.49 4.38449 -2.46518 0
M  V30 18364 H 1721.19 4.10984 -4.1996 0
M  V30 18365 H 1722.72 4.87857 -3.67189 0
M  V30 18366 H 1724.13 2.97011 -4.90364 0
M  V30 18367 H 1722.53 2.4338 -5.48531 0
M  V30 18368 H 1723.6 1.27279 -4.67897 0
M  V30 18369 N 1724.94 1.47523 0.554506 0
M  V30 18370 C 1726.36 1.33101 0.880699 0
M  V30 18371 C 1726.56 0.323524 1.98886 0
M  V30 18372 O 1725.61 -0.263996 2.51116 0
M  V30 18373 C 1726.93 2.725 1.27138 0
M  V30 18374 C 1728.48 2.80805 1.38266 0
M  V30 18375 C 1728.95 4.20851 1.80688 0
M  V30 18376 N 1730.44 4.23406 1.87834 0
M  V30 18377 C 1731.18 5.28684 2.21993 0
M  V30 18378 N 1730.67 6.44264 2.54746 0
M  V30 18379 N 1732.47 5.16063 2.2279 0
M  V30 18380 H 1724.62 2.11661 -0.177062 0
M  V30 18381 H 1726.88 0.947856 -0.0165508 0
M  V30 18382 H 1726.59 3.47669 0.53093 0
M  V30 18383 H 1726.46 3.04445 2.22695 0
M  V30 18384 H 1728.85 2.05907 2.11391 0
M  V30 18385 H 1728.93 2.52511 0.408901 0
M  V30 18386 H 1728.57 4.96256 1.08131 0
M  V30 18387 H 1728.5 4.46572 2.79071 0
M  V30 18388 H 1730.99 3.40025 1.64897 0
M  V30 18389 H 1731.31 7.20351 2.79846 0
M  V30 18390 H 1729.65 6.4758 2.52321 0
M  V30 18391 H 1732.84 4.24793 1.96642 0
M  V30 18392 H 1733.01 5.98216 2.49081 0
M  V30 18393 N 1726.42 -0.801453 1.357 0
M  V30 18394 C 1727.65 -1.59518 1.32547 0
M  V30 18395 C 1728.07 -1.87868 -0.0934243 0
M  V30 18396 O 1727.43 -1.46955 -1.06179 0
M  V30 18397 C 1727.48 -2.90028 2.14281 0
M  V30 18398 O 1726.58 -3.83086 1.52704 0
M  V30 18399 H 1725.92 -0.48434 0.454215 0
M  V30 18400 H 1728.45 -0.994315 1.78814 0
M  V30 18401 H 1728.46 -3.39406 2.26423 0
M  V30 18402 H 1727.14 -2.6872 3.17431 0
M  V30 18403 H 1725.71 -3.4165 1.49432 0
M  V30 18404 N 1727.9 -1.19782 -1.02421 0
M  V30 18405 C 1728.83 -0.883119 -2.10419 0
M  V30 18406 C 1729.81 0.161733 -1.61794 0
M  V30 18407 O 1730.99 0.037003 -1.88464 0
M  V30 18408 C 1728.12 -0.322524 -3.37161 0
M  V30 18409 C 1727.17 -1.34717 -4.04665 0
M  V30 18410 S 1728 -2.9094 -4.49571 0
M  V30 18411 C 1729.16 -2.36436 -5.79525 0
M  V30 18412 H 1729.39 -1.79772 -2.36789 0
M  V30 18413 H 1726.92 -1.02546 -1.15428 0
M  V30 18414 H 1728.88 -0.00561772 -4.105 0
M  V30 18415 H 1727.54 0.570462 -3.08876 0
M  V30 18416 H 1726.73 -0.904136 -4.95824 0
M  V30 18417 H 1726.34 -1.61116 -3.37517 0
M  V30 18418 H 1728.63 -1.75722 -6.54315 0
M  V30 18419 H 1729.57 -3.25961 -6.28614 0
M  V30 18420 H 1729.98 -1.78841 -5.35421 0
M  V30 18421 N 1729.38 1.21606 -1.00248 0
M  V30 18422 C 1730.79 1.42695 -0.714862 0
M  V30 18423 C 1730.99 1.88542 0.710917 0
M  V30 18424 O 1730.05 2.04535 1.48059 0
M  V30 18425 C 1731.36 2.4605 -1.72858 0
M  V30 18426 C 1732.91 2.59836 -1.74511 0
M  V30 18427 C 1733.39 3.66421 -2.74772 0
M  V30 18428 N 1734.88 3.73889 -2.73425 0
M  V30 18429 C 1735.61 4.5598 -3.47664 0
M  V30 18430 N 1735.11 5.41987 -4.31535 0
M  V30 18431 N 1736.9 4.50379 -3.36326 0
M  V30 18432 H 1729.05 0.901565 -1.92316 0
M  V30 18433 H 1731.31 0.458128 -0.829954 0
M  V30 18434 H 1731.02 2.19329 -2.74932 0
M  V30 18435 H 1730.89 3.44812 -1.5292 0
M  V30 18436 H 1733.28 2.85895 -0.731304 0
M  V30 18437 H 1733.36 1.61317 -1.98521 0
M  V30 18438 H 1733.01 3.41108 -3.76308 0
M  V30 18439 H 1732.94 4.64531 -2.48029 0
M  V30 18440 H 1735.43 3.12443 -2.12575 0
M  V30 18441 H 1735.74 6.01673 -4.84984 0
M  V30 18442 H 1734.09 5.41537 -4.35618 0
M  V30 18443 H 1737.28 3.82217 -2.70237 0
M  V30 18444 H 1737.45 5.14122 -3.9444 0
M  V30 18445 N 1730.86 0.776895 1.37121 0
M  V30 18446 C 1732.1 0.343555 1.99564 0
M  V30 18447 C 1732.43 -1.08134 1.6167 0
M  V30 18448 O 1731.69 -1.75938 0.856998 0
M  V30 18449 C 1731.98 0.440201 3.54679 0
M  V30 18450 C 1731.65 1.82409 4.12356 0
M  V30 18451 C 1730.31 2.20277 4.27822 0
M  V30 18452 C 1732.66 2.73082 4.43932 0
M  V30 18453 C 1729.99 3.48244 4.72168 0
M  V30 18454 C 1732.34 4.00465 4.89705 0
M  V30 18455 C 1731.01 4.38371 5.03376 0
M  V30 18456 H 1730.28 0.125716 0.730258 0
M  V30 18457 H 1732.93 0.991921 1.63808 0
M  V30 18458 H 1731.23 -0.291695 3.90713 0
M  V30 18459 H 1732.93 0.0861328 4.00907 0
M  V30 18460 H 1729.52 1.5198 4.0075 0
M  V30 18461 H 1733.7 2.45085 4.31564 0
M  V30 18462 H 1728.96 3.77501 4.80939 0
M  V30 18463 H 1733.13 4.70849 5.13103 0
M  V30 18464 H 1730.76 5.37587 5.37498 0
M  V30 18465 N 1732.33 -1.48497 0.527859 0
M  V30 18466 C 1733.24 -2.3337 -0.239957 0
M  V30 18467 C 1734.26 -1.46353 -0.941101 0
M  V30 18468 O 1735.44 -1.79337 -0.916532 0
M  V30 18469 C 1732.5 -3.22421 -1.27458 0
M  V30 18470 C 1731.56 -4.25309 -0.584017 0
M  V30 18471 C 1730.79 -5.10105 -1.56935 0
M  V30 18472 O 1731.02 -4.96846 -2.80178 0
M  V30 18473 O 1729.95 -5.91578 -1.10991 0
M  V30 18474 H 1733.78 -3.00265 0.455458 0
M  V30 18475 H 1731.36 -1.46582 0.288809 0
M  V30 18476 H 1733.24 -3.7751 -1.87254 0
M  V30 18477 H 1731.92 -2.58189 -1.95244 0
M  V30 18478 H 1730.83 -3.7406 0.0543828 0
M  V30 18479 H 1732.16 -4.92173 0.0518646 0
M  V30 18480 N 1733.81 -0.262893 -1.55392 0
M  V30 18481 C 1734.74 0.66288 -2.19405 0
M  V30 18482 C 1735.76 1.12675 -1.17508 0
M  V30 18483 O 1736.95 1.05077 -1.44295 0
M  V30 18484 C 1734.05 1.91471 -2.79628 0
M  V30 18485 C 1733.22 1.59966 -4.07099 0
M  V30 18486 C 1732.28 2.7027 -4.51487 0
M  V30 18487 O 1731.3 2.36976 -5.17524 0
M  V30 18488 N 1732.51 4.0009 -4.20605 0
M  V30 18489 H 1735.27 0.115075 -2.99479 0
M  V30 18490 H 1732.83 -0.0834933 -1.61685 0
M  V30 18491 H 1734.82 2.64535 -3.06273 0
M  V30 18492 H 1733.39 2.37188 -2.03619 0
M  V30 18493 H 1732.61 0.703431 -3.87873 0
M  V30 18494 H 1733.9 1.36402 -4.90175 0
M  V30 18495 H 1733.3 4.29966 -3.67621 0
M  V30 18496 H 1731.86 4.69569 -4.52049 0
M  V30 18497 N 1735.29 1.57597 0.0100073 0
M  V30 18498 C 1736.22 2.10825 1.00375 0
M  V30 18499 C 1737.2 1.01507 1.36493 0
M  V30 18500 O 1738.39 1.29136 1.45043 0
M  V30 18501 C 1735.52 2.60334 2.29878 0
M  V30 18502 C 1734.47 3.74087 2.07949 0
M  V30 18503 C 1733.8 4.09873 3.43378 0
M  V30 18504 C 1735.1 5.01764 1.45018 0
M  V30 18505 H 1736.79 2.94105 0.560591 0
M  V30 18506 H 1734.34 1.4148 0.268208 0
M  V30 18507 H 1736.29 2.96196 2.99743 0
M  V30 18508 H 1735.01 1.74162 2.76288 0
M  V30 18509 H 1733.67 3.38603 1.40512 0
M  V30 18510 H 1733.32 3.20739 3.87473 0
M  V30 18511 H 1733.02 4.86505 3.29525 0
M  V30 18512 H 1734.54 4.48285 4.14575 0
M  V30 18513 H 1735.96 5.35462 2.04826 0
M  V30 18514 H 1734.35 5.83135 1.41683 0
M  V30 18515 H 1735.42 4.83093 0.41819 0
M  V30 18516 N 1736.77 -0.282606 1.55045 0
M  V30 18517 C 1737.68 -1.37129 1.90349 0
M  V30 18518 C 1738.69 -1.54537 0.799639 0
M  V30 18519 O 1739.87 -1.68849 1.09782 0
M  V30 18520 C 1736.93 -2.71211 2.15975 0
M  V30 18521 C 1736 -2.62632 3.39592 0
M  V30 18522 C 1735.23 -3.90319 3.63987 0
M  V30 18523 O 1735.45 -4.90551 2.9106 0
M  V30 18524 O 1734.39 -3.91102 4.57518 0
M  V30 18525 H 1738.21 -1.10189 2.83006 0
M  V30 18526 H 1735.8 -0.480293 1.41469 0
M  V30 18527 H 1737.68 -3.50509 2.33926 0
M  V30 18528 H 1736.35 -2.97958 1.26503 0
M  V30 18529 H 1735.26 -1.81743 3.26987 0
M  V30 18530 H 1736.59 -2.40836 4.29254 0
M  V30 18531 N 1738.25 -1.47815 -0.546675 0
M  V30 18532 C 1739.47 -1.58613 -1.32851 0
M  V30 18533 C 1739.89 -0.240179 -1.87266 0
M  V30 18534 O 1739.25 0.768148 -1.65547 0
M  V30 18535 C 1739.3 -2.61969 -2.49107 0
M  V30 18536 O 1739.02 -3.9134 -1.96938 0
M  V30 18537 C 1740.52 -2.83051 -3.4117 0
M  V30 18538 H 1737.74 -0.535292 -0.404603 0
M  V30 18539 H 1740.28 -1.93516 -0.661192 0
M  V30 18540 H 1738.44 -2.29971 -3.11756 0
M  V30 18541 H 1738.85 -4.47905 -2.72913 0
M  V30 18542 H 1740.33 -3.59209 -4.19134 0
M  V30 18543 H 1740.8 -1.91258 -3.95369 0
M  V30 18544 H 1741.41 -3.16287 -2.84328 0
M  V30 18545 N 1739.72 0.794246 -1.36123 0
M  V30 18546 C 1740.63 1.93807 -1.32197 0
M  V30 18547 C 1741.65 1.7254 -0.2249 0
M  V30 18548 O 1742.83 1.9616 -0.456431 0
M  V30 18549 C 1739.89 3.28593 -1.10578 0
M  V30 18550 C 1738.95 3.6267 -2.29715 0
M  V30 18551 C 1738.18 4.91025 -2.09118 0
M  V30 18552 O 1738.41 5.6039 -1.06389 0
M  V30 18553 O 1737.34 5.23647 -2.96779 0
M  V30 18554 H 1741.17 2.00068 -2.28487 0
M  V30 18555 H 1738.75 0.933808 -1.16621 0
M  V30 18556 H 1740.63 4.0926 -1.0042 0
M  V30 18557 H 1739.31 3.23235 -0.17347 0
M  V30 18558 H 1738.22 2.82329 -2.4544 0
M  V30 18559 H 1739.55 3.72747 -3.21435 0
M  V30 18560 N 1741.2 1.20323 1.01785 0
M  V30 18561 C 1742.13 0.908716 2.10416 0
M  V30 18562 C 1743.15 -0.103029 1.62474 0
M  V30 18563 O 1744.34 0.127825 1.78042 0
M  V30 18564 C 1741.44 0.340601 3.37184 0
M  V30 18565 C 1740.61 1.40358 4.14268 0
M  V30 18566 C 1739.67 0.847016 5.19338 0
M  V30 18567 O 1738.69 1.5274 5.48324 0
M  V30 18568 N 1739.9 -0.344198 5.79479 0
M  V30 18569 H 1742.66 1.84383 2.36269 0
M  V30 18570 H 1740.22 1.10673 1.18165 0
M  V30 18571 H 1742.21 -0.0458443 4.04674 0
M  V30 18572 H 1740.78 -0.499042 3.08591 0
M  V30 18573 H 1740 1.96442 3.41766 0
M  V30 18574 H 1741.29 2.11952 4.62551 0
M  V30 18575 H 1740.69 -0.914263 5.58263 0
M  V30 18576 H 1739.25 -0.672296 6.48324 0
M  V30 18577 N 1742.68 -1.21073 1.00892 0
M  V30 18578 C 1743.61 -2.25847 0.592897 0
M  V30 18579 C 1744.59 -1.6561 -0.38824 0
M  V30 18580 O 1745.78 -1.92238 -0.275361 0
M  V30 18581 C 1742.91 -3.47214 -0.0773439 0
M  V30 18582 C 1741.86 -4.19994 0.82398 0
M  V30 18583 C 1741.19 -5.34696 0.0199341 0
M  V30 18584 C 1742.49 -4.76964 2.12844 0
M  V30 18585 H 1744.18 -2.609 1.46873 0
M  V30 18586 H 1741.73 -1.25412 0.707656 0
M  V30 18587 H 1743.68 -4.19684 -0.379889 0
M  V30 18588 H 1742.4 -3.11303 -0.987833 0
M  V30 18589 H 1741.06 -3.49379 1.11041 0
M  V30 18590 H 1740.71 -4.95028 -0.891966 0
M  V30 18591 H 1740.41 -5.84319 0.620102 0
M  V30 18592 H 1741.93 -6.09974 -0.276336 0
M  V30 18593 H 1743.35 -5.41293 1.88878 0
M  V30 18594 H 1741.74 -5.36992 2.67879 0
M  V30 18595 H 1742.81 -3.96129 2.79659 0
M  V30 18596 N 1744.16 -0.784156 -1.36707 0
M  V30 18597 C 1745.09 -0.193081 -2.327 0
M  V30 18598 C 1746.07 0.668999 -1.56392 0
M  V30 18599 O 1747.25 0.603908 -1.84571 0
M  V30 18600 C 1744.38 0.677092 -3.40636 0
M  V30 18601 C 1743.34 -0.0846718 -4.27916 0
M  V30 18602 C 1742.66 0.905754 -5.26973 0
M  V30 18603 C 1743.96 -1.27085 -5.06603 0
M  V30 18604 H 1745.66 -0.995029 -2.82382 0
M  V30 18605 H 1743.2 -0.479929 -1.35767 0
M  V30 18606 H 1745.16 1.1005 -4.06776 0
M  V30 18607 H 1743.88 1.51169 -2.89509 0
M  V30 18608 H 1742.54 -0.488992 -3.63324 0
M  V30 18609 H 1742.19 1.73524 -4.72121 0
M  V30 18610 H 1741.89 0.400524 -5.86233 0
M  V30 18611 H 1743.41 1.32784 -5.95987 0
M  V30 18612 H 1744.83 -0.923469 -5.65814 0
M  V30 18613 H 1743.22 -1.70901 -5.7525 0
M  V30 18614 H 1744.29 -2.06882 -4.38552 0
M  V30 18615 N 1745.64 1.48215 -0.535727 0
M  V30 18616 C 1746.57 2.3253 0.212562 0
M  V30 18617 C 1747.55 1.42454 0.929568 0
M  V30 18618 O 1748.73 1.71334 0.914228 0
M  V30 18619 C 1745.86 3.23777 1.25641 0
M  V30 18620 C 1744.82 4.22924 0.657191 0
M  V30 18621 C 1744.14 5.03345 1.80411 0
M  V30 18622 C 1745.44 5.20953 -0.374902 0
M  V30 18623 H 1747.14 2.95341 -0.491301 0
M  V30 18624 H 1744.68 1.42024 -0.237718 0
M  V30 18625 H 1746.64 3.81592 1.78789 0
M  V30 18626 H 1745.36 2.58978 1.98993 0
M  V30 18627 H 1744.02 3.66304 0.147184 0
M  V30 18628 H 1743.67 4.34965 2.52615 0
M  V30 18629 H 1743.37 5.70455 1.40906 0
M  V30 18630 H 1744.89 5.64013 2.33926 0
M  V30 18631 H 1746.3 5.73258 0.0697072 0
M  V30 18632 H 1744.7 5.96147 -0.687646 0
M  V30 18633 H 1745.77 4.67739 -1.27861 0
M  V30 18634 N 1747.11 0.27113 1.5525 0
M  V30 18635 C 1748.05 -0.651235 2.19753 0
M  V30 18636 C 1749.06 -1.12051 1.18104 0
M  V30 18637 O 1750.25 -1.0431 1.44851 0
M  V30 18638 C 1747.35 -1.89985 2.8064 0
M  V30 18639 C 1746.52 -1.57805 4.07942 0
M  V30 18640 C 1745.58 -2.67872 4.52914 0
M  V30 18641 O 1744.61 -2.34228 5.18774 0
M  V30 18642 N 1745.81 -3.97854 4.22721 0
M  V30 18643 H 1748.57 -0.0991913 2.99536 0
M  V30 18644 H 1746.13 0.0920667 1.61638 0
M  V30 18645 H 1748.13 -2.62907 3.07672 0
M  V30 18646 H 1746.7 -2.36105 2.04874 0
M  V30 18647 H 1745.92 -0.682852 3.88241 0
M  V30 18648 H 1747.2 -1.33801 4.90892 0
M  V30 18649 H 1746.6 -4.28011 3.69897 0
M  V30 18650 H 1745.16 -4.67165 4.54533 0
M  V30 18651 N 1748.59 -1.576 -0.00164943 0
M  V30 18652 C 1749.53 -2.0376 -1.02747 0
M  V30 18653 C 1750.5 -0.927146 -1.33577 0
M  V30 18654 O 1751.69 -1.19514 -1.45769 0
M  V30 18655 C 1748.81 -2.43381 -2.35549 0
M  V30 18656 C 1747.86 -3.65143 -2.20392 0
M  V30 18657 S 1748.69 -5.13132 -1.53151 0
M  V30 18658 C 1749.85 -5.56021 -2.87387 0
M  V30 18659 H 1750.08 -2.90452 -0.634417 0
M  V30 18660 H 1747.62 -1.52931 -0.212468 0
M  V30 18661 H 1749.57 -2.66877 -3.11909 0
M  V30 18662 H 1748.23 -1.57091 -2.71995 0
M  V30 18663 H 1747.43 -3.90611 -3.18495 0
M  V30 18664 H 1747.03 -3.41641 -1.52177 0
M  V30 18665 H 1749.32 -5.58381 -3.83689 0
M  V30 18666 H 1750.26 -6.55987 -2.6662 0
M  V30 18667 H 1750.67 -4.83582 -2.9122 0
M  V30 18668 N 1750.07 0.274379 -1.55193 0
M  V30 18669 C 1751.32 1.00766 -1.75995 0
M  V30 18670 C 1751.65 1.8599 -0.558679 0
M  V30 18671 O 1750.92 1.8937 0.443784 0
M  V30 18672 C 1751.21 1.89137 -3.0643 0
M  V30 18673 C 1751.06 1.06914 -4.36909 0
M  V30 18674 C 1752.38 2.87869 -3.32896 0
M  V30 18675 H 1749.5 0.364915 -0.640317 0
M  V30 18676 H 1752.14 0.280156 -1.87923 0
M  V30 18677 H 1750.29 2.51166 -2.96391 0
M  V30 18678 H 1751.96 0.469666 -4.58903 0
M  V30 18679 H 1750.21 0.372566 -4.32197 0
M  V30 18680 H 1750.88 1.72063 -5.24498 0
M  V30 18681 H 1753.35 2.35974 -3.42718 0
M  V30 18682 H 1752.23 3.46845 -4.25429 0
M  V30 18683 H 1752.49 3.62921 -2.52469 0
M  V30 18684 N 1751.55 1.48103 0.538828 0
M  V30 18685 C 1752.5 1.61966 1.64425 0
M  V30 18686 C 1753.47 0.461999 1.59546 0
M  V30 18687 O 1754.65 0.684377 1.78104 0
M  V30 18688 C 1751.79 1.65711 3.02711 0
M  V30 18689 C 1750.9 2.92522 3.17891 0
M  V30 18690 C 1750.04 2.87485 4.46683 0
M  V30 18691 C 1749.08 4.0904 4.5536 0
M  V30 18692 N 1748.21 4.02131 5.7553 0
M  V30 18693 H 1753.05 2.5637 1.51916 0
M  V30 18694 H 1750.59 1.27146 0.739745 0
M  V30 18695 H 1752.55 1.65864 3.82812 0
M  V30 18696 H 1751.18 0.748045 3.14013 0
M  V30 18697 H 1750.23 3.02154 2.311 0
M  V30 18698 H 1751.54 3.82487 3.20165 0
M  V30 18699 H 1750.7 2.8599 5.35065 0
M  V30 18700 H 1749.44 1.95234 4.46917 0
M  V30 18701 H 1748.44 4.10819 3.65387 0
M  V30 18702 H 1749.67 5.02439 4.56872 0
M  V30 18703 H 1747.61 3.12695 5.76678 0
M  V30 18704 H 1747.53 4.85791 5.7926 0
M  V30 18705 H 1748.8 4.04682 6.66223 0
M  V30 18706 N 1753.03 -0.787016 1.36542 0
M  V30 18707 C 1753.94 -1.93103 1.33223 0
M  V30 18708 C 1754.95 -1.72419 0.234047 0
M  V30 18709 O 1756.13 -1.95915 0.466828 0
M  V30 18710 C 1753.19 -3.28002 1.12319 0
M  V30 18711 C 1752.25 -3.61447 2.31635 0
M  V30 18712 C 1751.49 -4.89909 2.11719 0
M  V30 18713 O 1751.71 -5.59818 1.0936 0
M  V30 18714 O 1750.64 -5.22065 2.99552 0
M  V30 18715 H 1754.47 -1.98853 2.29545 0
M  V30 18716 H 1752.06 -0.92761 1.17114 0
M  V30 18717 H 1753.94 -4.08722 1.02589 0
M  V30 18718 H 1752.61 -3.23138 0.19061 0
M  V30 18719 H 1751.52 -2.81024 2.46934 0
M  V30 18720 H 1752.85 -3.71037 3.23407 0
M  V30 18721 N 1754.5 -1.20861 -1.01145 0
M  V30 18722 C 1755.41 -0.977926 -2.13246 0
M  V30 18723 C 1756.43 0.0678862 -1.73868 0
M  V30 18724 O 1757.61 -0.120717 -2.01038 0
M  V30 18725 C 1754.67 -0.538575 -3.42491 0
M  V30 18726 C 1753.73 -1.65584 -3.96081 0
M  V30 18727 C 1752.97 -1.23736 -5.19158 0
M  V30 18728 O 1753.19 -0.108227 -5.70297 0
M  V30 18729 O 1752.12 -2.04679 -5.6603 0
M  V30 18730 H 1755.95 -1.91666 -2.3558 0
M  V30 18731 H 1753.53 -0.992931 -1.1163 0
M  V30 18732 H 1755.42 -0.303041 -4.20309 0
M  V30 18733 H 1754.09 0.371515 -3.21561 0
M  V30 18734 H 1753 -1.94572 -3.19519 0
M  V30 18735 H 1754.33 -2.54313 -4.21409 0
M  V30 18736 N 1755.98 1.20536 -1.01532 0
M  V30 18737 C 1756.91 2.2553 -0.604866 0
M  V30 18738 C 1757.89 1.65814 0.379452 0
M  V30 18739 O 1759.08 1.92381 0.265162 0
M  V30 18740 C 1756.21 3.4725 0.0589292 0
M  V30 18741 C 1755.16 4.19551 -0.846241 0
M  V30 18742 C 1754.49 5.34678 -0.0482901 0
M  V30 18743 C 1755.79 4.75829 -2.1537 0
M  V30 18744 H 1757.48 2.60117 -1.48254 0
M  V30 18745 H 1755.03 1.25035 -0.714297 0
M  V30 18746 H 1756.98 4.1988 0.357627 0
M  V30 18747 H 1755.71 3.11822 0.97131 0
M  V30 18748 H 1754.36 3.48785 -1.12892 0
M  V30 18749 H 1754.01 4.95494 0.8657 0
M  V30 18750 H 1753.71 5.83982 -0.651081 0
M  V30 18751 H 1755.24 6.10112 0.243983 0
M  V30 18752 H 1756.65 5.40284 -1.91745 0
M  V30 18753 H 1755.05 5.35564 -2.70723 0
M  V30 18754 H 1756.12 3.94641 -2.81756 0
M  V30 18755 N 1757.46 0.791395 1.36289 0
M  V30 18756 C 1758.39 0.149076 2.28715 0
M  V30 18757 C 1759.41 -0.642827 1.49571 0
M  V30 18758 O 1760.59 -0.477685 1.7199 0
M  V30 18759 C 1757.69 -0.811868 3.29032 0
M  V30 18760 C 1756.87 -0.0695975 4.37345 0
M  V30 18761 C 1755.93 -0.946776 5.17612 0
M  V30 18762 O 1754.95 -0.403295 5.67769 0
M  V30 18763 N 1756.15 -2.27079 5.34243 0
M  V30 18764 H 1758.92 0.943005 2.84478 0
M  V30 18765 H 1756.48 0.645479 1.48476 0
M  V30 18766 H 1758.47 -1.40257 3.79618 0
M  V30 18767 H 1757.04 -1.50667 2.73895 0
M  V30 18768 H 1756.26 0.702196 3.87895 0
M  V30 18769 H 1757.55 0.442542 5.06872 0
M  V30 18770 H 1756.95 -2.73646 4.9511 0
M  V30 18771 H 1755.51 -2.81109 5.88065 0
M  V30 18772 N 1758.94 -1.47929 0.54358 0
M  V30 18773 C 1760.22 -1.95535 -0.0505687 0
M  V30 18774 C 1760.6 -1.48603 -1.49934 0
M  V30 18775 O 1759.94 -0.718655 -2.16905 0
M  V30 18776 C 1760.15 -3.48907 0.0807654 0
M  V30 18777 C 1761.5 -4.2454 -0.0715671 0
M  V30 18778 O 1762.53 -3.56199 0.007637 0
M  V30 18779 O 1761.39 -5.45975 -0.239596 0
M  V30 18780 H 1758.48 -0.823883 -0.0717396 0
M  V30 18781 H 1761.03 -1.58391 0.60914 0
M  V30 18782 H 1759.8 -3.75828 1.08944 0
M  V30 18783 H 1759.42 -3.92781 -0.617178 0
M  V30 18784 N 1760.42 -0.27936 -1.55104 0
M  V30 18785 C 1761.83 0.074665 -1.59425 0
M  V30 18786 C 1762.03 1.54246 -1.29655 0
M  V30 18787 O 1761.09 2.29197 -1.05947 0
M  V30 18788 C 1762.4 -0.30379 -2.99162 0
M  V30 18789 C 1763.95 -0.250758 -3.11994 0
M  V30 18790 C 1764.43 -0.603715 -4.54004 0
M  V30 18791 N 1765.92 -0.555428 -4.59858 0
M  V30 18792 C 1766.65 -0.801278 -5.67774 0
M  V30 18793 N 1766.15 -1.11197 -6.83818 0
M  V30 18794 N 1767.94 -0.72979 -5.57342 0
M  V30 18795 H 1760.09 -1.23619 -1.7272 0
M  V30 18796 H 1762.35 -0.499704 -0.805606 0
M  V30 18797 H 1762.06 -1.32475 -3.25796 0
M  V30 18798 H 1761.93 0.353294 -3.75542 0
M  V30 18799 H 1764.32 0.760925 -2.85121 0
M  V30 18800 H 1764.4 -0.94216 -2.37817 0
M  V30 18801 H 1764.05 -1.6131 -4.81603 0
M  V30 18802 H 1763.98 0.109523 -5.26486 0
M  V30 18803 H 1766.47 -0.325348 -3.76497 0
M  V30 18804 H 1766.78 -1.28611 -7.62023 0
M  V30 18805 H 1765.13 -1.14978 -6.85423 0
M  V30 18806 H 1768.32 -0.48688 -4.65561 0
M  V30 18807 H 1768.49 -0.92477 -6.41367 0
M  V30 18808 N 1761.9 1.57599 -0.0067085 0
M  V30 18809 C 1762.84 2.08842 0.982532 0
M  V30 18810 C 1763.81 0.985339 1.33717 0
M  V30 18811 O 1765 1.25818 1.43438 0
M  V30 18812 C 1762.14 2.60188 2.26708 0
M  V30 18813 C 1761.25 3.84422 1.97087 0
M  V30 18814 C 1760.39 4.24244 3.19672 0
M  V30 18815 C 1759.42 5.41297 2.85769 0
M  V30 18816 N 1758.56 5.76381 4.00911 0
M  V30 18817 H 1763.4 2.93092 0.538618 0
M  V30 18818 H 1760.94 1.44885 0.254293 0
M  V30 18819 H 1762.9 2.88038 3.01811 0
M  V30 18820 H 1761.53 1.78802 2.68756 0
M  V30 18821 H 1760.58 3.63439 1.12323 0
M  V30 18822 H 1761.89 4.6962 1.68102 0
M  V30 18823 H 1761.04 4.53413 4.03115 0
M  V30 18824 H 1759.78 3.37769 3.518 0
M  V30 18825 H 1758.79 5.11846 2.00734 0
M  V30 18826 H 1760.01 6.29454 2.54881 0
M  V30 18827 H 1757.96 4.92863 4.32923 0
M  V30 18828 H 1757.88 6.56168 3.75473 0
M  V30 18829 H 1759.14 6.10144 4.85123 0
M  V30 18830 N 1763.37 -0.266145 1.55336 0
M  V30 18831 C 1764.31 -1.35159 1.85107 0
M  V30 18832 C 1765.32 -1.45213 0.736006 0
M  V30 18833 O 1766.51 -1.46907 1.01393 0
M  V30 18834 C 1763.61 -2.73218 2.00512 0
M  V30 18835 C 1762.78 -2.85671 3.31226 0
M  V30 18836 C 1761.84 -4.0445 3.36611 0
M  V30 18837 O 1760.87 -3.94884 4.09945 0
M  V30 18838 N 1762.07 -5.16735 2.64508 0
M  V30 18839 H 1764.83 -1.09963 2.78798 0
M  V30 18840 H 1762.39 -0.456261 1.55338 0
M  V30 18841 H 1764.39 -3.50983 2.01477 0
M  V30 18842 H 1762.96 -2.91206 1.13655 0
M  V30 18843 H 1762.18 -1.94736 3.42741 0
M  V30 18844 H 1763.46 -2.90927 4.17419 0
M  V30 18845 H 1762.86 -5.27395 2.04624 0
M  V30 18846 H 1761.42 -5.92706 2.71189 0
M  V30 18847 N 1764.85 -1.48386 -0.530967 0
M  V30 18848 C 1765.8 -1.62835 -1.63564 0
M  V30 18849 C 1766.77 -0.470453 -1.59298 0
M  V30 18850 O 1767.95 -0.693813 -1.77738 0
M  V30 18851 C 1765.09 -1.67314 -3.01828 0
M  V30 18852 C 1764.21 -2.94204 -3.16335 0
M  V30 18853 C 1763.34 -2.8985 -4.45152 0
M  V30 18854 C 1762.38 -4.11449 -4.53185 0
M  V30 18855 N 1761.52 -4.05178 -5.7339 0
M  V30 18856 H 1766.36 -2.57172 -1.50554 0
M  V30 18857 H 1763.89 -1.27537 -0.732991 0
M  V30 18858 H 1765.85 -1.67892 -3.81927 0
M  V30 18859 H 1764.48 -0.764688 -3.13612 0
M  V30 18860 H 1763.53 -3.03375 -2.29495 0
M  V30 18861 H 1764.85 -3.84179 -3.18132 0
M  V30 18862 H 1764 -2.88824 -5.33541 0
M  V30 18863 H 1762.74 -1.97602 -4.45875 0
M  V30 18864 H 1761.74 -4.12751 -3.63203 0
M  V30 18865 H 1762.97 -5.04855 -4.54201 0
M  V30 18866 H 1760.92 -3.15749 -5.75012 0
M  V30 18867 H 1760.83 -4.88857 -5.76676 0
M  V30 18868 H 1762.1 -4.08209 -6.64067 0
M  V30 18869 N 1766.33 0.779763 -1.36958 0
M  V30 18870 C 1767.58 1.53499 -1.31463 0
M  V30 18871 C 1767.9 1.94728 0.102869 0
M  V30 18872 O 1767.17 1.65688 1.0452 0
M  V30 18873 H 1765.75 0.5693 -0.483638 0
M  V30 18874 H 1768.41 0.928536 -1.7136 0
M  V30 18875 H 1767.51 2.4381 -1.94841 0
M  V30 18876 N 1767.81 1.21396 1.00503 0
M  V30 18877 C 1768.75 0.973198 2.09279 0
M  V30 18878 C 1769.72 -0.100797 1.65794 0
M  V30 18879 O 1770.91 0.0463185 1.90744 0
M  V30 18880 C 1768.05 0.543941 3.40786 0
M  V30 18881 C 1767.16 1.68737 3.97683 0
M  V30 18882 C 1766.3 1.20728 5.17299 0
M  V30 18883 C 1765.34 2.32305 5.66305 0
M  V30 18884 N 1764.47 1.8543 6.77171 0
M  V30 18885 H 1769.31 1.90441 2.29208 0
M  V30 18886 H 1766.85 0.949082 1.12387 0
M  V30 18887 H 1768.81 0.276311 4.16284 0
M  V30 18888 H 1767.44 -0.350263 3.20894 0
M  V30 18889 H 1766.49 2.06964 3.19171 0
M  V30 18890 H 1767.8 2.5271 4.30045 0
M  V30 18891 H 1766.96 0.896312 6.00043 0
M  V30 18892 H 1765.7 0.3376 4.8653 0
M  V30 18893 H 1764.7 2.64205 4.82158 0
M  V30 18894 H 1765.93 3.19769 5.99103 0
M  V30 18895 H 1763.87 1.00806 6.48208 0
M  V30 18896 H 1763.79 2.62976 7.08788 0
M  V30 18897 H 1765.06 1.57366 7.6345 0
M  V30 18898 N 1769.29 -1.19996 1.0217 0
M  V30 18899 C 1770.52 -1.93186 0.732311 0
M  V30 18900 C 1770.92 -1.75303 -0.711724 0
M  V30 18901 O 1770.27 -1.06756 -1.49495 0
M  V30 18902 C 1770.33 -3.45466 0.994655 0
M  V30 18903 C 1769.99 -3.87114 2.42882 0
M  V30 18904 C 1770.99 -3.92459 3.40987 0
M  V30 18905 C 1768.67 -4.18958 2.77091 0
M  V30 18906 C 1770.67 -4.29067 4.7136 0
M  V30 18907 C 1768.36 -4.5524 4.07676 0
M  V30 18908 C 1769.35 -4.60267 5.04622 0
M  V30 18909 O 1769.04 -4.95713 6.32869 0
M  V30 18910 H 1768.77 -0.62069 0.267806 0
M  V30 18911 H 1771.33 -1.53287 1.3672 0
M  V30 18912 H 1769.56 -3.85514 0.30261 0
M  V30 18913 H 1771.25 -3.99887 0.696049 0
M  V30 18914 H 1772.01 -3.68016 3.15895 0
M  V30 18915 H 1767.89 -4.14233 2.02317 0
M  V30 18916 H 1771.44 -4.32905 5.47027 0
M  V30 18917 H 1767.33 -4.7914 4.32545 0
M  V30 18918 H 1768.1 -5.13687 6.37234 0
M  V30 18919 N 1770.76 -0.798611 -1.35867 0
M  V30 18920 C 1771.99 -0.386378 -2.03769 0
M  V30 18921 C 1772.41 0.992154 -1.59806 0
M  V30 18922 O 1771.77 1.64094 -0.770895 0
M  V30 18923 C 1771.82 -0.468859 -3.57539 0
M  V30 18924 O 1770.92 0.520742 -4.09099 0
M  V30 18925 H 1770.26 -0.162597 -0.643784 0
M  V30 18926 H 1772.79 -1.08228 -1.73631 0
M  V30 18927 H 1772.8 -0.335775 -4.06616 0
M  V30 18928 H 1771.48 -1.47441 -3.88888 0
M  V30 18929 H 1770.06 0.348559 -3.71267 0
M  V30 18930 N 1772.24 1.47639 -0.551417 0
M  V30 18931 C 1773.49 2.02084 -0.0251553 0
M  V30 18932 C 1773.81 1.42872 1.32713 0
M  V30 18933 O 1773.08 0.601794 1.86428 0
M  V30 18934 H 1771.66 0.746973 -0.00631005 0
M  V30 18935 H 1774.32 1.81109 -0.720113 0
M  V30 18936 H 1773.42 3.12028 0.0672608 0
M  V30 18937 N 1773.72 0.287581 1.54954 0
M  V30 18938 C 1774.95 -0.331442 2.04735 0
M  V30 18939 C 1775.37 -1.47752 1.16409 0
M  V30 18940 O 1774.73 -1.80545 0.165297 0
M  V30 18941 C 1774.78 -0.778123 3.52105 0
M  V30 18942 O 1773.88 -1.88422 3.66839 0
M  V30 18943 H 1773.22 -0.0666173 0.66065 0
M  V30 18944 H 1775.75 0.425516 2.00126 0
M  V30 18945 H 1775.76 -1.07054 3.93705 0
M  V30 18946 H 1774.44 0.0603184 4.15856 0
M  V30 18947 H 1773.01 -1.59338 3.37144 0
M  V30 18948 N 1775.2 -1.57593 0.0150662 0
M  V30 18949 C 1776.45 -1.91214 -0.666599 0
M  V30 18950 C 1776.77 -0.890139 -1.72936 0
M  V30 18951 O 1776.03 0.102976 -1.95429 0
M  V30 18952 C 1776.33 -3.3158 -1.33376 0
M  V30 18953 C 1775.99 -4.49098 -0.402748 0
M  V30 18954 C 1774.66 -4.80977 -0.146455 0
M  V30 18955 C 1777.01 -5.20659 0.237376 0
M  V30 18956 C 1774.34 -5.81783 0.758003 0
M  V30 18957 C 1776.69 -6.22429 1.1298 0
M  V30 18958 C 1775.35 -6.52758 1.39513 0
M  V30 18959 H 1774.62 -0.699701 -0.243926 0
M  V30 18960 H 1777.27 -1.91358 0.073824 0
M  V30 18961 H 1775.57 -3.27632 -2.1486 0
M  V30 18962 H 1777.27 -3.54859 -1.86751 0
M  V30 18963 H 1773.86 -4.24198 -0.612678 0
M  V30 18964 H 1778.04 -4.96272 0.052408 0
M  V30 18965 H 1773.3 -6.03634 0.971415 0
M  V30 18966 H 1777.47 -6.77005 1.63208 0
M  V30 18967 H 1775.1 -7.30687 2.09764 0
M  V30 18968 N 1776.68 0.257904 -1.55475 0
M  V30 18969 C 1777.61 1.34514 -1.8434 0
M  V30 18970 C 1778.59 1.46875 -0.697594 0
M  V30 18971 O 1779.77 1.63263 -0.942196 0
M  V30 18972 C 1776.9 2.71991 -2.01839 0
M  V30 18973 C 1775.94 2.76836 -3.24445 0
M  V30 18974 S 1776.78 2.34554 -4.81399 0
M  V30 18975 C 1777.93 3.73977 -5.01888 0
M  V30 18976 H 1778.17 1.09828 -2.7627 0
M  V30 18977 H 1775.7 0.458324 -1.47441 0
M  V30 18978 H 1777.66 3.51155 -2.12604 0
M  V30 18979 H 1776.32 2.9392 -1.10771 0
M  V30 18980 H 1775.51 3.77774 -3.33621 0
M  V30 18981 H 1775.11 2.05706 -3.12348 0
M  V30 18982 H 1777.41 4.69381 -4.88556 0
M  V30 18983 H 1778.35 3.69743 -6.03901 0
M  V30 18984 H 1778.76 3.6598 -4.29789 0
M  V30 18985 N 1778.15 1.48666 0.52309 0
M  V30 18986 C 1779.4 1.56724 1.27601 0
M  V30 18987 C 1779.72 0.245958 1.93443 0
M  V30 18988 O 1778.99 -0.733053 1.81668 0
M  V30 18989 H 1777.57 0.57739 0.473952 0
M  V30 18990 H 1780.24 1.85169 0.608144 0
M  V30 18991 H 1779.33 2.35188 2.05166 0
M  V30 18992 N 1779.63 -0.772489 1.37369 0
M  V30 18993 C 1780.56 -1.89969 1.35772 0
M  V30 18994 C 1781.54 -1.68586 0.226452 0
M  V30 18995 O 1782.73 -1.89454 0.426692 0
M  V30 18996 C 1779.86 -3.27242 1.16319 0
M  V30 18997 C 1778.81 -3.63187 2.2645 0
M  V30 18998 C 1778.14 -4.98992 1.92121 0
M  V30 18999 C 1779.44 -3.70013 3.6863 0
M  V30 19000 H 1781.13 -1.91564 2.30095 0
M  V30 19001 H 1778.68 -0.920241 1.10759 0
M  V30 19002 H 1780.63 -4.05734 1.13832 0
M  V30 19003 H 1779.36 -3.26078 0.184513 0
M  V30 19004 H 1778.01 -2.87001 2.28091 0
M  V30 19005 H 1777.66 -4.94368 0.927848 0
M  V30 19006 H 1777.36 -5.24012 2.65867 0
M  V30 19007 H 1778.89 -5.79886 1.91219 0
M  V30 19008 H 1780.3 -4.38659 3.69122 0
M  V30 19009 H 1778.7 -4.06529 4.41423 0
M  V30 19010 H 1779.77 -2.70694 4.02309 0
M  V30 19011 N 1781.11 -1.21927 -0.998575 0
M  V30 19012 C 1782.34 -1.06655 -1.77291 0
M  V30 19013 C 1782.75 0.38326 -1.84869 0
M  V30 19014 O 1782.11 1.26575 -1.31473 0
M  V30 19015 C 1782.16 -1.66478 -3.20885 0
M  V30 19016 O 1781.88 -3.05788 -3.13728 0
M  V30 19017 C 1783.38 -1.56404 -4.14792 0
M  V30 19018 H 1780.6 -0.3742 -0.55697 0
M  V30 19019 H 1783.15 -1.61401 -1.25579 0
M  V30 19020 H 1781.3 -1.15809 -3.69685 0
M  V30 19021 H 1781.72 -3.34503 -4.0399 0
M  V30 19022 H 1783.19 -2.02995 -5.1332 0
M  V30 19023 H 1783.67 -0.519591 -4.36116 0
M  V30 19024 H 1784.27 -2.06352 -3.71886 0
M  V30 19025 N 1782.59 1.19452 -1.02805 0
M  V30 19026 C 1783.54 2.20533 -0.578732 0
M  V30 19027 C 1784.52 1.56539 0.372081 0
M  V30 19028 O 1785.71 1.75943 0.193185 0
M  V30 19029 C 1782.84 3.43229 0.0698982 0
M  V30 19030 C 1781.93 4.14368 -0.903306 0
M  V30 19031 N 1782.32 4.61709 -2.0654 0
M  V30 19032 C 1780.62 4.40042 -0.726572 0
M  V30 19033 C 1781.32 5.1633 -2.67914 0
M  V30 19034 N 1780.3 5.0708 -1.95884 0
M  V30 19035 H 1784.1 2.54813 -1.46451 0
M  V30 19036 H 1781.61 1.35517 -0.894927 0
M  V30 19037 H 1783.61 4.14885 0.409411 0
M  V30 19038 H 1782.27 3.1045 0.951368 0
M  V30 19039 H 1783.28 4.5656 -2.44485 0
M  V30 19040 H 1779.96 4.17366 0.105875 0
M  V30 19041 H 1781.35 5.63254 -3.66326 0
M  V30 19042 N 1784.07 0.805805 1.35442 0
M  V30 19043 C 1785.31 0.385808 1.98791 0
M  V30 19044 C 1785.64 -1.04681 1.63927 0
M  V30 19045 O 1784.9 -1.7408 0.894125 0
M  V30 19046 C 1785.2 0.515335 3.53665 0
M  V30 19047 C 1784.86 1.91115 4.08394 0
M  V30 19048 C 1783.52 2.29302 4.23053 0
M  V30 19049 C 1785.88 2.82437 4.38039 0
M  V30 19050 C 1783.2 3.58182 4.64675 0
M  V30 19051 C 1785.56 4.10762 4.811 0
M  V30 19052 C 1784.22 4.48949 4.93964 0
M  V30 19053 H 1783.49 0.141177 0.727427 0
M  V30 19054 H 1786.14 1.02644 1.61667 0
M  V30 19055 H 1784.44 -0.208753 3.91243 0
M  V30 19056 H 1786.14 0.171152 4.00635 0
M  V30 19057 H 1782.73 1.60446 3.97436 0
M  V30 19058 H 1786.91 2.54183 4.26268 0
M  V30 19059 H 1782.17 3.87618 4.72824 0
M  V30 19060 H 1786.34 4.81626 5.03 0
M  V30 19061 H 1783.97 5.48867 5.25974 0
M  V30 19062 N 1785.54 -1.47344 0.559239 0
M  V30 19063 C 1786.79 -2.02468 0.035943 0
M  V30 19064 C 1787.12 -1.43337 -1.31472 0
M  V30 19065 O 1786.37 -0.579355 -1.86928 0
M  V30 19066 C 1786.67 -3.57247 -0.104523 0
M  V30 19067 C 1786.34 -4.35307 1.17551 0
M  V30 19068 C 1785 -4.56354 1.52625 0
M  V30 19069 C 1787.35 -4.8031 2.02365 0
M  V30 19070 C 1784.68 -5.19653 2.72356 0
M  V30 19071 C 1787.03 -5.4493 3.213 0
M  V30 19072 C 1785.7 -5.64209 3.56685 0
M  V30 19073 H 1784.97 -0.740883 0.0131525 0
M  V30 19074 H 1787.61 -1.76992 0.73116 0
M  V30 19075 H 1785.92 -3.81727 -0.88272 0
M  V30 19076 H 1787.62 -3.97551 -0.5248 0
M  V30 19077 H 1784.21 -4.19206 0.892413 0
M  V30 19078 H 1788.39 -4.63827 1.76575 0
M  V30 19079 H 1783.65 -5.32773 2.99938 0
M  V30 19080 H 1787.82 -5.78764 3.87305 0
M  V30 19081 H 1785.45 -6.13028 4.49556 0
M  V30 19082 N 1787.02 -0.295795 -1.54799 0
M  V30 19083 C 1788.27 0.314384 -1.9964 0
M  V30 19084 C 1788.59 1.5481 -1.1857 0
M  V30 19085 O 1787.86 1.93884 -0.280353 0
M  V30 19086 H 1786.44 0.119153 -0.737436 0
M  V30 19087 H 1789.1 -0.40592 -1.90626 0
M  V30 19088 H 1788.2 0.59002 -3.06472 0
M  V30 19089 N 1788.5 1.57583 -0.0234236 0
M  V30 19090 C 1789.73 1.95577 0.66583 0
M  V30 19091 C 1790.14 0.898193 1.66521 0
M  V30 19092 O 1789.48 -0.129109 1.83246 0
M  V30 19093 C 1789.54 3.29685 1.43345 0
M  V30 19094 C 1789.21 4.53136 0.593048 0
M  V30 19095 C 1790.21 5.19739 -0.129251 0
M  V30 19096 C 1787.89 4.99473 0.532125 0
M  V30 19097 C 1789.88 6.30997 -0.901206 0
M  V30 19098 C 1787.57 6.10615 -0.24354 0
M  V30 19099 C 1788.57 6.76235 -0.958917 0
M  V30 19100 O 1788.26 7.85243 -1.72188 0
M  V30 19101 H 1787.99 0.649084 0.188853 0
M  V30 19102 H 1790.54 2.05253 -0.0777525 0
M  V30 19103 H 1788.77 3.16484 2.22205 0
M  V30 19104 H 1790.46 3.52623 2.01027 0
M  V30 19105 H 1791.23 4.84914 -0.0914812 0
M  V30 19106 H 1787.11 4.48207 1.0785 0
M  V30 19107 H 1790.65 6.82149 -1.46011 0
M  V30 19108 H 1786.55 6.44879 -0.283046 0
M  V30 19109 H 1787.32 8.0188 -1.64105 0
M  V30 19110 N 1789.98 -0.249655 1.5561 0
M  V30 19111 C 1790.91 -1.33188 1.8653 0
M  V30 19112 C 1791.92 -1.44424 0.751366 0
M  V30 19113 O 1793.11 -1.45823 1.02946 0
M  V30 19114 C 1790.21 -2.71076 2.03398 0
M  V30 19115 C 1789.39 -2.82142 3.34237 0
M  V30 19116 C 1788.45 -4.00857 3.40882 0
M  V30 19117 O 1787.47 -3.90514 4.1411 0
M  V30 19118 N 1788.67 -5.13901 2.69974 0
M  V30 19119 H 1791.44 -1.07 2.79948 0
M  V30 19120 H 1789 -0.43976 1.55813 0
M  V30 19121 H 1790.99 -3.48826 2.05188 0
M  V30 19122 H 1789.56 -2.89985 1.16738 0
M  V30 19123 H 1788.78 -1.9109 3.44788 0
M  V30 19124 H 1790.07 -2.86483 4.20481 0
M  V30 19125 H 1789.47 -5.25195 2.10206 0
M  V30 19126 H 1788.02 -5.89796 2.7746 0
M  V30 19127 N 1791.46 -1.48941 -0.515198 0
M  V30 19128 C 1792.71 -1.57398 -1.26768 0
M  V30 19129 C 1793.03 -0.256213 -1.93309 0
M  V30 19130 O 1792.3 0.723408 -1.82054 0
M  V30 19131 H 1790.88 -0.579895 -0.470883 0
M  V30 19132 H 1793.54 -1.85489 -0.598315 0
M  V30 19133 H 1792.63 -2.36272 -2.03916 0
M  V30 19134 N 1792.94 0.765193 -1.37777 0
M  V30 19135 C 1794.35 1.06666 -1.1872 0
M  V30 19136 C 1794.55 2.01481 -0.0278636 0
M  V30 19137 O 1793.61 2.44514 0.630006 0
M  V30 19138 C 1794.92 1.65787 -2.50868 0
M  V30 19139 C 1796.47 1.78014 -2.57449 0
M  V30 19140 C 1796.94 2.40548 -3.89744 0
M  V30 19141 N 1798.43 2.47992 -3.91221 0
M  V30 19142 C 1799.17 2.97245 -4.9034 0
M  V30 19143 N 1798.67 3.46621 -5.99855 0
M  V30 19144 N 1800.46 2.96179 -4.77739 0
M  V30 19145 H 1792.61 0.135775 -2.11966 0
M  V30 19146 H 1794.87 0.122863 -0.940005 0
M  V30 19147 H 1794.58 1.03588 -3.36099 0
M  V30 19148 H 1794.45 2.65 -2.6843 0
M  V30 19149 H 1796.84 2.39345 -1.72621 0
M  V30 19150 H 1796.92 0.775388 -2.43765 0
M  V30 19151 H 1796.56 1.79855 -4.74989 0
M  V30 19152 H 1796.49 3.41643 -4.00734 0
M  V30 19153 H 1798.99 2.13056 -3.12114 0
M  V30 19154 H 1799.3 3.82625 -6.7143 0
M  V30 19155 H 1797.64 3.44709 -6.0349 0
M  V30 19156 H 1800.83 2.56909 -3.913 0
M  V30 19157 H 1801.01 3.34253 -5.55139 0
M  V30 19158 N 1794.41 1.22455 0.992094 0
M  V30 19159 C 1795.64 1.07677 1.77258 0
M  V30 19160 C 1796.06 -0.368377 1.84458 0
M  V30 19161 O 1795.42 -1.26614 1.29763 0
M  V30 19162 C 1795.47 1.69353 3.18358 0
M  V30 19163 O 1794.57 0.947746 4.01362 0
M  V30 19164 H 1793.91 0.378141 0.545807 0
M  V30 19165 H 1796.44 1.62269 1.2462 0
M  V30 19166 H 1796.45 1.7411 3.68985 0
M  V30 19167 H 1795.13 2.74515 3.12433 0
M  V30 19168 H 1793.71 0.976245 3.59894 0
M  V30 19169 N 1795.89 -1.18905 1.03437 0
M  V30 19170 C 1797.12 -1.93219 0.753743 0
M  V30 19171 C 1797.54 -1.75299 -0.682055 0
M  V30 19172 O 1796.9 -1.05892 -1.47161 0
M  V30 19173 C 1796.95 -3.42864 1.117 0
M  V30 19174 O 1796.05 -4.11708 0.238816 0
M  V30 19175 H 1795.39 -0.603015 0.277973 0
M  V30 19176 H 1797.92 -1.50823 1.38252 0
M  V30 19177 H 1797.93 -3.9355 1.07623 0
M  V30 19178 H 1796.61 -3.55228 2.163 0
M  V30 19179 H 1795.18 -3.71359 0.338652 0
M  V30 19180 N 1797.37 -0.812977 -1.35013 0
M  V30 19181 C 1798.3 -0.242397 -2.32238 0
M  V30 19182 C 1799.28 0.635676 -1.57776 0
M  V30 19183 O 1800.47 0.564621 -1.85811 0
M  V30 19184 C 1797.6 0.604686 -3.41995 0
M  V30 19185 C 1796.55 -0.17542 -4.2764 0
M  V30 19186 C 1795.88 0.793772 -5.28775 0
M  V30 19187 C 1797.18 -1.37802 -5.03794 0
M  V30 19188 H 1798.87 -1.0547 -2.80208 0
M  V30 19189 H 1796.42 -0.508619 -1.34718 0
M  V30 19190 H 1798.37 1.01396 -4.09019 0
M  V30 19191 H 1797.09 1.44994 -2.9265 0
M  V30 19192 H 1795.75 -0.565948 -3.62205 0
M  V30 19193 H 1795.4 1.63471 -4.75696 0
M  V30 19194 H 1795.1 0.276085 -5.86951 0
M  V30 19195 H 1796.62 1.20112 -5.9867 0
M  V30 19196 H 1798.04 -1.04328 -5.63727 0
M  V30 19197 H 1796.43 -1.83064 -5.71496 0
M  V30 19198 H 1797.5 -2.16138 -4.34065 0
M  V30 19199 N 1798.85 1.47045 -0.567045 0
M  V30 19200 C 1800.26 1.86202 -0.13627 0
M  V30 19201 C 1800.61 1.47252 1.29658 0
M  V30 19202 O 1799.73 0.880121 1.97694 0
M  V30 19203 C 1800.33 3.37945 -0.240528 0
M  V30 19204 C 1798.89 3.76157 0.135272 0
M  V30 19205 C 1798.04 2.71089 -0.583628 0
M  V30 19206 H 1800.99 1.38423 -0.776196 0
M  V30 19207 H 1801.01 3.76673 0.538293 0
M  V30 19208 H 1800.52 3.66263 -1.28348 0
M  V30 19209 H 1798.62 3.53456 1.17896 0
M  V30 19210 H 1798.73 4.78547 -0.230137 0
M  V30 19211 H 1797.1 2.54687 -0.0256067 0
M  V30 19212 H 1797.88 3.02247 -1.62792 0
M  V30 19213 N 1800.33 0.304 1.5464 0
M  V30 19214 C 1801.55 -0.309709 2.05075 0
M  V30 19215 C 1801.98 -1.46509 1.1797 0
M  V30 19216 O 1801.33 -1.80359 0.184437 0
M  V30 19217 C 1801.38 -0.740734 3.5291 0
M  V30 19218 O 1800.49 -1.8452 3.68817 0
M  V30 19219 H 1799.83 -0.0596065 0.661319 0
M  V30 19220 H 1802.36 0.446718 1.99664 0
M  V30 19221 H 1802.37 -1.02873 3.94818 0
M  V30 19222 H 1801.04 0.104422 4.15769 0
M  V30 19223 H 1799.62 -1.55753 3.38815 0
M  V30 19224 N 1801.8 -1.57568 0.0317802 0
M  V30 19225 C 1802.71 -2.13842 -0.964811 0
M  V30 19226 C 1803.73 -1.09134 -1.3552 0
M  V30 19227 O 1804.91 -1.41205 -1.43608 0
M  V30 19228 C 1801.97 -2.65654 -2.22775 0
M  V30 19229 C 1801.03 -3.85087 -1.89753 0
M  V30 19230 C 1800.26 -4.34419 -3.10026 0
M  V30 19231 O 1800.49 -3.8291 -4.22772 0
M  V30 19232 O 1799.42 -5.26233 -2.92169 0
M  V30 19233 H 1803.25 -2.99279 -0.516302 0
M  V30 19234 H 1800.83 -1.482 -0.188982 0
M  V30 19235 H 1802.71 -2.99035 -2.96911 0
M  V30 19236 H 1801.39 -1.83299 -2.66802 0
M  V30 19237 H 1800.3 -3.56628 -1.12994 0
M  V30 19238 H 1801.63 -4.68613 -1.50541 0
M  V30 19239 N 1803.28 0.241399 -1.5574 0
M  V30 19240 C 1804.53 0.968663 -1.77829 0
M  V30 19241 C 1804.86 1.85109 -0.597078 0
M  V30 19242 O 1804.11 1.91153 0.419396 0
M  V30 19243 C 1804.41 1.8552 -3.05478 0
M  V30 19244 C 1804.08 1.12767 -4.36571 0
M  V30 19245 C 1802.74 0.926631 -4.72194 0
M  V30 19246 C 1805.09 0.612437 -5.17589 0
M  V30 19247 C 1802.42 0.198133 -5.86365 0
M  V30 19248 C 1804.77 -0.102621 -6.32517 0
M  V30 19249 C 1803.44 -0.315095 -6.66756 0
M  V30 19250 H 1802.71 0.354459 -0.650723 0
M  V30 19251 H 1805.35 0.238329 -1.90011 0
M  V30 19252 H 1803.66 2.65277 -2.88332 0
M  V30 19253 H 1805.35 2.4197 -3.19768 0
M  V30 19254 H 1801.94 1.29432 -4.08589 0
M  V30 19255 H 1806.13 0.755287 -4.90519 0
M  V30 19256 H 1801.38 0.0230937 -6.11396 0
M  V30 19257 H 1805.56 -0.509468 -6.94534 0
M  V30 19258 H 1803.19 -0.881538 -7.55071 0
M  V30 19259 N 1804.76 1.49212 0.507292 0
M  V30 19260 C 1806.04 1.4888 1.26863 0
M  V30 19261 C 1806.42 0.213007 2.10023 0
M  V30 19262 O 1805.77 -0.804785 2.13858 0
M  V30 19263 C 1805.98 2.76407 2.13073 0
M  V30 19264 C 1807.32 3.25647 2.72468 0
M  V30 19265 O 1808.35 2.77481 2.23344 0
M  V30 19266 O 1807.21 4.09518 3.6188 0
M  V30 19267 H 1804.3 0.595597 0.573754 0
M  V30 19268 H 1806.85 1.6147 0.52208 0
M  V30 19269 H 1805.62 3.60758 1.51558 0
M  V30 19270 H 1805.24 2.66648 2.94932 0
M  V30 19271 N 1806.24 -0.757876 1.38181 0
M  V30 19272 C 1807.48 -1.52975 1.35565 0
M  V30 19273 C 1807.84 -1.9192 -0.0554193 0
M  V30 19274 O 1809.04 -2.68006 -0.206418 0
M  V30 19275 C 1807.31 -2.75158 2.28085 0
M  V30 19276 S 1808.87 -3.65072 2.4345 0
M  V30 19277 H 1805.69 -0.523547 0.481061 0
M  V30 19278 H 1808.29 -0.890034 1.74065 0
M  V30 19279 H 1807 -2.44649 3.29507 0
M  V30 19280 H 1806.53 -3.44078 1.90719 0
M  V30 19281 H 1808.54 -4.67773 1.65538 0
M  V30 19282 N 1807.72 -1.22979 -0.985586 0
M  V30 19283 C 1808.66 -1.00637 -2.07704 0
M  V30 19284 C 1809.63 0.0744076 -1.65933 0
M  V30 19285 O 1810.82 -0.0766583 -1.90646 0
M  V30 19286 C 1807.96 -0.598088 -3.39878 0
M  V30 19287 C 1807.07 -1.75043 -3.94948 0
M  V30 19288 C 1806.21 -1.28943 -5.15313 0
M  V30 19289 C 1805.25 -2.41285 -5.62537 0
M  V30 19290 N 1804.38 -1.9618 -6.74135 0
M  V30 19291 H 1809.22 -1.94063 -2.26149 0
M  V30 19292 H 1806.76 -0.966841 -1.10863 0
M  V30 19293 H 1808.72 -0.342503 -4.15792 0
M  V30 19294 H 1807.35 0.299167 -3.21411 0
M  V30 19295 H 1806.4 -2.12015 -3.15838 0
M  V30 19296 H 1807.71 -2.5952 -4.25971 0
M  V30 19297 H 1806.87 -0.99166 -5.98541 0
M  V30 19298 H 1805.6 -0.41496 -4.85931 0
M  V30 19299 H 1804.61 -2.71842 -4.77893 0
M  V30 19300 H 1805.83 -3.2926 -5.9394 0
M  V30 19301 H 1803.78 -1.11105 -6.46523 0
M  V30 19302 H 1803.7 -2.74219 -7.04514 0
M  V30 19303 H 1804.97 -1.69492 -7.6085 0
M  V30 19304 N 1809.19 1.18355 -1.04066 0
M  V30 19305 C 1810.12 2.24196 -0.652568 0
M  V30 19306 C 1811.11 1.66581 0.344195 0
M  V30 19307 O 1812.29 1.929 0.224296 0
M  V30 19308 C 1809.42 3.47297 -0.0147409 0
M  V30 19309 C 1808.37 4.17661 -0.935044 0
M  V30 19310 C 1807.7 5.34455 -0.161692 0
M  V30 19311 C 1809 4.71153 -2.25415 0
M  V30 19312 H 1810.69 2.56914 -1.53738 0
M  V30 19313 H 1808.24 1.23492 -0.740658 0
M  V30 19314 H 1810.19 4.20544 0.268484 0
M  V30 19315 H 1808.92 3.13812 0.904949 0
M  V30 19316 H 1807.58 3.46312 -1.20265 0
M  V30 19317 H 1807.22 4.97219 0.760404 0
M  V30 19318 H 1806.92 5.82469 -0.774805 0
M  V30 19319 H 1808.45 6.10493 0.114515 0
M  V30 19320 H 1809.86 5.36095 -2.03163 0
M  V30 19321 H 1808.26 5.29701 -2.82022 0
M  V30 19322 H 1809.33 3.88576 -2.90064 0
M  V30 19323 N 1810.67 0.820125 1.3458 0
M  V30 19324 C 1811.64 0.245462 2.27882 0
M  V30 19325 C 1812.64 -0.575025 1.50167 0
M  V30 19326 O 1813.83 -0.391536 1.69743 0
M  V30 19327 C 1810.96 -0.656199 3.34525 0
M  V30 19328 H 1812.15 1.06853 2.80218 0
M  V30 19329 H 1809.7 0.591777 1.44664 0
M  V30 19330 H 1810.44 -1.50244 2.87398 0
M  V30 19331 H 1810.22 -0.0693951 3.92039 0
M  V30 19332 H 1811.71 -1.05216 4.04128 0
M  V30 19333 N 1812.15 -1.46743 0.574835 0
M  V30 19334 C 1813.38 -2.06505 0.0627081 0
M  V30 19335 C 1813.79 -1.42535 -1.2442 0
M  V30 19336 O 1813.13 -0.522043 -1.76126 0
M  V30 19337 C 1813.19 -3.59021 -0.185574 0
M  V30 19338 C 1812.86 -4.45136 1.03455 0
M  V30 19339 C 1813.85 -4.82163 1.94461 0
M  V30 19340 C 1811.54 -4.8639 1.25418 0
M  V30 19341 C 1813.53 -5.59262 3.05786 0
M  V30 19342 C 1811.22 -5.63251 2.37049 0
M  V30 19343 C 1812.22 -5.99599 3.27062 0
M  V30 19344 O 1811.91 -6.74908 4.36755 0
M  V30 19345 H 1811.64 -0.674082 0.0508932 0
M  V30 19346 H 1814.19 -1.89476 0.792968 0
M  V30 19347 H 1812.42 -3.74327 -0.970354 0
M  V30 19348 H 1814.11 -4.00739 -0.645242 0
M  V30 19349 H 1814.88 -4.50876 1.78705 0
M  V30 19350 H 1810.76 -4.57553 0.56266 0
M  V30 19351 H 1814.3 -5.87552 3.7607 0
M  V30 19352 H 1810.2 -5.93951 2.5277 0
M  V30 19353 H 1810.97 -6.93323 4.35024 0
M  V30 19354 N 1813.63 -0.312197 -1.54477 0
M  V30 19355 C 1814.59 0.54612 -2.22599 0
M  V30 19356 C 1815.59 1.05252 -1.21568 0
M  V30 19357 O 1816.78 0.946756 -1.46226 0
M  V30 19358 C 1813.91 1.75733 -2.92114 0
M  V30 19359 H 1815.11 -0.0492216 -2.9986 0
M  V30 19360 H 1812.66 -0.063149 -1.56172 0
M  V30 19361 H 1813.39 2.39221 -2.18961 0
M  V30 19362 H 1813.18 1.40175 -3.66188 0
M  V30 19363 H 1814.67 2.36685 -3.44049 0
M  V30 19364 N 1815.11 1.57549 -0.040136 0
M  V30 19365 C 1816.34 1.96272 0.645049 0
M  V30 19366 C 1816.74 0.915804 1.65559 0
M  V30 19367 O 1816.09 -0.109666 1.83372 0
M  V30 19368 C 1816.15 3.31187 1.3984 0
M  V30 19369 C 1815.81 4.53739 0.544953 0
M  V30 19370 C 1816.81 5.19573 -0.184369 0
M  V30 19371 C 1814.5 5.0001 0.479119 0
M  V30 19372 C 1816.49 6.30006 -0.968081 0
M  V30 19373 C 1814.18 6.10322 -0.30829 0
M  V30 19374 C 1815.17 6.7518 -1.03059 0
M  V30 19375 O 1814.86 7.83373 -1.80507 0
M  V30 19376 H 1814.59 0.651051 0.181958 0
M  V30 19377 H 1817.15 2.05159 -0.0995179 0
M  V30 19378 H 1815.38 3.18823 2.18835 0
M  V30 19379 H 1817.07 3.54735 1.97276 0
M  V30 19380 H 1817.83 4.84789 -0.142908 0
M  V30 19381 H 1813.71 4.49325 1.0309 0
M  V30 19382 H 1817.26 6.80562 -1.53237 0
M  V30 19383 H 1813.15 6.44543 -0.351428 0
M  V30 19384 H 1813.92 8.00094 -1.72601 0
M  V30 19385 N 1816.58 -0.233136 1.55866 0
M  V30 19386 C 1817.83 -0.957324 1.77988 0
M  V30 19387 C 1818.15 -1.85325 0.606593 0
M  V30 19388 O 1817.42 -1.92237 -0.377047 0
M  V30 19389 H 1816 -0.356474 0.656457 0
M  V30 19390 H 1818.67 -0.247774 1.93319 0
M  V30 19391 H 1817.76 -1.57096 2.6968 0
M  V30 19392 N 1818.06 -1.49479 -0.499372 0
M  V30 19393 C 1819.01 -1.62662 -1.59766 0
M  V30 19394 C 1820 -0.482218 -1.53504 0
M  V30 19395 O 1821.19 -0.735252 -1.61006 0
M  V30 19396 C 1818.32 -1.69797 -2.98368 0
M  V30 19397 C 1817.4 -2.8982 -3.09621 0
M  V30 19398 N 1817.8 -4.13876 -2.90758 0
M  V30 19399 C 1816.09 -2.87791 -3.40723 0
M  V30 19400 C 1816.79 -4.94566 -3.06235 0
M  V30 19401 N 1815.77 -4.27963 -3.35184 0
M  V30 19402 H 1819.57 -2.56296 -1.43839 0
M  V30 19403 H 1817.09 -1.46274 -0.705532 0
M  V30 19404 H 1819.08 -1.7734 -3.77301 0
M  V30 19405 H 1817.74 -0.773015 -3.15364 0
M  V30 19406 H 1818.75 -4.43829 -2.669 0
M  V30 19407 H 1815.43 -2.0468 -3.63885 0
M  V30 19408 H 1816.82 -6.03122 -2.9613 0
M  V30 19409 N 1819.54 0.750537 -1.38581 0
M  V30 19410 C 1820.5 1.84599 -1.35852 0
M  V30 19411 C 1821.5 1.58709 -0.258462 0
M  V30 19412 O 1822.69 1.66397 -0.51552 0
M  V30 19413 C 1819.83 3.22124 -1.11573 0
M  V30 19414 H 1821.02 1.88426 -2.33314 0
M  V30 19415 H 1818.57 0.952564 -1.23919 0
M  V30 19416 H 1819.31 3.23965 -0.147295 0
M  V30 19417 H 1819.09 3.42311 -1.91221 0
M  V30 19418 H 1820.58 4.02198 -1.12367 0
M  V30 19419 N 1821.02 1.235 0.979051 0
M  V30 19420 C 1821.98 1.01854 2.05325 0
M  V30 19421 C 1822.98 -0.0201133 1.60787 0
M  V30 19422 O 1824.17 0.219761 1.72808 0
M  V30 19423 C 1821.3 0.541404 3.36573 0
M  V30 19424 H 1822.5 1.97183 2.25962 0
M  V30 19425 H 1820.05 1.05563 1.15265 0
M  V30 19426 H 1820.79 -0.415607 3.21626 0
M  V30 19427 H 1820.57 1.29092 3.7024 0
M  V30 19428 H 1822.06 0.410635 4.15576 0
M  V30 19429 N 1822.5 -1.17802 1.04693 0
M  V30 19430 C 1823.72 -1.92408 0.774194 0
M  V30 19431 C 1824.15 -1.76012 -0.663424 0
M  V30 19432 O 1823.51 -1.07447 -1.4603 0
M  V30 19433 C 1823.55 -3.4166 1.1533 0
M  V30 19434 O 1822.66 -4.11431 0.282469 0
M  V30 19435 H 1822 -0.600033 0.284353 0
M  V30 19436 H 1824.53 -1.49348 1.39844 0
M  V30 19437 H 1824.54 -3.92386 1.11791 0
M  V30 19438 H 1823.21 -3.52914 2.20056 0
M  V30 19439 H 1821.79 -3.70979 0.378021 0
M  V30 19440 N 1823.98 -0.827251 -1.34143 0
M  V30 19441 C 1825.22 -0.413762 -1.9741 0
M  V30 19442 C 1825.54 1.0297 -1.66303 0
M  V30 19443 O 1826.74 1.5473 -2.23094 0
M  V30 19444 C 1825.2 -0.688904 -3.53245 0
M  V30 19445 C 1824.81 -2.14627 -3.93242 0
M  V30 19446 C 1826.55 -0.341794 -4.23122 0
M  V30 19447 C 1824.46 -2.36607 -5.42006 0
M  V30 19448 H 1823.39 -0.150982 -0.738729 0
M  V30 19449 H 1826.04 -1.01421 -1.52925 0
M  V30 19450 H 1824.42 -0.0182319 -3.95996 0
M  V30 19451 H 1825.6 -2.85646 -3.61584 0
M  V30 19452 H 1823.91 -2.45523 -3.36314 0
M  V30 19453 H 1826.51 -0.483797 -5.32507 0
M  V30 19454 H 1826.85 0.714135 -4.10129 0
M  V30 19455 H 1827.38 -0.96722 -3.85862 0
M  V30 19456 H 1824.12 -3.40722 -5.5999 0
M  V30 19457 H 1823.64 -1.70137 -5.75164 0
M  V30 19458 H 1825.32 -2.19181 -6.08744 0
M  V30 19459 N 1825.45 1.46436 -0.582609 0
M  V30 19460 C 1826.7 2.02685 -0.0682503 0
M  V30 19461 C 1827.03 1.45315 1.2883 0
M  V30 19462 O 1826.31 0.61821 1.84414 0
M  V30 19463 C 1826.59 3.601 -0.00237797 0
M  V30 19464 C 1826.44 4.27855 -1.38782 0
M  V30 19465 C 1827.76 4.34525 0.69829 0
M  V30 19466 H 1824.88 0.736531 -0.0262761 0
M  V30 19467 H 1827.52 1.7458 -0.749789 0
M  V30 19468 H 1825.67 3.84176 0.57803 0
M  V30 19469 H 1827.35 4.15043 -2.01339 0
M  V30 19470 H 1825.59 3.87221 -1.95557 0
M  V30 19471 H 1826.26 5.36614 -1.2942 0
M  V30 19472 H 1828.74 4.15594 0.205219 0
M  V30 19473 H 1827.61 5.44244 0.71341 0
M  V30 19474 H 1827.87 4.05575 1.75957 0
M  V30 19475 N 1826.93 0.320385 1.54309 0
M  V30 19476 C 1828.18 -0.284021 1.9969 0
M  V30 19477 C 1828.49 -1.53496 1.21237 0
M  V30 19478 O 1829.7 -2.21517 1.5698 0
M  V30 19479 C 1828.16 -0.556621 3.5557 0
M  V30 19480 C 1827.76 0.677086 4.42854 0
M  V30 19481 C 1829.51 -1.12116 4.09427 0
M  V30 19482 C 1827.41 0.376566 5.902 0
M  V30 19483 H 1826.34 -0.109905 0.745947 0
M  V30 19484 H 1829 0.432113 1.7834 0
M  V30 19485 H 1827.38 -1.33286 3.72895 0
M  V30 19486 H 1828.55 1.45266 4.37304 0
M  V30 19487 H 1826.87 1.16161 3.99869 0
M  V30 19488 H 1829.46 -1.36057 5.171 0
M  V30 19489 H 1829.81 -2.06954 3.61215 0
M  V30 19490 H 1830.34 -0.406174 3.95721 0
M  V30 19491 H 1827.08 1.29403 6.426 0
M  V30 19492 H 1826.6 -0.36136 5.9871 0
M  V30 19493 H 1828.28 -0.014773 6.46998 0
M  V30 19494 N 1828.41 -1.57525 0.0484906 0
M  V30 19495 C 1829.32 -2.14854 -0.942076 0
M  V30 19496 C 1830.34 -1.10565 -1.34355 0
M  V30 19497 O 1831.51 -1.4272 -1.42102 0
M  V30 19498 C 1828.58 -2.68002 -2.19945 0
M  V30 19499 C 1827.64 -3.87078 -1.85658 0
M  V30 19500 C 1826.87 -4.37682 -3.05401 0
M  V30 19501 O 1827.09 -3.87373 -4.18687 0
M  V30 19502 O 1826.03 -5.29302 -2.86571 0
M  V30 19503 H 1829.85 -2.9981 -0.48453 0
M  V30 19504 H 1827.44 -1.48392 -0.173252 0
M  V30 19505 H 1829.32 -3.02167 -2.93722 0
M  V30 19506 H 1828 -1.86118 -2.64843 0
M  V30 19507 H 1826.9 -3.57806 -1.09205 0
M  V30 19508 H 1828.24 -4.70184 -1.45562 0
M  V30 19509 N 1829.89 0.224867 -1.55988 0
M  V30 19510 C 1831.11 0.970897 -1.83271 0
M  V30 19511 C 1831.54 1.77293 -0.628399 0
M  V30 19512 O 1830.9 1.76301 0.422804 0
M  V30 19513 C 1830.94 1.86686 -3.08514 0
M  V30 19514 O 1830.05 2.96174 -2.86975 0
M  V30 19515 H 1829.39 0.275093 -0.604334 0
M  V30 19516 H 1831.92 0.239183 -2.03197 0
M  V30 19517 H 1831.93 2.27731 -3.3853 0
M  V30 19518 H 1830.6 1.27733 -3.95799 0
M  V30 19519 H 1829.18 2.59099 -2.68183 0
M  V30 19520 N 1831.37 1.49742 0.491438 0
M  V30 19521 C 1832.61 1.59395 1.24248 0
M  V30 19522 C 1832.93 0.286934 1.92877 0
M  V30 19523 O 1832.2 -0.694353 1.83182 0
M  V30 19524 H 1830.78 0.587313 0.461598 0
M  V30 19525 H 1833.45 1.86417 0.56873 0
M  V30 19526 H 1832.54 2.39487 2.00131 0
M  V30 19527 N 1832.84 -0.743177 1.38977 0
M  V30 19528 C 1833.77 -1.87047 1.3977 0
M  V30 19529 C 1834.76 -1.68068 0.262161 0
M  V30 19530 O 1835.94 -1.88507 0.466782 0
M  V30 19531 C 1833.07 -3.24701 1.23234 0
M  V30 19532 C 1832.02 -3.58302 2.34102 0
M  V30 19533 C 1831.35 -4.94805 2.02663 0
M  V30 19534 C 1832.65 -3.62111 3.76395 0
M  V30 19535 H 1834.34 -1.8664 2.34107 0
M  V30 19536 H 1831.89 -0.896541 1.12686 0
M  V30 19537 H 1833.84 -4.03228 1.22412 0
M  V30 19538 H 1832.57 -3.25614 0.253638 0
M  V30 19539 H 1831.23 -2.82099 2.34128 0
M  V30 19540 H 1830.87 -4.92289 1.0325 0
M  V30 19541 H 1830.57 -5.18254 2.76922 0
M  V30 19542 H 1832.1 -5.75699 2.03477 0
M  V30 19543 H 1833.51 -4.30731 3.78343 0
M  V30 19544 H 1831.91 -3.97075 4.49946 0
M  V30 19545 H 1832.98 -2.62099 4.07961 0
M  V30 19546 N 1834.32 -1.24018 -0.972487 0
M  V30 19547 C 1835.55 -1.10392 -1.74989 0
M  V30 19548 C 1835.97 0.34396 -1.8564 0
M  V30 19549 O 1835.32 1.23757 -1.34128 0
M  V30 19550 C 1835.37 -1.73247 -3.17282 0
M  V30 19551 O 1835.09 -3.12374 -3.07171 0
M  V30 19552 C 1836.6 -1.65168 -4.11381 0
M  V30 19553 H 1833.82 -0.38593 -0.548907 0
M  V30 19554 H 1836.36 -1.64028 -1.22127 0
M  V30 19555 H 1834.51 -1.23625 -3.67145 0
M  V30 19556 H 1834.93 -3.42997 -3.96804 0
M  V30 19557 H 1836.4 -2.13837 -5.08898 0
M  V30 19558 H 1836.88 -0.61198 -4.34915 0
M  V30 19559 H 1837.49 -2.14194 -3.67425 0
M  V30 19560 N 1835.8 1.17245 -1.05316 0
M  V30 19561 C 1837.05 1.87165 -0.762471 0
M  V30 19562 C 1837.37 1.8151 0.712687 0
M  V30 19563 O 1836.64 1.2419 1.51504 0
M  V30 19564 H 1835.22 0.69292 -0.279054 0
M  V30 19565 H 1837.88 1.42227 -1.33257 0
M  V30 19566 H 1836.98 2.92872 -1.07854 0
M  V30 19567 N 1837.28 0.834353 1.33702 0
M  V30 19568 C 1838.51 0.440589 2.01847 0
M  V30 19569 C 1838.92 -0.961513 1.62947 0
M  V30 19570 O 1838.26 -1.63556 0.836377 0
M  V30 19571 C 1838.32 0.476396 3.5633 0
M  V30 19572 C 1837.99 1.83382 4.18593 0
M  V30 19573 C 1838.98 2.79638 4.3829 0
M  V30 19574 C 1836.67 2.12543 4.55116 0
M  V30 19575 C 1838.66 4.0322 4.93652 0
M  V30 19576 C 1836.35 3.36382 5.10187 0
M  V30 19577 C 1837.35 4.31537 5.294 0
M  V30 19578 O 1837.03 5.53187 5.833 0
M  V30 19579 H 1836.77 0.173726 0.653296 0
M  V30 19580 H 1839.32 1.1272 1.71707 0
M  V30 19581 H 1837.55 -0.266969 3.85777 0
M  V30 19582 H 1839.24 0.101088 4.05774 0
M  V30 19583 H 1840.01 2.58409 4.10427 0
M  V30 19584 H 1835.88 1.39274 4.39459 0
M  V30 19585 H 1839.43 4.77502 5.08564 0
M  V30 19586 H 1835.33 3.5747 5.3748 0
M  V30 19587 H 1836.09 5.54864 6.01721 0
M  V30 19588 N 1838.76 -1.46125 0.590367 0
M  V30 19589 C 1840.01 -2.01555 0.0765543 0
M  V30 19590 C 1840.32 -1.46661 -1.29422 0
M  V30 19591 O 1841.52 -1.93958 -1.8998 0
M  V30 19592 C 1839.98 -3.59797 0.0862369 0
M  V30 19593 C 1839.59 -4.23687 1.4558 0
M  V30 19594 C 1841.33 -4.22856 -0.373232 0
M  V30 19595 C 1839.24 -5.7403 1.42279 0
M  V30 19596 H 1838.17 -0.75359 0.0248501 0
M  V30 19597 H 1840.82 -1.67778 0.743149 0
M  V30 19598 H 1839.2 -3.90684 -0.646675 0
M  V30 19599 H 1840.38 -4.04398 2.20905 0
M  V30 19600 H 1838.69 -3.72753 1.85592 0
M  V30 19601 H 1841.29 -5.33073 -0.416837 0
M  V30 19602 H 1841.63 -3.92325 -1.39237 0
M  V30 19603 H 1842.16 -3.96622 0.305859 0
M  V30 19604 H 1838.9 -6.09234 2.41898 0
M  V30 19605 H 1838.42 -5.95561 0.711862 0
M  V30 19606 H 1840.1 -6.36896 1.13899 0
M  V30 19607 N 1840.23 -0.328564 -1.54137 0
M  V30 19608 C 1841.48 0.272909 -2.00955 0
M  V30 19609 C 1841.81 1.51393 -1.2163 0
M  V30 19610 O 1841.09 1.92174 -0.299916 0
M  V30 19611 C 1841.37 0.602055 -3.55031 0
M  V30 19612 C 1841.22 -0.650016 -4.45078 0
M  V30 19613 C 1842.54 1.4177 -4.1664 0
M  V30 19614 H 1839.66 0.0977177 -0.730493 0
M  V30 19615 H 1842.3 -0.446133 -1.84688 0
M  V30 19616 H 1840.45 1.21464 -3.69024 0
M  V30 19617 H 1842.13 -1.28821 -4.42948 0
M  V30 19618 H 1840.37 -1.2779 -4.1455 0
M  V30 19619 H 1841.04 -0.375181 -5.50724 0
M  V30 19620 H 1843.52 0.899849 -4.06254 0
M  V30 19621 H 1842.39 1.61676 -5.24549 0
M  V30 19622 H 1842.65 2.41534 -3.70289 0
M  V30 19623 N 1841.71 1.57497 -0.0568439 0
M  V30 19624 C 1842.94 1.97645 0.628589 0
M  V30 19625 C 1843.36 0.934424 1.63249 0
M  V30 19626 O 1842.72 -0.101706 1.81015 0
M  V30 19627 C 1842.77 3.36855 1.2869 0
M  V30 19628 O 1841.87 3.35182 2.40264 0
M  V30 19629 H 1841.21 0.643698 0.16294 0
M  V30 19630 H 1843.74 2.04206 -0.126927 0
M  V30 19631 H 1843.75 3.73708 1.63726 0
M  V30 19632 H 1842.43 4.12231 0.551203 0
M  V30 19633 H 1841.01 3.10081 2.07133 0
M  V30 19634 N 1843.19 -0.216591 1.56105 0
M  V30 19635 C 1844.44 -0.938321 1.78545 0
M  V30 19636 C 1844.75 -1.85302 0.62629 0
M  V30 19637 O 1845.96 -2.61377 0.734451 0
M  V30 19638 C 1844.41 -1.71871 3.16209 0
M  V30 19639 C 1844.02 -0.849904 4.39864 0
M  V30 19640 C 1845.77 -2.43136 3.47973 0
M  V30 19641 C 1843.67 -1.62793 5.68553 0
M  V30 19642 H 1842.6 -0.354098 0.66568 0
M  V30 19643 H 1845.25 -0.192079 1.82492 0
M  V30 19644 H 1843.64 -2.50804 3.06453 0
M  V30 19645 H 1844.81 -0.100757 4.6069 0
M  V30 19646 H 1843.13 -0.249139 4.15654 0
M  V30 19647 H 1845.72 -3.01856 4.41347 0
M  V30 19648 H 1846.07 -3.16267 2.70704 0
M  V30 19649 H 1846.6 -1.71189 3.59081 0
M  V30 19650 H 1843.34 -0.939801 6.48728 0
M  V30 19651 H 1842.86 -2.35156 5.5178 0
M  V30 19652 H 1844.54 -2.18733 6.08905 0
M  V30 19653 N 1844.67 -1.5 -0.48349 0
M  V30 19654 C 1846.08 -1.37151 -0.816192 0
M  V30 19655 C 1846.28 -0.418047 -1.97116 0
M  V30 19656 O 1845.34 0.143884 -2.5209 0
M  V30 19657 C 1846.65 -2.78256 -1.13992 0
M  V30 19658 C 1848.2 -2.87082 -1.2471 0
M  V30 19659 C 1848.68 -4.28993 -1.60403 0
M  V30 19660 N 1850.17 -4.31886 -1.67419 0
M  V30 19661 C 1850.9 -5.38673 -1.96516 0
M  V30 19662 N 1850.4 -6.55685 -2.23718 0
M  V30 19663 N 1852.19 -5.26105 -1.97914 0
M  V30 19664 H 1844.34 -2.10575 0.277847 0
M  V30 19665 H 1846.61 -0.945986 0.0617554 0
M  V30 19666 H 1846.31 -3.49807 -0.364448 0
M  V30 19667 H 1846.19 -3.14724 -2.07916 0
M  V30 19668 H 1848.57 -2.15758 -2.01327 0
M  V30 19669 H 1848.65 -2.54174 -0.287959 0
M  V30 19670 H 1848.3 -5.0085 -0.84331 0
M  V30 19671 H 1848.23 -4.59379 -2.57447 0
M  V30 19672 H 1850.72 -3.47506 -1.48487 0
M  V30 19673 H 1851.03 -7.32883 -2.45158 0
M  V30 19674 H 1849.38 -6.58881 -2.21136 0
M  V30 19675 H 1852.57 -4.33692 -1.76151 0
M  V30 19676 H 1852.74 -6.09419 -2.20256 0
M  V30 19677 N 1846.15 0.735796 -1.39369 0
M  V30 19678 C 1847.39 1.49239 -1.3628 0
M  V30 19679 C 1847.72 1.94957 0.0408659 0
M  V30 19680 O 1846.99 1.68929 0.991959 0
M  V30 19681 H 1845.57 0.553626 -0.501506 0
M  V30 19682 H 1848.23 0.873549 -1.74227 0
M  V30 19683 H 1847.32 2.37488 -2.02499 0
M  V30 19684 N 1847.63 1.24532 0.965897 0
M  V30 19685 C 1848.56 1.06393 2.07853 0
M  V30 19686 C 1849.54 -0.0236467 1.70084 0
M  V30 19687 O 1850.72 0.143767 1.93667 0
M  V30 19688 C 1847.85 0.669877 3.40778 0
M  V30 19689 C 1846.81 1.70643 3.92511 0
M  V30 19690 C 1846.13 1.16738 5.21801 0
M  V30 19691 C 1847.43 3.10278 4.20149 0
M  V30 19692 H 1849.13 1.99459 2.23285 0
M  V30 19693 H 1846.67 0.960397 1.07296 0
M  V30 19694 H 1848.62 0.52997 4.18054 0
M  V30 19695 H 1847.35 -0.296477 3.25252 0
M  V30 19696 H 1846.01 1.83458 3.17393 0
M  V30 19697 H 1845.66 0.191586 5.02635 0
M  V30 19698 H 1845.36 1.86009 5.57382 0
M  V30 19699 H 1846.88 1.03963 6.01684 0
M  V30 19700 H 1848.29 3.00681 4.88123 0
M  V30 19701 H 1846.69 3.76918 4.66962 0
M  V30 19702 H 1847.76 3.58182 3.26854 0
M  V30 19703 N 1849.1 -1.16685 1.05936 0
M  V30 19704 C 1850.34 -1.88805 0.783064 0
M  V30 19705 C 1850.71 -1.79635 -0.677886 0
M  V30 19706 O 1851.91 -2.46646 -1.06862 0
M  V30 19707 C 1850.18 -3.3447 1.25954 0
M  V30 19708 S 1851.74 -4.24483 1.11175 0
M  V30 19709 H 1848.56 -0.651745 0.284164 0
M  V30 19710 H 1851.16 -1.40874 1.35554 0
M  V30 19711 H 1849.86 -3.38682 2.31782 0
M  V30 19712 H 1849.39 -3.87449 0.681665 0
M  V30 19713 H 1851.41 -4.96184 0.0404609 0
M  V30 19714 N 1850.58 -0.841432 -1.33258 0
M  V30 19715 C 1851.83 -0.437512 -1.97307 0
M  V30 19716 C 1852.15 1.00723 -1.66973 0
M  V30 19717 O 1851.42 1.70199 -0.969998 0
M  V30 19718 H 1850 -0.158794 -0.729927 0
M  V30 19719 H 1852.66 -1.07495 -1.62575 0
M  V30 19720 H 1851.76 -0.571675 -3.0682 0
M  V30 19721 N 1852.06 1.4581 -0.598108 0
M  V30 19722 C 1853.01 2.32185 0.138857 0
M  V30 19723 C 1854 1.45406 0.869105 0
M  V30 19724 O 1855.21 1.61945 0.785746 0
M  V30 19725 H 1851.58 0.749302 0.0636431 0
M  V30 19726 H 1853.55 2.92136 -0.608224 0
M  V30 19727 C 1852.3 3.28856 1.12911 0
M  V30 19728 H 1851.63 3.9562 0.576625 0
M  V30 19729 H 1853.07 3.92043 1.61487 0
M  V30 19730 C 1851.52 2.55331 2.1979 0
M  V30 19731 O 1852.05 2.32768 3.27386 0
M  V30 19732 N 1850.26 2.15628 1.94815 0
M  V30 19733 H 1849.81 2.34178 1.07323 0
M  V30 19734 H 1849.77 1.66755 2.66533 0
M  V30 19735 N 1853.54 0.336733 1.53961 0
M  V30 19736 C 1854.78 -0.262248 2.01097 0
M  V30 19737 C 1855.12 -1.50745 1.22431 0
M  V30 19738 O 1854.39 -1.92012 0.310103 0
M  V30 19739 C 1854.67 -0.583219 3.55346 0
M  V30 19740 C 1854.53 0.67361 4.44727 0
M  V30 19741 C 1855.85 -1.39558 4.17386 0
M  V30 19742 H 1852.97 -0.0938423 0.731001 0
M  V30 19743 H 1855.61 0.455921 1.84449 0
M  V30 19744 H 1853.76 -1.19505 3.69663 0
M  V30 19745 H 1855.43 1.31168 4.42258 0
M  V30 19746 H 1853.67 1.29987 4.13867 0
M  V30 19747 H 1854.34 0.404382 5.50517 0
M  V30 19748 H 1856.82 -0.878292 4.06725 0
M  V30 19749 H 1855.7 -1.58892 5.25399 0
M  V30 19750 H 1855.96 -2.39567 3.71564 0
M  V30 19751 N 1855.02 -1.57465 0.0651956 0
M  V30 19752 C 1855.96 -2.12345 -0.904345 0
M  V30 19753 C 1856.93 -1.03429 -1.29968 0
M  V30 19754 O 1858.12 -1.31055 -1.38669 0
M  V30 19755 C 1855.26 -2.68423 -2.16895 0
M  V30 19756 C 1854.37 -3.91472 -1.82684 0
M  V30 19757 C 1853.51 -4.35816 -3.03706 0
M  V30 19758 C 1852.54 -5.5153 -2.65482 0
M  V30 19759 N 1851.68 -5.90863 -3.79242 0
M  V30 19760 H 1856.52 -2.94889 -0.429468 0
M  V30 19761 H 1854.06 -1.45729 -0.200344 0
M  V30 19762 H 1856.02 -2.99041 -2.90913 0
M  V30 19763 H 1854.65 -1.88654 -2.61934 0
M  V30 19764 H 1853.7 -3.67357 -0.987564 0
M  V30 19765 H 1855.01 -4.75536 -1.50557 0
M  V30 19766 H 1854.16 -4.68062 -3.86009 0
M  V30 19767 H 1852.9 -3.50593 -3.39022 0
M  V30 19768 H 1851.91 -5.18943 -1.81598 0
M  V30 19769 H 1853.13 -6.3848 -2.31343 0
M  V30 19770 H 1851.08 -5.08591 -4.14332 0
M  V30 19771 H 1851 -6.69651 -3.50861 0
M  V30 19772 H 1852.26 -6.27729 -4.62144 0
M  V30 19773 N 1856.49 0.20831 -1.56217 0
M  V30 19774 C 1857.77 0.955838 -1.70655 0
M  V30 19775 C 1858.15 2.01905 -0.61624 0
M  V30 19776 O 1857.5 2.25405 0.374793 0
M  V30 19777 C 1857.71 1.55427 -3.1248 0
M  V30 19778 C 1859.06 2.04147 -3.72303 0
M  V30 19779 O 1860.08 1.65295 -3.15525 0
M  V30 19780 O 1858.94 2.75597 -4.7192 0
M  V30 19781 H 1856.03 0.447364 -0.695553 0
M  V30 19782 H 1858.58 0.199047 -1.68529 0
M  V30 19783 H 1857.35 0.787224 -3.83299 0
M  V30 19784 H 1856.97 2.37625 -3.18779 0
M  V30 19785 N 1857.97 1.50255 0.475528 0
M  V30 19786 C 1859.22 1.6223 1.22691 0
M  V30 19787 C 1859.57 0.316569 1.89778 0
M  V30 19788 O 1858.87 -0.685188 1.78929 0
M  V30 19789 C 1859.06 2.73698 2.29835 0
M  V30 19790 C 1858.89 4.14984 1.73259 0
M  V30 19791 C 1857.66 4.81444 1.53428 0
M  V30 19792 C 1859.86 4.99374 1.23004 0
M  V30 19793 N 1857.84 6.0696 0.920483 0
M  V30 19794 C 1859.21 6.15578 0.739186 0
M  V30 19795 C 1861.26 4.85182 1.11816 0
M  V30 19796 C 1859.97 7.19149 0.147502 0
M  V30 19797 C 1861.99 5.88926 0.540422 0
M  V30 19798 C 1861.36 7.04375 0.0599282 0
M  V30 19799 H 1857.45 0.647828 0.437999 0
M  V30 19800 H 1860.04 1.87357 0.529653 0
M  V30 19801 H 1858.21 2.503 2.96992 0
M  V30 19802 H 1859.94 2.75055 2.96861 0
M  V30 19803 H 1856.7 4.38663 1.78526 0
M  V30 19804 H 1857.12 6.74042 0.632126 0
M  V30 19805 H 1861.76 3.96215 1.47559 0
M  V30 19806 H 1859.48 8.07795 -0.222137 0
M  V30 19807 H 1863.07 5.80008 0.456289 0
M  V30 19808 H 1861.95 7.83278 -0.380127 0
M  V30 19809 N 1859.45 -0.728395 1.39758 0
M  V30 19810 C 1860.4 -1.84245 1.39005 0
M  V30 19811 C 1861.37 -1.64226 0.248783 0
M  V30 19812 O 1862.55 -1.8554 0.444904 0
M  V30 19813 C 1859.69 -3.21828 1.24583 0
M  V30 19814 C 1858.8 -3.53507 2.48308 0
M  V30 19815 C 1857.94 -4.80526 2.26425 0
M  V30 19816 C 1856.98 -5.05069 3.45792 0
M  V30 19817 N 1856.12 -6.23295 3.23184 0
M  V30 19818 H 1860.96 -1.84224 2.34234 0
M  V30 19819 H 1858.49 -0.900094 1.16347 0
M  V30 19820 H 1860.45 -4.01257 1.14231 0
M  V30 19821 H 1859.08 -3.21111 0.329793 0
M  V30 19822 H 1858.13 -2.68729 2.69238 0
M  V30 19823 H 1859.44 -3.67558 3.37198 0
M  V30 19824 H 1858.6 -5.67949 2.13353 0
M  V30 19825 H 1857.34 -4.6866 1.3494 0
M  V30 19826 H 1856.34 -4.16106 3.59355 0
M  V30 19827 H 1857.57 -5.18815 4.38186 0
M  V30 19828 H 1855.51 -6.12704 2.3437 0
M  V30 19829 H 1855.43 -6.37964 4.05633 0
M  V30 19830 H 1856.7 -7.13539 3.13819 0
M  V30 19831 N 1860.93 -1.25042 -0.959279 0
M  V30 19832 C 1861.86 -1.07494 -2.07285 0
M  V30 19833 C 1862.84 0.0146264 -1.70094 0
M  V30 19834 O 1864.02 -0.154035 -1.93588 0
M  V30 19835 C 1861.15 -0.68794 -3.40418 0
M  V30 19836 C 1860.11 -1.72722 -3.91601 0
M  V30 19837 C 1859.43 -1.19504 -5.21175 0
M  V30 19838 C 1860.73 -3.12502 -4.18497 0
M  V30 19839 H 1862.43 -2.00641 -2.22224 0
M  V30 19840 H 1859.97 -0.966074 -1.06785 0
M  V30 19841 H 1861.93 -0.552133 -4.17767 0
M  V30 19842 H 1860.65 0.279224 -3.25404 0
M  V30 19843 H 1859.31 -1.85139 -3.16416 0
M  V30 19844 H 1858.96 -0.218239 -5.02526 0
M  V30 19845 H 1858.66 -1.88962 -5.56387 0
M  V30 19846 H 1860.18 -1.07153 -6.01124 0
M  V30 19847 H 1861.6 -3.03266 -4.86521 0
M  V30 19848 H 1859.99 -3.79389 -4.64956 0
M  V30 19849 H 1861.06 -3.5991 -3.2495 0
M  V30 19850 N 1862.41 1.16121 -1.06553 0
M  V30 19851 C 1863.65 1.86715 -0.783827 0
M  V30 19852 C 1863.98 1.81857 0.689799 0
M  V30 19853 O 1863.24 1.23093 1.5214 0
M  V30 19854 C 1863.54 3.35676 -1.22705 0
M  V30 19855 C 1863.2 3.60732 -2.70524 0
M  V30 19856 C 1861.86 3.67279 -3.10901 0
M  V30 19857 C 1864.22 3.71093 -3.65977 0
M  V30 19858 C 1861.54 3.81691 -4.45566 0
M  V30 19859 C 1863.9 3.87027 -5.00393 0
M  V30 19860 C 1862.56 3.91817 -5.40403 0
M  V30 19861 H 1861.83 0.683238 -0.286823 0
M  V30 19862 H 1864.48 1.37285 -1.3351 0
M  V30 19863 H 1862.78 3.87255 -0.595017 0
M  V30 19864 H 1864.48 3.88686 -0.986096 0
M  V30 19865 H 1861.07 3.5627 -2.38263 0
M  V30 19866 H 1865.25 3.65343 -3.35914 0
M  V30 19867 H 1860.51 3.83654 -4.76046 0
M  V30 19868 H 1864.68 3.93986 -5.74237 0
M  V30 19869 H 1862.31 4.02737 -6.44753 0
M  V30 19870 N 1863.88 0.848487 1.3281 0
M  V30 19871 C 1864.85 0.293744 2.2731 0
M  V30 19872 C 1865.85 -0.543043 1.51353 0
M  V30 19873 O 1867.04 -0.355443 1.70535 0
M  V30 19874 C 1864.17 -0.585094 3.35841 0
M  V30 19875 H 1865.36 1.12773 2.77889 0
M  V30 19876 H 1862.92 0.622329 1.43376 0
M  V30 19877 H 1863.65 -1.44114 2.9052 0
M  V30 19878 H 1863.44 0.0137777 3.92098 0
M  V30 19879 H 1864.93 -0.966203 4.06269 0
M  V30 19880 N 1865.36 -1.4549 0.605832 0
M  V30 19881 C 1866.61 -2.01462 0.0979275 0
M  V30 19882 C 1866.92 -1.48025 -1.27859 0
M  V30 19883 O 1868.13 -1.95962 -1.87912 0
M  V30 19884 C 1866.59 -3.59685 0.124393 0
M  V30 19885 C 1866.19 -4.22119 1.50065 0
M  V30 19886 C 1867.94 -4.23228 -0.328361 0
M  V30 19887 C 1865.85 -5.72489 1.4836 0
M  V30 19888 H 1864.78 -0.753284 0.0328415 0
M  V30 19889 H 1867.43 -1.66981 0.760903 0
M  V30 19890 H 1865.81 -3.91348 -0.605201 0
M  V30 19891 H 1866.98 -4.02032 2.25181 0
M  V30 19892 H 1865.3 -3.70763 1.89535 0
M  V30 19893 H 1867.89 -5.33485 -0.360274 0
M  V30 19894 H 1868.24 -3.93779 -1.35068 0
M  V30 19895 H 1868.77 -3.96276 0.347909 0
M  V30 19896 H 1865.51 -6.06634 2.48346 0
M  V30 19897 H 1865.03 -5.94772 0.774989 0
M  V30 19898 H 1866.71 -6.35652 1.20648 0
M  V30 19899 N 1866.84 -0.344893 -1.5378 0
M  V30 19900 C 1868.25 0.138727 -1.86184 0
M  V30 19901 C 1868.6 1.49882 -1.26609 0
M  V30 19902 O 1867.73 2.08478 -0.580174 0
M  V30 19903 C 1868.32 0.258502 -3.37812 0
M  V30 19904 C 1866.88 0.686356 -3.70089 0
M  V30 19905 C 1866.03 -0.179085 -2.76721 0
M  V30 19906 H 1868.98 -0.564442 -1.48323 0
M  V30 19907 H 1869 1.08576 -3.6468 0
M  V30 19908 H 1868.51 -0.731538 -3.81143 0
M  V30 19909 H 1866.61 1.68537 -3.32304 0
M  V30 19910 H 1866.73 0.475315 -4.76736 0
M  V30 19911 H 1865.09 0.348791 -2.523 0
M  V30 19912 H 1865.87 -1.16628 -3.22882 0
M  V30 19913 N 1868.32 1.57428 -0.0735454 0
M  V30 19914 C 1869.57 1.93556 0.595172 0
M  V30 19915 C 1869.89 0.95371 1.69513 0
M  V30 19916 O 1869.15 -0.0303731 1.95676 0
M  V30 19917 C 1869.45 3.36302 1.20978 0
M  V30 19918 C 1869.11 4.50283 0.235791 0
M  V30 19919 C 1867.78 4.81189 -0.0321575 0
M  V30 19920 C 1870.13 5.19419 -0.430452 0
M  V30 19921 C 1867.46 5.78569 -0.973406 0
M  V30 19922 C 1869.81 6.17807 -1.36003 0
M  V30 19923 C 1868.47 6.4713 -1.63643 0
M  V30 19924 H 1867.74 0.708272 0.217789 0
M  V30 19925 H 1870.39 1.90952 -0.144794 0
M  V30 19926 H 1868.69 3.3538 2.02552 0
M  V30 19927 H 1870.39 3.61546 1.73452 0
M  V30 19928 H 1866.98 4.2618 0.454817 0
M  V30 19929 H 1871.16 4.95736 -0.23656 0
M  V30 19930 H 1866.42 5.99612 -1.19478 0
M  V30 19931 H 1870.59 6.70481 -1.88222 0
M  V30 19932 H 1868.22 7.22398 -2.36738 0
M  V30 19933 N 1869.8 -0.200022 1.56326 0
M  V30 19934 C 1871.05 -0.919331 1.7953 0
M  V30 19935 C 1871.36 -1.84628 0.645908 0
M  V30 19936 O 1872.56 -2.60584 0.762132 0
M  V30 19937 C 1871.02 -1.68508 3.18014 0
M  V30 19938 C 1870.63 -0.803202 4.40741 0
M  V30 19939 C 1872.37 -2.39432 3.50532 0
M  V30 19940 C 1870.28 -1.56753 5.70248 0
M  V30 19941 H 1869.21 -0.347018 0.669399 0
M  V30 19942 H 1871.86 -0.172713 1.82685 0
M  V30 19943 H 1870.24 -2.4754 3.09095 0
M  V30 19944 H 1871.42 -0.0518889 4.60771 0
M  V30 19945 H 1869.73 -0.205039 4.15895 0
M  V30 19946 H 1872.33 -2.97158 4.44524 0
M  V30 19947 H 1872.67 -3.13378 2.74043 0
M  V30 19948 H 1873.2 -1.6737 3.60877 0
M  V30 19949 H 1869.94 -0.870942 6.49688 0
M  V30 19950 H 1869.46 -2.29291 5.54243 0
M  V30 19951 H 1871.14 -2.12262 6.11191 0
M  V30 19952 N 1871.27 -1.50505 -0.467553 0
M  V30 19953 C 1872.5 -1.65708 -1.24722 0
M  V30 19954 C 1872.92 -0.34155 -1.84973 0
M  V30 19955 O 1872.28 0.694993 -1.6745 0
M  V30 19956 C 1872.33 -2.75289 -2.32912 0
M  V30 19957 O 1871.43 -2.36788 -3.37646 0
M  V30 19958 H 1870.78 -0.55351 -0.366774 0
M  V30 19959 H 1873.31 -1.96901 -0.555988 0
M  V30 19960 H 1873.32 -2.98472 -2.7817 0
M  V30 19961 H 1871.99 -3.70765 -1.88431 0
M  V30 19962 H 1870.57 -2.24065 -2.98076 0
M  V30 19963 N 1872.75 0.720973 -1.40142 0
M  V30 19964 C 1873.68 1.84799 -1.42729 0
M  V30 19965 C 1874.66 1.67629 -0.288866 0
M  V30 19966 O 1875.85 1.8774 -0.496713 0
M  V30 19967 C 1872.98 3.22699 -1.28385 0
M  V30 19968 C 1871.93 3.54532 -2.39773 0
M  V30 19969 C 1871.26 4.91518 -2.10509 0
M  V30 19970 C 1872.56 3.56077 -3.82108 0
M  V30 19971 H 1874.25 1.82892 -2.37046 0
M  V30 19972 H 1871.8 0.8785 -1.14098 0
M  V30 19973 H 1873.75 4.0123 -1.28812 0
M  V30 19974 H 1872.48 3.25169 -0.305408 0
M  V30 19975 H 1871.13 2.78338 -2.38586 0
M  V30 19976 H 1870.78 4.90584 -1.11069 0
M  V30 19977 H 1870.48 5.13783 -2.85132 0
M  V30 19978 H 1872.01 5.72389 -2.1261 0
M  V30 19979 H 1873.42 4.24657 -3.85148 0
M  V30 19980 H 1871.82 3.89866 -4.56207 0
M  V30 19981 H 1872.89 2.55576 -4.12079 0
M  V30 19982 N 1874.23 1.25549 0.952634 0
M  V30 19983 C 1875.16 1.0043 2.04912 0
M  V30 19984 C 1876.14 -0.0671275 1.62461 0
M  V30 19985 O 1877.33 0.0729397 1.88359 0
M  V30 19986 C 1874.45 0.51855 3.34707 0
M  V30 19987 C 1873.5 1.58081 3.96122 0
M  V30 19988 S 1874.33 3.16656 4.31844 0
M  V30 19989 C 1875.49 2.69821 5.64754 0
M  V30 19990 H 1875.72 1.93272 2.25905 0
M  V30 19991 H 1873.25 1.09102 1.09253 0
M  V30 19992 H 1875.21 0.244941 4.09769 0
M  V30 19993 H 1873.87 -0.389408 3.11677 0
M  V30 19994 H 1873.07 1.19168 4.89709 0
M  V30 19995 H 1872.67 1.8052 3.27549 0
M  V30 19996 H 1874.96 2.13572 6.42957 0
M  V30 19997 H 1875.9 3.62056 6.0854 0
M  V30 19998 H 1876.31 2.09754 5.24084 0
M  V30 19999 N 1875.71 -1.15554 1.07168 0
M  V30 20000 C 1876.66 -2.20234 0.690348 0
M  V30 20001 C 1877.63 -1.6304 -0.317346 0
M  V30 20002 O 1878.81 -1.89704 -0.20422 0
M  V30 20003 C 1875.95 -3.44976 0.0923404 0
M  V30 20004 C 1875.06 -4.16377 1.15128 0
M  V30 20005 C 1874.2 -5.28664 0.518478 0
M  V30 20006 C 1873.24 -5.91878 1.56034 0
M  V30 20007 N 1872.37 -6.9564 0.950251 0
M  V30 20008 H 1877.21 -2.52203 1.58738 0
M  V30 20009 H 1874.75 -1.23863 0.793502 0
M  V30 20010 H 1876.71 -4.16312 -0.271985 0
M  V30 20011 H 1875.34 -3.1353 -0.768054 0
M  V30 20012 H 1874.39 -3.43556 1.63321 0
M  V30 20013 H 1875.7 -4.59472 1.94132 0
M  V30 20014 H 1874.86 -6.06615 0.101683 0
M  V30 20015 H 1873.6 -4.86756 -0.303345 0
M  V30 20016 H 1872.6 -5.12641 1.98694 0
M  V30 20017 H 1873.83 -6.35864 2.38442 0
M  V30 20018 H 1871.77 -6.5583 0.149298 0
M  V30 20019 H 1871.69 -7.37153 1.67755 0
M  V30 20020 H 1872.96 -7.77494 0.558895 0
M  V30 20021 N 1877.19 -0.855519 -1.32358 0
M  V30 20022 C 1878.44 -0.455543 -1.96488 0
M  V30 20023 C 1878.75 0.99419 -1.68449 0
M  V30 20024 O 1879.96 1.49964 -2.26325 0
M  V30 20025 C 1878.41 -0.763678 -3.51704 0
M  V30 20026 C 1878.02 -2.2292 -3.88601 0
M  V30 20027 C 1879.76 -0.431467 -4.22302 0
M  V30 20028 C 1877.67 -2.48051 -5.36866 0
M  V30 20029 H 1876.6 -0.166617 -0.73536 0
M  V30 20030 H 1879.25 -1.04642 -1.50739 0
M  V30 20031 H 1877.63 -0.102224 -3.95868 0
M  V30 20032 H 1878.81 -2.93251 -3.55444 0
M  V30 20033 H 1877.12 -2.52602 -3.31031 0
M  V30 20034 H 1879.72 -0.596641 -5.31361 0
M  V30 20035 H 1880.06 0.62698 -4.11552 0
M  V30 20036 H 1880.6 -1.04885 -3.83724 0
M  V30 20037 H 1877.33 -3.52523 -5.52637 0
M  V30 20038 H 1876.85 -1.82298 -5.71426 0
M  V30 20039 H 1878.53 -2.32044 -6.03957 0
M  V30 20040 N 1878.67 1.45167 -0.61354 0
M  V30 20041 C 1879.6 2.3333 0.089004 0
M  V30 20042 C 1880.58 1.47181 0.85275 0
M  V30 20043 O 1881.76 1.7594 0.822122 0
M  V30 20044 C 1878.89 3.29982 1.08301 0
M  V30 20045 C 1877.85 4.25813 0.432084 0
M  V30 20046 C 1877.17 5.122 1.53476 0
M  V30 20047 C 1878.47 5.18233 -0.65052 0
M  V30 20048 H 1880.17 2.92322 -0.647165 0
M  V30 20049 H 1877.71 1.40565 -0.312667 0
M  V30 20050 H 1879.66 3.90533 1.5831 0
M  V30 20051 H 1878.39 2.69162 1.84985 0
M  V30 20052 H 1877.05 3.6657 -0.0471927 0
M  V30 20053 H 1876.7 4.47744 2.29203 0
M  V30 20054 H 1876.4 5.77122 1.10469 0
M  V30 20055 H 1877.92 5.7562 2.037 0
M  V30 20056 H 1879.33 5.72821 -0.234262 0
M  V30 20057 H 1877.73 5.91664 -1.00268 0
M  V30 20058 H 1878.8 4.60304 -1.52475 0
M  V30 20059 N 1880.14 0.353044 1.53595 0
M  V30 20060 C 1881.55 -0.128852 1.86255 0
M  V30 20061 C 1881.91 -1.49209 1.27402 0
M  V30 20062 O 1881.03 -2.08167 0.591222 0
M  V30 20063 C 1881.63 -0.240583 3.37945 0
M  V30 20064 C 1880.18 -0.66672 3.70448 0
M  V30 20065 C 1879.33 0.193757 2.76622 0
M  V30 20066 H 1882.28 0.5723 1.48022 0
M  V30 20067 H 1882.3 -1.06641 3.65251 0
M  V30 20068 H 1881.82 0.75174 3.8075 0
M  V30 20069 H 1879.92 -1.66773 3.33193 0
M  V30 20070 H 1880.03 -0.450026 4.76982 0
M  V30 20071 H 1878.39 -0.335406 2.52482 0
M  V30 20072 H 1879.18 1.18339 3.22259 0
M  V30 20073 N 1881.62 -1.57387 0.0818932 0
M  V30 20074 C 1882.57 -2.13292 -0.881772 0
M  V30 20075 C 1883.54 -1.04801 -1.28864 0
M  V30 20076 O 1884.72 -1.32519 -1.37272 0
M  V30 20077 C 1881.86 -2.70708 -2.14035 0
M  V30 20078 C 1880.98 -3.93388 -1.78522 0
M  V30 20079 C 1880.11 -4.39013 -2.99067 0
M  V30 20080 C 1879.15 -5.54315 -2.59617 0
M  V30 20081 N 1878.29 -5.94853 -3.72954 0
M  V30 20082 H 1883.13 -2.95328 -0.398167 0
M  V30 20083 H 1880.66 -1.45934 -0.184876 0
M  V30 20084 H 1882.62 -3.0211 -2.87724 0
M  V30 20085 H 1881.25 -1.91421 -2.59919 0
M  V30 20086 H 1880.3 -3.68384 -0.948546 0
M  V30 20087 H 1881.62 -4.77106 -1.45505 0
M  V30 20088 H 1880.77 -4.72129 -3.81023 0
M  V30 20089 H 1879.51 -3.54169 -3.35284 0
M  V30 20090 H 1878.51 -5.2084 -1.76084 0
M  V30 20091 H 1879.74 -6.40898 -2.24558 0
M  V30 20092 H 1877.69 -5.12957 -4.08915 0
M  V30 20093 H 1877.6 -6.73335 -3.43739 0
M  V30 20094 H 1878.87 -6.32595 -4.5546 0
M  V30 20095 N 1883.1 0.191729 -1.56429 0
M  V30 20096 C 1884.35 0.909797 -1.80464 0
M  V30 20097 C 1884.67 1.83652 -0.655516 0
M  V30 20098 O 1883.94 1.93169 0.325946 0
M  V30 20099 H 1882.52 0.338944 -0.665677 0
M  V30 20100 H 1885.18 0.196432 -1.93908 0
M  V30 20101 H 1884.28 1.49891 -2.7375 0
M  V30 20102 N 1884.58 1.50751 0.459565 0
M  V30 20103 C 1885.51 1.66621 1.57385 0
M  V30 20104 C 1886.52 0.547358 1.53323 0
M  V30 20105 O 1887.71 0.820941 1.58502 0
M  V30 20106 C 1884.81 1.64524 2.96285 0
M  V30 20107 C 1883.98 2.92631 3.25093 0
M  V30 20108 C 1883.04 2.83021 4.43605 0
M  V30 20109 O 1882.07 3.56977 4.43347 0
M  V30 20110 N 1883.27 1.97358 5.45921 0
M  V30 20111 H 1886.04 2.62738 1.44184 0
M  V30 20112 H 1883.6 1.48359 0.64817 0
M  V30 20113 H 1885.59 1.55693 3.73553 0
M  V30 20114 H 1884.16 0.760945 3.03197 0
M  V30 20115 H 1883.38 3.15502 2.36331 0
M  V30 20116 H 1884.67 3.77477 3.41157 0
M  V30 20117 H 1884.07 1.36608 5.48958 0
M  V30 20118 H 1882.62 1.94422 6.22128 0
M  V30 20119 N 1886.06 -0.713531 1.40522 0
M  V30 20120 C 1887.3 -1.47052 1.38637 0
M  V30 20121 C 1887.62 -1.94998 -0.00984474 0
M  V30 20122 O 1886.89 -1.70486 -0.964959 0
M  V30 20123 H 1885.47 -0.545577 0.51025 0
M  V30 20124 H 1888.14 -0.84572 1.75595 0
M  V30 20125 H 1887.23 -2.34237 2.06251 0
M  V30 20126 N 1887.53 -1.26053 -0.945962 0
M  V30 20127 C 1888.76 -1.14181 -1.7314 0
M  V30 20128 C 1889.18 0.299663 -1.85698 0
M  V30 20129 O 1888.54 1.21711 -1.34373 0
M  V30 20130 C 1888.59 -1.81052 -3.11854 0
M  V30 20131 O 1887.69 -1.09606 -3.97568 0
M  V30 20132 H 1887.03 -0.398138 -0.531397 0
M  V30 20133 H 1889.56 -1.66782 -1.18511 0
M  V30 20134 H 1889.57 -1.87685 -3.62269 0
M  V30 20135 H 1888.25 -2.85921 -3.0203 0
M  V30 20136 H 1886.83 -1.10915 -3.56023 0
M  V30 20137 N 1889.01 1.14984 -1.07779 0
M  V30 20138 C 1889.96 2.19864 -0.702018 0
M  V30 20139 C 1890.93 1.63206 0.308695 0
M  V30 20140 O 1892.11 1.8981 0.194157 0
M  V30 20141 C 1889.25 3.44923 -0.110634 0
M  V30 20142 C 1888.37 4.1576 -1.17335 0
M  V30 20143 C 1887.5 5.28381 -0.546508 0
M  V30 20144 C 1886.54 5.91042 -1.59171 0
M  V30 20145 N 1885.68 6.95126 -0.987129 0
M  V30 20146 H 1890.52 2.51358 -1.60073 0
M  V30 20147 H 1888.05 1.2344 -0.80006 0
M  V30 20148 H 1890.01 4.16451 0.249903 0
M  V30 20149 H 1888.64 3.13932 0.751416 0
M  V30 20150 H 1887.69 3.42685 -1.6514 0
M  V30 20151 H 1889.01 4.58436 -1.96566 0
M  V30 20152 H 1888.16 6.06552 -0.133852 0
M  V30 20153 H 1886.9 4.8691 0.277527 0
M  V30 20154 H 1885.9 5.1158 -2.01409 0
M  V30 20155 H 1887.13 6.3459 -2.4181 0
M  V30 20156 H 1885.08 6.55742 -0.184076 0
M  V30 20157 H 1884.99 7.36253 -1.71662 0
M  V30 20158 H 1886.26 7.77186 -0.60012 0
M  V30 20159 N 1890.49 0.862526 1.31902 0
M  V30 20160 C 1891.72 0.483304 2.00867 0
M  V30 20161 C 1892.13 -0.926733 1.64949 0
M  V30 20162 O 1891.47 -1.61745 0.870881 0
M  V30 20163 C 1891.53 0.551872 3.55239 0
M  V30 20164 C 1891.2 1.9222 4.14609 0
M  V30 20165 C 1892.19 2.88872 4.3226 0
M  V30 20166 C 1889.88 2.22149 4.50506 0
M  V30 20167 C 1891.87 4.136 4.84988 0
M  V30 20168 C 1889.56 3.47128 5.02937 0
M  V30 20169 C 1890.56 4.4267 5.20127 0
M  V30 20170 O 1890.25 5.65435 5.71435 0
M  V30 20171 H 1889.98 0.187544 0.649464 0
M  V30 20172 H 1892.53 1.16337 1.69278 0
M  V30 20173 H 1890.76 -0.18508 3.86257 0
M  V30 20174 H 1892.45 0.187136 4.05468 0
M  V30 20175 H 1893.22 2.67056 4.04853 0
M  V30 20176 H 1889.1 1.48564 4.36406 0
M  V30 20177 H 1892.64 4.88182 4.98321 0
M  V30 20178 H 1888.54 3.68791 5.29777 0
M  V30 20179 H 1889.3 5.67503 5.89816 0
M  V30 20180 N 1891.97 -1.4484 0.62123 0
M  V30 20181 C 1892.9 -2.33374 -0.0766286 0
M  V30 20182 C 1893.88 -1.47631 -0.844932 0
M  V30 20183 O 1895.06 -1.76373 -0.81278 0
M  V30 20184 C 1892.19 -3.30552 -1.0655 0
M  V30 20185 C 1891.15 -4.26037 -0.409496 0
M  V30 20186 C 1890.47 -5.13007 -1.50757 0
M  V30 20187 C 1891.77 -5.17881 0.677994 0
M  V30 20188 H 1893.47 -2.91975 0.662658 0
M  V30 20189 H 1891.01 -1.40397 0.320117 0
M  V30 20190 H 1892.97 -3.91367 -1.56237 0
M  V30 20191 H 1891.69 -2.70139 -1.83555 0
M  V30 20192 H 1890.35 -3.66539 0.0666321 0
M  V30 20193 H 1890 -4.48954 -2.26825 0
M  V30 20194 H 1889.7 -5.777 -1.07407 0
M  V30 20195 H 1891.22 -5.76692 -2.00645 0
M  V30 20196 H 1892.64 -5.72689 0.264637 0
M  V30 20197 H 1891.03 -5.91124 1.03405 0
M  V30 20198 H 1892.1 -4.59488 1.54914 0
M  V30 20199 N 1893.45 -0.361184 -1.53405 0
M  V30 20200 C 1894.39 0.487369 -2.25596 0
M  V30 20201 C 1895.36 1.08114 -1.26097 0
M  V30 20202 O 1896.55 1.11446 -1.54869 0
M  V30 20203 C 1893.69 1.62342 -3.04531 0
M  V30 20204 C 1892.8 1.05525 -4.18914 0
M  V30 20205 C 1891.94 2.16004 -4.853 0
M  V30 20206 C 1890.98 1.5663 -5.91721 0
M  V30 20207 N 1890.11 2.60923 -6.51816 0
M  V30 20208 H 1894.95 -0.134748 -2.97695 0
M  V30 20209 H 1892.49 -0.0782688 -1.46892 0
M  V30 20210 H 1894.45 2.29252 -3.48568 0
M  V30 20211 H 1893.08 2.21626 -2.34695 0
M  V30 20212 H 1892.13 0.276561 -3.79393 0
M  V30 20213 H 1893.44 0.581111 -4.95403 0
M  V30 20214 H 1892.6 2.90743 -5.32497 0
M  V30 20215 H 1891.33 2.66768 -4.08272 0
M  V30 20216 H 1890.34 0.804031 -5.43889 0
M  V30 20217 H 1891.56 1.06696 -6.70666 0
M  V30 20218 H 1889.51 3.10909 -5.77643 0
M  V30 20219 H 1889.43 2.18184 -7.23831 0
M  V30 20220 H 1890.7 3.35378 -7.03663 0
M  V30 20221 N 1894.92 1.57341 -0.0902386 0
M  V30 20222 C 1896.15 1.98934 0.586524 0
M  V30 20223 C 1896.57 0.968841 1.6123 0
M  V30 20224 O 1895.93 -0.0632868 1.8119 0
M  V30 20225 C 1895.98 3.39509 1.21516 0
M  V30 20226 O 1895.08 3.40203 2.331 0
M  V30 20227 H 1894.43 0.647009 0.14925 0
M  V30 20228 H 1896.96 2.03891 -0.170213 0
M  V30 20229 H 1896.97 3.77097 1.55762 0
M  V30 20230 H 1895.64 4.13308 0.463639 0
M  V30 20231 H 1894.22 3.14405 2.0051 0
M  V30 20232 N 1896.4 -0.183431 1.56529 0
M  V30 20233 C 1897.37 -1.21097 1.94597 0
M  V30 20234 C 1898.37 -1.37825 0.828305 0
M  V30 20235 O 1899.56 -1.35438 1.09555 0
M  V30 20236 C 1896.69 -2.57826 2.23021 0
M  V30 20237 H 1897.88 -0.885275 2.86536 0
M  V30 20238 H 1895.43 -0.425412 1.50399 0
M  V30 20239 H 1896.17 -2.95431 1.33758 0
M  V30 20240 H 1895.95 -2.47054 3.04478 0
M  V30 20241 H 1897.44 -3.31902 2.53437 0
M  V30 20242 N 1897.88 -1.50992 -0.451564 0
M  V30 20243 C 1899.11 -1.67021 -1.22958 0
M  V30 20244 C 1899.53 -0.36115 -1.846 0
M  V30 20245 O 1898.89 0.677193 -1.68178 0
M  V30 20246 C 1898.94 -2.77744 -2.29979 0
M  V30 20247 O 1898.04 -2.40356 -3.35116 0
M  V30 20248 H 1897.38 -0.557369 -0.360882 0
M  V30 20249 H 1899.91 -1.97479 -0.535073 0
M  V30 20250 H 1899.92 -3.01406 -2.74988 0
M  V30 20251 H 1898.6 -3.72742 -1.84488 0
M  V30 20252 H 1897.17 -2.27214 -2.95683 0
M  V30 20253 N 1899.36 0.706069 -1.40899 0
M  V30 20254 C 1900.31 1.82011 -1.41918 0
M  V30 20255 C 1901.28 1.6381 -0.274879 0
M  V30 20256 O 1902.46 1.84809 -0.474366 0
M  V30 20257 C 1899.6 3.19805 -1.29687 0
M  V30 20258 C 1898.71 3.49512 -2.53901 0
M  V30 20259 C 1897.85 4.76863 -2.34041 0
M  V30 20260 C 1896.89 4.99504 -3.53783 0
M  V30 20261 N 1896.02 6.18074 -3.33059 0
M  V30 20262 H 1900.86 1.80474 -2.37135 0
M  V30 20263 H 1898.4 0.881471 -1.17765 0
M  V30 20264 H 1900.36 3.99389 -1.206 0
M  V30 20265 H 1898.99 3.20546 -0.380837 0
M  V30 20266 H 1898.04 2.64411 -2.73479 0
M  V30 20267 H 1899.35 3.62147 -3.43002 0
M  V30 20268 H 1898.51 5.64482 -2.22361 0
M  V30 20269 H 1897.25 4.66454 -1.42379 0
M  V30 20270 H 1896.25 4.10336 -3.65929 0
M  V30 20271 H 1897.48 5.11779 -4.46385 0
M  V30 20272 H 1895.42 6.08898 -2.44088 0
M  V30 20273 H 1895.34 6.3143 -4.15731 0
M  V30 20274 H 1896.61 7.08456 -3.25131 0
M  V30 20275 N 1900.84 1.26553 0.939264 0
M  V30 20276 C 1902.08 1.11989 1.68235 0
M  V30 20277 C 1902.41 -0.336993 1.92066 0
M  V30 20278 O 1901.68 -1.23742 1.51871 0
M  V30 20279 H 1900.26 0.41144 0.623479 0
M  V30 20280 H 1902.92 1.58909 1.12845 0
M  V30 20281 H 1902.01 1.64011 2.65531 0
M  V30 20282 N 1902.31 -1.14411 1.08387 0
M  V30 20283 C 1903.59 -1.8162 0.726188 0
M  V30 20284 C 1903.97 -1.95755 -0.790129 0
M  V30 20285 O 1903.32 -1.51725 -1.70856 0
M  V30 20286 C 1903.53 -3.17321 1.45287 0
M  V30 20287 C 1904.88 -3.92818 1.6118 0
M  V30 20288 O 1905.9 -3.2691 1.41451 0
M  V30 20289 O 1904.76 -5.1101 1.93728 0
M  V30 20290 H 1901.85 -0.785182 0.25965 0
M  V30 20291 H 1904.4 -1.21431 1.18544 0
M  V30 20292 H 1903.17 -3.02195 2.48584 0
M  V30 20293 H 1902.8 -3.85203 0.985093 0
M  V30 20294 N 1903.79 -0.869509 -1.31443 0
M  V30 20295 C 1904.72 -0.340679 -2.31001 0
M  V30 20296 C 1905.7 0.568186 -1.6033 0
M  V30 20297 O 1906.89 0.485305 -1.88038 0
M  V30 20298 C 1904.02 0.45909 -3.44252 0
M  V30 20299 C 1902.97 -0.356639 -4.26512 0
M  V30 20300 C 1902.3 0.568786 -5.31666 0
M  V30 20301 C 1903.6 -1.59045 -4.97496 0
M  V30 20302 H 1905.29 -1.1726 -2.75482 0
M  V30 20303 H 1902.84 -0.5653 -1.3244 0
M  V30 20304 H 1904.79 0.839573 -4.12952 0
M  V30 20305 H 1903.52 1.32451 -2.98537 0
M  V30 20306 H 1902.17 -0.719063 -3.59479 0
M  V30 20307 H 1901.82 1.43148 -4.82201 0
M  V30 20308 H 1901.52 0.0268906 -5.87594 0
M  V30 20309 H 1903.05 0.946122 -6.03225 0
M  V30 20310 H 1904.46 -1.28144 -5.58795 0
M  V30 20311 H 1902.86 -2.07139 -5.63217 0
M  V30 20312 H 1903.93 -2.34354 -4.24507 0
M  V30 20313 N 1905.27 1.44508 -0.628902 0
M  V30 20314 C 1906.68 1.85457 -0.215122 0
M  V30 20315 C 1907.03 1.52619 1.23296 0
M  V30 20316 O 1906.16 0.963178 1.93783 0
M  V30 20317 C 1906.75 3.36621 -0.383645 0
M  V30 20318 C 1905.31 3.76392 -0.0243904 0
M  V30 20319 C 1904.46 2.68369 -0.698081 0
M  V30 20320 H 1907.41 1.35006 -0.834208 0
M  V30 20321 H 1907.43 3.78617 0.378049 0
M  V30 20322 H 1906.94 3.6049 -1.43767 0
M  V30 20323 H 1905.04 3.58139 1.02798 0
M  V30 20324 H 1905.16 4.7714 -0.432898 0
M  V30 20325 H 1903.52 2.54349 -0.133605 0
M  V30 20326 H 1904.3 2.95071 -1.75465 0
M  V30 20327 N 1906.75 0.369315 1.53212 0
M  V30 20328 C 1908 -0.219533 2.01608 0
M  V30 20329 C 1908.33 -1.48115 1.25601 0
M  V30 20330 O 1907.6 -1.91311 0.350762 0
M  V30 20331 C 1907.89 -0.507713 3.56503 0
M  V30 20332 C 1907.74 0.767792 4.43199 0
M  V30 20333 C 1909.06 -1.30674 4.20253 0
M  V30 20334 H 1906.18 -0.0783156 0.732827 0
M  V30 20335 H 1908.82 0.494943 1.8344 0
M  V30 20336 H 1906.97 -1.11637 3.72115 0
M  V30 20337 H 1908.64 1.4052 4.39377 0
M  V30 20338 H 1906.88 1.38737 4.11017 0
M  V30 20339 H 1907.56 0.521063 5.49535 0
M  V30 20340 H 1910.03 -0.791822 4.08497 0
M  V30 20341 H 1908.91 -1.47712 5.28652 0
M  V30 20342 H 1909.17 -2.31631 3.76562 0
M  V30 20343 N 1908.23 -1.57291 0.0985816 0
M  V30 20344 C 1909.48 -1.93654 -0.564011 0
M  V30 20345 C 1909.79 -0.982723 -1.69121 0
M  V30 20346 O 1911 -1.2402 -2.41519 0
M  V30 20347 C 1909.45 -3.441 -1.05466 0
M  V30 20348 C 1909.06 -4.47979 0.0429743 0
M  V30 20349 C 1910.8 -3.89418 -1.68979 0
M  V30 20350 C 1908.71 -5.89583 -0.463226 0
M  V30 20351 H 1907.64 -0.722858 -0.214457 0
M  V30 20352 H 1910.29 -1.82662 0.175145 0
M  V30 20353 H 1908.67 -3.50256 -1.84761 0
M  V30 20354 H 1909.85 -4.53471 0.818587 0
M  V30 20355 H 1908.16 -4.12291 0.583501 0
M  V30 20356 H 1910.76 -4.92615 -2.0793 0
M  V30 20357 H 1911.1 -3.28258 -2.56032 0
M  V30 20358 H 1911.64 -3.85978 -0.962602 0
M  V30 20359 H 1908.37 -6.54451 0.370767 0
M  V30 20360 H 1907.89 -5.87555 -1.20577 0
M  V30 20361 H 1909.57 -6.40266 -0.931072 0
M  V30 20362 N 1909.71 0.175127 -1.56624 0
M  V30 20363 C 1911.12 0.737951 -1.71497 0
M  V30 20364 C 1911.47 1.82962 -0.708475 0
M  V30 20365 O 1910.59 2.16003 0.13096 0
M  V30 20366 C 1911.19 1.34536 -3.10943 0
M  V30 20367 C 1909.75 1.85505 -3.27513 0
M  V30 20368 C 1908.89 0.732564 -2.67449 0
M  V30 20369 H 1911.84 -0.0502185 -1.58621 0
M  V30 20370 H 1911.87 2.21502 -3.09382 0
M  V30 20371 H 1911.38 0.5506 -3.84174 0
M  V30 20372 H 1909.48 2.67637 -2.59232 0
M  V30 20373 H 1909.59 2.00311 -4.35215 0
M  V30 20374 H 1907.96 1.15203 -2.27157 0
M  V30 20375 H 1908.74 -0.050288 -3.43263 0
M  V30 20376 N 1911.18 1.5123 0.44355 0
M  V30 20377 C 1912.41 1.67671 1.2207 0
M  V30 20378 C 1912.83 0.370934 1.84406 0
M  V30 20379 O 1912.19 -0.668265 1.68535 0
M  V30 20380 C 1912.24 2.7896 2.28503 0
M  V30 20381 O 1911.34 2.4213 3.33837 0
M  V30 20382 H 1910.68 0.559275 0.357921 0
M  V30 20383 H 1913.21 1.9776 0.524592 0
M  V30 20384 H 1913.22 3.0286 2.73386 0
M  V30 20385 H 1911.9 3.73716 1.82509 0
M  V30 20386 H 1910.48 2.28779 2.94473 0
M  V30 20387 N 1912.66 -0.698586 1.41271 0
M  V30 20388 C 1913.62 -1.7943 1.4261 0
M  V30 20389 C 1914.62 -1.57641 0.317187 0
M  V30 20390 O 1915.81 -1.64369 0.576922 0
M  V30 20391 C 1912.95 -3.17762 1.23452 0
M  V30 20392 H 1914.14 -1.79637 2.40147 0
M  V30 20393 H 1911.69 -0.905916 1.27369 0
M  V30 20394 H 1912.43 -3.23195 0.267431 0
M  V30 20395 H 1912.21 -3.34978 2.03794 0
M  V30 20396 H 1913.7 -3.97751 1.27217 0
M  V30 20397 N 1914.14 -1.27049 -0.93254 0
M  V30 20398 C 1915.55 -1.11887 -1.49459 0
M  V30 20399 C 1915.9 0.297825 -1.93926 0
M  V30 20400 O 1915.03 1.19024 -1.80727 0
M  V30 20401 C 1915.62 -2.02497 -2.71626 0
M  V30 20402 C 1914.18 -1.91455 -3.24071 0
M  V30 20403 C 1913.33 -1.95337 -1.96821 0
M  V30 20404 H 1916.28 -1.40013 -0.747138 0
M  V30 20405 H 1916.3 -1.57794 -3.46239 0
M  V30 20406 H 1915.81 -3.05598 -2.39231 0
M  V30 20407 H 1913.91 -0.913212 -3.61236 0
M  V30 20408 H 1914.03 -2.77443 -3.90592 0
M  V30 20409 H 1912.39 -1.395 -2.13101 0
M  V30 20410 H 1913.17 -3.00084 -1.66746 0
M  V30 20411 N 1915.62 1.13835 -1.08993 0
M  V30 20412 C 1916.86 1.85284 -0.824476 0
M  V30 20413 C 1917.2 1.83062 0.648235 0
M  V30 20414 O 1916.47 1.26555 1.47696 0
M  V30 20415 C 1916.75 3.33649 -1.35463 0
M  V30 20416 C 1916.61 3.44411 -2.89312 0
M  V30 20417 C 1917.93 4.28941 -0.984768 0
M  V30 20418 H 1915.05 0.672745 -0.300971 0
M  V30 20419 H 1917.69 1.3364 -1.35057 0
M  V30 20420 H 1915.84 3.77761 -0.907128 0
M  V30 20421 H 1917.51 3.09043 -3.42477 0
M  V30 20422 H 1915.75 2.85429 -3.26669 0
M  V30 20423 H 1916.42 4.48724 -3.21481 0
M  V30 20424 H 1918.9 3.92877 -1.37064 0
M  V30 20425 H 1917.78 5.31196 -1.38283 0
M  V30 20426 H 1918.04 4.41969 0.10755 0
M  V30 20427 N 1917.1 0.876467 1.3098 0
M  V30 20428 C 1918.37 0.411051 1.91232 0
M  V30 20429 C 1918.75 -1.10748 1.79717 0
M  V30 20430 O 1918.1 -1.93898 1.20896 0
M  V30 20431 C 1918.31 0.899663 3.37205 0
M  V30 20432 C 1919.66 0.929615 4.14299 0
M  V30 20433 O 1920.68 0.845752 3.46014 0
M  V30 20434 O 1919.54 1.05211 5.36277 0
M  V30 20435 H 1916.64 0.12418 0.817624 0
M  V30 20436 H 1919.18 0.964808 1.39605 0
M  V30 20437 H 1917.95 1.94336 3.39631 0
M  V30 20438 H 1917.58 0.324585 3.96273 0
M  V30 20439 N 1918.57 -1.44173 0.636557 0
M  V30 20440 C 1919.5 -2.33442 -0.0518719 0
M  V30 20441 C 1920.48 -1.48519 -0.829226 0
M  V30 20442 O 1921.67 -1.77225 -0.794028 0
M  V30 20443 C 1918.8 -3.31663 -1.03038 0
M  V30 20444 C 1917.75 -4.26447 -0.364286 0
M  V30 20445 C 1917.08 -5.14577 -1.45308 0
M  V30 20446 C 1918.38 -5.17133 0.732884 0
M  V30 20447 H 1920.07 -2.91255 0.693589 0
M  V30 20448 H 1917.62 -1.40049 0.33499 0
M  V30 20449 H 1919.57 -3.93002 -1.52077 0
M  V30 20450 H 1918.3 -2.72071 -1.80679 0
M  V30 20451 H 1916.96 -3.66448 0.105505 0
M  V30 20452 H 1916.6 -4.51334 -2.22051 0
M  V30 20453 H 1916.3 -5.78807 -1.01274 0
M  V30 20454 H 1917.83 -5.78788 -1.94517 0
M  V30 20455 H 1919.24 -5.72376 0.325363 0
M  V30 20456 H 1917.64 -5.89994 1.09669 0
M  V30 20457 H 1918.71 -4.5782 1.59779 0
M  V30 20458 N 1920.05 -0.377435 -1.53014 0
M  V30 20459 C 1921 0.478416 -2.27627 0
M  V30 20460 C 1921.99 1.07327 -1.31062 0
M  V30 20461 O 1923.2 1.01511 -1.48646 0
M  V30 20462 H 1919.57 0.173021 -0.731825 0
M  V30 20463 H 1921.55 -0.172497 -2.97901 0
M  V30 20464 C 1920.29 1.59993 -3.08703 0
M  V30 20465 H 1919.62 1.15151 -3.82858 0
M  V30 20466 H 1921.06 2.17324 -3.64069 0
M  V30 20467 C 1919.52 2.54912 -2.20275 0
M  V30 20468 O 1920.05 3.58027 -1.82152 0
M  V30 20469 N 1918.25 2.24376 -1.84672 0
M  V30 20470 H 1917.8 1.40559 -2.15873 0
M  V30 20471 H 1917.76 2.88137 -1.25794 0
M  V30 20472 N 1921.53 1.57237 -0.106922 0
M  V30 20473 C 1922.78 1.9439 0.552888 0
M  V30 20474 C 1923.1 0.990316 1.67981 0
M  V30 20475 O 1922.37 0.0444502 1.9585 0
M  V30 20476 H 1920.95 0.71768 0.20723 0
M  V30 20477 H 1923.61 1.9413 -0.17303 0
M  V30 20478 H 1922.71 2.97118 0.955369 0
M  V30 20479 N 1923.01 -0.166818 1.56715 0
M  V30 20480 C 1923.96 -1.20646 1.96757 0
M  V30 20481 C 1924.93 -1.43751 0.832153 0
M  V30 20482 O 1926.11 -1.56416 1.09264 0
M  V30 20483 C 1923.25 -2.53971 2.3365 0
M  V30 20484 C 1922.36 -2.38207 3.60391 0
M  V30 20485 C 1921.5 -3.6443 3.86476 0
M  V30 20486 C 1920.54 -3.43618 5.0655 0
M  V30 20487 N 1919.67 -4.61923 5.28746 0
M  V30 20488 H 1924.51 -0.857983 2.85382 0
M  V30 20489 H 1922.05 -0.412238 1.41206 0
M  V30 20490 H 1924.01 -3.31684 2.53064 0
M  V30 20491 H 1922.64 -2.86805 1.48131 0
M  V30 20492 H 1921.69 -1.51648 3.48866 0
M  V30 20493 H 1923 -2.18777 4.48261 0
M  V30 20494 H 1922.16 -4.50578 4.06282 0
M  V30 20495 H 1920.9 -3.86844 2.9699 0
M  V30 20496 H 1919.9 -2.55858 4.86638 0
M  V30 20497 H 1921.13 -3.22623 5.97571 0
M  V30 20498 H 1919.07 -4.84547 4.42211 0
M  V30 20499 H 1918.99 -4.45423 6.10848 0
M  V30 20500 H 1920.26 -5.4934 5.53033 0
M  V30 20501 N 1924.49 -1.51463 -0.435524 0
M  V30 20502 C 1925.45 -1.72315 -1.51129 0
M  V30 20503 C 1926.45 -0.593161 -1.4946 0
M  V30 20504 O 1927.64 -0.860731 -1.5145 0
M  V30 20505 C 1924.77 -1.78127 -2.9066 0
M  V30 20506 H 1925.96 -2.68327 -1.33943 0
M  V30 20507 H 1923.52 -1.4148 -0.664317 0
M  V30 20508 H 1924.25 -0.839367 -3.13249 0
M  V30 20509 H 1924.04 -2.60252 -2.93277 0
M  V30 20510 H 1925.53 -1.96093 -3.68697 0
M  V30 20511 N 1925.96 0.691085 -1.4164 0
M  V30 20512 C 1927.19 1.47764 -1.44393 0
M  V30 20513 C 1927.6 1.89137 -0.0489239 0
M  V30 20514 O 1926.95 1.57642 0.943111 0
M  V30 20515 C 1927.01 2.76837 -2.29351 0
M  V30 20516 C 1926.67 2.5764 -3.77453 0
M  V30 20517 C 1927.67 2.23295 -4.69505 0
M  V30 20518 C 1925.35 2.73141 -4.21544 0
M  V30 20519 C 1927.35 2.04696 -6.03638 0
M  V30 20520 C 1925.03 2.54158 -5.5574 0
M  V30 20521 C 1926.03 2.19987 -6.46603 0
M  V30 20522 O 1925.72 2.01173 -7.78322 0
M  V30 20523 H 1925.45 0.461744 -0.493729 0
M  V30 20524 H 1928.01 0.857998 -1.86621 0
M  V30 20525 H 1926.24 3.41223 -1.81944 0
M  V30 20526 H 1927.93 3.38659 -2.23752 0
M  V30 20527 H 1928.69 2.1093 -4.36731 0
M  V30 20528 H 1924.57 2.98721 -3.51122 0
M  V30 20529 H 1928.11 1.77947 -6.74523 0
M  V30 20530 H 1924.01 2.66115 -5.88093 0
M  V30 20531 H 1924.78 2.15901 -7.89512 0
M  V30 20532 N 1927.44 1.27542 0.925789 0
M  V30 20533 C 1928.86 1.04988 1.20207 0
M  V30 20534 C 1929.06 -0.215359 2.00346 0
M  V30 20535 O 1928.11 -0.920331 2.3513 0
M  V30 20536 C 1929.43 2.2904 1.94836 0
M  V30 20537 C 1930.98 2.34098 2.07767 0
M  V30 20538 C 1931.45 3.57884 2.85802 0
M  V30 20539 N 1932.94 3.58453 2.93369 0
M  V30 20540 C 1933.68 4.50907 3.54218 0
M  V30 20541 N 1933.17 5.53667 4.16443 0
M  V30 20542 N 1934.97 4.38527 3.5164 0
M  V30 20543 H 1927.12 2.0878 0.390449 0
M  V30 20544 H 1929.38 0.918323 0.235346 0
M  V30 20545 H 1929.09 3.21151 1.4337 0
M  V30 20546 H 1928.96 2.34507 2.95442 0
M  V30 20547 H 1931.35 1.42492 2.58418 0
M  V30 20548 H 1931.43 2.32633 1.06375 0
M  V30 20549 H 1931.07 4.49828 2.35834 0
M  V30 20550 H 1931 3.56601 3.87484 0
M  V30 20551 H 1933.49 2.84138 2.49147 0
M  V30 20552 H 1933.81 6.20377 4.60817 0
M  V30 20553 H 1932.15 5.57507 4.14983 0
M  V30 20554 H 1935.34 3.57455 3.0223 0
M  V30 20555 H 1935.51 5.10769 3.98772 0
M  V30 20556 N 1928.92 -1.13255 1.09595 0
M  V30 20557 C 1930.15 -1.88952 0.855104 0
M  V30 20558 C 1930.57 -1.78668 -0.588174 0
M  V30 20559 O 1929.93 -1.13544 -1.41341 0
M  V30 20560 C 1929.98 -3.36461 1.29717 0
M  V30 20561 O 1929.08 -4.09863 0.456717 0
M  V30 20562 H 1928.42 -0.587432 0.309547 0
M  V30 20563 H 1930.95 -1.43282 1.46053 0
M  V30 20564 H 1930.96 -3.87291 1.28333 0
M  V30 20565 H 1929.64 -3.43263 2.34826 0
M  V30 20566 H 1928.21 -3.69042 0.535026 0
M  V30 20567 N 1930.4 -0.883401 -1.30514 0
M  V30 20568 C 1931.33 -0.36516 -2.30627 0
M  V30 20569 C 1932.31 0.551149 -1.60923 0
M  V30 20570 O 1933.49 0.465333 -1.88543 0
M  V30 20571 C 1930.62 0.422552 -3.4472 0
M  V30 20572 C 1929.58 -0.401856 -4.26109 0
M  V30 20573 C 1928.9 0.512363 -5.3224 0
M  V30 20574 C 1930.2 -1.64313 -4.95781 0
M  V30 20575 H 1931.9 -1.20175 -2.74223 0
M  V30 20576 H 1929.44 -0.579315 -1.31833 0
M  V30 20577 H 1931.4 0.795726 -4.13819 0
M  V30 20578 H 1930.12 1.29278 -2.99925 0
M  V30 20579 H 1928.78 -0.75715 -3.58696 0
M  V30 20580 H 1928.43 1.38025 -4.83692 0
M  V30 20581 H 1928.13 -0.0354331 -5.87589 0
M  V30 20582 H 1929.65 0.882088 -6.04195 0
M  V30 20583 H 1931.07 -1.34063 -5.57405 0
M  V30 20584 H 1929.46 -2.13101 -5.60989 0
M  V30 20585 H 1930.53 -2.38843 -4.21998 0
M  V30 20586 N 1931.88 1.43833 -0.644194 0
M  V30 20587 C 1932.82 2.30739 0.0528797 0
M  V30 20588 C 1933.79 1.44234 0.823751 0
M  V30 20589 O 1934.98 1.73118 0.802171 0
M  V30 20590 C 1932.12 3.29695 1.01956 0
M  V30 20591 C 1931.23 4.31301 0.245734 0
M  V30 20592 C 1930.37 5.17343 1.2054 0
M  V30 20593 C 1929.41 6.10647 0.421486 0
M  V30 20594 N 1928.54 6.89344 1.33228 0
M  V30 20595 H 1933.38 2.89803 -0.694123 0
M  V30 20596 H 1930.92 1.42775 -0.354069 0
M  V30 20597 H 1932.88 3.85568 1.59353 0
M  V30 20598 H 1931.51 2.72302 1.73354 0
M  V30 20599 H 1930.56 3.77795 -0.44438 0
M  V30 20600 H 1931.87 4.97468 -0.364231 0
M  V30 20601 H 1931.03 5.77797 1.85029 0
M  V30 20602 H 1929.76 4.51279 1.84928 0
M  V30 20603 H 1928.77 5.4929 -0.236816 0
M  V30 20604 H 1929.99 6.7875 -0.217862 0
M  V30 20605 H 1927.94 6.25937 1.96312 0
M  V30 20606 H 1927.86 7.52 0.776653 0
M  V30 20607 H 1929.13 7.54311 1.9656 0
M  V30 20608 N 1933.35 0.385544 1.52811 0
M  V30 20609 C 1934.6 -0.19907 2.00715 0
M  V30 20610 C 1934.92 -1.48216 1.27638 0
M  V30 20611 O 1936.12 -2.14659 1.66234 0
M  V30 20612 C 1934.58 -0.405311 3.5761 0
M  V30 20613 C 1934.19 0.864306 4.39584 0
M  V30 20614 C 1935.93 -0.946495 4.13814 0
M  V30 20615 C 1933.84 0.626551 5.88072 0
M  V30 20616 H 1932.77 -0.0781676 0.749937 0
M  V30 20617 H 1935.42 0.507365 1.76346 0
M  V30 20618 H 1933.8 -1.1735 3.78213 0
M  V30 20619 H 1934.97 1.63683 4.30749 0
M  V30 20620 H 1933.29 1.33017 3.94583 0
M  V30 20621 H 1935.89 -1.14002 5.22406 0
M  V30 20622 H 1936.23 -1.91447 3.69667 0
M  V30 20623 H 1936.76 -0.23797 3.97088 0
M  V30 20624 H 1933.5 1.56542 6.36534 0
M  V30 20625 H 1933.02 -0.107102 5.99704 0
M  V30 20626 H 1934.7 0.259654 6.46479 0
M  V30 20627 N 1934.83 -1.57178 0.115259 0
M  V30 20628 C 1935.8 -2.13953 -0.821982 0
M  V30 20629 C 1936.8 -1.07352 -1.19717 0
M  V30 20630 O 1937.99 -1.33146 -1.12329 0
M  V30 20631 C 1935.12 -2.6767 -2.11106 0
M  V30 20632 H 1936.31 -2.98094 -0.328631 0
M  V30 20633 H 1933.86 -1.55725 -0.133942 0
M  V30 20634 H 1934.6 -1.87106 -2.6488 0
M  V30 20635 H 1934.38 -3.4563 -1.85155 0
M  V30 20636 H 1935.87 -3.11519 -2.78111 0
M  V30 20637 N 1936.31 0.158505 -1.56801 0
M  V30 20638 C 1937.24 1.19799 -2.00426 0
M  V30 20639 C 1938.22 1.45453 -0.881905 0
M  V30 20640 O 1939.41 1.56569 -1.1489 0
M  V30 20641 C 1936.54 2.53392 -2.37508 0
M  V30 20642 C 1935.49 2.42283 -3.52822 0
M  V30 20643 C 1934.82 3.80482 -3.75683 0
M  V30 20644 C 1936.12 1.91666 -4.85862 0
M  V30 20645 H 1937.81 0.835303 -2.87512 0
M  V30 20646 H 1935.36 0.400366 -1.38322 0
M  V30 20647 H 1937.31 3.26326 -2.66625 0
M  V30 20648 H 1936.03 2.91474 -1.47345 0
M  V30 20649 H 1934.69 1.71801 -3.23852 0
M  V30 20650 H 1934.34 4.15979 -2.8279 0
M  V30 20651 H 1934.04 3.73913 -4.5328 0
M  V30 20652 H 1935.57 4.54982 -4.07214 0
M  V30 20653 H 1936.98 2.54384 -5.13772 0
M  V30 20654 H 1935.38 1.96016 -5.67184 0
M  V30 20655 H 1936.45 0.871666 -4.77001 0
M  V30 20656 N 1937.79 1.51692 0.427485 0
M  V30 20657 C 1938.72 1.69922 1.53816 0
M  V30 20658 C 1939.73 0.579757 1.52127 0
M  V30 20659 O 1940.92 0.854377 1.56725 0
M  V30 20660 C 1938.02 1.70772 2.92729 0
M  V30 20661 C 1937.2 2.99461 3.18813 0
M  V30 20662 C 1936.26 2.92367 4.37502 0
M  V30 20663 O 1935.28 3.663 4.35675 0
M  V30 20664 N 1936.48 2.08893 5.41612 0
M  V30 20665 H 1939.25 2.65737 1.38578 0
M  V30 20666 H 1936.81 1.497 0.616555 0
M  V30 20667 H 1938.8 1.63581 3.70167 0
M  V30 20668 H 1937.37 0.825087 3.01515 0
M  V30 20669 H 1936.59 3.20444 2.29585 0
M  V30 20670 H 1937.88 3.84629 3.33074 0
M  V30 20671 H 1937.28 1.48221 5.45937 0
M  V30 20672 H 1935.83 2.07575 6.17864 0
M  V30 20673 N 1939.27 -0.683564 1.42004 0
M  V30 20674 C 1940.21 -1.7973 1.44796 0
M  V30 20675 C 1941.18 -1.63352 0.300905 0
M  V30 20676 O 1942.37 -1.84031 0.503707 0
M  V30 20677 C 1939.51 -3.17701 1.34758 0
M  V30 20678 C 1938.62 -3.45428 2.59429 0
M  V30 20679 C 1937.76 -4.73079 2.41598 0
M  V30 20680 C 1936.8 -4.93812 3.61685 0
M  V30 20681 N 1935.93 -6.12698 3.4285 0
M  V30 20682 H 1940.77 -1.76679 2.39976 0
M  V30 20683 H 1938.31 -0.862624 1.19152 0
M  V30 20684 H 1940.27 -3.9742 1.26938 0
M  V30 20685 H 1938.9 -3.19899 0.431785 0
M  V30 20686 H 1937.95 -2.60027 2.77651 0
M  V30 20687 H 1939.26 -3.56645 3.48721 0
M  V30 20688 H 1938.42 -5.60873 2.31314 0
M  V30 20689 H 1937.16 -4.6413 1.49782 0
M  V30 20690 H 1936.16 -4.04463 3.72411 0
M  V30 20691 H 1937.39 -5.04612 4.5447 0
M  V30 20692 H 1935.33 -6.04938 2.53744 0
M  V30 20693 H 1935.25 -6.24736 4.25724 0
M  V30 20694 H 1936.52 -7.03194 3.36361 0
M  V30 20695 N 1940.75 -1.28031 -0.919012 0
M  V30 20696 C 1941.99 -1.16057 -1.6704 0
M  V30 20697 C 1942.35 0.289001 -1.90217 0
M  V30 20698 O 1941.64 1.20742 -1.48768 0
M  V30 20699 C 1941.83 -1.887 -3.03524 0
M  V30 20700 C 1941.66 -3.40573 -2.93667 0
M  V30 20701 C 1940.43 -4.09905 -2.95476 0
M  V30 20702 C 1942.63 -4.36404 -2.72132 0
M  V30 20703 N 1940.61 -5.48283 -2.76151 0
M  V30 20704 C 1941.98 -5.62109 -2.61598 0
M  V30 20705 C 1944.04 -4.26392 -2.57087 0
M  V30 20706 C 1942.74 -6.78941 -2.37554 0
M  V30 20707 C 1944.77 -5.42955 -2.34422 0
M  V30 20708 C 1944.13 -6.67621 -2.24638 0
M  V30 20709 H 1940.23 -0.479594 -0.617668 0
M  V30 20710 H 1942.81 -1.61613 -1.08578 0
M  V30 20711 H 1940.98 -1.45587 -3.60082 0
M  V30 20712 H 1942.72 -1.69157 -3.67652 0
M  V30 20713 H 1939.47 -3.61442 -3.06033 0
M  V30 20714 H 1939.89 -6.21005 -2.69595 0
M  V30 20715 H 1944.54 -3.30722 -2.63406 0
M  V30 20716 H 1942.25 -7.74685 -2.29975 0
M  V30 20717 H 1945.84 -5.37094 -2.23653 0
M  V30 20718 H 1944.72 -7.56294 -2.07338 0
M  V30 20719 N 1942.22 1.12672 -1.10194 0
M  V30 20720 C 1943.16 2.18045 -0.706344 0
M  V30 20721 C 1944.17 1.60779 0.25571 0
M  V30 20722 O 1945.36 1.78454 0.0405568 0
M  V30 20723 C 1942.46 3.38893 -0.021273 0
M  V30 20724 C 1941.63 4.25654 -1.00687 0
M  V30 20725 C 1940.69 5.2501 -0.353745 0
M  V30 20726 O 1939.72 5.60279 -1.00378 0
M  V30 20727 N 1940.92 5.73655 0.888851 0
M  V30 20728 H 1943.68 2.52596 -1.61293 0
M  V30 20729 H 1941.24 1.28071 -0.990431 0
M  V30 20730 H 1943.24 4.0244 0.427064 0
M  V30 20731 H 1941.81 3.02513 0.787681 0
M  V30 20732 H 1941.03 3.5876 -1.63354 0
M  V30 20733 H 1942.31 4.8047 -1.67411 0
M  V30 20734 H 1941.71 5.4716 1.43638 0
M  V30 20735 H 1940.27 6.39101 1.28038 0
M  V30 20736 N 1943.7 0.89031 1.30043 0
M  V30 20737 C 1944.63 0.305628 2.26144 0
M  V30 20738 C 1945.61 -0.576854 1.52024 0
M  V30 20739 O 1946.8 -0.525759 1.81019 0
M  V30 20740 C 1943.92 -0.56523 3.3395 0
M  V30 20741 C 1942.97 0.248651 4.25775 0
M  V30 20742 S 1943.8 1.64039 5.09756 0
M  V30 20743 C 1944.96 0.7762 6.21068 0
M  V30 20744 H 1945.19 1.12021 2.75388 0
M  V30 20745 H 1942.72 0.690064 1.38121 0
M  V30 20746 H 1944.68 -1.06193 3.96527 0
M  V30 20747 H 1943.34 -1.35396 2.8342 0
M  V30 20748 H 1942.54 -0.416165 5.02279 0
M  V30 20749 H 1942.14 0.678155 3.678 0
M  V30 20750 H 1944.43 -0.00451589 6.775 0
M  V30 20751 H 1945.37 1.51302 6.91747 0
M  V30 20752 H 1945.78 0.334741 5.63507 0
M  V30 20753 N 1945.18 -1.43489 0.651812 0
M  V30 20754 C 1946.09 -2.34564 -0.0413115 0
M  V30 20755 C 1947.11 -1.53803 -0.81368 0
M  V30 20756 O 1948.28 -1.86459 -0.761246 0
M  V30 20757 C 1945.35 -3.32063 -0.996745 0
M  V30 20758 C 1944.41 -4.28728 -0.221464 0
M  V30 20759 C 1943.64 -5.2157 -1.13139 0
M  V30 20760 O 1943.86 -5.18804 -2.37062 0
M  V30 20761 O 1942.8 -5.98856 -0.604552 0
M  V30 20762 H 1946.62 -2.95325 0.708295 0
M  V30 20763 H 1944.21 -1.43607 0.411999 0
M  V30 20764 H 1946.09 -3.92022 -1.54586 0
M  V30 20765 H 1944.77 -2.73807 -1.7266 0
M  V30 20766 H 1943.67 -3.72254 0.371205 0
M  V30 20767 H 1945.01 -4.89962 0.468797 0
M  V30 20768 N 1946.66 -0.393643 -1.52605 0
M  V30 20769 C 1947.93 0.244939 -1.9406 0
M  V30 20770 C 1948.31 1.63981 -1.32942 0
M  V30 20771 O 1947.66 2.2298 -0.499195 0
M  V30 20772 C 1947.87 0.266912 -3.47978 0
M  V30 20773 C 1949.22 0.493768 -4.21719 0
M  V30 20774 O 1950.24 0.346936 -3.54506 0
M  V30 20775 O 1949.1 0.78183 -5.40879 0
M  V30 20776 H 1946.2 0.153387 -0.812651 0
M  V30 20777 H 1948.74 -0.448465 -1.63667 0
M  V30 20778 H 1947.52 -0.709958 -3.84806 0
M  V30 20779 H 1947.14 1.00506 -3.84687 0
M  V30 20780 N 1948.14 1.57115 -0.123593 0
M  V30 20781 C 1949.55 1.5789 0.232975 0
M  V30 20782 C 1949.75 1.13659 1.66385 0
M  V30 20783 O 1948.81 0.826084 2.38604 0
M  V30 20784 C 1950.12 3.007 -0.0045178 0
M  V30 20785 C 1951.67 3.12941 0.0610235 0
M  V30 20786 C 1952.14 4.57758 -0.148835 0
M  V30 20787 N 1953.63 4.63103 -0.0949606 0
M  V30 20788 C 1954.37 5.7293 -0.232177 0
M  V30 20789 N 1953.87 6.9149 -0.42582 0
M  V30 20790 N 1955.66 5.61839 -0.171428 0
M  V30 20791 H 1947.81 1.84166 -1.05814 0
M  V30 20792 H 1950.07 0.851342 -0.417038 0
M  V30 20793 H 1949.78 3.37364 -0.993901 0
M  V30 20794 H 1949.65 3.70161 0.725327 0
M  V30 20795 H 1952.04 2.76131 1.04094 0
M  V30 20796 H 1952.12 2.46014 -0.700776 0
M  V30 20797 H 1951.76 4.95267 -1.12574 0
M  V30 20798 H 1951.69 5.22782 0.633006 0
M  V30 20799 H 1954.19 3.77866 0.0510058 0
M  V30 20800 H 1954.5 7.7104 -0.521263 0
M  V30 20801 H 1952.84 6.93464 -0.461851 0
M  V30 20802 H 1956.03 4.68095 -0.0210758 0
M  V30 20803 H 1956.21 6.47387 -0.281807 0
M  V30 20804 N 1949.61 -0.150187 1.56883 0
M  V30 20805 C 1950.86 -0.863336 1.83174 0
M  V30 20806 C 1951.19 -1.81313 0.703986 0
M  V30 20807 O 1950.44 -1.93273 -0.307235 0
M  V30 20808 C 1950.74 -1.67394 3.15775 0
M  V30 20809 C 1950.41 -0.871221 4.42403 0
M  V30 20810 C 1949.07 -0.649752 4.76793 0
M  V30 20811 C 1951.42 -0.309625 5.2028 0
M  V30 20812 C 1948.75 0.144072 5.86523 0
M  V30 20813 C 1951.1 0.471222 6.30843 0
M  V30 20814 C 1949.77 0.703297 6.63785 0
M  V30 20815 H 1949.04 -0.315917 0.670282 0
M  V30 20816 H 1951.68 -0.127141 1.91077 0
M  V30 20817 H 1949.99 -2.48015 3.03308 0
M  V30 20818 H 1951.69 -2.22915 3.33332 0
M  V30 20819 H 1948.28 -1.0539 4.15441 0
M  V30 20820 H 1952.46 -0.468015 4.94088 0
M  V30 20821 H 1947.72 0.333407 6.1049 0
M  V30 20822 H 1951.89 0.913535 6.90382 0
M  V30 20823 H 1949.52 1.32027 7.48647 0
M  V30 20824 N 1951.09 -1.51916 -0.419434 0
M  V30 20825 C 1952.33 -1.67139 -1.17661 0
M  V30 20826 C 1952.7 -0.387862 -1.88042 0
M  V30 20827 O 1953.9 -0.416066 -2.6556 0
M  V30 20828 C 1952.17 -2.853 -2.15264 0
M  V30 20829 S 1953.73 -3.2095 -2.99227 0
M  V30 20830 H 1950.55 -0.58866 -0.398748 0
M  V30 20831 H 1953.15 -1.89879 -0.46544 0
M  V30 20832 H 1951.85 -3.76975 -1.62228 0
M  V30 20833 H 1951.38 -2.64803 -2.90935 0
M  V30 20834 H 1953.4 -2.68772 -4.17104 0
M  V30 20835 N 1952.57 0.676023 -1.42365 0
M  V30 20836 C 1953.52 1.81087 -1.4598 0
M  V30 20837 C 1954.51 1.66041 -0.335662 0
M  V30 20838 O 1955.72 1.72665 -0.508618 0
M  V30 20839 H 1952.09 0.597073 -0.457173 0
M  V30 20840 H 1954.06 1.75156 -2.41584 0
M  V30 20841 C 1952.81 3.19233 -1.37789 0
M  V30 20842 H 1952.14 3.31437 -2.23584 0
M  V30 20843 H 1953.58 3.98661 -1.4438 0
M  V30 20844 C 1952.04 3.36773 -0.0925272 0
M  V30 20845 O 1952.57 3.92491 0.855181 0
M  V30 20846 N 1950.77 2.90598 -0.0100772 0
M  V30 20847 H 1950.32 2.45441 -0.782071 0
M  V30 20848 H 1950.28 3.02711 0.849301 0
M  V30 20849 N 1954.05 1.28517 0.912209 0
M  V30 20850 C 1955.46 1.14251 1.4766 0
M  V30 20851 C 1955.81 -0.266935 1.94376 0
M  V30 20852 O 1954.94 -1.16134 1.82598 0
M  V30 20853 C 1955.53 2.06792 2.6837 0
M  V30 20854 C 1954.09 1.96587 3.20984 0
M  V30 20855 C 1953.24 1.98444 1.93689 0
M  V30 20856 H 1956.19 1.41184 0.724769 0
M  V30 20857 H 1956.21 1.63282 3.43685 0
M  V30 20858 H 1955.72 3.09365 2.34339 0
M  V30 20859 H 1953.82 0.970565 3.59737 0
M  V30 20860 H 1953.93 2.83622 3.86129 0
M  V30 20861 H 1952.3 1.42872 2.10855 0
M  V30 20862 H 1953.08 3.02699 1.61951 0
M  V30 20863 N 1955.53 -1.12086 1.1079 0
M  V30 20864 C 1956.77 -1.83314 0.850901 0
M  V30 20865 C 1957.1 -1.84703 -0.625275 0
M  V30 20866 O 1956.37 -1.31277 -1.45406 0
M  V30 20867 H 1954.95 -0.678817 0.311797 0
M  V30 20868 H 1957.61 -1.35707 1.39891 0
M  V30 20869 H 1956.7 -2.87393 1.21704 0
M  V30 20870 N 1957 -0.897194 -1.29569 0
M  V30 20871 C 1958.42 -0.570676 -1.77764 0
M  V30 20872 C 1958.77 0.913595 -1.73631 0
M  V30 20873 O 1957.89 1.71426 -1.32068 0
M  V30 20874 C 1958.49 -1.02914 -3.22791 0
M  V30 20875 C 1957.05 -0.753828 -3.68774 0
M  V30 20876 C 1956.19 -1.20525 -2.49738 0
M  V30 20877 H 1959.14 -1.08018 -1.16266 0
M  V30 20878 H 1959.16 -0.363343 -3.78761 0
M  V30 20879 H 1958.68 -2.10944 -3.25767 0
M  V30 20880 H 1956.78 0.313965 -3.71275 0
M  V30 20881 H 1956.89 -1.34995 -4.59688 0
M  V30 20882 H 1955.25 -0.624304 -2.4693 0
M  V30 20883 H 1956.04 -2.29355 -2.55443 0
M  V30 20884 N 1958.48 1.43142 -0.659413 0
M  V30 20885 C 1959.73 2.0096 -0.172631 0
M  V30 20886 C 1960.04 1.52669 1.22277 0
M  V30 20887 O 1961.25 2.02802 1.8051 0
M  V30 20888 C 1959.71 3.58975 -0.257802 0
M  V30 20889 C 1959.31 4.16259 -1.65628 0
M  V30 20890 C 1961.06 4.24155 0.171057 0
M  V30 20891 C 1958.97 5.66588 -1.69505 0
M  V30 20892 H 1957.9 0.751547 -0.0607765 0
M  V30 20893 H 1960.55 1.64042 -0.822352 0
M  V30 20894 H 1958.93 3.93325 0.459538 0
M  V30 20895 H 1960.1 3.93398 -2.39947 0
M  V30 20896 H 1958.42 3.63473 -2.03165 0
M  V30 20897 H 1961.01 5.34454 0.162026 0
M  V30 20898 H 1961.36 3.98521 1.2036 0
M  V30 20899 H 1961.89 3.94711 -0.494745 0
M  V30 20900 H 1958.63 5.96998 -2.7069 0
M  V30 20901 H 1958.15 5.91486 -0.995201 0
M  V30 20902 H 1959.83 6.30736 -1.44156 0
M  V30 20903 N 1959.96 0.40173 1.52394 0
M  V30 20904 C 1960.89 -0.46265 2.24482 0
M  V30 20905 C 1961.91 -1.01638 1.27175 0
M  V30 20906 O 1963.09 -0.916585 1.5317 0
M  V30 20907 C 1960.19 -1.65517 2.95732 0
M  V30 20908 C 1959.37 -1.22664 4.19848 0
M  V30 20909 C 1958.43 -2.28524 4.73987 0
M  V30 20910 O 1957.45 -1.89419 5.36758 0
M  V30 20911 N 1958.65 -3.60596 4.54918 0
M  V30 20912 H 1961.42 0.155024 2.99299 0
M  V30 20913 H 1958.98 0.228724 1.60276 0
M  V30 20914 H 1960.97 -2.35886 3.28847 0
M  V30 20915 H 1959.54 -2.17892 2.24147 0
M  V30 20916 H 1958.76 -0.351359 3.92631 0
M  V30 20917 H 1960.05 -0.917162 5.00465 0
M  V30 20918 H 1959.45 -3.95122 4.0484 0
M  V30 20919 H 1958.01 -4.26962 4.9249 0
M  V30 20920 N 1961.44 -1.57047 0.131923 0
M  V30 20921 C 1962.69 -1.95632 -0.522925 0
M  V30 20922 C 1963.01 -1.01597 -1.65856 0
M  V30 20923 O 1962.27 -0.0422719 -1.95654 0
M  V30 20924 C 1962.57 -3.4056 -1.08413 0
M  V30 20925 C 1962.23 -4.50848 -0.0685085 0
M  V30 20926 C 1960.9 -4.80738 0.210726 0
M  V30 20927 C 1963.25 -5.17464 0.622935 0
M  V30 20928 C 1960.58 -5.74557 1.18747 0
M  V30 20929 C 1962.93 -6.12334 1.58839 0
M  V30 20930 C 1961.59 -6.40611 1.87548 0
M  V30 20931 H 1960.86 -0.715867 -0.191352 0
M  V30 20932 H 1963.51 -1.90283 0.215565 0
M  V30 20933 H 1961.81 -3.42667 -1.89965 0
M  V30 20934 H 1963.51 -3.67734 -1.59914 0
M  V30 20935 H 1960.1 -4.27574 -0.29633 0
M  V30 20936 H 1964.28 -4.94516 0.420386 0
M  V30 20937 H 1959.54 -5.94765 1.4165 0
M  V30 20938 H 1963.71 -6.63034 2.12977 0
M  V30 20939 H 1961.34 -7.13114 2.63387 0
M  V30 20940 N 1962.92 0.141865 -1.5696 0
M  V30 20941 C 1963.83 1.19435 -2.01922 0
M  V30 20942 C 1964.84 1.4671 -0.935527 0
M  V30 20943 O 1966.02 1.58279 -1.24538 0
M  V30 20944 C 1963.08 2.50665 -2.39516 0
M  V30 20945 C 1962.14 2.30991 -3.61859 0
M  V30 20946 C 1961.38 3.55963 -3.9765 0
M  V30 20947 O 1961.6 4.62354 -3.34044 0
M  V30 20948 O 1960.53 3.48322 -4.90872 0
M  V30 20949 H 1964.36 0.842613 -2.91777 0
M  V30 20950 H 1961.95 0.350973 -1.45219 0
M  V30 20951 H 1963.83 3.28024 -2.64534 0
M  V30 20952 H 1962.5 2.85358 -1.52815 0
M  V30 20953 H 1961.41 1.51565 -3.42022 0
M  V30 20954 H 1962.74 2.01211 -4.49194 0
M  V30 20955 N 1964.39 1.52136 0.411372 0
M  V30 20956 C 1965.64 1.65757 1.15624 0
M  V30 20957 C 1965.96 0.388771 1.91085 0
M  V30 20958 O 1965.23 -0.596276 1.86605 0
M  V30 20959 H 1963.81 0.610955 0.429817 0
M  V30 20960 H 1966.48 1.8917 0.469114 0
M  V30 20961 H 1965.57 2.49759 1.87155 0
M  V30 20962 N 1965.87 -0.668464 1.42721 0
M  V30 20963 C 1966.82 -1.80311 1.46938 0
M  V30 20964 C 1967.82 -1.65861 0.344463 0
M  V30 20965 O 1969.02 -1.72392 0.517768 0
M  V30 20966 H 1965.4 -0.59464 0.460333 0
M  V30 20967 H 1967.37 -1.73872 2.4251 0
M  V30 20968 C 1966.12 -3.18498 1.3948 0
M  V30 20969 H 1965.44 -3.30246 2.25338 0
M  V30 20970 H 1966.88 -3.9789 1.46492 0
M  V30 20971 C 1965.34 -3.36719 0.110386 0
M  V30 20972 O 1965.87 -3.92939 -0.834354 0
M  V30 20973 N 1964.07 -2.90589 0.0254882 0
M  V30 20974 H 1963.62 -2.45023 0.795077 0
M  V30 20975 H 1963.58 -3.03158 -0.833236 0
M  V30 20976 N 1967.35 -1.28999 -0.905381 0
M  V30 20977 C 1968.31 -1.13652 -1.99038 0
M  V30 20978 C 1969.31 -0.0736646 -1.60631 0
M  V30 20979 O 1970.5 -0.320139 -1.71233 0
M  V30 20980 C 1967.64 -0.736715 -3.32844 0
M  V30 20981 H 1968.83 -2.10022 -2.14081 0
M  V30 20982 H 1966.38 -1.12104 -1.08915 0
M  V30 20983 H 1967.12 0.227383 -3.23502 0
M  V30 20984 H 1966.9 -1.50459 -3.62084 0
M  V30 20985 H 1968.39 -0.65223 -4.12475 0
M  V30 20986 N 1968.83 1.11497 -1.11383 0
M  V30 20987 C 1970.05 1.87567 -0.885056 0
M  V30 20988 C 1970.48 1.79581 0.559675 0
M  V30 20989 O 1969.84 1.15779 1.39517 0
M  V30 20990 C 1969.89 3.34354 -1.35053 0
M  V30 20991 O 1968.99 4.09085 -0.521865 0
M  V30 20992 H 1968.33 0.582433 -0.318853 0
M  V30 20993 H 1970.86 1.4094 -1.48314 0
M  V30 20994 H 1970.87 3.85201 -1.34478 0
M  V30 20995 H 1969.55 3.39484 -2.40257 0
M  V30 20996 H 1968.12 3.68144 -0.593669 0
M  V30 20997 N 1970.31 0.904053 1.29092 0
M  V30 20998 C 1971.26 0.375028 2.29557 0
M  V30 20999 C 1972.25 -0.528146 1.60956 0
M  V30 21000 O 1973.46 -0.410465 1.75257 0
M  V30 21001 H 1969.83 0.102657 0.74496 0
M  V30 21002 H 1971.8 1.23564 2.71615 0
M  V30 21003 C 1970.55 -0.37845 3.45634 0
M  V30 21004 H 1969.87 0.307303 3.98617 0
M  V30 21005 H 1971.31 -0.713405 4.17955 0
M  V30 21006 C 1969.77 -1.58274 2.97407 0
M  V30 21007 O 1970.3 -2.68199 2.99052 0
M  V30 21008 N 1968.51 -1.4264 2.53184 0
M  V30 21009 H 1968.06 -0.532104 2.52044 0
M  V30 21010 H 1968.01 -2.23348 2.21276 0
M  V30 21011 N 1971.79 -1.4279 0.666995 0
M  V30 21012 C 1973.02 -2.05688 0.193911 0
M  V30 21013 C 1973.42 -1.50159 -1.15103 0
M  V30 21014 O 1972.77 -0.632996 -1.7245 0
M  V30 21015 C 1972.83 -3.59474 0.0431257 0
M  V30 21016 C 1972.49 -4.37656 1.31554 0
M  V30 21017 C 1973.49 -4.6882 2.24731 0
M  V30 21018 C 1971.17 -4.7743 1.56097 0
M  V30 21019 C 1973.17 -5.38683 3.40734 0
M  V30 21020 C 1970.86 -5.47035 2.72389 0
M  V30 21021 C 1971.85 -5.77586 3.64532 0
M  V30 21022 O 1971.54 -6.45765 4.78792 0
M  V30 21023 H 1971.27 -0.66948 0.0936592 0
M  V30 21024 H 1973.83 -1.8405 0.911863 0
M  V30 21025 H 1972.06 -3.79741 -0.730331 0
M  V30 21026 H 1973.75 -4.04031 -0.389081 0
M  V30 21027 H 1974.51 -4.38599 2.07018 0
M  V30 21028 H 1970.39 -4.53049 0.852508 0
M  V30 21029 H 1973.94 -5.62446 4.12674 0
M  V30 21030 H 1969.83 -5.76673 2.90032 0
M  V30 21031 H 1970.6 -6.64254 4.78236 0
M  V30 21032 N 1973.26 -0.409806 -1.52179 0
M  V30 21033 C 1974.49 0.164995 -2.0594 0
M  V30 21034 C 1974.9 1.39354 -1.27973 0
M  V30 21035 O 1974.24 1.80802 -0.324989 0
M  V30 21036 C 1974.31 0.579659 -3.54796 0
M  V30 21037 C 1973.97 -0.538248 -4.53819 0
M  V30 21038 C 1974.97 -1.40203 -5.00639 0
M  V30 21039 C 1972.65 -0.711133 -4.97241 0
M  V30 21040 C 1974.65 -2.42363 -5.89524 0
M  V30 21041 C 1972.33 -1.73605 -5.85922 0
M  V30 21042 C 1973.33 -2.5907 -6.31959 0
M  V30 21043 O 1973.02 -3.59806 -7.18884 0
M  V30 21044 H 1972.75 0.0236196 -0.675587 0
M  V30 21045 H 1975.31 -0.579572 -1.97054 0
M  V30 21046 H 1973.54 1.37652 -3.61371 0
M  V30 21047 H 1975.22 1.08246 -3.912 0
M  V30 21048 H 1975.99 -1.27987 -4.67808 0
M  V30 21049 H 1971.87 -0.0555613 -4.60967 0
M  V30 21050 H 1975.41 -3.09106 -6.25379 0
M  V30 21051 H 1971.31 -1.85851 -6.18166 0
M  V30 21052 H 1972.08 -3.56058 -7.36997 0
M  V30 21053 N 1974.74 1.56975 -0.14025 0
M  V30 21054 C 1975.69 2.17699 0.819153 0
M  V30 21055 C 1976.68 1.13208 1.26017 0
M  V30 21056 O 1977.89 1.31472 1.22944 0
M  V30 21057 H 1974.26 0.696983 0.282345 0
M  V30 21058 H 1976.24 2.97058 0.28273 0
M  V30 21059 C 1974.98 2.80769 2.05096 0
M  V30 21060 H 1974.31 3.60882 1.72058 0
M  V30 21061 H 1975.75 3.26768 2.70183 0
M  V30 21062 C 1974.21 1.7893 2.85457 0
M  V30 21063 O 1974.74 1.25562 3.81572 0
M  V30 21064 N 1972.94 1.48386 2.4986 0
M  V30 21065 H 1972.49 1.91976 1.71765 0
M  V30 21066 H 1972.45 0.804935 3.03921 0
M  V30 21067 N 1976.22 -0.133539 1.57033 0
M  V30 21068 C 1977.64 -0.486622 1.52 0
M  V30 21069 C 1977.84 -1.82653 0.850899 0
M  V30 21070 O 1976.89 -2.48862 0.42709 0
M  V30 21071 C 1978.2 -0.484516 2.96771 0
M  V30 21072 C 1979.75 -0.56909 3.07783 0
M  V30 21073 C 1980.23 -0.597515 4.54086 0
M  V30 21074 N 1981.72 -0.659363 4.58483 0
M  V30 21075 C 1982.45 -0.702564 5.6908 0
M  V30 21076 N 1981.95 -0.704292 6.89211 0
M  V30 21077 N 1983.74 -0.74447 5.57148 0
M  V30 21078 H 1975.89 0.744582 1.98921 0
M  V30 21079 H 1978.16 0.273049 0.907826 0
M  V30 21080 H 1977.86 0.432078 3.49036 0
M  V30 21081 H 1977.74 -1.3176 3.53439 0
M  V30 21082 H 1980.12 -1.4761 2.55529 0
M  V30 21083 H 1980.2 0.291401 2.54135 0
M  V30 21084 H 1979.85 0.305395 5.06981 0
M  V30 21085 H 1979.78 -1.47469 5.0553 0
M  V30 21086 H 1982.27 -0.664781 3.72007 0
M  V30 21087 H 1982.58 -0.739477 7.69254 0
M  V30 21088 H 1980.93 -0.67195 6.91744 0
M  V30 21089 H 1984.12 -0.740383 4.62208 0
M  V30 21090 H 1984.29 -0.774672 6.43353 0
M  V30 21091 N 1977.7 -1.52352 -0.403298 0
M  V30 21092 C 1978.95 -1.65924 -1.14683 0
M  V30 21093 C 1979.26 -0.398212 -1.91504 0
M  V30 21094 O 1980.47 -0.413824 -2.68328 0
M  V30 21095 C 1978.92 -2.9317 -2.08757 0
M  V30 21096 C 1978.53 -4.26402 -1.37425 0
M  V30 21097 C 1980.27 -3.16106 -2.83332 0
M  V30 21098 C 1978.18 -5.44766 -2.30181 0
M  V30 21099 H 1977.11 -0.61811 -0.431805 0
M  V30 21100 H 1979.76 -1.78843 -0.410792 0
M  V30 21101 H 1978.14 -2.73964 -2.85937 0
M  V30 21102 H 1979.32 -4.56111 -0.65569 0
M  V30 21103 H 1977.63 -4.09614 -0.748668 0
M  V30 21104 H 1980.23 -4.01716 -3.52886 0
M  V30 21105 H 1980.57 -2.30581 -3.4661 0
M  V30 21106 H 1981.11 -3.35811 -2.1325 0
M  V30 21107 H 1977.84 -6.32656 -1.71541 0
M  V30 21108 H 1977.36 -5.19388 -2.99993 0
M  V30 21109 H 1979.04 -5.78077 -2.9058 0
M  V30 21110 N 1979.18 0.660885 -1.43074 0
M  V30 21111 C 1980.11 1.78579 -1.50438 0
M  V30 21112 C 1981.09 1.66253 -0.359703 0
M  V30 21113 O 1982.27 1.85465 -0.575893 0
M  V30 21114 C 1979.4 3.16963 -1.41956 0
M  V30 21115 C 1978.36 3.44043 -2.54594 0
M  V30 21116 C 1977.68 4.82147 -2.31166 0
M  V30 21117 C 1978.98 3.3955 -3.96867 0
M  V30 21118 H 1980.68 1.72673 -2.4459 0
M  V30 21119 H 1978.22 0.829317 -1.17721 0
M  V30 21120 H 1980.17 3.95406 -1.45713 0
M  V30 21121 H 1978.9 3.23581 -0.443048 0
M  V30 21122 H 1977.56 2.67969 -2.50177 0
M  V30 21123 H 1977.21 4.85432 -1.31776 0
M  V30 21124 H 1976.91 5.01228 -3.06667 0
M  V30 21125 H 1978.43 5.62857 -2.36695 0
M  V30 21126 H 1979.84 4.0794 -4.02813 0
M  V30 21127 H 1978.24 3.70166 -4.72332 0
M  V30 21128 H 1979.31 2.37868 -4.22548 0
M  V30 21129 N 1980.65 1.29477 0.898527 0
M  V30 21130 C 1981.9 1.17516 1.64913 0
M  V30 21131 C 1982.23 -0.273086 1.92573 0
M  V30 21132 O 1981.48 -1.21353 1.53531 0
M  V30 21133 C 1981.78 1.93505 3.00484 0
M  V30 21134 C 1981.45 3.43216 2.92427 0
M  V30 21135 C 1980.11 3.84044 2.89937 0
M  V30 21136 C 1982.46 4.38611 2.81548 0
M  V30 21137 C 1979.79 5.18582 2.74389 0
M  V30 21138 C 1982.14 5.73241 2.67539 0
M  V30 21139 C 1980.81 6.13326 2.63416 0
M  V30 21140 H 1980.08 0.430023 0.603458 0
M  V30 21141 H 1982.72 1.60427 1.04572 0
M  V30 21142 H 1981.03 1.43189 3.64698 0
M  V30 21143 H 1982.73 1.81654 3.57495 0
M  V30 21144 H 1979.32 3.10763 2.95168 0
M  V30 21145 H 1983.5 4.0802 2.82548 0
M  V30 21146 H 1978.76 5.48748 2.69602 0
M  V30 21147 H 1982.93 6.46808 2.58093 0
M  V30 21148 H 1980.56 7.17523 2.51126 0
M  V30 21149 N 1982.13 -1.10905 1.11972 0
M  V30 21150 C 1983.04 -2.20682 0.796029 0
M  V30 21151 C 1984.06 -1.72689 -0.213158 0
M  V30 21152 O 1985.23 -2.01343 -0.047955 0
M  V30 21153 C 1982.3 -3.45797 0.250055 0
M  V30 21154 C 1981.36 -4.08549 1.31855 0
M  V30 21155 C 1980.59 -5.27692 0.798538 0
M  V30 21156 O 1980.82 -5.69202 -0.369435 0
M  V30 21157 O 1979.75 -5.81174 1.5659 0
M  V30 21158 H 1983.58 -2.50794 1.71278 0
M  V30 21159 H 1981.16 -1.19548 0.896024 0
M  V30 21160 H 1983.04 -4.21371 -0.0497791 0
M  V30 21161 H 1981.72 -3.17324 -0.639327 0
M  V30 21162 H 1980.63 -3.34682 1.67148 0
M  V30 21163 H 1981.96 -4.41215 2.18153 0
M  V30 21164 N 1983.61 -0.910886 -1.2861 0
M  V30 21165 C 1984.52 -0.402088 -2.31129 0
M  V30 21166 C 1985.54 0.508811 -1.66394 0
M  V30 21167 O 1986.71 0.395691 -1.97475 0
M  V30 21168 C 1983.78 0.352182 -3.44907 0
M  V30 21169 C 1982.84 -0.59159 -4.25204 0
M  V30 21170 C 1982.07 0.126778 -5.33549 0
M  V30 21171 O 1982.29 1.34897 -5.54219 0
M  V30 21172 O 1981.23 -0.536442 -5.99505 0
M  V30 21173 H 1985.05 -1.25289 -2.76652 0
M  V30 21174 H 1982.64 -0.675604 -1.33251 0
M  V30 21175 H 1984.52 0.778285 -4.14151 0
M  V30 21176 H 1983.2 1.17886 -3.01471 0
M  V30 21177 H 1982.1 -1.06703 -3.5856 0
M  V30 21178 H 1983.44 -1.38501 -4.72312 0
M  V30 21179 N 1985.09 1.42434 -0.674558 0
M  V30 21180 C 1986.02 2.2916 0.0428589 0
M  V30 21181 C 1987.03 1.43667 0.765749 0
M  V30 21182 O 1988.22 1.67388 0.619947 0
M  V30 21183 C 1985.32 3.21083 1.08439 0
M  V30 21184 C 1984.5 4.35228 0.435368 0
M  V30 21185 C 1983.55 5.07873 1.37665 0
M  V30 21186 O 1982.58 5.62402 0.877047 0
M  V30 21187 N 1983.78 5.13364 2.70994 0
M  V30 21188 H 1986.55 2.91372 -0.701618 0
M  V30 21189 H 1984.11 1.53357 -0.518954 0
M  V30 21190 H 1986.1 3.66548 1.71535 0
M  V30 21191 H 1984.67 2.60324 1.7306 0
M  V30 21192 H 1983.89 3.92411 -0.375103 0
M  V30 21193 H 1985.18 5.08797 -0.0167882 0
M  V30 21194 H 1984.58 4.70472 3.14122 0
M  V30 21195 H 1983.13 5.62476 3.29338 0
M  V30 21196 N 1986.57 0.417871 1.51959 0
M  V30 21197 C 1987.79 -0.156736 2.06807 0
M  V30 21198 C 1988.22 -1.37354 1.28512 0
M  V30 21199 O 1987.57 -1.78494 0.317715 0
M  V30 21200 C 1987.62 -0.476913 3.57432 0
M  V30 21201 O 1986.73 -1.56654 3.81488 0
M  V30 21202 H 1986.07 -0.0103873 0.663919 0
M  V30 21203 H 1988.6 0.593593 1.958 0
M  V30 21204 H 1988.61 -0.733026 4.01361 0
M  V30 21205 H 1987.28 0.412542 4.13849 0
M  V30 21206 H 1985.86 -1.30191 3.49435 0
M  V30 21207 N 1988.04 -1.56898 0.148573 0
M  V30 21208 C 1988.95 -2.2041 -0.80353 0
M  V30 21209 C 1989.97 -1.18886 -1.27052 0
M  V30 21210 O 1991.15 -1.51468 -1.32738 0
M  V30 21211 C 1988.21 -2.81447 -2.02456 0
M  V30 21212 C 1987.27 -3.98102 -1.60665 0
M  V30 21213 C 1986.51 -4.56219 -2.76948 0
M  V30 21214 O 1986.73 -4.13215 -3.93204 0
M  V30 21215 O 1985.66 -5.46455 -2.52329 0
M  V30 21216 H 1989.49 -3.02284 -0.292881 0
M  V30 21217 H 1987.07 -1.49193 -0.0785299 0
M  V30 21218 H 1988.96 -3.20235 -2.73911 0
M  V30 21219 H 1987.63 -2.02585 -2.5247 0
M  V30 21220 H 1986.54 -3.64027 -0.862287 0
M  V30 21221 H 1987.87 -4.78489 -1.15365 0
M  V30 21222 N 1989.52 0.125209 -1.57102 0
M  V30 21223 C 1990.75 0.847206 -1.8843 0
M  V30 21224 C 1991.16 1.74245 -0.737241 0
M  V30 21225 O 1990.5 1.81213 0.301252 0
M  V30 21226 C 1990.57 1.73781 -3.14707 0
M  V30 21227 C 1990.23 1.01751 -4.45529 0
M  V30 21228 C 1991.23 0.361203 -5.18644 0
M  V30 21229 C 1988.91 1.00053 -4.92234 0
M  V30 21230 C 1990.91 -0.302451 -6.36682 0
M  V30 21231 C 1988.59 0.333077 -6.10192 0
M  V30 21232 C 1989.59 -0.317266 -6.82263 0
M  V30 21233 O 1989.28 -0.974086 -7.97977 0
M  V30 21234 H 1989.01 0.249192 -0.628394 0
M  V30 21235 H 1991.56 0.116054 -2.05072 0
M  V30 21236 H 1989.79 2.51045 -2.94131 0
M  V30 21237 H 1991.48 2.33368 -3.32105 0
M  V30 21238 H 1992.25 0.365979 -4.83617 0
M  V30 21239 H 1988.13 1.49616 -4.36046 0
M  V30 21240 H 1991.67 -0.810649 -6.92874 0
M  V30 21241 H 1987.57 0.326042 -6.44676 0
M  V30 21242 H 1988.34 -0.877938 -8.13778 0
M  V30 21243 N 1991 1.52564 0.395213 0
M  V30 21244 C 1992.25 1.67305 1.14085 0
M  V30 21245 C 1992.58 0.409869 1.90132 0
M  V30 21246 O 1991.83 -0.607574 1.8603 0
M  V30 21247 C 1992.13 2.85496 2.15004 0
M  V30 21248 C 1991.8 4.23179 1.55661 0
M  V30 21249 C 1990.46 4.60626 1.39202 0
M  V30 21250 C 1992.81 5.08923 1.12457 0
M  V30 21251 C 1990.14 5.81482 0.780775 0
M  V30 21252 C 1992.49 6.30397 0.527451 0
M  V30 21253 C 1991.15 6.66581 0.350111 0
M  V30 21254 H 1990.42 0.612211 0.417467 0
M  V30 21255 H 1993.07 1.86695 0.426269 0
M  V30 21256 H 1991.38 2.60496 2.92658 0
M  V30 21257 H 1993.07 2.94096 2.72595 0
M  V30 21258 H 1989.66 3.93678 1.69457 0
M  V30 21259 H 1993.85 4.80566 1.23976 0
M  V30 21260 H 1989.1 6.0813 0.631518 0
M  V30 21261 H 1993.28 6.96156 0.184351 0
M  V30 21262 H 1990.9 7.60096 -0.125616 0
M  V30 21263 N 1992.48 -0.653289 1.43422 0
M  V30 21264 C 1993.39 -1.79526 1.51022 0
M  V30 21265 C 1994.4 -1.69403 0.39732 0
M  V30 21266 O 1995.58 -1.90574 0.651437 0
M  V30 21267 C 1992.65 -3.15803 1.43071 0
M  V30 21268 C 1991.71 -3.37723 2.65031 0
M  V30 21269 C 1990.94 -4.67499 2.5745 0
M  V30 21270 O 1991.16 -5.46846 1.6222 0
M  V30 21271 O 1990.1 -4.91137 3.47948 0
M  V30 21272 H 1993.92 -1.76069 2.47454 0
M  V30 21273 H 1991.51 -0.81176 1.25423 0
M  V30 21274 H 1993.39 -3.97083 1.41079 0
M  V30 21275 H 1992.06 -3.1985 0.497738 0
M  V30 21276 H 1990.97 -2.56208 2.72595 0
M  V30 21277 H 1992.3 -3.38523 3.573 0
M  V30 21278 N 1993.96 -1.29952 -0.891648 0
M  V30 21279 C 1994.89 -1.10092 -1.99887 0
M  V30 21280 C 1995.87 -0.0104614 -1.62597 0
M  V30 21281 O 1997.05 -0.162725 -1.87796 0
M  V30 21282 C 1994.18 -0.677652 -3.31852 0
M  V30 21283 C 1993.22 -1.768 -3.88129 0
M  V30 21284 S 1994.06 -3.36899 -4.16244 0
M  V30 21285 C 1995.21 -2.96459 -5.51237 0
M  V30 21286 H 1995.45 -2.0383 -2.16427 0
M  V30 21287 H 1992.98 -1.1419 -1.03923 0
M  V30 21288 H 1994.94 -0.440168 -4.08133 0
M  V30 21289 H 1993.6 0.240259 -3.1318 0
M  V30 21290 H 1992.79 -1.42397 -4.83466 0
M  V30 21291 H 1992.39 -1.95942 -3.18564 0
M  V30 21292 H 1994.69 -2.44005 -6.32035 0
M  V30 21293 H 1995.63 -3.90678 -5.90573 0
M  V30 21294 H 1996.04 -2.3452 -5.13479 0
M  V30 21295 N 1995.44 1.1031 -1.12559 0
M  V30 21296 C 1996.37 2.18738 -0.817073 0
M  V30 21297 C 1997.35 1.68675 0.219681 0
M  V30 21298 O 1998.53 1.94033 0.0805889 0
M  V30 21299 C 1995.66 3.46231 -0.272317 0
M  V30 21300 C 1994.62 4.09575 -1.24228 0
M  V30 21301 C 1993.94 5.31784 -0.557693 0
M  V30 21302 C 1995.24 4.53135 -2.59743 0
M  V30 21303 H 1996.94 2.44802 -1.72372 0
M  V30 21304 H 1994.48 1.17658 -0.830221 0
M  V30 21305 H 1996.43 4.21377 -0.0442049 0
M  V30 21306 H 1995.16 3.19661 0.669677 0
M  V30 21307 H 1993.82 3.36437 -1.45622 0
M  V30 21308 H 1993.47 5.0149 0.389484 0
M  V30 21309 H 1993.17 5.75117 -1.20473 0
M  V30 21310 H 1994.69 6.0966 -0.338649 0
M  V30 21311 H 1996.1 5.19548 -2.42369 0
M  V30 21312 H 1994.5 5.07322 -3.20537 0
M  V30 21313 H 1995.57 3.65989 -3.18088 0
M  V30 21314 N 1996.91 0.917694 1.28125 0
M  V30 21315 C 1998.33 0.616431 1.47215 0
M  V30 21316 C 1998.53 -0.837161 1.83286 0
M  V30 21317 O 1997.59 -1.61591 1.94022 0
M  V30 21318 C 1998.9 1.55772 2.57207 0
M  V30 21319 C 2000.45 1.56486 2.71074 0
M  V30 21320 C 2000.92 2.49286 3.84214 0
M  V30 21321 N 2002.41 2.47436 3.91573 0
M  V30 21322 C 2003.15 3.15936 4.7851 0
M  V30 21323 N 2002.64 3.9378 5.70008 0
M  V30 21324 N 2004.44 3.05004 4.72154 0
M  V30 21325 H 1996.59 1.85758 1.02993 0
M  V30 21326 H 1998.85 0.796969 0.513366 0
M  V30 21327 H 1998.56 2.59423 2.37471 0
M  V30 21328 H 1998.43 1.2918 3.5439 0
M  V30 21329 H 2000.82 0.535708 2.90197 0
M  V30 21330 H 2000.9 1.87122 1.7441 0
M  V30 21331 H 2000.54 3.52306 3.65846 0
M  V30 21332 H 2000.47 2.1595 4.80284 0
M  V30 21333 H 2002.96 1.90893 3.26141 0
M  V30 21334 H 2003.28 4.43058 6.33182 0
M  V30 21335 H 2001.62 3.97885 5.69836 0
M  V30 21336 H 2004.81 2.4369 3.99666 0
M  V30 21337 H 2004.99 3.5866 5.39691 0
M  V30 21338 N 1998.39 -1.42074 0.682102 0
M  V30 21339 C 1999.62 -2.05471 0.215716 0
M  V30 21340 C 2000.03 -1.51372 -1.13504 0
M  V30 21341 O 1999.37 -0.651251 -1.71768 0
M  V30 21342 C 1999.43 -3.59408 0.0812503 0
M  V30 21343 C 1999.1 -4.36236 1.36189 0
M  V30 21344 C 2000.1 -4.6641 2.29691 0
M  V30 21345 C 1997.78 -4.75747 1.61152 0
M  V30 21346 C 1999.77 -5.35039 3.46428 0
M  V30 21347 C 1997.46 -5.44115 2.78176 0
M  V30 21348 C 1998.46 -5.73687 3.70638 0
M  V30 21349 O 1998.15 -6.40651 4.85615 0
M  V30 21350 H 1997.88 -0.668449 0.100755 0
M  V30 21351 H 2000.43 -1.83072 0.931332 0
M  V30 21352 H 1998.66 -3.80494 -0.690014 0
M  V30 21353 H 2000.35 -4.04421 -0.346206 0
M  V30 21354 H 2001.12 -4.36378 2.11658 0
M  V30 21355 H 1997 -4.52119 0.900512 0
M  V30 21356 H 2000.54 -5.58037 4.18617 0
M  V30 21357 H 1996.44 -5.73565 2.96132 0
M  V30 21358 H 1997.21 -6.59144 4.85254 0
M  V30 21359 N 1999.87 -0.425924 -1.51735 0
M  V30 21360 C 2001.12 0.144557 -2.02284 0
M  V30 21361 C 2001.45 1.43351 -1.31012 0
M  V30 21362 O 2000.72 1.89877 -0.421524 0
M  V30 21363 C 2001.01 0.37505 -3.58142 0
M  V30 21364 C 2000.86 -0.931753 -4.40044 0
M  V30 21365 C 2002.18 1.14986 -4.24813 0
M  V30 21366 H 1999.3 0.0510632 -0.735229 0
M  V30 21367 H 2001.94 -0.562685 -1.81477 0
M  V30 21368 H 2000.09 0.977495 -3.76002 0
M  V30 21369 H 2001.76 -1.5673 -4.33859 0
M  V30 21370 H 2000 -1.53896 -4.05584 0
M  V30 21371 H 2000.68 -0.724661 -5.47223 0
M  V30 21372 H 2003.15 0.639666 -4.11154 0
M  V30 21373 H 2002.03 1.27989 -5.3377 0
M  V30 21374 H 2002.29 2.17496 -3.849 0
M  V30 21375 N 2001.35 1.56817 -0.156891 0
M  V30 21376 C 2002.26 2.20833 0.79183 0
M  V30 21377 C 2003.27 1.19558 1.26419 0
M  V30 21378 O 2004.45 1.5217 1.31933 0
M  V30 21379 C 2001.51 2.82517 2.00961 0
M  V30 21380 C 2000.58 3.98948 1.58552 0
M  V30 21381 C 1999.81 4.57681 2.74525 0
M  V30 21382 O 2000.03 4.15295 3.91007 0
M  V30 21383 O 1998.97 5.47786 2.49428 0
M  V30 21384 H 2002.79 3.02436 0.276846 0
M  V30 21385 H 2000.38 1.49233 0.0706167 0
M  V30 21386 H 2002.26 3.21683 2.72209 0
M  V30 21387 H 2000.93 2.03921 2.51392 0
M  V30 21388 H 1999.84 3.64479 0.84297 0
M  V30 21389 H 2001.17 4.79094 1.12826 0
M  V30 21390 N 2002.83 -0.116876 1.57166 0
M  V30 21391 C 2004.07 -0.830154 1.86783 0
M  V30 21392 C 2004.43 -1.76951 0.74515 0
M  V30 21393 O 2005.63 -2.52451 0.923144 0
M  V30 21394 C 2003.9 -1.55852 3.21629 0
M  V30 21395 S 2005.46 -2.31308 3.72884 0
M  V30 21396 H 2002.28 -0.277026 0.654811 0
M  V30 21397 H 2004.88 -0.0883909 1.953 0
M  V30 21398 H 2003.58 -0.860448 4.01279 0
M  V30 21399 H 2003.12 -2.34061 3.16194 0
M  V30 21400 H 2005.13 -3.57066 3.44555 0
M  V30 21401 N 2004.3 -1.52772 -0.387116 0
M  V30 21402 C 2005.53 -1.71538 -1.15145 0
M  V30 21403 C 2005.94 -0.434325 -1.84147 0
M  V30 21404 O 2005.28 0.60113 -1.73586 0
M  V30 21405 C 2005.35 -2.81074 -2.24137 0
M  V30 21406 C 2005.01 -4.2213 -1.75086 0
M  V30 21407 C 2006.01 -5.05224 -1.22658 0
M  V30 21408 C 2003.69 -4.68458 -1.81252 0
M  V30 21409 C 2005.69 -6.32726 -0.770461 0
M  V30 21410 C 2003.37 -5.95945 -1.35251 0
M  V30 21411 C 2004.37 -6.77909 -0.832359 0
M  V30 21412 O 2004.06 -8.03006 -0.379074 0
M  V30 21413 H 2003.79 -0.577655 -0.351128 0
M  V30 21414 H 2006.35 -2.00215 -0.458605 0
M  V30 21415 H 2004.58 -2.47822 -2.96852 0
M  V30 21416 H 2006.26 -2.88225 -2.85799 0
M  V30 21417 H 2007.03 -4.70614 -1.1725 0
M  V30 21418 H 2002.91 -4.04748 -2.2068 0
M  V30 21419 H 2006.45 -6.96651 -0.363786 0
M  V30 21420 H 2002.35 -6.30058 -1.40345 0
M  V30 21421 H 2003.12 -8.16969 -0.500379 0
M  V30 21422 N 2005.78 0.645673 -1.43767 0
M  V30 21423 C 2006.74 1.74013 -1.49171 0
M  V30 21424 C 2007.74 1.56355 -0.375476 0
M  V30 21425 O 2008.93 1.62115 -0.637529 0
M  V30 21426 C 2006.07 3.12961 -1.3516 0
M  V30 21427 H 2007.26 1.706 -2.46649 0
M  V30 21428 H 2004.81 0.858019 -1.30643 0
M  V30 21429 H 2005.55 3.2198 -0.387199 0
M  V30 21430 H 2005.33 3.27184 -2.16086 0
M  V30 21431 H 2006.82 3.92755 -1.41891 0
M  V30 21432 N 2007.26 1.30423 0.884744 0
M  V30 21433 C 2008.21 1.1673 2.01188 0
M  V30 21434 C 2009.2 0.0791439 1.69215 0
M  V30 21435 O 2010.41 0.24001 1.78393 0
M  V30 21436 H 2006.78 0.361014 0.659676 0
M  V30 21437 H 2008.75 2.12124 2.09871 0
M  V30 21438 C 2007.5 0.876173 3.3648 0
M  V30 21439 H 2006.83 1.70557 3.61594 0
M  V30 21440 H 2008.27 0.820477 4.15986 0
M  V30 21441 C 2006.72 -0.420908 3.3426 0
M  V30 21442 O 2007.25 -1.44235 3.74912 0
M  V30 21443 N 2005.46 -0.432149 2.87369 0
M  V30 21444 H 2005.01 0.399559 2.54482 0
M  V30 21445 H 2004.97 -1.29995 2.86267 0
M  V30 21446 N 2008.74 -1.09711 1.13142 0
M  V30 21447 C 2009.99 -1.81198 0.886021 0
M  V30 21448 C 2010.3 -1.86501 -0.589624 0
M  V30 21449 O 2011.51 -2.54267 -0.951866 0
M  V30 21450 C 2009.96 -3.25498 1.53554 0
M  V30 21451 C 2009.57 -3.2847 3.0465 0
M  V30 21452 C 2011.31 -4.01761 1.37072 0
M  V30 21453 C 2009.22 -4.67276 3.62501 0
M  V30 21454 H 2008.15 -0.679005 0.327824 0
M  V30 21455 H 2010.8 -1.23325 1.35879 0
M  V30 21456 H 2009.18 -3.83414 0.990434 0
M  V30 21457 H 2010.36 -2.80336 3.65716 0
M  V30 21458 H 2008.67 -2.65697 3.20615 0
M  V30 21459 H 2011.27 -5.04306 1.77707 0
M  V30 21460 H 2011.61 -4.15105 0.315226 0
M  V30 21461 H 2012.15 -3.50279 1.88545 0
M  V30 21462 H 2008.88 -4.59133 4.67843 0
M  V30 21463 H 2008.4 -5.15746 3.06212 0
M  V30 21464 H 2010.08 -5.36249 3.62002 0
M  V30 21465 N 2010.22 -0.924476 -1.27637 0
M  V30 21466 C 2011.15 -0.438348 -2.29349 0
M  V30 21467 C 2012.13 0.499673 -1.62595 0
M  V30 21468 O 2013.31 0.405114 -1.89928 0
M  V30 21469 C 2010.44 0.312668 -3.4589 0
M  V30 21470 C 2009.4 -0.537216 -4.24615 0
M  V30 21471 C 2008.72 0.342776 -5.336 0
M  V30 21472 C 2010.02 -1.80003 -4.90302 0
M  V30 21473 H 2011.72 -1.28838 -2.70261 0
M  V30 21474 H 2009.26 -0.620964 -1.29923 0
M  V30 21475 H 2011.22 0.66367 -4.16141 0
M  V30 21476 H 2009.94 1.1967 -3.03886 0
M  V30 21477 H 2008.6 -0.870883 -3.56106 0
M  V30 21478 H 2008.25 1.22567 -4.87838 0
M  V30 21479 H 2007.95 -0.222352 -5.87179 0
M  V30 21480 H 2009.47 0.689422 -6.06695 0
M  V30 21481 H 2010.88 -1.51729 -5.52857 0
M  V30 21482 H 2009.28 -2.3084 -5.53925 0
M  V30 21483 H 2010.35 -2.52148 -4.14186 0
M  V30 21484 N 2011.69 1.41711 -0.689627 0
M  V30 21485 C 2012.64 2.30791 -0.020555 0
M  V30 21486 C 2013.61 1.46782 0.777447 0
M  V30 21487 O 2014.8 1.75582 0.746688 0
M  V30 21488 C 2011.94 3.32772 0.914149 0
M  V30 21489 C 2011.05 4.31864 0.108394 0
M  V30 21490 C 2010.18 5.20916 1.0402 0
M  V30 21491 C 2009.22 6.11679 0.227 0
M  V30 21492 N 2008.36 6.93233 1.11229 0
M  V30 21493 H 2013.2 2.87448 -0.78597 0
M  V30 21494 H 2010.74 1.41576 -0.399313 0
M  V30 21495 H 2012.7 3.90442 1.47005 0
M  V30 21496 H 2011.33 2.77679 1.64603 0
M  V30 21497 H 2010.38 3.7619 -0.564348 0
M  V30 21498 H 2011.69 4.96058 -0.522312 0
M  V30 21499 H 2010.84 5.83391 1.66553 0
M  V30 21500 H 2009.58 4.56934 1.70477 0
M  V30 21501 H 2008.59 5.48258 -0.411449 0
M  V30 21502 H 2009.81 6.77714 -0.433691 0
M  V30 21503 H 2007.76 6.31866 1.76299 0
M  V30 21504 H 2007.68 7.5409 0.537017 0
M  V30 21505 H 2008.94 7.60182 1.72463 0
M  V30 21506 N 2013.17 0.433965 1.51507 0
M  V30 21507 C 2014.45 -0.193401 1.94642 0
M  V30 21508 C 2014.83 -1.60398 1.37243 0
M  V30 21509 O 2014.18 -2.21579 0.558139 0
M  V30 21510 C 2014.39 -0.174558 3.48563 0
M  V30 21511 C 2015.74 -0.381783 4.2288 0
M  V30 21512 O 2016.76 -0.252823 3.55302 0
M  V30 21513 O 2015.62 -0.638151 5.42761 0
M  V30 21514 H 2012.71 -0.131787 0.816432 0
M  V30 21515 H 2015.26 0.491701 1.6242 0
M  V30 21516 H 2014.03 0.811732 3.82788 0
M  V30 21517 H 2013.65 -0.902712 3.87217 0
M  V30 21518 N 2014.65 -1.56732 0.165206 0
M  V30 21519 C 2015.88 -2.01069 -0.487749 0
M  V30 21520 C 2016.29 -1.04541 -1.57215 0
M  V30 21521 O 2015.65 -0.0452829 -1.82444 0
M  V30 21522 C 2015.7 -3.45249 -1.07169 0
M  V30 21523 O 2015.42 -4.38089 -0.0305845 0
M  V30 21524 C 2016.92 -4.04956 -1.80348 0
M  V30 21525 H 2014.14 -0.659179 -0.125394 0
M  V30 21526 H 2016.69 -2.02774 0.26514 0
M  V30 21527 H 2014.84 -3.44338 -1.77511 0
M  V30 21528 H 2015.26 -5.22471 -0.460866 0
M  V30 21529 H 2016.73 -5.07783 -2.16474 0
M  V30 21530 H 2017.21 -3.467 -2.69621 0
M  V30 21531 H 2017.81 -4.09552 -1.14662 0
M  V30 21532 N 2016.13 0.10854 -1.57226 0
M  V30 21533 C 2017.37 0.820237 -1.8722 0
M  V30 21534 C 2017.73 1.76553 -0.754524 0
M  V30 21535 O 2018.93 2.51958 -0.936519 0
M  V30 21536 C 2017.2 1.54144 -3.22451 0
M  V30 21537 S 2018.76 2.29327 -3.74105 0
M  V30 21538 H 2015.58 0.273549 -0.656271 0
M  V30 21539 H 2018.18 0.0780325 -1.95344 0
M  V30 21540 H 2016.89 0.839156 -4.01729 0
M  V30 21541 H 2016.42 2.32381 -3.17431 0
M  V30 21542 H 2018.43 3.55234 -3.46444 0
M  V30 21543 N 2017.61 1.52975 0.379009 0
M  V30 21544 C 2019.02 1.42448 0.719772 0
M  V30 21545 C 2019.22 0.552842 1.93768 0
M  V30 21546 O 2018.28 0.0301168 2.52482 0
M  V30 21547 C 2019.59 2.85448 0.945527 0
M  V30 21548 C 2021.14 2.94991 1.04638 0
M  V30 21549 C 2021.61 4.39024 1.30469 0
M  V30 21550 N 2023.11 4.42393 1.37269 0
M  V30 21551 C 2023.84 5.50931 1.58941 0
M  V30 21552 N 2023.34 6.69538 1.78017 0
M  V30 21553 N 2025.13 5.38489 1.61202 0
M  V30 21554 H 2017.28 2.08161 -0.422247 0
M  V30 21555 H 2019.54 0.939485 -0.126776 0
M  V30 21556 H 2019.25 3.51486 0.122608 0
M  V30 21557 H 2019.12 3.28299 1.85741 0
M  V30 21558 H 2021.51 2.29115 1.85985 0
M  V30 21559 H 2021.59 2.55554 0.11218 0
M  V30 21560 H 2021.24 5.0547 0.496281 0
M  V30 21561 H 2021.17 4.76022 2.2519 0
M  V30 21562 H 2023.66 3.56909 1.24195 0
M  V30 21563 H 2023.97 7.4803 1.94089 0
M  V30 21564 H 2022.31 6.72549 1.75222 0
M  V30 21565 H 2025.51 4.44796 1.45856 0
M  V30 21566 H 2025.68 6.23144 1.77751 0
M  V30 21567 N 2019.08 -0.63804 1.44107 0
M  V30 21568 C 2020.33 -1.39772 1.46526 0
M  V30 21569 C 2020.66 -1.94267 0.0952359 0
M  V30 21570 O 2019.91 -1.73674 -0.901993 0
M  V30 21571 C 2020.21 -2.58567 2.46734 0
M  V30 21572 C 2019.88 -2.22403 3.92234 0
M  V30 21573 C 2018.54 -2.12252 4.31859 0
M  V30 21574 C 2020.89 -1.93717 4.83863 0
M  V30 21575 C 2018.22 -1.71594 5.61046 0
M  V30 21576 C 2020.57 -1.54553 6.1343 0
M  V30 21577 C 2019.24 -1.42939 6.52016 0
M  V30 21578 H 2018.51 -0.511463 0.536177 0
M  V30 21579 H 2021.15 -0.724184 1.77279 0
M  V30 21580 H 2019.46 -3.31123 2.0944 0
M  V30 21581 H 2021.16 -3.16791 2.45855 0
M  V30 21582 H 2017.75 -2.31219 3.60882 0
M  V30 21583 H 2021.93 -2.00472 4.5401 0
M  V30 21584 H 2017.19 -1.612 5.89766 0
M  V30 21585 H 2021.36 -1.31393 6.83892 0
M  V30 21586 H 2018.99 -1.11206 7.52022 0
M  V30 21587 N 2020.56 -1.3089 -0.877815 0
M  V30 21588 C 2021.81 -1.19888 -1.627 0
M  V30 21589 C 2022.13 0.244972 -1.93455 0
M  V30 21590 O 2021.4 1.16355 -1.57602 0
M  V30 21591 H 2019.98 -0.440719 -0.603138 0
M  V30 21592 H 2022.64 -1.64112 -1.05134 0
M  V30 21593 H 2021.74 -1.76493 -2.57404 0
M  V30 21594 N 2022.04 1.0911 -1.13723 0
M  V30 21595 C 2023.29 1.81621 -0.902319 0
M  V30 21596 C 2023.62 1.85646 0.570009 0
M  V30 21597 O 2022.89 1.32706 1.42195 0
M  V30 21598 C 2023.18 3.27604 -1.49492 0
M  V30 21599 C 2023.03 3.3183 -3.03659 0
M  V30 21600 C 2024.35 4.24378 -1.16581 0
M  V30 21601 H 2021.47 0.659374 -0.329233 0
M  V30 21602 H 2024.11 1.27792 -1.40603 0
M  V30 21603 H 2022.26 3.73574 -1.06653 0
M  V30 21604 H 2023.93 2.94239 -3.55276 0
M  V30 21605 H 2022.18 2.71317 -3.38481 0
M  V30 21606 H 2022.85 4.34686 -3.40224 0
M  V30 21607 H 2025.32 3.8671 -1.53604 0
M  V30 21608 H 2024.2 5.24853 -1.60688 0
M  V30 21609 H 2024.46 4.42028 -0.0800013 0
M  V30 21610 N 2023.52 0.931232 1.27145 0
M  V30 21611 C 2024.74 0.589393 1.98849 0
M  V30 21612 C 2025.17 -0.82637 1.68976 0
M  V30 21613 O 2024.53 -1.55507 0.93205 0
M  V30 21614 C 2024.57 0.826135 3.51009 0
M  V30 21615 O 2023.68 -0.106581 4.12262 0
M  V30 21616 H 2023.02 0.226532 0.624163 0
M  V30 21617 H 2025.55 1.25145 1.61864 0
M  V30 21618 H 2025.56 0.743094 4.01176 0
M  V30 21619 H 2024.23 1.85812 3.72084 0
M  V30 21620 H 2022.81 0.0266735 3.7289 0
M  V30 21621 N 2025 -1.41343 0.697132 0
M  V30 21622 C 2025.96 -2.29162 0.0417336 0
M  V30 21623 C 2026.96 -1.44455 -0.706353 0
M  V30 21624 O 2028.15 -1.65586 -0.54101 0
M  V30 21625 C 2025.28 -3.2736 -0.951235 0
M  V30 21626 H 2026.48 -2.88614 0.814974 0
M  V30 21627 H 2024.03 -1.49356 0.460717 0
M  V30 21628 H 2024.76 -2.7289 -1.75218 0
M  V30 21629 H 2024.55 -3.89866 -0.417931 0
M  V30 21630 H 2026.04 -3.93164 -1.40756 0
M  V30 21631 N 2026.48 -0.441993 -1.51275 0
M  V30 21632 C 2027.75 0.183076 -1.94741 0
M  V30 21633 C 2028.13 1.59668 -1.38092 0
M  V30 21634 O 2027.48 2.21279 -0.569882 0
M  V30 21635 C 2027.69 0.156071 -3.48651 0
M  V30 21636 C 2029.04 0.359351 -4.23077 0
M  V30 21637 O 2030.06 0.233977 -3.55431 0
M  V30 21638 O 2028.92 0.609358 -5.43092 0
M  V30 21639 H 2026.02 0.127455 -0.817119 0
M  V30 21640 H 2028.56 -0.500307 -1.62157 0
M  V30 21641 H 2027.33 -0.832021 -3.82352 0
M  V30 21642 H 2026.96 0.882165 -3.8769 0
M  V30 21643 N 2027.95 1.56642 -0.173515 0
M  V30 21644 C 2029.18 2.01033 0.476387 0
M  V30 21645 C 2029.59 1.05282 1.57202 0
M  V30 21646 O 2028.93 0.0461376 1.83642 0
M  V30 21647 C 2029 3.41847 1.11269 0
M  V30 21648 C 2028.66 4.56725 0.158447 0
M  V30 21649 C 2029.66 5.16141 -0.624046 0
M  V30 21650 C 2027.34 5.02271 0.0536344 0
M  V30 21651 C 2029.34 6.19534 -1.49853 0
M  V30 21652 C 2027.02 6.05513 -0.824431 0
M  V30 21653 C 2028.02 6.64016 -1.5991 0
M  V30 21654 O 2027.71 7.65256 -2.46249 0
M  V30 21655 H 2027.44 0.66413 0.126127 0
M  V30 21656 H 2030 2.03577 -0.273033 0
M  V30 21657 H 2028.23 3.36222 1.91028 0
M  V30 21658 H 2029.91 3.70178 1.66502 0
M  V30 21659 H 2030.68 4.81834 -0.553255 0
M  V30 21660 H 2026.56 4.56446 0.646388 0
M  V30 21661 H 2030.1 6.65126 -2.10364 0
M  V30 21662 H 2026 6.39245 -0.896417 0
M  V30 21663 H 2026.77 7.82588 -2.39788 0
M  V30 21664 N 2029.43 -0.1002 1.57281 0
M  V30 21665 C 2030.36 -1.12278 2.04734 0
M  V30 21666 C 2031.34 -1.42079 0.935281 0
M  V30 21667 O 2032.53 -1.52197 1.20622 0
M  V30 21668 C 2029.66 -2.44402 2.46748 0
M  V30 21669 C 2028.61 -2.29021 3.61571 0
M  V30 21670 C 2027.94 -3.66276 3.89545 0
M  V30 21671 C 2029.24 -1.73501 4.9264 0
M  V30 21672 H 2030.93 -0.728019 2.90414 0
M  V30 21673 H 2028.48 -0.348753 1.39713 0
M  V30 21674 H 2030.43 -3.16206 2.78553 0
M  V30 21675 H 2029.15 -2.85804 1.58061 0
M  V30 21676 H 2027.81 -1.59664 3.30005 0
M  V30 21677 H 2027.46 -4.05197 2.98034 0
M  V30 21678 H 2027.16 -3.56833 4.66845 0
M  V30 21679 H 2028.69 -4.39555 4.2382 0
M  V30 21680 H 2030.1 -2.35141 5.22859 0
M  V30 21681 H 2028.5 -1.7483 5.74068 0
M  V30 21682 H 2029.57 -0.69403 4.79908 0
M  V30 21683 N 2030.91 -1.53174 -0.370891 0
M  V30 21684 C 2031.86 -1.79236 -1.45406 0
M  V30 21685 C 2032.83 -0.636453 -1.53423 0
M  V30 21686 O 2034.01 -0.878079 -1.69394 0
M  V30 21687 C 2031.15 -1.98327 -2.82419 0
M  V30 21688 C 2030.26 -3.2604 -2.83411 0
M  V30 21689 C 2029.4 -3.35348 -4.11965 0
M  V30 21690 C 2028.44 -4.57114 -4.07079 0
M  V30 21691 N 2027.58 -4.63603 -5.27272 0
M  V30 21692 H 2032.42 -2.71666 -1.22482 0
M  V30 21693 H 2029.95 -1.3458 -0.593853 0
M  V30 21694 H 2031.91 -2.07382 -3.62006 0
M  V30 21695 H 2030.54 -1.0924 -3.03754 0
M  V30 21696 H 2029.59 -3.25966 -1.96088 0
M  V30 21697 H 2030.9 -4.157 -2.75672 0
M  V30 21698 H 2030.06 -3.43685 -4.99966 0
M  V30 21699 H 2028.8 -2.43695 -4.2245 0
M  V30 21700 H 2027.8 -4.48883 -3.17466 0
M  V30 21701 H 2029.03 -5.50102 -3.98201 0
M  V30 21702 H 2026.97 -3.74849 -5.38353 0
M  V30 21703 H 2026.89 -5.4716 -5.21682 0
M  V30 21704 H 2028.16 -4.76218 -6.1712 0
M  V30 21705 N 2032.39 0.630389 -1.44443 0
M  V30 21706 C 2033.34 1.76351 -1.51667 0
M  V30 21707 C 2034.33 1.64889 -0.388317 0
M  V30 21708 O 2035.54 1.70959 -0.563293 0
M  V30 21709 H 2031.91 0.582226 -0.475937 0
M  V30 21710 H 2033.88 1.67382 -2.47034 0
M  V30 21711 C 2032.63 3.14688 -1.47875 0
M  V30 21712 H 2031.95 3.24156 -2.34015 0
M  V30 21713 H 2033.39 3.93866 -1.5699 0
M  V30 21714 C 2031.85 3.36308 -0.199622 0
M  V30 21715 O 2032.38 3.95013 0.72988 0
M  V30 21716 N 2030.59 2.90419 -0.102524 0
M  V30 21717 H 2030.14 2.42829 -0.859761 0
M  V30 21718 H 2030.09 3.0526 0.752566 0
M  V30 21719 N 2033.87 1.31354 0.870861 0
M  V30 21720 C 2035.11 1.21167 1.62623 0
M  V30 21721 C 2035.44 -0.22989 1.92835 0
M  V30 21722 O 2034.72 -1.16257 1.55931 0
M  V30 21723 C 2035 2.05505 2.95702 0
M  V30 21724 C 2034.86 3.57955 2.72375 0
M  V30 21725 C 2036.17 1.90375 3.96794 0
M  V30 21726 H 2033.29 0.441517 0.590111 0
M  V30 21727 H 2035.94 1.61134 1.00676 0
M  V30 21728 H 2034.09 1.71549 3.48573 0
M  V30 21729 H 2035.76 4.02044 2.26183 0
M  V30 21730 H 2034 3.81431 2.06623 0
M  V30 21731 H 2034.67 4.12273 3.67063 0
M  V30 21732 H 2037.15 2.20089 3.53129 0
M  V30 21733 H 2036.02 2.51689 4.87795 0
M  V30 21734 H 2036.28 0.866804 4.33519 0
M  V30 21735 N 2035.34 -1.08505 1.143 0
M  V30 21736 C 2036.59 -1.80872 0.910589 0
M  V30 21737 C 2036.92 -1.86177 -0.562883 0
M  V30 21738 O 2036.17 -1.33282 -1.43299 0
M  V30 21739 C 2036.47 -3.26425 1.45538 0
M  V30 21740 C 2036.14 -3.41239 2.94732 0
M  V30 21741 C 2034.8 -3.44989 3.35464 0
M  V30 21742 C 2037.15 -3.45 3.90672 0
M  V30 21743 C 2034.48 -3.5009 4.70801 0
M  V30 21744 C 2036.83 -3.51637 5.25865 0
M  V30 21745 C 2035.5 -3.53659 5.66111 0
M  V30 21746 H 2034.77 -0.661856 0.333208 0
M  V30 21747 H 2037.41 -1.27762 1.4265 0
M  V30 21748 H 2035.72 -3.82237 0.860376 0
M  V30 21749 H 2037.42 -3.8097 1.25151 0
M  V30 21750 H 2034.01 -3.39011 2.6224 0
M  V30 21751 H 2038.19 -3.41334 3.60284 0
M  V30 21752 H 2033.45 -3.49949 5.01344 0
M  V30 21753 H 2037.62 -3.53492 6.00013 0
M  V30 21754 H 2035.25 -3.57365 6.70965 0
M  V30 21755 N 2036.82 -0.937962 -1.26649 0
M  V30 21756 C 2038.07 -0.584683 -1.94189 0
M  V30 21757 C 2038.4 0.873516 -1.73446 0
M  V30 21758 O 2037.68 1.62451 -1.06957 0
M  V30 21759 C 2037.96 -0.923855 -3.48047 0
M  V30 21760 C 2037.81 -2.43656 -3.7809 0
M  V30 21761 C 2039.13 -0.436986 -4.37925 0
M  V30 21762 H 2036.25 -0.213892 -0.70528 0
M  V30 21763 H 2038.89 -1.1716 -1.49578 0
M  V30 21764 H 2037.04 -0.424389 -3.86175 0
M  V30 21765 H 2038.71 -3.00851 -3.49695 0
M  V30 21766 H 2036.96 -2.88141 -3.2428 0
M  V30 21767 H 2037.63 -2.62439 -4.85623 0
M  V30 21768 H 2040.1 -0.865189 -4.07006 0
M  V30 21769 H 2038.98 -0.703159 -5.44378 0
M  V30 21770 H 2039.24 0.663042 -4.371 0
M  V30 21771 N 2038.3 1.40971 -0.704618 0
M  V30 21772 C 2039.23 2.29199 -0.00575899 0
M  V30 21773 C 2040.24 1.45259 0.735102 0
M  V30 21774 O 2041.43 1.68666 0.584302 0
M  V30 21775 C 2038.53 3.23311 1.01604 0
M  V30 21776 C 2037.71 4.36053 0.342951 0
M  V30 21777 C 2036.77 5.10679 1.26861 0
M  V30 21778 O 2035.79 5.64136 0.757556 0
M  V30 21779 N 2036.99 5.18997 2.60043 0
M  V30 21780 H 2039.76 2.89818 -0.763264 0
M  V30 21781 H 2037.32 1.52222 -0.551367 0
M  V30 21782 H 2039.31 3.70104 1.63722 0
M  V30 21783 H 2037.88 2.63937 1.675 0
M  V30 21784 H 2037.1 3.91527 -0.458254 0
M  V30 21785 H 2038.39 5.08647 -0.124708 0
M  V30 21786 H 2037.79 4.77029 3.04072 0
M  V30 21787 H 2036.34 5.69336 3.17333 0
M  V30 21788 N 2039.78 0.45001 1.51039 0
M  V30 21789 C 2040.71 -0.345315 2.30933 0
M  V30 21790 C 2041.69 -1.00959 1.36899 0
M  V30 21791 O 2042.87 -1.0108 1.6582 0
M  V30 21792 C 2040 -1.43968 3.16055 0
M  V30 21793 C 2038.96 -0.898198 4.18469 0
M  V30 21794 C 2038.28 -2.08927 4.92193 0
M  V30 21795 C 2039.58 0.0760911 5.22245 0
M  V30 21796 H 2041.28 0.321441 2.97669 0
M  V30 21797 H 2038.82 0.156032 1.43152 0
M  V30 21798 H 2040.78 -2.00338 3.70732 0
M  V30 21799 H 2039.5 -2.1349 2.47163 0
M  V30 21800 H 2038.16 -0.356617 3.64861 0
M  V30 21801 H 2037.81 -2.77098 4.19792 0
M  V30 21802 H 2037.51 -1.73328 5.61454 0
M  V30 21803 H 2039.03 -2.65827 5.49698 0
M  V30 21804 H 2040.45 -0.397728 5.71919 0
M  V30 21805 H 2038.84 0.345281 5.99106 0
M  V30 21806 H 2039.91 1.00878 4.74291 0
M  V30 21807 N 2041.26 -1.56548 0.18182 0
M  V30 21808 C 2042.5 -1.99093 -0.462751 0
M  V30 21809 C 2042.86 -1.06569 -1.59709 0
M  V30 21810 O 2044.06 -1.38297 -2.30494 0
M  V30 21811 C 2042.33 -3.45261 -0.923553 0
M  V30 21812 S 2043.89 -4.09835 -1.56783 0
M  V30 21813 H 2040.71 -0.695324 -0.148476 0
M  V30 21814 H 2043.31 -1.93459 0.281758 0
M  V30 21815 H 2042.02 -4.10306 -0.0877151 0
M  V30 21816 H 2041.55 -3.54684 -1.70185 0
M  V30 21817 H 2043.56 -4.05748 -2.85628 0
M  V30 21818 N 2042.73 0.0918577 -1.57332 0
M  V30 21819 C 2043.98 0.793187 -1.85884 0
M  V30 21820 C 2044.3 1.79111 -0.770985 0
M  V30 21821 O 2043.57 1.94851 0.202438 0
M  V30 21822 H 2042.15 0.295923 -0.685885 0
M  V30 21823 H 2044.82 0.0727166 -1.94764 0
M  V30 21824 H 2043.91 1.32178 -2.82728 0
M  V30 21825 N 2044.21 1.53368 0.362763 0
M  V30 21826 C 2045.15 1.74792 1.46707 0
M  V30 21827 C 2046.12 0.596367 1.51269 0
M  V30 21828 O 2047.31 0.829291 1.69278 0
M  V30 21829 C 2044.43 1.82926 2.85054 0
M  V30 21830 C 2043.48 3.04921 2.98204 0
M  V30 21831 S 2044.31 4.64381 2.66666 0
M  V30 21832 C 2045.47 4.75367 4.07157 0
M  V30 21833 H 2045.7 2.68184 1.28314 0
M  V30 21834 H 2043.24 1.43993 0.557272 0
M  V30 21835 H 2045.19 1.88297 3.64766 0
M  V30 21836 H 2043.85 0.905801 3.00756 0
M  V30 21837 H 2043.05 3.0723 3.99532 0
M  V30 21838 H 2042.65 2.97676 2.26418 0
M  V30 21839 H 2044.94 4.55595 5.01437 0
M  V30 21840 H 2045.88 5.77432 4.09852 0
M  V30 21841 H 2046.29 4.03977 3.94288 0
M  V30 21842 N 2045.69 -0.62272 1.44776 0
M  V30 21843 C 2046.62 -1.74528 1.5512 0
M  V30 21844 C 2047.6 -1.65241 0.403656 0
M  V30 21845 O 2048.79 -1.83873 0.624863 0
M  V30 21846 C 2045.92 -3.13088 1.5031 0
M  V30 21847 C 2044.87 -3.37172 2.63626 0
M  V30 21848 C 2044.2 -4.75849 2.43868 0
M  V30 21849 C 2045.5 -3.28908 4.0573 0
M  V30 21850 H 2047.19 -1.66128 2.49082 0
M  V30 21851 H 2044.74 -0.797813 1.19879 0
M  V30 21852 H 2046.69 -3.91403 1.56146 0
M  V30 21853 H 2045.41 -3.22293 0.528684 0
M  V30 21854 H 2044.07 -2.61241 2.57194 0
M  V30 21855 H 2043.72 -4.81767 1.446 0
M  V30 21856 H 2043.42 -4.92921 3.19849 0
M  V30 21857 H 2044.94 -5.56383 2.51535 0
M  V30 21858 H 2046.36 -3.97117 4.13487 0
M  V30 21859 H 2044.76 -3.57513 4.8198 0
M  V30 21860 H 2045.83 -2.26581 4.28706 0
M  V30 21861 N 2047.17 -1.31814 -0.863883 0
M  V30 21862 C 2048.41 -1.22028 -1.61979 0
M  V30 21863 C 2048.75 0.219661 -1.92954 0
M  V30 21864 O 2048.02 1.15428 -1.56546 0
M  V30 21865 C 2048.31 -2.0707 -2.94608 0
M  V30 21866 C 2048.16 -3.59395 -2.70473 0
M  V30 21867 C 2049.48 -1.92477 -3.95779 0
M  V30 21868 H 2046.6 -0.444641 -0.587762 0
M  V30 21869 H 2049.24 -1.61666 -0.998202 0
M  V30 21870 H 2047.39 -1.73395 -3.47659 0
M  V30 21871 H 2049.06 -4.03237 -2.24048 0
M  V30 21872 H 2047.3 -3.82521 -2.04597 0
M  V30 21873 H 2047.97 -4.14213 -3.64871 0
M  V30 21874 H 2050.45 -2.21959 -3.51957 0
M  V30 21875 H 2049.33 -2.54272 -4.86453 0
M  V30 21876 H 2049.59 -0.889783 -4.33053 0
M  V30 21877 N 2048.65 1.07897 -1.14873 0
M  V30 21878 C 2049.58 2.16955 -0.863287 0
M  V30 21879 C 2050.56 1.69103 0.183853 0
M  V30 21880 O 2051.74 1.9416 0.0394136 0
M  V30 21881 C 2048.87 3.45575 -0.345696 0
M  V30 21882 C 2047.83 4.06847 -1.32888 0
M  V30 21883 C 2047.15 5.30481 -0.670367 0
M  V30 21884 C 2048.45 4.47523 -2.69296 0
M  V30 21885 H 2050.15 2.41091 -1.77526 0
M  V30 21886 H 2047.69 1.1587 -0.854991 0
M  V30 21887 H 2049.65 4.21188 -0.133575 0
M  V30 21888 H 2048.37 3.21009 0.601722 0
M  V30 21889 H 2047.03 3.33272 -1.52726 0
M  V30 21890 H 2046.68 5.02203 0.283023 0
M  V30 21891 H 2046.38 5.72433 -1.32645 0
M  V30 21892 H 2047.9 6.08805 -0.467891 0
M  V30 21893 H 2049.31 5.1429 -2.53335 0
M  V30 21894 H 2047.71 5.00409 -3.31226 0
M  V30 21895 H 2048.78 3.59159 -3.2578 0
M  V30 21896 N 2050.12 0.944665 1.2615 0
M  V30 21897 C 2051.09 0.461547 2.24505 0
M  V30 21898 C 2052.09 -0.429277 1.54964 0
M  V30 21899 O 2053.28 -0.227965 1.72702 0
M  V30 21900 C 2050.41 -0.334363 3.39256 0
M  V30 21901 H 2051.6 1.33075 2.68758 0
M  V30 21902 H 2049.16 0.726968 1.38365 0
M  V30 21903 H 2049.89 -1.22167 3.00409 0
M  V30 21904 H 2049.68 0.304588 3.90915 0
M  V30 21905 H 2051.17 -0.662181 4.12317 0
M  V30 21906 N 2051.6 -1.40596 0.712085 0
M  V30 21907 C 2052.83 -2.04967 0.25925 0
M  V30 21908 C 2053.24 -1.53745 -1.10268 0
M  V30 21909 O 2052.58 -0.687539 -1.70348 0
M  V30 21910 C 2052.65 -3.59155 0.157468 0
M  V30 21911 C 2052.31 -4.33249 1.45411 0
M  V30 21912 C 2053.31 -4.61433 2.39533 0
M  V30 21913 C 2050.99 -4.72222 1.71207 0
M  V30 21914 C 2052.99 -5.2757 3.57699 0
M  V30 21915 C 2050.67 -5.38092 2.89655 0
M  V30 21916 C 2051.67 -5.65696 3.82723 0
M  V30 21917 O 2051.36 -6.30206 4.99095 0
M  V30 21918 H 2051.09 -0.666162 0.114911 0
M  V30 21919 H 2053.64 -1.81055 0.969955 0
M  V30 21920 H 2051.87 -3.81872 -0.60915 0
M  V30 21921 H 2053.56 -4.05064 -0.260344 0
M  V30 21922 H 2054.33 -4.3179 2.20867 0
M  V30 21923 H 2050.21 -4.50107 0.99621 0
M  V30 21924 H 2053.75 -5.49032 4.30359 0
M  V30 21925 H 2049.65 -5.67154 3.08231 0
M  V30 21926 H 2050.42 -6.48703 4.99126 0
M  V30 21927 N 2053.08 -0.458013 -1.50798 0
M  V30 21928 C 2054.03 0.342913 -2.28238 0
M  V30 21929 C 2055 0.99876 -1.32718 0
M  V30 21930 O 2056.18 1.01371 -1.61643 0
M  V30 21931 C 2053.32 1.42646 -3.14239 0
M  V30 21932 C 2052.44 0.786698 -4.24776 0
M  V30 21933 C 2051.57 1.84704 -4.98054 0
M  V30 21934 C 2050.61 1.18681 -6.00484 0
M  V30 21935 N 2049.75 2.18942 -6.6709 0
M  V30 21936 H 2054.59 -0.323799 -2.96236 0
M  V30 21937 H 2052.12 -0.171528 -1.46097 0
M  V30 21938 H 2054.08 2.0662 -3.62442 0
M  V30 21939 H 2052.71 2.06252 -2.48314 0
M  V30 21940 H 2051.76 0.0347215 -3.80384 0
M  V30 21941 H 2053.08 0.264877 -4.98096 0
M  V30 21942 H 2052.23 2.5629 -5.49909 0
M  V30 21943 H 2050.97 2.40263 -4.24411 0
M  V30 21944 H 2049.97 0.45651 -5.47901 0
M  V30 21945 H 2051.2 0.638278 -6.76094 0
M  V30 21946 H 2049.14 2.73543 -5.96247 0
M  V30 21947 H 2049.06 1.71709 -7.36242 0
M  V30 21948 H 2050.33 2.89949 -7.23568 0
M  V30 21949 N 2054.56 1.56449 -0.190119 0
M  V30 21950 C 2055.97 1.83879 0.323353 0
M  V30 21951 C 2056.32 1.11062 1.6174 0
M  V30 21952 O 2055.45 0.369789 2.13217 0
M  V30 21953 C 2056.04 3.33562 0.593453 0
M  V30 21954 C 2054.6 3.6142 1.05131 0
M  V30 21955 C 2053.75 2.77129 0.0972331 0
M  V30 21956 H 2056.7 1.53205 -0.414009 0
M  V30 21957 H 2056.72 3.52062 1.44335 0
M  V30 21958 H 2056.23 3.86532 -0.348543 0
M  V30 21959 H 2054.33 3.13879 2.00776 0
M  V30 21960 H 2054.45 4.69638 0.947464 0
M  V30 21961 H 2052.81 2.47576 0.598181 0
M  V30 21962 H 2053.59 3.32887 -0.839117 0
M  V30 21963 N 2056.04 -0.0835127 1.57379 0
M  V30 21964 C 2056.99 -1.11925 2.03901 0
M  V30 21965 C 2057.98 -1.40782 0.942168 0
M  V30 21966 O 2059.19 -1.40327 1.12732 0
M  V30 21967 H 2055.56 -0.378223 0.649963 0
M  V30 21968 H 2057.53 -0.70065 2.90058 0
M  V30 21969 C 2056.28 -2.42798 2.48887 0
M  V30 21970 H 2055.6 -2.21441 3.32873 0
M  V30 21971 H 2057.04 -3.13744 2.85203 0
M  V30 21972 C 2055.5 -3.07924 1.36692 0
M  V30 21973 O 2056.03 -3.9551 0.702482 0
M  V30 21974 N 2054.24 -2.68359 1.11498 0
M  V30 21975 H 2053.79 -1.97225 1.6571 0
M  V30 21976 H 2053.74 -3.12259 0.366326 0
M  V30 21977 N 2057.52 -1.53558 -0.354624 0
M  V30 21978 C 2058.79 -1.60886 -1.11243 0
M  V30 21979 C 2059.17 -0.423192 -2.06815 0
M  V30 21980 O 2058.52 0.585579 -2.20869 0
M  V30 21981 C 2058.73 -2.96439 -1.84188 0
M  V30 21982 C 2060.08 -3.51404 -2.38329 0
M  V30 21983 O 2061.1 -2.9854 -1.94299 0
M  V30 21984 O 2059.96 -4.43843 -3.1885 0
M  V30 21985 H 2057.06 -0.650291 -0.510932 0
M  V30 21986 H 2059.6 -1.65902 -0.357007 0
M  V30 21987 H 2058.37 -3.74173 -1.145 0
M  V30 21988 H 2058 -2.94963 -2.66613 0
M  V30 21989 N 2058.99 0.615033 -1.45104 0
M  V30 21990 C 2060.24 1.37029 -1.48007 0
M  V30 21991 C 2060.56 1.95213 -0.122939 0
M  V30 21992 O 2061.76 2.71484 -0.0295763 0
M  V30 21993 C 2060.22 2.48178 -2.60645 0
M  V30 21994 C 2059.83 1.96437 -4.02637 0
M  V30 21995 C 2061.57 3.25251 -2.72786 0
M  V30 21996 C 2059.48 3.05024 -5.0667 0
M  V30 21997 H 2058.41 0.515004 -0.550715 0
M  V30 21998 H 2061.06 0.659974 -1.71221 0
M  V30 21999 H 2059.44 3.2186 -2.307 0
M  V30 22000 H 2060.61 1.29514 -4.42225 0
M  V30 22001 H 2058.93 1.32132 -3.9488 0
M  V30 22002 H 2061.53 4.06229 -3.47681 0
M  V30 22003 H 2061.87 3.75776 -1.7916 0
M  V30 22004 H 2062.4 2.58666 -3.0222 0
M  V30 22005 H 2059.14 2.59425 -6.01979 0
M  V30 22006 H 2058.66 3.70538 -4.71658 0
M  V30 22007 H 2060.34 3.69532 -5.31089 0
M  V30 22008 N 2060.47 1.3227 0.85688 0
M  V30 22009 C 2061.4 1.23626 1.98088 0
M  V30 22010 C 2062.38 0.120585 1.69672 0
M  V30 22011 O 2063.57 0.307383 1.91752 0
M  V30 22012 C 2060.7 0.956279 3.33875 0
M  V30 22013 C 2059.65 2.03295 3.76637 0
M  V30 22014 C 2058.98 1.60541 5.1003 0
M  V30 22015 C 2060.28 3.4477 3.92341 0
M  V30 22016 H 2061.97 2.17665 2.05578 0
M  V30 22017 H 2059.52 1.04788 0.987703 0
M  V30 22018 H 2061.47 0.882366 4.12059 0
M  V30 22019 H 2060.19 -0.0197585 3.26594 0
M  V30 22020 H 2058.85 2.09698 3.00703 0
M  V30 22021 H 2058.5 0.616883 4.99203 0
M  V30 22022 H 2058.2 2.32578 5.39612 0
M  V30 22023 H 2059.73 1.54582 5.90709 0
M  V30 22024 H 2061.14 3.40968 4.60884 0
M  V30 22025 H 2059.54 4.15137 4.33338 0
M  V30 22026 H 2060.61 3.84594 2.95322 0
M  V30 22027 N 2061.95 -1.07287 1.15444 0
M  V30 22028 C 2063.17 -1.84153 0.954061 0
M  V30 22029 C 2063.6 -1.81534 -0.492639 0
M  V30 22030 O 2062.96 -1.20877 -1.35124 0
M  V30 22031 C 2063.01 -3.29112 1.4737 0
M  V30 22032 O 2062.11 -4.06866 0.673335 0
M  V30 22033 H 2061.45 -0.570198 0.34025 0
M  V30 22034 H 2063.98 -1.35339 1.53442 0
M  V30 22035 H 2063.99 -3.79944 1.48682 0
M  V30 22036 H 2062.67 -3.30333 2.52691 0
M  V30 22037 H 2061.24 -3.65687 0.729894 0
M  V30 22038 N 2063.43 -0.951342 -1.25647 0
M  V30 22039 C 2064.38 -0.459968 -2.28007 0
M  V30 22040 C 2065.37 0.468044 -1.62806 0
M  V30 22041 O 2066.58 0.345136 -1.7666 0
M  V30 22042 H 2062.95 -0.130235 -0.740637 0
M  V30 22043 H 2064.92 -1.33559 -2.66842 0
M  V30 22044 C 2063.67 0.24991 -3.46801 0
M  V30 22045 H 2062.99 -0.455035 -3.97202 0
M  V30 22046 H 2064.43 0.557792 -4.20315 0
M  V30 22047 C 2062.89 1.47127 -3.03076 0
M  V30 22048 O 2063.42 2.56915 -3.088 0
M  V30 22049 N 2061.63 1.33145 -2.58304 0
M  V30 22050 H 2061.18 0.438193 -2.53846 0
M  V30 22051 H 2061.13 2.14982 -2.29413 0
M  V30 22052 N 2064.91 1.40216 -0.719531 0
M  V30 22053 C 2065.84 2.28192 -0.0185278 0
M  V30 22054 C 2066.82 1.43553 0.763632 0
M  V30 22055 O 2068 1.72961 0.749443 0
M  V30 22056 C 2065.13 3.24179 0.981108 0
M  V30 22057 C 2064.17 4.25518 0.289289 0
M  V30 22058 S 2065.01 5.26351 -0.985661 0
M  V30 22059 C 2066.16 6.25899 0.011772 0
M  V30 22060 H 2066.4 2.87299 -0.764643 0
M  V30 22061 H 2063.93 1.45709 -0.510709 0
M  V30 22062 H 2065.89 3.80005 1.55262 0
M  V30 22063 H 2064.55 2.64122 1.69995 0
M  V30 22064 H 2063.74 4.93045 1.04512 0
M  V30 22065 H 2063.34 3.73411 -0.209776 0
M  V30 22066 H 2065.63 6.72054 0.857313 0
M  V30 22067 H 2066.58 7.0529 -0.630218 0
M  V30 22068 H 2066.99 5.63238 0.377261 0
M  V30 22069 N 2066.38 0.466004 1.50553 0
M  V30 22070 C 2067.79 0.00966264 1.86697 0
M  V30 22071 C 2068.15 -1.39347 1.38119 0
M  V30 22072 O 2067.27 -2.03208 0.744006 0
M  V30 22073 C 2067.87 0.0107586 3.38798 0
M  V30 22074 C 2066.42 -0.390094 3.74373 0
M  V30 22075 C 2065.57 0.398415 2.74423 0
M  V30 22076 H 2068.52 0.680522 1.43369 0
M  V30 22077 H 2068.54 -0.792537 3.72155 0
M  V30 22078 H 2068.06 1.0321 3.74125 0
M  V30 22079 H 2066.16 -1.41598 3.44646 0
M  V30 22080 H 2066.27 -0.0949729 4.79006 0
M  V30 22081 H 2064.63 -0.147197 2.54274 0
M  V30 22082 H 2065.42 1.41917 3.12593 0
M  V30 22083 N 2067.86 -1.56346 0.198413 0
M  V30 22084 C 2069.09 -2.01765 -0.444344 0
M  V30 22085 C 2069.5 -1.0777 -1.55507 0
M  V30 22086 O 2068.84 -0.0753476 -1.83545 0
M  V30 22087 C 2068.9 -3.43574 -1.05816 0
M  V30 22088 C 2068.57 -4.5692 -0.0857655 0
M  V30 22089 C 2069.57 -5.15083 0.706081 0
M  V30 22090 C 2067.25 -5.02293 0.0262794 0
M  V30 22091 C 2069.24 -6.17072 1.5969 0
M  V30 22092 C 2066.93 -6.04125 0.920659 0
M  V30 22093 C 2067.93 -6.61388 1.70453 0
M  V30 22094 O 2067.62 -7.61242 2.58392 0
M  V30 22095 H 2067.35 -0.666052 -0.115545 0
M  V30 22096 H 2069.9 -2.03117 0.305386 0
M  V30 22097 H 2068.13 -3.39219 -1.85654 0
M  V30 22098 H 2069.82 -3.7278 -1.60592 0
M  V30 22099 H 2070.59 -4.80893 0.629841 0
M  V30 22100 H 2066.47 -4.57416 -0.57369 0
M  V30 22101 H 2070.01 -6.61695 2.20919 0
M  V30 22102 H 2065.91 -6.37738 0.998002 0
M  V30 22103 H 2066.68 -7.78674 2.52208 0
M  V30 22104 N 2069.34 0.0751653 -1.57421 0
M  V30 22105 C 2070.59 0.773759 -1.86268 0
M  V30 22106 C 2070.9 1.78911 -0.79058 0
M  V30 22107 O 2072.11 2.53703 -0.966795 0
M  V30 22108 C 2070.56 1.42704 -3.30399 0
M  V30 22109 C 2070.17 0.450427 -4.4573 0
M  V30 22110 C 2071.92 2.10819 -3.6845 0
M  V30 22111 C 2069.82 1.10943 -5.80901 0
M  V30 22112 H 2068.75 0.292727 -0.694858 0
M  V30 22113 H 2071.4 0.0269952 -1.8348 0
M  V30 22114 H 2069.79 2.22195 -3.27789 0
M  V30 22115 H 2070.96 -0.314427 -4.59726 0
M  V30 22116 H 2069.28 -0.126101 -4.16209 0
M  V30 22117 H 2071.87 2.60894 -4.66732 0
M  V30 22118 H 2072.22 2.90611 -2.98079 0
M  V30 22119 H 2072.75 1.38164 -3.73036 0
M  V30 22120 H 2069.49 0.351912 -6.54555 0
M  V30 22121 H 2069.01 1.84523 -5.70711 0
M  V30 22122 H 2070.69 1.63022 -6.26125 0
M  V30 22123 N 2070.82 1.53744 0.346476 0
M  V30 22124 C 2072.07 1.70512 1.0849 0
M  V30 22125 C 2072.39 0.469467 1.89264 0
M  V30 22126 O 2071.66 -0.516594 1.88966 0
M  V30 22127 H 2070.24 0.628636 0.403517 0
M  V30 22128 H 2072.9 1.9099 0.388459 0
M  V30 22129 H 2072 2.57472 1.76394 0
M  V30 22130 N 2072.3 -0.607329 1.45428 0
M  V30 22131 C 2073.52 -1.39786 1.53214 0
M  V30 22132 C 2073.95 -1.87369 0.165684 0
M  V30 22133 O 2073.3 -1.60154 -0.849728 0
M  V30 22134 C 2073.35 -2.57823 2.52111 0
M  V30 22135 O 2072.46 -3.58462 2.03909 0
M  V30 22136 H 2071.8 -0.417312 0.516476 0
M  V30 22137 H 2074.33 -0.739101 1.90784 0
M  V30 22138 H 2074.34 -3.05064 2.70925 0
M  V30 22139 H 2073.01 -2.22539 3.51354 0
M  V30 22140 H 2071.59 -3.17868 1.94973 0
M  V30 22141 N 2073.77 -1.32722 -0.849853 0
M  V30 22142 C 2075.02 -1.22908 -1.59927 0
M  V30 22143 C 2075.34 0.206455 -1.94507 0
M  V30 22144 O 2076.54 0.426508 -2.68129 0
M  V30 22145 C 2075 -2.15292 -2.88405 0
M  V30 22146 C 2074.61 -3.63954 -2.6123 0
M  V30 22147 C 2076.35 -2.14325 -3.66422 0
M  V30 22148 C 2074.26 -4.48286 -3.85738 0
M  V30 22149 H 2073.19 -0.456463 -0.600132 0
M  V30 22150 H 2075.84 -1.57715 -0.937993 0
M  V30 22151 H 2074.22 -1.73406 -3.56015 0
M  V30 22152 H 2075.39 -4.14213 -2.01901 0
M  V30 22153 H 2073.71 -3.67101 -1.96535 0
M  V30 22154 H 2076.31 -2.74566 -4.58822 0
M  V30 22155 H 2076.65 -1.13547 -4.00516 0
M  V30 22156 H 2077.18 -2.54517 -3.05722 0
M  V30 22157 H 2073.92 -5.49897 -3.56782 0
M  V30 22158 H 2073.44 -4.02776 -4.44446 0
M  V30 22159 H 2075.12 -4.61531 -4.53429 0
M  V30 22160 N 2075.25 1.06673 -1.16011 0
M  V30 22161 C 2076.16 2.17576 -0.877386 0
M  V30 22162 C 2077.18 1.73362 0.148919 0
M  V30 22163 O 2078.35 2.01382 -0.0268051 0
M  V30 22164 C 2075.42 3.44631 -0.378223 0
M  V30 22165 C 2074.48 4.03374 -1.46928 0
M  V30 22166 C 2073.71 5.24365 -0.993837 0
M  V30 22167 O 2073.94 5.70181 0.157925 0
M  V30 22168 O 2072.87 5.74962 -1.78052 0
M  V30 22169 H 2076.7 2.44264 -1.80468 0
M  V30 22170 H 2074.28 1.1614 -0.939777 0
M  V30 22171 H 2076.16 4.21265 -0.106644 0
M  V30 22172 H 2074.84 3.19478 0.521114 0
M  V30 22173 H 2073.75 3.28248 -1.79455 0
M  V30 22174 H 2075.08 4.32814 -2.34378 0
M  V30 22175 N 2076.73 0.957992 1.25141 0
M  V30 22176 C 2078.01 0.531835 1.88231 0
M  V30 22177 C 2078.39 -0.990946 1.86396 0
M  V30 22178 O 2077.74 -1.85817 1.32983 0
M  V30 22179 C 2077.95 1.11229 3.30801 0
M  V30 22180 C 2079.29 1.19121 4.07548 0
M  V30 22181 O 2080.32 1.06409 3.39935 0
M  V30 22182 O 2079.18 1.39103 5.285 0
M  V30 22183 H 2076.27 0.175926 0.808071 0
M  V30 22184 H 2078.82 1.05164 1.33187 0
M  V30 22185 H 2077.59 2.15542 3.26584 0
M  V30 22186 H 2077.21 0.575942 3.93406 0
M  V30 22187 N 2078.21 -1.39832 0.726957 0
M  V30 22188 C 2079.44 -2.0468 0.280975 0
M  V30 22189 C 2079.85 -1.54906 -1.08631 0
M  V30 22190 O 2079.19 -0.705568 -1.6961 0
M  V30 22191 C 2079.25 -3.58968 0.195552 0
M  V30 22192 C 2078.92 -4.31682 1.49998 0
M  V30 22193 C 2079.91 -4.58866 2.44413 0
M  V30 22194 C 2077.6 -4.7038 1.76206 0
M  V30 22195 C 2079.59 -5.23747 3.63274 0
M  V30 22196 C 2077.28 -5.3499 2.95346 0
M  V30 22197 C 2078.28 -5.61605 3.88702 0
M  V30 22198 O 2077.96 -6.24877 5.05751 0
M  V30 22199 H 2077.7 -0.664906 0.12197 0
M  V30 22200 H 2080.25 -1.80016 0.989104 0
M  V30 22201 H 2078.48 -3.82497 -0.568613 0
M  V30 22202 H 2080.17 -4.05318 -0.217367 0
M  V30 22203 H 2080.94 -4.29424 2.25434 0
M  V30 22204 H 2076.81 -4.49025 1.04389 0
M  V30 22205 H 2080.36 -5.44437 4.36158 0
M  V30 22206 H 2076.26 -5.63853 3.14229 0
M  V30 22207 H 2077.02 -6.43372 5.05979 0
M  V30 22208 N 2079.69 -0.473982 -1.50304 0
M  V30 22209 C 2080.92 0.0775007 -2.06455 0
M  V30 22210 C 2081.32 1.33801 -1.33768 0
M  V30 22211 O 2080.67 1.79261 -0.401381 0
M  V30 22212 C 2080.73 0.428656 -3.56935 0
M  V30 22213 C 2080.39 -0.730244 -4.51128 0
M  V30 22214 C 2081.39 -1.6131 -4.94242 0
M  V30 22215 C 2079.08 -0.92139 -4.93777 0
M  V30 22216 C 2081.07 -2.67149 -5.78714 0
M  V30 22217 C 2078.76 -1.98299 -5.78032 0
M  V30 22218 C 2079.75 -2.85641 -6.20402 0
M  V30 22219 O 2079.44 -3.89973 -7.02977 0
M  V30 22220 H 2079.17 -0.00505561 -0.675981 0
M  V30 22221 H 2081.73 -0.662628 -1.94418 0
M  V30 22222 H 2079.96 1.22201 -3.66884 0
M  V30 22223 H 2081.65 0.915562 -3.95439 0
M  V30 22224 H 2082.41 -1.47713 -4.61959 0
M  V30 22225 H 2078.29 -0.251023 -4.60316 0
M  V30 22226 H 2081.84 -3.35352 -6.11706 0
M  V30 22227 H 2077.73 -2.11903 -6.09727 0
M  V30 22228 H 2078.5 -3.86996 -7.21232 0
M  V30 22229 N 2081.16 1.56239 -0.206702 0
M  V30 22230 C 2082.44 1.89689 0.477219 0
M  V30 22231 C 2082.82 1.12193 1.78818 0
M  V30 22232 O 2082.17 0.226599 2.27374 0
M  V30 22233 C 2082.38 3.42218 0.684683 0
M  V30 22234 C 2083.73 4.12685 0.998827 0
M  V30 22235 O 2084.75 3.47734 0.771997 0
M  V30 22236 O 2083.61 5.275 1.42851 0
M  V30 22237 H 2080.7 0.788217 0.250286 0
M  V30 22238 H 2083.25 1.67881 -0.247781 0
M  V30 22239 H 2082.02 3.90559 -0.240635 0
M  V30 22240 H 2081.65 3.69756 1.46172 0
M  V30 22241 N 2082.64 -0.0668159 1.57458 0
M  V30 22242 C 2083.89 -0.760886 1.88632 0
M  V30 22243 C 2084.24 -1.74934 0.800989 0
M  V30 22244 O 2083.54 -1.90612 -0.194354 0
M  V30 22245 C 2083.73 -1.5042 3.24204 0
M  V30 22246 C 2083.56 -0.589245 4.45823 0
M  V30 22247 C 2082.33 -0.224323 5.04802 0
M  V30 22248 C 2084.53 0.116178 5.14169 0
M  V30 22249 N 2082.51 0.695839 6.09944 0
M  V30 22250 C 2083.88 0.893346 6.1353 0
M  V30 22251 C 2085.94 0.187124 4.97548 0
M  V30 22252 C 2084.64 1.73488 6.98065 0
M  V30 22253 C 2086.66 1.01565 5.82614 0
M  V30 22254 C 2086.03 1.78085 6.81517 0
M  V30 22255 H 2082.13 -0.253704 0.739702 0
M  V30 22256 H 2084.71 -0.022212 1.94687 0
M  V30 22257 H 2082.88 -2.21357 3.19148 0
M  V30 22258 H 2084.61 -2.14768 3.43011 0
M  V30 22259 H 2081.37 -0.57828 4.70056 0
M  V30 22260 H 2081.79 1.14931 6.67173 0
M  V30 22261 H 2086.43 -0.390148 4.20996 0
M  V30 22262 H 2084.15 2.3231 7.73988 0
M  V30 22263 H 2087.74 1.07358 5.71809 0
M  V30 22264 H 2086.62 2.41162 7.46198 0
M  V30 22265 N 2084.12 -1.53926 -0.338317 0
M  V30 22266 C 2085.03 -1.85282 -1.43902 0
M  V30 22267 C 2086.05 -0.743407 -1.5732 0
M  V30 22268 O 2087.22 -1.03624 -1.72697 0
M  V30 22269 C 2084.29 -2.06058 -2.78821 0
M  V30 22270 C 2083.35 -3.29903 -2.74704 0
M  V30 22271 C 2082.58 -3.49679 -4.03188 0
M  V30 22272 O 2082.81 -2.73186 -5.00725 0
M  V30 22273 O 2081.74 -4.43121 -4.07342 0
M  V30 22274 H 2085.57 -2.78849 -1.2032 0
M  V30 22275 H 2083.15 -1.39646 -0.530982 0
M  V30 22276 H 2085.03 -2.21138 -3.58714 0
M  V30 22277 H 2083.71 -1.15679 -3.02325 0
M  V30 22278 H 2082.61 -3.20222 -1.93413 0
M  V30 22279 H 2083.95 -4.20292 -2.56155 0
M  V30 22280 N 2085.6 0.599608 -1.45748 0
M  V30 22281 C 2086.55 1.73095 -1.55374 0
M  V30 22282 C 2087.54 1.64028 -0.423205 0
M  V30 22283 O 2088.75 1.69726 -0.599429 0
M  V30 22284 H 2085.12 0.572 -0.48818 0
M  V30 22285 H 2087.09 1.62104 -2.50529 0
M  V30 22286 C 2085.84 3.1148 -1.54517 0
M  V30 22287 H 2085.17 3.19119 -2.40838 0
M  V30 22288 H 2086.61 3.90447 -1.65309 0
M  V30 22289 C 2085.06 3.35809 -0.270913 0
M  V30 22290 O 2085.59 3.96473 0.645927 0
M  V30 22291 N 2083.8 2.90136 -0.164103 0
M  V30 22292 H 2083.35 2.40951 -0.911075 0
M  V30 22293 H 2083.31 3.06788 0.687647 0
M  V30 22294 N 2087.08 1.33171 0.842803 0
M  V30 22295 C 2088.01 1.18931 1.95929 0
M  V30 22296 C 2089.02 0.121266 1.62348 0
M  V30 22297 O 2090.21 0.371327 1.74595 0
M  V30 22298 C 2087.31 0.800822 3.29302 0
M  V30 22299 C 2086.48 1.95967 3.91044 0
M  V30 22300 C 2085.54 1.5528 5.02767 0
M  V30 22301 O 2084.57 2.26657 5.22126 0
M  V30 22302 N 2085.77 0.455553 5.7871 0
M  V30 22303 H 2088.54 2.15108 2.08683 0
M  V30 22304 H 2086.1 1.25865 1.01832 0
M  V30 22305 H 2088.09 0.510809 4.01463 0
M  V30 22306 H 2086.66 -0.0701517 3.12521 0
M  V30 22307 H 2085.88 2.41553 3.11522 0
M  V30 22308 H 2087.17 2.73517 4.29029 0
M  V30 22309 H 2086.57 -0.138262 5.65531 0
M  V30 22310 H 2085.12 0.225196 6.51411 0
M  V30 22311 N 2088.56 -1.06056 1.16576 0
M  V30 22312 C 2089.97 -1.31034 0.911171 0
M  V30 22313 C 2090.17 -1.96758 -0.434593 0
M  V30 22314 O 2089.23 -2.2357 -1.17357 0
M  V30 22315 C 2090.54 -2.18865 2.06201 0
M  V30 22316 C 2092.09 -2.32274 2.09804 0
M  V30 22317 C 2092.56 -3.23461 3.24248 0
M  V30 22318 N 2094.05 -3.31045 3.2398 0
M  V30 22319 C 2094.79 -4.01702 4.09174 0
M  V30 22320 N 2094.29 -4.7486 5.0446 0
M  V30 22321 N 2096.08 -3.97777 3.97153 0
M  V30 22322 H 2088.23 -0.617904 2.03213 0
M  V30 22323 H 2090.49 -0.335006 0.886834 0
M  V30 22324 H 2090.2 -1.77852 3.03417 0
M  V30 22325 H 2090.07 -3.19462 2.00559 0
M  V30 22326 H 2092.46 -2.72534 1.13179 0
M  V30 22327 H 2092.54 -1.31337 2.19509 0
M  V30 22328 H 2092.18 -2.83918 4.21133 0
M  V30 22329 H 2092.11 -4.24384 3.11779 0
M  V30 22330 H 2094.61 -2.78911 2.54984 0
M  V30 22331 H 2094.92 -5.26308 5.65879 0
M  V30 22332 H 2093.26 -4.73832 5.08437 0
M  V30 22333 H 2096.45 -3.39743 3.22013 0
M  V30 22334 H 2096.63 -4.52574 4.63768 0
M  V30 22335 N 2090.03 -0.964615 -1.24631 0
M  V30 22336 C 2090.98 -0.49166 -2.25502 0
M  V30 22337 C 2091.95 0.46115 -1.5957 0
M  V30 22338 O 2093.14 0.372197 -1.87135 0
M  V30 22339 C 2090.28 0.214964 -3.4443 0
M  V30 22340 C 2089.39 -0.776253 -4.24969 0
M  V30 22341 C 2088.52 -0.0460512 -5.3118 0
M  V30 22342 C 2087.56 -1.02754 -6.03414 0
M  V30 22343 N 2086.7 -0.327547 -7.01336 0
M  V30 22344 H 2091.54 -1.35669 -2.65326 0
M  V30 22345 H 2089.08 -0.68015 -1.30431 0
M  V30 22346 H 2091.03 0.641314 -4.12241 0
M  V30 22347 H 2089.66 1.04397 -3.05452 0
M  V30 22348 H 2088.72 -1.32105 -3.56724 0
M  V30 22349 H 2090.03 -1.52481 -4.74922 0
M  V30 22350 H 2089.18 0.438447 -6.05114 0
M  V30 22351 H 2087.92 0.735226 -4.82126 0
M  V30 22352 H 2086.93 -1.52294 -5.28286 0
M  V30 22353 H 2088.15 -1.80921 -6.54557 0
M  V30 22354 H 2086.1 0.43481 -6.54557 0
M  V30 22355 H 2086.01 -1.01503 -7.49155 0
M  V30 22356 H 2087.28 0.135085 -7.79383 0
M  V30 22357 N 2091.51 1.39445 -0.734362 0
M  V30 22358 C 2092.93 1.54247 -0.409878 0
M  V30 22359 C 2093.13 1.70155 1.07933 0
M  V30 22360 O 2092.18 1.70169 1.86545 0
M  V30 22361 C 2093.5 2.7605 -1.19234 0
M  V30 22362 C 2095.04 2.89885 -1.1805 0
M  V30 22363 C 2095.52 4.14625 -1.94552 0
M  V30 22364 N 2097.01 4.21663 -1.91715 0
M  V30 22365 C 2097.75 5.1713 -2.47717 0
M  V30 22366 N 2097.24 6.1839 -3.12354 0
M  V30 22367 N 2099.03 5.09342 -2.37754 0
M  V30 22368 H 2091.19 1.27367 -1.69975 0
M  V30 22369 H 2093.45 0.61727 -0.719501 0
M  V30 22370 H 2093.15 2.70636 -2.24609 0
M  V30 22371 H 2093.03 3.68698 -0.796363 0
M  V30 22372 H 2095.42 2.94792 -0.13489 0
M  V30 22373 H 2095.5 1.98302 -1.61585 0
M  V30 22374 H 2095.14 4.10479 -2.99114 0
M  V30 22375 H 2095.07 5.0525 -1.48424 0
M  V30 22376 H 2097.56 3.4913 -1.44625 0
M  V30 22377 H 2097.87 6.87695 -3.52555 0
M  V30 22378 H 2096.22 6.1878 -3.16444 0
M  V30 22379 H 2099.41 4.29169 -1.86901 0
M  V30 22380 H 2099.58 5.83567 -2.81698 0
M  V30 22381 N 2092.99 0.481946 1.5005 0
M  V30 22382 C 2093.92 -0.352787 2.25457 0
M  V30 22383 C 2094.9 -0.986902 1.29225 0
M  V30 22384 O 2096.08 -1.02072 1.58472 0
M  V30 22385 C 2093.21 -1.4952 3.0391 0
M  V30 22386 C 2092.26 -0.977381 4.1515 0
M  V30 22387 S 2093.09 0.116634 5.35373 0
M  V30 22388 C 2094.25 -1.0294 6.17377 0
M  V30 22389 H 2094.48 0.287284 2.95909 0
M  V30 22390 H 2092.01 0.266971 1.52074 0
M  V30 22391 H 2093.97 -2.14989 3.497 0
M  V30 22392 H 2092.63 -2.10682 2.32963 0
M  V30 22393 H 2091.82 -1.83296 4.69488 0
M  V30 22394 H 2091.43 -0.400227 3.71852 0
M  V30 22395 H 2093.72 -1.93874 6.49168 0
M  V30 22396 H 2094.66 -0.525055 7.06151 0
M  V30 22397 H 2095.07 -1.28813 5.49607 0
M  V30 22398 N 2094.47 -1.56127 0.214985 0
M  V30 22399 C 2095.42 -2.21359 -0.714353 0
M  V30 22400 C 2096.41 -1.19092 -1.20472 0
M  V30 22401 O 2097.62 -1.37188 -1.16531 0
M  V30 22402 H 2093.99 -0.70966 -0.248769 0
M  V30 22403 H 2095.96 -2.98068 -0.140678 0
M  V30 22404 C 2094.71 -2.90234 -1.91466 0
M  V30 22405 H 2094.03 -3.68681 -1.54644 0
M  V30 22406 H 2095.47 -3.39286 -2.54285 0
M  V30 22407 C 2093.93 -1.92345 -2.76595 0
M  V30 22408 O 2094.46 -1.43625 -3.75146 0
M  V30 22409 N 2092.67 -1.60138 -2.42496 0
M  V30 22410 H 2092.22 -1.99952 -1.6241 0
M  V30 22411 H 2092.17 -0.949023 -2.99735 0
M  V30 22412 O 2095.98 -0.0785141 -1.61309 0
M  V30 22413 H 2096.68 0.526667 -1.86403 0
M  V30 END ATOM
M  V30 BEGIN BOND
M  V30 END BOND
M  V30 END CTAB
M  END
$$$$
