drugbank_target|P22455 Fibroblast growth factor receptor 4 (DB01109; DB08901; DB09078; DB12147; DB15102)
 OpenBabel12092119493D

  0  0  0     0  0            999 V3000
M  V30 BEGIN CTAB
M  V30 COUNTS 12352 12507 0 0 0
M  V30 BEGIN ATOM
M  V30 1 H -0.908 1.98254 -0.117106 0
M  V30 2 N 0 1.576 0 0
M  V30 3 C 0.933 2.03868 1.02534 0
M  V30 4 C 1.911 0.928543 1.3348 0
M  V30 5 O 3.095 1.19667 1.45644 0
M  V30 6 C 0.222 2.43627 2.35294 0
M  V30 7 C -0.732 3.65373 2.2001 0
M  V30 8 S 0.101 5.13292 1.52614 0
M  V30 9 C 1.257 5.56322 2.86805 0
M  V30 10 H 1.49 2.90518 0.631377 0
M  V30 11 H -0.977 1.52953 0.210867 0
M  V30 12 H 0.981 2.67203 3.11629 0
M  V30 13 H -0.358 1.57376 2.7183 0
M  V30 14 H -1.165 3.90944 3.18086 0
M  V30 15 H -1.563 3.418 1.51819 0
M  V30 16 H 0.729 5.58782 3.83104 0
M  V30 17 H 1.672 6.56266 2.65933 0
M  V30 18 H 2.08 4.83886 2.90714 0
M  V30 19 N 1.4781 -0.272755 1.55222 0
M  V30 20 C 2.8941 -0.619959 1.47067 0
M  V30 21 C 3.0941 -1.895 0.684978 0
M  V30 22 O 2.1501 -2.51675 0.203931 0
M  V30 23 C 3.4631 -0.746693 2.91282 0
M  V30 24 C 5.0111 -0.840731 3.01497 0
M  V30 25 C 5.4861 -0.99924 4.46967 0
M  V30 26 N 6.9771 -1.06476 4.50796 0
M  V30 27 C 7.7121 -1.20621 5.6057 0
M  V30 28 N 7.2081 -1.31483 6.80209 0
M  V30 29 N 9.0011 -1.23733 5.48312 0
M  V30 30 H 1.1521 0.564606 2.04758 0
M  V30 31 H 3.4151 0.191177 0.928523 0
M  V30 32 H 3.1211 0.119753 3.51496 0
M  V30 33 H 2.9951 -1.6269 3.40311 0
M  V30 34 H 5.3821 -1.69764 2.41379 0
M  V30 35 H 5.4631 0.0640874 2.5572 0
M  V30 36 H 5.1071 -0.146984 5.07687 0
M  V30 37 H 5.0371 -1.91871 4.90401 0
M  V30 38 H 7.5281 -0.993196 3.64615 0
M  V30 39 H 7.8411 -1.42111 7.59621 0
M  V30 40 H 6.1861 -1.28487 6.8302 0
M  V30 41 H 9.3771 -1.14877 4.53785 0
M  V30 42 H 9.5501 -1.34412 6.33906 0
M  V30 43 N 2.9562 -1.48159 -0.537278 0
M  V30 44 C 3.8862 -1.65029 -1.6519 0
M  V30 45 C 4.8672 -0.499281 -1.62607 0
M  V30 46 O 6.0522 -0.730972 -1.79918 0
M  V30 47 C 3.1822 -1.68303 -3.03795 0
M  V30 48 C 2.1362 -2.8283 -3.21234 0
M  V30 49 C 1.4622 -2.71189 -4.60826 0
M  V30 50 C 2.7622 -4.24211 -3.04701 0
M  V30 51 H 4.4562 -2.58341 -1.51328 0
M  V30 52 H 2.0022 -1.24325 -0.726585 0
M  V30 53 H 3.9552 -1.78693 -3.81637 0
M  V30 54 H 2.6792 -0.715635 -3.18663 0
M  V30 55 H 1.3382 -2.71983 -2.45807 0
M  V30 56 H 0.9862 -1.72435 -4.7252 0
M  V30 57 H 0.6862 -3.48035 -4.7344 0
M  V30 58 H 2.2102 -2.83537 -5.40777 0
M  V30 59 H 3.6242 -4.3593 -3.72341 0
M  V30 60 H 2.0212 -5.01998 -3.28813 0
M  V30 61 H 3.0912 -4.41184 -2.01209 0
M  V30 62 N 4.4343 0.785586 -1.36625 0
M  V30 63 C 5.3643 1.91259 -1.33949 0
M  V30 64 C 6.3453 1.68795 -0.210325 0
M  V30 65 O 7.5303 1.89854 -0.408561 0
M  V30 66 C 4.6603 3.28339 -1.13186 0
M  V30 67 C 3.6143 3.65335 -2.22967 0
M  V30 68 C 2.9403 5.00806 -1.87342 0
M  V30 69 C 4.2403 3.7352 -3.65075 0
M  V30 70 H 5.9343 1.93755 -2.28253 0
M  V30 71 H 3.4803 0.930788 -1.09874 0
M  V30 72 H 5.4333 4.06804 -1.09948 0
M  V30 73 H 4.1573 3.2624 -0.153332 0
M  V30 74 H 2.8163 2.89169 -2.25337 0
M  V30 75 H 2.4643 4.95233 -0.880545 0
M  V30 76 H 2.1643 5.26529 -2.60846 0
M  V30 77 H 3.6883 5.81687 -1.85667 0
M  V30 78 H 5.1023 4.42168 -3.64911 0
M  V30 79 H 3.4993 4.10731 -4.37516 0
M  V30 80 H 4.5693 2.74527 -3.99703 0
M  V30 81 N 5.9124 1.20967 1.01018 0
M  V30 82 C 6.8424 0.988272 2.11555 0
M  V30 83 C 7.8234 -0.0849778 1.69888 0
M  V30 84 O 9.0084 0.0738202 1.9406 0
M  V30 85 C 6.1384 0.546528 3.42973 0
M  V30 86 C 5.0924 1.56375 3.9841 0
M  V30 87 C 4.4184 0.97842 5.25672 0
M  V30 88 C 5.7184 2.94922 4.31066 0
M  V30 89 H 7.4124 1.91276 2.30334 0
M  V30 90 H 4.9584 0.921073 1.1069 0
M  V30 91 H 6.9114 0.378839 4.19694 0
M  V30 92 H 5.6354 -0.413598 3.23971 0
M  V30 93 H 4.2944 1.71891 3.23804 0
M  V30 94 H 3.9424 0.0101688 5.02999 0
M  V30 95 H 3.6424 1.65784 5.63728 0
M  V30 96 H 5.1664 0.821939 6.05043 0
M  V30 97 H 6.5804 2.8288 4.9865 0
M  V30 98 H 4.9774 3.5983 4.80253 0
M  V30 99 H 6.0474 3.4616 3.39561 0
M  V30 100 N 7.3905 -1.2043 1.01659 0
M  V30 101 C 8.3535 -2.21433 0.591616 0
M  V30 102 C 9.3535 -1.57203 -0.338226 0
M  V30 103 O 10.5435 -1.73737 -0.126918 0
M  V30 104 C 7.6755 -3.40628 -0.136058 0
M  V30 105 H 8.8685 -2.60545 1.48514 0
M  V30 106 H 6.4215 -1.33893 0.806379 0
M  V30 107 H 7.1565 -3.07019 -1.04449 0
M  V30 108 H 6.9415 -3.88475 0.531917 0
M  V30 109 H 8.4315 -4.15475 -0.420735 0
M  V30 110 N 8.8686 -0.792821 -1.36206 0
M  V30 111 C 9.7986 -0.207853 -2.32573 0
M  V30 112 C 10.7796 0.659055 -1.56813 0
M  V30 113 O 11.9646 0.592176 -1.84951 0
M  V30 114 C 9.0946 0.655449 -3.41059 0
M  V30 115 C 8.0486 -0.111842 -4.27854 0
M  V30 116 C 7.3746 0.872274 -5.27537 0
M  V30 117 C 8.6746 -1.30299 -5.05786 0
M  V30 118 H 10.3686 -1.01294 -2.81744 0
M  V30 119 H 7.9146 -0.48854 -1.3546 0
M  V30 120 H 9.8676 1.07464 -4.07467 0
M  V30 121 H 8.5916 1.49328 -2.90463 0
M  V30 122 H 7.2506 -0.512053 -3.63006 0
M  V30 123 H 6.8986 1.70523 -4.73214 0
M  V30 124 H 6.5986 0.363291 -5.86476 0
M  V30 125 H 8.1226 1.28996 -5.96818 0
M  V30 126 H 9.5366 -0.959379 -5.65216 0
M  V30 127 H 7.9336 -1.7455 -5.74154 0
M  V30 128 H 9.0036 -2.09663 -4.37229 0
M  V30 129 N 10.3467 1.47872 -0.545128 0
M  V30 130 C 11.2767 2.32661 0.197793 0
M  V30 131 C 12.2577 1.43041 0.920504 0
M  V30 132 O 13.4427 1.71912 0.90333 0
M  V30 133 C 10.5727 3.24569 1.23582 0
M  V30 134 C 9.5267 4.23333 0.630323 0
M  V30 135 C 8.8527 5.0448 1.77211 0
M  V30 136 C 10.1527 5.20704 -0.407974 0
M  V30 137 H 11.8467 2.95024 -0.510045 0
M  V30 138 H 9.3927 1.4187 -0.246731 0
M  V30 139 H 11.3457 3.8272 1.76362 0
M  V30 140 H 10.0697 2.60236 1.97344 0
M  V30 141 H 8.7287 3.6639 0.123922 0
M  V30 142 H 8.3767 4.36561 2.49847 0
M  V30 143 H 8.0767 5.71339 1.37281 0
M  V30 144 H 9.6007 5.65487 2.3034 0
M  V30 145 H 11.0147 5.7329 0.033305 0
M  V30 146 H 9.4117 5.95699 -0.725486 0
M  V30 147 H 10.4817 4.66917 -1.30828 0
M  V30 148 N 11.8248 0.280983 1.55075 0
M  V30 149 C 13.0728 -0.333455 1.9933 0
M  V30 150 C 13.3938 -1.55937 1.17085 0
M  V30 151 O 12.6638 -1.94143 0.261805 0
M  V30 152 H 11.2438 -0.126197 0.736263 0
M  V30 153 H 13.9058 0.387678 1.91005 0
M  V30 154 H 13.0018 -0.619292 3.05894 0
M  V30 155 N 13.3029 -1.57598 0.00835791 0
M  V30 156 C 14.5489 -1.91211 -0.675732 0
M  V30 157 C 14.8819 -0.883139 -1.72958 0
M  V30 158 O 14.1569 0.097016 -1.94258 0
M  V30 159 C 14.4399 -3.35379 -1.31123 0
M  V30 160 C 14.2929 -4.48999 -0.268356 0
M  V30 161 C 15.6119 -3.7912 -2.23508 0
M  V30 162 H 12.7309 -0.695374 -0.244179 0
M  V30 163 H 15.3729 -1.89901 0.0613655 0
M  V30 164 H 13.5229 -3.36626 -1.93946 0
M  V30 165 H 15.1949 -4.59887 0.360844 0
M  V30 166 H 13.4379 -4.31873 0.408482 0
M  V30 167 H 14.1089 -5.46851 -0.752218 0
M  V30 168 H 16.5849 -3.79477 -1.70693 0
M  V30 169 H 15.4609 -4.80729 -2.64936 0
M  V30 170 H 15.7219 -3.13455 -3.11766 0
M  V30 171 N 14.781 0.264519 -1.55364 0
M  V30 172 C 15.711 1.33121 -1.91836 0
M  V30 173 C 16.692 1.51101 -0.781192 0
M  V30 174 O 17.877 1.64003 -1.04003 0
M  V30 175 C 15.007 2.68921 -2.19769 0
M  V30 176 C 13.961 2.65661 -3.35571 0
M  V30 177 C 13.287 4.05093 -3.49004 0
M  V30 178 C 14.587 2.24187 -4.71739 0
M  V30 179 H 16.281 1.02844 -2.81182 0
M  V30 180 H 13.827 0.493286 -1.35287 0
M  V30 181 H 15.78 3.43663 -2.43872 0
M  V30 182 H 14.504 3.00799 -1.27231 0
M  V30 183 H 13.163 1.93377 -3.1145 0
M  V30 184 H 12.811 4.34206 -2.53917 0
M  V30 185 H 12.511 4.03804 -4.26868 0
M  V30 186 H 14.035 4.81561 -3.75408 0
M  V30 187 H 15.449 2.88654 -4.9533 0
M  V30 188 H 13.846 2.34044 -5.52579 0
M  V30 189 H 14.916 1.19327 -4.69988 0
M  V30 190 N 16.2591 1.48442 0.529413 0
M  V30 191 C 17.1891 1.65902 1.64313 0
M  V30 192 C 18.1701 0.507897 1.6234 0
M  V30 193 O 19.3551 0.740503 1.79528 0
M  V30 194 C 16.4851 1.69911 3.02898 0
M  V30 195 C 15.4391 2.8453 3.19729 0
M  V30 196 C 14.7651 2.73629 4.59381 0
M  V30 197 C 16.0651 4.25821 3.02447 0
M  V30 198 H 17.7591 2.5914 1.49955 0
M  V30 199 H 15.3051 1.24709 0.719982 0
M  V30 200 H 17.2581 1.80715 3.80684 0
M  V30 201 H 15.9821 0.732524 3.18279 0
M  V30 202 H 14.6411 2.73283 2.44361 0
M  V30 203 H 14.2891 1.74938 4.71599 0
M  V30 204 H 13.9891 3.50541 4.71588 0
M  V30 205 H 15.5131 2.86401 5.39265 0
M  V30 206 H 16.9271 4.37898 3.70024 0
M  V30 207 H 15.3241 5.03735 3.26146 0
M  V30 208 H 16.3941 4.42244 1.98867 0
M  V30 209 N 17.7372 -0.778329 1.37039 0
M  V30 210 C 18.9622 -1.57248 1.35233 0
M  V30 211 C 19.3872 -1.87999 -0.0615568 0
M  V30 212 O 18.7452 -1.48734 -1.03672 0
M  V30 213 C 18.7932 -2.86353 2.19167 0
M  V30 214 O 17.8972 -3.80442 1.59178 0
M  V30 215 H 17.2382 -0.476569 0.462362 0
M  V30 216 H 19.7682 -0.963853 1.80474 0
M  V30 217 H 19.7782 -3.35519 2.32145 0
M  V30 218 H 18.4532 -2.63299 3.21942 0
M  V30 219 H 17.0302 -3.39067 1.55203 0
M  V30 220 N 19.2153 -1.21501 -1.00376 0
M  V30 221 C 20.4613 -1.03452 -1.74429 0
M  V30 222 C 20.7943 0.430764 -1.89362 0
M  V30 223 O 20.0693 1.31962 -1.42886 0
M  V30 224 C 20.3523 -1.73375 -3.15615 0
M  V30 225 C 20.2053 -3.27431 -3.08397 0
M  V30 226 C 21.5243 -1.47732 -4.14564 0
M  V30 227 H 18.6433 -0.377226 -0.633143 0
M  V30 228 H 21.2853 -1.49693 -1.17013 0
M  V30 229 H 19.4353 -1.34064 -3.64636 0
M  V30 230 H 21.1073 -3.76119 -2.67081 0
M  V30 231 H 19.3503 -3.5767 -2.45468 0
M  V30 232 H 20.0213 -3.71524 -4.08258 0
M  V30 233 H 22.4973 -1.8186 -3.74254 0
M  V30 234 H 21.3733 -1.99169 -5.11491 0
M  V30 235 H 21.6343 -0.407589 -4.40217 0
M  V30 236 N 20.6934 1.19889 -1.02296 0
M  V30 237 C 22.1044 1.71124 -0.746568 0
M  V30 238 C 22.4554 1.81939 0.734335 0
M  V30 239 O 21.5804 1.48639 1.57275 0
M  V30 240 C 22.1754 3.10804 -1.34857 0
M  V30 241 C 20.7344 3.59323 -1.1209 0
M  V30 242 C 19.8814 2.3635 -1.45031 0
M  V30 243 H 22.8324 1.04813 -1.19163 0
M  V30 244 H 22.8534 3.73186 -0.742437 0
M  V30 245 H 22.3654 3.029 -2.42638 0
M  V30 246 H 20.4664 3.7255 -0.0610337 0
M  V30 247 H 20.5794 4.4378 -1.80544 0
M  V30 248 H 18.9434 2.39399 -0.869487 0
M  V30 249 H 19.7264 2.31081 -2.53883 0
M  V30 250 N 22.1715 0.800033 1.35784 0
M  V30 251 C 23.4195 0.376597 1.9856 0
M  V30 252 C 23.7405 -1.05812 1.63795 0
M  V30 253 O 23.0105 -1.73103 0.917171 0
M  V30 254 H 21.5905 0.136261 0.734467 0
M  V30 255 H 24.2525 1.02442 1.65806 0
M  V30 256 H 23.3485 0.477002 3.08433 0
M  V30 257 N 23.6496 -1.47581 0.552962 0
M  V30 258 C 25.0606 -1.86324 0.118463 0
M  V30 259 C 25.4116 -1.46006 -1.3106 0
M  V30 260 O 24.5366 -0.861182 -1.98526 0
M  V30 261 C 25.1316 -3.3816 0.20821 0
M  V30 262 C 23.6906 -3.7601 -0.171226 0
M  V30 263 C 22.8376 -2.71634 0.557686 0
M  V30 264 H 25.7886 -1.39159 0.762928 0
M  V30 265 H 25.8096 -3.76141 -0.574278 0
M  V30 266 H 25.3216 -3.67473 1.24841 0
M  V30 267 H 23.4226 -3.52313 -1.21269 0
M  V30 268 H 23.5356 -4.78745 0.184379 0
M  V30 269 H 21.8996 -2.547 0.00125792 0
M  V30 270 H 22.6826 -3.0379 1.59896 0
M  V30 271 N 25.1277 -0.289203 -1.54924 0
M  V30 272 C 26.5387 0.205791 -1.85562 0
M  V30 273 C 26.8897 1.54351 -1.2112 0
M  V30 274 O 26.0147 2.10435 -0.504601 0
M  V30 275 C 26.6097 0.380177 -3.3666 0
M  V30 276 C 25.1687 0.819395 -3.67373 0
M  V30 277 C 24.3157 -0.079159 -2.77187 0
M  V30 278 H 27.2667 -0.510577 -1.50262 0
M  V30 279 H 27.2877 1.21659 -3.60526 0
M  V30 280 H 26.7997 -0.593589 -3.83534 0
M  V30 281 H 24.9007 1.80413 -3.26009 0
M  V30 282 H 25.0137 0.646957 -4.74712 0
M  V30 283 H 23.3777 0.439565 -2.50878 0
M  V30 284 H 24.1607 -1.04906 -3.26878 0
M  V30 285 N 26.6058 1.57591 -0.0167156 0
M  V30 286 C 27.8518 1.91567 0.665582 0
M  V30 287 C 28.1848 0.892298 1.72487 0
M  V30 288 O 27.4598 -0.0867127 1.94307 0
M  V30 289 C 27.7428 3.36069 1.29342 0
M  V30 290 C 27.5958 4.49135 0.244541 0
M  V30 291 C 28.9148 3.803 2.21495 0
M  V30 292 H 26.0338 0.69666 0.240488 0
M  V30 293 H 28.6758 1.89866 -0.0714356 0
M  V30 294 H 26.8258 3.3765 1.92158 0
M  V30 295 H 28.4978 4.59689 -0.385228 0
M  V30 296 H 26.7408 4.3165 -0.431379 0
M  V30 297 H 27.4118 5.47242 0.723207 0
M  V30 298 H 29.8878 3.80377 1.68678 0
M  V30 299 H 28.7638 4.82127 2.62382 0
M  V30 300 H 29.0248 3.15104 3.101 0
M  V30 301 N 28.0839 -0.256276 1.55502 0
M  V30 302 C 29.0139 -1.32102 1.92539 0
M  V30 303 C 29.9949 -1.50684 0.789194 0
M  V30 304 O 31.1799 -1.63449 1.04872 0
M  V30 305 C 28.3099 -2.67752 2.21192 0
M  V30 306 C 27.2639 -2.63878 3.36975 0
M  V30 307 C 26.5899 -4.03236 3.51147 0
M  V30 308 C 27.8899 -2.21682 4.72921 0
M  V30 309 H 29.5839 -1.01351 2.81724 0
M  V30 310 H 27.1299 -0.486105 1.35547 0
M  V30 311 H 29.0829 -3.42365 2.45691 0
M  V30 312 H 27.8069 -3.0012 1.28824 0
M  V30 313 H 26.4659 -1.91722 3.12471 0
M  V30 314 H 26.1139 -4.32854 2.56216 0
M  V30 315 H 25.8139 -4.01535 4.29003 0
M  V30 316 H 27.3379 -4.79563 3.77957 0
M  V30 317 H 28.7519 -2.86023 4.96854 0
M  V30 318 H 27.1489 -2.3111 5.53812 0
M  V30 319 H 28.2189 -1.16833 4.70615 0
M  V30 320 N 29.562 -1.4872 -0.521534 0
M  V30 321 C 30.787 -1.61101 -1.30618 0
M  V30 322 C 31.212 -0.274611 -1.86085 0
M  V30 323 O 30.57 0.754937 -1.64834 0
M  V30 324 C 30.618 -2.66709 -2.4269 0
M  V30 325 O 29.722 -2.24456 -3.45967 0
M  V30 326 H 29.063 -0.539921 -0.386499 0
M  V30 327 H 31.593 -1.94767 -0.626645 0
M  V30 328 H 31.603 -2.88245 -2.88754 0
M  V30 329 H 30.278 -3.63727 -2.01682 0
M  V30 330 H 28.855 -2.13168 -3.05964 0
M  V30 331 N 31.0401 0.771051 -1.3745 0
M  V30 332 C 31.9701 1.89827 -1.3597 0
M  V30 333 C 32.9511 1.68562 -0.228216 0
M  V30 334 O 34.1361 1.8941 -0.428675 0
M  V30 335 C 31.2661 3.2712 -1.16662 0
M  V30 336 C 30.2201 3.6295 -2.2683 0
M  V30 337 C 29.5461 4.98791 -1.92644 0
M  V30 338 C 30.8461 3.69627 -3.69017 0
M  V30 339 H 32.5401 1.91323 -2.30295 0
M  V30 340 H 30.0861 0.919082 -1.10855 0
M  V30 341 H 32.0391 4.05615 -1.14256 0
M  V30 342 H 30.7631 3.26059 -0.187926 0
M  V30 343 H 29.4221 2.86763 -2.28392 0
M  V30 344 H 29.0701 4.94271 -0.933021 0
M  V30 345 H 28.7701 5.23733 -2.66416 0
M  V30 346 H 30.2941 5.79685 -1.91826 0
M  V30 347 H 31.7081 4.38273 -3.69581 0
M  V30 348 H 30.1051 4.06067 -4.41848 0
M  V30 349 H 31.1751 2.70273 -4.02592 0
M  V30 350 N 32.5182 1.22032 0.997298 0
M  V30 351 C 33.4282 1.00271 2.12092 0
M  V30 352 C 34.4442 -0.047621 1.73935 0
M  V30 353 O 35.6202 0.144136 2.00884 0
M  V30 354 C 32.6852 0.578449 3.4184 0
M  V30 355 C 31.7462 1.70189 3.94125 0
M  V30 356 C 30.9792 1.29778 5.17681 0
M  V30 357 O 31.2022 0.174676 5.70132 0
M  V30 358 O 30.1362 2.11261 5.63607 0
M  V30 359 H 33.9622 1.94398 2.3333 0
M  V30 360 H 31.5472 1.00587 1.10465 0
M  V30 361 H 33.4292 0.351998 4.19927 0
M  V30 362 H 32.1042 -0.334019 3.21972 0
M  V30 363 H 31.0112 1.98282 3.1723 0
M  V30 364 H 32.3442 2.59206 4.18417 0
M  V30 365 N 33.9963 -1.19345 1.0293 0
M  V30 366 C 34.9593 -2.20793 0.615069 0
M  V30 367 C 35.9593 -1.57553 -0.321533 0
M  V30 368 O 37.1493 -1.73862 -0.108483 0
M  V30 369 C 34.2813 -3.40754 -0.0999222 0
M  V30 370 H 35.4743 -2.58955 1.51269 0
M  V30 371 H 33.0273 -1.3303 0.820534 0
M  V30 372 H 33.7623 -3.0811 -1.01187 0
M  V30 373 H 33.5473 -3.87889 0.57309 0
M  V30 374 H 35.0373 -4.15898 -0.376645 0
M  V30 375 N 35.4744 -0.807222 -1.35358 0
M  V30 376 C 36.6994 -0.399309 -2.0352 0
M  V30 377 C 37.1244 0.981986 -1.60433 0
M  V30 378 O 36.4824 1.63601 -0.781299 0
M  V30 379 C 36.5304 -0.491552 -3.57234 0
M  V30 380 O 35.6344 0.494754 -4.09421 0
M  V30 381 H 34.9754 -0.166682 -0.642739 0
M  V30 382 H 37.5054 -1.09328 -1.72941 0
M  V30 383 H 37.5154 -0.361588 -4.06395 0
M  V30 384 H 36.1904 -1.49907 -3.87944 0
M  V30 385 H 34.7674 0.324977 -3.71481 0
M  V30 386 N 36.9525 1.47285 -0.560781 0
M  V30 387 C 37.8625 2.33846 0.187954 0
M  V30 388 C 38.8785 1.48412 0.908293 0
M  V30 389 O 40.0545 1.81332 0.876388 0
M  V30 390 C 37.1195 3.25178 1.2025 0
M  V30 391 C 36.1805 4.26504 0.489208 0
M  V30 392 C 35.4135 5.13472 1.45542 0
M  V30 393 O 35.6365 5.02959 2.6905 0
M  V30 394 O 34.5705 5.93902 0.977963 0
M  V30 395 H 38.3965 2.99177 -0.522177 0
M  V30 396 H 35.9815 1.45903 -0.321364 0
M  V30 397 H 37.8635 3.81584 1.78805 0
M  V30 398 H 36.5385 2.6247 1.89449 0
M  V30 399 H 35.4455 3.73847 -0.137627 0
M  V30 400 H 36.7785 4.91935 -0.161399 0
M  V30 401 N 38.4306 0.297415 1.54768 0
M  V30 402 C 39.3406 -0.58983 2.27064 0
M  V30 403 C 40.3566 -1.15144 1.30453 0
M  V30 404 O 41.5326 -1.17699 1.63428 0
M  V30 405 C 38.5976 -1.74714 2.9946 0
M  V30 406 C 37.6586 -1.21997 4.11601 0
M  V30 407 C 36.8916 -2.32212 4.80535 0
M  V30 408 O 37.1146 -3.52036 4.48806 0
M  V30 409 O 36.0486 -1.99106 5.68014 0
M  V30 410 H 39.8746 -0.00348199 3.037 0
M  V30 411 H 37.4596 0.0640035 1.49263 0
M  V30 412 H 39.3416 -2.42147 3.44881 0
M  V30 413 H 38.0166 -2.32016 2.25722 0
M  V30 414 H 36.9236 -0.511458 3.70587 0
M  V30 415 H 38.2566 -0.692419 4.87305 0
M  V30 416 N 39.9087 -1.5758 0.0250728 0
M  V30 417 C 41.1547 -1.91917 -0.655413 0
M  V30 418 C 41.4877 -0.901433 -1.72011 0
M  V30 419 O 40.7627 0.0764069 -1.9435 0
M  V30 420 C 41.0457 -3.36751 -1.27558 0
M  V30 421 C 40.8987 -4.49258 -0.220719 0
M  V30 422 C 42.2177 -3.81469 -2.19475 0
M  V30 423 H 39.3367 -0.697925 -0.23679 0
M  V30 424 H 41.9787 -1.89825 0.0815036 0
M  V30 425 H 40.1287 -3.38664 -1.90365 0
M  V30 426 H 41.8007 -4.59478 0.409601 0
M  V30 427 H 40.0437 -4.31415 0.454264 0
M  V30 428 H 40.7147 -5.47618 -0.694175 0
M  V30 429 H 43.1907 -3.81266 -1.66659 0
M  V30 430 H 42.0667 -4.83512 -2.59822 0
M  V30 431 H 42.3277 -3.16744 -3.08424 0
M  V30 432 N 41.3868 0.248026 -1.55636 0
M  V30 433 C 42.2968 1.32859 -1.93354 0
M  V30 434 C 43.3128 1.52719 -0.833838 0
M  V30 435 O 44.4888 1.66363 -1.13513 0
M  V30 436 C 41.5538 2.66337 -2.21958 0
M  V30 437 C 40.6148 2.55008 -3.45354 0
M  V30 438 C 39.8478 3.82121 -3.72584 0
M  V30 439 O 40.0708 4.83951 -3.01907 0
M  V30 440 O 39.0048 3.80822 -4.6611 0
M  V30 441 H 42.8308 1.03862 -2.85388 0
M  V30 442 H 40.4158 0.448686 -1.42503 0
M  V30 443 H 42.2978 3.45216 -2.4167 0
M  V30 444 H 40.9728 2.95068 -1.33103 0
M  V30 445 H 39.8798 1.7442 -3.30951 0
M  V30 446 H 41.2128 2.31222 -4.34508 0
M  V30 447 N 42.8649 1.48995 0.513639 0
M  V30 448 C 43.7949 1.67636 1.62544 0
M  V30 449 C 44.7759 0.525087 1.61793 0
M  V30 450 O 45.9609 0.759502 1.78732 0
M  V30 451 C 43.0909 1.73114 3.01079 0
M  V30 452 C 42.0449 2.87905 3.16693 0
M  V30 453 C 41.3709 2.78486 4.56453 0
M  V30 454 C 42.6709 4.29005 2.97913 0
M  V30 455 H 44.3649 2.60716 1.47198 0
M  V30 456 H 41.9109 1.25465 0.706714 0
M  V30 457 H 43.8639 1.84742 3.78746 0
M  V30 458 H 42.5879 0.766241 3.17484 0
M  V30 459 H 41.2469 2.75859 2.41448 0
M  V30 460 H 40.8949 1.7993 4.69717 0
M  V30 461 H 40.5949 3.55523 4.67843 0
M  V30 462 H 42.1189 2.92104 5.36197 0
M  V30 463 H 43.5329 4.41798 3.65359 0
M  V30 464 H 41.9299 5.07166 3.20785 0
M  V30 465 H 42.9999 4.44329 1.94165 0
M  V30 466 N 44.343 -0.763751 1.37857 0
M  V30 467 C 45.253 -1.90817 1.36478 0
M  V30 468 C 46.269 -1.71997 0.263248 0
M  V30 469 O 47.445 -1.95095 0.499979 0
M  V30 470 C 44.51 -3.2605 1.17864 0
M  V30 471 C 43.571 -3.57467 2.3773 0
M  V30 472 C 42.804 -4.86249 2.19995 0
M  V30 473 O 43.027 -5.57884 1.18836 0
M  V30 474 O 41.961 -5.16911 3.08361 0
M  V30 475 H 45.787 -1.94933 2.32884 0
M  V30 476 H 43.372 -0.907619 1.1867 0
M  V30 477 H 45.254 -4.06924 1.09504 0
M  V30 478 H 43.929 -3.22769 0.245372 0
M  V30 479 H 42.836 -2.76796 2.51664 0
M  V30 480 H 44.169 -3.655 3.29652 0
M  V30 481 N 45.8211 -1.22559 -0.990812 0
M  V30 482 C 47.2321 -1.04791 -1.54518 0
M  V30 483 C 47.5831 0.387998 -1.92325 0
M  V30 484 O 46.7081 1.27328 -1.74976 0
M  V30 485 C 47.3031 -1.896 -2.80779 0
M  V30 486 C 45.8621 -1.76124 -3.32652 0
M  V30 487 C 45.0091 -1.8594 -2.05722 0
M  V30 488 H 47.9601 -1.36374 -0.811662 0
M  V30 489 H 47.9811 -1.41464 -3.53225 0
M  V30 490 H 47.4931 -2.94101 -2.53231 0
M  V30 491 H 45.5941 -0.743643 -3.65104 0
M  V30 492 H 45.7071 -2.58913 -4.03114 0
M  V30 493 H 44.0711 -1.29403 -2.19379 0
M  V30 494 H 44.8541 -2.91976 -1.80568 0
M  V30 495 N 47.2992 1.18797 -1.03562 0
M  V30 496 C 48.5392 1.90346 -0.744832 0
M  V30 497 C 48.9032 1.78231 0.713972 0
M  V30 498 O 50.1042 2.44441 1.11813 0
M  V30 499 C 48.3752 3.36942 -1.19184 0
M  V30 500 S 49.9342 4.26638 -1.02593 0
M  V30 501 H 46.7522 0.657343 -0.270963 0
M  V30 502 H 49.3542 1.43579 -1.32685 0
M  V30 503 H 48.0582 3.43287 -2.24905 0
M  V30 504 H 47.5892 3.88745 -0.603397 0
M  V30 505 H 49.6042 4.96164 0.0596033 0
M  V30 506 N 48.7773 0.814389 1.34928 0
M  V30 507 C 49.7073 0.244827 2.32213 0
M  V30 508 C 50.6883 -0.634024 1.57842 0
M  V30 509 O 51.8733 -0.562676 1.8587 0
M  V30 510 C 49.0033 -0.601106 3.42058 0
M  V30 511 C 47.9573 0.179896 4.27622 0
M  V30 512 C 47.2833 -0.788237 5.28858 0
M  V30 513 C 48.5833 1.38329 5.03649 0
M  V30 514 H 50.2773 1.05763 2.80097 0
M  V30 515 H 47.8233 0.510029 1.34665 0
M  V30 516 H 49.7763 -1.00968 4.09125 0
M  V30 517 H 48.5003 -1.44688 2.92802 0
M  V30 518 H 47.1593 0.569739 3.62146 0
M  V30 519 H 46.8073 -1.62973 4.75866 0
M  V30 520 H 46.5073 -0.269942 5.8698 0
M  V30 521 H 48.0313 -1.19485 5.98795 0
M  V30 522 H 49.4453 1.04918 5.63618 0
M  V30 523 H 47.8423 1.83662 5.71304 0
M  V30 524 H 48.9123 2.16592 4.33839 0
M  V30 525 N 50.2554 -1.46986 0.568584 0
M  V30 526 C 51.2184 -2.28624 -0.162366 0
M  V30 527 C 52.2184 -1.37596 -0.832103 0
M  V30 528 O 53.4084 -1.60115 -0.68622 0
M  V30 529 C 50.5404 -3.17596 -1.23878 0
M  V30 530 H 51.7334 -2.94722 0.554899 0
M  V30 531 H 49.2864 -1.52863 0.325976 0
M  V30 532 H 50.0214 -2.56214 -1.98808 0
M  V30 533 H 49.8064 -3.846 -0.763219 0
M  V30 534 H 51.2964 -3.79078 -1.75185 0
M  V30 535 N 51.7335 -0.305618 -1.54608 0
M  V30 536 C 53.1445 0.186098 -1.8577 0
M  V30 537 C 53.4955 1.53058 -1.22751 0
M  V30 538 O 52.6205 2.09888 -0.526893 0
M  V30 539 C 53.2155 0.344449 -3.37044 0
M  V30 540 C 51.7745 0.780384 -3.68221 0
M  V30 541 C 50.9215 -0.108554 -2.77087 0
M  V30 542 H 53.8725 -0.526485 -1.49712 0
M  V30 543 H 53.8935 1.17828 -3.61796 0
M  V30 544 H 53.4055 -0.634235 -3.82883 0
M  V30 545 H 51.5065 1.76945 -3.27904 0
M  V30 546 H 51.6195 0.596572 -4.75371 0
M  V30 547 H 49.9835 0.412931 -2.5133 0
M  V30 548 H 50.7665 -1.08368 -3.25747 0
M  V30 549 N 53.2116 1.57565 -0.0334293 0
M  V30 550 C 54.4366 1.96689 0.657895 0
M  V30 551 C 54.8616 0.910057 1.64619 0
M  V30 552 O 54.2196 -0.128598 1.80843 0
M  V30 553 C 54.2676 3.34905 1.33683 0
M  V30 554 O 53.3716 3.31574 2.45219 0
M  V30 555 H 52.7126 0.641205 0.172489 0
M  V30 556 H 55.2426 2.04372 -0.0965621 0
M  V30 557 H 55.2526 3.71234 1.69262 0
M  V30 558 H 53.9276 4.11366 0.612411 0
M  V30 559 H 52.5046 3.06968 2.11719 0
M  V30 560 N 54.6897 -0.239769 1.55765 0
M  V30 561 C 55.6197 -1.30052 1.9393 0
M  V30 562 C 56.6007 -1.49839 0.805132 0
M  V30 563 O 57.7857 -1.62328 1.06599 0
M  V30 564 C 54.9157 -2.65391 2.2402 0
M  V30 565 C 53.8697 -2.60289 3.39755 0
M  V30 566 C 53.1957 -3.99489 3.55405 0
M  V30 567 C 54.4957 -2.16654 4.75246 0
M  V30 568 H 56.1897 -0.983573 2.82783 0
M  V30 569 H 53.7357 -0.471701 1.36055 0
M  V30 570 H 55.6887 -3.3974 2.49308 0
M  V30 571 H 54.4127 -2.98736 1.32 0
M  V30 572 H 53.0717 -1.88398 3.14487 0
M  V30 573 H 52.7197 -4.30112 2.60793 0
M  V30 574 H 52.4197 -3.96962 4.33238 0
M  V30 575 H 53.9437 -4.75528 3.83022 0
M  V30 576 H 55.3577 -2.80737 4.99859 0
M  V30 577 H 53.7547 -2.25223 5.56232 0
M  V30 578 H 54.8247 -1.11835 4.71827 0
M  V30 579 N 56.1678 -1.49265 -0.50573 0
M  V30 580 C 57.0778 -1.68312 -1.63427 0
M  V30 581 C 58.0938 -0.565682 -1.64548 0
M  V30 582 O 59.2698 -0.839801 -1.83055 0
M  V30 583 C 56.3348 -1.74107 -2.99813 0
M  V30 584 C 55.3958 -2.97653 -3.09356 0
M  V30 585 C 54.6288 -3.03163 -4.39236 0
M  V30 586 O 54.8518 -2.16396 -5.27758 0
M  V30 587 O 53.7858 -3.9558 -4.53652 0
M  V30 588 H 57.6118 -2.63907 -1.50289 0
M  V30 589 H 55.1968 -1.32951 -0.681502 0
M  V30 590 H 57.0788 -1.803 -3.80881 0
M  V30 591 H 55.7538 -0.816901 -3.13223 0
M  V30 592 H 54.6608 -2.96981 -2.27493 0
M  V30 593 H 55.9938 -3.89535 -3.00871 0
M  V30 594 N 57.6459 0.756429 -1.3826 0
M  V30 595 C 58.5779 1.87971 -1.31147 0
M  V30 596 C 59.5909 1.61248 -0.224239 0
M  V30 597 O 60.7799 1.71881 -0.481581 0
M  V30 598 C 57.8799 3.23545 -1.00857 0
M  V30 599 C 57.0529 3.77794 -2.20432 0
M  V30 600 C 56.1119 4.91877 -1.86931 0
M  V30 601 O 55.1379 5.06659 -2.59395 0
M  V30 602 N 56.3399 5.74643 -0.822568 0
M  V30 603 H 59.1049 1.94585 -2.2794 0
M  V30 604 H 56.6659 0.936234 -1.32084 0
M  V30 605 H 58.6579 3.97403 -0.765021 0
M  V30 606 H 57.2279 3.12335 -0.128687 0
M  V30 607 H 56.4479 2.95534 -2.6087 0
M  V30 608 H 57.7359 4.10771 -3.00241 0
M  V30 609 H 57.1339 5.65266 -0.221575 0
M  V30 610 H 55.6909 6.48661 -0.638899 0
M  V30 611 N 59.124 1.23083 0.984299 0
M  V30 612 C 60.056 0.96636 2.07832 0
M  V30 613 C 61.069 -0.0582135 1.62696 0
M  V30 614 O 62.258 0.176843 1.77622 0
M  V30 615 C 59.358 0.433397 3.36117 0
M  V30 616 C 58.531 1.51722 4.10243 0
M  V30 617 C 57.59 0.989821 5.16807 0
M  V30 618 O 56.616 1.67794 5.43906 0
M  V30 619 N 57.818 -0.184367 5.80207 0
M  V30 620 H 60.583 1.90824 2.31098 0
M  V30 621 H 58.144 1.13888 1.1507 0
M  V30 622 H 60.136 0.065699 4.04647 0
M  V30 623 H 58.706 -0.413806 3.09849 0
M  V30 624 H 57.926 2.05786 3.36223 0
M  V30 625 H 59.214 2.24619 4.56534 0
M  V30 626 H 58.612 -0.760062 5.60571 0
M  V30 627 H 57.169 -0.493366 6.4993 0
M  V30 628 N 60.6021 -1.18246 1.0419 0
M  V30 629 C 61.5121 -2.25574 0.644476 0
M  V30 630 C 62.5281 -1.70845 -0.329826 0
M  V30 631 O 63.7041 -2.00554 -0.184443 0
M  V30 632 C 60.7691 -3.46697 0.014877 0
M  V30 633 C 59.8301 -4.16554 1.03834 0
M  V30 634 C 59.0631 -5.31894 0.438692 0
M  V30 635 O 59.2861 -5.65385 -0.754752 0
M  V30 636 O 58.2201 -5.90459 1.168 0
M  V30 637 H 62.0461 -2.61836 1.53869 0
M  V30 638 H 59.6311 -1.25352 0.812854 0
M  V30 639 H 61.5131 -4.20062 -0.335538 0
M  V30 640 H 60.1881 -3.12255 -0.853138 0
M  V30 641 H 59.0951 -3.45251 1.44057 0
M  V30 642 H 60.4281 -4.54998 1.87716 0
M  V30 643 N 62.0802 -0.821533 -1.34494 0
M  V30 644 C 63.0122 -0.199946 -2.28326 0
M  V30 645 C 64.0252 0.609377 -1.50965 0
M  V30 646 O 65.2142 0.439285 -1.7301 0
M  V30 647 C 62.3142 0.738431 -3.30757 0
M  V30 648 C 61.4872 -0.0277632 -4.37391 0
M  V30 649 C 60.5462 0.831332 -5.19591 0
M  V30 650 O 59.5722 0.276822 -5.68526 0
M  V30 651 N 60.7742 2.15132 -5.39165 0
M  V30 652 H 63.5392 -1.00609 -2.82308 0
M  V30 653 H 61.1002 -0.678366 -1.47003 0
M  V30 654 H 63.0922 1.31773 -3.82646 0
M  V30 655 H 61.6622 1.44533 -2.7718 0
M  V30 656 H 60.8822 -0.788359 -3.86236 0
M  V30 657 H 62.1702 -0.555251 -5.05761 0
M  V30 658 H 61.5682 2.62559 -5.01078 0
M  V30 659 H 60.1252 2.6795 -5.94177 0
M  V30 660 N 63.5583 1.46682 -0.576371 0
M  V30 661 C 64.4683 2.34032 0.163141 0
M  V30 662 C 65.4843 1.49367 0.892501 0
M  V30 663 O 66.6603 1.82252 0.857106 0
M  V30 664 C 63.7253 3.26435 1.16795 0
M  V30 665 C 62.7863 4.26998 0.443944 0
M  V30 666 C 62.0193 5.14986 1.40088 0
M  V30 667 O 62.2423 5.05785 2.637 0
M  V30 668 O 61.1763 5.94906 0.914917 0
M  V30 669 H 65.0023 2.98607 -0.55388 0
M  V30 670 H 62.5873 1.45554 -0.336821 0
M  V30 671 H 64.4693 3.83459 1.74748 0
M  V30 672 H 63.1443 2.64465 1.86655 0
M  V30 673 H 62.0513 3.7368 -0.177271 0
M  V30 674 H 63.3843 4.91736 -0.213566 0
M  V30 675 N 65.0364 0.313813 1.54444 0
M  V30 676 C 65.9664 -0.549454 2.26943 0
M  V30 677 C 66.9474 -1.12741 1.27372 0
M  V30 678 O 68.1324 -1.15436 1.56167 0
M  V30 679 C 65.2624 -1.71523 3.01989 0
M  V30 680 C 64.2164 -1.26703 4.08816 0
M  V30 681 C 63.5424 -2.51898 4.71647 0
M  V30 682 C 64.8424 -0.388962 5.2085 0
M  V30 683 H 66.5364 0.0552661 2.99349 0
M  V30 684 H 64.0824 0.0280207 1.43973 0
M  V30 685 H 66.0354 -2.32535 3.51433 0
M  V30 686 H 64.7594 -2.34639 2.27183 0
M  V30 687 H 63.4184 -0.679896 3.6024 0
M  V30 688 H 63.0664 -3.13356 3.93468 0
M  V30 689 H 62.7664 -2.22605 5.43802 0
M  V30 690 H 64.2904 -3.1369 5.23861 0
M  V30 691 H 65.7044 -0.905107 5.6611 0
M  V30 692 H 64.1014 -0.18924 5.99802 0
M  V30 693 H 65.1714 0.582699 4.81386 0
M  V30 694 N 66.5145 -1.57545 0.0417849 0
M  V30 695 C 67.7425 -1.96624 -0.643928 0
M  V30 696 C 68.1575 -0.918897 -1.64929 0
M  V30 697 O 67.5145 0.0979323 -1.82237 0
M  V30 698 C 67.5655 -3.35781 -1.33914 0
M  V30 699 O 67.2865 -4.365 -0.374048 0
M  V30 700 C 68.7875 -3.89566 -2.1155 0
M  V30 701 H 66.0075 -0.647316 -0.176702 0
M  V30 702 H 68.5515 -2.04229 0.105304 0
M  V30 703 H 66.7065 -3.29357 -2.03968 0
M  V30 704 H 67.1205 -5.17248 -0.869179 0
M  V30 705 H 68.5945 -4.89242 -2.55628 0
M  V30 706 H 69.0715 -3.24488 -2.9598 0
M  V30 707 H 69.6775 -3.99298 -1.46427 0
M  V30 708 N 67.9926 0.231505 -1.5589 0
M  V30 709 C 69.2386 0.95877 -1.78705 0
M  V30 710 C 69.5716 1.8438 -0.609725 0
M  V30 711 O 68.8466 1.90521 0.391426 0
M  V30 712 C 69.1296 1.8062 -3.11526 0
M  V30 713 C 68.9826 0.948328 -4.39689 0
M  V30 714 C 70.3016 2.78585 -3.40703 0
M  V30 715 H 67.4206 0.347129 -0.650131 0
M  V30 716 H 70.0626 0.228259 -1.88624 0
M  V30 717 H 68.2126 2.42902 -3.03201 0
M  V30 718 H 69.8846 0.343016 -4.60023 0
M  V30 719 H 68.1276 0.253314 -4.3306 0
M  V30 720 H 68.7986 1.57543 -5.29041 0
M  V30 721 H 71.2746 2.26439 -3.49091 0
M  V30 722 H 70.1506 3.34988 -4.34826 0
M  V30 723 H 70.4116 3.55825 -2.62375 0
M  V30 724 N 69.4707 1.49531 0.497807 0
M  V30 725 C 70.4337 1.65916 1.58128 0
M  V30 726 C 71.4337 0.530825 1.51786 0
M  V30 727 O 72.6237 0.797342 1.54881 0
M  V30 728 C 69.7557 1.65951 2.9778 0
M  V30 729 H 70.9487 2.62556 1.44929 0
M  V30 730 H 68.5017 1.38611 0.722275 0
M  V30 731 H 69.2367 0.709065 3.16453 0
M  V30 732 H 69.0217 2.47897 3.03792 0
M  V30 733 H 70.5117 1.80673 3.76493 0
M  V30 734 N 70.9488 -0.749086 1.3866 0
M  V30 735 C 71.8788 -1.8764 1.38973 0
M  V30 736 C 72.8598 -1.68178 0.255004 0
M  V30 737 O 74.0448 -1.88704 0.458754 0
M  V30 738 C 71.1748 -3.25222 1.21851 0
M  V30 739 C 70.1288 -3.59295 2.32575 0
M  V30 740 C 69.4548 -4.95663 2.00555 0
M  V30 741 C 70.7548 -3.63709 3.7485 0
M  V30 742 H 72.4488 -1.87635 2.3331 0
M  V30 743 H 69.9948 -0.901329 1.12303 0
M  V30 744 H 71.9478 -4.03746 1.20695 0
M  V30 745 H 70.6718 -3.25719 0.239775 0
M  V30 746 H 69.3308 -2.83093 2.32925 0
M  V30 747 H 68.9788 -4.92724 1.01154 0
M  V30 748 H 68.6788 -5.19429 2.74714 0
M  V30 749 H 70.2028 -5.7656 2.01024 0
M  V30 750 H 71.6168 -4.32338 3.76506 0
M  V30 751 H 70.0138 -3.98986 4.48252 0
M  V30 752 H 71.0838 -2.63834 4.06841 0
M  V30 753 N 72.4269 -1.23603 -0.977757 0
M  V30 754 C 73.6749 -1.06759 -1.71601 0
M  V30 755 C 73.9959 0.395929 -1.90938 0
M  V30 756 O 73.2659 1.28356 -1.47992 0
M  V30 757 H 71.8459 -0.392062 -0.635843 0
M  V30 758 H 74.5079 -1.55362 -1.1768 0
M  V30 759 H 73.6039 -1.55763 -2.70452 0
M  V30 760 N 73.905 1.17692 -1.04816 0
M  V30 761 C 74.837 2.21103 -0.603822 0
M  V30 762 C 75.85 1.59411 0.33046 0
M  V30 763 O 77.039 1.7807 0.12379 0
M  V30 764 C 74.139 3.38623 0.136898 0
M  V30 765 C 73.312 4.29888 -0.807137 0
M  V30 766 C 72.371 5.26088 -0.10836 0
M  V30 767 O 71.397 5.64353 -0.741232 0
M  V30 768 N 72.599 5.68882 1.15558 0
M  V30 769 H 75.364 2.59848 -1.49329 0
M  V30 770 H 72.925 1.32553 -0.929587 0
M  V30 771 H 74.917 4.00009 0.614401 0
M  V30 772 H 73.487 2.98508 0.927993 0
M  V30 773 H 72.707 3.65993 -1.46434 0
M  V30 774 H 73.995 4.87759 -1.44807 0
M  V30 775 H 73.393 5.39861 1.69015 0
M  V30 776 H 71.95 6.32429 1.57722 0
M  V30 777 N 75.3831 0.828654 1.34056 0
M  V30 778 C 76.7941 0.477534 1.8049 0
M  V30 779 C 77.1451 -1.00258 1.6865 0
M  V30 780 O 76.2701 -1.78057 1.22982 0
M  V30 781 C 76.8651 0.860018 3.27703 0
M  V30 782 C 75.4241 0.561185 3.72193 0
M  V30 783 C 74.5711 1.07385 2.55663 0
M  V30 784 H 77.5221 1.0183 1.21722 0
M  V30 785 H 77.5431 0.166038 3.80138 0
M  V30 786 H 77.0551 1.93731 3.36288 0
M  V30 787 H 75.1561 -0.506465 3.69142 0
M  V30 788 H 75.2691 1.10926 4.66082 0
M  V30 789 H 73.6331 0.495149 2.49841 0
M  V30 790 H 74.4161 2.15771 2.67016 0
M  V30 791 N 76.8612 -1.46375 0.584142 0
M  V30 792 C 78.1072 -2.02678 0.0703716 0
M  V30 793 C 78.4402 -1.4545 -1.28678 0
M  V30 794 O 77.7152 -0.62014 -1.84349 0
M  V30 795 C 77.9982 -3.60099 0.00614674 0
M  V30 796 C 77.8512 -4.27709 1.3923 0
M  V30 797 C 79.1702 -4.34598 -0.693742 0
M  V30 798 H 76.2892 -0.736504 0.027047 0
M  V30 799 H 78.9312 -1.74501 0.751615 0
M  V30 800 H 77.0812 -3.84236 -0.574009 0
M  V30 801 H 78.7532 -4.14832 2.01773 0
M  V30 802 H 76.9962 -3.87016 1.95962 0
M  V30 803 H 77.6672 -5.36478 1.29982 0
M  V30 804 H 80.1432 -4.15615 -0.200869 0
M  V30 805 H 79.0192 -5.44318 -0.707714 0
M  V30 806 H 79.2802 -4.05759 -1.75533 0
M  V30 807 N 78.3393 -0.321999 -1.54275 0
M  V30 808 C 79.7553 0.0306999 -1.5957 0
M  V30 809 C 79.9553 1.50614 -1.33857 0
M  V30 810 O 79.0113 2.2619 -1.12223 0
M  V30 811 C 80.3243 -0.386122 -2.98211 0
M  V30 812 C 81.8723 -0.336647 -3.11184 0
M  V30 813 C 82.3473 -0.728607 -4.52167 0
M  V30 814 N 83.8383 -0.681952 -4.58152 0
M  V30 815 C 84.5733 -0.957449 -5.6535 0
M  V30 816 N 84.0693 -1.3 -6.80494 0
M  V30 817 N 85.8623 -0.883113 -5.55119 0
M  V30 818 H 78.0133 -1.28332 -1.69247 0
M  V30 819 H 80.2763 -0.521716 -0.791528 0
M  V30 820 H 79.9823 -1.41404 -3.22022 0
M  V30 821 H 79.8563 0.249662 -3.76373 0
M  V30 822 H 82.2433 0.682058 -2.8711 0
M  V30 823 H 82.3243 -1.00734 -2.3513 0
M  V30 824 H 81.9683 -1.74522 -4.76974 0
M  V30 825 H 81.8983 -0.0356152 -5.26588 0
M  V30 826 H 84.3893 -0.428985 -3.75457 0
M  V30 827 H 84.7023 -1.49563 -7.58189 0
M  V30 828 H 83.0473 -1.33824 -6.81994 0
M  V30 829 H 86.2383 -0.615001 -4.64042 0
M  V30 830 H 86.4113 -1.10118 -6.38575 0
M  V30 831 N 79.8174 1.5752 -0.0501392 0
M  V30 832 C 80.7474 2.14502 0.922566 0
M  V30 833 C 81.7284 1.06642 1.3252 0
M  V30 834 O 82.9134 1.34577 1.4001 0
M  V30 835 C 80.0434 2.68916 2.19776 0
M  V30 836 C 78.9974 3.8175 1.93523 0
M  V30 837 C 78.3234 4.22677 3.27487 0
M  V30 838 C 79.6234 5.06932 1.25765 0
M  V30 839 H 81.3174 2.9603 0.447952 0
M  V30 840 H 78.8634 1.42401 0.214024 0
M  V30 841 H 80.8164 3.07419 2.88222 0
M  V30 842 H 79.5404 1.84578 2.69441 0
M  V30 843 H 78.1994 3.43718 1.27489 0
M  V30 844 H 77.8474 3.35291 3.74952 0
M  V30 845 H 77.5474 4.98725 3.1072 0
M  V30 846 H 79.0714 4.63779 3.97166 0
M  V30 847 H 80.4854 5.42888 1.84244 0
M  V30 848 H 78.8824 5.88116 1.19328 0
M  V30 849 H 79.9524 4.84337 0.233536 0
M  V30 850 N 81.2955 -0.223234 1.56011 0
M  V30 851 C 82.5355 -0.954962 1.8072 0
M  V30 852 C 82.8995 -1.81598 0.623384 0
M  V30 853 O 84.1005 -2.58132 0.749745 0
M  V30 854 C 82.3715 -1.77313 3.10314 0
M  V30 855 S 83.9305 -2.56073 3.56332 0
M  V30 856 H 80.7485 -0.320812 0.634508 0
M  V30 857 H 83.3505 -0.220686 1.9425 0
M  V30 858 H 82.0545 -1.13071 3.94516 0
M  V30 859 H 81.5855 -2.54974 2.99586 0
M  V30 860 H 83.6005 -3.79619 3.19536 0
M  V30 861 N 82.7736 -1.49793 -0.48987 0
M  V30 862 C 84.0136 -1.61466 -1.25332 0
M  V30 863 C 84.3776 -0.299688 -1.89647 0
M  V30 864 O 85.5786 -0.291687 -2.67213 0
M  V30 865 C 83.8496 -2.74944 -2.28343 0
M  V30 866 S 85.4086 -3.06637 -3.13878 0
M  V30 867 H 82.2266 -0.569411 -0.425784 0
M  V30 868 H 84.8286 -1.875 -0.553541 0
M  V30 869 H 83.5326 -3.68994 -1.79643 0
M  V30 870 H 83.0636 -2.50938 -3.02975 0
M  V30 871 H 85.0786 -2.49015 -4.29192 0
M  V30 872 N 84.2517 0.741722 -1.39055 0
M  V30 873 C 85.4997 1.49818 -1.35643 0
M  V30 874 C 85.8207 1.94938 0.0491642 0
M  V30 875 O 85.0907 1.68505 0.999141 0
M  V30 876 H 83.6707 0.555755 -0.499144 0
M  V30 877 H 86.3327 0.880957 -1.73854 0
M  V30 878 H 85.4287 2.38348 -2.01486 0
M  V30 879 N 85.7298 1.2412 0.971189 0
M  V30 880 C 87.1458 1.00584 1.23916 0
M  V30 881 C 87.3458 -0.287481 1.99439 0
M  V30 882 O 86.4018 -1.00454 2.31658 0
M  V30 883 C 87.7148 2.21864 2.0297 0
M  V30 884 C 89.2628 2.26452 2.16076 0
M  V30 885 C 89.7378 3.47343 2.98524 0
M  V30 886 N 91.2288 3.47639 3.06107 0
M  V30 887 C 91.9638 4.37837 3.70251 0
M  V30 888 N 91.4598 5.38286 4.36142 0
M  V30 889 N 93.2528 4.25558 3.67228 0
M  V30 890 H 85.4038 2.07236 0.465499 0
M  V30 891 H 87.6668 0.909236 0.268315 0
M  V30 892 H 87.3728 3.15771 1.54861 0
M  V30 893 H 87.2468 2.23698 3.03709 0
M  V30 894 H 89.6338 1.33078 2.6339 0
M  V30 895 H 89.7148 2.28645 1.14696 0
M  V30 896 H 89.3588 4.41029 2.51905 0
M  V30 897 H 89.2888 3.42393 4.00093 0
M  V30 898 H 91.7798 2.74966 2.59233 0
M  V30 899 H 92.0928 6.03352 4.82894 0
M  V30 900 H 90.4378 5.42176 4.34822 0
M  V30 901 H 93.6288 3.46322 3.14927 0
M  V30 902 H 93.8018 4.96054 4.16935 0
M  V30 903 N 87.2079 -1.17134 1.05439 0
M  V30 904 C 88.1709 -2.19439 0.661764 0
M  V30 905 C 89.1709 -1.58199 -0.288042 0
M  V30 906 O 90.3609 -1.74053 -0.0715803 0
M  V30 907 C 87.4929 -3.40889 -0.0276209 0
M  V30 908 H 88.6859 -2.55688 1.56728 0
M  V30 909 H 86.2389 -1.31259 0.848567 0
M  V30 910 H 86.9739 -3.10187 -0.94629 0
M  V30 911 H 86.7589 -3.86586 0.655238 0
M  V30 912 H 88.2489 -4.16603 -0.288342 0
M  V30 913 N 88.686 -0.835752 -1.33615 0
M  V30 914 C 89.596 -0.269088 -2.33052 0
M  V30 915 C 90.612 0.603251 -1.63208 0
M  V30 916 O 91.788 0.508112 -1.94885 0
M  V30 917 C 88.853 0.549091 -3.42324 0
M  V30 918 C 87.914 -0.347156 -4.27894 0
M  V30 919 C 87.147 0.43207 -5.31948 0
M  V30 920 O 87.37 1.66409 -5.45586 0
M  V30 921 O 86.304 -0.192298 -6.01593 0
M  V30 922 H 90.13 -1.09243 -2.83372 0
M  V30 923 H 87.715 -0.598198 -1.36901 0
M  V30 924 H 89.597 1.01414 -4.09015 0
M  V30 925 H 88.272 1.34955 -2.94226 0
M  V30 926 H 87.179 -0.859979 -3.64081 0
M  V30 927 H 88.512 -1.1123 -4.79467 0
M  V30 928 N 90.1641 1.46063 -0.591896 0
M  V30 929 C 91.5801 1.57561 -0.254288 0
M  V30 930 C 91.7801 1.58565 1.24336 0
M  V30 931 O 90.8361 1.50753 2.02558 0
M  V30 932 C 92.1491 2.86549 -0.911611 0
M  V30 933 C 93.6971 3.00197 -0.886059 0
M  V30 934 C 94.1721 4.31933 -1.5231 0
M  V30 935 N 95.6631 4.38654 -1.48786 0
M  V30 936 C 96.3981 5.39222 -1.95006 0
M  V30 937 N 95.8941 6.46414 -2.49241 0
M  V30 938 N 97.6871 5.3048 -1.85868 0
M  V30 939 H 89.8381 1.43655 -1.56451 0
M  V30 940 H 92.1011 0.68583 -0.654478 0
M  V30 941 H 91.8071 2.91651 -1.96551 0
M  V30 942 H 91.6811 3.74794 -0.425368 0
M  V30 943 H 94.0681 2.9467 0.159246 0
M  V30 944 H 94.1491 2.13403 -1.41041 0
M  V30 945 H 93.7931 4.38217 -2.56765 0
M  V30 946 H 93.7231 5.17516 -0.973891 0
M  V30 947 H 96.2141 3.61793 -1.09151 0
M  V30 948 H 96.5271 7.19376 -2.82344 0
M  V30 949 H 94.8721 6.47208 -2.53272 0
M  V30 950 H 98.0631 4.45643 -1.43248 0
M  V30 951 H 98.2361 6.08711 -2.22204 0
M  V30 952 N 91.6422 0.330177 1.54103 0
M  V30 953 C 92.8902 -0.269871 2.0029 0
M  V30 954 C 93.2112 -1.52133 1.21986 0
M  V30 955 O 92.4812 -1.93212 0.323438 0
M  V30 956 H 91.0612 -0.10271 0.739905 0
M  V30 957 H 93.7232 0.448249 1.89675 0
M  V30 958 H 92.8192 -0.52166 3.07709 0
M  V30 959 N 93.1203 -1.57491 0.0584922 0
M  V30 960 C 94.3683 -1.92597 -0.612436 0
M  V30 961 C 94.6893 -0.938162 -1.70949 0
M  V30 962 O 93.9593 0.0158301 -1.95894 0
M  V30 963 H 92.5393 -0.710964 -0.229214 0
M  V30 964 H 95.2013 -1.94571 0.113218 0
M  V30 965 H 94.2973 -2.94038 -1.04633 0
M  V30 966 N 94.5984 0.214957 -1.56127 0
M  V30 967 C 95.5484 1.27006 -1.8935 0
M  V30 968 C 96.5324 1.41969 -0.757202 0
M  V30 969 O 97.7244 1.44673 -1.01973 0
M  V30 970 C 94.8534 2.61911 -2.2194 0
M  V30 971 C 93.9394 2.50822 -3.41978 0
M  V30 972 N 94.3304 2.09391 -4.60423 0
M  V30 973 C 92.6284 2.81765 -3.45723 0
M  V30 974 C 93.3294 2.09712 -5.42582 0
M  V30 975 N 92.3054 2.50454 -4.82466 0
M  V30 976 H 96.1074 0.940734 -2.78437 0
M  V30 977 H 93.6214 0.423492 -1.56781 0
M  V30 978 H 95.6184 3.38096 -2.43919 0
M  V30 979 H 94.2784 2.95684 -1.34169 0
M  V30 980 H 95.2894 1.80416 -4.85459 0
M  V30 981 H 91.9664 3.19865 -2.68314 0
M  V30 982 H 93.3564 1.79748 -6.4741 0
M  V30 983 N 96.0765 1.50051 0.48192 0
M  V30 984 C 97.3225 1.61706 1.2338 0
M  V30 985 C 97.6775 0.308488 1.89911 0
M  V30 986 O 96.9705 -0.692798 1.78636 0
M  V30 987 C 97.1645 2.72717 2.30998 0
M  V30 988 C 96.9935 4.14242 1.75024 0
M  V30 989 C 95.7635 4.80786 1.55476 0
M  V30 990 C 97.9615 4.98846 1.25128 0
M  V30 991 N 95.9435 6.06563 0.946311 0
M  V30 992 C 97.3145 6.15258 0.765382 0
M  V30 993 C 99.3695 4.84702 1.13881 0
M  V30 994 C 98.0725 7.19079 0.178113 0
M  V30 995 C 100.098 5.8869 0.565486 0
M  V30 996 C 99.4605 7.04343 0.0899105 0
M  V30 997 H 95.5595 0.645958 0.440753 0
M  V30 998 H 98.1435 1.8713 0.537624 0
M  V30 999 H 96.3145 2.49033 2.98055 0
M  V30 1000 H 98.0465 2.73789 2.9803 0
M  V30 1001 H 94.8015 4.37899 1.80392 0
M  V30 1002 H 95.2255 6.73767 0.660812 0
M  V30 1003 H 99.8675 3.95583 1.49244 0
M  V30 1004 H 97.5855 8.07882 -0.187749 0
M  V30 1005 H 101.171 5.79808 0.480974 0
M  V30 1006 H 100.051 7.83433 -0.346782 0
M  V30 1007 N 97.5546 -0.734337 1.39446 0
M  V30 1008 C 98.7846 -1.52137 1.39778 0
M  V30 1009 C 99.1926 -1.89198 -0.00929312 0
M  V30 1010 O 98.5356 -1.54666 -0.991168 0
M  V30 1011 C 98.5976 -2.83762 2.20724 0
M  V30 1012 C 98.2616 -2.69131 3.69347 0
M  V30 1013 C 99.2586 -2.37635 4.62413 0
M  V30 1014 C 96.9436 -2.85982 4.1294 0
M  V30 1015 C 98.9376 -2.23172 5.97054 0
M  V30 1016 C 96.6246 -2.71137 5.47657 0
M  V30 1017 C 97.6226 -2.39777 6.39528 0
M  V30 1018 O 97.3106 -2.25026 7.71763 0
M  V30 1019 H 97.0426 -0.476717 0.479288 0
M  V30 1020 H 99.5966 -0.915012 1.83893 0
M  V30 1021 H 97.8266 -3.4666 1.71359 0
M  V30 1022 H 99.5156 -3.45383 2.13226 0
M  V30 1023 H 100.282 -2.24267 4.30034 0
M  V30 1024 H 96.1606 -3.09383 3.41765 0
M  V30 1025 H 99.7046 -1.98617 6.68728 0
M  V30 1026 H 95.6016 -2.84083 5.79626 0
M  V30 1027 H 96.3696 -2.40091 7.82495 0
M  V30 1028 N 99.0327 -1.24633 -0.964593 0
M  V30 1029 C 99.9797 -1.04144 -2.05968 0
M  V30 1030 C 100.95 0.046262 -1.66036 0
M  V30 1031 O 102.135 -0.108972 -1.90489 0
M  V30 1032 C 99.2747 -0.65563 -3.38815 0
M  V30 1033 C 98.3877 -1.81714 -3.91923 0
M  V30 1034 C 97.5227 -1.37662 -5.13052 0
M  V30 1035 C 96.5617 -2.50788 -5.58365 0
M  V30 1036 N 95.6987 -2.07582 -6.70712 0
M  V30 1037 H 100.539 -1.9787 -2.22827 0
M  V30 1038 H 98.0757 -0.9855 -1.09208 0
M  V30 1039 H 100.034 -0.412954 -4.15151 0
M  V30 1040 H 98.6637 0.244627 -3.21872 0
M  V30 1041 H 97.7157 -2.1734 -3.12198 0
M  V30 1042 H 99.0277 -2.66705 -4.21509 0
M  V30 1043 H 98.1817 -1.093 -5.96773 0
M  V30 1044 H 96.9207 -0.497293 -4.85158 0
M  V30 1045 H 95.9257 -2.79906 -4.73215 0
M  V30 1046 H 97.1507 -3.39283 -5.88272 0
M  V30 1047 H 95.0967 -1.22051 -6.44546 0
M  V30 1048 H 95.0137 -2.86125 -6.99763 0
M  V30 1049 H 96.2817 -1.82369 -7.57867 0
M  V30 1050 N 100.511 1.16574 -1.06058 0
M  V30 1051 C 101.421 2.2452 -0.680282 0
M  V30 1052 C 102.437 1.71348 0.302604 0
M  V30 1053 O 103.613 2.00822 0.152513 0
M  V30 1054 C 100.678 3.46629 -0.0700315 0
M  V30 1055 C 99.7388 4.14849 -1.10448 0
M  V30 1056 C 98.9718 5.31129 -0.523256 0
M  V30 1057 O 99.1948 5.66514 0.664709 0
M  V30 1058 O 98.1288 5.88526 -1.26179 0
M  V30 1059 H 101.955 2.59355 -1.58015 0
M  V30 1060 H 99.5398 1.24043 -0.832694 0
M  V30 1061 H 101.422 4.20543 0.268667 0
M  V30 1062 H 100.097 3.13573 0.803353 0
M  V30 1063 H 99.0038 3.42916 -1.49532 0
M  V30 1064 H 100.337 4.51954 -1.94931 0
M  V30 1065 N 101.989 0.842826 1.3317 0
M  V30 1066 C 103.237 0.439577 1.97262 0
M  V30 1067 C 103.558 -1.00548 1.67078 0
M  V30 1068 O 102.828 -1.70098 0.971779 0
M  V30 1069 H 101.408 0.159558 0.72976 0
M  V30 1070 H 104.07 1.07665 1.62463 0
M  V30 1071 H 103.166 0.574886 3.0676 0
M  V30 1072 N 103.467 -1.45747 0.599634 0
M  V30 1073 C 104.692 -2.07178 0.0960198 0
M  V30 1074 C 105.117 -1.44268 -1.207 0
M  V30 1075 O 104.475 -0.532503 -1.73303 0
M  V30 1076 C 104.523 -3.60579 -0.0385348 0
M  V30 1077 O 103.627 -3.97713 -1.0908 0
M  V30 1078 H 102.968 -0.660251 0.0704593 0
M  V30 1079 H 105.498 -1.87124 0.827385 0
M  V30 1080 H 105.508 -4.07298 -0.239304 0
M  V30 1081 H 104.183 -4.05756 0.912947 0
M  V30 1082 H 102.76 -3.62678 -0.867135 0
M  V30 1083 N 104.945 -0.338344 -1.53925 0
M  V30 1084 C 106.361 0.0137736 -1.59594 0
M  V30 1085 C 106.561 1.49186 -1.35447 0
M  V30 1086 O 105.617 2.24987 -1.14616 0
M  V30 1087 C 106.93 -0.41773 -2.97784 0
M  V30 1088 C 108.478 -0.369633 -3.1081 0
M  V30 1089 C 108.953 -0.776524 -4.51369 0
M  V30 1090 N 110.444 -0.730506 -4.57403 0
M  V30 1091 C 111.179 -1.01736 -5.64303 0
M  V30 1092 N 110.675 -1.3721 -6.79077 0
M  V30 1093 N 112.468 -0.941942 -5.54151 0
M  V30 1094 H 104.619 -1.3012 -1.67876 0
M  V30 1095 H 106.882 -0.530082 -0.78595 0
M  V30 1096 H 106.588 -1.44811 -3.20504 0
M  V30 1097 H 106.462 0.209729 -3.76616 0
M  V30 1098 H 108.849 0.651568 -2.87817 0
M  V30 1099 H 108.93 -1.03223 -2.34049 0
M  V30 1100 H 108.574 -1.79571 -4.75096 0
M  V30 1101 H 108.504 -0.0914649 -5.26521 0
M  V30 1102 H 110.995 -0.468783 -3.74981 0
M  V30 1103 H 111.308 -1.57597 -7.5656 0
M  V30 1104 H 109.653 -1.4105 -6.80536 0
M  V30 1105 H 112.844 -0.664184 -4.63364 0
M  V30 1106 H 113.017 -1.16884 -6.37371 0
M  V30 1107 N 106.423 1.57458 -0.0668435 0
M  V30 1108 C 107.353 2.15468 0.899764 0
M  V30 1109 C 108.334 1.08042 1.31381 0
M  V30 1110 O 109.519 1.36054 1.38574 0
M  V30 1111 C 106.649 2.71232 2.16911 0
M  V30 1112 C 105.603 3.83781 1.89463 0
M  V30 1113 C 104.929 4.26127 3.22986 0
M  V30 1114 C 106.229 5.08238 1.20381 0
M  V30 1115 H 107.923 2.96488 0.416529 0
M  V30 1116 H 105.469 1.4262 0.198908 0
M  V30 1117 H 107.422 3.10458 2.84945 0
M  V30 1118 H 106.146 1.87426 2.67468 0
M  V30 1119 H 104.805 3.45051 1.23836 0
M  V30 1120 H 104.453 3.39249 3.71374 0
M  V30 1121 H 104.153 5.01993 3.05413 0
M  V30 1122 H 105.677 4.67966 3.92225 0
M  V30 1123 H 107.091 5.44811 1.78475 0
M  V30 1124 H 105.488 5.89349 1.13083 0
M  V30 1125 H 106.558 4.84558 0.182153 0
M  V30 1126 N 107.901 -0.206675 1.56239 0
M  V30 1127 C 108.864 -1.23976 1.92776 0
M  V30 1128 C 109.864 -1.39041 0.807729 0
M  V30 1129 O 111.054 -1.37051 1.0753 0
M  V30 1130 C 108.186 -2.61112 2.19165 0
M  V30 1131 H 109.379 -0.927764 2.85189 0
M  V30 1132 H 106.932 -0.447718 1.4975 0
M  V30 1133 H 107.667 -2.97386 1.29352 0
M  V30 1134 H 107.452 -2.51552 3.00772 0
M  V30 1135 H 108.942 -3.35633 2.48476 0
M  V30 1136 N 109.379 -1.50304 -0.473955 0
M  V30 1137 C 110.79 -1.54042 -1.0549 0
M  V30 1138 C 111.141 -0.342248 -1.93192 0
M  V30 1139 O 110.266 0.545157 -2.09421 0
M  V30 1140 C 110.861 -2.79152 -1.91989 0
M  V30 1141 C 109.42 -2.8558 -2.45196 0
M  V30 1142 C 108.567 -2.48295 -1.2347 0
M  V30 1143 H 111.518 -1.5661 -0.256693 0
M  V30 1144 H 111.539 -2.60845 -2.7702 0
M  V30 1145 H 111.051 -3.66339 -1.28131 0
M  V30 1146 H 109.152 -2.02738 -3.12615 0
M  V30 1147 H 109.265 -3.88403 -2.80499 0
M  V30 1148 H 107.629 -2.00669 -1.56856 0
M  V30 1149 H 108.412 -3.37787 -0.612789 0
M  V30 1150 N 110.857 0.726932 -1.39834 0
M  V30 1151 C 111.82 1.82269 -1.38962 0
M  V30 1152 C 112.82 1.58248 -0.285334 0
M  V30 1153 O 114.01 1.65499 -0.54366 0
M  V30 1154 C 111.142 3.20186 -1.17019 0
M  V30 1155 H 112.335 1.84443 -2.36476 0
M  V30 1156 H 109.888 0.931416 -1.25516 0
M  V30 1157 H 110.623 3.23669 -0.202204 0
M  V30 1158 H 110.408 3.3902 -1.96998 0
M  V30 1159 H 111.898 4.00235 -1.1917 0
M  V30 1160 N 112.336 1.25143 0.95797 0
M  V30 1161 C 113.584 1.09476 1.69881 0
M  V30 1162 C 113.905 -0.365502 1.91544 0
M  V30 1163 O 113.175 -1.25985 1.50015 0
M  V30 1164 H 111.755 0.402128 0.629525 0
M  V30 1165 H 114.417 1.57214 1.15194 0
M  V30 1166 H 113.513 1.60046 2.6794 0
M  V30 1167 N 113.814 -1.1601 1.06675 0
M  V30 1168 C 115.23 -1.38622 0.790948 0
M  V30 1169 C 115.43 -1.92109 -0.607965 0
M  V30 1170 O 114.486 -2.12239 -1.36787 0
M  V30 1171 C 115.799 -2.36347 1.85905 0
M  V30 1172 C 117.347 -2.50023 1.88301 0
M  V30 1173 C 117.822 -3.51033 2.94176 0
M  V30 1174 N 119.313 -3.58563 2.93235 0
M  V30 1175 C 120.048 -4.36521 3.71803 0
M  V30 1176 N 119.544 -5.17869 4.602 0
M  V30 1177 N 121.337 -4.31541 3.60178 0
M  V30 1178 H 113.488 -0.796294 1.96908 0
M  V30 1179 H 115.751 -0.412597 0.853503 0
M  V30 1180 H 115.457 -2.04147 2.86386 0
M  V30 1181 H 115.331 -3.36042 1.71334 0
M  V30 1182 H 117.718 -2.81524 0.884769 0
M  V30 1183 H 117.799 -1.5035 2.06951 0
M  V30 1184 H 117.443 -3.20268 3.94196 0
M  V30 1185 H 117.373 -4.50445 2.72776 0
M  V30 1186 H 119.864 -3.00496 2.29152 0
M  V30 1187 H 120.177 -5.74578 5.16797 0
M  V30 1188 H 118.522 -5.17199 4.64253 0
M  V30 1189 H 121.713 -3.67051 2.90502 0
M  V30 1190 H 121.886 -4.9205 4.21653 0
M  V30 1191 N 115.292 -0.849877 -1.32721 0
M  V30 1192 C 116.538 -0.451591 -1.97708 0
M  V30 1193 C 116.871 0.989175 -1.6712 0
M  V30 1194 O 116.146 1.69334 -0.956891 0
M  V30 1195 C 116.429 -0.685598 -3.53513 0
M  V30 1196 C 116.282 -2.17444 -3.93749 0
M  V30 1197 C 117.601 -0.138874 -4.39881 0
M  V30 1198 H 114.72 -0.16555 -0.718166 0
M  V30 1199 H 117.362 -1.06742 -1.57182 0
M  V30 1200 H 115.512 -0.161416 -3.88165 0
M  V30 1201 H 117.184 -2.76433 -3.693 0
M  V30 1202 H 115.427 -2.65476 -3.43081 0
M  V30 1203 H 116.098 -2.28888 -5.02309 0
M  V30 1204 H 118.574 -0.587068 -4.11938 0
M  V30 1205 H 117.45 -0.332213 -5.47894 0
M  V30 1206 H 117.711 0.95806 -4.31594 0
M  V30 1207 N 116.77 1.45427 -0.607355 0
M  V30 1208 C 118.186 1.57283 -0.270985 0
M  V30 1209 C 118.386 1.59875 1.22647 0
M  V30 1210 O 117.442 1.52893 2.00948 0
M  V30 1211 C 118.755 2.85566 -0.941952 0
M  V30 1212 C 120.303 2.9924 -0.917849 0
M  V30 1213 C 120.778 4.30293 -1.56882 0
M  V30 1214 N 122.269 4.37051 -1.5343 0
M  V30 1215 C 123.004 5.37123 -2.00715 0
M  V30 1216 N 122.5 6.43734 -2.56084 0
M  V30 1217 N 124.293 5.28479 -1.91484 0
M  V30 1218 H 116.444 1.41988 -1.57966 0
M  V30 1219 H 118.707 0.67885 -0.661715 0
M  V30 1220 H 118.413 2.8955 -1.99633 0
M  V30 1221 H 118.287 3.74322 -0.465096 0
M  V30 1222 H 120.674 2.94822 0.127984 0
M  V30 1223 H 120.755 2.11895 -1.43297 0
M  V30 1224 H 120.399 4.35469 -2.61398 0
M  V30 1225 H 120.329 5.16454 -1.02873 0
M  V30 1226 H 122.82 3.60615 -1.12982 0
M  V30 1227 H 123.133 7.16341 -2.89958 0
M  V30 1228 H 121.478 6.44485 -2.60122 0
M  V30 1229 H 124.669 4.44098 -1.47967 0
M  V30 1230 H 124.842 6.0632 -2.28648 0
M  V30 1231 N 118.248 0.346503 1.53744 0
M  V30 1232 C 119.496 -0.248612 2.00565 0
M  V30 1233 C 119.817 -1.5083 1.23593 0
M  V30 1234 O 119.087 -1.92858 0.343912 0
M  V30 1235 H 117.667 -0.0948564 0.740953 0
M  V30 1236 H 120.329 0.468341 1.89189 0
M  V30 1237 H 119.425 -0.488994 3.08245 0
M  V30 1238 N 119.726 -1.57421 0.075193 0
M  V30 1239 C 120.972 -1.94716 -0.587998 0
M  V30 1240 C 121.327 -0.955205 -1.67014 0
M  V30 1241 O 120.62 0.0219842 -1.91587 0
M  V30 1242 C 120.814 -3.36428 -1.20626 0
M  V30 1243 C 120.643 -4.49317 -0.185541 0
M  V30 1244 C 119.413 -5.04772 0.23099 0
M  V30 1245 C 121.611 -5.11036 0.57854 0
M  V30 1246 N 119.593 -6.01204 1.24206 0
M  V30 1247 C 120.964 -6.02998 1.44199 0
M  V30 1248 C 123.019 -4.93844 0.634237 0
M  V30 1249 C 121.722 -6.79614 2.3562 0
M  V30 1250 C 123.748 -5.71106 1.53597 0
M  V30 1251 C 123.11 -6.6272 2.38709 0
M  V30 1252 H 119.209 -0.759536 -0.186089 0
M  V30 1253 H 121.793 -1.94097 0.153128 0
M  V30 1254 H 119.964 -3.37778 -1.9173 0
M  V30 1255 H 121.696 -3.60951 -1.8302 0
M  V30 1256 H 118.451 -4.73353 -0.152807 0
M  V30 1257 H 118.875 -6.54119 1.74521 0
M  V30 1258 H 123.517 -4.22799 -0.00960004 0
M  V30 1259 H 121.235 -7.49934 3.01038 0
M  V30 1260 H 124.821 -5.59824 1.58394 0
M  V30 1261 H 123.701 -7.2146 3.07352 0
M  V30 1262 N 121.204 0.198386 -1.56346 0
M  V30 1263 C 122.62 0.549085 -1.49857 0
M  V30 1264 C 122.82 1.86016 -0.774611 0
M  V30 1265 O 121.876 2.50416 -0.323776 0
M  V30 1266 C 123.189 0.606868 -2.94512 0
M  V30 1267 C 124.737 0.695925 -3.05165 0
M  V30 1268 C 125.212 0.784848 -4.51225 0
M  V30 1269 N 126.703 0.848463 -4.55363 0
M  V30 1270 C 127.438 0.937378 -5.65686 0
M  V30 1271 N 126.934 0.9888 -6.85707 0
M  V30 1272 N 128.727 0.974312 -5.53592 0
M  V30 1273 H 120.878 -0.661655 -2.01831 0
M  V30 1274 H 123.141 -0.235261 -0.918344 0
M  V30 1275 H 122.847 -0.28732 -3.50524 0
M  V30 1276 H 122.721 1.46268 -3.47686 0
M  V30 1277 H 125.108 1.58055 -2.49204 0
M  V30 1278 H 125.189 -0.186022 -2.55123 0
M  V30 1279 H 124.833 -0.0954072 -5.0781 0
M  V30 1280 H 124.763 1.68255 -4.98997 0
M  V30 1281 H 127.254 0.818103 -3.68938 0
M  V30 1282 H 127.567 1.05707 -7.65536 0
M  V30 1283 H 125.912 0.957534 -6.88372 0
M  V30 1284 H 129.103 0.930954 -4.58749 0
M  V30 1285 H 129.276 1.04015 -6.39597 0
M  V30 1286 N 122.682 1.50554 0.465978 0
M  V30 1287 C 123.93 1.61479 1.21528 0
M  V30 1288 C 124.251 0.319596 1.92363 0
M  V30 1289 O 123.521 -0.663194 1.84333 0
M  V30 1290 H 122.101 0.595055 0.451573 0
M  V30 1291 H 124.763 1.87355 0.53704 0
M  V30 1292 H 123.859 2.42846 1.96042 0
M  V30 1293 N 124.16 -0.719506 1.40217 0
M  V30 1294 C 125.576 -1.02707 1.22161 0
M  V30 1295 C 125.776 -2.0128 0.0940557 0
M  V30 1296 O 124.832 -2.46452 -0.549318 0
M  V30 1297 C 126.145 -1.57454 2.56181 0
M  V30 1298 C 127.693 -1.69458 2.63159 0
M  V30 1299 C 128.168 -2.27611 3.97438 0
M  V30 1300 N 129.659 -2.35002 3.99159 0
M  V30 1301 C 130.394 -2.80972 4.99842 0
M  V30 1302 N 129.89 -3.26723 6.10921 0
M  V30 1303 N 131.683 -2.80321 4.87213 0
M  V30 1304 H 123.834 -0.0660492 2.12297 0
M  V30 1305 H 126.097 -0.0919077 0.943534 0
M  V30 1306 H 125.803 -0.924873 3.39321 0
M  V30 1307 H 125.677 -2.56036 2.76993 0
M  V30 1308 H 128.064 -2.33543 1.80393 0
M  V30 1309 H 128.145 -0.694867 2.46181 0
M  V30 1310 H 127.789 -1.6415 4.80643 0
M  V30 1311 H 127.719 -3.2829 4.11744 0
M  V30 1312 H 130.21 -2.02685 3.18947 0
M  V30 1313 H 130.523 -3.60355 6.8364 0
M  V30 1314 H 128.868 -3.24692 6.14492 0
M  V30 1315 H 132.059 -2.43912 3.9953 0
M  V30 1316 H 132.232 -3.15831 5.65822 0
M  V30 1317 N 125.638 -1.25649 -0.95132 0
M  V30 1318 C 126.568 -1.08808 -2.06599 0
M  V30 1319 C 127.549 0.00382547 -1.701 0
M  V30 1320 O 128.734 -0.166325 -1.93486 0
M  V30 1321 C 125.864 -0.709542 -3.39975 0
M  V30 1322 C 124.818 -1.75206 -3.90496 0
M  V30 1323 C 124.144 -1.22811 -5.20405 0
M  V30 1324 C 125.444 -3.15153 -4.16504 0
M  V30 1325 H 127.138 -2.02048 -2.20946 0
M  V30 1326 H 124.684 -0.972835 -1.06169 0
M  V30 1327 H 126.637 -0.578649 -4.17408 0
M  V30 1328 H 125.361 0.258556 -3.25575 0
M  V30 1329 H 124.02 -1.87145 -3.15234 0
M  V30 1330 H 123.668 -0.250145 -5.02378 0
M  V30 1331 H 123.368 -1.92492 -5.55176 0
M  V30 1332 H 124.892 -1.10968 -6.00432 0
M  V30 1333 H 126.306 -3.06349 -4.84586 0
M  V30 1334 H 124.703 -3.82333 -4.62538 0
M  V30 1335 H 125.773 -3.61966 -3.22658 0
M  V30 1336 N 127.117 1.15442 -1.07289 0
M  V30 1337 C 128.027 2.23786 -0.704057 0
M  V30 1338 C 129.043 1.7166 0.284413 0
M  V30 1339 O 130.219 2.00972 0.131205 0
M  V30 1340 C 127.284 3.46535 -0.106792 0
M  V30 1341 C 126.345 4.13654 -1.14842 0
M  V30 1342 C 125.578 5.30544 -0.57956 0
M  V30 1343 O 125.801 5.67187 0.604585 0
M  V30 1344 O 124.735 5.87154 -1.32414 0
M  V30 1345 H 128.561 2.57664 -1.60757 0
M  V30 1346 H 126.146 1.23152 -0.845803 0
M  V30 1347 H 128.028 4.20804 0.224048 0
M  V30 1348 H 126.703 3.14407 0.770049 0
M  V30 1349 H 125.61 3.4131 -1.5316 0
M  V30 1350 H 126.943 4.49861 -1.99714 0
M  V30 1351 N 128.595 0.856903 1.32268 0
M  V30 1352 C 129.844 0.457599 1.96441 0
M  V30 1353 C 130.157 -0.992426 1.68553 0
M  V30 1354 O 131.363 -1.49727 2.26482 0
M  V30 1355 C 129.819 0.767358 3.51624 0
M  V30 1356 C 129.427 2.23326 3.88367 0
M  V30 1357 C 131.171 0.435887 4.22256 0
M  V30 1358 C 129.078 2.48613 5.36606 0
M  V30 1359 H 128.008 0.167387 0.735185 0
M  V30 1360 H 130.659 1.048 1.5063 0
M  V30 1361 H 129.041 0.106367 3.95857 0
M  V30 1362 H 130.215 2.93623 3.55137 0
M  V30 1363 H 128.53 2.52948 3.30766 0
M  V30 1364 H 131.127 0.602202 5.31298 0
M  V30 1365 H 131.47 -0.622672 4.11617 0
M  V30 1366 H 132.003 1.05286 3.83614 0
M  V30 1367 H 128.742 3.53101 5.52268 0
M  V30 1368 H 128.262 1.82896 5.71235 0
M  V30 1369 H 129.941 2.32676 6.03714 0
M  V30 1370 N 130.073 -1.45103 0.615059 0
M  V30 1371 C 131.036 -2.29025 -0.0895485 0
M  V30 1372 C 132.036 -1.40174 -0.787906 0
M  V30 1373 O 133.226 -1.62217 -0.634933 0
M  V30 1374 C 130.358 -3.21376 -1.13711 0
M  V30 1375 H 131.551 -2.92807 0.648382 0
M  V30 1376 H 129.104 -1.51749 0.374444 0
M  V30 1377 H 129.839 -2.6241 -1.90556 0
M  V30 1378 H 129.624 -3.86834 -0.640475 0
M  V30 1379 H 131.114 -3.84459 -1.63036 0
M  V30 1380 N 131.551 -0.354651 -1.53558 0
M  V30 1381 C 132.776 0.242153 -2.05981 0
M  V30 1382 C 133.201 1.42553 -1.2272 0
M  V30 1383 O 132.559 1.79656 -0.243604 0
M  V30 1384 C 132.607 0.624367 -3.55154 0
M  V30 1385 O 131.711 1.72301 -3.74681 0
M  V30 1386 H 131.052 0.0378432 -0.662921 0
M  V30 1387 H 133.582 -0.512087 -1.98088 0
M  V30 1388 H 133.592 0.898433 -3.97985 0
M  V30 1389 H 132.267 -0.240989 -4.15201 0
M  V30 1390 H 130.844 1.44535 -3.4375 0
M  V30 1391 N 133.029 1.57378 -0.0835403 0
M  V30 1392 C 134.276 1.9393 0.58287 0
M  V30 1393 C 134.604 0.964455 1.68904 0
M  V30 1394 O 133.859 -0.0179474 1.95692 0
M  V30 1395 C 134.158 3.37063 1.1884 0
M  V30 1396 C 133.824 4.50424 0.207194 0
M  V30 1397 C 132.486 4.81159 -0.0627115 0
M  V30 1398 C 134.838 5.19136 -0.463426 0
M  V30 1399 C 132.166 5.77939 -1.01012 0
M  V30 1400 C 134.518 6.16931 -1.39924 0
M  V30 1401 C 133.182 6.46078 -1.67749 0
M  V30 1402 H 132.452 0.70964 0.213287 0
M  V30 1403 H 135.099 1.90856 -0.156916 0
M  V30 1404 H 133.404 3.3666 2.00418 0
M  V30 1405 H 135.101 3.6264 1.71153 0
M  V30 1406 H 131.691 4.2646 0.427747 0
M  V30 1407 H 135.875 4.95576 -0.268034 0
M  V30 1408 H 131.131 5.98842 -1.23283 0
M  V30 1409 H 135.305 6.69273 -1.92476 0
M  V30 1410 H 132.932 7.2088 -2.41321 0
M  V30 1411 N 134.507 -0.190092 1.56449 0
M  V30 1412 C 135.437 -1.23816 1.97969 0
M  V30 1413 C 136.418 -1.47201 0.852395 0
M  V30 1414 O 137.603 -1.58854 1.1171 0
M  V30 1415 C 134.733 -2.5813 2.3235 0
M  V30 1416 C 133.687 -2.49348 3.47864 0
M  V30 1417 C 133.013 -3.8798 3.67934 0
M  V30 1418 C 134.313 -2.01424 4.81898 0
M  V30 1419 H 136.007 -0.89311 2.85769 0
M  V30 1420 H 133.553 -0.428177 1.37487 0
M  V30 1421 H 135.506 -3.31637 2.59991 0
M  V30 1422 H 134.23 -2.94386 1.41438 0
M  V30 1423 H 132.889 -1.78297 3.20321 0
M  V30 1424 H 132.537 -4.21597 2.74344 0
M  V30 1425 H 132.237 -3.82978 4.45648 0
M  V30 1426 H 133.761 -4.63101 3.97957 0
M  V30 1427 H 135.175 -2.64693 5.08538 0
M  V30 1428 H 133.572 -2.07413 5.63116 0
M  V30 1429 H 134.642 -0.967677 4.75146 0
M  V30 1430 N 135.985 -1.50799 -0.457987 0
M  V30 1431 C 137.396 -1.55152 -1.0385 0
M  V30 1432 C 137.747 -0.362719 -1.92818 0
M  V30 1433 O 136.872 0.522915 -2.09987 0
M  V30 1434 C 137.467 -2.81173 -1.89017 0
M  V30 1435 C 136.026 -2.88164 -2.42154 0
M  V30 1436 C 135.173 -2.49591 -1.20829 0
M  V30 1437 H 138.124 -1.56874 -0.240068 0
M  V30 1438 H 138.145 -2.63769 -2.74238 0
M  V30 1439 H 137.657 -3.67677 -1.24238 0
M  V30 1440 H 135.758 -2.06042 -3.10447 0
M  V30 1441 H 135.871 -3.91356 -2.76364 0
M  V30 1442 H 134.235 -2.02322 -1.54719 0
M  V30 1443 H 135.018 -3.38418 -0.576927 0
M  V30 1444 N 137.463 0.71206 -1.40597 0
M  V30 1445 C 138.373 1.8562 -1.43466 0
M  V30 1446 C 139.389 1.70902 -0.326902 0
M  V30 1447 O 140.565 1.93105 -0.572043 0
M  V30 1448 C 137.63 3.21451 -1.29884 0
M  V30 1449 C 136.691 3.48398 -2.50833 0
M  V30 1450 C 135.924 4.77749 -2.3789 0
M  V30 1451 O 136.147 5.53089 -1.39459 0
M  V30 1452 O 135.081 5.05111 -3.27333 0
M  V30 1453 H 138.907 1.86155 -2.39958 0
M  V30 1454 H 136.492 0.86295 -1.21957 0
M  V30 1455 H 138.374 4.02579 -1.24531 0
M  V30 1456 H 137.049 3.21636 -0.364997 0
M  V30 1457 H 135.956 2.67265 -2.61763 0
M  V30 1458 H 137.289 3.53014 -3.4299 0
M  V30 1459 N 138.941 1.26152 0.944643 0
M  V30 1460 C 140.218 1.02247 1.66748 0
M  V30 1461 C 140.598 -0.448202 2.06287 0
M  V30 1462 O 139.946 -1.42779 1.78399 0
M  V30 1463 C 140.156 1.96788 2.88228 0
M  V30 1464 C 141.504 2.25201 3.59958 0
M  V30 1465 O 142.528 1.94626 2.98327 0
M  V30 1466 O 141.387 2.77242 4.70956 0
M  V30 1467 H 138.481 0.388517 0.730057 0
M  V30 1468 H 141.027 1.37348 0.99668 0
M  V30 1469 H 139.799 2.96047 2.55875 0
M  V30 1470 H 139.422 1.62145 3.63035 0
M  V30 1471 N 140.419 -1.14872 1.07899 0
M  V30 1472 C 141.382 -2.17986 0.708161 0
M  V30 1473 C 142.382 -1.58775 -0.25442 0
M  V30 1474 O 143.572 -1.74166 -0.034645 0
M  V30 1475 C 140.704 -3.40871 0.0446929 0
M  V30 1476 H 141.897 -2.52306 1.62116 0
M  V30 1477 H 139.45 -1.2943 0.876218 0
M  V30 1478 H 140.185 -3.12124 -0.880281 0
M  V30 1479 H 139.97 -3.8511 0.737091 0
M  V30 1480 H 141.46 -4.17121 -0.19991 0
M  V30 1481 N 141.898 -0.863906 -1.31812 0
M  V30 1482 C 143.146 -0.470904 -1.96537 0
M  V30 1483 C 143.467 0.978771 -1.68657 0
M  V30 1484 O 142.737 1.6853 -0.998717 0
M  V30 1485 H 141.317 -0.171148 -0.72713 0
M  V30 1486 H 143.979 -1.10236 -1.60729 0
M  V30 1487 H 143.075 -0.623616 -3.05806 0
M  V30 1488 N 143.376 1.44774 -0.622745 0
M  V30 1489 C 144.792 1.56986 -0.287652 0
M  V30 1490 C 144.992 1.61167 1.20944 0
M  V30 1491 O 144.048 1.55015 1.99315 0
M  V30 1492 C 145.361 2.84551 -0.972188 0
M  V30 1493 C 146.909 2.9825 -0.949536 0
M  V30 1494 C 147.384 4.28605 -1.61437 0
M  V30 1495 N 148.875 4.35399 -1.58057 0
M  V30 1496 C 149.61 5.34964 -2.064 0
M  V30 1497 N 149.106 6.40981 -2.62897 0
M  V30 1498 N 150.899 5.26419 -1.97078 0
M  V30 1499 H 143.05 1.40304 -1.59463 0
M  V30 1500 H 145.313 0.671794 -0.668878 0
M  V30 1501 H 145.019 2.87417 -2.02693 0
M  V30 1502 H 144.893 3.73807 -0.504771 0
M  V30 1503 H 147.28 2.94941 0.0967067 0
M  V30 1504 H 147.361 2.10364 -1.45536 0
M  V30 1505 H 147.005 4.32672 -2.66002 0
M  V30 1506 H 146.935 5.15334 -1.08344 0
M  V30 1507 H 149.426 3.59397 -1.16801 0
M  V30 1508 H 149.739 7.13225 -2.97539 0
M  V30 1509 H 148.084 6.4169 -2.66943 0
M  V30 1510 H 151.275 4.42504 -1.52669 0
M  V30 1511 H 151.448 6.03861 -2.35066 0
M  V30 1512 N 144.854 0.36279 1.53368 0
M  V30 1513 C 146.084 -0.228281 2.05335 0
M  V30 1514 C 146.492 -1.43226 1.23625 0
M  V30 1515 O 145.835 -1.81717 0.269206 0
M  V30 1516 C 145.897 -0.688549 3.52845 0
M  V30 1517 C 145.561 0.398362 4.5526 0
M  V30 1518 C 146.558 1.24732 5.04716 0
M  V30 1519 C 144.243 0.557805 4.99193 0
M  V30 1520 C 146.237 2.2411 5.96702 0
M  V30 1521 C 143.924 1.55495 5.90986 0
M  V30 1522 C 144.922 2.39503 6.39631 0
M  V30 1523 O 144.61 3.37517 7.29615 0
M  V30 1524 H 144.342 -0.044395 0.674541 0
M  V30 1525 H 146.896 0.518668 1.98744 0
M  V30 1526 H 145.126 -1.48706 3.56964 0
M  V30 1527 H 146.815 -1.20231 3.87685 0
M  V30 1528 H 147.581 1.13532 4.71525 0
M  V30 1529 H 143.46 -0.0862959 4.60919 0
M  V30 1530 H 147.004 2.89718 6.34594 0
M  V30 1531 H 142.901 1.66744 6.23592 0
M  V30 1532 H 143.669 3.33213 7.47604 0
M  V30 1533 N 146.332 -1.57332 0.0918853 0
M  V30 1534 C 147.262 -2.16872 -0.865371 0
M  V30 1535 C 148.243 -1.10118 -1.29646 0
M  V30 1536 O 149.428 -1.38242 -1.36392 0
M  V30 1537 C 146.558 -2.74649 -2.12569 0
M  V30 1538 C 145.512 -3.86747 -1.83333 0
M  V30 1539 C 144.838 -4.31212 -3.16166 0
M  V30 1540 C 146.138 -5.10089 -1.1228 0
M  V30 1541 H 147.832 -2.97114 -0.369307 0
M  V30 1542 H 145.378 -1.42918 -0.176194 0
M  V30 1543 H 147.331 -3.14952 -2.7997 0
M  V30 1544 H 146.055 -1.91657 -2.64452 0
M  V30 1545 H 144.714 -3.46978 -1.18331 0
M  V30 1546 H 144.362 -3.45115 -3.6593 0
M  V30 1547 H 144.062 -5.06788 -2.97388 0
M  V30 1548 H 145.586 -4.74146 -3.84731 0
M  V30 1549 H 147 -5.47582 -1.69785 0
M  V30 1550 H 145.397 -5.91073 -1.03693 0
M  V30 1551 H 146.467 -4.84786 -0.105041 0
M  V30 1552 N 147.81 0.181792 -1.56548 0
M  V30 1553 C 149.05 0.906711 -1.83189 0
M  V30 1554 C 149.414 1.79882 -0.671312 0
M  V30 1555 O 150.615 2.56054 -0.81792 0
M  V30 1556 C 148.886 1.69023 -3.14906 0
M  V30 1557 S 150.445 2.46535 -3.62996 0
M  V30 1558 H 147.263 0.303877 -0.642791 0
M  V30 1559 H 149.865 0.169107 -1.94767 0
M  V30 1560 H 148.569 1.02571 -3.97376 0
M  V30 1561 H 148.1 2.46941 -3.06241 0
M  V30 1562 H 150.115 3.71014 -3.29489 0
M  V30 1563 N 149.288 1.51039 0.449983 0
M  V30 1564 C 150.218 1.74379 1.55288 0
M  V30 1565 C 151.199 0.593236 1.5942 0
M  V30 1566 O 152.384 0.834625 1.7535 0
M  V30 1567 C 149.514 1.85728 2.93466 0
M  V30 1568 C 148.468 3.01078 3.04197 0
M  V30 1569 C 147.794 2.97595 4.44231 0
M  V30 1570 C 149.094 4.41254 2.7945 0
M  V30 1571 H 150.788 2.66725 1.36008 0
M  V30 1572 H 148.334 1.2835 0.652864 0
M  V30 1573 H 150.287 2.0064 3.70569 0
M  V30 1574 H 149.011 0.900207 3.13949 0
M  V30 1575 H 147.67 2.85851 2.29531 0
M  V30 1576 H 147.318 1.99691 4.61663 0
M  V30 1577 H 147.018 3.75046 4.52343 0
M  V30 1578 H 148.542 3.14583 5.23326 0
M  V30 1579 H 149.956 4.56897 3.46292 0
M  V30 1580 H 148.353 5.20315 2.98985 0
M  V30 1581 H 149.423 4.52164 1.75144 0
M  V30 1582 N 150.766 -0.704594 1.40972 0
M  V30 1583 C 151.729 -1.80035 1.41845 0
M  V30 1584 C 152.729 -1.57774 0.310474 0
M  V30 1585 O 153.919 -1.64613 0.56992 0
M  V30 1586 C 151.051 -3.18284 1.22098 0
M  V30 1587 H 152.244 -1.80658 2.3938 0
M  V30 1588 H 149.797 -0.911329 1.26982 0
M  V30 1589 H 150.532 -3.23306 0.253672 0
M  V30 1590 H 150.317 -3.35843 2.02366 0
M  V30 1591 H 151.807 -3.98289 1.25522 0
M  V30 1592 N 152.244 -1.26651 -0.937939 0
M  V30 1593 C 153.66 -1.03834 -1.21205 0
M  V30 1594 C 153.86 0.234502 -2.00131 0
M  V30 1595 O 152.916 0.942767 -2.3424 0
M  V30 1596 C 154.229 -2.27167 -1.97017 0
M  V30 1597 C 155.777 -2.32101 -2.09996 0
M  V30 1598 C 156.252 -3.55136 -2.8921 0
M  V30 1599 N 157.743 -3.55632 -2.96783 0
M  V30 1600 C 158.478 -4.475 -3.58512 0
M  V30 1601 N 157.974 -5.4966 -4.21717 0
M  V30 1602 N 159.767 -4.35145 -3.55816 0
M  V30 1603 H 151.918 -2.08398 -0.410391 0
M  V30 1604 H 154.181 -0.916031 -0.244114 0
M  V30 1605 H 153.887 -3.19765 -1.46434 0
M  V30 1606 H 153.761 -2.31672 -2.97671 0
M  V30 1607 H 156.148 -1.40015 -2.59769 0
M  V30 1608 H 156.229 -2.31605 -1.08594 0
M  V30 1609 H 155.873 -4.47553 -2.40123 0
M  V30 1610 H 155.803 -3.5288 -3.90875 0
M  V30 1611 H 158.294 -2.81743 -2.51852 0
M  V30 1612 H 158.607 -6.15943 -4.66727 0
M  V30 1613 H 156.952 -5.53514 -4.20294 0
M  V30 1614 H 160.143 -3.5455 -3.05634 0
M  V30 1615 H 160.316 -5.06934 -4.03636 0
M  V30 1616 N 153.722 1.14298 -1.08507 0
M  V30 1617 C 154.97 1.84993 -0.813763 0
M  V30 1618 C 155.291 1.83405 0.662393 0
M  V30 1619 O 154.561 1.28319 1.48024 0
M  V30 1620 H 153.141 0.684966 -0.298045 0
M  V30 1621 H 155.803 1.385 -1.37126 0
M  V30 1622 H 154.899 2.89788 -1.15884 0
M  V30 1623 N 155.201 0.870884 1.31352 0
M  V30 1624 C 156.426 0.495957 2.01383 0
M  V30 1625 C 156.851 -0.904324 1.64935 0
M  V30 1626 O 156.209 -1.59687 0.858466 0
M  V30 1627 C 156.257 0.661433 3.54482 0
M  V30 1628 O 155.361 -0.298851 4.11316 0
M  V30 1629 H 154.702 0.197158 0.634054 0
M  V30 1630 H 157.232 1.17455 1.67527 0
M  V30 1631 H 157.242 0.555072 4.04207 0
M  V30 1632 H 155.917 1.68246 3.8035 0
M  V30 1633 H 154.494 -0.147368 3.72609 0
M  V30 1634 N 156.679 -1.44442 0.630414 0
M  V30 1635 C 157.612 -2.27862 -0.124247 0
M  V30 1636 C 158.59 -1.38495 -0.851931 0
M  V30 1637 O 159.774 -1.67935 -0.856166 0
M  V30 1638 C 156.901 -3.17407 -1.18197 0
M  V30 1639 C 155.947 -4.22875 -0.554892 0
M  V30 1640 S 156.78 -5.31485 0.654489 0
M  V30 1641 C 157.936 -6.246 -0.40326 0
M  V30 1642 H 158.169 -2.91519 0.583435 0
M  V30 1643 H 155.702 -1.48618 0.418565 0
M  V30 1644 H 157.66 -3.69549 -1.78728 0
M  V30 1645 H 156.321 -2.52971 -1.86184 0
M  V30 1646 H 155.514 -4.85542 -1.35148 0
M  V30 1647 H 155.116 -3.73992 -0.0242105 0
M  V30 1648 H 157.408 -6.65375 -1.27602 0
M  V30 1649 H 158.351 -7.07851 0.187813 0
M  V30 1650 H 158.759 -5.59775 -0.728837 0
M  V30 1651 N 158.157 -0.370918 -1.53173 0
M  V30 1652 C 159.406 0.218249 -2.00516 0
M  V30 1653 C 159.719 1.49429 -1.26215 0
M  V30 1654 O 160.925 2.16239 -1.64174 0
M  V30 1655 C 159.381 0.43948 -3.57207 0
M  V30 1656 C 158.989 -0.822244 -4.4039 0
M  V30 1657 C 160.733 0.986012 -4.1289 0
M  V30 1658 C 158.64 -0.570304 -5.88644 0
M  V30 1659 H 157.57 0.0853333 -0.749156 0
M  V30 1660 H 160.221 -0.490483 -1.76823 0
M  V30 1661 H 158.603 1.20961 -3.77074 0
M  V30 1662 H 159.777 -1.59557 -4.32294 0
M  V30 1663 H 158.092 -1.29238 -3.95836 0
M  V30 1664 H 160.689 1.18991 -5.21292 0
M  V30 1665 H 161.032 1.94972 -3.6782 0
M  V30 1666 H 161.565 0.27592 -3.96842 0
M  V30 1667 H 158.304 -1.50449 -6.38001 0
M  V30 1668 H 157.824 0.164427 -5.99575 0
M  V30 1669 H 159.503 -0.19784 -6.46697 0
M  V30 1670 N 159.635 1.57281 -0.100228 0
M  V30 1671 C 160.881 1.94826 0.563101 0
M  V30 1672 C 161.214 0.982475 1.67514 0
M  V30 1673 O 160.489 0.0164069 1.94493 0
M  V30 1674 C 160.772 3.42453 1.11346 0
M  V30 1675 C 160.625 4.498 0.00612081 0
M  V30 1676 C 161.944 3.91506 2.01024 0
M  V30 1677 H 159.063 0.708428 0.203221 0
M  V30 1678 H 161.705 1.8922 -0.171979 0
M  V30 1679 H 159.855 3.47361 1.7399 0
M  V30 1680 H 161.527 4.57 -0.628357 0
M  V30 1681 H 159.77 4.28756 -0.659581 0
M  V30 1682 H 160.441 5.50306 0.432109 0
M  V30 1683 H 162.917 3.88784 1.48278 0
M  V30 1684 H 161.793 4.95358 2.36457 0
M  V30 1685 H 162.054 3.31099 2.92961 0
M  V30 1686 N 161.113 -0.173488 1.56642 0
M  V30 1687 C 162.043 -1.2171 1.99271 0
M  V30 1688 C 163.024 -1.46289 0.867959 0
M  V30 1689 O 164.209 -1.5766 1.13388 0
M  V30 1690 C 161.339 -2.55651 2.35074 0
M  V30 1691 C 160.293 -2.45645 3.50489 0
M  V30 1692 C 159.619 -3.84056 3.72028 0
M  V30 1693 C 160.919 -1.96302 4.84007 0
M  V30 1694 H 162.613 -0.86275 2.867 0
M  V30 1695 H 160.159 -0.413571 1.37933 0
M  V30 1696 H 162.112 -3.2886 2.63494 0
M  V30 1697 H 160.836 -2.92869 1.44552 0
M  V30 1698 H 159.495 -1.7489 3.22194 0
M  V30 1699 H 159.143 -4.18664 2.788 0
M  V30 1700 H 158.843 -3.7823 4.49684 0
M  V30 1701 H 160.367 -4.58854 4.02846 0
M  V30 1702 H 161.781 -2.59284 5.11317 0
M  V30 1703 H 160.178 -2.01429 5.65284 0
M  V30 1704 H 161.248 -0.917226 4.76146 0
M  V30 1705 N 162.591 -1.51276 -0.441967 0
M  V30 1706 C 163.523 -1.68444 -1.55433 0
M  V30 1707 C 164.536 -0.565187 -1.52674 0
M  V30 1708 O 165.725 -0.839356 -1.57534 0
M  V30 1709 C 162.825 -1.67966 -2.94348 0
M  V30 1710 C 161.998 -2.964 -3.21661 0
M  V30 1711 C 161.057 -2.88171 -4.40277 0
M  V30 1712 O 160.083 -3.62119 -4.39157 0
M  V30 1713 N 161.285 -2.03706 -5.43584 0
M  V30 1714 H 164.05 -2.644 -1.41112 0
M  V30 1715 H 161.611 -1.49104 -0.630838 0
M  V30 1716 H 163.603 -1.60035 -3.71713 0
M  V30 1717 H 162.173 -0.796225 -3.0229 0
M  V30 1718 H 161.393 -3.18234 -2.32638 0
M  V30 1719 H 162.681 -3.81427 -3.36736 0
M  V30 1720 H 162.079 -1.42995 -5.47329 0
M  V30 1721 H 160.636 -2.01658 -6.1982 0
M  V30 1722 N 164.069 0.697108 -1.41344 0
M  V30 1723 C 165.017 1.83237 -1.43272 0
M  V30 1724 C 166.011 1.66522 -0.310947 0
M  V30 1725 O 167.217 1.73402 -0.482899 0
M  V30 1726 H 163.592 0.603802 -0.448249 0
M  V30 1727 H 165.563 1.78727 -2.38954 0
M  V30 1728 C 164.312 3.21245 -1.33029 0
M  V30 1729 H 163.635 3.34723 -2.18633 0
M  V30 1730 H 165.075 4.00763 -1.38439 0
M  V30 1731 C 163.534 3.36873 -0.0424635 0
M  V30 1732 O 164.064 3.91177 0.913421 0
M  V30 1733 N 162.27 2.90581 0.0331145 0
M  V30 1734 H 161.817 2.46577 -0.745506 0
M  V30 1735 H 161.775 3.01416 0.894199 0
M  V30 1736 N 165.547 1.27147 0.931209 0
M  V30 1737 C 166.477 1.12081 2.04842 0
M  V30 1738 C 167.458 0.0232364 1.70084 0
M  V30 1739 O 168.643 0.197085 1.93197 0
M  V30 1740 C 165.773 0.76354 3.38803 0
M  V30 1741 C 164.727 1.81396 3.87659 0
M  V30 1742 C 164.053 1.31075 5.18385 0
M  V30 1743 C 165.353 3.21739 4.11438 0
M  V30 1744 H 167.047 2.05537 2.17703 0
M  V30 1745 H 164.593 0.989603 1.04608 0
M  V30 1746 H 166.546 0.644982 4.16435 0
M  V30 1747 H 165.27 -0.206727 3.25945 0
M  V30 1748 H 163.929 1.92136 3.12217 0
M  V30 1749 H 163.577 0.330037 5.01916 0
M  V30 1750 H 163.277 2.013 5.52044 0
M  V30 1751 H 164.801 1.20506 5.98591 0
M  V30 1752 H 166.215 3.14019 4.79651 0
M  V30 1753 H 164.612 3.89644 4.56397 0
M  V30 1754 H 165.682 3.67054 3.16859 0
M  V30 1755 N 167.025 -1.13721 1.09112 0
M  V30 1756 C 168.253 -1.88773 0.846899 0
M  V30 1757 C 168.668 -1.7896 -0.601572 0
M  V30 1758 O 168.025 -1.15394 -1.41388 0
M  V30 1759 C 168.076 -3.3849 1.26913 0
M  V30 1760 O 167.797 -3.48043 2.66079 0
M  V30 1761 C 169.298 -4.30518 1.05682 0
M  V30 1762 H 166.518 -0.59772 0.304914 0
M  V30 1763 H 169.062 -1.43977 1.45227 0
M  V30 1764 H 167.217 -3.80881 0.707723 0
M  V30 1765 H 167.631 -4.4109 2.83795 0
M  V30 1766 H 169.105 -5.3391 1.40156 0
M  V30 1767 H 169.582 -4.392 -0.00563416 0
M  V30 1768 H 170.188 -3.93893 1.60402 0
M  V30 1769 N 168.503 -0.877838 -1.30888 0
M  V30 1770 C 169.433 -0.35534 -2.3078 0
M  V30 1771 C 170.414 0.557994 -1.60687 0
M  V30 1772 O 171.599 0.473355 -1.88343 0
M  V30 1773 C 168.729 0.437221 -3.44537 0
M  V30 1774 C 167.683 -0.383715 -4.26276 0
M  V30 1775 C 167.009 0.535014 -5.32017 0
M  V30 1776 C 168.309 -1.62201 -4.96476 0
M  V30 1777 H 170.003 -1.19007 -2.74732 0
M  V30 1778 H 167.549 -0.573698 -1.32078 0
M  V30 1779 H 169.502 0.813334 -4.13477 0
M  V30 1780 H 168.226 1.30553 -2.99372 0
M  V30 1781 H 166.885 -0.741874 -3.59015 0
M  V30 1782 H 166.533 1.40083 -4.831 0
M  V30 1783 H 166.233 -0.0104211 -5.87599 0
M  V30 1784 H 167.757 0.907799 -6.03814 0
M  V30 1785 H 169.171 -1.31689 -5.5797 0
M  V30 1786 H 167.568 -2.10711 -5.61891 0
M  V30 1787 H 168.638 -2.37044 -4.23011 0
M  V30 1788 N 169.982 1.44106 -0.638065 0
M  V30 1789 C 171.231 2.01194 -0.142744 0
M  V30 1790 C 171.544 1.50835 1.24532 0
M  V30 1791 O 172.75 2.00096 1.83504 0
M  V30 1792 C 171.206 3.59319 -0.20442 0
M  V30 1793 C 170.814 4.18674 -1.59423 0
M  V30 1794 C 172.558 4.23854 0.234079 0
M  V30 1795 C 170.465 5.69045 -1.61065 0
M  V30 1796 H 169.395 0.752367 -0.0495998 0
M  V30 1797 H 172.046 1.65246 -0.797881 0
M  V30 1798 H 170.428 3.92598 0.517946 0
M  V30 1799 H 171.602 3.96921 -2.34074 0
M  V30 1800 H 169.917 3.66453 -1.97741 0
M  V30 1801 H 172.514 5.34155 0.241443 0
M  V30 1802 H 172.857 3.96688 1.2627 0
M  V30 1803 H 173.39 3.95403 -0.436025 0
M  V30 1804 H 170.129 6.00956 -2.61787 0
M  V30 1805 H 169.649 5.929 -0.90718 0
M  V30 1806 H 171.328 6.32809 -1.34766 0
M  V30 1807 N 171.46 0.379036 1.52974 0
M  V30 1808 C 172.688 -0.20679 2.05864 0
M  V30 1809 C 173.103 -1.41356 1.25155 0
M  V30 1810 O 172.46 -1.8009 0.295588 0
M  V30 1811 C 172.511 -0.587045 3.56702 0
M  V30 1812 O 172.232 0.571776 4.34353 0
M  V30 1813 C 173.733 -1.22983 4.25899 0
M  V30 1814 H 170.953 -0.0336123 0.670158 0
M  V30 1815 H 173.497 0.541298 1.97206 0
M  V30 1816 H 171.652 -1.28504 3.65466 0
M  V30 1817 H 172.066 0.261544 5.23847 0
M  V30 1818 H 173.54 -1.44635 5.32715 0
M  V30 1819 H 174.017 -2.19416 3.80465 0
M  V30 1820 H 174.623 -0.572892 4.21424 0
M  V30 1821 N 172.938 -1.57226 0.108567 0
M  V30 1822 C 174.186 -1.94448 -0.550853 0
M  V30 1823 C 174.507 -0.992074 -1.67878 0
M  V30 1824 O 173.777 -0.0465 -1.95845 0
M  V30 1825 H 172.357 -0.717897 -0.206479 0
M  V30 1826 H 175.019 -1.94112 0.175062 0
M  V30 1827 H 174.115 -2.97218 -0.952259 0
M  V30 1828 N 174.416 0.165178 -1.56732 0
M  V30 1829 C 175.693 0.908443 -1.73224 0
M  V30 1830 C 176.073 2.0013 -0.67165 0
M  V30 1831 O 175.421 2.26353 0.31253 0
M  V30 1832 C 175.631 1.46756 -3.16644 0
M  V30 1833 C 176.979 1.93809 -3.77787 0
M  V30 1834 O 178.003 1.56537 -3.1996 0
M  V30 1835 O 176.862 2.62486 -4.79336 0
M  V30 1836 H 173.956 0.428025 -0.707618 0
M  V30 1837 H 176.502 0.152526 -1.69013 0
M  V30 1838 H 175.274 0.68129 -3.85323 0
M  V30 1839 H 174.897 2.28749 -3.25207 0
M  V30 1840 N 175.894 1.51508 0.433938 0
M  V30 1841 C 177.119 1.68443 1.21003 0
M  V30 1842 C 177.544 0.382636 1.84167 0
M  V30 1843 O 176.902 -0.65755 1.68956 0
M  V30 1844 C 176.95 2.80405 2.26727 0
M  V30 1845 O 176.054 2.44245 3.32292 0
M  V30 1846 H 175.395 0.561536 0.354363 0
M  V30 1847 H 177.925 1.9809 0.512024 0
M  V30 1848 H 177.935 3.0459 2.71457 0
M  V30 1849 H 176.61 3.74867 1.80132 0
M  V30 1850 H 175.187 2.30644 2.93015 0
M  V30 1851 N 177.372 -0.689602 1.41712 0
M  V30 1852 C 178.302 -1.81577 1.46806 0
M  V30 1853 C 179.283 -1.66945 0.326105 0
M  V30 1854 O 180.468 -1.86588 0.538377 0
M  V30 1855 C 177.598 -3.19762 1.35535 0
M  V30 1856 C 176.552 -3.49107 2.47605 0
M  V30 1857 C 175.878 -4.86711 2.21397 0
M  V30 1858 C 177.178 -3.47483 3.89939 0
M  V30 1859 H 178.872 -1.7757 2.41058 0
M  V30 1860 H 176.418 -0.852887 1.16025 0
M  V30 1861 H 178.371 -3.98263 1.3771 0
M  V30 1862 H 177.095 -3.24409 0.377708 0
M  V30 1863 H 175.754 -2.72959 2.44722 0
M  V30 1864 H 175.402 -4.8799 1.21961 0
M  V30 1865 H 175.102 -5.0731 2.96497 0
M  V30 1866 H 176.626 -5.67515 2.25297 0
M  V30 1867 H 178.04 -4.1598 3.94505 0
M  V30 1868 H 176.437 -3.79615 4.64771 0
M  V30 1869 H 177.507 -2.46341 4.17665 0
M  V30 1870 N 178.85 -1.27639 -0.924453 0
M  V30 1871 C 180.078 -1.16989 -1.70649 0
M  V30 1872 C 180.493 0.272869 -1.86818 0
M  V30 1873 O 179.85 1.18549 -1.38753 0
M  V30 1874 C 179.901 -1.85229 -3.10439 0
M  V30 1875 O 179.622 -3.23868 -2.95028 0
M  V30 1876 C 181.123 -1.80746 -4.04779 0
M  V30 1877 H 178.343 -0.406595 -0.53378 0
M  V30 1878 H 180.887 -1.68569 -1.15778 0
M  V30 1879 H 179.042 -1.37545 -3.6216 0
M  V30 1880 H 179.456 -3.57889 -3.83426 0
M  V30 1881 H 180.93 -2.33101 -5.00368 0
M  V30 1882 H 181.407 -0.777499 -4.32263 0
M  V30 1883 H 182.013 -2.28059 -3.58984 0
M  V30 1884 N 180.328 1.1314 -1.09713 0
M  V30 1885 C 181.553 1.88862 -0.857081 0
M  V30 1886 C 181.978 1.78729 0.586304 0
M  V30 1887 O 181.336 1.13692 1.41222 0
M  V30 1888 C 181.384 3.36325 -1.30069 0
M  V30 1889 O 180.488 4.09815 -0.461007 0
M  V30 1890 H 179.829 0.587108 -0.310162 0
M  V30 1891 H 182.359 1.43129 -1.46203 0
M  V30 1892 H 182.369 3.87157 -1.28738 0
M  V30 1893 H 181.044 3.43017 -2.35185 0
M  V30 1894 H 179.621 3.68986 -0.538888 0
M  V30 1895 N 181.806 0.884767 1.30421 0
M  V30 1896 C 183.031 0.517288 2.00845 0
M  V30 1897 C 183.456 -0.886779 1.65885 0
M  V30 1898 O 182.814 -1.58768 0.875354 0
M  V30 1899 C 182.862 0.698994 3.5376 0
M  V30 1900 O 181.966 -0.255208 4.1161 0
M  V30 1901 H 181.307 0.203872 0.631927 0
M  V30 1902 H 183.837 1.19225 1.66272 0
M  V30 1903 H 183.847 0.597912 4.03595 0
M  V30 1904 H 182.522 1.72271 3.78544 0
M  V30 1905 H 181.099 -0.10784 3.72744 0
M  V30 1906 N 183.284 -1.43765 0.645699 0
M  V30 1907 C 184.232 -2.32516 -0.0624849 0
M  V30 1908 C 185.226 -1.48183 -0.820855 0
M  V30 1909 O 186.432 -1.64439 -0.732106 0
M  V30 1910 H 182.807 -0.750989 -0.0389864 0
M  V30 1911 H 184.778 -2.89979 0.703892 0
M  V30 1912 C 183.527 -3.32389 -1.02044 0
M  V30 1913 H 182.85 -3.97301 -0.446312 0
M  V30 1914 H 184.29 -3.97138 -1.48517 0
M  V30 1915 C 182.749 -2.62416 -2.11281 0
M  V30 1916 O 183.279 -2.434 -3.19561 0
M  V30 1917 N 181.485 -2.21913 -1.87624 0
M  V30 1918 H 181.032 -2.37578 -0.995703 0
M  V30 1919 H 180.99 -1.75424 -2.6091 0
M  V30 1920 N 184.763 -0.387143 -1.52771 0
M  V30 1921 C 186.04 0.253197 -1.93954 0
M  V30 1922 C 186.42 1.64545 -1.32243 0
M  V30 1923 O 185.768 2.23191 -0.489699 0
M  V30 1924 C 185.978 0.281722 -3.47861 0
M  V30 1925 C 187.326 0.511715 -4.21505 0
M  V30 1926 O 188.35 0.362023 -3.54356 0
M  V30 1927 O 187.209 0.804847 -5.40541 0
M  V30 1928 H 184.303 0.156845 -0.811991 0
M  V30 1929 H 186.849 -0.441494 -1.63856 0
M  V30 1930 H 185.621 -0.693571 -3.85104 0
M  V30 1931 H 185.244 1.02142 -3.84256 0
M  V30 1932 N 186.241 1.57166 -0.116904 0
M  V30 1933 C 187.518 1.86645 0.585049 0
M  V30 1934 C 187.898 1.0177 1.84949 0
M  V30 1935 O 187.246 0.0960379 2.28298 0
M  V30 1936 C 187.456 3.37736 0.879507 0
M  V30 1937 C 188.804 4.06289 1.23348 0
M  V30 1938 O 189.828 3.42743 0.969836 0
M  V30 1939 O 188.687 5.18455 1.7282 0
M  V30 1940 H 185.781 0.772593 0.295007 0
M  V30 1941 H 188.327 1.69025 -0.151249 0
M  V30 1942 H 187.099 3.91296 -0.0166136 0
M  V30 1943 H 186.722 3.6078 1.67103 0
M  V30 1944 N 187.719 -0.156864 1.56817 0
M  V30 1945 C 188.629 -1.2136 2.00771 0
M  V30 1946 C 189.645 -1.47598 0.921459 0
M  V30 1947 O 190.821 -1.59462 1.2302 0
M  V30 1948 C 187.886 -2.52943 2.37109 0
M  V30 1949 C 186.947 -2.34439 3.59634 0
M  V30 1950 C 186.18 -3.59748 3.94229 0
M  V30 1951 O 186.403 -4.65526 3.29609 0
M  V30 1952 O 185.337 -3.52998 4.8752 0
M  V30 1953 H 189.163 -0.870468 2.90958 0
M  V30 1954 H 186.748 -0.36484 1.44877 0
M  V30 1955 H 188.63 -3.30538 2.61386 0
M  V30 1956 H 187.305 -2.86806 1.5008 0
M  V30 1957 H 186.212 -1.54828 3.40557 0
M  V30 1958 H 187.545 -2.05496 4.4725 0
M  V30 1959 N 189.197 -1.51736 -0.425897 0
M  V30 1960 C 190.474 -1.55519 -1.1863 0
M  V30 1961 C 190.854 -0.326219 -2.08564 0
M  V30 1962 O 190.202 0.688012 -2.17896 0
M  V30 1963 C 190.412 -2.87521 -1.9782 0
M  V30 1964 C 191.76 -3.39899 -2.54468 0
M  V30 1965 O 192.784 -2.89148 -2.08019 0
M  V30 1966 O 191.643 -4.2848 -3.39215 0
M  V30 1967 H 188.737 -0.625739 -0.540721 0
M  V30 1968 H 191.283 -1.64055 -0.434038 0
M  V30 1969 H 190.055 -3.68422 -1.31836 0
M  V30 1970 H 189.678 -2.822 -2.80088 0
M  V30 1971 N 190.675 0.682077 -1.42076 0
M  V30 1972 C 192.086 1.26246 -1.37546 0
M  V30 1973 C 192.437 1.96092 -0.0651481 0
M  V30 1974 O 191.562 1.99587 0.836297 0
M  V30 1975 C 192.157 2.29594 -2.49143 0
M  V30 1976 C 190.716 2.83175 -2.47969 0
M  V30 1977 C 189.863 1.57395 -2.28303 0
M  V30 1978 H 192.814 0.475937 -1.51395 0
M  V30 1979 H 192.835 3.11175 -2.18976 0
M  V30 1980 H 192.347 1.78729 -3.44496 0
M  V30 1981 H 190.448 3.3818 -1.56413 0
M  V30 1982 H 190.561 3.32687 -3.44755 0
M  V30 1983 H 188.925 1.83699 -1.76428 0
M  V30 1984 H 189.708 1.08507 -3.25701 0
M  V30 1985 N 192.153 1.28127 0.917671 0
M  V30 1986 C 193.1 1.11717 2.0196 0
M  V30 1987 C 194.07 0.0153929 1.66093 0
M  V30 1988 O 195.255 0.179596 1.89953 0
M  V30 1989 C 192.395 0.780927 3.36148 0
M  V30 1990 C 191.508 1.96135 3.84909 0
M  V30 1991 C 190.643 1.56609 5.0759 0
M  V30 1992 C 189.682 2.71339 5.48673 0
M  V30 1993 N 188.819 2.32332 6.62545 0
M  V30 1994 H 193.659 2.06003 2.15329 0
M  V30 1995 H 191.196 1.02535 1.05475 0
M  V30 1996 H 193.154 0.56675 4.13333 0
M  V30 1997 H 191.784 -0.124998 3.22558 0
M  V30 1998 H 190.836 2.28777 3.03916 0
M  V30 1999 H 192.148 2.82165 4.1132 0
M  V30 2000 H 191.302 1.31374 5.92305 0
M  V30 2001 H 190.041 0.677014 4.82978 0
M  V30 2002 H 189.046 2.97276 4.62501 0
M  V30 2003 H 190.271 3.60882 5.75274 0
M  V30 2004 H 188.217 1.45889 6.39572 0
M  V30 2005 H 188.134 3.11899 6.88662 0
M  V30 2006 H 189.402 2.10371 7.50576 0
M  V30 2007 N 193.631 -1.12557 1.10312 0
M  V30 2008 C 194.856 -1.88405 0.867085 0
M  V30 2009 C 195.281 -1.79038 -0.576817 0
M  V30 2010 O 194.639 -1.14439 -1.40618 0
M  V30 2011 C 194.687 -3.3563 1.31851 0
M  V30 2012 O 193.791 -4.09565 0.482734 0
M  V30 2013 H 193.132 -0.585455 0.313271 0
M  V30 2014 H 195.662 -1.42352 1.4696 0
M  V30 2015 H 195.672 -3.86469 1.3079 0
M  V30 2016 H 194.347 -3.41765 2.37001 0
M  V30 2017 H 192.924 -3.68695 0.558448 0
M  V30 2018 N 195.109 -0.891671 -1.2995 0
M  V30 2019 C 196.059 -0.334811 -2.25528 0
M  V30 2020 C 197.043 0.540553 -1.51548 0
M  V30 2021 O 198.235 0.383882 -1.72787 0
M  V30 2022 C 195.364 0.44374 -3.4042 0
M  V30 2023 C 194.45 -0.44609 -4.21747 0
M  V30 2024 N 194.841 -1.54963 -4.81477 0
M  V30 2025 C 193.139 -0.242415 -4.45341 0
M  V30 2026 C 193.84 -2.10015 -5.42465 0
M  V30 2027 N 192.816 -1.39423 -5.25416 0
M  V30 2028 H 196.618 -1.17792 -2.69262 0
M  V30 2029 H 194.132 -0.741822 -1.44467 0
M  V30 2030 H 196.129 0.859362 -4.07947 0
M  V30 2031 H 194.789 1.28421 -2.98225 0
M  V30 2032 H 195.8 -1.93244 -4.80497 0
M  V30 2033 H 192.477 0.560342 -4.13723 0
M  V30 2034 H 193.867 -3.02724 -5.9984 0
M  V30 2035 N 196.587 1.43421 -0.653314 0
M  V30 2036 C 198.003 1.56341 -0.320886 0
M  V30 2037 C 198.203 1.63696 1.17499 0
M  V30 2038 O 197.259 1.59208 1.95982 0
M  V30 2039 C 198.572 2.82424 -1.03233 0
M  V30 2040 C 200.12 2.96168 -1.01259 0
M  V30 2041 C 200.595 4.25084 -1.70492 0
M  V30 2042 N 202.086 4.31948 -1.67257 0
M  V30 2043 C 202.821 5.30466 -2.17701 0
M  V30 2044 N 202.317 6.35261 -2.76434 0
M  V30 2045 N 204.11 5.2212 -2.082 0
M  V30 2046 H 196.261 1.3689 -1.62403 0
M  V30 2047 H 198.524 0.657455 -0.682977 0
M  V30 2048 H 198.23 2.83053 -2.08744 0
M  V30 2049 H 198.104 3.72653 -0.583948 0
M  V30 2050 H 200.491 2.9508 0.0341235 0
M  V30 2051 H 200.572 2.07229 -1.49966 0
M  V30 2052 H 200.216 4.26932 -2.7512 0
M  V30 2053 H 200.146 5.1292 -1.19251 0
M  V30 2054 H 202.637 3.56838 -1.24398 0
M  V30 2055 H 202.95 7.06754 -3.12601 0
M  V30 2056 H 201.295 6.35884 -2.80495 0
M  V30 2057 H 204.486 4.39166 -1.62021 0
M  V30 2058 H 204.659 5.98739 -2.47822 0
M  V30 2059 N 198.065 0.39524 1.52563 0
M  V30 2060 C 199.342 -0.242908 1.94086 0
M  V30 2061 C 199.722 -1.63841 1.33114 0
M  V30 2062 O 199.07 -2.22928 0.501529 0
M  V30 2063 C 199.28 -0.26327 3.48006 0
M  V30 2064 C 200.628 -0.489354 4.21771 0
M  V30 2065 O 201.652 -0.343226 3.54543 0
M  V30 2066 O 200.511 -0.776169 5.4096 0
M  V30 2067 H 197.605 -0.152536 0.812811 0
M  V30 2068 H 200.151 0.450178 1.6362 0
M  V30 2069 H 198.923 0.713985 3.84731 0
M  V30 2070 H 198.546 -1.00103 3.84792 0
M  V30 2071 N 199.544 -1.57102 0.125237 0
M  V30 2072 C 200.955 -1.82384 -0.399142 0
M  V30 2073 C 201.306 -1.04276 -1.66195 0
M  V30 2074 O 200.431 -0.281269 -2.14564 0
M  V30 2075 C 201.026 -3.30821 -0.730932 0
M  V30 2076 C 199.585 -3.56762 -1.19992 0
M  V30 2077 C 198.732 -2.7649 -0.211792 0
M  V30 2078 H 201.683 -1.54786 0.350277 0
M  V30 2079 H 201.704 -3.4579 -1.58775 0
M  V30 2080 H 201.216 -3.87643 0.188345 0
M  V30 2081 H 199.317 -3.05305 -2.13588 0
M  V30 2082 H 199.43 -4.65317 -1.14093 0
M  V30 2083 H 197.794 -2.4489 -0.700085 0
M  V30 2084 H 198.577 -3.36073 0.700691 0
M  V30 2085 N 201.022 0.148545 -1.56898 0
M  V30 2086 C 202.247 0.880385 -1.87787 0
M  V30 2087 C 202.672 1.74018 -0.714093 0
M  V30 2088 O 202.03 1.78153 0.336343 0
M  V30 2089 C 202.078 1.71422 -3.17249 0
M  V30 2090 O 201.182 2.8183 -3.01074 0
M  V30 2091 H 200.523 0.245301 -0.617028 0
M  V30 2092 H 203.053 0.139826 -2.04122 0
M  V30 2093 H 203.063 2.10954 -3.49231 0
M  V30 2094 H 201.738 1.08284 -4.01556 0
M  V30 2095 H 200.315 2.45715 -2.80497 0
M  V30 2096 N 202.5 1.5196 0.417844 0
M  V30 2097 C 203.448 1.75278 1.52907 0
M  V30 2098 C 204.442 0.619611 1.57662 0
M  V30 2099 O 205.648 0.801457 1.61173 0
M  V30 2100 H 202.023 0.554141 0.508362 0
M  V30 2101 H 203.994 2.68389 1.30422 0
M  V30 2102 C 202.743 1.91262 2.90369 0
M  V30 2103 H 202.066 2.77872 2.8745 0
M  V30 2104 H 203.506 2.11581 3.67436 0
M  V30 2105 C 201.965 0.677431 3.30019 0
M  V30 2106 O 202.495 -0.158799 4.01386 0
M  V30 2107 N 200.701 0.515851 2.85985 0
M  V30 2108 H 200.248 1.19744 2.28077 0
M  V30 2109 H 200.206 -0.309315 3.12875 0
M  V30 2110 N 203.978 -0.674533 1.42435 0
M  V30 2111 C 205.394 -0.98769 1.25367 0
M  V30 2112 C 205.594 -2.00879 0.158044 0
M  V30 2113 O 204.65 -2.48075 -0.470633 0
M  V30 2114 C 205.963 -1.49224 2.6106 0
M  V30 2115 C 207.511 -1.61 2.68417 0
M  V30 2116 C 207.986 -2.14852 4.04478 0
M  V30 2117 N 209.477 -2.22185 4.06434 0
M  V30 2118 C 210.212 -2.64928 5.08528 0
M  V30 2119 N 209.708 -3.07121 6.21006 0
M  V30 2120 N 211.501 -2.64679 4.95885 0
M  V30 2121 H 203.652 0.00152503 2.124 0
M  V30 2122 H 205.915 -0.0618434 0.945981 0
M  V30 2123 H 205.621 -0.816453 3.42092 0
M  V30 2124 H 205.495 -2.47094 2.84999 0
M  V30 2125 H 207.882 -2.27686 1.87732 0
M  V30 2126 H 207.963 -0.616195 2.48267 0
M  V30 2127 H 207.607 -1.48775 4.85622 0
M  V30 2128 H 207.537 -3.15024 4.2198 0
M  V30 2129 H 210.028 -1.92435 3.25234 0
M  V30 2130 H 210.341 -3.38423 6.94759 0
M  V30 2131 H 208.686 -3.04978 6.24511 0
M  V30 2132 H 211.877 -2.31078 4.07088 0
M  V30 2133 H 212.05 -2.9767 5.75584 0
M  V30 2134 N 205.456 -1.28612 -0.910864 0
M  V30 2135 C 206.406 -1.09423 -2.00026 0
M  V30 2136 C 207.39 -0.0170079 -1.60891 0
M  V30 2137 O 208.582 -0.237472 -1.754 0
M  V30 2138 C 205.711 -0.76114 -3.34756 0
M  V30 2139 C 204.797 -1.87735 -3.80285 0
M  V30 2140 N 205.188 -3.11938 -3.98156 0
M  V30 2141 C 203.486 -1.76786 -4.09467 0
M  V30 2142 C 204.187 -3.84687 -4.36338 0
M  V30 2143 N 203.163 -3.12555 -4.44759 0
M  V30 2144 H 206.965 -2.03658 -2.11898 0
M  V30 2145 H 204.479 -1.19573 -1.09891 0
M  V30 2146 H 206.476 -0.604743 -4.12491 0
M  V30 2147 H 205.136 0.173403 -3.24237 0
M  V30 2148 H 206.147 -3.47516 -3.83996 0
M  V30 2149 H 202.824 -0.905284 -4.07567 0
M  V30 2150 H 204.214 -4.91518 -4.58104 0
M  V30 2151 N 206.934 1.1197 -1.10907 0
M  V30 2152 C 208.159 1.87942 -0.877064 0
M  V30 2153 C 208.584 1.79341 0.567314 0
M  V30 2154 O 207.942 1.15184 1.40009 0
M  V30 2155 C 207.99 3.34926 -1.33629 0
M  V30 2156 O 207.094 4.09303 -0.504447 0
M  V30 2157 H 206.435 0.583785 -0.316371 0
M  V30 2158 H 208.965 1.4157 -1.47712 0
M  V30 2159 H 208.975 3.8577 -1.32837 0
M  V30 2160 H 207.65 3.40504 -2.3881 0
M  V30 2161 H 206.227 3.68393 -0.577993 0
M  V30 2162 N 208.412 0.89855 1.29475 0
M  V30 2163 C 209.642 0.538479 1.99459 0
M  V30 2164 C 210.05 -0.880922 1.67441 0
M  V30 2165 O 209.393 -1.59283 0.915127 0
M  V30 2166 C 209.455 0.649564 3.53583 0
M  V30 2167 C 209.119 2.03573 4.09154 0
M  V30 2168 C 210.116 3.00675 4.24135 0
M  V30 2169 C 207.801 2.3448 4.44212 0
M  V30 2170 C 209.795 4.26809 4.73405 0
M  V30 2171 C 207.482 3.60857 4.93179 0
M  V30 2172 C 208.48 4.56836 5.0773 0
M  V30 2173 O 208.168 5.80969 5.55635 0
M  V30 2174 H 207.9 0.205372 0.644048 0
M  V30 2175 H 210.454 1.20958 1.66007 0
M  V30 2176 H 208.684 -0.0785592 3.8662 0
M  V30 2177 H 210.373 0.29881 4.04799 0
M  V30 2178 H 211.139 2.78112 3.97339 0
M  V30 2179 H 207.018 1.60534 4.32145 0
M  V30 2180 H 210.562 5.0173 4.84678 0
M  V30 2181 H 206.459 3.83251 5.19412 0
M  V30 2182 H 207.227 5.83542 5.73952 0
M  V30 2183 N 209.89 -1.43072 0.660911 0
M  V30 2184 C 211.301 -1.84932 0.256348 0
M  V30 2185 C 211.652 -1.55325 -1.19868 0
M  V30 2186 O 210.777 -1.00607 -1.91591 0
M  V30 2187 C 211.372 -3.35684 0.458475 0
M  V30 2188 C 209.931 -3.76245 0.108161 0
M  V30 2189 C 209.078 -2.66749 0.757641 0
M  V30 2190 H 212.029 -1.33116 0.864051 0
M  V30 2191 H 212.05 -3.79365 -0.293683 0
M  V30 2192 H 211.562 -3.572 1.51755 0
M  V30 2193 H 209.663 -3.60338 -0.948014 0
M  V30 2194 H 209.776 -4.76058 0.538992 0
M  V30 2195 H 208.14 -2.53989 0.190185 0
M  V30 2196 H 208.923 -2.91092 1.81989 0
M  V30 2197 N 211.368 -0.403325 -1.52352 0
M  V30 2198 C 212.3 0.4603 -2.2453 0
M  V30 2199 C 213.313 1.01505 -1.27282 0
M  V30 2200 O 214.502 0.914982 -1.53266 0
M  V30 2201 C 211.602 1.65208 -2.95905 0
M  V30 2202 C 210.775 1.22224 -4.19976 0
M  V30 2203 C 209.834 2.28028 -4.74226 0
M  V30 2204 O 208.86 1.88857 -5.36956 0
M  V30 2205 N 210.062 3.6012 -4.55295 0
M  V30 2206 H 212.827 -0.158156 -2.99282 0
M  V30 2207 H 210.388 -0.230402 -1.60252 0
M  V30 2208 H 212.38 2.35541 -3.29093 0
M  V30 2209 H 210.95 2.17658 -2.24374 0
M  V30 2210 H 210.17 0.34725 -3.92668 0
M  V30 2211 H 211.458 0.911924 -5.00561 0
M  V30 2212 H 210.856 3.94698 -4.05253 0
M  V30 2213 H 209.413 4.26447 -4.92936 0
M  V30 2214 N 212.846 1.57033 -0.133567 0
M  V30 2215 C 213.778 2.13176 0.841944 0
M  V30 2216 C 214.791 1.07794 1.22001 0
M  V30 2217 O 215.98 1.35117 1.16643 0
M  V30 2218 C 213.08 2.62847 2.13926 0
M  V30 2219 C 212.253 3.92486 1.93064 0
M  V30 2220 C 211.312 4.27605 3.0666 0
M  V30 2221 O 210.338 4.96168 2.78937 0
M  V30 2222 N 211.54 3.861 4.33483 0
M  V30 2223 H 214.305 2.97503 0.362192 0
M  V30 2224 H 211.866 1.61821 0.05042 0
M  V30 2225 H 213.858 2.83363 2.88942 0
M  V30 2226 H 212.428 1.83319 2.53205 0
M  V30 2227 H 211.648 3.80732 1.02159 0
M  V30 2228 H 212.936 4.77225 1.76447 0
M  V30 2229 H 212.334 3.30828 4.58878 0
M  V30 2230 H 210.891 4.11694 5.05323 0
M  V30 2231 N 214.325 -0.140222 1.56975 0
M  V30 2232 C 215.288 -1.15689 1.97861 0
M  V30 2233 C 216.288 -1.3549 0.865974 0
M  V30 2234 O 217.478 -1.32367 1.13246 0
M  V30 2235 C 214.61 -2.51582 2.30042 0
M  V30 2236 H 215.803 -0.805971 2.88867 0
M  V30 2237 H 213.356 -0.383801 1.51515 0
M  V30 2238 H 214.091 -2.91632 1.41849 0
M  V30 2239 H 213.876 -2.38569 3.11171 0
M  V30 2240 H 215.366 -3.24792 2.62488 0
M  V30 2241 N 215.803 -1.52179 -0.40978 0
M  V30 2242 C 217.214 -1.58377 -0.988615 0
M  V30 2243 C 217.565 -0.423879 -1.91566 0
M  V30 2244 O 216.69 0.455844 -2.11544 0
M  V30 2245 C 217.285 -2.87044 -1.79976 0
M  V30 2246 C 215.844 -2.95722 -2.32863 0
M  V30 2247 C 214.991 -2.53309 -1.12828 0
M  V30 2248 H 217.942 -1.57558 -0.190039 0
M  V30 2249 H 217.963 -2.7236 -2.65707 0
M  V30 2250 H 217.475 -3.71444 -1.12478 0
M  V30 2251 H 215.576 -2.15814 -3.03735 0
M  V30 2252 H 215.689 -3.99951 -2.63773 0
M  V30 2253 H 214.053 -2.07142 -1.48204 0
M  V30 2254 H 214.836 -3.40082 -0.46897 0
M  V30 2255 N 217.281 0.66697 -1.42791 0
M  V30 2256 C 218.511 1.45294 -1.46878 0
M  V30 2257 C 218.919 1.89027 -0.0809861 0
M  V30 2258 O 218.262 1.59219 0.916246 0
M  V30 2259 C 218.324 2.72908 -2.34012 0
M  V30 2260 C 217.988 2.51203 -3.81767 0
M  V30 2261 C 218.985 2.15302 -4.73224 0
M  V30 2262 C 216.67 2.65954 -4.26115 0
M  V30 2263 C 218.664 1.94431 -6.07022 0
M  V30 2264 C 216.351 2.44699 -5.59969 0
M  V30 2265 C 217.349 2.08992 -6.5024 0
M  V30 2266 O 217.037 1.87948 -7.81621 0
M  V30 2267 H 216.769 0.453306 -0.501487 0
M  V30 2268 H 219.323 0.826232 -1.88049 0
M  V30 2269 H 217.553 3.38089 -1.87703 0
M  V30 2270 H 219.242 3.34816 -2.29462 0
M  V30 2271 H 220.008 2.03495 -4.40244 0
M  V30 2272 H 215.887 2.92724 -3.56137 0
M  V30 2273 H 219.431 1.66484 -6.77443 0
M  V30 2274 H 215.328 2.56105 -5.9252 0
M  V30 2275 H 216.096 2.02483 -7.93059 0
M  V30 2276 N 218.759 1.29093 0.90403 0
M  V30 2277 C 220.005 1.17996 1.65676 0
M  V30 2278 C 220.36 -0.266816 1.90541 0
M  V30 2279 O 219.653 -1.19 1.50165 0
M  V30 2280 C 219.847 1.92224 3.01305 0
M  V30 2281 C 219.676 3.43972 2.89678 0
M  V30 2282 C 218.446 4.1332 2.90679 0
M  V30 2283 C 220.644 4.39546 2.67028 0
M  V30 2284 N 218.626 5.51463 2.69743 0
M  V30 2285 C 219.997 5.65119 2.5503 0
M  V30 2286 C 222.052 4.29359 2.52101 0
M  V30 2287 C 220.755 6.81663 2.29626 0
M  V30 2288 C 222.781 5.4565 2.28079 0
M  V30 2289 C 222.143 6.70193 2.16843 0
M  V30 2290 H 218.242 0.486759 0.612037 0
M  V30 2291 H 220.826 1.62868 1.06688 0
M  V30 2292 H 218.997 1.49773 3.58361 0
M  V30 2293 H 220.729 1.73429 3.65656 0
M  V30 2294 H 217.484 3.64984 3.01801 0
M  V30 2295 H 217.908 6.24105 2.6234 0
M  V30 2296 H 222.55 3.33769 2.59534 0
M  V30 2297 H 220.268 7.77313 2.20932 0
M  V30 2298 H 223.854 5.39664 2.1738 0
M  V30 2299 H 222.734 7.58659 1.98511 0
M  V30 2300 N 220.237 -1.11381 1.11499 0
M  V30 2301 C 221.465 -1.86934 0.88675 0
M  V30 2302 C 221.88 -1.80195 -0.563476 0
M  V30 2303 O 221.237 -1.18367 -1.38908 0
M  V30 2304 C 221.288 -3.35722 1.34064 0
M  V30 2305 O 221.009 -3.4232 2.73401 0
M  V30 2306 C 222.51 -4.2818 1.14791 0
M  V30 2307 H 219.73 -0.591117 0.317523 0
M  V30 2308 H 222.274 -1.40865 1.48248 0
M  V30 2309 H 220.429 -3.79294 0.788355 0
M  V30 2310 H 220.843 -4.34971 2.93087 0
M  V30 2311 H 222.317 -5.30817 1.5145 0
M  V30 2312 H 222.794 -4.39113 0.0875279 0
M  V30 2313 H 223.4 -3.90402 1.68721 0
M  V30 2314 N 221.715 -0.905404 -1.28997 0
M  V30 2315 C 222.665 -0.358713 -2.25161 0
M  V30 2316 C 223.649 0.524449 -1.52113 0
M  V30 2317 O 224.841 0.365534 -1.73184 0
M  V30 2318 C 221.97 0.407609 -3.40872 0
M  V30 2319 C 221.056 -0.490797 -4.21251 0
M  V30 2320 N 221.447 -1.60061 -4.79806 0
M  V30 2321 C 219.745 -0.289636 -4.45059 0
M  V30 2322 C 220.446 -2.15757 -5.40207 0
M  V30 2323 N 219.422 -1.44988 -5.23908 0
M  V30 2324 H 223.224 -1.20642 -2.67998 0
M  V30 2325 H 220.738 -0.757103 -1.43672 0
M  V30 2326 H 222.735 0.816046 -4.08835 0
M  V30 2327 H 221.395 1.25251 -2.9957 0
M  V30 2328 H 222.406 -1.98329 -4.7842 0
M  V30 2329 H 219.083 0.51643 -4.14294 0
M  V30 2330 H 220.473 -3.09069 -5.96595 0
M  V30 2331 N 223.193 1.4272 -0.668489 0
M  V30 2332 C 224.604 1.84793 -0.266151 0
M  V30 2333 C 224.955 1.55959 1.19043 0
M  V30 2334 O 224.08 1.01622 1.91055 0
M  V30 2335 C 224.675 3.35436 -0.476271 0
M  V30 2336 C 223.234 3.76182 -0.128113 0
M  V30 2337 C 222.381 2.66344 -0.771777 0
M  V30 2338 H 225.332 1.32656 -0.871098 0
M  V30 2339 H 225.353 3.79515 0.273561 0
M  V30 2340 H 224.865 3.5639 -1.53647 0
M  V30 2341 H 222.966 3.60836 0.928891 0
M  V30 2342 H 223.079 4.75766 -0.564231 0
M  V30 2343 H 221.443 2.53885 -0.203652 0
M  V30 2344 H 222.226 2.90123 -1.83531 0
M  V30 2345 N 224.671 0.411399 1.52136 0
M  V30 2346 C 225.603 -0.448386 2.24771 0
M  V30 2347 C 226.616 -1.00828 1.27818 0
M  V30 2348 O 227.805 -0.906841 1.53749 0
M  V30 2349 C 224.905 -1.63636 2.96777 0
M  V30 2350 C 224.078 -1.19995 4.20618 0
M  V30 2351 C 223.137 -2.25509 4.75428 0
M  V30 2352 O 222.163 -1.86007 5.3795 0
M  V30 2353 N 223.365 -3.577 4.57199 0
M  V30 2354 H 226.13 0.174025 2.99194 0
M  V30 2355 H 223.691 0.238897 1.60128 0
M  V30 2356 H 225.683 -2.33793 3.30338 0
M  V30 2357 H 224.253 -2.16465 2.25526 0
M  V30 2358 H 223.473 -0.326421 3.92846 0
M  V30 2359 H 224.761 -0.885365 5.01038 0
M  V30 2360 H 224.159 -3.92543 4.07341 0
M  V30 2361 H 222.716 -4.23827 4.95191 0
M  V30 2362 N 226.149 -1.5696 0.141893 0
M  V30 2363 C 227.565 -1.58151 -0.21456 0
M  V30 2364 C 227.765 -1.1559 -1.65049 0
M  V30 2365 O 226.821 -0.853832 -2.37626 0
M  V30 2366 C 228.134 -3.00674 0.0395576 0
M  V30 2367 C 229.682 -3.1299 -0.0245529 0
M  V30 2368 C 230.157 -4.57554 0.202167 0
M  V30 2369 N 231.648 -4.62961 0.148919 0
M  V30 2370 C 232.383 -5.7262 0.298924 0
M  V30 2371 N 231.879 -6.90947 0.50637 0
M  V30 2372 N 233.672 -5.61601 0.236886 0
M  V30 2373 H 225.823 -1.8292 1.07953 0
M  V30 2374 H 228.086 -0.846425 0.42693 0
M  V30 2375 H 227.792 -3.36183 1.03315 0
M  V30 2376 H 227.666 -3.70981 -0.682143 0
M  V30 2377 H 230.053 -2.77326 -1.00869 0
M  V30 2378 H 230.134 -2.4518 0.729396 0
M  V30 2379 H 229.778 -4.93922 1.18338 0
M  V30 2380 H 229.708 -5.23484 -0.572044 0
M  V30 2381 H 232.199 -3.77899 -0.00697015 0
M  V30 2382 H 232.512 -7.7038 0.611076 0
M  V30 2383 H 230.857 -6.92878 0.542628 0
M  V30 2384 H 234.048 -4.68039 0.0756209 0
M  V30 2385 H 234.221 -6.47015 0.357227 0
M  V30 2386 N 227.627 0.131896 -1.57047 0
M  V30 2387 C 228.56 1.19236 -1.94571 0
M  V30 2388 C 229.538 1.40782 -0.813576 0
M  V30 2389 O 230.722 1.55148 -1.07058 0
M  V30 2390 C 227.849 2.54858 -2.23081 0
M  V30 2391 C 226.895 2.49817 -3.45679 0
M  V30 2392 S 227.728 1.95036 -4.98719 0
M  V30 2393 C 228.884 3.32357 -5.30367 0
M  V30 2394 H 229.117 0.872297 -2.84215 0
M  V30 2395 H 226.65 0.338134 -1.50652 0
M  V30 2396 H 228.608 3.32898 -2.40185 0
M  V30 2397 H 227.269 2.84047 -1.34074 0
M  V30 2398 H 226.462 3.49688 -3.62952 0
M  V30 2399 H 226.064 1.79892 -3.27895 0
M  V30 2400 H 228.356 4.28525 -5.2476 0
M  V30 2401 H 229.299 3.19923 -6.31708 0
M  V30 2402 H 229.707 3.3019 -4.57859 0
M  V30 2403 N 229.106 1.52395 0.401703 0
M  V30 2404 C 230.016 1.7917 1.51444 0
M  V30 2405 C 231.032 0.677691 1.6026 0
M  V30 2406 O 232.208 0.963909 1.76835 0
M  V30 2407 C 229.273 1.94347 2.87107 0
M  V30 2408 C 228.334 3.18257 2.88116 0
M  V30 2409 C 227.567 3.32701 4.17308 0
M  V30 2410 O 227.79 2.52238 5.11598 0
M  V30 2411 O 226.724 4.25891 4.25324 0
M  V30 2412 H 230.55 2.73633 1.31752 0
M  V30 2413 H 228.135 1.3733 0.588296 0
M  V30 2414 H 230.017 2.06109 3.67555 0
M  V30 2415 H 228.692 1.03073 3.06851 0
M  V30 2416 H 227.599 3.11947 2.06494 0
M  V30 2417 H 228.932 4.09336 2.73322 0
M  V30 2418 N 230.584 -0.659388 1.43143 0
M  V30 2419 C 231.531 -1.77249 1.47822 0
M  V30 2420 C 232.501 -1.62818 0.328558 0
M  V30 2421 O 233.686 -1.83151 0.534838 0
M  V30 2422 C 230.826 -3.15371 1.40126 0
M  V30 2423 C 229.939 -3.4098 2.65249 0
M  V30 2424 C 229.074 -4.68915 2.49584 0
M  V30 2425 C 228.113 -4.87608 3.70006 0
M  V30 2426 N 227.25 -6.06796 3.53189 0
M  V30 2427 H 232.09 -1.72584 2.42938 0
M  V30 2428 H 229.627 -0.842297 1.20598 0
M  V30 2429 H 231.585 -3.9521 1.33659 0
M  V30 2430 H 230.215 -3.19121 0.485964 0
M  V30 2431 H 229.267 -2.55282 2.8202 0
M  V30 2432 H 230.579 -3.50681 3.54717 0
M  V30 2433 H 229.733 -5.56871 2.4079 0
M  V30 2434 H 228.472 -4.61524 1.5763 0
M  V30 2435 H 227.477 -3.9809 3.79215 0
M  V30 2436 H 228.702 -4.96834 4.62961 0
M  V30 2437 H 226.648 -6.00549 2.63965 0
M  V30 2438 H 226.565 -6.17428 4.36255 0
M  V30 2439 H 227.833 -6.9739 3.48236 0
M  V30 2440 N 232.062 -1.29571 -0.897171 0
M  V30 2441 C 233.009 -1.14916 -2.00158 0
M  V30 2442 C 233.979 -0.0418149 -1.66047 0
M  V30 2443 O 235.164 -0.209793 -1.89643 0
M  V30 2444 C 232.304 -0.834307 -3.34863 0
M  V30 2445 C 231.417 -2.02234 -3.8174 0
M  V30 2446 C 230.552 -1.64664 -5.05034 0
M  V30 2447 C 229.591 -2.80033 -5.44286 0
M  V30 2448 N 228.728 -2.42843 -6.58765 0
M  V30 2449 H 233.568 -2.09403 -2.12025 0
M  V30 2450 H 231.105 -1.042 -1.0383 0
M  V30 2451 H 233.063 -0.632436 -4.12379 0
M  V30 2452 H 231.693 0.0736656 -3.22716 0
M  V30 2453 H 230.745 -2.33583 -3.00238 0
M  V30 2454 H 232.057 -2.88673 -4.06779 0
M  V30 2455 H 231.211 -1.4078 -5.9014 0
M  V30 2456 H 229.95 -0.753766 -4.8184 0
M  V30 2457 H 228.955 -3.04596 -4.57713 0
M  V30 2458 H 230.18 -3.69989 -5.6946 0
M  V30 2459 H 228.126 -1.56046 -6.3717 0
M  V30 2460 H 228.043 -3.22815 -6.83613 0
M  V30 2461 H 229.311 -2.22285 -7.47134 0
M  V30 2462 N 233.54 1.10788 -1.12088 0
M  V30 2463 C 234.47 2.19083 -0.807755 0
M  V30 2464 C 235.451 1.6858 0.226859 0
M  V30 2465 O 236.636 1.93997 0.0888475 0
M  V30 2466 C 233.766 3.46344 -0.257576 0
M  V30 2467 C 232.72 4.101 -1.22483 0
M  V30 2468 C 232.046 5.32016 -0.535052 0
M  V30 2469 C 233.346 4.54236 -2.57811 0
M  V30 2470 H 235.04 2.45534 -1.71328 0
M  V30 2471 H 232.586 1.1801 -0.825205 0
M  V30 2472 H 234.539 4.21392 -0.0262679 0
M  V30 2473 H 233.263 3.19373 0.683278 0
M  V30 2474 H 231.922 3.37054 -1.44189 0
M  V30 2475 H 231.57 5.01319 0.410827 0
M  V30 2476 H 231.27 5.75625 -1.18024 0
M  V30 2477 H 232.794 6.09799 -0.312695 0
M  V30 2478 H 234.208 5.20575 -2.40155 0
M  V30 2479 H 232.605 5.08682 -3.18375 0
M  V30 2480 H 233.675 3.6734 -3.16528 0
M  V30 2481 N 235.018 0.912232 1.28515 0
M  V30 2482 C 235.968 0.370649 2.24967 0
M  V30 2483 C 236.952 -0.516375 1.52389 0
M  V30 2484 O 238.144 -0.356345 1.73376 0
M  V30 2485 C 235.273 -0.389526 3.41083 0
M  V30 2486 C 234.359 0.51313 4.20984 0
M  V30 2487 N 234.75 1.62604 4.78951 0
M  V30 2488 C 233.048 0.313235 4.44899 0
M  V30 2489 C 233.749 2.18619 5.39055 0
M  V30 2490 N 232.725 1.47765 5.23132 0
M  V30 2491 H 236.527 1.22061 2.67354 0
M  V30 2492 H 234.041 0.764712 1.43269 0
M  V30 2493 H 236.038 -0.794353 4.09262 0
M  V30 2494 H 234.698 -1.2366 3.0023 0
M  V30 2495 H 235.709 2.00864 4.77362 0
M  V30 2496 H 232.386 -0.494452 4.14562 0
M  V30 2497 H 233.776 3.12228 5.94948 0
M  V30 2498 N 236.496 -1.42363 0.676048 0
M  V30 2499 C 237.459 -2.29199 0.00766941 0
M  V30 2500 C 238.459 -1.43389 -0.727745 0
M  V30 2501 O 239.649 -1.64764 -0.56556 0
M  V30 2502 C 236.781 -3.2591 -0.999785 0
M  V30 2503 H 237.974 -2.89794 0.771988 0
M  V30 2504 H 235.527 -1.50024 0.438468 0
M  V30 2505 H 236.262 -2.70256 -1.79255 0
M  V30 2506 H 236.047 -3.89202 -0.475829 0
M  V30 2507 H 237.537 -3.91028 -1.46583 0
M  V30 2508 N 237.974 -0.419461 -1.51915 0
M  V30 2509 C 239.22 0.153166 -2.02221 0
M  V30 2510 C 239.553 1.43907 -1.30401 0
M  V30 2511 O 238.828 1.90055 -0.413438 0
M  V30 2512 C 239.111 0.390291 -3.57979 0
M  V30 2513 C 238.964 -0.913014 -4.40436 0
M  V30 2514 C 240.283 1.16794 -4.2432 0
M  V30 2515 H 237.402 0.0541924 -0.735005 0
M  V30 2516 H 240.044 -0.554955 -1.81715 0
M  V30 2517 H 238.194 0.993491 -3.75582 0
M  V30 2518 H 239.866 -1.54882 -4.34522 0
M  V30 2519 H 238.109 -1.52168 -4.06236 0
M  V30 2520 H 238.78 -0.701361 -5.47526 0
M  V30 2521 H 241.256 0.657161 -4.10878 0
M  V30 2522 H 240.132 1.3026 -5.3322 0
M  V30 2523 H 240.393 2.19132 -3.83971 0
M  V30 2524 N 239.452 1.56882 -0.150215 0
M  V30 2525 C 240.863 1.82995 0.370076 0
M  V30 2526 C 241.214 1.06907 1.64515 0
M  V30 2527 O 240.339 0.315369 2.1409 0
M  V30 2528 C 240.934 3.31942 0.678208 0
M  V30 2529 C 239.493 3.58625 1.14301 0
M  V30 2530 C 238.64 2.76792 0.167778 0
M  V30 2531 H 241.591 1.54209 -0.374858 0
M  V30 2532 H 241.612 3.48272 1.53254 0
M  V30 2533 H 241.124 3.87294 -0.249991 0
M  V30 2534 H 239.225 3.08664 2.08704 0
M  V30 2535 H 239.338 4.67073 1.06676 0
M  V30 2536 H 237.702 2.45972 0.661037 0
M  V30 2537 H 238.485 3.34916 -0.754069 0
M  V30 2538 N 240.93 -0.123565 1.57115 0
M  V30 2539 C 241.893 -1.13583 1.99076 0
M  V30 2540 C 242.893 -1.34564 0.880296 0
M  V30 2541 O 244.083 -1.31158 1.14644 0
M  V30 2542 C 241.215 -2.49128 2.32698 0
M  V30 2543 H 242.408 -0.775287 2.89706 0
M  V30 2544 H 239.961 -0.36771 1.51913 0
M  V30 2545 H 240.696 -2.90111 1.44934 0
M  V30 2546 H 240.481 -2.35255 3.13684 0
M  V30 2547 H 241.971 -3.2199 2.65918 0
M  V30 2548 N 242.408 -1.52605 -0.393616 0
M  V30 2549 C 243.656 -1.67093 -1.13685 0
M  V30 2550 C 243.977 -0.411011 -1.90619 0
M  V30 2551 O 243.247 0.574491 -1.87287 0
M  V30 2552 H 241.827 -0.615923 -0.422668 0
M  V30 2553 H 244.489 -1.89704 -0.447039 0
M  V30 2554 H 243.585 -2.51922 -1.84232 0
M  V30 2555 N 243.887 0.651787 -1.4349 0
M  V30 2556 C 244.835 1.78586 -1.49029 0
M  V30 2557 C 245.829 1.65448 -0.363767 0
M  V30 2558 O 247.035 1.71777 -0.537821 0
M  V30 2559 H 243.41 0.589236 -0.467231 0
M  V30 2560 H 245.381 1.71035 -2.44519 0
M  V30 2561 C 244.13 3.16851 -1.43181 0
M  V30 2562 H 243.453 3.27598 -2.29171 0
M  V30 2563 H 244.893 3.96156 -1.51118 0
M  V30 2564 C 243.352 3.36568 -0.149616 0
M  V30 2565 O 243.882 3.93885 0.788509 0
M  V30 2566 N 242.088 2.90539 -0.0593484 0
M  V30 2567 H 241.635 2.4408 -0.823575 0
M  V30 2568 H 241.593 3.04108 0.797853 0
M  V30 2569 N 245.365 1.30045 0.890287 0
M  V30 2570 C 246.593 1.21472 1.67487 0
M  V30 2571 C 247.008 -0.223241 1.87476 0
M  V30 2572 O 246.365 -1.14828 1.41847 0
M  V30 2573 C 246.416 1.93394 3.05419 0
M  V30 2574 O 246.137 3.31576 2.86337 0
M  V30 2575 C 247.638 1.91414 3.99844 0
M  V30 2576 H 244.858 0.420604 0.522813 0
M  V30 2577 H 247.402 1.7158 1.11268 0
M  V30 2578 H 245.557 1.47099 3.58386 0
M  V30 2579 H 245.971 3.67929 3.73802 0
M  V30 2580 H 247.445 2.46285 4.94012 0
M  V30 2581 H 247.922 0.891833 4.3005 0
M  V30 2582 H 248.528 2.37496 3.52811 0
M  V30 2583 N 246.843 -1.10192 1.12674 0
M  V30 2584 C 248.089 -1.82475 0.884915 0
M  V30 2585 C 248.422 -1.85093 -0.58773 0
M  V30 2586 O 247.697 -1.3134 -1.43457 0
M  V30 2587 C 247.98 -3.29018 1.46353 0
M  V30 2588 C 247.833 -3.34718 3.00473 0
M  V30 2589 C 249.152 -4.25473 1.12519 0
M  V30 2590 H 246.271 -0.662492 0.322915 0
M  V30 2591 H 248.913 -1.2913 1.39375 0
M  V30 2592 H 247.063 -3.74576 1.03077 0
M  V30 2593 H 248.735 -2.97622 3.52447 0
M  V30 2594 H 246.978 -2.74541 3.35872 0
M  V30 2595 H 247.649 -4.37918 3.36053 0
M  V30 2596 H 250.125 -3.88161 1.499 0
M  V30 2597 H 249.001 -5.26365 1.55663 0
M  V30 2598 H 249.262 -4.42084 0.0377407 0
M  V30 2599 N 248.321 -0.919034 -1.28029 0
M  V30 2600 C 249.268 -0.410005 -2.27129 0
M  V30 2601 C 250.238 0.518405 -1.57803 0
M  V30 2602 O 251.423 0.439451 -1.8567 0
M  V30 2603 C 248.563 0.339054 -3.4343 0
M  V30 2604 C 247.676 -0.622468 -4.27492 0
M  V30 2605 C 246.811 0.145567 -5.31001 0
M  V30 2606 C 245.85 -0.809226 -6.06727 0
M  V30 2607 N 244.987 -0.0743728 -7.02061 0
M  V30 2608 H 249.827 -1.26011 -2.70047 0
M  V30 2609 H 247.364 -0.632663 -1.328 0
M  V30 2610 H 249.322 0.789586 -4.0966 0
M  V30 2611 H 247.952 1.15346 -3.01488 0
M  V30 2612 H 247.004 -1.19153 -3.61257 0
M  V30 2613 H 248.316 -1.35252 -4.80113 0
M  V30 2614 H 247.47 0.656417 -6.03139 0
M  V30 2615 H 246.209 0.908643 -4.79161 0
M  V30 2616 H 245.214 -1.3314 -5.33436 0
M  V30 2617 H 246.439 -1.57194 -6.60656 0
M  V30 2618 H 244.385 0.670616 -6.52563 0
M  V30 2619 H 244.302 -0.744157 -7.52329 0
M  V30 2620 H 245.57 0.416109 -7.78389 0
M  V30 2621 N 249.799 1.42003 -0.683588 0
M  V30 2622 C 251.046 2.01413 -0.209514 0
M  V30 2623 C 251.374 1.54088 1.1869 0
M  V30 2624 O 250.629 0.737591 1.81268 0
M  V30 2625 C 250.928 3.56827 -0.202357 0
M  V30 2626 C 250.594 4.23617 -1.54464 0
M  V30 2627 C 249.256 4.41577 -1.91215 0
M  V30 2628 C 251.608 4.61178 -2.42826 0
M  V30 2629 C 248.936 4.9437 -3.15935 0
M  V30 2630 C 251.288 5.15355 -3.66867 0
M  V30 2631 C 249.952 5.31528 -4.03776 0
M  V30 2632 H 249.222 0.737023 -0.0766668 0
M  V30 2633 H 251.869 1.70067 -0.880312 0
M  V30 2634 H 250.174 3.87892 0.551969 0
M  V30 2635 H 251.871 4.00588 0.181793 0
M  V30 2636 H 248.461 4.10004 -1.24877 0
M  V30 2637 H 252.645 4.46968 -2.15717 0
M  V30 2638 H 247.901 5.05076 -3.44541 0
M  V30 2639 H 252.075 5.43402 -4.35531 0
M  V30 2640 H 249.702 5.72199 -5.00492 0
M  V30 2641 N 251.277 0.427512 1.51691 0
M  V30 2642 C 252.693 0.0792977 1.59403 0
M  V30 2643 C 252.893 -1.41035 1.43914 0
M  V30 2644 O 251.949 -2.17922 1.27539 0
M  V30 2645 C 253.262 0.590636 2.94842 0
M  V30 2646 C 254.81 0.550215 3.08126 0
M  V30 2647 C 255.285 1.03836 4.46074 0
M  V30 2648 N 256.776 0.995943 4.52366 0
M  V30 2649 C 257.511 1.34463 5.57411 0
M  V30 2650 N 257.007 1.76569 6.69922 0
M  V30 2651 N 258.8 1.26343 5.47717 0
M  V30 2652 H 250.951 1.39687 1.60004 0
M  V30 2653 H 253.214 0.575003 0.753708 0
M  V30 2654 H 252.92 1.63251 3.11516 0
M  V30 2655 H 252.794 0.0102061 3.77199 0
M  V30 2656 H 255.181 -0.482654 2.91126 0
M  V30 2657 H 255.262 1.16693 2.27632 0
M  V30 2658 H 254.906 2.06965 4.63819 0
M  V30 2659 H 254.836 0.398286 5.25092 0
M  V30 2660 H 257.327 0.68661 3.7161 0
M  V30 2661 H 257.64 2.01438 7.46085 0
M  V30 2662 H 255.985 1.80488 6.71155 0
M  V30 2663 H 259.176 0.933209 4.58703 0
M  V30 2664 H 259.349 1.53846 6.29472 0
M  V30 2665 N 252.755 -1.56801 0.158532 0
M  V30 2666 C 253.995 -1.98383 -0.49229 0
M  V30 2667 C 254.359 -1.04184 -1.61275 0
M  V30 2668 O 255.56 -1.34856 -2.32524 0
M  V30 2669 C 253.831 -3.4385 -0.974766 0
M  V30 2670 S 255.39 -4.07459 -1.62857 0
M  V30 2671 H 252.208 -0.693041 -0.158794 0
M  V30 2672 H 254.81 -1.93856 0.252974 0
M  V30 2673 H 253.514 -4.10131 -0.148688 0
M  V30 2674 H 253.045 -3.52115 -1.75438 0
M  V30 2675 H 255.06 -4.01458 -2.91627 0
M  V30 2676 N 254.233 0.115231 -1.57178 0
M  V30 2677 C 255.644 0.67197 -1.74188 0
M  V30 2678 C 255.995 1.80125 -0.777777 0
M  V30 2679 O 255.12 2.16346 0.0484376 0
M  V30 2680 C 255.715 1.22573 -3.1585 0
M  V30 2681 C 254.274 1.72872 -3.34353 0
M  V30 2682 C 253.421 0.629972 -2.70049 0
M  V30 2683 H 256.372 -0.110712 -1.58313 0
M  V30 2684 H 256.393 2.09535 -3.17609 0
M  V30 2685 H 255.905 0.403598 -3.85996 0
M  V30 2686 H 254.006 2.5755 -2.69256 0
M  V30 2687 H 254.119 1.83557 -4.42542 0
M  V30 2688 H 252.483 1.0645 -2.31388 0
M  V30 2689 H 253.266 -0.181241 -3.42821 0
M  V30 2690 N 255.711 1.52812 0.385517 0
M  V30 2691 C 256.674 1.77188 1.45386 0
M  V30 2692 C 257.674 0.641953 1.4743 0
M  V30 2693 O 258.864 0.910033 1.4854 0
M  V30 2694 C 255.996 1.87582 2.8465 0
M  V30 2695 H 257.189 2.72583 1.25054 0
M  V30 2696 H 254.742 1.43586 0.617467 0
M  V30 2697 H 255.477 0.941849 3.10322 0
M  V30 2698 H 255.262 2.69748 2.84567 0
M  V30 2699 H 256.752 2.08102 3.62054 0
M  V30 2700 N 257.189 -0.644168 1.43834 0
M  V30 2701 C 258.152 -1.73857 1.49353 0
M  V30 2702 C 259.152 -1.56315 0.377112 0
M  V30 2703 O 260.342 -1.62048 0.639226 0
M  V30 2704 C 257.474 -3.12819 1.35488 0
M  V30 2705 H 258.667 -1.70342 2.46827 0
M  V30 2706 H 256.22 -0.856652 1.30733 0
M  V30 2707 H 256.955 -3.2194 0.390569 0
M  V30 2708 H 256.74 -3.26958 2.16428 0
M  V30 2709 H 258.23 -3.92606 1.42302 0
M  V30 2710 N 258.668 -1.30515 -0.883378 0
M  V30 2711 C 259.916 -1.19194 -1.63209 0
M  V30 2712 C 260.237 0.253205 -1.93349 0
M  V30 2713 O 259.507 1.17025 -1.57105 0
M  V30 2714 H 258.087 -0.438148 -0.605009 0
M  V30 2715 H 260.749 -1.63663 -1.05832 0
M  V30 2716 H 259.845 -1.75396 -2.58153 0
M  V30 2717 N 260.146 1.09593 -1.13257 0
M  V30 2718 C 261.094 2.18271 -0.803783 0
M  V30 2719 C 262.088 1.68054 0.213148 0
M  V30 2720 O 263.294 1.79862 0.0704699 0
M  V30 2721 H 259.669 0.711949 -0.242143 0
M  V30 2722 H 261.64 2.43235 -1.72856 0
M  V30 2723 C 260.389 3.46536 -0.28424 0
M  V30 2724 H 259.712 3.85545 -1.05807 0
M  V30 2725 H 261.152 4.23899 -0.0925945 0
M  V30 2726 C 259.611 3.22036 0.989684 0
M  V30 2727 O 260.141 3.44509 2.06584 0
M  V30 2728 N 258.347 2.7565 0.920086 0
M  V30 2729 H 257.894 2.57562 0.0442019 0
M  V30 2730 H 257.852 2.59635 1.77306 0
M  V30 2731 N 261.624 0.925811 1.2754 0
M  V30 2732 C 263.035 0.610102 1.7645 0
M  V30 2733 C 263.386 -0.874723 1.75622 0
M  V30 2734 O 262.511 -1.68444 1.35851 0
M  V30 2735 C 263.106 1.10073 3.20421 0
M  V30 2736 C 261.665 0.835723 3.67005 0
M  V30 2737 C 260.812 1.26054 2.46993 0
M  V30 2738 H 263.763 1.10579 1.13833 0
M  V30 2739 H 263.784 0.447557 3.77859 0
M  V30 2740 H 263.296 2.18143 3.20991 0
M  V30 2741 H 261.397 -0.231249 3.71882 0
M  V30 2742 H 261.51 1.45193 4.56569 0
M  V30 2743 H 259.874 0.679111 2.45479 0
M  V30 2744 H 260.657 2.34984 2.50275 0
M  V30 2745 N 263.102 -1.41638 0.69111 0
M  V30 2746 C 264.33 -2.05628 0.22909 0
M  V30 2747 C 264.745 -1.51992 -1.11999 0
M  V30 2748 O 264.102 -0.666322 -1.69901 0
M  V30 2749 C 264.153 -3.61084 0.173283 0
M  V30 2750 O 263.874 -4.12735 1.46907 0
M  V30 2751 C 265.375 -4.42213 -0.310266 0
M  V30 2752 H 262.595 -0.662327 0.107534 0
M  V30 2753 H 265.139 -1.81489 0.942438 0
M  V30 2754 H 263.294 -3.84278 -0.490858 0
M  V30 2755 H 263.708 -5.06743 1.35322 0
M  V30 2756 H 265.182 -5.51194 -0.298196 0
M  V30 2757 H 265.659 -4.1799 -1.34838 0
M  V30 2758 H 266.265 -4.24074 0.322716 0
M  V30 2759 N 264.58 -0.43555 -1.51462 0
M  V30 2760 C 265.991 0.0279871 -1.86679 0
M  V30 2761 C 266.342 1.42104 -1.35281 0
M  V30 2762 O 265.467 2.04667 -0.702878 0
M  V30 2763 C 266.062 0.0575626 -3.38751 0
M  V30 2764 C 264.621 0.465507 -3.7351 0
M  V30 2765 C 263.768 -0.342996 -2.75171 0
M  V30 2766 H 266.719 -0.651473 -1.44712 0
M  V30 2767 H 266.74 0.867421 -3.70481 0
M  V30 2768 H 266.252 -0.956448 -3.7613 0
M  V30 2769 H 264.353 1.48519 -3.41721 0
M  V30 2770 H 264.466 0.191546 -4.78717 0
M  V30 2771 H 262.83 0.198442 -2.53926 0
M  V30 2772 H 263.613 -1.35585 -3.15391 0
M  V30 2773 N 266.058 1.56714 -0.166846 0
M  V30 2774 C 267.286 2.0112 0.485644 0
M  V30 2775 C 267.701 1.04705 1.57106 0
M  V30 2776 O 267.058 0.0471923 1.82439 0
M  V30 2777 C 267.109 3.45361 1.06808 0
M  V30 2778 O 266.83 4.38092 0.0259995 0
M  V30 2779 C 268.331 4.05145 1.79924 0
M  V30 2780 H 265.551 0.65931 0.124704 0
M  V30 2781 H 268.095 2.02746 -0.267262 0
M  V30 2782 H 266.25 3.44524 1.7715 0
M  V30 2783 H 266.664 5.22519 0.455398 0
M  V30 2784 H 268.138 5.08009 2.15942 0
M  V30 2785 H 268.615 3.46982 2.69258 0
M  V30 2786 H 269.221 4.09672 1.14234 0
M  V30 2787 N 267.536 -0.106894 1.57237 0
M  V30 2788 C 268.785 -0.811163 1.8467 0
M  V30 2789 C 269.098 -1.80469 0.754342 0
M  V30 2790 O 270.304 -2.55601 0.915439 0
M  V30 2791 C 268.76 -1.49337 3.27454 0
M  V30 2792 C 268.368 -0.540217 4.44731 0
M  V30 2793 C 270.112 -2.18206 3.64124 0
M  V30 2794 C 268.019 -1.22634 5.78545 0
M  V30 2795 H 266.949 -0.306679 0.688813 0
M  V30 2796 H 269.6 -0.0639887 1.83388 0
M  V30 2797 H 267.982 -2.2876 3.23241 0
M  V30 2798 H 269.156 0.221659 4.60267 0
M  V30 2799 H 267.471 0.042146 4.16379 0
M  V30 2800 H 270.068 -2.70253 4.61376 0
M  V30 2801 H 270.411 -2.96562 2.92158 0
M  V30 2802 H 270.944 -1.45658 3.70174 0
M  V30 2803 H 267.683 -0.483832 6.53712 0
M  V30 2804 H 267.203 -1.95993 5.66874 0
M  V30 2805 H 268.882 -1.75615 6.2271 0
M  V30 2806 N 269.014 -1.53014 -0.377408 0
M  V30 2807 C 270.43 -1.42523 -0.718281 0
M  V30 2808 C 270.63 -0.55487 -1.9371 0
M  V30 2809 O 269.686 -0.0327593 -2.52479 0
M  V30 2810 C 270.999 -2.85546 -0.942539 0
M  V30 2811 C 272.547 -2.95101 -1.04329 0
M  V30 2812 C 273.022 -4.3916 -1.3001 0
M  V30 2813 N 274.513 -4.42536 -1.36806 0
M  V30 2814 C 275.248 -5.51097 -1.58364 0
M  V30 2815 N 274.744 -6.69724 -1.77317 0
M  V30 2816 N 276.537 -5.38657 -1.60638 0
M  V30 2817 H 268.688 -2.08116 0.424426 0
M  V30 2818 H 270.951 -0.939352 0.127759 0
M  V30 2819 H 270.657 -3.51499 -0.118929 0
M  V30 2820 H 270.531 -3.28493 -1.85397 0
M  V30 2821 H 272.918 -2.29309 -1.85745 0
M  V30 2822 H 272.999 -2.55566 -0.109505 0
M  V30 2823 H 272.643 -5.05521 -0.490991 0
M  V30 2824 H 272.573 -4.76258 -2.24691 0
M  V30 2825 H 275.064 -3.57039 -1.23821 0
M  V30 2826 H 275.377 -7.48233 -1.93306 0
M  V30 2827 H 273.722 -6.72732 -1.74518 0
M  V30 2828 H 276.913 -4.44948 -1.45391 0
M  V30 2829 H 277.086 -6.2333 -1.77098 0
M  V30 2830 N 270.492 0.636531 -1.44174 0
M  V30 2831 C 271.738 1.39649 -1.47884 0
M  V30 2832 C 272.093 1.92098 -0.107747 0
M  V30 2833 O 271.386 1.70391 0.876208 0
M  V30 2834 C 271.58 2.58309 -2.47005 0
M  V30 2835 C 271.409 2.17476 -3.93617 0
M  V30 2836 C 270.179 2.0501 -4.61843 0
M  V30 2837 C 272.377 1.76722 -4.82984 0
M  V30 2838 N 270.359 1.57683 -5.93304 0
M  V30 2839 C 271.73 1.40601 -6.03847 0
M  V30 2840 C 273.785 1.64054 -4.70096 0
M  V30 2841 C 272.488 0.930787 -7.13252 0
M  V30 2842 C 274.514 1.17937 -5.79521 0
M  V30 2843 C 273.876 0.827625 -6.99521 0
M  V30 2844 H 269.975 0.506027 -0.596205 0
M  V30 2845 H 272.559 0.730791 -1.80465 0
M  V30 2846 H 270.73 3.22514 -2.16423 0
M  V30 2847 H 272.462 3.25083 -2.41045 0
M  V30 2848 H 269.217 2.25294 -4.16581 0
M  V30 2849 H 269.641 1.36334 -6.63131 0
M  V30 2850 H 274.283 1.89882 -3.77762 0
M  V30 2851 H 272.001 0.660012 -8.054 0
M  V30 2852 H 275.587 1.08601 -5.71574 0
M  V30 2853 H 274.467 0.476231 -7.82753 0
M  V30 2854 N 271.97 1.30982 0.876444 0
M  V30 2855 C 272.9 1.20668 1.99903 0
M  V30 2856 C 273.881 0.095354 1.69833 0
M  V30 2857 O 275.066 0.27885 1.92188 0
M  V30 2858 C 272.196 0.90655 3.3526 0
M  V30 2859 C 271.15 1.97675 3.79617 0
M  V30 2860 C 270.476 1.52943 5.1236 0
M  V30 2861 C 271.776 3.389 3.97422 0
M  V30 2862 H 273.47 2.14586 2.0879 0
M  V30 2863 H 271.016 1.03308 1.00317 0
M  V30 2864 H 272.969 0.821025 4.13324 0
M  V30 2865 H 271.693 -0.0682969 3.26529 0
M  V30 2866 H 270.352 2.05205 3.03787 0
M  V30 2867 H 270 0.54262 5.00065 0
M  V30 2868 H 269.7 2.24532 5.43009 0
M  V30 2869 H 271.224 1.45786 5.92941 0
M  V30 2870 H 272.638 3.34081 4.659 0
M  V30 2871 H 271.035 4.0865 4.3946 0
M  V30 2872 H 272.105 3.80163 3.01006 0
M  V30 2873 N 273.449 -1.08991 1.13837 0
M  V30 2874 C 274.396 -2.15748 0.819835 0
M  V30 2875 C 275.366 -1.64636 -0.220026 0
M  V30 2876 O 276.551 -1.90582 -0.0912757 0
M  V30 2877 C 273.691 -3.4382 0.296913 0
M  V30 2878 C 272.804 -4.0881 1.39636 0
M  V30 2879 C 271.939 -5.24655 0.831314 0
M  V30 2880 C 270.978 -5.81575 1.90886 0
M  V30 2881 N 270.115 -6.88774 1.36142 0
M  V30 2882 H 274.955 -2.42338 1.73426 0
M  V30 2883 H 272.492 -1.18935 0.865613 0
M  V30 2884 H 274.45 -4.17193 -0.0244339 0
M  V30 2885 H 273.08 -3.17535 -0.580628 0
M  V30 2886 H 272.132 -3.33258 1.83422 0
M  V30 2887 H 273.444 -4.47141 2.21058 0
M  V30 2888 H 272.598 -6.04942 0.461515 0
M  V30 2889 H 271.337 -4.87698 -0.013932 0
M  V30 2890 H 270.342 -4.99946 2.28767 0
M  V30 2891 H 271.567 -6.20592 2.75758 0
M  V30 2892 H 269.513 -6.53788 0.538254 0
M  V30 2893 H 269.43 -7.25898 2.11208 0
M  V30 2894 H 270.698 -7.72806 1.01933 0
M  V30 2895 N 274.927 -0.932562 -1.27047 0
M  V30 2896 C 276.204 -0.49377 -1.89265 0
M  V30 2897 C 276.584 1.02833 -1.8436 0
M  V30 2898 O 275.932 1.88461 -1.29209 0
M  V30 2899 C 276.142 -1.04536 -3.32976 0
M  V30 2900 C 277.49 -1.10879 -4.09867 0
M  V30 2901 O 278.514 -0.995327 -3.42011 0
M  V30 2902 O 277.373 -1.28417 -5.31198 0
M  V30 2903 H 274.467 -0.159596 -0.811454 0
M  V30 2904 H 277.013 -1.02457 -1.3528 0
M  V30 2905 H 275.785 -2.08913 -3.30864 0
M  V30 2906 H 275.408 -0.496494 -3.94488 0
M  V30 2907 N 276.405 1.4127 -0.698611 0
M  V30 2908 C 277.653 2.00782 -0.230409 0
M  V30 2909 C 277.974 1.5562 1.17505 0
M  V30 2910 O 277.244 0.78815 1.79346 0
M  V30 2911 H 275.824 0.742464 -0.0821944 0
M  V30 2912 H 278.486 1.72852 -0.90045 0
M  V30 2913 H 277.582 3.11095 -0.25021 0
M  V30 2914 N 277.883 0.443576 1.51229 0
M  V30 2915 C 278.815 -0.400608 2.25672 0
M  V30 2916 C 279.828 -0.980945 1.29928 0
M  V30 2917 O 281.017 -0.874024 1.55638 0
M  V30 2918 C 278.117 -1.57304 3.00181 0
M  V30 2919 C 277.29 -1.11046 4.23069 0
M  V30 2920 C 276.349 -2.15374 4.80105 0
M  V30 2921 O 275.375 -1.74554 5.41774 0
M  V30 2922 N 276.577 -3.47922 4.64683 0
M  V30 2923 H 279.342 0.23745 2.98758 0
M  V30 2924 H 276.903 0.272809 1.59585 0
M  V30 2925 H 278.895 -2.26733 3.35223 0
M  V30 2926 H 277.465 -2.11632 2.30066 0
M  V30 2927 H 276.685 -0.243019 3.9345 0
M  V30 2928 H 277.973 -0.778888 5.02803 0
M  V30 2929 H 277.371 -3.83815 4.15575 0
M  V30 2930 H 275.928 -4.13228 5.0407 0
M  V30 2931 N 279.361 -1.56624 0.175154 0
M  V30 2932 C 280.324 -2.16934 -0.739738 0
M  V30 2933 C 281.324 -1.11842 -1.15533 0
M  V30 2934 O 282.514 -1.37335 -1.07167 0
M  V30 2935 C 279.646 -2.75531 -2.00738 0
M  V30 2936 H 280.839 -2.99131 -0.214639 0
M  V30 2937 H 278.392 -1.56123 -0.0744197 0
M  V30 2938 H 279.127 -1.97078 -2.57548 0
M  V30 2939 H 278.912 -3.52444 -1.71831 0
M  V30 2940 H 280.402 -3.21904 -2.66021 0
M  V30 2941 N 280.839 0.0985539 -1.57292 0
M  V30 2942 C 282.086 0.802678 -1.85912 0
M  V30 2943 C 282.414 1.78901 -0.763186 0
M  V30 2944 O 281.669 1.94178 0.243559 0
M  V30 2945 C 281.968 1.56927 -3.21105 0
M  V30 2946 C 281.634 0.725376 -4.45027 0
M  V30 2947 C 280.296 0.492726 -4.78671 0
M  V30 2948 C 282.648 0.138493 -5.21016 0
M  V30 2949 C 279.976 -0.336727 -5.85733 0
M  V30 2950 C 282.328 -0.678264 -6.28953 0
M  V30 2951 C 280.992 -0.921039 -6.61115 0
M  V30 2952 H 280.262 0.293721 -0.680301 0
M  V30 2953 H 282.909 0.0642841 -1.91392 0
M  V30 2954 H 281.214 2.37914 -3.11294 0
M  V30 2955 H 282.911 2.11841 -3.40477 0
M  V30 2956 H 279.501 0.916815 -4.18679 0
M  V30 2957 H 283.685 0.305404 -4.95359 0
M  V30 2958 H 278.941 -0.533836 -6.09065 0
M  V30 2959 H 283.115 -1.1399 -6.87007 0
M  V30 2960 H 280.742 -1.56556 -7.43905 0
M  V30 2961 N 282.317 1.53212 0.369288 0
M  V30 2962 C 283.267 1.75769 1.45222 0
M  V30 2963 C 284.251 0.612136 1.48801 0
M  V30 2964 O 285.443 0.870674 1.54105 0
M  V30 2965 C 282.572 1.94769 2.82701 0
M  V30 2966 C 281.658 3.15315 2.83615 0
M  V30 2967 N 282.049 4.37295 2.54178 0
M  V30 2968 C 280.347 3.15962 3.14776 0
M  V30 2969 C 281.048 5.19015 2.62675 0
M  V30 2970 N 280.024 4.55142 2.97232 0
M  V30 2971 H 283.826 2.67691 1.2132 0
M  V30 2972 H 281.34 1.51787 0.577438 0
M  V30 2973 H 283.337 2.09056 3.60696 0
M  V30 2974 H 281.997 1.04073 3.07569 0
M  V30 2975 H 283.008 4.65091 2.27839 0
M  V30 2976 H 279.685 2.35144 3.44983 0
M  V30 2977 H 281.075 6.26305 2.43294 0
M  V30 2978 N 283.795 -0.628877 1.44509 0
M  V30 2979 C 285.043 -1.38565 1.4712 0
M  V30 2980 C 285.364 -1.94712 0.105899 0
M  V30 2981 O 284.634 -1.75912 -0.862079 0
M  V30 2982 H 283.214 -0.514333 0.541729 0
M  V30 2983 H 285.876 -0.740018 1.80305 0
M  V30 2984 H 284.972 -2.21583 2.19789 0
M  V30 2985 N 285.273 -1.31445 -0.869486 0
M  V30 2986 C 286.183 -1.21097 -2.0093 0
M  V30 2987 C 287.199 -0.127584 -1.73532 0
M  V30 2988 O 288.375 -0.345477 -1.98415 0
M  V30 2989 C 285.44 -0.919378 -3.34288 0
M  V30 2990 C 284.501 -2.08971 -3.75006 0
M  V30 2991 C 283.734 -1.81194 -5.02001 0
M  V30 2992 O 283.957 -0.747296 -5.65484 0
M  V30 2993 O 282.891 -2.66883 -5.39497 0
M  V30 2994 H 286.717 -2.16883 -2.12592 0
M  V30 2995 H 284.302 -1.11189 -0.997868 0
M  V30 2996 H 286.184 -0.772625 -4.14257 0
M  V30 2997 H 284.859 0.00844772 -3.23699 0
M  V30 2998 H 283.766 -2.29187 -2.95676 0
M  V30 2999 H 285.099 -2.9998 -3.90221 0
M  V30 3000 N 286.751 1.08385 -1.14413 0
M  V30 3001 C 287.699 2.17406 -0.826888 0
M  V30 3002 C 288.693 1.6827 0.195312 0
M  V30 3003 O 289.899 1.79927 0.0513892 0
M  V30 3004 H 286.274 0.70934 -0.249681 0
M  V30 3005 H 288.245 2.41388 -1.75426 0
M  V30 3006 C 286.994 3.46215 -0.320979 0
M  V30 3007 H 286.317 3.84401 -1.0989 0
M  V30 3008 H 287.757 4.23777 -0.137549 0
M  V30 3009 C 286.216 3.23067 0.955472 0
M  V30 3010 O 286.746 3.4668 2.02918 0
M  V30 3011 N 284.952 2.7661 0.890798 0
M  V30 3012 H 284.499 2.57594 0.0168815 0
M  V30 3013 H 284.457 2.61501 1.74542 0
M  V30 3014 N 288.23 0.939286 1.26551 0
M  V30 3015 C 289.646 0.641304 1.46149 0
M  V30 3016 C 289.846 -0.805964 1.84679 0
M  V30 3017 O 288.902 -1.58278 1.96734 0
M  V30 3018 C 290.215 1.6011 2.54529 0
M  V30 3019 C 291.763 1.6106 2.68382 0
M  V30 3020 C 292.238 2.55765 3.79932 0
M  V30 3021 N 293.729 2.5404 3.87322 0
M  V30 3022 C 294.464 3.24004 4.73085 0
M  V30 3023 N 293.96 4.03388 5.63249 0
M  V30 3024 N 295.753 3.12965 4.66914 0
M  V30 3025 H 287.904 1.87478 0.998285 0
M  V30 3026 H 290.167 0.805559 0.499779 0
M  V30 3027 H 289.873 2.63412 2.33039 0
M  V30 3028 H 289.747 1.35171 3.52149 0
M  V30 3029 H 292.134 0.584835 2.89247 0
M  V30 3030 H 292.215 1.90053 1.71212 0
M  V30 3031 H 291.859 3.58458 3.5982 0
M  V30 3032 H 291.789 2.24063 4.76554 0
M  V30 3033 H 294.28 1.96396 3.22858 0
M  V30 3034 H 294.593 4.5373 6.25579 0
M  V30 3035 H 292.938 4.07489 5.63008 0
M  V30 3036 H 296.129 2.50432 3.95476 0
M  V30 3037 H 296.302 3.67759 5.33533 0
M  V30 3038 N 289.708 -1.40897 0.706093 0
M  V30 3039 C 290.957 -2.00284 0.238574 0
M  V30 3040 C 291.27 -1.56604 -1.17194 0
M  V30 3041 O 292.476 -2.08624 -1.73748 0
M  V30 3042 C 290.932 -3.57934 0.375623 0
M  V30 3043 C 290.54 -4.10591 1.79217 0
M  V30 3044 C 292.284 -4.24488 -0.0315857 0
M  V30 3045 C 290.191 -5.60712 1.88032 0
M  V30 3046 H 289.121 -0.749144 0.0854398 0
M  V30 3047 H 291.772 -1.61251 0.875813 0
M  V30 3048 H 290.154 -3.94622 -0.330042 0
M  V30 3049 H 291.328 -3.85301 2.52745 0
M  V30 3050 H 289.643 -3.56601 2.15 0
M  V30 3051 H 292.24 -5.34698 0.0136842 0
M  V30 3052 H 292.583 -4.02261 -1.072 0
M  V30 3053 H 293.116 -3.92873 0.624181 0
M  V30 3054 H 289.855 -5.87781 2.90161 0
M  V30 3055 H 289.375 -5.87896 1.18903 0
M  V30 3056 H 291.054 -6.25658 1.64805 0
M  V30 3057 N 291.186 -0.45159 -1.50991 0
M  V30 3058 C 292.434 0.109857 -2.01801 0
M  V30 3059 C 292.755 1.41958 -1.3369 0
M  V30 3060 O 292.025 1.9003 -0.475951 0
M  V30 3061 H 290.605 0.0435884 -0.745727 0
M  V30 3062 H 293.267 -0.597557 -1.85514 0
M  V30 3063 H 292.363 0.275489 -3.10882 0
M  V30 3064 N 292.664 1.56529 -0.183458 0
M  V30 3065 C 293.912 1.96855 0.457452 0
M  V30 3066 C 294.233 1.07104 1.62953 0
M  V30 3067 O 293.503 0.139887 1.954 0
M  V30 3068 H 292.083 0.72693 0.171992 0
M  V30 3069 H 294.745 1.93056 -0.267476 0
M  V30 3070 H 293.841 3.01423 0.809368 0
M  V30 3071 N 294.142 -0.090211 1.57342 0
M  V30 3072 C 295.391 -0.791531 1.8552 0
M  V30 3073 C 295.704 -1.79659 0.773441 0
M  V30 3074 O 296.91 -2.54616 0.942497 0
M  V30 3075 C 295.366 -1.45856 3.2902 0
M  V30 3076 C 294.974 -0.493017 4.45279 0
M  V30 3077 C 296.718 -2.14332 3.66418 0
M  V30 3078 C 294.625 -1.16491 5.79814 0
M  V30 3079 H 293.555 -0.299356 0.692027 0
M  V30 3080 H 296.206 -0.0445343 1.83446 0
M  V30 3081 H 294.588 -2.25318 3.2565 0
M  V30 3082 H 295.762 0.270464 4.60006 0
M  V30 3083 H 294.077 0.0863061 4.16311 0
M  V30 3084 H 296.674 -2.65344 4.64216 0
M  V30 3085 H 297.017 -2.93447 2.95287 0
M  V30 3086 H 297.55 -1.41724 3.71698 0
M  V30 3087 H 294.289 -0.41447 6.54188 0
M  V30 3088 H 293.809 -1.8997 5.68921 0
M  V30 3089 H 295.488 -1.69001 6.24538 0
M  V30 3090 N 295.62 -1.53406 -0.361157 0
M  V30 3091 C 297.036 -1.43277 -0.703124 0
M  V30 3092 C 297.236 -0.575384 -1.9311 0
M  V30 3093 O 296.292 -0.0595362 -2.5243 0
M  V30 3094 C 297.605 -2.8653 -0.9122 0
M  V30 3095 C 299.153 -2.96191 -1.01193 0
M  V30 3096 C 299.628 -4.40514 -1.25345 0
M  V30 3097 N 301.119 -4.43962 -1.32105 0
M  V30 3098 C 301.854 -5.52746 -1.5251 0
M  V30 3099 N 301.35 -6.71567 -1.70203 0
M  V30 3100 N 303.143 -5.40331 -1.54916 0
M  V30 3101 H 295.294 -2.07654 0.446475 0
M  V30 3102 H 297.557 -0.937944 0.137715 0
M  V30 3103 H 297.263 -3.51605 -0.0816414 0
M  V30 3104 H 297.137 -3.30441 -1.81903 0
M  V30 3105 H 299.524 -2.31266 -1.83303 0
M  V30 3106 H 299.605 -2.55667 -0.0823929 0
M  V30 3107 H 299.249 -5.06014 -0.437346 0
M  V30 3108 H 299.179 -4.78614 -2.19627 0
M  V30 3109 H 301.67 -3.58332 -1.20028 0
M  V30 3110 H 301.983 -7.50241 -1.85359 0
M  V30 3111 H 300.328 -6.74545 -1.67373 0
M  V30 3112 H 303.519 -4.46465 -1.40663 0
M  V30 3113 H 303.692 -6.25173 -1.70477 0
M  V30 3114 N 297.098 0.621204 -1.44841 0
M  V30 3115 C 298.028 1.74366 -1.55303 0
M  V30 3116 C 299.009 1.65199 -0.405385 0
M  V30 3117 O 300.194 1.83807 -0.626787 0
M  V30 3118 C 297.324 3.12931 -1.50637 0
M  V30 3119 C 296.278 3.36896 -2.63979 0
M  V30 3120 C 295.604 4.75594 -2.44366 0
M  V30 3121 C 296.904 3.28483 -4.06074 0
M  V30 3122 H 298.598 1.65867 -2.49256 0
M  V30 3123 H 296.144 0.796558 -1.19962 0
M  V30 3124 H 298.097 3.9124 -1.56555 0
M  V30 3125 H 296.821 3.22237 -0.532057 0
M  V30 3126 H 295.48 2.60972 -2.57467 0
M  V30 3127 H 295.128 4.81616 -1.45105 0
M  V30 3128 H 294.828 4.92586 -3.20364 0
M  V30 3129 H 296.352 5.5612 -2.52117 0
M  V30 3130 H 297.766 3.96684 -4.13902 0
M  V30 3131 H 296.163 3.57008 -4.82354 0
M  V30 3132 H 297.233 2.26133 -4.28943 0
M  V30 3133 N 298.576 1.31904 0.862503 0
M  V30 3134 C 299.992 1.10724 1.14945 0
M  V30 3135 C 300.192 -0.117421 2.01158 0
M  V30 3136 O 299.248 -0.804595 2.39338 0
M  V30 3137 C 300.561 2.38267 1.83437 0
M  V30 3138 C 302.109 2.43949 1.96106 0
M  V30 3139 C 302.584 3.71394 2.68013 0
M  V30 3140 N 304.075 3.72331 2.75543 0
M  V30 3141 C 304.81 4.67641 3.31812 0
M  V30 3142 N 304.306 5.73313 3.88953 0
M  V30 3143 N 306.099 4.5515 3.29841 0
M  V30 3144 H 298.25 2.10436 0.288191 0
M  V30 3145 H 300.513 0.928705 0.190292 0
M  V30 3146 H 300.219 3.27759 1.27542 0
M  V30 3147 H 300.093 2.48633 2.83657 0
M  V30 3148 H 302.48 1.54922 2.51164 0
M  V30 3149 H 302.561 2.37543 0.949059 0
M  V30 3150 H 302.205 4.60791 2.13621 0
M  V30 3151 H 302.135 3.75069 3.69636 0
M  V30 3152 H 304.626 2.95947 2.34997 0
M  V30 3153 H 304.939 6.42107 4.30022 0
M  V30 3154 H 303.284 5.77077 3.87308 0
M  V30 3155 H 306.475 3.71766 2.84443 0
M  V30 3156 H 306.648 5.29604 3.73394 0
M  V30 3157 N 300.054 -1.07777 1.14986 0
M  V30 3158 C 301.004 -2.13082 0.811181 0
M  V30 3159 C 301.988 -1.59619 -0.202597 0
M  V30 3160 O 303.18 -1.77 -0.00398275 0
M  V30 3161 C 300.309 -3.42009 0.297439 0
M  V30 3162 C 299.395 -4.02337 1.34112 0
M  V30 3163 N 299.786 -4.36982 2.54716 0
M  V30 3164 C 298.084 -4.29752 1.19285 0
M  V30 3165 C 298.785 -4.84729 3.21578 0
M  V30 3166 N 297.761 -4.83233 2.48972 0
M  V30 3167 H 301.563 -2.37696 1.72853 0
M  V30 3168 H 299.077 -1.25173 1.03468 0
M  V30 3169 H 301.074 -4.16884 0.0364777 0
M  V30 3170 H 299.734 -3.18841 -0.614022 0
M  V30 3171 H 300.745 -4.27807 2.91894 0
M  V30 3172 H 297.422 -4.16106 0.340926 0
M  V30 3173 H 298.812 -5.20863 4.24442 0
M  V30 3174 N 301.532 -0.945985 -1.26051 0
M  V30 3175 C 302.464 -0.416662 -2.25381 0
M  V30 3176 C 303.477 0.462712 -1.56086 0
M  V30 3177 O 304.666 0.272383 -1.7641 0
M  V30 3178 C 301.766 0.419812 -3.3629 0
M  V30 3179 C 300.939 -0.444531 -4.35135 0
M  V30 3180 C 299.998 0.332305 -5.2515 0
M  V30 3181 O 299.024 -0.266324 -5.68577 0
M  V30 3182 N 300.226 1.62763 -5.57215 0
M  V30 3183 H 302.991 -1.27059 -2.71433 0
M  V30 3184 H 300.552 -0.815392 -1.39868 0
M  V30 3185 H 302.544 0.947013 -3.93464 0
M  V30 3186 H 301.114 1.17456 -2.89694 0
M  V30 3187 H 300.334 -1.15291 -3.76964 0
M  V30 3188 H 301.622 -1.03478 -4.98166 0
M  V30 3189 H 301.02 2.13603 -5.23823 0
M  V30 3190 H 299.577 2.10097 -6.17011 0
M  V30 3191 N 303.011 1.40521 -0.713556 0
M  V30 3192 C 303.961 2.27971 -0.036165 0
M  V30 3193 C 304.945 1.43151 0.734623 0
M  V30 3194 O 306.137 1.66261 0.607158 0
M  V30 3195 C 303.266 3.31661 0.886331 0
M  V30 3196 C 302.352 4.23955 0.110836 0
M  V30 3197 N 302.743 4.97641 -0.904847 0
M  V30 3198 C 301.041 4.44674 0.343692 0
M  V30 3199 C 301.742 5.65322 -1.37064 0
M  V30 3200 N 300.718 5.39162 -0.693168 0
M  V30 3201 H 304.52 2.82384 -0.814645 0
M  V30 3202 H 302.034 1.52948 -0.545963 0
M  V30 3203 H 304.031 3.93154 1.38692 0
M  V30 3204 H 302.691 2.78808 1.66421 0
M  V30 3205 H 303.702 5.01689 -1.28563 0
M  V30 3206 H 300.379 4.02801 1.09805 0
M  V30 3207 H 301.769 6.34359 -2.21447 0
M  V30 3208 N 304.489 0.459591 1.5075 0
M  V30 3209 C 305.735 -0.091664 2.03193 0
M  V30 3210 C 306.09 -1.38432 1.3362 0
M  V30 3211 O 305.383 -1.86257 0.449322 0
M  V30 3212 C 305.577 -0.342866 3.55752 0
M  V30 3213 C 305.406 0.923888 4.40107 0
M  V30 3214 C 304.176 1.46388 4.83631 0
M  V30 3215 C 306.374 1.81617 4.81165 0
M  V30 3216 N 304.356 2.68086 5.52271 0
M  V30 3217 C 305.727 2.87907 5.49099 0
M  V30 3218 C 307.782 1.82793 4.63132 0
M  V30 3219 C 306.485 3.95347 6.0091 0
M  V30 3220 C 308.511 2.89182 5.15876 0
M  V30 3221 C 307.873 3.94191 5.83774 0
M  V30 3222 H 303.972 0.00619247 0.781975 0
M  V30 3223 H 306.556 0.625233 1.84388 0
M  V30 3224 H 304.727 -1.0288 3.74527 0
M  V30 3225 H 306.459 -0.887445 3.9485 0
M  V30 3226 H 303.214 1.01466 4.62603 0
M  V30 3227 H 303.638 3.29857 5.91205 0
M  V30 3228 H 308.28 1.0293 4.1008 0
M  V30 3229 H 305.998 4.76035 6.53006 0
M  V30 3230 H 309.584 2.91061 5.0376 0
M  V30 3231 H 308.464 4.75161 6.23853 0
M  V30 3232 N 305.967 -1.56429 0.191757 0
M  V30 3233 C 307.192 -2.02309 -0.456706 0
M  V30 3234 C 307.617 -1.07103 -1.5463 0
M  V30 3235 O 306.975 -0.0539677 -1.8122 0
M  V30 3236 C 307.023 -3.46654 -0.993159 0
M  V30 3237 O 306.127 -3.54559 -2.10622 0
M  V30 3238 H 305.468 -0.655303 -0.107114 0
M  V30 3239 H 307.998 -2.02364 0.301653 0
M  V30 3240 H 308.008 -3.86377 -1.31061 0
M  V30 3241 H 306.683 -4.1544 -0.195504 0
M  V30 3242 H 305.26 -3.26708 -1.79767 0
M  V30 3243 N 307.445 0.0818655 -1.57387 0
M  V30 3244 C 308.375 1.09885 -2.06028 0
M  V30 3245 C 309.356 1.4098 -0.951774 0
M  V30 3246 O 310.541 1.50781 -1.22387 0
M  V30 3247 C 307.671 2.4151 -2.4958 0
M  V30 3248 C 306.625 2.24792 -3.64215 0
M  V30 3249 C 305.951 3.61712 -3.93787 0
M  V30 3250 C 307.251 1.67749 -4.94629 0
M  V30 3251 H 308.945 0.694128 -2.91243 0
M  V30 3252 H 306.491 0.332448 -1.4011 0
M  V30 3253 H 308.444 3.12939 -2.82219 0
M  V30 3254 H 307.168 2.83943 -1.61381 0
M  V30 3255 H 305.827 1.55807 -3.31843 0
M  V30 3256 H 305.475 4.01697 -3.02735 0
M  V30 3257 H 305.175 3.51368 -4.70971 0
M  V30 3258 H 306.699 4.34587 -4.28913 0
M  V30 3259 H 308.113 2.29032 -5.25564 0
M  V30 3260 H 306.51 1.68128 -5.76067 0
M  V30 3261 H 307.58 0.638059 -4.80684 0
M  V30 3262 N 308.923 1.53595 0.353017 0
M  V30 3263 C 310.169 1.70638 1.09593 0
M  V30 3264 C 310.502 0.463286 1.88593 0
M  V30 3265 O 309.777 -0.539597 1.86865 0
M  V30 3266 C 310.06 2.96406 2.04489 0
M  V30 3267 C 309.913 4.30901 1.29014 0
M  V30 3268 C 311.232 3.17812 3.0444 0
M  V30 3269 H 308.351 0.620913 0.397034 0
M  V30 3270 H 310.993 1.86254 0.375446 0
M  V30 3271 H 309.143 2.83223 2.65927 0
M  V30 3272 H 310.815 4.55917 0.702638 0
M  V30 3273 H 309.058 4.29741 0.592071 0
M  V30 3274 H 309.729 5.1506 1.98537 0
M  V30 3275 H 312.205 3.30263 2.53112 0
M  V30 3276 H 311.081 4.07223 3.6805 0
M  V30 3277 H 311.342 2.33669 3.75301 0
M  V30 3278 N 310.401 -0.613514 1.45168 0
M  V30 3279 C 311.334 -1.73809 1.47871 0
M  V30 3280 C 312.312 -1.59097 0.33568 0
M  V30 3281 O 313.496 -1.8074 0.535299 0
M  V30 3282 C 310.623 -3.11574 1.32813 0
M  V30 3283 C 309.669 -3.4489 2.50905 0
M  V30 3284 S 310.502 -3.40393 4.13392 0
M  V30 3285 C 311.658 -4.80749 4.00789 0
M  V30 3286 H 311.891 -1.71252 2.43023 0
M  V30 3287 H 309.424 -0.789658 1.32679 0
M  V30 3288 H 311.382 -3.91065 1.24812 0
M  V30 3289 H 310.043 -3.11652 0.391418 0
M  V30 3290 H 309.236 -4.45183 2.36279 0
M  V30 3291 H 308.838 -2.72901 2.55736 0
M  V30 3292 H 311.13 -5.7041 3.65567 0
M  V30 3293 H 312.073 -5.00431 5.00974 0
M  V30 3294 H 312.481 -4.56151 3.32545 0
M  V30 3295 N 311.879 -1.3236 -0.855495 0
M  V30 3296 C 312.789 -1.23221 -1.99634 0
M  V30 3297 C 313.805 -0.145983 -1.73387 0
M  V30 3298 O 314.981 -0.366502 -1.98037 0
M  V30 3299 C 312.046 -0.954782 -3.33294 0
M  V30 3300 C 311.107 -2.12937 -3.72769 0
M  V30 3301 C 310.34 -1.86508 -5.00051 0
M  V30 3302 O 310.563 -0.807231 -5.64659 0
M  V30 3303 O 309.497 -2.72591 -5.36636 0
M  V30 3304 H 313.323 -2.19126 -2.1028 0
M  V30 3305 H 310.908 -1.12241 -0.986018 0
M  V30 3306 H 312.79 -0.816519 -4.13414 0
M  V30 3307 H 311.465 -0.0258854 -3.2369 0
M  V30 3308 H 310.372 -2.3231 -2.93228 0
M  V30 3309 H 311.705 -3.04102 -3.87018 0
M  V30 3310 N 313.357 1.07166 -1.15556 0
M  V30 3311 C 314.582 1.84053 -0.955988 0
M  V30 3312 C 315.007 1.81586 0.490739 0
M  V30 3313 O 314.365 1.21018 1.34997 0
M  V30 3314 C 314.413 3.28957 -1.47714 0
M  V30 3315 O 313.517 4.06795 -0.677593 0
M  V30 3316 H 312.858 0.569842 -0.340847 0
M  V30 3317 H 315.388 1.35178 -1.53584 0
M  V30 3318 H 315.398 3.79788 -1.4908 0
M  V30 3319 H 314.073 3.30068 -2.53037 0
M  V30 3320 H 312.65 3.6561 -0.733721 0
M  V30 3321 N 314.835 0.952656 1.25548 0
M  V30 3322 C 316.081 0.607272 1.93494 0
M  V30 3323 C 316.414 -0.853245 1.74452 0
M  V30 3324 O 315.689 -1.61194 1.08843 0
M  V30 3325 C 315.972 0.96435 3.46947 0
M  V30 3326 C 315.825 2.48045 3.75225 0
M  V30 3327 C 317.144 0.487987 4.37386 0
M  V30 3328 H 314.263 0.222096 0.702739 0
M  V30 3329 H 316.905 1.18895 1.48203 0
M  V30 3330 H 315.055 0.469361 3.85654 0
M  V30 3331 H 316.727 3.04905 3.46166 0
M  V30 3332 H 314.97 2.919 3.209 0
M  V30 3333 H 315.641 2.6808 4.82532 0
M  V30 3334 H 318.117 0.912558 4.0597 0
M  V30 3335 H 316.993 0.766547 5.43521 0
M  V30 3336 H 317.254 -0.612063 4.37843 0
M  V30 3337 N 316.313 -1.40141 0.720998 0
M  V30 3338 C 317.559 -2.01084 0.263231 0
M  V30 3339 C 317.892 -1.57052 -1.14229 0
M  V30 3340 O 317.167 -0.793027 -1.77599 0
M  V30 3341 C 317.45 -3.58401 0.349344 0
M  V30 3342 C 317.303 -4.12491 1.79363 0
M  V30 3343 C 318.622 -4.39231 -0.276351 0
M  V30 3344 H 315.741 -0.730572 0.0971228 0
M  V30 3345 H 318.383 -1.66543 0.914518 0
M  V30 3346 H 316.533 -3.87958 -0.205165 0
M  V30 3347 H 318.205 -3.93711 2.40394 0
M  V30 3348 H 316.448 -3.66576 2.31958 0
M  V30 3349 H 317.119 -5.21646 1.80524 0
M  V30 3350 H 319.595 -4.15637 0.196184 0
M  V30 3351 H 318.471 -5.48586 -0.185681 0
M  V30 3352 H 318.732 -4.20643 -1.36059 0
M  V30 3353 N 317.792 -0.46758 -1.50504 0
M  V30 3354 C 319.203 -0.0116166 -1.86696 0
M  V30 3355 C 319.554 1.39202 -1.38265 0
M  V30 3356 O 318.679 2.0313 -0.746132 0
M  V30 3357 C 319.274 -0.0143044 -3.38797 0
M  V30 3358 C 317.833 0.386175 -3.74414 0
M  V30 3359 C 316.98 -0.401287 -2.74381 0
M  V30 3360 H 319.931 -0.682022 -1.43297 0
M  V30 3361 H 319.952 0.788641 -3.72237 0
M  V30 3362 H 319.464 -1.03602 -3.74016 0
M  V30 3363 H 317.565 1.41237 -3.44794 0
M  V30 3364 H 317.678 0.0899596 -4.79016 0
M  V30 3365 H 316.042 0.144536 -2.5429 0
M  V30 3366 H 316.825 -1.42244 -3.12444 0
M  V30 3367 N 319.27 1.56325 -0.20005 0
M  V30 3368 C 320.495 2.02548 0.44597 0
M  V30 3369 C 320.92 1.07922 1.5406 0
M  V30 3370 O 320.278 0.0635775 1.81188 0
M  V30 3371 C 320.326 3.47175 0.974761 0
M  V30 3372 O 319.43 3.55671 2.08739 0
M  V30 3373 H 318.771 0.655862 0.103638 0
M  V30 3374 H 321.301 2.02201 -0.312381 0
M  V30 3375 H 321.311 3.87067 1.2901 0
M  V30 3376 H 319.986 4.15538 0.17347 0
M  V30 3377 H 318.563 3.27657 1.78032 0
M  V30 3378 N 320.748 -0.0735177 1.57428 0
M  V30 3379 C 322.025 -0.805903 1.78226 0
M  V30 3380 C 322.405 -1.95874 0.787189 0
M  V30 3381 O 321.753 -2.2779 -0.180029 0
M  V30 3382 C 321.963 -1.28045 3.24662 0
M  V30 3383 C 323.311 -1.71453 3.88444 0
M  V30 3384 O 324.335 -1.37616 3.28543 0
M  V30 3385 O 323.194 -2.34093 4.93825 0
M  V30 3386 H 320.288 -0.386041 0.73137 0
M  V30 3387 H 322.834 -0.0537269 1.69615 0
M  V30 3388 H 321.606 -0.455476 3.8864 0
M  V30 3389 H 321.229 -2.094 3.37991 0
M  V30 3390 N 322.226 -1.5378 -0.344866 0
M  V30 3391 C 323.642 -1.44015 -0.687888 0
M  V30 3392 C 323.842 -0.595834 -1.92489 0
M  V30 3393 O 322.898 -0.0863064 -2.52352 0
M  V30 3394 C 324.211 -2.87481 -0.881758 0
M  V30 3395 C 325.759 -2.97247 -0.980459 0
M  V30 3396 C 326.234 -4.41819 -1.20665 0
M  V30 3397 N 327.725 -4.45339 -1.27389 0
M  V30 3398 C 328.46 -5.54333 -1.46639 0
M  V30 3399 N 327.956 -6.73335 -1.63071 0
M  V30 3400 N 329.749 -5.41944 -1.49176 0
M  V30 3401 H 321.9 -2.07169 0.468475 0
M  V30 3402 H 324.163 -0.93643 0.147655 0
M  V30 3403 H 323.869 -3.51672 -0.0443444 0
M  V30 3404 H 323.743 -3.32352 -1.78388 0
M  V30 3405 H 326.13 -2.33197 -1.8084 0
M  V30 3406 H 326.211 -2.5574 -0.0552713 0
M  V30 3407 H 325.855 -5.06449 -0.383652 0
M  V30 3408 H 325.785 -4.80917 -2.14539 0
M  V30 3409 H 328.276 -3.59585 -1.1622 0
M  V30 3410 H 328.589 -7.52165 -1.77391 0
M  V30 3411 H 326.934 -6.76282 -1.60209 0
M  V30 3412 H 330.125 -4.47932 -1.3592 0
M  V30 3413 H 330.298 -6.26946 -1.63837 0
M  V30 3414 N 323.704 0.605807 -1.45491 0
M  V30 3415 C 324.952 1.36207 -1.49305 0
M  V30 3416 C 325.273 1.94519 -0.136863 0
M  V30 3417 O 324.543 1.77261 0.833983 0
M  V30 3418 H 323.123 0.50565 -0.549843 0
M  V30 3419 H 325.785 0.711239 -1.81459 0
M  V30 3420 H 324.881 2.18058 -2.23287 0
M  V30 3421 N 325.182 1.32811 0.848464 0
M  V30 3422 C 326.41 1.26739 1.63538 0
M  V30 3423 C 326.825 -0.163484 1.88091 0
M  V30 3424 O 326.182 -1.10258 1.45429 0
M  V30 3425 C 326.233 2.03013 2.99112 0
M  V30 3426 O 325.954 3.40518 2.75643 0
M  V30 3427 C 327.455 2.04038 3.93552 0
M  V30 3428 H 324.675 0.437024 0.509167 0
M  V30 3429 H 327.219 1.75033 1.05753 0
M  V30 3430 H 325.374 1.58426 3.53525 0
M  V30 3431 H 325.788 3.79635 3.61908 0
M  V30 3432 H 327.262 2.61877 4.85926 0
M  V30 3433 H 327.739 1.0282 4.26995 0
M  V30 3434 H 328.345 2.486 3.45077 0
M  V30 3435 N 326.66 -1.06551 1.16123 0
M  V30 3436 C 327.89 -1.8274 0.963838 0
M  V30 3437 C 328.298 -1.82712 -0.491228 0
M  V30 3438 O 327.641 -1.24294 -1.35265 0
M  V30 3439 C 327.703 -3.3065 1.41106 0
M  V30 3440 C 327.367 -3.54384 2.88549 0
M  V30 3441 C 328.364 -3.4765 3.86569 0
M  V30 3442 C 326.049 -3.81789 3.26408 0
M  V30 3443 C 328.043 -3.67982 5.2045 0
M  V30 3444 C 325.73 -4.01772 4.60459 0
M  V30 3445 C 326.728 -3.94866 5.57288 0
M  V30 3446 O 326.416 -4.14306 6.88916 0
M  V30 3447 H 326.148 -0.583136 0.341948 0
M  V30 3448 H 328.702 -1.35351 1.54497 0
M  V30 3449 H 326.932 -3.78887 0.773394 0
M  V30 3450 H 328.621 -3.88324 1.1815 0
M  V30 3451 H 329.387 -3.2647 3.58667 0
M  V30 3452 H 325.266 -3.86276 2.51619 0
M  V30 3453 H 328.81 -3.62507 5.96015 0
M  V30 3454 H 324.707 -4.2244 4.88072 0
M  V30 3455 H 325.475 -4.31609 6.95454 0
M  V30 3456 N 328.138 -0.959301 -1.25041 0
M  V30 3457 C 329.366 -0.633949 -1.96948 0
M  V30 3458 C 329.781 0.794916 -1.7125 0
M  V30 3459 O 329.138 1.53231 -0.991287 0
M  V30 3460 C 329.189 -0.888805 -3.50403 0
M  V30 3461 O 328.91 -2.26149 -3.75218 0
M  V30 3462 C 330.411 -0.576482 -4.39536 0
M  V30 3463 H 327.631 -0.237263 -0.627652 0
M  V30 3464 H 330.175 -1.28495 -1.59089 0
M  V30 3465 H 328.33 -0.284145 -3.86357 0
M  V30 3466 H 328.744 -2.33514 -4.6965 0
M  V30 3467 H 330.218 -0.805314 -5.46094 0
M  V30 3468 H 330.695 0.489075 -4.36468 0
M  V30 3469 H 331.301 -1.16067 -4.09156 0
M  V30 3470 N 329.616 1.39756 -0.72842 0
M  V30 3471 C 330.856 2.025 -0.278078 0
M  V30 3472 C 331.22 1.5654 1.11173 0
M  V30 3473 O 332.421 2.11435 1.65978 0
M  V30 3474 C 330.692 3.55489 -0.369139 0
M  V30 3475 S 332.251 4.388 0.00232983 0
M  V30 3476 H 329.069 0.702534 -0.109391 0
M  V30 3477 H 331.671 1.70672 -0.95348 0
M  V30 3478 H 330.375 3.86429 -1.38204 0
M  V30 3479 H 329.906 3.92061 0.324308 0
M  V30 3480 H 331.921 4.80954 1.22055 0
M  V30 3481 N 331.094 0.475555 1.50254 0
M  V30 3482 C 332.024 -0.30611 2.31485 0
M  V30 3483 C 333.005 -0.986228 1.38591 0
M  V30 3484 O 334.19 -0.982541 1.67511 0
M  V30 3485 C 331.32 -1.38588 3.1845 0
M  V30 3486 C 330.274 -0.827115 4.19932 0
M  V30 3487 C 329.6 -2.00551 4.95665 0
M  V30 3488 C 330.9 0.16463 5.2204 0
M  V30 3489 H 332.594 0.371866 2.97082 0
M  V30 3490 H 330.14 0.180282 1.42867 0
M  V30 3491 H 332.093 -1.94023 3.74076 0
M  V30 3492 H 330.817 -2.09269 2.50747 0
M  V30 3493 H 329.476 -0.294702 3.65414 0
M  V30 3494 H 329.124 -2.6994 4.2443 0
M  V30 3495 H 328.824 -1.63784 5.64313 0
M  V30 3496 H 330.348 -2.56468 5.54127 0
M  V30 3497 H 331.762 -0.300699 5.72511 0
M  V30 3498 H 330.159 0.446813 5.98434 0
M  V30 3499 H 331.229 1.08905 4.72512 0
M  V30 3500 N 332.573 -1.56217 0.208337 0
M  V30 3501 C 333.819 -1.98242 -0.427552 0
M  V30 3502 C 334.152 -1.09554 -1.60348 0
M  V30 3503 O 333.427 -0.15035 -1.93918 0
M  V30 3504 C 333.71 -3.4931 -0.874907 0
M  V30 3505 C 333.563 -4.48773 0.303751 0
M  V30 3506 C 334.882 -4.04424 -1.73577 0
M  V30 3507 H 332.001 -0.720744 -0.153936 0
M  V30 3508 H 334.643 -1.87586 0.30192 0
M  V30 3509 H 332.793 -3.58522 -1.49648 0
M  V30 3510 H 334.465 -4.51586 0.941682 0
M  V30 3511 H 332.708 -4.23194 0.953375 0
M  V30 3512 H 333.379 -5.51976 -0.0519883 0
M  V30 3513 H 335.855 -3.98075 -1.21143 0
M  V30 3514 H 334.731 -5.1047 -2.01771 0
M  V30 3515 H 334.992 -3.50494 -2.69456 0
M  V30 3516 N 334.051 0.0651679 -1.57465 0
M  V30 3517 C 334.961 1.09448 -2.07505 0
M  V30 3518 C 335.977 1.41974 -1.00595 0
M  V30 3519 O 337.153 1.52018 -1.32107 0
M  V30 3520 C 334.218 2.38689 -2.51453 0
M  V30 3521 C 333.279 2.13073 -3.72691 0
M  V30 3522 C 332.512 3.36152 -4.14533 0
M  V30 3523 O 332.735 4.45517 -3.56189 0
M  V30 3524 O 331.669 3.23974 -5.07272 0
M  V30 3525 H 335.495 0.69935 -2.95538 0
M  V30 3526 H 333.08 0.279752 -1.46757 0
M  V30 3527 H 334.962 3.14736 -2.80212 0
M  V30 3528 H 333.637 2.77568 -1.66546 0
M  V30 3529 H 332.544 1.34709 -3.49005 0
M  V30 3530 H 333.877 1.79071 -4.5847 0
M  V30 3531 N 335.529 1.53961 0.336706 0
M  V30 3532 C 336.477 1.83136 1.43401 0
M  V30 3533 C 337.471 0.702313 1.54156 0
M  V30 3534 O 338.677 0.885765 1.56698 0
M  V30 3535 H 335.052 0.580309 0.478273 0
M  V30 3536 H 337.023 2.74925 1.16012 0
M  V30 3537 C 335.772 2.06385 2.79822 0
M  V30 3538 H 335.095 2.92718 2.72316 0
M  V30 3539 H 336.535 2.30761 3.55704 0
M  V30 3540 C 334.994 0.851414 3.25964 0
M  V30 3541 O 335.524 0.0541904 4.01663 0
M  V30 3542 N 333.73 0.66672 2.82848 0
M  V30 3543 H 333.277 1.31665 2.21409 0
M  V30 3544 H 333.235 -0.143032 3.14074 0
M  V30 3545 N 337.007 -0.598083 1.45811 0
M  V30 3546 C 337.97 -1.69018 1.54808 0
M  V30 3547 C 338.97 -1.55037 0.426652 0
M  V30 3548 O 340.16 -1.59932 0.690456 0
M  V30 3549 C 337.292 -3.0835 1.45371 0
M  V30 3550 H 338.485 -1.62403 2.52121 0
M  V30 3551 H 336.038 -0.814626 1.33392 0
M  V30 3552 H 336.773 -3.20534 0.492793 0
M  V30 3553 H 336.558 -3.19907 2.26721 0
M  V30 3554 H 338.048 -3.8788 1.54721 0
M  V30 3555 N 338.485 -1.33259 -0.841409 0
M  V30 3556 C 339.731 -1.24757 -1.59886 0
M  V30 3557 C 340.064 0.186913 -1.93298 0
M  V30 3558 O 339.339 1.12757 -1.5848 0
M  V30 3559 C 339.622 -2.12036 -2.91055 0
M  V30 3560 C 339.475 -3.63929 -2.6434 0
M  V30 3561 C 340.794 -1.9916 -3.92458 0
M  V30 3562 H 337.913 -0.454542 -0.580138 0
M  V30 3563 H 340.555 -1.63335 -0.970647 0
M  V30 3564 H 338.705 -1.79265 -3.44669 0
M  V30 3565 H 340.377 -4.06978 -2.17178 0
M  V30 3566 H 338.62 -3.85935 -1.98082 0
M  V30 3567 H 339.291 -4.20341 -3.57796 0
M  V30 3568 H 341.767 -2.27895 -3.48143 0
M  V30 3569 H 340.643 -2.62484 -4.82072 0
M  V30 3570 H 340.904 -0.963082 -4.31482 0
M  V30 3571 N 339.963 1.05934 -1.16686 0
M  V30 3572 C 341.211 1.78447 -0.948744 0
M  V30 3573 C 341.532 1.87813 0.524523 0
M  V30 3574 O 340.802 1.38945 1.38098 0
M  V30 3575 H 339.382 0.660971 -0.348033 0
M  V30 3576 H 342.044 1.27947 -1.47022 0
M  V30 3577 H 341.14 2.80394 -1.37061 0
M  V30 3578 N 341.441 0.965919 1.2453 0
M  V30 3579 C 342.666 0.643971 1.97149 0
M  V30 3580 C 343.091 -0.779487 1.71189 0
M  V30 3581 O 342.449 -1.5288 0.974553 0
M  V30 3582 C 342.497 0.922557 3.48599 0
M  V30 3583 O 341.601 0.00707672 4.12399 0
M  V30 3584 H 340.942 0.243647 0.617683 0
M  V30 3585 H 343.472 1.29558 1.58353 0
M  V30 3586 H 343.482 0.853373 3.98976 0
M  V30 3587 H 342.157 1.95996 3.66822 0
M  V30 3588 H 340.734 0.12943 3.72675 0
M  V30 3589 N 342.919 -1.39368 0.735821 0
M  V30 3590 C 344.168 -1.99733 0.281004 0
M  V30 3591 C 344.481 -1.59055 -1.13846 0
M  V30 3592 O 345.687 -2.12262 -1.69284 0
M  V30 3593 C 344.143 -3.57057 0.451462 0
M  V30 3594 C 343.751 -4.06697 1.87886 0
M  V30 3595 C 345.495 -4.2446 0.0584616 0
M  V30 3596 C 343.402 -5.56598 1.99883 0
M  V30 3597 H 342.332 -0.747163 0.101311 0
M  V30 3598 H 344.983 -1.59357 0.909819 0
M  V30 3599 H 343.365 -3.95234 -0.246263 0
M  V30 3600 H 344.539 -3.79853 2.60861 0
M  V30 3601 H 342.854 -3.5196 2.22515 0
M  V30 3602 H 345.451 -5.34549 0.127099 0
M  V30 3603 H 345.794 -4.04444 -0.986433 0
M  V30 3604 H 346.327 -3.9146 0.707374 0
M  V30 3605 H 343.066 -5.81494 3.02564 0
M  V30 3606 H 342.586 -5.85242 1.31346 0
M  V30 3607 H 344.265 -6.22022 1.78039 0
M  V30 3608 N 344.397 -0.483516 -1.5 0
M  V30 3609 C 345.813 -0.138404 -1.58999 0
M  V30 3610 C 346.013 1.35597 -1.4905 0
M  V30 3611 O 345.069 2.13039 -1.35539 0
M  V30 3612 C 346.382 -0.699658 -2.92447 0
M  V30 3613 C 347.93 -0.664195 -3.05872 0
M  V30 3614 C 348.405 -1.20321 -4.41913 0
M  V30 3615 N 349.896 -1.16315 -4.48358 0
M  V30 3616 C 350.631 -1.55058 -5.52037 0
M  V30 3617 N 350.127 -2.01311 -6.62907 0
M  V30 3618 N 351.92 -1.46584 -5.42651 0
M  V30 3619 H 344.071 -1.45529 -1.5471 0
M  V30 3620 H 346.334 -0.60258 -0.731848 0
M  V30 3621 H 346.04 -1.747 -3.05242 0
M  V30 3622 H 345.914 -0.150194 -3.76901 0
M  V30 3623 H 348.301 0.374272 -2.92717 0
M  V30 3624 H 348.382 -1.25061 -2.23144 0
M  V30 3625 H 348.026 -2.24037 -4.55818 0
M  V30 3626 H 347.956 -0.592896 -5.23252 0
M  V30 3627 H 350.447 -0.824058 -3.68806 0
M  V30 3628 H 350.76 -2.2899 -7.38095 0
M  V30 3629 H 349.105 -2.05273 -6.63994 0
M  V30 3630 H 352.296 -1.10281 -4.54924 0
M  V30 3631 H 352.469 -1.77103 -6.23329 0
M  V30 3632 N 345.875 1.56104 -0.216619 0
M  V30 3633 C 347.105 2.02269 0.420802 0
M  V30 3634 C 347.513 1.09575 1.5424 0
M  V30 3635 O 346.856 0.0967308 1.83445 0
M  V30 3636 C 346.918 3.44784 1.01806 0
M  V30 3637 C 346.582 4.56988 0.0325154 0
M  V30 3638 C 347.579 5.14225 -0.766055 0
M  V30 3639 C 345.264 5.02228 -0.0848092 0
M  V30 3640 C 347.258 6.15169 -1.6687 0
M  V30 3641 C 344.945 6.03011 -0.990994 0
M  V30 3642 C 345.943 6.59357 -1.78149 0
M  V30 3643 O 345.631 7.58179 -2.67245 0
M  V30 3644 H 345.363 0.667353 0.107776 0
M  V30 3645 H 347.917 2.02747 -0.329034 0
M  V30 3646 H 346.147 3.41359 1.81689 0
M  V30 3647 H 347.836 3.74626 1.56237 0
M  V30 3648 H 348.602 4.80126 -0.685836 0
M  V30 3649 H 344.481 4.58054 0.520349 0
M  V30 3650 H 348.025 6.59076 -2.28615 0
M  V30 3651 H 343.922 6.36532 -1.07225 0
M  V30 3652 H 344.69 7.75682 -2.61265 0
M  V30 3653 N 347.353 -0.0568162 1.57498 0
M  V30 3654 C 348.301 -1.08452 2.05769 0
M  V30 3655 C 349.295 -1.39164 0.965903 0
M  V30 3656 O 350.501 -1.38395 1.15095 0
M  V30 3657 H 346.876 -0.367148 0.656282 0
M  V30 3658 H 348.847 -0.651368 2.91204 0
M  V30 3659 C 347.596 -2.38543 2.52968 0
M  V30 3660 H 346.919 -2.15765 3.36579 0
M  V30 3661 H 348.359 -3.08863 2.90481 0
M  V30 3662 C 346.818 -3.05562 1.41893 0
M  V30 3663 O 347.348 -3.94262 0.769442 0
M  V30 3664 N 345.554 -2.6643 1.16032 0
M  V30 3665 H 345.101 -1.94387 1.6903 0
M  V30 3666 H 345.059 -3.11593 0.419219 0
M  V30 3667 N 348.832 -1.54138 -0.328536 0
M  V30 3668 C 350.062 -1.75807 -1.08516 0
M  V30 3669 C 350.47 -0.50428 -1.82356 0
M  V30 3670 O 349.813 0.534451 -1.75754 0
M  V30 3671 C 349.875 -2.89423 -2.13248 0
M  V30 3672 C 349.539 -4.28504 -1.5885 0
M  V30 3673 C 350.536 -5.09536 -1.03289 0
M  V30 3674 C 348.221 -4.75034 -1.63243 0
M  V30 3675 C 350.215 -6.35206 -0.52845 0
M  V30 3676 C 347.902 -6.00672 -1.12411 0
M  V30 3677 C 348.9 -6.80592 -0.573062 0
M  V30 3678 O 348.588 -8.03867 -0.0723692 0
M  V30 3679 H 348.32 -0.590633 -0.328829 0
M  V30 3680 H 350.874 -2.01819 -0.381868 0
M  V30 3681 H 349.104 -2.5897 -2.87178 0
M  V30 3682 H 350.793 -2.98921 -2.74592 0
M  V30 3683 H 351.559 -4.74745 -0.99206 0
M  V30 3684 H 347.438 -4.12875 -2.05074 0
M  V30 3685 H 350.982 -6.97532 -0.0976774 0
M  V30 3686 H 346.879 -6.34955 -1.162 0
M  V30 3687 H 347.647 -8.18283 -0.188258 0
M  V30 3688 N 350.31 0.590341 -1.46126 0
M  V30 3689 C 351.24 1.71032 -1.58966 0
M  V30 3690 C 352.221 1.64302 -0.440335 0
M  V30 3691 O 353.406 1.82436 -0.665634 0
M  V30 3692 C 350.536 3.09665 -1.57241 0
M  V30 3693 C 349.49 3.31221 -2.71066 0
M  V30 3694 C 348.816 4.70303 -2.54399 0
M  V30 3695 C 350.116 3.19796 -4.1295 0
M  V30 3696 H 351.81 1.60543 -2.52718 0
M  V30 3697 H 349.356 0.770933 -1.21625 0
M  V30 3698 H 351.309 3.87831 -1.64819 0
M  V30 3699 H 350.033 3.21036 -0.600289 0
M  V30 3700 H 348.692 2.55452 -2.62944 0
M  V30 3701 H 348.34 4.78429 -1.55288 0
M  V30 3702 H 348.04 4.85679 -3.30741 0
M  V30 3703 H 349.564 5.50647 -2.63857 0
M  V30 3704 H 350.978 3.87815 -4.22223 0
M  V30 3705 H 349.375 3.46696 -4.89818 0
M  V30 3706 H 350.445 2.16983 -4.33643 0
M  V30 3707 N 351.788 1.33704 0.83433 0
M  V30 3708 C 352.718 1.26967 1.95963 0
M  V30 3709 C 353.699 0.149337 1.69443 0
M  V30 3710 O 354.884 0.339852 1.91203 0
M  V30 3711 C 352.014 1.01275 3.32206 0
M  V30 3712 C 350.968 2.09652 3.73136 0
M  V30 3713 C 350.294 1.69166 5.07235 0
M  V30 3714 C 351.594 3.51372 3.86439 0
M  V30 3715 H 353.288 2.2112 2.01857 0
M  V30 3716 H 350.834 1.06447 0.969793 0
M  V30 3717 H 352.787 0.952106 4.10503 0
M  V30 3718 H 351.511 0.0356203 3.26581 0
M  V30 3719 H 350.17 2.14766 2.97104 0
M  V30 3720 H 349.818 0.701437 4.98085 0
M  V30 3721 H 349.518 2.41694 5.35591 0
M  V30 3722 H 351.042 1.64576 5.88003 0
M  V30 3723 H 352.456 3.48734 4.55036 0
M  V30 3724 H 350.853 4.22425 4.26236 0
M  V30 3725 H 351.923 3.89546 2.88759 0
M  V30 3726 N 353.266 -1.05314 1.17247 0
M  V30 3727 C 354.543 -1.75184 0.87005 0
M  V30 3728 C 354.923 -2.01481 -0.629965 0
M  V30 3729 O 354.271 -1.64988 -1.58086 0
M  V30 3730 C 354.481 -3.04594 1.70363 0
M  V30 3731 C 355.829 -3.78567 1.92281 0
M  V30 3732 O 356.853 -3.14461 1.67311 0
M  V30 3733 O 355.712 -4.93755 2.3424 0
M  V30 3734 H 352.806 -0.761729 0.322021 0
M  V30 3735 H 355.352 -1.11493 1.27935 0
M  V30 3736 H 354.124 -2.81201 2.72106 0
M  V30 3737 H 353.747 -3.76022 1.29202 0
M  V30 3738 N 354.744 -0.972509 -1.24016 0
M  V30 3739 C 355.99 -0.637978 -1.92504 0
M  V30 3740 C 356.323 0.825383 -1.75787 0
M  V30 3741 O 355.598 1.59442 -1.11393 0
M  V30 3742 C 355.881 -1.01942 -3.45369 0
M  V30 3743 C 355.734 -2.53983 -3.71231 0
M  V30 3744 C 357.053 -0.55751 -4.36555 0
M  V30 3745 H 354.172 -0.233248 -0.699117 0
M  V30 3746 H 356.814 -1.21238 -1.46292 0
M  V30 3747 H 354.964 -0.530656 -3.84859 0
M  V30 3748 H 356.636 -3.10374 -3.41271 0
M  V30 3749 H 354.879 -2.96968 -3.16216 0
M  V30 3750 H 355.55 -2.75723 -4.78206 0
M  V30 3751 H 358.026 -0.977029 -4.04467 0
M  V30 3752 H 356.902 -0.85292 -5.42233 0
M  V30 3753 H 357.163 0.542328 -4.38761 0
M  V30 3754 N 356.222 1.38976 -0.743202 0
M  V30 3755 C 357.152 2.33171 -0.123873 0
M  V30 3756 C 358.133 1.54336 0.71516 0
M  V30 3757 O 359.318 1.82696 0.658467 0
M  V30 3758 C 356.448 3.38474 0.777978 0
M  V30 3759 C 355.402 4.27979 0.0424758 0
M  V30 3760 C 354.728 5.2405 1.06189 0
M  V30 3761 C 356.028 5.10155 -1.1198 0
M  V30 3762 H 357.722 2.85213 -0.910709 0
M  V30 3763 H 355.268 1.37133 -0.439388 0
M  V30 3764 H 357.221 4.03328 1.22084 0
M  V30 3765 H 355.945 2.84891 1.59702 0
M  V30 3766 H 354.604 3.64616 -0.380853 0
M  V30 3767 H 354.252 4.66758 1.87472 0
M  V30 3768 H 353.952 5.84785 0.574485 0
M  V30 3769 H 355.476 5.9178 1.50428 0
M  V30 3770 H 356.89 5.68307 -0.75499 0
M  V30 3771 H 355.287 5.80073 -1.53738 0
M  V30 3772 H 356.357 4.44504 -1.93764 0
M  V30 3773 N 357.7 0.491464 1.49741 0
M  V30 3774 C 358.61 -0.296835 2.32715 0
M  V30 3775 C 359.626 -0.976536 1.44013 0
M  V30 3776 O 360.802 -0.960023 1.77047 0
M  V30 3777 C 357.867 -1.35288 3.19215 0
M  V30 3778 C 356.928 -0.687632 4.23757 0
M  V30 3779 C 356.161 -1.69336 5.06123 0
M  V30 3780 O 356.384 -2.92219 4.89861 0
M  V30 3781 O 355.318 -1.25394 5.88693 0
M  V30 3782 H 359.144 0.382048 3.01287 0
M  V30 3783 H 356.729 0.252953 1.47243 0
M  V30 3784 H 358.611 -1.96411 3.72828 0
M  V30 3785 H 357.286 -2.01487 2.53347 0
M  V30 3786 H 356.193 -0.0369159 3.74082 0
M  V30 3787 H 357.526 -0.0682566 4.92153 0
M  V30 3788 N 359.178 -1.55987 0.224894 0
M  V30 3789 C 360.594 -1.59066 -0.130426 0
M  V30 3790 C 360.794 -1.24176 -1.5869 0
M  V30 3791 O 359.85 -0.978592 -2.32766 0
M  V30 3792 C 361.163 -3.00042 0.198883 0
M  V30 3793 C 362.711 -3.1268 0.141391 0
M  V30 3794 C 363.186 -4.55839 0.444422 0
M  V30 3795 N 364.677 -4.6152 0.394115 0
M  V30 3796 C 365.412 -5.70231 0.602038 0
M  V30 3797 N 364.908 -6.87291 0.871914 0
M  V30 3798 N 366.701 -5.59555 0.534245 0
M  V30 3799 H 358.852 -1.76941 1.17497 0
M  V30 3800 H 361.115 -0.822604 0.471197 0
M  V30 3801 H 360.821 -3.30234 1.2099 0
M  V30 3802 H 360.695 -3.74075 -0.484535 0
M  V30 3803 H 363.082 -2.82283 -0.860265 0
M  V30 3804 H 363.163 -2.40969 0.858335 0
M  V30 3805 H 362.807 -4.86954 1.44353 0
M  V30 3806 H 362.737 -5.2578 -0.293752 0
M  V30 3807 H 365.228 -3.77405 0.193356 0
M  V30 3808 H 365.541 -7.66058 1.01858 0
M  V30 3809 H 363.886 -6.89028 0.909145 0
M  V30 3810 H 367.077 -4.6698 0.323612 0
M  V30 3811 H 367.25 -6.44211 0.699693 0
M  V30 3812 N 360.656 0.0484629 -1.57525 0
M  V30 3813 C 361.881 0.759177 -1.93006 0
M  V30 3814 C 362.306 1.69125 -0.823317 0
M  V30 3815 O 361.664 1.79931 0.222364 0
M  V30 3816 C 361.712 1.50899 -3.27509 0
M  V30 3817 O 360.816 2.62112 -3.18388 0
M  V30 3818 H 360.157 0.205564 -0.631379 0
M  V30 3819 H 362.687 0.00972959 -2.04598 0
M  V30 3820 H 362.697 1.88317 -3.6194 0
M  V30 3821 H 361.372 0.825269 -4.0763 0
M  V30 3822 H 359.949 2.27379 -2.95556 0
M  V30 3823 N 362.134 1.5431 0.320358 0
M  V30 3824 C 363.545 1.63872 0.894594 0
M  V30 3825 C 363.896 0.534847 1.88769 0
M  V30 3826 O 363.021 -0.331732 2.13842 0
M  V30 3827 C 363.616 2.97049 1.62934 0
M  V30 3828 C 362.175 3.08796 2.15226 0
M  V30 3829 C 361.322 2.59456 0.978671 0
M  V30 3830 H 364.273 1.58398 0.0978544 0
M  V30 3831 H 364.294 2.87388 2.49376 0
M  V30 3832 H 363.806 3.7737 0.906302 0
M  V30 3833 H 361.907 2.33156 2.90636 0
M  V30 3834 H 362.02 4.14649 2.40006 0
M  V30 3835 H 360.384 2.1543 1.35875 0
M  V30 3836 H 361.167 3.42237 0.269895 0
M  V30 3837 N 363.613 -0.582584 1.46437 0
M  V30 3838 C 364.563 -1.68654 1.53426 0
M  V30 3839 C 365.547 -1.55971 0.395194 0
M  V30 3840 O 366.739 -1.64884 0.643612 0
M  V30 3841 C 363.868 -3.07439 1.52762 0
M  V30 3842 C 362.954 -3.25418 2.71963 0
M  V30 3843 N 363.345 -3.13556 3.96883 0
M  V30 3844 C 361.643 -3.56357 2.68189 0
M  V30 3845 C 362.344 -3.33543 4.76575 0
M  V30 3846 N 361.32 -3.58704 4.08451 0
M  V30 3847 H 365.122 -1.58014 2.47808 0
M  V30 3848 H 362.636 -0.786617 1.42078 0
M  V30 3849 H 364.633 -3.86671 1.55857 0
M  V30 3850 H 363.293 -3.1921 0.594573 0
M  V30 3851 H 364.304 -2.9142 4.28129 0
M  V30 3852 H 360.981 -3.74812 1.83908 0
M  V30 3853 H 362.371 -3.29555 5.85528 0
M  V30 3854 N 365.091 -1.34144 -0.827227 0
M  V30 3855 C 366.507 -1.13732 -1.11969 0
M  V30 3856 C 366.707 0.0640463 -2.01398 0
M  V30 3857 O 365.763 0.740856 -2.41387 0
M  V30 3858 C 367.076 -2.43047 -1.77055 0
M  V30 3859 C 368.624 -2.49063 -1.89569 0
M  V30 3860 C 369.099 -3.78369 -2.58072 0
M  V30 3861 N 370.59 -3.79505 -2.65575 0
M  V30 3862 C 371.325 -4.76274 -3.19297 0
M  V30 3863 N 370.821 -5.83424 -3.73616 0
M  V30 3864 N 372.614 -4.63735 -3.17658 0
M  V30 3865 H 364.765 -2.11126 -0.232296 0
M  V30 3866 H 367.028 -0.933424 -0.165602 0
M  V30 3867 H 366.734 -3.31025 -1.18807 0
M  V30 3868 H 366.608 -2.56066 -2.76966 0
M  V30 3869 H 368.995 -1.61527 -2.46968 0
M  V30 3870 H 369.076 -2.39975 -0.885745 0
M  V30 3871 H 368.72 -4.66293 -2.01329 0
M  V30 3872 H 368.65 -3.84737 -3.59562 0
M  V30 3873 H 371.141 -3.02074 -2.27068 0
M  V30 3874 H 371.454 -6.53282 -4.12846 0
M  V30 3875 H 369.799 -5.87143 -3.71871 0
M  V30 3876 H 372.99 -3.79177 -2.74486 0
M  V30 3877 H 373.163 -5.39318 -3.59221 0
M  V30 3878 N 366.569 1.04691 -1.17803 0
M  V30 3879 C 367.98 1.59238 -0.974689 0
M  V30 3880 C 368.331 1.90306 0.477292 0
M  V30 3881 O 367.456 1.68846 1.35352 0
M  V30 3882 C 368.051 2.89318 -1.76296 0
M  V30 3883 C 366.61 3.40506 -1.60414 0
M  V30 3884 C 365.757 2.14172 -1.76141 0
M  V30 3885 H 368.708 0.874395 -1.32439 0
M  V30 3886 H 368.729 3.5944 -1.24833 0
M  V30 3887 H 368.241 2.66675 -2.81968 0
M  V30 3888 H 366.342 3.68175 -0.572519 0
M  V30 3889 H 366.455 4.14753 -2.39827 0
M  V30 3890 H 364.819 2.25176 -1.19028 0
M  V30 3891 H 365.602 1.93992 -2.83235 0
M  V30 3892 N 368.047 0.979072 1.23499 0
M  V30 3893 C 369.296 0.642751 1.91185 0
M  V30 3894 C 369.609 -0.827253 1.77245 0
M  V30 3895 O 370.815 -1.27458 2.39722 0
M  V30 3896 C 369.271 1.09901 3.42709 0
M  V30 3897 C 368.879 2.59327 3.65313 0
M  V30 3898 C 370.623 0.836371 4.16179 0
M  V30 3899 C 368.53 2.98627 5.10467 0
M  V30 3900 H 367.46 0.236698 0.715884 0
M  V30 3901 H 370.111 1.1868 1.39955 0
M  V30 3902 H 368.493 0.48319 3.93041 0
M  V30 3903 H 369.667 3.26136 3.25533 0
M  V30 3904 H 367.982 2.83323 3.05151 0
M  V30 3905 H 370.579 1.10586 5.23139 0
M  V30 3906 H 370.922 -0.227509 4.15678 0
M  V30 3907 H 371.455 1.41371 3.71832 0
M  V30 3908 H 368.194 4.04133 5.16098 0
M  V30 3909 H 367.714 2.3651 5.51201 0
M  V30 3910 H 369.393 2.89159 5.78788 0
M  V30 3911 N 369.525 -1.3858 0.750561 0
M  V30 3912 C 370.455 -2.33102 0.136237 0
M  V30 3913 C 371.436 -1.54713 -0.706965 0
M  V30 3914 O 372.621 -1.83043 -0.648769 0
M  V30 3915 C 369.751 -3.38882 -0.760017 0
M  V30 3916 C 368.705 -4.27995 -0.0197785 0
M  V30 3917 C 368.031 -5.24605 -1.03408 0
M  V30 3918 C 369.331 -5.09554 1.14684 0
M  V30 3919 H 371.025 -2.84726 0.925822 0
M  V30 3920 H 368.571 -1.36898 0.446654 0
M  V30 3921 H 370.524 -4.0397 -1.19943 0
M  V30 3922 H 369.248 -2.85734 -1.58189 0
M  V30 3923 H 367.907 -3.64409 0.400184 0
M  V30 3924 H 367.555 -4.67746 -1.84994 0
M  V30 3925 H 367.255 -5.85081 -0.543464 0
M  V30 3926 H 368.779 -5.9257 -1.47288 0
M  V30 3927 H 370.193 -5.67899 0.785118 0
M  V30 3928 H 368.59 -5.7925 1.56812 0
M  V30 3929 H 369.66 -4.4347 1.96118 0
M  V30 3930 N 371.003 -0.499398 -1.49478 0
M  V30 3931 C 371.935 0.316575 -2.27003 0
M  V30 3932 C 372.948 0.932047 -1.33479 0
M  V30 3933 O 374.137 0.815658 -1.58774 0
M  V30 3934 C 371.237 1.46055 -3.05812 0
M  V30 3935 C 370.41 0.952679 -4.26899 0
M  V30 3936 C 369.469 1.97407 -4.87767 0
M  V30 3937 O 368.495 1.54326 -5.4788 0
M  V30 3938 N 369.697 3.30436 -4.77276 0
M  V30 3939 H 372.462 -0.348168 -2.97671 0
M  V30 3940 H 370.023 -0.33185 -1.58463 0
M  V30 3941 H 372.015 2.14135 -3.43407 0
M  V30 3942 H 370.585 2.02948 -2.37762 0
M  V30 3943 H 369.805 0.0968248 -3.94081 0
M  V30 3944 H 371.093 0.59174 -5.05347 0
M  V30 3945 H 370.491 3.68126 -4.29534 0
M  V30 3946 H 369.048 3.94235 -5.19059 0
M  V30 3947 N 372.481 1.55866 -0.233164 0
M  V30 3948 C 373.444 2.1953 0.658715 0
M  V30 3949 C 374.444 1.16053 1.11303 0
M  V30 3950 O 375.634 1.41218 1.01996 0
M  V30 3951 C 372.766 2.82791 1.90373 0
M  V30 3952 H 373.959 2.99721 0.10347 0
M  V30 3953 H 371.512 1.56291 0.0164245 0
M  V30 3954 H 372.247 2.06501 2.50056 0
M  V30 3955 H 372.032 3.58578 1.58632 0
M  V30 3956 H 373.522 3.31556 2.53891 0
M  V30 3957 N 373.959 -0.0401083 1.57549 0
M  V30 3958 C 375.207 -0.731677 1.8839 0
M  V30 3959 C 375.528 -1.76481 0.829425 0
M  V30 3960 O 374.798 -1.95411 -0.1383 0
M  V30 3961 H 373.378 -0.273225 0.695239 0
M  V30 3962 H 376.04 -0.00867725 1.94898 0
M  V30 3963 H 375.136 -1.22816 2.86919 0
M  V30 3964 N 375.437 -1.54477 -0.31217 0
M  V30 3965 C 376.367 -1.87652 -1.38957 0
M  V30 3966 C 377.348 -0.734358 -1.53431 0
M  V30 3967 O 378.533 -0.98911 -1.67123 0
M  V30 3968 C 375.663 -2.11396 -2.75552 0
M  V30 3969 C 374.617 -3.27243 -2.75855 0
M  V30 3970 C 373.943 -3.36382 -4.15633 0
M  V30 3971 C 375.243 -4.64622 -2.38587 0
M  V30 3972 H 376.937 -2.77887 -1.11442 0
M  V30 3973 H 374.483 -1.33707 -0.534655 0
M  V30 3974 H 376.436 -2.33189 -3.51 0
M  V30 3975 H 375.16 -1.17921 -3.04569 0
M  V30 3976 H 373.819 -3.05356 -2.02863 0
M  V30 3977 H 373.467 -2.40445 -4.41809 0
M  V30 3978 H 373.167 -4.14249 -4.1674 0
M  V30 3979 H 374.691 -3.60422 -4.92877 0
M  V30 3980 H 376.105 -4.86219 -3.03749 0
M  V30 3981 H 374.502 -5.45121 -2.50925 0
M  V30 3982 H 375.572 -4.66097 -1.33723 0
M  V30 3983 N 376.915 0.57481 -1.46744 0
M  V30 3984 C 378.326 1.15695 -1.46532 0
M  V30 3985 C 378.677 1.95068 -0.210425 0
M  V30 3986 O 377.802 2.05241 0.685944 0
M  V30 3987 C 378.397 2.1048 -2.65487 0
M  V30 3988 C 376.956 2.64002 -2.68291 0
M  V30 3989 C 376.103 1.40026 -2.39349 0
M  V30 3990 H 379.054 0.362325 -1.54509 0
M  V30 3991 H 379.075 2.94074 -2.41455 0
M  V30 3992 H 378.587 1.52683 -3.56805 0
M  V30 3993 H 376.688 3.25646 -1.81067 0
M  V30 3994 H 376.801 3.06197 -3.68483 0
M  V30 3995 H 375.165 1.70106 -1.89568 0
M  V30 3996 H 375.948 0.840485 -3.32852 0
M  V30 3997 N 378.394 1.34581 0.820102 0
M  V30 3998 C 379.357 1.2628 1.91275 0
M  V30 3999 C 380.357 0.177344 1.59819 0
M  V30 4000 O 381.547 0.430156 1.68806 0
M  V30 4001 C 378.679 0.950327 3.27386 0
M  V30 4002 H 379.872 2.23421 2.00057 0
M  V30 4003 H 377.425 1.1891 1.0144 0
M  V30 4004 H 378.16 -0.0177938 3.24295 0
M  V30 4005 H 377.945 1.73549 3.51601 0
M  V30 4006 H 379.435 0.917492 4.07396 0
M  V30 4007 N 379.872 -1.04064 1.18357 0
M  V30 4008 C 380.82 -2.14187 0.907007 0
M  V30 4009 C 381.814 -1.68879 -0.132725 0
M  V30 4010 O 383.02 -1.79993 0.0154248 0
M  V30 4011 H 379.395 -0.699585 0.275835 0
M  V30 4012 H 381.366 -2.34711 1.84264 0
M  V30 4013 C 380.115 -3.44785 0.449254 0
M  V30 4014 H 379.438 -3.80058 1.24081 0
M  V30 4015 H 380.878 -4.22974 0.294737 0
M  V30 4016 C 379.337 -3.26391 -0.834909 0
M  V30 4017 O 379.867 -3.53973 -1.89911 0
M  V30 4018 N 378.073 -2.79726 -0.787523 0
M  V30 4019 H 377.62 -2.5748 0.0787347 0
M  V30 4020 H 377.578 -2.67798 -1.64716 0
M  V30 4021 N 381.35 -0.985608 -1.22978 0
M  V30 4022 C 382.578 -0.675582 -1.95559 0
M  V30 4023 C 382.993 0.758413 -1.72897 0
M  V30 4024 O 382.35 1.51094 -1.02357 0
M  V30 4025 C 382.401 -0.96293 -3.48439 0
M  V30 4026 O 382.122 -2.34057 -3.70336 0
M  V30 4027 C 383.623 -0.669585 -4.38214 0
M  V30 4028 H 380.843 -0.250523 -0.622478 0
M  V30 4029 H 383.387 -1.3184 -1.56328 0
M  V30 4030 H 381.542 -0.366033 -3.85667 0
M  V30 4031 H 381.956 -2.43424 -4.64591 0
M  V30 4032 H 383.43 -0.920967 -5.44263 0
M  V30 4033 H 383.907 0.396383 -4.37408 0
M  V30 4034 H 384.513 -1.2472 -4.06602 0
M  V30 4035 N 382.828 1.3818 -0.7579 0
M  V30 4036 C 384.056 2.04301 -0.326937 0
M  V30 4037 C 384.471 1.57163 1.0462 0
M  V30 4038 O 383.828 0.746626 1.66529 0
M  V30 4039 C 383.879 3.59846 -0.345363 0
M  V30 4040 O 383.6 4.05256 -1.66432 0
M  V30 4041 C 385.101 4.4319 0.098927 0
M  V30 4042 H 382.321 0.656443 -0.139012 0
M  V30 4043 H 384.865 1.76786 -1.02796 0
M  V30 4044 H 383.02 3.86182 0.306955 0
M  V30 4045 H 383.434 4.99709 -1.59345 0
M  V30 4046 H 384.908 5.51989 0.0348745 0
M  V30 4047 H 385.385 4.23947 1.14741 0
M  V30 4048 H 385.991 4.22051 -0.52468 0
M  V30 4049 N 384.306 0.507319 1.49211 0
M  V30 4050 C 385.269 -0.256763 2.27757 0
M  V30 4051 C 386.269 -0.888287 1.34038 0
M  V30 4052 O 387.459 -0.751841 1.5714 0
M  V30 4053 C 384.591 -1.36905 3.12202 0
M  V30 4054 H 385.784 0.432557 2.96764 0
M  V30 4055 H 383.337 0.262488 1.5408 0
M  V30 4056 H 384.072 -2.09233 2.47775 0
M  V30 4057 H 383.857 -0.921599 3.81115 0
M  V30 4058 H 385.347 -1.9071 3.7151 0
M  V30 4059 N 385.784 -1.5574 0.241426 0
M  V30 4060 C 387.03 -1.99104 -0.385406 0
M  V30 4061 C 387.363 -1.1293 -1.57988 0
M  V30 4062 O 386.638 -0.191449 -1.93555 0
M  V30 4063 C 386.921 -3.51087 -0.800616 0
M  V30 4064 C 386.774 -4.48028 0.398874 0
M  V30 4065 C 388.093 -4.08015 -1.64959 0
M  V30 4066 H 385.212 -0.723848 -0.138614 0
M  V30 4067 H 387.854 -1.86903 0.341642 0
M  V30 4068 H 386.004 -3.61615 -1.4201 0
M  V30 4069 H 387.676 -4.49487 1.03726 0
M  V30 4070 H 385.919 -4.21077 1.04293 0
M  V30 4071 H 386.59 -5.51962 0.0651056 0
M  V30 4072 H 389.066 -4.00555 -1.12672 0
M  V30 4073 H 387.942 -5.14635 -1.90898 0
M  V30 4074 H 388.203 -3.56131 -2.61961 0
M  V30 4075 N 387.262 0.0317525 -1.57568 0
M  V30 4076 C 388.508 0.724175 -1.8943 0
M  V30 4077 C 388.841 1.75149 -0.838836 0
M  V30 4078 O 388.116 1.93948 0.146422 0
M  V30 4079 C 388.399 1.39615 -3.31933 0
M  V30 4080 C 388.252 0.382537 -4.4817 0
M  V30 4081 C 389.571 2.33084 -3.73309 0
M  V30 4082 H 386.69 0.261797 -0.688935 0
M  V30 4083 H 389.332 -0.013017 -1.89996 0
M  V30 4084 H 387.482 2.02451 -3.31581 0
M  V30 4085 H 389.154 -0.243689 -4.60656 0
M  V30 4086 H 387.397 -0.29844 -4.32772 0
M  V30 4087 H 388.068 0.891145 -5.44759 0
M  V30 4088 H 390.544 1.80295 -3.7501 0
M  V30 4089 H 389.42 2.77084 -4.73831 0
M  V30 4090 H 389.681 3.19643 -3.05419 0
M  V30 4091 N 388.74 1.54641 0.303973 0
M  V30 4092 C 389.988 1.73437 1.0375 0
M  V30 4093 C 390.309 0.521449 1.87899 0
M  V30 4094 O 389.579 -0.46432 1.90318 0
M  V30 4095 H 388.159 0.639518 0.386039 0
M  V30 4096 H 390.821 1.91988 0.335675 0
M  V30 4097 H 389.917 2.62235 1.69231 0
M  V30 4098 N 390.218 -0.567019 1.47046 0
M  V30 4099 C 391.443 -1.3551 1.57009 0
M  V30 4100 C 391.868 -1.86841 0.217259 0
M  V30 4101 O 391.226 -1.62435 -0.805268 0
M  V30 4102 C 391.274 -2.50777 2.5912 0
M  V30 4103 O 390.378 -3.52706 2.13711 0
M  V30 4104 H 389.719 -0.402919 0.52778 0
M  V30 4105 H 392.249 -0.686241 1.92748 0
M  V30 4106 H 392.259 -2.97481 2.79229 0
M  V30 4107 H 390.934 -2.12771 3.57353 0
M  V30 4108 H 389.511 -3.12374 2.03659 0
M  V30 4109 N 391.696 -1.35014 -0.812953 0
M  V30 4110 C 392.973 -1.18502 -1.55617 0
M  V30 4111 C 393.353 0.238421 -2.09749 0
M  V30 4112 O 392.701 1.2411 -1.91857 0
M  V30 4113 C 392.911 -2.24783 -2.66971 0
M  V30 4114 C 394.259 -2.60268 -3.35478 0
M  V30 4115 O 395.283 -2.23648 -2.77236 0
M  V30 4116 O 394.142 -3.2321 -4.40678 0
M  V30 4117 H 391.236 -0.459984 -0.687272 0
M  V30 4118 H 393.782 -1.46677 -0.853464 0
M  V30 4119 H 392.554 -3.20284 -2.24798 0
M  V30 4120 H 392.177 -1.97841 -3.44884 0
M  V30 4121 N 393.175 1.03435 -1.18907 0
M  V30 4122 C 394.421 1.77005 -0.989798 0
M  V30 4123 C 394.754 1.88205 0.478816 0
M  V30 4124 O 394.029 1.39481 1.35556 0
M  V30 4125 C 394.312 3.19925 -1.65287 0
M  V30 4126 C 394.165 3.1663 -3.19477 0
M  V30 4127 C 395.484 4.18189 -1.37134 0
M  V30 4128 H 392.603 0.642538 -0.360991 0
M  V30 4129 H 395.245 1.20784 -1.46667 0
M  V30 4130 H 393.395 3.67929 -1.24741 0
M  V30 4131 H 395.067 2.76567 -3.692 0
M  V30 4132 H 393.31 2.54491 -3.51307 0
M  V30 4133 H 393.981 4.1758 -3.61013 0
M  V30 4134 H 396.457 3.78761 -1.72276 0
M  V30 4135 H 395.333 5.16394 -1.86087 0
M  V30 4136 H 395.594 4.41112 -0.295424 0
M  V30 4137 N 394.653 0.992116 1.22453 0
M  V30 4138 C 395.563 0.55065 2.28046 0
M  V30 4139 C 396.579 -0.400189 1.69335 0
M  V30 4140 O 397.755 -0.267215 1.99619 0
M  V30 4141 C 394.82 -0.128496 3.46462 0
M  V30 4142 C 393.881 0.865208 4.20491 0
M  V30 4143 C 393.114 0.218377 5.33253 0
M  V30 4144 O 393.337 -0.987894 5.6178 0
M  V30 4145 O 392.271 0.922845 5.94783 0
M  V30 4146 H 396.097 1.4291 2.67975 0
M  V30 4147 H 393.682 0.760326 1.28606 0
M  V30 4148 H 395.564 -0.508947 4.18315 0
M  V30 4149 H 394.239 -0.981526 3.0846 0
M  V30 4150 H 393.146 1.29658 3.50913 0
M  V30 4151 H 394.479 1.68741 4.62371 0
M  V30 4152 N 396.131 -1.37776 0.765217 0
M  V30 4153 C 397.061 -2.32945 0.160953 0
M  V30 4154 C 398.042 -1.55454 -0.690516 0
M  V30 4155 O 399.227 -1.83721 -0.629318 0
M  V30 4156 C 396.357 -3.39669 -0.724031 0
M  V30 4157 C 395.311 -4.27992 0.0256173 0
M  V30 4158 C 394.637 -5.25673 -0.978383 0
M  V30 4159 C 395.937 -5.08309 1.20082 0
M  V30 4160 H 397.631 -2.83728 0.955969 0
M  V30 4161 H 395.177 -1.36416 0.461149 0
M  V30 4162 H 397.13 -4.05219 -1.15652 0
M  V30 4163 H 395.854 -2.87396 -1.5515 0
M  V30 4164 H 394.513 -3.63964 0.438812 0
M  V30 4165 H 394.161 -4.69682 -1.80022 0
M  V30 4166 H 393.861 -5.85625 -0.481378 0
M  V30 4167 H 395.385 -5.94098 -1.40995 0
M  V30 4168 H 396.799 -5.67034 0.845307 0
M  V30 4169 H 395.196 -5.77554 1.62947 0
M  V30 4170 H 396.266 -4.41365 2.00811 0
M  V30 4171 N 397.609 -0.515225 -1.4894 0
M  V30 4172 C 398.539 0.244628 -2.32215 0
M  V30 4173 C 399.52 0.949136 -1.41157 0
M  V30 4174 O 400.705 0.937783 -1.70057 0
M  V30 4175 C 397.835 1.30096 -3.22013 0
M  V30 4176 C 396.789 0.715486 -4.21977 0
M  V30 4177 C 396.115 1.87339 -5.00808 0
M  V30 4178 C 397.415 -0.302982 -5.2142 0
M  V30 4179 H 399.109 -0.450501 -2.95991 0
M  V30 4180 H 396.655 -0.218098 -1.42339 0
M  V30 4181 H 398.608 1.84037 -3.79089 0
M  V30 4182 H 397.332 2.02547 -2.56207 0
M  V30 4183 H 395.991 0.197715 -3.66066 0
M  V30 4184 H 395.639 2.58592 -4.31438 0
M  V30 4185 H 395.339 1.48764 -5.68457 0
M  V30 4186 H 396.863 2.41686 -5.60732 0
M  V30 4187 H 398.277 0.148802 -5.73107 0
M  V30 4188 H 396.674 -0.60532 -5.97039 0
M  V30 4189 H 397.744 -1.21395 -4.69459 0
M  V30 4190 N 399.087 1.5561 -0.249682 0
M  V30 4191 C 400.327 2.00916 0.37579 0
M  V30 4192 C 400.691 1.13409 1.54927 0
M  V30 4193 O 401.892 1.48183 2.24266 0
M  V30 4194 C 400.163 3.48949 0.772633 0
M  V30 4195 S 401.722 4.16261 1.38824 0
M  V30 4196 H 398.54 0.70112 0.118117 0
M  V30 4197 H 401.142 1.92052 -0.365567 0
M  V30 4198 H 399.846 4.103 -0.090683 0
M  V30 4199 H 399.377 3.61745 1.5461 0
M  V30 4200 H 401.392 4.17778 2.67724 0
M  V30 4201 N 400.565 -0.0233959 1.57583 0
M  V30 4202 C 401.512 -1.02224 2.06927 0
M  V30 4203 C 402.482 -1.35575 0.959617 0
M  V30 4204 O 403.667 -1.45815 1.23055 0
M  V30 4205 C 400.807 -2.31636 2.5581 0
M  V30 4206 C 399.92 -2.04394 3.80588 0
M  V30 4207 C 399.055 -3.27717 4.18061 0
M  V30 4208 C 398.094 -2.96056 5.3574 0
M  V30 4209 N 397.231 -4.11847 5.68618 0
M  V30 4210 H 402.071 -0.594504 2.9201 0
M  V30 4211 H 399.608 -0.281921 1.44373 0
M  V30 4212 H 401.566 -3.07258 2.82221 0
M  V30 4213 H 400.196 -2.72122 1.73636 0
M  V30 4214 H 399.248 -1.19244 3.61227 0
M  V30 4215 H 400.56 -1.77042 4.66323 0
M  V30 4216 H 399.714 -4.11702 4.4563 0
M  V30 4217 H 398.453 -3.58188 3.30988 0
M  V30 4218 H 397.458 -2.10474 5.07918 0
M  V30 4219 H 398.683 -2.66857 6.24471 0
M  V30 4220 H 396.629 -4.42258 4.84504 0
M  V30 4221 H 396.546 -3.87938 6.48876 0
M  V30 4222 H 397.814 -4.96689 6.00766 0
M  V30 4223 N 402.043 -1.548 -0.295768 0
M  V30 4224 C 403.289 -1.74588 -1.03184 0
M  V30 4225 C 403.622 -0.532962 -1.86744 0
M  V30 4226 O 402.897 0.469872 -1.88739 0
M  V30 4227 C 403.18 -3.03791 -1.93347 0
M  V30 4228 C 403.033 -4.35392 -1.12933 0
M  V30 4229 C 404.352 -3.28892 -2.92435 0
M  V30 4230 H 401.471 -0.635221 -0.373715 0
M  V30 4231 H 404.113 -1.87519 -0.30606 0
M  V30 4232 H 402.263 -2.92898 -2.55232 0
M  V30 4233 H 403.935 -4.58211 -0.532943 0
M  V30 4234 H 402.178 -4.31642 -0.432168 0
M  V30 4235 H 402.849 -5.22074 -1.79284 0
M  V30 4236 H 405.325 -3.39429 -2.4068 0
M  V30 4237 H 404.201 -4.20603 -3.52682 0
M  V30 4238 H 404.462 -2.47437 -3.6637 0
M  V30 4239 N 403.521 0.559213 -1.47345 0
M  V30 4240 C 404.751 1.33999 -1.57251 0
M  V30 4241 C 405.159 1.87905 -0.220978 0
M  V30 4242 O 404.502 1.65577 0.795617 0
M  V30 4243 C 404.564 2.54798 -2.53611 0
M  V30 4244 C 404.228 2.22192 -3.99349 0
M  V30 4245 C 405.225 1.79607 -4.87891 0
M  V30 4246 C 402.91 2.33613 -4.44669 0
M  V30 4247 C 404.904 1.48868 -6.19772 0
M  V30 4248 C 402.591 2.02487 -5.76578 0
M  V30 4249 C 403.589 1.60183 -6.63951 0
M  V30 4250 O 403.277 1.29451 -7.93409 0
M  V30 4251 H 403.009 0.414858 -0.533731 0
M  V30 4252 H 405.563 0.684465 -1.9366 0
M  V30 4253 H 403.793 3.23235 -2.12265 0
M  V30 4254 H 405.482 3.16873 -2.53666 0
M  V30 4255 H 406.248 1.70278 -4.54126 0
M  V30 4256 H 402.127 2.65501 -3.76869 0
M  V30 4257 H 405.671 1.15775 -6.87926 0
M  V30 4258 H 401.568 2.11448 -6.09885 0
M  V30 4259 H 402.336 1.43098 -8.05894 0
M  V30 4260 N 404.999 1.35443 0.805782 0
M  V30 4261 C 406.224 1.32037 1.59941 0
M  V30 4262 C 406.649 -0.0994215 1.87837 0
M  V30 4263 O 406.007 -1.06648 1.46615 0
M  V30 4264 C 406.055 2.13354 2.90711 0
M  V30 4265 O 405.159 1.5148 3.83572 0
M  V30 4266 H 404.5 0.452666 0.485787 0
M  V30 4267 H 407.03 1.78496 1.00002 0
M  V30 4268 H 407.04 2.25338 3.40128 0
M  V30 4269 H 405.715 3.16572 2.69732 0
M  V30 4270 H 404.292 1.4834 3.42125 0
M  V30 4271 N 406.477 -1.02803 1.19454 0
M  V30 4272 C 407.754 -1.73299 0.907013 0
M  V30 4273 C 408.134 -2.02772 -0.587086 0
M  V30 4274 O 407.482 -1.68304 -1.54551 0
M  V30 4275 C 407.692 -3.00912 1.76785 0
M  V30 4276 C 409.04 -3.74403 2.00268 0
M  V30 4277 O 410.064 -3.10841 1.73943 0
M  V30 4278 O 408.923 -4.88675 2.4466 0
M  V30 4279 H 406.017 -0.754727 0.338106 0
M  V30 4280 H 408.563 -1.08754 1.30271 0
M  V30 4281 H 407.335 -2.75366 2.7801 0
M  V30 4282 H 406.958 -3.73197 1.37149 0
M  V30 4283 N 407.956 -0.998596 -1.21925 0
M  V30 4284 C 408.919 -0.558679 -2.22287 0
M  V30 4285 C 409.919 0.361525 -1.56683 0
M  V30 4286 O 411.109 0.152695 -1.73529 0
M  V30 4287 C 408.241 0.18661 -3.40389 0
M  V30 4288 H 409.434 -1.4463 -2.62721 0
M  V30 4289 H 406.987 -0.786413 -1.35075 0
M  V30 4290 H 407.722 1.08996 -3.05435 0
M  V30 4291 H 407.507 -0.474188 -3.89222 0
M  V30 4292 H 408.997 0.482367 -4.14805 0
M  V30 4293 N 409.434 1.37368 -0.772513 0
M  V30 4294 C 410.366 2.28899 -0.117502 0
M  V30 4295 C 411.379 1.4867 0.663405 0
M  V30 4296 O 412.568 1.71314 0.501372 0
M  V30 4297 C 409.668 3.2788 0.857192 0
M  V30 4298 C 408.841 4.37207 0.129938 0
M  V30 4299 C 407.9 5.16257 1.01811 0
M  V30 4300 O 406.926 5.67159 0.481601 0
M  V30 4301 N 408.128 5.31058 2.3443 0
M  V30 4302 H 410.893 2.85752 -0.903662 0
M  V30 4303 H 408.454 1.49353 -0.62493 0
M  V30 4304 H 410.446 3.77647 1.45482 0
M  V30 4305 H 409.016 2.7179 1.54432 0
M  V30 4306 H 408.236 3.88827 -0.648605 0
M  V30 4307 H 409.524 5.07434 -0.372559 0
M  V30 4308 H 408.922 4.91287 2.80452 0
M  V30 4309 H 407.479 5.84131 2.89197 0
M  V30 4310 N 410.912 0.523116 1.48665 0
M  V30 4311 C 412.323 0.0808997 1.86525 0
M  V30 4312 C 412.674 -1.33975 1.43336 0
M  V30 4313 O 411.799 -2.00221 0.821009 0
M  V30 4314 C 412.394 0.140037 3.3851 0
M  V30 4315 C 410.953 -0.246948 3.75589 0
M  V30 4316 C 410.1 0.502845 2.72703 0
M  V30 4317 H 413.051 0.734736 1.40667 0
M  V30 4318 H 413.072 -0.649945 3.74908 0
M  V30 4319 H 412.584 1.17412 3.69914 0
M  V30 4320 H 410.685 -1.28343 3.49798 0
M  V30 4321 H 410.798 0.0878859 4.79019 0
M  V30 4322 H 409.162 -0.0500581 2.54651 0
M  V30 4323 H 409.945 1.53743 3.0695 0
M  V30 4324 N 412.39 -1.55475 0.257931 0
M  V30 4325 C 413.34 -2.18506 -0.651094 0
M  V30 4326 C 414.324 -1.14431 -1.13112 0
M  V30 4327 O 415.516 -1.40305 -1.07905 0
M  V30 4328 C 412.645 -2.89653 -1.84272 0
M  V30 4329 C 411.731 -4.00996 -1.38068 0
M  V30 4330 N 412.122 -5.01816 -0.633609 0
M  V30 4331 C 410.42 -4.13753 -1.66506 0
M  V30 4332 C 411.121 -5.80371 -0.392922 0
M  V30 4333 N 410.097 -5.3505 -0.960359 0
M  V30 4334 H 413.899 -2.93811 -0.0722883 0
M  V30 4335 H 411.413 -1.62286 0.0607256 0
M  V30 4336 H 413.41 -3.33245 -2.50506 0
M  V30 4337 H 412.07 -2.15854 -2.42564 0
M  V30 4338 H 413.081 -5.17128 -0.282626 0
M  V30 4339 H 409.758 -3.51133 -2.25858 0
M  V30 4340 H 411.148 -6.7159 0.204235 0
M  V30 4341 N 413.868 0.0150385 -1.57593 0
M  V30 4342 C 415.117 0.702115 -1.89085 0
M  V30 4343 C 415.43 1.75764 -0.858277 0
M  V30 4344 O 416.636 2.49829 -1.0629 0
M  V30 4345 C 415.092 1.29992 -3.35604 0
M  V30 4346 C 414.7 0.280007 -4.47124 0
M  V30 4347 C 416.444 1.96606 -3.76227 0
M  V30 4348 C 414.351 0.886949 -5.84711 0
M  V30 4349 H 413.281 0.265997 -0.705522 0
M  V30 4350 H 415.932 -0.0430408 -1.8345 0
M  V30 4351 H 414.314 2.09525 -3.36029 0
M  V30 4352 H 415.488 -0.489631 -4.58191 0
M  V30 4353 H 413.803 -0.284835 -4.15425 0
M  V30 4354 H 416.4 2.42893 -4.76347 0
M  V30 4355 H 416.743 2.79024 -3.08952 0
M  V30 4356 H 417.276 1.23828 -3.78036 0
M  V30 4357 H 414.015 0.101876 -6.55421 0
M  V30 4358 H 413.535 1.6261 -5.77337 0
M  V30 4359 H 415.214 1.39011 -6.3189 0
M  V30 4360 N 415.346 1.54954 0.287554 0
M  V30 4361 C 416.278 1.83224 1.37701 0
M  V30 4362 C 417.291 0.715898 1.46215 0
M  V30 4363 O 418.48 0.993565 1.48292 0
M  V30 4364 C 415.58 1.96723 2.75959 0
M  V30 4365 C 414.753 3.27253 2.90215 0
M  V30 4366 C 413.812 3.30998 4.09056 0
M  V30 4367 O 412.838 4.04457 4.00503 0
M  V30 4368 N 414.04 2.57353 5.20336 0
M  V30 4369 H 416.805 2.77254 1.138 0
M  V30 4370 H 414.366 1.54694 0.477652 0
M  V30 4371 H 416.358 1.96615 3.5373 0
M  V30 4372 H 414.928 1.09626 2.92747 0
M  V30 4373 H 414.148 3.40022 1.99447 0
M  V30 4374 H 415.436 4.13365 2.96659 0
M  V30 4375 H 414.834 1.97327 5.30169 0
M  V30 4376 H 413.391 2.62984 5.96391 0
M  V30 4377 N 416.824 -0.551391 1.4764 0
M  V30 4378 C 418.07 -1.30789 1.55774 0
M  V30 4379 C 418.425 -1.91143 0.219562 0
M  V30 4380 O 417.718 -1.7521 -0.775375 0
M  V30 4381 C 417.912 -2.43469 2.61644 0
M  V30 4382 C 417.741 -1.94157 4.05627 0
M  V30 4383 C 416.511 -1.77734 4.7301 0
M  V30 4384 C 418.709 -1.48262 4.92466 0
M  V30 4385 N 416.691 -1.22823 6.01488 0
M  V30 4386 C 418.062 -1.05156 6.11017 0
M  V30 4387 C 420.117 -1.36367 4.78862 0
M  V30 4388 C 418.82 -0.513357 7.17466 0
M  V30 4389 C 420.846 -0.839484 5.85411 0
M  V30 4390 C 420.208 -0.418377 7.03156 0
M  V30 4391 H 416.307 -0.470406 0.624694 0
M  V30 4392 H 418.891 -0.624331 1.84419 0
M  V30 4393 H 417.062 -3.09348 2.34859 0
M  V30 4394 H 418.794 -3.10477 2.59589 0
M  V30 4395 H 415.549 -2.00623 4.29007 0
M  V30 4396 H 415.973 -0.974393 6.69951 0
M  V30 4397 H 420.615 -1.67535 3.88191 0
M  V30 4398 H 418.333 -0.189318 8.07878 0
M  V30 4399 H 421.919 -0.750921 5.76934 0
M  V30 4400 H 420.799 -0.0190538 7.84198 0
M  V30 4401 N 418.302 -1.35869 -0.798587 0
M  V30 4402 C 419.232 -1.32118 -1.92528 0
M  V30 4403 C 420.213 -0.194209 -1.68988 0
M  V30 4404 O 421.398 -0.390426 -1.90235 0
M  V30 4405 C 418.528 -1.10047 -3.29404 0
M  V30 4406 C 417.482 -2.19471 -3.67446 0
M  V30 4407 C 416.808 -1.82555 -5.02571 0
M  V30 4408 C 418.108 -3.61495 -3.76987 0
M  V30 4409 H 419.802 -2.26394 -1.95924 0
M  V30 4410 H 417.348 -1.08981 -0.94123 0
M  V30 4411 H 419.301 -1.06061 -4.07835 0
M  V30 4412 H 418.025 -0.122195 -3.26371 0
M  V30 4413 H 416.684 -2.22568 -2.91306 0
M  V30 4414 H 416.332 -0.833249 -4.9605 0
M  V30 4415 H 416.032 -2.5581 -5.28995 0
M  V30 4416 H 417.556 -1.80108 -5.83432 0
M  V30 4417 H 418.97 -3.60676 -4.4563 0
M  V30 4418 H 417.367 -4.33577 -4.14887 0
M  V30 4419 H 418.437 -3.97065 -2.78329 0
M  V30 4420 N 419.78 1.02168 -1.19998 0
M  V30 4421 C 420.727 2.10601 -0.944228 0
M  V30 4422 C 421.697 1.65639 0.123664 0
M  V30 4423 O 422.882 1.9079 -0.0199941 0
M  V30 4424 C 420.022 3.41504 -0.496865 0
M  V30 4425 C 419.135 3.99973 -1.63234 0
M  V30 4426 C 418.27 5.18915 -1.13579 0
M  V30 4427 C 417.309 5.69456 -2.24468 0
M  V30 4428 N 416.446 6.79665 -1.76068 0
M  V30 4429 H 421.286 2.31814 -1.8726 0
M  V30 4430 H 418.823 1.13686 -0.933483 0
M  V30 4431 H 420.781 4.16626 -0.218843 0
M  V30 4432 H 419.411 3.2038 0.394508 0
M  V30 4433 H 418.463 3.21997 -2.0254 0
M  V30 4434 H 419.775 4.33492 -2.46752 0
M  V30 4435 H 418.929 6.01222 -0.813429 0
M  V30 4436 H 417.668 4.8695 -0.270434 0
M  V30 4437 H 416.673 4.85757 -2.57526 0
M  V30 4438 H 417.898 6.03459 -3.11472 0
M  V30 4439 H 415.844 6.49538 -0.918516 0
M  V30 4440 H 415.761 7.12349 -2.5317 0
M  V30 4441 H 417.029 7.65549 -1.46817 0
M  V30 4442 N 421.258 1.00505 1.21394 0
M  V30 4443 C 422.208 0.536503 2.21598 0
M  V30 4444 C 423.192 -0.401914 1.55799 0
M  V30 4445 O 424.384 -0.226757 1.75541 0
M  V30 4446 C 421.513 -0.135446 3.43033 0
M  V30 4447 C 420.599 0.823992 4.16018 0
M  V30 4448 N 420.99 1.97683 4.6557 0
M  V30 4449 C 419.288 0.642387 4.4135 0
M  V30 4450 C 419.989 2.58003 5.21354 0
M  V30 4451 N 418.965 1.86162 5.1073 0
M  V30 4452 H 422.767 1.41557 2.57563 0
M  V30 4453 H 420.281 0.868878 1.37202 0
M  V30 4454 H 422.278 -0.488584 4.14027 0
M  V30 4455 H 420.938 -1.01049 3.08576 0
M  V30 4456 H 421.949 2.3572 4.61147 0
M  V30 4457 H 418.626 -0.185578 4.17087 0
M  V30 4458 H 420.016 3.555 5.70149 0
M  V30 4459 N 422.737 -1.36956 0.779787 0
M  V30 4460 C 423.986 -1.98738 0.344405 0
M  V30 4461 C 424.299 -1.62596 -1.08728 0
M  V30 4462 O 425.505 -2.1754 -1.62445 0
M  V30 4463 C 423.961 -3.5544 0.564829 0
M  V30 4464 C 423.569 -4.00514 2.0073 0
M  V30 4465 C 425.313 -4.24059 0.193471 0
M  V30 4466 C 423.22 -5.49957 2.17489 0
M  V30 4467 H 422.15 -0.743561 0.12503 0
M  V30 4468 H 424.801 -1.56381 0.960057 0
M  V30 4469 H 423.183 -3.95817 -0.120397 0
M  V30 4470 H 424.357 -3.71362 2.72814 0
M  V30 4471 H 422.672 -3.44703 2.336 0
M  V30 4472 H 425.269 -5.33874 0.297097 0
M  V30 4473 H 425.612 -4.07378 -0.857263 0
M  V30 4474 H 426.145 -3.89012 0.831556 0
M  V30 4475 H 422.884 -5.71574 3.2091 0
M  V30 4476 H 422.404 -5.80767 1.49899 0
M  V30 4477 H 424.083 -6.16043 1.97738 0
M  V30 4478 N 424.215 -0.530993 -1.48385 0
M  V30 4479 C 425.461 0.00274135 -2.028 0
M  V30 4480 C 425.794 1.33838 -1.40716 0
M  V30 4481 O 425.069 1.86465 -0.553277 0
M  V30 4482 C 425.352 0.123676 -3.59888 0
M  V30 4483 C 425.205 -1.2372 -4.3245 0
M  V30 4484 C 426.524 0.849967 -4.31814 0
M  V30 4485 H 423.643 -0.000477758 -0.737 0
M  V30 4486 H 426.285 -0.688217 -1.77098 0
M  V30 4487 H 424.435 0.712157 -3.81917 0
M  V30 4488 H 426.107 -1.86687 -4.21836 0
M  V30 4489 H 424.35 -1.81882 -3.93829 0
M  V30 4490 H 425.021 -1.10557 -5.40815 0
M  V30 4491 H 427.497 0.350572 -4.14621 0
M  V30 4492 H 426.373 0.903486 -5.41413 0
M  V30 4493 H 426.634 1.90047 -3.99167 0
M  V30 4494 N 425.693 1.55336 -0.266172 0
M  V30 4495 C 426.942 1.98574 0.353749 0
M  V30 4496 C 427.255 1.15789 1.57646 0
M  V30 4497 O 428.461 1.49129 2.26876 0
M  V30 4498 C 426.917 3.53403 0.680747 0
M  V30 4499 C 426.525 4.44953 -0.52165 0
M  V30 4500 C 428.269 4.05251 1.26379 0
M  V30 4501 C 426.176 5.91156 -0.169736 0
M  V30 4502 H 425.106 0.741643 0.135949 0
M  V30 4503 H 427.757 1.79743 -0.369421 0
M  V30 4504 H 426.139 3.68001 1.46257 0
M  V30 4505 H 427.313 4.42121 -1.29869 0
M  V30 4506 H 425.628 4.03691 -1.02093 0
M  V30 4507 H 428.225 5.12021 1.54074 0
M  V30 4508 H 428.568 3.53749 2.19471 0
M  V30 4509 H 429.101 3.94057 0.544447 0
M  V30 4510 H 425.84 6.46736 -1.0683 0
M  V30 4511 H 425.36 5.97079 0.570717 0
M  V30 4512 H 427.039 6.4655 0.241245 0
M  V30 4513 N 427.171 -0.0066808 1.57599 0
M  V30 4514 C 428.119 -1.01851 2.09115 0
M  V30 4515 C 429.113 -1.36021 1.00969 0
M  V30 4516 O 430.319 -1.34663 1.19439 0
M  V30 4517 H 426.694 -0.346083 0.667631 0
M  V30 4518 H 428.665 -0.558394 2.93129 0
M  V30 4519 C 427.414 -2.30374 2.60429 0
M  V30 4520 H 426.737 -2.04947 3.43273 0
M  V30 4521 H 428.177 -2.99466 3.00161 0
M  V30 4522 C 426.636 -3.00893 1.51542 0
M  V30 4523 O 427.166 -3.91614 0.894484 0
M  V30 4524 N 425.372 -2.62603 1.2445 0
M  V30 4525 H 424.919 -1.88911 1.75129 0
M  V30 4526 H 424.877 -3.10101 0.518137 0
M  V30 4527 N 428.649 -1.55105 -0.279332 0
M  V30 4528 C 429.897 -1.75066 -1.00977 0
M  V30 4529 C 430.218 -0.551276 -1.87045 0
M  V30 4530 O 429.488 0.433984 -1.91032 0
M  V30 4531 H 428.068 -0.645578 -0.375816 0
M  V30 4532 H 430.73 -1.92497 -0.305089 0
M  V30 4533 H 429.826 -2.64894 -1.65038 0
M  V30 4534 N 430.127 0.543554 -1.4793 0
M  V30 4535 C 431.352 1.32995 -1.59145 0
M  V30 4536 C 431.777 1.86472 -0.246956 0
M  V30 4537 O 431.135 1.63696 0.779324 0
M  V30 4538 C 431.183 2.46623 -2.63077 0
M  V30 4539 O 430.287 3.49261 -2.19295 0
M  V30 4540 H 429.628 0.394472 -0.534124 0
M  V30 4541 H 432.158 0.655489 -1.93816 0
M  V30 4542 H 432.168 2.93001 -2.83926 0
M  V30 4543 H 430.843 2.07059 -3.60693 0
M  V30 4544 H 429.42 3.09094 -2.08603 0
M  V30 4545 N 431.605 1.3629 0.791371 0
M  V30 4546 C 432.83 1.33726 1.58531 0
M  V30 4547 C 433.255 -0.0794933 1.87932 0
M  V30 4548 O 432.613 -1.05087 1.47738 0
M  V30 4549 C 432.661 2.16425 2.88431 0
M  V30 4550 O 431.765 1.5554 3.81944 0
M  V30 4551 H 431.106 0.457793 0.480959 0
M  V30 4552 H 433.636 1.79547 0.981031 0
M  V30 4553 H 433.646 2.28933 3.37718 0
M  V30 4554 H 432.321 3.19415 2.66359 0
M  V30 4555 H 430.898 1.51961 3.40532 0
M  V30 4556 N 433.083 -1.0153 1.20538 0
M  V30 4557 C 434.33 -1.75149 1.01633 0
M  V30 4558 C 434.658 -1.89189 -0.451399 0
M  V30 4559 O 433.913 -1.41551 -1.35136 0
M  V30 4560 C 434.212 -3.17213 1.64654 0
M  V30 4561 C 433.878 -3.23146 3.14464 0
M  V30 4562 C 432.54 -3.24472 3.55347 0
M  V30 4563 C 434.892 -3.21207 4.10458 0
M  V30 4564 C 432.22 -3.21532 4.90748 0
M  V30 4565 C 434.572 -3.19808 5.45807 0
M  V30 4566 C 433.236 -3.19439 5.86102 0
M  V30 4567 H 432.506 -0.640914 0.3719 0
M  V30 4568 H 435.153 -1.19071 1.49981 0
M  V30 4569 H 433.458 -3.76457 1.08571 0
M  V30 4570 H 435.155 -3.72871 1.4754 0
M  V30 4571 H 431.745 -3.2285 2.81897 0
M  V30 4572 H 435.929 -3.19351 3.79906 0
M  V30 4573 H 431.185 -3.19578 5.21229 0
M  V30 4574 H 435.359 -3.1726 6.19935 0
M  V30 4575 H 432.986 -3.16915 6.90991 0
M  V30 4576 N 434.561 -1.01147 -1.20859 0
M  V30 4577 C 435.809 -0.696486 -1.89719 0
M  V30 4578 C 436.13 0.775788 -1.78904 0
M  V30 4579 O 435.4 1.55759 -1.18811 0
M  V30 4580 H 433.98 -0.254628 -0.702263 0
M  V30 4581 H 436.642 -1.28197 -1.46804 0
M  V30 4582 H 435.738 -0.975357 -2.96468 0
M  V30 4583 N 436.039 1.36541 -0.78704 0
M  V30 4584 C 437.002 2.28413 -0.189778 0
M  V30 4585 C 438.002 1.48719 0.611499 0
M  V30 4586 O 439.192 1.68737 0.432842 0
M  V30 4587 C 436.324 3.32824 0.737638 0
M  V30 4588 H 437.517 2.82743 -0.999831 0
M  V30 4589 H 435.07 1.46065 -0.556298 0
M  V30 4590 H 435.805 2.83646 1.57212 0
M  V30 4591 H 435.59 3.91752 0.165044 0
M  V30 4592 H 437.08 4.0144 1.15047 0
M  V30 4593 N 437.518 0.538854 1.48102 0
M  V30 4594 C 438.795 -0.0568108 1.95517 0
M  V30 4595 C 439.175 -1.50408 1.48124 0
M  V30 4596 O 438.523 -2.17133 0.711727 0
M  V30 4597 C 438.733 0.0696262 3.48931 0
M  V30 4598 C 440.081 -0.0851202 4.24515 0
M  V30 4599 O 441.105 -0.0037347 3.562 0
M  V30 4600 O 439.964 -0.257025 5.45895 0
M  V30 4601 H 437.058 -0.0743695 0.823649 0
M  V30 4602 H 439.604 0.604081 1.58584 0
M  V30 4603 H 438.376 1.07744 3.76174 0
M  V30 4604 H 437.999 -0.629714 3.92582 0
M  V30 4605 N 438.996 -1.55193 0.274407 0
M  V30 4606 C 440.244 -1.99187 -0.341902 0
M  V30 4607 C 440.565 -1.16422 -1.56431 0
M  V30 4608 O 439.835 -0.253573 -1.94252 0
M  V30 4609 H 438.415 -0.735721 -0.129317 0
M  V30 4610 H 441.077 -1.91168 0.379578 0
M  V30 4611 H 440.173 -3.05629 -0.632253 0
M  V30 4612 N 440.474 -0.00167713 -1.576 0
M  V30 4613 C 441.721 0.68282 -1.90641 0
M  V30 4614 C 442.049 1.73686 -0.875415 0
M  V30 4615 O 441.304 1.95334 0.119575 0
M  V30 4616 C 441.603 1.36189 -3.30435 0
M  V30 4617 C 441.269 0.440887 -4.48739 0
M  V30 4618 C 439.931 0.187312 -4.80835 0
M  V30 4619 C 442.283 -0.193134 -5.20842 0
M  V30 4620 C 439.611 -0.70855 -5.82406 0
M  V30 4621 C 441.963 -1.07688 -6.23367 0
M  V30 4622 C 440.627 -1.33962 -6.53919 0
M  V30 4623 H 439.897 0.249862 -0.697603 0
M  V30 4624 H 442.544 -0.0575642 -1.91413 0
M  V30 4625 H 440.849 2.17636 -3.25794 0
M  V30 4626 H 442.546 1.89759 -3.5326 0
M  V30 4627 H 439.136 0.648694 -4.23663 0
M  V30 4628 H 443.32 -0.0102445 -4.96299 0
M  V30 4629 H 438.576 -0.920097 -6.04437 0
M  V30 4630 H 442.75 -1.57451 -6.78367 0
M  V30 4631 H 440.377 -2.03549 -7.32442 0
M  V30 4632 N 441.952 1.55251 0.271103 0
M  V30 4633 C 443.363 1.66635 0.842007 0
M  V30 4634 C 443.714 0.594631 1.86972 0
M  V30 4635 O 442.839 -0.263532 2.14789 0
M  V30 4636 C 443.434 3.02082 1.53401 0
M  V30 4637 C 441.993 3.15487 2.05293 0
M  V30 4638 C 441.14 2.62438 0.895631 0
M  V30 4639 H 444.091 1.58629 0.0474117 0
M  V30 4640 H 444.112 2.95176 2.40107 0
M  V30 4641 H 443.624 3.80062 0.785786 0
M  V30 4642 H 441.725 2.42284 2.83071 0
M  V30 4643 H 441.838 4.22075 2.26693 0
M  V30 4644 H 440.202 2.19644 1.28953 0
M  V30 4645 H 440.985 3.42923 0.160878 0
M  V30 4646 N 443.43 -0.535701 1.48216 0
M  V30 4647 C 444.66 -1.3148 1.59363 0
M  V30 4648 C 445.068 -1.8753 0.250844 0
M  V30 4649 O 444.411 -1.66821 -0.769174 0
M  V30 4650 C 444.473 -2.50731 2.57632 0
M  V30 4651 C 444.137 -2.15811 4.02833 0
M  V30 4652 C 445.134 -1.71822 4.90686 0
M  V30 4653 C 442.819 -2.26509 4.48329 0
M  V30 4654 C 444.813 -1.3899 6.22062 0
M  V30 4655 C 442.5 -1.93289 5.79726 0
M  V30 4656 C 443.498 -1.49599 6.66415 0
M  V30 4657 O 443.186 -1.16812 7.95368 0
M  V30 4658 H 442.918 -0.406315 0.540263 0
M  V30 4659 H 445.472 -0.653569 1.94725 0
M  V30 4660 H 443.702 -3.19817 2.1738 0
M  V30 4661 H 445.391 -3.12797 2.58675 0
M  V30 4662 H 446.157 -1.63031 4.56778 0
M  V30 4663 H 442.036 -2.59471 3.81045 0
M  V30 4664 H 445.58 -1.04816 6.89681 0
M  V30 4665 H 441.477 -2.01718 6.13172 0
M  V30 4666 H 442.245 -1.30259 8.08069 0
M  V30 4667 N 444.908 -1.36708 -0.784132 0
M  V30 4668 C 446.154 -1.31426 -1.54451 0
M  V30 4669 C 446.487 0.10476 -1.93917 0
M  V30 4670 O 445.762 1.05934 -1.6312 0
M  V30 4671 C 446.045 -2.24189 -2.818 0
M  V30 4672 C 445.898 -3.74813 -2.48667 0
M  V30 4673 C 447.217 -2.15626 -3.83658 0
M  V30 4674 H 444.336 -0.478739 -0.560337 0
M  V30 4675 H 446.978 -1.67305 -0.900498 0
M  V30 4676 H 445.128 -1.93722 -3.36755 0
M  V30 4677 H 446.8 -4.15823 -1.99722 0
M  V30 4678 H 445.043 -3.93989 -1.81535 0
M  V30 4679 H 445.714 -4.35138 -3.39646 0
M  V30 4680 H 448.19 -2.42456 -3.38163 0
M  V30 4681 H 447.066 -2.82694 -4.70506 0
M  V30 4682 H 447.327 -1.14522 -4.27009 0
M  V30 4683 N 446.386 1.0089 -1.21074 0
M  V30 4684 C 447.318 2.09737 -0.924291 0
M  V30 4685 C 448.331 1.62546 0.0909809 0
M  V30 4686 O 449.52 1.77942 -0.141021 0
M  V30 4687 C 446.62 3.36922 -0.36559 0
M  V30 4688 C 445.793 4.13216 -1.43426 0
M  V30 4689 C 444.852 5.18696 -0.885496 0
M  V30 4690 O 443.878 5.47176 -1.56801 0
M  V30 4691 N 445.08 5.79718 0.301227 0
M  V30 4692 H 447.845 2.34895 -1.8613 0
M  V30 4693 H 445.406 1.17341 -1.11546 0
M  V30 4694 H 447.398 4.04697 0.0158407 0
M  V30 4695 H 445.968 3.08952 0.476149 0
M  V30 4696 H 445.188 3.40301 -1.9897 0
M  V30 4697 H 446.476 4.60967 -2.15376 0
M  V30 4698 H 445.874 5.58926 0.872849 0
M  V30 4699 H 444.431 6.48804 0.624211 0
M  V30 4700 N 447.864 1.01787 1.20321 0
M  V30 4701 C 449.11 0.708985 1.90003 0
M  V30 4702 C 449.443 -0.759572 1.78729 0
M  V30 4703 O 448.718 -1.55198 1.17234 0
M  V30 4704 C 449.001 1.1469 3.41348 0
M  V30 4705 C 448.854 2.67586 3.61549 0
M  V30 4706 C 450.173 0.71915 4.34185 0
M  V30 4707 H 447.292 0.259034 0.689978 0
M  V30 4708 H 449.934 1.26584 1.41692 0
M  V30 4709 H 448.084 0.673128 3.82624 0
M  V30 4710 H 449.756 3.22826 3.29517 0
M  V30 4711 H 447.999 3.085 3.04976 0
M  V30 4712 H 448.67 2.93281 4.67643 0
M  V30 4713 H 451.146 1.12647 4.00562 0
M  V30 4714 H 450.022 1.05358 5.38694 0
M  V30 4715 H 450.283 -0.379111 4.40472 0
M  V30 4716 N 449.342 -1.36122 0.79427 0
M  V30 4717 C 450.272 -2.32551 0.210328 0
M  V30 4718 C 451.253 -1.56884 -0.657386 0
M  V30 4719 O 452.438 -1.85014 -0.590207 0
M  V30 4720 C 449.568 -3.41128 -0.651819 0
M  V30 4721 C 448.522 -4.27842 0.116395 0
M  V30 4722 C 447.848 -5.2763 -0.86666 0
M  V30 4723 C 449.148 -5.05647 1.30837 0
M  V30 4724 H 450.842 -2.81636 1.01594 0
M  V30 4725 H 448.388 -1.35407 0.489981 0
M  V30 4726 H 450.341 -4.07581 -1.07031 0
M  V30 4727 H 449.065 -2.90622 -1.49019 0
M  V30 4728 H 447.724 -3.62952 0.515915 0
M  V30 4729 H 447.372 -4.73395 -1.70019 0
M  V30 4730 H 447.072 -5.86514 -0.35705 0
M  V30 4731 H 448.596 -5.96955 -1.28361 0
M  V30 4732 H 450.01 -5.65113 0.965393 0
M  V30 4733 H 448.407 -5.73967 1.75161 0
M  V30 4734 H 449.477 -4.37006 2.10128 0
M  V30 4735 N 450.82 -0.546701 -1.47814 0
M  V30 4736 C 451.767 0.206854 -2.29871 0
M  V30 4737 C 452.737 0.918235 -1.38411 0
M  V30 4738 O 453.922 0.915991 -1.67375 0
M  V30 4739 C 451.062 1.23746 -3.22151 0
M  V30 4740 C 450.175 0.533216 -4.28697 0
M  V30 4741 C 449.31 1.5482 -5.08138 0
M  V30 4742 C 448.349 0.828347 -6.06469 0
M  V30 4743 N 447.486 1.78966 -6.78908 0
M  V30 4744 H 452.326 -0.499037 -2.93792 0
M  V30 4745 H 449.863 -0.25793 -1.44821 0
M  V30 4746 H 451.821 1.84746 -3.74065 0
M  V30 4747 H 450.451 1.91151 -2.60117 0
M  V30 4748 H 449.503 -0.191089 -3.7992 0
M  V30 4749 H 450.815 -0.0311987 -4.9879 0
M  V30 4750 H 449.969 2.23202 -5.6415 0
M  V30 4751 H 448.708 2.14652 -4.37922 0
M  V30 4752 H 447.713 0.130539 -5.49645 0
M  V30 4753 H 448.938 0.235907 -6.7869 0
M  V30 4754 H 446.884 2.37675 -6.1143 0
M  V30 4755 H 446.801 1.27712 -7.45135 0
M  V30 4756 H 448.069 2.46496 -7.395 0
M  V30 4757 N 452.299 1.55045 -0.282633 0
M  V30 4758 C 453.527 2.04168 0.33512 0
M  V30 4759 C 453.942 1.16071 1.48906 0
M  V30 4760 O 453.299 0.182391 1.81586 0
M  V30 4761 C 453.35 3.52332 0.808957 0
M  V30 4762 O 453.071 4.37078 -0.299038 0
M  V30 4763 C 454.572 4.17375 1.49375 0
M  V30 4764 H 451.792 0.666744 0.0754543 0
M  V30 4765 H 454.336 2.00205 -0.416918 0
M  V30 4766 H 452.491 3.56715 1.51106 0
M  V30 4767 H 452.905 5.24458 0.0665514 0
M  V30 4768 H 454.379 5.22627 1.77664 0
M  V30 4769 H 454.856 3.65999 2.42778 0
M  V30 4770 H 455.462 4.17016 0.835305 0
M  V30 4771 N 453.777 0.010035 1.57597 0
M  V30 4772 C 454.74 -0.963029 2.07986 0
M  V30 4773 C 455.74 -1.26619 0.991173 0
M  V30 4774 O 456.93 -1.2097 1.25347 0
M  V30 4775 C 454.062 -2.2851 2.52974 0
M  V30 4776 H 455.255 -0.526971 2.95234 0
M  V30 4777 H 452.808 -0.237639 1.54483 0
M  V30 4778 H 453.543 -2.76784 1.69 0
M  V30 4779 H 453.328 -2.07824 3.32493 0
M  V30 4780 H 454.818 -2.98294 2.9225 0
M  V30 4781 N 455.255 -1.55392 -0.262866 0
M  V30 4782 C 456.532 -1.67204 -1.01499 0
M  V30 4783 C 456.912 -0.545186 -2.03939 0
M  V30 4784 O 456.26 0.453467 -2.23955 0
M  V30 4785 C 456.47 -3.06847 -1.6627 0
M  V30 4786 C 457.818 -3.64928 -2.17054 0
M  V30 4787 O 458.842 -3.09545 -1.76239 0
M  V30 4788 O 457.701 -4.61984 -2.91947 0
M  V30 4789 H 454.795 -0.679467 -0.471438 0
M  V30 4790 H 457.341 -1.67729 -0.257918 0
M  V30 4791 H 456.113 -3.80309 -0.920915 0
M  V30 4792 H 455.736 -3.10266 -2.48638 0
M  V30 4793 N 456.733 0.527833 -1.48498 0
M  V30 4794 C 457.982 1.28003 -1.55878 0
M  V30 4795 C 458.295 1.9414 -0.238577 0
M  V30 4796 O 459.501 2.7083 -0.190643 0
M  V30 4797 C 457.957 2.32272 -2.74914 0
M  V30 4798 C 457.565 1.72196 -4.13585 0
M  V30 4799 C 459.309 3.08488 -2.91608 0
M  V30 4800 C 457.216 2.74417 -5.23879 0
M  V30 4801 H 456.146 0.481413 -0.580308 0
M  V30 4802 H 458.797 0.557195 -1.74836 0
M  V30 4803 H 457.179 3.07601 -2.49395 0
M  V30 4804 H 458.353 1.03041 -4.49132 0
M  V30 4805 H 456.668 1.08464 -4.02025 0
M  V30 4806 H 459.265 3.84879 -3.71177 0
M  V30 4807 H 459.608 3.64481 -2.01145 0
M  V30 4808 H 460.141 2.40274 -3.17038 0
M  V30 4809 H 456.88 2.23242 -6.16314 0
M  V30 4810 H 456.4 3.41893 -4.92818 0
M  V30 4811 H 458.079 3.37362 -5.52083 0
M  V30 4812 N 458.211 1.37122 0.776871 0
M  V30 4813 C 459.159 1.32549 1.91138 0
M  V30 4814 C 460.153 0.215119 1.68029 0
M  V30 4815 O 461.359 0.382852 1.75881 0
M  V30 4816 H 457.734 0.412952 0.62847 0
M  V30 4817 H 459.705 2.28332 1.92112 0
M  V30 4818 C 458.454 1.14422 3.28333 0
M  V30 4819 H 457.777 1.99115 3.46689 0
M  V30 4820 H 459.217 1.15272 4.0803 0
M  V30 4821 C 457.676 -0.150434 3.36564 0
M  V30 4822 O 458.206 -1.13584 3.85307 0
M  V30 4823 N 456.412 -0.19939 2.89915 0
M  V30 4824 H 455.959 0.603142 2.5044 0
M  V30 4825 H 455.917 -1.06526 2.95803 0
M  V30 4826 N 459.689 -1.00246 1.21608 0
M  V30 4827 C 460.914 -1.78167 1.06167 0
M  V30 4828 C 461.339 -1.84138 -0.384035 0
M  V30 4829 O 460.697 -1.28683 -1.27712 0
M  V30 4830 C 460.745 -3.19786 1.66642 0
M  V30 4831 O 459.849 -4.02153 0.913613 0
M  V30 4832 H 459.19 -0.549 0.37349 0
M  V30 4833 H 461.72 -1.25994 1.61204 0
M  V30 4834 H 461.73 -3.70451 1.70969 0
M  V30 4835 H 460.405 -3.14754 2.7185 0
M  V30 4836 H 458.982 -3.60711 0.945635 0
M  V30 4837 N 461.167 -1.02423 -1.1978 0
M  V30 4838 C 462.392 -0.7373 -1.93852 0
M  V30 4839 C 462.817 0.696923 -1.74713 0
M  V30 4840 O 462.175 1.48056 -1.04638 0
M  V30 4841 C 462.223 -1.08783 -3.438 0
M  V30 4842 O 461.327 -0.20383 -4.11896 0
M  V30 4843 H 460.668 -0.27284 -0.605355 0
M  V30 4844 H 463.198 -1.36966 -1.51992 0
M  V30 4845 H 463.208 -1.04276 -3.9445 0
M  V30 4846 H 461.883 -2.13274 -3.57053 0
M  V30 4847 H 460.46 -0.307091 -3.71633 0
M  V30 4848 N 462.645 1.35699 -0.801477 0
M  V30 4849 C 463.555 2.33661 -0.209691 0
M  V30 4850 C 464.571 1.6162 0.644591 0
M  V30 4851 O 465.747 1.93529 0.557545 0
M  V30 4852 C 462.812 3.40816 0.636033 0
M  V30 4853 C 461.873 4.28639 -0.238147 0
M  V30 4854 C 461.106 5.30676 0.567307 0
M  V30 4855 O 461.329 5.41174 1.8024 0
M  V30 4856 O 460.263 6.01887 -0.0391336 0
M  V30 4857 H 464.089 2.8606 -1.01996 0
M  V30 4858 H 461.674 1.38379 -0.563164 0
M  V30 4859 H 463.556 4.06301 1.11791 0
M  V30 4860 H 462.231 2.90696 1.42399 0
M  V30 4861 H 461.138 3.66152 -0.767044 0
M  V30 4862 H 462.471 4.82143 -0.989915 0
M  V30 4863 N 464.123 0.554532 1.47522 0
M  V30 4864 C 465.369 0.0295227 2.02779 0
M  V30 4865 C 465.702 -1.31582 1.42828 0
M  V30 4866 O 464.977 -1.85561 0.582872 0
M  V30 4867 C 465.26 -0.0664057 3.60039 0
M  V30 4868 C 465.113 1.30585 4.30427 0
M  V30 4869 C 466.432 -0.781162 4.33112 0
M  V30 4870 H 463.551 0.0122027 0.736899 0
M  V30 4871 H 466.193 0.716305 1.7598 0
M  V30 4872 H 464.343 -0.651307 3.83002 0
M  V30 4873 H 466.015 1.93374 4.18813 0
M  V30 4874 H 464.258 1.88125 3.90886 0
M  V30 4875 H 464.929 1.19147 5.38988 0
M  V30 4876 H 467.405 -0.284565 4.15126 0
M  V30 4877 H 466.281 -0.817237 5.42782 0
M  V30 4878 H 466.542 -1.83672 4.0214 0
M  V30 4879 N 465.601 -1.54893 0.290851 0
M  V30 4880 C 466.511 -2.26812 -0.59945 0
M  V30 4881 C 467.527 -1.29963 -1.15696 0
M  V30 4882 O 468.703 -1.62928 -1.18391 0
M  V30 4883 C 465.768 -2.98716 -1.75982 0
M  V30 4884 C 464.829 -4.1108 -1.2374 0
M  V30 4885 C 464.062 -4.79546 -2.34246 0
M  V30 4886 O 464.285 -4.47309 -3.53936 0
M  V30 4887 O 463.219 -5.67165 -2.01512 0
M  V30 4888 H 467.045 -3.03696 -0.0163561 0
M  V30 4889 H 464.63 -1.49289 0.0576755 0
M  V30 4890 H 466.512 -3.43851 -2.43607 0
M  V30 4891 H 465.187 -2.24737 -2.3297 0
M  V30 4892 H 464.094 -3.70367 -0.527163 0
M  V30 4893 H 465.427 -4.87007 -0.71307 0
M  V30 4894 N 467.08 -0.0183926 -1.57589 0
M  V30 4895 C 468.326 0.663543 -1.91638 0
M  V30 4896 C 468.659 1.72392 -0.894134 0
M  V30 4897 O 467.934 1.94316 0.0846449 0
M  V30 4898 C 468.217 1.28984 -3.36207 0
M  V30 4899 C 468.07 0.239761 -4.49161 0
M  V30 4900 C 469.389 2.2109 -3.80536 0
M  V30 4901 H 466.508 0.239746 -0.696915 0
M  V30 4902 H 469.15 -0.073456 -1.89858 0
M  V30 4903 H 467.3 1.91799 -3.37854 0
M  V30 4904 H 468.972 -0.390119 -4.59647 0
M  V30 4905 H 467.215 -0.435972 -4.31604 0
M  V30 4906 H 467.886 0.717383 -5.47319 0
M  V30 4907 H 470.362 1.68273 -3.80557 0
M  V30 4908 H 469.238 2.61869 -4.82406 0
M  V30 4909 H 469.499 3.09764 -3.15434 0
M  V30 4910 N 468.558 1.5553 0.254621 0
M  V30 4911 C 469.488 1.9268 1.31897 0
M  V30 4912 C 470.469 0.790797 1.506 0
M  V30 4913 O 471.654 1.05045 1.63337 0
M  V30 4914 C 468.784 2.21477 2.67517 0
M  V30 4915 C 467.738 3.37256 2.63519 0
M  V30 4916 C 467.064 3.51576 4.02862 0
M  V30 4917 C 468.364 4.73157 2.21179 0
M  V30 4918 H 470.058 2.81832 1.01051 0
M  V30 4919 H 467.604 1.35599 0.484662 0
M  V30 4920 H 469.557 2.46055 3.42104 0
M  V30 4921 H 468.281 1.29144 2.99982 0
M  V30 4922 H 466.94 3.12675 1.9139 0
M  V30 4923 H 466.588 2.56676 4.32581 0
M  V30 4924 H 466.288 4.2943 4.01078 0
M  V30 4925 H 467.812 3.78467 4.79161 0
M  V30 4926 H 469.226 4.97158 2.85494 0
M  V30 4927 H 467.623 5.54058 2.30521 0
M  V30 4928 H 468.693 4.70739 1.16332 0
M  V30 4929 N 470.036 -0.519951 1.48776 0
M  V30 4930 C 471.266 -1.29783 1.60748 0
M  V30 4931 C 471.674 -1.87253 0.27072 0
M  V30 4932 O 471.017 -1.67628 -0.751438 0
M  V30 4933 C 471.079 -2.47984 2.60277 0
M  V30 4934 C 470.743 -2.11526 4.051 0
M  V30 4935 C 471.74 -1.66608 4.92481 0
M  V30 4936 C 469.425 -2.21742 4.50706 0
M  V30 4937 C 471.419 -1.32384 6.23501 0
M  V30 4938 C 469.106 -1.87129 5.81744 0
M  V30 4939 C 470.104 -1.42523 6.67964 0
M  V30 4940 O 469.792 -1.0837 7.96562 0
M  V30 4941 H 469.524 -0.400562 0.544542 0
M  V30 4942 H 472.078 -0.632879 1.95407 0
M  V30 4943 H 470.308 -3.17493 2.2076 0
M  V30 4944 H 471.997 -3.10036 2.61978 0
M  V30 4945 H 472.763 -1.58178 4.58481 0
M  V30 4946 H 468.642 -2.55415 3.83776 0
M  V30 4947 H 472.186 -0.974949 6.90754 0
M  V30 4948 H 468.083 -1.95204 6.15277 0
M  V30 4949 H 468.851 -1.21681 8.09405 0
M  V30 4950 N 471.514 -1.37532 -0.769588 0
M  V30 4951 C 472.444 -1.36172 -1.89682 0
M  V30 4952 C 473.425 -0.23001 -1.68538 0
M  V30 4953 O 474.61 -0.43069 -1.89364 0
M  V30 4954 C 471.74 -1.1701 -3.26995 0
M  V30 4955 C 470.694 -2.27216 -3.62708 0
M  V30 4956 C 470.02 -1.93174 -4.98586 0
M  V30 4957 C 471.32 -3.6941 -3.69234 0
M  V30 4958 H 473.014 -2.30499 -1.91078 0
M  V30 4959 H 470.56 -1.10953 -0.917902 0
M  V30 4960 H 472.513 -1.14688 -4.05493 0
M  V30 4961 H 471.237 -0.191395 -3.26039 0
M  V30 4962 H 469.896 -2.28697 -2.86519 0
M  V30 4963 H 469.544 -0.938281 -4.94171 0
M  V30 4964 H 469.244 -2.66973 -5.23449 0
M  V30 4965 H 470.768 -1.92443 -5.79481 0
M  V30 4966 H 472.182 -3.70047 -4.37879 0
M  V30 4967 H 470.579 -4.4228 -4.05597 0
M  V30 4968 H 471.649 -4.0288 -2.69844 0
M  V30 4969 N 472.992 0.995999 -1.22138 0
M  V30 4970 C 474.408 1.25917 -0.980667 0
M  V30 4971 C 474.608 1.98819 0.327604 0
M  V30 4972 O 473.664 2.29587 1.05101 0
M  V30 4973 C 474.977 2.07399 -2.17729 0
M  V30 4974 C 476.525 2.20594 -2.22052 0
M  V30 4975 C 477 3.05462 -3.41258 0
M  V30 4976 N 478.491 3.13049 -3.41401 0
M  V30 4977 C 479.226 3.78997 -4.30289 0
M  V30 4978 N 478.722 4.46899 -5.2939 0
M  V30 4979 N 480.515 3.75728 -4.18073 0
M  V30 4980 H 472.666 0.507158 -2.06256 0
M  V30 4981 H 474.929 0.28658 -0.903646 0
M  V30 4982 H 474.635 1.61191 -3.12586 0
M  V30 4983 H 474.509 3.08154 -2.17534 0
M  V30 4984 H 476.896 2.66017 -1.27745 0
M  V30 4985 H 476.977 1.1928 -2.26287 0
M  V30 4986 H 476.621 2.60739 -4.35864 0
M  V30 4987 H 476.551 4.06911 -3.34262 0
M  V30 4988 H 479.042 2.64721 -2.69688 0
M  V30 4989 H 479.355 4.94952 -5.935 0
M  V30 4990 H 477.7 4.45657 -5.33306 0
M  V30 4991 H 480.891 3.2184 -3.39907 0
M  V30 4992 H 481.064 4.26845 -4.87553 0
M  V30 4993 N 474.47 1.03057 1.19235 0
M  V30 4994 C 475.418 0.606391 2.24557 0
M  V30 4995 C 476.412 -0.361826 1.65491 0
M  V30 4996 O 477.618 -0.23022 1.78522 0
M  V30 4997 H 473.993 0.177838 0.730669 0
M  V30 4998 H 475.964 1.50529 2.5765 0
M  V30 4999 C 474.713 -0.0252127 3.47691 0
M  V30 5000 H 474.036 0.710838 3.9343 0
M  V30 5001 H 475.476 -0.284931 4.23042 0
M  V30 5002 C 473.935 -1.27229 3.11953 0
M  V30 5003 O 474.465 -2.36416 3.24762 0
M  V30 5004 N 472.671 -1.16169 2.6637 0
M  V30 5005 H 472.218 -0.273189 2.56147 0
M  V30 5006 H 472.176 -1.99703 2.42829 0
M  V30 5007 N 475.948 -1.35272 0.808662 0
M  V30 5008 C 477.194 -1.99003 0.390581 0
M  V30 5009 C 477.527 -1.63999 -1.0401 0
M  V30 5010 O 476.802 -0.904368 -1.72196 0
M  V30 5011 C 477.085 -3.55454 0.576566 0
M  V30 5012 C 476.938 -4.00249 2.05233 0
M  V30 5013 C 478.257 -4.401 0.00354277 0
M  V30 5014 H 475.376 -0.722917 0.143388 0
M  V30 5015 H 478.018 -1.6039 1.01858 0
M  V30 5016 H 476.168 -3.88477 0.0419766 0
M  V30 5017 H 477.84 -3.77626 2.64946 0
M  V30 5018 H 476.083 -3.51082 2.54801 0
M  V30 5019 H 476.754 -5.0911 2.13333 0
M  V30 5020 H 479.23 -4.13548 0.460117 0
M  V30 5021 H 478.106 -5.48656 0.163575 0
M  V30 5022 H 478.367 -4.28444 -1.09032 0
M  V30 5023 N 477.426 -0.562348 -1.47226 0
M  V30 5024 C 478.651 -0.0432632 -2.07355 0
M  V30 5025 C 479.076 1.24332 -1.41149 0
M  V30 5026 O 478.434 1.74603 -0.488226 0
M  V30 5027 C 478.482 0.130288 -3.60365 0
M  V30 5028 O 477.586 1.19166 -3.94808 0
M  V30 5029 H 476.927 -0.0536334 -0.66183 0
M  V30 5030 H 479.457 -0.779495 -1.89169 0
M  V30 5031 H 479.467 0.342881 -4.06557 0
M  V30 5032 H 478.142 -0.809389 -4.07948 0
M  V30 5033 H 476.719 0.959153 -3.60354 0
M  V30 5034 N 478.904 1.54736 -0.299062 0
M  V30 5035 C 479.867 2.22127 0.565012 0
M  V30 5036 C 480.867 1.20669 1.06281 0
M  V30 5037 O 482.057 1.45417 0.959145 0
M  V30 5038 C 479.189 2.90611 1.78208 0
M  V30 5039 H 480.382 2.99891 -0.0237448 0
M  V30 5040 H 477.935 1.5622 -0.0498788 0
M  V30 5041 H 478.67 2.16921 2.41072 0
M  V30 5042 H 478.455 3.64984 1.43281 0
M  V30 5043 H 479.945 3.42026 2.396 0
M  V30 5044 N 480.382 0.0267497 1.57577 0
M  V30 5045 C 481.292 -0.971633 2.13533 0
M  V30 5046 C 482.308 -1.35868 1.08701 0
M  V30 5047 O 483.484 -1.44058 1.40746 0
M  V30 5048 C 480.549 -2.23622 2.64941 0
M  V30 5049 C 479.61 -1.90982 3.8448 0
M  V30 5050 C 478.843 -3.11411 4.33427 0
M  V30 5051 O 479.066 -4.23992 3.81558 0
M  V30 5052 O 478 -2.93848 5.25297 0
M  V30 5053 H 481.826 -0.525853 2.99113 0
M  V30 5054 H 479.411 -0.193712 1.48139 0
M  V30 5055 H 481.293 -2.97864 2.98086 0
M  V30 5056 H 479.968 -2.67386 1.82446 0
M  V30 5057 H 478.875 -1.14132 3.56265 0
M  V30 5058 H 480.208 -1.52036 4.6813 0
M  V30 5059 N 481.861 -1.55662 -0.24637 0
M  V30 5060 C 483.138 -1.68272 -0.997198 0
M  V30 5061 C 483.518 -0.566785 -2.03349 0
M  V30 5062 O 482.866 0.429688 -2.24424 0
M  V30 5063 C 483.076 -3.08594 -1.63006 0
M  V30 5064 C 484.424 -3.6721 -2.13171 0
M  V30 5065 O 485.448 -3.11397 -1.72946 0
M  V30 5066 O 484.307 -4.65054 -2.87031 0
M  V30 5067 H 481.401 -0.684429 -0.464205 0
M  V30 5068 H 483.947 -1.67993 -0.240114 0
M  V30 5069 H 482.719 -3.81264 -0.880527 0
M  V30 5070 H 482.342 -3.12886 -2.45333 0
M  V30 5071 N 483.339 0.512053 -1.4905 0
M  V30 5072 C 484.302 1.59704 -1.64399 0
M  V30 5073 C 485.302 1.52285 -0.516317 0
M  V30 5074 O 486.492 1.55635 -0.782527 0
M  V30 5075 C 483.624 2.9935 -1.63102 0
M  V30 5076 H 484.817 1.47428 -2.61161 0
M  V30 5077 H 482.37 0.735469 -1.37915 0
M  V30 5078 H 483.105 3.17116 -0.678836 0
M  V30 5079 H 482.89 3.06144 -2.44986 0
M  V30 5080 H 484.38 3.782 -1.77072 0
M  V30 5081 N 484.817 1.37938 0.762283 0
M  V30 5082 C 486.065 1.33404 1.51815 0
M  V30 5083 C 486.386 -0.0780975 1.94844 0
M  V30 5084 O 485.656 -1.02405 1.67003 0
M  V30 5085 H 484.236 0.490839 0.563104 0
M  V30 5086 H 486.898 1.72527 0.906669 0
M  V30 5087 H 485.994 1.97926 2.41313 0
M  V30 5088 N 486.295 -0.989507 1.22664 0
M  V30 5089 C 487.205 -2.11449 1.01619 0
M  V30 5090 C 488.221 -1.73962 -0.036545 0
M  V30 5091 O 489.397 -2.00788 0.156924 0
M  V30 5092 C 486.462 -3.41465 0.600204 0
M  V30 5093 C 485.523 -3.93033 1.72695 0
M  V30 5094 C 484.756 -5.16844 1.33071 0
M  V30 5095 O 484.979 -5.7001 0.210975 0
M  V30 5096 O 483.913 -5.6225 2.14845 0
M  V30 5097 H 487.739 -2.32088 1.9588 0
M  V30 5098 H 485.324 -1.09823 1.01289 0
M  V30 5099 H 487.206 -4.19695 0.37873 0
M  V30 5100 H 485.881 -3.22178 -0.313511 0
M  V30 5101 H 484.788 -3.15961 2.00298 0
M  V30 5102 H 486.121 -4.16758 2.61865 0
M  V30 5103 N 487.773 -1.03688 -1.18687 0
M  V30 5104 C 489.003 -0.756819 -1.92239 0
M  V30 5105 C 489.411 0.689374 -1.76194 0
M  V30 5106 O 488.754 1.48126 -1.08648 0
M  V30 5107 C 488.816 -1.03851 -3.44173 0
M  V30 5108 C 488.48 -2.47785 -3.83994 0
M  V30 5109 C 489.477 -3.4595 -3.88091 0
M  V30 5110 C 487.162 -2.82397 -4.154 0
M  V30 5111 C 489.156 -4.76779 -4.23038 0
M  V30 5112 C 486.843 -4.13433 -4.50018 0
M  V30 5113 C 487.841 -5.10434 -4.53813 0
M  V30 5114 O 487.529 -6.39122 -4.87625 0
M  V30 5115 H 487.261 -0.275678 -0.617234 0
M  V30 5116 H 489.815 -1.38658 -1.51536 0
M  V30 5117 H 488.045 -0.351612 -3.85098 0
M  V30 5118 H 489.734 -0.746846 -3.9897 0
M  V30 5119 H 490.5 -3.20549 -3.63969 0
M  V30 5120 H 486.379 -2.07568 -4.11627 0
M  V30 5121 H 489.923 -5.52488 -4.25914 0
M  V30 5122 H 485.82 -4.38604 -4.736 0
M  V30 5123 H 486.588 -6.43715 -5.05542 0
M  V30 5124 N 489.251 1.34841 -0.815825 0
M  V30 5125 C 490.479 2.0273 -0.413294 0
M  V30 5126 C 490.894 1.61459 0.978599 0
M  V30 5127 O 490.251 0.816584 1.63212 0
M  V30 5128 C 490.302 3.58058 -0.497676 0
M  V30 5129 O 490.023 3.97832 -1.8347 0
M  V30 5130 C 491.524 4.4321 -0.0891339 0
M  V30 5131 H 488.744 0.649956 -0.166728 0
M  V30 5132 H 491.288 1.72267 -1.10201 0
M  V30 5133 H 489.443 3.87136 0.142886 0
M  V30 5134 H 489.857 4.92501 -1.80396 0
M  V30 5135 H 491.331 5.5164 -0.199274 0
M  V30 5136 H 491.808 4.28432 0.966571 0
M  V30 5137 H 492.414 4.19446 -0.703214 0
M  V30 5138 N 490.729 0.570148 1.46925 0
M  V30 5139 C 491.969 0.0534743 2.0433 0
M  V30 5140 C 492.333 -1.27729 1.4335 0
M  V30 5141 O 493.534 -1.88244 1.91879 0
M  V30 5142 C 491.805 -0.0244296 3.57392 0
M  V30 5143 S 493.364 -0.485351 4.36108 0
M  V30 5144 H 490.182 0.0313908 0.710307 0
M  V30 5145 H 492.784 0.759808 1.80131 0
M  V30 5146 H 491.488 0.948261 3.99295 0
M  V30 5147 H 491.019 -0.753922 3.86108 0
M  V30 5148 H 493.034 -1.74258 4.64595 0
M  V30 5149 N 492.207 -1.54576 0.307264 0
M  V30 5150 C 493.137 -2.26708 -0.55907 0
M  V30 5151 C 494.118 -1.26893 -1.1328 0
M  V30 5152 O 495.303 -1.55677 -1.16097 0
M  V30 5153 C 492.433 -3.01259 -1.72801 0
M  V30 5154 C 491.387 -4.08275 -1.28435 0
M  V30 5155 C 490.713 -4.70575 -2.53895 0
M  V30 5156 C 492.013 -5.2068 -0.411038 0
M  V30 5157 H 493.707 -2.9937 0.042576 0
M  V30 5158 H 491.253 -1.43983 0.0219173 0
M  V30 5159 H 493.206 -3.50444 -2.34023 0
M  V30 5160 H 491.93 -2.26187 -2.356 0
M  V30 5161 H 490.589 -3.59949 -0.695161 0
M  V30 5162 H 490.237 -3.92136 -3.15021 0
M  V30 5163 H 489.937 -5.42854 -2.24908 0
M  V30 5164 H 491.461 -5.22527 -3.15908 0
M  V30 5165 H 492.875 -5.65721 -0.929097 0
M  V30 5166 H 491.272 -5.99716 -0.214664 0
M  V30 5167 H 492.342 -4.81629 0.562287 0
M  V30 5168 N 493.685 -0.035106 -1.57561 0
M  V30 5169 C 494.648 0.929819 -2.09492 0
M  V30 5170 C 495.648 1.25026 -1.01119 0
M  V30 5171 O 496.838 1.18961 -1.27255 0
M  V30 5172 C 493.97 2.24457 -2.56577 0
M  V30 5173 H 495.163 0.479935 -2.96035 0
M  V30 5174 H 492.716 0.213033 -1.54841 0
M  V30 5175 H 493.451 2.74061 -1.73382 0
M  V30 5176 H 493.236 2.02508 -3.35757 0
M  V30 5177 H 494.726 2.93607 -2.96959 0
M  V30 5178 N 495.163 1.55791 0.238111 0
M  V30 5179 C 496.411 1.77681 0.963001 0
M  V30 5180 C 496.732 0.600674 1.85518 0
M  V30 5181 O 496.002 -0.383182 1.92116 0
M  V30 5182 H 494.582 0.655315 0.358568 0
M  V30 5183 H 497.244 1.93239 0.253945 0
M  V30 5184 H 496.34 2.69177 1.57956 0
M  V30 5185 N 496.642 -0.504142 1.49319 0
M  V30 5186 C 497.59 -1.62689 1.66238 0
M  V30 5187 C 498.584 -1.6095 0.528349 0
M  V30 5188 O 499.79 -1.65496 0.707887 0
M  V30 5189 H 496.165 -0.539247 0.524134 0
M  V30 5190 H 498.136 -1.45571 2.60484 0
M  V30 5191 C 496.885 -3.00841 1.74328 0
M  V30 5192 H 496.208 -3.02884 2.60963 0
M  V30 5193 H 497.648 -3.78945 1.90202 0
M  V30 5194 C 496.107 -3.33355 0.487416 0
M  V30 5195 O 496.637 -3.99819 -0.388294 0
M  V30 5196 N 494.843 -2.88469 0.351306 0
M  V30 5197 H 494.39 -2.34557 1.06492 0
M  V30 5198 H 494.348 -3.10591 -0.487899 0
M  V30 5199 N 498.12 -1.38341 -0.754957 0
M  V30 5200 C 499.345 -1.37882 -1.5493 0
M  V30 5201 C 499.77 0.0296385 -1.88077 0
M  V30 5202 O 499.128 1.01133 -1.50472 0
M  V30 5203 C 499.176 -2.23996 -2.82592 0
M  V30 5204 O 498.28 -1.65612 -3.77686 0
M  V30 5205 H 497.621 -0.470384 -0.468652 0
M  V30 5206 H 500.151 -1.82084 -0.933082 0
M  V30 5207 H 500.161 -2.37806 -3.3153 0
M  V30 5208 H 498.836 -3.26365 -2.57796 0
M  V30 5209 H 497.413 -1.60936 -3.36384 0
M  V30 5210 N 499.598 0.982988 -1.23187 0
M  V30 5211 C 500.847 1.71817 -1.05649 0
M  V30 5212 C 501.16 1.91315 0.407176 0
M  V30 5213 O 502.366 2.62256 0.702436 0
M  V30 5214 C 500.822 3.09188 -1.84203 0
M  V30 5215 C 500.43 2.97586 -3.34882 0
M  V30 5216 C 502.174 3.86684 -1.75146 0
M  V30 5217 C 500.081 4.30173 -4.05839 0
M  V30 5218 H 499.011 0.644258 -0.391724 0
M  V30 5219 H 501.662 1.09659 -1.4713 0
M  V30 5220 H 500.044 3.72087 -1.35527 0
M  V30 5221 H 501.218 2.43793 -3.91026 0
M  V30 5222 H 499.533 2.33567 -3.44725 0
M  V30 5223 H 502.13 4.84836 -2.25473 0
M  V30 5224 H 502.473 4.10136 -0.713737 0
M  V30 5225 H 503.006 3.30482 -2.21419 0
M  V30 5226 H 499.745 4.11918 -5.09906 0
M  V30 5227 H 499.265 4.83841 -3.54482 0
M  V30 5228 H 500.944 4.98873 -4.11989 0
M  V30 5229 N 501.076 1.04316 1.18135 0
M  V30 5230 C 502.324 0.746542 1.87806 0
M  V30 5231 C 502.645 -0.728082 1.80898 0
M  V30 5232 O 501.915 -1.52554 1.22899 0
M  V30 5233 H 500.495 0.273157 0.695265 0
M  V30 5234 H 503.157 1.32044 1.43354 0
M  V30 5235 H 502.253 1.05362 2.93778 0
M  V30 5236 N 502.554 -1.34406 0.822964 0
M  V30 5237 C 503.484 -2.32052 0.259608 0
M  V30 5238 C 504.465 -1.58243 -0.623961 0
M  V30 5239 O 505.65 -1.86224 -0.55083 0
M  V30 5240 C 502.78 -3.42434 -0.579314 0
M  V30 5241 C 501.734 -4.27499 0.20712 0
M  V30 5242 C 501.06 -5.29349 -0.754547 0
M  V30 5243 C 502.36 -5.02758 1.41533 0
M  V30 5244 H 504.054 -2.79418 1.07545 0
M  V30 5245 H 501.6 -1.34338 0.518593 0
M  V30 5246 H 503.553 -4.0976 -0.983612 0
M  V30 5247 H 502.277 -2.93717 -1.4282 0
M  V30 5248 H 500.936 -3.61776 0.592787 0
M  V30 5249 H 500.584 -4.76895 -1.59939 0
M  V30 5250 H 500.284 -5.8714 -0.232561 0
M  V30 5251 H 501.808 -5.99544 -1.1567 0
M  V30 5252 H 503.222 -5.62938 1.08504 0
M  V30 5253 H 501.619 -5.70123 1.87296 0
M  V30 5254 H 502.689 -4.32451 2.1935 0
M  V30 5255 N 504.032 -0.577932 -1.46621 0
M  V30 5256 C 505.257 -0.0652536 -2.07297 0
M  V30 5257 C 505.682 1.22828 -1.4246 0
M  V30 5258 O 505.04 1.74075 -0.506718 0
M  V30 5259 C 505.088 0.0920589 -3.60482 0
M  V30 5260 O 504.192 1.14972 -3.96049 0
M  V30 5261 H 503.533 -0.06065 -0.661224 0
M  V30 5262 H 506.063 -0.799515 -1.88332 0
M  V30 5263 H 506.073 0.299741 -4.06897 0
M  V30 5264 H 504.748 -0.852612 -4.07067 0
M  V30 5265 H 503.325 0.920879 -3.61351 0
M  V30 5266 N 505.51 1.54411 -0.315457 0
M  V30 5267 C 506.74 2.04536 0.291315 0
M  V30 5268 C 507.148 1.19162 1.4696 0
M  V30 5269 O 506.491 0.213199 1.82459 0
M  V30 5270 C 506.553 3.5056 0.796725 0
M  V30 5271 C 506.217 4.5627 -0.258178 0
M  V30 5272 C 507.214 5.08312 -1.09153 0
M  V30 5273 C 504.899 5.00672 -0.404036 0
M  V30 5274 C 506.893 6.03312 -2.05655 0
M  V30 5275 C 504.58 5.95488 -1.37248 0
M  V30 5276 C 505.578 6.46693 -2.19721 0
M  V30 5277 O 505.266 7.39648 -3.14921 0
M  V30 5278 H 504.998 0.672856 0.0651165 0
M  V30 5279 H 507.552 2.00244 -0.457308 0
M  V30 5280 H 505.782 3.52223 1.59612 0
M  V30 5281 H 507.471 3.83804 1.32096 0
M  V30 5282 H 508.237 4.74793 -0.98979 0
M  V30 5283 H 504.116 4.60436 0.22799 0
M  V30 5284 H 507.66 6.43203 -2.70067 0
M  V30 5285 H 503.557 6.28424 -1.47489 0
M  V30 5286 H 504.325 7.57496 -3.10067 0
M  V30 5287 N 506.988 0.0434614 1.5754 0
M  V30 5288 C 507.92 -0.962586 2.08007 0
M  V30 5289 C 508.933 -1.27972 1.00634 0
M  V30 5290 O 510.122 -1.24186 1.28219 0
M  V30 5291 C 507.222 -2.28621 2.50171 0
M  V30 5292 C 506.395 -2.15214 3.80791 0
M  V30 5293 C 505.454 -3.30633 4.09351 0
M  V30 5294 O 504.48 -3.0688 4.79388 0
M  V30 5295 N 505.682 -4.54873 3.60654 0
M  V30 5296 H 508.447 -0.531891 2.94942 0
M  V30 5297 H 506.008 -0.142965 1.61268 0
M  V30 5298 H 508 -3.04689 2.66359 0
M  V30 5299 H 506.57 -2.63283 1.68525 0
M  V30 5300 H 505.79 -1.23785 3.74261 0
M  V30 5301 H 507.078 -2.03475 4.66343 0
M  V30 5302 H 506.476 -4.77063 3.04019 0
M  V30 5303 H 505.033 -5.2806 3.82094 0
M  V30 5304 N 508.466 -1.55915 -0.229846 0
M  V30 5305 C 509.691 -1.8296 -0.976743 0
M  V30 5306 C 510.116 -0.622735 -1.77493 0
M  V30 5307 O 509.474 0.428431 -1.76165 0
M  V30 5308 C 509.522 -3.07916 -1.8767 0
M  V30 5309 O 508.626 -2.86028 -2.97088 0
M  V30 5310 H 507.967 -0.603453 -0.277021 0
M  V30 5311 H 510.497 -2.0312 -0.245669 0
M  V30 5312 H 510.507 -3.37802 -2.2881 0
M  V30 5313 H 509.182 -3.95389 -1.28996 0
M  V30 5314 H 507.759 -2.67355 -2.59954 0
M  V30 5315 N 509.944 0.496216 -1.49584 0
M  V30 5316 C 510.907 1.57952 -1.66084 0
M  V30 5317 C 511.907 1.51729 -0.53244 0
M  V30 5318 O 513.097 1.54796 -0.79899 0
M  V30 5319 C 510.229 2.97604 -1.66268 0
M  V30 5320 H 511.422 1.44649 -2.6271 0
M  V30 5321 H 508.975 0.7208 -1.38687 0
M  V30 5322 H 509.71 3.16378 -0.712432 0
M  V30 5323 H 509.495 3.03528 -2.4822 0
M  V30 5324 H 510.985 3.76301 -1.81073 0
M  V30 5325 N 511.423 1.38739 0.74761 0
M  V30 5326 C 512.669 1.3648 1.50814 0
M  V30 5327 C 513.024 -0.0431982 1.92351 0
M  V30 5328 O 512.317 -1.0071 1.62997 0
M  V30 5329 C 512.511 2.25992 2.7688 0
M  V30 5330 C 512.34 3.75354 2.47668 0
M  V30 5331 C 511.11 4.44348 2.40589 0
M  V30 5332 C 513.308 4.67642 2.14046 0
M  V30 5333 N 511.29 5.79114 2.03715 0
M  V30 5334 C 512.661 5.90965 1.87512 0
M  V30 5335 C 514.716 4.55787 2.00407 0
M  V30 5336 C 513.419 7.03759 1.48714 0
M  V30 5337 C 515.445 5.68491 1.63011 0
M  V30 5338 C 514.807 6.90879 1.37353 0
M  V30 5339 H 510.906 0.554695 0.551214 0
M  V30 5340 H 513.49 1.7418 0.870033 0
M  V30 5341 H 511.661 1.9047 3.3849 0
M  V30 5342 H 513.393 2.14815 3.42982 0
M  V30 5343 H 510.148 3.97634 2.57262 0
M  V30 5344 H 510.572 6.504 1.87906 0
M  V30 5345 H 515.214 3.61712 2.18916 0
M  V30 5346 H 512.932 7.97746 1.28945 0
M  V30 5347 H 516.518 5.613 1.53081 0
M  V30 5348 H 515.398 7.76609 1.08848 0
M  V30 5349 N 512.901 -0.976442 1.23707 0
M  V30 5350 C 513.831 -2.08749 1.04624 0
M  V30 5351 C 514.812 -1.70057 -0.0380956 0
M  V30 5352 O 515.997 -1.93782 0.127308 0
M  V30 5353 C 513.127 -3.41335 0.640902 0
M  V30 5354 C 512.081 -3.93947 1.67302 0
M  V30 5355 C 511.407 -5.22774 1.12301 0
M  V30 5356 C 512.707 -4.22769 3.06697 0
M  V30 5357 H 514.401 -2.24972 1.97555 0
M  V30 5358 H 511.947 -1.08108 0.951247 0
M  V30 5359 H 513.9 -4.18489 0.494434 0
M  V30 5360 H 512.624 -3.24988 -0.324099 0
M  V30 5361 H 511.283 -3.18941 1.80755 0
M  V30 5362 H 510.931 -5.0278 0.148877 0
M  V30 5363 H 510.631 -5.58942 1.81267 0
M  V30 5364 H 512.155 -6.02546 0.988479 0
M  V30 5365 H 513.569 -4.90659 2.96524 0
M  V30 5366 H 511.966 -4.70147 3.72937 0
M  V30 5367 H 513.036 -3.29885 3.55392 0
M  V30 5368 N 514.379 -1.04941 -1.1758 0
M  V30 5369 C 515.607 -0.778294 -1.91703 0
M  V30 5370 C 516.022 0.665697 -1.76675 0
M  V30 5371 O 515.379 1.45456 -1.10222 0
M  V30 5372 C 515.43 -1.14628 -3.42845 0
M  V30 5373 O 515.151 -2.53359 -3.57409 0
M  V30 5374 C 516.652 -0.900931 -4.34049 0
M  V30 5375 H 513.872 -0.283167 -0.608323 0
M  V30 5376 H 516.416 -1.39942 -1.49119 0
M  V30 5377 H 514.571 -0.569953 -3.83184 0
M  V30 5378 H 514.985 -2.67709 -4.51035 0
M  V30 5379 H 516.459 -1.20817 -5.38616 0
M  V30 5380 H 516.936 0.163966 -4.38894 0
M  V30 5381 H 517.542 -1.46097 -3.99419 0
M  V30 5382 N 515.857 1.33968 -0.830081 0
M  V30 5383 C 517.103 1.98357 -0.422191 0
M  V30 5384 C 517.436 1.65633 1.01387 0
M  V30 5385 O 516.711 0.931648 1.70735 0
M  V30 5386 C 516.994 3.54492 -0.633043 0
M  V30 5387 C 516.847 3.96934 -2.11574 0
M  V30 5388 C 518.166 4.40039 -0.0735584 0
M  V30 5389 H 515.285 0.720544 -0.154871 0
M  V30 5390 H 517.927 1.58749 -1.04397 0
M  V30 5391 H 516.077 3.88361 -0.103775 0
M  V30 5392 H 517.749 3.73363 -2.7092 0
M  V30 5393 H 515.992 3.46984 -2.60354 0
M  V30 5394 H 516.663 5.05651 -2.21406 0
M  V30 5395 H 519.139 4.12764 -0.52585 0
M  V30 5396 H 518.015 5.48327 -0.250841 0
M  V30 5397 H 518.276 4.30124 1.02202 0
M  V30 5398 N 517.335 0.585699 1.46312 0
M  V30 5399 C 518.265 -0.133556 2.33118 0
M  V30 5400 C 519.246 -0.880707 1.45525 0
M  V30 5401 O 520.431 -0.855579 1.74337 0
M  V30 5402 C 517.561 -1.14585 3.27853 0
M  V30 5403 C 516.515 -0.513341 4.2491 0
M  V30 5404 C 515.841 -1.63231 5.09175 0
M  V30 5405 C 517.141 0.551413 5.19381 0
M  V30 5406 H 518.835 0.59121 2.93505 0
M  V30 5407 H 516.381 0.285761 1.41136 0
M  V30 5408 H 518.334 -1.65741 3.87438 0
M  V30 5409 H 517.058 -1.90093 2.65579 0
M  V30 5410 H 515.717 -0.0228349 3.66593 0
M  V30 5411 H 515.365 -2.37713 4.43285 0
M  V30 5412 H 515.065 -1.21473 5.74907 0
M  V30 5413 H 516.589 -2.14658 5.71624 0
M  V30 5414 H 518.003 0.124804 5.73164 0
M  V30 5415 H 516.4 0.889486 5.93471 0
M  V30 5416 H 517.47 1.43655 4.63132 0
M  V30 5417 N 518.813 -1.54241 0.323641 0
M  V30 5418 C 520.224 -1.85975 -0.164405 0
M  V30 5419 C 520.575 -1.24529 -1.51615 0
M  V30 5420 O 519.7 -0.551351 -2.09258 0
M  V30 5421 C 520.295 -3.37424 -0.305091 0
M  V30 5422 C 518.854 -3.69107 -0.737358 0
M  V30 5423 C 518.001 -2.76942 0.140884 0
M  V30 5424 H 520.952 -1.49088 0.543922 0
M  V30 5425 H 520.973 -3.63147 -1.13598 0
M  V30 5426 H 520.485 -3.82116 0.678876 0
M  V30 5427 H 518.586 -3.29947 -1.73107 0
M  V30 5428 H 518.699 -4.76035 -0.541053 0
M  V30 5429 H 517.063 -2.51795 -0.383572 0
M  V30 5430 H 517.846 -3.24461 1.12162 0
M  V30 5431 N 520.291 -0.0518155 -1.57515 0
M  V30 5432 C 521.201 0.937539 -2.15052 0
M  V30 5433 C 522.217 1.34121 -1.10849 0
M  V30 5434 O 523.393 1.418 -1.4302 0
M  V30 5435 C 520.458 2.19379 -2.68466 0
M  V30 5436 C 519.519 1.84841 -3.87469 0
M  V30 5437 C 518.752 3.04477 -4.38326 0
M  V30 5438 O 518.975 4.17868 -3.88256 0
M  V30 5439 O 517.909 2.85453 -5.29906 0
M  V30 5440 H 521.735 0.478201 -2.99912 0
M  V30 5441 H 519.32 0.17012 -1.48428 0
M  V30 5442 H 521.202 2.93084 -3.02787 0
M  V30 5443 H 519.877 2.64449 -1.86677 0
M  V30 5444 H 518.784 1.08449 -3.58036 0
M  V30 5445 H 520.117 1.44569 -4.7049 0
M  V30 5446 N 521.769 1.56035 0.221574 0
M  V30 5447 C 522.679 1.95581 1.29558 0
M  V30 5448 C 523.695 0.859639 1.51282 0
M  V30 5449 O 524.871 1.16321 1.64413 0
M  V30 5450 C 521.936 2.26447 2.62531 0
M  V30 5451 C 520.997 3.49632 2.4911 0
M  V30 5452 C 520.23 3.79017 3.75742 0
M  V30 5453 O 520.453 3.10077 4.78757 0
M  V30 5454 O 519.387 4.72507 3.72855 0
M  V30 5455 H 523.213 2.8711 0.990035 0
M  V30 5456 H 520.798 1.43244 0.424434 0
M  V30 5457 H 522.68 2.47494 3.41064 0
M  V30 5458 H 521.355 1.38092 2.92766 0
M  V30 5459 H 520.262 3.33864 1.68777 0
M  V30 5460 H 521.595 4.3837 2.23814 0
M  V30 5461 N 523.247 -0.488276 1.49845 0
M  V30 5462 C 524.524 -1.24959 1.50481 0
M  V30 5463 C 524.904 -2.09735 0.239698 0
M  V30 5464 O 524.252 -2.14865 -0.777524 0
M  V30 5465 C 524.462 -2.0954 2.79095 0
M  V30 5466 C 525.81 -2.68305 3.29086 0
M  V30 5467 O 526.834 -2.19797 2.80299 0
M  V30 5468 O 525.693 -3.56643 4.14087 0
M  V30 5469 H 522.787 -0.566133 0.602845 0
M  V30 5470 H 525.333 -0.501504 1.6212 0
M  V30 5471 H 524.105 -1.46958 3.62656 0
M  V30 5472 H 523.728 -2.91517 2.70377 0
M  V30 5473 N 524.725 -1.39134 -0.740242 0
M  V30 5474 C 526.136 -1.32208 -1.31825 0
M  V30 5475 C 526.487 0.0159919 -1.96193 0
M  V30 5476 O 525.612 0.918111 -1.95958 0
M  V30 5477 C 526.207 -2.39436 -2.39699 0
M  V30 5478 C 524.766 -2.36048 -2.93187 0
M  V30 5479 C 523.913 -2.21599 -1.66701 0
M  V30 5480 H 526.864 -1.49298 -0.538133 0
M  V30 5481 H 526.885 -2.05922 -3.19963 0
M  V30 5482 H 526.397 -3.36811 -1.92821 0
M  V30 5483 H 524.498 -1.42295 -3.44359 0
M  V30 5484 H 524.611 -3.30704 -3.46658 0
M  V30 5485 H 522.975 -1.68681 -1.90837 0
M  V30 5486 H 523.758 -3.20936 -1.21882 0
M  V30 5487 N 526.204 0.969867 -1.24223 0
M  V30 5488 C 527.432 1.74756 -1.10761 0
M  V30 5489 C 527.847 1.85713 0.340041 0
M  V30 5490 O 527.204 1.34389 1.23474 0
M  V30 5491 C 527.255 3.16915 -1.73917 0
M  V30 5492 O 526.976 3.06511 -3.13021 0
M  V30 5493 C 528.477 4.11032 -1.66036 0
M  V30 5494 H 525.697 0.548092 -0.387087 0
M  V30 5495 H 528.241 1.2178 -1.64286 0
M  V30 5496 H 526.396 3.66884 -1.244 0
M  V30 5497 H 526.81 3.96079 -3.43834 0
M  V30 5498 H 528.284 5.08446 -2.14911 0
M  V30 5499 H 528.761 4.34785 -0.621159 0
M  V30 5500 H 529.367 3.66972 -2.14969 0
M  V30 5501 N 527.682 1.05563 1.17022 0
M  V30 5502 C 528.928 0.778872 1.87897 0
M  V30 5503 C 529.283 -0.686839 1.79723 0
M  V30 5504 O 528.576 -1.49612 1.19694 0
M  V30 5505 C 528.77 1.19849 3.36706 0
M  V30 5506 C 528.599 2.70345 3.59366 0
M  V30 5507 C 527.369 3.37707 3.75875 0
M  V30 5508 C 529.567 3.68564 3.58699 0
M  V30 5509 N 527.549 4.7703 3.86414 0
M  V30 5510 C 528.92 4.93634 3.75134 0
M  V30 5511 C 530.975 3.6198 3.4187 0
M  V30 5512 C 529.678 6.12907 3.76481 0
M  V30 5513 C 531.704 4.80697 3.44507 0
M  V30 5514 C 531.066 6.04592 3.61453 0
M  V30 5515 H 527.165 0.337297 0.705517 0
M  V30 5516 H 529.749 1.34832 1.40458 0
M  V30 5517 H 527.92 0.656958 3.82804 0
M  V30 5518 H 529.652 0.871172 3.95212 0
M  V30 5519 H 526.407 2.88108 3.75887 0
M  V30 5520 H 526.831 5.49483 3.95471 0
M  V30 5521 H 531.473 2.67154 3.27702 0
M  V30 5522 H 529.191 7.08073 3.89432 0
M  V30 5523 H 532.777 4.77259 3.32738 0
M  V30 5524 H 531.657 6.94916 3.63403 0
M  V30 5525 N 529.16 -1.33526 0.837174 0
M  V30 5526 C 530.388 -2.02047 0.445494 0
M  V30 5527 C 530.803 -1.62995 -0.952788 0
M  V30 5528 O 530.16 -0.842447 -1.61892 0
M  V30 5529 C 530.211 -3.57221 0.554577 0
M  V30 5530 O 529.932 -3.94863 1.89776 0
M  V30 5531 C 531.433 -4.43012 0.159634 0
M  V30 5532 H 528.653 -0.647221 0.177048 0
M  V30 5533 H 531.197 -1.70492 1.12928 0
M  V30 5534 H 529.352 -3.87315 -0.0812781 0
M  V30 5535 H 529.766 -4.89569 1.88208 0
M  V30 5536 H 531.24 -5.51253 0.28701 0
M  V30 5537 H 531.717 -4.29916 -0.898289 0
M  V30 5538 H 532.323 -4.18274 0.769855 0
M  V30 5539 N 530.638 -0.59345 -1.46 0
M  V30 5540 C 531.601 0.123538 -2.28867 0
M  V30 5541 C 532.601 0.808628 -1.38989 0
M  V30 5542 O 533.791 0.658945 -1.61256 0
M  V30 5543 C 530.923 1.1847 -3.19653 0
M  V30 5544 H 532.116 -0.604843 -2.93737 0
M  V30 5545 H 529.669 -0.351875 -1.52288 0
M  V30 5546 H 530.404 1.94431 -2.59552 0
M  V30 5547 H 530.189 0.69783 -3.8584 0
M  V30 5548 H 531.679 1.68726 -3.81997 0
M  V30 5549 N 532.116 1.54067 -0.331816 0
M  V30 5550 C 533.079 2.23275 0.517768 0
M  V30 5551 C 534.079 1.22897 1.03697 0
M  V30 5552 O 535.269 1.47419 0.928084 0
M  V30 5553 C 532.401 2.94326 1.72004 0
M  V30 5554 H 533.594 2.99773 -0.0873507 0
M  V30 5555 H 531.147 1.56079 -0.0830042 0
M  V30 5556 H 531.882 2.21986 2.36417 0
M  V30 5557 H 531.667 3.67941 1.35507 0
M  V30 5558 H 533.157 3.47031 2.32291 0
M  V30 5559 N 533.594 0.0601682 1.57485 0
M  V30 5560 C 534.557 -0.896373 2.10945 0
M  V30 5561 C 535.557 -1.23402 1.03095 0
M  V30 5562 O 536.747 -1.16921 1.29132 0
M  V30 5563 C 533.879 -2.20346 2.60116 0
M  V30 5564 H 535.072 -0.432778 2.96761 0
M  V30 5565 H 532.625 -0.188372 1.55161 0
M  V30 5566 H 533.36 -2.71268 1.7772 0
M  V30 5567 H 533.145 -1.9714 3.38937 0
M  V30 5568 H 534.635 -2.88846 3.01592 0
M  V30 5569 N 535.072 -1.5615 -0.213296 0
M  V30 5570 C 536.483 -1.69645 -0.779582 0
M  V30 5571 C 536.834 -0.663615 -1.84636 0
M  V30 5572 O 535.959 0.183633 -2.15619 0
M  V30 5573 C 536.554 -3.07567 -1.42084 0
M  V30 5574 C 535.113 -3.22889 -1.93442 0
M  V30 5575 C 534.26 -2.65581 -0.797612 0
M  V30 5576 H 537.211 -1.58696 0.0114951 0
M  V30 5577 H 537.232 -3.03884 -2.28986 0
M  V30 5578 H 536.744 -3.82716 -0.644187 0
M  V30 5579 H 534.845 -2.52623 -2.73884 0
M  V30 5580 H 534.958 -4.30197 -2.10872 0
M  V30 5581 H 533.322 -2.24278 -1.20712 0
M  V30 5582 H 534.105 -3.43284 -0.033494 0
M  V30 5583 N 536.55 0.480323 -1.50102 0
M  V30 5584 C 537.46 1.60547 -1.71061 0
M  V30 5585 C 538.476 1.63564 -0.593529 0
M  V30 5586 O 539.652 1.81604 -0.870751 0
M  V30 5587 C 536.717 2.96814 -1.79171 0
M  V30 5588 C 535.778 3.04259 -3.02861 0
M  V30 5589 C 535.011 4.34027 -3.10574 0
M  V30 5590 O 535.234 5.24009 -2.25323 0
M  V30 5591 O 534.168 4.46873 -4.03223 0
M  V30 5592 H 537.994 1.45788 -2.6642 0
M  V30 5593 H 535.579 0.658838 -1.34088 0
M  V30 5594 H 537.461 3.77765 -1.86738 0
M  V30 5595 H 536.136 3.11791 -0.869947 0
M  V30 5596 H 535.043 2.22419 -3.008 0
M  V30 5597 H 536.376 2.94216 -3.94586 0
M  V30 5598 N 538.028 1.39524 0.732853 0
M  V30 5599 C 538.991 1.38189 1.82857 0
M  V30 5600 C 539.991 0.278624 1.58368 0
M  V30 5601 O 541.181 0.536639 1.65728 0
M  V30 5602 C 538.313 1.15661 3.2068 0
M  V30 5603 H 539.506 2.35692 1.85444 0
M  V30 5604 H 537.059 1.2512 0.936728 0
M  V30 5605 H 537.794 0.188482 3.23752 0
M  V30 5606 H 537.579 1.95559 3.39852 0
M  V30 5607 H 539.069 1.17472 4.00737 0
M  V30 5608 N 539.506 -0.963266 1.24736 0
M  V30 5609 C 540.922 -1.23273 1.01371 0
M  V30 5610 C 541.122 -1.99618 -0.274776 0
M  V30 5611 O 540.178 -2.32293 -0.989769 0
M  V30 5612 C 541.491 -2.01554 2.23152 0
M  V30 5613 C 543.039 -2.14629 2.27823 0
M  V30 5614 C 543.514 -2.96307 3.49237 0
M  V30 5615 N 545.005 -3.03887 3.49581 0
M  V30 5616 C 545.74 -3.67456 4.40186 0
M  V30 5617 N 545.236 -4.32706 5.41052 0
M  V30 5618 N 547.029 -3.64511 4.27888 0
M  V30 5619 H 539.18 -0.452294 2.07528 0
M  V30 5620 H 541.443 -0.262521 0.910926 0
M  V30 5621 H 541.149 -1.52847 3.1675 0
M  V30 5622 H 541.023 -3.02278 2.25628 0
M  V30 5623 H 543.41 -2.62537 1.34753 0
M  V30 5624 H 543.491 -1.13238 2.2937 0
M  V30 5625 H 543.135 -2.49091 4.42624 0
M  V30 5626 H 543.065 -3.97905 3.44933 0
M  V30 5627 H 545.556 -2.57477 2.76611 0
M  V30 5628 H 545.869 -4.79042 6.06415 0
M  V30 5629 H 544.214 -4.31361 5.44934 0
M  V30 5630 H 547.405 -3.12715 3.4832 0
M  V30 5631 H 547.578 -4.13768 4.98698 0
M  V30 5632 N 540.985 -1.06182 -1.16461 0
M  V30 5633 C 542.215 -0.797425 -1.9059 0
M  V30 5634 C 542.623 0.651845 -1.77616 0
M  V30 5635 O 541.966 1.45788 -1.11766 0
M  V30 5636 C 542.028 -1.11128 -3.41893 0
M  V30 5637 C 541.692 -2.55874 -3.78652 0
M  V30 5638 C 542.689 -3.54104 -3.80665 0
M  V30 5639 C 540.374 -2.91144 -4.09317 0
M  V30 5640 C 542.368 -4.85645 -4.12829 0
M  V30 5641 C 540.055 -4.22885 -4.41148 0
M  V30 5642 C 541.053 -5.19945 -4.42883 0
M  V30 5643 O 540.741 -6.49322 -4.73959 0
M  V30 5644 H 540.473 -0.288709 -0.611247 0
M  V30 5645 H 543.027 -1.41841 -1.4856 0
M  V30 5646 H 541.257 -0.433217 -3.84266 0
M  V30 5647 H 542.946 -0.831306 -3.97296 0
M  V30 5648 H 543.712 -3.28197 -3.57088 0
M  V30 5649 H 539.591 -2.16252 -4.07131 0
M  V30 5650 H 543.135 -5.61398 -4.14099 0
M  V30 5651 H 539.032 -4.48551 -4.6419 0
M  V30 5652 H 539.8 -6.54294 -4.91774 0
M  V30 5653 N 542.463 1.3308 -0.844243 0
M  V30 5654 C 543.691 2.01808 -0.456203 0
M  V30 5655 C 544.106 1.63498 0.944131 0
M  V30 5656 O 543.463 0.85102 1.61443 0
M  V30 5657 C 543.514 3.56922 -0.573513 0
M  V30 5658 O 543.235 3.93851 -1.91868 0
M  V30 5659 C 544.736 4.42922 -0.183125 0
M  V30 5660 H 541.956 0.646273 -0.180477 0
M  V30 5661 H 544.5 1.69891 -1.1383 0
M  V30 5662 H 542.655 3.87352 0.0607367 0
M  V30 5663 H 543.069 4.88564 -1.90802 0
M  V30 5664 H 544.543 5.51093 -0.316241 0
M  V30 5665 H 545.02 4.30386 0.875477 0
M  V30 5666 H 545.626 4.1786 -0.792027 0
M  V30 5667 N 543.941 0.601185 1.45683 0
M  V30 5668 C 545.218 0.0261659 1.95582 0
M  V30 5669 C 545.598 -1.4399 1.5437 0
M  V30 5670 O 544.946 -2.13919 0.80318 0
M  V30 5671 C 545.156 0.217557 3.48321 0
M  V30 5672 C 546.504 0.0950076 4.24494 0
M  V30 5673 O 547.528 0.147345 3.55895 0
M  V30 5674 O 546.387 -0.025261 5.46494 0
M  V30 5675 H 543.481 -0.0393688 0.826062 0
M  V30 5676 H 546.027 0.670798 1.55879 0
M  V30 5677 H 544.799 1.23601 3.71266 0
M  V30 5678 H 544.422 -0.46264 3.94899 0
M  V30 5679 N 545.419 -1.53889 0.339982 0
M  V30 5680 C 546.668 -2.00035 -0.258604 0
M  V30 5681 C 546.981 -1.23179 -1.51942 0
M  V30 5682 O 548.187 -1.59784 -2.19503 0
M  V30 5683 C 546.643 -3.56249 -0.511359 0
M  V30 5684 C 546.251 -4.41957 0.733349 0
M  V30 5685 C 547.995 -4.1082 -1.069 0
M  V30 5686 C 545.902 -5.89673 0.451591 0
M  V30 5687 H 544.832 -0.747284 -0.10041 0
M  V30 5688 H 547.483 -1.77776 0.454758 0
M  V30 5689 H 545.865 -3.7456 -1.28533 0
M  V30 5690 H 547.039 -4.35421 1.50815 0
M  V30 5691 H 545.354 -3.9836 1.21237 0
M  V30 5692 H 547.951 -5.18789 -1.2947 0
M  V30 5693 H 548.294 -3.63817 -2.02343 0
M  V30 5694 H 548.827 -3.96205 -0.355817 0
M  V30 5695 H 545.566 -6.40903 1.37565 0
M  V30 5696 H 545.086 -5.99122 -0.285193 0
M  V30 5697 H 546.765 -6.46965 0.0675067 0
M  V30 5698 N 546.897 -0.0685191 -1.57451 0
M  V30 5699 C 548.146 0.600898 -1.92541 0
M  V30 5700 C 548.459 1.70967 -0.950239 0
M  V30 5701 O 549.665 2.43844 -1.19384 0
M  V30 5702 C 548.121 1.12019 -3.42023 0
M  V30 5703 C 547.729 0.0426028 -4.4798 0
M  V30 5704 C 549.473 1.76386 -3.86119 0
M  V30 5705 C 547.38 0.575759 -5.88591 0
M  V30 5706 H 546.31 0.228225 -0.71863 0
M  V30 5707 H 548.961 -0.140223 -1.82963 0
M  V30 5708 H 547.343 1.91418 -3.46663 0
M  V30 5709 H 548.517 -0.73182 -4.54952 0
M  V30 5710 H 546.832 -0.504642 -4.13331 0
M  V30 5711 H 549.429 2.17302 -4.88553 0
M  V30 5712 H 549.772 2.62255 -3.23308 0
M  V30 5713 H 550.305 1.03615 -3.84069 0
M  V30 5714 H 547.044 -0.245691 -6.55039 0
M  V30 5715 H 546.564 1.31778 -5.85145 0
M  V30 5716 H 548.243 1.0532 -6.3837 0
M  V30 5717 N 548.375 1.56261 0.205012 0
M  V30 5718 C 549.305 1.96779 1.257 0
M  V30 5719 C 550.286 0.838309 1.48008 0
M  V30 5720 O 551.471 1.10189 1.59913 0
M  V30 5721 C 548.601 2.29876 2.60335 0
M  V30 5722 C 547.555 3.45469 2.52656 0
M  V30 5723 C 546.881 3.64215 3.91473 0
M  V30 5724 C 548.181 4.79954 2.06014 0
M  V30 5725 H 549.875 2.84904 0.920338 0
M  V30 5726 H 547.421 1.37072 0.441277 0
M  V30 5727 H 549.374 2.56814 3.34102 0
M  V30 5728 H 548.098 1.38622 2.95722 0
M  V30 5729 H 546.757 3.18605 1.81345 0
M  V30 5730 H 546.405 2.70309 4.24196 0
M  V30 5731 H 546.105 4.41973 3.87213 0
M  V30 5732 H 547.629 3.93519 4.66878 0
M  V30 5733 H 549.043 5.05989 2.69533 0
M  V30 5734 H 547.44 5.61111 2.12777 0
M  V30 5735 H 548.51 4.74201 1.01297 0
M  V30 5736 N 549.853 -0.472356 1.50355 0
M  V30 5737 C 551.083 -1.24603 1.64796 0
M  V30 5738 C 551.491 -1.86297 0.330156 0
M  V30 5739 O 550.834 -1.69934 -0.697728 0
M  V30 5740 C 550.896 -2.39578 2.68035 0
M  V30 5741 C 550.56 -1.98531 4.11624 0
M  V30 5742 C 551.557 -1.50856 4.97532 0
M  V30 5743 C 549.242 -2.0729 4.57532 0
M  V30 5744 C 551.236 -1.12481 6.27397 0
M  V30 5745 C 548.923 -1.68527 5.87403 0
M  V30 5746 C 549.921 -1.212 6.7216 0
M  V30 5747 O 549.609 -0.829728 7.99607 0
M  V30 5748 H 549.341 -0.383035 0.55701 0
M  V30 5749 H 551.895 -0.570392 1.97321 0
M  V30 5750 H 550.125 -3.10309 2.30749 0
M  V30 5751 H 551.814 -3.01544 2.71709 0
M  V30 5752 H 552.58 -1.43511 4.63281 0
M  V30 5753 H 548.459 -2.43076 3.91708 0
M  V30 5754 H 552.003 -0.754698 6.93506 0
M  V30 5755 H 547.9 -1.7553 6.21176 0
M  V30 5756 H 548.668 -0.958689 8.12866 0
M  V30 5757 N 551.331 -1.39911 -0.725443 0
M  V30 5758 C 552.294 -1.39156 -1.82121 0
M  V30 5759 C 553.294 -0.287018 -1.58218 0
M  V30 5760 O 554.484 -0.545421 -1.65441 0
M  V30 5761 C 551.616 -1.1736 -3.20062 0
M  V30 5762 H 552.809 -2.36672 -1.84191 0
M  V30 5763 H 550.362 -1.25615 -0.930079 0
M  V30 5764 H 551.097 -0.205648 -3.23647 0
M  V30 5765 H 550.882 -1.97358 -3.3881 0
M  V30 5766 H 552.372 -1.19596 -4.00108 0
M  V30 5767 N 552.809 0.956637 -1.25245 0
M  V30 5768 C 554.034 1.74104 -1.12706 0
M  V30 5769 C 554.459 1.85436 0.315429 0
M  V30 5770 O 553.817 1.33334 1.22848 0
M  V30 5771 C 553.865 3.1338 -1.78396 0
M  V30 5772 O 552.969 3.98485 -1.06224 0
M  V30 5773 H 552.31 0.53476 -0.393609 0
M  V30 5774 H 554.84 1.19924 -1.65769 0
M  V30 5775 H 554.85 3.6385 -1.846 0
M  V30 5776 H 553.525 3.04448 -2.83345 0
M  V30 5777 H 552.102 3.56952 -1.07886 0
M  V30 5778 N 554.287 1.06798 1.15896 0
M  V30 5779 C 555.535 0.786211 1.8618 0
M  V30 5780 C 555.856 -0.689547 1.82401 0
M  V30 5781 O 555.126 -1.49913 1.26107 0
M  V30 5782 H 553.706 0.287843 0.689315 0
M  V30 5783 H 556.368 1.35055 1.40521 0
M  V30 5784 H 555.464 1.1157 2.91477 0
M  V30 5785 N 555.766 -1.3263 0.851289 0
M  V30 5786 C 556.991 -2.02097 0.466006 0
M  V30 5787 C 557.416 -1.63574 -0.928709 0
M  V30 5788 O 556.774 -0.834665 -1.60944 0
M  V30 5789 C 556.822 -3.55425 0.608737 0
M  V30 5790 O 555.926 -4.10827 -0.359878 0
M  V30 5791 H 555.267 -0.636911 0.187724 0
M  V30 5792 H 557.797 -1.69253 1.14955 0
M  V30 5793 H 557.807 -4.04986 0.495006 0
M  V30 5794 H 556.482 -3.82806 1.62581 0
M  V30 5795 H 555.059 -3.72349 -0.202666 0
M  V30 5796 N 557.244 -0.608902 -1.45362 0
M  V30 5797 C 558.174 0.0964526 -2.33301 0
M  V30 5798 C 559.155 0.857444 -1.46908 0
M  V30 5799 O 560.34 0.827735 -1.75676 0
M  V30 5800 C 557.47 1.09354 -3.29635 0
M  V30 5801 C 556.424 0.445676 -4.25673 0
M  V30 5802 C 555.75 1.5511 -5.11708 0
M  V30 5803 C 557.05 -0.633972 -5.18438 0
M  V30 5804 H 558.744 -0.637829 -2.92527 0
M  V30 5805 H 556.29 -0.308178 -1.40664 0
M  V30 5806 H 558.243 1.59556 -3.90025 0
M  V30 5807 H 556.967 1.85843 -2.6857 0
M  V30 5808 H 555.626 -0.0354897 -3.66583 0
M  V30 5809 H 555.274 2.30631 -4.4701 0
M  V30 5810 H 554.974 1.12311 -5.76767 0
M  V30 5811 H 556.498 2.05537 -5.74967 0
M  V30 5812 H 557.912 -0.215974 -5.72893 0
M  V30 5813 H 556.309 -0.983789 -5.91981 0
M  V30 5814 H 557.379 -1.51005 -4.60788 0
M  V30 5815 N 558.722 1.53707 -0.348139 0
M  V30 5816 C 559.685 2.23812 0.494058 0
M  V30 5817 C 560.685 1.23989 1.02388 0
M  V30 5818 O 561.875 1.48395 0.912396 0
M  V30 5819 C 559.007 2.96133 1.68872 0
M  V30 5820 H 560.2 2.99663 -0.119141 0
M  V30 5821 H 557.753 1.55983 -0.0995539 0
M  V30 5822 H 558.488 2.24481 2.34049 0
M  V30 5823 H 558.273 3.69357 1.31596 0
M  V30 5824 H 559.763 3.49475 2.28597 0
M  V30 5825 N 560.2 0.0768682 1.57412 0
M  V30 5826 C 561.13 -0.886026 2.16037 0
M  V30 5827 C 562.111 -1.30691 1.08876 0
M  V30 5828 O 563.296 -1.37705 1.36934 0
M  V30 5829 C 560.426 -2.1518 2.72608 0
M  V30 5830 C 559.38 -1.87015 3.8498 0
M  V30 5831 C 558.706 -3.20266 4.28175 0
M  V30 5832 C 560.006 -1.17143 5.08994 0
M  V30 5833 H 561.7 -0.397642 2.96748 0
M  V30 5834 H 559.246 -0.189823 1.42743 0
M  V30 5835 H 561.199 -2.82962 3.12266 0
M  V30 5836 H 559.923 -2.66269 1.89125 0
M  V30 5837 H 558.582 -1.21636 3.45833 0
M  V30 5838 H 558.23 -3.69207 3.41607 0
M  V30 5839 H 557.93 -3.0221 5.03927 0
M  V30 5840 H 559.454 -3.89237 4.70454 0
M  V30 5841 H 560.868 -1.75003 5.45937 0
M  V30 5842 H 559.265 -1.09328 5.90057 0
M  V30 5843 H 560.335 -0.151295 4.84664 0
M  V30 5844 N 561.678 -1.56367 -0.196722 0
M  V30 5845 C 562.641 -1.93561 -1.22746 0
M  V30 5846 C 563.641 -0.816566 -1.38524 0
M  V30 5847 O 564.831 -1.084 -1.36363 0
M  V30 5848 C 561.963 -2.20823 -2.59712 0
M  V30 5849 H 563.156 -2.85774 -0.909586 0
M  V30 5850 H 560.709 -1.50032 -0.438174 0
M  V30 5851 H 561.444 -1.31243 -2.96557 0
M  V30 5852 H 561.229 -3.02368 -2.49632 0
M  V30 5853 H 562.719 -2.50608 -3.34044 0
M  V30 5854 N 563.156 0.464375 -1.50603 0
M  V30 5855 C 564.402 1.21776 -1.62168 0
M  V30 5856 C 564.735 1.91476 -0.324154 0
M  V30 5857 O 564.01 1.8242 0.674782 0
M  V30 5858 C 564.293 2.25614 -2.80661 0
M  V30 5859 C 564.146 1.60175 -4.20314 0
M  V30 5860 C 565.465 3.26862 -2.94702 0
M  V30 5861 H 562.584 0.44137 -0.590222 0
M  V30 5862 H 565.226 0.510623 -1.8301 0
M  V30 5863 H 563.376 2.85923 -2.63021 0
M  V30 5864 H 565.048 1.03411 -4.4956 0
M  V30 5865 H 563.291 0.904697 -4.24261 0
M  V30 5866 H 563.962 2.35665 -4.99165 0
M  V30 5867 H 566.438 2.76582 -3.10872 0
M  V30 5868 H 565.314 3.96839 -3.79223 0
M  V30 5869 H 565.575 3.91382 -2.05603 0
M  V30 5870 N 564.634 1.40294 0.718013 0
M  V30 5871 C 565.564 1.43118 1.84498 0
M  V30 5872 C 566.545 0.292403 1.67568 0
M  V30 5873 O 567.73 0.500675 1.87635 0
M  V30 5874 C 564.86 1.29065 3.22427 0
M  V30 5875 C 563.814 2.40521 3.54025 0
M  V30 5876 C 563.14 2.11546 4.91073 0
M  V30 5877 C 564.44 3.82859 3.55269 0
M  V30 5878 H 566.134 2.37432 1.82391 0
M  V30 5879 H 563.68 1.14283 0.87609 0
M  V30 5880 H 565.633 1.29658 4.00957 0
M  V30 5881 H 564.357 0.312271 3.25104 0
M  V30 5882 H 563.016 2.39173 2.77834 0
M  V30 5883 H 562.664 1.12104 4.90348 0
M  V30 5884 H 562.364 2.86216 5.1318 0
M  V30 5885 H 563.888 2.13817 5.71939 0
M  V30 5886 H 565.302 3.86044 4.23843 0
M  V30 5887 H 563.699 4.57029 3.88902 0
M  V30 5888 H 564.769 4.12617 2.54706 0
M  V30 5889 N 566.112 -0.949982 1.2575 0
M  V30 5890 C 567.042 -2.06483 1.09028 0
M  V30 5891 C 568.023 -1.701 -0.00201532 0
M  V30 5892 O 569.208 -1.93469 0.168383 0
M  V30 5893 C 566.338 -3.39899 0.71316 0
M  V30 5894 C 565.292 -3.90309 1.75621 0
M  V30 5895 C 564.618 -5.20274 1.23365 0
M  V30 5896 C 565.918 -4.16169 3.15596 0
M  V30 5897 H 567.612 -2.20731 2.02283 0
M  V30 5898 H 565.158 -1.06066 0.973964 0
M  V30 5899 H 567.111 -4.17346 0.58309 0
M  V30 5900 H 565.835 -3.25602 -0.255091 0
M  V30 5901 H 564.494 -3.15035 1.8748 0
M  V30 5902 H 564.142 -5.02351 0.255491 0
M  V30 5903 H 563.842 -5.54971 1.93082 0
M  V30 5904 H 565.366 -6.00314 1.11607 0
M  V30 5905 H 566.78 -4.84259 3.06864 0
M  V30 5906 H 565.177 -4.62131 3.82825 0
M  V30 5907 H 566.247 -3.22273 3.6231 0
M  V30 5908 N 567.59 -1.07411 -1.15328 0
M  V30 5909 C 568.52 -0.716472 -2.22236 0
M  V30 5910 C 569.501 0.296373 -1.67498 0
M  V30 5911 O 570.686 0.168989 -1.93463 0
M  V30 5912 C 567.816 -0.114142 -3.47112 0
M  V30 5913 C 566.77 -1.05421 -4.14814 0
M  V30 5914 C 566.096 -0.314604 -5.33774 0
M  V30 5915 C 567.396 -2.38808 -4.64508 0
M  V30 5916 H 569.09 -1.61029 -2.52408 0
M  V30 5917 H 566.636 -0.775702 -1.21321 0
M  V30 5918 H 568.589 0.148001 -4.2114 0
M  V30 5919 H 567.313 0.814755 -3.16274 0
M  V30 5920 H 565.972 -1.30128 -3.42728 0
M  V30 5921 H 565.62 0.617772 -4.99192 0
M  V30 5922 H 565.32 -0.941209 -5.80013 0
M  V30 5923 H 566.844 -0.0602747 -6.1057 0
M  V30 5924 H 568.258 -2.18424 -5.3006 0
M  V30 5925 H 566.655 -2.97069 -5.21412 0
M  V30 5926 H 567.725 -3.01067 -3.80114 0
M  V30 5927 N 569.068 1.32177 -0.85831 0
M  V30 5928 C 569.998 2.31282 -0.321041 0
M  V30 5929 C 570.979 1.59841 0.581786 0
M  V30 5930 O 572.164 1.87619 0.501262 0
M  V30 5931 C 569.294 3.4385 0.48832 0
M  V30 5932 C 568.248 4.26799 -0.320391 0
M  V30 5933 C 567.574 5.31164 0.613934 0
M  V30 5934 C 568.874 4.98829 -1.54813 0
M  V30 5935 H 570.568 2.76469 -1.14915 0
M  V30 5936 H 568.114 1.32916 -0.554028 0
M  V30 5937 H 570.067 4.12224 0.874626 0
M  V30 5938 H 568.791 2.97401 1.34983 0
M  V30 5939 H 567.45 3.60077 -0.688497 0
M  V30 5940 H 567.098 4.80967 1.47239 0
M  V30 5941 H 566.798 5.8755 0.0768097 0
M  V30 5942 H 568.322 6.024 0.997336 0
M  V30 5943 H 569.736 5.59864 -1.23392 0
M  V30 5944 H 568.133 5.64957 -2.02346 0
M  V30 5945 H 569.203 4.26483 -2.30739 0
M  V30 5946 N 570.547 0.616602 1.45037 0
M  V30 5947 C 571.51 -0.0871112 2.29034 0
M  V30 5948 C 572.51 -0.786414 1.40258 0
M  V30 5949 O 573.7 -0.633207 1.62284 0
M  V30 5950 C 570.832 -1.13369 3.21497 0
M  V30 5951 H 572.025 0.651497 2.92738 0
M  V30 5952 H 569.578 0.376058 1.51709 0
M  V30 5953 H 570.313 -1.90277 2.62612 0
M  V30 5954 H 570.098 -0.636358 3.86902 0
M  V30 5955 H 571.588 -1.62627 3.84633 0
M  V30 5956 N 572.025 -1.5352 0.356285 0
M  V30 5957 C 573.273 -2.00719 -0.235837 0
M  V30 5958 C 573.594 -1.24551 -1.5004 0
M  V30 5959 O 572.864 -0.356185 -1.92635 0
M  V30 5960 H 571.444 -0.741542 -0.0901366 0
M  V30 5961 H 574.106 -1.88887 0.480378 0
M  V30 5962 H 573.202 -3.08551 -0.469357 0
M  V30 5963 N 573.503 -0.0852151 -1.57369 0
M  V30 5964 C 574.433 0.874556 -2.16503 0
M  V30 5965 C 575.414 1.30111 -1.09568 0
M  V30 5966 O 576.599 1.36977 -1.37662 0
M  V30 5967 C 573.729 2.13731 -2.73745 0
M  V30 5968 C 572.683 1.84971 -3.85966 0
M  V30 5969 C 572.009 3.17991 -4.29867 0
M  V30 5970 C 573.309 1.14442 -5.09608 0
M  V30 5971 H 575.003 0.381899 -2.96954 0
M  V30 5972 H 572.549 0.18225 -1.42842 0
M  V30 5973 H 574.502 2.81302 -3.13763 0
M  V30 5974 H 573.226 2.65263 -1.90534 0
M  V30 5975 H 571.885 1.19801 -3.46473 0
M  V30 5976 H 571.533 3.6739 -3.4356 0
M  V30 5977 H 571.233 2.99534 -5.05523 0
M  V30 5978 H 572.757 3.86737 -4.72511 0
M  V30 5979 H 574.171 1.72105 -5.46857 0
M  V30 5980 H 572.568 1.06197 -5.90629 0
M  V30 5981 H 573.638 0.12559 -4.84737 0
M  V30 5982 N 574.981 1.5647 0.188427 0
M  V30 5983 C 576.211 1.84863 0.922463 0
M  V30 5984 C 576.619 0.666413 1.77075 0
M  V30 5985 O 575.962 -0.374044 1.79852 0
M  V30 5986 C 576.024 3.07447 1.86324 0
M  V30 5987 C 575.688 4.41066 1.19625 0
M  V30 5988 C 576.685 5.16767 0.569946 0
M  V30 5989 C 574.37 4.87802 1.19811 0
M  V30 5990 C 576.364 6.37384 -0.045594 0
M  V30 5991 C 574.051 6.08353 0.57874 0
M  V30 5992 C 575.049 6.82987 -0.0420259 0
M  V30 5993 O 574.737 8.01254 -0.651675 0
M  V30 5994 H 574.469 0.61784 0.274316 0
M  V30 5995 H 577.023 2.04437 0.198613 0
M  V30 5996 H 575.253 2.83774 2.62696 0
M  V30 5997 H 576.942 3.2243 2.46564 0
M  V30 5998 H 577.708 4.81749 0.560601 0
M  V30 5999 H 573.587 4.29662 1.67069 0
M  V30 6000 H 577.131 6.95578 -0.530731 0
M  V30 6001 H 573.028 6.42838 0.58561 0
M  V30 6002 H 573.796 8.16655 -0.549236 0
M  V30 6003 N 576.459 -0.456382 1.50847 0
M  V30 6004 C 577.875 -0.791345 1.386 0
M  V30 6005 C 578.075 -1.9633 0.453498 0
M  V30 6006 O 577.131 -2.52308 -0.0984353 0
M  V30 6007 C 578.444 -1.08959 2.80265 0
M  V30 6008 C 579.992 -1.19517 2.89283 0
M  V30 6009 C 580.467 -1.52647 4.31814 0
M  V30 6010 N 581.958 -1.59609 4.34832 0
M  V30 6011 C 582.693 -1.86777 5.42127 0
M  V30 6012 N 582.189 -2.11866 6.59609 0
M  V30 6013 N 583.982 -1.88402 5.29586 0
M  V30 6014 H 576.133 0.315746 2.1004 0
M  V30 6015 H 578.396 0.0787916 0.94472 0
M  V30 6016 H 578.102 -0.301355 3.50407 0
M  V30 6017 H 577.976 -2.02211 3.18419 0
M  V30 6018 H 580.363 -1.97406 2.19351 0
M  V30 6019 H 580.444 -0.242111 2.54652 0
M  V30 6020 H 580.088 -0.752922 5.02288 0
M  V30 6021 H 580.018 -2.49127 4.63943 0
M  V30 6022 H 582.509 -1.42201 3.50125 0
M  V30 6023 H 582.822 -2.31912 7.37182 0
M  V30 6024 H 581.167 -2.09228 6.62758 0
M  V30 6025 H 584.358 -1.68307 4.36795 0
M  V30 6026 H 584.531 -2.09238 6.13289 0
M  V30 6027 N 577.937 -1.40673 -0.710563 0
M  V30 6028 C 579.185 -1.38947 -1.46759 0
M  V30 6029 C 579.506 0.00572879 -1.94999 0
M  V30 6030 O 578.776 0.961358 -1.70689 0
M  V30 6031 H 577.356 -0.5114 -0.544499 0
M  V30 6032 H 580.018 -1.75773 -0.842012 0
M  V30 6033 H 579.114 -2.06745 -2.33801 0
M  V30 6034 N 579.415 0.9433 -1.26252 0
M  V30 6035 C 580.347 2.04542 -1.03417 0
M  V30 6036 C 581.36 1.62799 0.0046911 0
M  V30 6037 O 582.549 1.76944 -0.235146 0
M  V30 6038 C 579.649 3.34511 -0.543671 0
M  V30 6039 C 578.822 4.05033 -1.65128 0
M  V30 6040 C 577.881 5.13273 -1.1592 0
M  V30 6041 O 576.907 5.38095 -1.85586 0
M  V30 6042 N 578.109 5.805 -0.00649279 0
M  V30 6043 H 580.874 2.24699 -1.98319 0
M  V30 6044 H 578.435 1.11264 -1.1761 0
M  V30 6045 H 580.427 4.04212 -0.198703 0
M  V30 6046 H 578.997 3.11042 0.311711 0
M  V30 6047 H 578.217 3.29275 -2.16729 0
M  V30 6048 H 579.505 4.48903 -2.39508 0
M  V30 6049 H 578.903 5.62767 0.575347 0
M  V30 6050 H 577.46 6.51201 0.279416 0
M  V30 6051 N 580.893 1.08022 1.14757 0
M  V30 6052 C 581.856 0.71048 2.1791 0
M  V30 6053 C 582.856 -0.252731 1.58801 0
M  V30 6054 O 584.046 -0.0327915 1.74169 0
M  V30 6055 C 581.178 0.0483203 3.40866 0
M  V30 6056 H 582.371 1.62384 2.52134 0
M  V30 6057 H 579.924 0.877595 1.29337 0
M  V30 6058 H 580.659 -0.876959 3.12218 0
M  V30 6059 H 580.444 0.741189 3.85031 0
M  V30 6060 H 581.934 -0.195471 4.17142 0
M  V30 6061 N 582.371 -1.3172 0.865308 0
M  V30 6062 C 583.301 -2.31109 0.333302 0
M  V30 6063 C 584.282 -1.60148 -0.573301 0
M  V30 6064 O 585.467 -1.87882 -0.491305 0
M  V30 6065 C 582.597 -3.44104 -0.470078 0
M  V30 6066 C 581.551 -4.26623 0.343021 0
M  V30 6067 C 580.877 -5.31482 -0.585756 0
M  V30 6068 C 582.177 -4.98001 1.57456 0
M  V30 6069 H 583.871 -2.75855 1.1638 0
M  V30 6070 H 581.417 -1.3262 0.561069 0
M  V30 6071 H 583.37 -4.12682 -0.852752 0
M  V30 6072 H 582.094 -2.98112 -1.33404 0
M  V30 6073 H 580.753 -3.59707 0.707583 0
M  V30 6074 H 580.401 -4.81741 -1.44686 0
M  V30 6075 H 580.101 -5.87582 -0.0456494 0
M  V30 6076 H 581.625 -6.0292 -0.965375 0
M  V30 6077 H 583.039 -5.59201 1.26359 0
M  V30 6078 H 581.436 -5.63876 2.05339 0
M  V30 6079 H 582.506 -4.25253 2.32997 0
M  V30 6080 N 583.85 -0.624285 -1.44708 0
M  V30 6081 C 584.8 0.106466 -2.27751 0
M  V30 6082 C 585.784 0.822703 -1.38277 0
M  V30 6083 O 586.976 0.709939 -1.62138 0
M  V30 6084 C 584.105 1.092 -3.25469 0
M  V30 6085 C 583.191 0.375737 -4.22432 0
M  V30 6086 N 583.582 -0.591881 -5.02325 0
M  V30 6087 C 581.88 0.621093 -4.41654 0
M  V30 6088 C 582.581 -1.01443 -5.72786 0
M  V30 6089 N 581.557 -0.354651 -5.42442 0
M  V30 6090 H 585.359 -0.636464 -2.86926 0
M  V30 6091 H 582.873 -0.44925 -1.56062 0
M  V30 6092 H 584.87 1.63006 -3.83712 0
M  V30 6093 H 583.529 1.8353 -2.67856 0
M  V30 6094 H 584.541 -0.969389 -5.08747 0
M  V30 6095 H 581.218 1.34779 -3.95147 0
M  V30 6096 H 582.608 -1.81345 -6.46965 0
M  V30 6097 N 585.328 1.53329 -0.364422 0
M  V30 6098 C 586.576 2.00842 0.225189 0
M  V30 6099 C 586.897 1.25345 1.49378 0
M  V30 6100 O 586.167 0.366396 1.92443 0
M  V30 6101 H 584.747 0.742009 0.0862027 0
M  V30 6102 H 587.409 1.8863 -0.490389 0
M  V30 6103 H 586.505 3.08795 0.452987 0
M  V30 6104 N 586.806 0.0935595 1.57322 0
M  V30 6105 C 588.222 -0.263091 1.57417 0
M  V30 6106 C 588.422 -1.68526 1.1046 0
M  V30 6107 O 587.478 -2.40139 0.780357 0
M  V30 6108 C 588.791 -0.0529201 3.00653 0
M  V30 6109 C 590.339 -0.120788 3.12767 0
M  V30 6110 C 590.814 0.0613707 4.57959 0
M  V30 6111 N 592.305 0.00648534 4.632 0
M  V30 6112 C 593.04 0.122699 5.73269 0
M  V30 6113 N 592.536 0.29366 6.92177 0
M  V30 6114 N 594.329 0.0640787 5.62063 0
M  V30 6115 H 586.48 1.02277 1.86154 0
M  V30 6116 H 588.743 0.4007 0.859153 0
M  V30 6117 H 588.449 0.929279 3.39201 0
M  V30 6118 H 588.323 -0.795899 3.68708 0
M  V30 6119 H 590.71 -1.09349 2.74093 0
M  V30 6120 H 590.791 0.653656 2.47307 0
M  V30 6121 H 590.435 1.03093 4.97327 0
M  V30 6122 H 590.365 -0.732748 5.21477 0
M  V30 6123 H 592.856 -0.123173 3.77699 0
M  V30 6124 H 593.169 0.37389 7.71895 0
M  V30 6125 H 591.514 0.329307 6.94219 0
M  V30 6126 H 594.705 -0.0683396 4.6805 0
M  V30 6127 H 594.878 0.158097 6.47807 0
M  V30 6128 N 588.284 -1.56567 -0.180126 0
M  V30 6129 C 589.234 -1.92132 -1.22756 0
M  V30 6130 C 590.218 -0.788639 -1.40247 0
M  V30 6131 O 591.41 -1.05171 -1.42366 0
M  V30 6132 C 588.539 -2.27719 -2.56902 0
M  V30 6133 C 587.625 -3.47481 -2.43142 0
M  V30 6134 N 588.016 -4.64973 -1.99082 0
M  V30 6135 C 586.314 -3.51914 -2.73994 0
M  V30 6136 C 587.015 -5.47119 -1.97574 0
M  V30 6137 N 585.991 -4.87925 -2.39645 0
M  V30 6138 H 589.793 -2.80464 -0.878478 0
M  V30 6139 H 587.307 -1.57686 -0.388463 0
M  V30 6140 H 589.304 -2.51389 -3.32579 0
M  V30 6141 H 587.964 -1.40722 -2.92621 0
M  V30 6142 H 588.975 -4.89358 -1.69557 0
M  V30 6143 H 585.652 -2.75372 -3.13809 0
M  V30 6144 H 587.042 -6.51254 -1.65282 0
M  V30 6145 N 589.762 0.448376 -1.51087 0
M  V30 6146 C 591.173 1.0286 -1.5581 0
M  V30 6147 C 591.524 1.92583 -0.374989 0
M  V30 6148 O 590.649 2.10316 0.509533 0
M  V30 6149 C 591.244 1.87223 -2.8237 0
M  V30 6150 C 589.803 2.40314 -2.897 0
M  V30 6151 C 588.95 1.19238 -2.50355 0
M  V30 6152 H 591.901 0.230075 -1.57023 0
M  V30 6153 H 591.922 2.72553 -2.6551 0
M  V30 6154 H 591.434 1.21894 -3.68461 0
M  V30 6155 H 589.535 3.09129 -2.08014 0
M  V30 6156 H 589.648 2.73866 -3.93108 0
M  V30 6157 H 588.012 1.53428 -2.03303 0
M  V30 6158 H 588.795 0.555367 -3.38778 0
M  V30 6159 N 591.24 1.41047 0.703093 0
M  V30 6160 C 592.656 1.23351 1.01275 0
M  V30 6161 C 592.856 0.11754 2.01157 0
M  V30 6162 O 591.912 -0.520518 2.47077 0
M  V30 6163 C 593.225 2.58001 1.54454 0
M  V30 6164 C 594.773 2.65119 1.66376 0
M  V30 6165 C 595.248 4.00067 2.22958 0
M  V30 6166 N 596.739 4.01875 2.30328 0
M  V30 6167 C 597.474 5.03087 2.75119 0
M  V30 6168 N 596.97 6.14692 3.19571 0
M  V30 6169 N 598.763 4.90451 2.74616 0
M  V30 6170 H 590.914 2.1236 0.0412686 0
M  V30 6171 H 593.177 0.944543 0.08089 0
M  V30 6172 H 592.883 3.40378 0.88521 0
M  V30 6173 H 592.757 2.79962 2.52786 0
M  V30 6174 H 595.144 1.83106 2.31422 0
M  V30 6175 H 595.225 2.46975 0.666089 0
M  V30 6176 H 594.869 4.82526 1.58529 0
M  V30 6177 H 594.799 4.15547 3.23462 0
M  V30 6178 H 597.29 3.21291 1.98949 0
M  V30 6179 H 597.603 6.87799 3.52352 0
M  V30 6180 H 595.948 6.18239 3.17498 0
M  V30 6181 H 599.139 4.0235 2.39233 0
M  V30 6182 H 599.312 5.6947 3.09206 0
M  V30 6183 N 592.718 -0.936591 1.26751 0
M  V30 6184 C 594.129 -1.49816 1.1141 0
M  V30 6185 C 594.48 -1.9383 -0.304015 0
M  V30 6186 O 593.605 -1.80346 -1.196 0
M  V30 6187 C 594.2 -2.72271 2.01629 0
M  V30 6188 C 592.759 -3.2468 1.9042 0
M  V30 6189 C 591.906 -1.97444 1.94708 0
M  V30 6190 H 594.857 -0.751604 1.39773 0
M  V30 6191 H 594.878 -3.46741 1.56688 0
M  V30 6192 H 594.39 -2.40205 3.04833 0
M  V30 6193 H 592.491 -3.61525 0.901674 0
M  V30 6194 H 592.604 -3.91476 2.76195 0
M  V30 6195 H 590.968 -2.13545 1.38818 0
M  V30 6196 H 591.751 -1.67703 2.9955 0
M  V30 6197 N 594.196 -1.08629 -1.14182 0
M  V30 6198 C 595.607 -0.838003 -1.66836 0
M  V30 6199 C 595.958 0.634885 -1.85644 0
M  V30 6200 O 595.083 1.49008 -1.56926 0
M  V30 6201 C 595.678 -1.51465 -3.03058 0
M  V30 6202 C 594.237 -1.31355 -3.52736 0
M  V30 6203 C 593.384 -1.57599 -2.28162 0
M  V30 6204 H 596.335 -1.24656 -0.982165 0
M  V30 6205 H 596.356 -0.943134 -3.68626 0
M  V30 6206 H 595.868 -2.58661 -2.89337 0
M  V30 6207 H 593.969 -0.262384 -3.71675 0
M  V30 6208 H 594.082 -2.04275 -4.33369 0
M  V30 6209 H 592.446 -0.997659 -2.34348 0
M  V30 6210 H 593.229 -2.66006 -2.17015 0
M  V30 6211 N 595.674 1.31259 -0.872281 0
M  V30 6212 C 596.637 2.26744 -0.334656 0
M  V30 6213 C 597.637 1.52307 0.515681 0
M  V30 6214 O 598.827 1.71148 0.324656 0
M  V30 6215 C 595.959 3.36841 0.524482 0
M  V30 6216 H 597.152 2.75812 -1.17762 0
M  V30 6217 H 594.705 1.42232 -0.648064 0
M  V30 6218 H 595.44 2.93069 1.38855 0
M  V30 6219 H 595.225 3.92009 -0.0844299 0
M  V30 6220 H 596.715 4.07944 0.892838 0
M  V30 6221 N 597.152 0.631951 1.44375 0
M  V30 6222 C 598.38 0.143867 2.06399 0
M  V30 6223 C 598.795 -1.18188 1.47231 0
M  V30 6224 O 598.152 -1.72511 0.595498 0
M  V30 6225 C 598.203 0.0238253 3.61492 0
M  V30 6226 O 597.924 1.29715 4.18456 0
M  V30 6227 C 599.425 -0.492856 4.40552 0
M  V30 6228 H 596.645 0.0800542 0.666207 0
M  V30 6229 H 599.189 0.866586 1.85231 0
M  V30 6230 H 597.344 -0.649338 3.81919 0
M  V30 6231 H 597.758 1.14252 5.11905 0
M  V30 6232 H 599.232 -0.525861 5.49489 0
M  V30 6233 H 599.709 -1.52006 4.12057 0
M  V30 6234 H 600.315 0.147085 4.25046 0
M  V30 6235 N 598.631 -1.53133 0.372548 0
M  V30 6236 C 599.877 -2.01654 -0.215277 0
M  V30 6237 C 600.21 -1.25914 -1.47849 0
M  V30 6238 O 599.485 -0.3548 -1.91237 0
M  V30 6239 C 599.768 -3.56609 -0.500187 0
M  V30 6240 C 599.621 -4.43036 0.777145 0
M  V30 6241 C 600.94 -4.20528 -1.29786 0
M  V30 6242 H 598.059 -0.732991 -0.0767686 0
M  V30 6243 H 600.701 -1.83335 0.498814 0
M  V30 6244 H 598.851 -3.7235 -1.10852 0
M  V30 6245 H 600.523 -4.39079 1.41447 0
M  V30 6246 H 598.766 -4.10723 1.39604 0
M  V30 6247 H 599.437 -5.49424 0.532662 0
M  V30 6248 H 601.913 -4.08663 -0.783198 0
M  V30 6249 H 600.789 -5.28962 -1.46596 0
M  V30 6250 H 601.05 -3.77051 -2.30836 0
M  V30 6251 N 600.109 -0.101901 -1.5727 0
M  V30 6252 C 601.041 0.884723 -2.11436 0
M  V30 6253 C 602.054 1.24149 -1.05314 0
M  V30 6254 O 603.243 1.19341 -1.3274 0
M  V30 6255 C 600.343 2.19179 -2.58484 0
M  V30 6256 C 599.516 2.00933 -3.88516 0
M  V30 6257 C 598.575 3.15213 -4.2134 0
M  V30 6258 O 597.601 2.88877 -4.90448 0
M  V30 6259 N 598.803 4.41174 -3.77288 0
M  V30 6260 H 601.568 0.422058 -2.96713 0
M  V30 6261 H 599.129 0.0830128 -1.61687 0
M  V30 6262 H 601.121 2.94593 -2.77484 0
M  V30 6263 H 599.691 2.56847 -1.7818 0
M  V30 6264 H 598.911 1.09809 -3.78597 0
M  V30 6265 H 600.199 1.86026 -4.73573 0
M  V30 6266 H 599.597 4.6545 -3.21516 0
M  V30 6267 H 598.154 5.13515 -4.01429 0
M  V30 6268 N 601.587 1.56661 0.17182 0
M  V30 6269 C 602.534 1.96371 1.21273 0
M  V30 6270 C 603.504 0.82756 1.44016 0
M  V30 6271 O 604.689 1.08764 1.56764 0
M  V30 6272 C 601.829 2.32838 2.54716 0
M  V30 6273 C 600.942 3.59628 2.39356 0
M  V30 6274 C 600.077 3.85311 3.65662 0
M  V30 6275 C 599.116 5.0545 3.45234 0
M  V30 6276 N 598.253 5.27268 4.63608 0
M  V30 6277 H 603.093 2.85106 0.86709 0
M  V30 6278 H 600.63 1.41073 0.416744 0
M  V30 6279 H 602.588 2.52004 3.3249 0
M  V30 6280 H 601.218 1.47214 2.87277 0
M  V30 6281 H 600.27 3.4838 1.52761 0
M  V30 6282 H 601.582 4.4756 2.20207 0
M  V30 6283 H 600.736 4.04841 4.51872 0
M  V30 6284 H 599.475 2.95753 3.8779 0
M  V30 6285 H 598.48 4.85819 2.5741 0
M  V30 6286 H 599.705 5.96538 3.24529 0
M  V30 6287 H 597.651 4.40662 4.85956 0
M  V30 6288 H 597.568 6.09422 4.4737 0
M  V30 6289 H 598.836 5.51277 5.51103 0
M  V30 6290 N 603.065 -0.440357 1.51323 0
M  V30 6291 C 603.995 -1.54174 1.75364 0
M  V30 6292 C 604.976 -1.59039 0.603375 0
M  V30 6293 O 606.161 -1.74815 0.845774 0
M  V30 6294 C 603.291 -2.92277 1.87593 0
M  V30 6295 C 602.245 -3.02274 3.03009 0
M  V30 6296 C 601.571 -4.42327 3.00418 0
M  V30 6297 C 602.871 -2.76634 4.43024 0
M  V30 6298 H 604.565 -1.34307 2.67585 0
M  V30 6299 H 602.111 -0.644678 1.28763 0
M  V30 6300 H 604.064 -3.69284 2.02995 0
M  V30 6301 H 602.788 -3.13369 0.920179 0
M  V30 6302 H 601.447 -2.27706 2.87307 0
M  V30 6303 H 601.095 -4.60382 2.02626 0
M  V30 6304 H 600.795 -4.49946 3.77918 0
M  V30 6305 H 602.319 -5.21312 3.17909 0
M  V30 6306 H 603.733 -3.43376 4.59093 0
M  V30 6307 H 602.13 -2.95666 5.22208 0
M  V30 6308 H 603.2 -1.72262 4.5327 0
M  V30 6309 N 604.543 -1.41418 -0.695603 0
M  V30 6310 C 605.768 -1.44329 -1.48942 0
M  V30 6311 C 606.193 -0.0501579 -1.88033 0
M  V30 6312 O 605.551 0.946598 -1.54626 0
M  V30 6313 C 605.599 -2.3578 -2.72837 0
M  V30 6314 O 604.703 -1.81482 -3.70322 0
M  V30 6315 H 604.044 -0.489838 -0.44828 0
M  V30 6316 H 606.574 -1.85878 -0.855014 0
M  V30 6317 H 606.584 -2.51654 -3.21145 0
M  V30 6318 H 605.259 -3.37005 -2.43722 0
M  V30 6319 H 603.836 -1.75058 -3.29255 0
M  V30 6320 N 606.021 0.929856 -1.27246 0
M  V30 6321 C 607.437 1.20542 -1.04603 0
M  V30 6322 C 607.637 2.00276 0.221754 0
M  V30 6323 O 606.693 2.34835 0.927833 0
M  V30 6324 C 608.006 1.95566 -2.28417 0
M  V30 6325 C 609.554 2.08513 -2.33433 0
M  V30 6326 C 610.029 2.86943 -3.5697 0
M  V30 6327 N 611.52 2.94512 -3.57515 0
M  V30 6328 C 612.255 3.55656 -4.49774 0
M  V30 6329 N 611.751 4.18209 -5.52334 0
M  V30 6330 N 613.544 3.53038 -4.37402 0
M  V30 6331 H 605.695 0.397113 -2.08655 0
M  V30 6332 H 607.958 0.238277 -0.917566 0
M  V30 6333 H 607.664 1.44395 -3.20691 0
M  V30 6334 H 607.538 2.9619 -2.33563 0
M  V30 6335 H 609.925 2.58872 -1.41666 0
M  V30 6336 H 610.006 1.07117 -2.32292 0
M  V30 6337 H 609.65 2.37268 -4.49072 0
M  V30 6338 H 609.58 3.8862 -3.55362 0
M  V30 6339 H 612.071 2.50053 -2.83341 0
M  V30 6340 H 612.384 4.62796 -6.18902 0
M  V30 6341 H 610.729 4.16761 -5.56179 0
M  V30 6342 H 613.92 3.0337 -3.56489 0
M  V30 6343 H 614.093 4.004 -5.09493 0
M  V30 6344 N 607.499 1.09233 1.13605 0
M  V30 6345 C 608.746 0.827159 1.84836 0
M  V30 6346 C 609.074 -0.647199 1.83416 0
M  V30 6347 O 608.329 -1.49228 1.26608 0
M  V30 6348 C 608.628 1.305 3.32723 0
M  V30 6349 C 608.294 2.78864 3.54325 0
M  V30 6350 C 606.956 3.19382 3.59928 0
M  V30 6351 C 609.308 3.74532 3.62457 0
M  V30 6352 C 606.636 4.54346 3.71196 0
M  V30 6353 C 608.988 5.09283 3.75252 0
M  V30 6354 C 607.652 5.49394 3.79108 0
M  V30 6355 H 606.922 0.302679 0.676363 0
M  V30 6356 H 609.569 1.36676 1.34134 0
M  V30 6357 H 607.874 0.68517 3.85762 0
M  V30 6358 H 609.571 1.07648 3.86281 0
M  V30 6359 H 606.161 2.46507 3.50617 0
M  V30 6360 H 610.345 3.44343 3.57409 0
M  V30 6361 H 605.601 4.84864 3.72447 0
M  V30 6362 H 609.775 5.83269 3.80487 0
M  V30 6363 H 607.402 6.5397 3.87591 0
M  V30 6364 N 608.977 -1.30795 0.87923 0
M  V30 6365 C 610.388 -1.78535 0.546093 0
M  V30 6366 C 610.739 -1.72354 -0.937467 0
M  V30 6367 O 609.864 -1.2969 -1.73233 0
M  V30 6368 C 610.459 -3.24181 0.9845 0
M  V30 6369 C 609.018 -3.69779 0.702871 0
M  V30 6370 C 608.165 -2.51377 1.17068 0
M  V30 6371 H 611.116 -1.17746 1.06403 0
M  V30 6372 H 611.137 -3.79227 0.311045 0
M  V30 6373 H 610.649 -3.28647 2.06429 0
M  V30 6374 H 608.75 -3.70806 -0.365166 0
M  V30 6375 H 608.863 -4.61507 1.28639 0
M  V30 6376 H 607.227 -2.47768 0.590172 0
M  V30 6377 H 608.01 -2.58584 2.25808 0
M  V30 6378 N 610.455 -0.639598 -1.44038 0
M  V30 6379 C 611.385 0.0469443 -2.33453 0
M  V30 6380 C 612.366 0.82609 -1.48694 0
M  V30 6381 O 613.551 0.790285 -1.77393 0
M  V30 6382 C 610.681 1.02338 -3.3188 0
M  V30 6383 C 609.635 0.355284 -4.26523 0
M  V30 6384 C 608.961 1.44221 -5.14883 0
M  V30 6385 C 610.261 -0.743798 -5.16977 0
M  V30 6386 H 611.955 -0.699735 -2.91108 0
M  V30 6387 H 609.501 -0.337946 -1.39978 0
M  V30 6388 H 611.454 1.51247 -3.93322 0
M  V30 6389 H 610.178 1.80105 -2.72451 0
M  V30 6390 H 608.837 -0.113239 -3.66425 0
M  V30 6391 H 608.485 2.21097 -4.51802 0
M  V30 6392 H 608.185 1.00052 -5.79019 0
M  V30 6393 H 609.709 1.93295 -5.79197 0
M  V30 6394 H 611.123 -0.337444 -5.72306 0
M  V30 6395 H 609.52 -1.10914 -5.89761 0
M  V30 6396 H 610.59 -1.60745 -4.57481 0
M  V30 6397 N 611.933 1.52934 -0.380664 0
M  V30 6398 C 612.896 2.24809 0.446473 0
M  V30 6399 C 613.896 1.26133 0.997347 0
M  V30 6400 O 615.086 1.50297 0.880714 0
M  V30 6401 C 612.218 2.99649 1.62553 0
M  V30 6402 H 613.411 2.99343 -0.182677 0
M  V30 6403 H 610.964 1.55736 -0.132618 0
M  V30 6404 H 611.699 2.29395 2.29235 0
M  V30 6405 H 611.484 3.72066 1.23732 0
M  V30 6406 H 612.974 3.54246 2.21133 0
M  V30 6407 N 613.412 0.11024 1.57214 0
M  V30 6408 C 614.828 -0.24638 1.57687 0
M  V30 6409 C 615.028 -1.67344 1.12241 0
M  V30 6410 O 614.084 -2.39298 0.805783 0
M  V30 6411 C 615.397 -0.0210288 3.00693 0
M  V30 6412 C 616.945 -0.0876077 3.12877 0
M  V30 6413 C 617.42 0.10994 4.57868 0
M  V30 6414 N 618.911 0.0556135 4.63167 0
M  V30 6415 C 619.646 0.183495 5.73106 0
M  V30 6416 N 619.142 0.367058 6.91827 0
M  V30 6417 N 620.935 0.123689 5.61964 0
M  V30 6418 H 613.086 1.04246 1.85058 0
M  V30 6419 H 615.349 0.40979 0.854854 0
M  V30 6420 H 615.055 0.965203 3.38196 0
M  V30 6421 H 614.929 -0.756748 3.69531 0
M  V30 6422 H 617.316 -1.06436 2.75237 0
M  V30 6423 H 617.397 0.67985 2.466 0
M  V30 6424 H 617.041 1.08362 4.96206 0
M  V30 6425 H 616.971 -0.677397 5.22225 0
M  V30 6426 H 619.462 -0.0831062 3.77809 0
M  V30 6427 H 619.775 0.455739 7.71455 0
M  V30 6428 H 618.12 0.40292 6.93831 0
M  V30 6429 H 621.311 -0.0186928 4.68096 0
M  V30 6430 H 621.484 0.226797 6.47603 0
M  V30 6431 N 614.89 -1.56749 -0.16351 0
M  V30 6432 C 615.822 -1.93587 -1.22705 0
M  V30 6433 C 616.835 -0.829824 -1.40063 0
M  V30 6434 O 618.024 -1.10826 -1.39928 0
M  V30 6435 C 615.124 -2.1803 -2.59454 0
M  V30 6436 C 614.297 -3.4928 -2.63292 0
M  V30 6437 C 613.356 -3.62457 -3.8146 0
M  V30 6438 O 612.382 -4.35004 -3.67096 0
M  V30 6439 N 613.584 -2.97888 -4.9824 0
M  V30 6440 H 616.349 -2.8542 -0.914081 0
M  V30 6441 H 613.91 -1.58 -0.353214 0
M  V30 6442 H 615.902 -2.24102 -3.36987 0
M  V30 6443 H 614.472 -1.32543 -2.8311 0
M  V30 6444 H 613.692 -3.54795 -1.71796 0
M  V30 6445 H 614.98 -4.35632 -2.62873 0
M  V30 6446 H 614.378 -2.38833 -5.12811 0
M  V30 6447 H 612.935 -3.09545 -5.73607 0
M  V30 6448 N 616.368 0.432326 -1.51554 0
M  V30 6449 C 617.615 1.18134 -1.64471 0
M  V30 6450 C 617.943 1.91076 -0.363349 0
M  V30 6451 O 617.198 1.84492 0.65279 0
M  V30 6452 C 617.497 2.21907 -2.80164 0
M  V30 6453 C 617.163 1.65941 -4.19255 0
M  V30 6454 C 615.825 1.50401 -4.57092 0
M  V30 6455 C 618.177 1.24843 -5.06027 0
M  V30 6456 C 615.505 0.922443 -5.79403 0
M  V30 6457 C 617.857 0.68113 -6.28922 0
M  V30 6458 C 616.521 0.512673 -6.65528 0
M  V30 6459 H 615.791 0.432283 -0.601841 0
M  V30 6460 H 618.438 0.471701 -1.856 0
M  V30 6461 H 616.743 2.98928 -2.53277 0
M  V30 6462 H 618.44 2.79691 -2.87357 0
M  V30 6463 H 615.03 1.79014 -3.89425 0
M  V30 6464 H 619.214 1.35667 -4.77397 0
M  V30 6465 H 614.47 0.779733 -6.06408 0
M  V30 6466 H 618.644 0.35418 -6.95499 0
M  V30 6467 H 616.271 0.0599084 -7.60176 0
M  V30 6468 N 617.846 1.41785 0.688094 0
M  V30 6469 C 619.071 1.45117 1.48175 0
M  V30 6470 C 619.496 0.060129 1.88004 0
M  V30 6471 O 618.854 -0.938385 1.55126 0
M  V30 6472 C 618.902 2.37224 2.71583 0
M  V30 6473 O 618.006 1.83443 3.69354 0
M  V30 6474 H 617.347 0.492208 0.445676 0
M  V30 6475 H 619.877 1.86329 0.845145 0
M  V30 6476 H 619.887 2.53353 3.19806 0
M  V30 6477 H 618.562 3.38293 2.41931 0
M  V30 6478 H 617.139 1.76802 3.28322 0
M  V30 6479 N 619.324 -0.923095 1.27737 0
M  V30 6480 C 620.254 -2.04124 1.13383 0
M  V30 6481 C 621.235 -1.70066 0.0340658 0
M  V30 6482 O 622.42 -1.93068 0.209383 0
M  V30 6483 C 619.55 -3.3831 0.785097 0
M  V30 6484 C 618.504 -3.86496 1.8386 0
M  V30 6485 C 617.83 -5.1754 1.34373 0
M  V30 6486 C 619.13 -4.09381 3.24353 0
M  V30 6487 H 620.824 -2.1639 2.06919 0
M  V30 6488 H 618.37 -1.03976 0.996243 0
M  V30 6489 H 620.323 -4.16016 0.671485 0
M  V30 6490 H 619.047 -3.2607 -0.185969 0
M  V30 6491 H 617.706 -3.10987 1.9412 0
M  V30 6492 H 617.354 -5.01696 0.361989 0
M  V30 6493 H 617.054 -5.50751 2.04811 0
M  V30 6494 H 618.578 -5.97811 1.24315 0
M  V30 6495 H 619.992 -4.77641 3.17067 0
M  V30 6496 H 618.389 -4.53906 3.92542 0
M  V30 6497 H 619.459 -3.14515 3.69064 0
M  V30 6498 N 620.802 -1.09834 -1.13024 0
M  V30 6499 C 621.712 -0.753731 -2.22162 0
M  V30 6500 C 622.728 0.246105 -1.72251 0
M  V30 6501 O 623.904 0.0864051 -2.01215 0
M  V30 6502 C 620.969 -0.183958 -3.46212 0
M  V30 6503 C 620.03 -1.24028 -4.10993 0
M  V30 6504 C 619.263 -0.697597 -5.29121 0
M  V30 6505 O 619.486 0.478092 -5.68393 0
M  V30 6506 O 618.42 -1.4546 -5.84059 0
M  V30 6507 H 622.246 -1.66456 -2.5402 0
M  V30 6508 H 619.831 -0.873026 -1.21238 0
M  V30 6509 H 621.713 0.130257 -4.21199 0
M  V30 6510 H 620.388 0.699823 -3.16045 0
M  V30 6511 H 619.295 -1.60725 -3.37814 0
M  V30 6512 H 620.628 -2.09685 -4.45301 0
M  V30 6513 N 622.28 1.30327 -0.886154 0
M  V30 6514 C 623.505 2.0079 -0.519425 0
M  V30 6515 C 623.93 1.65979 0.885013 0
M  V30 6516 O 623.288 0.877043 1.58675 0
M  V30 6517 C 623.336 3.53686 -0.702758 0
M  V30 6518 O 622.44 4.11637 0.250828 0
M  V30 6519 H 621.781 0.63171 -0.204544 0
M  V30 6520 H 624.311 1.66145 -1.19402 0
M  V30 6521 H 624.321 4.03531 -0.602207 0
M  V30 6522 H 622.996 3.78361 -1.72673 0
M  V30 6523 H 621.573 3.72755 0.103873 0
M  V30 6524 N 623.758 0.647228 1.43697 0
M  V30 6525 C 625.006 0.157876 2.01482 0
M  V30 6526 C 625.327 -1.23039 1.51282 0
M  V30 6527 O 624.597 -1.82071 0.722982 0
M  V30 6528 H 623.177 0.0553745 0.744945 0
M  V30 6529 H 625.839 0.83755 1.75986 0
M  V30 6530 H 624.935 0.137895 3.11795 0
M  V30 6531 N 625.236 -1.5273 0.388769 0
M  V30 6532 C 626.461 -2.0647 -0.19621 0
M  V30 6533 C 626.886 -1.25865 -1.39784 0
M  V30 6534 O 626.244 -0.283562 -1.79069 0
M  V30 6535 C 626.292 -3.56456 -0.5451 0
M  V30 6536 O 625.396 -3.78426 -1.63912 0
M  V30 6537 H 624.737 -0.663599 -0.023067 0
M  V30 6538 H 627.267 -1.96898 0.556084 0
M  V30 6539 H 627.277 -3.99888 -0.809557 0
M  V30 6540 H 625.952 -4.14561 0.333417 0
M  V30 6541 H 624.529 -3.46884 -1.36842 0
M  V30 6542 N 626.714 -0.118576 -1.57153 0
M  V30 6543 C 627.939 0.550582 -1.99958 0
M  V30 6544 C 628.364 1.59458 -0.997736 0
M  V30 6545 O 627.722 1.81274 0.0306269 0
M  V30 6546 C 627.77 1.15379 -3.41643 0
M  V30 6547 O 626.874 2.26932 -3.44348 0
M  V30 6548 H 626.215 0.137567 -0.649593 0
M  V30 6549 H 628.745 -0.206926 -2.03551 0
M  V30 6550 H 628.755 1.48942 -3.79843 0
M  V30 6551 H 627.43 0.389087 -4.14076 0
M  V30 6552 H 626.007 1.94812 -3.17967 0
M  V30 6553 N 628.193 1.56834 0.155195 0
M  V30 6554 C 629.441 1.82536 0.867462 0
M  V30 6555 C 629.762 0.698168 1.82073 0
M  V30 6556 O 629.032 -0.280807 1.93877 0
M  V30 6557 H 627.612 0.673401 0.323327 0
M  V30 6558 H 630.274 1.94313 0.151156 0
M  V30 6559 H 629.37 2.77171 1.43466 0
M  V30 6560 N 629.671 -0.424282 1.51781 0
M  V30 6561 C 630.618 -1.51591 1.74037 0
M  V30 6562 C 631.588 -1.55556 0.582358 0
M  V30 6563 O 632.773 -1.72364 0.818245 0
M  V30 6564 C 629.913 -2.89188 1.8832 0
M  V30 6565 C 629.026 -2.9465 3.1592 0
M  V30 6566 C 628.161 -4.23452 3.20721 0
M  V30 6567 C 627.2 -4.22831 4.42584 0
M  V30 6568 N 626.337 -5.43178 4.44862 0
M  V30 6569 H 631.177 -1.31917 2.67212 0
M  V30 6570 H 628.714 -0.640599 1.32419 0
M  V30 6571 H 630.672 -3.69044 1.94583 0
M  V30 6572 H 629.302 -3.07392 0.985402 0
M  V30 6573 H 628.354 -2.07378 3.18902 0
M  V30 6574 H 629.666 -2.90055 4.05795 0
M  V30 6575 H 628.82 -5.1169 3.25973 0
M  V30 6576 H 627.559 -4.30722 2.28757 0
M  V30 6577 H 626.564 -3.32984 4.37495 0
M  V30 6578 H 627.789 -4.17213 5.35826 0
M  V30 6579 H 625.735 -5.51145 3.55775 0
M  V30 6580 H 625.652 -5.40515 5.28563 0
M  V30 6581 H 626.92 -6.33412 4.54324 0
M  V30 6582 N 631.149 -1.42148 -0.680565 0
M  V30 6583 C 632.374 -1.45901 -1.47403 0
M  V30 6584 C 632.799 -0.0700985 -1.87969 0
M  V30 6585 O 632.157 0.930145 -1.55621 0
M  V30 6586 C 632.205 -2.38661 -2.70321 0
M  V30 6587 O 631.309 -1.85399 -3.68376 0
M  V30 6588 H 630.65 -0.494565 -0.443059 0
M  V30 6589 H 633.18 -1.86774 -0.835251 0
M  V30 6590 H 633.19 -2.55046 -3.18458 0
M  V30 6591 H 631.865 -3.39571 -2.40134 0
M  V30 6592 H 630.442 -1.78541 -3.2738 0
M  V30 6593 N 632.627 0.916307 -1.28225 0
M  V30 6594 C 633.852 1.7043 -1.18188 0
M  V30 6595 C 634.277 1.86346 0.256274 0
M  V30 6596 O 633.635 1.37175 1.18544 0
M  V30 6597 C 633.683 3.07546 -1.88275 0
M  V30 6598 O 632.787 3.94904 -1.18848 0
M  V30 6599 H 632.128 0.521967 -0.410423 0
M  V30 6600 H 634.658 1.14589 -1.69501 0
M  V30 6601 H 634.668 3.57793 -1.96082 0
M  V30 6602 H 633.343 2.95279 -2.92887 0
M  V30 6603 H 631.92 3.53339 -1.19187 0
M  V30 6604 N 634.105 1.10431 1.1244 0
M  V30 6605 C 635.33 0.869089 1.88313 0
M  V30 6606 C 635.755 -0.574912 1.79099 0
M  V30 6607 O 635.113 -1.40496 1.14589 0
M  V30 6608 C 635.161 1.32208 3.3549 0
M  V30 6609 O 634.265 0.487092 4.09513 0
M  V30 6610 H 633.606 0.313894 0.585121 0
M  V30 6611 H 636.136 1.47111 1.42195 0
M  V30 6612 H 636.146 1.31201 3.86329 0
M  V30 6613 H 634.821 2.37364 3.41513 0
M  V30 6614 H 633.398 0.562372 3.68635 0
M  V30 6615 N 635.583 -1.29855 0.893053 0
M  V30 6616 C 636.808 -2.00512 0.530066 0
M  V30 6617 C 637.233 -1.66446 -0.876199 0
M  V30 6618 O 636.591 -0.885446 -1.58207 0
M  V30 6619 C 636.639 -3.53308 0.721505 0
M  V30 6620 O 635.743 -4.11764 -0.228994 0
M  V30 6621 H 635.084 -0.630617 0.207891 0
M  V30 6622 H 637.614 -1.6551 1.20282 0
M  V30 6623 H 637.624 -4.03206 0.623599 0
M  V30 6624 H 636.299 -3.77439 1.74678 0
M  V30 6625 H 634.876 -3.72805 -0.0841034 0
M  V30 6626 N 637.061 -0.65484 -1.43351 0
M  V30 6627 C 637.991 0.0221809 -2.33489 0
M  V30 6628 C 638.972 0.810272 -1.49561 0
M  V30 6629 O 640.157 0.771426 -1.78221 0
M  V30 6630 C 637.287 0.988117 -3.32947 0
M  V30 6631 C 636.241 0.310026 -4.26876 0
M  V30 6632 C 635.567 1.38752 -5.16384 0
M  V30 6633 C 636.867 -0.798589 -5.16159 0
M  V30 6634 H 638.561 -0.730571 -2.9035 0
M  V30 6635 H 636.107 -0.352773 -1.39612 0
M  V30 6636 H 638.06 1.47067 -3.94904 0
M  V30 6637 H 636.784 1.77205 -2.74346 0
M  V30 6638 H 635.443 -0.152097 -3.66284 0
M  V30 6639 H 635.091 2.16293 -4.54121 0
M  V30 6640 H 634.791 0.939051 -5.80048 0
M  V30 6641 H 636.315 1.87141 -5.81215 0
M  V30 6642 H 637.729 -0.398126 -5.71916 0
M  V30 6643 H 636.126 -1.17163 -5.88552 0
M  V30 6644 H 637.196 -1.65588 -4.55751 0
M  V30 6645 N 638.539 1.52521 -0.396863 0
M  V30 6646 C 639.785 2.01971 0.183169 0
M  V30 6647 C 640.118 1.2825 1.45827 0
M  V30 6648 O 639.393 0.385179 1.90648 0
M  V30 6649 C 639.676 3.5736 0.443391 0
M  V30 6650 C 639.529 4.41743 -0.84753 0
M  V30 6651 C 640.848 4.22539 1.2308 0
M  V30 6652 H 637.967 0.734119 0.0650976 0
M  V30 6653 H 640.609 1.82519 -0.527918 0
M  V30 6654 H 638.759 3.74066 1.04914 0
M  V30 6655 H 640.431 4.36773 -1.48414 0
M  V30 6656 H 638.674 4.0845 -1.4612 0
M  V30 6657 H 639.345 5.48507 -0.620003 0
M  V30 6658 H 641.821 4.09857 0.718084 0
M  V30 6659 H 640.697 5.31227 1.38162 0
M  V30 6660 H 640.958 3.80675 2.24808 0
M  V30 6661 N 640.017 0.126909 1.57088 0
M  V30 6662 C 641.433 -0.229641 1.57939 0
M  V30 6663 C 641.633 -1.66145 1.1401 0
M  V30 6664 O 640.689 -2.3843 0.831119 0
M  V30 6665 C 642.002 0.0108648 3.00698 0
M  V30 6666 C 643.55 -0.054418 3.12953 0
M  V30 6667 C 644.025 0.158497 4.57726 0
M  V30 6668 N 645.516 0.104735 4.63082 0
M  V30 6669 C 646.251 0.24427 5.72879 0
M  V30 6670 N 645.747 0.440415 6.91399 0
M  V30 6671 N 647.54 0.183286 5.61801 0
M  V30 6672 H 639.691 1.06203 1.83942 0
M  V30 6673 H 641.954 0.418834 0.85046 0
M  V30 6674 H 641.66 1.00102 3.37154 0
M  V30 6675 H 641.534 -0.717512 3.70313 0
M  V30 6676 H 643.921 -1.0351 2.7635 0
M  V30 6677 H 644.002 0.705967 2.45865 0
M  V30 6678 H 643.646 1.13619 4.95028 0
M  V30 6679 H 643.576 -0.62197 5.22914 0
M  V30 6680 H 646.067 -0.0430298 3.77876 0
M  V30 6681 H 646.38 0.537536 7.70928 0
M  V30 6682 H 644.725 0.476488 6.93365 0
M  V30 6683 H 647.916 0.0309561 4.6809 0
M  V30 6684 H 648.089 0.295471 6.47326 0
M  V30 6685 N 641.495 -1.56914 -0.146875 0
M  V30 6686 C 642.743 -1.82994 -0.85777 0
M  V30 6687 C 643.064 -0.707814 -1.817 0
M  V30 6688 O 642.334 0.270521 -1.94023 0
M  V30 6689 H 640.914 -0.675106 -0.319751 0
M  V30 6690 H 643.576 -1.9439 -0.140849 0
M  V30 6691 H 642.672 -2.77928 -1.41994 0
M  V30 6692 N 642.974 0.416227 -1.52004 0
M  V30 6693 C 644.22 1.16555 -1.6596 0
M  V30 6694 C 644.553 1.90347 -0.384906 0
M  V30 6695 O 643.828 1.84474 0.616405 0
M  V30 6696 C 644.111 2.1657 -2.87696 0
M  V30 6697 C 643.964 1.46722 -4.25197 0
M  V30 6698 C 645.283 3.17321 -3.04951 0
M  V30 6699 H 642.402 0.422369 -0.603965 0
M  V30 6700 H 645.044 0.452141 -1.84542 0
M  V30 6701 H 643.194 2.77411 -2.71985 0
M  V30 6702 H 644.866 0.89056 -4.52622 0
M  V30 6703 H 643.109 0.769263 -4.26925 0
M  V30 6704 H 643.78 2.19665 -5.0641 0
M  V30 6705 H 646.256 2.66552 -3.19514 0
M  V30 6706 H 645.132 3.84573 -3.91656 0
M  V30 6707 H 645.393 3.84643 -2.17951 0
M  V30 6708 N 644.452 1.42507 0.673017 0
M  V30 6709 C 645.868 1.25472 0.986355 0
M  V30 6710 C 646.068 0.160181 2.00862 0
M  V30 6711 O 645.124 -0.467993 2.48125 0
M  V30 6712 C 646.437 2.61219 1.48947 0
M  V30 6713 C 647.985 2.68589 1.60715 0
M  V30 6714 C 648.46 4.04707 2.14422 0
M  V30 6715 N 649.951 4.0667 2.21752 0
M  V30 6716 C 650.686 5.0881 2.64386 0
M  V30 6717 N 650.182 6.21332 3.0646 0
M  V30 6718 N 651.975 4.96166 2.64151 0
M  V30 6719 H 644.126 2.124 -0.00378532 0
M  V30 6720 H 646.389 0.946046 0.0608367 0
M  V30 6721 H 646.095 3.42179 0.812812 0
M  V30 6722 H 645.969 2.85261 2.46791 0
M  V30 6723 H 648.356 1.87974 2.27486 0
M  V30 6724 H 648.437 2.48333 0.613552 0
M  V30 6725 H 648.081 4.8578 1.48258 0
M  V30 6726 H 648.011 4.22315 3.14575 0
M  V30 6727 H 650.502 3.25438 1.92089 0
M  V30 6728 H 650.815 6.95118 3.37684 0
M  V30 6729 H 649.16 6.24835 3.04313 0
M  V30 6730 H 652.351 4.07334 2.30644 0
M  V30 6731 H 652.524 5.759 2.97057 0
M  V30 6732 N 645.93 -0.909495 1.28709 0
M  V30 6733 C 646.86 -2.0291 1.15542 0
M  V30 6734 C 647.841 -1.7002 0.0521017 0
M  V30 6735 O 649.026 -1.92835 0.229849 0
M  V30 6736 C 646.156 -3.37458 0.820935 0
M  V30 6737 C 645.11 -3.84524 1.87949 0
M  V30 6738 C 644.436 -5.16086 1.39854 0
M  V30 6739 C 645.736 -4.05918 3.28676 0
M  V30 6740 H 647.43 -2.14183 2.09203 0
M  V30 6741 H 644.976 -1.02913 1.00722 0
M  V30 6742 H 646.929 -4.1528 0.715571 0
M  V30 6743 H 645.653 -3.26249 -0.151374 0
M  V30 6744 H 644.312 -3.08911 1.97408 0
M  V30 6745 H 643.96 -5.01284 0.41518 0
M  V30 6746 H 643.66 -5.48547 2.1064 0
M  V30 6747 H 645.184 -5.96459 1.30649 0
M  V30 6748 H 646.598 -4.74252 3.22115 0
M  V30 6749 H 644.995 -4.49717 3.97334 0
M  V30 6750 H 646.065 -3.10583 3.72379 0
M  V30 6751 N 647.408 -1.11026 -1.11852 0
M  V30 6752 C 648.633 -0.879064 -1.87849 0
M  V30 6753 C 649.058 0.565406 -1.79401 0
M  V30 6754 O 648.416 1.39886 -1.15333 0
M  V30 6755 C 648.464 -1.33985 -3.34784 0
M  V30 6756 O 647.568 -0.508803 -4.09249 0
M  V30 6757 H 646.909 -0.316992 -0.583448 0
M  V30 6758 H 649.439 -1.47863 -1.41413 0
M  V30 6759 H 649.449 -1.33248 -3.85628 0
M  V30 6760 H 648.124 -2.39172 -3.40249 0
M  V30 6761 H 646.701 -0.581913 -3.68332 0
M  V30 6762 N 648.886 1.2938 -0.899927 0
M  V30 6763 C 650.111 2.00228 -0.540692 0
M  V30 6764 C 650.536 1.66909 0.867359 0
M  V30 6765 O 649.894 0.893824 1.57735 0
M  V30 6766 C 649.942 3.52921 -0.740232 0
M  V30 6767 O 649.046 4.11879 0.207154 0
M  V30 6768 H 648.387 0.629505 -0.211233 0
M  V30 6769 H 650.917 1.6487 -1.21158 0
M  V30 6770 H 650.927 4.0287 -0.644973 0
M  V30 6771 H 649.602 3.76508 -1.76677 0
M  V30 6772 H 648.179 3.72845 0.0643315 0
M  V30 6773 N 650.364 0.662433 1.43002 0
M  V30 6774 C 651.589 0.186003 2.06564 0
M  V30 6775 C 652.014 -1.14314 1.49379 0
M  V30 6776 O 651.372 -1.70824 0.607346 0
M  V30 6777 C 651.42 0.118269 3.60406 0
M  V30 6778 O 650.524 -0.916859 4.02079 0
M  V30 6779 H 649.865 0.0990981 0.656563 0
M  V30 6780 H 652.395 0.907958 1.8335 0
M  V30 6781 H 652.405 -0.0619981 4.07953 0
M  V30 6782 H 651.08 1.08849 4.01403 0
M  V30 6783 H 649.657 -0.708635 3.66105 0
M  V30 6784 N 651.842 -1.52309 0.404946 0
M  V30 6785 C 653.09 -2.01368 -0.17186 0
M  V30 6786 C 653.411 -1.29261 -1.46002 0
M  V30 6787 O 652.681 -0.41729 -1.91404 0
M  V30 6788 H 651.261 -0.744034 -0.0664993 0
M  V30 6789 H 653.923 -1.87263 0.540228 0
M  V30 6790 H 653.019 -3.09888 -0.370957 0
M  V30 6791 N 653.32 -0.135238 -1.57019 0
M  V30 6792 C 654.731 0.387521 -1.82634 0
M  V30 6793 C 655.082 1.65528 -1.05332 0
M  V30 6794 O 654.207 2.14381 -0.294926 0
M  V30 6795 C 654.802 0.709852 -3.3128 0
M  V30 6796 C 653.361 1.17718 -3.57518 0
M  V30 6797 C 652.508 0.194183 -2.76619 0
M  V30 6798 H 655.459 -0.360126 -1.5456 0
M  V30 6799 H 655.48 1.5657 -3.46794 0
M  V30 6800 H 654.992 -0.213024 -3.87515 0
M  V30 6801 H 653.093 2.1164 -3.06658 0
M  V30 6802 H 653.206 1.11128 -4.66034 0
M  V30 6803 H 651.57 0.684478 -2.4533 0
M  V30 6804 H 652.353 -0.722076 -3.3562 0
M  V30 6805 N 654.798 1.5699 0.138552 0
M  V30 6806 C 655.761 1.97984 1.15478 0
M  V30 6807 C 656.761 0.867416 1.35398 0
M  V30 6808 O 657.951 1.13387 1.32246 0
M  V30 6809 C 655.083 2.3031 2.51337 0
M  V30 6810 H 656.276 2.88953 0.802896 0
M  V30 6811 H 653.829 1.51555 0.382189 0
M  V30 6812 H 654.564 1.42159 2.91481 0
M  V30 6813 H 654.349 3.11425 2.38237 0
M  V30 6814 H 655.839 2.62834 3.24512 0
M  V30 6815 N 656.276 -0.40816 1.52223 0
M  V30 6816 C 657.206 -1.5042 1.78595 0
M  V30 6817 C 658.187 -1.57723 0.636974 0
M  V30 6818 O 659.372 -1.72982 0.882664 0
M  V30 6819 C 656.502 -2.88232 1.93751 0
M  V30 6820 C 655.456 -2.95779 3.09352 0
M  V30 6821 C 654.782 -4.35855 3.09732 0
M  V30 6822 C 656.082 -2.67175 4.48793 0
M  V30 6823 H 657.776 -1.28601 2.70374 0
M  V30 6824 H 655.322 -0.617221 1.30101 0
M  V30 6825 H 657.275 -3.64895 2.10783 0
M  V30 6826 H 655.999 -3.11347 0.986443 0
M  V30 6827 H 654.658 -2.21561 2.92072 0
M  V30 6828 H 654.306 -4.55981 2.12346 0
M  V30 6829 H 654.006 -4.41829 3.87377 0
M  V30 6830 H 655.53 -5.14451 3.28895 0
M  V30 6831 H 656.944 -3.3356 4.66273 0
M  V30 6832 H 655.341 -2.84523 5.28362 0
M  V30 6833 H 656.411 -1.62609 4.56822 0
M  V30 6834 N 657.755 -1.42862 -0.66545 0
M  V30 6835 C 658.685 -1.49867 -1.79059 0
M  V30 6836 C 659.666 -0.354394 -1.66367 0
M  V30 6837 O 660.851 -0.569969 -1.85647 0
M  V30 6838 C 657.981 -1.40943 -3.17415 0
M  V30 6839 C 656.935 -2.53495 -3.44854 0
M  V30 6840 C 656.261 -2.29626 -4.82883 0
M  V30 6841 C 657.561 -3.95781 -3.40815 0
M  V30 6842 H 659.255 -2.44037 -1.73453 0
M  V30 6843 H 656.801 -1.17456 -0.833071 0
M  V30 6844 H 658.754 -1.4445 -3.95869 0
M  V30 6845 H 657.478 -0.432716 -3.23721 0
M  V30 6846 H 656.137 -2.4932 -2.68766 0
M  V30 6847 H 655.785 -1.30226 -4.8585 0
M  V30 6848 H 655.485 -3.05065 -5.02204 0
M  V30 6849 H 657.009 -2.34897 -5.63609 0
M  V30 6850 H 658.423 -4.01508 -4.09224 0
M  V30 6851 H 656.82 -4.71148 -3.71672 0
M  V30 6852 H 657.89 -4.21786 -2.39216 0
M  V30 6853 N 659.233 0.902656 -1.29189 0
M  V30 6854 C 660.196 1.98797 -1.14071 0
M  V30 6855 C 661.196 1.60615 -0.0770549 0
M  V30 6856 O 662.386 1.71165 -0.323753 0
M  V30 6857 C 659.518 3.32688 -0.743739 0
M  V30 6858 H 660.711 2.13637 -2.10473 0
M  V30 6859 H 658.264 1.08678 -1.12334 0
M  V30 6860 H 658.999 3.23549 0.220554 0
M  V30 6861 H 658.784 3.61765 -1.51223 0
M  V30 6862 H 660.274 4.12337 -0.660935 0
M  V30 6863 N 660.711 1.11618 1.11262 0
M  V30 6864 C 661.959 0.864469 1.82678 0
M  V30 6865 C 662.28 -0.611564 1.85162 0
M  V30 6866 O 661.55 -1.44429 1.32352 0
M  V30 6867 H 660.13 0.316821 0.676486 0
M  V30 6868 H 662.792 1.40894 1.34666 0
M  V30 6869 H 661.888 1.23832 2.86482 0
M  V30 6870 N 662.189 -1.289 0.906776 0
M  V30 6871 C 663.119 -2.29932 0.406659 0
M  V30 6872 C 664.1 -1.6189 -0.522061 0
M  V30 6873 O 665.285 -1.8935 -0.431283 0
M  V30 6874 C 662.415 -3.45425 -0.360366 0
M  V30 6875 C 661.369 -4.25316 0.478574 0
M  V30 6876 C 660.695 -5.33076 -0.416373 0
M  V30 6877 C 661.995 -4.92739 1.7322 0
M  V30 6878 H 663.689 -2.72013 1.25097 0
M  V30 6879 H 661.235 -1.30768 0.602977 0
M  V30 6880 H 663.188 -4.15186 -0.721029 0
M  V30 6881 H 661.912 -3.02206 -1.23852 0
M  V30 6882 H 660.571 -3.57273 0.821662 0
M  V30 6883 H 660.219 -4.86101 -1.29287 0
M  V30 6884 H 659.919 -5.8743 0.141309 0
M  V30 6885 H 661.443 -6.05686 -0.773072 0
M  V30 6886 H 662.857 -5.54898 1.44086 0
M  V30 6887 H 661.254 -5.57057 2.23175 0
M  V30 6888 H 662.324 -4.17625 2.46408 0
M  V30 6889 N 663.667 -0.670007 -1.42649 0
M  V30 6890 C 664.913 -0.190568 -2.01903 0
M  V30 6891 C 665.246 1.19817 -1.52832 0
M  V30 6892 O 664.521 1.80342 -0.728485 0
M  V30 6893 C 664.804 -0.21991 -3.59428 0
M  V30 6894 C 664.657 -1.64376 -4.18689 0
M  V30 6895 C 665.976 0.434519 -4.3795 0
M  V30 6896 H 663.095 -0.0707219 -0.733599 0
M  V30 6897 H 665.737 -0.853883 -1.69732 0
M  V30 6898 H 663.887 0.344894 -3.86966 0
M  V30 6899 H 665.559 -2.26044 -4.02122 0
M  V30 6900 H 663.802 -2.18591 -3.747 0
M  V30 6901 H 664.473 -1.61601 -5.27815 0
M  V30 6902 H 666.949 -0.0462156 -4.16074 0
M  V30 6903 H 665.825 0.38333 -5.4756 0
M  V30 6904 H 666.086 1.51135 -4.15464 0
M  V30 6905 N 665.145 1.52092 -0.413018 0
M  V30 6906 C 666.37 2.06756 0.163338 0
M  V30 6907 C 666.795 1.28073 1.37764 0
M  V30 6908 O 666.153 0.312015 1.78595 0
M  V30 6909 C 666.201 3.57278 0.488322 0
M  V30 6910 O 665.305 3.80986 1.57871 0
M  V30 6911 H 664.646 0.663882 0.0125068 0
M  V30 6912 H 667.176 1.95988 -0.587339 0
M  V30 6913 H 667.186 4.01125 0.745836 0
M  V30 6914 H 665.861 4.13978 -0.399327 0
M  V30 6915 H 664.438 3.49017 1.31306 0
M  V30 6916 N 666.623 0.143563 1.56945 0
M  V30 6917 C 667.553 -0.7936 2.196 0
M  V30 6918 C 668.534 -1.25955 1.14321 0
M  V30 6919 O 669.719 -1.31773 1.42651 0
M  V30 6920 C 666.849 -2.03424 2.81489 0
M  V30 6921 C 665.803 -1.70519 3.92565 0
M  V30 6922 C 665.129 -3.01817 4.41373 0
M  V30 6923 C 666.429 -0.95449 5.13504 0
M  V30 6924 H 668.123 -0.271423 2.98167 0
M  V30 6925 H 665.669 -0.12911 1.4342 0
M  V30 6926 H 667.622 -2.69463 3.23987 0
M  V30 6927 H 666.346 -2.58008 2.00248 0
M  V30 6928 H 665.005 -1.06859 3.5068 0
M  V30 6929 H 664.653 -3.54386 3.56959 0
M  V30 6930 H 664.353 -2.80565 5.16292 0
M  V30 6931 H 665.877 -3.68934 4.86539 0
M  V30 6932 H 667.291 -1.5169 5.52868 0
M  V30 6933 H 665.688 -0.842035 5.94163 0
M  V30 6934 H 666.758 0.0544033 4.84869 0
M  V30 6935 N 668.101 -1.57061 -0.130224 0
M  V30 6936 C 669.378 -1.75205 -0.869631 0
M  V30 6937 C 669.758 -0.716063 -1.98584 0
M  V30 6938 O 669.106 0.262032 -2.26993 0
M  V30 6939 C 669.316 -3.19835 -1.39666 0
M  V30 6940 C 670.664 -3.82011 -1.85345 0
M  V30 6941 O 671.688 -3.23368 -1.49371 0
M  V30 6942 O 670.547 -4.85064 -2.51744 0
M  V30 6943 H 667.641 -0.716977 -0.412157 0
M  V30 6944 H 670.187 -1.69311 -0.11484 0
M  V30 6945 H 668.959 -3.86745 -0.595288 0
M  V30 6946 H 668.582 -3.30222 -2.21448 0
M  V30 6947 N 669.579 0.400081 -1.52437 0
M  V30 6948 C 670.509 1.4947 -1.7939 0
M  V30 6949 C 671.49 1.57383 -0.645329 0
M  V30 6950 O 672.675 1.72511 -0.891826 0
M  V30 6951 C 669.805 2.87201 -1.95276 0
M  V30 6952 C 668.759 2.94134 -3.10917 0
M  V30 6953 C 668.085 4.34207 -3.1204 0
M  V30 6954 C 669.385 2.64791 -4.50203 0
M  V30 6955 H 671.079 1.27165 -2.71052 0
M  V30 6956 H 668.625 0.610312 -1.30427 0
M  V30 6957 H 670.578 3.63772 -2.12715 0
M  V30 6958 H 669.302 3.10819 -1.00294 0
M  V30 6959 H 667.961 2.20009 -2.93243 0
M  V30 6960 H 667.609 4.54848 -2.14761 0
M  V30 6961 H 667.309 4.39768 -3.89715 0
M  V30 6962 H 668.833 5.127 -3.31619 0
M  V30 6963 H 670.247 3.31083 -4.68035 0
M  V30 6964 H 668.644 2.81717 -5.29864 0
M  V30 6965 H 669.714 1.60184 -4.57678 0
M  V30 6966 N 671.057 1.43213 0.657864 0
M  V30 6967 C 672.468 1.39669 1.23893 0
M  V30 6968 C 672.819 0.0984217 1.95953 0
M  V30 6969 O 671.944 -0.8023 2.00978 0
M  V30 6970 C 672.539 2.53004 2.25332 0
M  V30 6971 C 671.098 2.5274 2.78926 0
M  V30 6972 C 670.245 2.30941 1.53497 0
M  V30 6973 H 673.196 1.52181 0.450172 0
M  V30 6974 H 673.217 2.24226 3.07413 0
M  V30 6975 H 672.729 3.4748 1.72856 0
M  V30 6976 H 670.83 1.6213 3.35477 0
M  V30 6977 H 670.943 3.50352 3.26787 0
M  V30 6978 H 669.307 1.7952 1.80678 0
M  V30 6979 H 670.09 3.27496 1.02963 0
M  V30 6980 N 672.536 -0.895792 1.29666 0
M  V30 6981 C 673.466 -2.01673 1.17688 0
M  V30 6982 C 674.447 -1.69955 0.0701317 0
M  V30 6983 O 675.632 -1.9258 0.250289 0
M  V30 6984 C 672.762 -3.36568 0.856681 0
M  V30 6985 C 671.716 -3.82509 1.92017 0
M  V30 6986 C 671.042 -5.14574 1.4532 0
M  V30 6987 C 672.342 -4.02409 3.32963 0
M  V30 6988 H 674.036 -2.11953 2.11463 0
M  V30 6989 H 671.582 -1.01839 1.01807 0
M  V30 6990 H 673.535 -4.14498 0.759577 0
M  V30 6991 H 672.259 -3.26391 -0.116763 0
M  V30 6992 H 670.918 -3.068 2.00673 0
M  V30 6993 H 670.566 -5.00815 0.468325 0
M  V30 6994 H 670.266 -5.46283 2.16447 0
M  V30 6995 H 671.79 -5.9504 1.36968 0
M  V30 6996 H 673.204 -4.70808 3.27127 0
M  V30 6997 H 671.601 -4.45478 4.02082 0
M  V30 6998 H 672.671 -3.06616 3.75652 0
M  V30 6999 N 674.014 -1.12206 -1.10668 0
M  V30 7000 C 675.291 -0.787382 -1.79052 0
M  V30 7001 C 675.671 0.723267 -1.98323 0
M  V30 7002 O 675.019 1.6561 -1.57434 0
M  V30 7003 C 675.229 -1.55968 -3.1221 0
M  V30 7004 C 676.577 -1.74413 -3.87125 0
M  V30 7005 O 677.601 -1.5246 -3.21923 0
M  V30 7006 O 676.46 -2.10952 -5.04144 0
M  V30 7007 H 673.554 -0.286137 -0.775922 0
M  V30 7008 H 676.1 -1.22595 -1.1734 0
M  V30 7009 H 674.872 -2.58692 -2.93588 0
M  V30 7010 H 674.495 -1.1152 -3.8164 0
M  V30 7011 N 675.492 1.28418 -0.913599 0
M  V30 7012 C 676.903 1.77024 -0.593237 0
M  V30 7013 C 677.254 1.74779 0.891441 0
M  V30 7014 O 676.379 1.34237 1.69733 0
M  V30 7015 C 676.974 3.21456 -1.07011 0
M  V30 7016 C 675.533 3.67786 -0.800664 0
M  V30 7017 C 674.68 2.48185 -1.23691 0
M  V30 7018 H 677.631 1.14883 -1.09487 0
M  V30 7019 H 677.652 3.78269 -0.411481 0
M  V30 7020 H 677.164 3.23058 -2.1507 0
M  V30 7021 H 675.265 3.71644 0.266725 0
M  V30 7022 H 675.378 4.57934 -1.4083 0
M  V30 7023 H 673.742 2.46116 -0.655655 0
M  V30 7024 H 674.525 2.52506 -2.32585 0
M  V30 7025 N 676.97 0.677563 1.42291 0
M  V30 7026 C 677.9 0.014968 2.33495 0
M  V30 7027 C 678.881 -0.786376 1.50831 0
M  V30 7028 O 680.066 -0.742975 1.79426 0
M  V30 7029 C 677.196 -0.935023 3.34477 0
M  V30 7030 C 676.15 -0.242074 4.27315 0
M  V30 7031 C 675.476 -1.30519 5.18526 0
M  V30 7032 C 676.776 0.880604 5.14823 0
M  V30 7033 H 678.47 0.776671 2.89151 0
M  V30 7034 H 676.016 0.37494 1.39033 0
M  V30 7035 H 677.969 -1.40766 3.97194 0
M  V30 7036 H 676.693 -1.72818 2.77131 0
M  V30 7037 H 675.352 0.210351 3.65996 0
M  V30 7038 H 675 -2.09041 4.57505 0
M  V30 7039 H 674.7 -0.846652 5.81468 0
M  V30 7040 H 676.224 -1.7787 5.84119 0
M  V30 7041 H 677.638 0.489062 5.7121 0
M  V30 7042 H 676.035 1.26511 5.86613 0
M  V30 7043 H 677.105 1.72818 4.53059 0
M  V30 7044 N 678.448 -1.51871 0.421078 0
M  V30 7045 C 679.694 -2.02894 -0.143346 0
M  V30 7046 C 680.049 -1.30054 -1.41787 0
M  V30 7047 O 679.342 -0.401776 -1.8734 0
M  V30 7048 C 679.536 -3.54764 -0.433292 0
M  V30 7049 C 679.365 -4.42316 0.811584 0
M  V30 7050 C 678.135 -4.872 1.34033 0
M  V30 7051 C 680.333 -4.85631 1.69313 0
M  V30 7052 N 678.315 -5.58915 2.53944 0
M  V30 7053 C 679.686 -5.56248 2.7384 0
M  V30 7054 C 681.741 -4.67634 1.70947 0
M  V30 7055 C 680.444 -6.10777 3.79927 0
M  V30 7056 C 682.47 -5.23068 2.7596 0
M  V30 7057 C 681.832 -5.93617 3.79207 0
M  V30 7058 H 677.931 -0.78188 -0.0137104 0
M  V30 7059 H 680.515 -1.85919 0.578105 0
M  V30 7060 H 678.686 -3.71787 -1.12378 0
M  V30 7061 H 680.418 -3.92464 -0.987644 0
M  V30 7062 H 677.173 -4.65035 0.896606 0
M  V30 7063 H 677.597 -5.99408 3.14704 0
M  V30 7064 H 682.239 -4.12566 0.9246 0
M  V30 7065 H 679.957 -6.64909 4.59262 0
M  V30 7066 H 683.543 -5.11005 2.78147 0
M  V30 7067 H 682.423 -6.35743 4.5913 0
M  V30 7068 N 679.926 -0.151884 -1.56866 0
M  V30 7069 C 680.836 0.798876 -2.20579 0
M  V30 7070 C 681.852 1.268 -1.19154 0
M  V30 7071 O 683.028 1.32418 -1.51748 0
M  V30 7072 C 680.093 2.01861 -2.81874 0
M  V30 7073 C 679.154 1.59825 -3.9844 0
M  V30 7074 C 678.387 2.75984 -4.56802 0
M  V30 7075 O 678.61 3.92331 -4.14044 0
M  V30 7076 O 677.544 2.51175 -5.46987 0
M  V30 7077 H 681.37 0.2865 -3.02346 0
M  V30 7078 H 678.955 0.0753806 -1.4921 0
M  V30 7079 H 680.837 2.73235 -3.20813 0
M  V30 7080 H 679.512 2.52042 -2.03117 0
M  V30 7081 H 678.419 0.854601 -3.64208 0
M  V30 7082 H 679.752 1.14355 -4.78731 0
M  V30 7083 N 681.404 1.57128 0.121893 0
M  V30 7084 C 682.651 1.847 0.830188 0
M  V30 7085 C 682.979 0.736543 1.80015 0
M  V30 7086 O 682.234 -0.272358 1.93796 0
M  V30 7087 C 682.533 3.1874 1.61677 0
M  V30 7088 C 682.199 4.43901 0.791361 0
M  V30 7089 C 680.861 4.77887 0.563731 0
M  V30 7090 C 683.213 5.20753 0.215823 0
M  V30 7091 C 680.541 5.86168 -0.249737 0
M  V30 7092 C 682.893 6.29891 -0.584821 0
M  V30 7093 C 681.557 6.6241 -0.822794 0
M  V30 7094 H 680.827 0.675866 0.303787 0
M  V30 7095 H 683.474 1.91276 0.0926894 0
M  V30 7096 H 681.779 3.07728 2.42509 0
M  V30 7097 H 683.476 3.37295 2.16872 0
M  V30 7098 H 680.066 4.17272 0.978867 0
M  V30 7099 H 684.25 4.94851 0.378907 0
M  V30 7100 H 679.506 6.0979 -0.44336 0
M  V30 7101 H 683.68 6.88624 -1.03779 0
M  V30 7102 H 681.307 7.46147 -1.45496 0
M  V30 7103 N 682.882 -0.391992 1.52647 0
M  V30 7104 C 684.293 -0.970064 1.5952 0
M  V30 7105 C 684.644 -1.91059 0.446207 0
M  V30 7106 O 683.769 -2.12062 -0.431125 0
M  V30 7107 C 684.364 -1.76614 2.89125 0
M  V30 7108 C 682.923 -2.29396 2.9842 0
M  V30 7109 C 682.07 -1.09864 2.54608 0
M  V30 7110 H 685.021 -0.171638 1.57769 0
M  V30 7111 H 685.042 -2.62511 2.75442 0
M  V30 7112 H 684.554 -1.08135 3.72731 0
M  V30 7113 H 682.655 -3.01196 2.19344 0
M  V30 7114 H 682.768 -2.59088 4.03002 0
M  V30 7115 H 681.132 -1.45777 2.08857 0
M  V30 7116 H 681.915 -0.429249 3.40606 0
M  V30 7117 N 684.36 -1.4356 -0.65026 0
M  V30 7118 C 685.776 -1.27025 -0.966269 0
M  V30 7119 C 685.976 -0.192117 -2.00582 0
M  V30 7120 O 685.032 0.428459 -2.48838 0
M  V30 7121 C 686.345 -2.63556 -1.44772 0
M  V30 7122 C 687.893 -2.71111 -1.56421 0
M  V30 7123 C 688.368 -4.08067 -2.07956 0
M  V30 7124 N 689.859 -4.10146 -2.15254 0
M  V30 7125 C 690.594 -5.12952 -2.56258 0
M  V30 7126 N 690.09 -6.26129 -2.96537 0
M  V30 7127 N 691.883 -5.00306 -2.56224 0
M  V30 7128 H 684.034 -2.12367 0.0375758 0
M  V30 7129 H 686.297 -0.946894 -0.0457782 0
M  V30 7130 H 686.003 -3.43429 -0.758271 0
M  V30 7131 H 685.877 -2.89152 -2.42221 0
M  V30 7132 H 688.264 -1.91569 -2.24467 0
M  V30 7133 H 688.345 -2.49277 -0.573967 0
M  V30 7134 H 687.989 -4.88077 -1.40511 0
M  V30 7135 H 687.919 -4.27266 -3.07817 0
M  V30 7136 H 690.41 -3.28453 -1.86887 0
M  V30 7137 H 690.723 -7.00403 -3.26582 0
M  V30 7138 H 689.068 -6.29597 -2.94334 0
M  V30 7139 H 692.259 -4.10952 -2.24135 0
M  V30 7140 H 692.432 -5.80553 -2.87857 0
M  V30 7141 N 685.838 0.888903 -1.30139 0
M  V30 7142 C 687.115 1.62145 -1.094 0
M  V30 7143 C 687.495 2.08041 0.358091 0
M  V30 7144 O 686.843 1.84438 1.34888 0
M  V30 7145 C 687.053 2.794 -2.09133 0
M  V30 7146 C 688.401 3.49826 -2.40638 0
M  V30 7147 O 689.425 2.89583 -2.07412 0
M  V30 7148 O 688.284 4.58457 -2.97455 0
M  V30 7149 H 685.378 0.712475 -0.41989 0
M  V30 7150 H 687.924 0.936023 -1.41551 0
M  V30 7151 H 686.696 2.42762 -3.06891 0
M  V30 7152 H 686.319 3.55643 -1.77776 0
M  V30 7153 N 687.317 1.12792 1.10072 0
M  V30 7154 C 688.733 0.864745 1.34143 0
M  V30 7155 C 688.933 -0.503201 1.95116 0
M  V30 7156 O 687.989 -1.25111 2.19325 0
M  V30 7157 C 689.302 1.98413 2.25949 0
M  V30 7158 C 690.85 2.01545 2.39476 0
M  V30 7159 C 691.325 3.12727 3.34613 0
M  V30 7160 N 692.816 3.12194 3.42183 0
M  V30 7161 C 693.551 3.94862 4.15779 0
M  V30 7162 N 693.047 4.87528 4.92228 0
M  V30 7163 N 694.84 3.82985 4.11435 0
M  V30 7164 H 686.991 2.00926 0.68866 0
M  V30 7165 H 689.254 0.874564 0.365844 0
M  V30 7166 H 688.96 2.97005 1.88364 0
M  V30 7167 H 688.834 1.89254 3.26287 0
M  V30 7168 H 691.221 1.0357 2.76328 0
M  V30 7169 H 691.302 2.14777 1.3894 0
M  V30 7170 H 690.946 4.10936 2.98486 0
M  V30 7171 H 690.876 2.96732 4.35037 0
M  V30 7172 H 693.367 2.45065 2.87666 0
M  V30 7173 H 693.68 5.47109 5.45794 0
M  V30 7174 H 692.025 4.91539 4.9134 0
M  V30 7175 H 695.216 3.09923 3.50807 0
M  V30 7176 H 695.389 4.47641 4.68531 0
M  V30 7177 N 688.795 -1.27931 0.920396 0
M  V30 7178 C 689.725 -2.29487 0.431024 0
M  V30 7179 C 690.706 -1.62435 -0.504861 0
M  V30 7180 O 691.891 -1.89797 -0.411176 0
M  V30 7181 C 689.021 -3.45788 -0.323709 0
M  V30 7182 C 687.975 -4.24784 0.523658 0
M  V30 7183 C 687.301 -5.33488 -0.359809 0
M  V30 7184 C 688.601 -4.90874 1.78437 0
M  V30 7185 H 690.295 -2.70671 1.27975 0
M  V30 7186 H 687.841 -1.30121 0.616813 0
M  V30 7187 H 689.794 -4.15927 -0.676952 0
M  V30 7188 H 688.518 -3.03502 -1.2064 0
M  V30 7189 H 687.177 -3.56382 0.85951 0
M  V30 7190 H 686.825 -4.87445 -1.24124 0
M  V30 7191 H 686.525 -5.87247 0.203605 0
M  V30 7192 H 688.049 -6.06472 -0.708787 0
M  V30 7193 H 689.463 -5.53339 1.49963 0
M  V30 7194 H 687.86 -5.54659 2.29071 0
M  V30 7195 H 688.93 -4.14988 2.50824 0
M  V30 7196 N 690.273 -0.685099 -1.4193 0
M  V30 7197 C 691.519 -0.211971 -2.01689 0
M  V30 7198 C 691.852 1.18189 -1.54094 0
M  V30 7199 O 691.127 1.79559 -0.747572 0
M  V30 7200 C 691.41 -0.258019 -3.59174 0
M  V30 7201 C 691.263 -1.68807 -4.16922 0
M  V30 7202 C 692.582 0.388044 -4.38386 0
M  V30 7203 H 689.701 -0.0784987 -0.732808 0
M  V30 7204 H 692.343 -0.871837 -1.68816 0
M  V30 7205 H 690.493 0.303832 -3.8731 0
M  V30 7206 H 692.165 -2.30296 -3.99702 0
M  V30 7207 H 690.408 -2.22553 -3.72361 0
M  V30 7208 H 691.079 -1.6719 -5.26072 0
M  V30 7209 H 693.555 -0.0903432 -4.16002 0
M  V30 7210 H 692.431 0.325232 -5.47936 0
M  V30 7211 H 692.692 1.4672 -4.17044 0
M  V30 7212 N 691.751 1.51645 -0.429126 0
M  V30 7213 C 692.681 2.30434 0.377148 0
M  V30 7214 C 693.662 1.35493 1.02838 0
M  V30 7215 O 694.847 1.6441 1.03359 0
M  V30 7216 C 691.977 3.14038 1.48315 0
M  V30 7217 C 690.931 4.1719 0.955855 0
M  V30 7218 C 690.257 4.89263 2.15698 0
M  V30 7219 C 691.557 5.223 -0.00402136 0
M  V30 7220 H 693.251 2.98085 -0.280336 0
M  V30 7221 H 690.797 1.43354 -0.136265 0
M  V30 7222 H 692.75 3.67933 2.05435 0
M  V30 7223 H 691.474 2.44193 2.16881 0
M  V30 7224 H 690.133 3.64335 0.406929 0
M  V30 7225 H 689.781 4.15929 2.82864 0
M  V30 7226 H 689.481 5.59009 1.81059 0
M  V30 7227 H 691.005 5.45978 2.73387 0
M  V30 7228 H 692.419 5.71315 0.476607 0
M  V30 7229 H 690.816 5.99525 -0.26258 0
M  V30 7230 H 691.886 4.75638 -0.943236 0
M  V30 7231 N 693.229 0.160201 1.56784 0
M  V30 7232 C 694.477 -0.486625 1.96154 0
M  V30 7233 C 694.798 -1.64525 1.04673 0
M  V30 7234 O 694.068 -1.95586 0.110864 0
M  V30 7235 H 692.648 -0.182764 0.724297 0
M  V30 7236 H 695.31 0.238787 1.93432 0
M  V30 7237 H 694.406 -0.854025 3.00188 0
M  V30 7238 N 694.707 -1.5719 -0.113559 0
M  V30 7239 C 695.654 -2.00736 -1.13901 0
M  V30 7240 C 696.624 -0.88044 -1.40846 0
M  V30 7241 O 697.809 -1.14507 -1.5262 0
M  V30 7242 C 694.949 -2.42132 -2.45899 0
M  V30 7243 C 694.062 -3.68264 -2.25844 0
M  V30 7244 C 693.197 -3.98617 -3.5111 0
M  V30 7245 C 692.236 -5.17915 -3.26236 0
M  V30 7246 N 691.373 -5.44111 -4.4372 0
M  V30 7247 H 696.213 -2.88128 -0.760677 0
M  V30 7248 H 693.75 -1.42523 -0.364099 0
M  V30 7249 H 695.708 -2.6417 -3.22908 0
M  V30 7250 H 694.338 -1.57775 -2.81615 0
M  V30 7251 H 693.39 -3.53809 -1.39726 0
M  V30 7252 H 694.702 -4.55425 -2.03444 0
M  V30 7253 H 693.856 -4.21333 -4.36536 0
M  V30 7254 H 692.595 -3.09942 -3.76546 0
M  V30 7255 H 691.6 -4.95038 -2.39202 0
M  V30 7256 H 692.825 -6.08172 -3.02165 0
M  V30 7257 H 690.771 -4.58394 -4.69266 0
M  V30 7258 H 690.688 -6.25606 -4.24444 0
M  V30 7259 H 691.956 -5.71351 -5.30263 0
M  V30 7260 N 696.185 0.383891 -1.52853 0
M  V30 7261 C 697.596 0.961591 -1.60032 0
M  V30 7262 C 697.947 1.90819 -0.456333 0
M  V30 7263 O 697.072 2.12288 0.419873 0
M  V30 7264 C 697.667 1.75078 -2.90057 0
M  V30 7265 C 696.226 2.2781 -2.99632 0
M  V30 7266 C 695.373 1.08512 -2.55187 0
M  V30 7267 H 698.324 0.163269 -1.57858 0
M  V30 7268 H 698.345 2.61046 -2.7683 0
M  V30 7269 H 697.857 1.06157 -3.73299 0
M  V30 7270 H 695.958 3.00028 -2.20939 0
M  V30 7271 H 696.071 2.56947 -4.0437 0
M  V30 7272 H 694.435 1.44667 -2.09627 0
M  V30 7273 H 695.218 0.41118 -3.40829 0
M  V30 7274 N 697.663 1.43903 0.642637 0
M  V30 7275 C 698.593 1.52697 1.76652 0
M  V30 7276 C 699.574 0.380816 1.65782 0
M  V30 7277 O 700.759 0.599432 1.84717 0
M  V30 7278 C 697.889 1.45975 3.15133 0
M  V30 7279 C 696.843 2.58949 3.40778 0
M  V30 7280 C 696.169 2.37279 4.79169 0
M  V30 7281 C 697.469 4.01153 3.34475 0
M  V30 7282 H 699.163 2.46766 1.69549 0
M  V30 7283 H 696.709 1.18767 0.814279 0
M  V30 7284 H 698.662 1.5073 3.93521 0
M  V30 7285 H 697.386 0.484162 3.22991 0
M  V30 7286 H 696.045 2.53564 2.64765 0
M  V30 7287 H 695.693 1.37939 4.83717 0
M  V30 7288 H 695.393 3.13016 4.97287 0
M  V30 7289 H 696.917 2.43834 5.59801 0
M  V30 7290 H 698.331 4.07968 4.02784 0
M  V30 7291 H 696.728 4.77001 3.64129 0
M  V30 7292 H 697.798 4.25539 2.32475 0
M  V30 7293 N 699.141 -0.881989 1.30609 0
M  V30 7294 C 700.389 -1.63082 1.19368 0
M  V30 7295 C 700.71 -1.93376 -0.251147 0
M  V30 7296 O 699.98 -1.5723 -1.16857 0
M  V30 7297 H 698.56 -0.604542 0.438791 0
M  V30 7298 H 701.222 -1.05658 1.63776 0
M  V30 7299 H 700.318 -2.57966 1.7567 0
M  V30 7300 N 700.619 -1.13374 -1.09472 0
M  V30 7301 C 701.529 -0.824029 -2.19652 0
M  V30 7302 C 702.545 0.19118 -1.72947 0
M  V30 7303 O 703.721 0.0223464 -2.01388 0
M  V30 7304 C 700.786 -0.294009 -3.45451 0
M  V30 7305 C 699.847 -1.3704 -4.0684 0
M  V30 7306 C 699.08 -0.86558 -5.26634 0
M  V30 7307 O 699.303 0.29702 -5.69626 0
M  V30 7308 O 698.237 -1.63968 -5.79136 0
M  V30 7309 H 702.063 -1.74454 -2.48595 0
M  V30 7310 H 699.648 -0.911155 -1.18399 0
M  V30 7311 H 701.53 -0.00381039 -4.214 0
M  V30 7312 H 700.205 0.598921 -3.18111 0
M  V30 7313 H 699.112 -1.71391 -3.3253 0
M  V30 7314 H 700.445 -2.23746 -4.38405 0
M  V30 7315 N 702.098 1.27442 -0.927168 0
M  V30 7316 C 703.346 1.94007 -0.566203 0
M  V30 7317 C 703.667 1.7323 0.895345 0
M  V30 7318 O 702.937 1.07973 1.63459 0
M  V30 7319 H 701.517 0.717917 -0.206409 0
M  V30 7320 H 704.179 1.55161 -1.17945 0
M  V30 7321 H 703.275 3.02401 -0.772028 0
M  V30 7322 N 703.576 0.692616 1.41565 0
M  V30 7323 C 704.816 0.226453 2.03142 0
M  V30 7324 C 705.18 -1.1512 1.5366 0
M  V30 7325 O 706.381 -1.71305 2.07143 0
M  V30 7326 C 704.652 0.27855 3.56313 0
M  V30 7327 S 706.211 -0.114001 4.38652 0
M  V30 7328 H 703.029 0.0914767 0.705091 0
M  V30 7329 H 705.631 0.909737 1.73043 0
M  V30 7330 H 704.335 1.28325 3.89821 0
M  V30 7331 H 703.866 -0.423981 3.91109 0
M  V30 7332 H 705.881 -1.34256 4.77692 0
M  V30 7333 N 705.054 -1.51416 0.437162 0
M  V30 7334 C 706.301 -2.02086 -0.129364 0
M  V30 7335 C 706.629 -1.32133 -1.42728 0
M  V30 7336 O 705.884 -0.424916 -1.91031 0
M  V30 7337 C 706.183 -3.55203 -0.39564 0
M  V30 7338 C 705.849 -4.43447 0.81644 0
M  V30 7339 C 704.511 -4.67285 1.14884 0
M  V30 7340 C 706.863 -4.95219 1.62503 0
M  V30 7341 C 704.191 -5.40141 2.29052 0
M  V30 7342 C 706.543 -5.69327 2.7577 0
M  V30 7343 C 705.207 -5.91429 3.09464 0
M  V30 7344 H 704.477 -0.739486 -0.0473375 0
M  V30 7345 H 707.124 -1.82368 0.584321 0
M  V30 7346 H 705.429 -3.73252 -1.19121 0
M  V30 7347 H 707.126 -3.91944 -0.847399 0
M  V30 7348 H 703.716 -4.2509 0.547422 0
M  V30 7349 H 707.9 -4.76686 1.38144 0
M  V30 7350 H 703.156 -5.55468 2.55471 0
M  V30 7351 H 707.33 -6.08433 3.38795 0
M  V30 7352 H 704.957 -6.47662 3.98042 0
M  V30 7353 N 706.532 -0.168513 -1.56696 0
M  V30 7354 C 707.78 0.476216 -1.96409 0
M  V30 7355 C 708.101 1.63968 -1.05544 0
M  V30 7356 O 707.371 1.95525 -0.121235 0
M  V30 7357 H 705.951 0.178921 -0.725256 0
M  V30 7358 H 708.613 -0.249042 -1.93302 0
M  V30 7359 H 707.709 0.838094 -3.00637 0
M  V30 7360 N 708.01 1.57248 0.105221 0
M  V30 7361 C 708.942 1.98008 1.15436 0
M  V30 7362 C 709.955 0.881236 1.36887 0
M  V30 7363 O 711.144 1.15943 1.35718 0
M  V30 7364 C 708.244 2.27509 2.51183 0
M  V30 7365 C 707.417 3.58811 2.50147 0
M  V30 7366 C 706.476 3.76365 3.67745 0
M  V30 7367 O 705.502 4.48329 3.50699 0
M  V30 7368 N 706.704 3.16174 4.86841 0
M  V30 7369 H 709.469 2.88616 0.807519 0
M  V30 7370 H 707.03 1.59202 0.29433 0
M  V30 7371 H 709.022 2.36455 3.28438 0
M  V30 7372 H 707.592 1.42959 2.77995 0
M  V30 7373 H 706.812 3.60927 1.5851 0
M  V30 7374 H 708.1 4.45088 2.46524 0
M  V30 7375 H 707.498 2.57701 5.03594 0
M  V30 7376 H 706.055 3.30621 5.61723 0
M  V30 7377 N 709.488 -0.375779 1.53054 0
M  V30 7378 C 710.734 -1.12114 1.68992 0
M  V30 7379 C 711.067 -1.8926 0.435238 0
M  V30 7380 O 710.342 -1.86044 -0.567278 0
M  V30 7381 C 710.625 -2.08867 2.93337 0
M  V30 7382 C 710.478 -1.35397 4.28938 0
M  V30 7383 C 711.797 -3.09124 3.13257 0
M  V30 7384 H 708.916 -0.406207 0.614951 0
M  V30 7385 H 711.558 -0.403054 1.85676 0
M  V30 7386 H 709.708 -2.70102 2.79244 0
M  V30 7387 H 711.38 -0.770242 4.54824 0
M  V30 7388 H 709.623 -0.655801 4.28814 0
M  V30 7389 H 710.294 -2.06161 5.12056 0
M  V30 7390 H 712.77 -2.57987 3.26469 0
M  V30 7391 H 711.646 -3.74054 4.01715 0
M  V30 7392 H 711.907 -3.78729 2.28072 0
M  V30 7393 N 710.966 -1.44241 -0.634997 0
M  V30 7394 C 712.212 -1.47038 -1.39669 0
M  V30 7395 C 712.545 -0.101122 -1.93937 0
M  V30 7396 O 711.82 0.880699 -1.73418 0
M  V30 7397 C 712.103 -2.52763 -2.56482 0
M  V30 7398 C 711.956 -3.99032 -2.07589 0
M  V30 7399 C 713.275 -2.55031 -3.58674 0
M  V30 7400 H 710.394 -0.53537 -0.506506 0
M  V30 7401 H 713.036 -1.75898 -0.718317 0
M  V30 7402 H 711.186 -2.28284 -3.14354 0
M  V30 7403 H 712.858 -4.3463 -1.54577 0
M  V30 7404 H 711.101 -4.10994 -1.38804 0
M  V30 7405 H 711.772 -4.68649 -2.91671 0
M  V30 7406 H 714.248 -2.76893 -3.10595 0
M  V30 7407 H 713.124 -3.30916 -4.37934 0
M  V30 7408 H 713.385 -1.59085 -4.12486 0
M  V30 7409 N 712.444 0.87505 -1.31075 0
M  V30 7410 C 713.86 1.15997 -1.09622 0
M  V30 7411 C 714.06 2.01036 0.136611 0
M  V30 7412 O 713.116 2.38559 0.827397 0
M  V30 7413 C 714.429 1.85702 -2.36506 0
M  V30 7414 C 715.977 1.98425 -2.42067 0
M  V30 7415 C 716.452 2.71544 -3.68819 0
M  V30 7416 N 717.943 2.79084 -3.69684 0
M  V30 7417 C 718.678 3.36259 -4.64454 0
M  V30 7418 N 718.174 3.94406 -5.69575 0
M  V30 7419 N 719.967 3.34169 -4.51982 0
M  V30 7420 H 712.118 0.308258 -2.10151 0
M  V30 7421 H 714.381 0.199145 -0.926847 0
M  V30 7422 H 714.087 1.30663 -3.26527 0
M  V30 7423 H 713.961 2.86017 -2.45915 0
M  V30 7424 H 716.348 2.5263 -1.52518 0
M  V30 7425 H 716.429 0.971682 -2.36626 0
M  V30 7426 H 716.073 2.18008 -4.58732 0
M  V30 7427 H 716.003 3.73198 -3.71525 0
M  V30 7428 H 718.494 2.3781 -2.93691 0
M  V30 7429 H 718.807 4.36129 -6.37974 0
M  V30 7430 H 717.152 3.92797 -5.73355 0
M  V30 7431 H 720.343 2.87977 -3.69035 0
M  V30 7432 H 720.516 3.78431 -5.26017 0
M  V30 7433 N 713.922 1.13953 1.08869 0
M  V30 7434 C 714.885 0.824991 2.13838 0
M  V30 7435 C 715.885 -0.168198 1.59918 0
M  V30 7436 O 717.075 0.0595778 1.74098 0
M  V30 7437 C 714.207 0.228938 3.4013 0
M  V30 7438 H 715.4 1.75521 2.43171 0
M  V30 7439 H 712.953 0.94492 1.24503 0
M  V30 7440 H 713.688 -0.710227 3.16427 0
M  V30 7441 H 713.473 0.944243 3.80561 0
M  V30 7442 H 714.963 0.0259223 4.17592 0
M  V30 7443 N 715.4 -1.26948 0.933913 0
M  V30 7444 C 716.31 -2.30366 0.443671 0
M  V30 7445 C 717.326 -1.67284 -0.478745 0
M  V30 7446 O 718.502 -1.98156 -0.360043 0
M  V30 7447 C 715.567 -3.45485 -0.289974 0
M  V30 7448 C 714.628 -4.24069 0.668114 0
M  V30 7449 C 713.861 -5.33691 -0.0306138 0
M  V30 7450 O 714.084 -5.5656 -1.24888 0
M  V30 7451 O 713.018 -5.98441 0.644384 0
M  V30 7452 H 716.844 -2.74349 1.30254 0
M  V30 7453 H 714.429 -1.32012 0.699506 0
M  V30 7454 H 716.311 -4.15486 -0.70353 0
M  V30 7455 H 714.986 -3.03546 -1.12435 0
M  V30 7456 H 713.893 -3.56579 1.13147 0
M  V30 7457 H 715.226 -4.69739 1.46989 0
M  V30 7458 N 716.879 -0.700114 -1.41195 0
M  V30 7459 C 717.842 -0.0465706 -2.29153 0
M  V30 7460 C 718.842 0.703302 -1.44604 0
M  V30 7461 O 720.032 0.537513 -1.657 0
M  V30 7462 C 717.164 0.944324 -3.2756 0
M  V30 7463 H 718.357 -0.821064 -2.88442 0
M  V30 7464 H 715.91 -0.463869 -1.49258 0
M  V30 7465 H 716.645 1.74642 -2.73259 0
M  V30 7466 H 716.43 0.409701 -3.89954 0
M  V30 7467 H 717.92 1.39925 -3.9346 0
M  V30 7468 N 718.357 1.51182 -0.445186 0
M  V30 7469 C 719.604 2.02152 0.118645 0
M  V30 7470 C 719.932 1.32888 1.42025 0
M  V30 7471 O 719.187 0.435041 1.90803 0
M  V30 7472 C 719.486 3.55408 0.376797 0
M  V30 7473 C 719.152 4.43008 -0.839945 0
M  V30 7474 C 717.814 4.66669 -1.17361 0
M  V30 7475 C 720.166 4.9435 -1.65127 0
M  V30 7476 C 717.494 5.38919 -2.31913 0
M  V30 7477 C 719.846 5.67857 -2.78786 0
M  V30 7478 C 718.51 5.89779 -3.12597 0
M  V30 7479 H 717.78 0.739727 0.0434152 0
M  V30 7480 H 720.427 1.82055 -0.593984 0
M  V30 7481 H 718.732 3.73879 1.1714 0
M  V30 7482 H 720.429 3.92388 0.826602 0
M  V30 7483 H 717.019 4.24793 -0.569958 0
M  V30 7484 H 721.203 4.75947 -1.4067 0
M  V30 7485 H 716.459 5.54105 -2.58413 0
M  V30 7486 H 720.633 6.06628 -3.42017 0
M  V30 7487 H 718.26 6.45542 -4.01471 0
M  V30 7488 N 719.835 0.176821 1.56605 0
M  V30 7489 C 721.083 -0.465793 1.96659 0
M  V30 7490 C 721.404 -1.63406 1.06412 0
M  V30 7491 O 720.674 -1.95457 0.131603 0
M  V30 7492 H 719.254 -0.175072 0.726195 0
M  V30 7493 H 721.916 0.25929 1.93168 0
M  V30 7494 H 721.012 -0.822138 3.01077 0
M  V30 7495 N 721.313 -1.57302 -0.09688 0
M  V30 7496 C 722.246 -1.97179 -1.14872 0
M  V30 7497 C 723.224 -0.844734 -1.38935 0
M  V30 7498 O 724.408 -1.10487 -1.52725 0
M  V30 7499 C 721.535 -2.28703 -2.49826 0
M  V30 7500 C 720.581 -3.51158 -2.42054 0
M  V30 7501 S 721.414 -5.0294 -1.83879 0
M  V30 7502 C 722.57 -5.37639 -3.2046 0
M  V30 7503 H 722.803 -2.86088 -0.808771 0
M  V30 7504 H 720.336 -1.51368 -0.304492 0
M  V30 7505 H 722.294 -2.47541 -3.27466 0
M  V30 7506 H 720.955 -1.40368 -2.8099 0
M  V30 7507 H 720.148 -3.70651 -3.41517 0
M  V30 7508 H 719.75 -3.31821 -1.72543 0
M  V30 7509 H 722.042 -5.34175 -4.16729 0
M  V30 7510 H 722.985 -6.38677 -3.05773 0
M  V30 7511 H 723.393 -4.651 -3.19909 0
M  V30 7512 N 722.791 0.367657 -1.53252 0
M  V30 7513 C 724.068 1.12606 -1.59935 0
M  V30 7514 C 724.448 2.07167 -0.405606 0
M  V30 7515 O 723.796 2.20364 0.604323 0
M  V30 7516 C 724.006 1.86699 -2.94863 0
M  V30 7517 C 725.354 2.41306 -3.49366 0
M  V30 7518 O 726.378 1.96828 -2.96879 0
M  V30 7519 O 725.237 3.2261 -4.41118 0
M  V30 7520 H 722.331 0.516438 -0.645926 0
M  V30 7521 H 724.877 0.371088 -1.65593 0
M  V30 7522 H 723.649 1.17674 -3.73187 0
M  V30 7523 H 723.272 2.6911 -2.92687 0
M  V30 7524 N 724.269 1.44576 0.627338 0
M  V30 7525 C 725.68 1.42266 1.20902 0
M  V30 7526 C 726.031 0.139964 1.957 0
M  V30 7527 O 725.156 -0.759489 2.02634 0
M  V30 7528 C 725.751 2.57727 2.19914 0
M  V30 7529 C 724.31 2.58599 2.73502 0
M  V30 7530 C 723.457 2.34145 1.48564 0
M  V30 7531 H 726.408 1.53102 0.417791 0
M  V30 7532 H 726.429 2.30697 3.02588 0
M  V30 7533 H 725.941 3.51068 1.65447 0
M  V30 7534 H 724.042 1.6921 3.31962 0
M  V30 7535 H 724.155 3.57205 3.19282 0
M  V30 7536 H 722.519 1.83313 1.76829 0
M  V30 7537 H 723.302 3.29606 0.959935 0
M  V30 7538 N 725.747 -0.868086 1.31537 0
M  V30 7539 C 726.71 -1.95703 1.19302 0
M  V30 7540 C 727.71 -1.60355 0.119612 0
M  V30 7541 O 728.9 -1.70247 0.36902 0
M  V30 7542 C 726.032 -3.30599 0.831684 0
M  V30 7543 H 727.225 -2.07982 2.16064 0
M  V30 7544 H 724.778 -1.05661 1.15176 0
M  V30 7545 H 725.513 -3.2402 -0.134694 0
M  V30 7546 H 725.298 -3.57629 1.60761 0
M  V30 7547 H 726.788 -4.10439 0.770026 0
M  V30 7548 N 727.225 -1.14528 -1.08264 0
M  V30 7549 C 728.641 -0.885976 -1.3275 0
M  V30 7550 C 728.841 0.472096 -1.95892 0
M  V30 7551 O 727.897 1.21606 -2.21288 0
M  V30 7552 C 729.21 -2.01982 -2.22764 0
M  V30 7553 C 730.758 -2.05329 -2.36239 0
M  V30 7554 C 731.233 -3.1801 -3.29596 0
M  V30 7555 N 732.724 -3.17598 -3.37173 0
M  V30 7556 C 733.459 -4.01426 -4.09444 0
M  V30 7557 N 732.955 -4.95297 -4.8441 0
M  V30 7558 N 734.748 -3.89482 -4.0529 0
M  V30 7559 H 726.899 -2.01996 -0.656607 0
M  V30 7560 H 729.162 -0.880274 -0.351884 0
M  V30 7561 H 728.868 -2.99964 -1.83615 0
M  V30 7562 H 728.742 -1.94421 -3.23234 0
M  V30 7563 H 731.129 -1.07953 -2.74646 0
M  V30 7564 H 731.21 -2.1696 -1.35506 0
M  V30 7565 H 730.854 -4.15633 -2.9191 0
M  V30 7566 H 730.784 -3.03616 -4.30261 0
M  V30 7567 H 733.275 -2.4961 -2.83731 0
M  V30 7568 H 733.588 -5.55723 -5.37021 0
M  V30 7569 H 731.933 -4.99293 -4.83457 0
M  V30 7570 H 735.124 -3.15465 -3.45832 0
M  V30 7571 H 735.297 -4.55039 -4.6135 0
M  V30 7572 N 728.703 1.26451 -0.940633 0
M  V30 7573 C 730.114 1.75726 -0.630653 0
M  V30 7574 C 730.465 1.76631 0.854167 0
M  V30 7575 O 729.59 1.37807 1.66848 0
M  V30 7576 C 730.185 3.19114 -1.13805 0
M  V30 7577 C 728.744 3.66005 -0.878497 0
M  V30 7578 C 727.891 2.45505 -1.28928 0
M  V30 7579 H 730.842 1.12535 -1.119 0
M  V30 7580 H 730.863 3.77311 -0.491625 0
M  V30 7581 H 730.375 3.18424 -2.21874 0
M  V30 7582 H 728.476 3.72126 0.187833 0
M  V30 7583 H 728.589 4.54844 -1.50512 0
M  V30 7584 H 726.953 2.4467 -0.707713 0
M  V30 7585 H 727.736 2.47516 -2.37888 0
M  V30 7586 N 730.181 0.707592 1.40822 0
M  V30 7587 C 731.458 0.171172 1.9485 0
M  V30 7588 C 731.838 -1.32143 1.64625 0
M  V30 7589 O 731.186 -2.07372 0.959647 0
M  V30 7590 C 731.396 0.475334 3.45748 0
M  V30 7591 C 732.744 0.409625 4.22619 0
M  V30 7592 O 733.768 0.410934 3.53822 0
M  V30 7593 O 732.627 0.380185 5.45176 0
M  V30 7594 H 729.721 0.022015 0.826707 0
M  V30 7595 H 732.267 0.784577 1.50474 0
M  V30 7596 H 731.039 1.50801 3.61075 0
M  V30 7597 H 730.662 -0.168439 3.97243 0
M  V30 7598 N 731.66 -1.50943 0.453197 0
M  V30 7599 C 732.592 -2.25922 -0.38623 0
M  V30 7600 C 733.605 -1.3055 -0.972652 0
M  V30 7601 O 734.794 -1.56191 -0.864097 0
M  V30 7602 C 731.894 -3.01176 -1.5539 0
M  V30 7603 C 731.067 -4.23768 -1.0835 0
M  V30 7604 C 730.126 -4.81466 -2.12313 0
M  V30 7605 O 729.152 -5.42875 -1.71101 0
M  V30 7606 N 730.354 -4.66889 -3.44956 0
M  V30 7607 H 733.119 -2.98601 0.256468 0
M  V30 7608 H 730.68 -1.59408 0.282965 0
M  V30 7609 H 732.672 -3.36659 -2.24594 0
M  V30 7610 H 731.242 -2.31409 -2.10163 0
M  V30 7611 H 730.462 -3.93597 -0.217961 0
M  V30 7612 H 731.75 -5.03289 -0.746857 0
M  V30 7613 H 731.148 -4.18011 -3.81161 0
M  V30 7614 H 729.705 -5.06691 -4.1001 0
M  V30 7615 N 733.138 -0.185124 -1.56509 0
M  V30 7616 C 734.101 0.72591 -2.17401 0
M  V30 7617 C 735.101 1.14819 -1.12575 0
M  V30 7618 O 736.291 1.0629 -1.38015 0
M  V30 7619 C 733.423 1.98979 -2.76803 0
M  V30 7620 H 734.616 0.195588 -2.99262 0
M  V30 7621 H 732.169 0.0644772 -1.56167 0
M  V30 7622 H 732.904 2.56287 -1.98714 0
M  V30 7623 H 732.689 1.69583 -3.53531 0
M  V30 7624 H 734.179 2.63966 -3.23592 0
M  V30 7625 N 734.616 1.57351 0.0885366 0
M  V30 7626 C 735.841 1.91011 0.80805 0
M  V30 7627 C 736.266 0.780009 1.71165 0
M  V30 7628 O 735.624 -0.268083 1.79307 0
M  V30 7629 C 735.672 3.23562 1.59185 0
M  V30 7630 O 734.776 3.11615 2.7013 0
M  V30 7631 H 734.117 0.625943 0.221565 0
M  V30 7632 H 736.647 2.04507 0.0617954 0
M  V30 7633 H 736.657 3.5703 1.97468 0
M  V30 7634 H 735.332 4.05398 0.928741 0
M  V30 7635 H 733.909 2.89673 2.34827 0
M  V30 7636 N 736.094 -0.359525 1.53444 0
M  V30 7637 C 737.322 -1.12198 1.73837 0
M  V30 7638 C 737.737 -1.82854 0.470107 0
M  V30 7639 O 737.094 -1.73781 -0.557349 0
M  V30 7640 C 737.145 -2.14769 2.90786 0
M  V30 7641 O 736.866 -1.46989 4.12706 0
M  V30 7642 C 738.367 -3.03514 3.231 0
M  V30 7643 H 735.587 -0.33524 0.581253 0
M  V30 7644 H 738.131 -0.416598 2.00212 0
M  V30 7645 H 736.286 -2.80896 2.66788 0
M  V30 7646 H 736.7 -2.15378 4.78239 0
M  V30 7647 H 738.174 -3.71453 4.08322 0
M  V30 7648 H 738.651 -3.68658 2.38721 0
M  V30 7649 H 739.257 -2.42996 3.49046 0
M  V30 7650 N 737.572 -1.44907 -0.619662 0
M  V30 7651 C 738.818 -1.48512 -1.38102 0
M  V30 7652 C 739.151 -0.121686 -1.93818 0
M  V30 7653 O 738.426 0.862256 -1.74343 0
M  V30 7654 C 738.709 -2.55469 -2.53787 0
M  V30 7655 C 738.562 -4.01212 -2.03345 0
M  V30 7656 C 739.881 -2.58821 -3.55949 0
M  V30 7657 H 737 -0.540712 -0.500799 0
M  V30 7658 H 739.642 -1.7665 -0.69962 0
M  V30 7659 H 737.792 -2.31606 -3.11915 0
M  V30 7660 H 739.464 -4.36245 -1.49959 0
M  V30 7661 H 737.707 -4.12443 -1.34438 0
M  V30 7662 H 738.378 -4.71717 -2.86683 0
M  V30 7663 H 740.854 -2.80172 -3.07641 0
M  V30 7664 H 739.73 -3.35542 -4.34399 0
M  V30 7665 H 739.991 -1.63451 -4.10775 0
M  V30 7666 N 739.05 0.861098 -1.31996 0
M  V30 7667 C 740.013 1.95068 -1.20338 0
M  V30 7668 C 741.013 1.60289 -0.128114 0
M  V30 7669 O 742.203 1.70048 -0.378044 0
M  V30 7670 C 739.335 3.30153 -0.849205 0
M  V30 7671 H 740.528 2.06833 -2.17164 0
M  V30 7672 H 738.081 1.05049 -1.15734 0
M  V30 7673 H 738.816 3.24087 0.117508 0
M  V30 7674 H 738.601 3.56771 -1.62655 0
M  V30 7675 H 740.091 4.10025 -0.791782 0
M  V30 7676 N 740.528 1.15101 1.07655 0
M  V30 7677 C 741.774 0.925343 1.80458 0
M  V30 7678 C 742.107 -0.546354 1.86356 0
M  V30 7679 O 741.382 -1.40496 1.34503 0
M  V30 7680 C 741.665 1.53646 3.25676 0
M  V30 7681 C 741.518 3.07854 3.27942 0
M  V30 7682 C 742.837 1.21968 4.22861 0
M  V30 7683 H 739.956 0.337592 0.655134 0
M  V30 7684 H 742.598 1.42217 1.25993 0
M  V30 7685 H 740.748 1.11395 3.72187 0
M  V30 7686 H 742.42 3.58989 2.89697 0
M  V30 7687 H 740.663 3.41904 2.66991 0
M  V30 7688 H 741.334 3.45725 4.30324 0
M  V30 7689 H 743.81 1.5851 3.84726 0
M  V30 7690 H 742.686 1.67349 5.22767 0
M  V30 7691 H 742.947 0.136207 4.4189 0
M  V30 7692 N 742.006 -1.2595 0.947325 0
M  V30 7693 C 742.953 -2.26159 0.460497 0
M  V30 7694 C 743.923 -1.58919 -0.483125 0
M  V30 7695 O 745.108 -1.86603 -0.397983 0
M  V30 7696 C 742.248 -3.441 -0.26247 0
M  V30 7697 C 741.361 -4.25999 0.717539 0
M  V30 7698 C 740.496 -5.31193 -0.0272486 0
M  V30 7699 C 739.535 -6.04774 0.944177 0
M  V30 7700 N 738.672 -7.01721 0.230741 0
M  V30 7701 H 743.512 -2.67173 1.31995 0
M  V30 7702 H 741.049 -1.31358 0.662088 0
M  V30 7703 H 743.007 -4.11317 -0.698137 0
M  V30 7704 H 741.637 -3.03983 -1.08602 0
M  V30 7705 H 740.689 -3.58513 1.27171 0
M  V30 7706 H 742.001 -4.76981 1.45913 0
M  V30 7707 H 741.155 -6.04451 -0.521903 0
M  V30 7708 H 739.894 -4.81066 -0.801682 0
M  V30 7709 H 738.899 -5.30338 1.4499 0
M  V30 7710 H 740.124 -6.56991 1.71872 0
M  V30 7711 H 738.07 -6.53895 -0.525088 0
M  V30 7712 H 737.987 -7.50484 0.911556 0
M  V30 7713 H 739.255 -7.79122 -0.242616 0
M  V30 7714 N 743.484 -0.715051 -1.40445 0
M  V30 7715 C 744.417 -0.0112426 -2.28197 0
M  V30 7716 C 745.395 0.768211 -1.43308 0
M  V30 7717 O 746.579 0.754961 -1.72721 0
M  V30 7718 C 743.706 0.991453 -3.23864 0
M  V30 7719 C 742.752 0.302873 -4.25423 0
M  V30 7720 S 743.585 -0.968852 -5.26663 0
M  V30 7721 C 744.741 0.0317538 -6.25892 0
M  V30 7722 H 744.974 -0.755467 -2.87541 0
M  V30 7723 H 742.507 -0.506054 -1.45871 0
M  V30 7724 H 744.465 1.56475 -3.79507 0
M  V30 7725 H 743.126 1.70838 -2.63578 0
M  V30 7726 H 742.319 1.06086 -4.92709 0
M  V30 7727 H 741.921 -0.197853 -3.73476 0
M  V30 7728 H 744.213 0.878764 -6.71777 0
M  V30 7729 H 745.156 -0.607698 -7.05488 0
M  V30 7730 H 745.564 0.39524 -5.63115 0
M  V30 7731 N 744.962 1.50701 -0.461195 0
M  V30 7732 C 745.892 2.31182 0.328184 0
M  V30 7733 C 746.873 1.37644 0.999408 0
M  V30 7734 O 748.058 1.66565 0.99848 0
M  V30 7735 C 745.188 3.17113 1.41621 0
M  V30 7736 C 744.142 4.19124 0.867148 0
M  V30 7737 C 743.468 4.93728 2.05272 0
M  V30 7738 C 744.768 5.22174 -0.114808 0
M  V30 7739 H 746.462 2.97423 -0.343501 0
M  V30 7740 H 744.008 1.43033 -0.166641 0
M  V30 7741 H 745.961 3.72208 1.97584 0
M  V30 7742 H 744.685 2.48739 2.11652 0
M  V30 7743 H 743.344 3.65116 0.329557 0
M  V30 7744 H 742.992 4.21835 2.73978 0
M  V30 7745 H 742.692 5.62724 1.69161 0
M  V30 7746 H 744.216 5.51654 2.61744 0
M  V30 7747 H 745.63 5.72198 0.355316 0
M  V30 7748 H 744.027 5.98833 -0.389689 0
M  V30 7749 H 745.097 4.7353 -1.04391 0
M  V30 7750 N 746.441 0.193421 1.56409 0
M  V30 7751 C 747.388 -0.728124 2.19014 0
M  V30 7752 C 748.358 -1.21098 1.13686 0
M  V30 7753 O 749.543 -1.27517 1.4193 0
M  V30 7754 C 746.683 -1.94277 2.8522 0
M  V30 7755 C 745.796 -1.50143 4.05069 0
M  V30 7756 C 744.931 -2.67145 4.59137 0
M  V30 7757 C 743.97 -2.19609 5.71348 0
M  V30 7758 N 743.107 -3.29782 6.19829 0
M  V30 7759 H 747.947 -0.187499 2.9741 0
M  V30 7760 H 745.484 -0.0808064 1.46878 0
M  V30 7761 H 747.442 -2.65551 3.21774 0
M  V30 7762 H 746.072 -2.45673 2.09391 0
M  V30 7763 H 745.124 -0.684624 3.74189 0
M  V30 7764 H 746.436 -1.11266 4.86232 0
M  V30 7765 H 745.59 -3.46544 4.97988 0
M  V30 7766 H 744.329 -3.09295 3.77078 0
M  V30 7767 H 743.334 -1.38664 5.32027 0
M  V30 7768 H 744.559 -1.78492 6.55223 0
M  V30 7769 H 742.505 -3.71466 5.40693 0
M  V30 7770 H 742.422 -2.95069 6.96039 0
M  V30 7771 H 743.69 -4.094 6.63334 0
M  V30 7772 N 747.919 -1.57396 -0.0801906 0
M  V30 7773 C 749.196 -1.77883 -0.813451 0
M  V30 7774 C 749.576 -0.778879 -1.96206 0
M  V30 7775 O 748.924 0.189683 -2.27711 0
M  V30 7776 C 749.134 -3.24116 -1.2942 0
M  V30 7777 C 750.482 -3.87714 -1.73098 0
M  V30 7778 O 751.506 -3.27956 -1.39007 0
M  V30 7779 O 750.365 -4.92828 -2.36184 0
M  V30 7780 H 747.459 -0.729727 -0.389138 0
M  V30 7781 H 750.005 -1.69591 -0.0609166 0
M  V30 7782 H 748.777 -3.88443 -0.471947 0
M  V30 7783 H 748.4 -3.371 -2.1083 0
M  V30 7784 N 749.397 0.351382 -1.53633 0
M  V30 7785 C 750.345 1.45142 -1.8176 0
M  V30 7786 C 751.339 1.54819 -0.687571 0
M  V30 7787 O 752.545 1.57536 -0.870772 0
M  V30 7788 H 748.92 0.483789 -0.575719 0
M  V30 7789 H 750.891 1.1863 -2.73806 0
M  V30 7790 C 749.64 2.81779 -2.03706 0
M  V30 7791 H 748.963 2.75097 -2.90107 0
M  V30 7792 H 750.403 3.5789 -2.27356 0
M  V30 7793 C 748.862 3.26762 -0.820271 0
M  V30 7794 O 749.392 4.01697 -0.0158603 0
M  V30 7795 N 747.598 2.83472 -0.639699 0
M  V30 7796 H 747.145 2.22655 -1.29547 0
M  V30 7797 H 747.103 3.13924 0.172995 0
M  V30 7798 N 750.875 1.45233 0.611969 0
M  V30 7799 C 751.838 1.53189 1.70487 0
M  V30 7800 C 752.838 0.411839 1.55437 0
M  V30 7801 O 754.028 0.675164 1.60584 0
M  V30 7802 C 751.16 1.42422 3.09723 0
M  V30 7803 H 752.353 2.5056 1.64802 0
M  V30 7804 H 749.906 1.32609 0.827318 0
M  V30 7805 H 750.641 0.462185 3.2099 0
M  V30 7806 H 750.426 2.23658 3.22055 0
M  V30 7807 H 751.916 1.51012 3.89339 0
M  V30 7808 N 752.353 -0.854086 1.3245 0
M  V30 7809 C 753.578 -1.64597 1.26185 0
M  V30 7810 C 754.003 -1.87357 -0.167074 0
M  V30 7811 O 753.361 -1.42675 -1.11864 0
M  V30 7812 C 753.409 -2.98213 2.02734 0
M  V30 7813 O 752.513 -3.88784 1.37554 0
M  V30 7814 H 751.854 -0.50179 0.434859 0
M  V30 7815 H 754.384 -1.06372 1.74775 0
M  V30 7816 H 754.394 -3.4803 2.1293 0
M  V30 7817 H 753.069 -2.80969 3.06642 0
M  V30 7818 H 751.646 -3.4725 1.3591 0
M  V30 7819 N 753.831 -1.1567 -1.07043 0
M  V30 7820 C 755.108 -0.843948 -1.76456 0
M  V30 7821 C 755.488 0.659806 -2.00524 0
M  V30 7822 O 754.836 1.60518 -1.62623 0
M  V30 7823 C 755.046 -1.65822 -3.0709 0
M  V30 7824 C 756.394 -1.8664 -3.8138 0
M  V30 7825 O 757.418 -1.62624 -3.1691 0
M  V30 7826 O 756.277 -2.26884 -4.97178 0
M  V30 7827 H 753.371 -0.310677 -0.766426 0
M  V30 7828 H 755.917 -1.26266 -1.1338 0
M  V30 7829 H 754.689 -2.67902 -2.85209 0
M  V30 7830 H 754.312 -1.23605 -3.77899 0
M  V30 7831 N 755.309 1.25446 -0.953992 0
M  V30 7832 C 756.256 2.25912 -0.472485 0
M  V30 7833 C 757.226 1.59173 0.47469 0
M  V30 7834 O 758.411 1.86812 0.388082 0
M  V30 7835 C 755.551 3.44235 0.244218 0
M  V30 7836 C 754.664 4.25613 -0.740121 0
M  V30 7837 C 753.799 5.312 -0.000922267 0
M  V30 7838 C 752.838 6.04265 -0.976236 0
M  V30 7839 N 751.975 7.01589 -0.267952 0
M  V30 7840 H 756.815 2.66469 -1.3341 0
M  V30 7841 H 754.352 1.31005 -0.669045 0
M  V30 7842 H 756.31 4.11682 0.676314 0
M  V30 7843 H 754.94 3.04554 1.06988 0
M  V30 7844 H 753.992 3.57834 -1.2907 0
M  V30 7845 H 755.304 4.762 -1.48441 0
M  V30 7846 H 754.458 6.04719 0.48984 0
M  V30 7847 H 753.197 4.81484 0.776159 0
M  V30 7848 H 752.202 5.29561 -1.478 0
M  V30 7849 H 753.427 6.5607 -1.75354 0
M  V30 7850 H 751.373 6.54164 0.490403 0
M  V30 7851 H 751.29 7.4999 -0.951344 0
M  V30 7852 H 752.558 7.7924 0.201294 0
M  V30 7853 N 756.787 0.722489 1.40064 0
M  V30 7854 C 758.064 0.191829 1.94657 0
M  V30 7855 C 758.444 -1.30389 1.66018 0
M  V30 7856 O 757.792 -2.06342 0.981588 0
M  V30 7857 C 758.002 0.511978 3.45224 0
M  V30 7858 C 759.35 0.454426 4.22161 0
M  V30 7859 O 760.374 0.448438 3.53366 0
M  V30 7860 O 759.233 0.437986 5.44742 0
M  V30 7861 H 756.327 0.0307821 0.826427 0
M  V30 7862 H 758.873 0.800493 1.49634 0
M  V30 7863 H 757.645 1.54622 3.59455 0
M  V30 7864 H 757.268 -0.126296 3.97399 0
M  V30 7865 N 758.265 -1.50454 0.469181 0
M  V30 7866 C 759.195 -2.31353 -0.31592 0
M  V30 7867 C 760.176 -1.38172 -0.992094 0
M  V30 7868 O 761.361 -1.67093 -0.989633 0
M  V30 7869 C 758.491 -3.1786 -1.39937 0
M  V30 7870 C 757.445 -4.19578 -0.844909 0
M  V30 7871 C 756.771 -4.9481 -2.0265 0
M  V30 7872 C 758.071 -5.22106 0.142499 0
M  V30 7873 H 759.765 -2.97237 0.359269 0
M  V30 7874 H 757.311 -1.42942 0.174224 0
M  V30 7875 H 759.264 -3.7325 -1.95607 0
M  V30 7876 H 757.988 -2.49858 -2.1033 0
M  V30 7877 H 756.647 -3.65285 -0.310189 0
M  V30 7878 H 756.295 -4.23282 -2.71737 0
M  V30 7879 H 755.995 -5.63613 -1.66174 0
M  V30 7880 H 757.519 -5.53035 -2.58815 0
M  V30 7881 H 758.933 -5.72378 -0.324966 0
M  V30 7882 H 757.33 -5.98618 0.421441 0
M  V30 7883 H 758.4 -4.7297 1.06901 0
M  V30 7884 N 759.743 -0.201713 -1.56304 0
M  V30 7885 C 760.706 0.702811 -2.18159 0
M  V30 7886 C 761.706 1.13619 -1.13787 0
M  V30 7887 O 762.896 1.0482 -1.39134 0
M  V30 7888 C 760.028 1.96032 -2.78898 0
M  V30 7889 H 761.221 0.163836 -2.99452 0
M  V30 7890 H 758.774 0.04791 -1.56227 0
M  V30 7891 H 759.509 2.54165 -2.01421 0
M  V30 7892 H 759.294 1.65824 -3.55309 0
M  V30 7893 H 760.784 2.60519 -3.26373 0
M  V30 7894 N 761.222 1.57436 0.0718424 0
M  V30 7895 C 762.499 1.78312 0.804006 0
M  V30 7896 C 762.879 0.789273 1.9579 0
M  V30 7897 O 762.227 -0.177605 2.27809 0
M  V30 7898 C 762.437 3.24798 1.277 0
M  V30 7899 C 763.785 3.88627 1.71039 0
M  V30 7900 O 764.809 3.28689 1.37266 0
M  V30 7901 O 763.668 4.94073 2.33567 0
M  V30 7902 H 760.762 0.73178 0.385262 0
M  V30 7903 H 763.308 1.69621 0.0519219 0
M  V30 7904 H 762.08 3.88688 0.45134 0
M  V30 7905 H 761.703 3.38213 2.0904 0
M  V30 7906 N 762.7 -0.34323 1.53817 0
M  V30 7907 C 763.63 -1.42709 1.84814 0
M  V30 7908 C 764.611 -1.5488 0.703297 0
M  V30 7909 O 765.796 -1.69082 0.955237 0
M  V30 7910 C 762.926 -2.79756 2.05801 0
M  V30 7911 C 761.88 -2.82392 3.21619 0
M  V30 7912 C 761.206 -4.22326 3.2794 0
M  V30 7913 C 762.506 -2.479 4.59721 0
M  V30 7914 H 764.2 -1.17018 2.75585 0
M  V30 7915 H 761.746 -0.561485 1.32602 0
M  V30 7916 H 763.699 -3.55627 2.26069 0
M  V30 7917 H 762.423 -3.06883 1.11761 0
M  V30 7918 H 761.082 -2.08974 3.01207 0
M  V30 7919 H 760.73 -4.46564 2.31494 0
M  V30 7920 H 760.43 -4.25001 4.05768 0
M  V30 7921 H 761.954 -5.00039 3.50419 0
M  V30 7922 H 763.368 -3.13484 4.80001 0
M  V30 7923 H 761.765 -2.61857 5.39954 0
M  V30 7924 H 762.835 -1.43087 4.63308 0
M  V30 7925 N 764.178 -1.45556 -0.604258 0
M  V30 7926 C 765.424 -1.49968 -1.36519 0
M  V30 7927 C 765.757 -0.142236 -1.93678 0
M  V30 7928 O 765.032 0.843717 -1.75247 0
M  V30 7929 C 765.315 -2.58146 -2.51063 0
M  V30 7930 C 765.168 -4.03346 -1.99078 0
M  V30 7931 C 766.487 -2.62581 -3.53184 0
M  V30 7932 H 763.606 -0.545993 -0.495036 0
M  V30 7933 H 766.248 -1.77382 -0.680845 0
M  V30 7934 H 764.398 -2.34901 -3.09441 0
M  V30 7935 H 766.07 -4.37811 -1.45323 0
M  V30 7936 H 764.313 -4.13845 -1.30055 0
M  V30 7937 H 764.984 -4.74731 -2.81664 0
M  V30 7938 H 767.46 -2.83419 -3.04652 0
M  V30 7939 H 766.336 -3.40131 -4.30816 0
M  V30 7940 H 766.597 -1.67798 -4.09019 0
M  V30 7941 N 765.656 0.84705 -1.32902 0
M  V30 7942 C 766.881 1.63925 -1.27056 0
M  V30 7943 C 767.306 1.87443 0.157136 0
M  V30 7944 O 766.664 1.43266 1.11106 0
M  V30 7945 C 766.712 2.97134 -2.04313 0
M  V30 7946 O 765.816 3.88049 -1.39614 0
M  V30 7947 H 765.157 0.499477 -0.437514 0
M  V30 7948 H 767.687 1.05443 -1.75336 0
M  V30 7949 H 767.697 3.46896 -2.14772 0
M  V30 7950 H 766.372 2.79339 -3.08128 0
M  V30 7951 H 764.949 3.46525 -1.3775 0
M  V30 7952 N 767.134 1.16236 1.06428 0
M  V30 7953 C 768.044 0.881976 2.1739 0
M  V30 7954 C 769.06 -0.145259 1.73393 0
M  V30 7955 O 770.236 0.0310558 2.01376 0
M  V30 7956 C 767.301 0.385496 3.4455 0
M  V30 7957 C 766.362 1.47779 4.03063 0
M  V30 7958 C 765.595 1.0049 5.24154 0
M  V30 7959 O 765.818 -0.145889 5.70213 0
M  V30 7960 O 764.752 1.79265 5.74585 0
M  V30 7961 H 768.578 1.80983 2.43883 0
M  V30 7962 H 766.163 0.942226 1.15942 0
M  V30 7963 H 768.045 0.115536 4.21242 0
M  V30 7964 H 766.72 -0.514369 3.19587 0
M  V30 7965 H 765.627 1.80147 3.27869 0
M  V30 7966 H 766.96 2.35291 4.32318 0
M  V30 7967 N 768.612 -1.24939 0.960631 0
M  V30 7968 C 769.545 -2.24116 0.429804 0
M  V30 7969 C 770.523 -1.54972 -0.492188 0
M  V30 7970 O 771.707 -1.83642 -0.42519 0
M  V30 7971 C 768.834 -3.36558 -0.380312 0
M  V30 7972 C 767.88 -4.23757 0.482941 0
M  V30 7973 S 768.713 -4.9994 1.91885 0
M  V30 7974 C 769.869 -6.15846 1.11732 0
M  V30 7975 H 770.102 -2.68795 1.27029 0
M  V30 7976 H 767.635 -1.34108 0.765141 0
M  V30 7977 H 769.593 -4.01777 -0.841764 0
M  V30 7978 H 768.254 -2.90451 -1.19569 0
M  V30 7979 H 767.447 -5.03809 -0.138699 0
M  V30 7980 H 767.049 -3.63504 0.879839 0
M  V30 7981 H 769.341 -6.76495 0.368898 0
M  V30 7982 H 770.284 -6.82356 1.89198 0
M  V30 7983 H 770.692 -5.60805 0.644812 0
M  V30 7984 N 770.09 -0.729906 -1.39679 0
M  V30 7985 C 771 -0.0880322 -2.34435 0
M  V30 7986 C 772.016 0.727674 -1.58053 0
M  V30 7987 O 773.192 0.657321 -1.90371 0
M  V30 7988 C 770.257 0.812211 -3.37052 0
M  V30 7989 C 769.318 -0.0151681 -4.29297 0
M  V30 7990 C 768.551 0.842202 -5.27013 0
M  V30 7991 O 768.774 2.08108 -5.31081 0
M  V30 7992 O 767.708 0.27357 -6.01278 0
M  V30 7993 H 771.534 -0.869989 -2.90972 0
M  V30 7994 H 769.119 -0.490522 -1.41118 0
M  V30 7995 H 771.001 1.32745 -3.99946 0
M  V30 7996 H 769.676 1.57307 -2.82907 0
M  V30 7997 H 768.583 -0.575811 -3.69642 0
M  V30 7998 H 769.916 -0.738129 -4.86634 0
M  V30 7999 N 771.568 1.50203 -0.477153 0
M  V30 8000 C 772.814 2.02658 0.0758507 0
M  V30 8001 C 773.147 1.358 1.38824 0
M  V30 8002 O 772.422 0.485696 1.88338 0
M  V30 8003 C 772.705 3.59208 0.253339 0
M  V30 8004 C 772.558 4.36629 -1.0805 0
M  V30 8005 C 773.877 4.28469 1.00509 0
M  V30 8006 H 770.996 0.736538 0.0260921 0
M  V30 8007 H 773.638 1.79464 -0.623925 0
M  V30 8008 H 771.788 3.79101 0.849378 0
M  V30 8009 H 773.46 4.28292 -1.71358 0
M  V30 8010 H 771.703 4.0013 -1.67566 0
M  V30 8011 H 772.374 5.44449 -0.909883 0
M  V30 8012 H 774.85 4.13087 0.499818 0
M  V30 8013 H 773.726 5.37804 1.09808 0
M  V30 8014 H 773.987 3.92057 2.04314 0
M  V30 8015 N 773.046 0.209999 1.56195 0
M  V30 8016 C 773.979 -0.744546 2.15712 0
M  V30 8017 C 774.957 -1.19917 1.09812 0
M  V30 8018 O 776.141 -1.284 1.38006 0
M  V30 8019 C 773.268 -2.00733 2.72807 0
M  V30 8020 C 772.314 -1.69363 3.91431 0
M  V30 8021 S 773.147 -0.828579 5.29051 0
M  V30 8022 C 774.303 -2.10118 5.89577 0
M  V30 8023 H 774.536 -0.238636 2.96341 0
M  V30 8024 H 772.069 -0.00517877 1.54399 0
M  V30 8025 H 774.027 -2.73246 3.06344 0
M  V30 8026 H 772.688 -2.48436 1.92193 0
M  V30 8027 H 771.881 -2.63157 4.29842 0
M  V30 8028 H 771.483 -1.04921 3.58981 0
M  V30 8029 H 773.775 -3.05231 6.04847 0
M  V30 8030 H 774.718 -1.76116 6.85849 0
M  V30 8031 H 775.126 -2.23644 5.18308 0
M  V30 8032 N 774.524 -1.57472 -0.0634922 0
M  V30 8033 C 775.471 -2.04258 -1.07457 0
M  V30 8034 C 776.441 -0.924804 -1.37973 0
M  V30 8035 O 777.626 -1.19305 -1.48899 0
M  V30 8036 C 774.766 -2.49832 -2.38071 0
M  V30 8037 C 773.879 -3.75263 -2.14014 0
M  V30 8038 C 773.014 -4.09585 -3.38251 0
M  V30 8039 C 772.053 -5.28032 -3.09594 0
M  V30 8040 N 771.19 -5.57953 -4.26185 0
M  V30 8041 H 776.03 -2.90402 -0.668626 0
M  V30 8042 H 773.567 -1.43609 -0.318572 0
M  V30 8043 H 775.525 -2.7431 -3.14341 0
M  V30 8044 H 774.155 -1.66654 -2.76453 0
M  V30 8045 H 773.207 -3.58075 -1.28399 0
M  V30 8046 H 774.519 -4.61667 -1.88852 0
M  V30 8047 H 773.673 -4.35008 -4.2291 0
M  V30 8048 H 772.412 -3.21765 -3.66495 0
M  V30 8049 H 771.417 -5.02397 -2.23332 0
M  V30 8050 H 772.642 -6.17477 -2.82663 0
M  V30 8051 H 770.588 -4.73092 -4.54445 0
M  V30 8052 H 770.505 -6.38793 -4.04326 0
M  V30 8053 H 771.773 -5.87931 -5.11817 0
M  V30 8054 N 776.003 0.335068 -1.53997 0
M  V30 8055 C 776.933 1.41727 -1.85568 0
M  V30 8056 C 777.914 1.54505 -0.7115 0
M  V30 8057 O 779.099 1.68573 -0.964191 0
M  V30 8058 C 776.229 2.7866 -2.07282 0
M  V30 8059 C 775.183 2.80682 -3.23112 0
M  V30 8060 C 774.509 4.20581 -3.30175 0
M  V30 8061 C 775.809 2.45458 -4.61029 0
M  V30 8062 H 777.503 1.15555 -2.76202 0
M  V30 8063 H 775.049 0.554445 -1.32898 0
M  V30 8064 H 777.002 3.54423 -2.27952 0
M  V30 8065 H 775.726 3.06286 -1.13387 0
M  V30 8066 H 774.385 2.07373 -3.02311 0
M  V30 8067 H 774.033 4.4533 -2.33859 0
M  V30 8068 H 773.733 4.22843 -4.08016 0
M  V30 8069 H 775.257 4.98174 -3.53066 0
M  V30 8070 H 776.671 3.10934 -4.81656 0
M  V30 8071 H 775.068 2.5899 -5.41336 0
M  V30 8072 H 776.138 1.40628 -4.6406 0
M  V30 8073 N 777.481 1.45874 0.596531 0
M  V30 8074 C 778.73 1.49737 1.35135 0
M  V30 8075 C 779.043 0.147755 1.95041 0
M  V30 8076 O 780.249 0.0640984 2.71424 0
M  V30 8077 C 778.705 2.6378 2.44843 0
M  V30 8078 C 778.313 4.05102 1.91301 0
M  V30 8079 C 780.057 2.769 3.21755 0
M  V30 8080 C 777.964 5.10508 2.98557 0
M  V30 8081 H 776.894 0.557219 0.507959 0
M  V30 8082 H 779.545 1.72046 0.638147 0
M  V30 8083 H 777.927 2.34774 3.189 0
M  V30 8084 H 779.101 4.43836 1.2388 0
M  V30 8085 H 777.416 3.96528 1.271 0
M  V30 8086 H 780.013 3.52819 4.01775 0
M  V30 8087 H 780.356 1.83924 3.73467 0
M  V30 8088 H 780.889 3.05485 2.54802 0
M  V30 8089 H 777.628 6.0523 2.51749 0
M  V30 8090 H 777.148 4.76332 3.6451 0
M  V30 8091 H 778.827 5.35745 3.62748 0
M  V30 8092 N 778.959 -0.83999 1.33349 0
M  V30 8093 C 780.207 -1.59202 1.24496 0
M  V30 8094 C 780.528 -1.94077 -0.189499 0
M  V30 8095 O 779.798 -1.60868 -1.11796 0
M  V30 8096 H 778.378 -0.590276 0.457802 0
M  V30 8097 H 781.04 -1.00394 1.67054 0
M  V30 8098 H 780.136 -2.52247 1.83788 0
M  V30 8099 N 780.437 -1.16799 -1.0581 0
M  V30 8100 C 781.853 -0.913935 -1.30841 0
M  V30 8101 C 782.053 0.430439 -1.96849 0
M  V30 8102 O 781.109 1.16885 -2.23817 0
M  V30 8103 C 782.422 -2.06662 -2.18429 0
M  V30 8104 C 783.97 -2.10294 -2.31831 0
M  V30 8105 C 784.445 -3.2493 -3.22776 0
M  V30 8106 N 785.936 -3.24678 -3.30361 0
M  V30 8107 C 786.671 -4.10021 -4.00837 0
M  V30 8108 N 786.167 -5.05461 -4.73795 0
M  V30 8109 N 787.96 -3.97991 -3.96937 0
M  V30 8110 H 780.111 -2.03343 -0.613613 0
M  V30 8111 H 782.374 -0.88754 -0.333133 0
M  V30 8112 H 782.08 -3.03791 -1.77211 0
M  V30 8113 H 781.954 -2.01233 -3.19038 0
M  V30 8114 H 784.341 -1.13754 -2.72294 0
M  V30 8115 H 784.422 -2.19786 -1.30873 0
M  V30 8116 H 784.066 -4.21731 -2.83028 0
M  V30 8117 H 783.996 -3.12674 -4.23725 0
M  V30 8118 H 786.487 -2.55573 -2.78372 0
M  V30 8119 H 786.8 -5.66989 -5.25113 0
M  V30 8120 H 785.145 -5.09436 -4.72758 0
M  V30 8121 H 788.336 -3.2273 -3.39062 0
M  V30 8122 H 788.509 -4.64722 -4.51594 0
M  V30 8123 N 781.915 1.24427 -0.967243 0
M  V30 8124 C 782.865 2.23143 -0.468106 0
M  V30 8125 C 783.849 1.5449 0.449633 0
M  V30 8126 O 785.041 1.74761 0.28063 0
M  V30 8127 C 782.17 3.42454 0.240867 0
M  V30 8128 C 781.256 4.18355 -0.695674 0
M  V30 8129 N 781.647 4.71428 -1.83273 0
M  V30 8130 C 779.945 4.43116 -0.506365 0
M  V30 8131 C 780.646 5.29041 -2.41849 0
M  V30 8132 N 779.622 5.16213 -1.70369 0
M  V30 8133 H 783.424 2.61795 -1.3357 0
M  V30 8134 H 780.938 1.39809 -0.826277 0
M  V30 8135 H 782.935 4.12329 0.615668 0
M  V30 8136 H 781.595 3.05323 1.10491 0
M  V30 8137 H 782.606 4.68177 -2.21428 0
M  V30 8138 H 779.283 4.16319 0.313747 0
M  V30 8139 H 780.673 5.80811 -3.37799 0
M  V30 8140 N 783.393 0.737304 1.3929 0
M  V30 8141 C 784.34 0.0988364 2.30588 0
M  V30 8142 C 785.31 -0.727206 1.49335 0
M  V30 8143 O 786.495 -0.686694 1.78014 0
M  V30 8144 C 783.635 -0.800734 3.35682 0
M  V30 8145 C 782.748 0.0381731 4.31983 0
M  V30 8146 C 781.883 -0.862884 5.24145 0
M  V30 8147 C 780.922 -0.0193639 6.12097 0
M  V30 8148 N 780.059 -0.87648 6.96608 0
M  V30 8149 H 784.899 0.883031 2.84617 0
M  V30 8150 H 782.436 0.447111 1.4014 0
M  V30 8151 H 784.394 -1.33676 3.95205 0
M  V30 8152 H 783.024 -1.55088 2.83103 0
M  V30 8153 H 782.076 0.691641 3.74059 0
M  V30 8154 H 783.388 0.690294 4.94 0
M  V30 8155 H 782.542 -1.46667 5.88705 0
M  V30 8156 H 781.281 -1.54878 4.62454 0
M  V30 8157 H 780.286 0.597202 5.46547 0
M  V30 8158 H 781.511 0.663348 6.75852 0
M  V30 8159 H 779.457 -1.54762 6.37483 0
M  V30 8160 H 779.374 -0.280892 7.55478 0
M  V30 8161 H 780.642 -1.46575 7.65595 0
M  V30 8162 N 784.871 -1.49948 0.485112 0
M  V30 8163 C 785.819 -2.30449 -0.315609 0
M  V30 8164 C 786.813 -1.38351 -0.977516 0
M  V30 8165 O 788.019 -1.55477 -0.907019 0
M  V30 8166 H 784.394 -0.742262 -0.120629 0
M  V30 8167 H 786.365 -2.95925 0.383552 0
M  V30 8168 C 785.114 -3.19283 -1.37673 0
M  V30 8169 H 784.437 -3.90067 -0.876801 0
M  V30 8170 H 785.877 -3.78579 -1.90929 0
M  V30 8171 C 784.336 -2.37817 -2.38631 0
M  V30 8172 O 784.866 -2.0711 -3.44192 0
M  V30 8173 N 783.072 -2.00135 -2.107 0
M  V30 8174 H 782.619 -2.25307 -1.24878 0
M  V30 8175 H 782.577 -1.45933 -2.7848 0
M  V30 8176 N 786.349 -0.21828 -1.56081 0
M  V30 8177 C 787.598 0.414644 -1.97392 0
M  V30 8178 C 787.911 1.61132 -1.10887 0
M  V30 8179 O 789.117 2.31355 -1.42082 0
M  V30 8180 C 787.573 0.789099 -3.51143 0
M  V30 8181 C 787.181 -0.384578 -4.46346 0
M  V30 8182 C 788.925 1.38781 -4.01173 0
M  V30 8183 C 786.832 0.0121288 -5.91399 0
M  V30 8184 H 785.762 0.158691 -0.737111 0
M  V30 8185 H 788.413 -0.313974 -1.80794 0
M  V30 8186 H 786.795 1.57505 -3.6333 0
M  V30 8187 H 787.969 -1.16212 -4.45905 0
M  V30 8188 H 786.284 -0.896306 -4.06639 0
M  V30 8189 H 788.881 1.69746 -5.07041 0
M  V30 8190 H 789.224 2.30245 -3.46833 0
M  V30 8191 H 789.757 0.665364 -3.92196 0
M  V30 8192 H 786.496 -0.868917 -6.49715 0
M  V30 8193 H 786.016 0.754053 -5.95041 0
M  V30 8194 H 787.695 0.439949 -6.45502 0
M  V30 8195 N 787.827 1.57504 0.0551401 0
M  V30 8196 C 789.076 1.87237 0.750009 0
M  V30 8197 C 789.389 0.813268 1.77891 0
M  V30 8198 O 790.595 0.99898 2.52453 0
M  V30 8199 C 789.051 3.32187 1.38491 0
M  V30 8200 C 788.659 4.46267 0.393707 0
M  V30 8201 C 790.403 3.71101 2.06117 0
M  V30 8202 C 788.31 5.82265 1.03547 0
M  V30 8203 H 787.24 0.698524 0.283866 0
M  V30 8204 H 789.891 1.835 0.00365997 0
M  V30 8205 H 788.273 3.30588 2.18008 0
M  V30 8206 H 789.447 4.59289 -0.372865 0
M  V30 8207 H 787.762 4.16015 -0.17902 0
M  V30 8208 H 790.359 4.70012 2.54937 0
M  V30 8209 H 790.702 3.01751 2.86796 0
M  V30 8210 H 791.235 3.74762 1.33409 0
M  V30 8211 H 787.974 6.54949 0.268644 0
M  V30 8212 H 787.494 5.73012 1.7725 0
M  V30 8213 H 789.173 6.28148 1.55047 0
M  V30 8214 N 789.305 -0.326896 1.54172 0
M  V30 8215 C 790.253 -1.42232 1.84046 0
M  V30 8216 C 791.247 -1.53705 0.712115 0
M  V30 8217 O 792.453 -1.56131 0.895724 0
M  V30 8218 H 788.828 -0.474568 0.583343 0
M  V30 8219 H 790.799 -1.14259 2.75658 0
M  V30 8220 C 789.548 -2.78502 2.08163 0
M  V30 8221 H 788.871 -2.70447 2.94446 0
M  V30 8222 H 790.311 -3.54228 2.33021 0
M  V30 8223 C 788.77 -3.25415 0.872152 0
M  V30 8224 O 789.3 -4.01621 0.0797648 0
M  V30 8225 N 787.506 -2.82418 0.684716 0
M  V30 8226 H 787.053 -2.20566 1.33072 0
M  V30 8227 H 787.011 -3.14159 -0.123031 0
M  V30 8228 N 790.784 -1.46188 -0.588786 0
M  V30 8229 C 791.714 -1.59148 -1.70863 0
M  V30 8230 C 792.695 -0.442083 -1.64255 0
M  V30 8231 O 793.88 -0.667575 -1.82365 0
M  V30 8232 C 791.01 -1.5757 -3.09498 0
M  V30 8233 C 789.964 -2.71418 -3.30932 0
M  V30 8234 C 789.29 -2.549 -4.70032 0
M  V30 8235 C 790.59 -4.1329 -3.19356 0
M  V30 8236 H 792.284 -2.52889 -1.60274 0
M  V30 8237 H 789.83 -1.21707 -0.769638 0
M  V30 8238 H 791.783 -1.65231 -3.87655 0
M  V30 8239 H 790.507 -0.603705 -3.20972 0
M  V30 8240 H 789.166 -2.63216 -2.55172 0
M  V30 8241 H 788.814 -1.55797 -4.78264 0
M  V30 8242 H 788.514 -3.31257 -4.85327 0
M  V30 8243 H 790.038 -2.64443 -5.50366 0
M  V30 8244 H 791.452 -4.22636 -3.87365 0
M  V30 8245 H 789.849 -4.90187 -3.46175 0
M  V30 8246 H 790.919 -4.33874 -2.16522 0
M  V30 8247 N 792.262 0.832906 -1.33792 0
M  V30 8248 C 793.192 1.95828 -1.27176 0
M  V30 8249 C 794.173 1.69427 -0.15114 0
M  V30 8250 O 795.358 1.91167 -0.341886 0
M  V30 8251 C 792.488 3.32098 -1.01629 0
M  V30 8252 C 791.442 3.72912 -2.10049 0
M  V30 8253 C 790.768 5.07054 -1.69706 0
M  V30 8254 C 792.068 3.86064 -3.51783 0
M  V30 8255 H 793.762 2.01622 -2.21334 0
M  V30 8256 H 791.308 0.96866 -1.0655 0
M  V30 8257 H 793.261 4.10402 -0.956474 0
M  V30 8258 H 791.985 3.26577 -0.0390956 0
M  V30 8259 H 790.644 2.96876 -2.15082 0
M  V30 8260 H 790.292 4.9801 -0.706737 0
M  V30 8261 H 789.992 5.35333 -2.42264 0
M  V30 8262 H 791.516 5.87827 -1.65202 0
M  V30 8263 H 792.93 4.54665 -3.49218 0
M  V30 8264 H 791.327 4.25787 -4.22878 0
M  V30 8265 H 792.397 2.88344 -3.89854 0
M  V30 8266 N 793.74 1.17359 1.05189 0
M  V30 8267 C 794.988 0.960087 1.77839 0
M  V30 8268 C 795.309 -0.512554 1.88143 0
M  V30 8269 O 794.579 -1.3721 1.39822 0
M  V30 8270 H 793.159 0.352234 0.658741 0
M  V30 8271 H 795.821 1.47834 1.27008 0
M  V30 8272 H 794.917 1.38843 2.79516 0
M  V30 8273 N 795.218 -1.23913 0.973828 0
M  V30 8274 C 796.464 -1.92436 0.640026 0
M  V30 8275 C 796.797 -1.75875 -0.823512 0
M  V30 8276 O 796.072 -1.11563 -1.59323 0
M  V30 8277 C 796.355 -3.4526 1.0231 0
M  V30 8278 C 796.208 -3.70961 2.54378 0
M  V30 8279 C 797.527 -4.36495 0.562155 0
M  V30 8280 H 794.646 -0.698868 0.233992 0
M  V30 8281 H 797.288 -1.46163 1.21393 0
M  V30 8282 H 795.438 -3.84802 0.534751 0
M  V30 8283 H 797.11 -3.40941 3.10737 0
M  V30 8284 H 795.353 -3.15899 2.97305 0
M  V30 8285 H 796.024 -4.77912 2.76232 0
M  V30 8286 H 798.5 -4.04363 0.981333 0
M  V30 8287 H 797.376 -5.42142 0.858689 0
M  V30 8288 H 797.637 -4.38818 -0.537659 0
M  V30 8289 N 796.696 -0.74468 -1.38897 0
M  V30 8290 C 797.936 -0.301691 -2.02161 0
M  V30 8291 C 798.3 1.09338 -1.57826 0
M  V30 8292 O 799.501 1.63499 -2.13358 0
M  V30 8293 C 797.772 -0.410601 -3.55034 0
M  V30 8294 S 799.331 -0.0488802 -4.38773 0
M  V30 8295 H 796.149 -0.117583 -0.70121 0
M  V30 8296 H 798.751 -0.973334 -1.69548 0
M  V30 8297 H 797.455 -1.42705 -3.8479 0
M  V30 8298 H 796.986 0.278531 -3.92413 0
M  V30 8299 H 799.001 1.16434 -4.82346 0
M  V30 8300 N 798.174 1.49689 -0.493057 0
M  V30 8301 C 799.402 2.06836 0.0513141 0
M  V30 8302 C 799.817 1.35436 1.31539 0
M  V30 8303 O 799.174 0.430248 1.77356 0
M  V30 8304 C 799.225 3.60107 0.317003 0
M  V30 8305 O 798.946 4.2882 -0.896957 0
M  V30 8306 C 800.447 4.33945 0.905902 0
M  V30 8307 H 797.667 0.670787 -0.0169048 0
M  V30 8308 H 800.211 1.92574 -0.688139 0
M  V30 8309 H 798.366 3.74099 1.00642 0
M  V30 8310 H 798.78 5.20395 -0.654939 0
M  V30 8311 H 800.254 5.42087 1.04144 0
M  V30 8312 H 800.731 3.95895 1.90168 0
M  V30 8313 H 801.337 4.2454 0.254195 0
M  V30 8314 N 799.652 0.226554 1.55963 0
M  V30 8315 C 800.584 -0.713907 2.17798 0
M  V30 8316 C 801.597 -1.15387 1.14846 0
M  V30 8317 O 802.786 -1.08416 1.41804 0
M  V30 8318 C 799.886 -1.97945 2.75084 0
M  V30 8319 C 799.059 -1.69424 4.03255 0
M  V30 8320 C 798.118 -2.80734 4.45056 0
M  V30 8321 O 797.144 -2.4899 5.11852 0
M  V30 8322 N 798.346 -4.09797 4.11152 0
M  V30 8323 H 801.111 -0.18494 2.99129 0
M  V30 8324 H 798.672 0.0457346 1.61835 0
M  V30 8325 H 800.664 -2.71611 3.00016 0
M  V30 8326 H 799.234 -2.41876 1.98027 0
M  V30 8327 H 798.454 -0.793767 3.86126 0
M  V30 8328 H 799.742 -1.47806 4.86858 0
M  V30 8329 H 799.14 -4.38429 3.57486 0
M  V30 8330 H 797.697 -4.79992 4.40966 0
M  V30 8331 N 801.13 -1.57531 -0.0467866 0
M  V30 8332 C 802.04 -2.08768 -1.07018 0
M  V30 8333 C 803.056 -1.02245 -1.40791 0
M  V30 8334 O 804.232 -1.33873 -1.50466 0
M  V30 8335 C 801.297 -2.54221 -2.35738 0
M  V30 8336 C 800.358 -3.75152 -2.08709 0
M  V30 8337 C 799.591 -4.18428 -3.31291 0
M  V30 8338 O 799.814 -3.61365 -4.4133 0
M  V30 8339 O 798.748 -5.11018 -3.18032 0
M  V30 8340 H 802.574 -2.96334 -0.664812 0
M  V30 8341 H 800.159 -1.47074 -0.262605 0
M  V30 8342 H 802.041 -2.83866 -3.11445 0
M  V30 8343 H 800.716 -1.69774 -2.75605 0
M  V30 8344 H 799.623 -3.50553 -1.30627 0
M  V30 8345 H 800.956 -4.60528 -1.73708 0
M  V30 8346 N 802.608 0.318715 -1.54344 0
M  V30 8347 C 803.856 1.054 -1.72439 0
M  V30 8348 C 804.177 1.88388 -0.503495 0
M  V30 8349 O 803.447 1.89866 0.48246 0
M  V30 8350 H 802.027 0.392124 -0.635805 0
M  V30 8351 H 804.689 0.35398 -1.91659 0
M  V30 8352 H 803.785 1.71726 -2.60608 0
M  V30 8353 N 804.086 1.46499 0.581025 0
M  V30 8354 C 805.497 1.4604 1.16315 0
M  V30 8355 C 805.848 0.202154 1.95156 0
M  V30 8356 O 804.973 -0.694638 2.04948 0
M  V30 8357 C 805.568 2.64593 2.11604 0
M  V30 8358 C 804.127 2.6717 2.65136 0
M  V30 8359 C 803.274 2.38753 1.4104 0
M  V30 8360 H 806.225 1.54354 0.368871 0
M  V30 8361 H 806.246 2.40207 2.95095 0
M  V30 8362 H 805.758 3.56154 1.54194 0
M  V30 8363 H 803.859 1.79685 3.26411 0
M  V30 8364 H 803.972 3.67182 3.07757 0
M  V30 8365 H 802.336 1.88845 1.70908 0
M  V30 8366 H 803.119 3.32493 0.854588 0
M  V30 8367 N 805.565 -0.825799 1.34232 0
M  V30 8368 C 806.495 -1.95151 1.28212 0
M  V30 8369 C 807.476 -1.69345 0.160123 0
M  V30 8370 O 808.661 -1.90983 0.352019 0
M  V30 8371 C 805.791 -3.31554 1.03388 0
M  V30 8372 C 804.745 -3.71793 2.12023 0
M  V30 8373 C 804.071 -5.06147 1.72392 0
M  V30 8374 C 805.371 -3.84193 3.53826 0
M  V30 8375 H 807.065 -2.00445 2.22401 0
M  V30 8376 H 804.611 -0.962996 1.07063 0
M  V30 8377 H 806.564 -4.09889 0.978225 0
M  V30 8378 H 805.288 -3.26551 0.0564142 0
M  V30 8379 H 803.947 -2.95731 2.16654 0
M  V30 8380 H 803.595 -4.97628 0.733137 0
M  V30 8381 H 803.295 -5.34041 2.451 0
M  V30 8382 H 804.819 -5.86943 1.68317 0
M  V30 8383 H 806.233 -4.52806 3.51624 0
M  V30 8384 H 804.63 -4.23538 4.2513 0
M  V30 8385 H 805.7 -2.86272 3.91377 0
M  V30 8386 N 807.043 -1.17915 -1.04565 0
M  V30 8387 C 808.273 -0.994716 -1.81077 0
M  V30 8388 C 808.681 0.460146 -1.83519 0
M  V30 8389 O 808.024 1.33136 -1.26572 0
M  V30 8390 C 808.086 -1.46698 -3.28207 0
M  V30 8391 C 807.75 -2.94523 -3.49436 0
M  V30 8392 C 808.747 -3.92414 -3.41038 0
M  V30 8393 C 806.432 -3.32841 -3.76194 0
M  V30 8394 C 808.426 -5.2662 -3.59096 0
M  V30 8395 C 806.113 -4.67212 -3.93899 0
M  V30 8396 C 807.111 -5.6391 -3.8535 0
M  V30 8397 O 806.799 -6.95849 -4.02554 0
M  V30 8398 H 806.531 -0.351797 -0.577248 0
M  V30 8399 H 809.085 -1.56772 -1.32709 0
M  V30 8400 H 807.315 -0.837592 -3.7752 0
M  V30 8401 H 809.004 -1.24724 -3.86263 0
M  V30 8402 H 809.77 -3.64157 -3.20336 0
M  V30 8403 H 805.649 -2.58139 -3.81949 0
M  V30 8404 H 809.193 -6.02082 -3.52339 0
M  V30 8405 H 805.09 -4.95172 -4.14095 0
M  V30 8406 H 805.858 -7.02679 -4.19743 0
M  V30 8407 N 808.521 1.23394 -0.980386 0
M  V30 8408 C 809.767 1.92094 -0.650223 0
M  V30 8409 C 810.1 1.76309 0.814173 0
M  V30 8410 O 809.375 1.12406 1.5873 0
M  V30 8411 C 809.658 3.44713 -1.04139 0
M  V30 8412 C 809.511 3.69606 -2.56342 0
M  V30 8413 C 810.83 4.36191 -0.585296 0
M  V30 8414 H 807.949 0.697618 -0.237695 0
M  V30 8415 H 810.591 1.45517 -1.22167 0
M  V30 8416 H 808.741 3.84513 -0.55515 0
M  V30 8417 H 810.413 3.39288 -3.1254 0
M  V30 8418 H 808.656 3.14318 -2.98976 0
M  V30 8419 H 809.327 4.76441 -2.78762 0
M  V30 8420 H 811.803 4.03836 -1.00276 0
M  V30 8421 H 810.679 5.41679 -0.887428 0
M  V30 8422 H 810.94 4.39097 0.51438 0
M  V30 8423 N 809.999 0.752036 1.385 0
M  V30 8424 C 811.248 0.304294 1.99391 0
M  V30 8425 C 811.561 -1.11982 1.60373 0
M  V30 8426 O 812.767 -1.66795 2.14223 0
M  V30 8427 C 811.223 0.493101 3.56506 0
M  V30 8428 C 810.831 1.9262 4.04477 0
M  V30 8429 C 812.575 0.107994 4.24363 0
M  V30 8430 C 810.482 2.06365 5.54227 0
M  V30 8431 H 809.412 0.110024 0.745929 0
M  V30 8432 H 812.063 0.928355 1.58284 0
M  V30 8433 H 810.445 -0.20012 3.95494 0
M  V30 8434 H 811.619 2.65276 3.76783 0
M  V30 8435 H 809.934 2.26608 3.49339 0
M  V30 8436 H 812.531 0.189474 5.34364 0
M  V30 8437 H 812.874 -0.939165 4.05568 0
M  V30 8438 H 813.407 0.753011 3.90608 0
M  V30 8439 H 810.146 3.0933 5.77923 0
M  V30 8440 H 809.666 1.38167 5.83669 0
M  V30 8441 H 811.345 1.85286 6.19902 0
M  V30 8442 N 811.477 -1.49425 0.500989 0
M  V30 8443 C 812.723 -2.02753 -0.0436 0
M  V30 8444 C 813.056 -1.37991 -1.36646 0
M  V30 8445 O 812.331 -0.515597 -1.87542 0
M  V30 8446 C 812.614 -3.59565 -0.19616 0
M  V30 8447 C 812.467 -4.34855 1.14982 0
M  V30 8448 C 813.786 -4.30014 -0.936795 0
M  V30 8449 H 810.905 -0.73686 -0.0143711 0
M  V30 8450 H 813.547 -1.78448 0.652397 0
M  V30 8451 H 811.697 -3.80405 -0.788959 0
M  V30 8452 H 813.369 -4.25512 1.7815 0
M  V30 8453 H 811.612 -3.97414 1.73911 0
M  V30 8454 H 812.283 -5.42933 0.996385 0
M  V30 8455 H 814.759 -4.1383 -0.434036 0
M  V30 8456 H 813.635 -5.39483 -1.01238 0
M  V30 8457 H 813.896 -3.95257 -1.9805 0
M  V30 8458 N 812.955 -0.234822 -1.55841 0
M  V30 8459 C 813.865 0.680828 -2.24504 0
M  V30 8460 C 814.881 1.20306 -1.25708 0
M  V30 8461 O 816.057 1.24188 -1.58554 0
M  V30 8462 C 813.122 1.86636 -2.92178 0
M  V30 8463 C 812.183 1.3848 -4.06352 0
M  V30 8464 C 811.416 2.51382 -4.70789 0
M  V30 8465 O 811.639 3.69831 -4.34259 0
M  V30 8466 O 810.573 2.21828 -5.59532 0
M  V30 8467 H 814.399 0.12583 -3.03439 0
M  V30 8468 H 811.984 -0.00381817 -1.494 0
M  V30 8469 H 813.866 2.55845 -3.34845 0
M  V30 8470 H 812.541 2.40921 -2.16192 0
M  V30 8471 H 811.448 0.660341 -3.68226 0
M  V30 8472 H 812.781 0.888177 -4.8412 0
M  V30 8473 N 814.433 1.57553 0.0384317 0
M  V30 8474 C 815.673 1.90687 0.736069 0
M  V30 8475 C 816.037 0.832381 1.73019 0
M  V30 8476 O 817.238 1.04777 2.47538 0
M  V30 8477 C 815.509 3.28994 1.39635 0
M  V30 8478 S 817.068 3.83944 2.12444 0
M  V30 8479 H 813.886 0.667799 0.244059 0
M  V30 8480 H 816.488 1.95498 -0.00901643 0
M  V30 8481 H 815.192 4.05067 0.659465 0
M  V30 8482 H 814.723 3.27463 2.18018 0
M  V30 8483 H 816.738 3.61916 3.39457 0
M  V30 8484 N 815.911 -0.310526 1.54511 0
M  V30 8485 C 816.874 -1.3657 1.84068 0
M  V30 8486 C 817.874 -1.44123 0.713097 0
M  V30 8487 O 819.064 -1.43924 0.981399 0
M  V30 8488 C 816.196 -2.75162 2.01243 0
M  V30 8489 H 817.389 -1.1161 2.78358 0
M  V30 8490 H 814.942 -0.546699 1.46427 0
M  V30 8491 H 815.677 -3.05359 1.09208 0
M  V30 8492 H 815.462 -2.71071 2.83307 0
M  V30 8493 H 816.952 -3.51473 2.25514 0
M  V30 8494 N 817.389 -1.46805 -0.573248 0
M  V30 8495 C 818.352 -1.57655 -1.66366 0
M  V30 8496 C 819.352 -0.452905 -1.5429 0
M  V30 8497 O 820.542 -0.717502 -1.58737 0
M  V30 8498 C 817.674 -1.50584 -3.05839 0
M  V30 8499 H 818.867 -2.54842 -1.581 0
M  V30 8500 H 816.42 -1.34756 -0.791868 0
M  V30 8501 H 817.155 -0.547127 -3.19651 0
M  V30 8502 H 816.94 -2.32118 -3.16012 0
M  V30 8503 H 818.43 -1.61282 -3.85199 0
M  V30 8504 N 818.867 0.818669 -1.34668 0
M  V30 8505 C 819.814 1.92983 -1.26595 0
M  V30 8506 C 820.784 1.65506 -0.140315 0
M  V30 8507 O 821.969 1.88063 -0.322005 0
M  V30 8508 C 819.109 3.2932 -1.03163 0
M  V30 8509 C 818.222 3.69061 -2.24539 0
M  V30 8510 C 817.357 4.94368 -1.94355 0
M  V30 8511 C 816.396 5.26702 -3.11851 0
M  V30 8512 N 815.533 6.43187 -2.81522 0
M  V30 8513 H 820.373 1.99219 -2.2162 0
M  V30 8514 H 817.91 0.974612 -1.1018 0
M  V30 8515 H 819.868 4.07897 -0.87613 0
M  V30 8516 H 818.498 3.22584 -0.118045 0
M  V30 8517 H 817.55 2.85842 -2.50995 0
M  V30 8518 H 818.862 3.88924 -3.12313 0
M  V30 8519 H 818.016 5.80742 -1.75566 0
M  V30 8520 H 816.755 4.76515 -1.03848 0
M  V30 8521 H 815.76 4.38823 -3.31231 0
M  V30 8522 H 816.985 5.46492 -4.03142 0
M  V30 8523 H 814.931 6.26783 -1.93596 0
M  V30 8524 H 814.848 6.63243 -3.62829 0
M  V30 8525 H 816.116 7.32621 -2.66247 0
M  V30 8526 N 820.346 1.18468 1.03938 0
M  V30 8527 C 821.594 0.978895 1.76811 0
M  V30 8528 C 821.915 -0.49257 1.88676 0
M  V30 8529 O 821.185 -1.3572 1.41269 0
M  V30 8530 H 819.765 0.359201 0.654968 0
M  V30 8531 H 822.427 1.49173 1.25433 0
M  V30 8532 H 821.523 1.418 2.78027 0
M  V30 8533 N 821.824 -1.22873 0.986916 0
M  V30 8534 C 822.772 -2.26597 0.525043 0
M  V30 8535 C 823.766 -1.64079 -0.421252 0
M  V30 8536 O 824.972 -1.77576 -0.294429 0
M  V30 8537 H 821.347 -0.736606 0.151381 0
M  V30 8538 H 823.318 -2.62909 1.41142 0
M  V30 8539 C 822.067 -3.47374 -0.150542 0
M  V30 8540 H 821.39 -3.95737 0.568541 0
M  V30 8541 H 822.83 -4.21739 -0.437256 0
M  V30 8542 C 821.289 -3.07163 -1.38392 0
M  V30 8543 O 821.819 -3.16028 -2.47971 0
M  V30 8544 N 820.025 -2.62009 -1.25697 0
M  V30 8545 H 819.572 -2.54996 -0.365355 0
M  V30 8546 H 819.53 -2.35472 -2.08327 0
M  V30 8547 N 823.302 -0.75937 -1.38099 0
M  V30 8548 C 824.232 -0.151077 -2.33011 0
M  V30 8549 C 825.213 0.697099 -1.5516 0
M  V30 8550 O 826.398 0.637101 -1.83452 0
M  V30 8551 C 823.528 0.738423 -3.39359 0
M  V30 8552 C 822.482 -0.0074741 -4.27999 0
M  V30 8553 C 821.808 1.00066 -5.25253 0
M  V30 8554 C 823.108 -1.17926 -5.08813 0
M  V30 8555 H 824.802 -0.943933 -2.84131 0
M  V30 8556 H 822.348 -0.455362 -1.36611 0
M  V30 8557 H 824.301 1.17369 -4.04725 0
M  V30 8558 H 823.025 1.56366 -2.86735 0
M  V30 8559 H 821.684 -0.423379 -3.64147 0
M  V30 8560 H 821.332 1.82012 -4.68914 0
M  V30 8561 H 821.032 0.506199 -5.85416 0
M  V30 8562 H 822.556 1.43512 -5.93495 0
M  V30 8563 H 823.97 -0.821262 -5.67387 0
M  V30 8564 H 822.367 -1.60497 -5.78239 0
M  V30 8565 H 823.437 -1.98938 -4.42212 0
M  V30 8566 N 824.78 1.49157 -0.508906 0
M  V30 8567 C 826.196 1.58741 -0.165372 0
M  V30 8568 C 826.396 1.5133 1.33047 0
M  V30 8569 O 825.452 1.39135 2.10707 0
M  V30 8570 C 826.765 2.91217 -0.749194 0
M  V30 8571 C 828.313 3.047 -0.716015 0
M  V30 8572 C 828.788 4.39807 -1.27804 0
M  V30 8573 N 830.279 4.46319 -1.23908 0
M  V30 8574 C 831.014 5.49325 -1.64406 0
M  V30 8575 N 830.51 6.59395 -2.12534 0
M  V30 8576 N 832.303 5.40084 -1.55773 0
M  V30 8577 H 824.454 1.52217 -1.48134 0
M  V30 8578 H 826.717 0.721514 -0.614915 0
M  V30 8579 H 826.423 3.02233 -1.79856 0
M  V30 8580 H 826.297 3.76592 -0.214144 0
M  V30 8581 H 828.684 2.9331 0.324535 0
M  V30 8582 H 828.765 2.2099 -1.2883 0
M  V30 8583 H 828.409 4.5195 -2.31741 0
M  V30 8584 H 828.339 5.2217 -0.681623 0
M  V30 8585 H 830.83 3.67354 -0.886537 0
M  V30 8586 H 831.143 7.34102 -2.41485 0
M  V30 8587 H 829.488 6.60414 -2.16513 0
M  V30 8588 H 832.679 4.52986 -1.17987 0
M  V30 8589 H 832.852 6.20233 -1.87657 0
M  V30 8590 N 826.258 0.243083 1.55714 0
M  V30 8591 C 827.168 -0.668913 2.24862 0
M  V30 8592 C 828.184 -1.19638 1.26344 0
M  V30 8593 O 829.36 -1.23345 1.5921 0
M  V30 8594 C 826.425 -1.85084 2.93163 0
M  V30 8595 C 825.486 -1.36323 4.07081 0
M  V30 8596 C 824.719 -2.48882 4.72116 0
M  V30 8597 O 824.942 -3.67523 4.36214 0
M  V30 8598 O 823.876 -2.18857 5.60701 0
M  V30 8599 H 827.702 -0.109737 3.03502 0
M  V30 8600 H 825.287 0.0117411 1.49395 0
M  V30 8601 H 827.169 -2.54065 3.36197 0
M  V30 8602 H 825.844 -2.39771 2.17466 0
M  V30 8603 H 824.751 -0.640804 3.68571 0
M  V30 8604 H 826.084 -0.86249 4.84584 0
M  V30 8605 N 827.736 -1.57571 -0.0300757 0
M  V30 8606 C 828.983 -1.89226 -0.721091 0
M  V30 8607 C 829.311 -0.840244 -1.75414 0
M  V30 8608 O 828.566 0.158906 -1.95054 0
M  V30 8609 C 828.865 -3.27624 -1.42818 0
M  V30 8610 C 828.531 -4.4776 -0.531208 0
M  V30 8611 C 827.193 -4.8036 -0.28415 0
M  V30 8612 C 829.545 -5.21125 0.0881582 0
M  V30 8613 C 826.873 -5.83715 0.591065 0
M  V30 8614 C 829.225 -6.2541 0.95107 0
M  V30 8615 C 827.889 -6.56486 1.2076 0
M  V30 8616 H 827.159 -0.692428 -0.263866 0
M  V30 8617 H 829.806 -1.91491 0.0189874 0
M  V30 8618 H 828.111 -3.21343 -2.24155 0
M  V30 8619 H 829.808 -3.49365 -1.96838 0
M  V30 8620 H 826.398 -4.2227 -0.73392 0
M  V30 8621 H 830.582 -4.96219 -0.0897496 0
M  V30 8622 H 825.838 -6.06168 0.798132 0
M  V30 8623 H 830.012 -6.81402 1.43751 0
M  V30 8624 H 827.639 -7.36395 1.88751 0
M  V30 8625 N 829.214 0.302327 -1.54673 0
M  V30 8626 C 830.144 1.37759 -1.88533 0
M  V30 8627 C 831.125 1.52961 -0.744113 0
M  V30 8628 O 832.31 1.6649 -0.999731 0
M  V30 8629 C 829.44 2.74201 -2.13146 0
M  V30 8630 C 828.394 2.73765 -3.28993 0
M  V30 8631 C 827.72 4.13483 -3.39022 0
M  V30 8632 C 829.02 2.35624 -4.66132 0
M  V30 8633 H 830.714 1.0967 -2.78591 0
M  V30 8634 H 828.26 0.52613 -1.34044 0
M  V30 8635 H 830.213 3.49508 -2.35419 0
M  V30 8636 H 828.937 3.03812 -1.19858 0
M  V30 8637 H 827.596 2.00914 -3.06642 0
M  V30 8638 H 827.244 4.40269 -2.43253 0
M  V30 8639 H 826.944 4.14093 -4.16894 0
M  V30 8640 H 828.468 4.90572 -3.63553 0
M  V30 8641 H 829.882 3.00647 -4.88143 0
M  V30 8642 H 828.279 2.47449 -5.46707 0
M  V30 8643 H 829.349 1.30753 -4.66939 0
M  V30 8644 N 830.692 1.47107 0.565454 0
M  V30 8645 C 832.108 1.32443 0.890566 0
M  V30 8646 C 832.308 0.308735 1.99121 0
M  V30 8647 O 831.364 -0.28265 2.50913 0
M  V30 8648 C 832.677 2.71548 1.2916 0
M  V30 8649 C 834.225 2.7977 1.40349 0
M  V30 8650 C 834.7 4.19497 1.83811 0
M  V30 8651 N 836.191 4.21998 1.90975 0
M  V30 8652 C 836.926 5.2702 2.25916 0
M  V30 8653 N 836.422 6.42353 2.59527 0
M  V30 8654 N 838.215 5.14393 2.26619 0
M  V30 8655 H 830.366 2.11786 -0.161328 0
M  V30 8656 H 832.629 0.947952 -0.00950631 0
M  V30 8657 H 832.335 3.47265 0.556753 0
M  V30 8658 H 832.209 3.02782 2.24951 0
M  V30 8659 H 834.596 2.0433 2.12916 0
M  V30 8660 H 834.677 2.522 0.427655 0
M  V30 8661 H 834.321 4.95439 1.11816 0
M  V30 8662 H 834.251 4.44486 2.82382 0
M  V30 8663 H 836.742 3.38791 1.6742 0
M  V30 8664 H 837.055 7.18252 2.85191 0
M  V30 8665 H 835.4 6.45687 2.57126 0
M  V30 8666 H 838.591 4.2332 1.99794 0
M  V30 8667 H 838.764 5.96349 2.5352 0
M  V30 8668 N 832.17 -0.811516 1.35101 0
M  V30 8669 C 833.133 -1.90467 1.27495 0
M  V30 8670 C 834.133 -1.59703 0.187516 0
M  V30 8671 O 835.323 -1.68528 0.440896 0
M  V30 8672 C 832.455 -3.26774 0.971154 0
M  V30 8673 H 833.648 -1.98631 2.2469 0
M  V30 8674 H 831.201 -1.00681 1.19553 0
M  V30 8675 H 831.936 -3.243 0.0028557 0
M  V30 8676 H 831.721 -3.50488 1.75785 0
M  V30 8677 H 833.211 -4.06804 0.943414 0
M  V30 8678 N 833.648 -1.19017 -1.03309 0
M  V30 8679 C 835.064 -0.941483 -1.28873 0
M  V30 8680 C 835.264 0.388587 -1.97718 0
M  V30 8681 O 834.32 1.12111 -2.26246 0
M  V30 8682 C 835.633 -2.11249 -2.13996 0
M  V30 8683 C 837.181 -2.15164 -2.27318 0
M  V30 8684 C 837.656 -3.31704 -3.15811 0
M  V30 8685 N 839.147 -3.31613 -3.23399 0
M  V30 8686 C 839.882 -4.18431 -3.9205 0
M  V30 8687 N 839.378 -5.15397 -4.62966 0
M  V30 8688 N 841.171 -4.06321 -3.88406 0
M  V30 8689 H 833.322 -2.04599 -0.570343 0
M  V30 8690 H 835.585 -0.894406 -0.314232 0
M  V30 8691 H 835.291 -3.07482 -1.70727 0
M  V30 8692 H 835.165 -2.07955 -3.14697 0
M  V30 8693 H 837.552 -1.19504 -2.6982 0
M  V30 8694 H 837.633 -2.22513 -1.26182 0
M  V30 8695 H 837.277 -4.2764 -2.74019 0
M  V30 8696 H 837.207 -3.21592 -4.16997 0
M  V30 8697 H 839.698 -2.6142 -2.72888 0
M  V30 8698 H 840.011 -5.78 -5.12968 0
M  V30 8699 H 838.356 -5.19349 -4.61846 0
M  V30 8700 H 841.547 -3.29849 -3.3214 0
M  V30 8701 H 841.72 -4.74196 -4.41635 0
M  V30 8702 N 835.127 1.22348 -0.993418 0
M  V30 8703 C 836.543 1.43222 -0.704238 0
M  V30 8704 C 836.743 1.88009 0.724909 0
M  V30 8705 O 835.799 2.03429 1.49575 0
M  V30 8706 C 837.112 2.47328 -1.71025 0
M  V30 8707 C 838.66 2.61126 -1.72576 0
M  V30 8708 C 839.135 3.68453 -2.72041 0
M  V30 8709 N 840.626 3.75911 -2.70639 0
M  V30 8710 C 841.361 4.58551 -3.44266 0
M  V30 8711 N 840.857 5.45179 -4.27495 0
M  V30 8712 N 842.65 4.52866 -3.32969 0
M  V30 8713 H 834.801 0.915832 -1.91641 0
M  V30 8714 H 837.064 0.464283 -0.826526 0
M  V30 8715 H 836.77 2.21366 -2.73295 0
M  V30 8716 H 836.644 3.45939 -1.50353 0
M  V30 8717 H 839.031 2.86431 -0.710037 0
M  V30 8718 H 839.112 1.62787 -1.97317 0
M  V30 8719 H 838.756 3.43895 -3.73763 0
M  V30 8720 H 838.686 4.66362 -2.4457 0
M  V30 8721 H 841.177 3.14014 -2.10247 0
M  V30 8722 H 841.49 6.0526 -4.80499 0
M  V30 8723 H 839.835 5.44759 -4.31582 0
M  V30 8724 H 843.026 3.84215 -2.67389 0
M  V30 8725 H 843.199 5.17039 -3.90608 0
M  V30 8726 N 836.605 0.766683 1.37694 0
M  V30 8727 C 838.016 0.394761 1.82479 0
M  V30 8728 C 838.367 -1.07842 1.63904 0
M  V30 8729 O 837.492 -1.83479 1.14737 0
M  V30 8730 C 838.087 0.70974 3.31283 0
M  V30 8731 C 836.646 0.390936 3.74364 0
M  V30 8732 C 835.793 0.956192 2.60293 0
M  V30 8733 H 838.744 0.961756 1.26238 0
M  V30 8734 H 838.765 -0.00742144 3.80499 0
M  V30 8735 H 838.277 1.782 3.4477 0
M  V30 8736 H 836.378 -0.674213 3.66449 0
M  V30 8737 H 836.491 0.895645 4.70654 0
M  V30 8738 H 834.855 0.380744 2.51838 0
M  V30 8739 H 835.638 2.03375 2.76575 0
M  V30 8740 N 838.083 -1.48885 0.516809 0
M  V30 8741 C 839.494 -1.86557 0.0729921 0
M  V30 8742 C 839.845 -1.42767 -1.34581 0
M  V30 8743 O 838.97 -0.812514 -2.00567 0
M  V30 8744 C 839.565 -3.38567 0.125686 0
M  V30 8745 C 838.124 -3.75481 -0.262867 0
M  V30 8746 C 837.271 -2.72913 0.491281 0
M  V30 8747 H 840.222 -1.40978 0.728767 0
M  V30 8748 H 840.243 -3.74629 -0.665831 0
M  V30 8749 H 839.755 -3.70408 1.15842 0
M  V30 8750 H 837.856 -3.49251 -1.29824 0
M  V30 8751 H 837.969 -4.79052 0.067579 0
M  V30 8752 H 836.333 -2.54627 -0.0608525 0
M  V30 8753 H 837.116 -3.07599 1.5244 0
M  V30 8754 N 839.561 -0.251338 -1.55583 0
M  V30 8755 C 840.809 0.371434 -1.98657 0
M  V30 8756 C 841.13 1.58143 -1.14087 0
M  V30 8757 O 840.4 1.94607 -0.224708 0
M  V30 8758 H 838.98 0.140225 -0.733721 0
M  V30 8759 H 841.642 -0.351157 -1.9171 0
M  V30 8760 H 840.738 0.677554 -3.04657 0
M  V30 8761 N 841.039 1.57585 0.0217189 0
M  V30 8762 C 842.45 1.7787 0.567377 0
M  V30 8763 C 842.801 0.883337 1.7519 0
M  V30 8764 O 841.926 0.0800819 2.16252 0
M  V30 8765 C 842.521 3.2257 1.03606 0
M  V30 8766 C 841.08 3.44026 1.52718 0
M  V30 8767 C 840.227 2.73313 0.468545 0
M  V30 8768 H 843.178 1.57377 -0.2045 0
M  V30 8769 H 843.199 3.29488 1.9031 0
M  V30 8770 H 842.711 3.87711 0.173739 0
M  V30 8771 H 840.812 2.8407 2.41111 0
M  V30 8772 H 840.925 4.52659 1.56962 0
M  V30 8773 H 839.289 2.37299 0.925263 0
M  V30 8774 H 840.072 3.41141 -0.384438 0
M  V30 8775 N 842.517 -0.29412 1.54831 0
M  V30 8776 C 843.794 -1.04847 1.65126 0
M  V30 8777 C 844.174 -2.04996 0.503986 0
M  V30 8778 O 843.522 -2.22996 -0.498496 0
M  V30 8779 C 843.732 -1.72418 3.03435 0
M  V30 8780 C 845.08 -2.24362 3.60481 0
M  V30 8781 O 846.104 -1.8244 3.05932 0
M  V30 8782 O 844.963 -3.01196 4.56008 0
M  V30 8783 H 842.057 -0.485032 0.669831 0
M  V30 8784 H 844.603 -0.291659 1.67175 0
M  V30 8785 H 843.375 -0.997351 3.78376 0
M  V30 8786 H 842.998 -2.54839 3.05193 0
M  V30 8787 N 843.995 -1.47404 -0.557645 0
M  V30 8788 C 844.925 -1.62736 -1.67449 0
M  V30 8789 C 845.906 -0.476824 -1.6328 0
M  V30 8790 O 847.091 -0.706108 -1.80908 0
M  V30 8791 C 844.221 -1.641 -3.06086 0
M  V30 8792 C 843.175 -2.78377 -3.25101 0
M  V30 8793 C 842.501 -2.64812 -4.6452 0
M  V30 8794 C 843.801 -4.19971 -3.10518 0
M  V30 8795 H 845.495 -2.56232 -1.54873 0
M  V30 8796 H 843.041 -1.23312 -0.743649 0
M  V30 8797 H 844.994 -1.73417 -3.84063 0
M  V30 8798 H 843.718 -0.671652 -3.19619 0
M  V30 8799 H 842.377 -2.6857 -2.49531 0
M  V30 8800 H 842.025 -1.65906 -4.74852 0
M  V30 8801 H 841.725 -3.41477 -4.78191 0
M  V30 8802 H 843.249 -2.76057 -5.44633 0
M  V30 8803 H 844.663 -4.30757 -3.78313 0
M  V30 8804 H 843.06 -4.97419 -3.35699 0
M  V30 8805 H 844.13 -4.38369 -2.0727 0
M  V30 8806 N 845.473 0.80434 -1.35529 0
M  V30 8807 C 846.698 1.598 -1.32207 0
M  V30 8808 C 847.123 1.87848 0.0974226 0
M  V30 8809 O 846.481 1.46728 1.06492 0
M  V30 8810 C 846.529 2.90483 -2.13663 0
M  V30 8811 O 845.633 3.83411 -1.51888 0
M  V30 8812 H 844.974 0.485305 -0.453183 0
M  V30 8813 H 847.504 0.998119 -1.78602 0
M  V30 8814 H 847.514 3.39888 -2.257 0
M  V30 8815 H 846.189 2.69395 -3.16859 0
M  V30 8816 H 844.766 3.41967 -1.48704 0
M  V30 8817 N 846.951 1.19563 1.02676 0
M  V30 8818 C 848.362 1.00158 1.57561 0
M  V30 8819 C 848.713 -0.444922 1.91089 0
M  V30 8820 O 847.838 -1.32466 1.71119 0
M  V30 8821 C 848.433 1.81181 2.86284 0
M  V30 8822 C 846.992 1.66171 3.37734 0
M  V30 8823 C 846.139 1.7975 2.11152 0
M  V30 8824 H 849.09 1.33904 0.85179 0
M  V30 8825 H 849.111 1.30916 3.57269 0
M  V30 8826 H 848.623 2.86454 2.6185 0
M  V30 8827 H 846.724 0.634927 3.6715 0
M  V30 8828 H 846.837 2.46832 4.10622 0
M  V30 8829 H 845.201 1.22833 2.23123 0
M  V30 8830 H 845.984 2.86487 1.89157 0
M  V30 8831 N 848.429 -1.21819 0.999893 0
M  V30 8832 C 849.706 -1.86318 0.595384 0
M  V30 8833 C 850.086 -1.8965 -0.927143 0
M  V30 8834 O 849.434 -1.3921 -1.81199 0
M  V30 8835 C 849.644 -3.26837 1.22387 0
M  V30 8836 C 850.992 -4.03272 1.32878 0
M  V30 8837 O 852.016 -3.36129 1.1788 0
M  V30 8838 O 850.875 -5.23477 1.56952 0
M  V30 8839 H 847.969 -0.801638 0.203238 0
M  V30 8840 H 850.515 -1.29542 1.09622 0
M  V30 8841 H 849.287 -3.19084 2.26497 0
M  V30 8842 H 848.91 -3.91226 0.709069 0
M  V30 8843 N 849.908 -0.773975 -1.37286 0
M  V30 8844 C 851.156 -0.338636 -1.99243 0
M  V30 8845 C 851.477 1.08919 -1.61746 0
M  V30 8846 O 850.747 1.74822 -0.88397 0
M  V30 8847 H 849.327 -0.12222 -0.736934 0
M  V30 8848 H 851.989 -0.992595 -1.67731 0
M  V30 8849 H 851.085 -0.418055 -3.09287 0
M  V30 8850 N 851.386 1.48609 -0.524698 0
M  V30 8851 C 852.797 1.86516 -0.0828846 0
M  V30 8852 C 853.148 1.43478 1.33822 0
M  V30 8853 O 852.273 0.823139 2.00133 0
M  V30 8854 C 852.868 3.38495 -0.143639 0
M  V30 8855 C 851.427 3.75615 0.242951 0
M  V30 8856 C 850.574 2.72649 -0.505747 0
M  V30 8857 H 853.525 1.40589 -0.736233 0
M  V30 8858 H 853.546 3.74977 0.645955 0
M  V30 8859 H 853.058 3.69789 -1.17805 0
M  V30 8860 H 851.159 3.49935 1.27971 0
M  V30 8861 H 851.272 4.7901 -0.0929834 0
M  V30 8862 H 849.636 2.54656 0.0473482 0
M  V30 8863 H 850.419 3.06786 -1.54069 0
M  V30 8864 N 852.864 0.259585 1.55447 0
M  V30 8865 C 854.28 -0.094961 1.59317 0
M  V30 8866 C 854.48 -1.55884 1.2768 0
M  V30 8867 O 853.536 -2.30528 1.0302 0
M  V30 8868 C 854.849 0.265669 2.99524 0
M  V30 8869 C 856.397 0.211007 3.12288 0
M  V30 8870 C 856.872 0.545851 4.54736 0
M  V30 8871 N 858.363 0.496823 4.60528 0
M  V30 8872 C 859.098 0.728909 5.68748 0
M  V30 8873 N 858.594 1.02479 6.85179 0
M  V30 8874 N 860.387 0.658756 5.58226 0
M  V30 8875 H 852.538 1.2141 1.7428 0
M  V30 8876 H 854.801 0.489404 0.811904 0
M  V30 8877 H 854.507 1.28316 3.27457 0
M  V30 8878 H 854.381 -0.401089 3.75061 0
M  V30 8879 H 856.768 -0.797172 2.84129 0
M  V30 8880 H 856.849 0.911799 2.38998 0
M  V30 8881 H 856.493 1.55164 4.83618 0
M  V30 8882 H 856.423 -0.17656 5.26304 0
M  V30 8883 H 858.914 0.277376 3.76881 0
M  V30 8884 H 859.227 1.18897 7.63599 0
M  V30 8885 H 857.572 1.0624 6.86832 0
M  V30 8886 H 860.763 0.427553 4.66143 0
M  V30 8887 H 860.936 0.84302 6.42493 0
M  V30 8888 N 854.342 -1.57594 -0.0133615 0
M  V30 8889 C 855.567 -1.94649 -0.715996 0
M  V30 8890 C 855.992 -0.860786 -1.67249 0
M  V30 8891 O 855.35 0.182228 -1.80382 0
M  V30 8892 C 855.398 -3.30789 -1.43566 0
M  V30 8893 O 854.502 -3.24148 -2.54955 0
M  V30 8894 H 853.843 -0.635801 -0.191449 0
M  V30 8895 H 856.373 -2.04569 0.0358478 0
M  V30 8896 H 856.383 -3.66045 -1.80208 0
M  V30 8897 H 855.058 -4.09367 -0.734263 0
M  V30 8898 H 853.635 -3.00548 -2.20739 0
M  V30 8899 N 855.82 0.285905 -1.54985 0
M  V30 8900 C 857.045 1.04207 -1.7932 0
M  V30 8901 C 857.47 1.79622 -0.558343 0
M  V30 8902 O 856.828 1.74506 0.491661 0
M  V30 8903 C 856.876 1.98648 -3.0095 0
M  V30 8904 O 855.98 3.07207 -2.75132 0
M  V30 8905 H 855.321 0.298596 -0.593074 0
M  V30 8906 H 857.851 0.318736 -2.02102 0
M  V30 8907 H 857.861 2.4084 -3.29333 0
M  V30 8908 H 856.536 1.43167 -3.90482 0
M  V30 8909 H 855.113 2.69423 -2.57809 0
M  V30 8910 N 857.298 1.47698 0.54982 0
M  V30 8911 C 858.208 1.63386 1.68351 0
M  V30 8912 C 859.224 0.516583 1.66155 0
M  V30 8913 O 860.4 0.785088 1.85468 0
M  V30 8914 C 857.465 1.6513 3.04849 0
M  V30 8915 C 856.526 2.88338 3.18056 0
M  V30 8916 C 855.759 2.8999 4.48042 0
M  V30 8917 O 855.982 2.00633 5.3395 0
M  V30 8918 O 854.916 3.81938 4.65196 0
M  V30 8919 H 858.742 2.59329 1.58057 0
M  V30 8920 H 856.327 1.30869 0.72067 0
M  V30 8921 H 858.209 1.68913 3.86065 0
M  V30 8922 H 856.884 0.723555 3.1551 0
M  V30 8923 H 855.791 2.90097 2.36209 0
M  V30 8924 H 857.124 3.80431 3.12302 0
M  V30 8925 N 858.776 -0.797141 1.35954 0
M  V30 8926 C 860.024 -1.55161 1.29497 0
M  V30 8927 C 860.345 -1.94582 -0.127659 0
M  V30 8928 O 859.615 -1.64343 -1.06622 0
M  V30 8929 H 858.195 -0.575413 0.47635 0
M  V30 8930 H 860.857 -0.950282 1.70164 0
M  V30 8931 H 859.953 -2.46272 1.9172 0
M  V30 8932 N 860.254 -1.20106 -1.0204 0
M  V30 8933 C 861.665 -1.00992 -1.57027 0
M  V30 8934 C 862.016 0.434782 -1.91322 0
M  V30 8935 O 861.141 1.31557 -1.71819 0
M  V30 8936 C 861.736 -1.82697 -2.85319 0
M  V30 8937 C 860.295 -1.67959 -3.36848 0
M  V30 8938 C 859.442 -1.80868 -2.10195 0
M  V30 8939 H 862.393 -1.34354 -0.844676 0
M  V30 8940 H 862.414 -1.32809 -3.5657 0
M  V30 8941 H 861.926 -2.87839 -2.60328 0
M  V30 8942 H 860.027 -0.654389 -3.66809 0
M  V30 8943 H 860.14 -2.49006 -4.09308 0
M  V30 8944 H 858.504 -1.24015 -2.22469 0
M  V30 8945 H 859.287 -2.87486 -1.87635 0
M  V30 8946 N 861.732 1.21287 -1.00634 0
M  V30 8947 C 862.662 2.25973 -0.588089 0
M  V30 8948 C 863.643 1.65527 0.391764 0
M  V30 8949 O 864.828 1.92179 0.279452 0
M  V30 8950 C 861.958 3.47197 0.0847336 0
M  V30 8951 C 860.912 4.20168 -0.815039 0
M  V30 8952 C 860.238 5.34699 -0.00855393 0
M  V30 8953 C 861.538 4.77416 -2.11828 0
M  V30 8954 H 863.232 2.61212 -1.46317 0
M  V30 8955 H 860.778 1.25563 -0.704985 0
M  V30 8956 H 862.731 4.19602 0.388821 0
M  V30 8957 H 861.455 3.11092 0.994456 0
M  V30 8958 H 860.114 3.49614 -1.10297 0
M  V30 8959 H 859.762 4.94837 0.902499 0
M  V30 8960 H 859.462 5.84449 -0.607664 0
M  V30 8961 H 860.986 6.09914 0.289317 0
M  V30 8962 H 862.4 5.41694 -1.87725 0
M  V30 8963 H 860.797 5.37561 -2.66736 0
M  V30 8964 H 861.867 3.96724 -2.78816 0
M  V30 8965 N 863.21 0.781244 1.36873 0
M  V30 8966 C 864.435 0.360398 2.04245 0
M  V30 8967 C 864.86 -1.01242 1.58529 0
M  V30 8968 O 864.218 -1.65063 0.749936 0
M  V30 8969 C 864.266 0.42329 3.58107 0
M  V30 8970 O 863.37 -0.572796 4.08403 0
M  V30 8971 H 862.711 0.154386 0.645803 0
M  V30 8972 H 865.241 1.06008 1.74996 0
M  V30 8973 H 865.251 0.283967 4.07011 0
M  V30 8974 H 863.926 1.42477 3.90734 0
M  V30 8975 H 862.503 -0.395809 3.70793 0
M  V30 8976 N 864.689 -1.48329 0.532571 0
M  V30 8977 C 865.936 -2.025 -0.000582356 0
M  V30 8978 C 866.264 -1.40942 -1.34036 0
M  V30 8979 O 865.519 -0.545545 -1.87942 0
M  V30 8980 C 865.818 -3.57 -0.168943 0
M  V30 8981 C 865.484 -4.37357 1.0968 0
M  V30 8982 C 864.146 -4.59033 1.44369 0
M  V30 8983 C 866.498 -4.83882 1.93669 0
M  V30 8984 C 863.826 -5.24481 2.62939 0
M  V30 8985 C 866.178 -5.50637 3.11419 0
M  V30 8986 C 864.842 -5.70551 3.46451 0
M  V30 8987 H 864.112 -0.741 -0.000213099 0
M  V30 8988 H 866.759 -1.78282 0.699117 0
M  V30 8989 H 865.064 -3.80072 -0.951429 0
M  V30 8990 H 866.761 -3.9654 -0.596422 0
M  V30 8991 H 863.351 -4.20748 0.816655 0
M  V30 8992 H 867.535 -4.66936 1.6818 0
M  V30 8993 H 862.791 -5.38096 2.9028 0
M  V30 8994 H 866.965 -5.85655 3.76803 0
M  V30 8995 H 864.592 -6.21037 4.38425 0
M  V30 8996 N 866.167 -0.267825 -1.55308 0
M  V30 8997 C 867.578 0.231344 -1.85261 0
M  V30 8998 C 867.929 1.56006 -1.18982 0
M  V30 8999 O 867.054 2.1111 -0.475554 0
M  V30 9000 C 867.649 0.426537 -3.36104 0
M  V30 9001 C 866.208 0.869945 -3.66209 0
M  V30 9002 C 865.355 -0.0409522 -2.7727 0
M  V30 9003 H 868.306 -0.489821 -1.50952 0
M  V30 9004 H 868.327 1.26616 -3.58816 0
M  V30 9005 H 867.839 -0.540678 -3.84315 0
M  V30 9006 H 865.94 1.84889 -3.23492 0
M  V30 9007 H 866.053 0.712316 -4.73775 0
M  V30 9008 H 864.417 0.474097 -2.50249 0
M  V30 9009 H 865.2 -1.00392 -3.28293 0
M  V30 9010 N 867.645 1.57599 0.00500368 0
M  V30 9011 C 868.891 1.90631 0.691919 0
M  V30 9012 C 869.224 0.868443 1.737 0
M  V30 9013 O 868.499 -0.113482 1.94169 0
M  V30 9014 C 868.782 3.34255 1.33961 0
M  V30 9015 C 868.635 4.48755 0.306413 0
M  V30 9016 C 869.954 3.77211 2.26715 0
M  V30 9017 H 867.073 0.693279 0.250066 0
M  V30 9018 H 869.715 1.89946 -0.0452634 0
M  V30 9019 H 867.865 3.3497 1.96793 0
M  V30 9020 H 869.537 4.60176 -0.321841 0
M  V30 9021 H 867.78 4.32203 -0.371852 0
M  V30 9022 H 868.451 5.46193 0.798554 0
M  V30 9023 H 870.927 3.78017 1.73904 0
M  V30 9024 H 869.803 4.78466 2.69002 0
M  V30 9025 H 870.064 3.10801 3.14413 0
M  V30 9026 N 869.123 -0.277682 1.55134 0
M  V30 9027 C 870.053 -1.34742 1.90701 0
M  V30 9028 C 871.034 -1.51757 0.768354 0
M  V30 9029 O 872.219 -1.64879 1.02609 0
M  V30 9030 C 869.349 -2.70775 2.17481 0
M  V30 9031 C 868.303 -2.68497 3.33307 0
M  V30 9032 C 867.629 -4.08037 3.45557 0
M  V30 9033 C 868.929 -2.28178 4.69821 0
M  V30 9034 H 870.623 -1.05224 2.803 0
M  V30 9035 H 868.169 -0.504738 1.34864 0
M  V30 9036 H 870.122 -3.45719 2.40949 0
M  V30 9037 H 868.846 -3.01867 1.24676 0
M  V30 9038 H 867.505 -1.9601 3.09799 0
M  V30 9039 H 867.153 -4.36344 2.50226 0
M  V30 9040 H 866.853 -4.07409 4.23429 0
M  V30 9041 H 868.377 -4.84726 3.71312 0
M  V30 9042 H 869.791 -2.92843 4.92865 0
M  V30 9043 H 868.188 -2.3872 5.50575 0
M  V30 9044 H 869.258 -1.23308 4.6896 0
M  V30 9045 N 870.601 -1.47988 -0.541979 0
M  V30 9046 C 871.847 -1.55623 -1.30036 0
M  V30 9047 C 872.18 -0.224254 -1.92901 0
M  V30 9048 O 871.455 0.768629 -1.78668 0
M  V30 9049 C 871.738 -2.68562 -2.39888 0
M  V30 9050 C 871.591 -4.11426 -1.81792 0
M  V30 9051 C 872.91 -2.77325 -3.41729 0
M  V30 9052 H 870.029 -0.566498 -0.471433 0
M  V30 9053 H 872.671 -1.8011 -0.604998 0
M  V30 9054 H 870.821 -2.47814 -2.992 0
M  V30 9055 H 872.493 -4.43581 -1.26624 0
M  V30 9056 H 870.736 -4.18989 -1.12386 0
M  V30 9057 H 871.407 -4.8625 -2.61276 0
M  V30 9058 H 873.883 -2.96085 -2.92357 0
M  V30 9059 H 872.759 -3.58097 -4.16002 0
M  V30 9060 H 873.02 -1.84995 -4.01534 0
M  V30 9061 N 872.079 0.78992 -1.36375 0
M  V30 9062 C 873.304 1.58389 -1.33895 0
M  V30 9063 C 873.729 1.8794 0.0774934 0
M  V30 9064 O 873.087 1.4785 1.0493 0
M  V30 9065 C 873.135 2.88201 -2.16732 0
M  V30 9066 O 872.239 3.81778 -1.55946 0
M  V30 9067 H 871.58 0.480471 -0.458305 0
M  V30 9068 H 874.11 0.979119 -1.79651 0
M  V30 9069 H 874.12 3.37475 -2.29292 0
M  V30 9070 H 872.795 2.66019 -3.19698 0
M  V30 9071 H 871.372 3.40371 -1.52323 0
M  V30 9072 N 873.557 1.20646 1.01402 0
M  V30 9073 C 874.797 1.02951 1.7658 0
M  V30 9074 C 875.161 -0.430522 1.87111 0
M  V30 9075 O 876.362 -0.727727 2.58762 0
M  V30 9076 C 874.633 1.69728 3.14527 0
M  V30 9077 S 876.192 1.6717 4.05709 0
M  V30 9078 H 873.01 0.36911 0.607683 0
M  V30 9079 H 875.612 1.53243 1.21395 0
M  V30 9080 H 874.316 2.75162 3.0449 0
M  V30 9081 H 873.847 1.19578 3.74786 0
M  V30 9082 H 875.862 0.706397 4.91146 0
M  V30 9083 N 875.035 -1.20752 1.01276 0
M  V30 9084 C 875.998 -2.2162 0.584583 0
M  V30 9085 C 876.998 -1.57094 -0.343215 0
M  V30 9086 O 878.188 -1.73696 -0.132433 0
M  V30 9087 C 875.32 -3.40583 -0.146872 0
M  V30 9088 H 876.513 -2.61015 1.47686 0
M  V30 9089 H 874.066 -1.34148 0.802123 0
M  V30 9090 H 874.801 -3.06686 -1.05424 0
M  V30 9091 H 874.586 -3.88642 0.51958 0
M  V30 9092 H 876.076 -4.15339 -0.433924 0
M  V30 9093 N 876.513 -0.788492 -1.36457 0
M  V30 9094 C 877.743 -0.371825 -2.03227 0
M  V30 9095 C 878.151 1.01627 -1.59589 0
M  V30 9096 O 877.494 1.663 -0.780382 0
M  V30 9097 C 877.556 -0.355179 -3.57741 0
M  V30 9098 C 877.22 -1.69069 -4.24576 0
M  V30 9099 C 878.217 -2.64601 -4.47529 0
M  V30 9100 C 875.902 -1.96973 -4.62068 0
M  V30 9101 C 877.896 -3.86232 -5.07054 0
M  V30 9102 C 875.583 -3.18872 -5.2131 0
M  V30 9103 C 876.581 -4.1332 -5.43742 0
M  V30 9104 O 876.269 -5.3307 -6.0174 0
M  V30 9105 H 876.001 -0.151452 -0.658816 0
M  V30 9106 H 878.555 -1.06827 -1.75434 0
M  V30 9107 H 876.785 0.397753 -3.84649 0
M  V30 9108 H 878.474 0.0366955 -4.05883 0
M  V30 9109 H 879.24 -2.44329 -4.18961 0
M  V30 9110 H 875.119 -1.24277 -4.43933 0
M  V30 9111 H 878.663 -4.59965 -5.24478 0
M  V30 9112 H 874.56 -3.39022 -5.49304 0
M  V30 9113 H 875.328 -5.34121 -6.20207 0
M  V30 9114 N 877.991 1.48044 -0.54043 0
M  V30 9115 C 878.923 2.2779 0.253854 0
M  V30 9116 C 879.936 1.35999 0.894883 0
M  V30 9117 O 881.125 1.60963 0.771563 0
M  V30 9118 C 878.225 3.09724 1.37566 0
M  V30 9119 C 877.398 4.29364 0.83459 0
M  V30 9120 C 876.457 4.93026 1.83881 0
M  V30 9121 O 875.483 5.51927 1.39159 0
M  V30 9122 N 876.685 4.86207 3.17149 0
M  V30 9123 H 879.45 2.96597 -0.430125 0
M  V30 9124 H 877.011 1.57487 -0.375423 0
M  V30 9125 H 879.003 3.49181 2.04584 0
M  V30 9126 H 877.573 2.43269 1.96314 0
M  V30 9127 H 876.793 3.94198 -0.0118878 0
M  V30 9128 H 878.081 5.06787 0.452155 0
M  V30 9129 H 877.479 4.39523 3.56141 0
M  V30 9130 H 876.036 5.29733 3.79771 0
M  V30 9131 N 879.47 0.276058 1.55163 0
M  V30 9132 C 880.716 -0.340959 1.99913 0
M  V30 9133 C 881.049 -1.55434 1.16422 0
M  V30 9134 O 880.324 -1.93081 0.234517 0
M  V30 9135 C 880.607 -0.722211 3.52783 0
M  V30 9136 C 880.46 0.498575 4.47028 0
M  V30 9137 C 881.779 -1.5583 4.11589 0
M  V30 9138 H 878.898 -0.122455 0.726756 0
M  V30 9139 H 881.54 0.38319 1.86096 0
M  V30 9140 H 879.69 -1.33919 3.64689 0
M  V30 9141 H 881.362 1.13713 4.47065 0
M  V30 9142 H 879.605 1.13646 4.18649 0
M  V30 9143 H 880.276 0.188041 5.5168 0
M  V30 9144 H 882.752 -1.03722 4.02965 0
M  V30 9145 H 881.628 -1.79387 5.1876 0
M  V30 9146 H 881.889 -2.53963 3.61877 0
M  V30 9147 N 880.948 -1.576 0.00335426 0
M  V30 9148 C 881.911 -2.07576 -0.971838 0
M  V30 9149 C 882.911 -0.985796 -1.27038 0
M  V30 9150 O 884.101 -1.24833 -1.21501 0
M  V30 9151 C 881.233 -2.52003 -2.29581 0
M  V30 9152 H 882.426 -2.95008 -0.539481 0
M  V30 9153 H 879.979 -1.54381 -0.244186 0
M  V30 9154 H 880.714 -1.67825 -2.77498 0
M  V30 9155 H 880.499 -3.31609 -2.09231 0
M  V30 9156 H 881.989 -2.90983 -2.99531 0
M  V30 9157 N 882.426 0.269451 -1.5528 0
M  V30 9158 C 883.842 0.616827 -1.47199 0
M  V30 9159 C 884.042 1.89354 -0.68901 0
M  V30 9160 O 883.098 2.51631 -0.209287 0
M  V30 9161 C 884.411 0.740492 -2.9144 0
M  V30 9162 C 885.959 0.834312 -3.01676 0
M  V30 9163 C 886.434 0.989725 -4.47178 0
M  V30 9164 N 887.925 1.05516 -4.51022 0
M  V30 9165 C 888.66 1.19427 -5.60825 0
M  V30 9166 N 888.156 1.30035 -6.80487 0
M  V30 9167 N 889.949 1.22566 -5.48575 0
M  V30 9168 H 882.1 -0.568962 -2.04638 0
M  V30 9169 H 884.363 -0.193153 -0.928114 0
M  V30 9170 H 884.069 -0.127234 -3.5147 0
M  V30 9171 H 883.943 1.61965 -3.40657 0
M  V30 9172 H 886.33 1.6925 -2.4174 0
M  V30 9173 H 886.411 -0.0695298 -2.55705 0
M  V30 9174 H 886.055 0.136179 -5.07717 0
M  V30 9175 H 885.985 1.90827 -4.90808 0
M  V30 9176 H 888.476 0.985434 -3.64825 0
M  V30 9177 H 888.789 1.40494 -7.59922 0
M  V30 9178 H 887.134 1.27033 -6.83292 0
M  V30 9179 H 890.325 1.13911 -4.54029 0
M  V30 9180 H 890.498 1.33063 -6.34191 0
M  V30 9181 N 883.904 1.48273 0.534124 0
M  V30 9182 C 885.152 1.55771 1.28762 0
M  V30 9183 C 885.473 0.231575 1.9362 0
M  V30 9184 O 884.743 -0.746533 1.81118 0
M  V30 9185 H 883.323 0.573851 0.47823 0
M  V30 9186 H 885.985 1.84712 0.621888 0
M  V30 9187 H 885.081 2.33657 2.06908 0
M  V30 9188 N 885.382 -0.782676 1.36792 0
M  V30 9189 C 886.315 -1.90241 1.2603 0
M  V30 9190 C 887.293 -1.61969 0.143055 0
M  V30 9191 O 888.477 -1.85843 0.315366 0
M  V30 9192 C 885.604 -3.25218 0.946082 0
M  V30 9193 C 884.65 -3.72414 2.0787 0
M  V30 9194 S 885.483 -3.87376 3.69729 0
M  V30 9195 C 886.639 -5.25219 3.40435 0
M  V30 9196 H 886.872 -1.99079 2.20805 0
M  V30 9197 H 884.405 -0.942625 1.22286 0
M  V30 9198 H 886.363 -4.03183 0.771612 0
M  V30 9199 H 885.024 -3.14096 0.0159991 0
M  V30 9200 H 884.217 -4.7024 1.81358 0
M  V30 9201 H 883.819 -3.01519 2.21274 0
M  V30 9202 H 886.111 -6.10025 2.94746 0
M  V30 9203 H 887.054 -5.56738 4.37549 0
M  V30 9204 H 887.462 -4.92638 2.75622 0
M  V30 9205 N 886.86 -1.21182 -1.00761 0
M  V30 9206 C 887.792 -0.926523 -2.09638 0
M  V30 9207 C 888.805 0.0892511 -1.62555 0
M  V30 9208 O 889.994 -0.142915 -1.77927 0
M  V30 9209 C 887.094 -0.369175 -3.36883 0
M  V30 9210 C 886.267 -1.43866 -4.13063 0
M  V30 9211 C 885.326 -0.891015 -5.18601 0
M  V30 9212 O 884.352 -1.57384 -5.47009 0
M  V30 9213 N 885.554 0.295057 -5.7975 0
M  V30 9214 H 888.319 -1.8638 -2.34697 0
M  V30 9215 H 885.88 -1.11671 -1.17223 0
M  V30 9216 H 887.872 0.011534 -4.04698 0
M  V30 9217 H 886.442 0.472861 -3.09003 0
M  V30 9218 H 885.662 -1.99332 -3.40089 0
M  V30 9219 H 886.95 -2.15866 -4.60738 0
M  V30 9220 H 886.348 0.8669 -5.59018 0
M  V30 9221 H 884.905 0.617306 -6.4887 0
M  V30 9222 N 888.338 1.20213 -1.01915 0
M  V30 9223 C 889.568 1.93341 -0.728197 0
M  V30 9224 C 889.976 1.75151 0.715454 0
M  V30 9225 O 889.319 1.06437 1.49722 0
M  V30 9226 C 889.381 3.45677 -0.9873 0
M  V30 9227 C 889.045 3.8763 -2.42057 0
M  V30 9228 C 890.042 3.93184 -3.40151 0
M  V30 9229 C 887.727 4.19547 -2.76199 0
M  V30 9230 C 889.721 4.30069 -4.70446 0
M  V30 9231 C 887.408 4.56106 -4.06707 0
M  V30 9232 C 888.406 4.6134 -5.03641 0
M  V30 9233 O 888.094 4.97059 -6.31813 0
M  V30 9234 H 887.826 0.621258 -0.266485 0
M  V30 9235 H 890.38 1.53577 -1.36393 0
M  V30 9236 H 888.61 3.85578 -0.294405 0
M  V30 9237 H 890.299 4.00035 -0.687536 0
M  V30 9238 H 891.065 3.68687 -3.15111 0
M  V30 9239 H 886.944 4.14663 -2.01434 0
M  V30 9240 H 890.488 4.34069 -5.46105 0
M  V30 9241 H 886.385 4.80059 -4.31525 0
M  V30 9242 H 887.153 5.15043 -6.36139 0
M  V30 9243 N 889.816 0.795718 1.36037 0
M  V30 9244 C 890.746 0.212803 2.32528 0
M  V30 9245 C 891.727 -0.655716 1.56953 0
M  V30 9246 O 892.912 -0.588238 1.85077 0
M  V30 9247 C 890.042 -0.648189 3.41198 0
M  V30 9248 C 888.996 0.120948 4.27829 0
M  V30 9249 C 888.322 -0.861044 5.27722 0
M  V30 9250 C 889.622 1.31375 5.05508 0
M  V30 9251 H 891.316 1.01893 2.81528 0
M  V30 9252 H 888.862 0.491422 1.35355 0
M  V30 9253 H 890.815 -1.06597 4.07695 0
M  V30 9254 H 889.539 -1.48709 2.9078 0
M  V30 9255 H 888.198 0.519777 3.62897 0
M  V30 9256 H 887.846 -1.69515 4.73575 0
M  V30 9257 H 887.546 -0.350808 5.86552 0
M  V30 9258 H 889.07 -1.27726 5.97092 0
M  V30 9259 H 890.484 0.971406 5.6501 0
M  V30 9260 H 888.881 1.75772 5.73781 0
M  V30 9261 H 889.951 2.10593 4.36782 0
M  V30 9262 N 891.294 -1.47756 0.548274 0
M  V30 9263 C 892.204 -2.33678 -0.207773 0
M  V30 9264 C 893.22 -1.47636 -0.920843 0
M  V30 9265 O 894.396 -1.80583 -0.89173 0
M  V30 9266 C 891.461 -3.24147 -1.23003 0
M  V30 9267 C 890.522 -4.26073 -0.52535 0
M  V30 9268 C 889.755 -5.12219 -1.4989 0
M  V30 9269 O 889.978 -5.0066 -2.73305 0
M  V30 9270 O 888.912 -5.93051 -1.02828 0
M  V30 9271 H 892.738 -2.99609 0.496794 0
M  V30 9272 H 890.323 -1.4617 0.308982 0
M  V30 9273 H 892.205 -3.80055 -1.82034 0
M  V30 9274 H 890.88 -2.60855 -1.91668 0
M  V30 9275 H 889.787 -3.7395 0.105927 0
M  V30 9276 H 891.12 -4.92054 0.119686 0
M  V30 9277 N 892.772 -0.284283 -1.55015 0
M  V30 9278 C 893.997 0.335799 -2.04664 0
M  V30 9279 C 894.422 1.47999 -1.16094 0
M  V30 9280 O 893.78 1.8058 -0.161454 0
M  V30 9281 C 893.828 0.785615 -3.51938 0
M  V30 9282 O 892.932 1.89202 -3.66437 0
M  V30 9283 H 892.273 0.0680233 -0.660506 0
M  V30 9284 H 894.803 -0.421255 -2.00216 0
M  V30 9285 H 894.813 1.07892 -3.93476 0
M  V30 9286 H 893.488 -0.0514675 -4.15868 0
M  V30 9287 H 892.065 1.60055 -3.36804 0
M  V30 9288 N 894.251 1.57596 -0.0117121 0
M  V30 9289 C 895.667 1.55837 0.344506 0
M  V30 9290 C 895.867 1.01557 1.74036 0
M  V30 9291 O 894.923 0.654563 2.43868 0
M  V30 9292 C 896.236 2.99973 0.209023 0
M  V30 9293 C 897.784 3.11717 0.283092 0
M  V30 9294 C 898.259 4.57659 0.176599 0
M  V30 9295 N 899.75 4.62608 0.234133 0
M  V30 9296 C 900.485 5.73132 0.175252 0
M  V30 9297 N 899.981 6.92768 0.0662888 0
M  V30 9298 N 901.774 5.61638 0.227972 0
M  V30 9299 H 893.925 1.91215 -0.924692 0
M  V30 9300 H 896.188 0.878807 -0.355531 0
M  V30 9301 H 895.894 3.4357 -0.751826 0
M  V30 9302 H 895.768 3.64075 0.98635 0
M  V30 9303 H 898.155 2.68043 1.23439 0
M  V30 9304 H 898.236 2.50369 -0.52431 0
M  V30 9305 H 897.88 5.02011 -0.771205 0
M  V30 9306 H 897.81 5.16967 1.00264 0
M  V30 9307 H 900.301 3.76549 0.319203 0
M  V30 9308 H 900.614 7.72795 0.0275765 0
M  V30 9309 H 898.959 6.94993 0.0317502 0
M  V30 9310 H 902.15 4.67063 0.311377 0
M  V30 9311 H 902.323 6.47754 0.178621 0
M  V30 9312 N 895.729 -0.261212 1.5542 0
M  V30 9313 C 896.676 -1.32315 1.89107 0
M  V30 9314 C 897.646 -1.48517 0.743767 0
M  V30 9315 O 898.831 -1.62733 0.996123 0
M  V30 9316 C 895.971 -2.67626 2.17877 0
M  V30 9317 C 895.084 -2.59549 3.45338 0
M  V30 9318 C 894.219 -3.87118 3.63748 0
M  V30 9319 C 893.258 -3.736 4.8486 0
M  V30 9320 N 892.395 -4.93029 4.99867 0
M  V30 9321 H 897.235 -1.02886 2.79675 0
M  V30 9322 H 894.772 -0.496812 1.38456 0
M  V30 9323 H 896.73 -3.4637 2.32559 0
M  V30 9324 H 895.36 -2.95232 1.30529 0
M  V30 9325 H 894.412 -1.72452 3.39064 0
M  V30 9326 H 895.724 -2.45465 4.34222 0
M  V30 9327 H 894.878 -4.74305 3.78312 0
M  V30 9328 H 893.617 -4.04084 2.73071 0
M  V30 9329 H 892.622 -2.84797 4.70288 0
M  V30 9330 H 893.847 -3.58143 5.76984 0
M  V30 9331 H 891.793 -5.10383 4.12123 0
M  V30 9332 H 891.71 -4.81521 5.82815 0
M  V30 9333 H 892.978 -5.81754 5.18828 0
M  V30 9334 N 897.207 -1.48554 -0.526253 0
M  V30 9335 C 898.447 -1.58362 -1.29232 0
M  V30 9336 C 898.811 -0.253353 -1.90321 0
M  V30 9337 O 900.012 -0.226439 -2.67845 0
M  V30 9338 C 898.283 -2.69294 -2.3498 0
M  V30 9339 S 899.842 -2.98891 -3.21262 0
M  V30 9340 H 896.66 -0.558859 -0.439543 0
M  V30 9341 H 899.262 -1.86094 -0.599099 0
M  V30 9342 H 897.966 -3.64504 -1.88587 0
M  V30 9343 H 897.497 -2.43475 -3.09004 0
M  V30 9344 H 899.512 -2.38475 -4.35137 0
M  V30 9345 N 898.685 0.775411 -1.37205 0
M  V30 9346 C 899.934 1.52909 -1.31536 0
M  V30 9347 C 900.247 1.9535 0.0989374 0
M  V30 9348 O 901.453 2.70072 0.278079 0
M  V30 9349 C 899.909 2.761 -2.30861 0
M  V30 9350 C 899.517 2.40773 -3.77799 0
M  V30 9351 C 901.261 3.54052 -2.34195 0
M  V30 9352 C 899.168 3.60444 -4.68865 0
M  V30 9353 H 898.098 0.574061 -0.488845 0
M  V30 9354 H 900.749 0.849642 -1.62645 0
M  V30 9355 H 899.131 3.45916 -1.92764 0
M  V30 9356 H 900.305 1.78764 -4.24712 0
M  V30 9357 H 898.62 1.76004 -3.77375 0
M  V30 9358 H 901.217 4.42992 -2.99437 0
M  V30 9359 H 901.56 3.93649 -1.35449 0
M  V30 9360 H 902.093 2.91229 -2.7098 0
M  V30 9361 H 898.832 3.25932 -5.68725 0
M  V30 9362 H 898.352 4.21571 -4.26659 0
M  V30 9363 H 900.031 4.27302 -4.85821 0
M  V30 9364 N 900.163 1.21714 1.00117 0
M  V30 9365 C 901.113 0.947259 2.07391 0
M  V30 9366 C 902.097 -0.0989662 1.60595 0
M  V30 9367 O 903.289 0.11047 1.76655 0
M  V30 9368 C 900.418 0.517954 3.3937 0
M  V30 9369 C 899.504 1.59846 3.92823 0
M  V30 9370 N 899.895 2.82438 4.19598 0
M  V30 9371 C 898.193 1.46822 4.2114 0
M  V30 9372 C 898.894 3.52247 4.62922 0
M  V30 9373 N 897.87 2.79696 4.66124 0
M  V30 9374 H 901.672 1.8786 2.26022 0
M  V30 9375 H 899.186 1.11344 1.18221 0
M  V30 9376 H 901.183 0.305951 4.15776 0
M  V30 9377 H 899.843 -0.40658 3.22144 0
M  V30 9378 H 900.854 3.18944 4.08038 0
M  V30 9379 H 897.531 0.609259 4.13031 0
M  V30 9380 H 898.921 4.57232 4.9233 0
M  V30 9381 N 901.641 -1.19671 1.02551 0
M  V30 9382 C 903.057 -1.41305 0.741963 0
M  V30 9383 C 903.257 -1.89865 -0.674807 0
M  V30 9384 O 902.313 -2.07323 -1.44129 0
M  V30 9385 C 903.626 -2.42706 1.77522 0
M  V30 9386 C 905.174 -2.56458 1.79438 0
M  V30 9387 C 905.649 -3.61111 2.81715 0
M  V30 9388 N 907.14 -3.68603 2.8051 0
M  V30 9389 C 907.875 -4.49262 3.56302 0
M  V30 9390 N 907.371 -5.33653 4.41799 0
M  V30 9391 N 909.164 -4.43879 3.44859 0
M  V30 9392 H 901.315 -0.8647 1.94002 0
M  V30 9393 H 903.578 -0.442206 0.838545 0
M  V30 9394 H 903.284 -2.14042 2.79068 0
M  V30 9395 H 903.158 -3.41831 1.59472 0
M  V30 9396 H 905.545 -2.84447 0.78573 0
M  V30 9397 H 905.626 -1.57499 2.01563 0
M  V30 9398 H 905.27 -3.33864 3.82749 0
M  V30 9399 H 905.2 -4.59713 2.56849 0
M  V30 9400 H 907.691 -3.08329 2.18498 0
M  V30 9401 H 908.004 -5.92308 4.96378 0
M  V30 9402 H 906.349 -5.33125 4.45873 0
M  V30 9403 H 909.54 -3.7699 2.77482 0
M  V30 9404 H 909.713 -5.06501 4.04179 0
M  V30 9405 N 903.119 -0.802921 -1.35613 0
M  V30 9406 C 904.396 -0.304993 -1.93208 0
M  V30 9407 C 904.776 1.20488 -1.73337 0
M  V30 9408 O 904.124 2.00268 -1.10022 0
M  V30 9409 C 904.334 -0.712383 -3.41652 0
M  V30 9410 C 905.682 -0.699785 -4.18794 0
M  V30 9411 O 906.706 -0.653698 -3.5015 0
M  V30 9412 O 905.565 -0.754842 -5.41262 0
M  V30 9413 H 902.659 -0.0789127 -0.823226 0
M  V30 9414 H 905.205 -0.886372 -1.44712 0
M  V30 9415 H 903.977 -1.75316 -3.49829 0
M  V30 9416 H 903.6 -0.105614 -3.9746 0
M  V30 9417 N 904.597 1.47463 -0.556102 0
M  V30 9418 C 905.527 2.32801 0.180497 0
M  V30 9419 C 906.508 1.43721 0.909848 0
M  V30 9420 O 907.693 1.72578 0.89053 0
M  V30 9421 C 904.823 3.25478 1.21167 0
M  V30 9422 C 903.777 4.2379 0.598846 0
M  V30 9423 C 903.103 5.05783 1.73457 0
M  V30 9424 C 904.403 5.20387 -0.446659 0
M  V30 9425 H 906.097 2.94636 -0.531956 0
M  V30 9426 H 903.643 1.41683 -0.257267 0
M  V30 9427 H 905.596 3.8402 1.73513 0
M  V30 9428 H 904.32 2.61695 1.95405 0
M  V30 9429 H 902.979 3.66472 0.0966897 0
M  V30 9430 H 902.627 4.38405 2.46596 0
M  V30 9431 H 902.327 5.72343 1.33031 0
M  V30 9432 H 903.851 5.67183 2.26131 0
M  V30 9433 H 905.265 5.73299 -0.00930019 0
M  V30 9434 H 903.662 5.95143 -0.769735 0
M  V30 9435 H 904.732 4.65932 -1.34295 0
M  V30 9436 N 906.075 0.2925 1.54862 0
M  V30 9437 C 907.038 -0.574423 2.21885 0
M  V30 9438 C 908.038 -1.06791 1.20218 0
M  V30 9439 O 909.228 -0.9653 1.45009 0
M  V30 9440 C 906.36 -1.79438 2.89853 0
M  V30 9441 H 907.553 0.0110319 2.99898 0
M  V30 9442 H 905.106 0.043256 1.5624 0
M  V30 9443 H 905.841 -2.4199 2.15897 0
M  V30 9444 H 905.626 -1.44827 3.64373 0
M  V30 9445 H 907.116 -2.41048 3.41007 0
M  V30 9446 N 907.553 -1.57587 0.0200696 0
M  V30 9447 C 908.516 -2.08595 -0.949767 0
M  V30 9448 C 909.516 -0.999215 -1.25985 0
M  V30 9449 O 910.706 -1.26115 -1.2017 0
M  V30 9450 C 907.838 -2.54424 -2.26895 0
M  V30 9451 H 909.031 -2.95563 -0.508161 0
M  V30 9452 H 906.584 -1.54631 -0.227798 0
M  V30 9453 H 907.319 -1.70758 -2.75703 0
M  V30 9454 H 907.104 -3.3381 -2.05702 0
M  V30 9455 H 908.594 -2.94144 -2.96427 0
M  V30 9456 N 909.032 0.252966 -1.55557 0
M  V30 9457 C 910.448 0.60118 -1.47844 0
M  V30 9458 C 910.648 1.88612 -0.709055 0
M  V30 9459 O 909.704 2.51395 -0.235964 0
M  V30 9460 C 911.017 0.709539 -2.92209 0
M  V30 9461 C 912.565 0.802269 -3.02544 0
M  V30 9462 C 913.04 0.94224 -4.48203 0
M  V30 9463 N 914.531 1.00726 -4.52116 0
M  V30 9464 C 915.266 1.13472 -5.6206 0
M  V30 9465 N 914.762 1.22811 -6.81828 0
M  V30 9466 N 916.555 1.1674 -5.49844 0
M  V30 9467 H 908.706 -0.590635 -2.04023 0
M  V30 9468 H 910.969 -0.202986 -0.926013 0
M  V30 9469 H 910.675 -0.164505 -3.51315 0
M  V30 9470 H 910.549 1.58343 -3.42356 0
M  V30 9471 H 912.936 1.66677 -2.43522 0
M  V30 9472 H 913.017 -0.0966469 -2.55617 0
M  V30 9473 H 912.661 0.0823209 -5.07833 0
M  V30 9474 H 912.591 1.85611 -4.92805 0
M  V30 9475 H 915.082 0.946684 -3.6585 0
M  V30 9476 H 915.395 1.32426 -7.61369 0
M  V30 9477 H 913.74 1.19779 -6.84601 0
M  V30 9478 H 916.931 1.09089 -4.55211 0
M  V30 9479 H 917.104 1.26329 -6.35567 0
M  V30 9480 N 910.51 1.48831 0.518367 0
M  V30 9481 C 911.458 1.64678 1.64268 0
M  V30 9482 C 912.452 0.512967 1.61447 0
M  V30 9483 O 913.658 0.692063 1.66164 0
M  V30 9484 H 910.033 0.518964 0.544224 0
M  V30 9485 H 912.004 2.59083 1.4805 0
M  V30 9486 C 910.753 1.71449 3.0249 0
M  V30 9487 H 910.076 2.58061 3.0536 0
M  V30 9488 H 911.516 1.86577 3.80743 0
M  V30 9489 C 909.975 0.455584 3.33805 0
M  V30 9490 O 910.505 -0.426428 3.9943 0
M  V30 9491 N 908.711 0.323763 2.88791 0
M  V30 9492 H 908.258 1.04249 2.35563 0
M  V30 9493 H 908.216 -0.517514 3.10112 0
M  V30 9494 N 911.988 -0.768124 1.37614 0
M  V30 9495 C 913.234 -1.52907 1.33219 0
M  V30 9496 C 913.567 -1.94026 -0.0821218 0
M  V30 9497 O 912.842 -1.64345 -1.04023 0
M  V30 9498 C 913.125 -2.79164 2.27463 0
M  V30 9499 C 912.978 -2.44276 3.7769 0
M  V30 9500 C 914.297 -3.81115 2.20089 0
M  V30 9501 H 911.416 -0.554712 0.485246 0
M  V30 9502 H 914.058 -0.880911 1.68345 0
M  V30 9503 H 912.208 -3.34472 1.97639 0
M  V30 9504 H 913.88 -1.94855 4.18126 0
M  V30 9505 H 912.123 -1.76925 3.96081 0
M  V30 9506 H 912.794 -3.34544 4.39072 0
M  V30 9507 H 915.27 -3.35311 2.46386 0
M  V30 9508 H 914.146 -4.67174 2.88166 0
M  V30 9509 H 914.407 -4.25644 1.19498 0
M  V30 9510 N 913.466 -1.22244 -0.994698 0
M  V30 9511 C 914.396 -1.01513 -2.10279 0
M  V30 9512 C 915.377 0.0633365 -1.69982 0
M  V30 9513 O 916.562 -0.0985268 -1.9395 0
M  V30 9514 C 913.692 -0.59016 -3.42249 0
M  V30 9515 C 912.646 -1.61436 -3.96387 0
M  V30 9516 C 911.972 -1.04528 -5.24383 0
M  V30 9517 C 913.272 -3.00388 -4.27276 0
M  V30 9518 H 914.966 -1.94194 -2.2788 0
M  V30 9519 H 912.512 -0.935094 -1.09508 0
M  V30 9520 H 914.465 -0.432254 -4.19177 0
M  V30 9521 H 913.189 0.372308 -3.24471 0
M  V30 9522 H 911.848 -1.76001 -3.21589 0
M  V30 9523 H 911.496 -0.0742225 -5.02945 0
M  V30 9524 H 911.196 -1.72949 -5.61571 0
M  V30 9525 H 912.72 -0.898922 -6.03947 0
M  V30 9526 H 914.134 -2.89207 -4.95007 0
M  V30 9527 H 912.531 -3.65916 -4.75631 0
M  V30 9528 H 913.601 -3.50456 -3.35125 0
M  V30 9529 N 914.944 1.19125 -1.03184 0
M  V30 9530 C 916.19 1.89163 -0.731111 0
M  V30 9531 C 916.523 1.79604 0.738662 0
M  V30 9532 O 915.798 1.19037 1.53819 0
M  V30 9533 C 916.081 3.39986 -1.18666 0
M  V30 9534 C 915.934 3.58401 -2.71788 0
M  V30 9535 C 917.253 4.33316 -0.769772 0
M  V30 9536 H 914.372 0.686908 -0.267069 0
M  V30 9537 H 917.014 1.40205 -1.28229 0
M  V30 9538 H 915.164 3.81813 -0.717736 0
M  V30 9539 H 916.836 3.25727 -3.26649 0
M  V30 9540 H 915.079 3.01355 -3.12038 0
M  V30 9541 H 915.75 4.64189 -2.98719 0
M  V30 9542 H 918.226 3.9922 -1.17314 0
M  V30 9543 H 917.102 5.37427 -1.11637 0
M  V30 9544 H 917.363 4.40884 0.327681 0
M  V30 9545 N 916.422 0.810101 1.35185 0
M  V30 9546 C 917.65 0.404696 2.02903 0
M  V30 9547 C 918.065 -0.985434 1.61042 0
M  V30 9548 O 917.422 -1.63557 0.809658 0
M  V30 9549 C 917.473 0.482493 3.58266 0
M  V30 9550 O 917.194 1.81782 3.98606 0
M  V30 9551 C 918.695 0.070345 4.43244 0
M  V30 9552 H 915.915 0.163972 0.650657 0
M  V30 9553 H 918.459 1.0947 1.72733 0
M  V30 9554 H 916.614 -0.159296 3.87072 0
M  V30 9555 H 917.028 1.78306 4.93262 0
M  V30 9556 H 918.502 0.175888 5.5172 0
M  V30 9557 H 918.979 -0.984724 4.28018 0
M  V30 9558 H 919.585 0.685427 4.1974 0
M  V30 9559 N 917.9 -1.47166 0.563914 0
M  V30 9560 C 918.81 -2.33885 -0.182977 0
M  V30 9561 C 919.826 -1.48605 -0.905132 0
M  V30 9562 O 921.002 -1.81518 -0.872527 0
M  V30 9563 C 918.067 -3.25433 -1.19558 0
M  V30 9564 C 917.128 -4.26607 -0.480129 0
M  V30 9565 C 916.361 -5.1378 -1.44449 0
M  V30 9566 O 916.584 -5.03531 -2.67979 0
M  V30 9567 O 915.518 -5.94109 -0.965321 0
M  V30 9568 H 919.344 -2.99065 0.528544 0
M  V30 9569 H 916.929 -1.45834 0.324468 0
M  V30 9570 H 918.811 -3.81964 -1.77993 0
M  V30 9571 H 917.486 -2.62873 -1.8889 0
M  V30 9572 H 916.393 -3.73817 0.145583 0
M  V30 9573 H 917.726 -4.919 0.171868 0
M  V30 9574 N 919.378 -0.300708 -1.54705 0
M  V30 9575 C 920.655 0.361757 -1.92226 0
M  V30 9576 C 921.035 1.71714 -1.2279 0
M  V30 9577 O 920.383 2.2559 -0.363542 0
M  V30 9578 C 920.593 0.476699 -3.45729 0
M  V30 9579 C 921.941 0.7477 -4.17965 0
M  V30 9580 O 922.965 0.560521 -3.51762 0
M  V30 9581 O 921.824 1.10724 -5.35166 0
M  V30 9582 H 918.918 0.202213 -0.801897 0
M  V30 9583 H 921.464 -0.348746 -1.66078 0
M  V30 9584 H 920.236 -0.476132 -3.88392 0
M  V30 9585 H 919.859 1.23568 -3.77911 0
M  V30 9586 N 920.856 1.57574 -0.0284266 0
M  V30 9587 C 921.804 2.11332 0.971675 0
M  V30 9588 C 922.798 1.03974 1.33738 0
M  V30 9589 O 924.004 1.22409 1.31969 0
M  V30 9590 H 920.379 0.675174 0.331125 0
M  V30 9591 H 922.35 2.943 0.49296 0
M  V30 9592 C 921.099 2.65496 2.24516 0
M  V30 9593 H 920.422 3.47753 1.9725 0
M  V30 9594 H 921.862 3.06757 2.92705 0
M  V30 9595 C 920.321 1.58207 2.97443 0
M  V30 9596 O 920.851 0.981496 3.89525 0
M  V30 9597 N 919.057 1.30269 2.59766 0
M  V30 9598 H 918.604 1.79294 1.84963 0
M  V30 9599 H 918.562 0.587085 3.0887 0
M  V30 9600 N 922.334 -0.244713 1.55689 0
M  V30 9601 C 923.58 -0.973886 1.77886 0
M  V30 9602 C 923.913 -1.8489 0.594071 0
M  V30 9603 O 923.188 -1.90182 -0.407564 0
M  V30 9604 C 923.471 -1.83255 3.09983 0
M  V30 9605 C 923.324 -0.985571 4.3887 0
M  V30 9606 C 924.643 -2.81464 3.38329 0
M  V30 9607 H 921.762 -0.352629 0.647165 0
M  V30 9608 H 924.404 -0.244243 1.88424 0
M  V30 9609 H 922.554 -2.45464 3.01131 0
M  V30 9610 H 924.226 -0.382005 4.59716 0
M  V30 9611 H 922.469 -0.29002 4.32829 0
M  V30 9612 H 923.14 -1.62022 5.27686 0
M  V30 9613 H 925.616 -2.2939 3.47159 0
M  V30 9614 H 924.492 -3.38663 4.31971 0
M  V30 9615 H 924.753 -3.58037 2.59349 0
M  V30 9616 N 923.813 -1.49104 -0.510467 0
M  V30 9617 C 924.746 -1.59667 -1.63039 0
M  V30 9618 C 925.724 -0.446145 -1.5636 0
M  V30 9619 O 926.908 -0.660414 -1.76552 0
M  V30 9620 C 924.035 -1.54282 -3.01521 0
M  V30 9621 C 923.081 -2.74415 -3.26494 0
M  V30 9622 S 923.914 -4.3619 -3.10643 0
M  V30 9623 C 925.07 -4.33435 -4.51536 0
M  V30 9624 H 925.303 -2.54407 -1.53833 0
M  V30 9625 H 922.836 -1.37878 -0.694916 0
M  V30 9626 H 924.794 -1.51861 -3.81377 0
M  V30 9627 H 923.455 -0.608458 -3.0815 0
M  V30 9628 H 922.648 -2.66841 -4.27565 0
M  V30 9629 H 922.25 -2.74199 -2.54344 0
M  V30 9630 H 924.542 -4.04571 -5.43441 0
M  V30 9631 H 925.485 -5.34752 -4.64162 0
M  V30 9632 H 925.893 -3.63638 -4.31773 0
M  V30 9633 N 925.291 0.760815 -1.38019 0
M  V30 9634 C 926.238 1.8744 -1.34666 0
M  V30 9635 C 927.208 1.64762 -0.210386 0
M  V30 9636 O 928.393 1.86528 -0.401479 0
M  V30 9637 C 925.533 3.24648 -1.17037 0
M  V30 9638 C 924.646 3.59206 -2.3999 0
M  V30 9639 C 923.781 4.8568 -2.15148 0
M  V30 9640 C 922.82 5.13002 -3.3391 0
M  V30 9641 N 921.957 6.30668 -3.08549 0
M  V30 9642 H 926.797 1.8964 -2.29871 0
M  V30 9643 H 924.334 0.927004 -1.14215 0
M  V30 9644 H 926.292 4.03814 -1.04834 0
M  V30 9645 H 924.922 3.21793 -0.254758 0
M  V30 9646 H 923.974 2.74939 -2.62893 0
M  V30 9647 H 925.286 3.75328 -3.28527 0
M  V30 9648 H 924.44 5.72773 -2.00039 0
M  V30 9649 H 923.179 4.71682 -1.23965 0
M  V30 9650 H 922.184 4.2438 -3.49545 0
M  V30 9651 H 923.409 5.28901 -4.25958 0
M  V30 9652 H 921.355 6.18008 -2.20006 0
M  V30 9653 H 921.272 6.47257 -3.90633 0
M  V30 9654 H 922.54 7.20669 -2.9708 0
M  V30 9655 N 926.769 1.22769 0.988202 0
M  V30 9656 C 928.018 1.0492 1.72263 0
M  V30 9657 C 928.331 -0.415282 1.91141 0
M  V30 9658 O 929.537 -0.713547 2.61956 0
M  V30 9659 C 927.993 1.82891 3.09966 0
M  V30 9660 C 927.601 3.33618 2.99003 0
M  V30 9661 C 929.345 1.73505 3.87423 0
M  V30 9662 C 927.252 4.04012 4.3189 0
M  V30 9663 H 926.182 0.38899 0.645912 0
M  V30 9664 H 928.833 1.46664 1.10281 0
M  V30 9665 H 927.215 1.33948 3.72658 0
M  V30 9666 H 928.389 3.8999 2.45448 0
M  V30 9667 H 926.704 3.43732 2.35027 0
M  V30 9668 H 929.301 2.23416 4.85787 0
M  V30 9669 H 929.644 0.696344 4.10435 0
M  V30 9670 H 930.177 2.20016 3.31418 0
M  V30 9671 H 926.916 5.08155 4.14075 0
M  V30 9672 H 926.436 3.52428 4.8534 0
M  V30 9673 H 928.115 4.0987 5.00615 0
M  V30 9674 N 928.247 -1.18576 1.03814 0
M  V30 9675 C 929.21 -2.2033 0.63146 0
M  V30 9676 C 930.21 -1.57787 -0.309816 0
M  V30 9677 O 931.4 -1.73938 -0.0955598 0
M  V30 9678 C 928.532 -3.40818 -0.0745963 0
M  V30 9679 H 929.725 -2.57824 1.53189 0
M  V30 9680 H 927.278 -1.32416 0.830398 0
M  V30 9681 H 928.013 -3.08853 -0.988947 0
M  V30 9682 H 927.798 -3.87453 0.6019 0
M  V30 9683 H 929.288 -4.16166 -0.345727 0
M  V30 9684 N 929.725 -0.817259 -1.34754 0
M  V30 9685 C 931.002 -0.325468 -1.92873 0
M  V30 9686 C 931.382 1.18643 -1.74606 0
M  V30 9687 O 930.73 1.9909 -1.1214 0
M  V30 9688 C 930.94 -0.74858 -3.40877 0
M  V30 9689 C 932.288 -0.744165 -4.18028 0
M  V30 9690 O 933.312 -0.690799 -3.49437 0
M  V30 9691 O 932.171 -0.812207 -5.40431 0
M  V30 9692 H 929.265 -0.0876397 -0.822343 0
M  V30 9693 H 931.811 -0.901671 -1.43764 0
M  V30 9694 H 930.583 -1.79017 -3.47949 0
M  V30 9695 H 930.206 -0.147764 -3.97325 0
M  V30 9696 N 931.203 1.46865 -0.571711 0
M  V30 9697 C 932.45 2.0243 -0.0531071 0
M  V30 9698 C 932.778 1.44446 1.30252 0
M  V30 9699 O 932.033 0.595182 1.8643 0
M  V30 9700 C 932.332 3.57323 0.0742311 0
M  V30 9701 C 931.998 4.34295 -1.21237 0
M  V30 9702 C 930.66 4.55044 -1.56489 0
M  V30 9703 C 933.012 4.78577 -2.0643 0
M  V30 9704 C 930.34 5.17325 -2.76752 0
M  V30 9705 C 932.692 5.42186 -3.25909 0
M  V30 9706 C 931.356 5.61165 -3.61456 0
M  V30 9707 H 930.626 0.740745 -0.0194333 0
M  V30 9708 H 933.273 1.76366 -0.74614 0
M  V30 9709 H 931.578 3.82461 0.850325 0
M  V30 9710 H 933.275 3.97982 0.491077 0
M  V30 9711 H 929.865 4.18435 -0.927922 0
M  V30 9712 H 934.049 4.62313 -1.80501 0
M  V30 9713 H 929.305 5.30211 -3.04444 0
M  V30 9714 H 933.479 5.75459 -3.92198 0
M  V30 9715 H 931.106 6.09195 -4.54737 0
M  V30 9716 N 932.681 0.308908 1.54543 0
M  V30 9717 C 933.929 -0.297447 1.99899 0
M  V30 9718 C 934.25 -1.53799 1.19878 0
M  V30 9719 O 933.52 -1.93639 0.29678 0
M  V30 9720 H 932.1 -0.112897 0.738419 0
M  V30 9721 H 934.762 0.422067 1.90275 0
M  V30 9722 H 933.858 -0.564016 3.06961 0
M  V30 9723 N 934.159 -1.57557 0.0367827 0
M  V30 9724 C 935.089 -2.13712 -0.940719 0
M  V30 9725 C 936.07 -1.05515 -1.33419 0
M  V30 9726 O 937.255 -1.33385 -1.41146 0
M  V30 9727 C 934.385 -2.67043 -2.22048 0
M  V30 9728 C 933.339 -3.80096 -1.96752 0
M  V30 9729 C 932.665 -4.19886 -3.31059 0
M  V30 9730 C 933.965 -5.05848 -1.30058 0
M  V30 9731 H 935.659 -2.9564 -0.473033 0
M  V30 9732 H 933.205 -1.42214 -0.226089 0
M  V30 9733 H 935.158 -3.04964 -2.90818 0
M  V30 9734 H 933.882 -1.82287 -2.70996 0
M  V30 9735 H 932.541 -3.42625 -1.30398 0
M  V30 9736 H 932.189 -3.32101 -3.77781 0
M  V30 9737 H 931.889 -4.96073 -3.14937 0
M  V30 9738 H 933.413 -4.60395 -4.01084 0
M  V30 9739 H 934.827 -5.41306 -1.8884 0
M  V30 9740 H 933.224 -5.87084 -1.24309 0
M  V30 9741 H 934.294 -4.84122 -0.274591 0
M  V30 9742 N 935.637 0.236453 -1.55816 0
M  V30 9743 C 936.6 1.27633 -1.90375 0
M  V30 9744 C 937.6 1.40557 -0.781048 0
M  V30 9745 O 938.79 1.39078 -1.04895 0
M  V30 9746 C 935.922 2.65247 -2.14142 0
M  V30 9747 H 937.115 0.982019 -2.83366 0
M  V30 9748 H 934.668 0.476215 -1.48869 0
M  V30 9749 H 935.403 2.99801 -1.23653 0
M  V30 9750 H 935.188 2.57246 -2.95917 0
M  V30 9751 H 936.678 3.40313 -2.42026 0
M  V30 9752 N 937.115 1.49373 0.502552 0
M  V30 9753 C 938.531 1.36101 0.833591 0
M  V30 9754 C 938.731 0.392911 1.97632 0
M  V30 9755 O 937.787 -0.175975 2.51886 0
M  V30 9756 C 939.1 2.76782 1.17526 0
M  V30 9757 C 940.648 2.85471 1.28356 0
M  V30 9758 C 941.123 4.26915 1.65853 0
M  V30 9759 N 942.614 4.29719 1.72905 0
M  V30 9760 C 943.349 5.36127 2.0336 0
M  V30 9761 N 942.845 6.52782 2.32049 0
M  V30 9762 N 944.638 5.23542 2.04598 0
M  V30 9763 H 936.789 2.10912 -0.251008 0
M  V30 9764 H 939.052 0.946696 -0.0497037 0
M  V30 9765 H 938.758 3.49314 0.408965 0
M  V30 9766 H 938.632 3.1205 2.11907 0
M  V30 9767 H 941.019 2.13177 2.04058 0
M  V30 9768 H 941.1 2.53787 0.320304 0
M  V30 9769 H 940.744 4.99735 0.907022 0
M  V30 9770 H 940.674 4.56063 2.63276 0
M  V30 9771 H 943.165 3.45586 1.529 0
M  V30 9772 H 943.478 7.29701 2.54471 0
M  V30 9773 H 941.823 6.56011 2.29509 0
M  V30 9774 H 945.014 4.31413 1.8166 0
M  V30 9775 H 945.187 6.06565 2.27998 0
M  V30 9776 N 938.594 -0.753485 1.38421 0
M  V30 9777 C 939.842 -1.50962 1.34368 0
M  V30 9778 C 940.163 -1.94889 -0.0656895 0
M  V30 9779 O 939.433 -1.67652 -1.01339 0
M  V30 9780 H 938.013 -0.559967 0.494415 0
M  V30 9781 H 940.675 -0.895665 1.73101 0
M  V30 9782 H 939.771 -2.40048 1.99458 0
M  V30 9783 N 940.072 -1.23292 -0.981677 0
M  V30 9784 C 941.318 -1.06582 -1.72535 0
M  V30 9785 C 941.651 0.396538 -1.90108 0
M  V30 9786 O 940.926 1.29363 -1.45243 0
M  V30 9787 C 941.209 -1.7904 -3.12437 0
M  V30 9788 C 941.062 -3.32941 -3.02441 0
M  V30 9789 C 942.381 -1.55185 -4.11832 0
M  V30 9790 H 939.5 -0.388585 -0.626236 0
M  V30 9791 H 942.142 -1.51779 -1.14293 0
M  V30 9792 H 940.292 -1.40619 -3.62158 0
M  V30 9793 H 941.964 -3.80875 -2.60254 0
M  V30 9794 H 940.207 -3.62039 -2.38977 0
M  V30 9795 H 940.878 -3.78827 -4.0149 0
M  V30 9796 H 943.354 -1.88581 -3.70913 0
M  V30 9797 H 942.23 -2.08362 -5.07815 0
M  V30 9798 H 942.491 -0.486925 -4.3941 0
M  V30 9799 N 941.55 1.18024 -1.04442 0
M  V30 9800 C 942.5 2.19714 -0.609069 0
M  V30 9801 C 943.484 1.57037 0.350473 0
M  V30 9802 O 944.676 1.76192 0.16892 0
M  V30 9803 C 941.805 3.43293 0.0225911 0
M  V30 9804 C 940.891 4.13084 -0.960325 0
M  V30 9805 N 941.282 4.58819 -2.12883 0
M  V30 9806 C 939.58 4.38999 -0.787146 0
M  V30 9807 C 940.281 5.12589 -2.75004 0
M  V30 9808 N 939.257 5.04333 -2.02853 0
M  V30 9809 H 943.059 2.5277 -1.49948 0
M  V30 9810 H 940.573 1.34271 -0.913517 0
M  V30 9811 H 942.57 4.1541 0.352196 0
M  V30 9812 H 941.23 3.11731 0.908495 0
M  V30 9813 H 942.241 4.53148 -2.50754 0
M  V30 9814 H 938.918 4.17472 0.048348 0
M  V30 9815 H 940.308 5.58152 -3.74053 0
M  V30 9816 N 943.028 0.824394 1.34319 0
M  V30 9817 C 943.978 0.219624 2.2694 0
M  V30 9818 C 944.962 -0.616964 1.48601 0
M  V30 9819 O 946.154 -0.471303 1.7061 0
M  V30 9820 C 943.283 -0.616379 3.37721 0
M  V30 9821 C 942.369 0.230917 4.23471 0
M  V30 9822 N 942.76 1.30264 4.88738 0
M  V30 9823 C 941.058 0.0155016 4.45997 0
M  V30 9824 C 941.759 1.82141 5.52449 0
M  V30 9825 N 940.735 1.12508 5.3183 0
M  V30 9826 H 944.537 1.03939 2.74907 0
M  V30 9827 H 942.051 0.667353 1.48055 0
M  V30 9828 H 944.048 -1.06582 4.03046 0
M  V30 9829 H 942.708 -1.43429 2.91304 0
M  V30 9830 H 943.719 1.68545 4.89707 0
M  V30 9831 H 940.396 -0.770128 4.10336 0
M  V30 9832 H 941.786 2.7181 6.14466 0
M  V30 9833 N 944.506 -1.46559 0.579492 0
M  V30 9834 C 945.755 -2.01606 0.0615735 0
M  V30 9835 C 946.068 -1.45695 -1.30508 0
M  V30 9836 O 947.274 -1.92541 -1.91416 0
M  V30 9837 C 945.73 -3.59851 0.059496 0
M  V30 9838 C 945.338 -4.24757 1.42427 0
M  V30 9839 C 947.082 -4.22567 -0.404646 0
M  V30 9840 C 944.989 -5.75072 1.38009 0
M  V30 9841 H 943.919 -0.753754 0.0192491 0
M  V30 9842 H 946.57 -1.68326 0.73066 0
M  V30 9843 H 944.952 -3.90193 -0.675691 0
M  V30 9844 H 946.126 -4.06029 2.17893 0
M  V30 9845 H 944.441 -3.74121 1.82817 0
M  V30 9846 H 947.038 -5.32748 -0.456441 0
M  V30 9847 H 947.381 -3.91279 -1.42149 0
M  V30 9848 H 947.914 -3.96839 0.276376 0
M  V30 9849 H 944.653 -6.11014 2.37364 0
M  V30 9850 H 944.173 -5.96073 0.667583 0
M  V30 9851 H 945.852 -6.37724 1.09163 0
M  V30 9852 N 945.984 -0.3171 -1.54377 0
M  V30 9853 C 947.261 0.341348 -1.92598 0
M  V30 9854 C 947.641 1.70402 -1.24605 0
M  V30 9855 O 946.989 2.25191 -0.387448 0
M  V30 9856 C 947.199 0.440003 -3.46215 0
M  V30 9857 C 948.547 0.703327 -4.18734 0
M  V30 9858 O 949.571 0.523181 -3.52337 0
M  V30 9859 O 948.43 1.05042 -5.3631 0
M  V30 9860 H 945.524 0.193696 -0.803997 0
M  V30 9861 H 948.07 -0.366341 -1.65699 0
M  V30 9862 H 946.842 -0.517299 -3.87866 0
M  V30 9863 H 946.465 1.19553 -3.792 0
M  V30 9864 N 947.462 1.57535 -0.0451378 0
M  V30 9865 C 948.692 1.96476 0.638814 0
M  V30 9866 C 949.1 0.921056 1.65267 0
M  V30 9867 O 948.443 -0.103843 1.83406 0
M  V30 9868 C 948.505 3.31629 1.38788 0
M  V30 9869 C 948.169 4.5391 0.530545 0
M  V30 9870 C 949.166 5.19512 -0.200864 0
M  V30 9871 C 946.851 5.00159 0.463242 0
M  V30 9872 C 948.845 6.29695 -0.988078 0
M  V30 9873 C 946.532 6.10221 -0.327665 0
M  V30 9874 C 947.53 6.74849 -1.05202 0
M  V30 9875 O 947.218 7.82795 -1.82993 0
M  V30 9876 H 946.95 0.651625 0.17989 0
M  V30 9877 H 949.504 2.05126 -0.106031 0
M  V30 9878 H 947.734 3.19516 2.17822 0
M  V30 9879 H 949.423 3.5536 1.96148 0
M  V30 9880 H 950.189 4.84742 -0.158299 0
M  V30 9881 H 946.068 4.49651 1.01663 0
M  V30 9882 H 949.612 6.80072 -1.55397 0
M  V30 9883 H 945.509 6.44428 -0.37189 0
M  V30 9884 H 946.277 7.99542 -1.7514 0
M  V30 9885 N 948.94 -0.228186 1.55939 0
M  V30 9886 C 950.17 -0.969211 1.82455 0
M  V30 9887 C 950.578 -1.78714 0.621133 0
M  V30 9888 O 949.921 -1.78841 -0.419694 0
M  V30 9889 C 949.983 -1.94088 3.02605 0
M  V30 9890 C 949.647 -1.30811 4.37878 0
M  V30 9891 C 950.644 -0.701275 5.15149 0
M  V30 9892 C 948.329 -1.32187 4.84595 0
M  V30 9893 C 950.323 -0.116631 6.37293 0
M  V30 9894 C 948.01 -0.733375 6.06683 0
M  V30 9895 C 949.008 -0.131804 6.82873 0
M  V30 9896 O 948.696 0.447549 8.02653 0
M  V30 9897 H 948.428 -0.289951 0.610659 0
M  V30 9898 H 950.982 -0.250576 2.03866 0
M  V30 9899 H 949.212 -2.69833 2.76996 0
M  V30 9900 H 950.901 -2.5469 3.1605 0
M  V30 9901 H 951.667 -0.683022 4.80166 0
M  V30 9902 H 947.546 -1.77949 4.25271 0
M  V30 9903 H 951.09 0.353539 6.96704 0
M  V30 9904 H 946.987 -0.749019 6.4114 0
M  V30 9905 H 947.755 0.341224 8.17788 0
M  V30 9906 N 950.418 -1.49637 -0.494624 0
M  V30 9907 C 951.365 -1.66776 -1.59545 0
M  V30 9908 C 952.335 -0.509159 -1.58104 0
M  V30 9909 O 953.52 -0.736949 -1.75993 0
M  V30 9910 C 950.66 -1.74624 -2.97658 0
M  V30 9911 C 949.773 -3.01831 -3.09067 0
M  V30 9912 C 948.908 -3.00619 -4.37952 0
M  V30 9913 C 947.947 -4.22378 -4.43016 0
M  V30 9914 N 947.084 -4.1904 -5.63339 0
M  V30 9915 H 951.924 -2.60767 -1.44238 0
M  V30 9916 H 949.461 -1.29286 -0.701673 0
M  V30 9917 H 951.419 -1.77156 -3.77719 0
M  V30 9918 H 950.049 -0.840936 -3.11654 0
M  V30 9919 H 949.101 -3.08881 -2.22029 0
M  V30 9920 H 950.413 -3.91823 -3.08669 0
M  V30 9921 H 949.567 -3.01749 -5.26339 0
M  V30 9922 H 948.306 -2.08416 -4.40924 0
M  V30 9923 H 947.311 -4.21485 -3.5303 0
M  V30 9924 H 948.536 -5.15781 -4.41755 0
M  V30 9925 H 946.482 -3.29677 -5.67141 0
M  V30 9926 H 946.399 -5.02774 -5.64583 0
M  V30 9927 H 947.667 -4.24281 -6.53916 0
M  V30 9928 N 951.896 0.746133 -1.38819 0
M  V30 9929 C 952.843 1.86001 -1.36647 0
M  V30 9930 C 953.813 1.6453 -0.227849 0
M  V30 9931 O 954.998 1.86092 -0.421241 0
M  V30 9932 C 952.138 3.23388 -1.20474 0
M  V30 9933 C 951.251 3.5664 -2.43786 0
M  V30 9934 C 950.386 4.8337 -2.20287 0
M  V30 9935 C 949.425 5.09431 -3.39332 0
M  V30 9936 N 948.562 6.2736 -3.1522 0
M  V30 9937 H 953.402 1.87192 -2.31869 0
M  V30 9938 H 950.939 0.914838 -1.15192 0
M  V30 9939 H 952.897 4.02679 -1.09112 0
M  V30 9940 H 951.527 3.21505 -0.288874 0
M  V30 9941 H 950.579 2.72135 -2.65794 0
M  V30 9942 H 951.891 3.71823 -3.3249 0
M  V30 9943 H 951.045 5.70619 -2.06103 0
M  V30 9944 H 949.784 4.70341 -1.28961 0
M  V30 9945 H 948.789 4.20648 -3.54027 0
M  V30 9946 H 950.014 5.24354 -4.31544 0
M  V30 9947 H 947.96 6.15639 -2.26549 0
M  V30 9948 H 947.877 6.43078 -3.97476 0
M  V30 9949 H 949.145 7.17477 -3.04707 0
M  V30 9950 N 953.375 1.23811 0.975125 0
M  V30 9951 C 954.603 1.10019 1.75224 0
M  V30 9952 C 955.018 -0.34791 1.85567 0
M  V30 9953 O 954.375 -1.24043 1.33864 0
M  V30 9954 C 954.426 1.72572 3.1765 0
M  V30 9955 O 954.147 3.11719 3.07836 0
M  V30 9956 C 955.648 1.64292 4.11732 0
M  V30 9957 H 952.868 0.38476 0.549728 0
M  V30 9958 H 955.412 1.63768 1.22476 0
M  V30 9959 H 953.567 1.22843 3.67408 0
M  V30 9960 H 953.981 3.42152 3.97533 0
M  V30 9961 H 955.455 2.12754 5.09352 0
M  V30 9962 H 955.932 0.602722 4.35045 0
M  V30 9963 H 956.538 2.13411 3.6788 0
M  V30 9964 N 954.853 -1.17469 1.05066 0
M  V30 9965 C 956.078 -1.92162 0.780298 0
M  V30 9966 C 956.503 -1.76222 -0.657832 0
M  V30 9967 O 955.861 -1.0791 -1.45688 0
M  V30 9968 C 955.909 -3.41292 1.16414 0
M  V30 9969 O 955.013 -4.1134 0.295531 0
M  V30 9970 H 954.354 -0.599127 0.286257 0
M  V30 9971 H 956.884 -1.48903 1.40318 0
M  V30 9972 H 956.894 -3.92029 1.13036 0
M  V30 9973 H 955.569 -3.52214 2.21175 0
M  V30 9974 H 954.146 -3.70857 0.389797 0
M  V30 9975 N 956.331 -0.831506 -1.3388 0
M  V30 9976 C 957.279 -0.247896 -2.31275 0
M  V30 9977 C 958.273 0.616083 -1.578 0
M  V30 9978 O 959.479 0.506465 -1.72728 0
M  V30 9979 H 955.854 -0.0614293 -0.749487 0
M  V30 9980 H 957.825 -1.08401 -2.78014 0
M  V30 9981 C 956.574 0.568434 -3.43022 0
M  V30 9982 H 955.897 -0.0870654 -3.99705 0
M  V30 9983 H 957.337 0.942751 -4.13386 0
M  V30 9984 C 955.796 1.74431 -2.88228 0
M  V30 9985 O 956.326 2.84278 -2.83811 0
M  V30 9986 N 954.532 1.56382 -2.44935 0
M  V30 9987 H 954.079 0.670255 -2.48727 0
M  V30 9988 H 954.037 2.35208 -2.08625 0
M  V30 9989 N 957.809 1.4625 -0.587256 0
M  V30 9990 C 959.057 2.01963 -0.0744273 0
M  V30 9991 C 959.378 1.46065 1.29189 0
M  V30 9992 O 958.648 0.647077 1.84905 0
M  V30 9993 H 957.228 0.746597 -0.0245236 0
M  V30 9994 H 959.89 1.79299 -0.764063 0
M  V30 9995 H 958.986 3.12099 -0.00884894 0
M  V30 9996 N 959.287 0.325282 1.54207 0
M  V30 9997 C 960.703 -0.0273036 1.59577 0
M  V30 9998 C 960.903 -1.50329 1.34177 0
M  V30 9999 O 959.959 -2.25951 1.12705 0
M  V30 10000 C 961.272 0.392468 2.98128 0
M  V30 10001 C 962.82 0.343269 3.11112 0
M  V30 10002 C 963.295 0.738229 4.52011 0
M  V30 10003 N 964.786 0.691701 4.58006 0
M  V30 10004 C 965.521 0.969479 5.65145 0
M  V30 10005 N 965.017 1.31448 6.80216 0
M  V30 10006 N 966.81 0.894926 5.5493 0
M  V30 10007 H 958.961 1.28692 1.68974 0
M  V30 10008 H 961.224 0.523399 0.790416 0
M  V30 10009 H 960.93 1.42089 3.2172 0
M  V30 10010 H 960.804 -0.241651 3.76425 0
M  V30 10011 H 963.191 -0.675946 2.87254 0
M  V30 10012 H 963.272 1.01235 2.34915 0
M  V30 10013 H 962.916 1.75537 4.76602 0
M  V30 10014 H 962.846 0.0468226 5.26579 0
M  V30 10015 H 965.337 0.436975 3.75365 0
M  V30 10016 H 965.65 1.51177 7.57869 0
M  V30 10017 H 963.995 1.35276 6.81708 0
M  V30 10018 H 967.186 0.624876 4.6391 0
M  V30 10019 H 967.359 1.11476 6.38339 0
M  V30 10020 N 960.765 -1.57509 0.0534917 0
M  V30 10021 C 961.695 -2.14698 -0.917999 0
M  V30 10022 C 962.676 -1.06924 -1.32292 0
M  V30 10023 O 963.861 -1.34875 -1.39723 0
M  V30 10024 C 960.991 -2.69383 -2.19203 0
M  V30 10025 C 959.945 -3.82161 -1.9271 0
M  V30 10026 C 959.271 -4.23373 -3.26587 0
M  V30 10027 C 960.571 -5.07199 -1.24686 0
M  V30 10028 H 962.265 -2.96125 -0.44165 0
M  V30 10029 H 959.811 -1.42446 -0.210993 0
M  V30 10030 H 961.764 -3.08031 -2.87567 0
M  V30 10031 H 960.488 -1.85151 -2.69048 0
M  V30 10032 H 959.147 -3.43989 -1.26757 0
M  V30 10033 H 958.795 -3.36089 -3.74237 0
M  V30 10034 H 958.495 -4.99385 -3.09658 0
M  V30 10035 H 960.019 -4.64623 -3.96178 0
M  V30 10036 H 961.433 -5.43279 -1.83088 0
M  V30 10037 H 959.83 -5.88369 -1.18076 0
M  V30 10038 H 960.9 -4.84386 -0.223227 0
M  V30 10039 N 962.243 0.219913 -1.56058 0
M  V30 10040 C 963.654 0.786766 -1.69313 0
M  V30 10041 C 964.005 1.84916 -0.655782 0
M  V30 10042 O 963.13 2.1554 0.192772 0
M  V30 10043 C 963.725 1.43387 -3.06962 0
M  V30 10044 C 962.284 1.94809 -3.22066 0
M  V30 10045 C 961.431 0.808863 -2.65241 0
M  V30 10046 H 964.382 -0.00476777 -1.58699 0
M  V30 10047 H 964.403 2.30272 -3.02911 0
M  V30 10048 H 963.915 0.660405 -3.8244 0
M  V30 10049 H 962.016 2.74952 -2.5146 0
M  V30 10050 H 962.129 2.12694 -4.293 0
M  V30 10051 H 960.493 1.21661 -2.23765 0
M  V30 10052 H 961.276 0.0480458 -3.43266 0
M  V30 10053 N 963.721 1.49897 0.486681 0
M  V30 10054 C 964.967 1.60342 1.2417 0
M  V30 10055 C 965.3 0.295694 1.91936 0
M  V30 10056 O 964.575 -0.701788 1.81398 0
M  V30 10057 C 964.858 2.77281 2.29755 0
M  V30 10058 C 964.711 4.1789 1.66397 0
M  V30 10059 C 966.03 2.89817 3.31201 0
M  V30 10060 H 963.149 0.583605 0.450083 0
M  V30 10061 H 965.791 1.82232 0.537734 0
M  V30 10062 H 963.941 2.58748 2.89796 0
M  V30 10063 H 965.613 4.47975 1.10073 0
M  V30 10064 H 963.856 4.22872 0.967579 0
M  V30 10065 H 964.527 4.95612 2.43049 0
M  V30 10066 H 967.003 3.06732 2.81167 0
M  V30 10067 H 965.879 3.7329 4.02425 0
M  V30 10068 H 966.14 1.9977 3.94391 0
M  V30 10069 N 965.199 -0.738761 1.39212 0
M  V30 10070 C 966.146 -1.85273 1.37631 0
M  V30 10071 C 967.116 -1.64407 0.236572 0
M  V30 10072 O 968.301 -1.85866 0.431104 0
M  V30 10073 C 965.441 -3.22745 1.22188 0
M  V30 10074 C 964.554 -3.55342 2.45674 0
M  V30 10075 C 963.689 -4.82195 2.22847 0
M  V30 10076 C 962.728 -5.07625 3.42029 0
M  V30 10077 N 961.865 -6.25679 3.18543 0
M  V30 10078 H 966.705 -1.85959 2.32859 0
M  V30 10079 H 964.242 -0.908716 1.15675 0
M  V30 10080 H 966.2 -4.02095 1.11245 0
M  V30 10081 H 964.83 -3.21347 0.30592 0
M  V30 10082 H 963.882 -2.70722 2.67233 0
M  V30 10083 H 965.194 -3.70054 3.34457 0
M  V30 10084 H 964.348 -5.69518 2.09126 0
M  V30 10085 H 963.087 -4.6965 1.31454 0
M  V30 10086 H 962.092 -4.18765 3.56253 0
M  V30 10087 H 963.317 -5.22058 4.34319 0
M  V30 10088 H 961.263 -6.14429 2.2981 0
M  V30 10089 H 961.18 -6.40961 4.0088 0
M  V30 10090 H 962.448 -7.15851 3.08508 0
M  V30 10091 N 966.677 -1.24326 -0.968545 0
M  V30 10092 C 967.923 -1.09413 -1.71465 0
M  V30 10093 C 968.278 0.363422 -1.88937 0
M  V30 10094 O 967.571 1.26486 -1.43916 0
M  V30 10095 C 967.765 -1.76644 -3.10695 0
M  V30 10096 C 967.594 -3.28787 -3.06805 0
M  V30 10097 C 966.364 -3.97995 -3.11333 0
M  V30 10098 C 968.562 -4.25389 -2.89047 0
M  V30 10099 N 966.544 -5.37024 -2.97453 0
M  V30 10100 C 967.915 -5.51411 -2.83454 0
M  V30 10101 C 969.97 -4.15976 -2.73621 0
M  V30 10102 C 968.673 -6.69096 -2.64013 0
M  V30 10103 C 970.699 -5.33338 -2.55547 0
M  V30 10104 C 970.061 -6.58291 -2.50663 0
M  V30 10105 H 966.16 -0.454986 -0.636012 0
M  V30 10106 H 968.744 -1.57228 -1.14837 0
M  V30 10107 H 966.915 -1.31344 -3.65518 0
M  V30 10108 H 968.647 -1.54599 -3.74007 0
M  V30 10109 H 965.402 -3.49155 -3.19981 0
M  V30 10110 H 965.826 -6.09948 -2.93756 0
M  V30 10111 H 970.468 -3.20131 -2.76181 0
M  V30 10112 H 968.186 -7.65064 -2.60197 0
M  V30 10113 H 971.772 -5.27904 -2.44557 0
M  V30 10114 H 970.652 -7.47575 -2.36856 0
M  V30 10115 N 968.156 1.1691 -1.05688 0
M  V30 10116 C 969.089 2.19992 -0.606539 0
M  V30 10117 C 970.067 1.58393 0.367483 0
M  V30 10118 O 971.251 1.8644 0.277914 0
M  V30 10119 C 968.378 3.38516 0.111663 0
M  V30 10120 C 967.424 4.18579 -0.818153 0
M  V30 10121 S 968.257 4.83111 -2.31006 0
M  V30 10122 C 969.413 6.0502 -1.60317 0
M  V30 10123 H 969.646 2.57851 -1.47987 0
M  V30 10124 H 967.179 1.27604 -0.869291 0
M  V30 10125 H 969.137 4.07195 0.519829 0
M  V30 10126 H 967.798 2.99034 0.961103 0
M  V30 10127 H 966.991 5.03318 -0.262092 0
M  V30 10128 H 966.593 3.55362 -1.16592 0
M  V30 10129 H 968.885 6.71424 -0.905309 0
M  V30 10130 H 969.828 6.65164 -2.42823 0
M  V30 10131 H 970.236 5.53908 -1.08842 0
M  V30 10132 N 969.634 0.838594 1.33437 0
M  V30 10133 C 970.597 0.276843 2.27522 0
M  V30 10134 C 971.597 -0.554275 1.50945 0
M  V30 10135 O 972.787 -0.368107 1.70266 0
M  V30 10136 C 969.919 -0.610036 3.35397 0
M  V30 10137 H 971.112 1.10705 2.78719 0
M  V30 10138 H 968.665 0.611657 1.43835 0
M  V30 10139 H 969.4 -1.46269 2.89441 0
M  V30 10140 H 969.185 -0.0153615 3.92097 0
M  V30 10141 H 970.675 -0.996368 4.05539 0
M  V30 10142 N 971.112 -1.45937 0.595003 0
M  V30 10143 C 972.523 -1.85908 0.171779 0
M  V30 10144 C 972.874 -1.497 -1.26824 0
M  V30 10145 O 971.999 -0.917688 -1.95978 0
M  V30 10146 C 972.594 -3.37425 0.304976 0
M  V30 10147 C 971.153 -3.76346 -0.0634635 0
M  V30 10148 C 970.3 -2.69926 0.635255 0
M  V30 10149 H 973.251 -1.36916 0.802471 0
M  V30 10150 H 973.272 -3.77632 -0.466313 0
M  V30 10151 H 972.784 -3.63747 1.35314 0
M  V30 10152 H 970.885 -3.55642 -1.11129 0
M  V30 10153 H 970.998 -4.78021 0.321419 0
M  V30 10154 H 969.362 -2.54592 0.0742054 0
M  V30 10155 H 970.145 -2.99086 1.68531 0
M  V30 10156 N 972.59 -0.333456 -1.54032 0
M  V30 10157 C 973.5 0.536674 -2.28379 0
M  V30 10158 C 974.516 1.12068 -1.33104 0
M  V30 10159 O 975.692 1.13853 -1.66131 0
M  V30 10160 C 972.757 1.67677 -3.03456 0
M  V30 10161 C 971.818 1.12357 -4.14336 0
M  V30 10162 C 971.051 2.20933 -4.85823 0
M  V30 10163 O 971.274 3.41466 -4.569 0
M  V30 10164 O 970.208 1.85795 -5.72507 0
M  V30 10165 H 974.034 -0.0674003 -3.03625 0
M  V30 10166 H 971.619 -0.098823 -1.49073 0
M  V30 10167 H 973.501 2.34032 -3.50438 0
M  V30 10168 H 972.176 2.26684 -2.31076 0
M  V30 10169 H 971.083 0.424827 -3.7168 0
M  V30 10170 H 972.416 0.578497 -4.88789 0
M  V30 10171 N 974.068 1.57479 -0.061844 0
M  V30 10172 C 975.031 2.1104 0.894127 0
M  V30 10173 C 976.031 1.03227 1.23292 0
M  V30 10174 O 977.221 1.29256 1.16784 0
M  V30 10175 C 974.353 2.6035 2.20069 0
M  V30 10176 H 975.546 2.96807 0.429619 0
M  V30 10177 H 973.099 1.55181 0.18672 0
M  V30 10178 H 973.834 1.78008 2.71079 0
M  V30 10179 H 973.619 3.39146 1.9678 0
M  V30 10180 H 975.109 3.019 2.88525 0
M  V30 10181 N 975.546 -0.211634 1.56173 0
M  V30 10182 C 976.476 -1.26533 1.96244 0
M  V30 10183 C 977.457 -1.48362 0.832028 0
M  V30 10184 O 978.642 -1.60378 1.0951 0
M  V30 10185 C 975.772 -2.61307 2.2877 0
M  V30 10186 C 974.726 -2.54119 3.44395 0
M  V30 10187 C 974.052 -3.93014 3.62552 0
M  V30 10188 C 975.352 -2.08046 4.79076 0
M  V30 10189 H 977.046 -0.932407 2.84511 0
M  V30 10190 H 974.592 -0.447084 1.36884 0
M  V30 10191 H 976.545 -3.35188 2.55396 0
M  V30 10192 H 975.269 -2.96307 1.37367 0
M  V30 10193 H 973.928 -1.82694 3.17834 0
M  V30 10194 H 973.576 -4.25338 2.68508 0
M  V30 10195 H 973.276 -3.89083 4.40327 0
M  V30 10196 H 974.8 -4.68542 3.91537 0
M  V30 10197 H 976.214 -2.71676 5.04842 0
M  V30 10198 H 974.611 -2.15154 5.60204 0
M  V30 10199 H 975.681 -1.03306 4.73768 0
M  V30 10200 N 977.024 -1.50153 -0.478725 0
M  V30 10201 C 978.271 -1.6076 -1.23136 0
M  V30 10202 C 978.599 -0.30442 -1.92103 0
M  V30 10203 O 977.854 0.709213 -1.82397 0
M  V30 10204 C 978.153 -2.73208 -2.30417 0
M  V30 10205 C 977.819 -4.13953 -1.78755 0
M  V30 10206 C 976.481 -4.52251 -1.64386 0
M  V30 10207 C 978.833 -5.01949 -1.40344 0
M  V30 10208 C 976.161 -5.76292 -1.10018 0
M  V30 10209 C 978.513 -6.2653 -0.874206 0
M  V30 10210 C 977.177 -6.63637 -0.717085 0
M  V30 10211 H 976.447 -0.588264 -0.450585 0
M  V30 10212 H 979.094 -1.84061 -0.528551 0
M  V30 10213 H 977.399 -2.43965 -3.06575 0
M  V30 10214 H 979.096 -2.7862 -2.88395 0
M  V30 10215 H 975.686 -3.83736 -1.90904 0
M  V30 10216 H 979.87 -4.73 -1.50283 0
M  V30 10217 H 975.126 -6.03723 -0.965838 0
M  V30 10218 H 979.3 -6.94081 -0.567883 0
M  V30 10219 H 976.927 -7.59633 -0.293639 0
M  V30 10220 N 978.502 0.731368 -1.39602 0
M  V30 10221 C 979.779 1.48308 -1.27531 0
M  V30 10222 C 980.159 2.10795 0.113482 0
M  V30 10223 O 979.507 1.98886 1.12501 0
M  V30 10224 C 979.717 2.53156 -2.40235 0
M  V30 10225 C 981.065 3.19436 -2.79725 0
M  V30 10226 O 982.089 2.6347 -2.39712 0
M  V30 10227 O 980.948 4.20714 -3.48801 0
M  V30 10228 H 978.042 0.658753 -0.499973 0
M  V30 10229 H 980.588 0.764884 -1.51485 0
M  V30 10230 H 979.36 2.05387 -3.33064 0
M  V30 10231 H 978.983 3.3253 -2.17966 0
M  V30 10232 N 979.98 1.24838 0.961938 0
M  V30 10233 C 981.396 1.01502 1.23165 0
M  V30 10234 C 981.596 -0.272651 1.99647 0
M  V30 10235 O 980.652 -0.987297 2.32398 0
M  V30 10236 C 981.965 2.23366 2.01316 0
M  V30 10237 C 983.513 2.28051 2.14387 0
M  V30 10238 C 983.988 3.49552 2.95935 0
M  V30 10239 N 985.479 3.49904 3.03515 0
M  V30 10240 C 986.214 4.40577 3.66987 0
M  V30 10241 N 985.71 5.41512 4.3213 0
M  V30 10242 N 987.503 4.28275 3.64056 0
M  V30 10243 H 979.654 2.07576 0.450086 0
M  V30 10244 H 981.917 0.911205 0.261551 0
M  V30 10245 H 981.623 3.16913 1.5251 0
M  V30 10246 H 981.497 2.25949 3.02038 0
M  V30 10247 H 983.884 1.35032 2.62393 0
M  V30 10248 H 983.965 2.29491 1.12994 0
M  V30 10249 H 983.609 4.42889 2.4862 0
M  V30 10250 H 983.539 3.45357 3.97538 0
M  V30 10251 H 986.03 2.76885 2.57183 0
M  V30 10252 H 986.343 6.06924 4.78396 0
M  V30 10253 H 984.688 5.45393 4.3078 0
M  V30 10254 H 987.879 3.48653 3.12344 0
M  V30 10255 H 988.052 4.99138 4.13237 0
M  V30 10256 N 981.458 -1.16348 1.06306 0
M  V30 10257 C 982.704 -1.87158 0.781007 0
M  V30 10258 C 983.037 -1.81499 -0.690784 0
M  V30 10259 O 982.312 -1.23074 -1.50609 0
M  V30 10260 C 982.595 -3.3672 1.27639 0
M  V30 10261 C 982.448 -3.51069 2.81194 0
M  V30 10262 C 983.767 -4.31122 0.884388 0
M  V30 10263 H 980.886 -0.679586 0.285187 0
M  V30 10264 H 983.528 -1.36756 1.31901 0
M  V30 10265 H 981.678 -3.79775 0.818715 0
M  V30 10266 H 983.35 -3.16952 3.35171 0
M  V30 10267 H 981.593 -2.92976 3.19918 0
M  V30 10268 H 982.264 -4.56105 3.10921 0
M  V30 10269 H 984.74 -3.95969 1.27858 0
M  V30 10270 H 983.616 -5.34279 1.25847 0
M  V30 10271 H 983.877 -4.41598 -0.210673 0
M  V30 10272 N 982.937 -0.845659 -1.3299 0
M  V30 10273 C 984.167 -0.457686 -2.01467 0
M  V30 10274 C 984.575 0.947664 -1.63756 0
M  V30 10275 O 983.918 1.62841 -0.850213 0
M  V30 10276 C 983.98 -0.506589 -3.55913 0
M  V30 10277 C 983.644 -1.86924 -4.17023 0
M  V30 10278 C 984.641 -2.83344 -4.35904 0
M  V30 10279 C 982.326 -2.16394 -4.53298 0
M  V30 10280 C 984.32 -4.07391 -4.90216 0
M  V30 10281 C 982.007 -3.40695 -5.07316 0
M  V30 10282 C 983.005 -4.3601 -5.25722 0
M  V30 10283 O 982.693 -5.58112 -5.7859 0
M  V30 10284 H 982.425 -0.179258 -0.651799 0
M  V30 10285 H 984.979 -1.14172 -1.70745 0
M  V30 10286 H 983.209 0.234253 -3.8599 0
M  V30 10287 H 984.898 -0.135487 -4.05674 0
M  V30 10288 H 985.664 -2.61879 -4.08221 0
M  V30 10289 H 981.543 -1.42994 -4.38262 0
M  V30 10290 H 985.087 -4.81796 -5.04498 0
M  V30 10291 H 980.984 -3.62014 -5.3443 0
M  V30 10292 H 981.752 -5.59946 -5.96995 0
M  V30 10293 N 984.415 1.45619 -0.602734 0
M  V30 10294 C 985.643 2.06647 -0.102253 0
M  V30 10295 C 986.058 1.4482 1.21131 0
M  V30 10296 O 985.415 0.560621 1.73676 0
M  V30 10297 C 985.466 3.61467 0.0490113 0
M  V30 10298 O 985.187 4.20985 -1.21257 0
M  V30 10299 C 986.688 4.39469 0.581517 0
M  V30 10300 H 983.908 0.667685 -0.0666155 0
M  V30 10301 H 986.452 1.86939 -0.829091 0
M  V30 10302 H 984.607 3.80534 0.726153 0
M  V30 10303 H 985.021 5.14103 -1.03915 0
M  V30 10304 H 986.495 5.48318 0.636462 0
M  V30 10305 H 986.972 4.0891 1.60277 0
M  V30 10306 H 987.578 4.25256 -0.061419 0
M  V30 10307 N 985.893 0.34162 1.53853 0
M  V30 10308 C 986.843 -0.531995 2.21707 0
M  V30 10309 C 987.827 -1.06759 1.2038 0
M  V30 10310 O 989.019 -1.00161 1.45934 0
M  V30 10311 C 986.148 -1.6834 2.99193 0
M  V30 10312 C 985.234 -1.16184 4.07875 0
M  V30 10313 N 985.625 -0.361348 5.04508 0
M  V30 10314 C 983.923 -1.43891 4.22151 0
M  V30 10315 C 984.624 -0.0785378 5.81647 0
M  V30 10316 N 983.6 -0.669651 5.3946 0
M  V30 10317 H 987.402 0.0866825 2.93772 0
M  V30 10318 H 984.916 0.148386 1.61721 0
M  V30 10319 H 986.913 -2.32121 3.46303 0
M  V30 10320 H 985.573 -2.30538 2.28653 0
M  V30 10321 H 986.584 -0.00259906 5.179 0
M  V30 10322 H 983.261 -2.06542 3.62832 0
M  V30 10323 H 984.651 0.567068 6.69503 0
M  V30 10324 N 987.371 -1.57444 0.0701946 0
M  V30 10325 C 988.303 -2.09611 -0.927142 0
M  V30 10326 C 989.316 -1.02791 -1.26245 0
M  V30 10327 O 990.505 -1.30309 -1.21992 0
M  V30 10328 C 987.605 -2.54015 -2.24342 0
M  V30 10329 C 986.778 -3.84389 -2.08719 0
M  V30 10330 C 985.837 -4.14904 -3.23638 0
M  V30 10331 O 984.863 -4.84528 -2.98699 0
M  V30 10332 N 986.065 -3.68322 -4.48686 0
M  V30 10333 H 988.83 -2.95803 -0.481753 0
M  V30 10334 H 986.391 -1.61487 -0.115572 0
M  V30 10335 H 988.383 -2.71492 -3.00124 0
M  V30 10336 H 986.953 -1.72969 -2.60385 0
M  V30 10337 H 986.173 -3.76308 -1.17415 0
M  V30 10338 H 987.461 -4.69729 -1.9553 0
M  V30 10339 H 986.859 -3.12073 -4.71834 0
M  V30 10340 H 985.416 -3.91002 -5.21499 0
M  V30 10341 N 988.849 0.203349 -1.56283 0
M  V30 10342 C 990.074 0.945548 -1.84592 0
M  V30 10343 C 990.499 1.7641 -0.652772 0
M  V30 10344 O 989.857 1.76867 0.398468 0
M  V30 10345 C 989.905 1.82416 -3.11057 0
M  V30 10346 O 989.009 2.92191 -2.9103 0
M  V30 10347 H 988.35 0.266739 -0.608068 0
M  V30 10348 H 990.88 0.211158 -2.03507 0
M  V30 10349 H 990.89 2.23044 -3.41636 0
M  V30 10350 H 989.565 1.22267 -3.97522 0
M  V30 10351 H 988.142 2.55378 -2.71728 0
M  V30 10352 N 990.327 1.50405 0.470755 0
M  V30 10353 C 991.604 1.51929 1.23195 0
M  V30 10354 C 991.984 0.264159 2.09441 0
M  V30 10355 O 991.332 -0.752395 2.15757 0
M  V30 10356 C 991.542 2.81521 2.06269 0
M  V30 10357 C 992.89 3.32195 2.64446 0
M  V30 10358 O 993.914 2.82845 2.16511 0
M  V30 10359 O 992.773 4.18221 3.51786 0
M  V30 10360 H 989.867 0.609411 0.559059 0
M  V30 10361 H 992.413 1.62695 0.482549 0
M  V30 10362 H 991.185 3.64346 1.42715 0
M  V30 10363 H 990.808 2.7376 2.88342 0
M  V30 10364 N 991.805 -0.723954 1.39988 0
M  V30 10365 C 993.051 -1.48591 1.38017 0
M  V30 10366 C 993.384 -1.94189 -0.0203522 0
M  V30 10367 O 992.659 -1.67572 -0.987422 0
M  V30 10368 C 992.942 -2.71786 2.36229 0
M  V30 10369 C 992.795 -2.32136 3.8527 0
M  V30 10370 C 994.114 -3.73921 2.32102 0
M  V30 10371 H 991.233 -0.538993 0.502648 0
M  V30 10372 H 993.875 -0.826908 1.71062 0
M  V30 10373 H 992.025 -3.28015 2.0818 0
M  V30 10374 H 993.697 -1.81454 4.24113 0
M  V30 10375 H 991.94 -1.64234 4.01509 0
M  V30 10376 H 992.611 -3.20406 4.49493 0
M  V30 10377 H 995.087 -3.27303 2.56928 0
M  V30 10378 H 993.963 -4.5777 3.02882 0
M  V30 10379 H 994.224 -4.21627 1.32979 0
M  V30 10380 N 993.283 -1.25346 -0.955304 0
M  V30 10381 C 994.529 -1.11226 -1.70295 0
M  V30 10382 C 994.884 0.343362 -1.89311 0
M  V30 10383 O 994.177 1.24953 -1.45249 0
M  V30 10384 C 994.371 -1.7993 -3.08804 0
M  V30 10385 C 994.2 -3.32023 -3.033 0
M  V30 10386 C 992.97 -4.01274 -3.07094 0
M  V30 10387 C 995.168 -4.28431 -2.84519 0
M  V30 10388 N 993.15 -5.40149 -2.91741 0
M  V30 10389 C 994.521 -5.54386 -2.7759 0
M  V30 10390 C 996.576 -4.18854 -2.69194 0
M  V30 10391 C 995.279 -6.71859 -2.56902 0
M  V30 10392 C 997.305 -5.36018 -2.49876 0
M  V30 10393 C 996.667 -6.60913 -2.43667 0
M  V30 10394 H 992.766 -0.461707 -0.631151 0
M  V30 10395 H 995.35 -1.58437 -1.13162 0
M  V30 10396 H 993.521 -1.35214 -3.64104 0
M  V30 10397 H 995.253 -1.58557 -3.72346 0
M  V30 10398 H 992.008 -3.52529 -3.1626 0
M  V30 10399 H 992.432 -6.13029 -2.8727 0
M  V30 10400 H 997.074 -3.23043 -2.7277 0
M  V30 10401 H 994.792 -7.67781 -2.52068 0
M  V30 10402 H 998.378 -5.30468 -2.38944 0
M  V30 10403 H 997.258 -7.50045 -2.28914 0
M  V30 10404 N 994.761 1.15782 -1.06922 0
M  V30 10405 C 995.986 1.90896 -0.810771 0
M  V30 10406 C 996.411 1.77246 0.629714 0
M  V30 10407 O 995.769 1.10215 1.43953 0
M  V30 10408 C 995.817 3.39397 -1.21829 0
M  V30 10409 O 994.921 4.10818 -0.360934 0
M  V30 10410 H 994.262 0.594497 -0.295752 0
M  V30 10411 H 996.792 1.46652 -1.42669 0
M  V30 10412 H 996.802 3.90181 -1.19259 0
M  V30 10413 H 995.477 3.4865 -2.2675 0
M  V30 10414 H 994.054 3.7019 -0.448748 0
M  V30 10415 N 996.239 0.8527 1.3254 0
M  V30 10416 C 997.486 0.455123 1.97319 0
M  V30 10417 C 997.814 -0.988814 1.67489 0
M  V30 10418 O 997.069 -1.70845 0.954483 0
M  V30 10419 C 997.368 0.638757 3.51646 0
M  V30 10420 C 997.034 2.05287 4.01458 0
M  V30 10421 C 995.696 2.43963 4.14771 0
M  V30 10422 C 998.048 2.9759 4.27889 0
M  V30 10423 C 995.376 3.7422 4.51859 0
M  V30 10424 C 997.728 4.27343 4.66434 0
M  V30 10425 C 996.392 4.65957 4.77954 0
M  V30 10426 H 995.662 0.166541 0.722042 0
M  V30 10427 H 998.309 1.08238 1.57977 0
M  V30 10428 H 996.614 -0.0717394 3.91734 0
M  V30 10429 H 998.311 0.311219 3.9979 0
M  V30 10430 H 994.901 1.74253 3.91579 0
M  V30 10431 H 999.085 2.68942 4.17114 0
M  V30 10432 H 994.341 4.03923 4.58973 0
M  V30 10433 H 998.515 4.9893 4.85841 0
M  V30 10434 H 996.142 5.66934 5.06449 0
M  V30 10435 N 997.718 -1.45297 0.610449 0
M  V30 10436 C 998.966 -2.01819 0.106548 0
M  V30 10437 C 999.287 -1.48102 -1.26849 0
M  V30 10438 O 998.557 -0.676411 -1.83852 0
M  V30 10439 H 997.137 -0.746113 0.0363982 0
M  V30 10440 H 999.799 -1.78061 0.792491 0
M  V30 10441 H 998.895 -3.12045 0.0585 0
M  V30 10442 N 999.196 -0.349774 -1.5367 0
M  V30 10443 C 1000.44 0.245862 -2.00196 0
M  V30 10444 C 1000.76 1.51154 -1.24144 0
M  V30 10445 O 1001.96 2.18481 -1.61178 0
M  V30 10446 C 1000.42 0.488665 -3.56567 0
M  V30 10447 C 1000.03 -0.761475 -4.41481 0
M  V30 10448 C 1001.77 1.04282 -4.11492 0
M  V30 10449 C 999.679 -0.489128 -5.89374 0
M  V30 10450 H 998.609 0.0956493 -0.747909 0
M  V30 10451 H 1001.26 -0.466068 -1.77483 0
M  V30 10452 H 999.642 1.26145 -3.75371 0
M  V30 10453 H 1000.82 -1.53585 -4.34452 0
M  V30 10454 H 999.131 -1.23771 -3.9758 0
M  V30 10455 H 1001.73 1.26164 -5.19603 0
M  V30 10456 H 1002.07 2.00023 -3.65098 0
M  V30 10457 H 1002.6 0.330582 -3.96424 0
M  V30 10458 H 999.343 -1.41643 -6.40014 0
M  V30 10459 H 998.863 0.247039 -5.99291 0
M  V30 10460 H 1000.54 -0.1087 -6.46909 0
M  V30 10461 N 1000.67 1.57404 -0.0785433 0
M  V30 10462 C 1001.6 2.16131 0.883726 0
M  V30 10463 C 1002.58 1.09015 1.30575 0
M  V30 10464 O 1003.77 1.3708 1.37559 0
M  V30 10465 C 1000.9 2.72836 2.1489 0
M  V30 10466 C 999.854 3.85178 1.86605 0
M  V30 10467 C 999.18 4.28516 3.1981 0
M  V30 10468 C 1000.48 5.09118 1.16601 0
M  V30 10469 H 1002.17 2.9679 0.394484 0
M  V30 10470 H 999.72 1.42763 0.188304 0
M  V30 10471 H 1001.67 3.12567 2.8263 0
M  V30 10472 H 1000.4 1.89408 2.66068 0
M  V30 10473 H 999.056 3.45962 1.21268 0
M  V30 10474 H 998.704 3.42 3.68843 0
M  V30 10475 H 998.404 5.04249 3.01674 0
M  V30 10476 H 999.928 4.70868 3.88737 0
M  V30 10477 H 1001.34 5.46123 1.74422 0
M  V30 10478 H 999.739 5.90173 1.087 0
M  V30 10479 H 1000.81 4.8468 0.146138 0
M  V30 10480 N 1002.15 -0.195058 1.56388 0
M  V30 10481 C 1003.08 -1.24444 1.97575 0
M  V30 10482 C 1004.06 -1.47471 0.847717 0
M  V30 10483 O 1005.25 -1.59208 1.11205 0
M  V30 10484 C 1002.38 -2.58866 2.31529 0
M  V30 10485 C 1001.33 -2.50451 3.47071 0
M  V30 10486 C 1000.66 -3.89146 3.667 0
M  V30 10487 C 1001.96 -2.02953 4.81256 0
M  V30 10488 H 1003.65 -0.902178 2.85484 0
M  V30 10489 H 1001.2 -0.43254 1.3735 0
M  V30 10490 H 1003.15 -3.3246 2.58936 0
M  V30 10491 H 1001.87 -2.94833 1.40502 0
M  V30 10492 H 1000.53 -1.79313 3.19754 0
M  V30 10493 H 1000.18 -4.22466 2.73004 0
M  V30 10494 H 999.882 -3.84391 4.44429 0
M  V30 10495 H 1001.41 -4.64363 3.96484 0
M  V30 10496 H 1002.82 -2.66306 5.07695 0
M  V30 10497 H 1001.22 -2.092 5.62455 0
M  V30 10498 H 1002.29 -0.982757 4.74837 0
M  V30 10499 N 1003.63 -1.50653 -0.462772 0
M  V30 10500 C 1004.88 -1.63264 -1.21311 0
M  V30 10501 C 1005.23 -0.332647 -1.89503 0
M  V30 10502 O 1004.52 0.669994 -1.79504 0
M  V30 10503 C 1004.72 -2.75637 -2.27507 0
M  V30 10504 C 1004.55 -4.16438 -1.69734 0
M  V30 10505 C 1003.32 -4.82727 -1.49341 0
M  V30 10506 C 1005.51 -5.00399 -1.18765 0
M  V30 10507 N 1003.5 -6.07718 -0.868991 0
M  V30 10508 C 1004.87 -6.16182 -0.68697 0
M  V30 10509 C 1006.92 -4.86112 -1.07699 0
M  V30 10510 C 1005.63 -7.19248 -0.0865268 0
M  V30 10511 C 1007.65 -5.89363 -0.490473 0
M  V30 10512 C 1007.01 -7.044 -0.000208479 0
M  V30 10513 H 1003.11 -0.651518 -0.432491 0
M  V30 10514 H 1005.7 -1.878 -0.51375 0
M  V30 10515 H 1003.87 -2.52809 -2.9486 0
M  V30 10516 H 1005.6 -2.77562 -2.94519 0
M  V30 10517 H 1002.35 -4.40161 -1.74801 0
M  V30 10518 H 1002.78 -6.74554 -0.574957 0
M  V30 10519 H 1007.42 -3.97452 -1.44194 0
M  V30 10520 H 1005.14 -8.07577 0.290614 0
M  V30 10521 H 1008.72 -5.80374 -0.407099 0
M  V30 10522 H 1007.6 -7.82928 0.44652 0
M  V30 10523 N 1005.11 0.71652 -1.4037 0
M  V30 10524 C 1006.02 1.86074 -1.42876 0
M  V30 10525 C 1007.03 1.71005 -0.321475 0
M  V30 10526 O 1008.21 1.93286 -0.565909 0
M  V30 10527 C 1005.28 3.21862 -1.28863 0
M  V30 10528 C 1004.34 3.49193 -2.49726 0
M  V30 10529 C 1003.57 4.78502 -2.36372 0
M  V30 10530 O 1003.79 5.53529 -1.37703 0
M  V30 10531 O 1002.73 5.06147 -3.25728 0
M  V30 10532 H 1006.55 1.86916 -2.39366 0
M  V30 10533 H 1004.14 0.866818 -1.21683 0
M  V30 10534 H 1006.02 4.02972 -1.23253 0
M  V30 10535 H 1004.69 3.2175 -0.354783 0
M  V30 10536 H 1003.6 2.68095 -2.60913 0
M  V30 10537 H 1004.93 3.54101 -3.41868 0
M  V30 10538 N 1006.59 1.25851 0.948643 0
M  V30 10539 C 1007.84 1.10347 1.68838 0
M  V30 10540 C 1008.15 -0.354262 1.92365 0
M  V30 10541 O 1009.35 -0.629847 2.64093 0
M  V30 10542 C 1007.81 1.92659 3.03991 0
M  V30 10543 C 1007.42 3.42962 2.88238 0
M  V30 10544 C 1009.16 1.85743 3.81707 0
M  V30 10545 C 1007.07 4.17547 4.18818 0
M  V30 10546 H 1006 0.409342 0.63321 0
M  V30 10547 H 1008.65 1.50098 1.05559 0
M  V30 10548 H 1007.03 1.45736 3.68208 0
M  V30 10549 H 1008.21 3.97601 2.32917 0
M  V30 10550 H 1006.52 3.51035 2.23972 0
M  V30 10551 H 1009.12 2.38758 4.78434 0
M  V30 10552 H 1009.46 0.826568 4.08012 0
M  V30 10553 H 1009.99 2.30449 3.2425 0
M  V30 10554 H 1006.73 5.21072 3.97699 0
M  V30 10555 H 1006.25 3.6769 4.73882 0
M  V30 10556 H 1007.93 4.25589 4.87322 0
M  V30 10557 N 1008.06 -1.15214 1.07534 0
M  V30 10558 C 1009.31 -1.86043 0.799629 0
M  V30 10559 C 1009.64 -1.82435 -0.674356 0
M  V30 10560 O 1008.89 -1.24379 -1.51091 0
M  V30 10561 C 1009.19 -3.34623 1.25547 0
M  V30 10562 C 1008.86 -3.58425 2.73573 0
M  V30 10563 C 1007.52 -3.6463 3.14004 0
M  V30 10564 C 1009.87 -3.67977 3.6911 0
M  V30 10565 C 1007.2 -3.779 4.48786 0
M  V30 10566 C 1009.55 -3.82771 5.03656 0
M  V30 10567 C 1008.22 -3.87222 5.43705 0
M  V30 10568 H 1007.49 -0.680781 0.292605 0
M  V30 10569 H 1010.13 -1.36149 1.34669 0
M  V30 10570 H 1008.44 -3.86737 0.627828 0
M  V30 10571 H 1010.14 -3.87836 1.01901 0
M  V30 10572 H 1006.73 -3.54238 2.41275 0
M  V30 10573 H 1010.91 -3.62482 3.39 0
M  V30 10574 H 1006.17 -3.79604 4.79281 0
M  V30 10575 H 1010.34 -3.89104 5.77556 0
M  V30 10576 H 1007.97 -3.97256 6.48145 0
M  V30 10577 N 1009.54 -0.859717 -1.32086 0
M  V30 10578 C 1010.77 -0.479724 -2.01262 0
M  V30 10579 C 1011.19 0.924985 -1.64589 0
M  V30 10580 O 1010.54 1.60439 -0.869803 0
M  V30 10581 C 1010.59 -0.615128 -3.56228 0
M  V30 10582 O 1010.31 -1.96451 -3.91585 0
M  V30 10583 C 1011.82 -0.234804 -4.42678 0
M  V30 10584 H 1009.04 -0.188007 -0.644123 0
M  V30 10585 H 1011.58 -1.15805 -1.68551 0
M  V30 10586 H 1009.73 0.0155268 -3.87397 0
M  V30 10587 H 1010.15 -1.96491 -4.86304 0
M  V30 10588 H 1011.62 -0.380534 -5.50687 0
M  V30 10589 H 1012.1 0.825189 -4.31378 0
M  V30 10590 H 1012.71 -0.840739 -4.16907 0
M  V30 10591 N 1011.02 1.44971 -0.618145 0
M  V30 10592 C 1011.95 2.33357 0.0815955 0
M  V30 10593 C 1012.93 1.47451 0.848072 0
M  V30 10594 O 1014.12 1.762 0.816532 0
M  V30 10595 C 1011.25 3.30324 1.07253 0
M  V30 10596 C 1010.2 4.25948 0.418563 0
M  V30 10597 C 1009.53 5.12685 1.51849 0
M  V30 10598 C 1010.83 5.18024 -0.66697 0
M  V30 10599 H 1012.52 2.92115 -0.656442 0
M  V30 10600 H 1010.07 1.40465 -0.317129 0
M  V30 10601 H 1012.02 3.91033 1.57069 0
M  V30 10602 H 1010.74 2.69748 1.8413 0
M  V30 10603 H 1009.4 3.66553 -0.0588308 0
M  V30 10604 H 1009.05 4.4847 2.2778 0
M  V30 10605 H 1008.75 5.7747 1.08637 0
M  V30 10606 H 1010.27 5.76264 2.01871 0
M  V30 10607 H 1011.69 5.72744 -0.252448 0
M  V30 10608 H 1010.09 5.91343 -1.02146 0
M  V30 10609 H 1011.16 4.59817 -1.53936 0
M  V30 10610 N 1012.5 0.357919 1.53482 0
M  V30 10611 C 1013.75 -0.2337 2.00744 0
M  V30 10612 C 1014.07 -1.49908 1.2471 0
M  V30 10613 O 1013.34 -1.92597 0.358235 0
M  V30 10614 H 1011.92 -0.0893474 0.741637 0
M  V30 10615 H 1014.58 0.482388 1.88836 0
M  V30 10616 H 1013.68 -0.466073 3.086 0
M  V30 10617 N 1013.98 -1.5736 0.0868897 0
M  V30 10618 C 1015.22 -1.9367 -0.577598 0
M  V30 10619 C 1015.55 -0.968844 -1.69229 0
M  V30 10620 O 1014.82 -0.0195061 -1.9589 0
M  V30 10621 H 1013.4 -0.714983 -0.216353 0
M  V30 10622 H 1016.06 -1.94335 0.148294 0
M  V30 10623 H 1015.15 -2.95877 -0.993128 0
M  V30 10624 N 1015.45 0.186762 -1.56489 0
M  V30 10625 C 1016.68 0.925916 -1.85584 0
M  V30 10626 C 1017.1 1.75708 -0.671446 0
M  V30 10627 O 1016.46 1.7728 0.379687 0
M  V30 10628 C 1016.51 1.79107 -3.12975 0
M  V30 10629 O 1015.61 2.89088 -2.94112 0
M  V30 10630 H 1014.96 0.260275 -0.610863 0
M  V30 10631 H 1017.49 0.189561 -2.0372 0
M  V30 10632 H 1017.5 2.19408 -3.43983 0
M  V30 10633 H 1016.17 1.18044 -3.98796 0
M  V30 10634 H 1014.75 2.52482 -2.74422 0
M  V30 10635 N 1016.93 1.50896 0.454776 0
M  V30 10636 C 1018.34 1.55372 1.0352 0
M  V30 10637 C 1018.69 0.366822 1.9274 0
M  V30 10638 O 1017.82 -0.518444 2.10098 0
M  V30 10639 C 1018.41 2.81574 1.88418 0
M  V30 10640 C 1016.97 2.88679 2.4154 0
M  V30 10641 C 1016.12 2.49847 1.20298 0
M  V30 10642 H 1019.07 1.56924 0.236729 0
M  V30 10643 H 1019.09 2.64352 2.73676 0
M  V30 10644 H 1018.6 3.67941 1.23455 0
M  V30 10645 H 1016.71 2.06702 3.10008 0
M  V30 10646 H 1016.82 3.91944 2.7553 0
M  V30 10647 H 1015.18 2.02651 1.54288 0
M  V30 10648 H 1015.97 3.3854 0.569723 0
M  V30 10649 N 1018.41 -0.709066 1.40748 0
M  V30 10650 C 1019.64 -1.49591 1.425 0
M  V30 10651 C 1020.05 -1.89184 0.0248343 0
M  V30 10652 O 1019.39 -1.56429 -0.963109 0
M  V30 10653 C 1019.45 -2.79735 2.25807 0
M  V30 10654 C 1019.12 -2.62426 3.74141 0
M  V30 10655 C 1020.11 -2.29256 4.66624 0
M  V30 10656 C 1017.8 -2.78487 4.18032 0
M  V30 10657 C 1019.79 -2.12366 6.00982 0
M  V30 10658 C 1017.48 -2.61215 5.52458 0
M  V30 10659 C 1018.48 -2.28203 6.43749 0
M  V30 10660 O 1018.17 -2.11069 7.75697 0
M  V30 10661 H 1017.9 -0.467994 0.487809 0
M  V30 10662 H 1020.45 -0.881694 1.85514 0
M  V30 10663 H 1018.68 -3.43513 1.77584 0
M  V30 10664 H 1020.37 -3.41481 2.19421 0
M  V30 10665 H 1021.14 -2.16474 4.34009 0
M  V30 10666 H 1017.02 -3.03168 3.4729 0
M  V30 10667 H 1020.56 -1.86522 6.72202 0
M  V30 10668 H 1016.46 -2.73582 5.84656 0
M  V30 10669 H 1017.23 -2.25938 7.86698 0
M  V30 10670 N 1019.89 -1.26353 -0.941956 0
M  V30 10671 C 1021.3 -1.10774 -1.50287 0
M  V30 10672 C 1021.65 0.312229 -1.937 0
M  V30 10673 O 1020.78 1.20364 -1.79838 0
M  V30 10674 C 1021.37 -2.00473 -2.73123 0
M  V30 10675 C 1019.93 -1.89042 -3.25485 0
M  V30 10676 C 1019.08 -1.93869 -1.98267 0
M  V30 10677 H 1022.03 -1.39454 -0.757523 0
M  V30 10678 H 1022.05 -1.55216 -3.47402 0
M  V30 10679 H 1021.56 -3.03812 -2.41495 0
M  V30 10680 H 1019.66 -0.886341 -3.61904 0
M  V30 10681 H 1019.78 -2.74533 -3.92643 0
M  V30 10682 H 1018.14 -1.37912 -2.14132 0
M  V30 10683 H 1018.92 -2.98837 -1.68972 0
M  V30 10684 N 1021.37 1.14642 -1.08144 0
M  V30 10685 C 1022.62 1.8525 -0.807885 0
M  V30 10686 C 1022.94 1.83194 0.668213 0
M  V30 10687 O 1022.21 1.27848 1.48431 0
M  V30 10688 H 1020.79 0.685909 -0.295868 0
M  V30 10689 H 1023.45 1.38935 -1.36686 0
M  V30 10690 H 1022.54 2.90155 -1.14964 0
M  V30 10691 N 1022.85 0.866709 1.31628 0
M  V30 10692 C 1024.09 0.472185 1.96095 0
M  V30 10693 C 1024.41 -0.979873 1.69286 0
M  V30 10694 O 1025.61 -1.48039 2.27589 0
M  V30 10695 C 1024.07 0.793468 3.51044 0
M  V30 10696 C 1023.68 2.26206 3.86697 0
M  V30 10697 C 1025.42 0.467255 4.21921 0
M  V30 10698 C 1023.33 2.52593 5.34743 0
M  V30 10699 H 1022.26 0.172846 0.733921 0
M  V30 10700 H 1024.91 1.05916 1.49847 0
M  V30 10701 H 1023.29 0.135783 3.95767 0
M  V30 10702 H 1024.47 2.96254 3.52945 0
M  V30 10703 H 1022.78 2.55399 3.28877 0
M  V30 10704 H 1025.38 0.641669 5.30836 0
M  V30 10705 H 1025.72 -0.592065 4.12068 0
M  V30 10706 H 1026.25 1.08134 3.82821 0
M  V30 10707 H 1022.99 3.57196 5.49628 0
M  V30 10708 H 1022.51 1.87136 5.6986 0
M  V30 10709 H 1024.19 2.37156 6.01968 0
M  V30 10710 N 1024.32 -1.44642 0.625825 0
M  V30 10711 C 1025.73 -1.85502 0.211175 0
M  V30 10712 C 1026.09 -1.52356 -1.2362 0
M  V30 10713 O 1025.21 -0.959051 -1.93988 0
M  V30 10714 C 1025.81 -3.36702 0.37648 0
M  V30 10715 C 1024.36 -3.76396 0.0163795 0
M  V30 10716 C 1023.51 -2.68517 0.692368 0
M  V30 10717 H 1026.46 -1.35183 0.831333 0
M  V30 10718 H 1026.48 -3.78536 -0.386106 0
M  V30 10719 H 1026 -3.60795 1.42999 0
M  V30 10720 H 1024.1 -3.57919 -1.0356 0
M  V30 10721 H 1024.21 -4.77231 0.422742 0
M  V30 10722 H 1022.57 -2.54377 0.128191 0
M  V30 10723 H 1023.36 -2.95444 1.74837 0
M  V30 10724 N 1025.8 -0.366053 -1.5329 0
M  V30 10725 C 1027.05 0.223824 -2.01561 0
M  V30 10726 C 1027.38 1.48382 -1.25286 0
M  V30 10727 O 1026.66 1.91385 -0.34669 0
M  V30 10728 C 1026.94 0.5153 -3.56394 0
M  V30 10729 C 1026.79 -0.758357 -4.43361 0
M  V30 10730 C 1028.11 1.31568 -4.19974 0
M  V30 10731 H 1025.23 0.0798751 -0.732659 0
M  V30 10732 H 1027.87 -0.491038 -1.83545 0
M  V30 10733 H 1026.02 1.12429 -3.71876 0
M  V30 10734 H 1027.69 -1.39584 -4.39675 0
M  V30 10735 H 1025.94 -1.37862 -4.11311 0
M  V30 10736 H 1026.61 -0.509366 -5.49645 0
M  V30 10737 H 1029.08 0.800514 -4.08327 0
M  V30 10738 H 1027.96 1.48837 -5.28336 0
M  V30 10739 H 1028.22 2.32432 -3.76069 0
M  V30 10740 N 1027.28 1.57312 -0.0952337 0
M  V30 10741 C 1028.19 2.17556 0.877877 0
M  V30 10742 C 1029.21 1.14505 1.31014 0
M  V30 10743 O 1030.38 1.46876 1.37802 0
M  V30 10744 C 1027.45 2.74413 2.11892 0
M  V30 10745 C 1026.51 3.92419 1.74085 0
M  V30 10746 C 1025.74 4.46556 2.92273 0
M  V30 10747 O 1025.96 3.99631 4.07002 0
M  V30 10748 O 1024.9 5.37576 2.70732 0
M  V30 10749 H 1028.72 3.01116 0.395312 0
M  V30 10750 H 1026.31 1.48841 0.129123 0
M  V30 10751 H 1028.19 3.10754 2.84622 0
M  V30 10752 H 1026.87 1.93899 2.59201 0
M  V30 10753 H 1025.77 3.6089 0.985346 0
M  V30 10754 H 1027.11 4.74298 1.31539 0
M  V30 10755 N 1028.76 -0.17846 1.56586 0
M  V30 10756 C 1029.67 -1.24115 1.9908 0
M  V30 10757 C 1030.68 -1.48854 0.901031 0
M  V30 10758 O 1031.86 -1.61142 1.2081 0
M  V30 10759 C 1028.92 -2.56187 2.33601 0
M  V30 10760 C 1027.99 -2.39373 3.56369 0
M  V30 10761 C 1027.22 -3.65147 3.89234 0
M  V30 10762 O 1027.44 -4.70024 3.23162 0
M  V30 10763 O 1026.38 -3.59683 4.82609 0
M  V30 10764 H 1030.2 -0.910482 2.89731 0
M  V30 10765 H 1027.79 -0.38477 1.4436 0
M  V30 10766 H 1029.67 -3.34109 2.56806 0
M  V30 10767 H 1028.34 -2.88847 1.46113 0
M  V30 10768 H 1027.25 -1.59506 3.38391 0
M  V30 10769 H 1028.58 -2.1164 4.44375 0
M  V30 10770 N 1030.24 -1.51135 -0.446768 0
M  V30 10771 C 1031.17 -1.74709 -1.54916 0
M  V30 10772 C 1032.15 -0.596628 -1.59293 0
M  V30 10773 O 1033.33 -0.838356 -1.75172 0
M  V30 10774 C 1030.46 -1.86353 -2.9307 0
M  V30 10775 C 1029.42 -3.01725 -3.03556 0
M  V30 10776 C 1028.74 -2.9854 -4.43597 0
M  V30 10777 C 1030.04 -4.41848 -2.7851 0
M  V30 10778 H 1031.74 -2.67014 -1.3544 0
M  V30 10779 H 1029.28 -1.28489 -0.650131 0
M  V30 10780 H 1031.23 -2.01428 -3.70141 0
M  V30 10781 H 1029.96 -0.906887 -3.13756 0
M  V30 10782 H 1028.62 -2.86339 -2.28922 0
M  V30 10783 H 1028.27 -2.00673 -4.61237 0
M  V30 10784 H 1027.97 -3.76008 -4.51544 0
M  V30 10785 H 1029.49 -3.15696 -5.22655 0
M  V30 10786 H 1030.9 -4.57633 -3.45319 0
M  V30 10787 H 1029.3 -5.2095 -2.97877 0
M  V30 10788 H 1030.37 -4.52536 -1.74182 0
M  V30 10789 N 1031.71 0.701592 -1.41122 0
M  V30 10790 C 1032.96 1.4616 -1.40155 0
M  V30 10791 C 1033.29 1.94498 -0.00861553 0
M  V30 10792 O 1032.54 1.69484 0.978452 0
M  V30 10793 C 1032.84 2.693 -2.34973 0
M  V30 10794 C 1032.51 2.39652 -3.81939 0
M  V30 10795 C 1031.17 2.31277 -4.21977 0
M  V30 10796 C 1033.52 2.15076 -4.74755 0
M  V30 10797 C 1030.85 1.96413 -5.52846 0
M  V30 10798 C 1033.2 1.81722 -6.05937 0
M  V30 10799 C 1031.87 1.71838 -6.45002 0
M  V30 10800 H 1031.14 0.534837 -0.512865 0
M  V30 10801 H 1033.78 0.802425 -1.73878 0
M  V30 10802 H 1032.09 3.40123 -1.94484 0
M  V30 10803 H 1033.79 3.27427 -2.31501 0
M  V30 10804 H 1030.38 2.47063 -3.50226 0
M  V30 10805 H 1034.56 2.20495 -4.4463 0
M  V30 10806 H 1029.82 1.87308 -5.82001 0
M  V30 10807 H 1033.99 1.61723 -6.77362 0
M  V30 10808 H 1031.62 1.44591 -7.46323 0
M  V30 10809 N 1033.19 1.2685 0.935242 0
M  V30 10810 C 1034.42 1.15645 1.72165 0
M  V30 10811 C 1034.84 -0.283909 1.85945 0
M  V30 10812 O 1034.2 -1.20567 1.354 0
M  V30 10813 C 1034.25 1.83689 3.10307 0
M  V30 10814 O 1033.35 1.12972 3.96625 0
M  V30 10815 H 1032.69 0.402629 0.528002 0
M  V30 10816 H 1035.22 1.67781 1.17093 0
M  V30 10817 H 1035.23 1.90749 3.60664 0
M  V30 10818 H 1033.91 2.88472 2.99595 0
M  V30 10819 H 1032.48 1.13929 3.5507 0
M  V30 10820 N 1034.67 -1.14067 1.0875 0
M  V30 10821 C 1035.6 -2.21385 0.74236 0
M  V30 10822 C 1036.58 -1.67833 -0.276805 0
M  V30 10823 O 1037.77 -1.93647 -0.1464 0
M  V30 10824 C 1034.9 -3.46956 0.154644 0
M  V30 10825 C 1033.85 -4.13555 1.10255 0
M  V30 10826 C 1033.18 -5.3337 0.376877 0
M  V30 10827 C 1034.48 -4.6169 2.44213 0
M  V30 10828 H 1036.17 -2.50512 1.63964 0
M  V30 10829 H 1033.72 -1.20408 0.789807 0
M  V30 10830 H 1035.67 -4.21284 -0.0988419 0
M  V30 10831 H 1034.39 -3.17203 -0.777789 0
M  V30 10832 H 1033.05 -3.41186 1.34119 0
M  V30 10833 H 1032.7 -4.99879 -0.559472 0
M  V30 10834 H 1032.4 -5.78875 1.00884 0
M  V30 10835 H 1033.92 -6.10458 0.131527 0
M  V30 10836 H 1035.34 -5.27475 2.24595 0
M  V30 10837 H 1033.74 -5.17909 3.03134 0
M  V30 10838 H 1034.81 -3.76574 3.05483 0
M  V30 10839 N 1036.15 -0.873678 -1.31166 0
M  V30 10840 C 1037.08 -0.348011 -2.30892 0
M  V30 10841 C 1038.06 0.563092 -1.60509 0
M  V30 10842 O 1039.24 0.479332 -1.88192 0
M  V30 10843 C 1036.37 0.448158 -3.44396 0
M  V30 10844 C 1035.33 -0.370179 -4.26396 0
M  V30 10845 C 1034.65 0.551903 -5.31844 0
M  V30 10846 C 1035.95 -1.60624 -4.96988 0
M  V30 10847 H 1037.65 -1.18134 -2.75109 0
M  V30 10848 H 1035.19 -0.569502 -1.3226 0
M  V30 10849 H 1037.15 0.826458 -4.13216 0
M  V30 10850 H 1035.87 1.31503 -2.98956 0
M  V30 10851 H 1034.53 -0.730472 -3.59249 0
M  V30 10852 H 1034.18 1.41616 -4.82653 0
M  V30 10853 H 1033.88 0.00823478 -5.87599 0
M  V30 10854 H 1035.4 0.926965 -6.03523 0
M  V30 10855 H 1036.82 -1.29917 -5.58386 0
M  V30 10856 H 1035.21 -2.08926 -5.62557 0
M  V30 10857 H 1036.28 -2.357 -4.23761 0
M  V30 10858 N 1037.63 1.44308 -0.633487 0
M  V30 10859 C 1039.04 1.56768 -0.29931 0
M  V30 10860 C 1039.24 1.62061 1.19743 0
M  V30 10861 O 1038.3 1.56492 1.98158 0
M  V30 10862 C 1039.61 2.8382 -0.993307 0
M  V30 10863 C 1041.16 2.97536 -0.971674 0
M  V30 10864 C 1041.63 4.27393 -1.64618 0
M  V30 10865 N 1043.13 4.34212 -1.61288 0
M  V30 10866 C 1043.86 5.33415 -2.1037 0
M  V30 10867 N 1043.36 6.3901 -2.67653 0
M  V30 10868 N 1045.15 5.24939 -2.00985 0
M  V30 10869 H 1037.3 1.39115 -1.60501 0
M  V30 10870 H 1039.56 0.666804 -0.673852 0
M  V30 10871 H 1039.27 2.85902 -2.04823 0
M  V30 10872 H 1039.14 3.73422 -0.532537 0
M  V30 10873 H 1041.53 2.95005 0.0747854 0
M  V30 10874 H 1041.61 2.09276 -1.47096 0
M  V30 10875 H 1041.26 4.30683 -2.6921 0
M  V30 10876 H 1041.19 5.14515 -1.12171 0
M  V30 10877 H 1043.68 3.58519 -1.19468 0
M  V30 10878 H 1043.99 7.10994 -3.02831 0
M  V30 10879 H 1042.33 6.39689 -2.71705 0
M  V30 10880 H 1045.53 4.41357 -1.55953 0
M  V30 10881 H 1045.7 6.02097 -2.39547 0
M  V30 10882 N 1039.1 0.374177 1.53094 0
M  V30 10883 C 1040.01 -0.475935 2.29722 0
M  V30 10884 C 1041.03 -1.085 1.36029 0
M  V30 10885 O 1042.21 -1.09408 1.69091 0
M  V30 10886 C 1039.27 -1.59572 3.07795 0
M  V30 10887 C 1038.33 -1.01332 4.17169 0
M  V30 10888 C 1037.57 -2.07975 4.9151 0
M  V30 10889 O 1037.79 -3.29232 4.65793 0
M  V30 10890 O 1036.72 -1.7055 5.77232 0
M  V30 10891 H 1040.55 0.147877 3.0334 0
M  V30 10892 H 1038.13 0.138312 1.48758 0
M  V30 10893 H 1040.02 -2.24658 3.5652 0
M  V30 10894 H 1038.69 -2.20478 2.37005 0
M  V30 10895 H 1037.6 -0.326133 3.72676 0
M  V30 10896 H 1038.93 -0.4487 4.90151 0
M  V30 10897 N 1040.58 -1.57259 0.103575 0
M  V30 10898 C 1041.83 -1.94272 -0.557024 0
M  V30 10899 C 1042.15 -0.986739 -1.68192 0
M  V30 10900 O 1041.42 -0.0402818 -1.95859 0
M  V30 10901 H 1040 -0.717237 -0.208757 0
M  V30 10902 H 1042.66 -1.94167 0.168898 0
M  V30 10903 H 1041.76 -2.96914 -0.961691 0
M  V30 10904 N 1042.06 0.170153 -1.56679 0
M  V30 10905 C 1043.01 1.21531 -1.9291 0
M  V30 10906 C 1043.99 1.39742 -0.797553 0
M  V30 10907 O 1045.19 1.41693 -1.06075 0
M  V30 10908 C 1042.32 2.55447 -2.29351 0
M  V30 10909 C 1041.4 2.40925 -3.49022 0
M  V30 10910 N 1041.79 1.96118 -4.66231 0
M  V30 10911 C 1040.09 2.71747 -3.53652 0
M  V30 10912 C 1040.79 1.94086 -5.48366 0
M  V30 10913 N 1039.77 2.36533 -4.89441 0
M  V30 10914 H 1043.57 0.860602 -2.81018 0
M  V30 10915 H 1041.08 0.378415 -1.5793 0
M  V30 10916 H 1043.08 3.30972 -2.53502 0
M  V30 10917 H 1041.74 2.9172 -1.42583 0
M  V30 10918 H 1042.75 1.66438 -4.90427 0
M  V30 10919 H 1039.43 3.1205 -2.77365 0
M  V30 10920 H 1040.82 1.61132 -6.52293 0
M  V30 10921 N 1043.54 1.5137 0.438746 0
M  V30 10922 C 1044.95 1.39514 0.775116 0
M  V30 10923 C 1045.15 0.47638 1.95788 0
M  V30 10924 O 1044.21 -0.0689832 2.52406 0
M  V30 10925 C 1045.52 2.81517 1.05681 0
M  V30 10926 C 1047.07 2.90658 1.16133 0
M  V30 10927 C 1047.55 4.33566 1.47597 0
M  V30 10928 N 1049.04 4.36665 1.54524 0
M  V30 10929 C 1049.77 5.4427 1.80438 0
M  V30 10930 N 1049.27 6.62037 2.04154 0
M  V30 10931 N 1051.06 5.31749 1.82208 0
M  V30 10932 H 1043.21 2.09657 -0.340237 0
M  V30 10933 H 1045.48 0.943736 -0.0898115 0
M  V30 10934 H 1045.18 3.50734 0.260441 0
M  V30 10935 H 1045.06 3.20757 1.98481 0
M  V30 10936 H 1047.44 2.2164 1.94833 0
M  V30 10937 H 1047.52 2.54917 0.212376 0
M  V30 10938 H 1047.17 5.03133 0.694251 0
M  V30 10939 H 1047.1 4.66819 2.43696 0
M  V30 10940 H 1049.59 3.51761 1.38105 0
M  V30 10941 H 1049.9 7.39838 2.23293 0
M  V30 10942 H 1048.25 6.65155 2.01479 0
M  V30 10943 H 1051.44 4.3873 1.63198 0
M  V30 10944 H 1051.61 6.15689 2.02067 0
M  V30 10945 N 1045.02 -0.694098 1.41492 0
M  V30 10946 C 1045.95 -1.81841 1.37873 0
M  V30 10947 C 1046.93 -1.60732 0.245772 0
M  V30 10948 O 1048.11 -1.83461 0.432917 0
M  V30 10949 C 1045.24 -3.18543 1.15099 0
M  V30 10950 C 1044.28 -3.5844 2.31133 0
M  V30 10951 S 1045.12 -3.63079 3.93617 0
M  V30 10952 C 1046.27 -5.02505 3.73148 0
M  V30 10953 H 1046.51 -1.84634 2.33018 0
M  V30 10954 H 1044.04 -0.862948 1.28033 0
M  V30 10955 H 1046 -3.9746 1.02646 0
M  V30 10956 H 1044.66 -3.13358 0.21572 0
M  V30 10957 H 1043.85 -4.57754 2.10896 0
M  V30 10958 H 1043.45 -2.86837 2.40002 0
M  V30 10959 H 1045.75 -5.90046 3.32945 0
M  V30 10960 H 1046.69 -5.27784 4.72069 0
M  V30 10961 H 1047.1 -4.74113 3.06394 0
M  V30 10962 N 1046.49 -1.27344 -0.928501 0
M  V30 10963 C 1047.77 -1.04362 -1.65433 0
M  V30 10964 C 1048.15 0.421896 -2.06841 0
M  V30 10965 O 1047.5 1.40496 -1.80203 0
M  V30 10966 C 1047.71 -2.00442 -2.85699 0
M  V30 10967 C 1049.06 -2.29767 -3.57061 0
M  V30 10968 O 1050.08 -1.98409 -2.95825 0
M  V30 10969 O 1048.94 -2.83217 -4.67387 0
M  V30 10970 H 1046.03 -0.397783 -0.72505 0
M  V30 10971 H 1048.58 -1.38606 -0.979109 0
M  V30 10972 H 1047.35 -2.99281 -2.52085 0
M  V30 10973 H 1046.98 -1.66755 -3.60941 0
M  V30 10974 N 1047.97 1.13488 -1.09353 0
M  V30 10975 C 1049.39 1.36739 -0.823086 0
M  V30 10976 C 1049.59 1.93476 0.562963 0
M  V30 10977 O 1048.64 2.15374 1.31796 0
M  V30 10978 C 1049.96 2.31943 -1.91371 0
M  V30 10979 C 1051.51 2.4556 -1.94085 0
M  V30 10980 C 1051.98 3.44072 -3.02289 0
M  V30 10981 N 1053.47 3.51622 -3.01524 0
M  V30 10982 C 1054.21 4.27724 -3.8189 0
M  V30 10983 N 1053.7 5.06987 -4.72161 0
M  V30 10984 N 1055.5 4.23018 -3.70152 0
M  V30 10985 H 1047.65 0.75012 -1.98713 0
M  V30 10986 H 1049.91 0.392564 -0.862901 0
M  V30 10987 H 1049.62 1.97408 -2.91072 0
M  V30 10988 H 1049.49 3.31952 -1.79131 0
M  V30 10989 H 1051.88 2.79382 -0.950234 0
M  V30 10990 H 1051.96 1.45479 -2.10403 0
M  V30 10991 H 1051.6 3.10981 -4.01564 0
M  V30 10992 H 1051.53 4.43956 -2.83214 0
M  V30 10993 H 1054.02 2.95066 -2.36103 0
M  V30 10994 H 1054.34 5.6236 -5.30067 0
M  V30 10995 H 1052.68 5.06222 -4.76197 0
M  V30 10996 H 1055.87 3.60171 -2.98989 0
M  V30 10997 H 1056.04 4.82075 -4.33022 0
M  V30 10998 N 1049.45 0.880621 1.30701 0
M  V30 10999 C 1050.86 0.547993 1.78477 0
M  V30 11000 C 1051.21 -0.935633 1.72454 0
M  V30 11001 O 1050.34 -1.73094 1.29874 0
M  V30 11002 C 1050.93 0.98795 3.24076 0
M  V30 11003 C 1049.49 0.706805 3.69704 0
M  V30 11004 C 1048.64 1.17335 2.51252 0
M  V30 11005 H 1051.59 1.06528 1.17633 0
M  V30 11006 H 1051.61 0.31508 3.79193 0
M  V30 11007 H 1051.12 2.06778 3.28427 0
M  V30 11008 H 1049.22 -0.36122 3.70845 0
M  V30 11009 H 1049.34 1.2913 4.6137 0
M  V30 11010 H 1047.7 0.592808 2.47705 0
M  V30 11011 H 1048.48 2.26083 2.58343 0
M  V30 11012 N 1050.93 -1.4397 0.641131 0
M  V30 11013 C 1052.34 -1.85267 0.230838 0
M  V30 11014 C 1052.69 -1.53659 -1.21998 0
M  V30 11015 O 1051.82 -0.979572 -1.92959 0
M  V30 11016 C 1052.41 -3.36284 0.412171 0
M  V30 11017 C 1050.97 -3.76358 0.0563004 0
M  V30 11018 C 1050.12 -2.67768 0.720809 0
M  V30 11019 H 1053.07 -1.34294 0.845624 0
M  V30 11020 H 1053.09 -3.78924 -0.345936 0
M  V30 11021 H 1052.6 -3.59258 1.46818 0
M  V30 11022 H 1050.7 -3.58997 -0.997582 0
M  V30 11023 H 1050.82 -4.76756 0.473335 0
M  V30 11024 H 1049.18 -2.54227 0.155164 0
M  V30 11025 H 1049.96 -2.93573 1.77961 0
M  V30 11026 N 1052.41 -0.382291 -1.52893 0
M  V30 11027 C 1053.36 0.473026 -2.23039 0
M  V30 11028 C 1054.34 1.0353 -1.23168 0
M  V30 11029 O 1055.53 0.962566 -1.48538 0
M  V30 11030 C 1052.66 1.60349 -3.03551 0
M  V30 11031 C 1051.75 1.05329 -4.10812 0
M  V30 11032 N 1052.14 0.22746 -5.05288 0
M  V30 11033 C 1050.44 1.32648 -4.25818 0
M  V30 11034 C 1051.14 -0.0757032 -5.81651 0
M  V30 11035 N 1050.11 0.526387 -5.41045 0
M  V30 11036 H 1053.92 -0.164541 -2.93439 0
M  V30 11037 H 1051.43 -0.191211 -1.6127 0
M  V30 11038 H 1053.43 2.22858 -3.52335 0
M  V30 11039 H 1052.09 2.24394 -2.34685 0
M  V30 11040 H 1053.1 -0.134714 -5.17725 0
M  V30 11041 H 1049.78 1.96849 -3.6818 0
M  V30 11042 H 1051.17 -0.744375 -6.67764 0
M  V30 11043 N 1053.89 1.57202 -0.111913 0
M  V30 11044 C 1055.13 1.96834 0.550967 0
M  V30 11045 C 1055.49 0.993502 1.64297 0
M  V30 11046 O 1056.69 1.27894 2.36425 0
M  V30 11047 C 1054.96 3.40805 1.07641 0
M  V30 11048 S 1056.52 4.02445 1.74881 0
M  V30 11049 H 1053.34 0.688021 0.179298 0
M  V30 11050 H 1055.94 1.94522 -0.195312 0
M  V30 11051 H 1054.64 4.09508 0.270377 0
M  V30 11052 H 1054.18 3.46752 1.85814 0
M  V30 11053 H 1056.19 3.92623 3.03416 0
M  V30 11054 N 1055.36 -0.161842 1.56767 0
M  V30 11055 C 1056.77 -0.723385 1.72116 0
M  V30 11056 C 1057.13 -1.82355 0.723961 0
M  V30 11057 O 1056.25 -2.16107 -0.112643 0
M  V30 11058 C 1056.85 -1.31895 3.12072 0
M  V30 11059 C 1055.4 -1.82722 3.29074 0
M  V30 11060 C 1054.55 -0.709863 2.6806 0
M  V30 11061 H 1057.5 0.0636647 1.58572 0
M  V30 11062 H 1057.52 -2.18871 3.11249 0
M  V30 11063 H 1057.04 -0.51801 3.84627 0
M  V30 11064 H 1055.14 -2.6543 2.61491 0
M  V30 11065 H 1055.25 -1.96614 4.36898 0
M  V30 11066 H 1053.61 -1.13273 2.28126 0
M  V30 11067 H 1054.4 0.0793884 3.43208 0
M  V30 11068 N 1056.84 -1.516 -0.430713 0
M  V30 11069 C 1058.25 -1.57 -1.01035 0
M  V30 11070 C 1058.6 -0.397439 -1.92132 0
M  V30 11071 O 1057.73 0.484954 -2.10896 0
M  V30 11072 C 1058.32 -2.84536 -1.83915 0
M  V30 11073 C 1056.88 -2.92485 -2.36917 0
M  V30 11074 C 1056.03 -2.5173 -1.16308 0
M  V30 11075 H 1058.98 -1.57281 -0.211734 0
M  V30 11076 H 1059 -2.68672 -2.69435 0
M  V30 11077 H 1058.51 -3.69858 -1.17586 0
M  V30 11078 H 1056.61 -2.11608 -3.0668 0
M  V30 11079 H 1056.73 -3.96277 -2.6926 0
M  V30 11080 H 1055.09 -2.05079 -1.51045 0
M  V30 11081 H 1055.87 -3.39403 -0.515793 0
M  V30 11082 N 1058.32 0.686584 -1.41858 0
M  V30 11083 C 1059.23 1.83002 -1.46791 0
M  V30 11084 C 1060.25 1.70284 -0.357675 0
M  V30 11085 O 1061.42 1.92042 -0.606781 0
M  V30 11086 C 1058.49 3.19056 -1.35661 0
M  V30 11087 C 1057.55 3.43817 -2.57077 0
M  V30 11088 C 1056.78 4.7338 -2.46469 0
M  V30 11089 O 1057 5.50483 -1.49413 0
M  V30 11090 O 1055.94 4.99124 -3.36391 0
M  V30 11091 H 1059.76 1.81797 -2.43277 0
M  V30 11092 H 1057.35 0.840812 -1.23494 0
M  V30 11093 H 1059.23 4.00267 -1.31773 0
M  V30 11094 H 1057.91 3.20925 -0.422951 0
M  V30 11095 H 1056.81 2.625 -2.66541 0
M  V30 11096 H 1058.15 3.4677 -3.49302 0
M  V30 11097 N 1059.8 1.27835 0.921735 0
M  V30 11098 C 1060.73 1.136 2.04003 0
M  V30 11099 C 1061.71 0.0358756 1.70062 0
M  V30 11100 O 1062.89 0.211438 1.93046 0
M  V30 11101 C 1060.02 0.788697 3.38226 0
M  V30 11102 C 1058.98 1.84272 3.863 0
M  V30 11103 C 1058.3 1.34923 5.17397 0
M  V30 11104 C 1059.6 3.24788 4.09035 0
M  V30 11105 H 1061.3 2.07149 2.1617 0
M  V30 11106 H 1058.84 0.997349 1.0387 0
M  V30 11107 H 1060.8 0.675911 4.15944 0
M  V30 11108 H 1059.52 -0.182499 3.2609 0
M  V30 11109 H 1058.18 1.94451 3.1078 0
M  V30 11110 H 1057.83 0.367328 5.01657 0
M  V30 11111 H 1057.53 2.05397 5.50532 0
M  V30 11112 H 1059.05 1.24951 5.97678 0
M  V30 11113 H 1060.47 3.17575 4.77304 0
M  V30 11114 H 1058.86 3.93025 4.53488 0
M  V30 11115 H 1059.93 3.69398 3.14122 0
M  V30 11116 N 1061.28 -1.12907 1.09954 0
M  V30 11117 C 1062.51 -1.87866 0.859656 0
M  V30 11118 C 1062.91 -1.79664 -0.593096 0
M  V30 11119 O 1062.26 -1.16499 -1.42034 0
M  V30 11120 C 1062.32 -3.38055 1.22308 0
M  V30 11121 C 1061.98 -3.70035 2.68185 0
M  V30 11122 C 1062.98 -3.68817 3.66428 0
M  V30 11123 C 1060.66 -3.99523 3.04444 0
M  V30 11124 C 1062.66 -3.96639 4.98955 0
M  V30 11125 C 1060.35 -4.27006 4.37161 0
M  V30 11126 C 1061.34 -4.25549 5.34225 0
M  V30 11127 O 1061.03 -4.52354 6.64553 0
M  V30 11128 H 1060.76 -0.601425 0.308649 0
M  V30 11129 H 1063.32 -1.43817 1.46649 0
M  V30 11130 H 1061.55 -3.82634 0.559322 0
M  V30 11131 H 1063.24 -3.94348 0.961479 0
M  V30 11132 H 1064 -3.46104 3.3976 0
M  V30 11133 H 1059.88 -3.99801 2.29521 0
M  V30 11134 H 1063.43 -3.95418 5.74709 0
M  V30 11135 H 1059.32 -4.49192 4.6357 0
M  V30 11136 H 1060.09 -4.69997 6.70108 0
M  V30 11137 N 1062.75 -0.88754 -1.30232 0
M  V30 11138 C 1064 -0.506277 -1.95656 0
M  V30 11139 C 1064.32 0.948191 -1.70395 0
M  V30 11140 O 1063.59 1.66701 -1.02895 0
M  V30 11141 H 1062.17 -0.184235 -0.723924 0
M  V30 11142 H 1064.83 -1.13118 -1.58715 0
M  V30 11143 H 1063.93 -0.678673 -3.04632 0
M  V30 11144 N 1064.23 1.43628 -0.648757 0
M  V30 11145 C 1065.16 2.33478 0.0320785 0
M  V30 11146 C 1066.14 1.49217 0.816605 0
M  V30 11147 O 1067.33 1.77892 0.778974 0
M  V30 11148 C 1064.46 3.32525 1.00222 0
M  V30 11149 C 1063.41 4.2674 0.328119 0
M  V30 11150 C 1062.74 5.15791 1.4094 0
M  V30 11151 C 1064.04 5.16493 -0.776701 0
M  V30 11152 H 1065.73 2.90657 -0.718257 0
M  V30 11153 H 1063.28 1.3976 -0.346852 0
M  V30 11154 H 1065.23 3.94277 1.4874 0
M  V30 11155 H 1063.96 2.73593 1.78366 0
M  V30 11156 H 1062.61 3.66346 -0.136569 0
M  V30 11157 H 1062.26 4.53201 2.18216 0
M  V30 11158 H 1061.96 5.79645 0.963631 0
M  V30 11159 H 1063.49 5.80416 1.89603 0
M  V30 11160 H 1064.9 5.7208 -0.373878 0
M  V30 11161 H 1063.3 5.89043 -1.14667 0
M  V30 11162 H 1064.37 4.56448 -1.63654 0
M  V30 11163 N 1065.71 0.390394 1.52688 0
M  V30 11164 C 1066.64 -0.48838 2.22913 0
M  V30 11165 C 1067.62 -1.06319 1.23025 0
M  V30 11166 O 1068.81 -1.11462 1.52015 0
M  V30 11167 C 1065.93 -1.67612 2.9432 0
M  V30 11168 C 1064.98 -1.22646 4.08485 0
M  V30 11169 S 1065.81 -0.207092 5.35099 0
M  V30 11170 C 1066.97 -1.40058 6.10028 0
M  V30 11171 H 1067.2 0.107949 2.97104 0
M  V30 11172 H 1064.73 0.174588 1.5341 0
M  V30 11173 H 1066.69 -2.35728 3.36069 0
M  V30 11174 H 1065.35 -2.24375 2.19806 0
M  V30 11175 H 1064.55 -2.11331 4.57554 0
M  V30 11176 H 1064.15 -0.624197 3.68754 0
M  V30 11177 H 1066.44 -2.32747 6.36266 0
M  V30 11178 H 1067.38 -0.950804 7.01687 0
M  V30 11179 H 1067.79 -1.61789 5.40818 0
M  V30 11180 N 1067.19 -1.57141 0.120249 0
M  V30 11181 C 1068.6 -1.5784 -0.236335 0
M  V30 11182 C 1068.8 -1.13304 -1.66626 0
M  V30 11183 O 1067.86 -0.821004 -2.3878 0
M  V30 11184 C 1069.17 -3.007 -0.00188211 0
M  V30 11185 C 1070.72 -3.12927 -0.0676838 0
M  V30 11186 C 1071.2 -4.57789 0.139092 0
M  V30 11187 N 1072.69 -4.63122 0.085104 0
M  V30 11188 C 1073.42 -5.72978 0.219983 0
M  V30 11189 N 1072.92 -6.91579 0.411102 0
M  V30 11190 N 1074.71 -5.61874 0.159469 0
M  V30 11191 H 1066.86 -1.84391 1.05422 0
M  V30 11192 H 1069.13 -0.852228 0.415225 0
M  V30 11193 H 1068.83 -3.37575 0.986718 0
M  V30 11194 H 1068.71 -3.70005 -0.733203 0
M  V30 11195 H 1071.09 -2.75909 -1.04681 0
M  V30 11196 H 1071.17 -2.46162 0.695538 0
M  V30 11197 H 1070.82 -4.95506 1.1152 0
M  V30 11198 H 1070.75 -5.22646 -0.644131 0
M  V30 11199 H 1073.24 -3.77854 -0.0590479 0
M  V30 11200 H 1073.55 -7.71149 0.504851 0
M  V30 11201 H 1071.9 -6.9356 0.447091 0
M  V30 11202 H 1075.09 -4.68099 0.0111131 0
M  V30 11203 H 1075.26 -6.47445 0.268028 0
M  V30 11204 N 1068.67 0.153526 -1.5685 0
M  V30 11205 C 1069.58 1.20932 -2.01029 0
M  V30 11206 C 1070.59 1.47401 -0.924598 0
M  V30 11207 O 1071.77 1.592 -1.23359 0
M  V30 11208 C 1068.83 2.52438 -2.37647 0
M  V30 11209 C 1067.89 2.33673 -3.60132 0
M  V30 11210 C 1067.13 3.58909 -3.94994 0
M  V30 11211 O 1067.35 4.64823 -3.30599 0
M  V30 11212 O 1066.28 3.5196 -4.8827 0
M  V30 11213 H 1070.11 0.864273 -2.91143 0
M  V30 11214 H 1067.7 0.361755 -1.44954 0
M  V30 11215 H 1069.58 3.29981 -2.62088 0
M  V30 11216 H 1068.25 2.86486 -1.5069 0
M  V30 11217 H 1067.16 1.54102 -3.40886 0
M  V30 11218 H 1068.49 2.04544 -4.47686 0
M  V30 11219 N 1070.14 1.51827 0.422667 0
M  V30 11220 C 1071.38 1.66888 1.18016 0
M  V30 11221 C 1071.75 0.383859 1.88124 0
M  V30 11222 O 1072.95 0.410413 2.65648 0
M  V30 11223 C 1071.22 2.84842 2.1587 0
M  V30 11224 S 1072.78 3.20312 2.99909 0
M  V30 11225 H 1069.6 0.58781 0.4 0
M  V30 11226 H 1072.2 1.89779 0.46948 0
M  V30 11227 H 1070.9 3.76629 1.63029 0
M  V30 11228 H 1070.43 2.64183 2.91497 0
M  V30 11229 H 1072.45 2.67884 4.17675 0
M  V30 11230 N 1071.62 -0.679052 1.4222 0
M  V30 11231 C 1072.87 -1.43978 1.43673 0
M  V30 11232 C 1073.22 -1.92333 0.0506711 0
M  V30 11233 O 1072.52 -1.67715 -0.926406 0
M  V30 11234 C 1072.71 -2.65528 2.39227 0
M  V30 11235 C 1072.54 -2.29065 3.86987 0
M  V30 11236 C 1071.31 -2.1863 4.55553 0
M  V30 11237 C 1073.51 -1.90983 4.77525 0
M  V30 11238 N 1071.49 -1.75227 5.88361 0
M  V30 11239 C 1072.86 -1.58465 5.99407 0
M  V30 11240 C 1074.92 -1.77938 4.65019 0
M  V30 11241 C 1073.62 -1.14212 7.10175 0
M  V30 11242 C 1075.64 -1.35089 5.75765 0
M  V30 11243 C 1075.01 -1.03493 6.96756 0
M  V30 11244 H 1071.11 -0.523503 0.58092 0
M  V30 11245 H 1073.69 -0.784043 1.78216 0
M  V30 11246 H 1071.86 -3.28797 2.06753 0
M  V30 11247 H 1073.59 -3.32096 2.31288 0
M  V30 11248 H 1070.35 -2.37562 4.09709 0
M  V30 11249 H 1070.77 -1.5596 6.58791 0
M  V30 11250 H 1075.41 -2.01013 3.71959 0
M  V30 11251 H 1073.13 -0.89882 8.03086 0
M  V30 11252 H 1076.72 -1.25522 5.68098 0
M  V30 11253 H 1075.6 -0.708396 7.80994 0
M  V30 11254 N 1073.1 -1.28322 -0.914942 0
M  V30 11255 C 1074.05 -1.08788 -2.00373 0
M  V30 11256 C 1075.03 -0.0118996 -1.60896 0
M  V30 11257 O 1076.23 -0.231902 -1.75474 0
M  V30 11258 C 1073.36 -0.750508 -3.34996 0
M  V30 11259 C 1072.44 -1.86527 -3.80879 0
M  V30 11260 N 1072.83 -3.10672 -3.99145 0
M  V30 11261 C 1071.13 -1.75485 -4.10026 0
M  V30 11262 C 1071.83 -3.833 -4.37557 0
M  V30 11263 N 1070.81 -3.11141 -4.45749 0
M  V30 11264 H 1074.61 -2.02984 -2.12544 0
M  V30 11265 H 1072.12 -1.19224 -1.1027 0
M  V30 11266 H 1074.12 -0.591644 -4.1268 0
M  V30 11267 H 1072.78 0.183696 -3.2418 0
M  V30 11268 H 1073.79 -3.46295 -3.85097 0
M  V30 11269 H 1070.47 -0.89234 -4.07852 0
M  V30 11270 H 1071.86 -4.90061 -4.59662 0
M  V30 11271 N 1074.58 1.12322 -1.10551 0
M  V30 11272 C 1075.54 2.16273 -0.758844 0
M  V30 11273 C 1076.54 1.59325 0.217294 0
M  V30 11274 O 1077.73 1.74199 -0.00601346 0
M  V30 11275 C 1074.86 3.40674 -0.124238 0
M  V30 11276 H 1076.06 2.48454 -1.6796 0
M  V30 11277 H 1073.61 1.2735 -0.906188 0
M  V30 11278 H 1074.34 3.14094 0.807194 0
M  V30 11279 H 1074.13 3.83284 -0.826772 0
M  V30 11280 H 1075.62 4.17474 0.102502 0
M  V30 11281 N 1076.06 0.894434 1.2976 0
M  V30 11282 C 1077.02 0.373094 2.26143 0
M  V30 11283 C 1078.02 -0.489756 1.5316 0
M  V30 11284 O 1079.21 -0.29556 1.71674 0
M  V30 11285 C 1076.34 -0.467234 3.37683 0
M  V30 11286 H 1077.53 1.22427 2.73773 0
M  V30 11287 H 1075.09 0.672112 1.41111 0
M  V30 11288 H 1075.82 -1.33861 2.95384 0
M  V30 11289 H 1075.61 0.150954 3.91809 0
M  V30 11290 H 1077.1 -0.823469 4.094 0
M  V30 11291 N 1077.53 -1.43282 0.656365 0
M  V30 11292 C 1078.95 -1.85012 0.250475 0
M  V30 11293 C 1079.3 -1.54944 -1.20361 0
M  V30 11294 O 1078.42 -0.999983 -1.9191 0
M  V30 11295 C 1079.02 -3.35827 0.447815 0
M  V30 11296 C 1077.58 -3.76277 0.0962151 0
M  V30 11297 C 1076.72 -2.66988 0.749168 0
M  V30 11298 H 1079.67 -1.3339 0.85982 0
M  V30 11299 H 1079.69 -3.7927 -0.305726 0
M  V30 11300 H 1079.21 -3.5768 1.5062 0
M  V30 11301 H 1077.31 -3.60035 -0.959449 0
M  V30 11302 H 1077.42 -4.76227 0.523875 0
M  V30 11303 H 1075.78 -2.54048 0.18212 0
M  V30 11304 H 1076.57 -2.91669 1.81064 0
M  V30 11305 N 1079.01 -0.398486 -1.52479 0
M  V30 11306 C 1080.24 0.183059 -2.06591 0
M  V30 11307 C 1080.66 1.3898 -1.26753 0
M  V30 11308 O 1080.02 1.78885 -0.294959 0
M  V30 11309 C 1080.07 0.522392 -3.56796 0
M  V30 11310 O 1079.17 1.61499 -3.79462 0
M  V30 11311 H 1078.51 0.0188411 -0.663733 0
M  V30 11312 H 1081.04 -0.56861 -1.9654 0
M  V30 11313 H 1081.05 0.784078 -4.00395 0
M  V30 11314 H 1079.73 -0.359807 -4.14341 0
M  V30 11315 H 1078.31 1.3463 -3.47749 0
M  V30 11316 N 1080.49 1.57075 -0.12858 0
M  V30 11317 C 1081.42 2.12907 0.848708 0
M  V30 11318 C 1082.44 1.07406 1.22343 0
M  V30 11319 O 1083.63 1.34746 1.17071 0
M  V30 11320 C 1080.73 2.62167 2.1476 0
M  V30 11321 C 1079.9 3.91871 1.94309 0
M  V30 11322 C 1078.96 4.26629 3.08016 0
M  V30 11323 O 1077.98 4.9528 2.80511 0
M  V30 11324 N 1079.19 3.84721 4.34706 0
M  V30 11325 H 1081.95 2.97387 0.371636 0
M  V30 11326 H 1079.51 1.61805 0.0555574 0
M  V30 11327 H 1081.5 2.82444 2.89841 0
M  V30 11328 H 1080.07 1.82514 2.53786 0
M  V30 11329 H 1079.29 3.80406 1.03367 0
M  V30 11330 H 1080.58 4.76662 1.77962 0
M  V30 11331 H 1079.98 3.2937 4.59926 0
M  V30 11332 H 1078.54 4.10087 5.06628 0
M  V30 11333 N 1081.97 -0.145205 1.5693 0
M  V30 11334 C 1083.39 -0.497905 1.51635 0
M  V30 11335 C 1083.59 -1.8328 0.837301 0
M  V30 11336 O 1082.64 -2.49172 0.408584 0
M  V30 11337 C 1083.95 -0.506557 2.96403 0
M  V30 11338 C 1085.5 -0.591947 3.07352 0
M  V30 11339 C 1085.98 -0.631244 4.53629 0
M  V30 11340 N 1087.47 -0.693417 4.5798 0
M  V30 11341 C 1088.2 -0.744836 5.68542 0
M  V30 11342 N 1087.7 -0.755492 6.88668 0
M  V30 11343 N 1089.49 -0.785854 5.5658 0
M  V30 11344 H 1081.64 0.729779 1.99469 0
M  V30 11345 H 1083.91 0.266295 0.90983 0
M  V30 11346 H 1083.61 0.406127 3.49347 0
M  V30 11347 H 1083.49 -1.34383 3.5245 0
M  V30 11348 H 1085.87 -1.49505 2.54425 0
M  V30 11349 H 1085.95 0.272507 2.54344 0
M  V30 11350 H 1085.6 0.26771 5.07194 0
M  V30 11351 H 1085.53 -1.51221 5.0442 0
M  V30 11352 H 1088.02 -0.692408 3.71503 0
M  V30 11353 H 1088.33 -0.796624 7.68683 0
M  V30 11354 H 1086.68 -0.723339 6.91226 0
M  V30 11355 H 1089.87 -0.774712 4.61645 0
M  V30 11356 H 1090.04 -0.822461 6.42759 0
M  V30 11357 N 1083.45 -1.52049 -0.414609 0
M  V30 11358 C 1084.86 -1.58062 -0.993638 0
M  V30 11359 C 1085.21 -0.417795 -1.917 0
M  V30 11360 O 1084.33 0.462558 -2.11399 0
M  V30 11361 C 1084.93 -2.86471 -1.80886 0
M  V30 11362 C 1083.49 -2.94981 -2.33801 0
M  V30 11363 C 1082.64 -2.52949 -1.13631 0
M  V30 11364 H 1085.59 -1.57497 -0.19504 0
M  V30 11365 H 1085.61 -2.71515 -2.66571 0
M  V30 11366 H 1085.12 -3.71085 -1.13657 0
M  V30 11367 H 1083.22 -2.14849 -3.04419 0
M  V30 11368 H 1083.33 -3.99111 -2.65042 0
M  V30 11369 H 1081.7 -2.0667 -1.48861 0
M  V30 11370 H 1082.48 -3.39931 -0.479765 0
M  V30 11371 N 1084.93 0.6715 -1.42579 0
M  V30 11372 C 1086.15 1.45972 -1.46628 0
M  V30 11373 C 1086.57 1.88636 -0.0785986 0
M  V30 11374 O 1085.93 1.58345 0.907372 0
M  V30 11375 C 1085.98 2.70668 -2.39627 0
M  V30 11376 O 1085.7 2.29793 -3.72997 0
M  V30 11377 C 1087.2 3.64201 -2.52731 0
M  V30 11378 H 1084.42 0.449044 -0.498598 0
M  V30 11379 H 1086.96 0.824811 -1.87129 0
M  V30 11380 H 1085.12 3.3034 -2.02371 0
M  V30 11381 H 1085.53 3.10341 -4.22834 0
M  V30 11382 H 1087.01 4.48412 -3.21918 0
M  V30 11383 H 1087.48 4.10323 -1.56626 0
M  V30 11384 H 1088.09 3.1042 -2.90722 0
M  V30 11385 N 1086.4 1.28806 0.908124 0
M  V30 11386 C 1087.65 1.16287 1.65781 0
M  V30 11387 C 1087.98 -0.287389 1.92365 0
M  V30 11388 O 1087.23 -1.22491 1.52625 0
M  V30 11389 C 1087.53 1.91267 3.01914 0
M  V30 11390 C 1087.2 3.41033 2.9497 0
M  V30 11391 C 1085.86 3.81879 2.92783 0
M  V30 11392 C 1088.21 4.36507 2.848 0
M  V30 11393 C 1085.54 5.16529 2.78235 0
M  V30 11394 C 1087.89 5.71237 2.71792 0
M  V30 11395 C 1086.56 6.11351 2.67967 0
M  V30 11396 H 1085.83 0.425526 0.606637 0
M  V30 11397 H 1088.47 1.59646 1.05762 0
M  V30 11398 H 1086.78 1.40474 3.65752 0
M  V30 11399 H 1088.48 1.78992 3.58835 0
M  V30 11400 H 1085.07 3.08561 2.97469 0
M  V30 11401 H 1089.25 4.05909 2.85573 0
M  V30 11402 H 1084.51 5.4673 2.73672 0
M  V30 11403 H 1088.68 6.44872 2.62892 0
M  V30 11404 H 1086.31 7.15637 2.56451 0
M  V30 11405 N 1087.88 -1.11734 1.11145 0
M  V30 11406 C 1088.83 -2.17683 0.766979 0
M  V30 11407 C 1089.8 -1.64051 -0.260108 0
M  V30 11408 O 1090.98 -1.90302 -0.137723 0
M  V30 11409 C 1088.12 -3.44442 0.212982 0
M  V30 11410 C 1087.24 -4.12094 1.29626 0
M  V30 11411 C 1086.37 -5.26526 0.703127 0
M  V30 11412 C 1085.41 -5.86057 1.76647 0
M  V30 11413 N 1084.55 -6.91889 1.19306 0
M  V30 11414 H 1089.39 -2.46495 1.67465 0
M  V30 11415 H 1086.92 -1.21011 0.836353 0
M  V30 11416 H 1088.88 -4.17009 -0.126162 0
M  V30 11417 H 1087.51 -3.16025 -0.657888 0
M  V30 11418 H 1086.56 -3.37631 1.75241 0
M  V30 11419 H 1087.88 -4.52398 2.10089 0
M  V30 11420 H 1087.03 -6.05888 0.313859 0
M  V30 11421 H 1085.77 -4.87519 -0.132856 0
M  V30 11422 H 1084.77 -5.05375 2.16508 0
M  V30 11423 H 1086 -6.27132 2.60543 0
M  V30 11424 H 1083.95 -6.54906 0.378664 0
M  V30 11425 H 1083.86 -7.30832 1.93443 0
M  V30 11426 H 1085.13 -7.75062 0.830578 0
M  V30 11427 N 1089.36 -0.901303 -1.29284 0
M  V30 11428 C 1090.29 -0.337552 -2.26701 0
M  V30 11429 C 1091.3 0.517039 -1.54371 0
M  V30 11430 O 1092.49 0.333937 -1.75349 0
M  V30 11431 C 1089.59 0.537214 -3.34615 0
M  V30 11432 C 1088.77 -0.292017 -4.36424 0
M  V30 11433 C 1087.83 0.515837 -5.23666 0
M  V30 11434 O 1086.85 -0.0672303 -5.6916 0
M  V30 11435 N 1088.05 1.82159 -5.51179 0
M  V30 11436 H 1090.82 -1.17484 -2.75713 0
M  V30 11437 H 1088.38 -0.765957 -1.42635 0
M  V30 11438 H 1090.37 1.0841 -3.8991 0
M  V30 11439 H 1088.94 1.2752 -2.85408 0
M  V30 11440 H 1088.16 -1.02031 -3.80767 0
M  V30 11441 H 1089.45 -0.859855 -5.01482 0
M  V30 11442 H 1088.85 2.318 -5.16028 0
M  V30 11443 H 1087.4 2.31556 -6.09282 0
M  V30 11444 N 1090.84 1.42931 -0.663954 0
M  V30 11445 C 1091.77 2.33499 0.00731327 0
M  V30 11446 C 1092.75 1.50074 0.800733 0
M  V30 11447 O 1093.93 1.78708 0.760062 0
M  V30 11448 C 1091.06 3.33569 0.966897 0
M  V30 11449 C 1090.02 4.27064 0.282839 0
M  V30 11450 C 1089.34 5.17257 1.35461 0
M  V30 11451 C 1090.64 5.1564 -0.831438 0
M  V30 11452 H 1092.34 2.89879 -0.749044 0
M  V30 11453 H 1089.88 1.39385 -0.361656 0
M  V30 11454 H 1091.84 3.95833 1.44549 0
M  V30 11455 H 1090.56 2.75469 1.75455 0
M  V30 11456 H 1089.22 3.6618 -0.175417 0
M  V30 11457 H 1088.87 4.5549 2.13397 0
M  V30 11458 H 1088.57 5.80634 0.902098 0
M  V30 11459 H 1090.09 5.82395 1.83436 0
M  V30 11460 H 1091.51 5.71651 -0.434534 0
M  V30 11461 H 1089.9 5.87794 -1.20908 0
M  V30 11462 H 1090.97 4.54687 -1.68487 0
M  V30 11463 N 1092.32 0.406567 1.52266 0
M  V30 11464 C 1093.56 -0.170305 2.02084 0
M  V30 11465 C 1093.89 -1.45008 1.29176 0
M  V30 11466 O 1093.17 -1.90399 0.39731 0
M  V30 11467 C 1093.45 -0.420627 3.57635 0
M  V30 11468 C 1093.31 0.87564 4.41194 0
M  V30 11469 C 1094.62 -1.20387 4.23314 0
M  V30 11470 H 1091.74 -0.0604219 0.734519 0
M  V30 11471 H 1094.39 0.539529 1.82179 0
M  V30 11472 H 1092.54 -1.0253 3.74726 0
M  V30 11473 H 1094.21 1.51192 4.35819 0
M  V30 11474 H 1092.45 1.48718 4.07511 0
M  V30 11475 H 1093.12 0.654916 5.48101 0
M  V30 11476 H 1095.6 -0.691972 4.10306 0
M  V30 11477 H 1094.47 -1.34776 5.32096 0
M  V30 11478 H 1094.73 -2.2238 3.82099 0
M  V30 11479 N 1093.79 -1.57004 0.136909 0
M  V30 11480 C 1094.7 -2.19807 -0.819887 0
M  V30 11481 C 1095.72 -1.17939 -1.27932 0
M  V30 11482 O 1096.9 -1.50478 -1.3386 0
M  V30 11483 C 1093.96 -2.79935 -2.04542 0
M  V30 11484 C 1093.02 -3.96897 -1.6362 0
M  V30 11485 C 1092.26 -4.54148 -2.80331 0
M  V30 11486 O 1092.48 -4.10282 -3.96264 0
M  V30 11487 O 1091.41 -5.44565 -2.56384 0
M  V30 11488 H 1095.24 -3.02058 -0.315337 0
M  V30 11489 H 1092.82 -1.49131 -0.0896151 0
M  V30 11490 H 1094.71 -3.18191 -2.76283 0
M  V30 11491 H 1093.38 -2.00703 -2.53969 0
M  V30 11492 H 1092.29 -3.63376 -0.889316 0
M  V30 11493 H 1093.62 -4.77618 -1.18918 0
M  V30 11494 N 1095.27 0.136881 -1.57004 0
M  V30 11495 C 1096.24 1.15267 -1.98106 0
M  V30 11496 C 1097.24 1.35305 -0.868856 0
M  V30 11497 O 1098.43 1.32126 -1.13527 0
M  V30 11498 C 1095.56 2.51092 -2.30577 0
M  V30 11499 H 1096.75 0.799821 -2.89038 0
M  V30 11500 H 1094.3 0.380576 -1.51596 0
M  V30 11501 H 1095.04 2.9133 -1.42469 0
M  V30 11502 H 1094.82 2.37906 -3.11678 0
M  V30 11503 H 1096.31 3.24232 -2.63179 0
M  V30 11504 N 1096.75 1.52266 0.40654 0
M  V30 11505 C 1097.68 1.78755 1.50229 0
M  V30 11506 C 1098.66 0.638652 1.57655 0
M  V30 11507 O 1099.85 0.884505 1.72888 0
M  V30 11508 C 1096.98 1.94057 2.88026 0
M  V30 11509 C 1095.93 3.09667 2.95449 0
M  V30 11510 C 1095.26 3.10196 4.35526 0
M  V30 11511 C 1096.56 4.49077 2.66697 0
M  V30 11512 H 1098.25 2.70511 1.28313 0
M  V30 11513 H 1095.8 1.30167 0.615836 0
M  V30 11514 H 1097.75 2.11171 3.64671 0
M  V30 11515 H 1096.47 0.989755 3.11242 0
M  V30 11516 H 1095.13 2.92308 2.2125 0
M  V30 11517 H 1094.78 2.12831 4.55754 0
M  V30 11518 H 1094.48 3.87847 4.41416 0
M  V30 11519 H 1096 3.29443 5.14101 0
M  V30 11520 H 1097.42 4.66628 3.33064 0
M  V30 11521 H 1095.82 5.28665 2.8396 0
M  V30 11522 H 1096.89 4.56995 1.62122 0
M  V30 11523 N 1098.23 -0.663929 1.42933 0
M  V30 11524 C 1099.51 -1.42054 1.34462 0
M  V30 11525 C 1099.89 -2.11096 -0.0127801 0
M  V30 11526 O 1099.23 -2.04027 -1.02884 0
M  V30 11527 C 1099.44 -2.41406 2.5204 0
M  V30 11528 C 1100.79 -3.05726 2.94647 0
M  V30 11529 O 1101.82 -2.51733 2.52009 0
M  V30 11530 O 1100.67 -4.03593 3.68477 0
M  V30 11531 H 1097.77 -0.634149 0.530834 0
M  V30 11532 H 1100.31 -0.691738 1.54962 0
M  V30 11533 H 1099.09 -1.89263 3.42484 0
M  V30 11534 H 1098.71 -3.21752 2.33584 0
M  V30 11535 N 1099.71 -1.29285 -0.901281 0
M  V30 11536 C 1100.65 -1.1428 -2.00521 0
M  V30 11537 C 1101.62 -0.0365428 -1.6606 0
M  V30 11538 O 1102.81 -0.203771 -1.89709 0
M  V30 11539 C 1099.95 -0.823671 -3.35126 0
M  V30 11540 C 1099.06 -2.01021 -3.8238 0
M  V30 11541 C 1098.2 -1.6306 -5.05554 0
M  V30 11542 C 1097.24 -2.78304 -5.45173 0
M  V30 11543 N 1096.37 -2.4075 -6.59533 0
M  V30 11544 H 1101.21 -2.08729 -2.12688 0
M  V30 11545 H 1098.75 -1.0387 -1.04161 0
M  V30 11546 H 1100.71 -0.61934 -4.12577 0
M  V30 11547 H 1099.34 0.0839113 -3.22691 0
M  V30 11548 H 1098.39 -2.32629 -3.00978 0
M  V30 11549 H 1099.7 -2.8738 -4.07694 0
M  V30 11550 H 1098.86 -1.38906 -5.90584 0
M  V30 11551 H 1097.59 -0.738464 -4.82077 0
M  V30 11552 H 1096.6 -3.03142 -4.58678 0
M  V30 11553 H 1097.82 -3.68179 -5.70632 0
M  V30 11554 H 1095.77 -1.54022 -6.37662 0
M  V30 11555 H 1095.69 -3.20643 -6.84634 0
M  V30 11556 H 1096.96 -2.19912 -7.47836 0
M  V30 11557 N 1101.18 1.11143 -1.11736 0
M  V30 11558 C 1102.43 1.83219 -0.869413 0
M  V30 11559 C 1102.76 1.84588 0.603402 0
M  V30 11560 O 1102.04 1.30119 1.44566 0
M  V30 11561 C 1102.32 3.30247 -1.43559 0
M  V30 11562 C 1102.17 3.37253 -2.97624 0
M  V30 11563 C 1103.49 4.26412 -1.08907 0
M  V30 11564 H 1100.61 0.665205 -0.317286 0
M  V30 11565 H 1103.25 1.30307 -1.38275 0
M  V30 11566 H 1101.4 3.75437 -0.998978 0
M  V30 11567 H 1103.08 3.00599 -3.49911 0
M  V30 11568 H 1101.32 2.77378 -3.33532 0
M  V30 11569 H 1101.99 4.40752 -3.32328 0
M  V30 11570 H 1104.47 3.89418 -1.46604 0
M  V30 11571 H 1103.34 5.27666 -1.51195 0
M  V30 11572 H 1103.6 4.421 -0.000259009 0
M  V30 11573 N 1102.66 0.908147 1.28804 0
M  V30 11574 C 1103.59 0.409106 2.29888 0
M  V30 11575 C 1104.57 -0.520338 1.61946 0
M  V30 11576 O 1105.76 -0.429268 1.89396 0
M  V30 11577 C 1102.89 -0.35669 3.45463 0
M  V30 11578 C 1101.84 0.4831 4.25265 0
M  V30 11579 C 1101.17 -0.4107 5.3312 0
M  V30 11580 C 1102.47 1.73744 4.92555 0
M  V30 11581 H 1104.16 1.25386 2.7188 0
M  V30 11582 H 1101.71 0.604368 1.30703 0
M  V30 11583 H 1103.66 -0.71661 4.15262 0
M  V30 11584 H 1102.39 -1.2353 3.02337 0
M  V30 11585 H 1101.04 0.825464 3.57186 0
M  V30 11586 H 1100.69 -1.28769 4.86238 0
M  V30 11587 H 1100.39 0.14756 5.87415 0
M  V30 11588 H 1101.92 -0.766626 6.05768 0
M  V30 11589 H 1103.33 1.44676 5.54745 0
M  V30 11590 H 1101.73 2.23767 5.5682 0
M  V30 11591 H 1102.8 2.46853 4.17363 0
M  V30 11592 N 1104.14 -1.42577 0.671525 0
M  V30 11593 C 1105.07 -2.33499 0.00506984 0
M  V30 11594 C 1106.05 -1.50497 -0.792763 0
M  V30 11595 O 1107.24 -1.79109 -0.750574 0
M  V30 11596 C 1104.37 -3.34077 -0.949194 0
M  V30 11597 C 1103.32 -4.27208 -0.260187 0
M  V30 11598 C 1102.65 -5.17968 -1.32716 0
M  V30 11599 C 1103.95 -5.15192 0.858772 0
M  V30 11600 H 1105.64 -2.89477 0.764407 0
M  V30 11601 H 1103.19 -1.39191 0.369043 0
M  V30 11602 H 1105.14 -3.96594 -1.42448 0
M  V30 11603 H 1103.86 -2.76396 -1.73991 0
M  V30 11604 H 1102.52 -3.66082 0.194834 0
M  V30 11605 H 1102.17 -4.56615 -2.10979 0
M  V30 11606 H 1101.87 -5.81104 -0.871293 0
M  V30 11607 H 1103.39 -5.83359 -1.80345 0
M  V30 11608 H 1104.81 -5.71412 0.464844 0
M  V30 11609 H 1103.21 -5.87144 1.24023 0
M  V30 11610 H 1104.28 -4.53787 1.70895 0
M  V30 11611 N 1105.62 -0.414636 -1.52048 0
M  V30 11612 C 1106.58 0.396285 -2.25748 0
M  V30 11613 C 1107.58 0.969003 -1.28324 0
M  V30 11614 O 1108.77 0.847016 -1.52221 0
M  V30 11615 C 1105.9 1.55838 -3.03195 0
M  V30 11616 H 1107.1 -0.249311 -2.98862 0
M  V30 11617 H 1104.65 -0.167276 -1.55402 0
M  V30 11618 H 1105.38 2.24068 -2.34444 0
M  V30 11619 H 1105.17 1.15414 -3.74729 0
M  V30 11620 H 1106.66 2.13187 -3.59084 0
M  V30 11621 N 1107.1 1.56929 -0.145233 0
M  V30 11622 C 1108.34 1.96358 0.50707 0
M  V30 11623 C 1108.68 1.03005 1.64632 0
M  V30 11624 O 1107.95 0.0721045 1.94366 0
M  V30 11625 C 1108.23 3.45502 1.01492 0
M  V30 11626 C 1108.09 4.49633 -0.122708 0
M  V30 11627 C 1109.41 3.97103 1.89729 0
M  V30 11628 H 1106.52 0.713958 0.182848 0
M  V30 11629 H 1109.17 1.8865 -0.226102 0
M  V30 11630 H 1107.32 3.52202 1.6397 0
M  V30 11631 H 1108.99 4.55013 -0.758988 0
M  V30 11632 H 1107.23 4.26691 -0.782109 0
M  V30 11633 H 1107.9 5.51318 0.27432 0
M  V30 11634 H 1110.38 3.92871 1.37082 0
M  V30 11635 H 1109.25 5.01927 2.22173 0
M  V30 11636 H 1109.52 3.39354 2.83357 0
M  V30 11637 N 1108.58 -0.128553 1.57075 0
M  V30 11638 C 1109.8 -0.8564 1.88893 0
M  V30 11639 C 1110.23 -1.73095 0.736196 0
M  V30 11640 O 1109.58 -1.78567 -0.313629 0
M  V30 11641 C 1109.63 -1.67368 3.19406 0
M  V30 11642 O 1108.74 -2.77973 3.04639 0
M  V30 11643 H 1108.08 -0.237424 0.620102 0
M  V30 11644 H 1110.61 -0.113821 2.04283 0
M  V30 11645 H 1110.62 -2.0649 3.51889 0
M  V30 11646 H 1109.29 -1.03161 4.02903 0
M  V30 11647 H 1107.87 -2.42123 2.83603 0
M  V30 11648 N 1110.05 -1.5248 -0.398459 0
M  V30 11649 C 1110.96 -1.79492 -1.51062 0
M  V30 11650 C 1111.98 -0.681101 -1.60116 0
M  V30 11651 O 1113.16 -0.967671 -1.7663 0
M  V30 11652 C 1110.22 -1.94958 -2.86692 0
M  V30 11653 C 1109.28 -3.1887 -2.87438 0
M  V30 11654 C 1108.51 -3.33588 -4.16599 0
M  V30 11655 O 1108.74 -2.53327 -5.11059 0
M  V30 11656 O 1107.67 -4.26795 -4.24416 0
M  V30 11657 H 1111.5 -2.73913 -1.31169 0
M  V30 11658 H 1109.08 -1.37455 -0.585372 0
M  V30 11659 H 1110.96 -2.06891 -3.67116 0
M  V30 11660 H 1109.64 -1.03726 -3.06631 0
M  V30 11661 H 1108.55 -3.12386 -2.0583 0
M  V30 11662 H 1109.88 -4.09917 -2.7245 0
M  V30 11663 N 1111.53 0.65634 -1.43283 0
M  V30 11664 C 1112.44 1.79847 -1.50639 0
M  V30 11665 C 1113.46 1.69487 -0.393714 0
M  V30 11666 O 1114.63 1.90712 -0.647379 0
M  V30 11667 C 1111.7 3.16107 -1.42398 0
M  V30 11668 C 1110.76 3.38287 -2.64312 0
M  V30 11669 C 1109.99 4.68046 -2.56454 0
M  V30 11670 O 1110.22 5.4719 -1.61056 0
M  V30 11671 O 1109.15 4.91877 -3.46902 0
M  V30 11672 H 1112.98 1.76596 -2.47078 0
M  V30 11673 H 1110.56 0.814428 -1.25249 0
M  V30 11674 H 1112.44 3.97382 -1.40233 0
M  V30 11675 H 1111.12 3.19956 -0.490929 0
M  V30 11676 H 1110.02 2.56788 -2.72049 0
M  V30 11677 H 1111.36 3.39282 -3.56579 0
M  V30 11678 N 1113.01 1.29761 0.894412 0
M  V30 11679 C 1114.24 1.20765 1.67629 0
M  V30 11680 C 1114.65 -0.233434 1.87754 0
M  V30 11681 O 1113.99 -1.16747 1.4183 0
M  V30 11682 C 1114.05 1.85542 3.07919 0
M  V30 11683 C 1113.72 3.34852 3.11004 0
M  V30 11684 C 1114.71 4.30994 2.90758 0
M  V30 11685 C 1112.4 3.76141 3.32901 0
M  V30 11686 C 1114.39 5.664 2.92352 0
M  V30 11687 C 1112.08 5.11667 3.34126 0
M  V30 11688 C 1113.08 6.06607 3.13874 0
M  V30 11689 O 1112.77 7.39659 3.14897 0
M  V30 11690 H 1112.5 0.419418 0.530155 0
M  V30 11691 H 1115.05 1.71754 1.12648 0
M  V30 11692 H 1113.28 1.29071 3.64524 0
M  V30 11693 H 1114.97 1.70795 3.68217 0
M  V30 11694 H 1115.74 4.00427 2.73648 0
M  V30 11695 H 1111.62 3.02694 3.47703 0
M  V30 11696 H 1115.16 6.40479 2.76464 0
M  V30 11697 H 1111.06 5.41877 3.50769 0
M  V30 11698 H 1111.82 7.4853 3.31127 0
M  V30 11699 N 1114.49 -1.10549 1.12324 0
M  V30 11700 C 1115.42 -2.18911 0.812416 0
M  V30 11701 C 1116.4 -1.68628 -0.22327 0
M  V30 11702 O 1117.58 -1.94015 -0.0847184 0
M  V30 11703 C 1114.71 -3.46288 0.264947 0
M  V30 11704 C 1113.67 -4.09838 1.23356 0
M  V30 11705 C 1112.99 -5.31901 0.546374 0
M  V30 11706 C 1114.29 -4.53686 2.58778 0
M  V30 11707 H 1115.99 -2.45169 1.71851 0
M  V30 11708 H 1113.53 -1.17834 0.827715 0
M  V30 11709 H 1115.49 -4.21385 0.0352364 0
M  V30 11710 H 1114.21 -3.19517 -0.676479 0
M  V30 11711 H 1112.87 -3.36746 1.44906 0
M  V30 11712 H 1112.52 -5.01406 -0.400157 0
M  V30 11713 H 1112.22 -5.75372 1.19249 0
M  V30 11714 H 1113.74 -6.09731 0.325673 0
M  V30 11715 H 1115.16 -5.20063 2.41263 0
M  V30 11716 H 1113.55 -5.08003 3.19457 0
M  V30 11717 H 1114.62 -3.66665 3.17309 0
M  V30 11718 N 1115.97 -0.914965 -1.28321 0
M  V30 11719 C 1117.24 -0.46764 -1.89928 0
M  V30 11720 C 1117.62 1.05364 -1.82925 0
M  V30 11721 O 1116.97 1.90223 -1.26599 0
M  V30 11722 C 1117.18 -0.999372 -3.34385 0
M  V30 11723 C 1118.53 -1.0522 -4.11356 0
M  V30 11724 O 1119.55 -0.9481 -3.4335 0
M  V30 11725 O 1118.41 -1.21085 -5.32917 0
M  V30 11726 H 1115.51 -0.148398 -0.813577 0
M  V30 11727 H 1118.05 -1.00583 -1.36679 0
M  V30 11728 H 1116.82 -2.04333 -3.33712 0
M  V30 11729 H 1116.45 -0.442083 -3.95135 0
M  V30 11730 N 1117.44 1.42219 -0.679077 0
M  V30 11731 C 1118.37 2.33493 -0.0174528 0
M  V30 11732 C 1119.35 1.50915 0.78477 0
M  V30 11733 O 1120.54 1.79504 0.741065 0
M  V30 11734 C 1117.67 3.34576 0.931463 0
M  V30 11735 C 1116.62 4.2734 0.237527 0
M  V30 11736 C 1115.95 5.18664 1.29967 0
M  V30 11737 C 1117.25 5.14729 -0.886082 0
M  V30 11738 H 1118.94 2.89068 -0.779748 0
M  V30 11739 H 1116.49 1.38993 -0.376419 0
M  V30 11740 H 1118.44 3.97343 1.40343 0
M  V30 11741 H 1117.17 2.77315 1.72523 0
M  V30 11742 H 1115.83 3.65973 -0.214245 0
M  V30 11743 H 1115.47 4.57727 2.08554 0
M  V30 11744 H 1115.17 5.81558 0.840463 0
M  V30 11745 H 1116.7 5.84308 1.77249 0
M  V30 11746 H 1118.11 5.71158 -0.495141 0
M  V30 11747 H 1116.51 5.86478 -1.27135 0
M  V30 11748 H 1117.58 4.52874 -1.733 0
M  V30 11749 N 1118.92 0.422693 1.51826 0
M  V30 11750 C 1120.34 0.0742364 1.59427 0
M  V30 11751 C 1120.54 -1.41491 1.43466 0
M  V30 11752 O 1119.59 -2.18326 1.26846 0
M  V30 11753 C 1120.91 0.581272 2.95028 0
M  V30 11754 C 1122.45 0.54043 3.08299 0
M  V30 11755 C 1122.93 1.0242 4.46401 0
M  V30 11756 N 1124.42 0.981576 4.5268 0
M  V30 11757 C 1125.16 1.32693 5.57835 0
M  V30 11758 N 1124.65 1.74441 6.70479 0
M  V30 11759 N 1126.44 1.24603 5.48115 0
M  V30 11760 H 1118.6 1.39178 1.60447 0
M  V30 11761 H 1120.86 0.572607 0.75553 0
M  V30 11762 H 1120.56 1.62261 3.12032 0
M  V30 11763 H 1120.44 -0.00176969 3.772 0
M  V30 11764 H 1122.83 -0.491895 2.90971 0
M  V30 11765 H 1122.91 1.15969 2.28002 0
M  V30 11766 H 1122.55 2.05491 4.64474 0
M  V30 11767 H 1122.48 0.381613 5.25215 0
M  V30 11768 H 1124.97 0.674808 3.71826 0
M  V30 11769 H 1125.28 1.99068 7.46721 0
M  V30 11770 H 1123.63 1.78356 6.71725 0
M  V30 11771 H 1126.82 0.918641 4.58997 0
M  V30 11772 H 1126.99 1.51847 6.29958 0
M  V30 11773 N 1120.4 -1.5685 0.153553 0
M  V30 11774 C 1121.33 -2.20101 -0.779601 0
M  V30 11775 C 1122.31 -1.15121 -1.25225 0
M  V30 11776 O 1123.5 -1.43487 -1.30862 0
M  V30 11777 C 1120.63 -2.82778 -2.01628 0
M  V30 11778 C 1119.58 -3.93643 -1.68015 0
M  V30 11779 C 1118.91 -4.43286 -2.99001 0
M  V30 11780 C 1120.21 -5.14102 -0.921774 0
M  V30 11781 H 1121.9 -2.98334 -0.252432 0
M  V30 11782 H 1119.45 -1.43499 -0.119975 0
M  V30 11783 H 1121.4 -3.25696 -2.67395 0
M  V30 11784 H 1120.12 -2.01887 -2.56728 0
M  V30 11785 H 1118.78 -3.51354 -1.04624 0
M  V30 11786 H 1118.43 -3.59208 -3.52106 0
M  V30 11787 H 1118.13 -5.18068 -2.77272 0
M  V30 11788 H 1119.65 -4.88878 -3.65828 0
M  V30 11789 H 1121.07 -5.53823 -1.48167 0
M  V30 11790 H 1119.46 -5.94687 -0.804185 0
M  V30 11791 H 1120.53 -4.84825 0.0852757 0
M  V30 11792 N 1121.88 0.120221 -1.57141 0
M  V30 11793 C 1123.11 0.842441 -1.88972 0
M  V30 11794 C 1123.52 1.73494 -0.744671 0
M  V30 11795 O 1122.88 1.80268 0.284557 0
M  V30 11796 C 1122.93 1.67688 -3.20254 0
M  V30 11797 O 1122.65 0.820319 -4.30351 0
M  V30 11798 C 1124.15 2.50436 -3.65782 0
M  V30 11799 H 1121.37 0.242241 -0.625748 0
M  V30 11800 H 1123.91 0.104978 -2.0423 0
M  V30 11801 H 1122.07 2.36712 -3.0667 0
M  V30 11802 H 1122.48 1.39575 -5.05588 0
M  V30 11803 H 1123.96 3.04518 -4.60405 0
M  V30 11804 H 1124.43 3.27737 -2.92378 0
M  V30 11805 H 1125.04 1.86657 -3.82151 0
M  V30 11806 N 1123.36 1.52689 0.390367 0
M  V30 11807 C 1124.6 1.67666 1.13553 0
M  V30 11808 C 1124.93 0.415903 1.90001 0
M  V30 11809 O 1124.19 -0.601664 1.86222 0
M  V30 11810 C 1124.49 2.86177 2.14096 0
M  V30 11811 C 1124.15 4.23671 1.54316 0
M  V30 11812 C 1122.81 4.61066 1.37739 0
M  V30 11813 C 1125.17 5.09278 1.1084 0
M  V30 11814 C 1122.49 5.81727 0.76231 0
M  V30 11815 C 1124.85 6.30562 0.507433 0
M  V30 11816 C 1123.51 6.66689 0.328945 0
M  V30 11817 H 1122.78 0.613533 0.415521 0
M  V30 11818 H 1125.43 1.8683 0.420339 0
M  V30 11819 H 1123.73 2.61424 2.9183 0
M  V30 11820 H 1125.43 2.9496 2.7166 0
M  V30 11821 H 1122.02 3.94214 1.68207 0
M  V30 11822 H 1126.2 4.80957 1.2245 0
M  V30 11823 H 1121.46 6.08327 0.612208 0
M  V30 11824 H 1125.63 6.96211 0.162248 0
M  V30 11825 H 1123.26 7.60052 -0.149748 0
M  V30 11826 N 1124.83 -0.648732 1.43629 0
M  V30 11827 C 1126.08 -1.40579 1.45196 0
M  V30 11828 C 1126.4 -1.9484 0.0790556 0
M  V30 11829 O 1125.67 -1.74707 -0.886239 0
M  V30 11830 H 1124.25 -0.52175 0.53459 0
M  V30 11831 H 1126.92 -0.764796 1.79268 0
M  V30 11832 H 1126.01 -2.24591 2.16715 0
M  V30 11833 N 1126.31 -1.30234 -0.887518 0
M  V30 11834 C 1127.72 -1.17048 -1.45453 0
M  V30 11835 C 1128.07 0.229793 -1.9485 0
M  V30 11836 O 1127.2 1.12628 -1.84781 0
M  V30 11837 C 1127.79 -2.11876 -2.64375 0
M  V30 11838 C 1126.35 -2.02676 -3.17174 0
M  V30 11839 C 1125.5 -2.02104 -1.89866 0
M  V30 11840 H 1128.45 -1.42541 -0.697694 0
M  V30 11841 H 1128.47 -1.69811 -3.40506 0
M  V30 11842 H 1127.98 -3.13781 -2.28392 0
M  V30 11843 H 1126.09 -1.03904 -3.57819 0
M  V30 11844 H 1126.2 -2.90939 -3.80646 0
M  V30 11845 H 1124.56 -1.4687 -2.0809 0
M  V30 11846 H 1125.35 -3.05735 -1.56145 0
M  V30 11847 N 1127.79 1.09952 -1.12909 0
M  V30 11848 C 1129.02 1.8552 -0.909163 0
M  V30 11849 C 1129.43 1.81173 0.545253 0
M  V30 11850 O 1128.77 1.20223 1.38896 0
M  V30 11851 C 1128.83 3.34693 -1.31228 0
M  V30 11852 C 1128.5 3.62794 -2.77902 0
M  V30 11853 C 1129.49 3.58973 -3.76078 0
M  V30 11854 C 1127.18 3.91311 -3.1493 0
M  V30 11855 C 1129.17 3.83271 -5.09296 0
M  V30 11856 C 1126.86 4.15265 -4.48328 0
M  V30 11857 C 1127.86 4.11236 -5.4532 0
M  V30 11858 O 1127.55 4.34576 -6.76313 0
M  V30 11859 H 1127.28 0.59303 -0.324486 0
M  V30 11860 H 1129.83 1.39878 -1.5041 0
M  V30 11861 H 1128.06 3.81016 -0.660573 0
M  V30 11862 H 1129.75 3.9166 -1.06569 0
M  V30 11863 H 1130.52 3.36974 -3.48817 0
M  V30 11864 H 1126.4 3.93575 -2.40041 0
M  V30 11865 H 1129.94 3.80041 -5.84991 0
M  V30 11866 H 1125.84 4.36743 -4.75316 0
M  V30 11867 H 1126.61 4.52065 -6.82334 0
M  V30 11868 N 1129.27 0.921757 1.27833 0
M  V30 11869 C 1130.49 0.574599 1.99281 0
M  V30 11870 C 1130.92 -0.838905 1.68357 0
M  V30 11871 O 1130.28 -1.56196 0.920468 0
M  V30 11872 C 1130.32 0.800027 3.51613 0
M  V30 11873 O 1129.43 -0.137215 4.12172 0
M  V30 11874 H 1128.77 0.221887 0.625829 0
M  V30 11875 H 1131.3 1.23939 1.62789 0
M  V30 11876 H 1131.31 0.71326 4.01717 0
M  V30 11877 H 1129.98 1.83042 3.73455 0
M  V30 11878 H 1128.56 -0.00103872 3.729 0
M  V30 11879 N 1130.75 -1.41857 0.686609 0
M  V30 11880 C 1132.16 -1.84439 0.289662 0
M  V30 11881 C 1132.51 -1.57462 -1.17047 0
M  V30 11882 O 1131.63 -1.04046 -1.89745 0
M  V30 11883 C 1132.23 -3.34802 0.518948 0
M  V30 11884 C 1130.79 -3.75988 0.176007 0
M  V30 11885 C 1129.93 -2.65339 0.805632 0
M  V30 11886 H 1132.89 -1.31536 0.88792 0
M  V30 11887 H 1132.91 -3.79833 -0.225209 0
M  V30 11888 H 1132.42 -3.54405 1.58173 0
M  V30 11889 H 1130.52 -3.61989 -0.882865 0
M  V30 11890 H 1130.63 -4.75009 0.624772 0
M  V30 11891 H 1129 -2.53605 0.235966 0
M  V30 11892 H 1129.78 -2.87762 1.8721 0
M  V30 11893 N 1132.22 -0.430739 -1.51599 0
M  V30 11894 C 1133.45 0.139197 -2.06932 0
M  V30 11895 C 1133.87 1.3626 -1.29672 0
M  V30 11896 O 1133.23 1.78219 -0.332836 0
M  V30 11897 C 1133.28 0.446593 -3.57824 0
M  V30 11898 O 1132.38 1.53414 -3.82803 0
M  V30 11899 H 1131.73 0.00475812 -0.663983 0
M  V30 11900 H 1134.26 -0.610171 -1.9529 0
M  V30 11901 H 1134.27 0.698972 -4.01968 0
M  V30 11902 H 1132.94 -0.447613 -4.13484 0
M  V30 11903 H 1131.52 1.27224 -3.50526 0
M  V30 11904 N 1133.7 1.56767 -0.161869 0
M  V30 11905 C 1134.95 1.96206 0.484537 0
M  V30 11906 C 1135.27 1.04848 1.64414 0
M  V30 11907 O 1134.54 0.112946 1.95574 0
M  V30 11908 H 1133.12 0.724491 0.181994 0
M  V30 11909 H 1135.78 1.93406 -0.240845 0
M  V30 11910 H 1134.88 3.00279 0.85083 0
M  V30 11911 N 1135.18 -0.111886 1.57202 0
M  V30 11912 C 1136.43 -0.816794 1.84859 0
M  V30 11913 C 1136.75 -1.80079 0.748113 0
M  V30 11914 O 1136.02 -1.94578 -0.227235 0
M  V30 11915 H 1134.6 -0.304633 0.682061 0
M  V30 11916 H 1137.26 -0.097513 1.94656 0
M  V30 11917 H 1136.36 -1.35768 2.81022 0
M  V30 11918 N 1136.66 -1.52894 -0.382264 0
M  V30 11919 C 1137.94 -1.58853 -1.14127 0
M  V30 11920 C 1138.32 -0.38582 -2.07544 0
M  V30 11921 O 1137.66 0.625323 -2.19777 0
M  V30 11922 C 1137.87 -2.93068 -1.89504 0
M  V30 11923 C 1139.22 -3.47048 -2.44629 0
M  V30 11924 O 1140.25 -2.94987 -1.99652 0
M  V30 11925 O 1139.1 -4.3802 -3.26804 0
M  V30 11926 H 1136.2 -0.640969 -0.522578 0
M  V30 11927 H 1138.74 -1.65231 -0.386873 0
M  V30 11928 H 1137.52 -3.72047 -1.2123 0
M  V30 11929 H 1137.14 -2.90106 -2.7189 0
M  V30 11930 N 1138.14 0.641106 -1.43971 0
M  V30 11931 C 1139.1 1.73539 -1.49723 0
M  V30 11932 C 1140.1 1.56235 -0.380438 0
M  V30 11933 O 1141.29 1.61912 -0.642673 0
M  V30 11934 C 1138.42 3.1253 -1.36153 0
M  V30 11935 H 1139.62 1.69816 -2.47189 0
M  V30 11936 H 1137.17 0.853867 -1.30915 0
M  V30 11937 H 1137.9 3.21856 -0.39742 0
M  V30 11938 H 1137.69 3.26496 -2.17124 0
M  V30 11939 H 1139.18 3.92303 -1.43138 0
M  V30 11940 N 1139.62 1.30703 0.880598 0
M  V30 11941 C 1140.84 1.22843 1.67106 0
M  V30 11942 C 1141.27 -0.204788 1.86982 0
M  V30 11943 O 1140.62 -1.14716 1.40392 0
M  V30 11944 C 1140.67 1.96685 3.02237 0
M  V30 11945 O 1139.78 1.29693 3.91476 0
M  V30 11946 H 1139.12 0.424661 0.51045 0
M  V30 11947 H 1141.65 1.72596 1.09871 0
M  V30 11948 H 1141.66 2.05874 3.52249 0
M  V30 11949 H 1140.33 3.00919 2.8709 0
M  V30 11950 H 1138.91 1.28886 3.49918 0
M  V30 11951 N 1141.09 -1.09351 1.1349 0
M  V30 11952 C 1142.32 -1.85844 0.92069 0
M  V30 11953 C 1142.74 -1.80616 -0.525303 0
M  V30 11954 O 1142.1 -1.1842 -1.37282 0
M  V30 11955 C 1142.15 -3.31716 1.4141 0
M  V30 11956 O 1141.25 -4.08014 0.599838 0
M  V30 11957 H 1140.59 -0.576242 0.32991 0
M  V30 11958 H 1143.12 -1.38084 1.50976 0
M  V30 11959 H 1143.13 -3.82564 1.41805 0
M  V30 11960 H 1141.81 -3.34837 2.46692 0
M  V30 11961 H 1140.39 -3.66944 0.663816 0
M  V30 11962 N 1142.57 -0.928524 -1.27343 0
M  V30 11963 C 1143.8 -0.585734 -1.98436 0
M  V30 11964 C 1144.21 0.83644 -1.69261 0
M  V30 11965 O 1143.57 1.55603 -0.953626 0
M  V30 11966 C 1143.62 -0.803092 -3.52467 0
M  V30 11967 O 1143.34 -2.16932 -3.80621 0
M  V30 11968 C 1144.84 -0.469127 -4.40811 0
M  V30 11969 H 1142.06 -0.221887 -0.633251 0
M  V30 11970 H 1144.61 -1.24577 -1.62175 0
M  V30 11971 H 1142.76 -0.189846 -3.86935 0
M  V30 11972 H 1143.18 -2.21992 -4.75205 0
M  V30 11973 H 1144.65 -0.671906 -5.47895 0
M  V30 11974 H 1145.13 0.595365 -4.35146 0
M  V30 11975 H 1145.73 -1.06055 -4.11865 0
M  V30 11976 N 1144.05 1.41491 -0.694123 0
M  V30 11977 C 1145.29 2.03117 -0.228614 0
M  V30 11978 C 1145.65 1.53782 1.14957 0
M  V30 11979 O 1146.85 2.07325 1.71084 0
M  V30 11980 C 1145.13 3.56283 -0.282341 0
M  V30 11981 S 1146.68 4.38664 0.109333 0
M  V30 11982 H 1143.5 0.704993 -0.092227 0
M  V30 11983 H 1146.1 1.72947 -0.911578 0
M  V30 11984 H 1144.81 3.89685 -1.2874 0
M  V30 11985 H 1144.34 3.91154 0.419818 0
M  V30 11986 H 1146.35 4.77835 1.33747 0
M  V30 11987 N 1145.53 0.438773 1.51369 0
M  V30 11988 C 1146.75 -0.128221 2.07003 0
M  V30 11989 C 1147.18 -1.3557 1.30393 0
M  V30 11990 O 1146.54 -1.7804 0.342283 0
M  V30 11991 C 1146.58 -0.42761 3.58056 0
M  V30 11992 O 1145.69 -1.51382 3.83611 0
M  V30 11993 H 1145.03 -0.00123679 0.663999 0
M  V30 11994 H 1147.56 0.62052 1.94963 0
M  V30 11995 H 1147.57 -0.677645 4.02333 0
M  V30 11996 H 1146.24 0.469535 4.13241 0
M  V30 11997 H 1144.82 -1.25363 3.51196 0
M  V30 11998 N 1147.01 -1.56678 0.170181 0
M  V30 11999 C 1148.23 -2.0166 -0.484543 0
M  V30 12000 C 1148.66 -1.04962 -1.56091 0
M  V30 12001 O 1148.01 -0.0289887 -1.81277 0
M  V30 12002 C 1148.06 -3.45252 -1.04084 0
M  V30 12003 O 1147.17 -3.51623 -2.15488 0
M  V30 12004 H 1146.51 -0.653765 -0.116135 0
M  V30 12005 H 1149.04 -2.02761 0.273737 0
M  V30 12006 H 1149.05 -3.84534 -1.36373 0
M  V30 12007 H 1147.72 -4.15131 -0.252738 0
M  V30 12008 H 1146.3 -3.242 -1.84252 0
M  V30 12009 N 1148.48 0.103547 -1.57259 0
M  V30 12010 C 1149.71 0.82624 -1.90232 0
M  V30 12011 C 1150.13 1.71902 -0.763641 0
M  V30 12012 O 1149.49 1.79043 0.285181 0
M  V30 12013 C 1149.54 1.62265 -3.22029 0
M  V30 12014 O 1148.64 2.73091 -3.09023 0
M  V30 12015 H 1147.98 0.227528 -0.6238 0
M  V30 12016 H 1150.51 0.081307 -2.04438 0
M  V30 12017 H 1150.52 2.00865 -3.5513 0
M  V30 12018 H 1149.2 0.967383 -4.04493 0
M  V30 12019 H 1147.78 2.3758 -2.8742 0
M  V30 12020 N 1149.96 1.53094 0.37415 0
M  V30 12021 C 1151.24 1.59456 1.13283 0
M  V30 12022 C 1151.62 0.396821 2.07337 0
M  V30 12023 O 1150.97 -0.613659 2.20106 0
M  V30 12024 C 1151.18 2.94069 1.87948 0
M  V30 12025 C 1152.52 3.4834 2.42785 0
M  V30 12026 O 1153.55 2.96042 1.98085 0
M  V30 12027 O 1152.41 4.39747 3.24477 0
M  V30 12028 H 1149.5 0.643731 0.519171 0
M  V30 12029 H 1152.05 1.65434 0.378105 0
M  V30 12030 H 1150.82 3.72685 1.19255 0
M  V30 12031 H 1150.44 2.91544 2.70348 0
M  V30 12032 N 1151.44 -0.633461 1.44309 0
M  V30 12033 C 1152.66 -1.42527 1.50668 0
M  V30 12034 C 1153.09 -1.87637 0.131861 0
M  V30 12035 O 1152.45 -1.58595 -0.878477 0
M  V30 12036 C 1152.5 -2.62328 2.47419 0
M  V30 12037 O 1151.6 -3.62081 1.97411 0
M  V30 12038 H 1150.94 -0.426559 0.508864 0
M  V30 12039 H 1153.47 -0.773392 1.8942 0
M  V30 12040 H 1153.48 -3.09901 2.65378 0
M  V30 12041 H 1152.16 -2.2884 3.47283 0
M  V30 12042 H 1150.73 -3.21333 1.89208 0
M  V30 12043 N 1152.92 -1.31168 -0.873655 0
M  V30 12044 C 1154.16 -1.20821 -1.62881 0
M  V30 12045 C 1154.5 0.233994 -1.92785 0
M  V30 12046 O 1153.77 1.16588 -1.55684 0
M  V30 12047 C 1154.06 -2.04875 -2.96139 0
M  V30 12048 C 1153.91 -3.57375 -2.73136 0
M  V30 12049 C 1155.23 -1.8953 -3.97198 0
M  V30 12050 H 1152.35 -0.44026 -0.59105 0
M  V30 12051 H 1154.99 -1.6092 -1.01019 0
M  V30 12052 H 1153.14 -1.70806 -3.48938 0
M  V30 12053 H 1154.81 -4.01561 -2.27038 0
M  V30 12054 H 1153.05 -3.8099 -2.07434 0
M  V30 12055 H 1153.72 -4.1149 -3.6794 0
M  V30 12056 H 1156.2 -2.19337 -3.53596 0
M  V30 12057 H 1155.08 -2.5065 -4.8833 0
M  V30 12058 H 1155.34 -0.857576 -4.33703 0
M  V30 12059 N 1154.4 1.08748 -1.14068 0
M  V30 12060 C 1155.64 1.81065 -0.906738 0
M  V30 12061 C 1155.97 1.86057 0.566844 0
M  V30 12062 O 1155.23 1.32976 1.43582 0
M  V30 12063 C 1155.53 3.26734 -1.44843 0
M  V30 12064 C 1155.19 3.41866 -2.94005 0
M  V30 12065 C 1153.85 3.45703 -3.34729 0
M  V30 12066 C 1156.21 3.45831 -3.89937 0
M  V30 12067 C 1153.53 3.51092 -4.70055 0
M  V30 12068 C 1155.89 3.52755 -5.25116 0
M  V30 12069 C 1154.55 3.54863 -5.65357 0
M  V30 12070 H 1153.82 0.662564 -0.331799 0
M  V30 12071 H 1156.47 1.28065 -1.42378 0
M  V30 12072 H 1154.77 3.82419 -0.852239 0
M  V30 12073 H 1156.47 3.81236 -1.2434 0
M  V30 12074 H 1153.06 3.39568 -2.61518 0
M  V30 12075 H 1157.24 3.421 -3.59557 0
M  V30 12076 H 1152.5 3.51015 -5.00598 0
M  V30 12077 H 1156.67 3.54768 -5.9926 0
M  V30 12078 H 1154.3 3.58792 -6.70203 0
M  V30 12079 N 1155.87 0.935264 1.26849 0
M  V30 12080 C 1157.1 0.595704 1.98661 0
M  V30 12081 C 1157.52 -0.821001 1.69237 0
M  V30 12082 O 1156.88 -1.55211 0.936982 0
M  V30 12083 C 1156.93 0.837275 3.50745 0
M  V30 12084 O 1156.03 -0.0934914 4.12294 0
M  V30 12085 H 1155.38 0.228512 0.623441 0
M  V30 12086 H 1157.91 1.25658 1.61466 0
M  V30 12087 H 1157.92 0.755827 4.00938 0
M  V30 12088 H 1156.59 1.86993 3.71492 0
M  V30 12089 H 1155.17 0.0385124 3.7288 0
M  V30 12090 N 1157.35 -1.41121 0.701616 0
M  V30 12091 C 1158.3 -2.27994 0.0168361 0
M  V30 12092 C 1159.29 -1.42523 -0.746733 0
M  V30 12093 O 1160.48 -1.6574 -0.621232 0
M  V30 12094 C 1157.61 -3.30898 -0.914417 0
M  V30 12095 C 1156.69 -4.23846 -0.146776 0
M  V30 12096 N 1157.08 -4.9839 0.862624 0
M  V30 12097 C 1155.38 -4.44366 -0.38138 0
M  V30 12098 C 1156.08 -5.66463 1.32266 0
M  V30 12099 N 1155.06 -5.39731 0.647433 0
M  V30 12100 H 1158.86 -2.83065 0.790675 0
M  V30 12101 H 1156.38 -1.53405 0.532977 0
M  V30 12102 H 1158.37 -3.91964 -1.4202 0
M  V30 12103 H 1157.03 -2.77387 -1.68779 0
M  V30 12104 H 1158.04 -5.02761 1.24305 0
M  V30 12105 H 1154.72 -4.01856 -1.13216 0
M  V30 12106 H 1156.11 -6.36213 2.16061 0
M  V30 12107 N 1158.83 -0.446794 -1.51134 0
M  V30 12108 C 1160.11 0.176892 -1.94798 0
M  V30 12109 C 1160.49 1.59229 -1.38598 0
M  V30 12110 O 1159.84 2.21097 -0.576905 0
M  V30 12111 C 1160.05 0.145 -3.48699 0
M  V30 12112 C 1161.39 0.345917 -4.23189 0
M  V30 12113 O 1162.42 0.222691 -3.55503 0
M  V30 12114 O 1161.28 0.592112 -5.43283 0
M  V30 12115 H 1158.37 0.12486 -0.81752 0
M  V30 12116 H 1160.92 -0.505453 -1.61998 0
M  V30 12117 H 1159.69 -0.844156 -3.82086 0
M  V30 12118 H 1159.31 0.869851 -3.87968 0
M  V30 12119 N 1160.31 1.56586 -0.178487 0
M  V30 12120 C 1161.72 1.83633 0.337009 0
M  V30 12121 C 1162.07 1.09857 1.6256 0
M  V30 12122 O 1161.2 0.353933 2.13486 0
M  V30 12123 C 1161.79 3.33112 0.618225 0
M  V30 12124 C 1160.35 3.60629 1.07814 0
M  V30 12125 C 1159.5 2.7705 0.117825 0
M  V30 12126 H 1162.45 1.53508 -0.402612 0
M  V30 12127 H 1162.47 3.5098 1.46947 0
M  V30 12128 H 1161.98 3.8678 -0.319808 0
M  V30 12129 H 1160.08 3.12378 2.03103 0
M  V30 12130 H 1160.19 4.68921 0.982339 0
M  V30 12131 H 1158.56 2.47125 0.616563 0
M  V30 12132 H 1159.34 3.33501 -0.814356 0
M  V30 12133 N 1161.79 -0.095206 1.57312 0
M  V30 12134 C 1162.72 -1.11627 2.05089 0
M  V30 12135 C 1163.7 -1.41782 0.939787 0
M  V30 12136 O 1164.88 -1.51813 1.21105 0
M  V30 12137 C 1162.01 -2.43618 2.47523 0
M  V30 12138 C 1160.97 -2.27872 3.62296 0
M  V30 12139 C 1160.29 -3.65038 3.90706 0
M  V30 12140 C 1161.59 -1.71936 4.93189 0
M  V30 12141 H 1163.29 -0.718795 2.90644 0
M  V30 12142 H 1160.83 -0.344315 1.39823 0
M  V30 12143 H 1162.79 -3.1532 2.79556 0
M  V30 12144 H 1161.51 -2.85301 1.58968 0
M  V30 12145 H 1160.17 -1.58615 3.3051 0
M  V30 12146 H 1159.82 -4.04249 2.99319 0
M  V30 12147 H 1159.52 -3.55349 4.67976 0
M  V30 12148 H 1161.04 -4.38208 4.25213 0
M  V30 12149 H 1162.45 -2.33479 5.23603 0
M  V30 12150 H 1160.85 -1.73006 5.74621 0
M  V30 12151 H 1161.92 -0.678789 4.80125 0
M  V30 12152 N 1163.26 -1.53291 -0.366026 0
M  V30 12153 C 1164.68 -1.61144 -0.942849 0
M  V30 12154 C 1165.03 -0.478571 -1.90274 0
M  V30 12155 O 1164.15 0.395069 -2.12763 0
M  V30 12156 C 1164.75 -2.92081 -1.71681 0
M  V30 12157 C 1163.31 -3.0227 -2.24298 0
M  V30 12158 C 1162.45 -2.56436 -1.05526 0
M  V30 12159 H 1165.4 -1.58038 -0.144835 0
M  V30 12160 H 1165.42 -2.79858 -2.57798 0
M  V30 12161 H 1164.94 -3.74513 -1.01793 0
M  V30 12162 H 1163.04 -2.24425 -2.97429 0
M  V30 12163 H 1163.15 -4.07341 -2.5221 0
M  V30 12164 H 1161.51 -2.11301 -1.42211 0
M  V30 12165 H 1162.3 -3.41285 -0.371376 0
M  V30 12166 N 1164.74 0.6258 -1.44643 0
M  V30 12167 C 1165.67 1.74858 -1.54748 0
M  V30 12168 C 1166.65 1.65327 -0.400138 0
M  V30 12169 O 1167.84 1.84005 -0.620948 0
M  V30 12170 C 1164.97 3.13408 -1.49643 0
M  V30 12171 C 1163.92 3.37733 -2.62908 0
M  V30 12172 C 1163.25 4.76367 -2.42855 0
M  V30 12173 C 1164.55 3.29771 -4.05029 0
M  V30 12174 H 1166.24 1.66658 -2.48728 0
M  V30 12175 H 1163.79 0.800363 -1.19709 0
M  V30 12176 H 1165.74 3.91735 -1.55312 0
M  V30 12177 H 1164.47 3.22404 -0.521824 0
M  V30 12178 H 1163.12 2.61788 -2.56637 0
M  V30 12179 H 1162.77 4.82074 -1.43575 0
M  V30 12180 H 1162.47 4.936 -3.18799 0
M  V30 12181 H 1164 5.56917 -2.50351 0
M  V30 12182 H 1165.41 3.97996 -4.12641 0
M  V30 12183 H 1163.81 3.58538 -4.81218 0
M  V30 12184 H 1164.88 2.27493 -4.28223 0
M  V30 12185 N 1166.22 1.31629 0.866686 0
M  V30 12186 C 1167.47 1.21263 1.61678 0
M  V30 12187 C 1167.79 -0.228562 1.93656 0
M  V30 12188 O 1167.06 -1.15014 1.58583 0
M  V30 12189 H 1165.64 0.445817 0.59938 0
M  V30 12190 H 1168.3 1.64998 1.03739 0
M  V30 12191 H 1167.4 1.78669 2.55898 0
M  V30 12192 N 1167.7 -1.08142 1.14644 0
M  V30 12193 C 1168.92 -1.84857 0.940349 0
M  V30 12194 C 1169.35 -1.81163 -0.506117 0
M  V30 12195 O 1168.71 -1.19869 -1.36019 0
M  V30 12196 C 1168.76 -3.30198 1.4492 0
M  V30 12197 O 1167.86 -4.07355 0.64308 0
M  V30 12198 H 1167.2 -0.572711 0.336003 0
M  V30 12199 H 1169.73 -1.36475 1.52432 0
M  V30 12200 H 1169.74 -3.81039 1.45854 0
M  V30 12201 H 1168.42 -3.32202 2.50229 0
M  V30 12202 H 1166.99 -3.66219 0.702698 0
M  V30 12203 N 1169.18 -0.941978 -1.26351 0
M  V30 12204 C 1170.4 -0.606231 -1.98342 0
M  V30 12205 C 1170.83 0.812014 -1.6967 0
M  V30 12206 O 1170.19 1.54712 -0.9452 0
M  V30 12207 C 1170.23 -0.855864 -3.50296 0
M  V30 12208 O 1169.34 0.0716251 -4.12338 0
M  V30 12209 H 1168.68 -0.231815 -0.62222 0
M  V30 12210 H 1171.21 -1.26513 -1.60797 0
M  V30 12211 H 1171.22 -0.777079 -4.00531 0
M  V30 12212 H 1169.89 -1.8896 -3.70496 0
M  V30 12213 H 1168.47 -0.0582866 -3.72854 0
M  V30 12214 N 1170.66 1.40747 -0.709091 0
M  V30 12215 C 1171.88 2.05841 -0.253816 0
M  V30 12216 C 1172.31 1.53056 1.09341 0
M  V30 12217 O 1171.66 0.663181 1.68735 0
M  V30 12218 C 1171.71 3.59822 -0.236699 0
M  V30 12219 O 1170.82 4.04876 0.784168 0
M  V30 12220 H 1170.16 0.65295 -0.120631 0
M  V30 12221 H 1172.69 1.80266 -0.967749 0
M  V30 12222 H 1172.7 4.07936 -0.0721616 0
M  V30 12223 H 1171.37 3.97608 -1.21988 0
M  V30 12224 H 1169.95 3.68237 0.587884 0
M  V30 12225 N 1172.13 0.454803 1.50895 0
M  V30 12226 C 1173.38 -0.10577 2.02224 0
M  V30 12227 C 1173.71 -1.41176 1.33789 0
M  V30 12228 O 1172.96 -1.90522 0.447181 0
M  V30 12229 C 1173.26 -0.354159 3.55641 0
M  V30 12230 C 1172.93 0.868136 4.42464 0
M  V30 12231 C 1171.59 1.2033 4.65912 0
M  V30 12232 C 1173.94 1.68272 4.93289 0
M  V30 12233 C 1171.27 2.3534 5.37431 0
M  V30 12234 C 1173.62 2.82396 5.6607 0
M  V30 12235 C 1172.29 3.16346 5.87777 0
M  V30 12236 H 1171.56 -0.0387041 0.739989 0
M  V30 12237 H 1174.2 0.605564 1.81673 0
M  V30 12238 H 1172.51 -1.14757 3.74617 0
M  V30 12239 H 1174.21 -0.8016 3.92906 0
M  V30 12240 H 1170.8 0.596995 4.24422 0
M  V30 12241 H 1174.98 1.43698 4.75042 0
M  V30 12242 H 1170.24 2.61936 5.52449 0
M  V30 12243 H 1174.41 3.45873 6.04438 0
M  V30 12244 H 1172.04 4.05574 6.42973 0
M  V30 12245 N 1173.61 -1.56489 0.186789 0
M  V30 12246 C 1175.02 -1.83809 -0.327265 0
M  V30 12247 C 1175.37 -1.10718 -1.61976 0
M  V30 12248 O 1174.5 -0.36525 -2.13295 0
M  V30 12249 C 1175.09 -3.33435 -0.600551 0
M  V30 12250 C 1173.65 -3.61195 -1.059 0
M  V30 12251 C 1172.8 -2.77108 -0.103131 0
M  V30 12252 H 1175.75 -1.53292 0.410747 0
M  V30 12253 H 1175.77 -3.51754 -1.45084 0
M  V30 12254 H 1175.28 -3.86605 0.340315 0
M  V30 12255 H 1173.38 -3.13451 -2.01443 0
M  V30 12256 H 1173.5 -4.69435 -0.957458 0
M  V30 12257 H 1171.86 -2.47448 -0.603449 0
M  V30 12258 H 1172.64 -3.33065 0.832031 0
M  V30 12259 N 1175.09 0.086862 -1.5736 0
M  V30 12260 C 1176.34 0.78884 -1.86504 0
M  V30 12261 C 1176.66 1.78329 -0.77646 0
M  V30 12262 O 1175.92 1.94354 0.229122 0
M  V30 12263 C 1176.22 1.54537 -3.22263 0
M  V30 12264 C 1175.88 0.692284 -4.45554 0
M  V30 12265 C 1174.55 0.45714 -4.79024 0
M  V30 12266 C 1176.9 0.0997695 -5.21105 0
M  V30 12267 C 1174.23 -0.380247 -5.85466 0
M  V30 12268 C 1176.58 -0.724986 -6.28432 0
M  V30 12269 C 1175.24 -0.970144 -6.60412 0
M  V30 12270 H 1174.51 0.288657 -0.682465 0
M  V30 12271 H 1177.16 0.050059 -1.91435 0
M  V30 12272 H 1175.46 2.35594 -3.13053 0
M  V30 12273 H 1177.16 2.09305 -3.42042 0
M  V30 12274 H 1173.75 0.885675 -4.19349 0
M  V30 12275 H 1177.94 0.268583 -4.95573 0
M  V30 12276 H 1173.19 -0.579084 -6.08651 0
M  V30 12277 H 1177.37 -1.19093 -6.86141 0
M  V30 12278 H 1174.99 -1.6208 -7.42721 0
M  V30 12279 N 1176.57 1.53483 0.357892 0
M  V30 12280 C 1177.82 1.69701 1.09754 0
M  V30 12281 C 1178.14 0.455389 1.89608 0
M  V30 12282 O 1177.41 -0.530623 1.88577 0
M  V30 12283 H 1175.99 0.62562 0.408178 0
M  V30 12284 H 1178.65 1.90696 0.402641 0
M  V30 12285 H 1177.74 2.56154 1.78302 0
M  V30 12286 N 1178.05 -0.61812 1.44973 0
M  V30 12287 C 1179.27 -1.40921 1.52171 0
M  V30 12288 C 1179.7 -1.87487 0.151755 0
M  V30 12289 O 1179.05 -1.59518 -0.861606 0
M  V30 12290 C 1179.1 -2.59689 2.50188 0
M  V30 12291 O 1178.21 -3.59967 2.0124 0
M  V30 12292 H 1177.55 -0.421138 0.51336 0
M  V30 12293 H 1180.08 -0.753258 1.90229 0
M  V30 12294 H 1180.09 -3.07069 2.6865 0
M  V30 12295 H 1178.76 -2.25144 3.4969 0
M  V30 12296 H 1177.34 -3.19308 1.92605 0
M  V30 12297 N 1179.52 -1.32087 -0.859693 0
M  V30 12298 C 1180.77 -1.22119 -1.61033 0
M  V30 12299 C 1181.09 0.218289 -1.93774 0
M  V30 12300 O 1180.36 1.14172 -1.5919 0
M  V30 12301 H 1178.94 -0.448989 -0.597008 0
M  V30 12302 H 1181.6 -1.65545 -1.02863 0
M  V30 12303 H 1180.7 -1.80023 -2.54947 0
M  V30 12304 N 1181 1.07532 -1.15215 0
M  V30 12305 C 1182.25 1.8036 -0.927263 0
M  V30 12306 C 1182.58 1.86414 0.544371 0
M  V30 12307 O 1181.86 1.34653 1.40353 0
M  V30 12308 C 1182.14 3.25512 -1.53992 0
M  V30 12309 C 1181.99 3.27614 -3.08203 0
M  V30 12310 C 1183.31 4.22731 -1.22418 0
M  V30 12311 H 1180.43 0.654775 -0.338289 0
M  V30 12312 H 1183.07 1.25842 -1.42351 0
M  V30 12313 H 1181.22 3.72068 -1.11791 0
M  V30 12314 H 1182.89 2.89315 -3.59297 0
M  V30 12315 H 1181.14 2.66627 -3.42188 0
M  V30 12316 H 1181.81 4.29956 -3.46182 0
M  V30 12317 H 1184.28 3.84557 -1.58919 0
M  V30 12318 H 1183.16 5.22589 -1.67906 0
M  V30 12319 H 1183.42 4.41875 -0.14091 0
M  V30 12320 N 1182.48 0.948665 1.2585 0
M  V30 12321 C 1183.41 0.421458 2.25292 0
M  V30 12322 C 1184.43 -0.459389 1.56184 0
M  V30 12323 O 1185.61 -0.268627 1.76467 0
M  V30 12324 C 1182.71 -0.412653 3.36378 0
M  V30 12325 C 1181.89 0.453792 4.3504 0
M  V30 12326 C 1180.95 -0.321127 5.25219 0
M  V30 12327 O 1179.97 0.278424 5.68519 0
M  V30 12328 N 1181.17 -1.61576 5.5756 0
M  V30 12329 H 1183.94 1.27636 2.71162 0
M  V30 12330 H 1181.5 0.818367 1.39694 0
M  V30 12331 H 1183.49 -0.938637 3.93664 0
M  V30 12332 H 1182.06 -1.16839 2.89944 0
M  V30 12333 H 1181.28 1.16093 3.76718 0
M  V30 12334 H 1182.57 1.04538 4.97945 0
M  V30 12335 H 1181.97 -2.12488 5.24276 0
M  V30 12336 H 1180.53 -2.08783 6.17457 0
M  V30 12337 N 1183.96 -1.40369 0.716545 0
M  V30 12338 C 1185.19 -2.05181 0.266143 0
M  V30 12339 C 1185.6 -1.53988 -1.09239 0
M  V30 12340 O 1184.96 -0.696859 -1.68672 0
M  V30 12341 C 1185.01 -3.60713 0.238384 0
M  V30 12342 O 1184.73 -4.10018 1.54328 0
M  V30 12343 C 1186.23 -4.42701 -0.230453 0
M  V30 12344 H 1183.45 -0.66028 0.119463 0
M  V30 12345 H 1186 -1.7976 0.97502 0
M  V30 12346 H 1184.15 -3.85101 -0.421466 0
M  V30 12347 H 1184.56 -5.0422 1.4444 0
M  V30 12348 H 1186.04 -5.51642 -0.198728 0
M  V30 12349 H 1186.52 -4.20354 -1.27276 0
M  V30 12350 H 1187.12 -4.23423 0.399155 0
M  V30 12351 O 1185.48 -0.604712 -1.49751 0
M  V30 12352 H 1186.17 -0.115739 -1.93354 0
M  V30 END ATOM
M  V30 BEGIN BOND
M  V30 END BOND
M  V30 END CTAB
M  END
$$$$
