drugbank_target|Q16348 Solute carrier family 15 member 2 (DB00415; DB00493; DB00713; DB01053)
 OpenBabel12092119483D

  0  0  0     0  0            999 V3000
M  V30 BEGIN CTAB
M  V30 COUNTS 11612 11761 0 0 0
M  V30 BEGIN ATOM
M  V30 1 H -0.908 1.98254 -0.117106 0
M  V30 2 N 0 1.576 0 0
M  V30 3 C 0.933 2.03868 1.02534 0
M  V30 4 C 1.911 0.928543 1.3348 0
M  V30 5 O 3.095 1.19667 1.45644 0
M  V30 6 C 0.222 2.43627 2.35294 0
M  V30 7 C -0.732 3.65373 2.2001 0
M  V30 8 S 0.101 5.13292 1.52614 0
M  V30 9 C 1.257 5.56322 2.86805 0
M  V30 10 H 1.49 2.90518 0.631377 0
M  V30 11 H -0.977 1.52953 0.210867 0
M  V30 12 H 0.981 2.67203 3.11629 0
M  V30 13 H -0.358 1.57376 2.7183 0
M  V30 14 H -1.165 3.90944 3.18086 0
M  V30 15 H -1.563 3.418 1.51819 0
M  V30 16 H 0.729 5.58782 3.83104 0
M  V30 17 H 1.672 6.56266 2.65933 0
M  V30 18 H 2.08 4.83886 2.90714 0
M  V30 19 N 1.4781 -0.272755 1.55222 0
M  V30 20 C 2.4261 -1.35705 1.88909 0
M  V30 21 C 3.4201 -1.5112 0.765456 0
M  V30 22 O 4.6261 -1.52901 0.949802 0
M  V30 23 H 1.0011 -0.453868 0.59959 0
M  V30 24 H 2.9721 -1.04544 2.79487 0
M  V30 25 C 1.7211 -2.71049 2.17779 0
M  V30 26 H 1.0441 -2.59979 3.03728 0
M  V30 27 H 2.4841 -3.45858 2.45272 0
M  V30 28 C 0.9431 -3.22165 0.985473 0
M  V30 29 O 1.4731 -4.01096 0.220233 0
M  V30 30 N -0.3209 -2.7985 0.783108 0
M  V30 31 H -0.7739 -2.15775 1.40708 0
M  V30 32 H -0.8159 -3.14397 -0.0130392 0
M  V30 33 N 2.9562 -1.48159 -0.537278 0
M  V30 34 C 4.3672 -1.49429 -1.11928 0
M  V30 35 C 4.7182 -0.26 -1.9447 0
M  V30 36 O 3.8432 0.633489 -2.0692 0
M  V30 37 C 4.4382 -2.70758 -2.03656 0
M  V30 38 C 2.9972 -2.74923 -2.57088 0
M  V30 39 C 2.1442 -2.42835 -1.3389 0
M  V30 40 H 5.0952 -1.55381 -0.322886 0
M  V30 41 H 5.1162 -2.48861 -2.87834 0
M  V30 42 H 4.6282 -3.60575 -1.43553 0
M  V30 43 H 2.7292 -1.89296 -3.20933 0
M  V30 44 H 2.8422 -3.76157 -2.9672 0
M  V30 45 H 1.2062 -1.93836 -1.65226 0
M  V30 46 H 1.9892 -3.34884 -0.755504 0
M  V30 47 N 4.4343 0.785586 -1.36625 0
M  V30 48 C 5.6813 1.54362 -1.31067 0
M  V30 49 C 6.0093 1.94195 0.10893 0
M  V30 50 O 5.2643 1.63262 1.07908 0
M  V30 51 C 5.5633 2.83007 -2.1827 0
M  V30 52 C 5.2293 2.62294 -3.6676 0
M  V30 53 C 3.8913 2.56353 -4.0723 0
M  V30 54 C 6.2433 2.43371 -4.6089 0
M  V30 55 C 3.5713 2.29461 -5.39967 0
M  V30 56 C 5.9233 2.18005 -5.93849 0
M  V30 57 C 4.5873 2.105 -6.3344 0
M  V30 58 H 3.8573 0.564851 -0.479609 0
M  V30 59 H 6.5043 0.906028 -1.68711 0
M  V30 60 H 4.8093 3.51253 -1.73576 0
M  V30 61 H 6.5063 3.40817 -2.11292 0
M  V30 62 H 3.0963 2.67774 -3.34656 0
M  V30 63 H 7.2803 2.46959 -4.30494 0
M  V30 64 H 2.5363 2.22135 -5.69619 0
M  V30 65 H 6.7103 2.02359 -6.66351 0
M  V30 66 H 4.3373 1.89425 -7.36222 0
M  V30 67 N 5.9124 1.20967 1.01018 0
M  V30 68 C 6.8444 0.922059 2.09835 0
M  V30 69 C 7.8574 -0.0927106 1.62536 0
M  V30 70 O 9.0464 0.139127 1.77957 0
M  V30 71 C 6.1464 0.362004 3.36961 0
M  V30 72 C 5.3194 1.42986 4.13369 0
M  V30 73 C 4.3784 0.879976 5.1879 0
M  V30 74 O 3.4044 1.56219 5.47343 0
M  V30 75 N 4.6064 -0.307396 5.79686 0
M  V30 76 H 7.3714 1.8588 2.35093 0
M  V30 77 H 4.9324 1.11422 1.1746 0
M  V30 78 H 6.9244 -0.0201474 4.04695 0
M  V30 79 H 5.4944 -0.479437 3.08902 0
M  V30 80 H 4.7144 1.98608 3.40512 0
M  V30 81 H 6.0024 2.14885 4.61196 0
M  V30 82 H 5.4004 -0.878796 5.58832 0
M  V30 83 H 3.9574 -0.631115 6.48737 0
M  V30 84 N 7.3905 -1.2043 1.01659 0
M  V30 85 C 8.3375 -2.23215 0.586822 0
M  V30 86 C 9.3075 -1.61382 -0.393085 0
M  V30 87 O 10.4925 -1.88544 -0.292525 0
M  V30 88 C 7.6325 -3.45032 -0.0687464 0
M  V30 89 C 6.7455 -4.21296 0.955724 0
M  V30 90 C 5.8805 -5.30507 0.271208 0
M  V30 91 C 4.9195 -5.98515 1.28244 0
M  V30 92 N 4.0565 -6.99316 0.62459 0
M  V30 93 H 8.8965 -2.59336 1.46796 0
M  V30 94 H 6.4335 -1.27431 0.734836 0
M  V30 95 H 8.3915 -4.1459 -0.465965 0
M  V30 96 H 7.0215 -3.09604 -0.913529 0
M  V30 97 H 6.0735 -3.50803 1.4711 0
M  V30 98 H 7.3855 -4.6803 1.72479 0
M  V30 99 H 6.5395 -6.06428 -0.18151 0
M  V30 100 H 5.2785 -4.8481 -0.530163 0
M  V30 101 H 4.2835 -5.21355 1.74554 0
M  V30 102 H 5.5085 -6.46298 2.08509 0
M  V30 103 H 3.4545 -6.55812 -0.156914 0
M  V30 104 H 3.3715 -7.44178 1.33172 0
M  V30 105 H 4.6395 -7.79255 0.195462 0
M  V30 106 N 8.8686 -0.792821 -1.36206 0
M  V30 107 C 9.8166 -0.181555 -2.3189 0
M  V30 108 C 10.8106 0.661025 -1.55971 0
M  V30 109 O 12.0166 0.555728 -1.71206 0
M  V30 110 H 8.3916 -0.0399382 -0.750939 0
M  V30 111 H 10.3626 -1.00394 -2.81005 0
M  V30 112 C 9.1116 0.666444 -3.41253 0
M  V30 113 H 8.4346 0.0274489 -3.99791 0
M  V30 114 H 9.8746 1.06076 -4.10517 0
M  V30 115 C 8.3336 1.82614 -2.83114 0
M  V30 116 O 8.8636 2.9229 -2.75553 0
M  V30 117 N 7.0696 1.63333 -2.40356 0
M  V30 118 H 6.6166 0.741217 -2.46706 0
M  V30 119 H 6.5746 2.41087 -2.01803 0
M  V30 120 N 10.3467 1.47872 -0.545128 0
M  V30 121 C 11.2567 2.33633 0.212746 0
M  V30 122 C 12.2727 1.4744 0.923983 0
M  V30 123 O 13.4487 1.80393 0.895572 0
M  V30 124 C 10.5137 3.23884 1.23693 0
M  V30 125 C 9.5747 4.25961 0.534417 0
M  V30 126 C 8.8077 5.11899 1.5098 0
M  V30 127 O 9.0307 5.00077 2.7437 0
M  V30 128 O 7.9647 5.92831 1.0409 0
M  V30 129 H 11.7907 2.99714 -0.490416 0
M  V30 130 H 9.3757 1.46235 -0.305871 0
M  V30 131 H 11.2577 3.79666 1.82843 0
M  V30 132 H 9.9327 2.60446 1.92222 0
M  V30 133 H 8.8397 3.73972 -0.0979679 0
M  V30 134 H 10.1727 4.92079 -0.109213 0
M  V30 135 N 11.8248 0.280983 1.55075 0
M  V30 136 C 13.0498 -0.340154 2.04592 0
M  V30 137 C 13.4748 -1.48246 1.15779 0
M  V30 138 O 12.8328 -1.80614 0.15761 0
M  V30 139 C 12.8808 -0.793104 3.5177 0
M  V30 140 O 11.9848 -1.89981 3.66034 0
M  V30 141 H 11.3258 -0.0694289 0.66036 0
M  V30 142 H 13.8558 0.416993 2.00306 0
M  V30 143 H 13.8658 -1.08729 3.93245 0
M  V30 144 H 12.5408 0.0426163 4.15878 0
M  V30 145 H 11.1178 -1.60771 3.36463 0
M  V30 146 N 13.3029 -1.57598 0.00835791 0
M  V30 147 C 14.2499 -2.08945 -0.980346 0
M  V30 148 C 15.2199 -0.986738 -1.33614 0
M  V30 149 O 16.4049 -1.25968 -1.43306 0
M  V30 150 C 13.5449 -2.60425 -2.26435 0
M  V30 151 C 12.6579 -3.84628 -1.96685 0
M  V30 152 C 11.7929 -4.24579 -3.19228 0
M  V30 153 C 10.8319 -5.41596 -2.85202 0
M  V30 154 N 9.9689 -5.768 -4.00307 0
M  V30 155 H 14.8089 -2.93148 -0.535551 0
M  V30 156 H 12.3459 -1.44912 -0.252776 0
M  V30 157 H 14.3039 -2.88354 -3.01509 0
M  V30 158 H 12.9339 -1.79083 -2.68568 0
M  V30 159 H 11.9859 -3.63556 -1.11942 0
M  V30 160 H 13.2979 -4.69796 -1.67611 0
M  V30 161 H 12.4519 -4.53834 -4.02641 0
M  V30 162 H 11.1909 -3.38137 -3.51447 0
M  V30 163 H 10.1959 -5.12056 -2.00198 0
M  V30 164 H 11.4209 -6.29721 -2.54222 0
M  V30 165 H 9.3669 -4.93316 -4.32407 0
M  V30 166 H 9.2839 -6.5656 -3.74786 0
M  V30 167 H 10.5519 -6.10652 -4.84484 0
M  V30 168 N 14.781 0.264519 -1.55364 0
M  V30 169 C 15.691 1.34902 -1.91934 0
M  V30 170 C 16.707 1.53595 -0.817593 0
M  V30 171 O 17.883 1.67558 -1.11742 0
M  V30 172 C 14.948 2.68676 -2.19121 0
M  V30 173 C 14.009 2.58657 -3.4263 0
M  V30 174 C 13.242 3.86051 -3.68511 0
M  V30 175 O 13.465 4.87126 -2.96757 0
M  V30 176 O 12.399 3.85744 -4.62045 0
M  V30 177 H 16.225 1.06883 -2.8427 0
M  V30 178 H 13.81 0.463775 -1.42019 0
M  V30 179 H 15.692 3.47759 -2.37995 0
M  V30 180 H 14.367 2.96463 -1.29966 0
M  V30 181 H 13.274 1.7792 -3.29082 0
M  V30 182 H 14.607 2.35818 -4.32031 0
M  V30 183 N 16.2591 1.48442 0.529413 0
M  V30 184 C 17.4871 1.60151 1.30994 0
M  V30 185 C 17.9021 0.261985 1.86973 0
M  V30 186 O 17.2591 -0.748805 1.66431 0
M  V30 187 C 17.3101 2.64854 2.46038 0
M  V30 188 O 17.0311 3.93608 1.92365 0
M  V30 189 C 18.5321 2.87007 3.37849 0
M  V30 190 H 15.7521 0.539971 0.398338 0
M  V30 191 H 18.2961 1.94273 0.638597 0
M  V30 192 H 16.4511 2.33589 3.09055 0
M  V30 193 H 16.8651 4.51055 2.67675 0
M  V30 194 H 18.3391 3.64068 4.14919 0
M  V30 195 H 18.8161 1.95852 3.93114 0
M  V30 196 H 19.4221 3.19579 2.80623 0
M  V30 197 N 17.7372 -0.778329 1.37039 0
M  V30 198 C 18.6672 -1.90546 1.34962 0
M  V30 199 C 19.6482 -1.68681 0.219274 0
M  V30 200 O 20.8332 -1.89634 0.418624 0
M  V30 201 C 17.9632 -3.27734 1.14925 0
M  V30 202 C 16.9172 -3.64147 2.24902 0
M  V30 203 C 16.2432 -4.99806 1.89996 0
M  V30 204 C 17.5432 -3.71579 3.67051 0
M  V30 205 H 19.2372 -1.92541 2.29277 0
M  V30 206 H 16.7832 -0.924948 1.10366 0
M  V30 207 H 18.7362 -4.06215 1.12104 0
M  V30 208 H 17.4602 -3.26154 0.170631 0
M  V30 209 H 16.1192 -2.8797 2.26868 0
M  V30 210 H 15.7672 -4.94759 0.906796 0
M  V30 211 H 15.4672 -5.25139 2.63634 0
M  V30 212 H 16.9912 -5.80694 1.88749 0
M  V30 213 H 18.4052 -4.40227 3.67251 0
M  V30 214 H 16.8022 -4.08405 4.39688 0
M  V30 215 H 17.8722 -2.72404 4.01154 0
M  V30 216 N 19.2153 -1.21501 -1.00376 0
M  V30 217 C 20.4623 -1.03299 -1.74171 0
M  V30 218 C 20.7903 0.433326 -1.89612 0
M  V30 219 O 20.0453 1.33779 -1.42834 0
M  V30 220 C 20.3443 -1.67673 -3.15627 0
M  V30 221 C 20.0103 -3.17533 -3.2013 0
M  V30 222 C 18.6723 -3.58427 -3.21067 0
M  V30 223 C 21.0243 -4.13504 -3.17275 0
M  V30 224 C 18.3523 -4.93794 -3.16835 0
M  V30 225 C 20.7043 -5.48834 -3.14585 0
M  V30 226 C 19.3683 -5.89123 -3.13831 0
M  V30 227 H 18.6383 -0.377999 -0.637336 0
M  V30 228 H 21.2853 -1.51111 -1.17634 0
M  V30 229 H 19.5903 -1.12158 -3.75404 0
M  V30 230 H 21.2873 -1.51091 -3.71446 0
M  V30 231 H 17.8773 -2.84965 -3.20145 0
M  V30 232 H 22.0613 -3.82936 -3.15711 0
M  V30 233 H 17.3173 -5.24255 -3.1459 0
M  V30 234 H 21.4913 -6.22934 -3.1133 0
M  V30 235 H 19.1183 -6.93984 -3.10307 0
M  V30 236 N 20.6934 1.19889 -1.02296 0
M  V30 237 C 21.9184 1.9393 -0.735237 0
M  V30 238 C 22.3434 1.74639 0.698782 0
M  V30 239 O 21.7014 1.04481 1.48167 0
M  V30 240 C 21.7494 3.43916 -1.08417 0
M  V30 241 O 20.8534 4.11917 -0.199446 0
M  V30 242 H 20.1944 0.605645 -0.272196 0
M  V30 243 H 22.7244 1.52137 -1.36804 0
M  V30 244 H 22.7344 3.9456 -1.03856 0
M  V30 245 H 21.4094 3.5728 -2.12894 0
M  V30 246 H 19.9864 3.71666 -0.303136 0
M  V30 247 N 22.1715 0.800033 1.35784 0
M  V30 248 C 23.5825 0.439142 1.81462 0
M  V30 249 C 23.9335 -1.03813 1.66485 0
M  V30 250 O 23.0585 -1.80626 1.19177 0
M  V30 251 C 23.6535 0.790314 3.29453 0
M  V30 252 C 22.2125 0.482111 3.733 0
M  V30 253 C 21.3595 1.01938 2.57883 0
M  V30 254 H 24.3105 0.992254 1.23855 0
M  V30 255 H 24.3315 0.0853677 3.80404 0
M  V30 256 H 23.8435 1.86554 3.40322 0
M  V30 257 H 21.9445 -0.584652 3.67984 0
M  V30 258 H 22.0575 1.01015 4.6833 0
M  V30 259 H 20.4215 0.442043 2.50835 0
M  V30 260 H 21.2045 2.10059 2.71533 0
M  V30 261 N 23.6496 -1.47581 0.552962 0
M  V30 262 C 24.8956 -2.02782 0.0273648 0
M  V30 263 C 25.2286 -1.42687 -1.31734 0
M  V30 264 O 24.5036 -0.580897 -1.85623 0
M  V30 265 C 24.7866 -3.60031 -0.0702371 0
M  V30 266 C 24.6396 -4.30566 1.30126 0
M  V30 267 C 25.9586 -4.33028 -0.785771 0
M  V30 268 H 23.0776 -0.736912 0.0114185 0
M  V30 269 H 25.7196 -1.76056 0.714432 0
M  V30 270 H 23.8696 -3.82932 -0.655382 0
M  V30 271 H 25.5416 -4.19018 1.92929 0
M  V30 272 H 23.7846 -3.91086 1.87709 0
M  V30 273 H 24.4556 -5.39114 1.18573 0
M  V30 274 H 26.9316 -4.15095 -0.288982 0
M  V30 275 H 25.8076 -5.42695 -0.823013 0
M  V30 276 H 26.0686 -4.01945 -1.841 0
M  V30 277 N 25.1277 -0.289203 -1.54924 0
M  V30 278 C 26.3527 0.329299 -2.04769 0
M  V30 279 C 26.7777 1.4763 -1.16564 0
M  V30 280 O 26.1357 1.80527 -0.167186 0
M  V30 281 C 26.1837 0.774438 -3.52186 0
M  V30 282 O 25.2877 1.88038 -3.67036 0
M  V30 283 H 24.6287 0.0659259 -0.660719 0
M  V30 284 H 27.1587 -0.42761 -2.00082 0
M  V30 285 H 27.1687 1.06642 -3.93816 0
M  V30 286 H 25.8437 -0.0646707 -4.1585 0
M  V30 287 H 24.4207 1.58985 -3.3731 0
M  V30 288 N 26.6058 1.57591 -0.0167156 0
M  V30 289 C 27.8548 1.90461 0.663877 0
M  V30 290 C 28.1678 0.893515 1.73999 0
M  V30 291 O 29.3738 1.11302 2.47637 0
M  V30 292 C 27.8298 3.38155 1.23204 0
M  V30 293 C 27.4378 4.47597 0.189866 0
M  V30 294 C 29.1818 3.80111 1.88986 0
M  V30 295 C 27.0888 5.86379 0.768964 0
M  V30 296 H 26.0188 0.710738 0.251729 0
M  V30 297 H 28.6698 1.83326 -0.0799926 0
M  V30 298 H 27.0518 3.40182 2.02712 0
M  V30 299 H 28.2258 4.57112 -0.581846 0
M  V30 300 H 26.5408 4.14766 -0.368475 0
M  V30 301 H 29.1378 4.81145 2.33247 0
M  V30 302 H 29.4808 3.14511 2.72743 0
M  V30 303 H 30.0138 3.80454 1.16187 0
M  V30 304 H 26.7528 6.55493 -0.0301957 0
M  V30 305 H 26.2728 5.80496 1.50945 0
M  V30 306 H 27.9518 6.34563 1.26251 0
M  V30 307 N 28.0839 -0.256276 1.55502 0
M  V30 308 C 28.9939 -1.33882 1.92647 0
M  V30 309 C 30.0099 -1.53159 0.825727 0
M  V30 310 O 31.1859 -1.66963 1.12629 0
M  V30 311 C 28.2509 -2.6751 2.20543 0
M  V30 312 C 27.3119 -2.56836 3.43997 0
M  V30 313 C 26.5449 -3.84092 3.70553 0
M  V30 314 O 26.7679 -4.85545 2.99336 0
M  V30 315 O 25.7019 -3.83288 4.64084 0
M  V30 316 H 29.5279 -1.05374 2.84833 0
M  V30 317 H 27.1129 -0.456237 1.42263 0
M  V30 318 H 28.9949 -3.46492 2.39835 0
M  V30 319 H 27.6699 -2.9577 1.31536 0
M  V30 320 H 26.5769 -1.76172 3.30021 0
M  V30 321 H 27.9099 -2.33523 4.33275 0
M  V30 322 N 29.562 -1.4872 -0.521534 0
M  V30 323 C 30.472 -1.66569 -1.65203 0
M  V30 324 C 31.488 -0.548197 -1.65139 0
M  V30 325 O 32.664 -0.820339 -1.83936 0
M  V30 326 C 29.729 -1.70917 -3.01642 0
M  V30 327 C 28.79 -2.94356 -3.12495 0
M  V30 328 C 28.023 -2.98487 -4.42426 0
M  V30 329 O 28.246 -2.10786 -5.30024 0
M  V30 330 O 27.18 -3.90746 -4.57822 0
M  V30 331 H 31.006 -2.62298 -1.5308 0
M  V30 332 H 28.591 -1.3222 -0.695565 0
M  V30 333 H 30.473 -1.7625 -3.82771 0
M  V30 334 H 29.148 -0.783633 -3.14071 0
M  V30 335 H 28.055 -2.94552 -2.3063 0
M  V30 336 H 29.388 -3.86322 -3.04986 0
M  V30 337 N 31.0401 0.771051 -1.3745 0
M  V30 338 C 32.2861 1.5319 -1.32894 0
M  V30 339 C 32.6191 1.94008 0.0862511 0
M  V30 340 O 31.8941 1.64124 1.04373 0
M  V30 341 C 32.1771 2.79648 -2.26868 0
M  V30 342 C 32.0301 2.45079 -3.77169 0
M  V30 343 C 33.3491 3.81583 -2.19277 0
M  V30 344 H 30.4681 0.555744 -0.484064 0
M  V30 345 H 33.1101 0.884492 -1.68157 0
M  V30 346 H 31.2601 3.34891 -1.96926 0
M  V30 347 H 32.9321 1.95745 -4.1771 0
M  V30 348 H 31.1751 1.77767 -3.95704 0
M  V30 349 H 31.8461 3.35478 -4.38359 0
M  V30 350 H 34.3221 3.35835 -2.45671 0
M  V30 351 H 33.1981 4.67787 -2.87171 0
M  V30 352 H 33.4591 4.25897 -1.18592 0
M  V30 353 N 32.5182 1.22032 0.997298 0
M  V30 354 C 33.9292 1.0397 1.55071 0
M  V30 355 C 34.2802 -0.398192 1.92117 0
M  V30 356 O 33.4052 -1.28254 1.74298 0
M  V30 357 C 34.0002 1.88109 2.81781 0
M  V30 358 C 32.5592 1.74357 3.33581 0
M  V30 359 C 31.7062 1.84846 2.06706 0
M  V30 360 H 34.6572 1.35941 0.818883 0
M  V30 361 H 34.6782 1.39589 3.53971 0
M  V30 362 H 34.1902 2.92754 2.54787 0
M  V30 363 H 32.2912 0.72427 3.65493 0
M  V30 364 H 32.4042 2.56772 4.04481 0
M  V30 365 H 30.7682 1.28238 2.20062 0
M  V30 366 H 31.5512 2.91014 1.82114 0
M  V30 367 N 33.9963 -1.19345 1.0293 0
M  V30 368 C 35.4073 -1.70725 0.755633 0
M  V30 369 C 35.7583 -1.82326 -0.724676 0
M  V30 370 O 34.8833 -1.49471 -1.56484 0
M  V30 371 C 35.4783 -3.10084 1.36503 0
M  V30 372 C 34.0373 -3.58723 1.13994 0
M  V30 373 C 33.1843 -2.35577 1.46283 0
M  V30 374 H 36.1353 -1.0418 1.19718 0
M  V30 375 H 36.1563 -3.72787 0.762217 0
M  V30 376 H 35.6683 -3.01609 2.44241 0
M  V30 377 H 33.7693 -3.72512 0.0807901 0
M  V30 378 H 33.8823 -4.42816 1.82894 0
M  V30 379 H 32.2463 -2.38935 0.88217 0
M  V30 380 H 33.0293 -2.29731 2.55105 0
M  V30 381 N 35.4744 -0.807222 -1.35358 0
M  V30 382 C 36.8904 -0.491038 -1.51858 0
M  V30 383 C 37.0904 0.987648 -1.75635 0
M  V30 384 O 36.1464 1.77265 -1.79815 0
M  V30 385 C 37.4594 -1.33695 -2.69344 0
M  V30 386 C 39.0074 -1.33246 -2.83222 0
M  V30 387 C 39.4824 -2.1625 -4.03733 0
M  V30 388 N 40.9734 -2.1379 -4.10911 0
M  V30 389 C 41.7084 -2.74772 -5.03277 0
M  V30 390 N 41.2044 -3.44684 -6.0097 0
M  V30 391 N 42.9974 -2.6441 -4.96028 0
M  V30 392 H 35.1484 -1.76485 -1.18181 0
M  V30 393 H 37.4114 -0.751199 -0.578276 0
M  V30 394 H 37.1174 -2.38634 -2.58354 0
M  V30 395 H 36.9914 -0.990618 -3.6396 0
M  V30 396 H 39.3784 -0.290911 -2.93663 0
M  V30 397 H 39.4594 -1.71866 -1.89461 0
M  V30 398 H 39.1034 -3.20445 -3.94052 0
M  V30 399 H 39.0334 -1.74989 -4.96675 0
M  V30 400 H 41.5244 -1.62923 -3.40976 0
M  V30 401 H 41.8374 -3.88501 -6.68047 0
M  V30 402 H 40.1824 -3.48788 -6.01142 0
M  V30 403 H 43.3734 -2.0938 -4.18662 0
M  V30 404 H 43.5464 -3.12225 -5.6782 0
M  V30 405 N 36.9525 1.47285 -0.560781 0
M  V30 406 C 38.3635 1.86258 -0.128343 0
M  V30 407 C 38.7145 1.46699 1.30284 0
M  V30 408 O 37.8395 0.871698 1.98067 0
M  V30 409 C 38.4345 3.38044 -0.22614 0
M  V30 410 C 36.9935 3.76096 0.151283 0
M  V30 411 C 36.1405 2.71335 -0.572084 0
M  V30 412 H 39.0915 1.38752 -0.770297 0
M  V30 413 H 39.1125 3.76441 0.554322 0
M  V30 414 H 38.6245 3.66806 -1.26788 0
M  V30 415 H 36.7255 3.52951 1.19399 0
M  V30 416 H 36.8385 4.78641 -0.209765 0
M  V30 417 H 35.2025 2.54696 -0.0147653 0
M  V30 418 H 35.9855 3.02938 -1.61504 0
M  V30 419 N 38.4306 0.297415 1.54768 0
M  V30 420 C 39.8416 -0.195947 1.85669 0
M  V30 421 C 40.1926 -1.53707 1.21937 0
M  V30 422 O 39.3176 -2.10164 0.515754 0
M  V30 423 C 39.9126 -0.362318 3.36857 0
M  V30 424 C 38.4716 -0.799901 3.67802 0
M  V30 425 C 37.6186 0.0938578 2.77141 0
M  V30 426 H 40.5696 0.518538 1.4999 0
M  V30 427 H 40.5906 -1.19745 3.61167 0
M  V30 428 H 40.1026 0.613921 3.83214 0
M  V30 429 H 38.2036 -1.78682 3.26961 0
M  V30 430 H 38.3166 -0.621773 4.75048 0
M  V30 431 H 36.6806 -0.426254 2.51108 0
M  V30 432 H 37.4636 1.06639 3.26318 0
M  V30 433 N 39.9087 -1.5758 0.0250728 0
M  V30 434 C 41.1337 -1.96337 -0.668317 0
M  V30 435 C 41.5587 -0.901314 -1.651 0
M  V30 436 O 40.9167 0.138187 -1.80773 0
M  V30 437 C 40.9647 -3.34191 -1.35457 0
M  V30 438 O 40.0687 -3.30269 -2.46974 0
M  V30 439 H 39.4097 -0.640281 -0.175887 0
M  V30 440 H 41.9397 -2.0442 0.0857224 0
M  V30 441 H 41.9497 -3.70331 -1.71228 0
M  V30 442 H 40.6247 -4.11036 -0.634218 0
M  V30 443 H 39.2017 -3.05841 -2.13344 0
M  V30 444 N 41.3868 0.248026 -1.55636 0
M  V30 445 C 42.7978 0.817177 -1.67866 0
M  V30 446 C 43.1488 1.86069 -0.622322 0
M  V30 447 O 42.2738 2.15157 0.231618 0
M  V30 448 C 42.8688 1.489 -3.04326 0
M  V30 449 C 41.4278 2.00587 -3.185 0
M  V30 450 C 40.5748 0.856573 -2.63739 0
M  V30 451 H 43.5258 0.0238579 -1.58682 0
M  V30 452 H 43.5468 2.35698 -2.98708 0
M  V30 453 H 43.0588 0.729279 -3.81186 0
M  V30 454 H 41.1598 2.79443 -2.4646 0
M  V30 455 H 41.2728 2.20402 -4.25393 0
M  V30 456 H 39.6368 1.25678 -2.21534 0
M  V30 457 H 40.4198 0.109953 -3.43124 0
M  V30 458 N 42.8649 1.48995 0.513639 0
M  V30 459 C 44.2759 1.5119 1.09537 0
M  V30 460 C 44.6269 0.290906 1.94031 0
M  V30 461 O 43.7519 -0.60049 2.07902 0
M  V30 462 C 44.3469 2.73964 1.99322 0
M  V30 463 C 42.9059 2.78978 2.52682 0
M  V30 464 C 42.0529 2.44934 1.30009 0
M  V30 465 H 45.0039 1.55875 0.298125 0
M  V30 466 H 45.0249 2.53409 2.83838 0
M  V30 467 H 44.5369 3.62813 1.37799 0
M  V30 468 H 42.6379 1.94378 3.1788 0
M  V30 469 H 42.7509 3.8083 2.90698 0
M  V30 470 H 41.1149 1.9644 1.62122 0
M  V30 471 H 41.8979 3.36043 0.702131 0
M  V30 472 N 44.343 -0.763751 1.37857 0
M  V30 473 C 45.29 -1.87726 1.34267 0
M  V30 474 C 46.26 -1.64807 0.206879 0
M  V30 475 O 47.445 -1.86613 0.397508 0
M  V30 476 C 44.585 -3.24896 1.16346 0
M  V30 477 C 43.698 -3.59716 2.39225 0
M  V30 478 C 42.833 -4.86137 2.14114 0
M  V30 479 C 41.872 -5.13711 3.32817 0
M  V30 480 N 41.009 -6.31323 3.07206 0
M  V30 481 H 45.849 -1.90129 2.29466 0
M  V30 482 H 43.386 -0.929433 1.14017 0
M  V30 483 H 45.344 -4.04036 1.03975 0
M  V30 484 H 43.974 -3.21847 0.247909 0
M  V30 485 H 43.026 -2.75498 2.62307 0
M  V30 486 H 44.338 -3.76027 3.27728 0
M  V30 487 H 43.492 -5.73198 1.9882 0
M  V30 488 H 42.231 -4.71945 1.22961 0
M  V30 489 H 41.236 -4.25123 3.48641 0
M  V30 490 H 42.461 -5.29807 4.24832 0
M  V30 491 H 40.407 -6.18474 2.1869 0
M  V30 492 H 40.324 -6.48087 3.89254 0
M  V30 493 H 41.592 -7.213 2.95546 0
M  V30 494 N 45.8211 -1.22559 -0.990812 0
M  V30 495 C 46.7681 -0.997519 -2.0813 0
M  V30 496 C 47.7381 0.0814702 -1.659 0
M  V30 497 O 48.9231 -0.0685424 -1.90677 0
M  V30 498 C 46.0631 -0.583615 -3.40129 0
M  V30 499 C 45.1761 -1.7336 -3.9569 0
M  V30 500 C 44.3111 -1.26748 -5.15857 0
M  V30 501 C 43.3501 -2.38888 -5.63559 0
M  V30 502 N 42.4871 -1.93308 -6.74964 0
M  V30 503 H 47.3271 -1.93099 -2.26973 0
M  V30 504 H 44.8641 -0.962114 -1.11273 0
M  V30 505 H 46.8221 -0.324801 -4.15934 0
M  V30 506 H 45.4521 0.312845 -3.2128 0
M  V30 507 H 44.5041 -2.10669 -3.16738 0
M  V30 508 H 45.8161 -2.57704 -4.27071 0
M  V30 509 H 44.9701 -0.966173 -5.98957 0
M  V30 510 H 43.7091 -0.394272 -4.86104 0
M  V30 511 H 42.7141 -2.69805 -4.79046 0
M  V30 512 H 43.9391 -3.26728 -5.95336 0
M  V30 513 H 41.8851 -1.08352 -6.4699 0
M  V30 514 H 41.8021 -2.71217 -7.05675 0
M  V30 515 H 43.0701 -1.66252 -7.61564 0
M  V30 516 N 47.2992 1.18797 -1.03562 0
M  V30 517 C 48.7102 1.70322 -0.764676 0
M  V30 518 C 49.0612 1.82708 0.714996 0
M  V30 519 O 48.1862 1.50299 1.55689 0
M  V30 520 C 48.7812 3.09356 -1.38145 0
M  V30 521 C 47.3402 3.58114 -1.15895 0
M  V30 522 C 46.4872 2.34798 -1.4753 0
M  V30 523 H 49.4382 1.03543 -1.20268 0
M  V30 524 H 49.4592 3.72378 -0.781977 0
M  V30 525 H 48.9712 3.00309 -2.45837 0
M  V30 526 H 47.0722 3.72464 -0.100544 0
M  V30 527 H 47.1852 4.4184 -1.8524 0
M  V30 528 H 45.5492 2.38464 -0.894829 0
M  V30 529 H 46.3322 2.28375 -2.56319 0
M  V30 530 N 48.7773 0.814389 1.34928 0
M  V30 531 C 50.0023 0.410097 2.03305 0
M  V30 532 C 50.4273 -0.973464 1.60951 0
M  V30 533 O 49.7853 -1.63185 0.789964 0
M  V30 534 C 49.8333 0.51049 3.56968 0
M  V30 535 O 48.9373 -0.473035 4.09678 0
M  V30 536 H 48.2783 0.170088 0.641846 0
M  V30 537 H 50.8083 1.10244 1.72358 0
M  V30 538 H 50.8183 0.383135 4.06197 0
M  V30 539 H 49.4933 1.51963 3.87144 0
M  V30 540 H 48.0703 -0.305272 3.71648 0
M  V30 541 N 50.2554 -1.46986 0.568584 0
M  V30 542 C 51.6664 -1.86188 0.138219 0
M  V30 543 C 52.0174 -1.47388 -1.29504 0
M  V30 544 O 51.1424 -0.88219 -1.97602 0
M  V30 545 C 51.7374 -3.3792 0.244065 0
M  V30 546 C 50.2964 -3.76171 -0.131335 0
M  V30 547 C 49.4434 -2.71027 0.586465 0
M  V30 548 H 52.3944 -1.38342 0.777645 0
M  V30 549 H 52.4154 -3.76729 -0.534351 0
M  V30 550 H 51.9274 -3.66128 1.28731 0
M  V30 551 H 50.0284 -3.5358 -1.17526 0
M  V30 552 H 50.1414 -4.78523 0.235146 0
M  V30 553 H 48.5054 -2.54684 0.0282722 0
M  V30 554 H 49.2884 -3.02077 1.63109 0
M  V30 555 N 51.7335 -0.305618 -1.54608 0
M  V30 556 C 52.9615 0.304775 -2.04643 0
M  V30 557 C 53.3765 1.47167 -1.18268 0
M  V30 558 O 52.7335 1.81296 -0.209328 0
M  V30 559 C 52.7845 0.756564 -3.53495 0
M  V30 560 O 52.5055 -0.36389 -4.36586 0
M  V30 561 C 54.0065 1.43163 -4.19546 0
M  V30 562 H 51.2265 0.0655481 -0.667791 0
M  V30 563 H 53.7705 -0.446592 -1.99564 0
M  V30 564 H 51.9255 1.45794 -3.58919 0
M  V30 565 H 52.3395 -0.0113121 -5.24499 0
M  V30 566 H 53.8135 1.69886 -5.25207 0
M  V30 567 H 54.2905 2.37318 -3.69563 0
M  V30 568 H 54.8965 0.773307 -4.18211 0
M  V30 569 N 53.2116 1.57565 -0.0334293 0
M  V30 570 C 54.4606 1.91155 0.643639 0
M  V30 571 C 54.7736 0.91192 1.73042 0
M  V30 572 O 55.9796 1.13923 2.46442 0
M  V30 573 C 54.4356 3.39443 1.1961 0
M  V30 574 C 54.0436 4.47774 0.142381 0
M  V30 575 C 55.7876 3.82094 1.84944 0
M  V30 576 C 53.6946 5.87162 0.706727 0
M  V30 577 H 52.6246 0.713368 0.244176 0
M  V30 578 H 55.2756 1.8323 -0.0994323 0
M  V30 579 H 53.6576 3.42313 1.99092 0
M  V30 580 H 54.8316 4.56469 -0.630296 0
M  V30 581 H 53.1466 4.14352 -0.412446 0
M  V30 582 H 55.7436 4.83591 2.2813 0
M  V30 583 H 56.0866 3.17386 2.69392 0
M  V30 584 H 56.6196 3.81665 1.12145 0
M  V30 585 H 53.3586 6.55424 -0.0997178 0
M  V30 586 H 52.8786 5.82064 1.44779 0
M  V30 587 H 54.5576 6.35866 1.19514 0
M  V30 588 N 54.6897 -0.239769 1.55765 0
M  V30 589 C 55.9297 -0.974076 1.79697 0
M  V30 590 C 56.2937 -1.82249 0.604088 0
M  V30 591 O 57.4947 -2.58913 0.722324 0
M  V30 592 C 55.7657 -1.80595 3.08416 0
M  V30 593 S 57.3247 -2.59838 3.53596 0
M  V30 594 H 54.1427 -0.327524 0.63107 0
M  V30 595 H 56.7447 -0.241277 1.94005 0
M  V30 596 H 55.4487 -1.17249 3.93295 0
M  V30 597 H 54.9797 -2.58137 2.96865 0
M  V30 598 H 56.9947 -3.82987 3.15492 0
M  V30 599 N 56.1678 -1.49265 -0.50573 0
M  V30 600 C 57.4158 -1.582 -1.25766 0
M  V30 601 C 57.7368 -0.268482 -1.93143 0
M  V30 602 O 57.0068 0.711833 -1.8251 0
M  V30 603 H 55.5868 -0.582873 -0.467191 0
M  V30 604 H 58.2488 -1.85865 -0.586525 0
M  V30 605 H 57.3448 -2.37563 -2.02412 0
M  V30 606 N 57.6459 0.756429 -1.3826 0
M  V30 607 C 58.8709 1.55077 -1.37717 0
M  V30 608 C 59.2959 1.88073 0.03164 0
M  V30 609 O 58.6539 1.50364 1.01293 0
M  V30 610 C 58.7019 2.8283 -2.23695 0
M  V30 611 O 57.8059 3.77862 -1.6521 0
M  V30 612 H 57.1469 0.469152 -0.469885 0
M  V30 613 H 59.6769 0.935019 -1.81985 0
M  V30 614 H 59.6869 3.31783 -2.37453 0
M  V30 615 H 58.3619 2.58144 -3.2609 0
M  V30 616 H 56.9389 3.36555 -1.60578 0
M  V30 617 N 59.124 1.23083 0.984299 0
M  V30 618 C 60.072 1.00593 2.09723 0
M  V30 619 C 61.066 -0.0538014 1.69315 0
M  V30 620 O 62.272 0.0993719 1.79725 0
M  V30 621 H 58.647 0.30817 0.685956 0
M  V30 622 H 60.618 1.95012 2.2586 0
M  V30 623 C 59.367 0.609601 3.42314 0
M  V30 624 H 58.69 1.41675 3.73856 0
M  V30 625 H 60.13 0.491726 4.21139 0
M  V30 626 C 58.589 -0.681745 3.2993 0
M  V30 627 O 59.119 -1.73192 3.62446 0
M  V30 628 N 57.325 -0.656178 2.83095 0
M  V30 629 H 56.872 0.198759 2.56832 0
M  V30 630 H 56.83 -1.52044 2.75191 0
M  V30 631 N 60.6021 -1.18246 1.0419 0
M  V30 632 C 61.8321 -1.91916 0.764961 0
M  V30 633 C 62.2401 -1.76485 -0.681898 0
M  V30 634 O 61.5831 -1.09275 -1.47664 0
M  V30 635 C 61.6451 -3.4373 1.05309 0
M  V30 636 C 61.3091 -3.8294 2.4941 0
M  V30 637 C 62.3061 -3.86621 3.47592 0
M  V30 638 C 59.9911 -4.142 2.84155 0
M  V30 639 C 61.9851 -4.21013 4.78568 0
M  V30 640 C 59.6721 -4.48262 4.15337 0
M  V30 641 C 60.6701 -4.51645 5.12353 0
M  V30 642 O 60.3581 -4.84911 6.41183 0
M  V30 643 H 60.0901 -0.61606 0.278292 0
M  V30 644 H 62.6441 -1.50947 1.39299 0
M  V30 645 H 60.8741 -3.84946 0.367933 0
M  V30 646 H 62.5631 -3.9865 0.763752 0
M  V30 647 H 63.3291 -3.62607 3.22089 0
M  V30 648 H 59.2081 -4.10743 2.09311 0
M  V30 649 H 62.7521 -4.23568 5.54289 0
M  V30 650 H 58.6491 -4.71737 4.40607 0
M  V30 651 H 59.4171 -5.02809 6.45852 0
M  V30 652 N 62.0802 -0.821533 -1.34494 0
M  V30 653 C 63.4912 -0.467956 -1.8074 0
M  V30 654 C 63.8422 1.01151 -1.68116 0
M  V30 655 O 62.9672 1.78707 -1.22036 0
M  V30 656 C 63.5622 -0.842627 -3.28154 0
M  V30 657 C 62.1212 -0.541439 -3.72485 0
M  V30 658 C 61.2682 -1.06028 -2.56229 0
M  V30 659 H 64.2192 -1.01183 -1.22261 0
M  V30 660 H 64.2402 -0.145876 -3.8022 0
M  V30 661 H 63.7522 -1.91945 -3.37311 0
M  V30 662 H 61.8532 0.526034 -3.68868 0
M  V30 663 H 61.9662 -1.08453 -4.66663 0
M  V30 664 H 60.3302 -0.481892 -2.501 0
M  V30 665 H 61.1132 -2.14352 -2.68157 0
M  V30 666 N 63.5583 1.46682 -0.576371 0
M  V30 667 C 64.4883 2.33028 0.148397 0
M  V30 668 C 65.4693 1.44961 0.889956 0
M  V30 669 O 66.6543 1.73789 0.866662 0
M  V30 670 C 63.7843 3.27117 1.1667 0
M  V30 671 C 62.7383 4.24575 0.540386 0
M  V30 672 C 62.0643 5.08126 1.6647 0
M  V30 673 C 63.3643 5.19722 -0.518331 0
M  V30 674 H 65.0583 2.93875 -0.572509 0
M  V30 675 H 62.6043 1.41315 -0.276768 0
M  V30 676 H 64.5573 3.86374 1.68204 0
M  V30 677 H 63.2813 2.64364 1.9178 0
M  V30 678 H 61.9403 3.66571 0.0461769 0
M  V30 679 H 61.5883 4.41762 2.40531 0
M  V30 680 H 61.2883 5.74122 1.25131 0
M  V30 681 H 62.8123 5.70246 2.18293 0
M  V30 682 H 64.2263 5.73232 -0.0883058 0
M  V30 683 H 62.6233 5.94026 -0.851679 0
M  V30 684 H 63.6933 4.64037 -1.40703 0
M  V30 685 N 65.0364 0.313813 1.54444 0
M  V30 686 C 66.2614 -0.296681 2.05267 0
M  V30 687 C 66.6864 -1.45757 1.18897 0
M  V30 688 O 66.0444 -1.80239 0.195886 0
M  V30 689 C 66.0924 -0.71831 3.53373 0
M  V30 690 O 65.1964 -1.82175 3.69981 0
M  V30 691 H 64.5374 -0.0554061 0.661684 0
M  V30 692 H 67.0674 0.459387 1.99376 0
M  V30 693 H 67.0774 -1.00364 3.95463 0
M  V30 694 H 65.7524 0.130821 4.15694 0
M  V30 695 H 64.3294 -1.53598 3.39797 0
M  V30 696 N 66.5145 -1.57545 0.0417849 0
M  V30 697 C 67.7635 -1.91494 -0.633492 0
M  V30 698 C 68.0765 -0.921084 -1.72556 0
M  V30 699 O 69.2825 -1.15228 -2.45835 0
M  V30 700 C 67.7385 -3.40072 -1.17808 0
M  V30 701 C 67.3465 -4.47843 -0.118633 0
M  V30 702 C 69.0905 -3.8307 -1.82915 0
M  V30 703 C 66.9975 -5.87529 -0.675578 0
M  V30 704 H 65.9275 -0.714653 -0.24039 0
M  V30 705 H 68.5785 -1.83175 0.109148 0
M  V30 706 H 66.9605 -3.43364 -1.97274 0
M  V30 707 H 68.1345 -4.56128 0.654494 0
M  V30 708 H 66.4495 -4.14128 0.434414 0
M  V30 709 H 69.0465 -4.84794 -2.25563 0
M  V30 710 H 69.3895 -3.1881 -2.67705 0
M  V30 711 H 69.9225 -3.82255 -1.10119 0
M  V30 712 H 66.6615 -6.55362 0.134475 0
M  V30 713 H 66.1815 -5.82824 -1.4169 0
M  V30 714 H 67.8605 -6.36491 -1.1614 0
M  V30 715 N 67.9926 0.231505 -1.5589 0
M  V30 716 C 68.9556 1.27028 -1.90779 0
M  V30 717 C 69.9556 1.40308 -0.785507 0
M  V30 718 O 71.1456 1.38744 -1.05336 0
M  V30 719 C 68.2776 2.64566 -2.14983 0
M  V30 720 H 69.4706 0.973017 -2.83677 0
M  V30 721 H 67.0236 0.471486 -1.49019 0
M  V30 722 H 67.7586 2.99406 -1.24604 0
M  V30 723 H 67.5436 2.56305 -2.96732 0
M  V30 724 H 69.0336 3.39543 -2.43105 0
M  V30 725 N 69.4707 1.49531 0.497807 0
M  V30 726 C 70.7177 1.59179 1.25173 0
M  V30 727 C 71.0457 0.279932 1.92475 0
M  V30 728 O 70.3007 -0.732383 1.81479 0
M  V30 729 C 70.5997 2.70252 2.33878 0
M  V30 730 C 70.2657 4.11644 1.84012 0
M  V30 731 C 68.9277 4.50121 1.70132 0
M  V30 732 C 71.2797 5.00121 1.46725 0
M  V30 733 C 68.6077 5.74845 1.17348 0
M  V30 734 C 70.9597 6.25366 0.95392 0
M  V30 735 C 69.6237 6.6267 0.801538 0
M  V30 736 H 68.8937 0.582478 0.45804 0
M  V30 737 H 71.5407 1.83373 0.551948 0
M  V30 738 H 69.8457 2.40041 3.09657 0
M  V30 739 H 71.5427 2.74925 2.9192 0
M  V30 740 H 68.1327 3.81274 1.95775 0
M  V30 741 H 72.3167 4.71048 1.56294 0
M  V30 742 H 67.5727 6.02444 1.04264 0
M  V30 743 H 71.7467 6.93301 0.656225 0
M  V30 744 H 69.3737 7.59197 0.390351 0
M  V30 745 N 70.9488 -0.749086 1.3866 0
M  V30 746 C 72.1978 -1.50371 1.3443 0
M  V30 747 C 72.5108 -1.95503 -0.0616397 0
M  V30 748 O 73.7168 -2.70554 -0.226489 0
M  V30 749 C 72.1728 -2.71644 2.36088 0
M  V30 750 C 71.7808 -2.3352 3.82325 0
M  V30 751 C 73.5248 -3.49518 2.40909 0
M  V30 752 C 71.4318 -3.51431 4.75658 0
M  V30 753 H 70.3618 -0.564628 0.499712 0
M  V30 754 H 73.0128 -0.818449 1.64237 0
M  V30 755 H 71.3948 -3.42175 1.9933 0
M  V30 756 H 72.5688 -1.70627 4.28046 0
M  V30 757 H 70.8838 -1.6877 3.80665 0
M  V30 758 H 73.4808 -4.37197 3.07836 0
M  V30 759 H 73.8238 -3.90992 1.42937 0
M  V30 760 H 74.3568 -2.86005 2.76489 0
M  V30 761 H 71.0958 -3.15019 5.74842 0
M  V30 762 H 70.6158 -4.13352 4.34627 0
M  V30 763 H 72.2948 -4.17953 4.93887 0
M  V30 764 N 72.4269 -1.23603 -0.977757 0
M  V30 765 C 73.6729 -1.07129 -1.72195 0
M  V30 766 C 74.0059 0.390501 -1.90233 0
M  V30 767 O 73.2809 1.28902 -1.45653 0
M  V30 768 C 73.5639 -1.80031 -3.11867 0
M  V30 769 C 73.4169 -3.33899 -3.01383 0
M  V30 770 C 74.7359 -1.56492 -4.11337 0
M  V30 771 H 71.8549 -0.390571 -0.624999 0
M  V30 772 H 74.4969 -1.52142 -1.13811 0
M  V30 773 H 72.6469 -1.41768 -3.6171 0
M  V30 774 H 74.3189 -3.81699 -2.59043 0
M  V30 775 H 72.5619 -3.62796 -2.37827 0
M  V30 776 H 73.2329 -3.801 -4.00285 0
M  V30 777 H 75.7089 -1.89757 -3.70313 0
M  V30 778 H 74.5849 -2.09973 -5.07151 0
M  V30 779 H 74.8459 -0.500874 -4.39254 0
M  V30 780 N 73.905 1.17692 -1.04816 0
M  V30 781 C 75.151 1.88137 -0.75711 0
M  V30 782 C 75.484 1.80604 0.713841 0
M  V30 783 O 74.759 1.21146 1.52164 0
M  V30 784 C 75.042 3.38318 -1.2334 0
M  V30 785 C 74.895 3.54622 -2.76701 0
M  V30 786 C 76.214 4.32214 -0.829415 0
M  V30 787 H 73.333 0.683163 -0.27651 0
M  V30 788 H 75.975 1.38424 -1.30149 0
M  V30 789 H 74.125 3.80787 -0.770286 0
M  V30 790 H 75.797 3.21194 -3.31107 0
M  V30 791 H 74.04 2.97026 -3.16161 0
M  V30 792 H 74.711 4.60028 -3.05088 0
M  V30 793 H 77.187 3.97565 -1.22805 0
M  V30 794 H 76.063 5.35838 -1.19033 0
M  V30 795 H 76.324 4.41294 0.266891 0
M  V30 796 N 75.3831 0.828654 1.34056 0
M  V30 797 C 76.3311 0.242973 2.31327 0
M  V30 798 C 77.3251 -0.61944 1.57668 0
M  V30 799 O 78.5311 -0.51014 1.7262 0
M  V30 800 H 74.9061 0.059834 0.749616 0
M  V30 801 H 76.8771 1.07809 2.78244 0
M  V30 802 C 75.6261 -0.575733 3.429 0
M  V30 803 H 74.9491 0.0785582 3.99723 0
M  V30 804 H 76.3891 -0.951547 4.13185 0
M  V30 805 C 74.8481 -1.75044 2.87856 0
M  V30 806 O 75.3781 -2.84882 2.83205 0
M  V30 807 N 73.5841 -1.56903 2.44602 0
M  V30 808 H 73.1311 -0.675547 2.48584 0
M  V30 809 H 73.0891 -2.35652 2.08124 0
M  V30 810 N 76.8612 -1.46375 0.584142 0
M  V30 811 C 77.7712 -2.34115 -0.150728 0
M  V30 812 C 78.7872 -1.49838 -0.884567 0
M  V30 813 O 79.9632 -1.82704 -0.847429 0
M  V30 814 C 77.0282 -3.2705 -1.15062 0
M  V30 815 C 76.0892 -4.27228 -0.421293 0
M  V30 816 C 75.3222 -5.15722 -1.37355 0
M  V30 817 O 75.5452 -5.07176 -2.61014 0
M  V30 818 O 74.4792 -5.95383 -0.883355 0
M  V30 819 H 78.3052 -2.98309 0.569708 0
M  V30 820 H 75.8902 -1.45373 0.344535 0
M  V30 821 H 77.7722 -3.84381 -1.72712 0
M  V30 822 H 76.4472 -2.65451 -1.8525 0
M  V30 823 H 75.3542 -3.7358 0.197085 0
M  V30 824 H 76.6872 -4.91616 0.239641 0
M  V30 825 N 78.3393 -0.321999 -1.54275 0
M  V30 826 C 79.5863 0.281044 -2.0054 0
M  V30 827 C 79.9143 1.52265 -1.21019 0
M  V30 828 O 79.1693 1.93687 -0.279982 0
M  V30 829 C 79.4683 0.661769 -3.5122 0
M  V30 830 C 79.1343 -0.480482 -4.48333 0
M  V30 831 C 77.7963 -0.794005 -4.74604 0
M  V30 832 C 80.1483 -1.24783 -5.06042 0
M  V30 833 C 77.4763 -1.87763 -5.55844 0
M  V30 834 C 79.8283 -2.32153 -5.88462 0
M  V30 835 C 78.4923 -2.64089 -6.13036 0
M  V30 836 H 77.7623 0.102841 -0.733829 0
M  V30 837 H 80.4093 -0.445453 -1.86247 0
M  V30 838 H 78.7143 1.46867 -3.63232 0
M  V30 839 H 80.4113 1.13989 -3.84457 0
M  V30 840 H 77.0013 -0.226039 -4.28004 0
M  V30 841 H 81.1853 -1.01887 -4.85729 0
M  V30 842 H 76.4413 -2.12954 -5.73115 0
M  V30 843 H 80.6153 -2.92057 -6.32199 0
M  V30 844 H 78.2423 -3.48185 -6.75775 0
M  V30 845 N 79.8174 1.5752 -0.0501392 0
M  V30 846 C 81.0574 1.94521 0.627783 0
M  V30 847 C 81.4214 0.928265 1.68069 0
M  V30 848 O 82.6224 1.18517 2.41261 0
M  V30 849 C 80.8934 3.36319 1.20932 0
M  V30 850 S 82.4524 3.95272 1.90539 0
M  V30 851 H 79.2704 0.680456 0.206158 0
M  V30 852 H 81.8724 1.95139 -0.118829 0
M  V30 853 H 80.5764 4.08132 0.430865 0
M  V30 854 H 80.1074 3.39193 1.99277 0
M  V30 855 H 82.1224 3.80415 3.18589 0
M  V30 856 N 81.2955 -0.223234 1.56011 0
M  V30 857 C 82.2055 -1.29766 1.95443 0
M  V30 858 C 83.2215 -1.51373 0.858028 0
M  V30 859 O 84.3975 -1.64536 1.16146 0
M  V30 860 C 81.4625 -2.62772 2.26167 0
M  V30 861 C 80.5235 -2.49482 3.49367 0
M  V30 862 C 79.7565 -3.76145 3.78616 0
M  V30 863 O 79.9795 -4.79087 3.09568 0
M  V30 864 O 78.9135 -3.73358 4.72109 0
M  V30 865 H 82.7395 -0.99309 2.87004 0
M  V30 866 H 80.3245 -0.425958 1.43199 0
M  V30 867 H 82.2065 -3.41327 2.47131 0
M  V30 868 H 80.8815 -2.92913 1.37781 0
M  V30 869 H 79.7885 -1.69133 3.33684 0
M  V30 870 H 81.1215 -2.2428 4.38131 0
M  V30 871 N 82.7736 -1.49793 -0.48987 0
M  V30 872 C 84.1896 -1.36803 -0.822022 0
M  V30 873 C 84.3896 -0.409652 -1.97292 0
M  V30 874 O 83.4456 0.154614 -2.52026 0
M  V30 875 C 84.7586 -2.77768 -1.15175 0
M  V30 876 C 86.3066 -2.86549 -1.25931 0
M  V30 877 C 86.7816 -4.28306 -1.62228 0
M  V30 878 N 88.2726 -4.31169 -1.69256 0
M  V30 879 C 89.0076 -5.37832 -1.98807 0
M  V30 880 N 88.5036 -6.54726 -2.26507 0
M  V30 881 N 90.2966 -5.25258 -2.00152 0
M  V30 882 H 82.4476 -2.10691 0.268881 0
M  V30 883 H 84.7106 -0.946241 0.057728 0
M  V30 884 H 84.4166 -3.49648 -0.379335 0
M  V30 885 H 84.2906 -3.13836 -2.09253 0
M  V30 886 H 86.6776 -2.14899 -2.02243 0
M  V30 887 H 86.7586 -2.54049 -0.298776 0
M  V30 888 H 86.4026 -5.00486 -0.864622 0
M  V30 889 H 86.3326 -4.58279 -2.594 0
M  V30 890 H 88.8236 -3.4687 -1.49965 0
M  V30 891 H 89.1366 -7.31833 -2.48276 0
M  V30 892 H 87.4816 -6.57933 -2.23939 0
M  V30 893 H 90.6726 -4.32938 -1.77996 0
M  V30 894 H 90.8456 -6.08476 -2.22848 0
M  V30 895 N 84.2517 0.741722 -1.39055 0
M  V30 896 C 85.4987 1.50114 -1.35912 0
M  V30 897 C 85.8267 1.94443 0.0470937 0
M  V30 898 O 85.0817 1.66612 1.02659 0
M  V30 899 C 85.3807 2.7592 -2.27163 0
M  V30 900 C 85.0467 2.50493 -3.74919 0
M  V30 901 C 83.7087 2.43267 -4.1518 0
M  V30 902 C 86.0607 2.28585 -4.684 0
M  V30 903 C 83.3887 2.12166 -5.46994 0
M  V30 904 C 85.7407 1.99002 -6.00484 0
M  V30 905 C 84.4047 1.90241 -6.39816 0
M  V30 906 H 83.6747 0.549306 -0.497336 0
M  V30 907 H 86.3217 0.851896 -1.71508 0
M  V30 908 H 84.6267 3.45553 -1.84663 0
M  V30 909 H 86.3237 3.33923 -2.22028 0
M  V30 910 H 82.9137 2.56992 -3.43006 0
M  V30 911 H 87.0977 2.33139 -4.38132 0
M  V30 912 H 82.3537 2.03901 -5.76398 0
M  V30 913 H 86.5277 1.81057 -6.72452 0
M  V30 914 H 84.1547 1.65907 -7.41875 0
M  V30 915 N 85.7298 1.2412 0.971189 0
M  V30 916 C 86.9548 1.10667 1.75407 0
M  V30 917 C 87.3798 -0.337048 1.85056 0
M  V30 918 O 86.7378 -1.24396 1.31892 0
M  V30 919 C 86.7858 1.74726 3.15441 0
M  V30 920 O 85.8898 1.01566 3.99697 0
M  V30 921 H 85.2308 0.387341 0.539317 0
M  V30 922 H 87.7608 1.64358 1.2185 0
M  V30 923 H 87.7708 1.80341 3.6598 0
M  V30 924 H 86.4458 2.79773 3.07734 0
M  V30 925 H 85.0228 1.03713 3.58187 0
M  V30 926 N 87.2079 -1.17134 1.05439 0
M  V30 927 C 88.4379 -1.91094 0.785274 0
M  V30 928 C 88.8459 -1.77198 -0.663142 0
M  V30 929 O 88.1889 -1.10835 -1.46497 0
M  V30 930 C 88.2509 -3.42594 1.08949 0
M  V30 931 C 87.9149 -3.80274 2.53458 0
M  V30 932 C 88.9119 -3.82912 3.51673 0
M  V30 933 C 86.5969 -4.11162 2.88532 0
M  V30 934 C 88.5909 -4.15913 4.83006 0
M  V30 935 C 86.2779 -4.43831 4.20068 0
M  V30 936 C 87.2759 -4.46185 5.17115 0
M  V30 937 O 86.9639 -4.78083 6.46291 0
M  V30 938 H 86.6959 -0.613073 0.284811 0
M  V30 939 H 89.2499 -1.49461 1.40893 0
M  V30 940 H 87.4799 -3.84534 0.408741 0
M  V30 941 H 89.1689 -3.97817 0.805991 0
M  V30 942 H 89.9349 -3.5917 3.25917 0
M  V30 943 H 85.8139 -4.085 2.13656 0
M  V30 944 H 89.3579 -4.17665 5.5875 0
M  V30 945 H 85.2549 -4.67037 4.45586 0
M  V30 946 H 86.0229 -4.9593 6.51149 0
M  V30 947 N 88.686 -0.835752 -1.33615 0
M  V30 948 C 89.916 -0.442701 -2.01801 0
M  V30 949 C 90.324 0.959807 -1.63047 0
M  V30 950 O 89.667 1.63468 -0.838088 0
M  V30 951 C 89.729 -0.480125 -3.56279 0
M  V30 952 C 89.393 -1.8382 -4.18401 0
M  V30 953 C 90.39 -2.80097 -4.37998 0
M  V30 954 C 88.075 -2.13019 -4.54894 0
M  V30 955 C 90.069 -4.03736 -4.9323 0
M  V30 956 C 87.756 -3.36916 -5.09834 0
M  V30 957 C 88.754 -4.32091 -5.28948 0
M  V30 958 O 88.442 -5.53797 -5.82721 0
M  V30 959 H 88.174 -0.17441 -0.653114 0
M  V30 960 H 90.728 -1.129 -1.71589 0
M  V30 961 H 88.958 0.262931 -3.85805 0
M  V30 962 H 90.647 -0.105335 -4.05763 0
M  V30 963 H 91.413 -2.58838 -4.10156 0
M  V30 964 H 87.292 -1.39733 -4.39313 0
M  V30 965 H 90.836 -4.78034 -5.08064 0
M  V30 966 H 86.733 -3.58033 -5.37106 0
M  V30 967 H 87.501 -5.55494 -6.0114 0
M  V30 968 N 90.1641 1.46063 -0.591896 0
M  V30 969 C 91.4121 2.01938 -0.0808391 0
M  V30 970 C 91.7331 1.46475 1.28725 0
M  V30 971 O 91.0031 0.652944 1.84698 0
M  V30 972 H 89.5831 0.746516 -0.0268938 0
M  V30 973 H 92.2451 1.79055 -0.769752 0
M  V30 974 H 91.3411 3.12094 -0.0187578 0
M  V30 975 N 91.6422 0.330177 1.54103 0
M  V30 976 C 92.5752 -0.575477 2.20825 0
M  V30 977 C 93.5532 -1.11064 1.18758 0
M  V30 978 O 94.7372 -1.17341 1.47524 0
M  V30 979 C 91.8642 -1.79032 2.87516 0
M  V30 980 C 90.9102 -1.38581 4.03358 0
M  V30 981 S 91.7432 -0.416911 5.33875 0
M  V30 982 C 92.8992 -1.63889 6.04062 0
M  V30 983 H 93.1322 -0.00872114 2.97299 0
M  V30 984 H 90.6652 0.114254 1.53977 0
M  V30 985 H 92.6232 -2.48734 3.2656 0
M  V30 986 H 91.2842 -2.32827 2.10832 0
M  V30 987 H 90.4772 -2.29123 4.48908 0
M  V30 988 H 90.0792 -0.768419 3.66021 0
M  V30 989 H 92.3712 -2.57536 6.26643 0
M  V30 990 H 93.3142 -1.22542 6.97416 0
M  V30 991 H 93.7222 -1.82887 5.34053 0
M  V30 992 N 93.1203 -1.57491 0.0584922 0
M  V30 993 C 94.0673 -2.11958 -0.913376 0
M  V30 994 C 95.0373 -1.02875 -1.30407 0
M  V30 995 O 96.2223 -1.30464 -1.39226 0
M  V30 996 C 93.3623 -2.67497 -2.18035 0
M  V30 997 C 92.4753 -3.90691 -1.84349 0
M  V30 998 C 91.6103 -4.3452 -3.05559 0
M  V30 999 C 90.6493 -5.50395 -2.67827 0
M  V30 1000 N 89.7863 -5.89244 -3.81754 0
M  V30 1001 H 94.6263 -2.94704 -0.442017 0
M  V30 1002 H 92.1633 -1.45643 -0.206545 0
M  V30 1003 H 94.1213 -2.978 -2.92183 0
M  V30 1004 H 92.7513 -1.87537 -2.62735 0
M  V30 1005 H 91.8033 -3.66934 -1.00319 0
M  V30 1006 H 93.1153 -4.7489 -1.5258 0
M  V30 1007 H 92.2693 -4.66414 -3.87998 0
M  V30 1008 H 91.0083 -3.49147 -3.40511 0
M  V30 1009 H 90.0133 -5.18165 -1.83806 0
M  V30 1010 H 91.2383 -6.3749 -2.34059 0
M  V30 1011 H 89.1843 -5.06823 -4.16493 0
M  V30 1012 H 89.1013 -6.68151 -3.53708 0
M  V30 1013 H 90.3693 -6.25756 -4.64811 0
M  V30 1014 N 94.5984 0.214957 -1.56127 0
M  V30 1015 C 95.5614 1.24997 -1.92116 0
M  V30 1016 C 96.5614 1.39467 -0.800344 0
M  V30 1017 O 97.7514 1.37619 -1.06802 0
M  V30 1018 C 94.8834 2.62271 -2.17777 0
M  V30 1019 H 96.0764 0.942875 -2.84693 0
M  V30 1020 H 93.6294 0.455654 -1.49511 0
M  V30 1021 H 94.3644 2.98068 -1.27773 0
M  V30 1022 H 94.1494 2.53143 -2.99434 0
M  V30 1023 H 95.6394 3.36946 -2.46693 0
M  V30 1024 N 96.0765 1.50051 0.48192 0
M  V30 1025 C 97.3225 1.60736 1.2366 0
M  V30 1026 C 97.6555 0.301786 1.91841 0
M  V30 1027 O 96.9305 -0.696025 1.8162 0
M  V30 1028 C 97.2135 2.78009 2.28874 0
M  V30 1029 C 97.0665 4.18416 1.65069 0
M  V30 1030 C 98.3855 2.90867 3.30279 0
M  V30 1031 H 95.5045 0.585031 0.448228 0
M  V30 1032 H 98.1465 1.82402 0.531946 0
M  V30 1033 H 96.2965 2.59667 2.88973 0
M  V30 1034 H 97.9685 4.48322 1.0865 0
M  V30 1035 H 96.2115 4.23177 0.954148 0
M  V30 1036 H 96.8825 4.96381 2.41474 0
M  V30 1037 H 99.3585 3.07623 2.80191 0
M  V30 1038 H 98.2345 3.74566 4.01238 0
M  V30 1039 H 98.4955 2.01021 3.93755 0
M  V30 1040 N 97.5546 -0.734337 1.39446 0
M  V30 1041 C 98.4846 -1.86155 1.40955 0
M  V30 1042 C 99.4656 -1.67898 0.272827 0
M  V30 1043 O 100.651 -1.88207 0.478743 0
M  V30 1044 C 97.7806 -3.23912 1.25294 0
M  V30 1045 C 96.7346 -3.56808 2.36373 0
M  V30 1046 C 96.0606 -4.93508 2.058 0
M  V30 1047 C 97.3606 -3.59713 3.78687 0
M  V30 1048 H 99.0546 -1.8515 2.35287 0
M  V30 1049 H 96.6006 -0.889367 1.13253 0
M  V30 1050 H 98.5536 -4.02443 1.2497 0
M  V30 1051 H 97.2776 -3.25446 0.274308 0
M  V30 1052 H 95.9366 -2.80606 2.35914 0
M  V30 1053 H 95.5846 -4.91623 1.06374 0
M  V30 1054 H 95.2846 -5.16486 2.80208 0
M  V30 1055 H 96.8086 -5.74396 2.07128 0
M  V30 1056 H 98.2226 -4.2832 3.81071 0
M  V30 1057 H 96.6196 -3.94209 4.52459 0
M  V30 1058 H 97.6896 -2.59504 4.09617 0
M  V30 1059 N 99.0327 -1.24633 -0.964593 0
M  V30 1060 C 100.282 -1.08188 -1.7023 0
M  V30 1061 C 100.595 0.37873 -1.91898 0
M  V30 1062 O 101.801 0.663427 -2.6327 0
M  V30 1063 C 100.257 -1.88773 -3.06419 0
M  V30 1064 C 99.8647 -3.39263 -2.92582 0
M  V30 1065 C 101.609 -1.80867 -3.84041 0
M  V30 1066 C 99.5157 -4.1218 -4.24101 0
M  V30 1067 H 98.4457 -0.401245 -0.638372 0
M  V30 1068 H 101.097 -1.48742 -1.07462 0
M  V30 1069 H 99.4787 -1.41035 -3.70034 0
M  V30 1070 H 100.653 -3.94603 -2.37961 0
M  V30 1071 H 98.9677 -3.48154 -2.28424 0
M  V30 1072 H 101.565 -2.32646 -4.81435 0
M  V30 1073 H 101.908 -0.774543 -4.09031 0
M  V30 1074 H 102.441 -2.26301 -3.27159 0
M  V30 1075 H 99.1797 -5.15965 -4.04303 0
M  V30 1076 H 98.6997 -3.61626 -4.78526 0
M  V30 1077 H 100.379 -4.19349 -4.92702 0
M  V30 1078 N 100.511 1.16574 -1.06058 0
M  V30 1079 C 101.441 2.23057 -0.690488 0
M  V30 1080 C 102.422 1.67141 0.315901 0
M  V30 1081 O 103.607 1.93253 0.191556 0
M  V30 1082 C 100.737 3.47222 -0.073625 0
M  V30 1083 C 99.6908 4.16016 -1.00573 0
M  V30 1084 C 99.0168 5.34104 -0.252289 0
M  V30 1085 C 100.317 4.67264 -2.33371 0
M  V30 1086 H 102.011 2.54271 -1.58072 0
M  V30 1087 H 99.5568 1.22218 -0.76149 0
M  V30 1088 H 101.51 4.20939 0.19714 0
M  V30 1089 H 100.234 3.15302 0.85161 0
M  V30 1090 H 98.8928 3.44223 -1.2612 0
M  V30 1091 H 98.5408 4.98437 0.675988 0
M  V30 1092 H 98.2408 5.81072 -0.873455 0
M  V30 1093 H 99.7648 6.10599 0.0109857 0
M  V30 1094 H 101.179 5.32573 -2.12223 0
M  V30 1095 H 99.5758 5.24843 -2.90963 0
M  V30 1096 H 100.646 3.83602 -2.96611 0
M  V30 1097 N 101.989 0.842826 1.3317 0
M  V30 1098 C 103.219 0.453397 2.01564 0
M  V30 1099 C 103.627 -0.951147 1.63554 0
M  V30 1100 O 102.97 -1.63021 0.846746 0
M  V30 1101 C 103.032 0.499013 3.5602 0
M  V30 1102 C 102.696 1.86037 4.1742 0
M  V30 1103 C 103.693 2.82416 4.36506 0
M  V30 1104 C 101.378 2.15428 4.53757 0
M  V30 1105 C 103.372 4.06346 4.91082 0
M  V30 1106 C 101.059 3.39615 5.0804 0
M  V30 1107 C 102.057 4.3489 5.26649 0
M  V30 1108 O 101.745 5.5688 5.79776 0
M  V30 1109 H 101.477 0.177871 0.652179 0
M  V30 1110 H 104.031 1.13808 1.70988 0
M  V30 1111 H 102.261 -0.242467 3.85939 0
M  V30 1112 H 103.95 0.126852 4.05702 0
M  V30 1113 H 104.716 2.6101 4.08777 0
M  V30 1114 H 100.595 1.42061 4.38565 0
M  V30 1115 H 104.139 4.80722 5.05522 0
M  V30 1116 H 100.036 3.60876 5.352 0
M  V30 1117 H 100.804 5.58674 5.98185 0
M  V30 1118 N 103.467 -1.45747 0.599634 0
M  V30 1119 C 104.714 -2.02292 0.0917284 0
M  V30 1120 C 105.042 -1.46906 -1.27472 0
M  V30 1121 O 104.297 -0.630652 -1.8526 0
M  V30 1122 C 104.596 -3.57399 -0.00602758 0
M  V30 1123 C 104.262 -4.31902 1.29503 0
M  V30 1124 C 102.924 -4.51974 1.65144 0
M  V30 1125 C 105.276 -4.74551 2.15525 0
M  V30 1126 C 102.604 -5.11949 2.86574 0
M  V30 1127 C 104.956 -5.35868 3.36196 0
M  V30 1128 C 103.62 -5.54165 3.72099 0
M  V30 1129 H 102.89 -0.740239 0.0335658 0
M  V30 1130 H 105.537 -1.7491 0.779661 0
M  V30 1131 H 103.842 -3.84014 -0.777183 0
M  V30 1132 H 105.539 -3.98846 -0.415038 0
M  V30 1133 H 102.129 -4.16588 1.00761 0
M  V30 1134 H 106.313 -4.58784 1.8929 0
M  V30 1135 H 101.569 -5.24305 3.14507 0
M  V30 1136 H 105.743 -5.6787 4.03109 0
M  V30 1137 H 103.37 -6.00406 4.6628 0
M  V30 1138 N 104.945 -0.338344 -1.53925 0
M  V30 1139 C 105.875 0.51328 -2.27789 0
M  V30 1140 C 106.856 1.107 -1.29149 0
M  V30 1141 O 108.041 1.12937 -1.57984 0
M  V30 1142 C 105.171 1.66697 -3.04679 0
M  V30 1143 C 104.125 1.20183 -4.1078 0
M  V30 1144 C 103.451 2.44363 -4.75595 0
M  V30 1145 C 104.751 0.30605 -5.21403 0
M  V30 1146 H 106.445 -0.102883 -2.99223 0
M  V30 1147 H 103.991 -0.0509219 -1.4391 0
M  V30 1148 H 105.944 2.26915 -3.55088 0
M  V30 1149 H 104.668 2.30995 -2.30887 0
M  V30 1150 H 103.327 0.622499 -3.61276 0
M  V30 1151 H 102.975 3.07057 -3.98403 0
M  V30 1152 H 102.675 2.13925 -5.47275 0
M  V30 1153 H 104.199 3.05317 -5.28786 0
M  V30 1154 H 105.613 0.814929 -5.67478 0
M  V30 1155 H 104.01 0.0937929 -6.00027 0
M  V30 1156 H 105.08 -0.65921 -4.80398 0
M  V30 1157 N 106.423 1.57458 -0.0668435 0
M  V30 1158 C 107.653 1.97337 0.611677 0
M  V30 1159 C 108.061 0.943744 1.63982 0
M  V30 1160 O 107.404 -0.0785584 1.83532 0
M  V30 1161 C 107.466 3.33511 1.34205 0
M  V30 1162 C 107.13 4.54598 0.467941 0
M  V30 1163 C 108.127 5.19186 -0.272439 0
M  V30 1164 C 105.812 5.0075 0.39427 0
M  V30 1165 C 107.806 6.28274 -1.07476 0
M  V30 1166 C 105.493 6.09711 -0.411729 0
M  V30 1167 C 106.491 6.73335 -1.14492 0
M  V30 1168 O 106.179 7.80199 -1.93763 0
M  V30 1169 H 105.911 0.654042 0.170893 0
M  V30 1170 H 108.465 2.04961 -0.134289 0
M  V30 1171 H 106.695 3.22487 2.13398 0
M  V30 1172 H 108.384 3.58029 1.91233 0
M  V30 1173 H 109.15 4.84477 -0.225086 0
M  V30 1174 H 105.029 4.51009 0.954569 0
M  V30 1175 H 108.573 6.77866 -1.64755 0
M  V30 1176 H 104.47 6.43854 -0.460664 0
M  V30 1177 H 105.238 7.97053 -1.86142 0
M  V30 1178 N 107.901 -0.206675 1.56239 0
M  V30 1179 C 109.148 -0.928842 1.79941 0
M  V30 1180 C 109.476 -1.83734 0.638131 0
M  V30 1181 O 108.731 -1.92039 -0.376746 0
M  V30 1182 C 109.03 -1.78675 3.09532 0
M  V30 1183 C 108.696 -1.03022 4.38973 0
M  V30 1184 C 107.358 -0.821302 4.74139 0
M  V30 1185 C 109.71 -0.497081 5.18824 0
M  V30 1186 C 107.038 -0.0675719 5.86661 0
M  V30 1187 C 109.39 0.24338 6.32132 0
M  V30 1188 C 108.054 0.463422 6.65889 0
M  V30 1189 H 107.324 -0.339887 0.658451 0
M  V30 1190 H 109.971 -0.195977 1.90495 0
M  V30 1191 H 108.276 -2.58794 2.94165 0
M  V30 1192 H 109.973 -2.34792 3.25075 0
M  V30 1193 H 106.563 -1.20306 4.11369 0
M  V30 1194 H 110.747 -0.645921 4.92079 0
M  V30 1195 H 106.003 0.112995 6.11296 0
M  V30 1196 H 110.177 0.66393 6.93228 0
M  V30 1197 H 107.804 1.04938 7.52922 0
M  V30 1198 N 109.379 -1.50304 -0.473955 0
M  V30 1199 C 110.309 -1.71886 -1.58042 0
M  V30 1200 C 111.29 -0.567799 -1.60344 0
M  V30 1201 O 112.475 -0.806623 -1.76656 0
M  V30 1202 C 109.605 -1.81036 -2.96384 0
M  V30 1203 C 108.559 -2.962 -3.08949 0
M  V30 1204 C 107.885 -2.9049 -4.48909 0
M  V30 1205 C 109.185 -4.36752 -2.86434 0
M  V30 1206 H 110.879 -2.64527 -1.40234 0
M  V30 1207 H 108.425 -1.27295 -0.673201 0
M  V30 1208 H 110.378 -1.94719 -3.73714 0
M  V30 1209 H 109.102 -0.850147 -3.15341 0
M  V30 1210 H 107.761 -2.82164 -2.3405 0
M  V30 1211 H 107.409 -1.92321 -4.64781 0
M  V30 1212 H 107.109 -3.67802 -4.58253 0
M  V30 1213 H 108.633 -3.06218 -5.28264 0
M  V30 1214 H 110.047 -4.5133 -3.53517 0
M  V30 1215 H 108.444 -5.15493 -3.07225 0
M  V30 1216 H 109.514 -4.49321 -1.82316 0
M  V30 1217 N 110.857 0.726932 -1.39834 0
M  V30 1218 C 111.807 1.83232 -1.35683 0
M  V30 1219 C 112.791 1.59155 -0.236295 0
M  V30 1220 O 113.983 1.70522 -0.474488 0
M  V30 1221 C 111.112 3.21246 -1.21062 0
M  V30 1222 C 110.198 3.51125 -2.37849 0
M  V30 1223 N 110.589 3.51889 -3.63329 0
M  V30 1224 C 108.887 3.81527 -2.30982 0
M  V30 1225 C 109.588 3.79791 -4.40606 0
M  V30 1226 N 108.564 3.97971 -3.70297 0
M  V30 1227 H 112.366 1.8214 -2.30656 0
M  V30 1228 H 109.88 0.925545 -1.33444 0
M  V30 1229 H 111.877 4.00387 -1.16171 0
M  V30 1230 H 110.537 3.23572 -0.270458 0
M  V30 1231 H 111.548 3.33008 -3.96643 0
M  V30 1232 H 108.225 3.91411 -1.45272 0
M  V30 1233 H 109.615 3.86783 -5.49408 0
M  V30 1234 N 112.336 1.25143 0.95797 0
M  V30 1235 C 113.582 1.10863 1.70531 0
M  V30 1236 C 113.937 -0.347391 1.89238 0
M  V30 1237 O 113.23 -1.25262 1.44983 0
M  V30 1238 C 113.424 1.79272 3.09187 0
M  V30 1239 C 113.253 3.31376 3.04006 0
M  V30 1240 C 112.023 4.0062 3.07948 0
M  V30 1241 C 114.221 4.27825 2.8543 0
M  V30 1242 N 112.203 5.39526 2.9289 0
M  V30 1243 C 113.574 5.53794 2.78769 0
M  V30 1244 C 115.629 4.1828 2.70085 0
M  V30 1245 C 114.332 6.7131 2.58331 0
M  V30 1246 C 116.358 5.35485 2.51017 0
M  V30 1247 C 115.72 6.60393 2.45073 0
M  V30 1248 H 111.819 0.460362 0.632132 0
M  V30 1249 H 114.403 1.58196 1.13499 0
M  V30 1250 H 112.574 1.34439 3.64391 0
M  V30 1251 H 114.306 1.57764 3.72683 0
M  V30 1252 H 111.061 3.51855 3.17009 0
M  V30 1253 H 111.485 6.12416 2.88574 0
M  V30 1254 H 116.127 3.22461 2.73457 0
M  V30 1255 H 113.845 7.67243 2.53701 0
M  V30 1256 H 117.431 5.29959 2.40073 0
M  V30 1257 H 116.311 7.49557 2.30509 0
M  V30 1258 N 113.814 -1.1601 1.06675 0
M  V30 1259 C 114.762 -2.22586 0.675157 0
M  V30 1260 C 115.756 -1.66525 -0.310766 0
M  V30 1261 O 116.962 -1.79145 -0.175215 0
M  V30 1262 H 113.337 -0.724855 0.200223 0
M  V30 1263 H 115.308 -2.52899 1.58381 0
M  V30 1264 C 114.057 -3.47604 0.0817162 0
M  V30 1265 H 113.38 -3.91058 0.831484 0
M  V30 1266 H 114.82 -4.23718 -0.154708 0
M  V30 1267 C 113.279 -3.15718 -1.17576 0
M  V30 1268 O 113.809 -3.31878 -2.26318 0
M  V30 1269 N 112.015 -2.69816 -1.07923 0
M  V30 1270 H 111.562 -2.56866 -0.194293 0
M  V30 1271 H 111.52 -2.48855 -1.92141 0
M  V30 1272 N 115.292 -0.849877 -1.32721 0
M  V30 1273 C 116.202 -0.293791 -2.32753 0
M  V30 1274 C 117.218 0.585906 -1.63839 0
M  V30 1275 O 118.394 0.487413 -1.95413 0
M  V30 1276 C 115.459 0.512752 -3.42887 0
M  V30 1277 C 114.52 -0.39252 -4.27502 0
M  V30 1278 C 113.753 0.375625 -5.32377 0
M  V30 1279 O 113.976 1.60613 -5.4732 0
M  V30 1280 O 112.91 -0.256094 -6.01355 0
M  V30 1281 H 116.736 -1.12242 -2.82197 0
M  V30 1282 H 114.321 -0.612685 -1.36259 0
M  V30 1283 H 116.203 0.970704 -4.10067 0
M  V30 1284 H 114.878 1.31826 -2.95641 0
M  V30 1285 H 113.785 -0.898547 -3.63149 0
M  V30 1286 H 115.118 -1.16309 -4.7826 0
M  V30 1287 N 116.77 1.45427 -0.607355 0
M  V30 1288 C 118.047 1.9557 -0.0344566 0
M  V30 1289 C 118.427 1.54979 1.43334 0
M  V30 1290 O 117.775 0.812241 2.13576 0
M  V30 1291 C 117.985 3.48226 -0.232321 0
M  V30 1292 C 119.333 4.2445 -0.113001 0
M  V30 1293 O 120.357 3.55829 -0.162431 0
M  V30 1294 O 119.216 5.465 0.00209442 0
M  V30 1295 H 116.31 0.826222 0.0358667 0
M  V30 1296 H 118.856 1.55594 -0.6774 0
M  V30 1297 H 117.628 3.70739 -1.25174 0
M  V30 1298 H 117.251 3.95092 0.445896 0
M  V30 1299 N 118.248 0.346503 1.53744 0
M  V30 1300 C 119.476 -0.25041 2.05379 0
M  V30 1301 C 119.891 -1.43979 1.22129 0
M  V30 1302 O 119.248 -1.80677 0.257321 0
M  V30 1303 C 119.299 -0.662575 3.55376 0
M  V30 1304 O 119.02 0.479515 4.35468 0
M  V30 1305 C 120.521 -1.31989 4.23195 0
M  V30 1306 H 117.741 -0.0478198 0.669294 0
M  V30 1307 H 120.285 0.499346 1.9831 0
M  V30 1308 H 118.44 -1.36227 3.62658 0
M  V30 1309 H 118.854 0.15037 5.24284 0
M  V30 1310 H 120.328 -1.55902 5.29527 0
M  V30 1311 H 120.805 -2.27436 3.75725 0
M  V30 1312 H 121.411 -0.662154 4.20114 0
M  V30 1313 N 119.726 -1.57421 0.075193 0
M  V30 1314 C 120.951 -1.98364 -0.605515 0
M  V30 1315 C 121.376 -0.953383 -1.62149 0
M  V30 1316 O 120.734 0.0806053 -1.81121 0
M  V30 1317 C 120.782 -3.38332 -1.24756 0
M  V30 1318 O 119.886 -3.37959 -2.36342 0
M  V30 1319 H 119.227 -0.645553 -0.155428 0
M  V30 1320 H 121.757 -2.04044 0.150714 0
M  V30 1321 H 121.767 -3.75591 -1.5936 0
M  V30 1322 H 120.442 -4.12846 -0.503129 0
M  V30 1323 H 119.019 -3.12474 -2.03506 0
M  V30 1324 N 121.204 0.198386 -1.56346 0
M  V30 1325 C 122.432 0.935572 -1.84539 0
M  V30 1326 C 122.847 1.76989 -0.657281 0
M  V30 1327 O 122.204 1.78626 0.374043 0
M  V30 1328 C 122.255 1.8344 -3.11499 0
M  V30 1329 O 121.976 1.03377 -4.25728 0
M  V30 1330 C 123.477 2.68355 -3.52846 0
M  V30 1331 H 120.697 0.273126 -0.612897 0
M  V30 1332 H 123.241 0.20663 -2.03453 0
M  V30 1333 H 121.396 2.51701 -2.94492 0
M  V30 1334 H 121.81 1.64599 -4.98003 0
M  V30 1335 H 123.284 3.27085 -4.44657 0
M  V30 1336 H 123.761 3.41901 -2.75681 0
M  V30 1337 H 124.367 2.05471 -3.72373 0
M  V30 1338 N 122.682 1.50554 0.465978 0
M  V30 1339 C 123.907 1.65838 1.24549 0
M  V30 1340 C 124.332 0.343486 1.84937 0
M  V30 1341 O 123.69 -0.69324 1.67523 0
M  V30 1342 C 123.738 2.75533 2.32624 0
M  V30 1343 O 122.842 2.37142 3.37398 0
M  V30 1344 H 122.183 0.553893 0.366194 0
M  V30 1345 H 124.713 1.96959 0.553927 0
M  V30 1346 H 124.723 2.98763 2.77857 0
M  V30 1347 H 123.398 3.70962 1.88043 0
M  V30 1348 H 121.975 2.24377 2.97841 0
M  V30 1349 N 124.16 -0.719506 1.40217 0
M  V30 1350 C 125.409 -1.47486 1.37589 0
M  V30 1351 C 125.722 -1.9559 -0.0201568 0
M  V30 1352 O 126.928 -2.70973 -0.169049 0
M  V30 1353 C 125.384 -2.66575 2.41796 0
M  V30 1354 C 124.992 -2.25358 3.87192 0
M  V30 1355 C 126.736 -3.4433 2.48269 0
M  V30 1356 C 124.643 -3.41262 4.83005 0
M  V30 1357 H 123.573 -0.553901 0.511576 0
M  V30 1358 H 126.224 -0.783427 1.65936 0
M  V30 1359 H 124.606 -3.3787 2.06543 0
M  V30 1360 H 125.78 -1.61509 4.31569 0
M  V30 1361 H 124.095 -1.60657 3.84159 0
M  V30 1362 H 126.692 -4.30569 3.17041 0
M  V30 1363 H 127.035 -3.87872 1.51198 0
M  V30 1364 H 127.568 -2.80076 2.82493 0
M  V30 1365 H 124.307 -3.02755 5.81394 0
M  V30 1366 H 123.827 -4.0404 4.43297 0
M  V30 1367 H 125.506 -4.07383 5.02641 0
M  V30 1368 N 125.638 -1.25649 -0.95132 0
M  V30 1369 C 126.868 -1.13179 -1.72841 0
M  V30 1370 C 127.276 0.316827 -1.86528 0
M  V30 1371 O 126.619 1.22948 -1.3649 0
M  V30 1372 C 126.681 -1.71644 -3.15878 0
M  V30 1373 C 126.345 -3.20667 -3.25609 0
M  V30 1374 C 127.342 -4.17616 -3.09666 0
M  V30 1375 C 125.027 -3.6094 -3.49324 0
M  V30 1376 C 127.021 -5.52817 -3.17289 0
M  V30 1377 C 124.708 -4.96278 -3.56584 0
M  V30 1378 C 125.706 -5.92025 -3.40581 0
M  V30 1379 O 125.394 -7.24899 -3.47528 0
M  V30 1380 H 125.126 -0.395389 -0.54831 0
M  V30 1381 H 127.68 -1.66566 -1.20187 0
M  V30 1382 H 125.91 -1.12707 -3.69911 0
M  V30 1383 H 127.599 -1.54225 -3.75459 0
M  V30 1384 H 128.365 -3.87842 -2.91211 0
M  V30 1385 H 124.244 -2.86907 -3.6084 0
M  V30 1386 H 127.788 -6.2753 -3.04716 0
M  V30 1387 H 123.685 -5.25716 -3.74556 0
M  V30 1388 H 124.453 -7.33039 -3.64138 0
M  V30 1389 N 127.117 1.15442 -1.07289 0
M  V30 1390 C 128.067 2.18164 -0.662467 0
M  V30 1391 C 129.051 1.57845 0.312074 0
M  V30 1392 O 130.243 1.76552 0.125905 0
M  V30 1393 C 127.372 3.43246 -0.0611295 0
M  V30 1394 C 126.458 4.1062 -1.06077 0
M  V30 1395 N 126.849 4.53491 -2.24008 0
M  V30 1396 C 125.147 4.36949 -0.893964 0
M  V30 1397 C 125.848 5.05731 -2.87422 0
M  V30 1398 N 124.824 4.99236 -2.15091 0
M  V30 1399 H 128.626 2.49038 -1.56068 0
M  V30 1400 H 126.14 1.32003 -0.945988 0
M  V30 1401 H 128.137 4.16145 0.250792 0
M  V30 1402 H 126.797 3.13854 0.832207 0
M  V30 1403 H 127.808 4.46898 -2.6173 0
M  V30 1404 H 124.485 4.17466 -0.0534693 0
M  V30 1405 H 125.875 5.48865 -3.87553 0
M  V30 1406 N 128.595 0.856903 1.32268 0
M  V30 1407 C 129.558 0.308171 2.27119 0
M  V30 1408 C 130.558 -0.533421 1.51695 0
M  V30 1409 O 131.748 -0.344607 1.70757 0
M  V30 1410 C 128.88 -0.563757 3.36206 0
M  V30 1411 H 130.073 1.14535 2.77167 0
M  V30 1412 H 127.626 0.631421 1.42978 0
M  V30 1413 H 128.361 -1.42266 2.91429 0
M  V30 1414 H 128.146 0.0386749 3.92081 0
M  V30 1415 H 129.636 -0.940386 4.06874 0
M  V30 1416 N 130.073 -1.45103 0.615059 0
M  V30 1417 C 131.32 -2.02183 0.113179 0
M  V30 1418 C 131.648 -1.48249 -1.25906 0
M  V30 1419 O 130.903 -0.650265 -1.84581 0
M  V30 1420 C 131.202 -3.57386 0.0318797 0
M  V30 1421 C 130.868 -4.30505 1.34077 0
M  V30 1422 C 129.53 -4.50197 1.69929 0
M  V30 1423 C 131.882 -4.72238 2.20546 0
M  V30 1424 C 129.21 -5.08881 2.91988 0
M  V30 1425 C 131.562 -5.32272 3.41861 0
M  V30 1426 C 130.226 -5.50187 3.77956 0
M  V30 1427 H 129.496 -0.739842 0.0414151 0
M  V30 1428 H 132.143 -1.74073 0.798168 0
M  V30 1429 H 130.448 -3.84817 -0.736409 0
M  V30 1430 H 132.145 -3.99264 -0.372712 0
M  V30 1431 H 128.735 -4.15496 1.05173 0
M  V30 1432 H 132.919 -4.56751 1.94146 0
M  V30 1433 H 128.175 -5.20939 3.2005 0
M  V30 1434 H 132.349 -5.63563 4.09109 0
M  V30 1435 H 129.976 -5.95427 4.72622 0
M  V30 1436 N 131.551 -0.354651 -1.53558 0
M  V30 1437 C 132.776 0.242153 -2.05981 0
M  V30 1438 C 133.201 1.42553 -1.2272 0
M  V30 1439 O 132.559 1.79656 -0.243604 0
M  V30 1440 C 132.607 0.624367 -3.55154 0
M  V30 1441 O 131.711 1.72301 -3.74681 0
M  V30 1442 H 131.052 0.0378432 -0.662921 0
M  V30 1443 H 133.582 -0.512087 -1.98088 0
M  V30 1444 H 133.592 0.898433 -3.97985 0
M  V30 1445 H 132.267 -0.240989 -4.15201 0
M  V30 1446 H 130.844 1.44535 -3.4375 0
M  V30 1447 N 133.029 1.57378 -0.0835403 0
M  V30 1448 C 134.254 1.98682 0.594987 0
M  V30 1449 C 134.679 0.961969 1.61641 0
M  V30 1450 O 134.037 -0.0709989 1.81161 0
M  V30 1451 C 134.085 3.38988 1.2296 0
M  V30 1452 O 133.189 3.39208 2.34546 0
M  V30 1453 H 132.53 0.646368 0.152002 0
M  V30 1454 H 135.06 2.03961 -0.161533 0
M  V30 1455 H 135.07 3.76431 1.57366 0
M  V30 1456 H 133.745 4.13107 0.481228 0
M  V30 1457 H 132.322 3.13548 2.01846 0
M  V30 1458 N 134.507 -0.190092 1.56449 0
M  V30 1459 C 135.437 -1.23816 1.97969 0
M  V30 1460 C 136.418 -1.47201 0.852395 0
M  V30 1461 O 137.603 -1.58854 1.1171 0
M  V30 1462 C 134.733 -2.5813 2.3235 0
M  V30 1463 C 133.687 -2.49348 3.47864 0
M  V30 1464 C 133.013 -3.8798 3.67934 0
M  V30 1465 C 134.313 -2.01424 4.81898 0
M  V30 1466 H 136.007 -0.89311 2.85769 0
M  V30 1467 H 133.553 -0.428177 1.37487 0
M  V30 1468 H 135.506 -3.31637 2.59991 0
M  V30 1469 H 134.23 -2.94386 1.41438 0
M  V30 1470 H 132.889 -1.78297 3.20321 0
M  V30 1471 H 132.537 -4.21597 2.74344 0
M  V30 1472 H 132.237 -3.82978 4.45648 0
M  V30 1473 H 133.761 -4.63101 3.97957 0
M  V30 1474 H 135.175 -2.64693 5.08538 0
M  V30 1475 H 133.572 -2.07413 5.63116 0
M  V30 1476 H 134.642 -0.967677 4.75146 0
M  V30 1477 N 135.985 -1.50799 -0.457987 0
M  V30 1478 C 137.225 -1.64088 -1.21879 0
M  V30 1479 C 137.589 -0.339848 -1.88968 0
M  V30 1480 O 138.79 -0.348301 -2.66534 0
M  V30 1481 C 137.061 -2.79726 -2.2246 0
M  V30 1482 S 138.62 -3.13225 -3.07303 0
M  V30 1483 H 135.438 -0.578314 -0.41361 0
M  V30 1484 H 138.04 -1.88632 -0.513645 0
M  V30 1485 H 136.744 -3.72722 -1.71775 0
M  V30 1486 H 136.275 -2.57308 -2.97584 0
M  V30 1487 H 138.29 -2.58062 -4.23814 0
M  V30 1488 N 137.463 0.71206 -1.40597 0
M  V30 1489 C 138.693 1.49894 -1.42181 0
M  V30 1490 C 139.101 1.89189 -0.0208078 0
M  V30 1491 O 138.444 1.56223 0.966436 0
M  V30 1492 C 138.506 2.80215 -2.25211 0
M  V30 1493 C 138.17 2.63221 -3.73582 0
M  V30 1494 C 139.167 2.30249 -4.66135 0
M  V30 1495 C 136.852 2.79376 -4.17438 0
M  V30 1496 C 138.846 2.13645 -6.00529 0
M  V30 1497 C 136.533 2.6239 -5.51901 0
M  V30 1498 C 137.531 2.29573 -6.43262 0
M  V30 1499 O 137.219 2.12719 -7.75246 0
M  V30 1500 H 136.951 0.469031 -0.486812 0
M  V30 1501 H 139.505 0.88564 -1.85326 0
M  V30 1502 H 137.735 3.4389 -1.76852 0
M  V30 1503 H 139.424 3.41947 -2.18694 0
M  V30 1504 H 140.19 2.17398 -4.33547 0
M  V30 1505 H 136.069 3.03906 -3.46644 0
M  V30 1506 H 139.613 1.87953 -6.71803 0
M  V30 1507 H 135.51 2.74826 -5.84073 0
M  V30 1508 H 136.278 2.27611 -7.86216 0
M  V30 1509 N 138.941 1.26152 0.944643 0
M  V30 1510 C 140.188 1.11492 1.69044 0
M  V30 1511 C 140.516 -0.342366 1.91463 0
M  V30 1512 O 139.771 -1.26812 1.49054 0
M  V30 1513 C 140.07 1.82541 3.07268 0
M  V30 1514 C 139.736 3.32445 3.04616 0
M  V30 1515 C 138.398 3.73337 3.036 0
M  V30 1516 C 140.75 4.28171 2.97185 0
M  V30 1517 C 138.078 5.08348 2.92915 0
M  V30 1518 C 140.43 5.63218 2.88041 0
M  V30 1519 C 139.094 6.03426 2.85366 0
M  V30 1520 H 138.364 0.407977 0.618576 0
M  V30 1521 H 141.011 1.56551 1.10291 0
M  V30 1522 H 139.316 1.29941 3.69625 0
M  V30 1523 H 141.013 1.68642 3.63815 0
M  V30 1524 H 137.603 2.99915 3.06185 0
M  V30 1525 H 141.787 3.97563 2.97081 0
M  V30 1526 H 137.043 5.38667 2.89219 0
M  V30 1527 H 141.217 6.37078 2.81254 0
M  V30 1528 H 138.844 7.07999 2.76842 0
M  V30 1529 N 140.419 -1.14872 1.07899 0
M  V30 1530 C 141.647 -1.89661 0.82683 0
M  V30 1531 C 142.062 -1.78312 -0.620519 0
M  V30 1532 O 141.419 -1.13888 -1.42604 0
M  V30 1533 C 141.47 -3.39817 1.23316 0
M  V30 1534 O 141.191 -3.50845 2.62372 0
M  V30 1535 C 142.692 -4.31615 1.0111 0
M  V30 1536 H 139.912 -0.60092 0.298557 0
M  V30 1537 H 142.456 -1.4551 1.43691 0
M  V30 1538 H 140.611 -3.8161 0.667286 0
M  V30 1539 H 141.025 -4.44076 2.79101 0
M  V30 1540 H 142.499 -5.35367 1.34486 0
M  V30 1541 H 142.976 -4.39169 -0.0522168 0
M  V30 1542 H 143.582 -3.95572 1.56215 0
M  V30 1543 N 141.898 -0.863906 -1.31812 0
M  V30 1544 C 143.309 -0.52522 -1.7916 0
M  V30 1545 C 143.66 0.957518 -1.71248 0
M  V30 1546 O 142.785 1.74734 -1.27659 0
M  V30 1547 C 143.38 -0.9466 -3.25307 0
M  V30 1548 C 141.939 -0.659668 -3.70574 0
M  V30 1549 C 141.086 -1.14126 -2.52726 0
M  V30 1550 H 144.037 -1.05022 -1.1898 0
M  V30 1551 H 144.058 -0.266766 -3.79564 0
M  V30 1552 H 143.57 -2.02579 -3.31034 0
M  V30 1553 H 141.671 0.408416 -3.70355 0
M  V30 1554 H 141.784 -1.23245 -4.62977 0
M  V30 1555 H 140.148 -0.561216 -2.4844 0
M  V30 1556 H 140.931 -2.22775 -2.61201 0
M  V30 1557 N 143.376 1.44774 -0.622745 0
M  V30 1558 C 144.625 2.01334 -0.121397 0
M  V30 1559 C 144.938 1.49505 1.26125 0
M  V30 1560 O 146.144 1.98139 1.85616 0
M  V30 1561 C 144.6 3.59516 -0.166298 0
M  V30 1562 C 144.208 4.20342 -1.54974 0
M  V30 1563 C 145.952 4.23582 0.279021 0
M  V30 1564 C 143.859 5.70721 -1.55021 0
M  V30 1565 H 142.789 0.752851 -0.0416172 0
M  V30 1566 H 145.44 1.66083 -0.780309 0
M  V30 1567 H 143.822 3.92027 0.559557 0
M  V30 1568 H 144.996 3.99381 -2.29851 0
M  V30 1569 H 143.311 3.68529 -1.93843 0
M  V30 1570 H 145.908 5.33868 0.298083 0
M  V30 1571 H 146.251 3.95327 1.30471 0
M  V30 1572 H 146.784 3.95843 -0.394063 0
M  V30 1573 H 143.523 6.03698 -2.55399 0
M  V30 1574 H 143.043 5.93829 -0.844245 0
M  V30 1575 H 144.722 6.34203 -1.28047 0
M  V30 1576 N 144.854 0.36279 1.53368 0
M  V30 1577 C 145.784 -0.476976 2.28576 0
M  V30 1578 C 146.765 -1.08631 1.30894 0
M  V30 1579 O 147.95 -1.10409 1.59761 0
M  V30 1580 C 145.08 -1.61828 3.07293 0
M  V30 1581 C 144.034 -1.13633 4.1264 0
M  V30 1582 C 143.36 -2.36766 4.79423 0
M  V30 1583 C 144.66 -0.223061 5.21823 0
M  V30 1584 H 146.354 0.150474 2.99022 0
M  V30 1585 H 143.9 0.0738103 1.43811 0
M  V30 1586 H 145.853 -2.21237 3.58653 0
M  V30 1587 H 144.577 -2.27292 2.34533 0
M  V30 1588 H 143.236 -0.564945 3.62221 0
M  V30 1589 H 142.884 -3.0068 4.03238 0
M  V30 1590 H 142.584 -2.05192 5.50609 0
M  V30 1591 H 144.108 -2.96865 5.33576 0
M  V30 1592 H 145.522 -0.724545 5.68703 0
M  V30 1593 H 143.919 0.001678 6.001 0
M  V30 1594 H 144.989 0.735553 4.79289 0
M  V30 1595 N 146.332 -1.57332 0.0918853 0
M  V30 1596 C 147.58 -1.93853 -0.571446 0
M  V30 1597 C 147.901 -0.974212 -1.6892 0
M  V30 1598 O 147.171 -0.0257254 -1.95883 0
M  V30 1599 H 145.751 -0.715666 -0.214082 0
M  V30 1600 H 148.413 -1.94287 0.154464 0
M  V30 1601 H 147.509 -2.96191 -0.983729 0
M  V30 1602 N 147.81 0.181792 -1.56548 0
M  V30 1603 C 148.773 1.20894 -1.94724 0
M  V30 1604 C 149.773 1.37738 -0.829747 0
M  V30 1605 O 150.963 1.35323 -1.09697 0
M  V30 1606 C 148.095 2.57593 -2.23291 0
M  V30 1607 H 149.288 0.882275 -2.86629 0
M  V30 1608 H 146.841 0.423838 -1.50444 0
M  V30 1609 H 147.576 2.95291 -1.34067 0
M  V30 1610 H 147.361 2.46735 -3.04736 0
M  V30 1611 H 148.851 3.31637 -2.53785 0
M  V30 1612 N 149.288 1.51039 0.449983 0
M  V30 1613 C 150.251 1.70863 1.5277 0
M  V30 1614 C 151.251 0.578846 1.5002 0
M  V30 1615 O 152.441 0.846213 1.52266 0
M  V30 1616 C 149.573 1.75341 2.9235 0
M  V30 1617 H 150.766 2.67034 1.36502 0
M  V30 1618 H 148.319 1.40838 0.677812 0
M  V30 1619 H 149.054 0.809383 3.14037 0
M  V30 1620 H 148.839 2.57436 2.95752 0
M  V30 1621 H 150.329 1.92559 3.70555 0
M  V30 1622 N 150.766 -0.704594 1.40972 0
M  V30 1623 C 152.015 -1.46018 1.39146 0
M  V30 1624 C 152.328 -1.956 0.000589254 0
M  V30 1625 O 153.534 -2.71137 -0.1403 0
M  V30 1626 C 151.99 -2.63996 2.4461 0
M  V30 1627 C 151.598 -2.21238 3.89561 0
M  V30 1628 C 153.342 -3.41677 2.51907 0
M  V30 1629 C 151.249 -3.3612 4.86598 0
M  V30 1630 H 150.179 -0.548444 0.517422 0
M  V30 1631 H 152.83 -0.765784 1.66757 0
M  V30 1632 H 151.212 -3.3566 2.10115 0
M  V30 1633 H 152.386 -1.56923 4.33257 0
M  V30 1634 H 150.701 -1.56574 3.85841 0
M  V30 1635 H 153.298 -4.27182 3.2159 0
M  V30 1636 H 153.641 -3.86247 1.55303 0
M  V30 1637 H 154.174 -2.77064 2.85448 0
M  V30 1638 H 150.913 -2.96572 5.84573 0
M  V30 1639 H 150.433 -3.99315 4.47557 0
M  V30 1640 H 152.112 -4.02029 5.06934 0
M  V30 1641 N 152.244 -1.26651 -0.937939 0
M  V30 1642 C 153.207 -1.08546 -2.01867 0
M  V30 1643 C 154.207 -0.0327327 -1.60767 0
M  V30 1644 O 155.397 -0.276427 -1.71993 0
M  V30 1645 C 152.529 -0.651711 -3.34613 0
M  V30 1646 H 153.722 -2.04502 -2.1936 0
M  V30 1647 H 151.275 -1.09294 -1.11734 0
M  V30 1648 H 152.01 0.309696 -3.22818 0
M  V30 1649 H 151.795 -1.41189 -3.65798 0
M  V30 1650 H 153.285 -0.546973 -4.14002 0
M  V30 1651 N 153.722 1.14298 -1.08507 0
M  V30 1652 C 154.999 1.81544 -0.728088 0
M  V30 1653 C 155.379 1.95838 0.78808 0
M  V30 1654 O 154.727 1.51904 1.70697 0
M  V30 1655 C 154.937 3.17169 -1.45619 0
M  V30 1656 C 156.285 3.9265 -1.61591 0
M  V30 1657 O 157.309 3.26762 -1.41793 0
M  V30 1658 O 156.168 5.10807 -1.94263 0
M  V30 1659 H 153.262 0.78491 -0.260471 0
M  V30 1660 H 155.808 1.21307 -1.18671 0
M  V30 1661 H 154.58 3.01934 -2.489 0
M  V30 1662 H 154.203 3.851 -0.989124 0
M  V30 1663 N 155.201 0.870884 1.31352 0
M  V30 1664 C 156.426 0.495957 2.01383 0
M  V30 1665 C 156.851 -0.904324 1.64935 0
M  V30 1666 O 156.209 -1.59687 0.858466 0
M  V30 1667 C 156.257 0.661433 3.54482 0
M  V30 1668 O 155.361 -0.298851 4.11316 0
M  V30 1669 H 154.702 0.197158 0.634054 0
M  V30 1670 H 157.232 1.17455 1.67527 0
M  V30 1671 H 157.242 0.555072 4.04207 0
M  V30 1672 H 155.917 1.68246 3.8035 0
M  V30 1673 H 154.494 -0.147368 3.72609 0
M  V30 1674 N 156.679 -1.44442 0.630414 0
M  V30 1675 C 157.925 -2.02894 0.143332 0
M  V30 1676 C 158.28 -1.48697 -1.22094 0
M  V30 1677 O 157.573 -0.661171 -1.79831 0
M  V30 1678 C 157.767 -3.57332 0.0697835 0
M  V30 1679 C 157.596 -4.26512 1.42539 0
M  V30 1680 C 156.366 -4.63516 2.01198 0
M  V30 1681 C 158.564 -4.57004 2.35907 0
M  V30 1682 N 156.546 -5.17661 3.30001 0
M  V30 1683 C 157.917 -5.12223 3.49324 0
M  V30 1684 C 159.972 -4.38955 2.34995 0
M  V30 1685 C 158.675 -5.51295 4.62024 0
M  V30 1686 C 160.701 -4.79075 3.46758 0
M  V30 1687 C 160.063 -5.34407 4.58899 0
M  V30 1688 H 156.162 -0.776041 0.0963523 0
M  V30 1689 H 158.746 -1.75945 0.833752 0
M  V30 1690 H 156.917 -3.83894 -0.589915 0
M  V30 1691 H 158.649 -4.02451 -0.42606 0
M  V30 1692 H 155.404 -4.47811 1.54151 0
M  V30 1693 H 155.828 -5.4921 3.95851 0
M  V30 1694 H 160.47 -3.95469 1.49545 0
M  V30 1695 H 158.188 -5.93736 5.48182 0
M  V30 1696 H 161.774 -4.66824 3.47227 0
M  V30 1697 H 160.654 -5.64878 5.4395 0
M  V30 1698 N 158.157 -0.370918 -1.53173 0
M  V30 1699 C 159.087 0.464847 -2.28826 0
M  V30 1700 C 160.068 1.07936 -1.31468 0
M  V30 1701 O 161.253 1.0956 -1.60344 0
M  V30 1702 C 158.383 1.60196 -3.08147 0
M  V30 1703 C 157.337 1.11443 -4.13237 0
M  V30 1704 C 156.663 2.3422 -4.80672 0
M  V30 1705 C 157.963 0.195384 -5.21934 0
M  V30 1706 H 159.657 -0.166329 -2.98938 0
M  V30 1707 H 157.203 -0.0814359 -1.4377 0
M  V30 1708 H 159.156 2.19332 -3.59822 0
M  V30 1709 H 157.88 2.26045 -2.35735 0
M  V30 1710 H 156.539 0.545727 -3.62515 0
M  V30 1711 H 156.187 2.98537 -4.04827 0
M  V30 1712 H 155.887 2.02269 -5.51689 0
M  V30 1713 H 157.411 2.94032 -5.35143 0
M  V30 1714 H 158.825 0.694375 -5.69079 0
M  V30 1715 H 157.222 -0.0335027 -6.00091 0
M  V30 1716 H 158.292 -0.760961 -4.78892 0
M  V30 1717 N 159.635 1.57281 -0.100228 0
M  V30 1718 C 160.883 1.94153 0.561157 0
M  V30 1719 C 161.204 0.983157 1.68401 0
M  V30 1720 O 160.474 0.0361132 1.95867 0
M  V30 1721 H 159.054 0.716791 0.210283 0
M  V30 1722 H 161.716 1.94202 -0.164765 0
M  V30 1723 H 160.812 2.96709 0.968008 0
M  V30 1724 N 161.113 -0.173488 1.56642 0
M  V30 1725 C 162.06 -1.21482 1.96242 0
M  V30 1726 C 163.03 -1.44104 0.826027 0
M  V30 1727 O 164.215 -1.5688 1.08597 0
M  V30 1728 C 161.355 -2.54964 2.32567 0
M  V30 1729 C 160.468 -2.39739 3.59373 0
M  V30 1730 C 159.603 -3.66072 3.84921 0
M  V30 1731 C 158.642 -3.45771 5.05083 0
M  V30 1732 N 157.779 -4.64169 5.26775 0
M  V30 1733 H 162.619 -0.870123 2.85014 0
M  V30 1734 H 160.156 -0.418245 1.41029 0
M  V30 1735 H 162.114 -3.32758 2.5165 0
M  V30 1736 H 160.744 -2.87433 1.46908 0
M  V30 1737 H 159.796 -1.53131 3.48217 0
M  V30 1738 H 161.108 -2.20683 4.47326 0
M  V30 1739 H 160.262 -4.52303 4.0436 0
M  V30 1740 H 159.001 -3.88105 2.9534 0
M  V30 1741 H 158.006 -2.57927 4.85545 0
M  V30 1742 H 159.231 -3.25163 5.96193 0
M  V30 1743 H 157.177 -4.86425 4.40144 0
M  V30 1744 H 157.094 -4.48019 6.08946 0
M  V30 1745 H 158.362 -5.51689 5.5069 0
M  V30 1746 N 162.591 -1.51276 -0.441967 0
M  V30 1747 C 163.838 -1.63715 -1.19179 0
M  V30 1748 C 164.166 -0.351175 -1.91303 0
M  V30 1749 O 163.421 0.664524 -1.84072 0
M  V30 1750 C 163.72 -2.78746 -2.23686 0
M  V30 1751 C 163.386 -4.18189 -1.68607 0
M  V30 1752 C 162.048 -4.56125 -1.53308 0
M  V30 1753 C 164.4 -5.05222 -1.28062 0
M  V30 1754 C 161.728 -5.78804 -0.959317 0
M  V30 1755 C 164.08 -6.28476 -0.721162 0
M  V30 1756 C 162.744 -6.65188 -0.55504 0
M  V30 1757 H 162.014 -0.599076 -0.436106 0
M  V30 1758 H 164.661 -1.85296 -0.48351 0
M  V30 1759 H 162.966 -2.51369 -3.00535 0
M  V30 1760 H 164.663 -2.8557 -2.81515 0
M  V30 1761 H 161.253 -3.88277 -1.8149 0
M  V30 1762 H 165.437 -4.76524 -1.38704 0
M  V30 1763 H 160.693 -6.05899 -0.81833 0
M  V30 1764 H 164.867 -6.95259 -0.398458 0
M  V30 1765 H 162.494 -7.60123 -0.108311 0
M  V30 1766 N 164.069 0.697108 -1.41344 0
M  V30 1767 C 165.016 1.81106 -1.43071 0
M  V30 1768 C 165.986 1.63632 -0.285275 0
M  V30 1769 O 167.171 1.84504 -0.486091 0
M  V30 1770 C 164.311 3.18975 -1.31715 0
M  V30 1771 C 163.424 3.47892 -2.56115 0
M  V30 1772 C 162.559 4.75367 -2.37064 0
M  V30 1773 C 161.598 4.97247 -3.56948 0
M  V30 1774 N 160.735 6.15947 -3.36977 0
M  V30 1775 H 165.575 1.78965 -2.38276 0
M  V30 1776 H 163.112 0.873975 -1.18322 0
M  V30 1777 H 165.07 3.98615 -1.23133 0
M  V30 1778 H 163.7 3.20297 -0.401183 0
M  V30 1779 H 162.752 2.62669 -2.75153 0
M  V30 1780 H 164.064 3.59962 -3.45295 0
M  V30 1781 H 163.218 5.63059 -2.25941 0
M  V30 1782 H 161.957 4.65541 -1.45338 0
M  V30 1783 H 160.962 4.08004 -3.68527 0
M  V30 1784 H 162.187 5.08934 -4.49626 0
M  V30 1785 H 160.133 6.07336 -2.47949 0
M  V30 1786 H 160.05 6.28777 -4.19732 0
M  V30 1787 H 161.318 7.06377 -3.29623 0
M  V30 1788 N 165.547 1.27147 0.931209 0
M  V30 1789 C 166.775 1.16082 1.71267 0
M  V30 1790 C 167.19 -0.282772 1.8667 0
M  V30 1791 O 166.547 -1.19283 1.38122 0
M  V30 1792 C 166.598 1.8358 3.11417 0
M  V30 1793 O 166.319 3.22299 2.96741 0
M  V30 1794 C 167.82 1.78597 4.05732 0
M  V30 1795 H 165.04 0.403758 0.535929 0
M  V30 1796 H 167.584 1.67953 1.16671 0
M  V30 1797 H 165.739 1.35623 3.62885 0
M  V30 1798 H 166.153 3.55851 3.85319 0
M  V30 1799 H 167.627 2.30444 5.01597 0
M  V30 1800 H 168.104 0.754564 4.3267 0
M  V30 1801 H 168.71 2.26152 3.60188 0
M  V30 1802 N 167.025 -1.13721 1.09112 0
M  V30 1803 C 168.274 -1.84275 0.82009 0
M  V30 1804 C 168.587 -1.84253 -0.656509 0
M  V30 1805 O 169.793 -2.50668 -1.04296 0
M  V30 1806 C 168.249 -3.30825 1.41714 0
M  V30 1807 C 167.857 -3.39244 2.92605 0
M  V30 1808 C 169.601 -4.06443 1.22492 0
M  V30 1809 C 167.508 -4.80047 3.45411 0
M  V30 1810 H 166.438 -0.690387 0.30312 0
M  V30 1811 H 169.089 -1.28146 1.31343 0
M  V30 1812 H 167.471 -3.86737 0.851498 0
M  V30 1813 H 168.645 -2.93344 3.55367 0
M  V30 1814 H 166.96 -2.77088 3.10823 0
M  V30 1815 H 169.557 -5.10387 1.59402 0
M  V30 1816 H 169.9 -4.15972 0.165299 0
M  V30 1817 H 170.433 -3.56852 1.75788 0
M  V30 1818 H 167.172 -4.75709 4.50978 0
M  V30 1819 H 166.692 -5.26455 2.87411 0
M  V30 1820 H 168.371 -5.48957 3.42425 0
M  V30 1821 N 168.503 -0.877838 -1.30888 0
M  V30 1822 C 169.752 -0.488793 -1.95688 0
M  V30 1823 C 170.065 0.965485 -1.70111 0
M  V30 1824 O 171.271 1.46104 -2.28836 0
M  V30 1825 C 169.727 -0.823201 -3.50359 0
M  V30 1826 C 169.335 -2.29477 -3.84765 0
M  V30 1827 C 171.079 -0.503009 -4.21509 0
M  V30 1828 C 168.986 -2.57118 -5.32583 0
M  V30 1829 H 167.916 -0.179062 -0.732429 0
M  V30 1830 H 170.567 -1.07183 -1.48943 0
M  V30 1831 H 168.949 -0.169331 -3.95638 0
M  V30 1832 H 170.123 -2.99236 -3.5042 0
M  V30 1833 H 168.438 -2.58178 -3.267 0
M  V30 1834 H 171.035 -0.68665 -5.30273 0
M  V30 1835 H 171.378 0.557109 -4.12555 0
M  V30 1836 H 171.911 -1.11376 -3.8189 0
M  V30 1837 H 168.65 -3.61843 -5.4658 0
M  V30 1838 H 168.17 -1.91961 -5.68253 0
M  V30 1839 H 169.849 -2.42251 -5.99936 0
M  V30 1840 N 169.982 1.44106 -0.638065 0
M  V30 1841 C 171.212 2.06037 -0.152394 0
M  V30 1842 C 171.62 1.47808 1.18108 0
M  V30 1843 O 170.963 0.598092 1.73691 0
M  V30 1844 C 171.025 3.59488 0.0293714 0
M  V30 1845 C 170.689 4.4022 -1.22702 0
M  V30 1846 C 171.686 4.73256 -2.15232 0
M  V30 1847 C 169.371 4.8048 -1.46437 0
M  V30 1848 C 171.365 5.45444 -3.29802 0
M  V30 1849 C 169.052 5.52417 -2.61303 0
M  V30 1850 C 170.05 5.84819 -3.52811 0
M  V30 1851 O 169.738 6.55289 -4.65673 0
M  V30 1852 H 169.47 0.671233 -0.0801401 0
M  V30 1853 H 172.024 1.85851 -0.874563 0
M  V30 1854 H 170.254 3.78191 0.806758 0
M  V30 1855 H 171.943 4.03164 0.470475 0
M  V30 1856 H 172.709 4.42684 -1.98131 0
M  V30 1857 H 168.588 4.54676 -0.760977 0
M  V30 1858 H 172.132 5.70653 -4.01249 0
M  V30 1859 H 168.029 5.82404 -2.78344 0
M  V30 1860 H 168.797 6.73762 -4.64744 0
M  V30 1861 N 171.46 0.379036 1.52974 0
M  V30 1862 C 172.39 -0.452706 2.29069 0
M  V30 1863 C 173.371 -1.07237 1.32039 0
M  V30 1864 O 174.556 -1.08708 1.60923 0
M  V30 1865 C 171.686 -1.5856 3.08992 0
M  V30 1866 C 170.64 -1.0925 4.13822 0
M  V30 1867 C 169.966 -2.31668 4.81907 0
M  V30 1868 C 171.266 -0.167702 5.22031 0
M  V30 1869 H 172.96 0.182181 2.98845 0
M  V30 1870 H 170.506 0.0890592 1.43724 0
M  V30 1871 H 172.459 -2.1742 3.6098 0
M  V30 1872 H 171.183 -2.24792 2.36931 0
M  V30 1873 H 169.842 -0.526494 3.628 0
M  V30 1874 H 169.49 -2.96386 4.06404 0
M  V30 1875 H 169.19 -1.9934 5.52754 0
M  V30 1876 H 170.714 -2.91189 5.36695 0
M  V30 1877 H 172.128 -0.664186 5.6944 0
M  V30 1878 H 170.525 0.0653265 6.00064 0
M  V30 1879 H 171.595 0.786347 4.78482 0
M  V30 1880 N 172.938 -1.57226 0.108567 0
M  V30 1881 C 174.163 -1.99604 -0.563303 0
M  V30 1882 C 174.588 -0.987563 -1.6009 0
M  V30 1883 O 173.946 0.0421687 -1.81251 0
M  V30 1884 C 173.994 -3.40902 -1.17552 0
M  V30 1885 O 173.098 -3.42896 -2.2912 0
M  V30 1886 H 172.439 -0.648704 -0.1417 0
M  V30 1887 H 174.969 -2.03679 0.193961 0
M  V30 1888 H 174.979 -3.78886 -1.51357 0
M  V30 1889 H 173.654 -4.1382 -0.415445 0
M  V30 1890 H 172.231 -3.1672 -1.96832 0
M  V30 1891 N 174.416 0.165178 -1.56732 0
M  V30 1892 C 175.346 1.20651 -1.99914 0
M  V30 1893 C 176.327 1.45827 -0.875705 0
M  V30 1894 O 177.512 1.57057 -1.14223 0
M  V30 1895 C 174.642 2.54401 -2.36427 0
M  V30 1896 C 173.596 2.43782 -3.51787 0
M  V30 1897 C 172.922 3.82078 -3.7406 0
M  V30 1898 C 174.222 1.93732 -4.85041 0
M  V30 1899 H 175.916 0.847534 -2.87154 0
M  V30 1900 H 173.462 0.40625 -1.38151 0
M  V30 1901 H 175.415 3.27458 -2.65234 0
M  V30 1902 H 174.139 2.92098 -1.46103 0
M  V30 1903 H 172.798 1.73178 -3.23117 0
M  V30 1904 H 172.446 4.17179 -2.81017 0
M  V30 1905 H 172.146 3.7584 -4.51684 0
M  V30 1906 H 173.67 4.56712 -4.05274 0
M  V30 1907 H 175.084 2.56569 -5.12684 0
M  V30 1908 H 173.481 1.98428 -5.66345 0
M  V30 1909 H 174.551 0.891962 -4.76626 0
M  V30 1910 N 175.894 1.51508 0.433938 0
M  V30 1911 C 177.14 1.64588 1.18484 0
M  V30 1912 C 177.473 0.362666 1.90784 0
M  V30 1913 O 176.748 -0.637892 1.83742 0
M  V30 1914 C 177.031 2.85149 2.19913 0
M  V30 1915 C 176.884 4.23456 1.51674 0
M  V30 1916 C 178.203 3.01227 3.20858 0
M  V30 1917 H 175.322 0.598994 0.429389 0
M  V30 1918 H 177.964 1.84002 0.473647 0
M  V30 1919 H 176.114 2.68729 2.80566 0
M  V30 1920 H 177.786 4.51552 0.943322 0
M  V30 1921 H 176.029 4.25998 0.819035 0
M  V30 1922 H 176.7 5.03812 2.2556 0
M  V30 1923 H 179.176 3.16382 2.70263 0
M  V30 1924 H 178.052 3.87141 3.89118 0
M  V30 1925 H 178.313 2.13447 3.8716 0
M  V30 1926 N 177.372 -0.689602 1.41712 0
M  V30 1927 C 178.602 -1.47613 1.44548 0
M  V30 1928 C 179.01 -1.89132 0.0509034 0
M  V30 1929 O 178.353 -1.57741 -0.94146 0
M  V30 1930 C 178.415 -2.76596 2.2964 0
M  V30 1931 C 178.079 -2.57245 3.77722 0
M  V30 1932 C 179.076 -2.22804 4.69739 0
M  V30 1933 C 176.761 -2.727 4.2183 0
M  V30 1934 C 178.755 -2.04064 6.03851 0
M  V30 1935 C 176.442 -2.53576 5.56006 0
M  V30 1936 C 177.44 -2.1931 6.46832 0
M  V30 1937 O 177.128 -2.00359 7.78532 0
M  V30 1938 H 176.86 -0.461227 0.494212 0
M  V30 1939 H 179.414 -0.856045 1.86711 0
M  V30 1940 H 177.644 -3.41033 1.82301 0
M  V30 1941 H 179.333 -3.38424 2.24107 0
M  V30 1942 H 180.099 -2.10473 4.36951 0
M  V30 1943 H 175.978 -2.98353 3.51435 0
M  V30 1944 H 179.522 -1.77241 6.74708 0
M  V30 1945 H 175.419 -2.65499 5.88371 0
M  V30 1946 H 176.187 -2.15075 7.89737 0
M  V30 1947 N 178.85 -1.27639 -0.924453 0
M  V30 1948 C 180.096 -1.14336 -1.67497 0
M  V30 1949 C 180.429 0.309465 -1.91718 0
M  V30 1950 O 179.704 1.22608 -1.50989 0
M  V30 1951 C 179.987 -1.93096 -3.0395 0
M  V30 1952 C 179.84 -3.46381 -2.8695 0
M  V30 1953 C 181.159 -1.73798 -4.0433 0
M  V30 1954 H 178.278 -0.416728 -0.607871 0
M  V30 1955 H 180.92 -1.56832 -1.07256 0
M  V30 1956 H 179.07 -1.56982 -3.55372 0
M  V30 1957 H 180.742 -3.92343 -2.42621 0
M  V30 1958 H 178.985 -3.72557 -2.22225 0
M  V30 1959 H 179.656 -3.96735 -3.83804 0
M  V30 1960 H 182.132 -2.05293 -3.61931 0
M  V30 1961 H 181.008 -2.31294 -4.97789 0
M  V30 1962 H 181.269 -0.686725 -4.36734 0
M  V30 1963 N 180.328 1.1314 -1.09713 0
M  V30 1964 C 181.258 2.20748 -0.761102 0
M  V30 1965 C 182.239 1.68061 0.262566 0
M  V30 1966 O 183.424 1.93765 0.129977 0
M  V30 1967 C 180.554 3.46812 -0.184054 0
M  V30 1968 C 179.508 4.12606 -1.13757 0
M  V30 1969 C 178.834 5.33031 -0.422083 0
M  V30 1970 C 180.134 4.59603 -2.48118 0
M  V30 1971 H 181.828 2.49113 -1.66082 0
M  V30 1972 H 179.374 1.19734 -0.799987 0
M  V30 1973 H 181.327 4.21353 0.0631215 0
M  V30 1974 H 180.051 3.17851 0.750868 0
M  V30 1975 H 178.71 3.40036 -1.37007 0
M  V30 1976 H 178.358 5.00335 0.517072 0
M  V30 1977 H 178.058 5.77999 -1.05788 0
M  V30 1978 H 179.582 6.10325 -0.183277 0
M  V30 1979 H 180.996 5.25552 -2.29059 0
M  V30 1980 H 179.393 5.15321 -3.07514 0
M  V30 1981 H 180.463 3.73971 -3.08665 0
M  V30 1982 N 181.806 0.884767 1.30421 0
M  V30 1983 C 183.054 0.502112 1.95763 0
M  V30 1984 C 183.375 -0.951815 1.70192 0
M  V30 1985 O 182.645 -1.6692 1.0254 0
M  V30 1986 H 181.225 0.182694 0.724315 0
M  V30 1987 H 183.887 1.1278 1.58955 0
M  V30 1988 H 182.983 0.672188 3.04775 0
M  V30 1989 N 183.284 -1.43765 0.645699 0
M  V30 1990 C 184.234 -2.27884 -0.0726442 0
M  V30 1991 C 185.218 -1.39483 -0.802086 0
M  V30 1992 O 186.41 -1.63174 -0.685791 0
M  V30 1993 C 183.539 -3.27055 -1.04356 0
M  V30 1994 C 182.625 -4.22944 -0.312985 0
M  V30 1995 N 183.016 -5.01391 0.666386 0
M  V30 1996 C 181.314 -4.42528 -0.55546 0
M  V30 1997 C 182.015 -5.71217 1.09935 0
M  V30 1998 N 180.991 -5.41856 0.435137 0
M  V30 1999 H 184.793 -2.85949 0.678988 0
M  V30 2000 H 182.307 -1.55378 0.472368 0
M  V30 2001 H 184.304 -3.86089 -1.57292 0
M  V30 2002 H 182.964 -2.70551 -1.79534 0
M  V30 2003 H 183.975 -5.07252 1.04481 0
M  V30 2004 H 180.652 -3.97104 -1.28899 0
M  V30 2005 H 182.042 -6.44202 1.90929 0
M  V30 2006 N 184.763 -0.387143 -1.52771 0
M  V30 2007 C 186.009 0.196025 -2.0185 0
M  V30 2008 C 186.342 1.46641 -1.27319 0
M  V30 2009 O 185.617 1.90889 -0.373032 0
M  V30 2010 C 185.9 0.466136 -3.5707 0
M  V30 2011 C 185.753 -0.819385 -4.42274 0
M  V30 2012 C 187.072 1.25768 -4.21747 0
M  V30 2013 H 184.191 0.0697708 -0.73369 0
M  V30 2014 H 186.833 -0.516286 -1.82851 0
M  V30 2015 H 184.983 1.07293 -3.7339 0
M  V30 2016 H 186.655 -1.4563 -4.37709 0
M  V30 2017 H 184.898 -1.43517 -4.09372 0
M  V30 2018 H 185.569 -0.585065 -5.48891 0
M  V30 2019 H 188.045 0.744167 -4.09391 0
M  V30 2020 H 186.921 1.41541 -5.30337 0
M  V30 2021 H 187.182 2.27228 -3.79236 0
M  V30 2022 N 186.241 1.57166 -0.116904 0
M  V30 2023 C 187.49 1.94298 0.541407 0
M  V30 2024 C 187.803 1.00236 1.67964 0
M  V30 2025 O 189.009 1.26826 2.40057 0
M  V30 2026 C 187.465 3.45306 1.01449 0
M  V30 2027 C 187.073 4.47899 -0.0951738 0
M  V30 2028 C 188.817 3.91361 1.6443 0
M  V30 2029 C 186.724 5.90083 0.394491 0
M  V30 2030 H 185.654 0.725308 0.206019 0
M  V30 2031 H 188.305 1.82446 -0.196419 0
M  V30 2032 H 186.687 3.52385 1.80667 0
M  V30 2033 H 187.861 4.52486 -0.871374 0
M  V30 2034 H 186.176 4.11583 -0.631505 0
M  V30 2035 H 188.773 4.95004 2.02176 0
M  V30 2036 H 189.116 3.3122 2.52189 0
M  V30 2037 H 189.649 3.87073 0.917559 0
M  V30 2038 H 186.388 6.53974 -0.447004 0
M  V30 2039 H 185.908 5.88921 1.13722 0
M  V30 2040 H 187.587 6.41307 0.856399 0
M  V30 2041 N 187.719 -0.156864 1.56817 0
M  V30 2042 C 188.666 -1.19394 1.97519 0
M  V30 2043 C 189.636 -1.4322 0.841265 0
M  V30 2044 O 190.821 -1.55719 1.10255 0
M  V30 2045 C 187.961 -2.52483 2.35258 0
M  V30 2046 C 187.074 -2.35914 3.61896 0
M  V30 2047 C 186.209 -3.61969 3.88782 0
M  V30 2048 C 185.248 -3.40395 5.08722 0
M  V30 2049 N 184.385 -4.58556 5.31668 0
M  V30 2050 H 189.225 -0.839845 2.85921 0
M  V30 2051 H 186.762 -0.403264 1.41464 0
M  V30 2052 H 188.72 -3.30071 2.55165 0
M  V30 2053 H 187.35 -2.85859 1.49949 0
M  V30 2054 H 186.402 -1.49429 3.49821 0
M  V30 2055 H 187.714 -2.15926 4.49641 0
M  V30 2056 H 186.868 -4.47989 4.09135 0
M  V30 2057 H 185.607 -3.84951 2.9944 0
M  V30 2058 H 184.612 -2.52763 4.88253 0
M  V30 2059 H 185.837 -3.18822 5.99608 0
M  V30 2060 H 183.783 -4.81729 4.45279 0
M  V30 2061 H 183.7 -4.41535 6.13664 0
M  V30 2062 H 184.968 -5.45817 5.5651 0
M  V30 2063 N 189.197 -1.51736 -0.425897 0
M  V30 2064 C 190.422 -1.69082 -1.20108 0
M  V30 2065 C 190.847 -0.392398 -1.83962 0
M  V30 2066 O 190.205 0.64858 -1.69302 0
M  V30 2067 C 190.253 -2.81604 -2.25237 0
M  V30 2068 O 189.357 -2.46004 -3.30992 0
M  V30 2069 H 188.698 -0.563408 -0.35138 0
M  V30 2070 H 191.228 -1.98358 -0.501512 0
M  V30 2071 H 191.238 -3.06025 -2.69838 0
M  V30 2072 H 189.913 -3.75817 -1.78142 0
M  V30 2073 H 188.49 -2.32195 -2.91787 0
M  V30 2074 N 190.675 0.682077 -1.42076 0
M  V30 2075 C 191.605 1.80796 -1.47767 0
M  V30 2076 C 192.586 1.6677 -0.334954 0
M  V30 2077 O 193.771 1.863 -0.548264 0
M  V30 2078 C 190.901 3.19038 -1.37229 0
M  V30 2079 C 189.855 3.47789 -2.49453 0
M  V30 2080 C 189.181 4.8553 -2.23975 0
M  V30 2081 C 190.481 3.45411 -3.91776 0
M  V30 2082 H 192.175 1.7629 -2.41997 0
M  V30 2083 H 189.721 0.846721 -1.16476 0
M  V30 2084 H 191.674 3.97528 -1.39821 0
M  V30 2085 H 190.398 3.24204 -0.394907 0
M  V30 2086 H 189.057 2.71657 -2.46166 0
M  V30 2087 H 188.705 4.87337 -1.24547 0
M  V30 2088 H 188.405 5.0573 -2.99184 0
M  V30 2089 H 189.929 5.66312 -2.28304 0
M  V30 2090 H 191.343 4.13882 -3.96705 0
M  V30 2091 H 189.74 3.77145 -4.66778 0
M  V30 2092 H 190.81 2.44122 -4.18966 0
M  V30 2093 N 192.153 1.28127 0.917671 0
M  V30 2094 C 193.401 1.14825 1.66312 0
M  V30 2095 C 193.722 -0.304379 1.9261 0
M  V30 2096 O 192.992 -1.21149 1.53947 0
M  V30 2097 H 191.572 0.421953 0.616413 0
M  V30 2098 H 194.234 1.608 1.10134 0
M  V30 2099 H 193.33 1.68489 2.62712 0
M  V30 2100 N 193.631 -1.12557 1.10312 0
M  V30 2101 C 194.594 -2.16434 0.75424 0
M  V30 2102 C 195.594 -1.59278 -0.220685 0
M  V30 2103 O 196.784 -1.742 0.00230591 0
M  V30 2104 C 193.916 -3.40699 0.116987 0
M  V30 2105 H 195.109 -2.48811 1.67431 0
M  V30 2106 H 192.662 -1.27542 0.903475 0
M  V30 2107 H 193.397 -3.13921 -0.813877 0
M  V30 2108 H 193.182 -3.83459 0.818613 0
M  V30 2109 H 194.672 -4.17451 -0.111387 0
M  V30 2110 N 195.109 -0.891671 -1.2995 0
M  V30 2111 C 196.039 -0.379797 -2.30391 0
M  V30 2112 C 197.02 0.540919 -1.6127 0
M  V30 2113 O 198.205 0.453352 -1.88834 0
M  V30 2114 C 195.335 0.400654 -3.44981 0
M  V30 2115 C 194.289 -0.428905 -4.25846 0
M  V30 2116 C 193.615 0.478557 -5.32554 0
M  V30 2117 C 194.915 -1.67458 -4.94727 0
M  V30 2118 H 196.609 -1.21914 -2.73454 0
M  V30 2119 H 194.155 -0.587675 -1.31462 0
M  V30 2120 H 196.108 0.769434 -4.14316 0
M  V30 2121 H 194.832 1.27371 -3.0074 0
M  V30 2122 H 193.491 -0.779911 -3.58208 0
M  V30 2123 H 193.139 1.34951 -4.84559 0
M  V30 2124 H 192.839 -0.0727433 -5.87555 0
M  V30 2125 H 194.363 0.843705 -6.04743 0
M  V30 2126 H 195.777 -1.376 -5.56542 0
M  V30 2127 H 194.174 -2.16659 -5.59624 0
M  V30 2128 H 195.244 -2.41518 -4.20473 0
M  V30 2129 N 196.587 1.43421 -0.653314 0
M  V30 2130 C 197.998 1.85065 -0.246537 0
M  V30 2131 C 198.349 1.54688 1.2069 0
M  V30 2132 O 197.474 0.995896 1.92122 0
M  V30 2133 C 198.069 3.35922 -0.440666 0
M  V30 2134 C 196.628 3.76297 -0.0882064 0
M  V30 2135 C 195.775 2.67147 -0.743484 0
M  V30 2136 H 198.726 1.33572 -0.856979 0
M  V30 2137 H 198.747 3.79204 0.313798 0
M  V30 2138 H 198.259 3.58 -1.49858 0
M  V30 2139 H 196.36 3.5983 0.96711 0
M  V30 2140 H 196.473 4.76338 -0.513738 0
M  V30 2141 H 194.837 2.54086 -0.176712 0
M  V30 2142 H 195.62 2.92053 -1.80443 0
M  V30 2143 N 198.065 0.39524 1.52563 0
M  V30 2144 C 199.314 -0.186321 2.00838 0
M  V30 2145 C 199.627 -1.47402 1.28577 0
M  V30 2146 O 200.833 -2.13599 1.67593 0
M  V30 2147 C 199.289 -0.382595 3.57861 0
M  V30 2148 C 198.897 0.892202 4.39026 0
M  V30 2149 C 200.641 -0.9202 4.14406 0
M  V30 2150 C 198.548 0.66388 5.87662 0
M  V30 2151 H 197.478 -0.0734041 0.750418 0
M  V30 2152 H 200.129 0.518552 1.76021 0
M  V30 2153 H 198.511 -1.14946 3.7895 0
M  V30 2154 H 199.685 1.66414 4.29701 0
M  V30 2155 H 198 1.35519 3.9373 0
M  V30 2156 H 200.597 -1.10683 5.23119 0
M  V30 2157 H 200.94 -1.89096 3.70875 0
M  V30 2158 H 201.473 -0.212751 3.97231 0
M  V30 2159 H 198.212 1.6058 6.35527 0
M  V30 2160 H 197.732 -0.0690193 5.9976 0
M  V30 2161 H 199.411 0.300699 6.46301 0
M  V30 2162 N 199.544 -1.57102 0.125237 0
M  V30 2163 C 200.474 -2.18659 -0.819174 0
M  V30 2164 C 201.455 -1.12843 -1.27281 0
M  V30 2165 O 202.64 -1.41104 -1.33429 0
M  V30 2166 C 199.77 -2.79096 -2.06695 0
M  V30 2167 C 198.724 -3.90548 -1.75088 0
M  V30 2168 C 198.05 -4.37821 -3.06948 0
M  V30 2169 C 199.35 -5.12356 -1.01435 0
M  V30 2170 H 201.044 -2.9783 -0.306202 0
M  V30 2171 H 198.59 -1.4326 -0.145839 0
M  V30 2172 H 200.543 -3.2082 -2.73226 0
M  V30 2173 H 199.267 -1.97223 -2.60328 0
M  V30 2174 H 197.926 -3.49409 -1.10944 0
M  V30 2175 H 197.574 -3.52799 -3.58527 0
M  V30 2176 H 197.274 -5.12982 -2.86571 0
M  V30 2177 H 198.798 -4.822 -3.74587 0
M  V30 2178 H 200.212 -5.5106 -1.58132 0
M  V30 2179 H 198.609 -5.9314 -0.911319 0
M  V30 2180 H 199.679 -4.849 -0.00218681 0
M  V30 2181 N 201.022 0.148545 -1.56898 0
M  V30 2182 C 202.27 0.859717 -1.82902 0
M  V30 2183 C 202.591 1.81775 -0.70588 0
M  V30 2184 O 201.861 1.93994 0.272586 0
M  V30 2185 H 200.441 0.320469 -0.674766 0
M  V30 2186 H 203.103 0.142918 -1.94375 0
M  V30 2187 H 202.199 1.4229 -2.77777 0
M  V30 2188 N 202.5 1.5196 0.417844 0
M  V30 2189 C 203.748 1.65263 1.16329 0
M  V30 2190 C 204.069 0.380634 1.91249 0
M  V30 2191 O 203.339 -0.604214 1.86349 0
M  V30 2192 H 201.919 0.60912 0.432414 0
M  V30 2193 H 204.581 1.88969 0.477162 0
M  V30 2194 H 203.677 2.4896 1.88217 0
M  V30 2195 N 203.978 -0.674533 1.42435 0
M  V30 2196 C 204.91 -1.80005 1.41883 0
M  V30 2197 C 205.923 -1.59667 0.31787 0
M  V30 2198 O 207.112 -1.68781 0.580973 0
M  V30 2199 C 204.212 -3.17114 1.19549 0
M  V30 2200 C 203.385 -3.64299 2.42084 0
M  V30 2201 C 202.444 -4.80142 2.15291 0
M  V30 2202 O 201.47 -4.90673 2.88493 0
M  V30 2203 N 202.672 -5.68869 1.1562 0
M  V30 2204 H 205.437 -1.80964 2.38898 0
M  V30 2205 H 202.998 -0.857633 1.37318 0
M  V30 2206 H 204.99 -3.92267 0.995417 0
M  V30 2207 H 203.56 -3.11053 0.310569 0
M  V30 2208 H 202.78 -2.79822 2.77657 0
M  V30 2209 H 204.068 -3.92567 3.23679 0
M  V30 2210 H 203.466 -5.63012 0.550765 0
M  V30 2211 H 202.023 -6.43833 1.016 0
M  V30 2212 N 205.456 -1.28612 -0.910864 0
M  V30 2213 C 206.702 -1.16106 -1.66274 0
M  V30 2214 C 207.035 0.289113 -1.92036 0
M  V30 2215 O 206.31 1.21 -1.52281 0
M  V30 2216 C 206.593 -1.96309 -3.01885 0
M  V30 2217 C 206.446 -3.49405 -2.8326 0
M  V30 2218 C 207.765 -1.78076 -4.02463 0
M  V30 2219 H 204.884 -0.423152 -0.603417 0
M  V30 2220 H 207.526 -1.57961 -1.05586 0
M  V30 2221 H 205.676 -1.60742 -3.53687 0
M  V30 2222 H 207.348 -3.94894 -2.38446 0
M  V30 2223 H 205.591 -3.74893 -2.18261 0
M  V30 2224 H 206.262 -4.00784 -3.79574 0
M  V30 2225 H 208.738 -2.0912 -3.59733 0
M  V30 2226 H 207.614 -2.36561 -4.95308 0
M  V30 2227 H 207.875 -0.733008 -4.35981 0
M  V30 2228 N 206.934 1.1197 -1.10907 0
M  V30 2229 C 208.18 1.8386 -0.855773 0
M  V30 2230 C 208.513 1.84134 0.617103 0
M  V30 2231 O 207.788 1.29041 1.45529 0
M  V30 2232 C 208.071 3.31305 -1.411 0
M  V30 2233 C 207.924 3.39456 -2.9511 0
M  V30 2234 C 209.243 4.2721 -1.05736 0
M  V30 2235 H 206.362 0.667545 -0.312334 0
M  V30 2236 H 209.004 1.31331 -1.37303 0
M  V30 2237 H 207.154 3.76169 -0.97105 0
M  V30 2238 H 208.826 3.03191 -3.47668 0
M  V30 2239 H 207.069 2.79849 -3.31462 0
M  V30 2240 H 207.74 4.43209 -3.29044 0
M  V30 2241 H 210.216 3.90497 -1.43706 0
M  V30 2242 H 209.092 5.28775 -1.47269 0
M  V30 2243 H 209.353 4.42088 0.0325958 0
M  V30 2244 N 208.412 0.89855 1.29475 0
M  V30 2245 C 209.362 0.346767 2.25348 0
M  V30 2246 C 210.346 -0.532509 1.51833 0
M  V30 2247 O 211.538 -0.374714 1.72988 0
M  V30 2248 C 208.667 -0.425681 3.40651 0
M  V30 2249 C 207.753 0.46845 4.21505 0
M  V30 2250 N 208.144 1.57514 4.80648 0
M  V30 2251 C 206.442 0.26603 4.45206 0
M  V30 2252 C 207.143 2.12889 5.41344 0
M  V30 2253 N 206.119 1.42208 5.24669 0
M  V30 2254 H 209.921 1.19219 2.68634 0
M  V30 2255 H 207.435 0.749473 1.44072 0
M  V30 2256 H 209.432 -0.837716 4.08397 0
M  V30 2257 H 208.092 -1.26838 2.98902 0
M  V30 2258 H 209.103 1.95789 4.79465 0
M  V30 2259 H 205.78 -0.538394 4.14014 0
M  V30 2260 H 207.17 3.05901 5.98226 0
M  V30 2261 N 209.89 -1.43072 0.660911 0
M  V30 2262 C 211.118 -2.06067 0.185422 0
M  V30 2263 C 211.533 -1.49582 -1.15198 0
M  V30 2264 O 210.89 -0.630134 -1.71276 0
M  V30 2265 C 210.941 -3.61371 0.0966523 0
M  V30 2266 O 210.662 -4.15758 1.38119 0
M  V30 2267 C 212.163 -4.41455 -0.403996 0
M  V30 2268 H 209.383 -0.664459 0.0934604 0
M  V30 2269 H 211.927 -1.83447 0.90373 0
M  V30 2270 H 210.082 -3.8315 -0.572259 0
M  V30 2271 H 210.496 -5.09499 1.24542 0
M  V30 2272 H 211.97 -5.50437 -0.415045 0
M  V30 2273 H 212.447 -4.15036 -1.43674 0
M  V30 2274 H 213.053 -4.24663 0.232691 0
M  V30 2275 N 211.368 -0.403325 -1.52352 0
M  V30 2276 C 212.614 0.174605 -2.02047 0
M  V30 2277 C 212.947 1.45282 -1.28867 0
M  V30 2278 O 212.222 1.90483 -0.393257 0
M  V30 2279 C 212.505 0.428238 -3.57545 0
M  V30 2280 C 212.358 -0.866248 -4.4138 0
M  V30 2281 C 213.677 1.21287 -4.23057 0
M  V30 2282 H 210.796 0.0619851 -0.734389 0
M  V30 2283 H 213.438 -0.53565 -1.82293 0
M  V30 2284 H 211.588 1.03327 -3.74507 0
M  V30 2285 H 213.26 -1.50265 -4.3614 0
M  V30 2286 H 211.503 -1.47851 -4.07827 0
M  V30 2287 H 212.174 -0.643249 -5.48239 0
M  V30 2288 H 214.65 0.700703 -4.10158 0
M  V30 2289 H 213.526 1.35909 -5.31808 0
M  V30 2290 H 213.787 2.23193 -3.81625 0
M  V30 2291 N 212.846 1.57033 -0.133567 0
M  V30 2292 C 213.776 2.1909 0.807567 0
M  V30 2293 C 214.757 1.13517 1.26681 0
M  V30 2294 O 215.942 1.41809 1.32679 0
M  V30 2295 C 213.072 2.80188 2.05212 0
M  V30 2296 C 212.026 3.91471 1.73015 0
M  V30 2297 C 211.352 4.39443 3.04622 0
M  V30 2298 C 212.652 5.12886 0.987168 0
M  V30 2299 H 214.346 2.97988 0.290403 0
M  V30 2300 H 211.892 1.43335 0.138239 0
M  V30 2301 H 213.845 3.22264 2.71521 0
M  V30 2302 H 212.569 1.98601 2.59278 0
M  V30 2303 H 211.228 3.49993 1.0909 0
M  V30 2304 H 210.876 3.54695 3.56651 0
M  V30 2305 H 210.576 5.14495 2.83847 0
M  V30 2306 H 212.1 4.8418 3.72024 0
M  V30 2307 H 213.514 5.51891 1.55208 0
M  V30 2308 H 211.911 5.93615 0.87985 0
M  V30 2309 H 212.981 4.84894 -0.0235286 0
M  V30 2310 N 214.325 -0.140222 1.56975 0
M  V30 2311 C 215.55 -0.870414 1.88251 0
M  V30 2312 C 215.975 -1.73637 0.723312 0
M  V30 2313 O 215.333 -1.78329 -0.32689 0
M  V30 2314 C 215.381 -1.69737 3.18154 0
M  V30 2315 O 214.485 -2.80229 3.02565 0
M  V30 2316 H 213.826 -0.242025 0.61832 0
M  V30 2317 H 216.356 -0.128999 2.04193 0
M  V30 2318 H 216.366 -2.09099 3.50345 0
M  V30 2319 H 215.041 -1.06152 4.02125 0
M  V30 2320 H 213.618 -2.44224 2.81796 0
M  V30 2321 N 215.803 -1.52179 -0.40978 0
M  V30 2322 C 216.733 -1.78435 -1.5061 0
M  V30 2323 C 217.714 -0.635295 -1.57791 0
M  V30 2324 O 218.899 -0.880823 -1.73076 0
M  V30 2325 C 216.029 -1.93444 -2.88439 0
M  V30 2326 C 214.983 -3.09038 -2.96108 0
M  V30 2327 C 214.309 -3.09268 -4.36185 0
M  V30 2328 C 215.609 -4.48508 -2.67652 0
M  V30 2329 H 217.303 -2.70237 -1.28889 0
M  V30 2330 H 214.849 -1.30036 -0.618605 0
M  V30 2331 H 216.802 -2.10394 -3.65119 0
M  V30 2332 H 215.526 -0.983129 -3.11452 0
M  V30 2333 H 214.185 -2.91837 -2.21872 0
M  V30 2334 H 213.833 -2.11861 -4.56206 0
M  V30 2335 H 213.533 -3.86907 -4.42241 0
M  V30 2336 H 215.057 -3.28348 -5.14801 0
M  V30 2337 H 216.471 -4.65918 -3.34056 0
M  V30 2338 H 214.868 -5.28059 -2.85085 0
M  V30 2339 H 215.938 -4.56649 -1.63095 0
M  V30 2340 N 217.281 0.66697 -1.42791 0
M  V30 2341 C 218.53 1.42278 -1.42968 0
M  V30 2342 C 218.843 1.9553 -0.0524489 0
M  V30 2343 O 220.049 2.71414 0.068363 0
M  V30 2344 C 218.505 2.57418 -2.51524 0
M  V30 2345 C 218.113 2.10832 -3.9529 0
M  V30 2346 C 219.857 3.34878 -2.60877 0
M  V30 2347 C 217.764 3.23101 -4.95338 0
M  V30 2348 H 216.694 0.534533 -0.531781 0
M  V30 2349 H 219.345 0.721302 -1.68729 0
M  V30 2350 H 217.727 3.29971 -2.18941 0
M  V30 2351 H 218.901 1.4538 -4.37266 0
M  V30 2352 H 217.216 1.46289 -3.89857 0
M  V30 2353 H 219.813 4.18505 -3.32802 0
M  V30 2354 H 220.156 3.81993 -1.6549 0
M  V30 2355 H 220.689 2.69398 -2.92693 0
M  V30 2356 H 217.428 2.80969 -5.9223 0
M  V30 2357 H 216.948 3.87309 -4.57987 0
M  V30 2358 H 218.627 3.88447 -5.17415 0
M  V30 2359 N 218.759 1.29093 0.90403 0
M  V30 2360 C 220.007 1.16583 1.65085 0
M  V30 2361 C 220.328 -0.283933 1.92922 0
M  V30 2362 O 219.598 -1.19509 1.55224 0
M  V30 2363 H 218.178 0.428467 0.611903 0
M  V30 2364 H 220.84 1.61959 1.08422 0
M  V30 2365 H 219.936 1.71266 2.6091 0
M  V30 2366 N 220.237 -1.11381 1.11499 0
M  V30 2367 C 221.167 -2.19509 0.796125 0
M  V30 2368 C 222.148 -1.68458 -0.235796 0
M  V30 2369 O 223.333 -1.93947 -0.0991344 0
M  V30 2370 C 220.463 -3.46475 0.239205 0
M  V30 2371 C 219.417 -4.10744 1.20307 0
M  V30 2372 C 218.743 -5.32293 0.50683 0
M  V30 2373 C 220.043 -4.55597 2.55399 0
M  V30 2374 H 221.737 -2.46439 1.70024 0
M  V30 2375 H 219.283 -1.18446 0.818935 0
M  V30 2376 H 221.236 -4.214 0.00392006 0
M  V30 2377 H 219.96 -3.19006 -0.700206 0
M  V30 2378 H 218.619 -3.37813 1.42399 0
M  V30 2379 H 218.267 -5.01095 -0.437408 0
M  V30 2380 H 217.967 -5.76243 1.1497 0
M  V30 2381 H 219.491 -6.09956 0.280351 0
M  V30 2382 H 220.905 -5.21841 2.37391 0
M  V30 2383 H 219.302 -5.10363 3.15673 0
M  V30 2384 H 220.372 -3.69013 3.14575 0
M  V30 2385 N 221.715 -0.905404 -1.28997 0
M  V30 2386 C 222.94 -0.549175 -1.99997 0
M  V30 2387 C 223.365 0.860276 -1.67275 0
M  V30 2388 O 222.723 1.57355 -0.900502 0
M  V30 2389 C 222.771 -0.755185 -3.52604 0
M  V30 2390 O 221.875 0.189692 -4.11964 0
M  V30 2391 H 221.216 -0.213899 -0.628604 0
M  V30 2392 H 223.746 -1.21856 -1.64354 0
M  V30 2393 H 223.756 -0.662045 -4.02593 0
M  V30 2394 H 222.431 -1.78271 -3.75755 0
M  V30 2395 H 221.008 0.0485257 -3.72868 0
M  V30 2396 N 223.193 1.4272 -0.668489 0
M  V30 2397 C 224.123 2.335 -0.000100175 0
M  V30 2398 C 225.104 1.50328 0.795964 0
M  V30 2399 O 226.289 1.78949 0.754385 0
M  V30 2400 C 223.419 3.33874 0.956302 0
M  V30 2401 C 222.373 4.27152 0.269278 0
M  V30 2402 C 221.699 5.17684 1.33818 0
M  V30 2403 C 222.999 5.15373 -0.847805 0
M  V30 2404 H 224.693 2.89639 -0.758244 0
M  V30 2405 H 222.239 1.39269 -0.366079 0
M  V30 2406 H 224.192 3.9629 1.43292 0
M  V30 2407 H 222.916 2.76025 1.74579 0
M  V30 2408 H 221.575 3.66123 -0.187042 0
M  V30 2409 H 221.223 4.56165 2.1195 0
M  V30 2410 H 220.923 5.80918 0.883659 0
M  V30 2411 H 222.447 5.82974 1.81586 0
M  V30 2412 H 223.861 5.7151 -0.452681 0
M  V30 2413 H 222.258 5.87407 -1.22773 0
M  V30 2414 H 223.328 4.5415 -1.69929 0
M  V30 2415 N 224.671 0.411399 1.52136 0
M  V30 2416 C 225.92 -0.165009 2.01024 0
M  V30 2417 C 226.233 -1.4603 1.30133 0
M  V30 2418 O 227.439 -2.1181 1.69849 0
M  V30 2419 C 225.895 -0.344618 3.58246 0
M  V30 2420 C 225.503 0.938716 4.38055 0
M  V30 2421 C 227.247 -0.876195 4.15359 0
M  V30 2422 C 225.154 0.726172 5.86925 0
M  V30 2423 H 224.084 -0.0654407 0.751155 0
M  V30 2424 H 226.735 0.537192 1.75461 0
M  V30 2425 H 225.117 -1.10921 3.80148 0
M  V30 2426 H 226.291 1.70963 4.27912 0
M  V30 2427 H 224.606 1.39688 3.92271 0
M  V30 2428 H 227.203 -1.05128 5.24263 0
M  V30 2429 H 227.546 -1.85152 3.7286 0
M  V30 2430 H 228.079 -0.170607 3.97434 0
M  V30 2431 H 224.818 1.67312 6.33788 0
M  V30 2432 H 224.338 -0.00540283 5.998 0
M  V30 2433 H 226.017 0.369231 6.45946 0
M  V30 2434 N 226.149 -1.5696 0.141893 0
M  V30 2435 C 227.112 -2.15316 -0.785587 0
M  V30 2436 C 228.112 -1.09366 -1.1788 0
M  V30 2437 O 229.302 -1.35031 -1.10056 0
M  V30 2438 C 226.434 -2.71211 -2.06537 0
M  V30 2439 H 227.627 -2.98608 -0.278041 0
M  V30 2440 H 225.18 -1.5593 -0.107519 0
M  V30 2441 H 225.915 -1.91571 -2.6167 0
M  V30 2442 H 225.7 -3.4872 -1.79268 0
M  V30 2443 H 227.19 -3.16189 -2.72789 0
M  V30 2444 N 227.627 0.131896 -1.57047 0
M  V30 2445 C 228.557 1.16384 -2.02428 0
M  V30 2446 C 229.538 1.43936 -0.90644 0
M  V30 2447 O 230.723 1.54599 -1.17528 0
M  V30 2448 C 227.853 2.49328 -2.4177 0
M  V30 2449 C 226.807 2.36266 -3.56879 0
M  V30 2450 C 226.133 3.74057 -3.8208 0
M  V30 2451 C 227.433 1.834 -4.89042 0
M  V30 2452 H 229.127 0.786433 -2.88887 0
M  V30 2453 H 226.673 0.376855 -1.38981 0
M  V30 2454 H 228.626 3.21759 -2.7212 0
M  V30 2455 H 227.35 2.88934 -1.52266 0
M  V30 2456 H 226.009 1.66286 -3.26718 0
M  V30 2457 H 225.657 4.11125 -2.89803 0
M  V30 2458 H 225.357 3.66174 -4.59554 0
M  V30 2459 H 226.881 4.48012 -4.1487 0
M  V30 2460 H 228.295 2.45636 -5.18011 0
M  V30 2461 H 226.692 1.8637 -5.70426 0
M  V30 2462 H 227.762 0.790662 -4.7841 0
M  V30 2463 N 229.106 1.52395 0.401703 0
M  V30 2464 C 230.354 1.66488 1.14569 0
M  V30 2465 C 230.675 0.400897 1.90835 0
M  V30 2466 O 229.945 -0.584415 1.8698 0
M  V30 2467 H 228.525 0.613672 0.425929 0
M  V30 2468 H 231.187 1.89464 0.457093 0
M  V30 2469 H 230.283 2.50942 1.85566 0
M  V30 2470 N 230.584 -0.659388 1.43143 0
M  V30 2471 C 231.812 -1.44723 1.47861 0
M  V30 2472 C 232.227 -1.88563 0.0945886 0
M  V30 2473 O 231.584 -1.59108 -0.893915 0
M  V30 2474 C 231.635 -2.68627 2.41913 0
M  V30 2475 O 231.356 -2.26623 3.74932 0
M  V30 2476 C 232.857 -3.62045 2.55809 0
M  V30 2477 H 230.077 -0.444801 0.502387 0
M  V30 2478 H 232.621 -0.808916 1.87821 0
M  V30 2479 H 230.776 -3.28613 2.05164 0
M  V30 2480 H 231.19 -3.06745 4.2545 0
M  V30 2481 H 232.664 -4.45666 3.25708 0
M  V30 2482 H 233.141 -4.08981 1.60099 0
M  V30 2483 H 233.747 -3.07944 2.93344 0
M  V30 2484 N 232.062 -1.29571 -0.897171 0
M  V30 2485 C 233.31 -1.17456 -1.64464 0
M  V30 2486 C 233.631 0.273698 -1.9307 0
M  V30 2487 O 232.901 1.18684 -1.55855 0
M  V30 2488 H 231.481 -0.431706 -0.609622 0
M  V30 2489 H 234.143 -1.62531 -1.07562 0
M  V30 2490 H 233.239 -1.72648 -2.59998 0
M  V30 2491 N 233.54 1.10788 -1.12088 0
M  V30 2492 C 234.788 1.8231 -0.872205 0
M  V30 2493 C 235.109 1.85419 0.603709 0
M  V30 2494 O 234.379 1.32963 1.43867 0
M  V30 2495 H 232.959 0.675137 -0.319686 0
M  V30 2496 H 235.621 1.34068 -1.41463 0
M  V30 2497 H 234.717 2.85955 -1.25045 0
M  V30 2498 N 235.018 0.912232 1.28515 0
M  V30 2499 C 236.267 0.540504 1.94323 0
M  V30 2500 C 236.58 -0.920044 1.72611 0
M  V30 2501 O 237.786 -1.39986 2.32629 0
M  V30 2502 C 236.242 0.915803 3.48053 0
M  V30 2503 C 235.85 2.39598 3.78546 0
M  V30 2504 C 237.594 0.614588 4.20027 0
M  V30 2505 C 235.501 2.71148 5.25578 0
M  V30 2506 H 234.431 0.198418 0.727424 0
M  V30 2507 H 237.082 1.11094 1.46049 0
M  V30 2508 H 235.464 0.274168 3.9505 0
M  V30 2509 H 236.638 3.08422 3.42364 0
M  V30 2510 H 234.953 2.66749 3.1974 0
M  V30 2511 H 237.55 0.827002 5.28266 0
M  V30 2512 H 237.893 -0.447531 4.13887 0
M  V30 2513 H 238.426 1.21462 3.78803 0
M  V30 2514 H 235.165 3.76207 5.36794 0
M  V30 2515 H 234.685 2.0696 5.62963 0
M  V30 2516 H 236.364 2.58072 5.93302 0
M  V30 2517 N 236.496 -1.42363 0.676048 0
M  V30 2518 C 237.443 -2.308 -0.00150904 0
M  V30 2519 C 238.413 -1.46032 -0.791444 0
M  V30 2520 O 239.598 -1.74861 -0.76344 0
M  V30 2521 C 236.738 -3.31883 -0.945919 0
M  V30 2522 C 235.851 -4.31741 -0.149675 0
M  V30 2523 C 234.986 -5.19898 -1.08995 0
M  V30 2524 C 234.025 -6.11434 -0.285465 0
M  V30 2525 N 233.162 -6.92138 -1.17851 0
M  V30 2526 H 238.002 -2.88187 0.758455 0
M  V30 2527 H 235.539 -1.41952 0.38576 0
M  V30 2528 H 237.497 -3.89019 -1.50731 0
M  V30 2529 H 236.127 -2.76093 -1.6725 0
M  V30 2530 H 235.179 -3.76713 0.528359 0
M  V30 2531 H 236.491 -4.96534 0.474866 0
M  V30 2532 H 235.645 -5.81772 -1.72123 0
M  V30 2533 H 234.384 -4.55284 -1.74837 0
M  V30 2534 H 233.389 -5.48627 0.359018 0
M  V30 2535 H 234.614 -6.78097 0.368883 0
M  V30 2536 H 232.56 -6.30152 -1.82332 0
M  V30 2537 H 232.477 -7.53542 -0.609082 0
M  V30 2538 H 233.745 -7.58499 -1.79722 0
M  V30 2539 N 237.974 -0.419461 -1.51915 0
M  V30 2540 C 239.385 0.0477853 -1.86639 0
M  V30 2541 C 239.736 1.43531 -1.33766 0
M  V30 2542 O 238.861 2.05401 -0.68113 0
M  V30 2543 C 239.456 0.0934885 -3.38671 0
M  V30 2544 C 238.015 0.505097 -3.72996 0
M  V30 2545 C 237.162 -0.313792 -2.75519 0
M  V30 2546 H 240.113 -0.636088 -1.45395 0
M  V30 2547 H 240.134 0.906667 -3.6954 0
M  V30 2548 H 239.646 -0.916501 -3.77123 0
M  V30 2549 H 237.747 1.52135 -3.40126 0
M  V30 2550 H 237.86 0.242309 -4.78487 0
M  V30 2551 H 236.224 0.225363 -2.53701 0
M  V30 2552 H 237.007 -1.32232 -3.16812 0
M  V30 2553 N 239.452 1.56882 -0.150215 0
M  V30 2554 C 240.692 1.98119 0.502804 0
M  V30 2555 C 241.056 1.03327 1.61826 0
M  V30 2556 O 242.257 1.33621 2.33236 0
M  V30 2557 C 240.528 3.43329 0.992988 0
M  V30 2558 S 242.087 4.0659 1.65015 0
M  V30 2559 H 238.905 0.692189 0.162467 0
M  V30 2560 H 241.507 1.93988 -0.242689 0
M  V30 2561 H 240.211 4.10046 0.170436 0
M  V30 2562 H 239.742 3.5118 1.77303 0
M  V30 2563 H 241.757 3.99906 2.93752 0
M  V30 2564 N 240.93 -0.123565 1.57115 0
M  V30 2565 C 242.176 -0.833386 1.84885 0
M  V30 2566 C 242.509 -1.79742 0.735292 0
M  V30 2567 O 241.784 -1.92764 -0.25925 0
M  V30 2568 C 242.067 -1.5873 3.23228 0
M  V30 2569 C 241.92 -0.643183 4.45178 0
M  V30 2570 C 243.239 -2.54453 3.59085 0
M  V30 2571 H 240.358 -0.301518 0.6725 0
M  V30 2572 H 243 -0.097778 1.89748 0
M  V30 2573 H 241.15 -2.21438 3.19214 0
M  V30 2574 H 242.822 -0.0253015 4.61293 0
M  V30 2575 H 241.065 0.0456139 4.33776 0
M  V30 2576 H 241.736 -1.20724 5.38637 0
M  V30 2577 H 244.212 -2.01853 3.63861 0
M  V30 2578 H 243.088 -3.04238 4.5687 0
M  V30 2579 H 243.349 -3.36906 2.86264 0
M  V30 2580 N 242.408 -1.52605 -0.393616 0
M  V30 2581 C 243.371 -1.76415 -1.46323 0
M  V30 2582 C 244.371 -0.634126 -1.47768 0
M  V30 2583 O 245.561 -0.902142 -1.4902 0
M  V30 2584 C 242.693 -1.8607 -2.85641 0
M  V30 2585 H 243.886 -2.71916 -1.26498 0
M  V30 2586 H 241.439 -1.43257 -0.625073 0
M  V30 2587 H 242.174 -0.925378 -3.10817 0
M  V30 2588 H 241.959 -2.68235 -2.85993 0
M  V30 2589 H 243.449 -2.06179 -3.63153 0
M  V30 2590 N 243.887 0.651787 -1.4349 0
M  V30 2591 C 244.85 1.74647 -1.48429 0
M  V30 2592 C 245.85 1.56513 -0.368817 0
M  V30 2593 O 247.04 1.62385 -0.630623 0
M  V30 2594 C 244.172 3.13533 -1.33827 0
M  V30 2595 H 245.365 1.71649 -2.4592 0
M  V30 2596 H 242.918 0.863573 -1.30277 0
M  V30 2597 H 243.653 3.22142 -0.37349 0
M  V30 2598 H 243.438 3.28101 -2.14691 0
M  V30 2599 H 244.928 3.93356 -1.40218 0
M  V30 2600 N 245.365 1.30045 0.890287 0
M  V30 2601 C 246.612 1.18561 1.64163 0
M  V30 2602 C 246.94 -0.260852 1.92743 0
M  V30 2603 O 246.195 -1.20376 1.54299 0
M  V30 2604 C 246.494 1.95409 2.99249 0
M  V30 2605 C 246.16 3.45066 2.90242 0
M  V30 2606 C 244.822 3.85878 2.87492 0
M  V30 2607 C 247.174 4.4039 2.78758 0
M  V30 2608 C 244.502 5.20314 2.7109 0
M  V30 2609 C 246.854 5.74928 2.63894 0
M  V30 2610 C 245.518 6.14986 2.59516 0
M  V30 2611 H 244.788 0.433846 0.600715 0
M  V30 2612 H 247.435 1.61088 1.03552 0
M  V30 2613 H 245.74 1.45501 3.63781 0
M  V30 2614 H 247.437 1.8392 3.56334 0
M  V30 2615 H 244.027 3.12631 2.93189 0
M  V30 2616 H 248.211 4.09806 2.79952 0
M  V30 2617 H 243.467 5.50449 2.66112 0
M  V30 2618 H 247.641 6.48434 2.53981 0
M  V30 2619 H 245.268 7.19104 2.46565 0
M  V30 2620 N 246.843 -1.10192 1.12674 0
M  V30 2621 C 248.091 -1.81845 0.881861 0
M  V30 2622 C 248.412 -1.85737 -0.593867 0
M  V30 2623 O 247.682 -1.33724 -1.4316 0
M  V30 2624 H 246.262 -0.673432 0.323261 0
M  V30 2625 H 248.924 -1.33316 1.42172 0
M  V30 2626 H 248.02 -2.85288 1.2656 0
M  V30 2627 N 248.321 -0.919034 -1.28029 0
M  V30 2628 C 249.569 -0.553838 -1.94363 0
M  V30 2629 C 249.89 0.906357 -1.72656 0
M  V30 2630 O 249.16 1.64143 -1.0693 0
M  V30 2631 H 247.74 -0.201834 -0.719216 0
M  V30 2632 H 250.402 -1.16954 -1.55909 0
M  V30 2633 H 249.498 -0.752758 -3.02886 0
M  V30 2634 N 249.799 1.42003 -0.683588 0
M  V30 2635 C 251.076 1.95112 -0.138075 0
M  V30 2636 C 251.456 1.62359 1.34918 0
M  V30 2637 O 250.804 0.924311 2.08971 0
M  V30 2638 C 251.014 3.46505 -0.416581 0
M  V30 2639 C 252.362 4.23254 -0.337834 0
M  V30 2640 O 253.386 3.54468 -0.35082 0
M  V30 2641 O 252.245 5.45743 -0.287596 0
M  V30 2642 H 249.339 0.826961 -0.00797996 0
M  V30 2643 H 251.885 1.51784 -0.758924 0
M  V30 2644 H 250.657 3.63582 -1.4465 0
M  V30 2645 H 250.28 3.969 0.235839 0
M  V30 2646 N 251.277 0.427512 1.51691 0
M  V30 2647 C 252.209 -0.424521 2.25234 0
M  V30 2648 C 253.222 -0.994671 1.2888 0
M  V30 2649 O 254.411 -0.890483 1.54702 0
M  V30 2650 C 251.511 -1.60479 2.98496 0
M  V30 2651 C 250.684 -1.15527 4.21868 0
M  V30 2652 C 249.743 -2.20454 4.77793 0
M  V30 2653 O 248.769 -1.8029 5.39893 0
M  V30 2654 N 249.971 -3.52831 4.60967 0
M  V30 2655 H 252.736 0.205749 2.98993 0
M  V30 2656 H 250.297 0.255867 1.59865 0
M  V30 2657 H 252.289 -2.30276 3.32799 0
M  V30 2658 H 250.859 -2.14061 2.27809 0
M  V30 2659 H 250.079 -0.284736 3.9317 0
M  V30 2660 H 251.367 -0.832173 5.01949 0
M  V30 2661 H 250.765 -3.88201 4.11481 0
M  V30 2662 H 249.322 -4.18551 4.99658 0
M  V30 2663 N 252.755 -1.56801 0.158532 0
M  V30 2664 C 254.002 -1.9649 -0.489679 0
M  V30 2665 C 254.33 -1.04394 -1.6411 0
M  V30 2666 O 253.585 -0.0754401 -1.95555 0
M  V30 2667 C 253.884 -3.4235 -1.02623 0
M  V30 2668 C 253.55 -4.50899 0.00794526 0
M  V30 2669 C 252.212 -4.80312 0.292207 0
M  V30 2670 C 254.564 -5.16333 0.710584 0
M  V30 2671 C 251.892 -5.72461 1.28472 0
M  V30 2672 C 254.244 -6.09553 1.69199 0
M  V30 2673 C 252.908 -6.37339 1.98383 0
M  V30 2674 H 252.178 -0.719009 -0.179186 0
M  V30 2675 H 254.825 -1.8989 0.247798 0
M  V30 2676 H 253.13 -3.45838 -1.84128 0
M  V30 2677 H 254.827 -3.70393 -1.53656 0
M  V30 2678 H 251.417 -4.28015 -0.22379 0
M  V30 2679 H 255.601 -4.93732 0.504174 0
M  V30 2680 H 250.857 -5.92278 1.51714 0
M  V30 2681 H 255.031 -6.59327 2.24189 0
M  V30 2682 H 252.658 -7.08546 2.7544 0
M  V30 2683 N 254.233 0.115231 -1.57178 0
M  V30 2684 C 255.143 1.15994 -2.03918 0
M  V30 2685 C 256.159 1.45103 -0.960268 0
M  V30 2686 O 257.335 1.56144 -1.27204 0
M  V30 2687 C 254.4 2.46568 -2.43732 0
M  V30 2688 C 253.461 2.24822 -3.65723 0
M  V30 2689 C 252.694 3.4917 -4.03629 0
M  V30 2690 O 252.917 4.56623 -3.41835 0
M  V30 2691 O 251.851 3.39949 -4.96708 0
M  V30 2692 H 255.677 0.793019 -2.93164 0
M  V30 2693 H 253.262 0.3263 -1.45793 0
M  V30 2694 H 255.144 3.23492 -2.70057 0
M  V30 2695 H 253.819 2.82726 -1.57631 0
M  V30 2696 H 252.726 1.45744 -3.44542 0
M  V30 2697 H 254.059 1.93566 -4.52541 0
M  V30 2698 N 255.711 1.52812 0.385517 0
M  V30 2699 C 256.621 1.80766 1.49535 0
M  V30 2700 C 257.637 0.694651 1.59532 0
M  V30 2701 O 258.813 0.982611 1.75803 0
M  V30 2702 C 255.878 1.97381 2.85029 0
M  V30 2703 C 254.939 3.21295 2.84724 0
M  V30 2704 C 254.172 3.37108 4.13756 0
M  V30 2705 O 254.395 2.5765 5.08893 0
M  V30 2706 O 253.329 4.30378 4.20783 0
M  V30 2707 H 257.155 2.75015 1.28842 0
M  V30 2708 H 254.74 1.37946 0.573697 0
M  V30 2709 H 256.622 2.09996 3.65349 0
M  V30 2710 H 255.297 1.06322 3.05741 0
M  V30 2711 H 254.204 3.1412 2.03174 0
M  V30 2712 H 255.537 4.12212 2.68965 0
M  V30 2713 N 257.189 -0.644168 1.43834 0
M  V30 2714 C 258.136 -1.75671 1.49694 0
M  V30 2715 C 259.106 -1.6246 0.345809 0
M  V30 2716 O 260.291 -1.82573 0.554234 0
M  V30 2717 C 257.431 -3.13867 1.43463 0
M  V30 2718 C 256.544 -3.38147 2.6885 0
M  V30 2719 C 255.679 -4.66241 2.54544 0
M  V30 2720 C 254.718 -4.83657 3.75157 0
M  V30 2721 N 253.855 -6.03016 3.59605 0
M  V30 2722 H 258.695 -1.69998 2.44754 0
M  V30 2723 H 256.232 -0.829458 1.21484 0
M  V30 2724 H 258.19 -3.9377 1.37843 0
M  V30 2725 H 256.82 -3.18588 0.519783 0
M  V30 2726 H 255.872 -2.52276 2.84712 0
M  V30 2727 H 257.184 -3.46899 3.58417 0
M  V30 2728 H 256.338 -5.54285 2.46683 0
M  V30 2729 H 255.077 -4.59826 1.62516 0
M  V30 2730 H 254.082 -3.94046 3.83416 0
M  V30 2731 H 255.307 -4.91896 4.68204 0
M  V30 2732 H 253.253 -5.97715 2.7032 0
M  V30 2733 H 253.17 -6.12766 4.42779 0
M  V30 2734 H 254.438 -6.93657 3.55613 0
M  V30 2735 N 258.668 -1.30515 -0.883378 0
M  V30 2736 C 259.618 -1.13641 -1.9766 0
M  V30 2737 C 260.602 -0.0511314 -1.60819 0
M  V30 2738 O 261.794 -0.274623 -1.74857 0
M  V30 2739 C 258.923 -0.831976 -3.33066 0
M  V30 2740 C 258.009 -1.95759 -3.76217 0
M  V30 2741 N 258.4 -3.20313 -3.9145 0
M  V30 2742 C 256.698 -1.85431 -4.05625 0
M  V30 2743 C 257.399 -3.93856 -4.2808 0
M  V30 2744 N 256.375 -3.21919 -4.38029 0
M  V30 2745 H 260.177 -2.08106 -2.07531 0
M  V30 2746 H 257.691 -1.21877 -1.0733 0
M  V30 2747 H 259.688 -0.692102 -4.11115 0
M  V30 2748 H 258.348 0.104588 -3.24532 0
M  V30 2749 H 259.359 -3.55583 -3.76538 0
M  V30 2750 H 256.036 -0.991531 -4.05555 0
M  V30 2751 H 257.426 -5.01125 -4.47575 0
M  V30 2752 N 260.146 1.09593 -1.13257 0
M  V30 2753 C 261.109 2.14359 -0.811358 0
M  V30 2754 C 262.109 1.59808 0.178377 0
M  V30 2755 O 263.299 1.74132 -0.0484911 0
M  V30 2756 C 260.431 3.40269 -0.207276 0
M  V30 2757 H 261.624 2.44284 -1.73969 0
M  V30 2758 H 259.177 1.25102 -0.936973 0
M  V30 2759 H 259.912 3.15969 0.73036 0
M  V30 2760 H 259.697 3.81154 -0.919992 0
M  V30 2761 H 261.187 4.176 0.000667944 0
M  V30 2762 N 261.624 0.925811 1.2754 0
M  V30 2763 C 262.534 0.428993 2.30644 0
M  V30 2764 C 263.55 -0.489387 1.66976 0
M  V30 2765 O 264.726 -0.372653 1.97922 0
M  V30 2766 C 261.791 -0.311967 3.45294 0
M  V30 2767 C 260.852 0.641098 4.24486 0
M  V30 2768 C 260.085 -0.0645955 5.33661 0
M  V30 2769 O 260.308 -1.28429 5.55754 0
M  V30 2770 O 259.242 0.606265 5.98839 0
M  V30 2771 H 263.068 1.28504 2.75173 0
M  V30 2772 H 260.653 0.691086 1.32455 0
M  V30 2773 H 262.535 -0.729972 4.15029 0
M  V30 2774 H 261.21 -1.14365 3.02824 0
M  V30 2775 H 260.117 1.10874 3.57292 0
M  V30 2776 H 261.45 1.43995 4.70666 0
M  V30 2777 N 263.102 -1.41638 0.69111 0
M  V30 2778 C 264.012 -2.34588 0.0233487 0
M  V30 2779 C 265.028 -1.55987 -0.770984 0
M  V30 2780 O 266.204 -1.88486 -0.709569 0
M  V30 2781 C 263.269 -3.34684 -0.904851 0
M  V30 2782 C 262.33 -4.29176 -0.103225 0
M  V30 2783 C 261.563 -5.2449 -0.987216 0
M  V30 2784 O 261.786 -5.2514 -2.22674 0
M  V30 2785 O 260.72 -6.00295 -0.439281 0
M  V30 2786 H 264.546 -2.93261 0.789416 0
M  V30 2787 H 262.131 -1.42417 0.45142 0
M  V30 2788 H 264.013 -3.96133 -1.43724 0
M  V30 2789 H 262.688 -2.78461 -1.65049 0
M  V30 2790 H 261.595 -3.71089 0.473655 0
M  V30 2791 H 262.928 -4.88484 0.60365 0
M  V30 2792 N 264.58 -0.43555 -1.51462 0
M  V30 2793 C 265.996 -0.0877501 -1.59359 0
M  V30 2794 C 266.196 1.4027 -1.4466 0
M  V30 2795 O 265.252 2.17243 -1.28693 0
M  V30 2796 C 266.565 -0.606264 -2.94525 0
M  V30 2797 C 268.113 -0.566548 -3.0783 0
M  V30 2798 C 268.588 -1.06201 -4.45517 0
M  V30 2799 N 270.079 -1.01992 -4.51832 0
M  V30 2800 C 270.814 -1.37417 -5.5669 0
M  V30 2801 N 270.31 -1.80119 -6.68976 0
M  V30 2802 N 272.103 -1.29245 -5.47039 0
M  V30 2803 H 264.254 -1.40533 -1.59261 0
M  V30 2804 H 266.517 -0.578992 -0.750648 0
M  V30 2805 H 266.223 -1.64901 -3.10645 0
M  V30 2806 H 266.097 -0.0302097 -3.77188 0
M  V30 2807 H 268.484 0.467208 -2.91378 0
M  V30 2808 H 268.565 -1.17898 -2.2701 0
M  V30 2809 H 268.209 -2.09422 -4.62715 0
M  V30 2810 H 268.139 -0.426127 -5.24873 0
M  V30 2811 H 270.63 -0.706308 -3.71241 0
M  V30 2812 H 270.943 -2.05392 -7.45006 0
M  V30 2813 H 269.288 -1.84044 -6.70189 0
M  V30 2814 H 272.479 -0.957522 -4.58202 0
M  V30 2815 H 272.652 -1.57182 -6.28648 0
M  V30 2816 N 266.058 1.56714 -0.166846 0
M  V30 2817 C 267.286 2.0112 0.485644 0
M  V30 2818 C 267.701 1.04705 1.57106 0
M  V30 2819 O 267.058 0.0471923 1.82439 0
M  V30 2820 C 267.109 3.45361 1.06808 0
M  V30 2821 O 266.83 4.38092 0.0259995 0
M  V30 2822 C 268.331 4.05145 1.79924 0
M  V30 2823 H 265.551 0.65931 0.124704 0
M  V30 2824 H 268.095 2.02746 -0.267262 0
M  V30 2825 H 266.25 3.44524 1.7715 0
M  V30 2826 H 266.664 5.22519 0.455398 0
M  V30 2827 H 268.138 5.08009 2.15942 0
M  V30 2828 H 268.615 3.46982 2.69258 0
M  V30 2829 H 269.221 4.09672 1.14234 0
M  V30 2830 N 267.536 -0.106894 1.57237 0
M  V30 2831 C 268.952 -0.46078 1.52804 0
M  V30 2832 C 269.152 -1.81184 0.881746 0
M  V30 2833 O 268.208 -2.48102 0.469224 0
M  V30 2834 C 269.521 -0.434127 2.9755 0
M  V30 2835 C 271.069 -0.516821 3.08704 0
M  V30 2836 C 271.544 -0.520436 4.55033 0
M  V30 2837 N 273.035 -0.58153 4.59535 0
M  V30 2838 C 273.77 -0.605973 5.70189 0
M  V30 2839 N 273.266 -0.587331 6.90306 0
M  V30 2840 N 275.059 -0.649895 5.5833 0
M  V30 2841 H 267.21 0.778203 1.9763 0
M  V30 2842 H 269.473 0.288403 0.903066 0
M  V30 2843 H 269.179 0.491197 3.48253 0
M  V30 2844 H 269.053 -1.25748 3.55622 0
M  V30 2845 H 271.44 -1.43256 2.57995 0
M  V30 2846 H 271.521 0.334449 2.53604 0
M  V30 2847 H 271.165 0.391313 5.0639 0
M  V30 2848 H 271.095 -1.38876 5.07958 0
M  V30 2849 H 273.586 -0.60161 3.73081 0
M  V30 2850 H 273.899 -0.60894 7.70397 0
M  V30 2851 H 272.244 -0.554564 6.92784 0
M  V30 2852 H 275.435 -0.661907 4.63397 0
M  V30 2853 H 275.608 -0.665476 6.44574 0
M  V30 2854 N 269.014 -1.53014 -0.377408 0
M  V30 2855 C 270.244 -1.72265 -1.14054 0
M  V30 2856 C 270.652 -0.44601 -1.83868 0
M  V30 2857 O 269.995 0.590095 -1.73964 0
M  V30 2858 C 270.057 -2.82492 -2.22348 0
M  V30 2859 C 269.721 -4.23233 -1.72402 0
M  V30 2860 C 270.718 -5.05992 -1.19448 0
M  V30 2861 C 268.403 -4.696 -1.78273 0
M  V30 2862 C 270.397 -6.33203 -0.730268 0
M  V30 2863 C 268.084 -5.96792 -1.31464 0
M  V30 2864 C 269.082 -6.78424 -0.789297 0
M  V30 2865 O 268.77 -8.0323 -0.328077 0
M  V30 2866 H 268.502 -0.579873 -0.347453 0
M  V30 2867 H 271.056 -2.00502 -0.445882 0
M  V30 2868 H 269.286 -2.49702 -2.95272 0
M  V30 2869 H 270.975 -2.90034 -2.83963 0
M  V30 2870 H 271.741 -4.71349 -1.14259 0
M  V30 2871 H 267.62 -4.06142 -2.18106 0
M  V30 2872 H 271.164 -6.96868 -0.319542 0
M  V30 2873 H 267.061 -6.30937 -1.36342 0
M  V30 2874 H 267.829 -8.1727 -0.448493 0
M  V30 2875 N 270.492 0.636531 -1.44174 0
M  V30 2876 C 271.739 1.39619 -1.46672 0
M  V30 2877 C 272.067 1.94257 -0.0972691 0
M  V30 2878 O 271.322 1.73768 0.900175 0
M  V30 2879 C 271.621 2.58309 -2.47005 0
M  V30 2880 C 271.287 2.21992 -3.92467 0
M  V30 2881 C 269.949 2.118 -4.32081 0
M  V30 2882 C 272.301 1.9321 -4.84065 0
M  V30 2883 C 269.629 1.71007 -5.61225 0
M  V30 2884 C 271.981 1.53911 -6.13591 0
M  V30 2885 C 270.645 1.42257 -6.52165 0
M  V30 2886 H 269.915 0.510902 -0.536712 0
M  V30 2887 H 272.562 0.722328 -1.77355 0
M  V30 2888 H 270.867 3.30903 -2.09786 0
M  V30 2889 H 272.564 3.16533 -2.46186 0
M  V30 2890 H 269.154 2.30841 -3.61124 0
M  V30 2891 H 273.338 1.99997 -4.54219 0
M  V30 2892 H 268.594 1.60583 -5.89935 0
M  V30 2893 H 272.768 1.30677 -6.8403 0
M  V30 2894 H 270.395 1.10419 -7.52138 0
M  V30 2895 N 271.97 1.30982 0.876444 0
M  V30 2896 C 273.195 1.23373 1.66715 0
M  V30 2897 C 273.62 -0.19885 1.87046 0
M  V30 2898 O 272.978 -1.1427 1.40756 0
M  V30 2899 C 273.026 1.97644 3.01611 0
M  V30 2900 O 272.13 1.30935 3.91062 0
M  V30 2901 H 271.471 0.426279 0.509099 0
M  V30 2902 H 274.001 1.72944 1.09323 0
M  V30 2903 H 274.011 2.06992 3.51594 0
M  V30 2904 H 272.686 3.01829 2.86133 0
M  V30 2905 H 271.263 1.29996 3.49507 0
M  V30 2906 N 273.449 -1.08991 1.13837 0
M  V30 2907 C 274.695 -1.81526 0.90422 0
M  V30 2908 C 275.028 -1.85706 -0.568066 0
M  V30 2909 O 274.303 -1.32855 -1.42056 0
M  V30 2910 C 274.586 -3.27447 1.49835 0
M  V30 2911 C 274.439 -3.31512 3.04006 0
M  V30 2912 C 275.758 -4.24256 1.17025 0
M  V30 2913 H 272.877 -0.659029 0.329923 0
M  V30 2914 H 275.519 -1.27644 1.40737 0
M  V30 2915 H 273.669 -3.73462 1.07044 0
M  V30 2916 H 275.341 -2.93867 3.55584 0
M  V30 2917 H 273.584 -2.70963 3.38765 0
M  V30 2918 H 274.255 -4.34329 3.40679 0
M  V30 2919 H 276.731 -3.86549 1.54009 0
M  V30 2920 H 275.607 -5.24684 1.61237 0
M  V30 2921 H 275.868 -4.42019 0.0846274 0
M  V30 2922 N 274.927 -0.932562 -1.27047 0
M  V30 2923 C 276.174 -0.575559 -1.94148 0
M  V30 2924 C 276.502 0.883984 -1.73251 0
M  V30 2925 O 275.757 1.64655 -1.0577 0
M  V30 2926 C 276.056 -0.853713 -3.47054 0
M  V30 2927 C 275.722 -2.29577 -3.88079 0
M  V30 2928 C 274.384 -2.68999 -3.9899 0
M  V30 2929 C 276.736 -3.23331 -4.08787 0
M  V30 2930 C 274.064 -4.01289 -4.28 0
M  V30 2931 C 276.416 -4.55207 -4.39282 0
M  V30 2932 C 275.08 -4.94457 -4.48407 0
M  V30 2933 H 274.35 -0.210612 -0.710439 0
M  V30 2934 H 276.997 -1.17744 -1.51025 0
M  V30 2935 H 275.302 -0.169204 -3.91434 0
M  V30 2936 H 276.999 -0.55639 -3.97121 0
M  V30 2937 H 273.589 -1.97994 -3.80127 0
M  V30 2938 H 277.773 -2.94074 -3.99793 0
M  V30 2939 H 273.029 -4.31374 -4.33275 0
M  V30 2940 H 277.203 -5.27852 -4.54252 0
M  V30 2941 H 274.83 -5.96994 -4.7064 0
M  V30 2942 N 276.405 1.4127 -0.698611 0
M  V30 2943 C 277.635 2.05205 -0.239644 0
M  V30 2944 C 278.043 1.52684 1.11733 0
M  V30 2945 O 277.386 0.671222 1.70998 0
M  V30 2946 C 277.448 3.59289 -0.123126 0
M  V30 2947 C 277.112 4.34619 -1.41263 0
M  V30 2948 C 278.109 4.63701 -2.35111 0
M  V30 2949 C 275.794 4.73837 -1.66684 0
M  V30 2950 C 277.788 5.30966 -3.52639 0
M  V30 2951 C 275.475 5.40837 -2.84498 0
M  V30 2952 C 276.473 5.69329 -3.77298 0
M  V30 2953 O 276.161 6.34949 -4.93047 0
M  V30 2954 H 275.893 0.66723 -0.108537 0
M  V30 2955 H 278.447 1.81974 -0.952602 0
M  V30 2956 H 276.677 3.81272 0.645628 0
M  V30 2957 H 278.366 4.04797 0.299056 0
M  V30 2958 H 279.132 4.33882 -2.16729 0
M  V30 2959 H 275.011 4.51039 -0.953135 0
M  V30 2960 H 278.555 5.53121 -4.25091 0
M  V30 2961 H 274.452 5.70075 -3.02795 0
M  V30 2962 H 275.22 6.53445 -4.92902 0
M  V30 2963 N 277.883 0.443576 1.51229 0
M  V30 2964 C 278.813 -0.355142 2.30783 0
M  V30 2965 C 279.794 -1.0154 1.36468 0
M  V30 2966 O 280.979 -1.01785 1.65389 0
M  V30 2967 C 278.109 -1.45312 3.15439 0
M  V30 2968 C 277.063 -0.916002 4.18083 0
M  V30 2969 C 276.389 -2.1102 4.91299 0
M  V30 2970 C 277.689 0.0538602 5.22272 0
M  V30 2971 H 279.383 0.308767 2.97804 0
M  V30 2972 H 276.929 0.149937 1.43217 0
M  V30 2973 H 278.882 -2.01914 3.69876 0
M  V30 2974 H 277.606 -2.14541 2.46252 0
M  V30 2975 H 276.265 -0.372145 3.64706 0
M  V30 2976 H 275.913 -2.78882 4.18609 0
M  V30 2977 H 275.613 -1.75717 5.60712 0
M  V30 2978 H 277.137 -2.68164 5.48562 0
M  V30 2979 H 278.551 -0.422069 5.71744 0
M  V30 2980 H 276.948 0.319776 5.99247 0
M  V30 2981 H 278.018 0.98858 4.74716 0
M  V30 2982 N 279.361 -1.56624 0.175154 0
M  V30 2983 C 280.586 -2.01813 -0.478137 0
M  V30 2984 C 281.011 -1.05457 -1.55757 0
M  V30 2985 O 280.369 -0.0347439 -1.81267 0
M  V30 2986 C 280.417 -3.45581 -1.02987 0
M  V30 2987 O 279.521 -3.52305 -2.14371 0
M  V30 2988 H 278.862 -0.65413 -0.114059 0
M  V30 2989 H 281.392 -2.02673 0.280173 0
M  V30 2990 H 281.402 -3.84965 -1.35151 0
M  V30 2991 H 280.077 -4.1521 -0.239556 0
M  V30 2992 H 278.654 -3.24783 -1.83222 0
M  V30 2993 N 280.839 0.0985539 -1.57292 0
M  V30 2994 C 282.088 0.801358 -1.85098 0
M  V30 2995 C 282.401 1.80066 -0.763902 0
M  V30 2996 O 283.607 2.55112 -0.928981 0
M  V30 2997 C 282.063 1.47599 -3.28242 0
M  V30 2998 C 281.671 0.516624 -4.45011 0
M  V30 2999 C 283.415 2.16272 -3.65276 0
M  V30 3000 C 281.322 1.19564 -5.79188 0
M  V30 3001 H 280.252 0.303022 -0.69043 0
M  V30 3002 H 282.903 0.0542623 -1.8342 0
M  V30 3003 H 281.285 2.27042 -3.2445 0
M  V30 3004 H 282.459 -0.246065 -4.60143 0
M  V30 3005 H 280.774 -0.064227 -4.1635 0
M  V30 3006 H 283.371 2.67802 -4.62803 0
M  V30 3007 H 283.714 2.95009 -2.93727 0
M  V30 3008 H 284.247 1.43693 -3.70941 0
M  V30 3009 H 280.986 0.449157 -6.53959 0
M  V30 3010 H 280.506 1.92984 -5.67906 0
M  V30 3011 H 282.185 1.7231 -6.23633 0
M  V30 3012 N 282.317 1.53212 0.369288 0
M  V30 3013 C 283.265 1.80054 1.47253 0
M  V30 3014 C 284.259 0.669456 1.55611 0
M  V30 3015 O 285.465 0.852328 1.58541 0
M  V30 3016 H 281.84 0.570034 0.490475 0
M  V30 3017 H 283.811 2.72403 1.21817 0
M  V30 3018 C 282.56 2.00403 2.84137 0
M  V30 3019 H 281.883 2.86876 2.78464 0
M  V30 3020 H 283.323 2.23164 3.60519 0
M  V30 3021 C 281.782 0.782081 3.27697 0
M  V30 3022 O 282.312 -0.0310205 4.01688 0
M  V30 3023 N 280.518 0.606573 2.84199 0
M  V30 3024 H 280.065 1.26939 2.24152 0
M  V30 3025 H 280.023 -0.20962 3.137 0
M  V30 3026 N 283.795 -0.628877 1.44509 0
M  V30 3027 C 284.758 -1.72263 1.51188 0
M  V30 3028 C 285.758 -1.55907 0.39367 0
M  V30 3029 O 286.948 -1.61361 0.656377 0
M  V30 3030 C 284.08 -3.11365 1.38798 0
M  V30 3031 H 285.273 -1.67714 2.4862 0
M  V30 3032 H 282.826 -0.842737 1.31634 0
M  V30 3033 H 283.561 -3.21507 0.424693 0
M  V30 3034 H 283.346 -3.24644 2.19884 0
M  V30 3035 H 284.836 -3.91075 1.46458 0
M  V30 3036 N 285.273 -1.31445 -0.869486 0
M  V30 3037 C 286.521 -1.20918 -1.61936 0
M  V30 3038 C 286.842 0.232683 -1.93607 0
M  V30 3039 O 286.112 1.15352 -1.58338 0
M  V30 3040 H 284.692 -0.44454 -0.600328 0
M  V30 3041 H 287.354 -1.64776 -1.0409 0
M  V30 3042 H 286.45 -1.78124 -2.56278 0
M  V30 3043 N 286.751 1.08385 -1.14413 0
M  V30 3044 C 287.976 1.85057 -0.936413 0
M  V30 3045 C 288.401 1.81055 0.509971 0
M  V30 3046 O 287.759 1.1958 1.36273 0
M  V30 3047 C 287.807 3.30505 -1.44217 0
M  V30 3048 O 286.911 4.07491 -0.634409 0
M  V30 3049 H 286.252 0.573425 -0.334784 0
M  V30 3050 H 288.782 1.36799 -1.52142 0
M  V30 3051 H 288.792 3.81348 -1.45043 0
M  V30 3052 H 287.467 3.32734 -2.49522 0
M  V30 3053 H 286.044 3.66368 -0.694902 0
M  V30 3054 N 288.23 0.939286 1.26551 0
M  V30 3055 C 289.16 0.465044 2.28822 0
M  V30 3056 C 290.141 -0.480692 1.63167 0
M  V30 3057 O 291.326 -0.382955 1.90387 0
M  V30 3058 C 288.456 -0.27234 3.46231 0
M  V30 3059 C 287.41 0.58666 4.2396 0
M  V30 3060 C 286.736 -0.280573 5.33963 0
M  V30 3061 C 288.036 1.85704 4.88171 0
M  V30 3062 H 289.73 1.31979 2.68741 0
M  V30 3063 H 287.276 0.636061 1.29191 0
M  V30 3064 H 289.229 -0.615133 4.16886 0
M  V30 3065 H 287.953 -1.16121 3.0526 0
M  V30 3066 H 286.612 0.91232 3.55067 0
M  V30 3067 H 286.26 -1.16874 4.89234 0
M  V30 3068 H 285.96 0.29076 5.8688 0
M  V30 3069 H 287.484 -0.618678 6.07458 0
M  V30 3070 H 288.898 1.58161 5.51052 0
M  V30 3071 H 287.295 2.37279 5.51197 0
M  V30 3072 H 288.365 2.56957 4.11219 0
M  V30 3073 N 289.708 -1.40897 0.706093 0
M  V30 3074 C 290.957 -2.00284 0.238574 0
M  V30 3075 C 291.27 -1.56604 -1.17194 0
M  V30 3076 O 292.476 -2.08624 -1.73748 0
M  V30 3077 C 290.932 -3.57934 0.375623 0
M  V30 3078 C 290.54 -4.10591 1.79217 0
M  V30 3079 C 292.284 -4.24488 -0.0315857 0
M  V30 3080 C 290.191 -5.60712 1.88032 0
M  V30 3081 H 289.121 -0.749144 0.0854398 0
M  V30 3082 H 291.772 -1.61251 0.875813 0
M  V30 3083 H 290.154 -3.94622 -0.330042 0
M  V30 3084 H 291.328 -3.85301 2.52745 0
M  V30 3085 H 289.643 -3.56601 2.15 0
M  V30 3086 H 292.24 -5.34698 0.0136842 0
M  V30 3087 H 292.583 -4.02261 -1.072 0
M  V30 3088 H 293.116 -3.92873 0.624181 0
M  V30 3089 H 289.855 -5.87781 2.90161 0
M  V30 3090 H 289.375 -5.87896 1.18903 0
M  V30 3091 H 291.054 -6.25658 1.64805 0
M  V30 3092 N 291.186 -0.45159 -1.50991 0
M  V30 3093 C 292.411 0.110667 -2.07105 0
M  V30 3094 C 292.836 1.3446 -1.31538 0
M  V30 3095 O 292.194 1.77743 -0.357365 0
M  V30 3096 C 292.242 0.397238 -3.58405 0
M  V30 3097 O 291.346 1.48124 -3.84881 0
M  V30 3098 H 290.687 -0.00439271 -0.663985 0
M  V30 3099 H 293.217 -0.637026 -1.9443 0
M  V30 3100 H 293.227 0.64351 -4.02893 0
M  V30 3101 H 291.902 -0.504553 -4.12828 0
M  V30 3102 H 290.479 1.22381 -3.52246 0
M  V30 3103 N 292.664 1.56529 -0.183458 0
M  V30 3104 C 293.892 2.01623 0.464285 0
M  V30 3105 C 294.307 1.06366 1.55986 0
M  V30 3106 O 293.664 0.0665398 1.82379 0
M  V30 3107 C 293.715 3.46475 1.03139 0
M  V30 3108 O 293.436 4.38095 -0.0204675 0
M  V30 3109 C 294.937 4.0703 1.75617 0
M  V30 3110 H 292.157 0.660596 0.117704 0
M  V30 3111 H 294.701 2.02451 -0.288751 0
M  V30 3112 H 292.856 3.46383 1.73486 0
M  V30 3113 H 293.27 5.22973 0.399952 0
M  V30 3114 H 294.744 5.10271 2.10542 0
M  V30 3115 H 295.221 3.49819 2.65563 0
M  V30 3116 H 295.827 4.1086 1.09882 0
M  V30 3117 N 294.142 -0.090211 1.57342 0
M  V30 3118 C 295.389 -0.792807 1.86335 0
M  V30 3119 C 295.717 -1.78494 0.772662 0
M  V30 3120 O 294.972 -1.94305 -0.233258 0
M  V30 3121 C 295.271 -1.55222 3.21933 0
M  V30 3122 C 294.937 -0.701765 4.45406 0
M  V30 3123 C 293.599 -0.467334 4.78925 0
M  V30 3124 C 295.951 -0.11086 5.21082 0
M  V30 3125 C 293.279 0.367785 5.85546 0
M  V30 3126 C 295.631 0.711609 6.28585 0
M  V30 3127 C 294.295 0.956086 6.60617 0
M  V30 3128 H 293.565 -0.290109 0.681849 0
M  V30 3129 H 296.212 -0.0541332 1.91423 0
M  V30 3130 H 294.517 -2.3626 3.12551 0
M  V30 3131 H 296.214 -2.10032 3.41595 0
M  V30 3132 H 292.804 -0.894598 4.1916 0
M  V30 3133 H 296.988 -0.279129 4.95514 0
M  V30 3134 H 292.244 0.566128 6.08773 0
M  V30 3135 H 296.418 1.17632 6.86393 0
M  V30 3136 H 294.045 1.60499 7.43064 0
M  V30 3137 N 295.62 -1.53406 -0.361157 0
M  V30 3138 C 296.869 -1.69022 -1.10066 0
M  V30 3139 C 297.182 -0.450838 -1.90333 0
M  V30 3140 O 298.388 -0.487617 -2.67085 0
M  V30 3141 C 296.844 -2.98812 -2.00598 0
M  V30 3142 C 296.452 -4.30027 -1.25621 0
M  V30 3143 C 298.196 -3.23795 -2.74513 0
M  V30 3144 C 296.103 -5.50903 -2.1508 0
M  V30 3145 H 295.033 -0.629776 -0.414606 0
M  V30 3146 H 297.684 -1.79907 -0.361348 0
M  V30 3147 H 296.066 -2.8174 -2.78278 0
M  V30 3148 H 297.24 -4.57745 -0.529739 0
M  V30 3149 H 295.555 -4.11522 -0.635496 0
M  V30 3150 H 298.152 -4.11289 -3.41681 0
M  V30 3151 H 298.495 -2.40045 -3.40123 0
M  V30 3152 H 299.028 -3.41561 -2.03914 0
M  V30 3153 H 295.767 -6.37143 -1.54041 0
M  V30 3154 H 295.287 -5.27459 -2.85565 0
M  V30 3155 H 296.966 -5.85865 -2.74538 0
M  V30 3156 N 297.098 0.621204 -1.44841 0
M  V30 3157 C 298.326 1.40752 -1.51646 0
M  V30 3158 C 298.741 1.88246 -0.144549 0
M  V30 3159 O 298.098 1.61422 0.851416 0
M  V30 3160 C 298.149 2.62119 -2.4895 0
M  V30 3161 O 297.87 2.16602 -3.80808 0
M  V30 3162 C 299.371 3.55135 -2.65319 0
M  V30 3163 H 296.591 0.431325 -0.514004 0
M  V30 3164 H 299.135 0.758835 -1.899 0
M  V30 3165 H 297.29 3.23058 -2.13805 0
M  V30 3166 H 297.704 2.95358 -4.33433 0
M  V30 3167 H 299.178 4.36874 -3.37409 0
M  V30 3168 H 299.655 4.04592 -1.70886 0
M  V30 3169 H 300.261 3.00058 -3.01405 0
M  V30 3170 N 298.576 1.31904 0.862503 0
M  V30 3171 C 299.987 1.19803 1.43193 0
M  V30 3172 C 300.338 -0.192567 1.95253 0
M  V30 3173 O 299.463 -1.09081 1.86896 0
M  V30 3174 C 300.058 2.16883 2.60283 0
M  V30 3175 C 298.617 2.08692 3.13248 0
M  V30 3176 C 297.764 2.05691 1.85975 0
M  V30 3177 H 300.715 1.43846 0.670365 0
M  V30 3178 H 300.736 1.76278 3.37204 0
M  V30 3179 H 300.248 3.18083 2.22363 0
M  V30 3180 H 298.349 1.10713 3.55771 0
M  V30 3181 H 298.462 2.9815 3.75025 0
M  V30 3182 H 296.826 1.50814 2.05249 0
M  V30 3183 H 297.609 3.08659 1.50282 0
M  V30 3184 N 300.054 -1.07777 1.14986 0
M  V30 3185 C 300.987 -2.14228 0.786243 0
M  V30 3186 C 301.965 -1.60888 -0.235347 0
M  V30 3187 O 303.149 -1.88099 -0.122909 0
M  V30 3188 C 300.276 -3.38281 0.168433 0
M  V30 3189 C 299.322 -4.10387 1.16123 0
M  V30 3190 S 300.155 -4.62371 2.70135 0
M  V30 3191 C 301.311 -5.89704 2.09762 0
M  V30 3192 H 301.544 -2.44741 1.68787 0
M  V30 3193 H 299.077 -1.19984 0.971756 0
M  V30 3194 H 301.035 -4.10098 -0.181588 0
M  V30 3195 H 299.696 -3.05953 -0.710725 0
M  V30 3196 H 298.889 -4.99431 0.677086 0
M  V30 3197 H 298.491 -3.44513 1.45556 0
M  V30 3198 H 300.783 -6.61648 1.45701 0
M  V30 3199 H 301.726 -6.42824 2.96955 0
M  V30 3200 H 302.134 -5.4302 1.54239 0
M  V30 3201 N 301.532 -0.945985 -1.26051 0
M  V30 3202 C 302.462 -0.477172 -2.28572 0
M  V30 3203 C 303.443 0.472032 -1.63419 0
M  V30 3204 O 304.628 0.372853 -1.90587 0
M  V30 3205 C 301.758 0.253975 -3.4637 0
M  V30 3206 C 300.712 -0.609135 -4.23643 0
M  V30 3207 C 300.038 0.252252 -5.34105 0
M  V30 3208 C 301.338 -1.8829 -4.8718 0
M  V30 3209 H 303.032 -1.33402 -2.68038 0
M  V30 3210 H 300.578 -0.642904 -1.28852 0
M  V30 3211 H 302.531 0.593016 -4.17207 0
M  V30 3212 H 301.255 1.145 -3.05871 0
M  V30 3213 H 299.914 -0.931138 -3.54578 0
M  V30 3214 H 299.562 1.14278 -4.89846 0
M  V30 3215 H 299.262 -0.32188 -5.86718 0
M  V30 3216 H 300.786 0.586454 -6.07777 0
M  V30 3217 H 302.2 -1.61081 -5.50205 0
M  V30 3218 H 300.597 -2.40199 -5.49931 0
M  V30 3219 H 301.667 -2.59134 -4.09851 0
M  V30 3220 N 303.011 1.40521 -0.713556 0
M  V30 3221 C 304.427 1.54839 -0.386907 0
M  V30 3222 C 304.627 1.68532 1.1045 0
M  V30 3223 O 303.683 1.67377 1.89053 0
M  V30 3224 C 304.996 2.77792 -1.15118 0
M  V30 3225 C 306.544 2.91607 -1.13729 0
M  V30 3226 C 307.019 4.1747 -1.88368 0
M  V30 3227 N 308.51 4.24466 -1.85427 0
M  V30 3228 C 309.245 5.20755 -2.40004 0
M  V30 3229 N 308.741 6.22965 -3.03129 0
M  V30 3230 N 310.534 5.1282 -2.30158 0
M  V30 3231 H 302.685 1.29879 -1.68063 0
M  V30 3232 H 304.948 0.627896 -0.710247 0
M  V30 3233 H 304.654 2.73944 -2.20561 0
M  V30 3234 H 304.528 3.6984 -0.741477 0
M  V30 3235 H 306.915 2.94959 -0.0910608 0
M  V30 3236 H 306.996 2.00682 -1.5862 0
M  V30 3237 H 306.64 4.1488 -2.9298 0
M  V30 3238 H 306.57 5.074 -1.40898 0
M  V30 3239 H 309.061 3.51241 -1.3942 0
M  V30 3240 H 309.374 6.92859 -3.42295 0
M  V30 3241 H 307.719 6.23415 -3.07212 0
M  V30 3242 H 310.91 4.31899 -1.80501 0
M  V30 3243 H 311.083 5.87689 -2.72993 0
M  V30 3244 N 304.489 0.459591 1.5075 0
M  V30 3245 C 305.737 -0.0991532 2.01857 0
M  V30 3246 C 306.058 -1.41247 1.34441 0
M  V30 3247 O 305.328 -1.89775 0.486022 0
M  V30 3248 H 303.908 -0.039633 0.745948 0
M  V30 3249 H 306.57 0.607387 1.85194 0
M  V30 3250 H 305.666 -0.258998 3.11023 0
M  V30 3251 N 305.967 -1.56429 0.191757 0
M  V30 3252 C 307.244 -1.89224 -0.495332 0
M  V30 3253 C 307.624 -1.10478 -1.79883 0
M  V30 3254 O 306.972 -0.204852 -2.2758 0
M  V30 3255 C 307.182 -3.41548 -0.717367 0
M  V30 3256 C 308.53 -4.11711 -1.03823 0
M  V30 3257 O 309.554 -3.4698 -0.805204 0
M  V30 3258 O 308.413 -5.2611 -1.47887 0
M  V30 3259 H 305.507 -0.785788 -0.25781 0
M  V30 3260 H 308.053 -1.68111 0.231721 0
M  V30 3261 H 306.825 -3.90772 0.203287 0
M  V30 3262 H 306.448 -3.68342 -1.497 0
M  V30 3263 N 307.445 0.0818655 -1.57387 0
M  V30 3264 C 308.691 0.784074 -1.8703 0
M  V30 3265 C 309.024 1.77729 -0.782689 0
M  V30 3266 O 308.299 1.93384 0.208051 0
M  V30 3267 C 308.582 1.50105 -3.27323 0
M  V30 3268 C 308.435 0.524925 -4.46727 0
M  V30 3269 C 309.754 2.44843 -3.65705 0
M  V30 3270 H 306.873 0.283582 -0.680257 0
M  V30 3271 H 309.515 0.0474352 -1.89941 0
M  V30 3272 H 307.665 2.12897 -3.24972 0
M  V30 3273 H 309.337 -0.0970111 -4.61198 0
M  V30 3274 H 307.58 -0.160606 -4.33503 0
M  V30 3275 H 308.251 1.064 -5.41648 0
M  V30 3276 H 310.727 1.92135 -3.69085 0
M  V30 3277 H 309.603 2.92018 -4.64776 0
M  V30 3278 H 309.864 3.29197 -2.95096 0
M  V30 3279 N 308.923 1.53595 0.353017 0
M  V30 3280 C 309.855 1.77219 1.45348 0
M  V30 3281 C 310.868 0.65324 1.49119 0
M  V30 3282 O 312.057 0.929775 1.52373 0
M  V30 3283 C 309.157 1.84841 2.84055 0
M  V30 3284 C 308.33 3.14649 3.03833 0
M  V30 3285 C 307.389 3.13351 4.22727 0
M  V30 3286 O 306.415 3.87107 4.17297 0
M  V30 3287 N 307.617 2.35052 5.30783 0
M  V30 3288 H 310.382 2.72178 1.25457 0
M  V30 3289 H 307.943 1.52528 0.542833 0
M  V30 3290 H 309.935 1.81435 3.61751 0
M  V30 3291 H 308.505 0.971114 2.97133 0
M  V30 3292 H 307.725 3.31256 2.13689 0
M  V30 3293 H 309.013 4.00411 3.13925 0
M  V30 3294 H 308.411 1.74663 5.38061 0
M  V30 3295 H 306.968 2.37453 6.07009 0
M  V30 3296 N 310.401 -0.613514 1.45168 0
M  V30 3297 C 311.641 -1.38405 1.5041 0
M  V30 3298 C 312.005 -1.91489 0.139922 0
M  V30 3299 O 313.206 -2.68716 0.067033 0
M  V30 3300 C 311.477 -2.50552 2.5487 0
M  V30 3301 S 313.036 -3.38439 2.79292 0
M  V30 3302 H 309.854 -0.471945 0.531779 0
M  V30 3303 H 312.456 -0.708518 1.82209 0
M  V30 3304 H 311.16 -2.09894 3.52665 0
M  V30 3305 H 310.691 -3.22913 2.24701 0
M  V30 3306 H 312.706 -4.48527 2.12222 0
M  V30 3307 N 311.879 -1.3236 -0.855495 0
M  V30 3308 C 313.126 -1.22872 -1.60962 0
M  V30 3309 C 313.454 0.209658 -1.93367 0
M  V30 3310 O 312.709 1.16243 -1.57436 0
M  V30 3311 C 313.008 -2.03275 -2.93963 0
M  V30 3312 C 312.674 -3.5264 -2.80991 0
M  V30 3313 C 311.336 -3.93364 -2.7716 0
M  V30 3314 C 313.688 -4.47626 -2.66983 0
M  V30 3315 C 311.016 -5.27319 -2.572 0
M  V30 3316 C 313.368 -5.81723 -2.48558 0
M  V30 3317 C 312.032 -6.2165 -2.4312 0
M  V30 3318 H 311.302 -0.44962 -0.589001 0
M  V30 3319 H 313.949 -1.63777 -0.992442 0
M  V30 3320 H 312.254 -1.55095 -3.59795 0
M  V30 3321 H 313.951 -1.93303 -3.51333 0
M  V30 3322 H 310.541 -3.20295 -2.84797 0
M  V30 3323 H 314.725 -4.17084 -2.68988 0
M  V30 3324 H 309.981 -5.57311 -2.51424 0
M  V30 3325 H 314.155 -6.5494 -2.36699 0
M  V30 3326 H 311.782 -7.25388 -2.27412 0
M  V30 3327 N 313.357 1.07166 -1.15556 0
M  V30 3328 C 314.605 1.79443 -0.929764 0
M  V30 3329 C 314.926 1.87246 0.544414 0
M  V30 3330 O 314.196 1.37473 1.39564 0
M  V30 3331 H 312.776 0.664625 -0.341003 0
M  V30 3332 H 315.438 1.29499 -1.45657 0
M  V30 3333 H 314.534 2.81832 -1.34079 0
M  V30 3334 N 314.835 0.952656 1.25548 0
M  V30 3335 C 315.745 0.47782 2.29682 0
M  V30 3336 C 316.761 -0.453859 1.67977 0
M  V30 3337 O 317.937 -0.330587 1.98668 0
M  V30 3338 C 315.002 -0.238655 3.45878 0
M  V30 3339 C 314.063 0.730994 4.23031 0
M  V30 3340 C 313.296 0.0486165 5.33678 0
M  V30 3341 O 313.519 -1.16612 5.58353 0
M  V30 3342 O 312.453 0.733152 5.97418 0
M  V30 3343 H 316.279 1.34312 2.72386 0
M  V30 3344 H 313.864 0.719026 1.30959 0
M  V30 3345 H 315.746 -0.641774 4.16484 0
M  V30 3346 H 314.421 -1.07916 3.05181 0
M  V30 3347 H 313.328 1.18428 3.5486 0
M  V30 3348 H 314.661 1.53946 4.67506 0
M  V30 3349 N 316.313 -1.40141 0.720998 0
M  V30 3350 C 317.59 -1.94677 0.189757 0
M  V30 3351 C 317.97 -1.65879 -1.30566 0
M  V30 3352 O 317.318 -0.979391 -2.06447 0
M  V30 3353 C 317.528 -3.45279 0.508304 0
M  V30 3354 C 318.876 -4.22209 0.449934 0
M  V30 3355 O 319.9 -3.53413 0.444677 0
M  V30 3356 O 318.759 -5.44788 0.432189 0
M  V30 3357 H 315.853 -0.826459 0.0299026 0
M  V30 3358 H 318.399 -1.49719 0.7989 0
M  V30 3359 H 317.171 -3.59619 1.54239 0
M  V30 3360 H 316.794 -3.97386 -0.130525 0
M  V30 3361 N 317.792 -0.46758 -1.50504 0
M  V30 3362 C 319.032 0.0874114 -2.04213 0
M  V30 3363 C 319.396 1.37301 -1.34211 0
M  V30 3364 O 320.597 2.01015 -1.78456 0
M  V30 3365 C 318.868 0.270571 -3.56374 0
M  V30 3366 S 320.427 0.784623 -4.31728 0
M  V30 3367 H 317.245 0.0176153 -0.710782 0
M  V30 3368 H 319.847 -0.633915 -1.84937 0
M  V30 3369 H 318.551 -0.670942 -4.04878 0
M  V30 3370 H 318.082 1.01811 -3.79997 0
M  V30 3371 H 320.097 2.05849 -4.51487 0
M  V30 3372 N 319.27 1.56325 -0.20005 0
M  V30 3373 C 320.5 2.01811 0.442232 0
M  V30 3374 C 320.908 1.07932 1.55394 0
M  V30 3375 O 320.251 0.0772685 1.83537 0
M  V30 3376 C 320.313 3.43685 1.05457 0
M  V30 3377 C 319.977 4.56928 0.0809833 0
M  V30 3378 C 320.974 5.15009 -0.711471 0
M  V30 3379 C 318.659 5.0229 -0.0315364 0
M  V30 3380 C 320.653 6.16904 -1.60336 0
M  V30 3381 C 318.34 6.04028 -0.926981 0
M  V30 3382 C 319.338 6.6121 -1.71146 0
M  V30 3383 O 319.026 7.60971 -2.59189 0
M  V30 3384 H 318.758 0.666173 0.114848 0
M  V30 3385 H 321.312 2.03085 -0.307511 0
M  V30 3386 H 319.542 3.39413 1.85299 0
M  V30 3387 H 321.231 3.72948 1.60201 0
M  V30 3388 H 321.997 4.80827 -0.634873 0
M  V30 3389 H 317.876 4.57476 0.568902 0
M  V30 3390 H 321.42 6.61464 -2.21611 0
M  V30 3391 H 317.317 6.37634 -1.00468 0
M  V30 3392 H 318.085 7.7841 -2.53023 0
M  V30 3393 N 320.748 -0.0735177 1.57428 0
M  V30 3394 C 321.711 -1.07192 2.02589 0
M  V30 3395 C 322.711 -1.31695 0.922661 0
M  V30 3396 O 323.901 -1.27445 1.18758 0
M  V30 3397 C 321.033 -2.41599 2.40506 0
M  V30 3398 H 322.226 -0.682727 2.92025 0
M  V30 3399 H 319.779 -0.319193 1.53006 0
M  V30 3400 H 320.514 -2.85354 1.5409 0
M  V30 3401 H 320.299 -2.25156 3.21009 0
M  V30 3402 H 321.789 -3.13367 2.76027 0
M  V30 3403 N 322.226 -1.5378 -0.344866 0
M  V30 3404 C 323.156 -1.84662 -1.42906 0
M  V30 3405 C 324.137 -0.701648 -1.54955 0
M  V30 3406 O 325.322 -0.953438 -1.69184 0
M  V30 3407 C 322.452 -2.05503 -2.79974 0
M  V30 3408 C 321.406 -3.21318 -2.82734 0
M  V30 3409 C 320.732 -3.2749 -4.22675 0
M  V30 3410 C 322.032 -4.59456 -2.48389 0
M  V30 3411 H 323.726 -2.75461 -1.17311 0
M  V30 3412 H 321.272 -1.32542 -0.562896 0
M  V30 3413 H 323.225 -2.25691 -3.55867 0
M  V30 3414 H 321.949 -1.11434 -3.07002 0
M  V30 3415 H 320.608 -3.00984 -2.09294 0
M  V30 3416 H 320.256 -2.31019 -4.4681 0
M  V30 3417 H 319.956 -4.05316 -4.25433 0
M  V30 3418 H 321.48 -3.49887 -5.00412 0
M  V30 3419 H 322.894 -4.79667 -3.13995 0
M  V30 3420 H 321.291 -5.39675 -2.62432 0
M  V30 3421 H 322.361 -4.63155 -1.4358 0
M  V30 3422 N 323.704 0.605807 -1.45491 0
M  V30 3423 C 324.667 1.69836 -1.5391 0
M  V30 3424 C 325.667 1.55261 -0.418424 0
M  V30 3425 O 326.857 1.60296 -0.681965 0
M  V30 3426 C 323.989 3.09117 -1.43734 0
M  V30 3427 H 325.182 1.63738 -2.51257 0
M  V30 3428 H 322.735 0.821689 -1.32959 0
M  V30 3429 H 323.47 3.20791 -0.475788 0
M  V30 3430 H 323.255 3.21104 -2.25021 0
M  V30 3431 H 324.745 3.88696 -1.52661 0
M  V30 3432 N 325.182 1.32811 0.848464 0
M  V30 3433 C 326.429 1.23724 1.60308 0
M  V30 3434 C 326.757 -0.1994 1.93475 0
M  V30 3435 O 326.012 -1.15406 1.5805 0
M  V30 3436 C 326.311 2.04831 2.92881 0
M  V30 3437 C 325.977 3.54125 2.79117 0
M  V30 3438 C 324.639 3.94829 2.7507 0
M  V30 3439 C 326.991 4.49036 2.64606 0
M  V30 3440 C 324.319 5.28675 2.544 0
M  V30 3441 C 326.671 5.83033 2.4547 0
M  V30 3442 C 325.335 6.22931 2.39819 0
M  V30 3443 H 324.605 0.452737 0.586609 0
M  V30 3444 H 327.252 1.64301 0.983743 0
M  V30 3445 H 325.557 1.57001 3.58968 0
M  V30 3446 H 327.254 1.95164 3.50303 0
M  V30 3447 H 323.844 3.21801 2.83094 0
M  V30 3448 H 328.028 4.18505 2.66772 0
M  V30 3449 H 323.284 5.58637 2.48465 0
M  V30 3450 H 327.458 6.56186 2.33222 0
M  V30 3451 H 325.085 7.26584 2.23562 0
M  V30 3452 N 326.66 -1.06551 1.16123 0
M  V30 3453 C 327.908 -1.78947 0.939267 0
M  V30 3454 C 328.229 -1.87532 -0.534476 0
M  V30 3455 O 327.499 -1.38211 -1.38833 0
M  V30 3456 H 326.079 -0.662807 0.344523 0
M  V30 3457 H 328.741 -1.28725 1.46342 0
M  V30 3458 H 327.837 -2.81117 1.35572 0
M  V30 3459 N 328.138 -0.959301 -1.25041 0
M  V30 3460 C 329.384 -0.617525 -1.9317 0
M  V30 3461 C 329.717 0.843981 -1.74902 0
M  V30 3462 O 328.992 1.60615 -1.09696 0
M  V30 3463 C 329.275 -0.982736 -3.46431 0
M  V30 3464 C 329.128 -2.50032 -3.73904 0
M  V30 3465 C 330.447 -0.511176 -4.37121 0
M  V30 3466 H 327.566 -0.22582 -0.701552 0
M  V30 3467 H 330.208 -1.19679 -1.4757 0
M  V30 3468 H 328.358 -0.489806 -3.854 0
M  V30 3469 H 330.03 -3.06737 -3.44544 0
M  V30 3470 H 328.273 -2.93598 -3.19348 0
M  V30 3471 H 328.944 -2.70635 -4.81103 0
M  V30 3472 H 331.42 -0.934075 -4.0548 0
M  V30 3473 H 330.296 -0.795361 -5.43107 0
M  V30 3474 H 330.557 0.588834 -4.38161 0
M  V30 3475 N 329.616 1.39756 -0.72842 0
M  V30 3476 C 331.027 1.83498 -0.344289 0
M  V30 3477 C 331.378 1.60868 1.12321 0
M  V30 3478 O 330.503 1.09634 1.86573 0
M  V30 3479 C 331.098 3.33114 -0.618112 0
M  V30 3480 C 329.657 3.753 -0.287549 0
M  V30 3481 C 328.804 2.62831 -0.884048 0
M  V30 3482 H 331.755 1.28842 -0.926578 0
M  V30 3483 H 331.776 3.80334 0.112349 0
M  V30 3484 H 331.288 3.49553 -1.68625 0
M  V30 3485 H 329.389 3.64451 0.775012 0
M  V30 3486 H 329.502 4.72945 -0.765512 0
M  V30 3487 H 327.866 2.52792 -0.311149 0
M  V30 3488 H 328.649 2.82078 -1.95671 0
M  V30 3489 N 331.094 0.475555 1.50254 0
M  V30 3490 C 332.342 -0.077738 2.0195 0
M  V30 3491 C 332.663 -1.39813 1.35931 0
M  V30 3492 O 331.933 -1.89249 0.506123 0
M  V30 3493 H 330.513 -0.031719 0.746326 0
M  V30 3494 H 333.175 0.626995 1.84539 0
M  V30 3495 H 332.271 -0.225995 3.11281 0
M  V30 3496 N 332.573 -1.56217 0.208337 0
M  V30 3497 C 333.503 -2.22694 -0.702116 0
M  V30 3498 C 334.484 -1.19432 -1.2112 0
M  V30 3499 O 335.669 -1.47978 -1.25762 0
M  V30 3500 C 332.799 -2.8966 -1.9161 0
M  V30 3501 C 331.753 -3.9928 -1.5414 0
M  V30 3502 C 331.079 -4.53476 -2.83308 0
M  V30 3503 C 332.379 -5.17012 -0.741339 0
M  V30 3504 H 334.073 -2.99034 -0.147898 0
M  V30 3505 H 331.619 -1.43831 -0.0696951 0
M  V30 3506 H 333.572 -3.34852 -2.55836 0
M  V30 3507 H 332.296 -2.10746 -2.49507 0
M  V30 3508 H 330.955 -3.54799 -0.922668 0
M  V30 3509 H 330.603 -3.71308 -3.39322 0
M  V30 3510 H 330.303 -5.27451 -2.58976 0
M  V30 3511 H 331.827 -5.01378 -3.485 0
M  V30 3512 H 333.241 -5.58667 -1.28699 0
M  V30 3513 H 331.638 -5.97137 -0.595627 0
M  V30 3514 H 332.708 -4.8423 0.254851 0
M  V30 3515 N 334.051 0.0651679 -1.57465 0
M  V30 3516 C 334.981 1.07693 -2.07182 0
M  V30 3517 C 335.962 1.39962 -0.966673 0
M  V30 3518 O 337.147 1.49475 -1.2398 0
M  V30 3519 C 334.277 2.3885 -2.52127 0
M  V30 3520 C 333.231 2.20917 -3.66579 0
M  V30 3521 C 332.557 3.57515 -3.97601 0
M  V30 3522 C 333.857 1.62493 -4.9638 0
M  V30 3523 H 335.551 0.663199 -2.91962 0
M  V30 3524 H 333.097 0.317569 -1.40455 0
M  V30 3525 H 335.05 3.09928 -2.85522 0
M  V30 3526 H 333.774 2.82215 -1.64384 0
M  V30 3527 H 332.433 1.52279 -3.33477 0
M  V30 3528 H 332.081 3.98463 -3.06979 0
M  V30 3529 H 331.781 3.46353 -4.74672 0
M  V30 3530 H 333.305 4.30013 -4.33499 0
M  V30 3531 H 334.719 2.23445 -5.27963 0
M  V30 3532 H 333.116 1.62009 -5.77818 0
M  V30 3533 H 334.186 0.587041 -4.81333 0
M  V30 3534 N 335.529 1.53961 0.336706 0
M  V30 3535 C 336.462 1.77255 1.43722 0
M  V30 3536 C 337.44 0.62193 1.50236 0
M  V30 3537 O 338.624 0.857874 1.67847 0
M  V30 3538 C 335.751 1.87733 2.81912 0
M  V30 3539 C 334.797 3.09933 2.92991 0
M  V30 3540 S 335.63 4.68836 2.58753 0
M  V30 3541 C 336.786 4.82202 3.99039 0
M  V30 3542 H 337.019 2.70322 1.23748 0
M  V30 3543 H 334.552 1.44917 0.532777 0
M  V30 3544 H 336.51 1.94455 3.61521 0
M  V30 3545 H 335.171 0.956666 2.99177 0
M  V30 3546 H 334.364 3.1396 3.94265 0
M  V30 3547 H 333.966 3.01472 2.21338 0
M  V30 3548 H 336.258 4.64032 4.9364 0
M  V30 3549 H 337.201 5.84298 4.00002 0
M  V30 3550 H 337.609 4.10604 3.87382 0
M  V30 3551 N 337.007 -0.598083 1.45811 0
M  V30 3552 C 338.253 -1.35882 1.50545 0
M  V30 3553 C 338.586 -1.93616 0.150445 0
M  V30 3554 O 337.861 -1.75604 -0.83628 0
M  V30 3555 C 338.144 -2.49966 2.59208 0
M  V30 3556 C 337.997 -1.97367 4.04186 0
M  V30 3557 C 339.316 -3.52068 2.64076 0
M  V30 3558 H 336.435 -0.492717 0.548087 0
M  V30 3559 H 339.077 -0.673319 1.77669 0
M  V30 3560 H 337.227 -3.08443 2.3621 0
M  V30 3561 H 338.899 -1.43466 4.38423 0
M  V30 3562 H 337.142 -1.283 4.14393 0
M  V30 3563 H 337.813 -2.79649 4.75921 0
M  V30 3564 H 340.289 -3.03448 2.84708 0
M  V30 3565 H 339.165 -4.2937 3.41954 0
M  V30 3566 H 339.426 -4.08304 1.69531 0
M  V30 3567 N 338.485 -1.33259 -0.841409 0
M  V30 3568 C 339.734 -1.23921 -1.59143 0
M  V30 3569 C 340.047 0.1941 -1.94635 0
M  V30 3570 O 341.253 0.409474 -2.68394 0
M  V30 3571 C 339.709 -2.17119 -2.87032 0
M  V30 3572 C 339.317 -3.65606 -2.58914 0
M  V30 3573 C 341.061 -2.16648 -3.65053 0
M  V30 3574 C 338.968 -4.50726 -3.82884 0
M  V30 3575 H 337.898 -0.460264 -0.597221 0
M  V30 3576 H 340.549 -1.58307 -0.927959 0
M  V30 3577 H 338.931 -1.75663 -3.54906 0
M  V30 3578 H 340.105 -4.15487 -1.99267 0
M  V30 3579 H 338.42 -3.68341 -1.942 0
M  V30 3580 H 341.017 -2.77474 -4.57069 0
M  V30 3581 H 341.36 -1.16088 -3.99787 0
M  V30 3582 H 341.893 -2.56453 -3.041 0
M  V30 3583 H 338.632 -5.52151 -3.53283 0
M  V30 3584 H 338.152 -4.0559 -4.41879 0
M  V30 3585 H 339.831 -4.64401 -4.50489 0
M  V30 3586 N 339.963 1.05934 -1.16686 0
M  V30 3587 C 340.926 2.11669 -0.879144 0
M  V30 3588 C 341.926 1.60294 0.127445 0
M  V30 3589 O 343.116 1.7389 -0.103865 0
M  V30 3590 C 340.248 3.39438 -0.315425 0
M  V30 3591 H 341.441 2.38626 -1.81653 0
M  V30 3592 H 338.994 1.22058 -0.976299 0
M  V30 3593 H 339.729 3.18132 0.629468 0
M  V30 3594 H 339.514 3.78034 -1.04079 0
M  V30 3595 H 341.004 4.17391 -0.132189 0
M  V30 3596 N 341.441 0.965919 1.2453 0
M  V30 3597 C 342.371 0.513476 2.27784 0
M  V30 3598 C 343.352 -0.445974 1.6415 0
M  V30 3599 O 344.537 -0.342485 1.91156 0
M  V30 3600 C 341.667 -0.198839 3.4673 0
M  V30 3601 C 340.621 0.676456 4.2262 0
M  V30 3602 C 339.947 -0.167248 5.34438 0
M  V30 3603 C 341.247 1.96017 4.84123 0
M  V30 3604 H 342.941 1.3765 2.65881 0
M  V30 3605 H 340.487 0.663321 1.27813 0
M  V30 3606 H 342.44 -0.526567 4.18097 0
M  V30 3607 H 341.164 -1.0962 3.07654 0
M  V30 3608 H 339.823 0.98743 3.53052 0
M  V30 3609 H 339.471 -1.0647 4.91603 0
M  V30 3610 H 339.171 0.415181 5.86131 0
M  V30 3611 H 340.695 -0.489688 6.08633 0
M  V30 3612 H 342.109 1.69814 5.47573 0
M  V30 3613 H 340.506 2.48918 5.4604 0
M  V30 3614 H 341.576 2.65622 4.05676 0
M  V30 3615 N 342.919 -1.39368 0.735821 0
M  V30 3616 C 344.165 -2.00794 0.284544 0
M  V30 3617 C 344.498 -1.58255 -1.12557 0
M  V30 3618 O 343.773 -0.811819 -1.76748 0
M  V30 3619 C 344.056 -3.58011 0.387337 0
M  V30 3620 C 343.909 -4.10566 1.83728 0
M  V30 3621 C 345.228 -4.395 -0.22975 0
M  V30 3622 H 342.347 -0.729501 0.104866 0
M  V30 3623 H 344.989 -1.65564 0.93213 0
M  V30 3624 H 343.139 -3.88154 -0.164006 0
M  V30 3625 H 344.811 -3.91139 2.44556 0
M  V30 3626 H 343.054 -3.64095 2.35833 0
M  V30 3627 H 343.725 -5.19702 1.86047 0
M  V30 3628 H 346.201 -4.15406 0.240257 0
M  V30 3629 H 345.077 -5.48752 -0.127485 0
M  V30 3630 H 345.338 -4.22062 -1.3159 0
M  V30 3631 N 344.397 -0.483516 -1.5 0
M  V30 3632 C 345.643 0.0672592 -2.02688 0
M  V30 3633 C 345.976 1.38247 -1.36387 0
M  V30 3634 O 345.251 1.88131 -0.493675 0
M  V30 3635 C 345.534 0.238109 -3.59312 0
M  V30 3636 C 345.387 -1.099 -4.36168 0
M  V30 3637 C 346.706 0.986916 -4.28892 0
M  V30 3638 H 343.825 0.0229696 -0.736642 0
M  V30 3639 H 346.467 -0.631527 -1.79197 0
M  V30 3640 H 344.617 0.8333 -3.79458 0
M  V30 3641 H 346.289 -1.73172 -4.27562 0
M  V30 3642 H 344.532 -1.69261 -3.99416 0
M  V30 3643 H 345.203 -0.932954 -5.44059 0
M  V30 3644 H 347.679 0.482302 -4.13295 0
M  V30 3645 H 346.555 1.07527 -5.38265 0
M  V30 3646 H 346.816 2.0265 -3.92919 0
M  V30 3647 N 345.875 1.56104 -0.216619 0
M  V30 3648 C 347.122 1.98172 0.416416 0
M  V30 3649 C 347.45 1.10413 1.60122 0
M  V30 3650 O 346.705 0.147967 1.9514 0
M  V30 3651 C 347.004 3.45923 0.898464 0
M  V30 3652 C 346.67 4.50559 -0.175288 0
M  V30 3653 C 345.332 4.78897 -0.470271 0
M  V30 3654 C 347.684 5.1334 -0.901728 0
M  V30 3655 C 345.012 5.67299 -1.4963 0
M  V30 3656 C 347.364 6.02853 -1.91705 0
M  V30 3657 C 346.028 6.29537 -2.21901 0
M  V30 3658 H 345.298 0.725164 0.152377 0
M  V30 3659 H 347.945 1.88839 -0.318103 0
M  V30 3660 H 346.25 3.52434 1.71165 0
M  V30 3661 H 347.947 3.75841 1.39803 0
M  V30 3662 H 344.537 4.28551 0.0647806 0
M  V30 3663 H 348.721 4.91521 -0.687072 0
M  V30 3664 H 343.977 5.86239 -1.73592 0
M  V30 3665 H 348.151 6.50552 -2.48505 0
M  V30 3666 H 345.778 6.97835 -3.01548 0
M  V30 3667 N 347.353 -0.0568162 1.57498 0
M  V30 3668 C 348.316 -1.05038 2.03715 0
M  V30 3669 C 349.316 -1.30709 0.936577 0
M  V30 3670 O 350.506 -1.26178 1.20103 0
M  V30 3671 C 347.638 -2.39034 2.43055 0
M  V30 3672 H 348.831 -0.651715 2.92733 0
M  V30 3673 H 346.384 -0.302947 1.53336 0
M  V30 3674 H 347.119 -2.83703 1.57108 0
M  V30 3675 H 346.904 -2.21739 3.2338 0
M  V30 3676 H 348.394 -3.10421 2.79336 0
M  V30 3677 N 348.832 -1.54138 -0.328536 0
M  V30 3678 C 349.765 -1.78014 -1.4278 0
M  V30 3679 C 350.743 -0.629889 -1.49904 0
M  V30 3680 O 351.927 -0.866763 -1.6739 0
M  V30 3681 C 349.054 -1.89225 -2.80912 0
M  V30 3682 C 348.1 -3.11483 -2.91343 0
M  V30 3683 S 348.933 -4.70201 -2.56263 0
M  V30 3684 C 350.089 -4.84312 -3.96476 0
M  V30 3685 H 350.322 -2.70974 -1.22313 0
M  V30 3686 H 347.855 -1.45197 -0.525084 0
M  V30 3687 H 349.813 -1.9637 -3.60485 0
M  V30 3688 H 348.474 -0.972518 -2.98665 0
M  V30 3689 H 347.667 -3.16046 -3.92595 0
M  V30 3690 H 347.269 -3.02642 -2.19736 0
M  V30 3691 H 349.561 -4.66643 -4.91173 0
M  V30 3692 H 350.504 -5.86411 -3.96898 0
M  V30 3693 H 350.912 -4.12652 -3.85199 0
M  V30 3694 N 350.31 0.590341 -1.46126 0
M  V30 3695 C 351.558 1.34616 -1.50742 0
M  V30 3696 C 351.879 1.94363 -0.157486 0
M  V30 3697 O 351.149 1.78136 0.815136 0
M  V30 3698 H 349.729 0.499789 -0.555175 0
M  V30 3699 H 352.391 0.691953 -1.82203 0
M  V30 3700 H 351.487 2.15678 -2.25587 0
M  V30 3701 N 351.788 1.33704 0.83433 0
M  V30 3702 C 353.013 1.28615 1.62705 0
M  V30 3703 C 353.438 -0.139242 1.87584 0
M  V30 3704 O 352.796 -1.09734 1.4432 0
M  V30 3705 C 352.844 2.07139 2.95171 0
M  V30 3706 O 351.948 1.4331 3.86699 0
M  V30 3707 H 351.289 0.44226 0.49528 0
M  V30 3708 H 353.819 1.76335 1.03766 0
M  V30 3709 H 353.829 2.18073 3.44831 0
M  V30 3710 H 352.504 3.10779 2.76386 0
M  V30 3711 H 351.081 1.4105 3.45195 0
M  V30 3712 N 353.266 -1.05314 1.17247 0
M  V30 3713 C 354.213 -2.13031 0.888058 0
M  V30 3714 C 355.183 -1.65253 -0.167537 0
M  V30 3715 O 356.368 -1.90775 -0.0305974 0
M  V30 3716 C 353.508 -3.42702 0.406147 0
M  V30 3717 C 352.621 -4.04161 1.52572 0
M  V30 3718 C 351.756 -5.21744 0.997808 0
M  V30 3719 C 350.795 -5.75207 2.09291 0
M  V30 3720 N 349.932 -6.84094 1.57986 0
M  V30 3721 H 354.772 -2.36698 1.81048 0
M  V30 3722 H 352.309 -1.16121 0.903013 0
M  V30 3723 H 354.267 -4.17059 0.108305 0
M  V30 3724 H 352.897 -3.19222 -0.479313 0
M  V30 3725 H 351.949 -3.27253 1.93931 0
M  V30 3726 H 353.261 -4.39881 2.35172 0
M  V30 3727 H 352.415 -6.03168 0.653739 0
M  V30 3728 H 351.154 -4.87495 0.141232 0
M  V30 3729 H 350.159 -4.92414 2.44557 0
M  V30 3730 H 351.384 -6.11505 2.95362 0
M  V30 3731 H 349.33 -6.51745 0.74598 0
M  V30 3732 H 349.247 -7.18811 2.34195 0
M  V30 3733 H 350.515 -7.69172 1.26468 0
M  V30 3734 N 354.744 -0.972509 -1.24016 0
M  V30 3735 C 355.993 -0.632603 -1.91523 0
M  V30 3736 C 356.306 0.836641 -1.76804 0
M  V30 3737 O 357.512 1.28728 -2.39043 0
M  V30 3738 C 355.968 -1.08082 -3.43287 0
M  V30 3739 C 355.576 -2.57386 -3.66683 0
M  V30 3740 C 357.32 -0.814288 -4.16617 0
M  V30 3741 C 355.227 -2.95915 -5.12043 0
M  V30 3742 H 354.157 -0.232898 -0.717129 0
M  V30 3743 H 356.808 -1.17936 -1.40582 0
M  V30 3744 H 355.19 -0.462339 -3.93292 0
M  V30 3745 H 356.364 -3.24405 -3.27258 0
M  V30 3746 H 354.679 -2.81701 -3.06649 0
M  V30 3747 H 357.276 -1.0781 -5.23718 0
M  V30 3748 H 357.619 0.24955 -4.15551 0
M  V30 3749 H 358.152 -1.39397 -3.72577 0
M  V30 3750 H 354.891 -4.0139 -5.18234 0
M  V30 3751 H 354.411 -2.33584 -5.52448 0
M  V30 3752 H 356.09 -2.86086 -5.80314 0
M  V30 3753 N 356.222 1.38976 -0.743202 0
M  V30 3754 C 357.452 2.04339 -0.304807 0
M  V30 3755 C 357.86 1.56162 1.06819 0
M  V30 3756 O 357.203 0.725284 1.68776 0
M  V30 3757 C 357.265 3.58716 -0.237369 0
M  V30 3758 C 356.929 4.29905 -1.55018 0
M  V30 3759 C 357.926 4.55987 -2.49744 0
M  V30 3760 C 355.611 4.68294 -1.81675 0
M  V30 3761 C 357.605 5.19478 -3.69353 0
M  V30 3762 C 355.292 5.31512 -3.0156 0
M  V30 3763 C 356.29 5.57037 -3.9522 0
M  V30 3764 O 355.978 6.18941 -5.12998 0
M  V30 3765 H 355.71 0.663439 -0.12971 0
M  V30 3766 H 358.264 1.78852 -1.01001 0
M  V30 3767 H 356.494 3.83133 0.524003 0
M  V30 3768 H 358.183 4.05543 0.170121 0
M  V30 3769 H 358.949 4.26767 -2.30423 0
M  V30 3770 H 354.828 4.47779 -1.09615 0
M  V30 3771 H 358.372 5.39318 -4.42473 0
M  V30 3772 H 354.269 5.60153 -3.20778 0
M  V30 3773 H 355.037 6.37433 -5.13441 0
M  V30 3774 N 357.7 0.491464 1.49741 0
M  V30 3775 C 358.648 -0.305837 2.30581 0
M  V30 3776 C 359.642 -0.971642 1.38764 0
M  V30 3777 O 360.848 -0.90042 1.5586 0
M  V30 3778 H 357.223 -0.117482 0.742767 0
M  V30 3779 H 359.194 0.396093 2.95759 0
M  V30 3780 C 357.943 -1.36319 3.19863 0
M  V30 3781 H 357.266 -0.860258 3.90435 0
M  V30 3782 H 358.706 -1.89323 3.79385 0
M  V30 3783 C 357.165 -2.37621 2.38826 0
M  V30 3784 O 357.695 -3.43311 2.08567 0
M  V30 3785 N 355.901 -2.09849 2.01026 0
M  V30 3786 H 355.448 -1.23922 2.25834 0
M  V30 3787 H 355.406 -2.77859 1.47112 0
M  V30 3788 N 359.178 -1.55987 0.224894 0
M  V30 3789 C 360.125 -2.20436 -0.68385 0
M  V30 3790 C 361.095 -1.16102 -1.18783 0
M  V30 3791 O 362.28 -1.4447 -1.24632 0
M  V30 3792 C 359.42 -2.89076 -1.88491 0
M  V30 3793 C 358.533 -4.08012 -1.41951 0
M  V30 3794 C 357.668 -4.64426 -2.5784 0
M  V30 3795 C 356.707 -5.75656 -2.08053 0
M  V30 3796 N 355.844 -6.26347 -3.17227 0
M  V30 3797 H 360.684 -2.97727 -0.12754 0
M  V30 3798 H 358.221 -1.47011 -0.0511978 0
M  V30 3799 H 360.179 -3.27059 -2.59014 0
M  V30 3800 H 358.809 -2.14298 -2.41405 0
M  V30 3801 H 357.861 -3.75492 -0.609095 0
M  V30 3802 H 359.173 -4.88375 -1.01447 0
M  V30 3803 H 358.327 -5.04869 -3.3644 0
M  V30 3804 H 357.066 -3.83233 -3.01635 0
M  V30 3805 H 356.071 -5.34712 -1.27916 0
M  V30 3806 H 357.296 -6.58686 -1.65255 0
M  V30 3807 H 355.242 -5.48067 -3.60497 0
M  V30 3808 H 355.159 -7.01843 -2.80986 0
M  V30 3809 H 356.427 -6.71447 -3.95953 0
M  V30 3810 N 360.656 0.0484629 -1.57525 0
M  V30 3811 C 362.067 0.597486 -1.76881 0
M  V30 3812 C 362.418 1.76664 -0.853475 0
M  V30 3813 O 361.543 2.16357 -0.0433656 0
M  V30 3814 C 362.138 1.09066 -3.20765 0
M  V30 3815 C 360.697 1.58535 -3.41385 0
M  V30 3816 C 359.844 0.514868 -2.72478 0
M  V30 3817 H 362.795 -0.177758 -1.57701 0
M  V30 3818 H 362.816 1.95875 -3.2621 0
M  V30 3819 H 362.328 0.239521 -3.8736 0
M  V30 3820 H 360.429 2.45898 -2.79937 0
M  V30 3821 H 360.542 1.64622 -4.49929 0
M  V30 3822 H 358.906 0.965407 -2.35695 0
M  V30 3823 H 359.689 -0.32648 -3.41744 0
M  V30 3824 N 362.134 1.5431 0.320358 0
M  V30 3825 C 363.545 1.63872 0.894594 0
M  V30 3826 C 363.896 0.534847 1.88769 0
M  V30 3827 O 363.021 -0.331732 2.13842 0
M  V30 3828 C 363.616 2.97049 1.62934 0
M  V30 3829 C 362.175 3.08796 2.15226 0
M  V30 3830 C 361.322 2.59456 0.978671 0
M  V30 3831 H 364.273 1.58398 0.0978544 0
M  V30 3832 H 364.294 2.87388 2.49376 0
M  V30 3833 H 363.806 3.7737 0.906302 0
M  V30 3834 H 361.907 2.33156 2.90636 0
M  V30 3835 H 362.02 4.14649 2.40006 0
M  V30 3836 H 360.384 2.1543 1.35875 0
M  V30 3837 H 361.167 3.42237 0.269895 0
M  V30 3838 N 363.613 -0.582584 1.46437 0
M  V30 3839 C 365.024 -1.1647 1.45916 0
M  V30 3840 C 365.375 -1.95177 0.200077 0
M  V30 3841 O 364.5 -2.04874 -0.696819 0
M  V30 3842 C 365.095 -2.11885 2.64367 0
M  V30 3843 C 363.654 -2.65421 2.66887 0
M  V30 3844 C 362.801 -1.41294 2.38603 0
M  V30 3845 H 365.752 -0.370514 1.54314 0
M  V30 3846 H 365.773 -2.9535 2.39892 0
M  V30 3847 H 365.285 -1.54573 3.5599 0
M  V30 3848 H 363.386 -3.26602 1.79338 0
M  V30 3849 H 363.499 -3.08147 3.66854 0
M  V30 3850 H 361.863 -1.71109 1.88663 0
M  V30 3851 H 362.646 -0.858125 3.32402 0
M  V30 3852 N 365.091 -1.34144 -0.827227 0
M  V30 3853 C 366.001 -1.27428 -1.96975 0
M  V30 3854 C 367.017 -0.182728 -1.73038 0
M  V30 3855 O 368.193 -0.408426 -1.97215 0
M  V30 3856 C 365.258 -1.02526 -3.31194 0
M  V30 3857 C 364.319 -2.20796 -3.68168 0
M  V30 3858 C 363.552 -1.97073 -4.95982 0
M  V30 3859 O 363.775 -0.926822 -5.6282 0
M  V30 3860 O 362.709 -2.83912 -5.30733 0
M  V30 3861 H 366.535 -2.23537 -2.05584 0
M  V30 3862 H 364.12 -1.14307 -0.961989 0
M  V30 3863 H 366.002 -0.904026 -4.11589 0
M  V30 3864 H 364.677 -0.0945389 -3.23562 0
M  V30 3865 H 363.584 -2.38477 -2.88235 0
M  V30 3866 H 364.917 -3.12243 -3.8048 0
M  V30 3867 N 366.569 1.04691 -1.17803 0
M  V30 3868 C 367.817 1.7743 -0.967617 0
M  V30 3869 C 368.138 1.88359 0.504574 0
M  V30 3870 O 367.408 1.40402 1.36617 0
M  V30 3871 H 365.988 0.657242 -0.355024 0
M  V30 3872 H 368.65 1.2638 -1.48371 0
M  V30 3873 H 367.746 2.78924 -1.40027 0
M  V30 3874 N 368.047 0.979072 1.23499 0
M  V30 3875 C 368.995 0.510604 2.26926 0
M  V30 3876 C 369.989 -0.431691 1.63807 0
M  V30 3877 O 371.195 -0.30573 1.77385 0
M  V30 3878 H 367.57 0.146688 0.737554 0
M  V30 3879 H 369.541 1.39466 2.63803 0
M  V30 3880 C 368.29 -0.172658 3.47271 0
M  V30 3881 H 367.613 0.543331 3.96091 0
M  V30 3882 H 369.053 -0.464101 4.21452 0
M  V30 3883 C 367.512 -1.40345 3.06276 0
M  V30 3884 O 368.042 -2.49978 3.14442 0
M  V30 3885 N 366.248 -1.27362 2.61203 0
M  V30 3886 H 365.795 -0.381584 2.54758 0
M  V30 3887 H 365.753 -2.09822 2.34141 0
M  V30 3888 N 369.525 -1.3858 0.750561 0
M  V30 3889 C 370.774 -1.99424 0.302172 0
M  V30 3890 C 371.087 -1.60254 -1.12152 0
M  V30 3891 O 372.293 -2.14046 -1.67023 0
M  V30 3892 C 370.749 -3.56558 0.489307 0
M  V30 3893 C 370.357 -4.04682 1.92189 0
M  V30 3894 C 372.101 -4.24374 0.103478 0
M  V30 3895 C 370.008 -5.54446 2.05775 0
M  V30 3896 H 368.938 -0.746046 0.10923 0
M  V30 3897 H 371.589 -1.58383 0.92667 0
M  V30 3898 H 369.971 -3.95472 -0.204329 0
M  V30 3899 H 371.145 -3.77065 2.64875 0
M  V30 3900 H 369.46 -3.4958 2.26236 0
M  V30 3901 H 372.057 -5.34384 0.183787 0
M  V30 3902 H 372.4 -4.05468 -0.943481 0
M  V30 3903 H 372.933 -3.90688 0.748854 0
M  V30 3904 H 369.672 -5.78252 3.08714 0
M  V30 3905 H 369.192 -5.83816 1.37546 0
M  V30 3906 H 370.871 -6.20099 1.84626 0
M  V30 3907 N 371.003 -0.499398 -1.49478 0
M  V30 3908 C 372.249 0.0457576 -2.02748 0
M  V30 3909 C 372.582 1.36793 -1.37846 0
M  V30 3910 O 371.857 1.87596 -0.513601 0
M  V30 3911 C 372.14 0.199986 -3.59544 0
M  V30 3912 C 371.993 -1.1452 -4.34977 0
M  V30 3913 C 373.312 0.94137 -4.29914 0
M  V30 3914 H 370.431 0.0151552 -0.736844 0
M  V30 3915 H 373.073 -0.650498 -1.78518 0
M  V30 3916 H 371.223 0.793007 -3.8032 0
M  V30 3917 H 372.895 -1.77697 -4.25701 0
M  V30 3918 H 371.138 -1.73488 -3.97598 0
M  V30 3919 H 371.809 -0.990607 -5.43039 0
M  V30 3920 H 374.285 0.43844 -4.13784 0
M  V30 3921 H 373.161 1.01812 -5.39375 0
M  V30 3922 H 373.422 1.98471 -3.95046 0
M  V30 3923 N 372.481 1.55866 -0.233164 0
M  V30 3924 C 373.444 2.1953 0.658715 0
M  V30 3925 C 374.444 1.16053 1.11303 0
M  V30 3926 O 375.634 1.41218 1.01996 0
M  V30 3927 C 372.766 2.82791 1.90373 0
M  V30 3928 H 373.959 2.99721 0.10347 0
M  V30 3929 H 371.512 1.56291 0.0164245 0
M  V30 3930 H 372.247 2.06501 2.50056 0
M  V30 3931 H 372.032 3.58578 1.58632 0
M  V30 3932 H 373.522 3.31556 2.53891 0
M  V30 3933 N 373.959 -0.0401083 1.57549 0
M  V30 3934 C 374.891 -1.07149 2.02612 0
M  V30 3935 C 375.904 -1.33126 0.937085 0
M  V30 3936 O 377.093 -1.30808 1.21456 0
M  V30 3937 C 374.193 -2.41561 2.37701 0
M  V30 3938 C 373.366 -2.35096 3.68848 0
M  V30 3939 C 372.425 -3.51867 3.91249 0
M  V30 3940 O 371.451 -3.3186 4.62447 0
M  V30 3941 N 372.653 -4.73351 3.36035 0
M  V30 3942 H 375.418 -0.687485 2.91708 0
M  V30 3943 H 372.979 -0.228248 1.60283 0
M  V30 3944 H 374.971 -3.18379 2.49833 0
M  V30 3945 H 373.541 -2.71846 1.54332 0
M  V30 3946 H 372.761 -1.4345 3.67173 0
M  V30 3947 H 374.049 -2.27908 4.54901 0
M  V30 3948 H 373.447 -4.92507 2.78304 0
M  V30 3949 H 372.004 -5.47572 3.53565 0
M  V30 3950 N 375.437 -1.54477 -0.31217 0
M  V30 3951 C 376.683 -1.73483 -1.0503 0
M  V30 3952 C 377.016 -0.513125 -1.87298 0
M  V30 3953 O 376.291 0.489864 -1.8823 0
M  V30 3954 C 376.574 -3.01723 -1.96558 0
M  V30 3955 C 376.427 -4.3417 -1.17545 0
M  V30 3956 C 377.746 -3.25772 -2.95907 0
M  V30 3957 H 374.865 -0.631222 -0.380432 0
M  V30 3958 H 377.507 -1.87184 -0.325932 0
M  V30 3959 H 375.657 -2.90174 -2.58324 0
M  V30 3960 H 377.329 -4.5762 -0.581513 0
M  V30 3961 H 375.572 -4.31159 -0.477925 0
M  V30 3962 H 376.243 -5.20143 -1.84811 0
M  V30 3963 H 378.719 -3.36857 -2.44267 0
M  V30 3964 H 377.595 -4.16838 -3.57123 0
M  V30 3965 H 377.856 -2.43537 -3.68974 0
M  V30 3966 N 376.915 0.57481 -1.46744 0
M  V30 3967 C 378.162 1.33272 -1.52462 0
M  V30 3968 C 378.49 1.93669 -0.179572 0
M  V30 3969 O 377.745 1.7743 0.825664 0
M  V30 3970 C 378.044 2.476 -2.57738 0
M  V30 3971 C 377.71 2.05146 -4.01529 0
M  V30 3972 C 376.372 1.93284 -4.40676 0
M  V30 3973 C 378.724 1.72506 -4.91824 0
M  V30 3974 C 376.052 1.47049 -5.67973 0
M  V30 3975 C 378.404 1.27748 -6.19567 0
M  V30 3976 C 377.068 1.14468 -6.57612 0
M  V30 3977 H 376.338 0.487678 -0.557899 0
M  V30 3978 H 378.985 0.646456 -1.80259 0
M  V30 3979 H 377.29 3.21708 -2.23632 0
M  V30 3980 H 378.987 3.05807 -2.5939 0
M  V30 3981 H 375.577 2.15316 -3.7059 0
M  V30 3982 H 379.761 1.80552 -4.62293 0
M  V30 3983 H 375.017 1.35417 -5.96215 0
M  V30 3984 H 379.191 1.01547 -6.88957 0
M  V30 3985 H 376.818 0.78419 -7.56145 0
M  V30 3986 N 378.394 1.34581 0.820102 0
M  V30 3987 C 379.341 1.2639 1.93117 0
M  V30 3988 C 380.311 0.138554 1.65521 0
M  V30 3989 O 381.496 0.320004 1.88097 0
M  V30 3990 C 378.636 1.02812 3.29429 0
M  V30 3991 C 377.749 2.24146 3.693 0
M  V30 3992 C 376.884 1.93829 4.94574 0
M  V30 3993 C 375.923 3.1129 5.27034 0
M  V30 3994 N 375.06 2.80838 6.43486 0
M  V30 3995 H 379.9 2.21408 1.99455 0
M  V30 3996 H 377.437 1.10077 0.975784 0
M  V30 3997 H 379.395 0.871788 4.0799 0
M  V30 3998 H 378.025 0.114612 3.22596 0
M  V30 3999 H 377.077 2.50691 2.86109 0
M  V30 4000 H 378.389 3.11899 3.89257 0
M  V30 4001 H 377.543 1.74948 5.80929 0
M  V30 4002 H 376.282 1.03341 4.76626 0
M  V30 4003 H 375.287 3.30764 4.39175 0
M  V30 4004 H 376.512 4.02561 5.4692 0
M  V30 4005 H 374.458 1.92929 6.26988 0
M  V30 4006 H 374.375 3.62123 6.63629 0
M  V30 4007 H 375.643 2.65467 7.32903 0
M  V30 4008 N 379.872 -1.04064 1.18357 0
M  V30 4009 C 381.112 -1.78829 0.989921 0
M  V30 4010 C 381.476 -1.86106 -0.472095 0
M  V30 4011 O 382.677 -2.57076 -0.785187 0
M  V30 4012 C 380.948 -3.1823 1.6268 0
M  V30 4013 S 382.507 -4.09332 1.58091 0
M  V30 4014 H 379.325 -0.615754 0.355482 0
M  V30 4015 H 381.927 -1.24778 1.50501 0
M  V30 4016 H 380.631 -3.10543 2.68311 0
M  V30 4017 H 380.162 -3.77357 1.112 0
M  V30 4018 H 382.177 -4.92598 0.596817 0
M  V30 4019 N 381.35 -0.985608 -1.22978 0
M  V30 4020 C 382.599 -0.652881 -1.90841 0
M  V30 4021 C 382.912 0.817842 -1.77681 0
M  V30 4022 O 384.118 1.26185 -2.40395 0
M  V30 4023 C 382.574 -1.11717 -3.42122 0
M  V30 4024 C 382.182 -2.6126 -3.63933 0
M  V30 4025 C 383.926 -0.85843 -4.1573 0
M  V30 4026 C 381.833 -3.0133 -5.08876 0
M  V30 4027 H 380.763 -0.240491 -0.714619 0
M  V30 4028 H 383.414 -1.1942 -1.39324 0
M  V30 4029 H 381.796 -0.504027 -3.92779 0
M  V30 4030 H 382.97 -3.27858 -3.23799 0
M  V30 4031 H 381.285 -2.84937 -3.03644 0
M  V30 4032 H 383.882 -1.13359 -5.22546 0
M  V30 4033 H 384.225 0.205461 -4.15793 0
M  V30 4034 H 384.758 -1.43341 -3.71077 0
M  V30 4035 H 381.497 -4.06864 -5.13947 0
M  V30 4036 H 381.017 -2.3943 -5.49939 0
M  V30 4037 H 382.696 -2.92224 -5.77247 0
M  V30 4038 N 382.828 1.3818 -0.7579 0
M  V30 4039 C 384.074 2.0078 -0.325423 0
M  V30 4040 C 384.429 1.59085 1.08211 0
M  V30 4041 O 383.722 0.820394 1.73148 0
M  V30 4042 C 383.916 3.55252 -0.391218 0
M  V30 4043 C 383.745 4.11947 -1.8036 0
M  V30 4044 C 382.515 4.43519 -2.42113 0
M  V30 4045 C 384.713 4.33908 -2.76095 0
M  V30 4046 N 382.695 4.85847 -3.75267 0
M  V30 4047 C 384.066 4.78692 -3.94023 0
M  V30 4048 C 386.121 4.16015 -2.73561 0
M  V30 4049 C 384.824 5.07459 -5.09782 0
M  V30 4050 C 386.85 4.45909 -3.88483 0
M  V30 4051 C 386.212 4.90921 -5.0515 0
M  V30 4052 H 382.311 0.764215 -0.165831 0
M  V30 4053 H 384.895 1.67724 -0.988776 0
M  V30 4054 H 383.066 3.87646 0.241886 0
M  V30 4055 H 384.798 4.04653 0.061989 0
M  V30 4056 H 381.553 4.32113 -1.93842 0
M  V30 4057 H 381.977 5.11339 -4.4369 0
M  V30 4058 H 386.619 3.80399 -1.84544 0
M  V30 4059 H 384.337 5.4197 -5.99412 0
M  V30 4060 H 387.923 4.33666 -3.87847 0
M  V30 4061 H 386.803 5.1361 -5.92599 0
M  V30 4062 N 384.306 0.507319 1.49211 0
M  V30 4063 C 385.553 -0.0349529 2.0247 0
M  V30 4064 C 385.881 -1.36409 1.38647 0
M  V30 4065 O 385.136 -1.88841 0.513566 0
M  V30 4066 C 385.435 -0.229513 3.56662 0
M  V30 4067 C 385.101 1.02241 4.39156 0
M  V30 4068 C 383.763 1.36557 4.61417 0
M  V30 4069 C 386.115 1.85428 4.871 0
M  V30 4070 C 383.443 2.53999 5.28868 0
M  V30 4071 C 385.795 3.02028 5.55843 0
M  V30 4072 C 384.459 3.36717 5.76349 0
M  V30 4073 H 383.729 -0.0127902 0.74089 0
M  V30 4074 H 386.376 0.668756 1.79443 0
M  V30 4075 H 384.681 -1.0158 3.78403 0
M  V30 4076 H 386.378 -0.663641 3.9547 0
M  V30 4077 H 382.968 0.745124 4.22073 0
M  V30 4078 H 387.152 1.6023 4.69723 0
M  V30 4079 H 382.408 2.81105 5.42946 0
M  V30 4080 H 386.582 3.66808 5.91967 0
M  V30 4081 H 384.209 4.27821 6.28389 0
M  V30 4082 N 385.784 -1.5574 0.241426 0
M  V30 4083 C 386.747 -2.19877 -0.647063 0
M  V30 4084 C 387.747 -1.16642 -1.10686 0
M  V30 4085 O 388.937 -1.41757 -1.01245 0
M  V30 4086 C 386.069 -2.83797 -1.88871 0
M  V30 4087 H 387.262 -2.99772 -0.087574 0
M  V30 4088 H 384.815 -1.56298 -0.00813574 0
M  V30 4089 H 385.55 -2.07824 -2.48957 0
M  V30 4090 H 385.335 -3.59414 -1.56728 0
M  V30 4091 H 386.825 -3.32898 -2.52129 0
M  V30 4092 N 387.262 0.0317525 -1.57568 0
M  V30 4093 C 388.511 0.722131 -1.8833 0
M  V30 4094 C 388.824 1.76664 -0.839587 0
M  V30 4095 O 390.03 2.50942 -1.03635 0
M  V30 4096 C 388.486 1.33544 -3.34207 0
M  V30 4097 C 388.094 0.327415 -4.46802 0
M  V30 4098 C 389.838 2.00585 -3.7412 0
M  V30 4099 C 387.745 0.948915 -5.83738 0
M  V30 4100 H 386.675 0.273466 -0.702661 0
M  V30 4101 H 389.326 -0.0235811 -1.83485 0
M  V30 4102 H 387.708 2.13077 -3.33788 0
M  V30 4103 H 388.882 -0.441006 -4.58685 0
M  V30 4104 H 387.197 -0.240758 -4.15703 0
M  V30 4105 H 389.794 2.47932 -4.73744 0
M  V30 4106 H 390.137 2.82285 -3.05975 0
M  V30 4107 H 390.67 1.27831 -3.76702 0
M  V30 4108 H 387.409 0.171387 -6.55276 0
M  V30 4109 H 386.929 1.68724 -5.7558 0
M  V30 4110 H 388.608 1.45705 -6.3038 0
M  V30 4111 N 388.74 1.54641 0.303973 0
M  V30 4112 C 389.965 1.78092 1.06292 0
M  V30 4113 C 390.39 0.537342 1.80262 0
M  V30 4114 O 389.748 -0.511993 1.7392 0
M  V30 4115 C 389.796 2.98612 2.02147 0
M  V30 4116 O 388.9 2.71528 3.10397 0
M  V30 4117 H 388.241 0.589548 0.305497 0
M  V30 4118 H 390.771 2.01716 0.3423 0
M  V30 4119 H 390.781 3.265 2.44667 0
M  V30 4120 H 389.456 3.88785 1.47714 0
M  V30 4121 H 388.033 2.54648 2.72413 0
M  V30 4122 N 390.218 -0.567019 1.47046 0
M  V30 4123 C 391.166 -1.69593 1.59188 0
M  V30 4124 C 392.16 -1.63046 0.459609 0
M  V30 4125 O 393.366 -1.6835 0.637058 0
M  V30 4126 H 389.741 -0.560993 0.500791 0
M  V30 4127 H 391.712 -1.56488 2.54075 0
M  V30 4128 C 390.461 -3.07964 1.61411 0
M  V30 4129 H 389.784 -3.13679 2.47881 0
M  V30 4130 H 391.224 -3.86671 1.73958 0
M  V30 4131 C 389.683 -3.35123 0.34559 0
M  V30 4132 O 390.213 -3.97812 -0.557521 0
M  V30 4133 N 388.419 -2.89699 0.22864 0
M  V30 4134 H 387.966 -2.38863 0.964479 0
M  V30 4135 H 387.924 -3.08242 -0.619192 0
M  V30 4136 N 391.696 -1.35014 -0.812953 0
M  V30 4137 C 393.112 -1.14914 -1.10757 0
M  V30 4138 C 393.312 0.0426818 -2.01455 0
M  V30 4139 O 392.368 0.715212 -2.42159 0
M  V30 4140 C 393.681 -2.44911 -1.74468 0
M  V30 4141 C 395.229 -2.5106 -1.86917 0
M  V30 4142 C 395.704 -3.81085 -2.54044 0
M  V30 4143 N 397.195 -3.82301 -2.61535 0
M  V30 4144 C 397.93 -4.79634 -3.14227 0
M  V30 4145 N 397.426 -5.87353 -3.67407 0
M  V30 4146 N 399.219 -4.67078 -3.12721 0
M  V30 4147 H 391.37 -2.1136 -0.20989 0
M  V30 4148 H 393.633 -0.935128 -0.155692 0
M  V30 4149 H 393.339 -3.32267 -1.15289 0
M  V30 4150 H 393.213 -2.58989 -2.74234 0
M  V30 4151 H 395.6 -1.64137 -2.45241 0
M  V30 4152 H 395.681 -2.40901 -0.860242 0
M  V30 4153 H 395.325 -4.68402 -1.96372 0
M  V30 4154 H 395.255 -3.88529 -3.55461 0
M  V30 4155 H 397.746 -3.04465 -2.23851 0
M  V30 4156 H 398.059 -6.57624 -4.05894 0
M  V30 4157 H 396.404 -5.91054 -3.65623 0
M  V30 4158 H 399.595 -3.82067 -2.70449 0
M  V30 4159 H 399.768 -5.43098 -3.53481 0
M  V30 4160 N 393.175 1.03435 -1.18907 0
M  V30 4161 C 394.422 1.76743 -0.988334 0
M  V30 4162 C 394.75 1.88447 0.481441 0
M  V30 4163 O 394.005 1.39383 1.37371 0
M  V30 4164 C 394.304 3.19792 -1.59586 0
M  V30 4165 C 393.97 3.28108 -3.09283 0
M  V30 4166 C 392.632 3.30084 -3.5014 0
M  V30 4167 C 394.984 3.27696 -4.05296 0
M  V30 4168 C 392.312 3.29299 -4.85571 0
M  V30 4169 C 394.664 3.28451 -5.4065 0
M  V30 4170 C 393.328 3.28723 -5.80946 0
M  V30 4171 H 392.598 0.64675 -0.361657 0
M  V30 4172 H 395.245 1.21442 -1.48068 0
M  V30 4173 H 393.55 3.78136 -1.02568 0
M  V30 4174 H 395.247 3.75171 -1.41589 0
M  V30 4175 H 391.837 3.27294 -2.76725 0
M  V30 4176 H 396.021 3.25354 -3.74778 0
M  V30 4177 H 391.277 3.2783 -5.16079 0
M  V30 4178 H 395.451 3.27082 -6.14809 0
M  V30 4179 H 393.078 3.27868 -6.85862 0
M  V30 4180 N 394.653 0.992116 1.22453 0
M  V30 4181 C 395.6 0.541731 2.24352 0
M  V30 4182 C 396.57 -0.425519 1.60557 0
M  V30 4183 O 397.755 -0.330453 1.87917 0
M  V30 4184 C 394.895 -0.138248 3.44823 0
M  V30 4185 C 394.008 0.870649 4.23136 0
M  V30 4186 C 393.143 0.164269 5.30946 0
M  V30 4187 C 392.182 1.16159 6.00977 0
M  V30 4188 N 391.319 0.483568 7.00433 0
M  V30 4189 H 396.159 1.41541 2.62241 0
M  V30 4190 H 393.696 0.709013 1.28885 0
M  V30 4191 H 395.654 -0.5494 4.13567 0
M  V30 4192 H 394.284 -0.975721 3.077 0
M  V30 4193 H 393.336 1.40013 3.53696 0
M  V30 4194 H 394.648 1.63014 4.7141 0
M  V30 4195 H 393.802 -0.303653 6.0594 0
M  V30 4196 H 392.541 -0.627733 4.83643 0
M  V30 4197 H 391.546 1.64015 5.24766 0
M  V30 4198 H 392.771 1.95445 6.50368 0
M  V30 4199 H 390.717 -0.289012 6.55363 0
M  V30 4200 H 390.634 1.18152 7.4671 0
M  V30 4201 H 391.902 0.0384219 7.79491 0
M  V30 4202 N 396.131 -1.37776 0.765217 0
M  V30 4203 C 397.079 -2.32209 0.134798 0
M  V30 4204 C 398.073 -1.54607 -0.692315 0
M  V30 4205 O 399.279 -1.70052 -0.590109 0
M  V30 4206 H 395.654 -0.751591 0.0248005 0
M  V30 4207 H 397.625 -2.8297 0.947119 0
M  V30 4208 C 396.374 -3.39841 -0.735063 0
M  V30 4209 H 395.697 -3.99654 -0.107991 0
M  V30 4210 H 397.137 -4.08296 -1.14326 0
M  V30 4211 C 395.596 -2.79378 -1.88281 0
M  V30 4212 O 396.126 -2.69608 -2.97783 0
M  V30 4213 N 394.332 -2.37016 -1.68142 0
M  V30 4214 H 393.879 -2.45162 -0.790772 0
M  V30 4215 H 393.837 -1.96905 -2.45104 0
M  V30 4216 N 397.609 -0.515225 -1.4894 0
M  V30 4217 C 399.025 -0.172099 -1.58669 0
M  V30 4218 C 399.225 1.32405 -1.51892 0
M  V30 4219 O 398.281 2.10116 -1.40027 0
M  V30 4220 C 399.594 -0.761533 -2.90897 0
M  V30 4221 C 401.142 -0.728926 -3.04394 0
M  V30 4222 C 401.617 -1.29667 -4.39261 0
M  V30 4223 N 403.108 -1.25799 -4.4579 0
M  V30 4224 C 403.843 -1.66733 -5.48623 0
M  V30 4225 N 403.339 -2.15327 -6.58488 0
M  V30 4226 N 405.132 -1.58061 -5.39419 0
M  V30 4227 H 397.283 -1.48778 -1.51588 0
M  V30 4228 H 399.546 -0.617968 -0.718901 0
M  V30 4229 H 399.252 -1.81136 -3.01468 0
M  V30 4230 H 399.126 -0.230106 -3.76497 0
M  V30 4231 H 401.513 0.312098 -2.93445 0
M  V30 4232 H 401.594 -1.29766 -2.20442 0
M  V30 4233 H 401.238 -2.33655 -4.50963 0
M  V30 4234 H 401.168 -0.703752 -5.21876 0
M  V30 4235 H 403.659 -0.902102 -3.66975 0
M  V30 4236 H 403.972 -2.44594 -7.33071 0
M  V30 4237 H 402.317 -2.19311 -6.59491 0
M  V30 4238 H 405.508 -1.19906 -4.52482 0
M  V30 4239 H 405.681 -1.90284 -6.19432 0
M  V30 4240 N 399.087 1.5561 -0.249682 0
M  V30 4241 C 400.312 2.03865 0.381305 0
M  V30 4242 C 400.737 1.12769 1.50548 0
M  V30 4243 O 400.095 0.121189 1.80895 0
M  V30 4244 C 400.143 3.50101 0.863816 0
M  V30 4245 O 399.247 3.62132 1.97318 0
M  V30 4246 H 398.588 0.658827 0.0827194 0
M  V30 4247 H 401.118 2.01105 -0.376552 0
M  V30 4248 H 401.128 3.90975 1.1663 0
M  V30 4249 H 399.803 4.1588 0.0411816 0
M  V30 4250 H 398.38 3.33155 1.67517 0
M  V30 4251 N 400.565 -0.0233959 1.57583 0
M  V30 4252 C 401.813 -0.711654 1.89156 0
M  V30 4253 C 402.134 -1.75591 0.848096 0
M  V30 4254 O 401.404 -1.95547 -0.117566 0
M  V30 4255 H 399.984 -0.265835 0.698098 0
M  V30 4256 H 402.646 0.0119948 1.94896 0
M  V30 4257 H 401.742 -1.19766 2.88206 0
M  V30 4258 N 402.043 -1.548 -0.295768 0
M  V30 4259 C 403.32 -1.65014 -1.05023 0
M  V30 4260 C 403.7 -0.501805 -2.05049 0
M  V30 4261 O 403.048 0.500869 -2.22943 0
M  V30 4262 C 403.258 -3.03252 -1.72741 0
M  V30 4263 C 404.606 -3.60242 -2.24746 0
M  V30 4264 O 405.63 -3.05737 -1.82765 0
M  V30 4265 O 404.489 -4.55687 -3.01681 0
M  V30 4266 H 401.583 -0.669314 -0.485744 0
M  V30 4267 H 404.129 -1.67144 -0.293438 0
M  V30 4268 H 402.901 -3.7827 -1.00138 0
M  V30 4269 H 402.524 -3.04922 -2.55163 0
M  V30 4270 N 403.521 0.559213 -1.47345 0
M  V30 4271 C 404.77 1.31281 -1.53128 0
M  V30 4272 C 405.083 1.94602 -0.197344 0
M  V30 4273 O 406.289 2.71173 -0.133154 0
M  V30 4274 C 404.745 2.38051 -2.69925 0
M  V30 4275 C 404.353 1.8093 -4.0984 0
M  V30 4276 C 406.097 3.14604 -2.84999 0
M  V30 4277 C 404.004 2.85468 -5.1794 0
M  V30 4278 H 402.934 0.493614 -0.569966 0
M  V30 4279 H 405.585 0.594155 -1.73615 0
M  V30 4280 H 403.967 3.12822 -2.42814 0
M  V30 4281 H 405.141 1.12544 -4.46845 0
M  V30 4282 H 403.456 1.16967 -3.99634 0
M  V30 4283 H 406.053 3.92666 -3.62929 0
M  V30 4284 H 406.396 3.68665 -1.93369 0
M  V30 4285 H 406.929 2.46945 -3.1187 0
M  V30 4286 H 403.668 2.36264 -6.1144 0
M  V30 4287 H 403.188 3.52269 -4.85455 0
M  V30 4288 H 404.867 3.48996 -5.44803 0
M  V30 4289 N 404.999 1.35443 0.805782 0
M  V30 4290 C 406.41 1.25768 1.37983 0
M  V30 4291 C 406.761 -0.10958 1.95894 0
M  V30 4292 O 405.886 -1.01056 1.91355 0
M  V30 4293 C 406.481 2.27727 2.5085 0
M  V30 4294 C 405.04 2.2179 3.04115 0
M  V30 4295 C 404.187 2.13393 1.77084 0
M  V30 4296 H 407.138 1.4656 0.608752 0
M  V30 4297 H 407.159 1.90422 3.29424 0
M  V30 4298 H 406.671 3.27227 2.08671 0
M  V30 4299 H 404.772 1.25703 3.50756 0
M  V30 4300 H 404.885 3.13788 3.62042 0
M  V30 4301 H 403.249 1.59384 1.98668 0
M  V30 4302 H 404.032 3.14755 1.37056 0
M  V30 4303 N 406.477 -1.02803 1.19454 0
M  V30 4304 C 407.424 -2.11099 0.933046 0
M  V30 4305 C 408.394 -1.65571 -0.132447 0
M  V30 4306 O 409.579 -1.90797 0.00987576 0
M  V30 4307 C 406.719 -3.41763 0.478747 0
M  V30 4308 C 405.832 -4.00833 1.6111 0
M  V30 4309 C 404.967 -5.19511 1.10825 0
M  V30 4310 C 404.006 -5.70639 2.21445 0
M  V30 4311 N 403.143 -6.80589 1.72461 0
M  V30 4312 H 407.983 -2.32804 1.86028 0
M  V30 4313 H 405.52 -1.14179 0.927441 0
M  V30 4314 H 407.478 -4.16736 0.196745 0
M  V30 4315 H 406.108 -3.20166 -0.411493 0
M  V30 4316 H 405.16 -3.23066 2.00829 0
M  V30 4317 H 406.472 -4.34794 2.4445 0
M  V30 4318 H 405.626 -6.01645 0.781533 0
M  V30 4319 H 404.365 -4.87086 0.244606 0
M  V30 4320 H 403.37 -4.87116 2.54947 0
M  V30 4321 H 404.595 -6.05102 3.08267 0
M  V30 4322 H 402.541 -6.50016 0.884056 0
M  V30 4323 H 402.458 -7.13681 2.49389 0
M  V30 4324 H 403.726 -7.66317 1.42755 0
M  V30 4325 N 407.956 -0.998596 -1.21925 0
M  V30 4326 C 409.372 -0.710303 -1.42923 0
M  V30 4327 C 409.572 0.716933 -1.88314 0
M  V30 4328 O 408.628 1.48712 -2.04062 0
M  V30 4329 C 409.941 -1.72072 -2.466 0
M  V30 4330 C 411.489 -1.73681 -2.60392 0
M  V30 4331 C 411.964 -2.73601 -3.67296 0
M  V30 4332 N 413.455 -2.7223 -3.7476 0
M  V30 4333 C 414.19 -3.46206 -4.57087 0
M  V30 4334 N 413.686 -4.29802 -5.43362 0
M  V30 4335 N 415.479 -3.34886 -4.51451 0
M  V30 4336 H 407.63 -1.92028 -0.9077 0
M  V30 4337 H 409.893 -0.828487 -0.460775 0
M  V30 4338 H 409.599 -2.74231 -2.20206 0
M  V30 4339 H 409.473 -1.51818 -3.45299 0
M  V30 4340 H 411.86 -0.722173 -2.86127 0
M  V30 4341 H 411.941 -1.98005 -1.61949 0
M  V30 4342 H 411.585 -3.75217 -3.42307 0
M  V30 4343 H 411.515 -2.46545 -4.65321 0
M  V30 4344 H 414.006 -2.11576 -3.1312 0
M  V30 4345 H 414.319 -4.83061 -6.03218 0
M  V30 4346 H 412.664 -4.33887 -5.42925 0
M  V30 4347 H 415.855 -2.69015 -3.83078 0
M  V30 4348 H 416.028 -3.92796 -5.15379 0
M  V30 4349 N 409.434 1.37368 -0.772513 0
M  V30 4350 C 410.366 2.28899 -0.117502 0
M  V30 4351 C 411.379 1.4867 0.663405 0
M  V30 4352 O 412.568 1.71314 0.501372 0
M  V30 4353 C 409.668 3.2788 0.857192 0
M  V30 4354 C 408.841 4.37207 0.129938 0
M  V30 4355 C 407.9 5.16257 1.01811 0
M  V30 4356 O 406.926 5.67159 0.481601 0
M  V30 4357 N 408.128 5.31058 2.3443 0
M  V30 4358 H 410.893 2.85752 -0.903662 0
M  V30 4359 H 408.454 1.49353 -0.62493 0
M  V30 4360 H 410.446 3.77647 1.45482 0
M  V30 4361 H 409.016 2.7179 1.54432 0
M  V30 4362 H 408.236 3.88827 -0.648605 0
M  V30 4363 H 409.524 5.07434 -0.372559 0
M  V30 4364 H 408.922 4.91287 2.80452 0
M  V30 4365 H 407.479 5.84131 2.89197 0
M  V30 4366 N 410.912 0.523116 1.48665 0
M  V30 4367 C 411.862 -0.263106 2.26477 0
M  V30 4368 C 412.846 -0.916005 1.32281 0
M  V30 4369 O 414.038 -0.819946 1.56863 0
M  V30 4370 C 411.167 -1.31361 3.17174 0
M  V30 4371 C 410.253 -0.665849 4.1884 0
M  V30 4372 N 410.644 0.244434 5.05209 0
M  V30 4373 C 408.942 -0.923863 4.36326 0
M  V30 4374 C 409.643 0.617443 5.78414 0
M  V30 4375 N 408.619 -0.0198686 5.43596 0
M  V30 4376 H 412.421 0.437295 2.90629 0
M  V30 4377 H 409.935 0.340675 1.58787 0
M  V30 4378 H 411.932 -1.89052 3.71571 0
M  V30 4379 H 410.592 -2.01546 2.54576 0
M  V30 4380 H 411.603 0.616621 5.14216 0
M  V30 4381 H 408.28 -1.6168 3.84923 0
M  V30 4382 H 409.67 1.36346 6.57921 0
M  V30 4383 N 412.39 -1.55475 0.257931 0
M  V30 4384 C 413.636 -2.00237 -0.357338 0
M  V30 4385 C 413.991 -1.14313 -1.54759 0
M  V30 4386 O 413.284 -0.201187 -1.90541 0
M  V30 4387 C 413.478 -3.48183 -0.806433 0
M  V30 4388 C 413.307 -4.48422 0.338758 0
M  V30 4389 C 412.077 -4.98651 0.817011 0
M  V30 4390 C 414.275 -5.00827 1.16949 0
M  V30 4391 N 412.257 -5.82658 1.93346 0
M  V30 4392 C 413.628 -5.82113 2.13413 0
M  V30 4393 C 415.683 -4.83104 1.2048 0
M  V30 4394 C 414.386 -6.47566 3.13131 0
M  V30 4395 C 416.412 -5.49343 2.19034 0
M  V30 4396 C 415.774 -6.30427 3.14232 0
M  V30 4397 H 411.873 -0.776034 -0.0964083 0
M  V30 4398 H 414.457 -1.90995 0.37803 0
M  V30 4399 H 412.628 -3.57801 -1.51107 0
M  V30 4400 H 414.36 -3.79802 -1.39758 0
M  V30 4401 H 411.115 -4.71914 0.39925 0
M  V30 4402 H 411.539 -6.29356 2.49478 0
M  V30 4403 H 416.181 -4.20036 0.482634 0
M  V30 4404 H 413.899 -7.09793 3.8629 0
M  V30 4405 H 417.485 -5.37579 2.22485 0
M  V30 4406 H 416.365 -6.80777 3.89246 0
M  V30 4407 N 413.868 0.0150385 -1.57593 0
M  V30 4408 C 414.798 1.01047 -2.10503 0
M  V30 4409 C 415.779 1.36816 -1.01071 0
M  V30 4410 O 416.964 1.45455 -1.28672 0
M  V30 4411 C 414.094 2.30708 -2.59598 0
M  V30 4412 C 413.048 2.09142 -3.73421 0
M  V30 4413 C 412.374 3.44685 -4.08774 0
M  V30 4414 C 413.674 1.46619 -5.01298 0
M  V30 4415 H 415.368 0.569978 -2.93925 0
M  V30 4416 H 412.914 0.272724 -1.41394 0
M  V30 4417 H 414.867 3.00687 -2.95238 0
M  V30 4418 H 413.591 2.76843 -1.73279 0
M  V30 4419 H 412.25 1.41592 -3.38153 0
M  V30 4420 H 411.898 3.88495 -3.195 0
M  V30 4421 H 411.598 3.31077 -4.8545 0
M  V30 4422 H 413.122 4.16004 -4.4696 0
M  V30 4423 H 414.536 2.06535 -5.34805 0
M  V30 4424 H 412.933 1.43544 -5.82679 0
M  V30 4425 H 414.003 0.433611 -4.82957 0
M  V30 4426 N 415.346 1.54954 0.287554 0
M  V30 4427 C 416.623 1.65569 1.04146 0
M  V30 4428 C 417.003 0.512672 2.0478 0
M  V30 4429 O 416.351 -0.489038 2.23205 0
M  V30 4430 C 416.561 3.04163 1.71131 0
M  V30 4431 C 417.909 3.61429 2.22832 0
M  V30 4432 O 418.933 3.06702 1.81141 0
M  V30 4433 O 417.792 4.57281 2.9926 0
M  V30 4434 H 414.886 0.671881 0.482188 0
M  V30 4435 H 417.432 1.67297 0.28457 0
M  V30 4436 H 416.204 3.78796 0.981303 0
M  V30 4437 H 415.827 3.06271 2.53543 0
M  V30 4438 N 416.824 -0.551391 1.4764 0
M  V30 4439 C 418.07 -1.30789 1.55774 0
M  V30 4440 C 418.425 -1.91143 0.219562 0
M  V30 4441 O 417.718 -1.7521 -0.775375 0
M  V30 4442 C 417.912 -2.43469 2.61644 0
M  V30 4443 C 417.741 -1.94157 4.05627 0
M  V30 4444 C 416.511 -1.77734 4.7301 0
M  V30 4445 C 418.709 -1.48262 4.92466 0
M  V30 4446 N 416.691 -1.22823 6.01488 0
M  V30 4447 C 418.062 -1.05156 6.11017 0
M  V30 4448 C 420.117 -1.36367 4.78862 0
M  V30 4449 C 418.82 -0.513357 7.17466 0
M  V30 4450 C 420.846 -0.839484 5.85411 0
M  V30 4451 C 420.208 -0.418377 7.03156 0
M  V30 4452 H 416.307 -0.470406 0.624694 0
M  V30 4453 H 418.891 -0.624331 1.84419 0
M  V30 4454 H 417.062 -3.09348 2.34859 0
M  V30 4455 H 418.794 -3.10477 2.59589 0
M  V30 4456 H 415.549 -2.00623 4.29007 0
M  V30 4457 H 415.973 -0.974393 6.69951 0
M  V30 4458 H 420.615 -1.67535 3.88191 0
M  V30 4459 H 418.333 -0.189318 8.07878 0
M  V30 4460 H 421.919 -0.750921 5.76934 0
M  V30 4461 H 420.799 -0.0190538 7.84198 0
M  V30 4462 N 418.302 -1.35869 -0.798587 0
M  V30 4463 C 419.265 -1.29307 -1.89242 0
M  V30 4464 C 420.265 -0.202747 -1.59517 0
M  V30 4465 O 421.455 -0.456957 -1.681 0
M  V30 4466 C 418.587 -1.00229 -3.25833 0
M  V30 4467 H 419.78 -2.26576 -1.96478 0
M  V30 4468 H 417.333 -1.20509 -0.995358 0
M  V30 4469 H 418.068 -0.033801 -3.24282 0
M  V30 4470 H 417.853 -1.79121 -3.48795 0
M  V30 4471 H 419.343 -0.98219 -4.05885 0
M  V30 4472 N 419.78 1.02168 -1.19998 0
M  V30 4473 C 420.743 2.08765 -0.94604 0
M  V30 4474 C 421.743 1.60618 0.0763846 0
M  V30 4475 O 422.933 1.73472 -0.159135 0
M  V30 4476 C 420.065 3.38262 -0.423255 0
M  V30 4477 H 421.258 2.32726 -1.89153 0
M  V30 4478 H 418.811 1.1889 -1.01464 0
M  V30 4479 H 419.546 3.19974 0.527938 0
M  V30 4480 H 419.331 3.74532 -1.16053 0
M  V30 4481 H 420.821 4.16759 -0.264911 0
M  V30 4482 N 421.258 1.00505 1.21394 0
M  V30 4483 C 422.168 0.574806 2.27449 0
M  V30 4484 C 423.184 -0.382206 1.6975 0
M  V30 4485 O 424.36 -0.246027 1.99892 0
M  V30 4486 C 421.425 -0.0917414 3.46579 0
M  V30 4487 C 420.486 0.909758 4.1955 0
M  V30 4488 C 419.719 0.274924 5.32991 0
M  V30 4489 O 419.942 -0.928254 5.62796 0
M  V30 4490 O 418.876 0.985877 5.93771 0
M  V30 4491 H 422.702 1.45744 2.66444 0
M  V30 4492 H 420.287 0.773923 1.27792 0
M  V30 4493 H 422.169 -0.464551 4.18832 0
M  V30 4494 H 420.844 -0.948755 3.09484 0
M  V30 4495 H 419.751 1.33372 3.49518 0
M  V30 4496 H 421.084 1.73636 4.60555 0
M  V30 4497 N 422.737 -1.36956 0.779787 0
M  V30 4498 C 423.684 -2.30175 0.169697 0
M  V30 4499 C 424.654 -1.51501 -0.68094 0
M  V30 4500 O 425.839 -1.80042 -0.631629 0
M  V30 4501 C 422.979 -3.37985 -0.697131 0
M  V30 4502 C 422.092 -4.31661 0.170992 0
M  V30 4503 C 421.227 -5.2655 -0.701298 0
M  V30 4504 C 420.266 -6.11867 0.168869 0
M  V30 4505 N 419.403 -6.98973 -0.661855 0
M  V30 4506 H 424.243 -2.81767 0.970135 0
M  V30 4507 H 421.78 -1.38699 0.489994 0
M  V30 4508 H 423.738 -3.99128 -1.2146 0
M  V30 4509 H 422.368 -2.87739 -1.46309 0
M  V30 4510 H 421.42 -3.71756 0.80634 0
M  V30 4511 H 422.732 -4.91644 0.841875 0
M  V30 4512 H 421.886 -5.92937 -1.28494 0
M  V30 4513 H 420.625 -4.66998 -1.40584 0
M  V30 4514 H 419.63 -5.44452 0.764986 0
M  V30 4515 H 420.855 -6.73493 0.870863 0
M  V30 4516 H 418.801 -6.41941 -1.35086 0
M  V30 4517 H 418.718 -7.55984 -0.0484447 0
M  V30 4518 H 419.986 -7.6974 -1.22963 0
M  V30 4519 N 424.215 -0.530993 -1.48385 0
M  V30 4520 C 425.445 -0.00133928 -2.066 0
M  V30 4521 C 425.853 1.28599 -1.38777 0
M  V30 4522 O 425.196 1.77599 -0.469495 0
M  V30 4523 C 425.258 0.292137 -3.58311 0
M  V30 4524 C 424.922 -0.901864 -4.48013 0
M  V30 4525 C 425.919 -1.80053 -4.87726 0
M  V30 4526 C 423.604 -1.10915 -4.89901 0
M  V30 4527 C 425.598 -2.89038 -5.68098 0
M  V30 4528 C 423.285 -2.20213 -5.70043 0
M  V30 4529 C 424.283 -3.09107 -6.0905 0
M  V30 4530 O 423.971 -4.16514 -6.87583 0
M  V30 4531 H 423.703 -0.0308475 -0.675296 0
M  V30 4532 H 426.257 -0.736335 -1.91748 0
M  V30 4533 H 424.487 1.08112 -3.7128 0
M  V30 4534 H 426.176 0.763994 -3.98645 0
M  V30 4535 H 426.942 -1.65234 -4.55986 0
M  V30 4536 H 422.821 -0.426498 -4.59023 0
M  V30 4537 H 426.365 -3.58451 -5.98464 0
M  V30 4538 H 422.262 -2.35016 -6.01197 0
M  V30 4539 H 423.03 -4.14237 -7.05939 0
M  V30 4540 N 425.693 1.55336 -0.266172 0
M  V30 4541 C 427.104 1.85236 0.233315 0
M  V30 4542 C 427.455 1.18816 1.56132 0
M  V30 4543 O 426.58 0.473307 2.11161 0
M  V30 4544 C 427.175 3.36059 0.430113 0
M  V30 4545 C 425.734 3.66116 0.873842 0
M  V30 4546 C 424.881 2.77274 -0.0380016 0
M  V30 4547 H 427.832 1.51004 -0.488214 0
M  V30 4548 H 427.853 3.58681 1.26998 0
M  V30 4549 H 427.365 3.84373 -0.536588 0
M  V30 4550 H 425.466 3.23295 1.85233 0
M  V30 4551 H 425.579 4.73699 0.717358 0
M  V30 4552 H 423.943 2.50198 0.476759 0
M  V30 4553 H 424.726 3.284 -1.00042 0
M  V30 4554 N 427.171 -0.0066808 1.57599 0
M  V30 4555 C 428.118 -1.00024 2.08 0
M  V30 4556 C 429.088 -1.34549 0.973943 0
M  V30 4557 O 430.273 -1.44502 1.24595 0
M  V30 4558 C 427.413 -2.2891 2.58252 0
M  V30 4559 C 426.526 -2.00346 3.82734 0
M  V30 4560 C 425.661 -3.23265 4.21513 0
M  V30 4561 C 424.7 -2.90357 5.3885 0
M  V30 4562 N 423.837 -4.05793 5.72954 0
M  V30 4563 H 428.677 -0.563499 2.92624 0
M  V30 4564 H 426.214 -0.266592 1.44664 0
M  V30 4565 H 428.172 -3.04247 2.85464 0
M  V30 4566 H 426.802 -2.70265 1.76512 0
M  V30 4567 H 425.854 -1.15406 3.62471 0
M  V30 4568 H 427.166 -1.72086 4.68175 0
M  V30 4569 H 426.32 -4.06953 4.49971 0
M  V30 4570 H 425.059 -3.54657 3.34768 0
M  V30 4571 H 424.064 -2.05075 5.10122 0
M  V30 4572 H 425.289 -2.60219 6.27266 0
M  V30 4573 H 423.235 -4.37094 4.89167 0
M  V30 4574 H 423.152 -3.81034 6.52954 0
M  V30 4575 H 424.42 -4.90289 6.06001 0
M  V30 4576 N 428.649 -1.55105 -0.279332 0
M  V30 4577 C 429.581 -1.83952 -1.36727 0
M  V30 4578 C 430.594 -0.723642 -1.45833 0
M  V30 4579 O 431.783 -1.00141 -1.47763 0
M  V30 4580 C 428.883 -1.98183 -2.74912 0
M  V30 4581 C 428.056 -3.28787 -2.88475 0
M  V30 4582 C 427.115 -3.33162 -4.07295 0
M  V30 4583 O 426.141 -4.06576 -3.98353 0
M  V30 4584 N 427.343 -2.60109 -5.18964 0
M  V30 4585 H 430.108 -2.77853 -1.12328 0
M  V30 4586 H 427.669 -1.54945 -0.469442 0
M  V30 4587 H 429.661 -1.98488 -3.52682 0
M  V30 4588 H 428.231 -1.11177 -2.92162 0
M  V30 4589 H 427.451 -3.41075 -1.97641 0
M  V30 4590 H 428.739 -4.14933 -2.94463 0
M  V30 4591 H 428.137 -2.00136 -5.29115 0
M  V30 4592 H 426.694 -2.66143 -5.94988 0
M  V30 4593 N 430.127 0.543554 -1.4793 0
M  V30 4594 C 431.057 1.65888 -1.64327 0
M  V30 4595 C 432.038 1.62818 -0.492383 0
M  V30 4596 O 433.223 1.80226 -0.723338 0
M  V30 4597 C 430.353 3.04506 -1.67013 0
M  V30 4598 C 429.307 3.2243 -2.81466 0
M  V30 4599 C 428.633 4.61972 -2.69233 0
M  V30 4600 C 429.933 3.06496 -4.22915 0
M  V30 4601 H 431.627 1.52421 -2.57698 0
M  V30 4602 H 429.173 0.731849 -1.24016 0
M  V30 4603 H 431.126 3.82391 -1.77074 0
M  V30 4604 H 429.85 3.18964 -0.70212 0
M  V30 4605 H 428.509 2.46957 -2.70938 0
M  V30 4606 H 428.157 4.73247 -1.7043 0
M  V30 4607 H 427.857 4.74911 -3.46025 0
M  V30 4608 H 429.381 5.41974 -2.81242 0
M  V30 4609 H 430.795 3.74186 -4.34348 0
M  V30 4610 H 429.192 3.30938 -5.006 0
M  V30 4611 H 430.262 2.03077 -4.40327 0
M  V30 4612 N 431.605 1.3629 0.791371 0
M  V30 4613 C 432.854 1.29742 1.54434 0
M  V30 4614 C 433.167 -0.121729 1.95221 0
M  V30 4615 O 434.373 -0.309579 2.69729 0
M  V30 4616 C 432.829 2.27623 2.78776 0
M  V30 4617 C 432.437 3.74963 2.45166 0
M  V30 4618 C 434.181 2.30047 3.56761 0
M  V30 4619 C 432.088 4.64626 3.65891 0
M  V30 4620 H 431.018 0.482113 0.579727 0
M  V30 4621 H 433.669 1.61642 0.868565 0
M  V30 4622 H 432.051 1.88714 3.48142 0
M  V30 4623 H 433.225 4.22596 1.83709 0
M  V30 4624 H 431.54 3.75295 1.80396 0
M  V30 4625 H 434.137 2.94247 4.46456 0
M  V30 4626 H 434.48 1.30846 3.95203 0
M  V30 4627 H 435.013 2.67563 2.94372 0
M  V30 4628 H 431.752 5.64883 3.32547 0
M  V30 4629 H 431.272 4.2171 4.26521 0
M  V30 4630 H 432.951 4.80801 4.32943 0
M  V30 4631 N 433.083 -1.0153 1.20538 0
M  V30 4632 C 434.016 -2.09759 0.898695 0
M  V30 4633 C 434.994 -1.61909 -0.149733 0
M  V30 4634 O 436.178 -1.88486 -0.0230293 0
M  V30 4635 C 433.305 -3.36913 0.347512 0
M  V30 4636 C 432.351 -4.03655 1.37713 0
M  V30 4637 S 433.184 -4.47402 2.94265 0
M  V30 4638 C 434.34 -5.77756 2.40726 0
M  V30 4639 H 434.573 -2.3545 1.81523 0
M  V30 4640 H 432.106 -1.14665 1.03399 0
M  V30 4641 H 434.064 -4.10484 0.0360518 0
M  V30 4642 H 432.725 -3.09291 -0.547546 0
M  V30 4643 H 431.918 -4.9514 0.940872 0
M  V30 4644 H 431.52 -3.36313 1.63614 0
M  V30 4645 H 433.812 -6.52994 1.80569 0
M  V30 4646 H 434.755 -6.2618 3.30612 0
M  V30 4647 H 435.163 -5.34081 1.82806 0
M  V30 4648 N 434.561 -1.01147 -1.20859 0
M  V30 4649 C 435.838 -0.613136 -1.85742 0
M  V30 4650 C 436.218 0.909004 -1.90526 0
M  V30 4651 O 435.566 1.79862 -1.40932 0
M  V30 4652 C 435.776 -1.255 -3.25654 0
M  V30 4653 C 437.124 -1.3672 -4.01986 0
M  V30 4654 O 438.148 -1.21082 -3.34989 0
M  V30 4655 O 437.007 -1.6194 -5.21956 0
M  V30 4656 H 434.101 -0.210878 -0.799662 0
M  V30 4657 H 436.647 -1.10853 -1.2849 0
M  V30 4658 H 435.419 -2.29532 -3.16908 0
M  V30 4659 H 435.042 -0.746369 -3.90532 0
M  V30 4660 N 436.039 1.36541 -0.78704 0
M  V30 4661 C 437.285 1.99599 -0.358872 0
M  V30 4662 C 437.618 1.62323 1.06606 0
M  V30 4663 O 436.893 0.876858 1.73613 0
M  V30 4664 C 437.176 3.56327 -0.519944 0
M  V30 4665 C 437.029 4.03464 -1.98839 0
M  V30 4666 C 438.348 4.4005 0.0664737 0
M  V30 4667 H 435.467 0.725107 -0.131869 0
M  V30 4668 H 438.109 1.6199 -0.992936 0
M  V30 4669 H 436.259 3.88495 0.0198321 0
M  V30 4670 H 437.931 3.81793 -2.58905 0
M  V30 4671 H 436.174 3.55092 -2.49183 0
M  V30 4672 H 436.845 5.12439 -2.05207 0
M  V30 4673 H 439.321 4.14228 -0.394267 0
M  V30 4674 H 438.197 5.48847 -0.0762682 0
M  V30 4675 H 438.458 4.26655 1.15835 0
M  V30 4676 N 437.518 0.538854 1.48102 0
M  V30 4677 C 438.465 -0.219042 2.29758 0
M  V30 4678 C 439.435 -0.925562 1.37922 0
M  V30 4679 O 440.62 -0.924855 1.66886 0
M  V30 4680 C 437.76 -1.25452 3.2149 0
M  V30 4681 C 436.873 -0.555943 4.28408 0
M  V30 4682 C 436.008 -1.57512 5.0731 0
M  V30 4683 C 435.047 -0.860498 6.06021 0
M  V30 4684 N 434.184 -1.82564 6.77949 0
M  V30 4685 H 439.024 0.483449 2.94052 0
M  V30 4686 H 436.561 0.250247 1.44956 0
M  V30 4687 H 438.519 -1.86727 3.7308 0
M  V30 4688 H 437.149 -1.92528 2.591 0
M  V30 4689 H 436.201 0.170938 3.80016 0
M  V30 4690 H 437.513 0.00474616 4.988 0
M  V30 4691 H 436.667 -2.26191 5.62959 0
M  V30 4692 H 435.406 -2.16972 4.36778 0
M  V30 4693 H 434.411 -0.159686 5.49568 0
M  V30 4694 H 435.636 -0.271897 6.78555 0
M  V30 4695 H 433.582 -2.40915 6.10161 0
M  V30 4696 H 433.499 -1.31662 7.44447 0
M  V30 4697 H 434.767 -2.50414 7.38182 0
M  V30 4698 N 438.996 -1.55193 0.274407 0
M  V30 4699 C 439.959 -2.212 -0.600279 0
M  V30 4700 C 440.959 -1.18963 -1.08187 0
M  V30 4701 O 442.149 -1.43873 -0.982158 0
M  V30 4702 C 439.281 -2.87739 -1.82809 0
M  V30 4703 H 440.474 -2.9989 -0.0239682 0
M  V30 4704 H 438.027 -1.5628 0.0250192 0
M  V30 4705 H 438.762 -2.13058 -2.44493 0
M  V30 4706 H 438.547 -3.62658 -1.49069 0
M  V30 4707 H 440.037 -3.38171 -2.45011 0
M  V30 4708 N 440.474 -0.00167713 -1.576 0
M  V30 4709 C 441.404 0.988091 -2.11563 0
M  V30 4710 C 442.385 1.35736 -1.02517 0
M  V30 4711 O 443.57 1.44082 -1.30208 0
M  V30 4712 C 440.7 2.27941 -2.62031 0
M  V30 4713 C 439.654 2.0517 -3.75619 0
M  V30 4714 C 438.98 3.4033 -4.12407 0
M  V30 4715 C 440.28 1.41294 -5.02825 0
M  V30 4716 H 441.974 0.538771 -2.94513 0
M  V30 4717 H 439.52 0.257712 -1.41675 0
M  V30 4718 H 441.473 2.97539 -2.9841 0
M  V30 4719 H 440.197 2.74989 -1.76205 0
M  V30 4720 H 438.856 1.37998 -3.39635 0
M  V30 4721 H 438.504 3.85085 -3.23603 0
M  V30 4722 H 438.204 3.25909 -4.88935 0
M  V30 4723 H 439.728 4.1124 -4.51347 0
M  V30 4724 H 441.142 2.00851 -5.36965 0
M  V30 4725 H 439.539 1.37356 -5.84169 0
M  V30 4726 H 440.609 0.382362 -4.8339 0
M  V30 4727 N 441.952 1.55251 0.271103 0
M  V30 4728 C 443.18 1.79974 1.02064 0
M  V30 4729 C 443.595 0.574003 1.79863 0
M  V30 4730 O 442.952 -0.456962 1.76686 0
M  V30 4731 C 443.003 3.02603 1.97772 0
M  V30 4732 O 442.724 4.20443 1.23124 0
M  V30 4733 C 444.225 3.39944 2.84522 0
M  V30 4734 H 441.445 0.599489 0.301419 0
M  V30 4735 H 443.989 2.02268 0.301313 0
M  V30 4736 H 442.144 2.8243 2.65165 0
M  V30 4737 H 442.558 4.89783 1.87651 0
M  V30 4738 H 444.032 4.28915 3.47471 0
M  V30 4739 H 444.509 2.59432 3.54389 0
M  V30 4740 H 445.115 3.62383 2.22618 0
M  V30 4741 N 443.43 -0.535701 1.48216 0
M  V30 4742 C 444.846 -0.863701 1.3421 0
M  V30 4743 C 445.046 -1.98458 0.34879 0
M  V30 4744 O 444.102 -2.51432 -0.23204 0
M  V30 4745 C 445.415 -1.23662 2.74095 0
M  V30 4746 C 446.963 -1.34683 2.82541 0
M  V30 4747 C 447.438 -1.75322 4.23115 0
M  V30 4748 N 448.929 -1.82434 4.2576 0
M  V30 4749 C 449.664 -2.15252 5.31464 0
M  V30 4750 N 449.16 -2.46533 6.47452 0
M  V30 4751 N 450.953 -2.16209 5.18855 0
M  V30 4752 H 443.104 0.203965 2.11418 0
M  V30 4753 H 445.367 0.0286033 0.947568 0
M  V30 4754 H 445.073 -0.486674 3.48316 0
M  V30 4755 H 444.947 -2.18805 3.07253 0
M  V30 4756 H 447.334 -2.08756 2.08579 0
M  V30 4757 H 447.415 -0.376756 2.5301 0
M  V30 4758 H 447.059 -1.01812 4.97591 0
M  V30 4759 H 446.989 -2.7337 4.50085 0
M  V30 4760 H 449.48 -1.6056 3.42095 0
M  V30 4761 H 449.793 -2.70662 7.23852 0
M  V30 4762 H 448.138 -2.44065 6.50736 0
M  V30 4763 H 451.329 -1.91224 4.2726 0
M  V30 4764 H 451.502 -2.41453 6.01335 0
M  V30 4765 N 444.908 -1.36708 -0.784132 0
M  V30 4766 C 446.154 -1.31426 -1.54451 0
M  V30 4767 C 446.487 0.10476 -1.93917 0
M  V30 4768 O 445.762 1.05934 -1.6312 0
M  V30 4769 C 446.045 -2.24189 -2.818 0
M  V30 4770 C 445.898 -3.74813 -2.48667 0
M  V30 4771 C 447.217 -2.15626 -3.83658 0
M  V30 4772 H 444.336 -0.478739 -0.560337 0
M  V30 4773 H 446.978 -1.67305 -0.900498 0
M  V30 4774 H 445.128 -1.93722 -3.36755 0
M  V30 4775 H 446.8 -4.15823 -1.99722 0
M  V30 4776 H 445.043 -3.93989 -1.81535 0
M  V30 4777 H 445.714 -4.35138 -3.39646 0
M  V30 4778 H 448.19 -2.42456 -3.38163 0
M  V30 4779 H 447.066 -2.82694 -4.70506 0
M  V30 4780 H 447.327 -1.14522 -4.27009 0
M  V30 4781 N 446.386 1.0089 -1.21074 0
M  V30 4782 C 447.316 2.1145 -0.990523 0
M  V30 4783 C 448.297 1.69897 0.0831699 0
M  V30 4784 O 449.482 1.94052 -0.0758853 0
M  V30 4785 C 446.612 3.42914 -0.550177 0
M  V30 4786 C 445.566 3.98244 -1.56799 0
M  V30 4787 C 444.892 5.25568 -0.984013 0
M  V30 4788 C 446.192 4.30752 -2.95381 0
M  V30 4789 H 447.886 2.3013 -1.91521 0
M  V30 4790 H 445.432 1.10592 -0.92225 0
M  V30 4791 H 447.385 4.19653 -0.383305 0
M  V30 4792 H 446.109 3.24014 0.41015 0
M  V30 4793 H 444.768 3.23621 -1.72236 0
M  V30 4794 H 444.416 5.02998 -0.0155216 0
M  V30 4795 H 444.116 5.63551 -1.66384 0
M  V30 4796 H 445.64 6.04955 -0.828378 0
M  V30 4797 H 447.054 4.98349 -2.8341 0
M  V30 4798 H 445.451 4.79869 -3.60341 0
M  V30 4799 H 446.521 3.39192 -3.46521 0
M  V30 4800 N 447.864 1.01787 1.20321 0
M  V30 4801 C 449.111 0.707936 1.89722 0
M  V30 4802 C 449.439 -0.762535 1.78929 0
M  V30 4803 O 448.694 -1.56977 1.16861 0
M  V30 4804 C 448.993 1.09076 3.40349 0
M  V30 4805 C 448.659 2.55765 3.71342 0
M  V30 4806 C 447.321 2.95845 3.79511 0
M  V30 4807 C 449.673 3.50723 3.85542 0
M  V30 4808 C 447.001 4.2982 3.99339 0
M  V30 4809 C 449.353 4.84387 4.06881 0
M  V30 4810 C 448.017 5.24172 4.1328 0
M  V30 4811 H 447.287 0.259052 0.694243 0
M  V30 4812 H 449.934 1.27868 1.42555 0
M  V30 4813 H 448.239 0.438453 3.89339 0
M  V30 4814 H 449.936 0.828636 3.92345 0
M  V30 4815 H 446.526 2.2371 3.65584 0
M  V30 4816 H 450.71 3.20916 3.78585 0
M  V30 4817 H 445.966 4.60196 4.02529 0
M  V30 4818 H 450.14 5.57891 4.1681 0
M  V30 4819 H 447.767 6.27997 4.28396 0
M  V30 4820 N 449.342 -1.36122 0.79427 0
M  V30 4821 C 450.272 -2.32551 0.210328 0
M  V30 4822 C 451.253 -1.56884 -0.657386 0
M  V30 4823 O 452.438 -1.85014 -0.590207 0
M  V30 4824 C 449.568 -3.41128 -0.651819 0
M  V30 4825 C 448.522 -4.27842 0.116395 0
M  V30 4826 C 447.848 -5.2763 -0.86666 0
M  V30 4827 C 449.148 -5.05647 1.30837 0
M  V30 4828 H 450.842 -2.81636 1.01594 0
M  V30 4829 H 448.388 -1.35407 0.489981 0
M  V30 4830 H 450.341 -4.07581 -1.07031 0
M  V30 4831 H 449.065 -2.90622 -1.49019 0
M  V30 4832 H 447.724 -3.62952 0.515915 0
M  V30 4833 H 447.372 -4.73395 -1.70019 0
M  V30 4834 H 447.072 -5.86514 -0.35705 0
M  V30 4835 H 448.596 -5.96955 -1.28361 0
M  V30 4836 H 450.01 -5.65113 0.965393 0
M  V30 4837 H 448.407 -5.73967 1.75161 0
M  V30 4838 H 449.477 -4.37006 2.10128 0
M  V30 4839 N 450.82 -0.546701 -1.47814 0
M  V30 4840 C 452.05 -0.0232519 -2.06587 0
M  V30 4841 C 452.458 1.2712 -1.40133 0
M  V30 4842 O 451.801 1.77091 -0.488305 0
M  V30 4843 C 451.863 0.254117 -3.58601 0
M  V30 4844 C 451.527 -0.949331 -4.47031 0
M  V30 4845 C 452.524 -1.85216 -4.85789 0
M  V30 4846 C 450.209 -1.16104 -4.88697 0
M  V30 4847 C 452.203 -2.95047 -5.65001 0
M  V30 4848 C 449.89 -2.26247 -5.67676 0
M  V30 4849 C 450.888 -3.1555 -6.05737 0
M  V30 4850 O 450.576 -4.23784 -6.83127 0
M  V30 4851 H 450.308 -0.0380082 -0.674931 0
M  V30 4852 H 452.862 -0.756631 -1.90956 0
M  V30 4853 H 451.092 1.04168 -3.72406 0
M  V30 4854 H 452.781 0.72167 -3.99433 0
M  V30 4855 H 453.547 -1.70061 -4.54207 0
M  V30 4856 H 449.426 -0.475159 -4.58545 0
M  V30 4857 H 452.97 -3.64778 -5.94628 0
M  V30 4858 H 448.867 -2.41379 -5.98671 0
M  V30 4859 H 449.635 -4.21701 -7.01506 0
M  V30 4860 N 452.299 1.55045 -0.282633 0
M  V30 4861 C 453.548 1.98938 0.332667 0
M  V30 4862 C 453.861 1.17455 1.56409 0
M  V30 4863 O 455.067 1.51527 2.25282 0
M  V30 4864 C 453.523 3.54105 0.643226 0
M  V30 4865 C 453.131 4.44374 -0.568814 0
M  V30 4866 C 454.875 4.06569 1.22074 0
M  V30 4867 C 452.782 5.90943 -0.232426 0
M  V30 4868 H 451.712 0.743043 0.128075 0
M  V30 4869 H 454.363 1.79341 -0.388464 0
M  V30 4870 H 452.745 3.69532 1.42346 0
M  V30 4871 H 453.919 4.40718 -1.34551 0
M  V30 4872 H 452.234 4.02585 -1.06369 0
M  V30 4873 H 454.831 5.13626 1.48635 0
M  V30 4874 H 455.174 3.56057 2.15707 0
M  V30 4875 H 455.707 3.94612 0.502621 0
M  V30 4876 H 452.446 6.45567 -1.13683 0
M  V30 4877 H 451.966 5.9765 0.507357 0
M  V30 4878 H 453.645 6.4677 0.172657 0
M  V30 4879 N 453.777 0.010035 1.57597 0
M  V30 4880 C 455.188 -0.531426 1.78977 0
M  V30 4881 C 455.539 -1.73375 0.918454 0
M  V30 4882 O 454.664 -2.16047 0.123635 0
M  V30 4883 C 455.259 -0.97086 3.24592 0
M  V30 4884 C 453.818 -1.45756 3.47033 0
M  V30 4885 C 452.965 -0.413384 2.74201 0
M  V30 4886 H 455.916 0.236166 1.56933 0
M  V30 4887 H 455.937 -1.83633 3.33255 0
M  V30 4888 H 455.449 -0.0955893 3.87982 0
M  V30 4889 H 453.55 -2.35339 2.88871 0
M  V30 4890 H 453.663 -1.4781 4.55729 0
M  V30 4891 H 452.027 -0.877266 2.39115 0
M  V30 4892 H 452.81 0.453092 3.40297 0
M  V30 4893 N 455.255 -1.55392 -0.262866 0
M  V30 4894 C 456.185 -1.91978 -1.32917 0
M  V30 4895 C 457.166 -0.7828 -1.51017 0
M  V30 4896 O 458.351 -1.04178 -1.63892 0
M  V30 4897 C 455.481 -2.20055 -2.68687 0
M  V30 4898 C 454.435 -3.35854 -2.65304 0
M  V30 4899 C 453.761 -3.49435 -4.04721 0
M  V30 4900 C 455.061 -4.71977 -2.23685 0
M  V30 4901 H 456.755 -2.81292 -1.02544 0
M  V30 4902 H 454.301 -1.3534 -0.491846 0
M  V30 4903 H 456.254 -2.44237 -3.43404 0
M  V30 4904 H 454.978 -1.27551 -3.00663 0
M  V30 4905 H 453.637 -3.11655 -1.93045 0
M  V30 4906 H 453.285 -2.54379 -4.33936 0
M  V30 4907 H 452.985 -4.27297 -4.0335 0
M  V30 4908 H 454.509 -3.7592 -4.81161 0
M  V30 4909 H 455.923 -4.95637 -2.88127 0
M  V30 4910 H 454.32 -5.52828 -2.33456 0
M  V30 4911 H 455.39 -4.70115 -1.18827 0
M  V30 4912 N 456.733 0.527833 -1.48498 0
M  V30 4913 C 458.144 1.10975 -1.50138 0
M  V30 4914 C 458.495 1.943 -0.272378 0
M  V30 4915 O 457.62 2.07319 0.620301 0
M  V30 4916 C 458.215 2.01927 -2.72049 0
M  V30 4917 C 456.774 2.55332 -2.76554 0
M  V30 4918 C 455.921 1.32341 -2.43683 0
M  V30 4919 H 458.872 0.312986 -1.55583 0
M  V30 4920 H 458.893 2.86244 -2.50689 0
M  V30 4921 H 458.405 1.41254 -3.61481 0
M  V30 4922 H 456.506 3.19721 -1.91336 0
M  V30 4923 H 456.619 2.94319 -3.78038 0
M  V30 4924 H 454.983 1.63989 -1.94884 0
M  V30 4925 H 455.766 0.734165 -3.35358 0
M  V30 4926 N 458.211 1.37122 0.776871 0
M  V30 4927 C 459.144 1.26835 1.89705 0
M  V30 4928 C 460.122 0.14992 1.61907 0
M  V30 4929 O 461.306 0.323242 1.85708 0
M  V30 4930 C 458.433 0.95986 3.24814 0
M  V30 4931 C 457.479 2.09447 3.7153 0
M  V30 4932 S 458.312 3.71368 3.85806 0
M  V30 4933 C 459.468 3.42659 5.23771 0
M  V30 4934 H 459.701 2.21647 1.98141 0
M  V30 4935 H 457.234 1.22685 0.937433 0
M  V30 4936 H 459.192 0.788696 4.02852 0
M  V30 4937 H 457.853 0.0293137 3.14086 0
M  V30 4938 H 457.046 1.8335 4.69467 0
M  V30 4939 H 456.648 2.2255 3.00578 0
M  V30 4940 H 458.94 2.9733 6.0877 0
M  V30 4941 H 459.883 4.39905 5.54878 0
M  V30 4942 H 460.291 2.77708 4.91466 0
M  V30 4943 N 459.689 -1.00246 1.21608 0
M  V30 4944 C 460.936 -1.74061 1.03485 0
M  V30 4945 C 461.264 -1.89658 -0.431308 0
M  V30 4946 O 460.519 -1.42976 -1.33627 0
M  V30 4947 C 460.818 -3.15448 1.68009 0
M  V30 4948 C 460.484 -3.19792 3.17874 0
M  V30 4949 C 459.146 -3.20685 3.58768 0
M  V30 4950 C 461.498 -3.16835 4.13842 0
M  V30 4951 C 458.826 -3.16309 4.94131 0
M  V30 4952 C 461.178 -3.14001 5.49169 0
M  V30 4953 C 459.842 -3.13204 5.89457 0
M  V30 4954 H 459.112 -0.636934 0.378677 0
M  V30 4955 H 461.759 -1.17473 1.51236 0
M  V30 4956 H 460.064 -3.75284 1.12557 0
M  V30 4957 H 461.761 -3.71285 1.51487 0
M  V30 4958 H 458.351 -3.19842 2.85305 0
M  V30 4959 H 462.535 -3.15303 3.83272 0
M  V30 4960 H 457.791 -3.14032 5.24589 0
M  V30 4961 H 461.965 -3.10667 6.23265 0
M  V30 4962 H 459.592 -3.09568 6.94314 0
M  V30 4963 N 461.167 -1.02423 -1.1978 0
M  V30 4964 C 462.413 -0.72878 -1.89896 0
M  V30 4965 C 462.768 0.734248 -1.77839 0
M  V30 4966 O 462.061 1.52733 -1.15685 0
M  V30 4967 C 462.255 -1.1088 -3.39765 0
M  V30 4968 C 462.084 -2.60722 -3.66407 0
M  V30 4969 C 460.854 -3.27623 -3.84696 0
M  V30 4970 C 463.052 -3.58924 -3.68345 0
M  V30 4971 N 461.034 -4.66617 -3.98926 0
M  V30 4972 C 462.405 -4.83514 -3.8809 0
M  V30 4973 C 464.46 -3.52788 -3.51347 0
M  V30 4974 C 463.163 -6.0271 -3.92598 0
M  V30 4975 C 465.189 -4.71394 -3.5713 0
M  V30 4976 C 464.551 -5.94796 -3.77356 0
M  V30 4977 H 460.65 -0.318473 -0.714212 0
M  V30 4978 H 463.234 -1.3106 -1.43984 0
M  V30 4979 H 461.405 -0.555233 -3.84411 0
M  V30 4980 H 463.137 -0.766082 -3.97383 0
M  V30 4981 H 459.892 -2.7804 -3.83393 0
M  V30 4982 H 460.316 -5.38805 -4.099 0
M  V30 4983 H 464.958 -2.58372 -3.3467 0
M  V30 4984 H 462.676 -6.97499 -4.08069 0
M  V30 4985 H 466.262 -4.6827 -3.45275 0
M  V30 4986 H 465.142 -6.85037 -3.81699 0
M  V30 4987 N 462.645 1.35699 -0.801477 0
M  V30 4988 C 463.608 2.28199 -0.213994 0
M  V30 4989 C 464.608 1.49359 0.595691 0
M  V30 4990 O 465.798 1.69186 0.414921 0
M  V30 4991 C 462.93 3.33587 0.702297 0
M  V30 4992 H 464.123 2.81666 -1.02976 0
M  V30 4993 H 461.676 1.45467 -0.571759 0
M  V30 4994 H 462.411 2.85297 1.54195 0
M  V30 4995 H 462.196 3.91906 0.123484 0
M  V30 4996 H 463.686 4.02638 1.10783 0
M  V30 4997 N 464.123 0.554532 1.47522 0
M  V30 4998 C 465.053 -0.182974 2.32782 0
M  V30 4999 C 466.034 -0.911377 1.43624 0
M  V30 5000 O 467.219 -0.892366 1.72483 0
M  V30 5001 C 464.349 -1.21513 3.25349 0
M  V30 5002 C 463.303 -0.603355 4.23726 0
M  V30 5003 C 462.629 -1.73995 5.05598 0
M  V30 5004 C 463.929 0.441121 5.20434 0
M  V30 5005 H 465.623 0.52882 2.94693 0
M  V30 5006 H 463.169 0.255759 1.41711 0
M  V30 5007 H 465.122 -1.73922 3.83835 0
M  V30 5008 H 463.846 -1.95683 2.61487 0
M  V30 5009 H 462.505 -0.10059 3.66462 0
M  V30 5010 H 462.153 -2.47063 4.38143 0
M  V30 5011 H 461.853 -1.3364 5.72201 0
M  V30 5012 H 463.377 -2.26735 5.66942 0
M  V30 5013 H 464.791 0.00319931 5.733 0
M  V30 5014 H 463.188 0.763402 5.95224 0
M  V30 5015 H 464.258 1.33799 4.66075 0
M  V30 5016 N 465.601 -1.54893 0.290851 0
M  V30 5017 C 466.531 -2.26103 -0.583084 0
M  V30 5018 C 467.512 -1.25684 -1.14619 0
M  V30 5019 O 468.697 -1.54436 -1.17741 0
M  V30 5020 C 465.827 -2.99409 -1.75987 0
M  V30 5021 C 464.781 -4.0689 -1.32758 0
M  V30 5022 C 464.107 -4.67856 -2.58872 0
M  V30 5023 C 465.407 -5.20215 -0.46624 0
M  V30 5024 H 467.101 -2.99398 0.0108214 0
M  V30 5025 H 464.647 -1.43998 0.00664468 0
M  V30 5026 H 466.6 -3.47943 -2.37727 0
M  V30 5027 H 465.324 -2.23675 -2.37985 0
M  V30 5028 H 463.983 -3.59191 -0.733299 0
M  V30 5029 H 463.631 -3.88772 -3.19163 0
M  V30 5030 H 463.331 -5.40438 -2.30653 0
M  V30 5031 H 464.855 -5.19147 -3.21433 0
M  V30 5032 H 466.269 -5.64704 -0.989047 0
M  V30 5033 H 464.666 -5.99455 -0.27826 0
M  V30 5034 H 465.736 -4.82198 0.511173 0
M  V30 5035 N 467.08 -0.0183926 -1.57589 0
M  V30 5036 C 468.357 0.700621 -1.82622 0
M  V30 5037 C 468.737 1.90951 -0.90005 0
M  V30 5038 O 468.085 2.28452 0.0469145 0
M  V30 5039 C 468.295 1.08899 -3.31575 0
M  V30 5040 C 469.643 1.48514 -3.9778 0
M  V30 5041 O 470.667 1.18227 -3.36007 0
M  V30 5042 O 469.526 2.04903 -5.06633 0
M  V30 5043 H 466.62 0.342743 -0.752633 0
M  V30 5044 H 469.166 -0.0452548 -1.6964 0
M  V30 5045 H 467.938 0.228113 -3.90635 0
M  V30 5046 H 467.561 1.89338 -3.49624 0
M  V30 5047 N 468.558 1.5553 0.254621 0
M  V30 5048 C 469.49 1.86104 1.33783 0
M  V30 5049 C 470.503 0.746752 1.44663 0
M  V30 5050 O 471.692 1.0248 1.46151 0
M  V30 5051 C 468.792 2.02532 2.71724 0
M  V30 5052 C 467.965 3.33335 2.83208 0
M  V30 5053 C 467.024 3.396 4.01943 0
M  V30 5054 O 466.05 4.12862 3.91834 0
M  V30 5055 N 467.252 2.68332 5.1476 0
M  V30 5056 H 470.017 2.79605 1.07893 0
M  V30 5057 H 467.578 1.55672 0.444732 0
M  V30 5058 H 469.57 2.04074 3.4948 0
M  V30 5059 H 468.14 1.15811 2.90356 0
M  V30 5060 H 467.36 3.44176 1.92189 0
M  V30 5061 H 468.648 4.19565 2.87824 0
M  V30 5062 H 468.046 2.08528 5.25864 0
M  V30 5063 H 466.603 2.75575 5.90679 0
M  V30 5064 N 470.036 -0.519951 1.48776 0
M  V30 5065 C 470.968 -1.63973 1.60142 0
M  V30 5066 C 471.981 -1.55404 0.485117 0
M  V30 5067 O 473.17 -1.61682 0.756391 0
M  V30 5068 C 470.27 -3.02676 1.52449 0
M  V30 5069 C 469.443 -3.36624 2.79291 0
M  V30 5070 C 468.502 -4.54652 2.64912 0
M  V30 5071 O 467.528 -4.57374 3.38818 0
M  V30 5072 N 468.73 -5.53432 1.75195 0
M  V30 5073 H 471.495 -1.54656 2.56713 0
M  V30 5074 H 469.056 -0.707439 1.45626 0
M  V30 5075 H 471.048 -3.79525 1.4051 0
M  V30 5076 H 469.618 -3.06018 0.638125 0
M  V30 5077 H 468.838 -2.48855 3.0572 0
M  V30 5078 H 470.126 -3.56094 3.6342 0
M  V30 5079 H 469.524 -5.54018 1.14371 0
M  V30 5080 H 468.081 -6.29459 1.69189 0
M  V30 5081 N 471.514 -1.37532 -0.769588 0
M  V30 5082 C 472.762 -1.32597 -1.5252 0
M  V30 5083 C 473.083 0.0884294 -1.94799 0
M  V30 5084 O 472.353 1.03289 -1.66458 0
M  V30 5085 H 470.933 -0.487846 -0.565699 0
M  V30 5086 H 473.595 -1.72044 -0.915806 0
M  V30 5087 H 472.691 -1.96643 -2.42359 0
M  V30 5088 N 472.992 0.995999 -1.22138 0
M  V30 5089 C 474.217 1.77601 -1.0711 0
M  V30 5090 C 474.642 1.84339 0.374264 0
M  V30 5091 O 474 1.29359 1.27028 0
M  V30 5092 C 474.048 3.18897 -1.68336 0
M  V30 5093 O 473.152 4.01663 -0.934928 0
M  V30 5094 H 472.493 0.547011 -0.376397 0
M  V30 5095 H 475.023 1.25137 -1.6187 0
M  V30 5096 H 475.033 3.69539 -1.72931 0
M  V30 5097 H 473.708 3.13308 -2.73516 0
M  V30 5098 H 472.285 3.60204 -0.964751 0
M  V30 5099 N 474.47 1.03057 1.19235 0
M  V30 5100 C 475.886 0.747947 1.40989 0
M  V30 5101 C 476.086 -0.666752 1.90149 0
M  V30 5102 O 475.142 -1.43249 2.07933 0
M  V30 5103 C 476.455 1.7855 2.41951 0
M  V30 5104 C 478.003 1.80524 2.55695 0
M  V30 5105 C 478.478 2.83243 3.59913 0
M  V30 5106 N 479.969 2.8207 3.67411 0
M  V30 5107 C 480.704 3.58204 4.47747 0
M  V30 5108 N 480.2 4.44057 5.31775 0
M  V30 5109 N 481.993 3.46738 4.42413 0
M  V30 5110 H 474.144 1.94367 0.856468 0
M  V30 5111 H 476.407 0.840412 0.438647 0
M  V30 5112 H 476.113 2.79973 2.12857 0
M  V30 5113 H 475.987 1.6092 3.41152 0
M  V30 5114 H 478.374 0.79778 2.84112 0
M  V30 5115 H 478.455 2.02229 1.56643 0
M  V30 5116 H 478.099 3.84161 3.32239 0
M  V30 5117 H 478.029 2.58795 4.5862 0
M  V30 5118 H 480.52 2.19803 3.074 0
M  V30 5119 H 480.833 4.98884 5.90199 0
M  V30 5120 H 479.178 4.48129 5.3123 0
M  V30 5121 H 482.369 2.79077 3.75811 0
M  V30 5122 H 482.542 4.06322 5.04783 0
M  V30 5123 N 475.948 -1.35272 0.808662 0
M  V30 5124 C 477.194 -1.99434 0.399717 0
M  V30 5125 C 477.549 -1.62992 -1.02232 0
M  V30 5126 O 476.842 -0.884091 -1.69983 0
M  V30 5127 C 477.036 -3.53556 0.522798 0
M  V30 5128 C 476.865 -4.04969 1.95525 0
M  V30 5129 C 475.635 -4.34228 2.58407 0
M  V30 5130 C 477.833 -4.23362 2.92009 0
M  V30 5131 N 475.815 -4.71585 3.93041 0
M  V30 5132 C 477.186 -4.63739 4.11517 0
M  V30 5133 C 479.241 -4.05576 2.88813 0
M  V30 5134 C 477.944 -4.88189 5.28265 0
M  V30 5135 C 479.97 -4.31184 4.04765 0
M  V30 5136 C 479.332 -4.71834 5.23022 0
M  V30 5137 H 475.431 -0.757534 0.19408 0
M  V30 5138 H 478.015 -1.63939 1.05034 0
M  V30 5139 H 476.186 -3.88277 -0.0978471 0
M  V30 5140 H 477.918 -4.04604 0.0882378 0
M  V30 5141 H 474.673 -4.24621 2.09747 0
M  V30 5142 H 475.097 -4.9452 4.62363 0
M  V30 5143 H 479.739 -3.73288 1.98535 0
M  V30 5144 H 477.457 -5.1935 6.19113 0
M  V30 5145 H 481.043 -4.18972 4.03675 0
M  V30 5146 H 479.923 -4.91263 6.11253 0
M  V30 5147 N 477.426 -0.562348 -1.47226 0
M  V30 5148 C 478.654 -0.0452275 -2.06851 0
M  V30 5149 C 479.069 1.25078 -1.41424 0
M  V30 5150 O 478.426 1.75156 -0.512513 0
M  V30 5151 C 478.477 0.148674 -3.61194 0
M  V30 5152 O 478.198 -1.09602 -4.24169 0
M  V30 5153 C 479.699 0.702488 -4.37699 0
M  V30 5154 H 476.919 -0.0481775 -0.669268 0
M  V30 5155 H 479.463 -0.777223 -1.89155 0
M  V30 5156 H 477.618 0.830817 -3.78386 0
M  V30 5157 H 478.032 -0.896982 -5.16773 0
M  V30 5158 H 479.506 0.78743 -5.46355 0
M  V30 5159 H 479.983 1.71493 -4.04335 0
M  V30 5160 H 480.589 0.0558772 -4.25263 0
M  V30 5161 N 478.904 1.54736 -0.299062 0
M  V30 5162 C 479.834 2.26409 0.571085 0
M  V30 5163 C 480.815 1.2629 1.13951 0
M  V30 5164 O 482 1.55059 1.16921 0
M  V30 5165 C 479.13 3.00338 1.74396 0
M  V30 5166 C 478.084 4.07588 1.30599 0
M  V30 5167 C 477.41 4.69222 2.56387 0
M  V30 5168 C 478.71 5.20455 0.438645 0
M  V30 5169 H 480.404 2.99388 -0.0266991 0
M  V30 5170 H 477.95 1.43993 -0.0142812 0
M  V30 5171 H 479.903 3.49198 2.35878 0
M  V30 5172 H 478.627 2.24934 2.36796 0
M  V30 5173 H 477.286 3.59575 0.71424 0
M  V30 5174 H 476.934 3.9046 3.17097 0
M  V30 5175 H 476.634 5.41653 2.27784 0
M  V30 5176 H 478.158 5.20844 3.18675 0
M  V30 5177 H 479.572 5.65221 0.959085 0
M  V30 5178 H 477.969 5.99594 0.246466 0
M  V30 5179 H 479.039 4.8192 -0.536738 0
M  V30 5180 N 480.382 0.0267497 1.57577 0
M  V30 5181 C 481.314 -0.984594 2.06974 0
M  V30 5182 C 482.327 -1.29032 0.992705 0
M  V30 5183 O 483.516 -1.25539 1.26895 0
M  V30 5184 C 480.616 -2.31262 2.47732 0
M  V30 5185 C 479.789 -2.1924 3.78487 0
M  V30 5186 C 478.848 -3.34956 4.05821 0
M  V30 5187 O 477.874 -3.11948 4.76106 0
M  V30 5188 N 479.076 -4.58672 3.55809 0
M  V30 5189 H 481.841 -0.563143 2.94362 0
M  V30 5190 H 479.402 -0.160061 1.61107 0
M  V30 5191 H 481.394 -3.07496 2.63112 0
M  V30 5192 H 479.964 -2.65056 1.65723 0
M  V30 5193 H 479.184 -1.27747 3.72927 0
M  V30 5194 H 480.472 -2.08409 4.64158 0
M  V30 5195 H 479.87 -4.8026 2.98942 0
M  V30 5196 H 478.427 -5.32083 3.76472 0
M  V30 5197 N 481.861 -1.55662 -0.24637 0
M  V30 5198 C 482.824 -1.89558 -1.28842 0
M  V30 5199 C 483.824 -0.772082 -1.41052 0
M  V30 5200 O 485.014 -1.04007 -1.39743 0
M  V30 5201 C 482.146 -2.12449 -2.66605 0
M  V30 5202 H 483.339 -2.82735 -1.00004 0
M  V30 5203 H 480.892 -1.48562 -0.485684 0
M  V30 5204 H 481.627 -1.21742 -3.00582 0
M  V30 5205 H 481.412 -2.94273 -2.59125 0
M  V30 5206 H 482.902 -2.39854 -3.41847 0
M  V30 5207 N 483.339 0.512053 -1.4905 0
M  V30 5208 C 484.588 1.26343 -1.57227 0
M  V30 5209 C 484.901 1.93876 -0.259155 0
M  V30 5210 O 486.107 2.70612 -0.219358 0
M  V30 5211 C 484.563 2.29343 -2.77362 0
M  V30 5212 C 484.171 1.67799 -4.15388 0
M  V30 5213 C 485.915 3.05378 -2.94864 0
M  V30 5214 C 483.822 2.68845 -5.2676 0
M  V30 5215 H 482.752 0.475231 -0.585382 0
M  V30 5216 H 485.403 0.53862 -1.75417 0
M  V30 5217 H 483.785 3.04938 -2.52643 0
M  V30 5218 H 484.959 0.982715 -4.50199 0
M  V30 5219 H 483.274 1.04194 -4.03153 0
M  V30 5220 H 485.871 3.80921 -3.75238 0
M  V30 5221 H 486.214 3.62327 -2.05 0
M  V30 5222 H 486.747 2.36898 -3.19569 0
M  V30 5223 H 483.486 2.16692 -6.18647 0
M  V30 5224 H 483.006 3.36647 -4.96416 0
M  V30 5225 H 484.685 3.31487 -5.5563 0
M  V30 5226 N 484.817 1.37938 0.762283 0
M  V30 5227 C 486.233 1.18945 1.06415 0
M  V30 5228 C 486.433 0.0321163 2.01474 0
M  V30 5229 O 485.489 -0.624844 2.44647 0
M  V30 5230 C 486.802 2.51218 1.65258 0
M  V30 5231 C 488.35 2.57824 1.7747 0
M  V30 5232 C 488.825 3.90251 2.39725 0
M  V30 5233 N 490.316 3.91744 2.47166 0
M  V30 5234 C 491.051 4.90966 2.96209 0
M  V30 5235 N 490.547 6.00585 3.45354 0
M  V30 5236 N 492.34 4.78363 2.9517 0
M  V30 5237 H 484.491 2.11994 0.131301 0
M  V30 5238 H 486.754 0.940262 0.120879 0
M  V30 5239 H 486.46 3.36317 1.02878 0
M  V30 5240 H 486.334 2.68989 2.64433 0
M  V30 5241 H 488.721 1.73126 2.3898 0
M  V30 5242 H 488.802 2.43928 0.770241 0
M  V30 5243 H 488.446 4.75368 1.78852 0
M  V30 5244 H 488.376 4.01454 3.40796 0
M  V30 5245 H 490.867 3.12563 2.12397 0
M  V30 5246 H 491.18 6.72236 3.81207 0
M  V30 5247 H 489.525 6.04217 3.43434 0
M  V30 5248 H 492.716 3.91841 2.56082 0
M  V30 5249 H 492.889 5.55843 3.33081 0
M  V30 5250 N 486.295 -0.989507 1.22664 0
M  V30 5251 C 487.228 -2.07805 0.942985 0
M  V30 5252 C 488.206 -1.6219 -0.115356 0
M  V30 5253 O 489.39 -1.88492 0.0169565 0
M  V30 5254 C 486.517 -3.361 0.418898 0
M  V30 5255 C 485.563 -4.00643 1.46244 0
M  V30 5256 S 486.396 -4.41059 3.03689 0
M  V30 5257 C 487.552 -5.7252 2.52927 0
M  V30 5258 H 487.785 -2.31547 1.86476 0
M  V30 5259 H 485.318 -1.12446 1.05808 0
M  V30 5260 H 487.276 -4.10315 0.123114 0
M  V30 5261 H 485.937 -3.10383 -0.481818 0
M  V30 5262 H 485.13 -4.93033 1.04569 0
M  V30 5263 H 484.732 -3.32767 1.7071 0
M  V30 5264 H 487.024 -6.49017 1.94379 0
M  V30 5265 H 487.967 -6.19026 3.4382 0
M  V30 5266 H 488.375 -5.30083 1.94094 0
M  V30 5267 N 487.773 -1.03688 -1.18687 0
M  V30 5268 C 488.721 -0.618292 -2.24232 0
M  V30 5269 C 489.715 0.353045 -1.6568 0
M  V30 5270 O 490.921 0.220749 -1.78641 0
M  V30 5271 H 487.296 -0.181711 -0.729716 0
M  V30 5272 H 489.267 -1.51893 -2.56848 0
M  V30 5273 C 488.016 0.00677342 -3.47699 0
M  V30 5274 H 487.339 -0.731692 -3.93047 0
M  V30 5275 H 488.779 0.262492 -4.23187 0
M  V30 5276 C 487.238 1.25572 -3.12623 0
M  V30 5277 O 487.768 2.34691 -3.26011 0
M  V30 5278 N 485.974 1.14755 -2.66982 0
M  V30 5279 H 485.521 0.259601 -2.56289 0
M  V30 5280 H 485.479 1.98412 -2.43885 0
M  V30 5281 N 489.251 1.34841 -0.815825 0
M  V30 5282 C 490.667 1.51543 -0.500697 0
M  V30 5283 C 490.867 1.76261 0.976444 0
M  V30 5284 O 489.923 1.8094 1.76117 0
M  V30 5285 C 491.236 2.68487 -1.35407 0
M  V30 5286 C 492.784 2.82368 -1.35046 0
M  V30 5287 C 493.259 4.02347 -2.18816 0
M  V30 5288 N 494.75 4.09542 -2.16402 0
M  V30 5289 C 495.485 5.01517 -2.77971 0
M  V30 5290 N 494.981 5.98763 -3.48503 0
M  V30 5291 N 496.774 4.94334 -2.67563 0
M  V30 5292 H 488.925 1.17055 -1.77234 0
M  V30 5293 H 491.188 0.573481 -0.754866 0
M  V30 5294 H 490.894 2.56829 -2.40274 0
M  V30 5295 H 490.768 3.63321 -1.01377 0
M  V30 5296 H 493.155 2.93471 -0.309604 0
M  V30 5297 H 493.236 1.88363 -1.73069 0
M  V30 5298 H 492.88 3.92004 -3.22948 0
M  V30 5299 H 492.81 4.95551 -1.78148 0
M  V30 5300 H 495.301 3.39932 -1.65091 0
M  V30 5301 H 495.614 6.6556 -3.92747 0
M  V30 5302 H 493.959 5.98909 -3.52609 0
M  V30 5303 H 497.15 4.1732 -2.12041 0
M  V30 5304 H 497.323 5.6582 -3.15834 0
M  V30 5305 N 490.729 0.570148 1.46925 0
M  V30 5306 C 491.677 -0.183181 2.31878 0
M  V30 5307 C 492.671 -0.896721 1.43719 0
M  V30 5308 O 493.877 -0.816536 1.60414 0
M  V30 5309 H 490.252 -0.077944 0.74795 0
M  V30 5310 H 492.223 0.552312 2.93244 0
M  V30 5311 C 490.972 -1.19172 3.2664 0
M  V30 5312 H 490.295 -0.652088 3.94446 0
M  V30 5313 H 491.735 -1.68946 3.88887 0
M  V30 5314 C 490.194 -2.24627 2.51086 0
M  V30 5315 O 490.724 -3.31773 2.26472 0
M  V30 5316 N 488.93 -1.98898 2.11867 0
M  V30 5317 H 488.477 -1.11777 2.32086 0
M  V30 5318 H 488.435 -2.6967 1.61634 0
M  V30 5319 N 492.207 -1.54576 0.307264 0
M  V30 5320 C 493.137 -2.26708 -0.55907 0
M  V30 5321 C 494.118 -1.26893 -1.1328 0
M  V30 5322 O 495.303 -1.55677 -1.16097 0
M  V30 5323 C 492.433 -3.01259 -1.72801 0
M  V30 5324 C 491.387 -4.08275 -1.28435 0
M  V30 5325 C 490.713 -4.70575 -2.53895 0
M  V30 5326 C 492.013 -5.2068 -0.411038 0
M  V30 5327 H 493.707 -2.9937 0.042576 0
M  V30 5328 H 491.253 -1.43983 0.0219173 0
M  V30 5329 H 493.206 -3.50444 -2.34023 0
M  V30 5330 H 491.93 -2.26187 -2.356 0
M  V30 5331 H 490.589 -3.59949 -0.695161 0
M  V30 5332 H 490.237 -3.92136 -3.15021 0
M  V30 5333 H 489.937 -5.42854 -2.24908 0
M  V30 5334 H 491.461 -5.22527 -3.15908 0
M  V30 5335 H 492.875 -5.65721 -0.929097 0
M  V30 5336 H 491.272 -5.99716 -0.214664 0
M  V30 5337 H 492.342 -4.81629 0.562287 0
M  V30 5338 N 493.685 -0.035106 -1.57561 0
M  V30 5339 C 494.933 0.64096 -1.91667 0
M  V30 5340 C 495.254 1.72323 -0.912681 0
M  V30 5341 O 494.524 1.95849 0.0449089 0
M  V30 5342 H 493.104 0.239743 -0.707483 0
M  V30 5343 H 495.766 -0.084321 -1.94718 0
M  V30 5344 H 494.862 1.08987 -2.92452 0
M  V30 5345 N 495.163 1.55791 0.238111 0
M  V30 5346 C 496.41 1.78033 0.964907 0
M  V30 5347 C 496.738 0.600984 1.84982 0
M  V30 5348 O 495.993 -0.41536 1.91241 0
M  V30 5349 C 496.292 3.05869 1.84875 0
M  V30 5350 C 495.958 4.36808 1.11846 0
M  V30 5351 C 494.62 4.72388 0.916662 0
M  V30 5352 C 496.972 5.17717 0.60151 0
M  V30 5353 C 494.3 5.86406 0.185756 0
M  V30 5354 C 496.652 6.32494 -0.115972 0
M  V30 5355 C 495.316 6.66688 -0.329168 0
M  V30 5356 H 494.586 0.651469 0.353085 0
M  V30 5357 H 497.233 1.90061 0.234318 0
M  V30 5358 H 495.538 2.88891 2.64668 0
M  V30 5359 H 497.235 3.20278 2.41294 0
M  V30 5360 H 493.825 4.08862 1.28569 0
M  V30 5361 H 498.009 4.90678 0.744932 0
M  V30 5362 H 493.265 6.11399 0.0101886 0
M  V30 5363 H 497.439 6.94425 -0.524127 0
M  V30 5364 H 495.066 7.54884 -0.897474 0
M  V30 5365 N 496.642 -0.504142 1.49319 0
M  V30 5366 C 497.889 -1.25846 1.58647 0
M  V30 5367 C 498.217 -1.92592 0.27177 0
M  V30 5368 O 497.472 -1.81167 -0.74007 0
M  V30 5369 C 497.771 -2.35021 2.69258 0
M  V30 5370 C 497.437 -1.85755 4.1086 0
M  V30 5371 C 496.099 -1.72038 4.49395 0
M  V30 5372 C 498.451 -1.48844 4.99495 0
M  V30 5373 C 495.779 -1.19783 5.74342 0
M  V30 5374 C 498.131 -0.980422 6.24956 0
M  V30 5375 C 496.795 -0.829622 6.62324 0
M  V30 5376 H 496.065 -0.460505 0.580531 0
M  V30 5377 H 498.712 -0.559716 1.83138 0
M  V30 5378 H 497.017 -3.10672 2.38726 0
M  V30 5379 H 498.714 -2.93083 2.73685 0
M  V30 5380 H 495.304 -1.9739 3.80441 0
M  V30 5381 H 499.488 -1.5829 4.70381 0
M  V30 5382 H 494.744 -1.06817 6.01997 0
M  V30 5383 H 498.918 -0.685608 6.93017 0
M  V30 5384 H 496.545 -0.42253 7.59025 0
M  V30 5385 N 498.12 -1.38341 -0.754957 0
M  V30 5386 C 499.366 -1.34672 -1.51628 0
M  V30 5387 C 499.699 0.0636036 -1.94096 0
M  V30 5388 O 498.974 1.0245 -1.6533 0
M  V30 5389 C 499.257 -2.30116 -2.76981 0
M  V30 5390 C 499.11 -3.80003 -2.4066 0
M  V30 5391 C 500.429 -2.23715 -3.78998 0
M  V30 5392 H 497.548 -0.490517 -0.550056 0
M  V30 5393 H 500.19 -1.69178 -0.864807 0
M  V30 5394 H 498.34 -2.00821 -3.3257 0
M  V30 5395 H 500.012 -4.19966 -1.90856 0
M  V30 5396 H 498.255 -3.97751 -1.73137 0
M  V30 5397 H 498.926 -4.42244 -3.30339 0
M  V30 5398 H 501.402 -2.49574 -3.32945 0
M  V30 5399 H 500.278 -2.9261 -4.64403 0
M  V30 5400 H 500.539 -1.23554 -4.24484 0
M  V30 5401 N 499.598 0.982988 -1.23187 0
M  V30 5402 C 500.528 2.09301 -1.03515 0
M  V30 5403 C 501.509 1.70035 0.0471136 0
M  V30 5404 O 502.694 1.93847 -0.117029 0
M  V30 5405 C 499.824 3.4167 -0.622791 0
M  V30 5406 C 498.778 3.94828 -1.65211 0
M  V30 5407 C 498.104 5.23362 -1.09527 0
M  V30 5408 C 499.404 4.2439 -3.04451 0
M  V30 5409 H 501.098 2.26016 -1.96359 0
M  V30 5410 H 498.644 1.08611 -0.945501 0
M  V30 5411 H 500.597 4.18746 -0.472233 0
M  V30 5412 H 499.321 3.24811 0.341329 0
M  V30 5413 H 497.98 3.19895 -1.79061 0
M  V30 5414 H 497.628 5.02852 -0.122211 0
M  V30 5415 H 497.328 5.59895 -1.783 0
M  V30 5416 H 498.852 6.03062 -0.956511 0
M  V30 5417 H 500.266 4.92225 -2.93917 0
M  V30 5418 H 498.663 4.72118 -3.70438 0
M  V30 5419 H 499.733 3.31765 -3.53638 0
M  V30 5420 N 501.076 1.04316 1.18135 0
M  V30 5421 C 502.008 0.594444 2.21357 0
M  V30 5422 C 503.021 -0.337215 1.59269 0
M  V30 5423 O 504.21 -0.131337 1.78016 0
M  V30 5424 C 501.31 -0.151251 3.38562 0
M  V30 5425 C 500.483 0.788907 4.30227 0
M  V30 5426 C 499.542 0.0860572 5.2613 0
M  V30 5427 O 498.568 0.717302 5.64662 0
M  V30 5428 N 499.77 -1.17969 5.68387 0
M  V30 5429 H 502.535 1.48227 2.60478 0
M  V30 5430 H 500.096 0.92396 1.32946 0
M  V30 5431 H 502.088 -0.631352 3.99745 0
M  V30 5432 H 500.658 -0.940639 2.98112 0
M  V30 5433 H 499.878 1.44882 3.6661 0
M  V30 5434 H 501.166 1.42738 4.88368 0
M  V30 5435 H 500.564 -1.71302 5.3914 0
M  V30 5436 H 499.121 -1.60402 6.31755 0
M  V30 5437 N 502.554 -1.34406 0.822964 0
M  V30 5438 C 503.965 -1.8069 0.469879 0
M  V30 5439 C 504.316 -1.68223 -1.00972 0
M  V30 5440 O 503.441 -1.22226 -1.78577 0
M  V30 5441 C 504.036 -3.28064 0.846118 0
M  V30 5442 C 502.595 -3.72428 0.545402 0
M  V30 5443 C 501.742 -2.56116 1.06301 0
M  V30 5444 H 504.693 -1.22153 1.01313 0
M  V30 5445 H 504.714 -3.80205 0.149922 0
M  V30 5446 H 504.226 -3.37107 1.92304 0
M  V30 5447 H 502.327 -3.68924 -0.522109 0
M  V30 5448 H 502.44 -4.66548 1.0895 0
M  V30 5449 H 500.804 -2.50048 0.484554 0
M  V30 5450 H 501.587 -2.67928 2.14638 0
M  V30 5451 N 504.032 -0.577932 -1.46621 0
M  V30 5452 C 505.309 0.00495287 -1.95599 0
M  V30 5453 C 505.689 1.46428 -1.5206 0
M  V30 5454 O 505.037 2.1517 -0.769046 0
M  V30 5455 C 505.247 -0.162114 -3.48623 0
M  V30 5456 C 506.595 -0.0274623 -4.24591 0
M  V30 5457 O 507.619 -0.0907067 -3.56084 0
M  V30 5458 O 506.478 0.1122 -5.46385 0
M  V30 5459 H 503.572 0.0525057 -0.825332 0
M  V30 5460 H 506.118 -0.645914 -1.56927 0
M  V30 5461 H 504.89 -1.17679 -3.73185 0
M  V30 5462 H 504.513 0.525407 -3.94113 0
M  V30 5463 N 505.51 1.54411 -0.315457 0
M  V30 5464 C 506.442 2.21527 0.588067 0
M  V30 5465 C 507.455 1.21263 1.08624 0
M  V30 5466 O 508.644 1.47777 1.00121 0
M  V30 5467 C 505.744 2.85963 1.81875 0
M  V30 5468 C 504.917 4.12291 1.46063 0
M  V30 5469 C 503.976 4.60396 2.54799 0
M  V30 5470 O 503.002 5.25265 2.19283 0
M  V30 5471 N 504.204 4.33935 3.85591 0
M  V30 5472 H 506.969 2.99697 0.013414 0
M  V30 5473 H 504.53 1.61308 -0.138295 0
M  V30 5474 H 506.522 3.15071 2.53993 0
M  V30 5475 H 505.092 2.11548 2.30144 0
M  V30 5476 H 504.312 3.90036 0.571445 0
M  V30 5477 H 505.6 4.9452 1.19695 0
M  V30 5478 H 504.998 3.81996 4.17248 0
M  V30 5479 H 503.555 4.67718 4.53964 0
M  V30 5480 N 506.988 0.0434614 1.5754 0
M  V30 5481 C 507.921 -0.968729 2.06618 0
M  V30 5482 C 508.899 -1.30868 0.965 0
M  V30 5483 O 510.083 -1.42288 1.23638 0
M  V30 5484 C 507.21 -2.28486 2.50023 0
M  V30 5485 C 506.256 -2.09851 3.71302 0
M  V30 5486 S 507.089 -1.38401 5.17306 0
M  V30 5487 C 508.245 -2.71354 5.64019 0
M  V30 5488 H 508.478 -0.551021 2.92149 0
M  V30 5489 H 506.011 -0.168607 1.53477 0
M  V30 5490 H 507.969 -3.04142 2.75695 0
M  V30 5491 H 506.63 -2.67387 1.64812 0
M  V30 5492 H 505.823 -3.07184 3.99567 0
M  V30 5493 H 505.425 -1.42336 3.45856 0
M  V30 5494 H 507.717 -3.67549 5.69134 0
M  V30 5495 H 508.66 -2.47734 6.6335 0
M  V30 5496 H 509.068 -2.77259 4.91719 0
M  V30 5497 N 508.466 -1.55915 -0.229846 0
M  V30 5498 C 509.398 -1.88209 -1.30805 0
M  V30 5499 C 510.411 -0.769672 -1.43457 0
M  V30 5500 O 511.6 -1.04792 -1.44502 0
M  V30 5501 C 508.7 -2.06829 -2.68468 0
M  V30 5502 C 507.873 -3.37798 -2.77869 0
M  V30 5503 C 506.932 -3.45952 -3.96489 0
M  V30 5504 O 505.958 -4.19043 -3.85216 0
M  V30 5505 N 507.16 -2.76488 -5.10426 0
M  V30 5506 H 509.925 -2.81286 -1.03431 0
M  V30 5507 H 507.486 -1.5636 -0.41991 0
M  V30 5508 H 509.478 -2.09608 -3.46189 0
M  V30 5509 H 508.048 -1.20416 -2.88477 0
M  V30 5510 H 507.268 -3.4719 -1.86689 0
M  V30 5511 H 508.556 -4.24091 -2.81113 0
M  V30 5512 H 507.954 -2.16868 -5.2248 0
M  V30 5513 H 506.511 -2.84938 -5.8622 0
M  V30 5514 N 509.944 0.496216 -1.49584 0
M  V30 5515 C 511.19 1.25189 -1.59548 0
M  V30 5516 C 511.523 1.9212 -0.283466 0
M  V30 5517 O 510.798 1.80947 0.713324 0
M  V30 5518 C 511.081 2.31516 -2.75812 0
M  V30 5519 C 510.934 1.69054 -4.16822 0
M  V30 5520 C 512.253 3.3304 -2.87702 0
M  V30 5521 H 509.372 0.45379 -0.580727 0
M  V30 5522 H 512.014 0.549327 -1.81886 0
M  V30 5523 H 510.164 2.91438 -2.56897 0
M  V30 5524 H 511.836 1.12923 -4.47265 0
M  V30 5525 H 510.079 0.994485 -4.22247 0
M  V30 5526 H 510.75 2.462 -4.94054 0
M  V30 5527 H 513.226 2.83114 -3.04936 0
M  V30 5528 H 512.102 4.04794 -3.7072 0
M  V30 5529 H 512.363 3.95655 -1.97255 0
M  V30 5530 N 511.423 1.38739 0.74761 0
M  V30 5531 C 512.353 1.39173 1.87492 0
M  V30 5532 C 513.334 0.256794 1.6815 0
M  V30 5533 O 514.519 0.460762 1.88655 0
M  V30 5534 C 511.649 1.22197 3.25093 0
M  V30 5535 C 510.603 2.32957 3.59047 0
M  V30 5536 C 509.929 2.01082 4.95449 0
M  V30 5537 C 511.229 3.75237 3.6331 0
M  V30 5538 H 512.923 2.3351 1.87386 0
M  V30 5539 H 510.469 1.12399 0.900134 0
M  V30 5540 H 512.422 1.21124 4.03617 0
M  V30 5541 H 511.146 0.243241 3.25693 0
M  V30 5542 H 509.805 2.33226 2.82845 0
M  V30 5543 H 509.453 1.01678 4.92616 0
M  V30 5544 H 509.153 2.75267 5.19136 0
M  V30 5545 H 510.677 2.01638 5.76346 0
M  V30 5546 H 512.091 3.76966 4.31937 0
M  V30 5547 H 510.488 4.48677 3.98509 0
M  V30 5548 H 511.558 4.07122 2.634 0
M  V30 5549 N 512.901 -0.976442 1.23707 0
M  V30 5550 C 513.849 -2.09078 1.01927 0
M  V30 5551 C 514.843 -1.69345 -0.0430193 0
M  V30 5552 O 516.049 -1.79659 0.110814 0
M  V30 5553 H 512.424 -0.68398 0.312531 0
M  V30 5554 H 514.395 -2.24614 1.96447 0
M  V30 5555 C 513.144 -3.41919 0.631385 0
M  V30 5556 H 512.467 -3.72946 1.44053 0
M  V30 5557 H 513.907 -4.20817 0.518532 0
M  V30 5558 C 512.366 -3.30357 -0.660723 0
M  V30 5559 O 512.896 -3.63542 -1.70881 0
M  V30 5560 N 511.102 -2.83507 -0.638139 0
M  V30 5561 H 510.649 -2.567 0.215108 0
M  V30 5562 H 510.607 -2.76153 -1.50289 0
M  V30 5563 N 514.379 -1.04941 -1.1758 0
M  V30 5564 C 515.79 -0.784501 -1.69418 0
M  V30 5565 C 516.141 0.693625 -1.8353 0
M  V30 5566 O 515.266 1.53925 -1.52106 0
M  V30 5567 C 515.861 -1.41746 -3.07723 0
M  V30 5568 C 514.42 -1.20066 -3.56737 0
M  V30 5569 C 513.567 -1.5026 -2.33061 0
M  V30 5570 H 516.518 -1.21469 -1.02133 0
M  V30 5571 H 516.539 -0.825381 -3.7144 0
M  V30 5572 H 516.051 -2.49325 -2.9742 0
M  V30 5573 H 514.152 -0.144006 -3.72322 0
M  V30 5574 H 514.265 -1.90384 -4.39648 0
M  V30 5575 H 512.629 -0.922598 -2.37403 0
M  V30 5576 H 513.412 -2.58967 -2.25368 0
M  V30 5577 N 515.857 1.33968 -0.830081 0
M  V30 5578 C 516.787 2.31911 -0.271911 0
M  V30 5579 C 517.768 1.58571 0.61556 0
M  V30 5580 O 518.953 1.86514 0.540946 0
M  V30 5581 C 516.083 3.42737 0.561146 0
M  V30 5582 C 515.037 4.27383 -0.229789 0
M  V30 5583 C 514.363 5.29742 0.726463 0
M  V30 5584 C 515.663 5.02 -1.44197 0
M  V30 5585 H 517.357 2.78844 -1.09025 0
M  V30 5586 H 514.903 1.34061 -0.52571 0
M  V30 5587 H 516.856 4.10276 0.961867 0
M  V30 5588 H 515.58 2.94471 1.41261 0
M  V30 5589 H 514.239 3.61456 -0.611964 0
M  V30 5590 H 513.887 4.77736 1.57408 0
M  V30 5591 H 513.587 5.87255 0.20142 0
M  V30 5592 H 515.111 6.00149 1.12489 0
M  V30 5593 H 516.525 5.62355 -1.11488 0
M  V30 5594 H 514.922 5.69122 -1.90317 0
M  V30 5595 H 515.992 4.31281 -2.2164 0
M  V30 5596 N 517.335 0.585699 1.46312 0
M  V30 5597 C 518.265 -0.133556 2.33118 0
M  V30 5598 C 519.246 -0.880707 1.45525 0
M  V30 5599 O 520.431 -0.855579 1.74337 0
M  V30 5600 C 517.561 -1.14585 3.27853 0
M  V30 5601 C 516.515 -0.513341 4.2491 0
M  V30 5602 C 515.841 -1.63231 5.09175 0
M  V30 5603 C 517.141 0.551413 5.19381 0
M  V30 5604 H 518.835 0.59121 2.93505 0
M  V30 5605 H 516.381 0.285761 1.41136 0
M  V30 5606 H 518.334 -1.65741 3.87438 0
M  V30 5607 H 517.058 -1.90093 2.65579 0
M  V30 5608 H 515.717 -0.0228349 3.66593 0
M  V30 5609 H 515.365 -2.37713 4.43285 0
M  V30 5610 H 515.065 -1.21473 5.74907 0
M  V30 5611 H 516.589 -2.14658 5.71624 0
M  V30 5612 H 518.003 0.124804 5.73164 0
M  V30 5613 H 516.4 0.889486 5.93471 0
M  V30 5614 H 517.47 1.43655 4.63132 0
M  V30 5615 N 518.813 -1.54241 0.323641 0
M  V30 5616 C 520.059 -2.00867 -0.279323 0
M  V30 5617 C 520.392 -1.21146 -1.5178 0
M  V30 5618 O 519.667 -0.29378 -1.92269 0
M  V30 5619 C 519.95 -3.54837 -0.613387 0
M  V30 5620 C 519.803 -4.45284 0.635803 0
M  V30 5621 C 521.122 -4.16186 -1.43099 0
M  V30 5622 H 518.241 -0.730177 -0.100049 0
M  V30 5623 H 520.883 -1.84829 0.440235 0
M  V30 5624 H 519.033 -3.68634 -1.22641 0
M  V30 5625 H 520.705 -4.43357 1.27406 0
M  V30 5626 H 518.948 -4.14956 1.26466 0
M  V30 5627 H 519.619 -5.5084 0.357597 0
M  V30 5628 H 522.095 -4.05964 -0.912814 0
M  V30 5629 H 520.971 -5.24031 -1.6335 0
M  V30 5630 H 521.232 -3.69516 -2.42715 0
M  V30 5631 N 520.291 -0.0518155 -1.57515 0
M  V30 5632 C 521.221 0.920283 -2.146 0
M  V30 5633 C 522.202 1.32406 -1.06783 0
M  V30 5634 O 523.387 1.39866 -1.34726 0
M  V30 5635 C 520.517 2.1949 -2.6915 0
M  V30 5636 C 519.471 1.93116 -3.81956 0
M  V30 5637 C 518.797 3.27037 -4.23026 0
M  V30 5638 C 520.097 1.25225 -5.07066 0
M  V30 5639 H 521.791 0.444801 -2.96077 0
M  V30 5640 H 519.337 0.212508 -1.42423 0
M  V30 5641 H 521.29 2.87894 -3.07725 0
M  V30 5642 H 520.014 2.69244 -1.84865 0
M  V30 5643 H 518.673 1.27123 -3.43854 0
M  V30 5644 H 518.321 3.74595 -3.3569 0
M  V30 5645 H 518.021 3.10189 -4.99056 0
M  V30 5646 H 519.545 3.96673 -4.64202 0
M  V30 5647 H 520.959 1.83666 -5.43083 0
M  V30 5648 H 519.356 1.18702 -5.88243 0
M  V30 5649 H 520.426 0.228382 -4.84362 0
M  V30 5650 N 521.769 1.56035 0.221574 0
M  V30 5651 C 523.018 1.78245 0.944016 0
M  V30 5652 C 523.331 0.620371 1.85501 0
M  V30 5653 O 524.537 0.726103 2.6161 0
M  V30 5654 C 522.993 3.15659 1.7288 0
M  V30 5655 C 522.601 4.39591 0.863942 0
M  V30 5656 C 524.345 3.47195 2.44246 0
M  V30 5657 C 522.252 5.6803 1.64607 0
M  V30 5658 H 521.182 0.664547 0.356222 0
M  V30 5659 H 523.833 1.8243 0.197904 0
M  V30 5660 H 522.215 3.0565 2.51781 0
M  V30 5661 H 523.389 4.60655 0.115464 0
M  V30 5662 H 521.704 4.15572 0.262407 0
M  V30 5663 H 524.301 4.40381 3.03263 0
M  V30 5664 H 524.644 2.69693 3.1713 0
M  V30 5665 H 525.177 3.58533 1.72334 0
M  V30 5666 H 521.916 6.48425 0.960507 0
M  V30 5667 H 521.436 5.51027 2.36917 0
M  V30 5668 H 523.115 6.08203 2.20675 0
M  V30 5669 N 523.247 -0.488276 1.49845 0
M  V30 5670 C 524.494 -1.24157 1.59973 0
M  V30 5671 C 524.822 -1.92293 0.292182 0
M  V30 5672 O 524.077 -1.81942 -0.720813 0
M  V30 5673 C 524.376 -2.32152 2.71735 0
M  V30 5674 C 524.042 -1.81387 4.12807 0
M  V30 5675 C 522.704 -1.67262 4.51195 0
M  V30 5676 C 525.056 -1.43537 5.01045 0
M  V30 5677 C 522.384 -1.13685 5.7558 0
M  V30 5678 C 524.736 -0.914081 6.25961 0
M  V30 5679 C 523.4 -0.759327 6.63167 0
M  V30 5680 H 522.67 -0.454322 0.585383 0
M  V30 5681 H 525.317 -0.540261 1.83721 0
M  V30 5682 H 523.622 -3.08122 2.42008 0
M  V30 5683 H 525.319 -2.90164 2.76778 0
M  V30 5684 H 521.909 -1.93344 3.82513 0
M  V30 5685 H 526.093 -1.53292 4.72033 0
M  V30 5686 H 521.349 -1.00426 6.03096 0
M  V30 5687 H 525.523 -0.612066 6.93705 0
M  V30 5688 H 523.15 -0.342002 7.5943 0
M  V30 5689 N 524.725 -1.39134 -0.740242 0
M  V30 5690 C 525.974 -1.35384 -1.49512 0
M  V30 5691 C 526.287 0.04919 -1.95538 0
M  V30 5692 O 527.493 0.209257 -2.70692 0
M  V30 5693 C 525.949 -2.37812 -2.70136 0
M  V30 5694 C 525.557 -3.83804 -2.31081 0
M  V30 5695 C 527.301 -2.4313 -3.47977 0
M  V30 5696 C 525.208 -4.77886 -3.48395 0
M  V30 5697 H 524.138 -0.503297 -0.561434 0
M  V30 5698 H 526.789 -1.64754 -0.807974 0
M  V30 5699 H 525.171 -2.01505 -3.40899 0
M  V30 5700 H 526.345 -4.29123 -1.67898 0
M  V30 5701 H 524.66 -3.81732 -1.66343 0
M  V30 5702 H 527.257 -3.10614 -4.35228 0
M  V30 5703 H 527.6 -1.45423 -3.90074 0
M  V30 5704 H 528.133 -2.78304 -2.84239 0
M  V30 5705 H 524.872 -5.76836 -3.11353 0
M  V30 5706 H 524.392 -4.3725 -4.10576 0
M  V30 5707 H 526.071 -4.96538 -4.148 0
M  V30 5708 N 526.204 0.969867 -1.24223 0
M  V30 5709 C 527.615 1.52717 -1.07399 0
M  V30 5710 C 527.966 1.92956 0.355298 0
M  V30 5711 O 527.091 1.77112 1.2434 0
M  V30 5712 C 527.686 2.77521 -1.94339 0
M  V30 5713 C 526.245 3.29615 -1.81744 0
M  V30 5714 C 525.392 2.02537 -1.89405 0
M  V30 5715 H 528.343 0.788399 -1.37732 0
M  V30 5716 H 528.364 3.50773 -1.47439 0
M  V30 5717 H 527.876 2.48203 -2.98357 0
M  V30 5718 H 525.977 3.63789 -0.805505 0
M  V30 5719 H 526.09 3.98661 -2.65718 0
M  V30 5720 H 524.454 2.17151 -1.33108 0
M  V30 5721 H 525.237 1.75587 -2.94999 0
M  V30 5722 N 527.682 1.05563 1.17022 0
M  V30 5723 C 528.612 0.681026 2.23348 0
M  V30 5724 C 529.593 -0.322983 1.67005 0
M  V30 5725 O 530.778 -0.199746 1.9317 0
M  V30 5726 C 527.908 0.0589053 3.4725 0
M  V30 5727 C 526.862 0.988082 4.16438 0
M  V30 5728 C 526.188 0.229646 5.34207 0
M  V30 5729 C 527.488 2.31388 4.68249 0
M  V30 5730 H 529.182 1.56993 2.54938 0
M  V30 5731 H 526.728 0.756302 1.2254 0
M  V30 5732 H 528.681 -0.214982 4.20851 0
M  V30 5733 H 527.405 -0.864968 3.14938 0
M  V30 5734 H 526.064 1.24659 3.44754 0
M  V30 5735 H 525.712 -0.697111 4.98146 0
M  V30 5736 H 525.412 0.848815 5.81437 0
M  V30 5737 H 526.936 -0.0368694 6.10589 0
M  V30 5738 H 528.35 2.09964 5.33468 0
M  V30 5739 H 526.747 2.88736 5.26072 0
M  V30 5740 H 527.817 2.94982 3.84855 0
M  V30 5741 N 529.16 -1.33526 0.837174 0
M  V30 5742 C 530.407 -1.97837 0.432064 0
M  V30 5743 C 530.735 -1.66324 -1.00829 0
M  V30 5744 O 529.99 -0.93448 -1.71948 0
M  V30 5745 C 530.289 -3.52367 0.597675 0
M  V30 5746 C 529.955 -4.03826 2.00587 0
M  V30 5747 C 528.617 -4.1759 2.39106 0
M  V30 5748 C 530.969 -4.31333 2.92576 0
M  V30 5749 C 528.297 -4.56195 3.68921 0
M  V30 5750 C 530.649 -4.7139 4.2187 0
M  V30 5751 C 529.313 -4.8336 4.60347 0
M  V30 5752 H 528.583 -0.723937 0.158104 0
M  V30 5753 H 531.23 -1.5923 1.06387 0
M  V30 5754 H 529.535 -3.91624 -0.117452 0
M  V30 5755 H 531.232 -4.00126 0.26454 0
M  V30 5756 H 527.822 -3.93586 1.69671 0
M  V30 5757 H 532.006 -4.20224 2.64056 0
M  V30 5758 H 527.262 -4.63655 3.9854 0
M  V30 5759 H 531.436 -4.91631 4.93226 0
M  V30 5760 H 529.063 -5.1303 5.60985 0
M  V30 5761 N 530.638 -0.59345 -1.46 0
M  V30 5762 C 531.915 -0.0157933 -1.95594 0
M  V30 5763 C 532.295 1.44807 -1.53604 0
M  V30 5764 O 531.643 2.14342 -0.791824 0
M  V30 5765 C 531.853 -0.199081 -3.48432 0
M  V30 5766 C 533.201 -0.0724943 -4.24538 0
M  V30 5767 O 534.225 -0.128469 -3.55968 0
M  V30 5768 O 533.084 0.0542426 -5.46473 0
M  V30 5769 H 530.178 0.043749 -0.825842 0
M  V30 5770 H 532.724 -0.662522 -1.56233 0
M  V30 5771 H 531.496 -1.21631 -3.71916 0
M  V30 5772 H 531.119 0.483576 -3.94648 0
M  V30 5773 N 532.116 1.54067 -0.331816 0
M  V30 5774 C 533.363 2.00715 0.268269 0
M  V30 5775 C 533.691 1.21986 1.51491 0
M  V30 5776 O 532.946 0.292309 1.93505 0
M  V30 5777 C 533.245 3.51634 0.639392 0
M  V30 5778 C 532.911 4.48018 -0.509019 0
M  V30 5779 C 531.573 4.74089 -0.824209 0
M  V30 5780 C 533.925 5.05237 -1.28003 0
M  V30 5781 C 531.253 5.54637 -1.91298 0
M  V30 5782 C 533.605 5.86972 -2.35895 0
M  V30 5783 C 532.269 6.11342 -2.67987 0
M  V30 5784 H 531.539 0.734469 0.0981667 0
M  V30 5785 H 534.186 1.8596 -0.457304 0
M  V30 5786 H 532.491 3.6416 1.44551 0
M  V30 5787 H 534.188 3.85175 1.11539 0
M  V30 5788 H 530.778 4.27851 -0.253287 0
M  V30 5789 H 534.962 4.8507 -1.04978 0
M  V30 5790 H 530.218 5.71747 -2.16599 0
M  V30 5791 H 534.392 6.30327 -2.96076 0
M  V30 5792 H 532.019 6.73544 -3.5248 0
M  V30 5793 N 533.594 0.0601682 1.57485 0
M  V30 5794 C 534.84 -0.612501 1.93329 0
M  V30 5795 C 535.173 -1.6996 0.939526 0
M  V30 5796 O 534.448 -1.94472 -0.0330957 0
M  V30 5797 C 534.731 -1.20025 3.39508 0
M  V30 5798 C 534.584 -0.12059 4.49638 0
M  V30 5799 C 535.903 -2.10923 3.86264 0
M  V30 5800 H 533.022 -0.221185 0.703027 0
M  V30 5801 H 535.664 0.123768 1.89596 0
M  V30 5802 H 533.814 -1.82774 3.42821 0
M  V30 5803 H 535.486 0.51185 4.58452 0
M  V30 5804 H 533.729 0.550251 4.30296 0
M  V30 5805 H 534.4 -0.572019 5.49028 0
M  V30 5806 H 536.876 -1.58124 3.84884 0
M  V30 5807 H 535.752 -2.48987 4.8918 0
M  V30 5808 H 536.013 -3.01292 3.23536 0
M  V30 5809 N 535.072 -1.5615 -0.213296 0
M  V30 5810 C 536.321 -1.78743 -0.93455 0
M  V30 5811 C 536.634 -0.630199 -1.8517 0
M  V30 5812 O 537.84 -0.739966 -2.61222 0
M  V30 5813 C 536.296 -3.16571 -1.71203 0
M  V30 5814 C 535.904 -4.40043 -0.840617 0
M  V30 5815 C 537.648 -3.48485 -2.42401 0
M  V30 5816 C 535.555 -5.68895 -1.61592 0
M  V30 5817 H 534.485 -0.666426 -0.352692 0
M  V30 5818 H 537.136 -1.82532 -0.188227 0
M  V30 5819 H 535.518 -3.06981 -2.50157 0
M  V30 5820 H 536.692 -4.6071 -0.0910326 0
M  V30 5821 H 535.007 -4.15706 -0.240365 0
M  V30 5822 H 537.604 -4.41983 -3.00924 0
M  V30 5823 H 537.947 -2.71371 -3.15695 0
M  V30 5824 H 538.48 -3.59442 -1.7043 0
M  V30 5825 H 535.219 -6.48925 -0.926106 0
M  V30 5826 H 534.739 -5.52275 -2.33991 0
M  V30 5827 H 536.418 -6.09365 -2.17447 0
M  V30 5828 N 536.55 0.480323 -1.50102 0
M  V30 5829 C 537.78 1.25475 -1.64133 0
M  V30 5830 C 538.188 1.8647 -0.320272 0
M  V30 5831 O 537.531 1.69561 0.70673 0
M  V30 5832 C 537.593 2.40996 -2.6676 0
M  V30 5833 C 537.257 2.00711 -4.10565 0
M  V30 5834 C 538.254 1.53492 -4.96725 0
M  V30 5835 C 535.939 2.09714 -4.56427 0
M  V30 5836 C 537.933 1.15806 -6.26792 0
M  V30 5837 C 535.62 1.7164 -5.86501 0
M  V30 5838 C 536.618 1.24763 -6.71508 0
M  V30 5839 O 536.306 0.872122 -7.99155 0
M  V30 5840 H 536.038 0.385983 -0.554971 0
M  V30 5841 H 538.592 0.580848 -1.97016 0
M  V30 5842 H 536.822 3.11528 -2.291 0
M  V30 5843 H 538.511 3.02981 -2.70106 0
M  V30 5844 H 539.277 1.45966 -4.62514 0
M  V30 5845 H 535.156 2.4515 -3.90413 0
M  V30 5846 H 538.7 0.791465 -6.93096 0
M  V30 5847 H 534.597 1.78822 -6.20236 0
M  V30 5848 H 535.365 1.00178 -8.12346 0
M  V30 5849 N 538.028 1.39524 0.732853 0
M  V30 5850 C 539.444 1.21176 1.03868 0
M  V30 5851 C 539.644 0.0748448 2.01361 0
M  V30 5852 O 538.7 -0.57281 2.45917 0
M  V30 5853 C 540.013 2.54667 1.59892 0
M  V30 5854 C 541.561 2.6153 1.71962 0
M  V30 5855 C 542.036 3.95248 2.31394 0
M  V30 5856 N 543.527 3.96899 2.38801 0
M  V30 5857 C 544.262 4.97138 2.85729 0
M  V30 5858 N 543.758 6.07775 3.32537 0
M  V30 5859 N 545.551 4.84516 2.84957 0
M  V30 5860 H 537.702 2.12225 0.086304 0
M  V30 5861 H 539.965 0.942614 0.100907 0
M  V30 5862 H 539.671 3.38423 0.95721 0
M  V30 5863 H 539.545 2.74538 2.58668 0
M  V30 5864 H 541.932 1.78156 2.35254 0
M  V30 5865 H 542.013 2.45507 0.718327 0
M  V30 5866 H 541.657 4.79054 1.68729 0
M  V30 5867 H 541.587 4.08593 3.32204 0
M  V30 5868 H 544.078 3.16998 2.05719 0
M  V30 5869 H 544.391 6.8017 3.66862 0
M  V30 5870 H 542.736 6.11366 3.30541 0
M  V30 5871 H 545.927 3.97185 2.47713 0
M  V30 5872 H 546.1 5.62783 3.21215 0
M  V30 5873 N 539.506 -0.963266 1.24736 0
M  V30 5874 C 540.436 -2.07628 1.06832 0
M  V30 5875 C 541.417 -1.70088 -0.0200566 0
M  V30 5876 O 542.602 -1.93636 0.147854 0
M  V30 5877 C 539.732 -3.40636 0.677069 0
M  V30 5878 C 538.686 -3.9215 1.71471 0
M  V30 5879 C 538.012 -5.21553 1.1784 0
M  V30 5880 C 539.312 -4.19493 3.11164 0
M  V30 5881 H 541.006 -2.22864 1.9993 0
M  V30 5882 H 538.552 -1.07093 0.96266 0
M  V30 5883 H 540.505 -4.17941 0.538792 0
M  V30 5884 H 539.229 -3.25313 -0.289612 0
M  V30 5885 H 537.888 -3.17005 1.84128 0
M  V30 5886 H 537.536 -5.02593 0.202195 0
M  V30 5887 H 537.236 -5.56988 1.87185 0
M  V30 5888 H 538.76 -6.01463 1.05233 0
M  V30 5889 H 540.174 -4.87487 3.01711 0
M  V30 5890 H 538.571 -4.66165 3.77902 0
M  V30 5891 H 539.641 -3.26097 3.58871 0
M  V30 5892 N 540.985 -1.06182 -1.16461 0
M  V30 5893 C 542.231 -0.779015 -1.87241 0
M  V30 5894 C 542.564 0.692715 -1.81425 0
M  V30 5895 O 541.839 1.5074 -1.22913 0
M  V30 5896 C 542.122 -1.2728 -3.36856 0
M  V30 5897 C 541.975 -2.80821 -3.51368 0
M  V30 5898 C 543.294 -0.879799 -4.31216 0
M  V30 5899 H 540.413 -0.284464 -0.679889 0
M  V30 5900 H 543.055 -1.31755 -1.36896 0
M  V30 5901 H 541.205 -0.814673 -3.79862 0
M  V30 5902 H 542.877 -3.34833 -3.17308 0
M  V30 5903 H 541.12 -3.19606 -2.93316 0
M  V30 5904 H 541.791 -3.10435 -4.56436 0
M  V30 5905 H 544.267 -1.27436 -3.96105 0
M  V30 5906 H 543.143 -1.25278 -5.34412 0
M  V30 5907 H 543.404 0.215372 -4.41575 0
M  V30 5908 N 542.463 1.3308 -0.844243 0
M  V30 5909 C 543.688 2.02341 -0.455282 0
M  V30 5910 C 544.113 1.6308 0.93737 0
M  V30 5911 O 543.471 0.826118 1.61385 0
M  V30 5912 C 543.519 3.55743 -0.58988 0
M  V30 5913 O 542.623 4.1063 0.38166 0
M  V30 5914 H 541.964 0.637898 -0.184343 0
M  V30 5915 H 544.494 1.6986 -1.14056 0
M  V30 5916 H 544.504 4.05243 -0.473522 0
M  V30 5917 H 543.179 3.83662 -1.60549 0
M  V30 5918 H 541.756 3.72236 0.22241 0
M  V30 5919 N 543.941 0.601185 1.45683 0
M  V30 5920 C 544.888 -0.121396 2.30481 0
M  V30 5921 C 545.858 -0.866232 1.41724 0
M  V30 5922 O 547.043 -0.85324 1.70659 0
M  V30 5923 C 544.183 -1.11704 3.26521 0
M  V30 5924 C 543.296 -0.373741 4.3038 0
M  V30 5925 C 542.431 -1.35854 5.13534 0
M  V30 5926 C 541.47 -0.602689 6.09126 0
M  V30 5927 N 540.607 -1.53645 6.85082 0
M  V30 5928 H 545.447 0.607732 2.91737 0
M  V30 5929 H 542.984 0.311502 1.43764 0
M  V30 5930 H 544.942 -1.70735 3.80664 0
M  V30 5931 H 543.572 -1.81366 2.67032 0
M  V30 5932 H 542.624 0.331962 3.78949 0
M  V30 5933 H 543.936 0.2163 4.98331 0
M  V30 5934 H 543.09 -2.02111 5.72046 0
M  V30 5935 H 541.829 -1.98251 4.45587 0
M  V30 5936 H 540.834 0.0735482 5.49751 0
M  V30 5937 H 542.059 0.0161467 6.79098 0
M  V30 5938 H 540.005 -2.14819 6.1983 0
M  V30 5939 H 539.922 -0.999688 7.49361 0
M  V30 5940 H 541.19 -2.1888 7.48139 0
M  V30 5941 N 545.419 -1.53889 0.339982 0
M  V30 5942 C 546.659 -2.02765 -0.258011 0
M  V30 5943 C 547.023 -1.22249 -1.48051 0
M  V30 5944 O 548.224 -1.61007 -2.15245 0
M  V30 5945 C 546.495 -3.5286 -0.567872 0
M  V30 5946 S 548.054 -4.23647 -1.14318 0
M  V30 5947 H 544.872 -0.706814 -0.0770389 0
M  V30 5948 H 547.474 -1.89594 0.476917 0
M  V30 5949 H 546.178 -4.09073 0.329745 0
M  V30 5950 H 545.709 -3.70144 -1.33256 0
M  V30 5951 H 547.724 -4.32676 -2.42911 0
M  V30 5952 N 546.897 -0.0685191 -1.57451 0
M  V30 5953 C 548.145 0.60016 -1.92983 0
M  V30 5954 C 548.466 1.70348 -0.949028 0
M  V30 5955 O 547.736 1.959 0.00335647 0
M  V30 5956 H 546.316 0.224682 -0.712409 0
M  V30 5957 H 548.978 -0.125605 -1.94495 0
M  V30 5958 H 548.074 1.02759 -2.94698 0
M  V30 5959 N 548.375 1.56261 0.205012 0
M  V30 5960 C 549.624 1.79236 0.925058 0
M  V30 5961 C 549.937 0.640011 1.84833 0
M  V30 5962 O 551.143 0.753809 2.60826 0
M  V30 5963 C 549.599 3.17475 1.69522 0
M  V30 5964 C 549.207 4.40482 0.817269 0
M  V30 5965 C 550.951 3.49766 2.4055 0
M  V30 5966 C 548.858 5.69744 1.58573 0
M  V30 5967 H 547.788 0.668287 0.349153 0
M  V30 5968 H 550.439 1.82629 0.178544 0
M  V30 5969 H 548.821 3.08304 2.48526 0
M  V30 5970 H 549.995 4.60752 0.0665988 0
M  V30 5971 H 548.31 4.15827 0.218316 0
M  V30 5972 H 550.907 4.43573 2.98575 0
M  V30 5973 H 551.25 2.73041 3.14252 0
M  V30 5974 H 551.783 3.60341 1.68522 0
M  V30 5975 H 548.522 6.49407 0.891679 0
M  V30 5976 H 548.042 5.53509 2.31059 0
M  V30 5977 H 549.721 6.1051 2.14212 0
M  V30 5978 N 549.853 -0.472356 1.50355 0
M  V30 5979 C 550.801 -1.59126 1.69651 0
M  V30 5980 C 551.795 -1.59793 0.56237 0
M  V30 5981 O 553.001 -1.63957 0.742832 0
M  V30 5982 H 549.376 -0.528008 0.535454 0
M  V30 5983 H 551.347 -1.40013 2.63513 0
M  V30 5984 C 550.096 -2.97075 1.8067 0
M  V30 5985 H 549.419 -2.9728 2.67329 0
M  V30 5986 H 550.859 -3.74825 1.98197 0
M  V30 5987 C 549.318 -3.32247 0.558016 0
M  V30 5988 O 549.848 -4.00553 -0.303399 0
M  V30 5989 N 548.054 -2.87659 0.412415 0
M  V30 5990 H 547.601 -2.32246 1.11443 0
M  V30 5991 H 547.559 -3.11556 -0.421908 0
M  V30 5992 N 551.331 -1.39911 -0.725443 0
M  V30 5993 C 552.578 -1.37654 -1.48518 0
M  V30 5994 C 552.906 0.0243982 -1.94485 0
M  V30 5995 O 552.161 1.00708 -1.67799 0
M  V30 5996 C 552.46 -2.30368 -2.7325 0
M  V30 5997 C 552.126 -3.77817 -2.461 0
M  V30 5998 C 550.788 -4.17991 -2.38405 0
M  V30 5999 C 553.14 -4.71036 -2.23103 0
M  V30 6000 C 550.468 -5.49433 -2.05768 0
M  V30 6001 C 552.82 -6.02766 -1.9198 0
M  V30 6002 C 551.484 -6.41993 -1.82761 0
M  V30 6003 H 550.754 -0.503713 -0.543465 0
M  V30 6004 H 553.401 -1.7249 -0.831822 0
M  V30 6005 H 551.706 -1.88683 -3.43375 0
M  V30 6006 H 553.403 -2.2591 -3.31309 0
M  V30 6007 H 549.993 -3.45982 -2.52972 0
M  V30 6008 H 554.177 -4.40823 -2.2801 0
M  V30 6009 H 549.433 -5.78738 -1.9716 0
M  V30 6010 H 553.607 -6.74519 -1.73197 0
M  V30 6011 H 551.234 -7.43761 -1.57237 0
M  V30 6012 N 552.809 0.956637 -1.25245 0
M  V30 6013 C 554.034 1.74104 -1.12706 0
M  V30 6014 C 554.459 1.85436 0.315429 0
M  V30 6015 O 553.817 1.33334 1.22848 0
M  V30 6016 C 553.865 3.1338 -1.78396 0
M  V30 6017 O 552.969 3.98485 -1.06224 0
M  V30 6018 H 552.31 0.53476 -0.393609 0
M  V30 6019 H 554.84 1.19924 -1.65769 0
M  V30 6020 H 554.85 3.6385 -1.846 0
M  V30 6021 H 553.525 3.04448 -2.83345 0
M  V30 6022 H 552.102 3.56952 -1.07886 0
M  V30 6023 N 554.287 1.06798 1.15896 0
M  V30 6024 C 555.512 0.808739 1.90982 0
M  V30 6025 C 555.937 -0.6316 1.77179 0
M  V30 6026 O 555.295 -1.4407 1.10061 0
M  V30 6027 C 555.343 1.21468 3.39526 0
M  V30 6028 O 554.447 0.356562 4.10856 0
M  V30 6029 H 553.788 0.29512 0.594811 0
M  V30 6030 H 556.318 1.42513 1.46804 0
M  V30 6031 H 556.328 1.18844 3.90308 0
M  V30 6032 H 555.003 2.26379 3.48891 0
M  V30 6033 H 553.58 0.444808 3.70238 0
M  V30 6034 N 555.766 -1.3263 0.851289 0
M  V30 6035 C 556.696 -2.31449 0.308771 0
M  V30 6036 C 557.677 -1.59531 -0.590255 0
M  V30 6037 O 558.862 -1.87351 -0.511205 0
M  V30 6038 C 555.992 -3.43586 -0.506548 0
M  V30 6039 C 554.946 -4.26963 0.297753 0
M  V30 6040 C 554.272 -5.30831 -0.642094 0
M  V30 6041 C 555.572 -4.99643 1.52166 0
M  V30 6042 H 557.266 -2.77074 1.13447 0
M  V30 6043 H 554.812 -1.33207 0.546971 0
M  V30 6044 H 556.765 -4.11754 -0.896474 0
M  V30 6045 H 555.489 -2.96681 -1.36558 0
M  V30 6046 H 554.148 -3.60437 0.669391 0
M  V30 6047 H 553.796 -4.8018 -1.49788 0
M  V30 6048 H 553.496 -5.87501 -0.107968 0
M  V30 6049 H 555.02 -6.01862 -1.02927 0
M  V30 6050 H 556.434 -5.6051 1.20421 0
M  V30 6051 H 554.831 -5.66022 1.99347 0
M  V30 6052 H 555.901 -4.27701 2.28474 0
M  V30 6053 N 557.244 -0.608902 -1.45362 0
M  V30 6054 C 558.66 -0.272659 -1.57254 0
M  V30 6055 C 558.86 1.22477 -1.60005 0
M  V30 6056 O 557.916 2.00785 -1.53106 0
M  V30 6057 C 559.229 -0.944991 -2.85465 0
M  V30 6058 C 560.777 -0.921033 -2.99142 0
M  V30 6059 C 561.252 -1.5734 -4.30126 0
M  V30 6060 N 562.743 -1.53895 -4.36887 0
M  V30 6061 C 563.478 -2.01286 -5.36909 0
M  V30 6062 N 562.974 -2.56768 -6.43461 0
M  V30 6063 N 564.767 -1.92046 -5.28275 0
M  V30 6064 H 556.918 -1.58117 -1.4182 0
M  V30 6065 H 559.181 -0.662437 -0.678146 0
M  V30 6066 H 558.887 -1.99941 -2.89338 0
M  V30 6067 H 558.761 -0.469079 -3.74272 0
M  V30 6068 H 561.148 0.124846 -2.94836 0
M  V30 6069 H 561.229 -1.43522 -2.11743 0
M  V30 6070 H 560.873 -2.61862 -4.35191 0
M  V30 6071 H 560.803 -1.03422 -5.16344 0
M  V30 6072 H 563.294 -1.13366 -3.60495 0
M  V30 6073 H 563.607 -2.9072 -7.16032 0
M  V30 6074 H 561.952 -2.60808 -6.44208 0
M  V30 6075 H 565.143 -1.48439 -4.43941 0
M  V30 6076 H 565.316 -2.29293 -6.06077 0
M  V30 6077 N 558.722 1.53707 -0.348139 0
M  V30 6078 C 559.669 2.25173 0.506518 0
M  V30 6079 C 560.639 1.25174 1.09182 0
M  V30 6080 O 561.824 1.53917 1.12757 0
M  V30 6081 C 558.964 3.03141 1.64923 0
M  V30 6082 C 558.077 4.18002 1.0908 0
M  V30 6083 C 557.212 4.83447 2.20119 0
M  V30 6084 C 556.251 5.90369 1.61651 0
M  V30 6085 N 555.388 6.49575 2.66451 0
M  V30 6086 H 560.228 2.97799 -0.109452 0
M  V30 6087 H 557.765 1.46953 -0.0657866 0
M  V30 6088 H 559.723 3.46607 2.32205 0
M  V30 6089 H 558.353 2.32803 2.23612 0
M  V30 6090 H 557.405 3.79145 0.308783 0
M  V30 6091 H 558.717 4.94892 0.623178 0
M  V30 6092 H 557.871 5.30008 2.95257 0
M  V30 6093 H 556.61 4.05991 2.70227 0
M  V30 6094 H 555.615 5.43186 0.850209 0
M  V30 6095 H 556.84 6.69735 1.1239 0
M  V30 6096 H 554.786 5.74981 3.15805 0
M  V30 6097 H 554.703 7.21952 2.24325 0
M  V30 6098 H 555.971 7.00789 3.41344 0
M  V30 6099 N 560.2 0.0768682 1.57412 0
M  V30 6100 C 561.133 -0.924685 2.08626 0
M  V30 6101 C 562.111 -1.28792 0.992542 0
M  V30 6102 O 563.295 -1.39634 1.26628 0
M  V30 6103 C 560.422 -2.23131 2.54814 0
M  V30 6104 C 559.468 -2.01928 3.75669 0
M  V30 6105 S 560.301 -1.27397 5.20125 0
M  V30 6106 C 561.457 -2.59329 5.69648 0
M  V30 6107 H 561.69 -0.488928 2.93252 0
M  V30 6108 H 559.223 -0.136014 1.538 0
M  V30 6109 H 561.181 -2.98226 2.82084 0
M  V30 6110 H 559.842 -2.63831 1.70447 0
M  V30 6111 H 559.035 -2.98639 4.05993 0
M  V30 6112 H 558.637 -1.34967 3.48798 0
M  V30 6113 H 560.929 -3.55394 5.76803 0
M  V30 6114 H 561.872 -2.33608 6.68456 0
M  V30 6115 H 562.28 -2.66767 4.9749 0
M  V30 6116 N 561.678 -1.56367 -0.196722 0
M  V30 6117 C 562.641 -1.93561 -1.22746 0
M  V30 6118 C 563.641 -0.816566 -1.38524 0
M  V30 6119 O 564.831 -1.084 -1.36363 0
M  V30 6120 C 561.963 -2.20823 -2.59712 0
M  V30 6121 H 563.156 -2.85774 -0.909586 0
M  V30 6122 H 560.709 -1.50032 -0.438174 0
M  V30 6123 H 561.444 -1.31243 -2.96557 0
M  V30 6124 H 561.229 -3.02368 -2.49632 0
M  V30 6125 H 562.719 -2.50608 -3.34044 0
M  V30 6126 N 563.156 0.464375 -1.50603 0
M  V30 6127 C 564.402 1.21776 -1.62168 0
M  V30 6128 C 564.735 1.91476 -0.324154 0
M  V30 6129 O 564.01 1.8242 0.674782 0
M  V30 6130 C 564.293 2.25614 -2.80661 0
M  V30 6131 C 564.146 1.60175 -4.20314 0
M  V30 6132 C 565.465 3.26862 -2.94702 0
M  V30 6133 H 562.584 0.44137 -0.590222 0
M  V30 6134 H 565.226 0.510623 -1.8301 0
M  V30 6135 H 563.376 2.85923 -2.63021 0
M  V30 6136 H 565.048 1.03411 -4.4956 0
M  V30 6137 H 563.291 0.904697 -4.24261 0
M  V30 6138 H 563.962 2.35665 -4.99165 0
M  V30 6139 H 566.438 2.76582 -3.10872 0
M  V30 6140 H 565.314 3.96839 -3.79223 0
M  V30 6141 H 565.575 3.91382 -2.05603 0
M  V30 6142 N 564.634 1.40294 0.718013 0
M  V30 6143 C 565.882 1.38167 1.47494 0
M  V30 6144 C 566.203 -0.01607 1.94993 0
M  V30 6145 O 565.473 -0.970396 1.70177 0
M  V30 6146 H 564.053 0.508505 0.547203 0
M  V30 6147 H 566.715 1.75324 0.851322 0
M  V30 6148 H 565.811 2.05503 2.34894 0
M  V30 6149 N 566.112 -0.949982 1.2575 0
M  V30 6150 C 567.045 -2.047 1.00862 0
M  V30 6151 C 568.023 -1.62475 -0.0636982 0
M  V30 6152 O 569.207 -1.88343 0.0769153 0
M  V30 6153 C 566.334 -3.34597 0.525613 0
M  V30 6154 C 565.38 -3.95788 1.58916 0
M  V30 6155 S 566.213 -4.31175 3.17567 0
M  V30 6156 C 567.369 -5.64183 2.71013 0
M  V30 6157 H 567.602 -2.25497 1.93749 0
M  V30 6158 H 565.135 -1.09022 1.09332 0
M  V30 6159 H 567.093 -4.09716 0.25359 0
M  V30 6160 H 565.754 -3.11758 -0.382828 0
M  V30 6161 H 564.947 -4.89457 1.20201 0
M  V30 6162 H 564.549 -3.27168 1.81211 0
M  V30 6163 H 566.841 -6.42504 2.14928 0
M  V30 6164 H 567.784 -6.07774 3.6334 0
M  V30 6165 H 568.192 -5.2364 2.1086 0
M  V30 6166 N 567.59 -1.07411 -1.15328 0
M  V30 6167 C 568.839 -0.792643 -1.85473 0
M  V30 6168 C 569.152 0.683789 -1.83259 0
M  V30 6169 O 570.358 1.08005 -2.49093 0
M  V30 6170 C 568.814 -1.36787 -3.32892 0
M  V30 6171 C 568.422 -2.87536 -3.43551 0
M  V30 6172 C 570.166 -1.16444 -4.08217 0
M  V30 6173 C 568.073 -3.38247 -4.85122 0
M  V30 6174 H 567.003 -0.292838 -0.694811 0
M  V30 6175 H 569.654 -1.29426 -1.30082 0
M  V30 6176 H 568.036 -0.793993 -3.87958 0
M  V30 6177 H 569.21 -3.50973 -2.98588 0
M  V30 6178 H 567.525 -3.06676 -2.81672 0
M  V30 6179 H 570.122 -1.51808 -5.12697 0
M  V30 6180 H 570.465 -0.10353 -4.16171 0
M  V30 6181 H 570.998 -1.70472 -3.59422 0
M  V30 6182 H 567.737 -4.43866 -4.82351 0
M  V30 6183 H 567.257 -2.79564 -5.30664 0
M  V30 6184 H 568.936 -3.34238 -5.5398 0
M  V30 6185 N 569.068 1.32177 -0.85831 0
M  V30 6186 C 569.998 2.31282 -0.321041 0
M  V30 6187 C 570.979 1.59841 0.581786 0
M  V30 6188 O 572.164 1.87619 0.501262 0
M  V30 6189 C 569.294 3.4385 0.48832 0
M  V30 6190 C 568.248 4.26799 -0.320391 0
M  V30 6191 C 567.574 5.31164 0.613934 0
M  V30 6192 C 568.874 4.98829 -1.54813 0
M  V30 6193 H 570.568 2.76469 -1.14915 0
M  V30 6194 H 568.114 1.32916 -0.554028 0
M  V30 6195 H 570.067 4.12224 0.874626 0
M  V30 6196 H 568.791 2.97401 1.34983 0
M  V30 6197 H 567.45 3.60077 -0.688497 0
M  V30 6198 H 567.098 4.80967 1.47239 0
M  V30 6199 H 566.798 5.8755 0.0768097 0
M  V30 6200 H 568.322 6.024 0.997336 0
M  V30 6201 H 569.736 5.59864 -1.23392 0
M  V30 6202 H 568.133 5.64957 -2.02346 0
M  V30 6203 H 569.203 4.26483 -2.30739 0
M  V30 6204 N 570.547 0.616602 1.45037 0
M  V30 6205 C 571.51 -0.0871112 2.29034 0
M  V30 6206 C 572.51 -0.786414 1.40258 0
M  V30 6207 O 573.7 -0.633207 1.62284 0
M  V30 6208 C 570.832 -1.13369 3.21497 0
M  V30 6209 H 572.025 0.651497 2.92738 0
M  V30 6210 H 569.578 0.376058 1.51709 0
M  V30 6211 H 570.313 -1.90277 2.62612 0
M  V30 6212 H 570.098 -0.636358 3.86902 0
M  V30 6213 H 571.588 -1.62627 3.84633 0
M  V30 6214 N 572.025 -1.5352 0.356285 0
M  V30 6215 C 573.265 -2.03027 -0.23649 0
M  V30 6216 C 573.629 -1.23813 -1.46746 0
M  V30 6217 O 574.83 -1.63281 -2.13525 0
M  V30 6218 C 573.101 -3.53442 -0.530415 0
M  V30 6219 S 574.66 -4.24836 -1.09819 0
M  V30 6220 H 571.478 -0.707591 -0.0695378 0
M  V30 6221 H 574.08 -1.89077 0.496999 0
M  V30 6222 H 572.784 -4.087 0.373114 0
M  V30 6223 H 572.315 -3.71536 -1.29323 0
M  V30 6224 H 574.33 -4.35228 -2.38309 0
M  V30 6225 N 573.503 -0.0852151 -1.57369 0
M  V30 6226 C 574.433 0.874556 -2.16503 0
M  V30 6227 C 575.414 1.30111 -1.09568 0
M  V30 6228 O 576.599 1.36977 -1.37662 0
M  V30 6229 C 573.729 2.13731 -2.73745 0
M  V30 6230 C 572.683 1.84971 -3.85966 0
M  V30 6231 C 572.009 3.17991 -4.29867 0
M  V30 6232 C 573.309 1.14442 -5.09608 0
M  V30 6233 H 575.003 0.381899 -2.96954 0
M  V30 6234 H 572.549 0.18225 -1.42842 0
M  V30 6235 H 574.502 2.81302 -3.13763 0
M  V30 6236 H 573.226 2.65263 -1.90534 0
M  V30 6237 H 571.885 1.19801 -3.46473 0
M  V30 6238 H 571.533 3.6739 -3.4356 0
M  V30 6239 H 571.233 2.99534 -5.05523 0
M  V30 6240 H 572.757 3.86737 -4.72511 0
M  V30 6241 H 574.171 1.72105 -5.46857 0
M  V30 6242 H 572.568 1.06197 -5.90629 0
M  V30 6243 H 573.638 0.12559 -4.84737 0
M  V30 6244 N 574.981 1.5647 0.188427 0
M  V30 6245 C 575.944 1.9421 1.21718 0
M  V30 6246 C 576.944 0.823901 1.38089 0
M  V30 6247 O 578.134 1.09122 1.35787 0
M  V30 6248 C 575.266 2.22197 2.58537 0
M  V30 6249 H 576.459 2.86252 0.894418 0
M  V30 6250 H 574.012 1.50263 0.430211 0
M  V30 6251 H 574.747 1.32814 2.95856 0
M  V30 6252 H 574.532 3.03688 2.48025 0
M  V30 6253 H 576.022 2.52376 3.3271 0
M  V30 6254 N 576.459 -0.456382 1.50847 0
M  V30 6255 C 577.706 -1.20736 1.62571 0
M  V30 6256 C 578.034 -1.9163 0.332904 0
M  V30 6257 O 577.289 -1.8343 -0.682058 0
M  V30 6258 C 577.588 -2.26336 2.76599 0
M  V30 6259 C 577.254 -1.7259 4.16562 0
M  V30 6260 C 575.916 -1.57654 4.54641 0
M  V30 6261 C 578.268 -1.32877 5.03977 0
M  V30 6262 C 575.596 -1.0145 5.77862 0
M  V30 6263 C 577.948 -0.7811 6.27759 0
M  V30 6264 C 576.612 -0.618488 6.64628 0
M  V30 6265 H 575.882 -0.441803 0.594888 0
M  V30 6266 H 578.529 -0.501169 1.84826 0
M  V30 6267 H 576.834 -3.0292 2.48489 0
M  V30 6268 H 578.531 -2.84227 2.82871 0
M  V30 6269 H 575.121 -1.85187 3.86528 0
M  V30 6270 H 579.305 -1.43245 4.75179 0
M  V30 6271 H 574.561 -0.876109 6.0509 0
M  V30 6272 H 578.735 -0.464783 6.94847 0
M  V30 6273 H 576.362 -0.180838 7.59985 0
M  V30 6274 N 577.937 -1.40673 -0.710563 0
M  V30 6275 C 578.9 -1.4108 -1.80635 0
M  V30 6276 C 579.9 -0.303783 -1.57904 0
M  V30 6277 O 581.09 -0.562937 -1.64853 0
M  V30 6278 C 578.222 -1.20748 -3.18799 0
M  V30 6279 H 579.415 -2.38612 -1.81671 0
M  V30 6280 H 576.968 -1.26595 -0.916704 0
M  V30 6281 H 577.703 -0.239964 -3.23411 0
M  V30 6282 H 577.488 -2.00941 -3.36698 0
M  V30 6283 H 578.978 -1.23833 -3.98817 0
M  V30 6284 N 579.415 0.9433 -1.26252 0
M  V30 6285 C 580.661 1.69175 -1.11837 0
M  V30 6286 C 580.994 1.91238 0.337891 0
M  V30 6287 O 580.269 1.49152 1.24836 0
M  V30 6288 C 580.552 3.06783 -1.88563 0
M  V30 6289 C 580.405 2.9206 -3.42083 0
M  V30 6290 C 581.724 4.06865 -1.67776 0
M  V30 6291 H 578.843 0.61399 -0.407658 0
M  V30 6292 H 581.485 1.09572 -1.55222 0
M  V30 6293 H 579.635 3.57663 -1.51689 0
M  V30 6294 H 581.307 2.48419 -3.88698 0
M  V30 6295 H 579.55 2.27731 -3.69217 0
M  V30 6296 H 580.221 3.89651 -3.90994 0
M  V30 6297 H 582.697 3.64939 -1.99897 0
M  V30 6298 H 581.573 5.01168 -2.23879 0
M  V30 6299 H 581.834 4.37705 -0.621816 0
M  V30 6300 N 580.893 1.08022 1.14757 0
M  V30 6301 C 581.856 0.71048 2.1791 0
M  V30 6302 C 582.856 -0.252731 1.58801 0
M  V30 6303 O 584.046 -0.0327915 1.74169 0
M  V30 6304 C 581.178 0.0483203 3.40866 0
M  V30 6305 H 582.371 1.62384 2.52134 0
M  V30 6306 H 579.924 0.877595 1.29337 0
M  V30 6307 H 580.659 -0.876959 3.12218 0
M  V30 6308 H 580.444 0.741189 3.85031 0
M  V30 6309 H 581.934 -0.195471 4.17142 0
M  V30 6310 N 582.371 -1.3172 0.865308 0
M  V30 6311 C 583.334 -2.26918 0.322627 0
M  V30 6312 C 584.334 -1.52031 -0.523751 0
M  V30 6313 O 585.524 -1.70973 -0.333727 0
M  V30 6314 C 582.656 -3.36558 -0.542338 0
M  V30 6315 H 583.849 -2.76432 1.16298 0
M  V30 6316 H 581.402 -1.42573 0.640512 0
M  V30 6317 H 582.137 -2.92329 -1.40407 0
M  V30 6318 H 581.922 -3.92048 0.0636395 0
M  V30 6319 H 583.412 -4.07465 -0.91446 0
M  V30 6320 N 583.85 -0.624285 -1.44708 0
M  V30 6321 C 584.812 0.0749638 -2.29077 0
M  V30 6322 C 585.812 0.778965 -1.40673 0
M  V30 6323 O 587.003 0.624591 -1.62618 0
M  V30 6324 C 584.135 1.11663 -3.22094 0
M  V30 6325 H 585.327 -0.667013 -2.92388 0
M  V30 6326 H 582.88 -0.384098 -1.51507 0
M  V30 6327 H 583.615 1.88881 -2.63618 0
M  V30 6328 H 583.401 0.61583 -3.87234 0
M  V30 6329 H 584.891 1.60585 -3.8549 0
M  V30 6330 N 585.328 1.53329 -0.364422 0
M  V30 6331 C 586.574 2.01537 0.225969 0
M  V30 6332 C 586.907 1.25128 1.48515 0
M  V30 6333 O 586.182 0.344653 1.91422 0
M  V30 6334 C 586.465 3.56339 0.519092 0
M  V30 6335 C 586.318 4.43441 -0.753639 0
M  V30 6336 C 587.637 4.19833 1.32015 0
M  V30 6337 H 584.756 0.732573 0.0806548 0
M  V30 6338 H 587.398 1.83597 -0.489084 0
M  V30 6339 H 585.548 3.71756 1.12825 0
M  V30 6340 H 587.22 4.39823 -1.39116 0
M  V30 6341 H 585.463 4.11457 -1.37424 0
M  V30 6342 H 586.134 5.49699 -0.503517 0
M  V30 6343 H 588.61 4.08242 0.804859 0
M  V30 6344 H 587.486 5.28177 1.49399 0
M  V30 6345 H 587.747 3.75821 2.32832 0
M  V30 6346 N 586.806 0.0935595 1.57322 0
M  V30 6347 C 587.716 -0.880192 2.17462 0
M  V30 6348 C 588.732 -1.31135 1.14366 0
M  V30 6349 O 589.908 -1.37958 1.46729 0
M  V30 6350 C 586.973 -2.12184 2.74188 0
M  V30 6351 C 586.034 -1.74503 3.92234 0
M  V30 6352 C 585.267 -2.92748 4.46245 0
M  V30 6353 O 585.49 -4.07427 3.99198 0
M  V30 6354 O 584.424 -2.71303 5.37288 0
M  V30 6355 H 588.25 -0.398516 3.01074 0
M  V30 6356 H 585.835 -0.130707 1.48827 0
M  V30 6357 H 587.717 -2.84953 3.10451 0
M  V30 6358 H 586.392 -2.59407 1.93623 0
M  V30 6359 H 585.299 -0.989186 3.60785 0
M  V30 6360 H 586.632 -1.32044 4.74157 0
M  V30 6361 N 588.284 -1.56567 -0.180126 0
M  V30 6362 C 589.533 -1.80685 -0.896426 0
M  V30 6363 C 589.846 -0.669335 -1.83791 0
M  V30 6364 O 591.052 -0.795209 -2.59593 0
M  V30 6365 C 589.508 -3.20132 -1.6445 0
M  V30 6366 C 589.116 -4.41727 -0.747088 0
M  V30 6367 C 590.86 -3.53549 -2.34955 0
M  V30 6368 C 588.767 -5.72195 -1.49489 0
M  V30 6369 H 587.697 -0.673758 -0.338477 0
M  V30 6370 H 590.348 -1.8289 -0.149467 0
M  V30 6371 H 588.73 -3.12218 -2.43589 0
M  V30 6372 H 589.904 -4.608 0.00671129 0
M  V30 6373 H 588.219 -4.16122 -0.152134 0
M  V30 6374 H 590.816 -4.48267 -2.91481 0
M  V30 6375 H 591.159 -2.78006 -3.09868 0
M  V30 6376 H 591.692 -3.62976 -1.62768 0
M  V30 6377 H 588.431 -6.50743 -0.788251 0
M  V30 6378 H 587.951 -5.57115 -2.22224 0
M  V30 6379 H 589.63 -6.1384 -2.04472 0
M  V30 6380 N 589.762 0.448376 -1.51087 0
M  V30 6381 C 590.709 1.54341 -1.71603 0
M  V30 6382 C 591.679 1.56463 -0.557536 0
M  V30 6383 O 592.864 1.73644 -0.79072 0
M  V30 6384 C 590.004 2.92148 -1.83695 0
M  V30 6385 C 589.117 2.99639 -3.11192 0
M  V30 6386 C 588.252 4.285 -3.13944 0
M  V30 6387 C 587.291 4.29819 -4.35801 0
M  V30 6388 N 586.428 5.50186 -4.36164 0
M  V30 6389 H 591.268 1.36151 -2.65079 0
M  V30 6390 H 588.805 0.661585 -1.31383 0
M  V30 6391 H 590.763 3.72093 -1.88687 0
M  V30 6392 H 589.393 3.0892 -0.936374 0
M  V30 6393 H 588.445 2.12425 -3.15562 0
M  V30 6394 H 589.757 2.96474 -4.01129 0
M  V30 6395 H 588.911 5.16811 -3.17791 0
M  V30 6396 H 587.65 4.34307 -2.21876 0
M  V30 6397 H 586.655 3.39902 -4.32142 0
M  V30 6398 H 587.88 4.25685 -5.29121 0
M  V30 6399 H 585.826 5.56735 -3.46961 0
M  V30 6400 H 585.743 5.48856 -5.19897 0
M  V30 6401 H 587.011 6.40559 -4.44189 0
M  V30 6402 N 591.24 1.41047 0.703093 0
M  V30 6403 C 592.489 1.39301 1.4587 0
M  V30 6404 C 592.802 0.00267077 1.956 0
M  V30 6405 O 594.008 -0.137414 2.71152 0
M  V30 6406 C 592.464 2.44891 2.63735 0
M  V30 6407 C 592.072 3.89796 2.20824 0
M  V30 6408 C 593.816 2.5227 3.41409 0
M  V30 6409 C 591.723 4.86955 3.35602 0
M  V30 6410 H 590.653 0.518005 0.547893 0
M  V30 6411 H 593.304 1.66839 0.764009 0
M  V30 6412 H 591.686 2.10472 3.35436 0
M  V30 6413 H 592.86 4.33424 1.56461 0
M  V30 6414 H 591.175 3.86008 1.56163 0
M  V30 6415 H 593.772 3.22044 4.26839 0
M  V30 6416 H 594.115 1.55714 3.86081 0
M  V30 6417 H 594.648 2.85742 2.7676 0
M  V30 6418 H 591.387 5.84888 2.9595 0
M  V30 6419 H 590.907 4.47982 3.98839 0
M  V30 6420 H 592.586 5.07361 4.01489 0
M  V30 6421 N 592.718 -0.936591 1.26751 0
M  V30 6422 C 593.666 -2.0573 1.08527 0
M  V30 6423 C 594.66 -1.69397 0.0108784 0
M  V30 6424 O 595.866 -1.79215 0.167915 0
M  V30 6425 H 592.241 -0.673691 0.334133 0
M  V30 6426 H 594.212 -2.1825 2.03493 0
M  V30 6427 C 592.961 -3.39738 0.739845 0
M  V30 6428 H 592.284 -3.68174 1.55845 0
M  V30 6429 H 593.724 -4.18955 0.652149 0
M  V30 6430 C 592.183 -3.32292 -0.555288 0
M  V30 6431 O 592.713 -3.68794 -1.59229 0
M  V30 6432 N 590.919 -2.85394 -0.54762 0
M  V30 6433 H 590.466 -2.55886 0.296667 0
M  V30 6434 H 590.424 -2.80795 -1.41427 0
M  V30 6435 N 594.196 -1.08629 -1.14182 0
M  V30 6436 C 595.106 -0.730126 -2.22949 0
M  V30 6437 C 596.122 0.26436 -1.7198 0
M  V30 6438 O 597.298 0.107742 -2.01112 0
M  V30 6439 C 594.363 -0.147227 -3.46387 0
M  V30 6440 C 593.424 -1.19662 -4.12286 0
M  V30 6441 C 592.657 -0.641437 -5.29831 0
M  V30 6442 O 592.88 0.538351 -5.67854 0
M  V30 6443 O 591.814 -1.39257 -5.85569 0
M  V30 6444 H 595.64 -1.63753 -2.55771 0
M  V30 6445 H 593.225 -0.860118 -1.22157 0
M  V30 6446 H 595.107 0.174923 -4.21037 0
M  V30 6447 H 593.782 0.733304 -3.15285 0
M  V30 6448 H 592.689 -1.57133 -3.395 0
M  V30 6449 H 594.022 -2.0495 -4.475 0
M  V30 6450 N 595.674 1.31259 -0.872281 0
M  V30 6451 C 596.607 2.26544 -0.274394 0
M  V30 6452 C 597.585 1.51213 0.597776 0
M  V30 6453 O 598.769 1.80277 0.550687 0
M  V30 6454 C 595.896 3.33139 0.611256 0
M  V30 6455 C 594.942 4.26077 -0.189876 0
M  V30 6456 S 595.775 5.11971 -1.56989 0
M  V30 6457 C 596.931 6.2208 -0.690427 0
M  V30 6458 H 597.164 2.76908 -1.0821 0
M  V30 6459 H 594.697 1.3906 -0.670939 0
M  V30 6460 H 596.655 3.95024 1.11654 0
M  V30 6461 H 595.316 2.81525 1.39294 0
M  V30 6462 H 594.509 5.01657 0.485433 0
M  V30 6463 H 594.111 3.68701 -0.627339 0
M  V30 6464 H 596.403 6.77429 0.098001 0
M  V30 6465 H 597.346 6.93768 -1.41742 0
M  V30 6466 H 597.754 5.63915 -0.256953 0
M  V30 6467 N 597.152 0.631951 1.44375 0
M  V30 6468 C 598.115 -0.0628142 2.29114 0
M  V30 6469 C 599.115 -0.771494 1.41084 0
M  V30 6470 O 600.305 -0.615959 1.62947 0
M  V30 6471 C 597.437 -1.09953 3.22681 0
M  V30 6472 H 598.63 0.682509 2.92031 0
M  V30 6473 H 596.183 0.392128 1.51301 0
M  V30 6474 H 596.918 -1.87481 2.64616 0
M  V30 6475 H 596.703 -0.595286 3.87555 0
M  V30 6476 H 598.193 -1.58538 3.86336 0
M  V30 6477 N 598.631 -1.53133 0.372548 0
M  V30 6478 C 600.042 -1.86404 -0.105155 0
M  V30 6479 C 600.393 -1.29289 -1.47576 0
M  V30 6480 O 599.518 -0.617646 -2.07398 0
M  V30 6481 C 600.113 -3.38223 -0.197588 0
M  V30 6482 C 598.672 -3.71266 -0.619556 0
M  V30 6483 C 597.819 -2.76353 0.228919 0
M  V30 6484 H 600.77 -1.47282 0.591077 0
M  V30 6485 H 600.791 -3.66577 -1.01987 0
M  V30 6486 H 600.303 -3.79763 0.800099 0
M  V30 6487 H 598.404 -3.35287 -1.62522 0
M  V30 6488 H 598.517 -4.77515 -0.389332 0
M  V30 6489 H 596.881 -2.52888 -0.303271 0
M  V30 6490 H 597.664 -3.20728 1.22428 0
M  V30 6491 N 600.109 -0.101901 -1.5727 0
M  V30 6492 C 601.072 0.840129 -2.13247 0
M  V30 6493 C 602.072 1.20625 -1.06331 0
M  V30 6494 O 603.262 1.13456 -1.32186 0
M  V30 6495 C 600.394 2.13372 -2.65867 0
M  V30 6496 H 601.587 0.353945 -2.97804 0
M  V30 6497 H 599.14 0.147167 -1.55606 0
M  V30 6498 H 599.875 2.66461 -1.84849 0
M  V30 6499 H 599.66 1.88085 -3.44044 0
M  V30 6500 H 601.15 2.80748 -3.09145 0
M  V30 6501 N 601.587 1.56661 0.17182 0
M  V30 6502 C 602.519 1.92934 1.2373 0
M  V30 6503 C 603.532 0.822385 1.40502 0
M  V30 6504 O 604.721 1.10083 1.40514 0
M  V30 6505 C 601.821 2.16651 2.60607 0
M  V30 6506 C 600.994 3.47878 2.6514 0
M  V30 6507 C 600.053 3.60429 3.83377 0
M  V30 6508 O 599.079 4.33051 3.69398 0
M  V30 6509 N 600.281 2.95241 4.99813 0
M  V30 6510 H 603.046 2.84931 0.929205 0
M  V30 6511 H 600.607 1.5781 0.361588 0
M  V30 6512 H 602.599 2.22312 3.38171 0
M  V30 6513 H 601.169 1.3104 2.83809 0
M  V30 6514 H 600.389 3.53879 1.73675 0
M  V30 6515 H 601.677 4.34232 2.6518 0
M  V30 6516 H 601.075 2.3611 5.14071 0
M  V30 6517 H 599.632 3.06499 5.75241 0
M  V30 6518 N 603.065 -0.440357 1.51323 0
M  V30 6519 C 604.476 -1.02032 1.56353 0
M  V30 6520 C 604.827 -1.92382 0.385197 0
M  V30 6521 O 603.952 -2.10583 -0.498373 0
M  V30 6522 C 604.547 -1.85723 2.83359 0
M  V30 6523 C 603.106 -2.38774 2.90971 0
M  V30 6524 C 602.253 -1.17908 2.50984 0
M  V30 6525 H 605.204 -0.221744 1.57143 0
M  V30 6526 H 605.225 -2.71141 2.66951 0
M  V30 6527 H 604.737 -1.19939 3.69102 0
M  V30 6528 H 602.838 -3.08021 2.09651 0
M  V30 6529 H 602.951 -2.71778 3.94555 0
M  V30 6530 H 601.315 -1.52347 2.04114 0
M  V30 6531 H 602.098 -0.537393 3.39068 0
M  V30 6532 N 604.543 -1.41418 -0.695603 0
M  V30 6533 C 605.791 -1.40496 -1.45277 0
M  V30 6534 C 606.112 -0.0149538 -1.94994 0
M  V30 6535 O 605.382 0.9432 -1.71699 0
M  V30 6536 H 603.962 -0.517147 -0.539044 0
M  V30 6537 H 606.624 -1.76656 -0.823321 0
M  V30 6538 H 605.72 -2.09214 -2.31595 0
M  V30 6539 N 606.021 0.929856 -1.27246 0
M  V30 6540 C 607.432 1.49223 -1.12203 0
M  V30 6541 C 607.783 1.93989 0.293731 0
M  V30 6542 O 606.908 1.80978 1.18642 0
M  V30 6543 C 607.503 2.71198 -2.0307 0
M  V30 6544 C 606.062 3.23666 -1.92139 0
M  V30 6545 C 605.209 1.96409 -1.95752 0
M  V30 6546 H 608.16 0.744181 -1.4017 0
M  V30 6547 H 608.181 3.45905 -1.58524 0
M  V30 6548 H 607.693 2.38585 -3.06102 0
M  V30 6549 H 605.794 3.61042 -0.920834 0
M  V30 6550 H 605.907 3.90006 -2.78267 0
M  V30 6551 H 604.271 2.12806 -1.39949 0
M  V30 6552 H 605.054 1.66113 -3.00436 0
M  V30 6553 N 607.499 1.09233 1.13605 0
M  V30 6554 C 608.431 0.687794 2.18637 0
M  V30 6555 C 609.444 -0.26936 1.60556 0
M  V30 6556 O 610.633 -0.0557162 1.78413 0
M  V30 6557 C 607.733 -0.00751901 3.38899 0
M  V30 6558 C 606.906 0.97067 4.26494 0
M  V30 6559 C 605.965 0.309129 5.25291 0
M  V30 6560 O 604.991 0.956149 5.61112 0
M  V30 6561 N 606.193 -0.937555 5.72879 0
M  V30 6562 H 608.958 1.59141 2.53957 0
M  V30 6563 H 606.519 0.979515 1.28907 0
M  V30 6564 H 608.511 -0.461238 4.02063 0
M  V30 6565 H 607.081 -0.813353 3.01833 0
M  V30 6566 H 606.301 1.603 3.60135 0
M  V30 6567 H 607.589 1.63323 4.81875 0
M  V30 6568 H 606.987 -1.48281 5.4592 0
M  V30 6569 H 605.544 -1.33463 6.3799 0
M  V30 6570 N 608.977 -1.30795 0.87923 0
M  V30 6571 C 609.887 -2.32041 0.345565 0
M  V30 6572 C 610.903 -1.65103 -0.549265 0
M  V30 6573 O 612.079 -1.9645 -0.443763 0
M  V30 6574 C 609.144 -3.43944 -0.436245 0
M  V30 6575 C 608.205 -4.26521 0.48765 0
M  V30 6576 C 607.438 -5.33081 -0.256943 0
M  V30 6577 O 607.661 -5.50762 -1.48381 0
M  V30 6578 O 606.595 -6.00635 0.389985 0
M  V30 6579 H 610.421 -2.79627 1.18501 0
M  V30 6580 H 608.006 -1.3486 0.642885 0
M  V30 6581 H 609.888 -4.12128 -0.879119 0
M  V30 6582 H 608.563 -2.98504 -1.25208 0
M  V30 6583 H 607.47 -3.61057 0.979216 0
M  V30 6584 H 608.803 -4.75551 1.26933 0
M  V30 6585 N 610.455 -0.639598 -1.44038 0
M  V30 6586 C 611.701 -0.147698 -2.02261 0
M  V30 6587 C 612.034 1.23031 -1.50256 0
M  V30 6588 O 611.309 1.81847 -0.690068 0
M  V30 6589 C 611.592 -0.14362 -3.59813 0
M  V30 6590 C 611.445 -1.55458 -4.22082 0
M  V30 6591 C 612.764 0.527317 -4.36929 0
M  V30 6592 H 609.883 -0.0551453 -0.734934 0
M  V30 6593 H 612.525 -0.817688 -1.71505 0
M  V30 6594 H 610.675 0.426898 -3.86147 0
M  V30 6595 H 612.347 -2.17464 -4.06826 0
M  V30 6596 H 610.59 -2.10594 -3.79253 0
M  V30 6597 H 611.261 -1.50369 -5.31124 0
M  V30 6598 H 613.737 0.0420504 -4.16079 0
M  V30 6599 H 612.613 0.499389 -5.46624 0
M  V30 6600 H 612.874 1.59914 -4.12165 0
M  V30 6601 N 611.933 1.52934 -0.380664 0
M  V30 6602 C 613.18 2.01467 0.204278 0
M  V30 6603 C 613.508 1.26744 1.47533 0
M  V30 6604 O 612.763 0.353723 1.92477 0
M  V30 6605 C 613.062 3.5349 0.527199 0
M  V30 6606 C 612.728 4.46171 -0.651295 0
M  V30 6607 C 611.39 4.71227 -0.974619 0
M  V30 6608 C 613.742 5.00909 -1.44012 0
M  V30 6609 C 611.07 5.4827 -2.08847 0
M  V30 6610 C 613.422 5.7917 -2.5445 0
M  V30 6611 C 612.086 6.02507 -2.87301 0
M  V30 6612 H 611.356 0.73722 0.0747504 0
M  V30 6613 H 614.003 1.84411 -0.516234 0
M  V30 6614 H 612.308 3.68574 1.32892 0
M  V30 6615 H 614.005 3.88529 0.992283 0
M  V30 6616 H 610.595 4.26829 -0.389276 0
M  V30 6617 H 614.779 4.81485 -1.20357 0
M  V30 6618 H 610.035 5.64567 -2.34679 0
M  V30 6619 H 614.209 6.20588 -3.1598 0
M  V30 6620 H 611.836 6.61989 -3.7373 0
M  V30 6621 N 613.412 0.11024 1.57214 0
M  V30 6622 C 614.342 -0.840002 2.17867 0
M  V30 6623 C 615.323 -1.28352 1.11624 0
M  V30 6624 O 616.508 -1.3477 1.39824 0
M  V30 6625 C 613.638 -2.09349 2.77111 0
M  V30 6626 C 612.592 -1.78807 3.8886 0
M  V30 6627 C 611.918 -3.11112 4.34872 0
M  V30 6628 C 613.218 -1.0632 5.11364 0
M  V30 6629 H 614.912 -0.334608 2.97524 0
M  V30 6630 H 612.458 -0.159502 1.43114 0
M  V30 6631 H 614.411 -2.76275 3.18198 0
M  V30 6632 H 613.135 -2.62198 1.9473 0
M  V30 6633 H 611.794 -1.14273 3.48335 0
M  V30 6634 H 611.442 -3.61877 3.49362 0
M  V30 6635 H 611.142 -2.91453 5.10224 0
M  V30 6636 H 612.666 -3.79171 4.78604 0
M  V30 6637 H 614.08 -1.63383 5.49526 0
M  V30 6638 H 612.477 -0.967876 5.92243 0
M  V30 6639 H 613.547 -0.0484569 4.84876 0
M  V30 6640 N 614.89 -1.56749 -0.16351 0
M  V30 6641 C 615.822 -1.93587 -1.22705 0
M  V30 6642 C 616.835 -0.829824 -1.40063 0
M  V30 6643 O 618.024 -1.10826 -1.39928 0
M  V30 6644 C 615.124 -2.1803 -2.59454 0
M  V30 6645 C 614.297 -3.4928 -2.63292 0
M  V30 6646 C 613.356 -3.62457 -3.8146 0
M  V30 6647 O 612.382 -4.35004 -3.67096 0
M  V30 6648 N 613.584 -2.97888 -4.9824 0
M  V30 6649 H 616.349 -2.8542 -0.914081 0
M  V30 6650 H 613.91 -1.58 -0.353214 0
M  V30 6651 H 615.902 -2.24102 -3.36987 0
M  V30 6652 H 614.472 -1.32543 -2.8311 0
M  V30 6653 H 613.692 -3.54795 -1.71796 0
M  V30 6654 H 614.98 -4.35632 -2.62873 0
M  V30 6655 H 614.378 -2.38833 -5.12811 0
M  V30 6656 H 612.935 -3.09545 -5.73607 0
M  V30 6657 N 616.368 0.432326 -1.51554 0
M  V30 6658 C 617.614 1.18309 -1.64714 0
M  V30 6659 C 617.947 1.90745 -0.364696 0
M  V30 6660 O 617.222 1.8381 0.635936 0
M  V30 6661 C 617.505 2.1961 -2.85383 0
M  V30 6662 C 617.358 1.51223 -4.23617 0
M  V30 6663 C 618.677 3.20538 -3.01569 0
M  V30 6664 H 615.796 0.428751 -0.599451 0
M  V30 6665 H 618.438 0.471689 -1.84052 0
M  V30 6666 H 616.588 2.8028 -2.69027 0
M  V30 6667 H 618.26 0.938516 -4.51652 0
M  V30 6668 H 616.503 0.814501 -4.26085 0
M  V30 6669 H 617.174 2.25024 -5.04052 0
M  V30 6670 H 619.65 2.69926 -3.16669 0
M  V30 6671 H 618.526 3.88706 -3.87555 0
M  V30 6672 H 618.787 3.86933 -2.13859 0
M  V30 6673 N 617.846 1.41785 0.688094 0
M  V30 6674 C 618.776 1.47 1.8142 0
M  V30 6675 C 619.757 0.327881 1.6691 0
M  V30 6676 O 620.942 0.540362 1.86531 0
M  V30 6677 C 618.072 1.35876 3.19617 0
M  V30 6678 C 617.026 2.47976 3.48844 0
M  V30 6679 C 616.352 2.21915 4.86475 0
M  V30 6680 C 617.652 3.90309 3.47068 0
M  V30 6681 H 619.346 2.41247 1.77314 0
M  V30 6682 H 616.892 1.16116 0.851651 0
M  V30 6683 H 618.845 1.38134 3.98117 0
M  V30 6684 H 617.569 0.38116 3.24368 0
M  V30 6685 H 616.228 2.45013 2.72698 0
M  V30 6686 H 615.876 1.2248 4.8786 0
M  V30 6687 H 615.576 2.97037 5.06994 0
M  V30 6688 H 617.1 2.25901 5.67275 0
M  V30 6689 H 618.514 3.94947 4.1556 0
M  V30 6690 H 616.911 4.65175 3.7912 0
M  V30 6691 H 617.981 4.17927 2.45896 0
M  V30 6692 N 619.324 -0.923095 1.27737 0
M  V30 6693 C 620.272 -2.04567 1.10703 0
M  V30 6694 C 621.266 -1.69375 0.0288445 0
M  V30 6695 O 622.472 -1.79027 0.186913 0
M  V30 6696 H 618.847 -0.670109 0.34126 0
M  V30 6697 H 620.818 -2.1608 2.05796 0
M  V30 6698 C 619.567 -3.38934 0.775837 0
M  V30 6699 H 618.89 -3.66501 1.59741 0
M  V30 6700 H 620.33 -4.18239 0.696548 0
M  V30 6701 C 618.789 -3.32863 -0.520012 0
M  V30 6702 O 619.319 -3.70462 -1.55308 0
M  V30 6703 N 617.525 -2.85958 -0.51732 0
M  V30 6704 H 617.072 -2.55557 0.32379 0
M  V30 6705 H 617.03 -2.82279 -1.38441 0
M  V30 6706 N 620.802 -1.09834 -1.13024 0
M  V30 6707 C 621.732 -0.763451 -2.20666 0
M  V30 6708 C 622.713 0.260778 -1.68089 0
M  V30 6709 O 623.898 0.127915 -1.93778 0
M  V30 6710 C 621.028 -0.187744 -3.46792 0
M  V30 6711 C 619.982 -1.14196 -4.12484 0
M  V30 6712 C 619.308 -0.427755 -5.32986 0
M  V30 6713 C 620.608 -2.48607 -4.59338 0
M  V30 6714 H 622.302 -1.66347 -2.48936 0
M  V30 6715 H 619.848 -0.801261 -1.19649 0
M  V30 6716 H 621.801 0.0586375 -4.21359 0
M  V30 6717 H 620.525 0.747485 -3.17931 0
M  V30 6718 H 619.184 -1.37369 -3.3989 0
M  V30 6719 H 618.832 0.511747 -5.0039 0
M  V30 6720 H 618.532 -1.06403 -5.77886 0
M  V30 6721 H 620.056 -0.189772 -6.10305 0
M  V30 6722 H 621.47 -2.29618 -5.25308 0
M  V30 6723 H 619.867 -3.08062 -5.14993 0
M  V30 6724 H 620.937 -3.09062 -3.73642 0
M  V30 6725 N 622.28 1.30327 -0.886154 0
M  V30 6726 C 623.243 2.26376 -0.358687 0
M  V30 6727 C 624.243 1.52845 0.499498 0
M  V30 6728 O 625.433 1.71483 0.306485 0
M  V30 6729 C 622.565 3.37379 0.488726 0
M  V30 6730 H 623.758 2.74547 -1.20681 0
M  V30 6731 H 621.311 1.41536 -0.663113 0
M  V30 6732 H 622.046 2.94526 1.35739 0
M  V30 6733 H 621.831 3.91897 -0.126003 0
M  V30 6734 H 623.321 4.08868 0.84952 0
M  V30 6735 N 623.758 0.647228 1.43697 0
M  V30 6736 C 625.035 0.0883758 1.954 0
M  V30 6737 C 625.415 -1.39006 1.58873 0
M  V30 6738 O 624.763 -2.11255 0.87083 0
M  V30 6739 C 624.973 0.328263 3.47453 0
M  V30 6740 C 626.321 0.230009 4.23977 0
M  V30 6741 O 627.345 0.260496 3.55246 0
M  V30 6742 O 626.204 0.148615 5.46298 0
M  V30 6743 H 623.298 -0.0130683 0.826897 0
M  V30 6744 H 625.844 0.72005 1.53666 0
M  V30 6745 H 624.616 1.3535 3.67146 0
M  V30 6746 H 624.239 -0.336772 3.96171 0
M  V30 6747 N 625.236 -1.5273 0.388769 0
M  V30 6748 C 626.513 -1.93981 -0.251133 0
M  V30 6749 C 626.893 -1.32418 -1.64404 0
M  V30 6750 O 626.241 -0.492074 -2.23139 0
M  V30 6751 C 626.451 -3.47891 -0.27802 0
M  V30 6752 C 627.799 -4.21559 -0.507229 0
M  V30 6753 O 628.823 -3.54394 -0.358252 0
M  V30 6754 O 627.682 -5.40626 -0.799094 0
M  V30 6755 H 624.776 -0.812157 -0.15598 0
M  V30 6756 H 627.322 -1.63809 0.443237 0
M  V30 6757 H 626.094 -3.8503 0.697669 0
M  V30 6758 H 625.717 -3.84364 -1.01733 0
M  V30 6759 N 626.714 -0.118576 -1.57153 0
M  V30 6760 C 627.624 0.845484 -2.18835 0
M  V30 6761 C 628.64 1.29299 -1.16438 0
M  V30 6762 O 629.816 1.35607 -1.48905 0
M  V30 6763 C 626.881 2.07795 -2.77529 0
M  V30 6764 C 625.942 1.6824 -3.9496 0
M  V30 6765 C 625.175 2.85612 -4.50845 0
M  V30 6766 O 625.398 4.01025 -4.05629 0
M  V30 6767 O 624.332 2.62721 -5.41536 0
M  V30 6768 H 628.158 0.350568 -3.0167 0
M  V30 6769 H 625.743 0.107013 -1.49016 0
M  V30 6770 H 627.625 2.79978 -3.14945 0
M  V30 6771 H 626.3 2.56294 -1.97725 0
M  V30 6772 H 625.207 0.931663 -3.62313 0
M  V30 6773 H 626.54 1.24484 -4.76198 0
M  V30 6774 N 628.193 1.56834 0.155195 0
M  V30 6775 C 629.439 1.83169 0.870467 0
M  V30 6776 C 629.772 0.698929 1.81187 0
M  V30 6777 O 629.047 -0.298035 1.92203 0
M  V30 6778 C 629.33 3.19965 1.65211 0
M  V30 6779 C 629.183 4.43792 0.732744 0
M  V30 6780 C 630.502 3.53885 2.61636 0
M  V30 6781 H 627.621 0.666288 0.315006 0
M  V30 6782 H 630.263 1.89513 0.135988 0
M  V30 6783 H 628.413 3.14687 2.27825 0
M  V30 6784 H 630.085 4.61148 0.118236 0
M  V30 6785 H 628.328 4.3378 0.0417906 0
M  V30 6786 H 628.999 5.36095 1.31552 0
M  V30 6787 H 631.475 3.5972 2.09143 0
M  V30 6788 H 630.351 4.50648 3.13381 0
M  V30 6789 H 630.612 2.79418 3.42605 0
M  V30 6790 N 629.671 -0.424282 1.51781 0
M  V30 6791 C 630.618 -1.51591 1.74037 0
M  V30 6792 C 631.588 -1.55556 0.582358 0
M  V30 6793 O 632.773 -1.72364 0.818245 0
M  V30 6794 C 629.913 -2.89188 1.8832 0
M  V30 6795 C 629.026 -2.9465 3.1592 0
M  V30 6796 C 628.161 -4.23452 3.20721 0
M  V30 6797 C 627.2 -4.22831 4.42584 0
M  V30 6798 N 626.337 -5.43178 4.44862 0
M  V30 6799 H 631.177 -1.31917 2.67212 0
M  V30 6800 H 628.714 -0.640599 1.32419 0
M  V30 6801 H 630.672 -3.69044 1.94583 0
M  V30 6802 H 629.302 -3.07392 0.985402 0
M  V30 6803 H 628.354 -2.07378 3.18902 0
M  V30 6804 H 629.666 -2.90055 4.05795 0
M  V30 6805 H 628.82 -5.1169 3.25973 0
M  V30 6806 H 627.559 -4.30722 2.28757 0
M  V30 6807 H 626.564 -3.32984 4.37495 0
M  V30 6808 H 627.789 -4.17213 5.35826 0
M  V30 6809 H 625.735 -5.51145 3.55775 0
M  V30 6810 H 625.652 -5.40515 5.28563 0
M  V30 6811 H 626.92 -6.33412 4.54324 0
M  V30 6812 N 631.149 -1.42148 -0.680565 0
M  V30 6813 C 632.395 -1.42521 -1.44277 0
M  V30 6814 C 632.728 -0.0393718 -1.9416 0
M  V30 6815 O 632.003 0.935425 -1.70529 0
M  V30 6816 C 632.286 -2.44475 -2.64394 0
M  V30 6817 C 632.139 -3.92226 -2.20179 0
M  V30 6818 C 633.458 -2.43491 -3.66606 0
M  V30 6819 H 630.577 -0.518985 -0.523282 0
M  V30 6820 H 633.219 -1.73524 -0.773914 0
M  V30 6821 H 631.369 -2.18168 -3.21458 0
M  V30 6822 H 633.041 -4.29493 -1.68327 0
M  V30 6823 H 631.284 -4.0637 -1.5181 0
M  V30 6824 H 631.955 -4.59133 -3.06433 0
M  V30 6825 H 634.431 -2.66872 -3.19247 0
M  V30 6826 H 633.307 -3.16816 -4.4824 0
M  V30 6827 H 633.568 -1.45881 -4.17338 0
M  V30 6828 N 632.627 0.916307 -1.28225 0
M  V30 6829 C 633.855 1.69901 -1.18073 0
M  V30 6830 C 634.27 1.86988 0.260968 0
M  V30 6831 O 633.627 1.39505 1.17663 0
M  V30 6832 C 633.678 3.09254 -1.87201 0
M  V30 6833 O 633.399 2.92959 -3.2574 0
M  V30 6834 C 634.9 4.0362 -1.83319 0
M  V30 6835 H 632.12 0.531181 -0.409985 0
M  V30 6836 H 634.664 1.14703 -1.69303 0
M  V30 6837 H 632.819 3.61277 -1.39848 0
M  V30 6838 H 633.233 3.81139 -3.60324 0
M  V30 6839 H 634.707 4.98873 -2.36282 0
M  V30 6840 H 635.184 4.3176 -0.805007 0
M  V30 6841 H 635.79 3.57524 -2.3034 0
M  V30 6842 N 634.105 1.10431 1.1244 0
M  V30 6843 C 635.351 0.847972 1.84221 0
M  V30 6844 C 635.684 -0.624903 1.83871 0
M  V30 6845 O 634.959 -1.46074 1.28423 0
M  V30 6846 C 635.242 1.39695 3.319 0
M  V30 6847 C 635.095 2.93668 3.40704 0
M  V30 6848 C 636.414 1.03924 4.27654 0
M  V30 6849 H 633.533 0.309502 0.668863 0
M  V30 6850 H 636.175 1.36745 1.31912 0
M  V30 6851 H 634.325 0.955095 3.76577 0
M  V30 6852 H 635.997 3.46379 3.04662 0
M  V30 6853 H 634.24 3.30272 2.81252 0
M  V30 6854 H 634.911 3.27162 4.446 0
M  V30 6855 H 637.387 1.42049 3.91102 0
M  V30 6856 H 636.263 1.45027 5.29394 0
M  V30 6857 H 636.524 -0.051336 4.4207 0
M  V30 6858 N 635.583 -1.29855 0.893053 0
M  V30 6859 C 636.829 -1.96116 0.516349 0
M  V30 6860 C 637.162 -1.70281 -0.933695 0
M  V30 6861 O 636.437 -1.01205 -1.66096 0
M  V30 6862 C 636.72 -3.51068 0.801455 0
M  V30 6863 C 636.573 -3.86387 2.30272 0
M  V30 6864 C 637.892 -4.39186 0.283423 0
M  V30 6865 H 635.011 -0.712335 0.189072 0
M  V30 6866 H 637.653 -1.53587 1.11852 0
M  V30 6867 H 635.803 -3.87424 0.288949 0
M  V30 6868 H 637.475 -3.60012 2.88425 0
M  V30 6869 H 635.718 -3.34167 2.76613 0
M  V30 6870 H 636.389 -4.94512 2.45279 0
M  V30 6871 H 638.865 -4.09785 0.722187 0
M  V30 6872 H 637.741 -5.46505 0.512169 0
M  V30 6873 H 638.002 -4.34511 -0.815643 0
M  V30 6874 N 637.061 -0.65484 -1.43351 0
M  V30 6875 C 638.309 -0.168559 -2.01396 0
M  V30 6876 C 638.63 1.22235 -1.51933 0
M  V30 6877 O 637.9 1.81685 -0.732627 0
M  V30 6878 H 636.48 -0.0593244 -0.744641 0
M  V30 6879 H 639.142 -0.846871 -1.75539 0
M  V30 6880 H 638.238 -0.154428 -3.11718 0
M  V30 6881 N 638.539 1.52521 -0.396863 0
M  V30 6882 C 639.487 2.28217 0.44943 0
M  V30 6883 C 640.481 1.32416 1.05652 0
M  V30 6884 O 641.687 1.49925 0.996124 0
M  V30 6885 H 638.062 0.733966 0.1637 0
M  V30 6886 H 640.033 2.97658 -0.210367 0
M  V30 6887 C 638.782 3.10713 1.56054 0
M  V30 6888 H 638.105 3.84291 1.10273 0
M  V30 6889 H 639.545 3.66803 2.12677 0
M  V30 6890 C 638.004 2.23499 2.52091 0
M  V30 6891 O 638.534 1.8669 3.55682 0
M  V30 6892 N 636.74 1.8751 2.2201 0
M  V30 6893 H 636.287 2.17643 1.37802 0
M  V30 6894 H 636.245 1.29448 2.86514 0
M  V30 6895 N 640.017 0.126909 1.57088 0
M  V30 6896 C 640.927 -0.833867 2.1928 0
M  V30 6897 C 641.943 -1.2868 1.17122 0
M  V30 6898 O 643.119 -1.34815 1.49622 0
M  V30 6899 C 640.184 -2.0632 2.78627 0
M  V30 6900 C 639.245 -1.66143 3.95847 0
M  V30 6901 C 638.478 -2.83217 4.52354 0
M  V30 6902 O 638.701 -3.98868 4.0775 0
M  V30 6903 O 637.635 -2.59846 5.42922 0
M  V30 6904 H 641.461 -0.334564 3.01852 0
M  V30 6905 H 639.046 -0.0991091 1.49071 0
M  V30 6906 H 640.928 -2.78304 3.16425 0
M  V30 6907 H 639.603 -2.55242 1.99082 0
M  V30 6908 H 638.51 -0.912435 3.62802 0
M  V30 6909 H 639.843 -1.21957 4.76852 0
M  V30 6910 N 641.495 -1.56914 -0.146875 0
M  V30 6911 C 642.443 -1.99224 -1.20053 0
M  V30 6912 C 643.437 -0.884661 -1.44465 0
M  V30 6913 O 644.643 -1.06984 -1.44756 0
M  V30 6914 H 641.018 -0.634191 -0.404112 0
M  V30 6915 H 642.989 -2.86998 -0.816987 0
M  V30 6916 C 641.738 -2.38899 -2.52632 0
M  V30 6917 H 641.061 -3.23677 -2.34677 0
M  V30 6918 H 642.501 -2.72326 -3.24984 0
M  V30 6919 C 640.96 -1.2417 -3.13183 0
M  V30 6920 O 641.49 -0.542503 -3.9802 0
M  V30 6921 N 639.696 -1.00592 -2.72635 0
M  V30 6922 H 639.243 -1.57627 -2.03744 0
M  V30 6923 H 639.201 -0.240174 -3.13481 0
M  V30 6924 N 642.974 0.416227 -1.52004 0
M  V30 6925 C 643.922 1.5272 -1.7544 0
M  V30 6926 C 644.916 1.57596 -0.621289 0
M  V30 6927 O 646.122 1.61087 -0.803172 0
M  V30 6928 H 642.497 0.507772 -0.554682 0
M  V30 6929 H 644.468 1.30136 -2.68528 0
M  V30 6930 C 643.217 2.90165 -1.91571 0
M  V30 6931 H 642.54 2.87154 -2.78178 0
M  V30 6932 H 643.98 3.67211 -2.11972 0
M  V30 6933 C 642.439 3.29947 -0.680942 0
M  V30 6934 O 642.969 4.01403 0.154527 0
M  V30 6935 N 641.175 2.8593 -0.518894 0
M  V30 6936 H 640.722 2.2795 -1.19986 0
M  V30 6937 H 640.68 3.12907 0.305985 0
M  V30 6938 N 644.452 1.42507 0.673017 0
M  V30 6939 C 645.677 1.4668 1.46627 0
M  V30 6940 C 646.102 0.080066 1.8793 0
M  V30 6941 O 645.46 -0.921879 1.56112 0
M  V30 6942 C 645.508 2.40091 2.69051 0
M  V30 6943 O 644.612 1.8735 3.67387 0
M  V30 6944 H 643.953 0.496908 0.44043 0
M  V30 6945 H 646.483 1.87215 0.825334 0
M  V30 6946 H 646.493 2.56731 3.17101 0
M  V30 6947 H 645.168 3.4084 2.3833 0
M  V30 6948 H 643.745 1.80274 3.26429 0
M  V30 6949 N 645.93 -0.909495 1.28709 0
M  V30 6950 C 646.86 -2.0291 1.15542 0
M  V30 6951 C 647.841 -1.7002 0.0521017 0
M  V30 6952 O 649.026 -1.92835 0.229849 0
M  V30 6953 C 646.156 -3.37458 0.820935 0
M  V30 6954 C 645.11 -3.84524 1.87949 0
M  V30 6955 C 644.436 -5.16086 1.39854 0
M  V30 6956 C 645.736 -4.05918 3.28676 0
M  V30 6957 H 647.43 -2.14183 2.09203 0
M  V30 6958 H 644.976 -1.02913 1.00722 0
M  V30 6959 H 646.929 -4.1528 0.715571 0
M  V30 6960 H 645.653 -3.26249 -0.151374 0
M  V30 6961 H 644.312 -3.08911 1.97408 0
M  V30 6962 H 643.96 -5.01284 0.41518 0
M  V30 6963 H 643.66 -5.48547 2.1064 0
M  V30 6964 H 645.184 -5.96459 1.30649 0
M  V30 6965 H 646.598 -4.74252 3.22115 0
M  V30 6966 H 644.995 -4.49717 3.97334 0
M  V30 6967 H 646.065 -3.10583 3.72379 0
M  V30 6968 N 647.408 -1.11026 -1.11852 0
M  V30 6969 C 648.338 -0.786812 -2.19844 0
M  V30 6970 C 649.319 0.242935 -1.68356 0
M  V30 6971 O 650.504 0.107355 -1.93903 0
M  V30 6972 C 647.634 -0.224516 -3.46574 0
M  V30 6973 C 646.588 -1.18564 -4.1125 0
M  V30 6974 C 645.914 -0.484261 -5.32503 0
M  V30 6975 C 647.214 -2.53465 -4.56676 0
M  V30 6976 H 648.908 -1.68978 -2.47158 0
M  V30 6977 H 646.454 -0.813906 -1.18792 0
M  V30 6978 H 648.407 0.0139435 -4.21398 0
M  V30 6979 H 647.131 0.713722 -3.18706 0
M  V30 6980 H 645.79 -1.40966 -3.38414 0
M  V30 6981 H 645.438 0.458646 -5.00905 0
M  V30 6982 H 645.138 -1.12526 -5.76725 0
M  V30 6983 H 646.662 -0.254492 -6.10069 0
M  V30 6984 H 648.076 -2.35177 -5.22843 0
M  V30 6985 H 646.473 -3.13507 -5.11697 0
M  V30 6986 H 647.543 -3.13008 -3.70343 0
M  V30 6987 N 648.886 1.2938 -0.899927 0
M  V30 6988 C 650.135 1.9483 -0.521937 0
M  V30 6989 C 650.448 1.71725 0.936473 0
M  V30 6990 O 651.654 2.31282 1.42199 0
M  V30 6991 C 650.11 3.48911 -0.88255 0
M  V30 6992 C 649.718 3.80815 -2.35974 0
M  V30 6993 C 651.462 4.20595 -0.57448 0
M  V30 6994 C 649.369 5.28142 -2.66121 0
M  V30 6995 H 648.299 0.729285 -0.191468 0
M  V30 6996 H 650.95 1.47103 -1.09695 0
M  V30 6997 H 649.332 3.95293 -0.236459 0
M  V30 6998 H 650.506 3.45291 -3.05141 0
M  V30 6999 H 648.821 3.22271 -2.63686 0
M  V30 7000 H 651.418 5.29031 -0.776556 0
M  V30 7001 H 651.761 4.13442 0.487005 0
M  V30 7002 H 652.294 3.79945 -1.17842 0
M  V30 7003 H 649.033 5.4036 -3.71068 0
M  V30 7004 H 648.553 5.64913 -2.01578 0
M  V30 7005 H 650.232 5.95738 -2.52399 0
M  V30 7006 N 650.364 0.662433 1.43002 0
M  V30 7007 C 651.274 -0.0239199 2.34588 0
M  V30 7008 C 652.29 -0.802255 1.54402 0
M  V30 7009 O 653.466 -0.747401 1.87018 0
M  V30 7010 C 650.531 -0.972098 3.32793 0
M  V30 7011 C 649.592 -0.189673 4.28881 0
M  V30 7012 C 648.825 -1.09269 5.22395 0
M  V30 7013 O 649.048 -2.33209 5.20547 0
M  V30 7014 O 647.982 -0.560136 5.99288 0
M  V30 7015 H 651.808 0.730171 2.94792 0
M  V30 7016 H 649.393 0.422635 1.43297 0
M  V30 7017 H 651.275 -1.51676 3.93157 0
M  V30 7018 H 649.95 -1.70626 2.75079 0
M  V30 7019 H 648.857 0.398794 3.71968 0
M  V30 7020 H 650.19 0.50511 4.89601 0
M  V30 7021 N 651.842 -1.52309 0.404946 0
M  V30 7022 C 653.067 -2.06666 -0.1743 0
M  V30 7023 C 653.492 -1.27341 -1.38441 0
M  V30 7024 O 652.85 -0.302539 -1.78758 0
M  V30 7025 C 652.898 -3.57014 -0.507262 0
M  V30 7026 O 652.002 -3.80144 -1.59889 0
M  V30 7027 H 651.343 -0.663807 -0.0160273 0
M  V30 7028 H 653.873 -1.96297 0.576937 0
M  V30 7029 H 653.883 -4.00724 -0.767098 0
M  V30 7030 H 652.558 -4.14184 0.377368 0
M  V30 7031 H 651.135 -3.48316 -1.33155 0
M  V30 7032 N 653.32 -0.135238 -1.57019 0
M  V30 7033 C 654.569 0.518694 -1.94917 0
M  V30 7034 C 654.882 1.66783 -1.0219 0
M  V30 7035 O 656.088 2.38561 -1.29619 0
M  V30 7036 C 654.544 0.974123 -3.46466 0
M  V30 7037 C 654.152 -0.147439 -4.47757 0
M  V30 7038 C 655.896 1.59851 -3.93253 0
M  V30 7039 C 653.803 0.325599 -5.90503 0
M  V30 7040 H 652.733 0.19754 -0.727663 0
M  V30 7041 H 655.384 -0.217698 -1.82204 0
M  V30 7042 H 653.766 1.76542 -3.5447 0
M  V30 7043 H 654.94 -0.924122 -4.51438 0
M  V30 7044 H 653.255 -0.679496 -4.10818 0
M  V30 7045 H 655.852 1.96385 -4.9733 0
M  V30 7046 H 656.195 2.48306 -3.3414 0
M  V30 7047 H 656.728 0.872323 -3.88118 0
M  V30 7048 H 653.467 -0.523295 -6.53408 0
M  V30 7049 H 652.987 1.06841 -5.90208 0
M  V30 7050 H 654.666 0.781498 -6.42263 0
M  V30 7051 N 654.798 1.5699 0.138552 0
M  V30 7052 C 655.745 1.98899 1.17081 0
M  V30 7053 C 656.715 0.857922 1.42228 0
M  V30 7054 O 657.9 1.12065 1.54422 0
M  V30 7055 C 655.04 2.38189 2.4972 0
M  V30 7056 C 654.153 3.64624 2.31674 0
M  V30 7057 C 653.288 3.9298 3.57407 0
M  V30 7058 C 652.327 5.1266 3.34435 0
M  V30 7059 N 651.464 5.36983 4.5232 0
M  V30 7060 H 656.304 2.86881 0.80642 0
M  V30 7061 H 653.841 1.41925 0.386727 0
M  V30 7062 H 655.799 2.59 3.2707 0
M  V30 7063 H 654.429 1.53275 2.84089 0
M  V30 7064 H 653.481 3.51542 1.45337 0
M  V30 7065 H 654.793 4.52131 2.10664 0
M  V30 7066 H 653.947 4.14335 4.43183 0
M  V30 7067 H 652.686 3.03912 3.8143 0
M  V30 7068 H 651.691 4.9117 2.47048 0
M  V30 7069 H 652.916 6.03288 3.11802 0
M  V30 7070 H 650.862 4.50871 4.76499 0
M  V30 7071 H 650.779 6.18775 4.34343 0
M  V30 7072 H 652.047 5.62842 5.39285 0
M  V30 7073 N 656.276 -0.40816 1.52223 0
M  V30 7074 C 657.501 -1.18127 1.70472 0
M  V30 7075 C 657.926 -1.83491 0.41384 0
M  V30 7076 O 657.284 -1.70047 -0.628778 0
M  V30 7077 C 657.332 -2.21935 2.84213 0
M  V30 7078 O 656.436 -3.28099 2.4985 0
M  V30 7079 H 655.777 -0.344781 0.56747 0
M  V30 7080 H 658.307 -0.478328 1.9893 0
M  V30 7081 H 658.317 -2.66248 3.09153 0
M  V30 7082 H 656.992 -1.73744 3.7787 0
M  V30 7083 H 655.569 -2.89058 2.35584 0
M  V30 7084 N 657.755 -1.42862 -0.66545 0
M  V30 7085 C 659.002 -1.4383 -1.42546 0
M  V30 7086 C 659.33 -0.0581114 -1.94413 0
M  V30 7087 O 658.585 0.935002 -1.71919 0
M  V30 7088 C 658.884 -2.4175 -2.63233 0
M  V30 7089 C 658.55 -3.87915 -2.29854 0
M  V30 7090 C 657.212 -4.27726 -2.20463 0
M  V30 7091 C 659.564 -4.80074 -2.02924 0
M  V30 7092 C 656.892 -5.57666 -1.82279 0
M  V30 7093 C 659.244 -6.10366 -1.66242 0
M  V30 7094 C 657.908 -6.49167 -1.55367 0
M  V30 7095 H 657.178 -0.52631 -0.521612 0
M  V30 7096 H 659.825 -1.75863 -0.757914 0
M  V30 7097 H 658.13 -2.03077 -3.35063 0
M  V30 7098 H 659.827 -2.39759 -3.21429 0
M  V30 7099 H 656.417 -3.564 -2.3807 0
M  V30 7100 H 660.601 -4.50097 -2.09108 0
M  V30 7101 H 655.857 -5.8658 -1.72436 0
M  V30 7102 H 660.031 -6.81258 -1.44432 0
M  V30 7103 H 657.658 -7.49761 -1.2555 0
M  V30 7104 N 659.233 0.902656 -1.29189 0
M  V30 7105 C 660.165 2.01149 -1.09872 0
M  V30 7106 C 661.178 1.62732 -0.0471046 0
M  V30 7107 O 662.367 1.76107 -0.29132 0
M  V30 7108 C 659.467 3.32612 -0.649818 0
M  V30 7109 C 658.64 3.99574 -1.7793 0
M  V30 7110 C 657.699 5.09325 -1.32191 0
M  V30 7111 O 656.725 5.31919 -2.02611 0
M  V30 7112 N 657.927 5.80185 -0.191171 0
M  V30 7113 H 660.692 2.18276 -2.05368 0
M  V30 7114 H 658.253 1.07466 -1.2109 0
M  V30 7115 H 660.245 4.03375 -0.327199 0
M  V30 7116 H 658.815 3.11876 0.212597 0
M  V30 7117 H 658.035 3.22213 -2.27095 0
M  V30 7118 H 659.323 4.41056 -2.53668 0
M  V30 7119 H 658.721 5.64312 0.396016 0
M  V30 7120 H 657.278 6.5176 0.0721001 0
M  V30 7121 N 660.711 1.11618 1.11262 0
M  V30 7122 C 661.658 0.7762 2.17356 0
M  V30 7123 C 662.628 -0.253152 1.6416 0
M  V30 7124 O 663.813 -0.129655 1.90359 0
M  V30 7125 C 660.953 0.227581 3.44349 0
M  V30 7126 C 660.066 1.31372 4.1154 0
M  V30 7127 C 659.201 0.72544 5.26223 0
M  V30 7128 C 658.24 1.7913 5.85302 0
M  V30 7129 N 657.377 1.22237 6.91377 0
M  V30 7130 H 662.217 1.68508 2.45783 0
M  V30 7131 H 659.754 0.841475 1.20655 0
M  V30 7132 H 661.712 -0.108483 4.17059 0
M  V30 7133 H 660.342 -0.644486 3.16301 0
M  V30 7134 H 659.394 1.7667 3.36885 0
M  V30 7135 H 660.706 2.12005 4.51504 0
M  V30 7136 H 659.86 0.339541 6.05749 0
M  V30 7137 H 658.599 -0.112188 4.87571 0
M  V30 7138 H 657.604 2.18648 5.04453 0
M  V30 7139 H 658.829 2.63199 6.26022 0
M  V30 7140 H 656.775 0.406423 6.5474 0
M  V30 7141 H 656.692 1.9654 7.30006 0
M  V30 7142 H 657.96 0.863426 7.74703 0
M  V30 7143 N 662.189 -1.289 0.906776 0
M  V30 7144 C 663.417 -1.99401 0.551969 0
M  V30 7145 C 663.832 -1.67816 -0.865048 0
M  V30 7146 O 663.189 -0.927078 -1.57199 0
M  V30 7147 C 663.24 -3.53779 0.743152 0
M  V30 7148 O 662.961 -3.84248 2.1044 0
M  V30 7149 C 664.462 -4.41543 0.39424 0
M  V30 7150 H 661.682 -0.636926 0.211106 0
M  V30 7151 H 664.226 -1.64266 1.21807 0
M  V30 7152 H 662.381 -3.87201 0.124143 0
M  V30 7153 H 662.795 -4.78904 2.13895 0
M  V30 7154 H 664.269 -5.48957 0.578814 0
M  V30 7155 H 664.746 -4.34073 -0.669137 0
M  V30 7156 H 665.352 -4.13605 0.990491 0
M  V30 7157 N 663.667 -0.670007 -1.42649 0
M  V30 7158 C 665.078 -0.268118 -1.84765 0
M  V30 7159 C 665.429 1.18877 -1.56086 0
M  V30 7160 O 664.554 1.90947 -1.01825 0
M  V30 7161 C 665.149 -0.47984 -3.35385 0
M  V30 7162 C 663.708 -0.132116 -3.76168 0
M  V30 7163 C 662.855 -0.774611 -2.66261 0
M  V30 7164 H 665.806 -0.872509 -1.32563 0
M  V30 7165 H 665.827 0.269522 -3.79544 0
M  V30 7166 H 665.339 -1.54026 -3.56227 0
M  V30 7167 H 663.44 0.92505 -3.60934 0
M  V30 7168 H 663.553 -0.569294 -4.75706 0
M  V30 7169 H 661.917 -0.206353 -2.53863 0
M  V30 7170 H 662.7 -1.83839 -2.89928 0
M  V30 7171 N 665.145 1.52092 -0.413018 0
M  V30 7172 C 666.095 2.23947 0.427993 0
M  V30 7173 C 667.079 1.25229 1.01027 0
M  V30 7174 O 668.271 1.50448 0.932444 0
M  V30 7175 C 665.4 3.0672 1.542 0
M  V30 7176 C 664.486 4.12851 0.970307 0
M  V30 7177 N 664.877 5.05644 0.125611 0
M  V30 7178 C 663.175 4.28404 1.24042 0
M  V30 7179 C 663.876 5.8138 -0.192876 0
M  V30 7180 N 662.852 5.41996 0.417273 0
M  V30 7181 H 666.654 2.93048 -0.223628 0
M  V30 7182 H 664.168 1.60852 -0.223664 0
M  V30 7183 H 666.165 3.56754 2.15714 0
M  V30 7184 H 664.825 2.39159 2.19621 0
M  V30 7185 H 665.836 5.17348 -0.238995 0
M  V30 7186 H 662.513 3.72071 1.89391 0
M  V30 7187 H 663.903 6.66129 -0.878762 0
M  V30 7188 N 666.623 0.143563 1.56945 0
M  V30 7189 C 667.853 -0.514699 2.00086 0
M  V30 7190 C 668.261 -1.59184 1.0226 0
M  V30 7191 O 667.604 -1.83697 0.0110514 0
M  V30 7192 C 667.666 -1.17778 3.39659 0
M  V30 7193 C 667.33 -0.245657 4.56339 0
M  V30 7194 C 668.327 0.525343 5.17239 0
M  V30 7195 C 666.012 -0.149564 5.02077 0
M  V30 7196 C 668.006 1.37992 6.22284 0
M  V30 7197 C 665.693 0.708621 6.06978 0
M  V30 7198 C 666.691 1.47197 6.6695 0
M  V30 7199 O 666.379 2.31586 7.6982 0
M  V30 7200 H 666.111 -0.138789 0.661599 0
M  V30 7201 H 668.665 0.234098 2.04062 0
M  V30 7202 H 666.895 -1.97415 3.32512 0
M  V30 7203 H 668.584 -1.73542 3.6693 0
M  V30 7204 H 669.35 0.461118 4.82803 0
M  V30 7205 H 665.229 -0.733457 4.55128 0
M  V30 7206 H 668.773 1.97621 6.69023 0
M  V30 7207 H 664.67 0.77415 6.40841 0
M  V30 7208 H 665.438 2.24796 7.87025 0
M  V30 7209 N 668.101 -1.57061 -0.130224 0
M  V30 7210 C 669.326 -1.88802 -0.858409 0
M  V30 7211 C 669.751 -0.734353 -1.73173 0
M  V30 7212 O 669.109 0.315529 -1.78533 0
M  V30 7213 C 669.157 -3.19228 -1.67708 0
M  V30 7214 O 668.261 -3.04343 -2.78297 0
M  V30 7215 H 667.602 -0.619849 -0.238083 0
M  V30 7216 H 670.132 -2.04271 -0.115995 0
M  V30 7217 H 670.142 -3.51669 -2.06864 0
M  V30 7218 H 668.817 -4.02793 -1.0359 0
M  V30 7219 H 667.394 -2.83346 -2.42425 0
M  V30 7220 N 669.579 0.400081 -1.52437 0
M  V30 7221 C 670.526 1.48803 -1.76426 0
M  V30 7222 C 671.496 1.5461 -0.607032 0
M  V30 7223 O 672.681 1.71041 -0.845563 0
M  V30 7224 C 669.821 2.86156 -1.92896 0
M  V30 7225 C 668.934 2.89587 -3.20567 0
M  V30 7226 C 668.069 4.18296 -3.27417 0
M  V30 7227 C 667.108 4.15736 -4.49255 0
M  V30 7228 N 666.245 5.36032 -4.53447 0
M  V30 7229 H 671.085 1.27649 -2.69276 0
M  V30 7230 H 668.622 0.619451 -1.33421 0
M  V30 7231 H 670.58 3.65901 -2.00429 0
M  V30 7232 H 669.21 3.05785 -1.03418 0
M  V30 7233 H 668.262 2.02278 -3.22161 0
M  V30 7234 H 669.574 2.83562 -4.10358 0
M  V30 7235 H 668.728 5.06439 -3.34072 0
M  V30 7236 H 667.467 4.27028 -2.35581 0
M  V30 7237 H 666.472 3.25982 -4.42737 0
M  V30 7238 H 667.697 4.08636 -5.42396 0
M  V30 7239 H 665.643 5.45415 -3.64498 0
M  V30 7240 H 665.56 5.32038 -5.37096 0
M  V30 7241 H 666.828 6.26104 -4.64343 0
M  V30 7242 N 671.057 1.43213 0.657864 0
M  V30 7243 C 671.987 1.50815 1.78262 0
M  V30 7244 C 672.968 0.363211 1.66177 0
M  V30 7245 O 674.153 0.579806 1.85343 0
M  V30 7246 C 671.283 1.42625 3.16663 0
M  V30 7247 C 670.237 2.5532 3.43505 0
M  V30 7248 C 669.563 2.32184 4.81658 0
M  V30 7249 C 670.863 3.97583 3.38711 0
M  V30 7250 H 672.557 2.44954 1.72157 0
M  V30 7251 H 670.103 1.17896 0.82683 0
M  V30 7252 H 672.056 1.46548 3.95097 0
M  V30 7253 H 670.78 0.449877 3.23487 0
M  V30 7254 H 669.439 2.50742 2.6744 0
M  V30 7255 H 669.087 1.32801 4.85153 0
M  V30 7256 H 668.787 3.07724 5.00579 0
M  V30 7257 H 670.311 2.37883 5.62356 0
M  V30 7258 H 671.725 4.03673 4.07089 0
M  V30 7259 H 670.122 4.73112 3.69168 0
M  V30 7260 H 671.192 4.23049 2.36976 0
M  V30 7261 N 672.536 -0.895792 1.29666 0
M  V30 7262 C 673.486 -1.98736 1.1175 0
M  V30 7263 C 674.47 -1.6086 0.0357834 0
M  V30 7264 O 675.662 -1.75111 0.257926 0
M  V30 7265 C 672.791 -3.33845 0.800156 0
M  V30 7266 C 671.877 -3.78068 1.9216 0
M  V30 7267 N 672.268 -3.94489 3.16563 0
M  V30 7268 C 670.566 -4.07376 1.81552 0
M  V30 7269 C 671.267 -4.31819 3.89753 0
M  V30 7270 N 670.243 -4.41081 3.17724 0
M  V30 7271 H 674.045 -2.09507 2.06117 0
M  V30 7272 H 671.559 -1.08488 1.20848 0
M  V30 7273 H 673.556 -4.11757 0.652841 0
M  V30 7274 H 672.216 -3.24417 -0.135551 0
M  V30 7275 H 673.227 -3.79914 3.51974 0
M  V30 7276 H 669.904 -4.06483 0.952787 0
M  V30 7277 H 671.294 -4.52337 4.96831 0
M  V30 7278 N 674.014 -1.12206 -1.10668 0
M  V30 7279 C 674.944 -0.810086 -2.18997 0
M  V30 7280 C 675.925 0.225065 -1.68604 0
M  V30 7281 O 677.11 0.086783 -1.94006 0
M  V30 7282 C 674.24 -0.261262 -3.46316 0
M  V30 7283 C 673.194 -1.2292 -4.09969 0
M  V30 7284 C 672.52 -0.540713 -5.31959 0
M  V30 7285 C 673.82 -2.58295 -4.53962 0
M  V30 7286 H 675.514 -1.7159 -2.45352 0
M  V30 7287 H 673.06 -0.82646 -1.17922 0
M  V30 7288 H 675.013 -0.0307522 -4.21389 0
M  V30 7289 H 673.737 0.679879 -3.19445 0
M  V30 7290 H 672.396 -1.44548 -3.369 0
M  V30 7291 H 672.044 0.405492 -5.01363 0
M  V30 7292 H 671.744 -1.18637 -5.75499 0
M  V30 7293 H 673.268 -0.319184 -6.09765 0
M  V30 7294 H 674.682 -2.40709 -5.20319 0
M  V30 7295 H 673.079 -3.18916 -5.08343 0
M  V30 7296 H 674.149 -3.16918 -3.67002 0
M  V30 7297 N 675.492 1.28418 -0.913599 0
M  V30 7298 C 676.439 2.27301 -0.400373 0
M  V30 7299 C 677.409 1.57582 0.52509 0
M  V30 7300 O 678.594 1.85482 0.447318 0
M  V30 7301 C 675.734 3.43284 0.35361 0
M  V30 7302 C 674.847 4.27752 -0.604341 0
M  V30 7303 C 673.982 5.30934 0.168075 0
M  V30 7304 C 673.021 6.07065 -0.783499 0
M  V30 7305 N 672.158 7.02086 -0.0446112 0
M  V30 7306 H 676.998 2.70579 -1.24865 0
M  V30 7307 H 674.535 1.33067 -0.627028 0
M  V30 7308 H 676.493 4.09322 0.806945 0
M  V30 7309 H 675.123 3.00997 1.16623 0
M  V30 7310 H 674.175 3.61759 -1.17621 0
M  V30 7311 H 675.487 4.80682 -1.33216 0
M  V30 7312 H 674.641 6.02855 0.681979 0
M  V30 7313 H 673.38 4.78771 0.928947 0
M  V30 7314 H 672.385 5.33995 -1.30878 0
M  V30 7315 H 673.61 6.61317 -1.54392 0
M  V30 7316 H 671.556 6.52273 0.698272 0
M  V30 7317 H 671.473 7.52637 -0.712258 0
M  V30 7318 H 672.741 7.78205 0.449102 0
M  V30 7319 N 676.97 0.677563 1.42291 0
M  V30 7320 C 678.198 0.209459 2.05837 0
M  V30 7321 C 678.613 -1.13444 1.50917 0
M  V30 7322 O 677.97 -1.70529 0.65008 0
M  V30 7323 C 678.021 0.138819 3.61233 0
M  V30 7324 O 677.742 1.42962 4.14118 0
M  V30 7325 C 679.243 -0.352449 4.41897 0
M  V30 7326 H 676.463 0.101209 0.663323 0
M  V30 7327 H 679.007 0.925077 1.8238 0
M  V30 7328 H 677.162 -0.527505 3.83792 0
M  V30 7329 H 677.576 1.3048 5.08011 0
M  V30 7330 H 679.05 -0.350778 5.50884 0
M  V30 7331 H 679.527 -1.3882 4.16684 0
M  V30 7332 H 680.133 0.282236 4.24362 0
M  V30 7333 N 678.448 -1.51871 0.421078 0
M  V30 7334 C 679.395 -2.27334 -0.398508 0
M  V30 7335 C 680.365 -1.30241 -1.03085 0
M  V30 7336 O 681.55 -1.59121 -1.05285 0
M  V30 7337 C 678.69 -3.10664 -1.50272 0
M  V30 7338 C 677.803 -4.2273 -0.890122 0
M  V30 7339 C 676.938 -4.93399 -1.96803 0
M  V30 7340 C 675.977 -5.97409 -1.333 0
M  V30 7341 N 675.114 -6.61548 -2.35156 0
M  V30 7342 H 679.954 -2.96938 0.251411 0
M  V30 7343 H 677.491 -1.46472 0.135825 0
M  V30 7344 H 679.449 -3.57292 -2.15403 0
M  V30 7345 H 678.079 -2.43207 -2.1225 0
M  V30 7346 H 677.131 -3.80186 -0.127537 0
M  V30 7347 H 678.443 -4.97302 -0.386349 0
M  V30 7348 H 677.597 -5.43491 -2.69633 0
M  V30 7349 H 676.336 -4.18421 -2.50549 0
M  V30 7350 H 675.341 -5.46624 -0.59008 0
M  V30 7351 H 676.566 -6.74335 -0.803076 0
M  V30 7352 H 674.512 -5.89394 -2.88012 0
M  V30 7353 H 674.429 -7.31832 -1.89624 0
M  V30 7354 H 675.697 -7.16276 -3.0752 0
M  V30 7355 N 679.926 -0.151884 -1.56866 0
M  V30 7356 C 681.151 0.508044 -2.01081 0
M  V30 7357 C 681.576 1.57306 -1.03134 0
M  V30 7358 O 680.934 1.81298 -0.0078309 0
M  V30 7359 C 680.982 1.08106 -3.44014 0
M  V30 7360 O 680.086 2.19577 -3.49084 0
M  V30 7361 H 679.427 0.123757 -0.652365 0
M  V30 7362 H 681.957 -0.250055 -2.03066 0
M  V30 7363 H 681.967 1.40851 -3.82916 0
M  V30 7364 H 680.642 0.301168 -4.14808 0
M  V30 7365 H 679.219 1.88023 -3.22027 0
M  V30 7366 N 681.404 1.57128 0.121893 0
M  V30 7367 C 682.336 1.96773 1.17529 0
M  V30 7368 C 683.349 0.866668 1.37814 0
M  V30 7369 O 684.538 1.14497 1.3694 0
M  V30 7370 C 681.638 2.24832 2.53582 0
M  V30 7371 C 680.811 3.56138 2.53939 0
M  V30 7372 C 679.87 3.72443 3.71716 0
M  V30 7373 O 678.896 4.44584 3.55434 0
M  V30 7374 N 680.098 3.10993 4.90167 0
M  V30 7375 H 682.863 2.87743 0.838086 0
M  V30 7376 H 680.424 1.58881 0.311199 0
M  V30 7377 H 682.416 2.32958 3.30927 0
M  V30 7378 H 680.986 1.40002 2.79496 0
M  V30 7379 H 680.206 3.59226 1.62329 0
M  V30 7380 H 681.494 4.42448 2.51231 0
M  V30 7381 H 680.892 2.52345 5.06299 0
M  V30 7382 H 679.449 3.24644 5.65198 0
M  V30 7383 N 682.882 -0.391992 1.52647 0
M  V30 7384 C 684.159 -1.15136 1.58123 0
M  V30 7385 C 684.539 -2.07786 0.372597 0
M  V30 7386 O 683.887 -2.19374 -0.639304 0
M  V30 7387 C 684.097 -1.91367 2.91856 0
M  V30 7388 C 685.445 -2.46833 3.45483 0
M  V30 7389 O 686.469 -2.01527 2.9371 0
M  V30 7390 O 685.328 -3.29587 4.3593 0
M  V30 7391 H 682.422 -0.526649 0.637629 0
M  V30 7392 H 684.968 -0.397386 1.64982 0
M  V30 7393 H 683.74 -1.23597 3.71268 0
M  V30 7394 H 683.363 -2.73732 2.88369 0
M  V30 7395 N 684.36 -1.4356 -0.65026 0
M  V30 7396 C 685.607 -1.45333 -1.41012 0
M  V30 7397 C 685.935 -0.0787282 -1.94341 0
M  V30 7398 O 685.19 0.916715 -1.72901 0
M  V30 7399 C 685.489 -2.44528 -2.60654 0
M  V30 7400 C 685.155 -3.90331 -2.25727 0
M  V30 7401 C 683.817 -4.3004 -2.15914 0
M  V30 7402 C 686.169 -4.822 -1.97821 0
M  V30 7403 C 683.497 -5.59568 -1.76354 0
M  V30 7404 C 685.849 -6.12095 -1.59759 0
M  V30 7405 C 684.513 -6.50778 -1.48473 0
M  V30 7406 H 683.783 -0.531813 -0.516 0
M  V30 7407 H 686.43 -1.76657 -0.739219 0
M  V30 7408 H 684.735 -2.06619 -3.3289 0
M  V30 7409 H 686.432 -2.43155 -3.18868 0
M  V30 7410 H 683.022 -3.58905 -2.34276 0
M  V30 7411 H 687.206 -4.5229 -2.04322 0
M  V30 7412 H 682.462 -5.88376 -1.66205 0
M  V30 7413 H 686.636 -6.82751 -1.37198 0
M  V30 7414 H 684.263 -7.5105 -1.17591 0
M  V30 7415 N 685.838 0.888903 -1.30139 0
M  V30 7416 C 686.788 1.9814 -1.12803 0
M  V30 7417 C 687.772 1.60839 -0.0443137 0
M  V30 7418 O 688.964 1.74971 -0.267208 0
M  V30 7419 C 686.093 3.33416 -0.817849 0
M  V30 7420 C 685.179 3.77043 -1.94163 0
M  V30 7421 N 685.57 3.92805 -3.18651 0
M  V30 7422 C 683.868 4.06407 -1.8371 0
M  V30 7423 C 684.569 4.29746 -3.92038 0
M  V30 7424 N 683.545 4.3939 -3.20059 0
M  V30 7425 H 687.347 2.08411 -2.07225 0
M  V30 7426 H 684.861 1.07845 -1.21421 0
M  V30 7427 H 686.858 4.11405 -0.674668 0
M  V30 7428 H 685.518 3.24484 0.118344 0
M  V30 7429 H 686.529 3.78042 -3.53984 0
M  V30 7430 H 683.206 4.05972 -0.974331 0
M  V30 7431 H 684.596 4.49695 -4.99223 0
M  V30 7432 N 687.317 1.12792 1.10072 0
M  V30 7433 C 688.564 0.885545 1.82111 0
M  V30 7434 C 688.892 -0.588519 1.85383 0
M  V30 7435 O 688.147 -1.45124 1.31292 0
M  V30 7436 C 688.446 1.4102 3.28403 0
M  V30 7437 C 688.112 2.89995 3.45273 0
M  V30 7438 C 686.774 3.30671 3.49585 0
M  V30 7439 C 689.126 3.85874 3.50358 0
M  V30 7440 C 686.454 4.65925 3.56553 0
M  V30 7441 C 688.806 5.20963 3.58859 0
M  V30 7442 C 687.47 5.61177 3.61437 0
M  V30 7443 H 686.74 0.324044 0.666391 0
M  V30 7444 H 689.387 1.40874 1.29718 0
M  V30 7445 H 687.692 0.807551 3.83387 0
M  V30 7446 H 689.389 1.19882 3.82661 0
M  V30 7447 H 685.979 2.57537 3.42597 0
M  V30 7448 H 690.163 3.5554 3.46273 0
M  V30 7449 H 685.419 4.96468 3.56833 0
M  V30 7450 H 689.593 5.95079 3.61738 0
M  V30 7451 H 687.22 6.6597 3.66589 0
M  V30 7452 N 688.795 -1.27931 0.920396 0
M  V30 7453 C 689.745 -2.24727 0.384966 0
M  V30 7454 C 690.729 -1.52715 -0.506661 0
M  V30 7455 O 691.921 -1.73599 -0.345298 0
M  V30 7456 C 689.05 -3.41324 -0.3678 0
M  V30 7457 C 688.136 -4.20649 0.539925 0
M  V30 7458 N 688.527 -4.77906 1.6565 0
M  V30 7459 C 686.825 -4.4469 0.341557 0
M  V30 7460 C 687.526 -5.37652 2.22047 0
M  V30 7461 N 686.502 -5.2218 1.51093 0
M  V30 7462 H 690.304 -2.66572 1.23761 0
M  V30 7463 H 687.818 -1.42779 0.773819 0
M  V30 7464 H 689.815 -4.0976 -0.768277 0
M  V30 7465 H 688.475 -3.01012 -1.21746 0
M  V30 7466 H 689.486 -4.76073 2.03899 0
M  V30 7467 H 686.163 -4.14868 -0.468045 0
M  V30 7468 H 687.553 -5.92948 3.1601 0
M  V30 7469 N 690.273 -0.685099 -1.4193 0
M  V30 7470 C 691.203 -0.0273506 -2.33484 0
M  V30 7471 C 692.184 0.778366 -1.51246 0
M  V30 7472 O 693.369 0.733449 -1.79817 0
M  V30 7473 C 690.499 0.917272 -3.34968 0
M  V30 7474 C 689.453 0.21941 -4.27437 0
M  V30 7475 C 688.779 1.27768 -5.1921 0
M  V30 7476 C 690.079 -0.907894 -5.14349 0
M  V30 7477 H 691.773 -0.791994 -2.88735 0
M  V30 7478 H 689.319 -0.382308 -1.38832 0
M  V30 7479 H 691.272 1.38657 -3.97935 0
M  V30 7480 H 689.996 1.71346 -2.78043 0
M  V30 7481 H 688.655 -0.229757 -3.65879 0
M  V30 7482 H 688.303 2.06612 -4.58607 0
M  V30 7483 H 688.003 0.815803 -5.81909 0
M  V30 7484 H 689.527 1.7477 -5.85054 0
M  V30 7485 H 690.941 -0.519348 -5.70943 0
M  V30 7486 H 689.338 -1.2962 -5.85934 0
M  V30 7487 H 690.408 -1.75218 -4.52136 0
M  V30 7488 N 691.751 1.51645 -0.429126 0
M  V30 7489 C 692.698 2.27542 0.386446 0
M  V30 7490 C 693.668 1.30786 1.02393 0
M  V30 7491 O 694.853 1.59678 1.0444 0
M  V30 7492 C 691.993 3.11457 1.48623 0
M  V30 7493 C 691.106 4.23196 0.867691 0
M  V30 7494 C 690.241 4.94435 1.94183 0
M  V30 7495 C 689.28 5.98108 1.30129 0
M  V30 7496 N 688.417 6.62786 2.31644 0
M  V30 7497 H 693.257 2.968 -0.267155 0
M  V30 7498 H 690.794 1.46397 -0.143591 0
M  V30 7499 H 692.752 3.58429 2.13506 0
M  V30 7500 H 691.382 2.44329 2.10957 0
M  V30 7501 H 690.434 3.80248 0.107373 0
M  V30 7502 H 691.746 4.97499 0.35997 0
M  V30 7503 H 690.9 5.44914 2.66747 0
M  V30 7504 H 689.639 4.19744 2.48326 0
M  V30 7505 H 688.644 5.4693 0.561082 0
M  V30 7506 H 689.869 6.74751 0.767303 0
M  V30 7507 H 687.815 5.90913 2.84883 0
M  V30 7508 H 687.732 7.32828 1.85741 0
M  V30 7509 H 689 7.17897 3.03717 0
M  V30 7510 N 693.229 0.160201 1.56784 0
M  V30 7511 C 694.459 -0.493449 2.00621 0
M  V30 7512 C 694.867 -1.5809 1.03943 0
M  V30 7513 O 694.21 -1.83675 0.0305343 0
M  V30 7514 C 694.272 -1.14169 3.4089 0
M  V30 7515 C 693.936 -0.197243 4.56574 0
M  V30 7516 C 694.933 0.580174 5.16653 0
M  V30 7517 C 692.618 -0.0963038 5.02208 0
M  V30 7518 C 694.612 1.44584 6.20785 0
M  V30 7519 C 692.299 0.772959 6.06192 0
M  V30 7520 C 693.297 1.54263 6.65351 0
M  V30 7521 O 692.985 2.39738 7.67321 0
M  V30 7522 H 692.717 -0.131764 0.663034 0
M  V30 7523 H 695.271 0.255728 2.03802 0
M  V30 7524 H 693.501 -1.93877 3.34587 0
M  V30 7525 H 695.19 -1.69641 3.6875 0
M  V30 7526 H 695.956 0.5123 4.82287 0
M  V30 7527 H 691.835 -0.685143 4.5588 0
M  V30 7528 H 695.379 2.04706 6.66889 0
M  V30 7529 H 691.276 0.842077 6.39984 0
M  V30 7530 H 692.044 2.33131 7.84597 0
M  V30 7531 N 694.707 -1.5719 -0.113559 0
M  V30 7532 C 695.657 -1.97166 -1.14497 0
M  V30 7533 C 696.641 -0.847413 -1.36776 0
M  V30 7534 O 697.833 -1.11114 -1.37777 0
M  V30 7535 C 694.962 -2.38411 -2.47013 0
M  V30 7536 C 694.048 -3.5748 -2.28185 0
M  V30 7537 N 694.439 -4.72998 -1.79182 0
M  V30 7538 C 692.737 -3.63218 -2.58821 0
M  V30 7539 C 693.438 -5.55007 -1.74191 0
M  V30 7540 N 692.414 -4.9765 -2.18735 0
M  V30 7541 H 696.216 -2.83937 -0.758733 0
M  V30 7542 H 693.73 -1.59191 -0.321234 0
M  V30 7543 H 695.727 -2.65269 -3.21618 0
M  V30 7544 H 694.387 -1.53007 -2.8639 0
M  V30 7545 H 695.398 -4.96109 -1.48649 0
M  V30 7546 H 692.075 -2.88434 -3.01847 0
M  V30 7547 H 693.465 -6.57678 -1.37512 0
M  V30 7548 N 696.185 0.383891 -1.52853 0
M  V30 7549 C 697.133 1.48965 -1.7864 0
M  V30 7550 C 698.127 1.56242 -0.654577 0
M  V30 7551 O 699.333 1.59347 -0.83716 0
M  V30 7552 H 695.708 0.495892 -0.565328 0
M  V30 7553 H 697.679 1.24411 -2.71228 0
M  V30 7554 C 696.428 2.86036 -1.97683 0
M  V30 7555 H 695.751 2.81188 -2.84206 0
M  V30 7556 H 697.191 3.62632 -2.19713 0
M  V30 7557 C 695.65 3.28428 -0.750776 0
M  V30 7558 O 696.18 4.0164 0.0693491 0
M  V30 7559 N 694.386 2.84765 -0.579427 0
M  V30 7560 H 693.933 2.25353 -1.24795 0
M  V30 7561 H 693.891 3.13486 0.239544 0
M  V30 7562 N 697.663 1.43903 0.642637 0
M  V30 7563 C 698.593 1.52697 1.76652 0
M  V30 7564 C 699.574 0.380816 1.65782 0
M  V30 7565 O 700.759 0.599432 1.84717 0
M  V30 7566 C 697.889 1.45975 3.15133 0
M  V30 7567 C 696.843 2.58949 3.40778 0
M  V30 7568 C 696.169 2.37279 4.79169 0
M  V30 7569 C 697.469 4.01153 3.34475 0
M  V30 7570 H 699.163 2.46766 1.69549 0
M  V30 7571 H 696.709 1.18767 0.814279 0
M  V30 7572 H 698.662 1.5073 3.93521 0
M  V30 7573 H 697.386 0.484162 3.22991 0
M  V30 7574 H 696.045 2.53564 2.64765 0
M  V30 7575 H 695.693 1.37939 4.83717 0
M  V30 7576 H 695.393 3.13016 4.97287 0
M  V30 7577 H 696.917 2.43834 5.59801 0
M  V30 7578 H 698.331 4.07968 4.02784 0
M  V30 7579 H 696.728 4.77001 3.64129 0
M  V30 7580 H 697.798 4.25539 2.32475 0
M  V30 7581 N 699.141 -0.881989 1.30609 0
M  V30 7582 C 700.366 -1.67236 1.22665 0
M  V30 7583 C 700.791 -1.8696 -0.206777 0
M  V30 7584 O 700.149 -1.4027 -1.14865 0
M  V30 7585 C 700.197 -3.02446 1.96363 0
M  V30 7586 O 699.301 -3.91614 1.29276 0
M  V30 7587 H 698.642 -0.510902 0.424117 0
M  V30 7588 H 701.172 -1.10055 1.72479 0
M  V30 7589 H 701.182 -3.52468 2.055 0
M  V30 7590 H 699.857 -2.8741 3.00613 0
M  V30 7591 H 698.434 -3.50055 1.28514 0
M  V30 7592 N 700.619 -1.13374 -1.09472 0
M  V30 7593 C 701.549 -0.833268 -2.18126 0
M  V30 7594 C 702.53 0.207169 -1.68834 0
M  V30 7595 O 703.715 0.0662012 -1.94087 0
M  V30 7596 C 700.845 -0.297979 -3.46019 0
M  V30 7597 C 699.799 -1.27261 -4.08642 0
M  V30 7598 C 699.125 -0.597104 -5.31356 0
M  V30 7599 C 700.425 -2.63095 -4.51197 0
M  V30 7600 H 702.119 -1.74182 -2.43518 0
M  V30 7601 H 699.665 -0.838921 -1.17039 0
M  V30 7602 H 701.618 -0.0754444 -4.21332 0
M  V30 7603 H 700.342 0.645959 -3.20148 0
M  V30 7604 H 699.001 -1.48113 -3.35348 0
M  V30 7605 H 698.649 0.352293 -5.01765 0
M  V30 7606 H 698.349 -1.24734 -5.74208 0
M  V30 7607 H 699.873 -0.38384 -6.09392 0
M  V30 7608 H 701.287 -2.46214 -5.17737 0
M  V30 7609 H 699.684 -3.2429 -5.04932 0
M  V30 7610 H 700.754 -3.20793 -3.6362 0
M  V30 7611 N 702.098 1.27442 -0.927168 0
M  V30 7612 C 703.328 1.9821 -0.582775 0
M  V30 7613 C 703.736 1.69361 0.843406 0
M  V30 7614 O 703.079 0.950381 1.57205 0
M  V30 7615 C 703.141 3.52048 -0.728165 0
M  V30 7616 C 702.805 4.04518 -2.12637 0
M  V30 7617 C 703.802 4.17332 -3.10048 0
M  V30 7618 C 701.487 4.38879 -2.44317 0
M  V30 7619 C 703.481 4.6378 -4.37249 0
M  V30 7620 C 701.168 4.85018 -3.71753 0
M  V30 7621 C 702.166 4.97428 -4.68033 0
M  V30 7622 O 701.854 5.42556 -5.93202 0
M  V30 7623 H 701.586 0.639314 -0.219667 0
M  V30 7624 H 704.14 1.63272 -1.24626 0
M  V30 7625 H 702.37 3.86699 -0.00758143 0
M  V30 7626 H 704.059 4.04033 -0.388906 0
M  V30 7627 H 704.825 3.91046 -2.86894 0
M  V30 7628 H 700.704 4.28462 -1.70121 0
M  V30 7629 H 704.248 4.73382 -5.12402 0
M  V30 7630 H 700.145 5.10746 -3.94726 0
M  V30 7631 H 700.913 5.60811 -5.96182 0
M  V30 7632 N 703.576 0.692616 1.41565 0
M  V30 7633 C 704.804 0.231279 2.05603 0
M  V30 7634 C 705.219 -1.11837 1.52111 0
M  V30 7635 O 704.576 -1.6983 0.66813 0
M  V30 7636 C 704.627 0.177125 3.61066 0
M  V30 7637 O 704.348 1.47346 4.12578 0
M  V30 7638 C 705.849 -0.30556 4.42246 0
M  V30 7639 H 703.069 0.108238 0.662213 0
M  V30 7640 H 705.613 0.944369 1.81389 0
M  V30 7641 H 703.768 -0.486769 3.8433 0
M  V30 7642 H 704.182 1.35861 5.06599 0
M  V30 7643 H 705.656 -0.29233 5.51225 0
M  V30 7644 H 706.133 -1.34393 4.18133 0
M  V30 7645 H 706.739 0.327229 4.24039 0
M  V30 7646 N 705.054 -1.51416 0.437162 0
M  V30 7647 C 705.964 -2.31493 -0.380537 0
M  V30 7648 C 706.98 -1.40399 -1.02782 0
M  V30 7649 O 708.156 -1.73471 -1.02323 0
M  V30 7650 C 705.221 -3.1413 -1.46709 0
M  V30 7651 C 704.282 -4.21003 -0.839953 0
M  V30 7652 C 703.515 -4.9969 -1.87473 0
M  V30 7653 O 703.738 -4.79008 -3.09689 0
M  V30 7654 O 702.672 -5.8379 -1.46536 0
M  V30 7655 H 706.498 -3.02469 0.273183 0
M  V30 7656 H 704.083 -1.48059 0.199706 0
M  V30 7657 H 705.965 -3.65505 -2.09724 0
M  V30 7658 H 704.64 -2.45919 -2.10489 0
M  V30 7659 H 703.547 -3.73706 -0.171752 0
M  V30 7660 H 704.88 -4.91587 -0.245638 0
M  V30 7661 N 706.532 -0.168513 -1.56696 0
M  V30 7662 C 707.482 0.7751 -2.14421 0
M  V30 7663 C 708.466 1.19476 -1.07769 0
M  V30 7664 O 709.658 1.15759 -1.33898 0
M  V30 7665 C 706.787 2.00549 -2.7863 0
M  V30 7666 C 705.873 1.60795 -3.92436 0
M  V30 7667 N 706.264 0.919812 -4.97366 0
M  V30 7668 C 704.562 1.89917 -4.03544 0
M  V30 7669 C 705.263 0.724485 -5.77171 0
M  V30 7670 N 704.239 1.26505 -5.28675 0
M  V30 7671 H 708.041 0.240349 -2.92916 0
M  V30 7672 H 705.555 0.0322675 -1.62368 0
M  V30 7673 H 707.552 2.6917 -3.1836 0
M  V30 7674 H 706.212 2.54522 -2.01615 0
M  V30 7675 H 707.223 0.578169 -5.14663 0
M  V30 7676 H 703.9 2.45587 -3.37629 0
M  V30 7677 H 705.29 0.180521 -6.71657 0
M  V30 7678 N 708.01 1.57248 0.105221 0
M  V30 7679 C 709.235 1.90143 0.828264 0
M  V30 7680 C 709.66 0.761811 1.71983 0
M  V30 7681 O 709.018 -0.287086 1.79013 0
M  V30 7682 C 709.066 3.21856 1.62608 0
M  V30 7683 O 708.17 3.08732 2.7342 0
M  V30 7684 H 707.511 0.623558 0.228192 0
M  V30 7685 H 710.041 2.0443 0.0834826 0
M  V30 7686 H 710.051 3.54916 2.01243 0
M  V30 7687 H 708.726 4.0439 0.971687 0
M  V30 7688 H 707.303 2.87167 2.37886 0
M  V30 7689 N 709.488 -0.375779 1.53054 0
M  V30 7690 C 710.734 -1.12114 1.68992 0
M  V30 7691 C 711.067 -1.8926 0.435238 0
M  V30 7692 O 710.342 -1.86044 -0.567278 0
M  V30 7693 C 710.625 -2.08867 2.93337 0
M  V30 7694 C 710.478 -1.35397 4.28938 0
M  V30 7695 C 711.797 -3.09124 3.13257 0
M  V30 7696 H 708.916 -0.406207 0.614951 0
M  V30 7697 H 711.558 -0.403054 1.85676 0
M  V30 7698 H 709.708 -2.70102 2.79244 0
M  V30 7699 H 711.38 -0.770242 4.54824 0
M  V30 7700 H 709.623 -0.655801 4.28814 0
M  V30 7701 H 710.294 -2.06161 5.12056 0
M  V30 7702 H 712.77 -2.57987 3.26469 0
M  V30 7703 H 711.646 -3.74054 4.01715 0
M  V30 7704 H 711.907 -3.78729 2.28072 0
M  V30 7705 N 710.966 -1.44241 -0.634997 0
M  V30 7706 C 711.898 -1.46793 -1.76024 0
M  V30 7707 C 712.911 -0.361781 -1.58729 0
M  V30 7708 O 714.1 -0.627297 -1.67114 0
M  V30 7709 C 711.2 -1.28248 -3.13697 0
M  V30 7710 C 710.373 -2.52038 -3.57485 0
M  V30 7711 C 709.432 -2.2845 -4.74022 0
M  V30 7712 O 708.458 -3.01915 -4.82531 0
M  V30 7713 N 709.66 -1.31264 -5.65464 0
M  V30 7714 H 712.425 -2.43797 -1.74307 0
M  V30 7715 H 709.986 -1.39631 -0.819438 0
M  V30 7716 H 711.978 -1.10321 -3.89373 0
M  V30 7717 H 710.548 -0.39623 -3.10079 0
M  V30 7718 H 709.768 -2.85268 -2.72059 0
M  V30 7719 H 711.056 -3.34382 -3.83492 0
M  V30 7720 H 710.454 -0.705817 -5.6128 0
M  V30 7721 H 709.011 -1.19316 -6.40786 0
M  V30 7722 N 712.444 0.87505 -1.31075 0
M  V30 7723 C 713.354 2.01441 -1.20244 0
M  V30 7724 C 714.37 1.73584 -0.120227 0
M  V30 7725 O 715.546 1.98559 -0.337063 0
M  V30 7726 C 712.611 3.34675 -0.905199 0
M  V30 7727 C 711.672 3.75889 -2.0738 0
M  V30 7728 C 710.905 5.02764 -1.79064 0
M  V30 7729 O 711.128 5.65795 -0.723318 0
M  V30 7730 O 710.062 5.40623 -2.64594 0
M  V30 7731 H 713.888 2.13509 -2.1598 0
M  V30 7732 H 711.473 1.00257 -1.10765 0
M  V30 7733 H 713.355 4.1458 -0.755057 0
M  V30 7734 H 712.03 3.23692 0.0221695 0
M  V30 7735 H 710.937 2.96645 -2.27931 0
M  V30 7736 H 712.27 3.91489 -2.98324 0
M  V30 7737 N 713.922 1.13953 1.08869 0
M  V30 7738 C 714.869 0.82213 2.15661 0
M  V30 7739 C 715.839 -0.218274 1.6466 0
M  V30 7740 O 717.024 -0.0892475 1.90591 0
M  V30 7741 C 714.164 0.300572 3.43789 0
M  V30 7742 C 713.277 1.40071 4.08661 0
M  V30 7743 C 712.412 0.836897 5.24566 0
M  V30 7744 C 711.451 1.91504 5.81371 0
M  V30 7745 N 710.588 1.36875 6.88629 0
M  V30 7746 H 715.428 1.73683 2.42153 0
M  V30 7747 H 712.965 0.866879 1.18843 0
M  V30 7748 H 714.923 -0.0199943 4.17195 0
M  V30 7749 H 713.553 -0.577248 3.17597 0
M  V30 7750 H 712.605 1.83776 3.33062 0
M  V30 7751 H 713.917 2.21534 4.46905 0
M  V30 7752 H 713.071 0.467953 6.04893 0
M  V30 7753 H 711.81 -0.00874207 4.87699 0
M  V30 7754 H 710.815 2.29299 4.99702 0
M  V30 7755 H 712.04 2.76419 6.20298 0
M  V30 7756 H 709.986 0.545211 6.5373 0
M  V30 7757 H 709.903 2.1198 7.25672 0
M  V30 7758 H 711.171 1.02756 7.72698 0
M  V30 7759 N 715.4 -1.26948 0.933913 0
M  V30 7760 C 716.348 -2.2862 0.428463 0
M  V30 7761 C 717.342 -1.62144 -0.490464 0
M  V30 7762 O 718.548 -1.76167 -0.36948 0
M  V30 7763 H 714.923 -0.742363 0.120003 0
M  V30 7764 H 716.894 -2.68659 1.29865 0
M  V30 7765 C 715.643 -3.46423 -0.29774 0
M  V30 7766 H 714.966 -3.97792 0.400183 0
M  V30 7767 H 716.406 -4.19505 -0.615736 0
M  V30 7768 C 714.865 -3.01017 -1.51295 0
M  V30 7769 O 715.395 -3.05226 -2.61151 0
M  V30 7770 N 713.601 -2.56442 -1.36696 0
M  V30 7771 H 713.148 -2.53217 -0.473178 0
M  V30 7772 H 713.106 -2.26424 -2.18127 0
M  V30 7773 N 716.879 -0.700114 -1.41195 0
M  V30 7774 C 718.125 -0.242122 -2.01954 0
M  V30 7775 C 718.48 1.14697 -1.54475 0
M  V30 7776 O 717.773 1.76392 -0.748095 0
M  V30 7777 C 717.967 -0.243986 -3.56566 0
M  V30 7778 C 717.796 -1.63172 -4.19053 0
M  V30 7779 C 716.566 -2.23566 -4.53152 0
M  V30 7780 C 718.764 -2.57916 -4.44954 0
M  V30 7781 N 716.746 -3.54856 -5.00949 0
M  V30 7782 C 718.117 -3.73892 -4.94576 0
M  V30 7783 C 720.172 -2.56125 -4.26971 0
M  V30 7784 C 718.875 -4.88363 -5.28104 0
M  V30 7785 C 720.901 -3.69712 -4.61592 0
M  V30 7786 C 720.263 -4.84418 -5.11389 0
M  V30 7787 H 716.362 -0.134088 -0.770418 0
M  V30 7788 H 718.946 -0.918576 -1.71669 0
M  V30 7789 H 717.117 0.401971 -3.86314 0
M  V30 7790 H 718.849 0.229261 -4.0405 0
M  V30 7791 H 715.604 -1.75809 -4.39759 0
M  V30 7792 H 716.028 -4.22167 -5.29249 0
M  V30 7793 H 720.67 -1.68656 -3.87705 0
M  V30 7794 H 718.388 -5.76488 -5.66292 0
M  V30 7795 H 721.974 -3.69583 -4.49332 0
M  V30 7796 H 720.854 -5.70855 -5.37675 0
M  V30 7797 N 718.357 1.51182 -0.445186 0
M  V30 7798 C 719.587 2.06269 0.116922 0
M  V30 7799 C 719.995 1.31188 1.36332 0
M  V30 7800 O 719.338 0.367067 1.79995 0
M  V30 7801 C 719.4 3.56051 0.496757 0
M  V30 7802 C 719.064 4.52441 -0.64394 0
M  V30 7803 C 720.061 4.97233 -1.5184 0
M  V30 7804 C 717.746 4.95447 -0.826905 0
M  V30 7805 C 719.74 5.83712 -2.56046 0
M  V30 7806 C 717.427 5.81714 -1.87222 0
M  V30 7807 C 718.425 6.25745 -2.73738 0
M  V30 7808 O 718.113 7.10298 -3.76474 0
M  V30 7809 H 717.845 0.675954 0.00785733 0
M  V30 7810 H 720.399 1.95648 -0.625371 0
M  V30 7811 H 718.629 3.64483 1.29187 0
M  V30 7812 H 720.318 3.93618 0.990928 0
M  V30 7813 H 721.084 4.64696 -1.38862 0
M  V30 7814 H 716.963 4.60712 -0.163052 0
M  V30 7815 H 720.507 6.18 -3.23607 0
M  V30 7816 H 716.404 6.13664 -2.00218 0
M  V30 7817 H 717.172 7.28493 -3.73149 0
M  V30 7818 N 719.835 0.176821 1.56605 0
M  V30 7819 C 721.06 -0.47599 2.01864 0
M  V30 7820 C 721.485 -1.55645 1.05623 0
M  V30 7821 O 720.843 -1.81263 0.0366729 0
M  V30 7822 C 720.891 -1.02619 3.4569 0
M  V30 7823 O 719.995 -2.13996 3.52533 0
M  V30 7824 H 719.336 -0.113363 0.654251 0
M  V30 7825 H 721.866 0.28233 2.02643 0
M  V30 7826 H 721.876 -1.34742 3.85109 0
M  V30 7827 H 720.551 -0.235138 4.15235 0
M  V30 7828 H 719.128 -1.82876 3.24978 0
M  V30 7829 N 721.313 -1.57302 -0.09688 0
M  V30 7830 C 722.243 -2.0497 -1.11846 0
M  V30 7831 C 723.224 -0.938278 -1.41882 0
M  V30 7832 O 724.409 -1.20943 -1.51942 0
M  V30 7833 C 721.539 -2.47264 -2.43881 0
M  V30 7834 C 720.493 -3.62053 -2.28257 0
M  V30 7835 C 719.819 -3.90318 -3.65453 0
M  V30 7836 C 721.119 -4.93005 -1.72461 0
M  V30 7837 H 722.813 -2.90567 -0.721888 0
M  V30 7838 H 720.359 -1.39786 -0.345803 0
M  V30 7839 H 722.312 -2.7922 -3.15617 0
M  V30 7840 H 721.036 -1.58664 -2.8547 0
M  V30 7841 H 719.695 -3.30341 -1.58967 0
M  V30 7842 H 719.343 -2.98889 -4.04567 0
M  V30 7843 H 719.043 -4.67597 -3.55846 0
M  V30 7844 H 720.567 -4.24747 -4.3866 0
M  V30 7845 H 721.981 -5.23354 -2.34036 0
M  V30 7846 H 720.378 -5.74436 -1.73618 0
M  V30 7847 H 721.448 -4.80053 -0.683898 0
M  V30 7848 N 722.791 0.367657 -1.53252 0
M  V30 7849 C 724.037 1.11216 -1.69584 0
M  V30 7850 C 724.37 1.89026 -0.445269 0
M  V30 7851 O 723.645 1.86342 0.557404 0
M  V30 7852 C 723.928 2.07308 -2.94441 0
M  V30 7853 C 723.781 1.3312 -4.2965 0
M  V30 7854 C 725.1 3.07459 -3.14892 0
M  V30 7855 H 722.219 0.40294 -0.617096 0
M  V30 7856 H 724.861 0.393201 -1.85887 0
M  V30 7857 H 723.011 2.68617 -2.80673 0
M  V30 7858 H 724.683 0.746111 -4.55226 0
M  V30 7859 H 722.926 0.633051 -4.29156 0
M  V30 7860 H 723.597 2.03443 -5.13142 0
M  V30 7861 H 726.073 2.56252 -3.27832 0
M  V30 7862 H 724.949 3.71919 -4.03693 0
M  V30 7863 H 725.21 3.77514 -2.30077 0
M  V30 7864 N 724.269 1.44576 0.627338 0
M  V30 7865 C 725.518 1.46837 1.38281 0
M  V30 7866 C 725.831 0.10635 1.95311 0
M  V30 7867 O 727.037 0.00651084 2.71499 0
M  V30 7868 C 725.493 2.58527 2.50384 0
M  V30 7869 C 725.101 4.00953 1.99851 0
M  V30 7870 C 726.845 2.70013 3.27557 0
M  V30 7871 C 724.752 5.0406 3.09318 0
M  V30 7872 H 723.682 0.546319 0.519664 0
M  V30 7873 H 726.333 1.70654 0.674497 0
M  V30 7874 H 724.715 2.27957 3.23808 0
M  V30 7875 H 725.889 4.41108 1.33267 0
M  V30 7876 H 724.204 3.93743 1.35482 0
M  V30 7877 H 726.801 3.44217 4.09168 0
M  V30 7878 H 727.144 1.75961 3.77284 0
M  V30 7879 H 727.677 3.00011 2.61224 0
M  V30 7880 H 724.416 5.99753 2.6453 0
M  V30 7881 H 723.936 4.68493 3.74532 0
M  V30 7882 H 725.615 5.2793 3.74031 0
M  V30 7883 N 725.747 -0.868086 1.31537 0
M  V30 7884 C 727.163 -1.15414 1.10235 0
M  V30 7885 C 727.363 -2.01106 -0.125947 0
M  V30 7886 O 726.419 -2.38994 -0.814734 0
M  V30 7887 C 727.732 -1.84445 2.37488 0
M  V30 7888 C 729.28 -1.97139 2.43116 0
M  V30 7889 C 729.755 -2.69585 3.70254 0
M  V30 7890 N 731.246 -2.77119 3.71159 0
M  V30 7891 C 731.981 -3.33791 4.6623 0
M  V30 7892 N 731.477 -3.9138 5.71659 0
M  V30 7893 N 733.27 -3.31767 4.53747 0
M  V30 7894 H 725.421 -0.297109 2.10312 0
M  V30 7895 H 727.684 -0.194227 0.92789 0
M  V30 7896 H 727.39 -1.2893 3.27215 0
M  V30 7897 H 727.264 -2.84709 2.47428 0
M  V30 7898 H 729.651 -2.51818 1.53856 0
M  V30 7899 H 729.732 -0.95912 2.37138 0
M  V30 7900 H 729.376 -2.15572 4.59881 0
M  V30 7901 H 729.306 -3.71223 3.73499 0
M  V30 7902 H 731.797 -2.3625 2.94948 0
M  V30 7903 H 732.11 -4.3274 6.40278 0
M  V30 7904 H 730.455 -3.8975 5.7543 0
M  V30 7905 H 733.646 -2.86016 3.70557 0
M  V30 7906 H 733.819 -3.75636 5.28017 0
M  V30 7907 N 727.225 -1.14528 -1.08264 0
M  V30 7908 C 728.135 -0.84728 -2.18765 0
M  V30 7909 C 729.151 0.172826 -1.7314 0
M  V30 7910 O 730.327 0.000985336 -2.014 0
M  V30 7911 C 727.392 -0.330633 -3.4512 0
M  V30 7912 C 726.453 -1.41348 -4.05363 0
M  V30 7913 C 725.686 -0.921387 -5.25686 0
M  V30 7914 O 725.909 0.236587 -5.69909 0
M  V30 7915 O 724.843 -1.70101 -5.77364 0
M  V30 7916 H 728.669 -1.7708 -2.46731 0
M  V30 7917 H 726.254 -0.923661 -1.17426 0
M  V30 7918 H 728.136 -0.0485053 -4.21372 0
M  V30 7919 H 726.811 0.565147 -3.18728 0
M  V30 7920 H 725.718 -1.74908 -3.30693 0
M  V30 7921 H 727.051 -2.28383 -4.36007 0
M  V30 7922 N 728.703 1.26451 -0.940633 0
M  V30 7923 C 729.98 1.88947 -0.505811 0
M  V30 7924 C 730.36 1.85011 1.01657 0
M  V30 7925 O 729.708 1.30406 1.87634 0
M  V30 7926 C 729.918 3.32304 -1.06654 0
M  V30 7927 C 731.266 4.09153 -1.13486 0
M  V30 7928 O 732.29 3.41371 -1.01708 0
M  V30 7929 O 731.149 5.30369 -1.31797 0
M  V30 7930 H 728.243 0.810422 -0.164759 0
M  V30 7931 H 730.789 1.34625 -1.03316 0
M  V30 7932 H 729.561 3.29527 -2.11015 0
M  V30 7933 H 729.184 3.94164 -0.521603 0
M  V30 7934 N 730.181 0.707592 1.40822 0
M  V30 7935 C 731.429 0.243189 2.00632 0
M  V30 7936 C 731.75 -1.16512 1.56365 0
M  V30 7937 O 731.02 -1.78841 0.799553 0
M  V30 7938 H 729.6 0.0869203 0.741926 0
M  V30 7939 H 732.262 0.911438 1.72275 0
M  V30 7940 H 731.358 0.270014 3.1093 0
M  V30 7941 N 731.66 -1.50943 0.453197 0
M  V30 7942 C 732.608 -2.29728 -0.364419 0
M  V30 7943 C 733.602 -1.36246 -1.00664 0
M  V30 7944 O 734.808 -1.53518 -0.939794 0
M  V30 7945 H 731.183 -0.739536 -0.136347 0
M  V30 7946 H 733.154 -2.96672 0.320696 0
M  V30 7947 C 731.903 -3.1629 -1.44415 0
M  V30 7948 H 731.226 -3.88119 -0.959343 0
M  V30 7949 H 732.666 -3.74444 -1.98917 0
M  V30 7950 C 731.125 -2.32702 -2.43622 0
M  V30 7951 O 731.655 -1.99763 -3.48508 0
M  V30 7952 N 729.861 -1.95621 -2.14897 0
M  V30 7953 H 729.408 -2.22607 -1.29629 0
M  V30 7954 H 729.366 -1.39993 -2.81513 0
M  V30 7955 N 733.138 -0.185124 -1.56509 0
M  V30 7956 C 734.363 0.465278 -2.02114 0
M  V30 7957 C 734.788 1.55083 -1.06447 0
M  V30 7958 O 734.146 1.81241 -0.0462852 0
M  V30 7959 C 734.194 1.00784 -3.46229 0
M  V30 7960 O 733.298 2.12123 -3.53663 0
M  V30 7961 H 732.639 0.109891 -0.654843 0
M  V30 7962 H 735.169 -0.293072 -2.0249 0
M  V30 7963 H 735.179 1.32697 -3.85818 0
M  V30 7964 H 733.854 0.213113 -4.15354 0
M  V30 7965 H 732.431 1.8115 -3.25943 0
M  V30 7966 N 734.616 1.57351 0.0885366 0
M  V30 7967 C 735.865 1.85604 0.789556 0
M  V30 7968 C 736.178 0.775352 1.79576 0
M  V30 7969 O 737.384 0.945206 2.54515 0
M  V30 7970 C 735.84 3.29175 1.45506 0
M  V30 7971 C 735.448 4.45331 0.488278 0
M  V30 7972 C 737.192 3.66646 2.13942 0
M  V30 7973 C 735.099 5.79937 1.15874 0
M  V30 7974 H 734.029 0.692346 0.298619 0
M  V30 7975 H 736.68 1.83451 0.0425821 0
M  V30 7976 H 735.062 3.25889 2.24972 0
M  V30 7977 H 736.236 4.59977 -0.275359 0
M  V30 7978 H 734.551 4.16301 -0.0907363 0
M  V30 7979 H 737.148 4.64498 2.6485 0
M  V30 7980 H 737.491 2.956 2.93132 0
M  V30 7981 H 738.024 3.71848 1.41328 0
M  V30 7982 H 734.763 6.54232 0.407508 0
M  V30 7983 H 734.283 5.69123 1.89364 0
M  V30 7984 H 735.962 6.24718 1.68336 0
M  V30 7985 N 736.094 -0.359525 1.53444 0
M  V30 7986 C 737.319 -1.12644 1.74144 0
M  V30 7987 C 737.744 -1.82082 0.472007 0
M  V30 7988 O 737.102 -1.71962 -0.57436 0
M  V30 7989 C 737.15 -2.12781 2.9113 0
M  V30 7990 O 736.254 -3.19984 2.60162 0
M  V30 7991 H 735.595 -0.326553 0.578152 0
M  V30 7992 H 738.125 -0.414798 2.00351 0
M  V30 7993 H 738.135 -2.56278 3.17467 0
M  V30 7994 H 736.81 -1.61634 3.83207 0
M  V30 7995 H 735.387 -2.81417 2.44661 0
M  V30 7996 N 737.572 -1.44907 -0.619662 0
M  V30 7997 C 738.797 -1.52021 -1.41083 0
M  V30 7998 C 739.222 -0.14976 -1.87503 0
M  V30 7999 O 738.58 0.863303 -1.59426 0
M  V30 8000 C 738.628 -2.49911 -2.59955 0
M  V30 8001 O 737.732 -2.00857 -3.60181 0
M  V30 8002 H 737.073 -0.512912 -0.421684 0
M  V30 8003 H 739.603 -1.90149 -0.755282 0
M  V30 8004 H 739.613 -2.68323 -3.07354 0
M  V30 8005 H 738.288 -3.4945 -2.25516 0
M  V30 8006 H 736.865 -1.92265 -3.19513 0
M  V30 8007 N 739.05 0.861098 -1.31996 0
M  V30 8008 C 739.983 1.97266 -1.14724 0
M  V30 8009 C 740.961 1.62528 -0.0483789 0
M  V30 8010 O 742.145 1.87366 -0.206478 0
M  V30 8011 C 739.272 3.30181 -0.754861 0
M  V30 8012 C 738.318 3.839 -1.85804 0
M  V30 8013 S 739.151 4.08274 -3.46515 0
M  V30 8014 C 740.307 5.44174 -3.09235 0
M  V30 8015 H 740.54 2.11614 -2.08822 0
M  V30 8016 H 738.073 1.01232 -1.16582 0
M  V30 8017 H 740.031 4.06996 -0.535232 0
M  V30 8018 H 738.692 3.13655 0.167155 0
M  V30 8019 H 737.885 4.80013 -1.53633 0
M  V30 8020 H 737.487 3.13907 -2.03318 0
M  V30 8021 H 739.779 6.26172 -2.58679 0
M  V30 8022 H 740.722 5.81301 -4.04345 0
M  V30 8023 H 741.13 5.0787 -2.46431 0
M  V30 8024 N 740.528 1.15101 1.07655 0
M  V30 8025 C 741.461 0.788522 2.14144 0
M  V30 8026 C 742.439 -0.233635 1.60913 0
M  V30 8027 O 743.623 -0.120908 1.88112 0
M  V30 8028 C 740.75 0.172033 3.38263 0
M  V30 8029 C 739.796 1.16559 4.10264 0
M  V30 8030 S 740.629 2.70627 4.62084 0
M  V30 8031 C 741.785 2.10389 5.8948 0
M  V30 8032 H 742.018 1.69047 2.44561 0
M  V30 8033 H 739.551 0.973033 1.19881 0
M  V30 8034 H 741.509 -0.177223 4.10117 0
M  V30 8035 H 740.17 -0.707468 3.06029 0
M  V30 8036 H 739.363 0.6824 4.99359 0
M  V30 8037 H 738.965 1.45923 3.44358 0
M  V30 8038 H 741.257 1.46405 6.61492 0
M  V30 8039 H 742.2 2.97639 6.42508 0
M  V30 8040 H 742.608 1.54816 5.42856 0
M  V30 8041 N 742.006 -1.2595 0.947325 0
M  V30 8042 C 743.252 -1.9375 0.599064 0
M  V30 8043 C 743.585 -1.74088 -0.860632 0
M  V30 8044 O 742.86 -1.08158 -1.61654 0
M  V30 8045 C 743.143 -3.47353 0.949634 0
M  V30 8046 C 742.996 -3.76273 2.46452 0
M  V30 8047 C 744.315 -4.37589 0.469442 0
M  V30 8048 H 741.434 -0.703674 0.219115 0
M  V30 8049 H 744.076 -1.48705 1.18266 0
M  V30 8050 H 742.226 -3.8585 0.453008 0
M  V30 8051 H 743.898 -3.47455 3.03435 0
M  V30 8052 H 742.141 -3.22135 2.90537 0
M  V30 8053 H 742.812 -4.83664 2.66032 0
M  V30 8054 H 745.288 -4.06353 0.89534 0
M  V30 8055 H 744.164 -5.43841 0.7435 0
M  V30 8056 H 744.425 -4.37579 -0.630618 0
M  V30 8057 N 743.484 -0.715051 -1.40445 0
M  V30 8058 C 744.431 -0.0621393 -2.30716 0
M  V30 8059 C 745.401 0.750871 -1.48159 0
M  V30 8060 O 746.586 0.714928 -1.76899 0
M  V30 8061 C 743.726 0.854036 -3.34365 0
M  V30 8062 C 742.839 0.0305565 -4.31989 0
M  V30 8063 C 741.974 0.946162 -5.22706 0
M  V30 8064 C 741.013 0.116741 -6.11989 0
M  V30 8065 N 740.15 0.987194 -6.95125 0
M  V30 8066 H 744.99 -0.83764 -2.85985 0
M  V30 8067 H 742.527 -0.424759 -1.40834 0
M  V30 8068 H 744.485 1.39946 -3.93028 0
M  V30 8069 H 743.115 1.59572 -2.806 0
M  V30 8070 H 742.167 -0.632044 -3.75112 0
M  V30 8071 H 743.479 -0.611615 -4.95036 0
M  V30 8072 H 742.633 1.56014 -5.86297 0
M  V30 8073 H 741.372 1.62216 -4.59932 0
M  V30 8074 H 740.377 -0.510176 -5.47428 0
M  V30 8075 H 741.602 -0.555742 -6.76822 0
M  V30 8076 H 739.548 1.64885 -6.3494 0
M  V30 8077 H 739.465 0.401046 -7.54936 0
M  V30 8078 H 740.733 1.58737 -7.63166 0
M  V30 8079 N 744.962 1.50701 -0.461195 0
M  V30 8080 C 746.239 1.94958 0.158296 0
M  V30 8081 C 746.619 1.40111 1.57899 0
M  V30 8082 O 745.967 0.597976 2.20537 0
M  V30 8083 C 746.177 3.48821 0.11172 0
M  V30 8084 C 747.525 4.23499 0.30552 0
M  V30 8085 O 748.549 3.557 0.188758 0
M  V30 8086 O 747.408 5.43823 0.540244 0
M  V30 8087 H 744.502 0.818674 0.117054 0
M  V30 8088 H 747.048 1.61508 -0.520888 0
M  V30 8089 H 745.82 3.81263 -0.880577 0
M  V30 8090 H 745.443 3.88781 0.832791 0
M  V30 8091 N 746.441 0.193421 1.56409 0
M  V30 8092 C 747.669 -0.451438 2.01915 0
M  V30 8093 C 748.084 -1.55306 1.07357 0
M  V30 8094 O 747.441 -1.82333 0.0781512 0
M  V30 8095 C 747.492 -1.00931 3.47124 0
M  V30 8096 O 747.213 0.0483623 4.38073 0
M  V30 8097 C 748.714 -1.73021 4.0814 0
M  V30 8098 H 745.934 -0.113495 0.661332 0
M  V30 8099 H 748.478 0.301636 2.02263 0
M  V30 8100 H 746.633 -1.71277 3.47481 0
M  V30 8101 H 747.047 -0.366644 5.23217 0
M  V30 8102 H 748.521 -2.07289 5.11601 0
M  V30 8103 H 748.998 -2.6333 3.51502 0
M  V30 8104 H 749.604 -1.07264 4.11551 0
M  V30 8105 N 747.919 -1.57396 -0.0801906 0
M  V30 8106 C 748.829 -2.06451 -1.11423 0
M  V30 8107 C 749.845 -0.992352 -1.42928 0
M  V30 8108 O 751.021 -1.30651 -1.53272 0
M  V30 8109 C 748.086 -2.49164 -2.41077 0
M  V30 8110 C 747.147 -3.70641 -2.16619 0
M  V30 8111 C 746.38 -4.11307 -3.40092 0
M  V30 8112 O 746.603 -3.51922 -4.48895 0
M  V30 8113 O 745.537 -5.04157 -3.288 0
M  V30 8114 H 749.363 -2.94857 -0.727519 0
M  V30 8115 H 746.948 -1.46484 -0.293743 0
M  V30 8116 H 748.83 -2.77196 -3.17396 0
M  V30 8117 H 747.505 -1.6389 -2.79145 0
M  V30 8118 H 746.412 -3.47703 -1.38033 0
M  V30 8119 H 747.745 -4.5674 -1.83437 0
M  V30 8120 N 749.397 0.351382 -1.53633 0
M  V30 8121 C 750.622 1.11718 -1.74739 0
M  V30 8122 C 751.047 1.81829 -0.481657 0
M  V30 8123 O 750.405 1.72264 0.565233 0
M  V30 8124 C 750.453 2.11234 -2.92254 0
M  V30 8125 O 749.557 3.186 -2.61855 0
M  V30 8126 H 748.898 0.323482 -0.579875 0
M  V30 8127 H 751.428 0.404167 -2.00568 0
M  V30 8128 H 751.438 2.54591 -3.18822 0
M  V30 8129 H 750.113 1.59599 -3.84058 0
M  V30 8130 H 748.69 2.80115 -2.4615 0
M  V30 8131 N 750.875 1.45233 0.611969 0
M  V30 8132 C 752.291 1.29542 0.932251 0
M  V30 8133 C 752.491 0.24523 2.00002 0
M  V30 8134 O 751.547 -0.362333 2.49887 0
M  V30 8135 C 752.86 2.67301 1.37733 0
M  V30 8136 C 754.408 2.75163 1.49178 0
M  V30 8137 C 754.883 4.13437 1.97064 0
M  V30 8138 N 756.374 4.15709 2.04304 0
M  V30 8139 C 757.109 5.19566 2.42568 0
M  V30 8140 N 756.605 6.33771 2.79832 0
M  V30 8141 N 758.398 5.06923 2.42869 0
M  V30 8142 H 750.549 2.12192 -0.0938679 0
M  V30 8143 H 752.812 0.947775 0.0206569 0
M  V30 8144 H 752.518 3.45318 0.666951 0
M  V30 8145 H 752.392 2.95472 2.3447 0
M  V30 8146 H 754.779 1.97453 2.19309 0
M  V30 8147 H 754.86 2.50712 0.507674 0
M  V30 8148 H 754.504 4.91631 1.27521 0
M  V30 8149 H 754.434 4.35277 2.9638 0
M  V30 8150 H 756.925 3.33293 1.78113 0
M  V30 8151 H 757.238 7.08815 3.07898 0
M  V30 8152 H 755.583 6.37179 2.77538 0
M  V30 8153 H 758.774 4.1675 2.1316 0
M  V30 8154 H 758.947 5.87981 2.72364 0
M  V30 8155 N 752.353 -0.854086 1.3245 0
M  V30 8156 C 753.581 -1.64074 1.26045 0
M  V30 8157 C 753.996 -1.8802 -0.171456 0
M  V30 8158 O 753.353 -1.4496 -1.10873 0
M  V30 8159 C 753.404 -2.9997 2.01743 0
M  V30 8160 O 753.125 -2.77084 3.39346 0
M  V30 8161 C 754.626 -3.94414 2.02368 0
M  V30 8162 H 751.846 -0.511015 0.434862 0
M  V30 8163 H 754.39 -1.06494 1.74583 0
M  V30 8164 H 752.545 -3.54193 1.56926 0
M  V30 8165 H 752.959 -3.63514 3.78098 0
M  V30 8166 H 754.433 -4.87032 2.59815 0
M  V30 8167 H 754.91 -4.27427 1.01009 0
M  V30 8168 H 755.516 -3.46127 2.47135 0
M  V30 8169 N 753.831 -1.1567 -1.07043 0
M  V30 8170 C 755.059 -0.957471 -1.83412 0
M  V30 8171 C 755.474 0.494271 -1.82215 0
M  V30 8172 O 754.831 1.34288 -1.23584 0
M  V30 8173 C 754.882 -1.46784 -3.30359 0
M  V30 8174 O 754.603 -2.86271 -3.31633 0
M  V30 8175 C 756.104 -1.31054 -4.23485 0
M  V30 8176 H 753.324 -0.33986 -0.578564 0
M  V30 8177 H 755.868 -1.53518 -1.35102 0
M  V30 8178 H 754.023 -0.932586 -3.76007 0
M  V30 8179 H 754.437 -3.0948 -4.23465 0
M  V30 8180 H 755.911 -1.71605 -5.24648 0
M  V30 8181 H 756.388 -0.255107 -4.38458 0
M  V30 8182 H 756.994 -1.83503 -3.83676 0
M  V30 8183 N 755.309 1.25446 -0.953992 0
M  V30 8184 C 756.257 2.27909 -0.46478 0
M  V30 8185 C 757.251 1.62904 0.464607 0
M  V30 8186 O 758.457 1.76733 0.341407 0
M  V30 8187 H 754.832 0.74036 -0.131798 0
M  V30 8188 H 756.803 2.66559 -1.34122 0
M  V30 8189 C 755.552 3.46853 0.242589 0
M  V30 8190 H 754.875 3.97105 -0.463418 0
M  V30 8191 H 756.315 4.20432 0.548919 0
M  V30 8192 C 754.774 3.03386 1.46487 0
M  V30 8193 O 755.304 3.09342 2.56262 0
M  V30 8194 N 753.51 2.58584 1.32599 0
M  V30 8195 H 753.057 2.53938 0.432834 0
M  V30 8196 H 753.015 2.29866 2.14497 0
M  V30 8197 N 756.787 0.722489 1.40064 0
M  V30 8198 C 758.035 0.264455 2.00362 0
M  V30 8199 C 758.356 -1.14847 1.57592 0
M  V30 8200 O 757.626 -1.77982 0.818477 0
M  V30 8201 H 756.206 0.0947846 0.740962 0
M  V30 8202 H 758.868 0.929659 1.71299 0
M  V30 8203 H 757.964 0.302977 3.10626 0
M  V30 8204 N 758.265 -1.50454 0.469181 0
M  V30 8205 C 759.198 -2.25149 -0.371928 0
M  V30 8206 C 760.176 -1.28382 -0.997845 0
M  V30 8207 O 761.36 -1.57599 -1.03415 0
M  V30 8208 C 758.487 -3.02629 -1.52097 0
M  V30 8209 C 757.533 -4.14305 -1.01262 0
M  V30 8210 S 758.366 -5.35453 0.0711459 0
M  V30 8211 C 759.522 -6.1648 -1.08181 0
M  V30 8212 H 759.755 -2.96142 0.262134 0
M  V30 8213 H 757.288 -1.52296 0.254042 0
M  V30 8214 H 759.246 -3.47861 -2.17952 0
M  V30 8215 H 757.907 -2.31165 -2.12654 0
M  V30 8216 H 757.1 -4.67913 -1.87278 0
M  V30 8217 H 756.702 -3.71499 -0.431804 0
M  V30 8218 H 758.994 -6.47497 -1.99382 0
M  V30 8219 H 759.937 -7.05679 -0.585028 0
M  V30 8220 H 760.345 -5.48492 -1.33478 0
M  V30 8221 N 759.743 -0.201713 -1.56304 0
M  V30 8222 C 760.971 0.440723 -2.02152 0
M  V30 8223 C 761.386 1.54735 -1.08179 0
M  V30 8224 O 760.743 1.82289 -0.0878196 0
M  V30 8225 C 760.794 0.990884 -3.47655 0
M  V30 8226 O 760.515 -0.0715937 -4.38041 0
M  V30 8227 C 762.016 1.70854 -4.09052 0
M  V30 8228 H 759.236 0.109987 -0.661924 0
M  V30 8229 H 761.78 -0.312358 -2.021 0
M  V30 8230 H 759.935 1.69432 -3.48384 0
M  V30 8231 H 760.349 0.338892 -5.23404 0
M  V30 8232 H 761.823 2.04572 -5.12693 0
M  V30 8233 H 762.3 2.61462 -3.52894 0
M  V30 8234 H 762.906 1.0508 -4.12114 0
M  V30 8235 N 761.222 1.57436 0.0718424 0
M  V30 8236 C 762.45 1.91474 0.783932 0
M  V30 8237 C 762.865 0.797669 1.71122 0
M  V30 8238 O 762.222 -0.228989 1.81058 0
M  V30 8239 C 762.273 3.25259 1.57761 0
M  V30 8240 O 761.994 4.3267 0.687596 0
M  V30 8241 C 763.495 3.7331 2.3907 0
M  V30 8242 H 760.715 0.632901 0.222885 0
M  V30 8243 H 763.259 2.04457 0.0421262 0
M  V30 8244 H 761.414 3.13804 2.27169 0
M  V30 8245 H 761.828 5.09641 1.23962 0
M  V30 8246 H 763.302 4.69551 2.90216 0
M  V30 8247 H 763.779 3.02318 3.18591 0
M  V30 8248 H 764.385 3.8771 1.74818 0
M  V30 8249 N 762.7 -0.34323 1.53817 0
M  V30 8250 C 763.946 -1.08504 1.71332 0
M  V30 8251 C 764.279 -1.88294 0.475285 0
M  V30 8252 O 763.554 -1.87205 -0.527688 0
M  V30 8253 C 763.837 -2.02597 2.97702 0
M  V30 8254 C 763.69 -1.26268 4.31713 0
M  V30 8255 C 765.009 -3.0241 3.19744 0
M  V30 8256 H 762.128 -0.393072 0.623429 0
M  V30 8257 H 764.77 -0.363579 1.86489 0
M  V30 8258 H 762.92 -2.64118 2.8491 0
M  V30 8259 H 764.592 -0.673594 4.56356 0
M  V30 8260 H 762.835 -0.564696 4.30109 0
M  V30 8261 H 763.506 -1.95253 5.16314 0
M  V30 8262 H 765.982 -2.51004 3.31868 0
M  V30 8263 H 764.858 -3.65449 4.09558 0
M  V30 8264 H 765.119 -3.73806 2.36054 0
M  V30 8265 N 764.178 -1.45556 -0.604258 0
M  V30 8266 C 765.594 -1.30035 -0.925368 0
M  V30 8267 C 765.794 -0.255833 -1.99869 0
M  V30 8268 O 764.85 0.349076 -2.50075 0
M  V30 8269 C 766.163 -2.68028 -1.36314 0
M  V30 8270 C 767.711 -2.75951 -1.47717 0
M  V30 8271 C 768.186 -4.14476 -1.94868 0
M  V30 8272 N 769.677 -4.16787 -2.02097 0
M  V30 8273 C 770.412 -5.20845 -2.39809 0
M  V30 8274 N 769.908 -6.35246 -2.76467 0
M  V30 8275 N 771.701 -5.08204 -2.40177 0
M  V30 8276 H 763.852 -2.1214 0.10512 0
M  V30 8277 H 766.115 -0.947871 -0.0156303 0
M  V30 8278 H 765.821 -3.45667 -0.648628 0
M  V30 8279 H 765.695 -2.96711 -2.329 0
M  V30 8280 H 768.082 -1.98613 -2.18258 0
M  V30 8281 H 768.163 -2.50977 -0.494371 0
M  V30 8282 H 767.807 -4.923 -1.24912 0
M  V30 8283 H 767.737 -4.36843 -2.94068 0
M  V30 8284 H 770.228 -3.34233 -1.76343 0
M  V30 8285 H 770.541 -7.10438 -3.04134 0
M  V30 8286 H 768.886 -6.38642 -2.74155 0
M  V30 8287 H 772.077 -4.17874 -2.10947 0
M  V30 8288 H 772.25 -5.89417 -2.69242 0
M  V30 8289 N 765.656 0.84705 -1.32902 0
M  V30 8290 C 766.903 1.60176 -1.23894 0
M  V30 8291 C 767.231 1.93496 0.197341 0
M  V30 8292 O 766.486 1.58173 1.15238 0
M  V30 8293 C 766.785 2.92663 -2.05142 0
M  V30 8294 C 766.451 2.7874 -3.54422 0
M  V30 8295 C 765.113 2.7465 -3.95121 0
M  V30 8296 C 767.465 2.64128 -4.49317 0
M  V30 8297 C 764.793 2.53837 -5.28946 0
M  V30 8298 C 767.145 2.44849 -5.83294 0
M  V30 8299 C 765.809 2.39156 -6.23186 0
M  V30 8300 H 765.079 0.586127 -0.453361 0
M  V30 8301 H 767.726 0.981994 -1.64405 0
M  V30 8302 H 766.031 3.588 -1.57383 0
M  V30 8303 H 767.728 3.50095 -1.95537 0
M  V30 8304 H 764.318 2.82751 -3.22102 0
M  V30 8305 H 768.502 2.66327 -4.18788 0
M  V30 8306 H 763.758 2.4787 -5.58901 0
M  V30 8307 H 767.932 2.32524 -6.56434 0
M  V30 8308 H 765.559 2.22789 -7.26821 0
M  V30 8309 N 767.134 1.16236 1.06428 0
M  V30 8310 C 768.38 0.944431 1.79467 0
M  V30 8311 C 768.713 -0.526558 1.86925 0
M  V30 8312 O 767.988 -1.39061 1.35986 0
M  V30 8313 C 768.271 1.57092 3.24028 0
M  V30 8314 C 768.124 3.11315 3.24658 0
M  V30 8315 C 769.443 1.26447 4.21544 0
M  V30 8316 H 766.562 0.344521 0.651517 0
M  V30 8317 H 769.204 1.43545 1.24478 0
M  V30 8318 H 767.354 1.15337 3.70985 0
M  V30 8319 H 769.026 3.62042 2.85873 0
M  V30 8320 H 767.269 3.44716 2.6335 0
M  V30 8321 H 767.94 3.50269 4.26633 0
M  V30 8322 H 770.416 1.62581 3.83023 0
M  V30 8323 H 769.292 1.72885 5.20963 0
M  V30 8324 H 769.553 0.183068 4.41721 0
M  V30 8325 N 768.612 -1.24939 0.960631 0
M  V30 8326 C 769.56 -2.27659 0.47686 0
M  V30 8327 C 770.554 -1.63148 -0.455961 0
M  V30 8328 O 771.76 -1.76911 -0.332029 0
M  V30 8329 H 768.135 -0.739651 0.135723 0
M  V30 8330 H 770.106 -2.65844 1.35534 0
M  V30 8331 C 768.855 -3.46976 -0.224191 0
M  V30 8332 H 768.178 -3.96854 0.484471 0
M  V30 8333 H 769.618 -4.20717 -0.526615 0
M  V30 8334 C 768.077 -3.04159 -1.44876 0
M  V30 8335 O 768.607 -3.10697 -2.54618 0
M  V30 8336 N 766.813 -2.59284 -1.31226 0
M  V30 8337 H 766.36 -2.54164 -0.419361 0
M  V30 8338 H 766.318 -2.31 -2.13275 0
M  V30 8339 N 770.09 -0.729906 -1.39679 0
M  V30 8340 C 771.318 -0.285709 -2.04918 0
M  V30 8341 C 771.733 1.07765 -1.55023 0
M  V30 8342 O 771.09 1.67999 -0.712923 0
M  V30 8343 C 771.141 -0.272793 -3.60469 0
M  V30 8344 O 770.862 -1.58233 -4.08527 0
M  V30 8345 C 772.363 0.188199 -4.429 0
M  V30 8346 H 769.583 -0.125758 -0.65911 0
M  V30 8347 H 772.127 -0.992129 -1.78821 0
M  V30 8348 H 770.282 0.384699 -3.85485 0
M  V30 8349 H 770.696 -1.49245 -5.02818 0
M  V30 8350 H 772.17 0.14608 -5.51807 0
M  V30 8351 H 772.647 1.2326 -4.21549 0
M  V30 8352 H 773.253 -0.439541 -4.23023 0
M  V30 8353 N 771.568 1.50203 -0.477153 0
M  V30 8354 C 772.498 2.31517 0.303646 0
M  V30 8355 C 773.479 1.38696 0.984753 0
M  V30 8356 O 774.664 1.67615 0.980758 0
M  V30 8357 C 771.794 3.18598 1.38249 0
M  V30 8358 C 770.748 4.2002 0.822645 0
M  V30 8359 C 770.074 4.95878 2.00024 0
M  V30 8360 C 771.374 5.22023 -0.170185 0
M  V30 8361 H 773.068 2.97042 -0.375027 0
M  V30 8362 H 770.614 1.42848 -0.181802 0
M  V30 8363 H 772.567 3.74282 1.93625 0
M  V30 8364 H 771.291 2.5097 2.09002 0
M  V30 8365 H 769.95 3.65445 0.290813 0
M  V30 8366 H 769.598 4.24717 2.69489 0
M  V30 8367 H 769.298 5.64487 1.63183 0
M  V30 8368 H 770.822 5.54399 2.55878 0
M  V30 8369 H 772.236 5.72543 0.294606 0
M  V30 8370 H 770.633 5.98386 -0.453181 0
M  V30 8371 H 771.703 4.72396 -1.09408 0
M  V30 8372 N 773.046 0.209999 1.56195 0
M  V30 8373 C 773.996 -0.717978 2.164 0
M  V30 8374 C 774.98 -1.16577 1.10899 0
M  V30 8375 O 776.172 -1.12169 1.3692 0
M  V30 8376 C 773.301 -1.93091 2.8385 0
M  V30 8377 C 772.387 -1.50333 3.96561 0
M  V30 8378 N 772.778 -0.787621 4.9963 0
M  V30 8379 C 771.076 -1.79151 4.08437 0
M  V30 8380 C 771.777 -0.571204 5.78889 0
M  V30 8381 N 770.753 -1.12444 5.31843 0
M  V30 8382 H 774.555 -0.162603 2.9345 0
M  V30 8383 H 772.069 0.0107928 1.62396 0
M  V30 8384 H 774.066 -2.60635 3.25384 0
M  V30 8385 H 772.726 -2.49087 2.08293 0
M  V30 8386 H 773.737 -0.441513 5.16015 0
M  V30 8387 H 770.414 -2.36549 3.44022 0
M  V30 8388 H 771.804 -0.00237941 6.719 0
M  V30 8389 N 774.524 -1.57472 -0.0634922 0
M  V30 8390 C 775.471 -2.04258 -1.07457 0
M  V30 8391 C 776.441 -0.924804 -1.37973 0
M  V30 8392 O 777.626 -1.19305 -1.48899 0
M  V30 8393 C 774.766 -2.49832 -2.38071 0
M  V30 8394 C 773.879 -3.75263 -2.14014 0
M  V30 8395 C 773.014 -4.09585 -3.38251 0
M  V30 8396 C 772.053 -5.28032 -3.09594 0
M  V30 8397 N 771.19 -5.57953 -4.26185 0
M  V30 8398 H 776.03 -2.90402 -0.668626 0
M  V30 8399 H 773.567 -1.43609 -0.318572 0
M  V30 8400 H 775.525 -2.7431 -3.14341 0
M  V30 8401 H 774.155 -1.66654 -2.76453 0
M  V30 8402 H 773.207 -3.58075 -1.28399 0
M  V30 8403 H 774.519 -4.61667 -1.88852 0
M  V30 8404 H 773.673 -4.35008 -4.2291 0
M  V30 8405 H 772.412 -3.21765 -3.66495 0
M  V30 8406 H 771.417 -5.02397 -2.23332 0
M  V30 8407 H 772.642 -6.17477 -2.82663 0
M  V30 8408 H 770.588 -4.73092 -4.54445 0
M  V30 8409 H 770.505 -6.38793 -4.04326 0
M  V30 8410 H 771.773 -5.87931 -5.11817 0
M  V30 8411 N 776.003 0.335068 -1.53997 0
M  V30 8412 C 777.28 1.09188 -1.62288 0
M  V30 8413 C 777.66 2.0626 -0.449458 0
M  V30 8414 O 777.008 2.21596 0.557444 0
M  V30 8415 C 777.218 1.80403 -2.98757 0
M  V30 8416 C 778.566 2.33841 -3.54406 0
M  V30 8417 O 779.59 1.90487 -3.00987 0
M  V30 8418 O 778.449 3.1318 -4.47862 0
M  V30 8419 H 775.543 0.502621 -0.656736 0
M  V30 8420 H 778.089 0.33588 -1.66343 0
M  V30 8421 H 776.861 1.09732 -3.75599 0
M  V30 8422 H 776.484 2.62841 -2.9833 0
M  V30 8423 N 777.481 1.45874 0.596531 0
M  V30 8424 C 778.727 1.5069 1.35722 0
M  V30 8425 C 779.06 0.152506 1.936 0
M  V30 8426 O 778.335 -0.834411 1.75692 0
M  V30 8427 C 778.618 2.59474 2.4969 0
M  V30 8428 C 778.471 4.04396 1.96937 0
M  V30 8429 C 779.79 2.64451 3.51787 0
M  V30 8430 H 776.909 0.548611 0.492133 0
M  V30 8431 H 779.551 1.77741 0.671428 0
M  V30 8432 H 777.701 2.36539 3.08191 0
M  V30 8433 H 779.373 4.38576 1.43 0
M  V30 8434 H 777.616 4.14529 1.27859 0
M  V30 8435 H 778.287 4.76218 2.79143 0
M  V30 8436 H 780.763 2.85031 3.03145 0
M  V30 8437 H 779.639 3.42411 4.29006 0
M  V30 8438 H 779.9 1.69965 4.08123 0
M  V30 8439 N 778.959 -0.83999 1.33349 0
M  V30 8440 C 779.907 -1.97113 1.23488 0
M  V30 8441 C 780.901 -1.68849 0.136503 0
M  V30 8442 O 782.107 -1.77476 0.300389 0
M  V30 8443 H 778.482 -0.647049 0.383185 0
M  V30 8444 H 780.453 -2.02554 2.19122 0
M  V30 8445 C 779.202 -3.33314 0.989815 0
M  V30 8446 H 778.525 -3.556 1.82726 0
M  V30 8447 H 779.965 -4.12963 0.961123 0
M  V30 8448 C 778.424 -3.35496 -0.307272 0
M  V30 8449 O 778.954 -3.79589 -1.31434 0
M  V30 8450 N 777.16 -2.88669 -0.334414 0
M  V30 8451 H 776.707 -2.5298 0.485659 0
M  V30 8452 H 776.665 -2.90512 -1.20209 0
M  V30 8453 N 780.437 -1.16799 -1.0581 0
M  V30 8454 C 781.686 -0.94698 -1.78088 0
M  V30 8455 C 781.999 0.526016 -1.88394 0
M  V30 8456 O 783.205 0.865061 -2.5735 0
M  V30 8457 C 781.661 -1.64508 -3.20102 0
M  V30 8458 C 781.269 -3.15618 -3.17946 0
M  V30 8459 C 783.013 -1.50622 -3.96879 0
M  V30 8460 C 780.92 -3.78144 -4.5471 0
M  V30 8461 H 779.85 -0.35067 -0.667493 0
M  V30 8462 H 782.501 -1.39985 -1.18645 0
M  V30 8463 H 780.883 -1.11993 -3.79834 0
M  V30 8464 H 782.057 -3.75016 -2.67768 0
M  V30 8465 H 780.372 -3.29444 -2.54667 0
M  V30 8466 H 782.969 -1.94713 -4.97987 0
M  V30 8467 H 783.312 -0.455864 -4.13797 0
M  V30 8468 H 783.845 -2.00319 -3.43682 0
M  V30 8469 H 780.584 -4.83149 -4.42998 0
M  V30 8470 H 780.104 -3.23532 -5.05062 0
M  V30 8471 H 781.783 -3.79986 -5.2366 0
M  V30 8472 N 781.915 1.24427 -0.967243 0
M  V30 8473 C 783.14 1.9708 -0.646069 0
M  V30 8474 C 783.565 1.71272 0.777665 0
M  V30 8475 O 782.923 0.976179 1.52776 0
M  V30 8476 C 782.971 3.48501 -0.926266 0
M  V30 8477 O 782.075 4.12398 -0.0114653 0
M  V30 8478 H 781.416 0.617423 -0.244304 0
M  V30 8479 H 783.946 1.58215 -1.29727 0
M  V30 8480 H 783.956 3.98885 -0.857619 0
M  V30 8481 H 782.631 3.66613 -1.96386 0
M  V30 8482 H 781.208 3.72661 -0.133396 0
M  V30 8483 N 783.393 0.737304 1.3929 0
M  V30 8484 C 784.323 0.113988 2.33222 0
M  V30 8485 C 785.304 -0.721695 1.54031 0
M  V30 8486 O 786.489 -0.666206 1.82415 0
M  V30 8487 C 783.619 -0.792319 3.38141 0
M  V30 8488 C 782.573 -0.0606178 4.27957 0
M  V30 8489 C 781.899 -1.08409 5.23595 0
M  V30 8490 C 783.199 1.09817 5.10625 0
M  V30 8491 H 784.893 0.898611 2.85596 0
M  V30 8492 H 782.439 0.433571 1.37318 0
M  V30 8493 H 784.392 -1.23793 4.02807 0
M  V30 8494 H 783.116 -1.60908 2.84211 0
M  V30 8495 H 781.775 0.365393 3.64775 0
M  V30 8496 H 781.423 -1.89449 4.6596 0
M  V30 8497 H 781.123 -0.599269 5.84536 0
M  V30 8498 H 782.647 -1.52936 5.91137 0
M  V30 8499 H 784.061 0.730892 5.68622 0
M  V30 8500 H 782.458 1.51278 5.80719 0
M  V30 8501 H 783.528 1.91878 4.45321 0
M  V30 8502 N 784.871 -1.49948 0.485112 0
M  V30 8503 C 786.096 -2.073 -0.0645059 0
M  V30 8504 C 786.521 -1.345 -1.31497 0
M  V30 8505 O 785.879 -0.39687 -1.76903 0
M  V30 8506 C 785.927 -3.59201 -0.317304 0
M  V30 8507 O 785.031 -3.88085 -1.39514 0
M  V30 8508 H 784.372 -0.663723 0.0191822 0
M  V30 8509 H 786.902 -1.92963 0.680179 0
M  V30 8510 H 786.912 -4.04227 -0.553604 0
M  V30 8511 H 785.587 -4.11602 0.596387 0
M  V30 8512 H 784.164 -3.54885 -1.14504 0
M  V30 8513 N 786.349 -0.21828 -1.56081 0
M  V30 8514 C 787.577 0.419258 -2.02608 0
M  V30 8515 C 787.992 1.53578 -1.09814 0
M  V30 8516 O 787.349 1.82185 -0.107149 0
M  V30 8517 C 787.4 0.953955 -3.48686 0
M  V30 8518 O 787.121 -0.11805 -4.37941 0
M  V30 8519 C 788.622 1.66506 -4.10841 0
M  V30 8520 H 785.842 0.10296 -0.663054 0
M  V30 8521 H 788.386 -0.333776 -2.01758 0
M  V30 8522 H 786.541 1.65727 -3.50162 0
M  V30 8523 H 786.955 0.283359 -5.23734 0
M  V30 8524 H 788.429 1.99123 -5.14834 0
M  V30 8525 H 788.906 2.57705 -3.55647 0
M  V30 8526 H 789.512 1.00703 -4.13206 0
M  V30 8527 N 787.827 1.57504 0.0551401 0
M  V30 8528 C 789.104 1.79155 0.785048 0
M  V30 8529 C 789.484 0.809995 1.94942 0
M  V30 8530 O 788.832 -0.153432 2.27984 0
M  V30 8531 C 789.042 3.26134 1.24247 0
M  V30 8532 C 790.39 3.90419 1.66908 0
M  V30 8533 O 791.414 3.30126 1.33772 0
M  V30 8534 O 790.273 4.96523 2.28314 0
M  V30 8535 H 787.367 0.735825 0.377479 0
M  V30 8536 H 789.913 1.69666 0.0339285 0
M  V30 8537 H 788.685 3.89145 0.410089 0
M  V30 8538 H 788.308 3.40411 2.05441 0
M  V30 8539 N 789.305 -0.326896 1.54172 0
M  V30 8540 C 790.533 -1.08486 1.76177 0
M  V30 8541 C 790.948 -1.81815 0.508788 0
M  V30 8542 O 790.305 -1.74924 -0.520362 0
M  V30 8543 C 790.356 -2.08552 2.95276 0
M  V30 8544 O 790.077 -1.38202 4.15731 0
M  V30 8545 C 791.578 -2.96593 3.29466 0
M  V30 8546 H 788.798 -0.322835 0.588233 0
M  V30 8547 H 791.342 -0.374036 2.0105 0
M  V30 8548 H 789.497 -2.75174 2.72687 0
M  V30 8549 H 789.911 -2.05186 4.827 0
M  V30 8550 H 791.385 -3.62708 4.16109 0
M  V30 8551 H 791.862 -3.63511 2.46487 0
M  V30 8552 H 792.468 -2.35537 3.54122 0
M  V30 8553 N 790.784 -1.46188 -0.588786 0
M  V30 8554 C 792.009 -1.5498 -1.37826 0
M  V30 8555 C 792.434 -0.189498 -1.87143 0
M  V30 8556 O 791.792 0.829293 -1.61222 0
M  V30 8557 C 791.84 -2.55369 -2.54596 0
M  V30 8558 O 790.944 -2.08452 -3.55839 0
M  V30 8559 H 790.285 -0.521741 -0.41071 0
M  V30 8560 H 792.815 -1.91708 -0.714779 0
M  V30 8561 H 792.825 -2.74782 -3.01594 0
M  V30 8562 H 791.5 -3.54155 -2.18052 0
M  V30 8563 H 790.077 -1.98999 -3.15363 0
M  V30 8564 N 792.262 0.832906 -1.33792 0
M  V30 8565 C 793.192 1.95828 -1.27176 0
M  V30 8566 C 794.173 1.69427 -0.15114 0
M  V30 8567 O 795.358 1.91167 -0.341886 0
M  V30 8568 C 792.488 3.32098 -1.01629 0
M  V30 8569 C 791.442 3.72912 -2.10049 0
M  V30 8570 C 790.768 5.07054 -1.69706 0
M  V30 8571 C 792.068 3.86064 -3.51783 0
M  V30 8572 H 793.762 2.01622 -2.21334 0
M  V30 8573 H 791.308 0.96866 -1.0655 0
M  V30 8574 H 793.261 4.10402 -0.956474 0
M  V30 8575 H 791.985 3.26577 -0.0390956 0
M  V30 8576 H 790.644 2.96876 -2.15082 0
M  V30 8577 H 790.292 4.9801 -0.706737 0
M  V30 8578 H 789.992 5.35333 -2.42264 0
M  V30 8579 H 791.516 5.87827 -1.65202 0
M  V30 8580 H 792.93 4.54665 -3.49218 0
M  V30 8581 H 791.327 4.25787 -4.22878 0
M  V30 8582 H 792.397 2.88344 -3.89854 0
M  V30 8583 N 793.74 1.17359 1.05189 0
M  V30 8584 C 794.688 0.886527 2.15043 0
M  V30 8585 C 795.682 -0.148834 1.68745 0
M  V30 8586 O 796.888 -0.00175123 1.8 0
M  V30 8587 H 793.263 0.269147 0.702185 0
M  V30 8588 H 795.234 1.82016 2.36459 0
M  V30 8589 C 793.983 0.416333 3.45198 0
M  V30 8590 H 793.306 1.20449 3.81225 0
M  V30 8591 H 794.746 0.254362 4.23236 0
M  V30 8592 C 793.205 -0.866016 3.25579 0
M  V30 8593 O 793.735 -1.9328 3.52144 0
M  V30 8594 N 791.941 -0.814179 2.78961 0
M  V30 8595 H 791.488 0.0541618 2.57543 0
M  V30 8596 H 791.446 -1.67264 2.66214 0
M  V30 8597 N 795.218 -1.23913 0.973828 0
M  V30 8598 C 796.464 -1.92436 0.640026 0
M  V30 8599 C 796.797 -1.75875 -0.823512 0
M  V30 8600 O 796.072 -1.11563 -1.59323 0
M  V30 8601 C 796.355 -3.4526 1.0231 0
M  V30 8602 C 796.208 -3.70961 2.54378 0
M  V30 8603 C 797.527 -4.36495 0.562155 0
M  V30 8604 H 794.646 -0.698868 0.233992 0
M  V30 8605 H 797.288 -1.46163 1.21393 0
M  V30 8606 H 795.438 -3.84802 0.534751 0
M  V30 8607 H 797.11 -3.40941 3.10737 0
M  V30 8608 H 795.353 -3.15899 2.97305 0
M  V30 8609 H 796.024 -4.77912 2.76232 0
M  V30 8610 H 798.5 -4.04363 0.981333 0
M  V30 8611 H 797.376 -5.42142 0.858689 0
M  V30 8612 H 797.637 -4.38818 -0.537659 0
M  V30 8613 N 796.696 -0.74468 -1.38897 0
M  V30 8614 C 797.944 -0.296298 -1.99916 0
M  V30 8615 C 798.265 1.12325 -1.59399 0
M  V30 8616 O 797.535 1.76658 -0.846689 0
M  V30 8617 H 796.115 -0.106561 -0.73936 0
M  V30 8618 H 798.777 -0.956793 -1.69798 0
M  V30 8619 H 797.873 -0.352356 -3.10105 0
M  V30 8620 N 798.174 1.49689 -0.493057 0
M  V30 8621 C 799.084 2.32746 0.294358 0
M  V30 8622 C 800.1 1.44117 0.975003 0
M  V30 8623 O 801.276 1.77149 0.958138 0
M  V30 8624 C 798.341 3.19358 1.34949 0
M  V30 8625 C 797.402 4.2383 0.683122 0
M  V30 8626 C 796.635 5.06303 1.68798 0
M  V30 8627 O 796.858 4.90172 2.91698 0
M  V30 8628 O 795.792 5.88826 1.24768 0
M  V30 8629 H 799.618 3.01247 -0.385254 0
M  V30 8630 H 797.203 1.47216 -0.254519 0
M  V30 8631 H 799.085 3.73037 1.96014 0
M  V30 8632 H 797.76 2.53561 2.01217 0
M  V30 8633 H 796.667 3.74086 0.0329351 0
M  V30 8634 H 798 4.9216 0.0630192 0
M  V30 8635 N 799.652 0.226554 1.55963 0
M  V30 8636 C 800.929 -0.453058 1.90281 0
M  V30 8637 C 801.309 -1.77377 1.14458 0
M  V30 8638 O 800.657 -2.27067 0.255496 0
M  V30 8639 C 800.867 -0.641108 3.43061 0
M  V30 8640 C 802.215 -0.946265 4.13921 0
M  V30 8641 O 803.239 -0.727713 3.48687 0
M  V30 8642 O 802.098 -1.36131 5.29274 0
M  V30 8643 H 799.192 -0.240242 0.791336 0
M  V30 8644 H 801.738 0.26911 1.67553 0
M  V30 8645 H 800.51 0.290283 3.90222 0
M  V30 8646 H 800.133 -1.41458 3.71585 0
M  V30 8647 N 801.13 -1.57531 -0.0467866 0
M  V30 8648 C 802.36 -1.92417 -0.752279 0
M  V30 8649 C 802.768 -0.823134 -1.70356 0
M  V30 8650 O 802.111 0.210598 -1.82489 0
M  V30 8651 C 802.173 -3.22974 -1.57887 0
M  V30 8652 C 801.837 -4.50045 -0.794285 0
M  V30 8653 C 802.834 -5.19799 -0.102368 0
M  V30 8654 C 800.519 -4.96608 -0.754061 0
M  V30 8655 C 802.513 -6.34385 0.619267 0
M  V30 8656 C 800.2 -6.11093 -0.0286682 0
M  V30 8657 C 801.198 -6.79835 0.656772 0
M  V30 8658 O 800.886 -7.92133 1.37042 0
M  V30 8659 H 800.618 -0.640029 -0.217576 0
M  V30 8660 H 803.172 -2.05395 -0.0137438 0
M  V30 8661 H 801.402 -3.06273 -2.3608 0
M  V30 8662 H 803.091 -3.43319 -2.16533 0
M  V30 8663 H 803.857 -4.8484 -0.124589 0
M  V30 8664 H 799.736 -4.42958 -1.27706 0
M  V30 8665 H 803.28 -6.87975 1.15483 0
M  V30 8666 H 799.177 -6.455 -0.00446214 0
M  V30 8667 H 799.945 -8.08394 1.28227 0
M  V30 8668 N 802.608 0.318715 -1.54344 0
M  V30 8669 C 803.856 1.054 -1.72439 0
M  V30 8670 C 804.177 1.88388 -0.503495 0
M  V30 8671 O 803.447 1.89866 0.48246 0
M  V30 8672 H 802.027 0.392124 -0.635805 0
M  V30 8673 H 804.689 0.35398 -1.91659 0
M  V30 8674 H 803.785 1.71726 -2.60608 0
M  V30 8675 N 804.086 1.46499 0.581025 0
M  V30 8676 C 805.332 1.52121 1.34116 0
M  V30 8677 C 805.665 0.173031 1.93428 0
M  V30 8678 O 804.94 -0.815729 1.76568 0
M  V30 8679 C 805.223 2.62108 2.46924 0
M  V30 8680 C 805.076 4.06462 1.92636 0
M  V30 8681 C 806.395 2.68167 3.48962 0
M  V30 8682 H 803.514 0.5538 0.486287 0
M  V30 8683 H 806.156 1.78443 0.652538 0
M  V30 8684 H 804.306 2.39794 3.05665 0
M  V30 8685 H 805.978 4.40068 1.3834 0
M  V30 8686 H 804.221 4.15862 1.23455 0
M  V30 8687 H 804.892 4.79152 2.74076 0
M  V30 8688 H 807.368 2.8823 3.00104 0
M  V30 8689 H 806.244 3.46942 4.2535 0
M  V30 8690 H 806.505 1.74284 4.06297 0
M  V30 8691 N 805.565 -0.825799 1.34232 0
M  V30 8692 C 806.79 -1.61883 1.29648 0
M  V30 8693 C 807.215 -1.87669 -0.127295 0
M  V30 8694 O 806.573 -1.45016 -1.08813 0
M  V30 8695 C 806.621 -2.93846 2.09014 0
M  V30 8696 O 805.725 -3.85778 1.4577 0
M  V30 8697 H 805.066 -0.492454 0.445405 0
M  V30 8698 H 807.596 -1.02641 1.76992 0
M  V30 8699 H 807.606 -3.43435 2.20264 0
M  V30 8700 H 806.281 -2.74401 3.12533 0
M  V30 8701 H 804.858 -3.4429 1.43245 0
M  V30 8702 N 807.043 -1.17915 -1.04565 0
M  V30 8703 C 808.006 -0.903787 -2.10628 0
M  V30 8704 C 809.006 0.10873 -1.60432 0
M  V30 8705 O 810.196 -0.124152 -1.73757 0
M  V30 8706 C 807.328 -0.355017 -3.39046 0
M  V30 8707 H 808.521 -1.84425 -2.3649 0
M  V30 8708 H 806.074 -0.990477 -1.2091 0
M  V30 8709 H 806.809 0.592297 -3.18845 0
M  V30 8710 H 806.594 -1.08484 -3.76794 0
M  V30 8711 H 808.084 -0.180891 -4.17208 0
M  V30 8712 N 808.521 1.23394 -0.980386 0
M  V30 8713 C 809.751 1.9556 -0.666319 0
M  V30 8714 C 810.159 1.72786 0.770815 0
M  V30 8715 O 809.502 1.0162 1.53033 0
M  V30 8716 C 809.564 3.48643 -0.876825 0
M  V30 8717 C 809.228 3.95135 -2.29602 0
M  V30 8718 C 810.225 4.03806 -3.2747 0
M  V30 8719 C 807.91 4.28122 -2.62711 0
M  V30 8720 C 809.904 4.44818 -4.56526 0
M  V30 8721 C 807.591 4.68814 -3.9199 0
M  V30 8722 C 808.589 4.77129 -4.88709 0
M  V30 8723 O 808.277 5.16908 -6.15679 0
M  V30 8724 H 808.009 0.629422 -0.246585 0
M  V30 8725 H 810.563 1.57839 -1.31438 0
M  V30 8726 H 808.793 3.86319 -0.171587 0
M  V30 8727 H 810.482 4.0202 -0.55992 0
M  V30 8728 H 811.248 3.78526 -3.03222 0
M  V30 8729 H 807.127 4.20861 -1.8814 0
M  V30 8730 H 810.671 4.51223 -5.32018 0
M  V30 8731 H 806.568 4.93545 -4.16033 0
M  V30 8732 H 807.336 5.3502 -6.19432 0
M  V30 8733 N 809.999 0.752036 1.385 0
M  V30 8734 C 811.415 0.42946 1.53713 0
M  V30 8735 C 811.615 -1.0576 1.71514 0
M  V30 8736 O 810.671 -1.84366 1.72527 0
M  V30 8737 C 811.984 1.22735 2.74511 0
M  V30 8738 C 813.532 1.21727 2.8836 0
M  V30 8739 C 814.007 1.99809 4.12117 0
M  V30 8740 N 815.498 1.97062 4.19191 0
M  V30 8741 C 816.233 2.54274 5.13938 0
M  V30 8742 N 815.729 3.20193 6.14368 0
M  V30 8743 N 817.522 2.44212 5.06277 0
M  V30 8744 H 809.673 1.71581 1.25195 0
M  V30 8745 H 811.936 0.727293 0.60807 0
M  V30 8746 H 811.642 2.28032 2.67758 0
M  V30 8747 H 811.516 0.843186 3.67655 0
M  V30 8748 H 813.903 0.172367 2.94596 0
M  V30 8749 H 813.984 1.64094 1.96232 0
M  V30 8750 H 813.628 3.0431 4.06642 0
M  V30 8751 H 813.558 1.54837 5.03322 0
M  V30 8752 H 816.049 1.49054 3.47263 0
M  V30 8753 H 816.362 3.61272 6.83156 0
M  V30 8754 H 814.707 3.24287 6.14705 0
M  V30 8755 H 817.898 1.92343 4.26757 0
M  V30 8756 H 818.071 2.89096 5.79937 0
M  V30 8757 N 811.477 -1.49425 0.500989 0
M  V30 8758 C 812.705 -2.06861 -0.0403443 0
M  V30 8759 C 813.12 -1.36132 -1.30819 0
M  V30 8760 O 812.477 -0.439647 -1.77125 0
M  V30 8761 C 812.528 -3.6027 -0.297902 0
M  V30 8762 O 812.249 -4.28338 0.919686 0
M  V30 8763 C 813.75 -4.34419 -0.882876 0
M  V30 8764 H 810.97 -0.670688 0.0204619 0
M  V30 8765 H 813.514 -1.92207 0.698342 0
M  V30 8766 H 811.669 -3.74627 -0.98657 0
M  V30 8767 H 812.083 -5.2004 0.682528 0
M  V30 8768 H 813.557 -5.42631 -1.01268 0
M  V30 8769 H 814.034 -3.96898 -1.88066 0
M  V30 8770 H 814.64 -4.24669 -0.231677 0
M  V30 8771 N 812.955 -0.234822 -1.55841 0
M  V30 8772 C 814.201 0.393843 -1.98939 0
M  V30 8773 C 814.534 1.58466 -1.1226 0
M  V30 8774 O 813.809 1.93635 -0.183242 0
M  V30 8775 C 814.092 0.815492 -3.50745 0
M  V30 8776 C 813.945 -0.379878 -4.48193 0
M  V30 8777 C 815.264 1.66687 -4.07312 0
M  V30 8778 H 812.383 0.141681 -0.723253 0
M  V30 8779 H 815.025 -0.333716 -1.87046 0
M  V30 8780 H 813.175 1.43541 -3.6101 0
M  V30 8781 H 814.847 -1.0182 -4.49923 0
M  V30 8782 H 813.09 -1.02507 -4.21515 0
M  V30 8783 H 813.761 -0.0417069 -5.51984 0
M  V30 8784 H 816.237 1.14369 -4.00074 0
M  V30 8785 H 815.113 1.93078 -5.13821 0
M  V30 8786 H 815.374 2.63468 -3.55017 0
M  V30 8787 N 814.433 1.57553 0.0384317 0
M  V30 8788 C 815.365 2.02726 1.06934 0
M  V30 8789 C 816.378 0.938502 1.33026 0
M  V30 8790 O 817.567 1.21595 1.30678 0
M  V30 8791 C 814.667 2.37958 2.41308 0
M  V30 8792 C 813.84 3.69098 2.34703 0
M  V30 8793 C 812.899 3.91623 3.51451 0
M  V30 8794 O 811.925 4.628 3.31368 0
M  V30 8795 N 813.127 3.36538 4.72993 0
M  V30 8796 H 815.892 2.91781 0.684381 0
M  V30 8797 H 813.453 1.60307 0.226542 0
M  V30 8798 H 815.445 2.50172 3.18113 0
M  V30 8799 H 814.015 1.54621 2.71682 0
M  V30 8800 H 813.235 3.67325 1.43059 0
M  V30 8801 H 814.523 4.55144 2.27424 0
M  V30 8802 H 813.921 2.78828 4.92211 0
M  V30 8803 H 812.478 3.54148 5.47195 0
M  V30 8804 N 815.911 -0.310526 1.54511 0
M  V30 8805 C 817.327 -0.655637 1.45511 0
M  V30 8806 C 817.527 -1.91114 0.638564 0
M  V30 8807 O 816.583 -2.52098 0.142497 0
M  V30 8808 C 817.896 -0.817501 2.89374 0
M  V30 8809 C 819.444 -0.914003 2.99358 0
M  V30 8810 C 819.919 -1.10794 4.44397 0
M  V30 8811 N 821.41 -1.17437 4.48066 0
M  V30 8812 C 822.145 -1.34255 5.57461 0
M  V30 8813 N 821.641 -1.48032 6.768 0
M  V30 8814 N 823.434 -1.37067 5.45132 0
M  V30 8815 H 815.585 0.514506 2.06074 0
M  V30 8816 H 817.848 0.168478 0.932909 0
M  V30 8817 H 817.554 0.034003 3.51684 0
M  V30 8818 H 817.428 -1.7094 3.36243 0
M  V30 8819 H 819.815 -1.756 2.37168 0
M  V30 8820 H 819.896 0.00170958 2.558 0
M  V30 8821 H 819.54 -0.270743 5.07178 0
M  V30 8822 H 819.47 -2.03773 4.85576 0
M  V30 8823 H 821.961 -1.08181 3.62084 0
M  V30 8824 H 822.274 -1.60593 7.5593 0
M  V30 8825 H 820.619 -1.45105 6.79683 0
M  V30 8826 H 823.81 -1.25909 4.50849 0
M  V30 8827 H 823.983 -1.49831 6.3044 0
M  V30 8828 N 817.389 -1.46805 -0.573248 0
M  V30 8829 C 818.637 -1.52302 -1.32847 0
M  V30 8830 C 818.958 -0.180159 -1.94166 0
M  V30 8831 O 818.228 0.794291 -1.79075 0
M  V30 8832 H 816.808 -0.56097 -0.493276 0
M  V30 8833 H 819.47 -1.82998 -0.670642 0
M  V30 8834 H 818.566 -2.28089 -2.13031 0
M  V30 8835 N 818.867 0.818669 -1.34668 0
M  V30 8836 C 819.777 1.9616 -1.2868 0
M  V30 8837 C 820.793 1.72918 -0.193742 0
M  V30 8838 O 821.969 1.96951 -0.420975 0
M  V30 8839 C 819.034 3.30534 -1.04633 0
M  V30 8840 C 818.095 3.66755 -2.23136 0
M  V30 8841 C 817.328 4.94717 -2.00227 0
M  V30 8842 O 817.551 5.62218 -0.96264 0
M  V30 8843 O 816.485 5.28915 -2.87286 0
M  V30 8844 H 820.311 2.04157 -2.24842 0
M  V30 8845 H 817.896 0.954691 -1.14917 0
M  V30 8846 H 819.778 4.11005 -0.930216 0
M  V30 8847 H 818.453 3.23495 -0.115139 0
M  V30 8848 H 817.36 2.8671 -2.40308 0
M  V30 8849 H 818.693 3.78484 -3.1466 0
M  V30 8850 N 820.346 1.18468 1.03938 0
M  V30 8851 C 821.576 1.0043 1.80547 0
M  V30 8852 C 821.984 -0.450407 1.83761 0
M  V30 8853 O 821.327 -1.32463 1.27276 0
M  V30 8854 C 821.389 1.48437 3.27424 0
M  V30 8855 C 821.053 2.96372 3.47869 0
M  V30 8856 C 822.05 3.94217 3.38953 0
M  V30 8857 C 819.735 3.34831 3.74424 0
M  V30 8858 C 821.729 5.28517 3.56298 0
M  V30 8859 C 819.416 4.69294 3.91416 0
M  V30 8860 C 820.414 5.65946 3.82354 0
M  V30 8861 O 820.102 6.97974 3.98858 0
M  V30 8862 H 819.834 0.354853 0.575374 0
M  V30 8863 H 822.388 1.57473 1.31876 0
M  V30 8864 H 820.618 0.857601 3.7707 0
M  V30 8865 H 822.307 1.2677 3.85596 0
M  V30 8866 H 823.073 3.6585 3.184 0
M  V30 8867 H 818.952 2.60161 3.80575 0
M  V30 8868 H 822.496 6.03943 3.49141 0
M  V30 8869 H 818.393 4.97361 4.11463 0
M  V30 8870 H 819.161 7.04895 4.1601 0
M  V30 8871 N 821.824 -1.22873 0.986916 0
M  V30 8872 C 823.235 -1.73264 0.695438 0
M  V30 8873 C 823.586 -1.79679 -0.788023 0
M  V30 8874 O 822.711 -1.43905 -1.61618 0
M  V30 8875 C 823.306 -3.14671 1.2557 0
M  V30 8876 C 821.865 -3.62492 1.01373 0
M  V30 8877 C 821.012 -2.40551 1.37951 0
M  V30 8878 H 823.963 -1.08304 1.15999 0
M  V30 8879 H 823.984 -3.75226 0.631322 0
M  V30 8880 H 823.496 -3.0997 2.33539 0
M  V30 8881 H 821.597 -3.72567 -0.0495917 0
M  V30 8882 H 821.71 -4.48944 1.67289 0
M  V30 8883 H 820.074 -2.41875 0.798033 0
M  V30 8884 H 820.857 -2.38516 2.46911 0
M  V30 8885 N 823.302 -0.75937 -1.38099 0
M  V30 8886 C 824.265 -0.14372 -2.28749 0
M  V30 8887 C 825.265 0.641338 -1.47457 0
M  V30 8888 O 826.455 0.466751 -1.67831 0
M  V30 8889 C 823.587 0.804545 -3.3127 0
M  V30 8890 H 824.78 -0.942663 -2.847 0
M  V30 8891 H 822.333 -0.526757 -1.47156 0
M  V30 8892 H 823.068 1.62895 -2.80421 0
M  V30 8893 H 822.853 0.243939 -3.9134 0
M  V30 8894 H 824.343 1.23111 -3.99041 0
M  V30 8895 N 824.78 1.49157 -0.508906 0
M  V30 8896 C 826.026 2.02773 0.0328469 0
M  V30 8897 C 826.359 1.38714 1.35912 0
M  V30 8898 O 825.634 0.525536 1.87266 0
M  V30 8899 C 825.917 3.59664 0.177088 0
M  V30 8900 C 825.77 4.34239 -1.17287 0
M  V30 8901 C 827.089 4.30505 0.913977 0
M  V30 8902 H 824.208 0.736926 0.0104631 0
M  V30 8903 H 826.85 1.781 -0.661851 0
M  V30 8904 H 825 3.80818 0.768774 0
M  V30 8905 H 826.672 4.24561 -1.80404 0
M  V30 8906 H 824.915 3.96486 -1.76016 0
M  V30 8907 H 825.586 5.42397 -1.02516 0
M  V30 8908 H 828.062 4.14054 0.412084 0
M  V30 8909 H 826.938 5.40012 0.983759 0
M  V30 8910 H 827.199 3.96302 1.95951 0
M  V30 8911 N 826.258 0.243083 1.55714 0
M  V30 8912 C 827.208 -0.671915 2.17875 0
M  V30 8913 C 828.192 -1.14199 1.13347 0
M  V30 8914 O 829.384 -1.09239 1.39269 0
M  V30 8915 C 826.513 -1.87027 2.87881 0
M  V30 8916 C 825.599 -1.41888 3.99661 0
M  V30 8917 N 825.99 -0.681465 5.01188 0
M  V30 8918 C 824.288 -1.70447 4.12145 0
M  V30 8919 C 824.989 -0.448285 5.7997 0
M  V30 8920 N 823.965 -1.01137 5.34109 0
M  V30 8921 H 827.767 -0.100321 2.93729 0
M  V30 8922 H 825.281 0.0452371 1.62337 0
M  V30 8923 H 827.278 -2.53674 3.3084 0
M  V30 8924 H 825.938 -2.44613 2.13529 0
M  V30 8925 H 826.949 -0.331959 5.16835 0
M  V30 8926 H 823.626 -2.29198 3.48962 0
M  V30 8927 H 825.016 0.140141 6.71754 0
M  V30 8928 N 827.736 -1.57571 -0.0300757 0
M  V30 8929 C 828.976 -1.91074 -0.725946 0
M  V30 8930 C 829.34 -0.841545 -1.72575 0
M  V30 8931 O 830.541 -1.06088 -2.46979 0
M  V30 8932 C 828.812 -3.2973 -1.37888 0
M  V30 8933 S 830.371 -3.85065 -2.10405 0
M  V30 8934 H 827.189 -0.669084 -0.240515 0
M  V30 8935 H 829.791 -1.9549 0.019384 0
M  V30 8936 H 828.495 -4.05411 -0.637974 0
M  V30 8937 H 828.026 -3.28614 -2.16278 0
M  V30 8938 H 830.041 -3.63711 -3.37533 0
M  V30 8939 N 829.214 0.302327 -1.54673 0
M  V30 8940 C 830.63 0.647911 -1.45857 0
M  V30 8941 C 830.83 1.90773 -0.64869 0
M  V30 8942 O 829.886 2.52018 -0.155865 0
M  V30 8943 C 831.199 0.802144 -2.89804 0
M  V30 8944 C 832.747 0.898114 -2.99838 0
M  V30 8945 C 833.222 1.08436 -4.44978 0
M  V30 8946 N 834.713 1.15059 -4.48682 0
M  V30 8947 C 835.448 1.31296 -5.58166 0
M  V30 8948 N 834.944 1.4444 -6.77576 0
M  V30 8949 N 836.737 1.34174 -5.45851 0
M  V30 8950 H 828.888 -0.525428 -2.05798 0
M  V30 8951 H 831.151 -0.173423 -0.932002 0
M  V30 8952 H 830.857 -0.0526531 -3.51661 0
M  V30 8953 H 830.731 1.69155 -3.37145 0
M  V30 8954 H 833.118 1.7434 -2.38096 0
M  V30 8955 H 833.199 -0.0152752 -2.55795 0
M  V30 8956 H 832.843 0.243843 -5.07314 0
M  V30 8957 H 832.773 2.01195 -4.8665 0
M  V30 8958 H 835.264 1.0626 -3.62653 0
M  V30 8959 H 835.577 1.56582 -7.56771 0
M  V30 8960 H 833.922 1.41499 -6.80443 0
M  V30 8961 H 837.113 1.23516 -4.5151 0
M  V30 8962 H 837.286 1.46485 -6.31226 0
M  V30 8963 N 830.692 1.47107 0.565454 0
M  V30 8964 C 831.92 1.56909 1.3486 0
M  V30 8965 C 832.335 0.216312 1.87557 0
M  V30 8966 O 831.692 -0.789168 1.64555 0
M  V30 8967 C 831.743 2.58776 2.52423 0
M  V30 8968 O 831.464 3.888 2.01906 0
M  V30 8969 C 832.965 2.78683 3.44747 0
M  V30 8970 H 830.185 0.530096 0.411387 0
M  V30 8971 H 832.729 1.92658 0.685782 0
M  V30 8972 H 830.884 2.25983 3.1466 0
M  V30 8973 H 831.298 4.44393 2.78595 0
M  V30 8974 H 832.772 3.53842 4.23674 0
M  V30 8975 H 833.249 1.86208 3.97773 0
M  V30 8976 H 833.855 3.12641 2.88333 0
M  V30 8977 N 832.17 -0.811516 1.35101 0
M  V30 8978 C 833.08 -1.95475 1.29718 0
M  V30 8979 C 834.096 -1.72813 0.202909 0
M  V30 8980 O 835.272 -1.96725 0.431414 0
M  V30 8981 C 832.337 -3.29975 1.06385 0
M  V30 8982 C 831.398 -3.65566 2.25077 0
M  V30 8983 C 830.631 -4.93648 2.02848 0
M  V30 8984 O 830.854 -5.617 0.992442 0
M  V30 8985 O 829.788 -5.27384 2.90087 0
M  V30 8986 H 833.614 -2.02961 2.25921 0
M  V30 8987 H 831.199 -0.948583 1.15422 0
M  V30 8988 H 833.081 -4.10506 0.951999 0
M  V30 8989 H 831.756 -3.2343 0.132294 0
M  V30 8990 H 830.663 -2.85432 2.41825 0
M  V30 8991 H 831.996 -3.7681 3.16662 0
M  V30 8992 N 833.648 -1.19017 -1.03309 0
M  V30 8993 C 834.925 -0.899659 -1.73682 0
M  V30 8994 C 835.305 0.595677 -2.02521 0
M  V30 8995 O 834.653 1.55263 -1.67648 0
M  V30 8996 C 834.863 -1.75508 -3.01659 0
M  V30 8997 C 836.211 -1.98679 -3.75249 0
M  V30 8998 O 837.235 -1.72624 -3.11576 0
M  V30 8999 O 836.094 -2.42587 -4.89708 0
M  V30 9000 H 833.188 -0.334903 -0.756154 0
M  V30 9001 H 835.734 -1.29809 -1.09305 0
M  V30 9002 H 834.506 -2.7684 -2.76542 0
M  V30 9003 H 834.129 -1.35565 -3.73775 0
M  V30 9004 N 835.127 1.22348 -0.993418 0
M  V30 9005 C 836.074 2.24294 -0.544118 0
M  V30 9006 C 837.044 1.60602 0.42381 0
M  V30 9007 O 838.229 1.87952 0.328453 0
M  V30 9008 C 835.369 3.44837 0.134578 0
M  V30 9009 C 834.482 4.23043 -0.875151 0
M  V30 9010 C 833.617 5.30928 -0.169919 0
M  V30 9011 C 832.656 6.00853 -1.16798 0
M  V30 9012 N 831.793 7.00381 -0.491021 0
M  V30 9013 H 836.633 2.6209 -1.4182 0
M  V30 9014 H 834.17 1.2881 -0.710384 0
M  V30 9015 H 836.128 4.13625 0.544998 0
M  V30 9016 H 834.758 3.07804 0.972446 0
M  V30 9017 H 833.81 3.53546 -1.40389 0
M  V30 9018 H 835.122 4.71237 -1.63516 0
M  V30 9019 H 834.276 6.05972 0.297205 0
M  V30 9020 H 833.015 4.8371 0.622586 0
M  V30 9021 H 832.02 5.24591 -1.64573 0
M  V30 9022 H 833.245 6.50159 -1.96137 0
M  V30 9023 H 831.191 6.55393 0.282037 0
M  V30 9024 H 831.108 7.46584 -1.18947 0
M  V30 9025 H 832.376 7.79486 -0.0467169 0
M  V30 9026 N 836.605 0.766683 1.37694 0
M  V30 9027 C 837.553 0.137269 2.32195 0
M  V30 9028 C 838.547 -0.69067 1.54681 0
M  V30 9029 O 839.753 -0.588299 1.70115 0
M  V30 9030 H 836.128 0.0256003 0.751564 0
M  V30 9031 H 838.099 0.950129 2.82869 0
M  V30 9032 C 836.848 -0.731446 3.39919 0
M  V30 9033 H 836.171 -0.103738 3.99665 0
M  V30 9034 H 837.611 -1.13891 4.08417 0
M  V30 9035 C 836.07 -1.87984 2.79578 0
M  V30 9036 O 836.6 -2.97496 2.69924 0
M  V30 9037 N 834.806 -1.6789 2.37195 0
M  V30 9038 H 834.353 -0.788162 2.45246 0
M  V30 9039 H 834.311 -2.44894 1.97165 0
M  V30 9040 N 838.083 -1.48885 0.516809 0
M  V30 9041 C 839.33 -2.02488 -0.0220602 0
M  V30 9042 C 839.658 -1.39513 -1.35523 0
M  V30 9043 O 838.913 -0.52558 -1.8851 0
M  V30 9044 C 839.212 -3.56801 -0.206798 0
M  V30 9045 C 838.878 -4.38496 1.05035 0
M  V30 9046 C 837.54 -4.60538 1.39492 0
M  V30 9047 C 839.892 -4.85909 1.88525 0
M  V30 9048 C 837.22 -5.2724 2.57361 0
M  V30 9049 C 839.572 -5.53909 3.05561 0
M  V30 9050 C 838.236 -5.74193 3.4038 0
M  V30 9051 H 837.506 -0.740956 -0.00807238 0
M  V30 9052 H 840.153 -1.79014 0.680168 0
M  V30 9053 H 838.458 -3.79042 -0.991687 0
M  V30 9054 H 840.155 -3.95885 -0.638447 0
M  V30 9055 H 836.745 -4.2159 0.771984 0
M  V30 9056 H 840.929 -4.68694 1.63218 0
M  V30 9057 H 836.185 -5.41145 2.84556 0
M  V30 9058 H 840.359 -5.89619 3.7057 0
M  V30 9059 H 837.986 -6.25652 4.31814 0
M  V30 9060 N 839.561 -0.251338 -1.55583 0
M  V30 9061 C 840.786 0.379136 -2.03905 0
M  V30 9062 C 841.211 1.50428 -1.12929 0
M  V30 9063 O 840.569 1.80882 -0.123114 0
M  V30 9064 C 840.617 0.86009 -3.50193 0
M  V30 9065 O 839.721 1.96932 -3.62342 0
M  V30 9066 H 839.062 0.0820183 -0.658915 0
M  V30 9067 H 841.592 -0.378692 -2.01065 0
M  V30 9068 H 841.602 1.16214 -3.91099 0
M  V30 9069 H 840.277 0.0367559 -4.15884 0
M  V30 9070 H 838.854 1.67163 -3.33333 0
M  V30 9071 N 841.039 1.57585 0.0217189 0
M  V30 9072 C 841.969 2.10073 1.01939 0
M  V30 9073 C 842.95 1.0049 1.37243 0
M  V30 9074 O 844.135 1.28055 1.45999 0
M  V30 9075 C 841.265 2.58618 2.31806 0
M  V30 9076 C 840.219 3.72531 2.10724 0
M  V30 9077 C 839.545 4.07309 3.46415 0
M  V30 9078 C 840.845 5.00672 1.48743 0
M  V30 9079 H 842.539 2.9368 0.582432 0
M  V30 9080 H 840.085 1.41277 0.278715 0
M  V30 9081 H 842.038 2.9396 3.01936 0
M  V30 9082 H 840.762 1.72104 2.77575 0
M  V30 9083 H 839.421 3.37549 1.43025 0
M  V30 9084 H 839.069 3.17851 3.89846 0
M  V30 9085 H 838.769 4.84042 3.33132 0
M  V30 9086 H 840.293 4.45192 4.17895 0
M  V30 9087 H 841.707 5.33925 2.088 0
M  V30 9088 H 840.104 5.82065 1.46013 0
M  V30 9089 H 841.174 4.82769 0.45408 0
M  V30 9090 N 842.517 -0.29412 1.54831 0
M  V30 9091 C 843.465 -1.38296 1.87021 0
M  V30 9092 C 844.459 -1.5216 0.744557 0
M  V30 9093 O 845.665 -1.54196 0.92864 0
M  V30 9094 H 842.04 -0.462088 0.593278 0
M  V30 9095 H 844.011 -1.08386 2.7802 0
M  V30 9096 C 842.76 -2.74024 2.14023 0
M  V30 9097 H 842.083 -2.6414 3.00117 0
M  V30 9098 H 843.523 -3.49205 2.40482 0
M  V30 9099 C 841.982 -3.23492 0.940982 0
M  V30 9100 O 842.512 -4.01361 0.164937 0
M  V30 9101 N 840.718 -2.80902 0.744467 0
M  V30 9102 H 840.265 -2.17694 1.37721 0
M  V30 9103 H 840.223 -3.14349 -0.0563652 0
M  V30 9104 N 843.995 -1.47404 -0.557645 0
M  V30 9105 C 844.925 -1.62736 -1.67449 0
M  V30 9106 C 845.906 -0.476824 -1.6328 0
M  V30 9107 O 847.091 -0.706108 -1.80908 0
M  V30 9108 C 844.221 -1.641 -3.06086 0
M  V30 9109 C 843.175 -2.78377 -3.25101 0
M  V30 9110 C 842.501 -2.64812 -4.6452 0
M  V30 9111 C 843.801 -4.19971 -3.10518 0
M  V30 9112 H 845.495 -2.56232 -1.54873 0
M  V30 9113 H 843.041 -1.23312 -0.743649 0
M  V30 9114 H 844.994 -1.73417 -3.84063 0
M  V30 9115 H 843.718 -0.671652 -3.19619 0
M  V30 9116 H 842.377 -2.6857 -2.49531 0
M  V30 9117 H 842.025 -1.65906 -4.74852 0
M  V30 9118 H 841.725 -3.41477 -4.78191 0
M  V30 9119 H 843.249 -2.76057 -5.44633 0
M  V30 9120 H 844.663 -4.30757 -3.78313 0
M  V30 9121 H 843.06 -4.97419 -3.35699 0
M  V30 9122 H 844.13 -4.38369 -2.0727 0
M  V30 9123 N 845.473 0.80434 -1.35529 0
M  V30 9124 C 846.721 1.55845 -1.28673 0
M  V30 9125 C 847.042 1.94511 0.137976 0
M  V30 9126 O 846.312 1.63775 1.07492 0
M  V30 9127 H 844.892 0.577931 -0.473291 0
M  V30 9128 H 847.554 0.959293 -1.69657 0
M  V30 9129 H 846.65 2.47285 -1.90411 0
M  V30 9130 N 846.951 1.19563 1.02676 0
M  V30 9131 C 847.881 0.959024 2.12897 0
M  V30 9132 C 848.862 -0.108382 1.69754 0
M  V30 9133 O 850.047 0.0470698 1.94143 0
M  V30 9134 C 847.177 0.499211 3.43693 0
M  V30 9135 C 846.131 1.5087 4.00528 0
M  V30 9136 C 845.457 0.905884 5.2697 0
M  V30 9137 C 846.757 2.88954 4.3509 0
M  V30 9138 H 848.451 1.88084 2.32948 0
M  V30 9139 H 845.997 0.905731 1.11949 0
M  V30 9140 H 847.95 0.320965 4.20176 0
M  V30 9141 H 846.674 -0.458205 3.2337 0
M  V30 9142 H 845.333 1.67413 3.26142 0
M  V30 9143 H 844.981 -0.0591506 5.02965 0
M  V30 9144 H 844.681 1.58 5.65959 0
M  V30 9145 H 846.205 0.73848 6.06118 0
M  V30 9146 H 847.619 2.75981 5.02501 0
M  V30 9147 H 846.016 3.53177 4.85166 0
M  V30 9148 H 847.086 3.41447 3.44299 0
M  V30 9149 N 848.429 -1.21819 0.999893 0
M  V30 9150 C 849.359 -2.26282 0.576096 0
M  V30 9151 C 850.34 -1.65317 -0.400537 0
M  V30 9152 O 851.525 -1.92028 -0.28964 0
M  V30 9153 C 848.655 -3.47147 -0.103145 0
M  V30 9154 C 847.609 -4.20594 0.792745 0
M  V30 9155 C 846.935 -5.34696 -0.0198026 0
M  V30 9156 C 848.235 -4.78533 2.09293 0
M  V30 9157 H 849.929 -2.61984 1.4493 0
M  V30 9158 H 847.475 -1.25935 0.698316 0
M  V30 9159 H 849.428 -4.1939 -0.411068 0
M  V30 9160 H 848.152 -3.1056 -1.01094 0
M  V30 9161 H 846.811 -3.50194 1.08442 0
M  V30 9162 H 846.459 -4.94352 -0.928729 0
M  V30 9163 H 846.159 -5.84764 0.576661 0
M  V30 9164 H 847.683 -6.09752 -0.321659 0
M  V30 9165 H 849.097 -5.42682 1.8485 0
M  V30 9166 H 847.494 -5.38968 2.63881 0
M  V30 9167 H 848.564 -3.98197 2.76708 0
M  V30 9168 N 849.908 -0.773975 -1.37286 0
M  V30 9169 C 851.185 -0.263942 -1.93811 0
M  V30 9170 C 851.565 1.24138 -1.70743 0
M  V30 9171 O 850.913 2.02557 -1.05749 0
M  V30 9172 C 851.123 -0.639753 -3.43086 0
M  V30 9173 C 852.471 -0.610796 -4.20184 0
M  V30 9174 O 853.495 -0.579278 -3.51458 0
M  V30 9175 O 852.354 -0.639862 -5.42741 0
M  V30 9176 H 849.448 -0.0614331 -0.824715 0
M  V30 9177 H 851.994 -0.855477 -1.46559 0
M  V30 9178 H 850.766 -1.67856 -3.53469 0
M  V30 9179 H 850.389 -0.0212827 -3.97594 0
M  V30 9180 N 851.386 1.48609 -0.524698 0
M  V30 9181 C 852.633 2.02497 0.0113214 0
M  V30 9182 C 852.961 1.40229 1.34781 0
M  V30 9183 O 852.216 0.53557 1.88229 0
M  V30 9184 C 852.515 3.56906 0.187873 0
M  V30 9185 C 852.181 4.37932 -1.07359 0
M  V30 9186 C 850.843 4.59792 -1.41933 0
M  V30 9187 C 853.195 4.84902 -1.911 0
M  V30 9188 C 850.523 5.25868 -2.60154 0
M  V30 9189 C 852.875 5.52281 -3.08495 0
M  V30 9190 C 851.539 5.7238 -3.4342 0
M  V30 9191 H 850.809 0.740988 0.0041428 0
M  V30 9192 H 853.456 1.78651 -0.689652 0
M  V30 9193 H 851.761 3.79563 0.971572 0
M  V30 9194 H 853.458 3.96218 0.617443 0
M  V30 9195 H 850.048 4.21175 -0.794331 0
M  V30 9196 H 854.232 4.67821 -1.65701 0
M  V30 9197 H 849.488 5.39628 -2.87422 0
M  V30 9198 H 853.662 5.87645 -3.73692 0
M  V30 9199 H 851.289 6.23354 -4.35126 0
M  V30 9200 N 852.864 0.259585 1.55447 0
M  V30 9201 C 854.112 -0.360893 1.98852 0
M  V30 9202 C 854.433 -1.57535 1.14924 0
M  V30 9203 O 853.703 -1.94485 0.235025 0
M  V30 9204 H 852.283 -0.136332 0.734454 0
M  V30 9205 H 854.945 0.361319 1.91522 0
M  V30 9206 H 854.041 -0.661388 3.05012 0
M  V30 9207 N 854.342 -1.57594 -0.0133615 0
M  V30 9208 C 855.305 -2.06534 -0.993799 0
M  V30 9209 C 856.305 -0.972267 -1.28077 0
M  V30 9210 O 857.495 -1.23537 -1.22818 0
M  V30 9211 C 854.627 -2.49554 -2.3224 0
M  V30 9212 H 855.82 -2.94419 -0.570741 0
M  V30 9213 H 853.373 -1.54113 -0.260546 0
M  V30 9214 H 854.108 -1.64872 -2.79263 0
M  V30 9215 H 853.893 -3.29371 -2.12737 0
M  V30 9216 H 855.383 -2.8779 -3.026 0
M  V30 9217 N 855.82 0.285905 -1.54985 0
M  V30 9218 C 856.783 1.33625 -1.86218 0
M  V30 9219 C 857.783 1.42971 -0.735936 0
M  V30 9220 O 858.973 1.42345 -1.00417 0
M  V30 9221 C 856.105 2.71926 -2.05595 0
M  V30 9222 H 857.298 1.07167 -2.80099 0
M  V30 9223 H 854.851 0.523335 -1.47278 0
M  V30 9224 H 855.586 3.03583 -1.14053 0
M  V30 9225 H 855.371 2.6653 -2.87583 0
M  V30 9226 H 856.861 3.47841 -2.31077 0
M  V30 9227 N 857.298 1.47698 0.54982 0
M  V30 9228 C 858.528 1.58101 1.32995 0
M  V30 9229 C 858.936 0.232939 1.87761 0
M  V30 9230 O 858.279 -0.785058 1.6608 0
M  V30 9231 C 858.341 2.55228 2.53178 0
M  V30 9232 C 858.005 4.00756 2.19645 0
M  V30 9233 C 859.002 4.89025 1.76496 0
M  V30 9234 C 856.687 4.46147 2.30777 0
M  V30 9235 C 858.681 6.20707 1.44919 0
M  V30 9236 C 856.368 5.77856 1.98812 0
M  V30 9237 C 857.366 6.64957 1.55952 0
M  V30 9238 O 857.054 7.94217 1.24396 0
M  V30 9239 H 856.786 0.536362 0.411451 0
M  V30 9240 H 859.34 1.94092 0.67212 0
M  V30 9241 H 857.57 2.14319 3.21876 0
M  V30 9242 H 859.259 2.55678 3.15251 0
M  V30 9243 H 860.025 4.55201 1.67383 0
M  V30 9244 H 855.904 3.78552 2.63096 0
M  V30 9245 H 859.448 6.88649 1.11392 0
M  V30 9246 H 855.345 6.11219 2.0756 0
M  V30 9247 H 856.113 8.06789 1.37964 0
M  V30 9248 N 858.776 -0.797141 1.35954 0
M  V30 9249 C 859.706 -1.92387 1.32323 0
M  V30 9250 C 860.687 -1.68967 0.196007 0
M  V30 9251 O 861.872 -1.90193 0.39245 0
M  V30 9252 C 859.002 -3.29286 1.10398 0
M  V30 9253 C 857.956 -3.67212 2.19862 0
M  V30 9254 C 857.282 -5.02377 1.8309 0
M  V30 9255 C 858.582 -3.76602 3.61896 0
M  V30 9256 H 860.276 -1.95683 2.26602 0
M  V30 9257 H 857.822 -0.94007 1.09081 0
M  V30 9258 H 859.775 -4.07721 1.06495 0
M  V30 9259 H 858.499 -3.26358 0.125668 0
M  V30 9260 H 857.158 -2.91069 2.22878 0
M  V30 9261 H 856.806 -4.95961 0.838527 0
M  V30 9262 H 856.506 -5.28722 2.56372 0
M  V30 9263 H 858.03 -5.8324 1.80729 0
M  V30 9264 H 859.444 -4.45246 3.6115 0
M  V30 9265 H 857.841 -4.14425 4.34018 0
M  V30 9266 H 858.911 -2.77906 3.97361 0
M  V30 9267 N 860.254 -1.20106 -1.0204 0
M  V30 9268 C 861.501 -1.00889 -1.75578 0
M  V30 9269 C 861.829 0.459415 -1.88996 0
M  V30 9270 O 861.084 1.35735 -1.40977 0
M  V30 9271 C 861.383 -1.63308 -3.17908 0
M  V30 9272 C 861.049 -3.13091 -3.24476 0
M  V30 9273 C 859.711 -3.53968 -3.25976 0
M  V30 9274 C 862.063 -4.09093 -3.22944 0
M  V30 9275 C 859.391 -4.89381 -3.2361 0
M  V30 9276 C 861.743 -5.44447 -3.22119 0
M  V30 9277 C 860.407 -5.84742 -3.2192 0
M  V30 9278 H 859.677 -0.36918 -0.642485 0
M  V30 9279 H 862.324 -1.49475 -1.19706 0
M  V30 9280 H 860.629 -1.06974 -3.76914 0
M  V30 9281 H 862.326 -1.45958 -3.73493 0
M  V30 9282 H 858.916 -2.80526 -3.24042 0
M  V30 9283 H 863.1 -3.78549 -3.20958 0
M  V30 9284 H 858.356 -5.1987 -3.21785 0
M  V30 9285 H 862.53 -6.18584 -3.19885 0
M  V30 9286 H 860.157 -6.89642 -3.19841 0
M  V30 9287 N 861.732 1.21287 -1.00634 0
M  V30 9288 C 862.978 1.90671 -0.690822 0
M  V30 9289 C 863.311 1.77996 0.776592 0
M  V30 9290 O 862.586 1.15748 1.5631 0
M  V30 9291 C 862.869 3.42426 -1.11428 0
M  V30 9292 C 862.722 3.64086 -2.64124 0
M  V30 9293 C 864.041 4.34851 -0.677686 0
M  V30 9294 H 861.16 0.692419 -0.252439 0
M  V30 9295 H 863.802 1.42893 -1.25226 0
M  V30 9296 H 861.952 3.83249 -0.636586 0
M  V30 9297 H 863.624 3.32582 -3.19667 0
M  V30 9298 H 861.867 3.07906 -3.05576 0
M  V30 9299 H 862.538 4.7042 -2.88806 0
M  V30 9300 H 865.014 4.01619 -1.0882 0
M  V30 9301 H 863.89 5.39675 -1.00213 0
M  V30 9302 H 864.151 4.4009 0.421125 0
M  V30 9303 N 863.21 0.781244 1.36873 0
M  V30 9304 C 864.459 0.34652 1.98701 0
M  V30 9305 C 864.772 -1.08555 1.62712 0
M  V30 9306 O 865.978 -1.62213 2.17713 0
M  V30 9307 C 864.434 0.568611 3.5538 0
M  V30 9308 C 864.042 2.01156 4.003 0
M  V30 9309 C 865.786 0.197983 4.24038 0
M  V30 9310 C 863.693 2.18074 5.49725 0
M  V30 9311 H 862.623 0.125821 0.743428 0
M  V30 9312 H 865.274 0.961721 1.56279 0
M  V30 9313 H 863.656 -0.116185 3.9583 0
M  V30 9314 H 864.83 2.73209 3.71071 0
M  V30 9315 H 863.145 2.33967 3.44454 0
M  V30 9316 H 865.742 0.302778 5.33842 0
M  V30 9317 H 866.085 -0.852927 4.07469 0
M  V30 9318 H 866.618 0.835696 3.88923 0
M  V30 9319 H 863.357 3.21519 5.71232 0
M  V30 9320 H 862.877 1.50517 5.80607 0
M  V30 9321 H 864.556 1.98393 6.15832 0
M  V30 9322 N 864.689 -1.48329 0.532571 0
M  V30 9323 C 865.917 -2.069 0.00354299 0
M  V30 9324 C 866.332 -1.38876 -1.27902 0
M  V30 9325 O 865.689 -0.477119 -1.76153 0
M  V30 9326 C 865.74 -3.60821 -0.221416 0
M  V30 9327 O 865.461 -4.26291 1.01034 0
M  V30 9328 C 866.962 -4.36194 -0.790531 0
M  V30 9329 H 864.182 -0.670103 0.0346836 0
M  V30 9330 H 866.726 -1.90682 0.738955 0
M  V30 9331 H 864.881 -3.76636 -0.906884 0
M  V30 9332 H 865.295 -5.18475 0.792683 0
M  V30 9333 H 866.769 -5.44657 -0.897347 0
M  V30 9334 H 867.246 -4.00798 -1.79605 0
M  V30 9335 H 867.852 -4.25064 -0.141546 0
M  V30 9336 N 866.167 -0.267825 -1.55308 0
M  V30 9337 C 867.115 0.638848 -2.23655 0
M  V30 9338 C 868.109 1.16363 -1.2311 0
M  V30 9339 O 869.315 1.1181 -1.41062 0
M  V30 9340 H 865.69 0.224551 -0.717691 0
M  V30 9341 H 867.661 0.0394809 -2.98374 0
M  V30 9342 C 866.41 1.8151 -2.96562 0
M  V30 9343 H 865.733 1.42048 -3.73715 0
M  V30 9344 H 867.173 2.42629 -3.47717 0
M  V30 9345 C 865.632 2.69911 -2.01618 0
M  V30 9346 O 866.162 3.70058 -1.56268 0
M  V30 9347 N 864.368 2.36924 -1.68272 0
M  V30 9348 H 863.915 1.55533 -2.05347 0
M  V30 9349 H 863.873 2.96343 -1.05016 0
M  V30 9350 N 867.645 1.57599 0.00500368 0
M  V30 9351 C 868.593 2.09223 1.01628 0
M  V30 9352 C 869.587 1.01113 1.35913 0
M  V30 9353 O 870.793 1.19583 1.34536 0
M  V30 9354 H 867.168 0.667999 0.345372 0
M  V30 9355 H 869.139 2.93188 0.555274 0
M  V30 9356 C 867.888 2.60674 2.30097 0
M  V30 9357 H 867.211 3.43491 2.04582 0
M  V30 9358 H 868.651 3.00479 2.99146 0
M  V30 9359 C 867.11 1.51862 3.00731 0
M  V30 9360 O 867.64 0.898651 3.91519 0
M  V30 9361 N 865.846 1.24729 2.62471 0
M  V30 9362 H 865.393 1.7533 1.88725 0
M  V30 9363 H 865.351 0.521437 3.10046 0
M  V30 9364 N 869.123 -0.277682 1.55134 0
M  V30 9365 C 870.351 -1.02826 1.7954 0
M  V30 9366 C 870.766 -1.80105 0.566373 0
M  V30 9367 O 870.123 -1.76491 -0.464448 0
M  V30 9368 C 870.174 -1.99053 3.01762 0
M  V30 9369 O 869.895 -1.24906 4.19917 0
M  V30 9370 C 871.396 -2.85961 3.38735 0
M  V30 9371 H 868.616 -0.303958 0.598206 0
M  V30 9372 H 871.16 -0.309884 2.02138 0
M  V30 9373 H 869.315 -2.66359 2.81303 0
M  V30 9374 H 869.729 -1.89725 4.88983 0
M  V30 9375 H 871.203 -3.49286 4.27438 0
M  V30 9376 H 871.68 -3.55486 2.57928 0
M  V30 9377 H 872.286 -2.24152 3.61436 0
M  V30 9378 N 870.601 -1.47988 -0.541979 0
M  V30 9379 C 871.549 -1.62044 -1.66867 0
M  V30 9380 C 872.543 -0.487217 -1.62242 0
M  V30 9381 O 873.749 -0.66554 -1.67244 0
M  V30 9382 H 870.124 -0.51024 -0.552412 0
M  V30 9383 H 872.095 -2.56695 -1.52153 0
M  V30 9384 C 870.844 -1.66615 -3.0518 0
M  V30 9385 H 870.167 -2.5317 -3.09427 0
M  V30 9386 H 871.607 -1.80496 -3.83663 0
M  V30 9387 C 870.066 -0.402421 -3.34488 0
M  V30 9388 O 870.596 0.48992 -3.98701 0
M  V30 9389 N 868.802 -0.277778 -2.89269 0
M  V30 9390 H 868.349 -1.00488 -2.37192 0
M  V30 9391 H 868.307 0.566784 -3.09249 0
M  V30 9392 N 872.079 0.78992 -1.36375 0
M  V30 9393 C 873.011 1.91113 -1.26524 0
M  V30 9394 C 874.024 1.61747 -0.184851 0
M  V30 9395 O 875.213 1.73004 -0.439524 0
M  V30 9396 C 872.313 3.25908 -0.92937 0
M  V30 9397 C 871.486 3.83057 -2.11154 0
M  V30 9398 C 870.545 4.96289 -1.74881 0
M  V30 9399 O 869.571 5.12834 -2.46962 0
M  V30 9400 N 870.773 5.76478 -0.682193 0
M  V30 9401 H 873.538 2.00085 -2.23128 0
M  V30 9402 H 871.099 0.968165 -1.29762 0
M  V30 9403 H 873.091 3.99151 -0.667884 0
M  V30 9404 H 871.661 3.12556 -0.0524843 0
M  V30 9405 H 870.881 3.01808 -2.53586 0
M  V30 9406 H 872.169 4.1797 -2.90135 0
M  V30 9407 H 871.567 5.65638 -0.0836661 0
M  V30 9408 H 870.124 6.50026 -0.480529 0
M  V30 9409 N 873.557 1.20646 1.01402 0
M  V30 9410 C 874.805 1.01618 1.74695 0
M  V30 9411 C 875.126 -0.452438 1.89679 0
M  V30 9412 O 874.396 -1.32693 1.44116 0
M  V30 9413 H 872.976 0.373013 0.647202 0
M  V30 9414 H 875.638 1.518 1.22241 0
M  V30 9415 H 874.734 1.47666 2.74957 0
M  V30 9416 N 875.035 -1.20752 1.01276 0
M  V30 9417 C 875.965 -2.25658 0.600064 0
M  V30 9418 C 876.946 -1.65733 -0.38298 0
M  V30 9419 O 878.131 -1.92324 -0.269256 0
M  V30 9420 C 875.261 -3.47237 -0.0663197 0
M  V30 9421 C 874.215 -4.1973 0.83731 0
M  V30 9422 C 873.541 -5.34687 0.0369102 0
M  V30 9423 C 874.841 -4.76286 2.14357 0
M  V30 9424 H 876.535 -2.60432 1.477 0
M  V30 9425 H 874.081 -1.25187 0.711634 0
M  V30 9426 H 876.034 -4.19803 -0.366563 0
M  V30 9427 H 874.758 -3.11615 -0.977944 0
M  V30 9428 H 873.417 -3.49024 1.1215 0
M  V30 9429 H 873.065 -4.95309 -0.876244 0
M  V30 9430 H 872.765 -5.84119 0.63865 0
M  V30 9431 H 874.289 -6.10059 -0.256968 0
M  V30 9432 H 875.703 -5.40691 1.90595 0
M  V30 9433 H 874.1 -5.36139 2.69583 0
M  V30 9434 H 875.17 -3.9524 2.80916 0
M  V30 9435 N 876.513 -0.788492 -1.36457 0
M  V30 9436 C 877.445 -0.144208 -2.28746 0
M  V30 9437 C 878.458 0.646009 -1.49434 0
M  V30 9438 O 879.647 0.481344 -1.71888 0
M  V30 9439 C 876.747 0.818869 -3.28858 0
M  V30 9440 C 875.92 0.0789055 -4.37329 0
M  V30 9441 C 874.979 0.957791 -5.1741 0
M  V30 9442 O 874.005 0.415378 -5.67682 0
M  V30 9443 N 875.207 2.28216 -5.33758 0
M  V30 9444 H 877.972 -0.936949 -2.84678 0
M  V30 9445 H 875.533 -0.642317 -1.48613 0
M  V30 9446 H 877.525 1.41065 -3.79319 0
M  V30 9447 H 876.095 1.51249 -2.73573 0
M  V30 9448 H 875.315 -0.693939 -3.88044 0
M  V30 9449 H 876.603 -0.431753 -5.06965 0
M  V30 9450 H 876.001 2.747 -4.94527 0
M  V30 9451 H 874.558 2.8236 -5.87466 0
M  V30 9452 N 877.991 1.48044 -0.54043 0
M  V30 9453 C 878.954 2.28273 0.205966 0
M  V30 9454 C 879.954 1.35983 0.858209 0
M  V30 9455 O 881.144 1.58776 0.716651 0
M  V30 9456 C 878.276 3.15174 1.29917 0
M  V30 9457 H 879.469 2.95727 -0.498555 0
M  V30 9458 H 877.022 1.53457 -0.296745 0
M  V30 9459 H 877.757 2.52374 2.03661 0
M  V30 9460 H 877.542 3.83074 0.836475 0
M  V30 9461 H 879.032 3.75666 1.82387 0
M  V30 9462 N 879.47 0.276058 1.55163 0
M  V30 9463 C 880.716 -0.333945 2.0064 0
M  V30 9464 C 881.071 -1.53414 1.16111 0
M  V30 9465 O 880.364 -1.90293 0.22341 0
M  V30 9466 C 880.558 -0.765744 3.491 0
M  V30 9467 C 880.387 0.391068 4.47996 0
M  V30 9468 C 879.157 0.875151 4.97664 0
M  V30 9469 C 881.355 1.22786 4.99428 0
M  V30 9470 N 879.337 2.00133 5.80362 0
M  V30 9471 C 880.708 2.20192 5.79582 0
M  V30 9472 C 882.763 1.26109 4.81665 0
M  V30 9473 C 881.466 3.20667 6.43868 0
M  V30 9474 C 883.492 2.2543 5.4675 0
M  V30 9475 C 882.854 3.21568 6.26716 0
M  V30 9476 H 878.953 -0.087345 0.777107 0
M  V30 9477 H 881.537 0.400294 1.90541 0
M  V30 9478 H 879.708 -1.46921 3.5954 0
M  V30 9479 H 881.44 -1.35316 3.81407 0
M  V30 9480 H 878.195 0.454297 4.71416 0
M  V30 9481 H 878.619 2.56806 6.26402 0
M  V30 9482 H 883.261 0.531622 4.19444 0
M  V30 9483 H 880.979 3.94547 7.05236 0
M  V30 9484 H 884.565 2.28744 5.34946 0
M  V30 9485 H 883.445 3.97164 6.76188 0
M  V30 9486 N 880.948 -1.576 0.00335426 0
M  V30 9487 C 881.895 -2.08632 -0.986975 0
M  V30 9488 C 882.865 -0.982491 -1.33927 0
M  V30 9489 O 884.05 -1.25513 -1.43705 0
M  V30 9490 C 881.19 -2.59705 -2.27261 0
M  V30 9491 C 880.303 -3.84002 -1.97905 0
M  V30 9492 C 879.438 -4.23563 -3.20574 0
M  V30 9493 C 878.477 -5.40688 -2.8692 0
M  V30 9494 N 877.614 -5.75526 -4.02136 0
M  V30 9495 H 882.454 -2.92977 -0.544855 0
M  V30 9496 H 879.991 -1.44831 -0.257376 0
M  V30 9497 H 881.949 -2.87395 -3.02423 0
M  V30 9498 H 880.579 -1.7823 -2.69136 0
M  V30 9499 H 879.631 -3.63199 -1.13096 0
M  V30 9500 H 880.943 -4.69261 -1.69102 0
M  V30 9501 H 880.097 -4.52554 -4.04079 0
M  V30 9502 H 878.836 -3.37019 -3.52518 0
M  V30 9503 H 877.841 -5.11417 -2.01822 0
M  V30 9504 H 879.066 -6.2891 -2.5622 0
M  V30 9505 H 877.012 -4.9194 -4.33971 0
M  V30 9506 H 876.929 -6.55367 -3.76869 0
M  V30 9507 H 878.197 -6.0911 -4.8642 0
M  V30 9508 N 882.426 0.269451 -1.5528 0
M  V30 9509 C 883.675 0.998381 -1.75258 0
M  V30 9510 C 883.988 1.87321 -0.563034 0
M  V30 9511 O 885.194 2.63719 -0.645313 0
M  V30 9512 C 883.65 1.82505 -3.10193 0
M  V30 9513 C 883.258 0.99871 -4.36726 0
M  V30 9514 C 885.002 2.54807 -3.3952 0
M  V30 9515 C 882.909 1.81997 -5.627 0
M  V30 9516 H 881.839 0.376488 -0.653278 0
M  V30 9517 H 884.49 0.253909 -1.81735 0
M  V30 9518 H 882.872 2.61061 -2.97763 0
M  V30 9519 H 884.046 0.257064 -4.60082 0
M  V30 9520 H 882.361 0.390074 -4.14569 0
M  V30 9521 H 884.958 3.16662 -4.30847 0
M  V30 9522 H 885.301 3.25273 -2.59813 0
M  V30 9523 H 885.834 1.83278 -3.53064 0
M  V30 9524 H 882.573 1.15945 -6.45164 0
M  V30 9525 H 882.093 2.53749 -5.43481 0
M  V30 9526 H 883.772 2.39274 -6.0113 0
M  V30 9527 N 883.904 1.48273 0.534124 0
M  V30 9528 C 884.814 1.65162 1.66609 0
M  V30 9529 C 885.83 0.534177 1.65598 0
M  V30 9530 O 887.006 0.804715 1.84625 0
M  V30 9531 C 884.071 1.68354 3.03081 0
M  V30 9532 C 883.132 2.91696 3.1498 0
M  V30 9533 C 882.365 2.94725 4.44941 0
M  V30 9534 O 882.588 2.06285 5.31792 0
M  V30 9535 O 881.522 3.8685 4.61119 0
M  V30 9536 H 885.348 2.60991 1.55298 0
M  V30 9537 H 882.933 1.31626 0.706749 0
M  V30 9538 H 884.815 1.72998 3.84252 0
M  V30 9539 H 883.49 0.756978 3.14725 0
M  V30 9540 H 882.397 2.92586 2.33119 0
M  V30 9541 H 883.73 3.83722 3.0825 0
M  V30 9542 N 885.382 -0.782676 1.36792 0
M  V30 9543 C 886.659 -1.52939 1.21939 0
M  V30 9544 C 887.039 -2.10228 -0.191639 0
M  V30 9545 O 886.387 -1.94574 -1.19805 0
M  V30 9546 C 886.597 -2.61898 2.30674 0
M  V30 9547 C 887.945 -3.29598 2.67676 0
M  V30 9548 O 888.969 -2.72186 2.29768 0
M  V30 9549 O 887.828 -4.3337 3.32946 0
M  V30 9550 H 884.922 -0.676856 0.47518 0
M  V30 9551 H 887.468 -0.82058 1.48542 0
M  V30 9552 H 886.24 -2.17607 3.25212 0
M  V30 9553 H 885.863 -3.40391 2.05475 0
M  V30 9554 N 886.86 -1.21182 -1.00761 0
M  V30 9555 C 888.109 -1.02166 -1.73911 0
M  V30 9556 C 888.422 0.445638 -1.90456 0
M  V30 9557 O 889.628 0.755132 -2.60787 0
M  V30 9558 C 888.084 -1.77936 -3.12837 0
M  V30 9559 C 887.692 -3.28819 -3.04273 0
M  V30 9560 C 889.436 -1.67319 -3.90134 0
M  V30 9561 C 887.343 -3.97089 -4.38262 0
M  V30 9562 H 886.273 -0.378665 -0.652019 0
M  V30 9563 H 888.924 -1.44891 -1.12601 0
M  V30 9564 H 887.306 -1.28003 -3.74742 0
M  V30 9565 H 888.48 -3.86035 -2.51622 0
M  V30 9566 H 886.795 -3.39949 -2.40465 0
M  V30 9567 H 889.392 -2.15659 -4.8928 0
M  V30 9568 H 889.735 -0.630959 -4.11491 0
M  V30 9569 H 890.268 -2.14716 -3.34876 0
M  V30 9570 H 887.007 -5.01503 -4.22107 0
M  V30 9571 H 886.527 -3.44662 -4.90885 0
M  V30 9572 H 888.206 -4.01854 -5.07072 0
M  V30 9573 N 888.338 1.20213 -1.01915 0
M  V30 9574 C 889.749 1.7136 -0.741131 0
M  V30 9575 C 890.1 1.81705 0.740107 0
M  V30 9576 O 889.225 1.48139 1.57746 0
M  V30 9577 C 889.82 3.11231 -1.33869 0
M  V30 9578 C 888.379 3.59677 -1.10948 0
M  V30 9579 C 887.526 2.36809 -1.4428 0
M  V30 9580 H 890.477 1.05191 -1.1883 0
M  V30 9581 H 890.498 3.7342 -0.730585 0
M  V30 9582 H 890.01 3.03669 -2.41675 0
M  V30 9583 H 888.111 3.72568 -0.0492052 0
M  V30 9584 H 888.224 4.44351 -1.79134 0
M  V30 9585 H 886.588 2.39674 -0.861881 0
M  V30 9586 H 887.371 2.31886 -2.53148 0
M  V30 9587 N 889.816 0.795718 1.36037 0
M  V30 9588 C 890.779 0.204318 2.28287 0
M  V30 9589 C 891.779 -0.602017 1.49105 0
M  V30 9590 O 892.969 -0.422089 1.69009 0
M  V30 9591 C 890.101 -0.716431 3.33287 0
M  V30 9592 H 891.294 1.01781 2.821 0
M  V30 9593 H 888.847 0.565588 1.45708 0
M  V30 9594 H 889.582 -1.55403 2.84641 0
M  V30 9595 H 889.367 -0.140096 3.9185 0
M  V30 9596 H 890.857 -1.12488 4.02164 0
M  V30 9597 N 891.294 -1.47756 0.548274 0
M  V30 9598 C 892.242 -2.3158 -0.217584 0
M  V30 9599 C 893.236 -1.42372 -0.917957 0
M  V30 9600 O 894.442 -1.59184 -0.840259 0
M  V30 9601 H 890.817 -0.74671 -0.0890388 0
M  V30 9602 H 892.788 -2.94032 0.508719 0
M  V30 9603 C 891.537 -3.24834 -1.24008 0
M  V30 9604 H 890.86 -3.93435 -0.710572 0
M  V30 9605 H 892.3 -3.86336 -1.74701 0
M  V30 9606 C 890.759 -2.47724 -2.2833 0
M  V30 9607 O 891.289 -2.21522 -3.35098 0
M  V30 9608 N 889.495 -2.08891 -2.02022 0
M  V30 9609 H 889.042 -2.30401 -1.1521 0
M  V30 9610 H 889 -1.57613 -2.7204 0
M  V30 9611 N 892.772 -0.284283 -1.55015 0
M  V30 9612 C 893.719 0.599194 -2.22886 0
M  V30 9613 C 894.689 1.14264 -1.20553 0
M  V30 9614 O 895.874 1.19025 -1.49123 0
M  V30 9615 C 893.014 1.77317 -2.96062 0
M  V30 9616 C 892.127 1.26271 -4.13134 0
M  V30 9617 C 891.262 2.39922 -4.73931 0
M  V30 9618 C 890.301 1.85925 -5.8318 0
M  V30 9619 N 889.438 2.93084 -6.38002 0
M  V30 9620 H 894.278 0.0137816 -2.97997 0
M  V30 9621 H 891.815 -0.00496503 -1.47099 0
M  V30 9622 H 893.773 2.46339 -3.36709 0
M  V30 9623 H 892.403 2.33047 -2.23358 0
M  V30 9624 H 891.455 0.465296 -3.77544 0
M  V30 9625 H 892.767 0.827284 -4.91892 0
M  V30 9626 H 891.921 3.1692 -5.17346 0
M  V30 9627 H 890.66 2.86784 -3.9447 0
M  V30 9628 H 889.665 1.07409 -5.39206 0
M  V30 9629 H 890.89 1.39987 -6.64515 0
M  V30 9630 H 888.836 3.3931 -5.61431 0
M  V30 9631 H 888.753 2.53986 -7.12058 0
M  V30 9632 H 890.021 3.7003 -6.86075 0
M  V30 9633 N 894.251 1.57596 -0.0117121 0
M  V30 9634 C 895.184 2.04624 1.01016 0
M  V30 9635 C 896.162 0.938437 1.32786 0
M  V30 9636 O 897.346 1.20746 1.44751 0
M  V30 9637 C 894.473 2.45369 2.33477 0
M  V30 9638 C 893.519 3.66998 2.17289 0
M  V30 9639 S 894.352 5.14412 1.48795 0
M  V30 9640 C 895.508 5.58438 2.82662 0
M  V30 9641 H 895.741 2.9098 0.60977 0
M  V30 9642 H 893.274 1.53106 0.199494 0
M  V30 9643 H 895.232 2.69511 3.09635 0
M  V30 9644 H 893.893 1.59391 2.70653 0
M  V30 9645 H 893.086 3.93297 3.15172 0
M  V30 9646 H 892.688 3.42918 1.49275 0
M  V30 9647 H 894.98 5.61614 3.78941 0
M  V30 9648 H 895.923 6.58224 2.61049 0
M  V30 9649 H 896.331 4.86033 2.8711 0
M  V30 9650 N 895.729 -0.261212 1.5542 0
M  V30 9651 C 896.954 -1.01341 1.80955 0
M  V30 9652 C 897.379 -1.78711 0.586849 0
M  V30 9653 O 896.737 -1.75266 -0.463837 0
M  V30 9654 C 896.785 -1.93835 3.04073 0
M  V30 9655 O 895.889 -3.02791 2.79985 0
M  V30 9656 H 895.23 -0.289123 0.597749 0
M  V30 9657 H 897.76 -0.286543 2.02584 0
M  V30 9658 H 897.77 -2.3557 3.33123 0
M  V30 9659 H 896.445 -1.36936 3.9271 0
M  V30 9660 H 895.022 -2.65287 2.62063 0
M  V30 9661 N 897.207 -1.48554 -0.526253 0
M  V30 9662 C 898.456 -1.56014 -1.27837 0
M  V30 9663 C 898.769 -0.240643 -1.94114 0
M  V30 9664 O 899.975 -0.193525 -2.70809 0
M  V30 9665 C 898.431 -2.75161 -2.31979 0
M  V30 9666 C 898.039 -4.13768 -1.71755 0
M  V30 9667 C 899.783 -2.91936 -3.08178 0
M  V30 9668 C 897.69 -5.24171 -2.7386 0
M  V30 9669 H 896.62 -0.58082 -0.480795 0
M  V30 9670 H 899.271 -1.74895 -0.555335 0
M  V30 9671 H 897.653 -2.49722 -3.07335 0
M  V30 9672 H 898.827 -4.49241 -1.02563 0
M  V30 9673 H 897.142 -4.02141 -1.08036 0
M  V30 9674 H 899.739 -3.71586 -3.84484 0
M  V30 9675 H 900.082 -2.01533 -3.64267 0
M  V30 9676 H 900.615 -3.17294 -2.39937 0
M  V30 9677 H 897.354 -6.16552 -2.22586 0
M  V30 9678 H 896.874 -4.93181 -3.41368 0
M  V30 9679 H 898.553 -5.52442 -3.36774 0
M  V30 9680 N 898.685 0.775411 -1.37205 0
M  V30 9681 C 899.648 1.8702 -1.325 0
M  V30 9682 C 900.648 1.5915 -0.229793 0
M  V30 9683 O 901.838 1.673 -0.485423 0
M  V30 9684 C 898.97 3.24085 -1.05745 0
M  V30 9685 H 900.163 1.92604 -2.29878 0
M  V30 9686 H 897.716 0.97476 -1.22181 0
M  V30 9687 H 898.451 3.24178 -0.0888371 0
M  V30 9688 H 898.236 3.45705 -1.85016 0
M  V30 9689 H 899.726 4.0416 -1.05094 0
M  V30 9690 N 900.163 1.21714 1.00117 0
M  V30 9691 C 901.409 1.04829 1.74306 0
M  V30 9692 C 901.764 -0.413387 1.87907 0
M  V30 9693 O 901.057 -1.30258 1.40512 0
M  V30 9694 C 901.251 1.68345 3.15269 0
M  V30 9695 C 901.08 3.20537 3.15414 0
M  V30 9696 C 899.85 3.896 3.21776 0
M  V30 9697 C 902.048 4.17576 3.00224 0
M  V30 9698 N 900.03 5.28949 3.11587 0
M  V30 9699 C 901.401 5.43701 2.97974 0
M  V30 9700 C 903.456 4.08575 2.84554 0
M  V30 9701 C 902.159 6.61861 2.8166 0
M  V30 9702 C 904.185 5.26375 2.69598 0
M  V30 9703 C 903.547 6.51414 2.68028 0
M  V30 9704 H 899.646 0.437964 0.647852 0
M  V30 9705 H 902.23 1.54128 1.18965 0
M  V30 9706 H 900.401 1.21607 3.68872 0
M  V30 9707 H 902.133 1.44629 3.77974 0
M  V30 9708 H 898.888 3.40548 3.29126 0
M  V30 9709 H 899.312 6.01945 3.09825 0
M  V30 9710 H 903.954 3.12696 2.84571 0
M  V30 9711 H 901.672 7.57896 2.8039 0
M  V30 9712 H 905.258 5.21235 2.58468 0
M  V30 9713 H 904.138 7.41033 2.56593 0
M  V30 9714 N 901.641 -1.19671 1.02551 0
M  V30 9715 C 902.573 -2.22215 0.561517 0
M  V30 9716 C 903.586 -1.58751 -0.360821 0
M  V30 9717 O 904.775 -1.77802 -0.157749 0
M  V30 9718 C 901.875 -3.383 -0.201494 0
M  V30 9719 C 901.048 -4.3135 0.724952 0
M  V30 9720 C 900.107 -5.26199 0.00794334 0
M  V30 9721 O 899.133 -5.65665 0.633398 0
M  V30 9722 N 900.335 -5.66573 -1.26394 0
M  V30 9723 H 903.1 -2.6265 1.44343 0
M  V30 9724 H 900.661 -1.34303 0.904122 0
M  V30 9725 H 902.653 -3.98764 -0.690625 0
M  V30 9726 H 901.223 -2.96683 -0.98479 0
M  V30 9727 H 900.443 -3.6872 1.39423 0
M  V30 9728 H 901.731 -4.90433 1.35472 0
M  V30 9729 H 901.129 -5.36538 -1.79287 0
M  V30 9730 H 899.686 -6.29304 -1.69763 0
M  V30 9731 N 903.119 -0.802921 -1.35613 0
M  V30 9732 C 904.049 -0.225131 -2.32412 0
M  V30 9733 C 905.03 0.647383 -1.57299 0
M  V30 9734 O 906.215 0.578414 -1.85386 0
M  V30 9735 C 903.345 0.630085 -3.41537 0
M  V30 9736 C 902.299 -0.143635 -4.27759 0
M  V30 9737 C 901.625 0.833046 -5.28171 0
M  V30 9738 C 902.925 -1.34054 -5.04804 0
M  V30 9739 H 904.619 -1.03385 -2.80984 0
M  V30 9740 H 902.165 -0.498593 -1.35093 0
M  V30 9741 H 904.118 1.04433 -4.08254 0
M  V30 9742 H 902.842 1.47165 -2.91565 0
M  V30 9743 H 901.501 -0.539015 -3.62616 0
M  V30 9744 H 901.149 1.67001 -4.74468 0
M  V30 9745 H 900.849 0.319697 -5.8673 0
M  V30 9746 H 902.373 1.24558 -5.97761 0
M  V30 9747 H 903.787 -1.00136 -5.64487 0
M  V30 9748 H 902.184 -1.78812 -5.72841 0
M  V30 9749 H 903.254 -2.12906 -4.35659 0
M  V30 9750 N 904.597 1.47463 -0.556102 0
M  V30 9751 C 906.008 1.86298 -0.122429 0
M  V30 9752 C 906.359 1.46285 1.30749 0
M  V30 9753 O 905.484 0.865405 1.98342 0
M  V30 9754 C 906.079 3.38115 -0.215407 0
M  V30 9755 C 904.638 3.76046 0.163223 0
M  V30 9756 C 903.785 2.71515 -0.563466 0
M  V30 9757 H 906.736 1.38996 -0.765888 0
M  V30 9758 H 906.757 3.76263 0.566271 0
M  V30 9759 H 906.269 3.67207 -1.25622 0
M  V30 9760 H 904.37 3.5257 1.20519 0
M  V30 9761 H 904.483 4.78705 -0.194568 0
M  V30 9762 H 902.847 2.54699 -0.00667879 0
M  V30 9763 H 903.63 3.03449 -1.60542 0
M  V30 9764 N 906.075 0.2925 1.54862 0
M  V30 9765 C 907.007 -0.620889 2.2063 0
M  V30 9766 C 908.02 -1.10412 1.19637 0
M  V30 9767 O 909.209 -1.02304 1.46274 0
M  V30 9768 C 906.309 -1.861 2.83232 0
M  V30 9769 C 905.482 -1.52168 4.10078 0
M  V30 9770 C 904.541 -2.61605 4.56562 0
M  V30 9771 O 903.567 -2.27056 5.21952 0
M  V30 9772 N 904.769 -3.9199 4.28163 0
M  V30 9773 H 907.534 -0.0579028 2.99644 0
M  V30 9774 H 905.095 0.114333 1.61496 0
M  V30 9775 H 907.087 -2.58642 3.11266 0
M  V30 9776 H 905.657 -2.33259 2.08108 0
M  V30 9777 H 904.877 -0.629283 3.89145 0
M  V30 9778 H 906.165 -1.27023 4.92689 0
M  V30 9779 H 905.563 -4.22872 3.7576 0
M  V30 9780 H 904.12 -4.60857 4.60928 0
M  V30 9781 N 907.553 -1.57587 0.0200696 0
M  V30 9782 C 908.783 -1.95435 -0.669991 0
M  V30 9783 C 909.191 -0.894647 -1.66711 0
M  V30 9784 O 908.534 0.133009 -1.83218 0
M  V30 9785 C 908.596 -3.29379 -1.44047 0
M  V30 9786 C 908.26 -4.53008 -0.602691 0
M  V30 9787 C 909.257 -5.19766 0.118188 0
M  V30 9788 C 906.942 -4.99359 -0.542754 0
M  V30 9789 C 908.936 -6.31187 0.887774 0
M  V30 9790 C 906.623 -6.10665 0.230543 0
M  V30 9791 C 907.621 -6.76438 0.944522 0
M  V30 9792 O 907.309 -7.85608 1.70516 0
M  V30 9793 H 907.041 -0.648681 -0.190234 0
M  V30 9794 H 909.595 -2.05269 0.0733838 0
M  V30 9795 H 907.825 -3.1601 -2.22878 0
M  V30 9796 H 909.514 -3.52194 -2.01777 0
M  V30 9797 H 910.28 -4.84932 0.0811604 0
M  V30 9798 H 906.159 -4.47976 -1.08804 0
M  V30 9799 H 909.703 -6.82458 1.44558 0
M  V30 9800 H 905.6 -6.44938 0.26932 0
M  V30 9801 H 906.368 -8.02228 1.62398 0
M  V30 9802 N 909.032 0.252966 -1.55557 0
M  V30 9803 C 909.995 1.29645 -1.8901 0
M  V30 9804 C 910.995 1.41378 -0.766096 0
M  V30 9805 O 912.185 1.40183 -1.03414 0
M  V30 9806 C 909.317 2.67504 -2.11316 0
M  V30 9807 H 910.51 1.01202 -2.82309 0
M  V30 9808 H 908.063 0.491977 -1.48355 0
M  V30 9809 H 908.798 3.01095 -1.20466 0
M  V30 9810 H 908.583 2.6037 -2.93172 0
M  V30 9811 H 910.073 3.42861 -2.38403 0
M  V30 9812 N 910.51 1.48831 0.518367 0
M  V30 9813 C 911.44 1.67119 1.63075 0
M  V30 9814 C 912.421 0.519948 1.61958 0
M  V30 9815 O 913.606 0.753824 1.78972 0
M  V30 9816 C 910.736 1.72158 3.01627 0
M  V30 9817 C 909.69 2.86898 3.17606 0
M  V30 9818 C 909.016 2.77035 4.57335 0
M  V30 9819 C 910.316 4.28057 2.99274 0
M  V30 9820 H 912.01 2.60248 1.48025 0
M  V30 9821 H 909.556 1.2524 0.710694 0
M  V30 9822 H 911.509 1.83539 3.7933 0
M  V30 9823 H 910.233 0.756157 3.17726 0
M  V30 9824 H 908.892 2.75091 2.42323 0
M  V30 9825 H 908.54 1.78438 4.70286 0
M  V30 9826 H 908.24 3.54036 4.6897 0
M  V30 9827 H 909.764 2.904 5.37122 0
M  V30 9828 H 911.178 4.40636 3.6676 0
M  V30 9829 H 909.575 5.06145 3.22393 0
M  V30 9830 H 910.645 4.4371 1.95574 0
M  V30 9831 N 911.988 -0.768124 1.37614 0
M  V30 9832 C 913.234 -1.52907 1.33219 0
M  V30 9833 C 913.567 -1.94026 -0.0821218 0
M  V30 9834 O 912.842 -1.64345 -1.04023 0
M  V30 9835 C 913.125 -2.79164 2.27463 0
M  V30 9836 C 912.978 -2.44276 3.7769 0
M  V30 9837 C 914.297 -3.81115 2.20089 0
M  V30 9838 H 911.416 -0.554712 0.485246 0
M  V30 9839 H 914.058 -0.880911 1.68345 0
M  V30 9840 H 912.208 -3.34472 1.97639 0
M  V30 9841 H 913.88 -1.94855 4.18126 0
M  V30 9842 H 912.123 -1.76925 3.96081 0
M  V30 9843 H 912.794 -3.34544 4.39072 0
M  V30 9844 H 915.27 -3.35311 2.46386 0
M  V30 9845 H 914.146 -4.67174 2.88166 0
M  V30 9846 H 914.407 -4.25644 1.19498 0
M  V30 9847 N 913.466 -1.22244 -0.994698 0
M  V30 9848 C 914.694 -1.07218 -1.76952 0
M  V30 9849 C 915.109 0.377388 -1.8499 0
M  V30 9850 O 914.466 1.26157 -1.31874 0
M  V30 9851 C 914.517 -1.67496 -3.20355 0
M  V30 9852 O 914.238 -3.06782 -3.12756 0
M  V30 9853 C 915.739 -1.57721 -4.14294 0
M  V30 9854 H 912.959 -0.375966 -0.555779 0
M  V30 9855 H 915.503 -1.61799 -1.25065 0
M  V30 9856 H 913.658 -1.16982 -3.69315 0
M  V30 9857 H 914.072 -3.35784 -4.02926 0
M  V30 9858 H 915.546 -2.04623 -5.12673 0
M  V30 9859 H 916.023 -0.533434 -4.35949 0
M  V30 9860 H 916.629 -2.07531 -3.71229 0
M  V30 9861 N 914.944 1.19125 -1.03184 0
M  V30 9862 C 915.907 2.20662 -0.619766 0
M  V30 9863 C 916.907 1.57621 0.318179 0
M  V30 9864 O 918.097 1.73885 0.104783 0
M  V30 9865 C 915.229 3.40774 0.0926696 0
M  V30 9866 H 916.422 2.58633 -1.5182 0
M  V30 9867 H 913.975 1.32855 -0.823364 0
M  V30 9868 H 914.71 3.08324 1.00531 0
M  V30 9869 H 914.495 3.87766 -0.581344 0
M  V30 9870 H 915.985 4.15977 0.367792 0
M  V30 9871 N 916.422 0.810101 1.35185 0
M  V30 9872 C 917.67 0.391343 1.98275 0
M  V30 9873 C 917.991 -1.04592 1.64577 0
M  V30 9874 O 917.261 -1.72417 0.93001 0
M  V30 9875 H 915.841 0.141715 0.733434 0
M  V30 9876 H 918.503 1.03672 1.6504 0
M  V30 9877 H 917.599 0.49991 3.0807 0
M  V30 9878 N 917.9 -1.47166 0.563914 0
M  V30 9879 C 918.81 -2.33885 -0.182977 0
M  V30 9880 C 919.826 -1.48605 -0.905132 0
M  V30 9881 O 921.002 -1.81518 -0.872527 0
M  V30 9882 C 918.067 -3.25433 -1.19558 0
M  V30 9883 C 917.128 -4.26607 -0.480129 0
M  V30 9884 C 916.361 -5.1378 -1.44449 0
M  V30 9885 O 916.584 -5.03531 -2.67979 0
M  V30 9886 O 915.518 -5.94109 -0.965321 0
M  V30 9887 H 919.344 -2.99065 0.528544 0
M  V30 9888 H 916.929 -1.45834 0.324468 0
M  V30 9889 H 918.811 -3.81964 -1.77993 0
M  V30 9890 H 917.486 -2.62873 -1.8889 0
M  V30 9891 H 916.393 -3.73817 0.145583 0
M  V30 9892 H 917.726 -4.919 0.171868 0
M  V30 9893 N 919.378 -0.300708 -1.54705 0
M  V30 9894 C 920.624 0.309111 -2.0043 0
M  V30 9895 C 920.957 1.53562 -1.1888 0
M  V30 9896 O 920.232 1.92683 -0.265205 0
M  V30 9897 C 920.515 0.665995 -3.53888 0
M  V30 9898 C 920.368 -0.56963 -4.46178 0
M  V30 9899 C 921.687 1.49262 -4.14016 0
M  V30 9900 H 918.806 0.110878 -0.728612 0
M  V30 9901 H 921.448 -0.412748 -1.85463 0
M  V30 9902 H 919.598 1.281 -3.66773 0
M  V30 9903 H 921.27 -1.20811 -4.45199 0
M  V30 9904 H 919.513 -1.20292 -4.16788 0
M  V30 9905 H 920.184 -0.275785 -5.51311 0
M  V30 9906 H 922.66 0.972979 -4.04564 0
M  V30 9907 H 921.536 1.71111 -5.21548 0
M  V30 9908 H 921.797 2.48174 -3.65872 0
M  V30 9909 N 920.856 1.57574 -0.0284266 0
M  V30 9910 C 921.789 2.05684 0.988401 0
M  V30 9911 C 922.767 0.952468 1.31783 0
M  V30 9912 O 923.951 1.22274 1.43462 0
M  V30 9913 C 921.078 2.47832 2.30862 0
M  V30 9914 C 920.124 3.69282 2.13384 0
M  V30 9915 S 920.957 5.15962 1.43331 0
M  V30 9916 C 922.113 5.61404 2.76723 0
M  V30 9917 H 922.346 2.9161 0.578873 0
M  V30 9918 H 919.879 1.53309 0.183244 0
M  V30 9919 H 921.837 2.7278 3.06759 0
M  V30 9920 H 920.498 1.62253 2.68947 0
M  V30 9921 H 919.691 3.96618 3.10983 0
M  V30 9922 H 919.293 3.44482 1.45629 0
M  V30 9923 H 921.585 5.65601 3.72963 0
M  V30 9924 H 922.528 6.60956 2.54053 0
M  V30 9925 H 922.936 4.89051 2.81939 0
M  V30 9926 N 922.334 -0.244713 1.55689 0
M  V30 9927 C 923.581 -0.972446 1.77622 0
M  V30 9928 C 923.909 -1.85235 0.593137 0
M  V30 9929 O 923.164 -1.91064 -0.423464 0
M  V30 9930 C 923.463 -1.8617 3.05083 0
M  V30 9931 C 923.129 -1.13696 4.3633 0
M  V30 9932 C 921.791 -0.936679 4.71996 0
M  V30 9933 C 924.143 -0.623451 5.17458 0
M  V30 9934 C 921.471 -0.210612 5.86322 0
M  V30 9935 C 923.823 0.0891587 6.32537 0
M  V30 9936 C 922.487 0.300904 6.66821 0
M  V30 9937 H 921.757 -0.355843 0.649967 0
M  V30 9938 H 924.404 -0.242372 1.8996 0
M  V30 9939 H 922.709 -2.6589 2.87767 0
M  V30 9940 H 924.406 -2.4265 3.19253 0
M  V30 9941 H 920.996 -1.30301 4.08313 0
M  V30 9942 H 925.18 -0.765725 4.90357 0
M  V30 9943 H 920.436 -0.0361062 6.11389 0
M  V30 9944 H 924.61 0.494685 6.94641 0
M  V30 9945 H 922.237 0.865466 7.55257 0
M  V30 9946 N 923.813 -1.49104 -0.510467 0
M  V30 9947 C 925.038 -1.62068 -1.29417 0
M  V30 9948 C 925.463 -0.288432 -1.85875 0
M  V30 9949 O 924.821 0.742667 -1.65391 0
M  V30 9950 C 924.869 -2.68506 -2.40701 0
M  V30 9951 O 923.973 -2.27021 -3.4429 0
M  V30 9952 H 923.314 -0.542778 -0.382476 0
M  V30 9953 H 925.844 -1.95228 -0.612154 0
M  V30 9954 H 925.854 -2.90383 -2.86604 0
M  V30 9955 H 924.529 -3.65216 -1.98973 0
M  V30 9956 H 923.106 -2.15436 -3.04371 0
M  V30 9957 N 925.291 0.760815 -1.38019 0
M  V30 9958 C 926.537 1.52198 -1.34028 0
M  V30 9959 C 926.87 1.94067 0.0718309 0
M  V30 9960 O 926.145 1.64895 1.0315 0
M  V30 9961 C 926.428 2.77954 -2.2894 0
M  V30 9962 C 926.281 2.42269 -3.7898 0
M  V30 9963 C 927.6 3.79943 -2.22107 0
M  V30 9964 H 924.719 0.552131 -0.488181 0
M  V30 9965 H 927.361 0.871971 -1.6881 0
M  V30 9966 H 925.511 3.33419 -1.9941 0
M  V30 9967 H 927.183 1.92635 -4.19153 0
M  V30 9968 H 925.426 1.74822 -3.97014 0
M  V30 9969 H 926.097 3.32211 -4.4084 0
M  V30 9970 H 928.573 3.34 -2.4816 0
M  V30 9971 H 927.449 4.6564 -2.90639 0
M  V30 9972 H 927.71 4.25004 -1.21753 0
M  V30 9973 N 926.769 1.22769 0.988202 0
M  V30 9974 C 927.997 1.08155 1.76381 0
M  V30 9975 C 928.412 -0.367573 1.85187 0
M  V30 9976 O 927.769 -1.25455 1.32541 0
M  V30 9977 C 927.82 1.69193 3.19462 0
M  V30 9978 O 927.541 3.08437 3.11125 0
M  V30 9979 C 929.042 1.59915 4.13451 0
M  V30 9980 H 926.262 0.378908 0.553778 0
M  V30 9981 H 928.806 1.6246 1.24206 0
M  V30 9982 H 926.961 1.18939 3.6869 0
M  V30 9983 H 927.375 3.37916 4.0114 0
M  V30 9984 H 928.849 2.07339 5.1158 0
M  V30 9985 H 929.326 0.556546 4.3566 0
M  V30 9986 H 929.932 2.09497 3.70123 0
M  V30 9987 N 928.247 -1.18576 1.03814 0
M  V30 9988 C 929.495 -1.88121 0.738574 0
M  V30 9989 C 929.816 -1.80587 -0.735744 0
M  V30 9990 O 929.086 -1.22251 -1.53074 0
M  V30 9991 H 927.666 -0.696417 0.270208 0
M  V30 9992 H 930.328 -1.43912 1.31435 0
M  V30 9993 H 929.424 -2.94222 1.04115 0
M  V30 9994 N 929.725 -0.817259 -1.34754 0
M  V30 9995 C 930.655 -0.249769 -2.3216 0
M  V30 9996 C 931.636 0.630663 -1.57977 0
M  V30 9997 O 932.821 0.558719 -1.85989 0
M  V30 9998 C 929.951 0.593825 -3.42186 0
M  V30 9999 C 928.905 -0.188997 -4.27583 0
M  V30 10000 C 928.231 0.776979 -5.29025 0
M  V30 10001 C 929.531 -1.39401 -5.03354 0
M  V30 10002 H 931.225 -1.06359 -2.79872 0
M  V30 10003 H 928.771 -0.512894 -1.34556 0
M  V30 10004 H 930.724 1.00097 -4.09339 0
M  V30 10005 H 929.448 1.44064 -2.93109 0
M  V30 10006 H 928.107 -0.577445 -3.62024 0
M  V30 10007 H 927.755 1.61959 -4.76212 0
M  V30 10008 H 927.455 0.257448 -5.87036 0
M  V30 10009 H 928.979 1.18211 -5.99048 0
M  V30 10010 H 930.393 -1.06117 -5.63393 0
M  V30 10011 H 928.79 -1.84878 -5.70912 0
M  V30 10012 H 929.86 -2.17515 -4.33377 0
M  V30 10013 N 931.203 1.46865 -0.571711 0
M  V30 10014 C 932.113 2.33979 0.170571 0
M  V30 10015 C 933.129 1.49083 0.897239 0
M  V30 10016 O 934.305 1.81979 0.862888 0
M  V30 10017 C 931.37 3.26063 1.17831 0
M  V30 10018 C 930.431 4.26855 0.457499 0
M  V30 10019 C 929.664 5.14539 1.41722 0
M  V30 10020 O 929.887 5.04945 2.65305 0
M  V30 10021 O 928.821 5.94612 0.9338 0
M  V30 10022 H 932.647 2.98781 -0.544396 0
M  V30 10023 H 930.232 1.4566 -0.332198 0
M  V30 10024 H 932.114 3.82903 1.75965 0
M  V30 10025 H 930.789 2.63871 1.87493 0
M  V30 10026 H 929.696 3.73734 -0.165406 0
M  V30 10027 H 931.029 4.91802 -0.197953 0
M  V30 10028 N 932.681 0.308908 1.54543 0
M  V30 10029 C 933.928 -0.298036 2.00295 0
M  V30 10030 C 934.256 -1.53285 1.19724 0
M  V30 10031 O 933.511 -1.93917 0.263551 0
M  V30 10032 C 933.81 -0.691522 3.50646 0
M  V30 10033 C 933.476 0.442454 4.48724 0
M  V30 10034 C 932.138 0.753739 4.7526 0
M  V30 10035 C 934.49 1.20488 5.07082 0
M  V30 10036 C 931.818 1.83044 5.57415 0
M  V30 10037 C 934.17 2.27156 5.90409 0
M  V30 10038 C 932.834 2.58882 6.15253 0
M  V30 10039 H 932.104 -0.109059 0.73293 0
M  V30 10040 H 934.751 0.429647 1.86618 0
M  V30 10041 H 933.056 -1.49941 3.61974 0
M  V30 10042 H 934.753 -1.17244 3.83477 0
M  V30 10043 H 931.343 0.189744 4.2818 0
M  V30 10044 H 935.527 0.977653 4.86575 0
M  V30 10045 H 930.783 2.08088 5.749 0
M  V30 10046 H 934.957 2.86687 6.34652 0
M  V30 10047 H 932.584 3.42443 6.78702 0
M  V30 10048 N 934.159 -1.57557 0.0367827 0
M  V30 10049 C 935.384 -1.96828 -0.653707 0
M  V30 10050 C 935.809 -0.913559 -1.64425 0
M  V30 10051 O 935.167 0.124749 -1.8087 0
M  V30 10052 C 935.215 -3.35189 -1.32969 0
M  V30 10053 O 934.319 -3.32095 -2.44513 0
M  V30 10054 H 933.66 -0.64157 -0.171124 0
M  V30 10055 H 936.19 -2.04351 0.100912 0
M  V30 10056 H 936.2 -3.71593 -1.68472 0
M  V30 10057 H 934.875 -4.11496 -0.603654 0
M  V30 10058 H 933.452 -3.07418 -2.11065 0
M  V30 10059 N 935.637 0.236453 -1.55816 0
M  V30 10060 C 936.867 0.978873 -1.81939 0
M  V30 10061 C 937.275 1.79041 -0.611647 0
M  V30 10062 O 936.618 1.78616 0.429172 0
M  V30 10063 C 936.68 1.9569 -3.01572 0
M  V30 10064 C 936.344 1.33131 -4.37178 0
M  V30 10065 C 937.341 0.728585 -5.1477 0
M  V30 10066 C 935.026 1.34755 -4.83887 0
M  V30 10067 C 937.02 0.150427 -6.37222 0
M  V30 10068 C 934.707 0.765539 -6.06286 0
M  V30 10069 C 935.705 0.168017 -6.82793 0
M  V30 10070 O 935.393 -0.404976 -8.02879 0
M  V30 10071 H 935.125 0.293186 -0.609113 0
M  V30 10072 H 937.679 0.261384 -2.0373 0
M  V30 10073 H 935.909 2.71298 -2.75562 0
M  V30 10074 H 937.598 2.56362 -3.14695 0
M  V30 10075 H 938.364 0.708477 -4.79797 0
M  V30 10076 H 934.243 1.80202 -4.24321 0
M  V30 10077 H 937.787 -0.316586 -6.96881 0
M  V30 10078 H 933.684 0.78301 -6.40733 0
M  V30 10079 H 934.452 -0.29785 -8.17958 0
M  V30 10080 N 937.115 1.49373 0.502552 0
M  V30 10081 C 938.34 1.62752 1.28556 0
M  V30 10082 C 938.765 0.298285 1.8572 0
M  V30 10083 O 938.123 -0.733885 1.65782 0
M  V30 10084 C 938.171 2.69778 2.39274 0
M  V30 10085 O 937.275 2.28843 3.43081 0
M  V30 10086 H 936.616 0.544799 0.379592 0
M  V30 10087 H 939.146 1.9555 0.601792 0
M  V30 10088 H 939.156 2.91899 2.8506 0
M  V30 10089 H 937.831 3.66266 1.97033 0
M  V30 10090 H 936.408 2.17047 3.03224 0
M  V30 10091 N 938.594 -0.753485 1.38421 0
M  V30 10092 C 939.526 -1.87692 1.31547 0
M  V30 10093 C 940.539 -1.612 0.227671 0
M  V30 10094 O 941.728 -1.71778 0.485238 0
M  V30 10095 C 938.828 -3.23329 1.01545 0
M  V30 10096 C 938.001 -3.77324 2.21236 0
M  V30 10097 C 937.06 -4.91478 1.87977 0
M  V30 10098 O 936.086 -5.06106 2.60472 0
M  V30 10099 N 937.288 -5.74466 0.834796 0
M  V30 10100 H 940.053 -1.94099 2.28354 0
M  V30 10101 H 937.614 -0.933421 1.32283 0
M  V30 10102 H 939.606 -3.9724 0.773477 0
M  V30 10103 H 938.176 -3.12307 0.135334 0
M  V30 10104 H 937.396 -2.94978 2.61498 0
M  V30 10105 H 938.684 -4.10131 3.01115 0
M  V30 10106 H 938.082 -5.65217 0.233606 0
M  V30 10107 H 936.639 -6.48524 0.652703 0
M  V30 10108 N 940.072 -1.23292 -0.981677 0
M  V30 10109 C 941.035 -1.01417 -2.05542 0
M  V30 10110 C 942.035 0.0235354 -1.60783 0
M  V30 10111 O 943.225 -0.216082 -1.72855 0
M  V30 10112 C 940.357 -0.534239 -3.36688 0
M  V30 10113 H 941.55 -1.96702 -2.26381 0
M  V30 10114 H 939.103 -1.05318 -1.1549 0
M  V30 10115 H 939.838 0.422452 -3.21537 0
M  V30 10116 H 939.623 -1.28304 -3.70514 0
M  V30 10117 H 941.113 -0.40179 -4.15663 0
M  V30 10118 N 941.55 1.18024 -1.04442 0
M  V30 10119 C 942.961 1.69749 -0.777312 0
M  V30 10120 C 943.312 1.83234 0.701399 0
M  V30 10121 O 942.437 1.51452 1.54568 0
M  V30 10122 C 943.032 3.08321 -1.40441 0
M  V30 10123 C 941.591 3.57243 -1.18553 0
M  V30 10124 C 940.738 2.33695 -1.49271 0
M  V30 10125 H 943.689 1.02647 -1.21035 0
M  V30 10126 H 943.71 3.71787 -0.809628 0
M  V30 10127 H 943.222 2.98474 -2.48062 0
M  V30 10128 H 941.323 3.72379 -0.128221 0
M  V30 10129 H 941.436 4.40451 -1.88519 0
M  V30 10130 H 939.8 2.37792 -0.912526 0
M  V30 10131 H 940.583 2.26464 -2.5801 0
M  V30 10132 N 943.028 0.824394 1.34319 0
M  V30 10133 C 944.253 0.425194 2.02995 0
M  V30 10134 C 944.678 -0.961476 1.6167 0
M  V30 10135 O 944.036 -1.62593 0.80207 0
M  V30 10136 C 944.084 0.537004 3.56579 0
M  V30 10137 O 943.188 -0.442576 4.10018 0
M  V30 10138 H 942.529 0.174853 0.640564 0
M  V30 10139 H 945.059 1.11522 1.71534 0
M  V30 10140 H 945.069 0.413311 4.05901 0
M  V30 10141 H 943.744 1.54836 3.86004 0
M  V30 10142 H 942.321 -0.277644 3.71865 0
M  V30 10143 N 944.506 -1.46559 0.579492 0
M  V30 10144 C 945.731 -2.0729 0.0674595 0
M  V30 10145 C 946.156 -1.4259 -1.22677 0
M  V30 10146 O 945.514 -0.50857 -1.74021 0
M  V30 10147 C 945.562 -3.60492 -0.0882227 0
M  V30 10148 O 944.666 -3.96172 -1.14551 0
M  V30 10149 H 944.007 -0.661159 0.0613536 0
M  V30 10150 H 946.537 -1.88247 0.801519 0
M  V30 10151 H 946.547 -4.06929 -0.295411 0
M  V30 10152 H 945.222 -4.06976 0.856943 0
M  V30 10153 H 943.799 -3.61448 -0.917033 0
M  V30 10154 N 945.984 -0.3171 -1.54377 0
M  V30 10155 C 946.917 0.594178 -2.20329 0
M  V30 10156 C 947.895 1.12067 -1.17812 0
M  V30 10157 O 949.079 1.18588 -1.46524 0
M  V30 10158 C 946.206 1.81463 -2.85987 0
M  V30 10159 C 945.252 1.41996 -4.02168 0
M  V30 10160 S 946.085 0.462159 -5.33502 0
M  V30 10161 C 947.241 1.69004 -6.02651 0
M  V30 10162 H 947.474 0.0339261 -2.97281 0
M  V30 10163 H 945.007 -0.101196 -1.54068 0
M  V30 10164 H 946.965 2.51494 -3.2444 0
M  V30 10165 H 945.626 2.34606 -2.08851 0
M  V30 10166 H 944.819 2.32921 -4.4695 0
M  V30 10167 H 944.421 0.799423 -3.65356 0
M  V30 10168 H 946.713 2.62839 -6.24437 0
M  V30 10169 H 947.656 1.28451 -6.96352 0
M  V30 10170 H 948.064 1.87408 -5.32483 0
M  V30 10171 N 947.462 1.57535 -0.0451378 0
M  V30 10172 C 948.409 2.11176 0.931313 0
M  V30 10173 C 949.379 1.01765 1.31275 0
M  V30 10174 O 950.564 1.29279 1.40327 0
M  V30 10175 C 947.704 2.65639 2.20295 0
M  V30 10176 C 946.817 3.89114 1.87654 0
M  V30 10177 C 945.952 4.31914 3.09232 0
M  V30 10178 C 944.991 5.48105 2.72484 0
M  V30 10179 N 944.128 5.85986 3.86736 0
M  V30 10180 H 948.968 2.94318 0.466986 0
M  V30 10181 H 946.505 1.45462 0.218886 0
M  V30 10182 H 948.463 2.95312 2.94697 0
M  V30 10183 H 947.093 1.85303 2.64316 0
M  V30 10184 H 946.145 3.6607 1.03427 0
M  V30 10185 H 947.457 4.7358 1.56601 0
M  V30 10186 H 946.611 4.63108 3.91939 0
M  V30 10187 H 945.35 3.46247 3.43459 0
M  V30 10188 H 944.355 5.16589 1.88192 0
M  V30 10189 H 945.58 6.35482 2.39455 0
M  V30 10190 H 943.526 5.03273 4.20775 0
M  V30 10191 H 943.443 6.65129 3.5936 0
M  V30 10192 H 944.711 6.21793 4.701 0
M  V30 10193 N 948.94 -0.228186 1.55939 0
M  V30 10194 C 950.165 -0.974795 1.83064 0
M  V30 10195 C 950.59 -1.77426 0.624624 0
M  V30 10196 O 949.948 -1.76211 -0.426556 0
M  V30 10197 C 949.996 -1.87342 3.08116 0
M  V30 10198 O 949.1 -2.96784 2.86344 0
M  V30 10199 H 948.441 -0.276379 0.603747 0
M  V30 10200 H 950.971 -0.243507 2.03146 0
M  V30 10201 H 950.981 -2.28451 3.38045 0
M  V30 10202 H 949.656 -1.28575 3.95526 0
M  V30 10203 H 948.233 -2.59669 2.67631 0
M  V30 10204 N 950.418 -1.49637 -0.494624 0
M  V30 10205 C 951.664 -1.59681 -1.25019 0
M  V30 10206 C 951.997 -0.285511 -1.9209 0
M  V30 10207 O 951.272 0.711398 -1.81023 0
M  V30 10208 C 951.555 -2.76058 -2.31222 0
M  V30 10209 C 951.408 -4.17002 -1.68611 0
M  V30 10210 C 952.727 -2.88056 -3.32734 0
M  V30 10211 H 949.846 -0.581209 -0.453172 0
M  V30 10212 H 952.488 -1.81944 -0.547391 0
M  V30 10213 H 950.638 -2.57207 -2.91164 0
M  V30 10214 H 952.31 -4.47385 -1.12447 0
M  V30 10215 H 950.553 -4.22352 -0.989991 0
M  V30 10216 H 951.224 -4.94316 -2.45674 0
M  V30 10217 H 953.7 -3.05237 -2.82789 0
M  V30 10218 H 952.576 -3.71151 -4.04399 0
M  V30 10219 H 952.837 -1.97676 -3.95445 0
M  V30 10220 N 951.896 0.746133 -1.38819 0
M  V30 10221 C 952.826 1.87344 -1.39372 0
M  V30 10222 C 953.807 1.68123 -0.258583 0
M  V30 10223 O 954.992 1.88606 -0.462769 0
M  V30 10224 C 952.122 3.24962 -1.22543 0
M  V30 10225 C 951.076 3.58799 -2.33339 0
M  V30 10226 C 950.402 4.95235 -2.01609 0
M  V30 10227 C 951.702 3.62911 -3.75624 0
M  V30 10228 H 953.396 1.87138 -2.33709 0
M  V30 10229 H 950.942 0.898937 -1.12495 0
M  V30 10230 H 952.895 4.03488 -1.21554 0
M  V30 10231 H 951.619 3.25667 -0.246707 0
M  V30 10232 H 950.278 2.82596 -2.33527 0
M  V30 10233 H 949.926 4.92508 -1.02202 0
M  V30 10234 H 949.626 5.18843 -2.75819 0
M  V30 10235 H 951.15 5.76131 -2.02251 0
M  V30 10236 H 952.564 4.31535 -3.77426 0
M  V30 10237 H 950.961 3.98031 -4.491 0
M  V30 10238 H 952.031 2.62967 -4.07402 0
M  V30 10239 N 953.375 1.23811 0.975125 0
M  V30 10240 C 954.307 0.981779 2.07108 0
M  V30 10241 C 955.32 -0.0461211 1.62735 0
M  V30 10242 O 956.509 0.190039 1.77486 0
M  V30 10243 C 953.609 0.458364 3.35786 0
M  V30 10244 C 952.782 1.54767 4.09104 0
M  V30 10245 C 951.841 1.0282 5.16057 0
M  V30 10246 O 950.867 1.71831 5.42644 0
M  V30 10247 N 952.069 -0.141243 5.80328 0
M  V30 10248 H 954.834 1.92537 2.29673 0
M  V30 10249 H 952.395 1.1474 1.14221 0
M  V30 10250 H 954.387 0.0957686 4.04587 0
M  V30 10251 H 952.957 -0.390768 3.10148 0
M  V30 10252 H 952.177 2.08279 3.34684 0
M  V30 10253 H 953.465 2.28006 4.54853 0
M  V30 10254 H 952.863 -0.718382 5.6112 0
M  V30 10255 H 951.42 -0.445052 6.50279 0
M  V30 10256 N 954.853 -1.17469 1.05066 0
M  V30 10257 C 955.816 -2.19648 0.654793 0
M  V30 10258 C 956.816 -1.58107 -0.293063 0
M  V30 10259 O 958.006 -1.74029 -0.077106 0
M  V30 10260 C 955.138 -3.40878 -0.0384437 0
M  V30 10261 H 956.331 -2.56184 1.55915 0
M  V30 10262 H 953.884 -1.31528 0.844396 0
M  V30 10263 H 954.619 -3.09885 -0.956133 0
M  V30 10264 H 954.404 -3.86792 0.642961 0
M  V30 10265 H 955.894 -4.1651 -0.301568 0
M  V30 10266 N 956.331 -0.831506 -1.3388 0
M  V30 10267 C 957.294 -0.264773 -2.27666 0
M  V30 10268 C 958.294 0.562273 -1.50649 0
M  V30 10269 O 959.484 0.377131 -1.70069 0
M  V30 10270 C 956.616 0.627814 -3.35069 0
M  V30 10271 H 957.809 -1.09225 -2.79303 0
M  V30 10272 H 955.362 -0.604021 -1.44157 0
M  V30 10273 H 956.097 1.47802 -2.88661 0
M  V30 10274 H 955.882 0.0361552 -3.92083 0
M  V30 10275 H 957.372 1.01786 -4.05005 0
M  V30 10276 N 957.809 1.4625 -0.587256 0
M  V30 10277 C 959.055 2.0323 -0.0830359 0
M  V30 10278 C 959.41 1.45007 1.26455 0
M  V30 10279 O 958.703 0.607494 1.81714 0
M  V30 10280 C 958.897 3.57382 0.036328 0
M  V30 10281 C 958.726 4.30556 -1.29814 0
M  V30 10282 C 957.496 4.69285 -1.87349 0
M  V30 10283 C 959.694 4.63806 -2.22236 0
M  V30 10284 N 957.676 5.27229 -3.14488 0
M  V30 10285 C 959.047 5.22368 -3.33964 0
M  V30 10286 C 961.102 4.45738 -2.2186 0
M  V30 10287 C 959.805 5.64769 -4.45454 0
M  V30 10288 C 961.831 4.89158 -3.32383 0
M  V30 10289 C 961.193 5.47795 -4.42832 0
M  V30 10290 H 957.292 0.77856 -0.0732716 0
M  V30 10291 H 959.876 1.78343 -0.781152 0
M  V30 10292 H 958.047 3.81973 0.703621 0
M  V30 10293 H 959.779 4.01009 0.545347 0
M  V30 10294 H 956.534 4.5219 -1.40789 0
M  V30 10295 H 956.958 5.60719 -3.79372 0
M  V30 10296 H 961.6 3.99735 -1.37739 0
M  V30 10297 H 959.318 6.09748 -5.30314 0
M  V30 10298 H 962.904 4.76926 -3.33216 0
M  V30 10299 H 961.784 5.80778 -5.26941 0
M  V30 10300 N 959.287 0.325282 1.54207 0
M  V30 10301 C 960.217 -0.532574 2.27345 0
M  V30 10302 C 961.198 -1.11791 1.28206 0
M  V30 10303 O 962.383 -1.14272 1.57021 0
M  V30 10304 C 959.513 -1.69274 3.03255 0
M  V30 10305 C 958.467 -1.23662 4.09746 0
M  V30 10306 C 957.793 -2.48386 4.73506 0
M  V30 10307 C 959.093 -0.350244 5.21124 0
M  V30 10308 H 960.787 0.0775108 2.993 0
M  V30 10309 H 958.333 0.0387193 1.43948 0
M  V30 10310 H 960.286 -2.29917 3.53152 0
M  V30 10311 H 959.01 -2.32944 2.28921 0
M  V30 10312 H 957.669 -0.653106 3.60735 0
M  V30 10313 H 957.317 -3.10424 3.95786 0
M  V30 10314 H 957.017 -2.18558 5.45441 0
M  V30 10315 H 958.541 -3.09789 5.26178 0
M  V30 10316 H 959.955 -0.863011 5.66767 0
M  V30 10317 H 958.352 -0.14466 5.99926 0
M  V30 10318 H 959.422 0.618457 4.8094 0
M  V30 10319 N 960.765 -1.57509 0.0534917 0
M  V30 10320 C 961.695 -2.14698 -0.917999 0
M  V30 10321 C 962.676 -1.06924 -1.32292 0
M  V30 10322 O 963.861 -1.34875 -1.39723 0
M  V30 10323 C 960.991 -2.69383 -2.19203 0
M  V30 10324 C 959.945 -3.82161 -1.9271 0
M  V30 10325 C 959.271 -4.23373 -3.26587 0
M  V30 10326 C 960.571 -5.07199 -1.24686 0
M  V30 10327 H 962.265 -2.96125 -0.44165 0
M  V30 10328 H 959.811 -1.42446 -0.210993 0
M  V30 10329 H 961.764 -3.08031 -2.87567 0
M  V30 10330 H 960.488 -1.85151 -2.69048 0
M  V30 10331 H 959.147 -3.43989 -1.26757 0
M  V30 10332 H 958.795 -3.36089 -3.74237 0
M  V30 10333 H 958.495 -4.99385 -3.09658 0
M  V30 10334 H 960.019 -4.64623 -3.96178 0
M  V30 10335 H 961.433 -5.43279 -1.83088 0
M  V30 10336 H 959.83 -5.88369 -1.18076 0
M  V30 10337 H 960.9 -4.84386 -0.223227 0
M  V30 10338 N 962.243 0.219913 -1.56058 0
M  V30 10339 C 963.471 0.960915 -1.83232 0
M  V30 10340 C 963.886 1.77878 -0.632828 0
M  V30 10341 O 963.243 1.78093 0.398624 0
M  V30 10342 C 963.294 1.87716 -3.08942 0
M  V30 10343 O 963.015 1.09235 -4.24263 0
M  V30 10344 C 964.516 2.73192 -3.49115 0
M  V30 10345 H 961.736 0.281546 -0.609075 0
M  V30 10346 H 964.28 0.234648 -2.03149 0
M  V30 10347 H 962.435 2.55736 -2.90995 0
M  V30 10348 H 962.849 1.71446 -4.95688 0
M  V30 10349 H 964.323 3.33181 -4.40107 0
M  V30 10350 H 964.8 3.45668 -2.70943 0
M  V30 10351 H 965.406 2.10583 -3.69506 0
M  V30 10352 N 963.721 1.49897 0.486681 0
M  V30 10353 C 964.97 1.59349 1.23656 0
M  V30 10354 C 965.283 0.292024 1.93408 0
M  V30 10355 O 966.489 0.265258 2.70201 0
M  V30 10356 C 964.945 2.81215 2.24602 0
M  V30 10357 C 964.553 4.18177 1.60725 0
M  V30 10358 C 966.297 3.00004 3.00329 0
M  V30 10359 C 964.204 5.31247 2.59866 0
M  V30 10360 H 963.134 0.593363 0.465227 0
M  V30 10361 H 965.785 1.76306 0.508769 0
M  V30 10362 H 964.167 2.57783 3.00606 0
M  V30 10363 H 965.341 4.51802 0.90616 0
M  V30 10364 H 963.656 4.04864 0.973362 0
M  V30 10365 H 966.253 3.81649 3.74497 0
M  V30 10366 H 966.596 2.1112 3.58795 0
M  V30 10367 H 967.129 3.23544 2.3144 0
M  V30 10368 H 963.868 6.22236 2.06161 0
M  V30 10369 H 963.388 5.02059 3.28172 0
M  V30 10370 H 965.067 5.61177 3.22009 0
M  V30 10371 N 965.199 -0.738761 1.39212 0
M  V30 10372 C 966.162 -1.83441 1.37412 0
M  V30 10373 C 967.162 -1.58484 0.271908 0
M  V30 10374 O 968.352 -1.65954 0.529609 0
M  V30 10375 C 965.484 -3.21167 1.143 0
M  V30 10376 H 966.677 -1.86441 2.34904 0
M  V30 10377 H 964.23 -0.942023 1.24722 0
M  V30 10378 H 964.965 -3.23829 0.174756 0
M  V30 10379 H 964.75 -3.40678 1.94116 0
M  V30 10380 H 966.24 -4.01231 1.15773 0
M  V30 10381 N 966.677 -1.24326 -0.968545 0
M  V30 10382 C 967.923 -1.08406 -1.71394 0
M  V30 10383 C 968.256 0.376353 -1.90518 0
M  V30 10384 O 967.531 1.27816 -1.46606 0
M  V30 10385 C 967.814 -1.82344 -3.1052 0
M  V30 10386 C 967.667 -3.3613 -2.98893 0
M  V30 10387 C 968.986 -1.59545 -4.10163 0
M  V30 10388 H 966.105 -0.395205 -0.622079 0
M  V30 10389 H 968.747 -1.52983 -1.12677 0
M  V30 10390 H 966.897 -1.44452 -3.60646 0
M  V30 10391 H 968.569 -3.83614 -2.56199 0
M  V30 10392 H 966.812 -3.64553 -2.35124 0
M  V30 10393 H 967.483 -3.83064 -3.97449 0
M  V30 10394 H 969.959 -1.92504 -3.68892 0
M  V30 10395 H 968.835 -2.13736 -5.05577 0
M  V30 10396 H 969.096 -0.533503 -4.38869 0
M  V30 10397 N 968.156 1.1691 -1.05688 0
M  V30 10398 C 969.404 1.86922 -0.768409 0
M  V30 10399 C 969.725 1.81735 0.706921 0
M  V30 10400 O 968.995 1.24671 1.51109 0
M  V30 10401 H 967.575 0.69203 -0.281253 0
M  V30 10402 H 970.237 1.41803 -1.33708 0
M  V30 10403 H 969.333 2.92528 -1.08783 0
M  V30 10404 N 969.634 0.838594 1.33437 0
M  V30 10405 C 970.582 0.260158 2.31141 0
M  V30 10406 C 971.576 -0.607706 1.58124 0
M  V30 10407 O 972.782 -0.497298 1.72994 0
M  V30 10408 H 969.157 0.0654031 0.74915 0
M  V30 10409 H 971.128 1.09874 2.77435 0
M  V30 10410 C 969.877 -0.550234 3.43319 0
M  V30 10411 H 969.2 0.108262 3.99653 0
M  V30 10412 H 970.64 -0.920815 4.1388 0
M  V30 10413 C 969.099 -1.729 2.89149 0
M  V30 10414 O 969.629 -2.82769 2.85315 0
M  V30 10415 N 967.835 -1.5508 2.45761 0
M  V30 10416 H 967.382 -0.657055 2.49079 0
M  V30 10417 H 967.34 -2.34099 2.0987 0
M  V30 10418 N 971.112 -1.45937 0.595003 0
M  V30 10419 C 972.361 -2.01529 0.0829531 0
M  V30 10420 C 972.674 -1.47071 -1.28955 0
M  V30 10421 O 973.88 -1.94561 -1.89363 0
M  V30 10422 C 972.336 -3.59767 0.0976597 0
M  V30 10423 C 971.944 -4.23223 1.46924 0
M  V30 10424 C 973.688 -4.22972 -0.359805 0
M  V30 10425 C 971.595 -5.73576 1.44101 0
M  V30 10426 H 970.525 -0.753508 0.0272425 0
M  V30 10427 H 973.176 -1.67541 0.748473 0
M  V30 10428 H 971.558 -3.90888 -0.634268 0
M  V30 10429 H 972.732 -4.03695 2.22187 0
M  V30 10430 H 971.047 -3.72161 1.86775 0
M  V30 10431 H 973.644 -5.33202 -0.39991 0
M  V30 10432 H 973.987 -3.92765 -1.37991 0
M  V30 10433 H 974.52 -3.96523 0.31845 0
M  V30 10434 H 971.259 -6.08462 2.43831 0
M  V30 10435 H 970.779 -5.95332 0.730767 0
M  V30 10436 H 972.458 -6.36531 1.1592 0
M  V30 10437 N 972.59 -0.333456 -1.54032 0
M  V30 10438 C 973.839 0.267081 -1.99924 0
M  V30 10439 C 974.152 1.52463 -1.22534 0
M  V30 10440 O 975.358 2.20178 -1.58852 0
M  V30 10441 C 973.814 0.526456 -3.56029 0
M  V30 10442 C 973.422 -0.714607 -4.42264 0
M  V30 10443 C 975.166 1.0864 -4.10363 0
M  V30 10444 C 973.073 -0.42659 -5.89859 0
M  V30 10445 H 972.003 0.103577 -0.746852 0
M  V30 10446 H 974.654 -0.447218 -1.77967 0
M  V30 10447 H 973.036 1.3012 -3.74012 0
M  V30 10448 H 974.21 -1.48968 -4.36056 0
M  V30 10449 H 972.525 -1.19547 -3.9887 0
M  V30 10450 H 975.122 1.31668 -5.18235 0
M  V30 10451 H 975.465 2.03884 -3.62956 0
M  V30 10452 H 975.998 0.37261 -3.96051 0
M  V30 10453 H 972.737 -1.34847 -6.4148 0
M  V30 10454 H 972.257 0.310588 -5.98995 0
M  V30 10455 H 973.936 -0.0400807 -6.46988 0
M  V30 10456 N 974.068 1.57479 -0.061844 0
M  V30 10457 C 975.314 1.93395 0.610443 0
M  V30 10458 C 975.647 0.941334 1.6986 0
M  V30 10459 O 974.922 -0.0310262 1.94475 0
M  V30 10460 C 975.205 3.39636 1.19664 0
M  V30 10461 C 975.058 4.49651 0.115805 0
M  V30 10462 C 976.377 3.86488 2.10512 0
M  V30 10463 H 973.496 0.703262 0.220436 0
M  V30 10464 H 976.138 1.89583 -0.125785 0
M  V30 10465 H 974.288 3.43015 1.82409 0
M  V30 10466 H 975.96 4.58397 -0.516728 0
M  V30 10467 H 974.203 4.30237 -0.55483 0
M  V30 10468 H 974.874 5.49089 0.566176 0
M  V30 10469 H 977.35 3.85052 1.57715 0
M  V30 10470 H 976.226 4.89444 2.48466 0
M  V30 10471 H 976.487 3.23856 3.00948 0
M  V30 10472 N 975.546 -0.211634 1.56173 0
M  V30 10473 C 976.476 -1.26533 1.96244 0
M  V30 10474 C 977.457 -1.48362 0.832028 0
M  V30 10475 O 978.642 -1.60378 1.0951 0
M  V30 10476 C 975.772 -2.61307 2.2877 0
M  V30 10477 C 974.726 -2.54119 3.44395 0
M  V30 10478 C 974.052 -3.93014 3.62552 0
M  V30 10479 C 975.352 -2.08046 4.79076 0
M  V30 10480 H 977.046 -0.932407 2.84511 0
M  V30 10481 H 974.592 -0.447084 1.36884 0
M  V30 10482 H 976.545 -3.35188 2.55396 0
M  V30 10483 H 975.269 -2.96307 1.37367 0
M  V30 10484 H 973.928 -1.82694 3.17834 0
M  V30 10485 H 973.576 -4.25338 2.68508 0
M  V30 10486 H 973.276 -3.89083 4.40327 0
M  V30 10487 H 974.8 -4.68542 3.91537 0
M  V30 10488 H 976.214 -2.71676 5.04842 0
M  V30 10489 H 974.611 -2.15154 5.60204 0
M  V30 10490 H 975.681 -1.03306 4.73768 0
M  V30 10491 N 977.024 -1.50153 -0.478725 0
M  V30 10492 C 978.27 -1.60998 -1.23318 0
M  V30 10493 C 978.603 -0.305868 -1.91776 0
M  V30 10494 O 977.878 0.692158 -1.81767 0
M  V30 10495 C 978.161 -2.78495 -2.28282 0
M  V30 10496 C 978.014 -4.18767 -1.64178 0
M  V30 10497 C 979.333 -2.91569 -3.2966 0
M  V30 10498 H 976.452 -0.585983 -0.446982 0
M  V30 10499 H 979.094 -1.82514 -0.528063 0
M  V30 10500 H 977.244 -2.60281 -2.8842 0
M  V30 10501 H 978.916 -4.48552 -1.07696 0
M  V30 10502 H 977.159 -4.23379 -0.94514 0
M  V30 10503 H 977.83 -4.96894 -2.40417 0
M  V30 10504 H 980.306 -3.08219 -2.79536 0
M  V30 10505 H 979.182 -3.75419 -4.0044 0
M  V30 10506 H 979.443 -2.01859 -3.93326 0
M  V30 10507 N 978.502 0.731368 -1.39602 0
M  V30 10508 C 979.748 1.49321 -1.37227 0
M  V30 10509 C 980.081 1.94176 0.0306502 0
M  V30 10510 O 979.356 1.67046 0.996294 0
M  V30 10511 C 979.639 2.73035 -2.34784 0
M  V30 10512 C 979.492 2.34176 -3.84033 0
M  V30 10513 C 980.811 3.75146 -2.30116 0
M  V30 10514 H 977.93 0.541652 -0.499783 0
M  V30 10515 H 980.572 0.835968 -1.70621 0
M  V30 10516 H 978.722 3.29114 -2.06437 0
M  V30 10517 H 980.394 1.83701 -4.23145 0
M  V30 10518 H 978.637 1.66361 -4.00633 0
M  V30 10519 H 979.308 3.22786 -4.47787 0
M  V30 10520 H 981.784 3.28661 -2.55189 0
M  V30 10521 H 980.66 4.5937 -3.00451 0
M  V30 10522 H 980.921 4.22326 -1.30741 0
M  V30 10523 N 979.98 1.24838 0.961938 0
M  V30 10524 C 980.943 1.04674 2.03902 0
M  V30 10525 C 981.943 0.00204674 1.608 0
M  V30 10526 O 983.133 0.243555 1.72489 0
M  V30 10527 C 980.265 0.587736 3.35795 0
M  V30 10528 H 981.458 2.00278 2.23223 0
M  V30 10529 H 979.011 1.07142 1.138 0
M  V30 10530 H 979.746 -0.371244 3.22168 0
M  V30 10531 H 979.531 1.34182 3.68426 0
M  V30 10532 H 981.021 0.467867 4.14971 0
M  V30 10533 N 981.458 -1.16348 1.06306 0
M  V30 10534 C 982.39 -2.20316 0.631929 0
M  V30 10535 C 983.403 -1.59819 -0.310133 0
M  V30 10536 O 984.592 -1.78213 -0.101103 0
M  V30 10537 C 981.692 -3.3877 -0.0937645 0
M  V30 10538 C 980.865 -4.28826 0.861816 0
M  V30 10539 C 979.924 -5.25908 0.175346 0
M  V30 10540 O 978.95 -5.63363 0.813039 0
M  V30 10541 N 980.152 -5.70307 -1.08305 0
M  V30 10542 H 982.917 -2.57925 1.52626 0
M  V30 10543 H 980.478 -1.31358 0.946392 0
M  V30 10544 H 982.47 -4.00759 -0.563412 0
M  V30 10545 H 981.04 -2.99666 -0.889904 0
M  V30 10546 H 980.26 -3.64098 1.51083 0
M  V30 10547 H 981.548 -4.85875 1.51007 0
M  V30 10548 H 980.946 -5.4197 -1.62127 0
M  V30 10549 H 979.503 -6.34387 -1.49656 0
M  V30 10550 N 982.937 -0.845659 -1.3299 0
M  V30 10551 C 984.184 -0.444653 -1.97558 0
M  V30 10552 C 984.512 0.997682 -1.66963 0
M  V30 10553 O 983.767 1.71349 -0.94541 0
M  V30 10554 C 984.066 -0.6201 -3.51979 0
M  V30 10555 C 983.732 -2.03155 -4.02541 0
M  V30 10556 C 982.394 -2.4176 -4.16059 0
M  V30 10557 C 984.746 -2.95317 -4.29462 0
M  V30 10558 C 982.074 -3.71818 -4.53837 0
M  V30 10559 C 984.426 -4.24863 -4.68694 0
M  V30 10560 C 983.09 -4.63416 -4.80419 0
M  V30 10561 H 982.36 -0.16271 -0.722915 0
M  V30 10562 H 985.007 -1.07399 -1.58549 0
M  V30 10563 H 983.312 0.092513 -3.91691 0
M  V30 10564 H 985.009 -0.290012 -3.9995 0
M  V30 10565 H 981.599 -1.72174 -3.92497 0
M  V30 10566 H 985.783 -2.66726 -4.18534 0
M  V30 10567 H 981.039 -4.01484 -4.61108 0
M  V30 10568 H 985.213 -4.96347 -4.8848 0
M  V30 10569 H 982.84 -5.6424 -5.09448 0
M  V30 10570 N 984.415 1.45619 -0.602734 0
M  V30 10571 C 985.64 2.07157 -0.100429 0
M  V30 10572 C 986.065 1.44524 1.20393 0
M  V30 10573 O 985.423 0.536191 1.7319 0
M  V30 10574 C 985.471 3.60587 0.0308604 0
M  V30 10575 O 984.575 3.97944 1.08234 0
M  V30 10576 H 983.916 0.6601 -0.0718643 0
M  V30 10577 H 986.446 1.86948 -0.831366 0
M  V30 10578 H 986.456 4.07348 0.230634 0
M  V30 10579 H 985.131 4.05561 -0.921581 0
M  V30 10580 H 983.708 3.62862 0.859414 0
M  V30 10581 N 985.893 0.34162 1.53853 0
M  V30 10582 C 987.141 -0.254979 2.00485 0
M  V30 10583 C 987.462 -1.51222 1.23114 0
M  V30 10584 O 986.732 -1.92966 0.337787 0
M  V30 10585 H 985.312 -0.0972084 0.740648 0
M  V30 10586 H 987.974 0.462332 1.89337 0
M  V30 10587 H 987.07 -0.498778 3.08089 0
M  V30 10588 N 987.371 -1.57444 0.0701946 0
M  V30 10589 C 988.301 -2.15659 -0.895176 0
M  V30 10590 C 989.282 -1.08321 -1.31151 0
M  V30 10591 O 990.467 -1.36349 -1.38284 0
M  V30 10592 C 987.597 -2.71693 -2.16334 0
M  V30 10593 C 986.551 -3.84183 -1.88645 0
M  V30 10594 C 985.877 -4.26814 -3.22078 0
M  V30 10595 C 987.177 -5.08493 -1.19299 0
M  V30 10596 H 988.871 -2.96576 -0.410217 0
M  V30 10597 H 986.417 -1.42662 -0.195872 0
M  V30 10598 H 988.37 -3.11064 -2.84284 0
M  V30 10599 H 987.094 -1.87994 -2.67069 0
M  V30 10600 H 985.753 -3.45314 -1.23101 0
M  V30 10601 H 985.401 -3.40039 -3.70651 0
M  V30 10602 H 985.101 -5.02642 -3.04344 0
M  V30 10603 H 986.625 -4.68799 -3.91228 0
M  V30 10604 H 988.039 -5.4519 -1.77316 0
M  V30 10605 H 986.436 -5.89588 -1.11828 0
M  V30 10606 H 987.506 -4.84595 -0.171839 0
M  V30 10607 N 988.849 0.203349 -1.56283 0
M  V30 10608 C 990.095 0.926381 -1.80405 0
M  V30 10609 C 990.428 1.8325 -0.642883 0
M  V30 10610 O 989.703 1.91196 0.356998 0
M  V30 10611 C 989.986 1.74972 -3.14733 0
M  V30 10612 C 989.839 0.868866 -4.41328 0
M  V30 10613 C 991.158 2.72394 -3.45672 0
M  V30 10614 H 988.277 0.335346 -0.656286 0
M  V30 10615 H 990.919 0.1942 -1.89005 0
M  V30 10616 H 989.069 2.37394 -3.07533 0
M  V30 10617 H 990.741 0.259986 -4.60567 0
M  V30 10618 H 988.984 0.175161 -4.33446 0
M  V30 10619 H 989.655 1.47975 -5.31796 0
M  V30 10620 H 992.131 2.20105 -3.53119 0
M  V30 10621 H 991.007 3.27091 -4.40798 0
M  V30 10622 H 991.268 3.51035 -2.6875 0
M  V30 10623 N 990.327 1.50405 0.470755 0
M  V30 10624 C 991.259 1.65447 1.58619 0
M  V30 10625 C 992.272 0.535949 1.53725 0
M  V30 10626 O 993.461 0.80914 1.59107 0
M  V30 10627 C 990.561 1.62318 2.975 0
M  V30 10628 C 989.734 2.90207 3.27259 0
M  V30 10629 C 988.793 2.79717 4.45696 0
M  V30 10630 O 987.819 3.53672 4.45987 0
M  V30 10631 N 989.021 1.93296 5.47373 0
M  V30 10632 H 991.786 2.61659 1.46132 0
M  V30 10633 H 989.347 1.47873 0.659178 0
M  V30 10634 H 991.339 1.52912 3.747 0
M  V30 10635 H 989.909 0.738392 3.03754 0
M  V30 10636 H 989.129 3.13737 2.38669 0
M  V30 10637 H 990.417 3.74931 3.43953 0
M  V30 10638 H 989.815 1.32524 5.49958 0
M  V30 10639 H 988.372 1.89793 6.23556 0
M  V30 10640 N 991.805 -0.723954 1.39988 0
M  V30 10641 C 993.051 -1.48476 1.3902 0
M  V30 10642 C 993.406 -1.92397 -0.0105439 0
M  V30 10643 O 992.699 -1.64683 -0.979294 0
M  V30 10644 C 992.893 -2.73004 2.30659 0
M  V30 10645 C 992.722 -2.41261 3.79504 0
M  V30 10646 C 991.492 -2.33013 4.48367 0
M  V30 10647 C 993.69 -2.06078 4.71207 0
M  V30 10648 N 991.672 -1.93856 5.82489 0
M  V30 10649 C 993.043 -1.77455 5.94062 0
M  V30 10650 C 995.098 -1.92642 4.59123 0
M  V30 10651 C 993.801 -1.36748 7.06182 0
M  V30 10652 C 995.827 -1.53338 5.71175 0
M  V30 10653 C 995.189 -1.25607 6.93111 0
M  V30 10654 H 991.288 -0.54172 0.563971 0
M  V30 10655 H 993.872 -0.840344 1.75631 0
M  V30 10656 H 992.043 -3.35209 1.96188 0
M  V30 10657 H 993.775 -3.39286 2.20606 0
M  V30 10658 H 990.53 -2.50476 4.01944 0
M  V30 10659 H 990.954 -1.7684 6.53496 0
M  V30 10660 H 995.596 -2.12745 3.65376 0
M  V30 10661 H 993.314 -1.15386 7.9982 0
M  V30 10662 H 996.9 -1.43532 5.63817 0
M  V30 10663 H 995.78 -0.956505 7.78345 0
M  V30 10664 N 993.283 -1.25346 -0.955304 0
M  V30 10665 C 994.246 -1.05754 -2.03344 0
M  V30 10666 C 995.246 -0.0105743 -1.60797 0
M  V30 10667 O 996.436 -0.252699 -1.72357 0
M  V30 10668 C 993.568 -0.605536 -3.35479 0
M  V30 10669 H 994.761 -2.01459 -2.22158 0
M  V30 10670 H 992.314 -1.07744 -1.1323 0
M  V30 10671 H 993.049 0.354154 -3.2236 0
M  V30 10672 H 992.834 -1.36134 -3.67709 0
M  V30 10673 H 994.324 -0.489867 -4.14717 0
M  V30 10674 N 994.761 1.15782 -1.06922 0
M  V30 10675 C 995.671 2.24008 -0.696948 0
M  V30 10676 C 996.687 1.71569 0.289862 0
M  V30 10677 O 997.863 2.00929 0.137585 0
M  V30 10678 C 994.928 3.46568 -0.0957895 0
M  V30 10679 C 993.989 4.14017 -1.13528 0
M  V30 10680 C 993.222 5.30725 -0.562713 0
M  V30 10681 O 993.445 5.66992 0.62259 0
M  V30 10682 O 992.379 5.87572 -1.30549 0
M  V30 10683 H 996.205 2.58174 -1.59938 0
M  V30 10684 H 993.79 1.2342 -0.841889 0
M  V30 10685 H 995.672 4.20731 0.237407 0
M  V30 10686 H 994.347 3.14161 0.780027 0
M  V30 10687 H 993.254 3.41795 -1.52076 0
M  V30 10688 H 994.587 4.50493 -1.98285 0
M  V30 10689 N 996.239 0.8527 1.3254 0
M  V30 10690 C 997.486 0.455123 1.97319 0
M  V30 10691 C 997.814 -0.988814 1.67489 0
M  V30 10692 O 997.069 -1.70845 0.954483 0
M  V30 10693 C 997.368 0.638757 3.51646 0
M  V30 10694 C 997.034 2.05287 4.01458 0
M  V30 10695 C 995.696 2.43963 4.14771 0
M  V30 10696 C 998.048 2.9759 4.27889 0
M  V30 10697 C 995.376 3.7422 4.51859 0
M  V30 10698 C 997.728 4.27343 4.66434 0
M  V30 10699 C 996.392 4.65957 4.77954 0
M  V30 10700 H 995.662 0.166541 0.722042 0
M  V30 10701 H 998.309 1.08238 1.57977 0
M  V30 10702 H 996.614 -0.0717394 3.91734 0
M  V30 10703 H 998.311 0.311219 3.9979 0
M  V30 10704 H 994.901 1.74253 3.91579 0
M  V30 10705 H 999.085 2.68942 4.17114 0
M  V30 10706 H 994.341 4.03923 4.58973 0
M  V30 10707 H 998.515 4.9893 4.85841 0
M  V30 10708 H 996.142 5.66934 5.06449 0
M  V30 10709 N 997.718 -1.45297 0.610449 0
M  V30 10710 C 998.967 -2.0143 0.104323 0
M  V30 10711 C 999.28 -1.48431 -1.27388 0
M  V30 10712 O 1000.49 -1.96558 -1.87289 0
M  V30 10713 C 998.942 -3.59644 0.135812 0
M  V30 10714 C 998.55 -4.2164 1.51405 0
M  V30 10715 C 1000.29 -4.2333 -0.314922 0
M  V30 10716 C 998.201 -5.72015 1.50176 0
M  V30 10717 H 997.131 -0.753176 0.035233 0
M  V30 10718 H 999.782 -1.66738 0.7662 0
M  V30 10719 H 998.164 -3.91538 -0.592773 0
M  V30 10720 H 999.338 -4.01315 2.26457 0
M  V30 10721 H 997.653 -3.70159 1.90712 0
M  V30 10722 H 1000.25 -5.33597 -0.343335 0
M  V30 10723 H 1000.59 -3.94206 -1.33817 0
M  V30 10724 H 1001.13 -3.96163 0.360489 0
M  V30 10725 H 997.865 -6.05842 2.50271 0
M  V30 10726 H 997.385 -5.94523 0.793869 0
M  V30 10727 H 999.064 -6.35266 1.22665 0
M  V30 10728 N 999.196 -0.349774 -1.5367 0
M  V30 10729 C 1000.13 0.496338 -2.28164 0
M  V30 10730 C 1001.11 1.09737 -1.29968 0
M  V30 10731 O 1002.29 1.11759 -1.58819 0
M  V30 10732 C 999.422 1.64428 -3.0591 0
M  V30 10733 C 998.376 1.17127 -4.11661 0
M  V30 10734 C 997.702 2.40822 -4.77398 0
M  V30 10735 C 999.002 0.267293 -5.21616 0
M  V30 10736 H 1000.7 -0.125117 -2.99138 0
M  V30 10737 H 998.242 -0.0616152 -1.43868 0
M  V30 10738 H 1000.19 2.2427 -3.56765 0
M  V30 10739 H 998.919 2.29272 -2.32598 0
M  V30 10740 H 997.578 0.595634 -3.61729 0
M  V30 10741 H 997.226 3.04088 -4.00674 0
M  V30 10742 H 996.926 2.09852 -5.48849 0
M  V30 10743 H 998.45 3.01378 -5.3104 0
M  V30 10744 H 999.864 0.772734 -5.68068 0
M  V30 10745 H 998.261 0.0491991 -6.0008 0
M  V30 10746 H 999.331 -0.694892 -4.79895 0
M  V30 10747 N 1000.67 1.57404 -0.0785433 0
M  V30 10748 C 1001.92 1.93744 0.589024 0
M  V30 10749 C 1002.25 0.959087 1.69209 0
M  V30 10750 O 1001.5 -0.0241604 1.95685 0
M  V30 10751 C 1001.8 3.36684 1.1991 0
M  V30 10752 C 1001.47 4.50356 0.221493 0
M  V30 10753 C 1000.13 4.81177 -0.0474347 0
M  V30 10754 C 1002.48 5.1928 -0.446941 0
M  V30 10755 C 999.811 5.78257 -0.99177 0
M  V30 10756 C 1002.16 6.17372 -1.37964 0
M  V30 10757 C 1000.83 6.46607 -1.65697 0
M  V30 10758 H 1000.1 0.70896 0.215539 0
M  V30 10759 H 1002.74 1.90905 -0.150856 0
M  V30 10760 H 1001.05 3.36022 2.01486 0
M  V30 10761 H 1002.75 3.62095 1.72303 0
M  V30 10762 H 999.336 4.26322 0.441284 0
M  V30 10763 H 1003.52 4.95658 -0.252298 0
M  V30 10764 H 998.776 5.9923 -1.21381 0
M  V30 10765 H 1002.95 6.6988 -1.9035 0
M  V30 10766 H 1000.58 7.21643 -2.39031 0
M  V30 10767 N 1002.15 -0.195058 1.56388 0
M  V30 10768 C 1003.38 -0.935745 1.85091 0
M  V30 10769 C 1003.8 -1.76061 0.662118 0
M  V30 10770 O 1003.16 -1.77076 -0.389083 0
M  V30 10771 C 1003.21 -1.80764 3.1202 0
M  V30 10772 O 1002.31 -2.90643 2.92575 0
M  V30 10773 H 1001.65 -0.26351 0.609474 0
M  V30 10774 H 1004.18 -0.200362 2.03617 0
M  V30 10775 H 1004.19 -2.21229 3.42815 0
M  V30 10776 H 1002.87 -1.20157 3.98165 0
M  V30 10777 H 1001.44 -2.53934 2.73079 0
M  V30 10778 N 1003.63 -1.50653 -0.462772 0
M  V30 10779 C 1004.87 -1.637 -1.22399 0
M  V30 10780 C 1005.23 -0.333847 -1.89075 0
M  V30 10781 O 1006.43 -0.339837 -2.66643 0
M  V30 10782 C 1004.71 -2.79018 -2.23347 0
M  V30 10783 S 1006.26 -3.12248 -3.08296 0
M  V30 10784 H 1003.08 -0.576998 -0.415444 0
M  V30 10785 H 1005.68 -1.88468 -0.519631 0
M  V30 10786 H 1004.39 -3.72174 -1.72958 0
M  V30 10787 H 1003.92 -2.56362 -2.98399 0
M  V30 10788 H 1005.93 -2.56716 -4.24631 0
M  V30 10789 N 1005.11 0.71652 -1.4037 0
M  V30 10790 C 1006.04 1.84345 -1.43315 0
M  V30 10791 C 1007.02 1.67537 -0.294186 0
M  V30 10792 O 1008.2 1.87582 -0.502671 0
M  V30 10793 C 1005.33 3.2229 -1.29408 0
M  V30 10794 C 1004.29 3.53769 -2.40897 0
M  V30 10795 C 1003.61 4.90847 -2.12068 0
M  V30 10796 C 1004.91 3.54862 -3.83237 0
M  V30 10797 H 1006.61 1.82138 -2.37626 0
M  V30 10798 H 1004.15 0.874873 -1.14376 0
M  V30 10799 H 1006.11 4.00819 -1.30085 0
M  V30 10800 H 1004.83 3.2507 -0.31573 0
M  V30 10801 H 1003.49 2.77579 -2.39469 0
M  V30 10802 H 1003.14 4.90229 -1.12626 0
M  V30 10803 H 1002.84 5.12875 -2.86762 0
M  V30 10804 H 1004.36 5.71711 -2.14426 0
M  V30 10805 H 1005.78 4.23432 -3.86494 0
M  V30 10806 H 1004.17 3.88416 -4.57442 0
M  V30 10807 H 1005.24 2.54266 -4.12888 0
M  V30 10808 N 1006.59 1.25851 0.948643 0
M  V30 10809 C 1007.52 1.09248 2.06367 0
M  V30 10810 C 1008.5 -0.000205168 1.701 0
M  V30 10811 O 1009.68 0.170442 1.93451 0
M  V30 10812 C 1006.81 0.716777 3.39823 0
M  V30 10813 C 1005.77 1.76036 3.90122 0
M  V30 10814 C 1005.09 1.23918 5.20143 0
M  V30 10815 C 1006.39 3.16039 4.15833 0
M  V30 10816 H 1008.09 2.02518 2.20515 0
M  V30 10817 H 1005.63 0.975093 1.05962 0
M  V30 10818 H 1007.59 0.587531 4.17284 0
M  V30 10819 H 1006.31 -0.251626 3.25629 0
M  V30 10820 H 1004.97 1.87815 3.14835 0
M  V30 10821 H 1004.62 0.260836 5.02323 0
M  V30 10822 H 1004.32 1.93673 5.54765 0
M  V30 10823 H 1005.84 1.12245 6.00194 0
M  V30 10824 H 1007.25 3.0738 4.83933 0
M  V30 10825 H 1005.65 3.83317 4.61723 0
M  V30 10826 H 1006.72 3.62652 3.21887 0
M  V30 10827 N 1008.06 -1.15214 1.07534 0
M  V30 10828 C 1008.99 -2.2216 0.718837 0
M  V30 10829 C 1009.98 -1.6753 -0.29459 0
M  V30 10830 O 1011.16 -1.93481 -0.166931 0
M  V30 10831 C 1008.29 -3.471 0.117836 0
M  V30 10832 C 1007.24 -4.14701 1.05862 0
M  V30 10833 C 1006.57 -5.3374 0.320284 0
M  V30 10834 C 1007.87 -4.64254 2.39302 0
M  V30 10835 H 1009.56 -2.52237 1.61297 0
M  V30 10836 H 1007.11 -1.21239 0.776992 0
M  V30 10837 H 1009.06 -4.21156 -0.143519 0
M  V30 10838 H 1007.79 -3.16361 -0.811389 0
M  V30 10839 H 1006.45 -3.42589 1.30493 0
M  V30 10840 H 1006.09 -4.99257 -0.61246 0
M  V30 10841 H 1005.79 -5.79912 0.947381 0
M  V30 10842 H 1007.32 -6.10563 0.0667721 0
M  V30 10843 H 1008.73 -5.29827 2.18988 0
M  V30 10844 H 1007.13 -5.21095 2.97623 0
M  V30 10845 H 1008.2 -3.79793 3.01472 0
M  V30 10846 N 1009.54 -0.859717 -1.32086 0
M  V30 10847 C 1010.79 -0.466271 -1.97367 0
M  V30 10848 C 1011.12 0.976728 -1.6785 0
M  V30 10849 O 1010.4 1.68618 -0.969449 0
M  V30 10850 C 1010.68 -0.711851 -3.52994 0
M  V30 10851 C 1010.53 -2.20364 -3.92122 0
M  V30 10852 C 1011.85 -0.17156 -4.39765 0
M  V30 10853 H 1008.97 -0.170883 -0.716916 0
M  V30 10854 H 1011.61 -1.07907 -1.56384 0
M  V30 10855 H 1009.76 -0.190258 -3.88034 0
M  V30 10856 H 1011.43 -2.7917 -3.67236 0
M  V30 10857 H 1009.68 -2.68019 -3.41099 0
M  V30 10858 H 1010.35 -2.32615 -5.00594 0
M  V30 10859 H 1012.82 -0.617665 -4.1149 0
M  V30 10860 H 1011.7 -0.372921 -5.47632 0
M  V30 10861 H 1011.96 0.925959 -4.32294 0
M  V30 10862 N 1011.02 1.44971 -0.618145 0
M  V30 10863 C 1012.27 2.01372 -0.115004 0
M  V30 10864 C 1012.58 1.49104 1.26599 0
M  V30 10865 O 1013.79 1.97549 1.86244 0
M  V30 10866 C 1012.24 3.59567 -0.154883 0
M  V30 10867 C 1011.85 4.20832 -1.53639 0
M  V30 10868 C 1013.6 4.23491 0.292468 0
M  V30 10869 C 1011.5 5.7121 -1.53208 0
M  V30 10870 H 1010.43 0.752979 -0.0392267 0
M  V30 10871 H 1013.08 1.66329 -0.775032 0
M  V30 10872 H 1011.47 3.91847 0.572001 0
M  V30 10873 H 1012.64 4.00109 -2.28582 0
M  V30 10874 H 1010.96 3.69143 -1.92672 0
M  V30 10875 H 1013.55 5.33771 0.315032 0
M  V30 10876 H 1013.9 3.9491 1.31725 0
M  V30 10877 H 1014.43 3.95967 -0.381493 0
M  V30 10878 H 1011.17 6.04506 -2.53481 0
M  V30 10879 H 1010.69 5.94094 -0.825387 0
M  V30 10880 H 1012.37 6.34606 -1.26032 0
M  V30 10881 N 1012.5 0.357919 1.53482 0
M  V30 10882 C 1013.74 -0.23433 2.03052 0
M  V30 10883 C 1014.1 -1.46614 1.23969 0
M  V30 10884 O 1015.3 -2.13351 1.63508 0
M  V30 10885 C 1013.57 -0.526653 3.53498 0
M  V30 10886 S 1015.13 -1.09366 4.24952 0
M  V30 10887 H 1011.95 -0.0687848 0.707665 0
M  V30 10888 H 1014.55 0.499011 1.89024 0
M  V30 10889 H 1013.26 0.377463 4.0866 0
M  V30 10890 H 1012.79 -1.28927 3.71674 0
M  V30 10891 H 1014.8 -2.37845 4.35481 0
M  V30 10892 N 1013.98 -1.5736 0.0868897 0
M  V30 10893 C 1014.91 -2.16596 -0.872252 0
M  V30 10894 C 1015.89 -1.09706 -1.29995 0
M  V30 10895 O 1017.07 -1.37808 -1.36831 0
M  V30 10896 C 1014.2 -2.73972 -2.1344 0
M  V30 10897 C 1013.16 -3.86163 -1.8456 0
M  V30 10898 C 1012.48 -4.30206 -3.17533 0
M  V30 10899 C 1013.78 -5.0973 -1.13899 0
M  V30 10900 H 1015.48 -2.96995 -0.378738 0
M  V30 10901 H 1013.02 -1.42861 -0.18073 0
M  V30 10902 H 1014.98 -3.14062 -2.80968 0
M  V30 10903 H 1013.7 -1.90817 -2.6506 0
M  V30 10904 H 1012.36 -3.466 -1.19432 0
M  V30 10905 H 1012.01 -3.43951 -3.67024 0
M  V30 10906 H 1011.71 -5.05841 -2.98996 0
M  V30 10907 H 1013.23 -4.72922 -3.86234 0
M  V30 10908 H 1014.64 -5.4704 -1.71523 0
M  V30 10909 H 1013.04 -5.90741 -1.05569 0
M  V30 10910 H 1014.11 -4.8475 -0.120432 0
M  V30 10911 N 1015.45 0.186762 -1.56489 0
M  V30 10912 C 1016.7 0.904077 -1.80303 0
M  V30 10913 C 1017.02 1.84073 -0.661538 0
M  V30 10914 O 1018.22 2.59928 -0.784197 0
M  V30 10915 C 1016.68 1.65806 -3.19432 0
M  V30 10916 C 1016.29 0.765807 -4.41406 0
M  V30 10917 C 1018.03 2.36451 -3.52549 0
M  V30 10918 C 1015.94 1.51913 -5.71556 0
M  V30 10919 H 1014.87 0.34133 -0.672317 0
M  V30 10920 H 1017.52 0.157218 -1.82825 0
M  V30 10921 H 1015.9 2.44911 -3.11183 0
M  V30 10922 H 1017.07 0.0128225 -4.60798 0
M  V30 10923 H 1015.39 0.169772 -4.16054 0
M  V30 10924 H 1017.99 2.93378 -4.47027 0
M  V30 10925 H 1018.33 3.11044 -2.7669 0
M  V30 10926 H 1018.86 1.64305 -3.62283 0
M  V30 10927 H 1015.6 0.815829 -6.50403 0
M  V30 10928 H 1015.12 2.24583 -5.56168 0
M  V30 10929 H 1016.8 2.07073 -6.12968 0
M  V30 10930 N 1016.93 1.50896 0.454776 0
M  V30 10931 C 1018.18 1.62699 1.20562 0
M  V30 10932 C 1018.51 0.334943 1.91594 0
M  V30 10933 O 1017.76 -0.680106 1.83502 0
M  V30 10934 C 1018.06 2.76839 2.26042 0
M  V30 10935 C 1017.73 4.16745 1.72147 0
M  V30 10936 C 1016.39 4.54809 1.5717 0
M  V30 10937 C 1018.74 5.04118 1.32341 0
M  V30 10938 C 1016.07 5.7797 1.00835 0
M  V30 10939 C 1018.42 6.27842 0.774419 0
M  V30 10940 C 1017.09 6.64694 0.611415 0
M  V30 10941 H 1016.36 0.595358 0.441169 0
M  V30 10942 H 1019 1.84879 0.499202 0
M  V30 10943 H 1017.31 2.48812 3.02655 0
M  V30 10944 H 1019 2.83173 2.83926 0
M  V30 10945 H 1015.59 3.86725 1.84775 0
M  V30 10946 H 1019.78 4.75331 1.42739 0
M  V30 10947 H 1015.03 6.05183 0.869669 0
M  V30 10948 H 1019.21 6.94896 0.457389 0
M  V30 10949 H 1016.84 7.60004 0.172751 0
M  V30 10950 N 1018.41 -0.709066 1.40748 0
M  V30 10951 C 1019.64 -1.50313 1.42901 0
M  V30 10952 C 1020.06 -1.88072 0.032213 0
M  V30 10953 O 1019.42 -1.53716 -0.96131 0
M  V30 10954 C 1019.47 -2.75074 2.33166 0
M  V30 10955 O 1018.57 -3.72036 1.7794 0
M  V30 10956 H 1017.91 -0.452934 0.485538 0
M  V30 10957 H 1020.44 -0.872712 1.85054 0
M  V30 10958 H 1020.45 -3.23532 2.48578 0
M  V30 10959 H 1019.13 -2.46927 3.34664 0
M  V30 10960 H 1017.7 -3.30911 1.71908 0
M  V30 10961 N 1019.89 -1.26353 -0.941956 0
M  V30 10962 C 1021.14 -1.11241 -1.68251 0
M  V30 10963 C 1021.45 0.344055 -1.9255 0
M  V30 10964 O 1022.66 0.615832 -2.64423 0
M  V30 10965 C 1021.11 -1.94269 -3.02965 0
M  V30 10966 C 1020.72 -3.44485 -2.86415 0
M  V30 10967 C 1022.47 -1.87764 -3.80716 0
M  V30 10968 C 1020.37 -4.19763 -4.16597 0
M  V30 10969 H 1019.3 -0.412694 -0.63103 0
M  V30 10970 H 1021.95 -1.50656 -1.04762 0
M  V30 10971 H 1020.34 -1.47687 -3.6743 0
M  V30 10972 H 1021.51 -3.9883 -2.30805 0
M  V30 10973 H 1019.82 -3.52218 -2.22107 0
M  V30 10974 H 1022.42 -2.41292 -4.77161 0
M  V30 10975 H 1022.76 -0.848195 -4.07568 0
M  V30 10976 H 1023.3 -2.32165 -3.23024 0
M  V30 10977 H 1020.04 -5.23173 -3.9493 0
M  V30 10978 H 1019.56 -3.70198 -4.71925 0
M  V30 10979 H 1021.24 -4.28168 -4.85058 0
M  V30 10980 N 1021.37 1.14642 -1.08144 0
M  V30 10981 C 1022.3 2.18656 -0.653066 0
M  V30 10982 C 1023.28 1.59137 0.333803 0
M  V30 10983 O 1024.46 1.86988 0.238305 0
M  V30 10984 C 1021.59 3.38677 0.0398337 0
M  V30 10985 C 1020.64 4.1675 -0.906755 0
M  V30 10986 S 1021.47 4.78103 -2.41201 0
M  V30 10987 C 1022.62 6.01483 -1.73115 0
M  V30 10988 H 1022.86 2.54654 -1.53423 0
M  V30 10989 H 1020.39 1.25731 -0.896162 0
M  V30 10990 H 1022.35 4.08206 0.43334 0
M  V30 10991 H 1021.01 3.01006 0.897457 0
M  V30 10992 H 1020.2 5.02649 -0.368795 0
M  V30 10993 H 1019.8 3.52809 -1.24103 0
M  V30 10994 H 1022.1 6.69353 -1.04752 0
M  V30 10995 H 1023.04 6.59863 -2.56878 0
M  V30 10996 H 1023.45 5.51474 -1.20566 0
M  V30 10997 N 1022.85 0.866709 1.31628 0
M  V30 10998 C 1024.09 0.475086 1.96437 0
M  V30 10999 C 1024.41 -0.975179 1.68865 0
M  V30 11000 O 1023.68 -1.68317 1.0023 0
M  V30 11001 H 1022.26 0.172695 0.726764 0
M  V30 11002 H 1024.93 1.10578 1.60494 0
M  V30 11003 H 1024.02 0.630123 3.05673 0
M  V30 11004 N 1024.32 -1.44642 0.625825 0
M  V30 11005 C 1025.55 -2.06159 0.13492 0
M  V30 11006 C 1025.96 -1.46801 -1.19357 0
M  V30 11007 O 1025.3 -0.583345 -1.74192 0
M  V30 11008 C 1025.37 -3.5945 -0.0598481 0
M  V30 11009 C 1025.03 -4.41244 1.18965 0
M  V30 11010 C 1026.03 -4.75064 2.11212 0
M  V30 11011 C 1023.71 -4.81705 1.42359 0
M  V30 11012 C 1025.71 -5.48221 3.25165 0
M  V30 11013 C 1023.39 -5.54612 2.5661 0
M  V30 11014 C 1024.39 -5.87789 3.4784 0
M  V30 11015 O 1024.08 -6.59213 4.60101 0
M  V30 11016 H 1023.81 -0.671888 0.0744464 0
M  V30 11017 H 1026.37 -1.86586 0.858775 0
M  V30 11018 H 1024.6 -3.77493 -0.838792 0
M  V30 11019 H 1026.28 -4.02751 -0.504639 0
M  V30 11020 H 1027.05 -4.44348 1.94371 0
M  V30 11021 H 1022.93 -4.55305 0.722401 0
M  V30 11022 H 1026.47 -5.74035 3.96396 0
M  V30 11023 H 1022.37 -5.84743 2.73396 0
M  V30 11024 H 1023.14 -6.77678 4.59015 0
M  V30 11025 N 1025.8 -0.366053 -1.5329 0
M  V30 11026 C 1027.03 0.22391 -2.05383 0
M  V30 11027 C 1027.44 1.42962 -1.23929 0
M  V30 11028 O 1026.78 1.81659 -0.273072 0
M  V30 11029 C 1026.84 0.681038 -3.5299 0
M  V30 11030 C 1026.51 -0.40805 -4.55175 0
M  V30 11031 C 1027.51 -1.25806 -5.04449 0
M  V30 11032 C 1025.19 -0.568428 -4.99073 0
M  V30 11033 C 1027.18 -2.25379 -5.96224 0
M  V30 11034 C 1024.87 -1.56752 -5.90654 0
M  V30 11035 C 1025.87 -2.40864 -6.39119 0
M  V30 11036 O 1025.56 -3.39069 -7.28895 0
M  V30 11037 H 1025.29 0.0429593 -0.674634 0
M  V30 11038 H 1027.84 -0.522897 -1.98633 0
M  V30 11039 H 1026.07 1.47945 -3.5728 0
M  V30 11040 H 1027.76 1.19406 -3.8794 0
M  V30 11041 H 1028.53 -1.14536 -4.71282 0
M  V30 11042 H 1024.41 0.0764858 -4.60937 0
M  V30 11043 H 1027.95 -2.91068 -6.33976 0
M  V30 11044 H 1023.85 -1.6807 -6.23236 0
M  V30 11045 H 1024.62 -3.34804 -7.46893 0
M  V30 11046 N 1027.28 1.57312 -0.0952337 0
M  V30 11047 C 1028.51 1.98409 0.575984 0
M  V30 11048 C 1028.92 0.973168 1.62253 0
M  V30 11049 O 1028.26 -0.0454416 1.83644 0
M  V30 11050 C 1028.32 3.35877 1.28167 0
M  V30 11051 C 1027.99 4.55368 0.385868 0
M  V30 11052 C 1028.98 5.1861 -0.366041 0
M  V30 11053 C 1026.67 5.0138 0.303885 0
M  V30 11054 C 1028.66 6.26233 -1.18791 0
M  V30 11055 C 1026.35 6.0887 -0.521637 0
M  V30 11056 C 1027.35 6.71161 -1.26618 0
M  V30 11057 O 1027.04 7.76577 -2.07804 0
M  V30 11058 H 1026.77 0.657018 0.159068 0
M  V30 11059 H 1029.32 2.04685 -0.171237 0
M  V30 11060 H 1027.55 3.26284 2.07547 0
M  V30 11061 H 1029.24 3.6142 1.84744 0
M  V30 11062 H 1030.01 4.83993 -0.312435 0
M  V30 11063 H 1025.89 4.52657 0.873065 0
M  V30 11064 H 1029.43 6.74784 -1.76955 0
M  V30 11065 H 1025.33 6.42918 -0.576722 0
M  V30 11066 H 1026.09 7.93566 -2.00489 0
M  V30 11067 N 1028.76 -0.17846 1.56586 0
M  V30 11068 C 1030 -0.897562 1.81856 0
M  V30 11069 C 1030.34 -1.82204 0.671955 0
M  V30 11070 O 1029.61 -1.91739 -0.326535 0
M  V30 11071 C 1029.89 -1.69942 3.17477 0
M  V30 11072 C 1029.75 -0.798545 4.42655 0
M  V30 11073 C 1031.07 -2.66861 3.49962 0
M  V30 11074 H 1028.19 -0.324863 0.661539 0
M  V30 11075 H 1030.83 -0.164106 1.8929 0
M  V30 11076 H 1028.98 -2.32471 3.11271 0
M  V30 11077 H 1030.65 -0.18668 4.60922 0
M  V30 11078 H 1028.89 -0.106181 4.3367 0
M  V30 11079 H 1029.56 -1.39496 5.34083 0
M  V30 11080 H 1032.04 -2.1446 3.56576 0
M  V30 11081 H 1030.92 -3.20037 4.45946 0
M  V30 11082 H 1031.18 -3.46715 2.74301 0
M  V30 11083 N 1030.24 -1.51135 -0.446768 0
M  V30 11084 C 1031.65 -1.55919 -1.02694 0
M  V30 11085 C 1032 -0.377038 -1.92543 0
M  V30 11086 O 1031.12 0.507295 -2.1037 0
M  V30 11087 C 1031.72 -2.8257 -1.86922 0
M  V30 11088 C 1030.28 -2.89956 -2.40005 0
M  V30 11089 C 1029.42 -2.50482 -1.18971 0
M  V30 11090 H 1032.37 -1.57048 -0.228403 0
M  V30 11091 H 1032.4 -2.65799 -2.7227 0
M  V30 11092 H 1031.91 -3.6859 -1.21502 0
M  V30 11093 H 1030.01 -2.08343 -3.08907 0
M  V30 11094 H 1030.12 -3.93399 -2.73448 0
M  V30 11095 H 1028.49 -2.03466 -1.53211 0
M  V30 11096 H 1029.27 -3.38837 -0.551762 0
M  V30 11097 N 1031.71 0.701592 -1.41122 0
M  V30 11098 C 1032.96 1.46376 -1.40363 0
M  V30 11099 C 1033.29 1.94197 -0.0105442 0
M  V30 11100 O 1032.57 1.69121 0.960637 0
M  V30 11101 C 1032.85 2.67994 -2.40523 0
M  V30 11102 C 1032.7 2.25977 -3.88914 0
M  V30 11103 C 1034.02 3.70181 -2.38022 0
M  V30 11104 H 1031.14 0.530929 -0.511159 0
M  V30 11105 H 1033.78 0.799588 -1.72356 0
M  V30 11106 H 1031.93 3.24661 -2.13372 0
M  V30 11107 H 1033.61 1.74684 -4.26946 0
M  V30 11108 H 1031.85 1.57826 -4.04071 0
M  V30 11109 H 1032.52 3.13215 -4.54533 0
M  V30 11110 H 1035 3.23174 -2.62103 0
M  V30 11111 H 1033.87 4.52894 -3.10127 0
M  V30 11112 H 1034.13 4.19458 -1.3967 0
M  V30 11113 N 1033.19 1.2685 0.935242 0
M  V30 11114 C 1034.14 1.08923 2.03481 0
M  V30 11115 C 1035.11 -0.00749786 1.66098 0
M  V30 11116 O 1036.29 0.153401 1.90182 0
M  V30 11117 C 1033.43 0.734529 3.37192 0
M  V30 11118 C 1032.55 1.90812 3.87576 0
M  V30 11119 C 1031.68 1.49599 5.097 0
M  V30 11120 C 1030.72 2.63752 5.5236 0
M  V30 11121 N 1029.86 2.23179 6.65684 0
M  V30 11122 H 1034.7 2.03016 2.18148 0
M  V30 11123 H 1032.23 1.01072 1.06878 0
M  V30 11124 H 1034.19 0.509734 4.14074 0
M  V30 11125 H 1032.82 -0.169438 3.22355 0
M  V30 11126 H 1031.87 2.24567 3.0704 0
M  V30 11127 H 1033.19 2.7647 4.1517 0
M  V30 11128 H 1032.34 1.23199 5.9406 0
M  V30 11129 H 1031.08 0.61039 4.83865 0
M  V30 11130 H 1030.08 2.90874 4.66554 0
M  V30 11131 H 1031.31 3.5292 5.80193 0
M  V30 11132 H 1029.26 1.37061 6.41522 0
M  V30 11133 H 1029.17 3.02379 6.92895 0
M  V30 11134 H 1030.44 2.00007 7.53404 0
M  V30 11135 N 1034.67 -1.14067 1.0875 0
M  V30 11136 C 1035.9 -1.89041 0.840902 0
M  V30 11137 C 1036.31 -1.78768 -0.60725 0
M  V30 11138 O 1035.67 -1.14945 -1.41753 0
M  V30 11139 C 1035.72 -3.38891 1.25838 0
M  V30 11140 O 1035.44 -3.48886 2.64972 0
M  V30 11141 C 1036.94 -4.30852 1.04315 0
M  V30 11142 H 1034.16 -0.598685 0.303014 0
M  V30 11143 H 1036.71 -1.44438 1.44769 0
M  V30 11144 H 1034.86 -3.81103 0.695627 0
M  V30 11145 H 1035.28 -4.41989 2.82393 0
M  V30 11146 H 1036.75 -5.34353 1.38461 0
M  V30 11147 H 1037.23 -4.39196 -0.0195784 0
M  V30 11148 H 1037.83 -3.944 1.59151 0
M  V30 11149 N 1036.15 -0.873678 -1.31166 0
M  V30 11150 C 1037.06 -0.335726 -2.32185 0
M  V30 11151 C 1038.07 0.556259 -1.64869 0
M  V30 11152 O 1039.25 0.452087 -1.9626 0
M  V30 11153 C 1036.32 0.450822 -3.43756 0
M  V30 11154 C 1035.38 -0.469565 -4.26724 0
M  V30 11155 C 1034.61 0.279538 -5.32967 0
M  V30 11156 O 1034.83 1.50715 -5.50128 0
M  V30 11157 O 1033.77 -0.36452 -6.00795 0
M  V30 11158 H 1037.59 -1.17314 -2.80127 0
M  V30 11159 H 1035.18 -0.637163 -1.35132 0
M  V30 11160 H 1037.06 0.896582 -4.11752 0
M  V30 11161 H 1035.73 1.26472 -2.9797 0
M  V30 11162 H 1034.64 -0.963902 -3.61469 0
M  V30 11163 H 1035.97 -1.24916 -4.76085 0
M  V30 11164 N 1037.63 1.44308 -0.633487 0
M  V30 11165 C 1038.9 1.95476 -0.0697262 0
M  V30 11166 C 1039.28 1.57539 1.40516 0
M  V30 11167 O 1038.63 0.850632 2.12077 0
M  V30 11168 C 1038.84 3.4775 -0.295093 0
M  V30 11169 C 1040.19 4.24177 -0.189542 0
M  V30 11170 O 1041.21 3.55479 -0.226586 0
M  V30 11171 O 1040.07 5.46415 -0.096479 0
M  V30 11172 H 1037.17 0.826734 0.0209582 0
M  V30 11173 H 1039.71 1.54347 -0.705354 0
M  V30 11174 H 1038.48 3.6842 -1.31841 0
M  V30 11175 H 1038.11 3.95832 0.37456 0
M  V30 11176 N 1039.1 0.374177 1.53094 0
M  V30 11177 C 1040.04 -0.511995 2.22382 0
M  V30 11178 C 1041.02 -1.07617 1.2189 0
M  V30 11179 O 1042.2 -1.13068 1.50824 0
M  V30 11180 C 1039.33 -1.70724 2.92525 0
M  V30 11181 C 1038.37 -1.26972 4.07161 0
M  V30 11182 S 1039.21 -0.263835 5.3485 0
M  V30 11183 C 1040.36 -1.46521 6.08508 0
M  V30 11184 H 1040.59 0.0764311 2.97202 0
M  V30 11185 H 1038.13 0.158307 1.53586 0
M  V30 11186 H 1040.09 -2.39279 3.3355 0
M  V30 11187 H 1038.75 -2.26693 2.17414 0
M  V30 11188 H 1037.94 -2.16172 4.55286 0
M  V30 11189 H 1037.54 -0.663273 3.68072 0
M  V30 11190 H 1039.83 -2.39483 6.33762 0
M  V30 11191 H 1040.78 -1.02517 7.0064 0
M  V30 11192 H 1041.18 -1.67516 5.39072 0
M  V30 11193 N 1040.58 -1.57259 0.103575 0
M  V30 11194 C 1042 -1.57581 -0.253062 0
M  V30 11195 C 1042.2 -1.11531 -1.67819 0
M  V30 11196 O 1041.25 -0.795632 -2.39637 0
M  V30 11197 C 1042.57 -3.00681 -0.0337753 0
M  V30 11198 C 1044.12 -3.12837 -0.10087 0
M  V30 11199 C 1044.59 -4.57911 0.0905295 0
M  V30 11200 N 1046.08 -4.63186 0.0359789 0
M  V30 11201 C 1046.82 -5.73179 0.159199 0
M  V30 11202 N 1046.31 -6.91976 0.337728 0
M  V30 11203 N 1048.11 -5.62011 0.0998662 0
M  V30 11204 H 1040.26 -1.85499 1.0346 0
M  V30 11205 H 1042.52 -0.856584 0.406163 0
M  V30 11206 H 1042.23 -3.38602 0.950858 0
M  V30 11207 H 1042.1 -3.69207 -0.772406 0
M  V30 11208 H 1044.49 -2.74783 -1.07601 0
M  V30 11209 H 1044.57 -2.46886 0.66939 0
M  V30 11210 H 1044.21 -4.9666 1.06258 0
M  V30 11211 H 1044.14 -5.21933 -0.699528 0
M  V30 11212 H 1046.63 -3.7777 -0.099121 0
M  V30 11213 H 1046.95 -7.71641 0.423032 0
M  V30 11214 H 1045.29 -6.93996 0.373504 0
M  V30 11215 H 1048.48 -4.68084 -0.0385356 0
M  V30 11216 H 1048.65 -6.47693 0.199342 0
M  V30 11217 N 1042.06 0.170153 -1.56679 0
M  V30 11218 C 1043.31 0.884841 -1.817 0
M  V30 11219 C 1043.63 1.82731 -0.680763 0
M  V30 11220 O 1042.9 1.936 0.299294 0
M  V30 11221 H 1041.48 0.329738 -0.670285 0
M  V30 11222 H 1044.14 0.169691 -1.9416 0
M  V30 11223 H 1043.24 1.46104 -2.7579 0
M  V30 11224 N 1043.54 1.5137 0.438746 0
M  V30 11225 C 1044.95 1.56462 1.01866 0
M  V30 11226 C 1045.3 0.387244 1.9234 0
M  V30 11227 O 1044.43 -0.496131 2.10636 0
M  V30 11228 C 1045.02 2.83557 1.85421 0
M  V30 11229 C 1043.58 2.91224 2.38464 0
M  V30 11230 C 1042.73 2.51109 1.17641 0
M  V30 11231 H 1045.68 1.57167 0.220072 0
M  V30 11232 H 1045.7 2.6724 2.70857 0
M  V30 11233 H 1045.21 3.69229 1.19546 0
M  V30 11234 H 1043.31 2.09979 3.07798 0
M  V30 11235 H 1043.42 3.94844 2.71358 0
M  V30 11236 H 1041.79 2.04276 1.5213 0
M  V30 11237 H 1042.57 3.39125 0.533785 0
M  V30 11238 N 1045.02 -0.694098 1.41492 0
M  V30 11239 C 1045.98 -1.78976 1.43179 0
M  V30 11240 C 1046.98 -1.57539 0.322191 0
M  V30 11241 O 1048.17 -1.64185 0.582138 0
M  V30 11242 C 1045.3 -3.17368 1.2446 0
M  V30 11243 H 1046.49 -1.78874 2.40716 0
M  V30 11244 H 1044.05 -0.901867 1.27656 0
M  V30 11245 H 1044.78 -3.23109 0.277691 0
M  V30 11246 H 1044.57 -3.3433 2.04856 0
M  V30 11247 H 1046.06 -3.97345 1.28479 0
M  V30 11248 N 1046.49 -1.27344 -0.928501 0
M  V30 11249 C 1047.77 -1.04362 -1.65433 0
M  V30 11250 C 1048.15 0.421896 -2.06841 0
M  V30 11251 O 1047.5 1.40496 -1.80203 0
M  V30 11252 C 1047.71 -2.00442 -2.85699 0
M  V30 11253 C 1049.06 -2.29767 -3.57061 0
M  V30 11254 O 1050.08 -1.98409 -2.95825 0
M  V30 11255 O 1048.94 -2.83217 -4.67387 0
M  V30 11256 H 1046.03 -0.397783 -0.72505 0
M  V30 11257 H 1048.58 -1.38606 -0.979109 0
M  V30 11258 H 1047.35 -2.99281 -2.52085 0
M  V30 11259 H 1046.98 -1.66755 -3.60941 0
M  V30 11260 N 1047.97 1.13488 -1.09353 0
M  V30 11261 C 1048.92 2.18876 -0.732251 0
M  V30 11262 C 1049.89 1.63616 0.286175 0
M  V30 11263 O 1051.07 1.90059 0.167981 0
M  V30 11264 C 1048.21 3.44737 -0.158157 0
M  V30 11265 C 1047.33 4.14104 -1.23053 0
M  V30 11266 C 1046.46 5.27578 -0.619272 0
M  V30 11267 C 1045.5 5.88793 -1.67301 0
M  V30 11268 N 1044.64 6.937 -1.08283 0
M  V30 11269 H 1049.48 2.49128 -1.63522 0
M  V30 11270 H 1047.02 1.22326 -0.816995 0
M  V30 11271 H 1048.97 4.16756 0.192488 0
M  V30 11272 H 1047.6 3.14938 0.708082 0
M  V30 11273 H 1046.66 3.40376 -1.69847 0
M  V30 11274 H 1047.97 4.55683 -2.02865 0
M  V30 11275 H 1047.12 6.0631 -0.217428 0
M  V30 11276 H 1045.86 4.87246 0.210399 0
M  V30 11277 H 1044.87 5.08756 -2.0844 0
M  V30 11278 H 1046.09 6.31197 -2.50533 0
M  V30 11279 H 1044.04 6.55426 -0.274426 0
M  V30 11280 H 1043.95 7.33817 -1.81792 0
M  V30 11281 H 1045.22 7.76286 -0.707167 0
M  V30 11282 N 1049.45 0.880621 1.30701 0
M  V30 11283 C 1050.4 0.315679 2.25804 0
M  V30 11284 C 1051.39 -0.553382 1.51084 0
M  V30 11285 O 1052.58 -0.398518 1.72455 0
M  V30 11286 C 1049.71 -0.472586 3.40032 0
M  V30 11287 C 1048.79 0.410318 4.2211 0
M  V30 11288 N 1049.18 1.50876 4.82773 0
M  V30 11289 C 1047.48 0.20465 4.4553 0
M  V30 11290 C 1048.18 2.05409 5.44226 0
M  V30 11291 N 1047.16 1.34964 5.26579 0
M  V30 11292 H 1050.96 1.15505 2.70251 0
M  V30 11293 H 1048.47 0.729547 1.45091 0
M  V30 11294 H 1050.47 -0.893918 4.07204 0
M  V30 11295 H 1049.13 -1.30945 2.97125 0
M  V30 11296 H 1050.14 1.89163 4.82118 0
M  V30 11297 H 1046.82 -0.595398 4.13233 0
M  V30 11298 H 1048.21 2.97627 6.02385 0
M  V30 11299 N 1050.93 -1.4397 0.641131 0
M  V30 11300 C 1052.18 -2.01163 0.147026 0
M  V30 11301 C 1052.49 -1.51099 -1.24211 0
M  V30 11302 O 1053.7 -2.00487 -1.83078 0
M  V30 11303 C 1052.15 -3.59275 0.212068 0
M  V30 11304 C 1051.76 -4.18334 1.60314 0
M  V30 11305 C 1053.51 -4.23903 -0.225057 0
M  V30 11306 C 1051.41 -5.68701 1.62276 0
M  V30 11307 H 1050.34 -0.75226 0.051201 0
M  V30 11308 H 1052.99 -1.65075 0.801396 0
M  V30 11309 H 1051.38 -3.92708 -0.509589 0
M  V30 11310 H 1052.55 -3.96422 2.34918 0
M  V30 11311 H 1050.86 -3.66031 1.9852 0
M  V30 11312 H 1053.46 -5.34205 -0.230074 0
M  V30 11313 H 1053.8 -3.96956 -1.25426 0
M  V30 11314 H 1054.34 -3.95309 0.44444 0
M  V30 11315 H 1051.08 -6.00397 2.63066 0
M  V30 11316 H 1050.6 -5.92705 0.919797 0
M  V30 11317 H 1052.28 -6.32521 1.36112 0
M  V30 11318 N 1052.41 -0.382291 -1.52893 0
M  V30 11319 C 1053.82 0.0932841 -1.86467 0
M  V30 11320 C 1054.17 1.4675 -1.30226 0
M  V30 11321 O 1053.29 2.07001 -0.63084 0
M  V30 11322 C 1053.89 0.176048 -3.38342 0
M  V30 11323 C 1052.45 0.595904 -3.71653 0
M  V30 11324 C 1051.6 -0.246511 -2.76202 0
M  V30 11325 H 1054.55 -0.600443 -1.46903 0
M  V30 11326 H 1054.57 0.996512 -3.67219 0
M  V30 11327 H 1054.08 -0.824264 -3.79246 0
M  V30 11328 H 1052.18 1.60384 -3.36315 0
M  V30 11329 H 1052.29 0.358919 -4.77754 0
M  V30 11330 H 1050.66 0.287162 -2.53076 0
M  V30 11331 H 1051.44 -1.24467 -3.19942 0
M  V30 11332 N 1053.89 1.57202 -0.111913 0
M  V30 11333 C 1054.84 2.11487 0.851897 0
M  V30 11334 C 1055.82 1.03392 1.23284 0
M  V30 11335 O 1057.01 1.29638 1.20511 0
M  V30 11336 C 1054.14 2.71219 2.10464 0
M  V30 11337 C 1053.23 3.86384 1.74838 0
M  V30 11338 N 1053.62 4.93727 1.09852 0
M  V30 11339 C 1051.92 3.96435 2.04341 0
M  V30 11340 C 1052.62 5.74184 0.93209 0
M  V30 11341 N 1051.59 5.23771 1.45482 0
M  V30 11342 H 1055.39 2.91859 0.345791 0
M  V30 11343 H 1052.91 1.62146 0.0907816 0
M  V30 11344 H 1054.91 3.08449 2.80472 0
M  V30 11345 H 1053.57 1.92308 2.61625 0
M  V30 11346 H 1054.58 5.12244 0.763334 0
M  V30 11347 H 1051.25 3.28556 2.57599 0
M  V30 11348 H 1052.64 6.7057 0.422542 0
M  V30 11349 N 1055.36 -0.161842 1.56767 0
M  V30 11350 C 1056.61 -0.875278 1.81719 0
M  V30 11351 C 1056.93 -1.82998 0.690739 0
M  V30 11352 O 1058.13 -2.58648 0.82545 0
M  V30 11353 C 1056.59 -1.60703 3.22029 0
M  V30 11354 C 1056.2 -0.695486 4.42569 0
M  V30 11355 C 1057.94 -2.30813 3.56266 0
M  V30 11356 C 1055.85 -1.42801 5.73901 0
M  V30 11357 H 1054.78 -0.330591 0.677662 0
M  V30 11358 H 1057.43 -0.128112 1.83052 0
M  V30 11359 H 1055.81 -2.39929 3.1504 0
M  V30 11360 H 1056.98 0.0604882 4.6076 0
M  V30 11361 H 1055.3 -0.10356 4.16271 0
M  V30 11362 H 1057.9 -2.86229 4.51638 0
M  V30 11363 H 1058.24 -3.06603 2.81604 0
M  V30 11364 H 1058.77 -1.5852 3.64851 0
M  V30 11365 H 1055.51 -0.712253 6.51619 0
M  V30 11366 H 1055.03 -2.15707 5.5967 0
M  V30 11367 H 1056.71 -1.97295 6.16185 0
M  V30 11368 N 1056.84 -1.516 -0.430713 0
M  V30 11369 C 1057.77 -1.69594 -1.54177 0
M  V30 11370 C 1058.79 -0.576518 -1.5225 0
M  V30 11371 O 1059.98 -0.85104 -1.56906 0
M  V30 11372 C 1057.08 -1.70148 -2.93092 0
M  V30 11373 C 1056.25 -2.98782 -3.1945 0
M  V30 11374 C 1055.31 -2.91435 -4.38123 0
M  V30 11375 O 1054.33 -3.65372 -4.36454 0
M  V30 11376 N 1055.54 -2.0774 -5.42056 0
M  V30 11377 H 1058.3 -2.65442 -1.39143 0
M  V30 11378 H 1055.86 -1.49569 -0.61974 0
M  V30 11379 H 1057.85 -1.62793 -3.70514 0
M  V30 11380 H 1056.42 -0.818667 -3.0169 0
M  V30 11381 H 1055.64 -3.19954 -2.30267 0
M  V30 11382 H 1056.93 -3.83919 -3.33892 0
M  V30 11383 H 1056.33 -1.47059 -5.46251 0
M  V30 11384 H 1054.89 -2.06259 -6.18305 0
M  V30 11385 N 1058.32 0.686584 -1.41858 0
M  V30 11386 C 1059.57 1.44379 -1.41418 0
M  V30 11387 C 1059.89 1.94981 -0.0273696 0
M  V30 11388 O 1059.16 1.72296 0.932248 0
M  V30 11389 H 1057.74 0.53574 -0.520568 0
M  V30 11390 H 1060.4 0.812056 -1.77177 0
M  V30 11391 H 1059.5 2.30258 -2.10684 0
M  V30 11392 N 1059.8 1.27835 0.921735 0
M  V30 11393 C 1060.75 1.1092 2.04449 0
M  V30 11394 C 1061.74 0.0306469 1.69372 0
M  V30 11395 O 1062.95 0.188818 1.79007 0
M  V30 11396 H 1059.32 0.341973 0.669745 0
M  V30 11397 H 1061.29 2.06026 2.1586 0
M  V30 11398 C 1060.04 0.779443 3.38851 0
M  V30 11399 H 1059.36 1.60131 3.66331 0
M  V30 11400 H 1060.8 0.700999 4.18165 0
M  V30 11401 C 1059.26 -0.51647 3.32918 0
M  V30 11402 O 1059.79 -1.54914 3.70627 0
M  V30 11403 N 1058 -0.514276 2.86013 0
M  V30 11404 H 1057.55 0.32651 2.55522 0
M  V30 11405 H 1057.5 -1.38141 2.82426 0
M  V30 11406 N 1061.28 -1.12907 1.09954 0
M  V30 11407 C 1062.21 -2.17589 0.687769 0
M  V30 11408 C 1063.19 -1.59648 -0.308444 0
M  V30 11409 O 1064.37 -1.87343 -0.208527 0
M  V30 11410 C 1061.5 -3.38697 0.0140519 0
M  V30 11411 C 1060.54 -4.15254 0.972942 0
M  V30 11412 S 1061.38 -4.74205 2.48777 0
M  V30 11413 C 1062.53 -5.98653 1.82662 0
M  V30 11414 H 1062.77 -2.52181 1.57455 0
M  V30 11415 H 1060.3 -1.24289 0.916051 0
M  V30 11416 H 1062.26 -4.08844 -0.368343 0
M  V30 11417 H 1060.92 -3.02396 -0.849456 0
M  V30 11418 H 1060.11 -5.01999 0.448715 0
M  V30 11419 H 1059.71 -3.5079 1.297 0
M  V30 11420 H 1062 -6.67602 1.15388 0
M  V30 11421 H 1062.95 -6.55693 2.67343 0
M  V30 11422 H 1063.36 -5.49486 1.29325 0
M  V30 11423 N 1062.75 -0.88754 -1.30232 0
M  V30 11424 C 1064 -0.503322 -1.95319 0
M  V30 11425 C 1064.32 0.952817 -1.70824 0
M  V30 11426 O 1065.52 1.444 -2.29915 0
M  V30 11427 C 1063.98 -0.849216 -3.49738 0
M  V30 11428 C 1063.59 -2.3233 -3.83049 0
M  V30 11429 C 1065.33 -0.53432 -4.21124 0
M  V30 11430 C 1063.24 -2.61069 -5.30657 0
M  V30 11431 H 1062.17 -0.1845 -0.731078 0
M  V30 11432 H 1064.82 -1.08287 -1.48143 0
M  V30 11433 H 1063.2 -0.198729 -3.95501 0
M  V30 11434 H 1064.37 -3.01832 -3.48187 0
M  V30 11435 H 1062.69 -2.60599 -3.24773 0
M  V30 11436 H 1065.29 -0.726039 -5.29748 0
M  V30 11437 H 1065.63 0.526434 -4.12958 0
M  V30 11438 H 1066.16 -1.14211 -3.81052 0
M  V30 11439 H 1062.9 -3.65895 -5.43876 0
M  V30 11440 H 1062.42 -1.96179 -5.6681 0
M  V30 11441 H 1064.1 -2.46703 -5.98119 0
M  V30 11442 N 1064.23 1.43628 -0.648757 0
M  V30 11443 C 1065.18 2.30755 0.0455536 0
M  V30 11444 C 1066.15 1.44495 0.819168 0
M  V30 11445 O 1067.33 1.73372 0.79667 0
M  V30 11446 C 1064.47 3.30017 1.00908 0
M  V30 11447 C 1063.59 4.31376 0.232039 0
M  V30 11448 C 1062.72 5.17723 1.18897 0
M  V30 11449 C 1061.76 6.10778 0.402096 0
M  V30 11450 N 1060.9 6.89763 1.31038 0
M  V30 11451 H 1065.74 2.89581 -0.70332 0
M  V30 11452 H 1063.28 1.42662 -0.3586 0
M  V30 11453 H 1065.23 3.86072 1.58128 0
M  V30 11454 H 1063.86 2.72851 1.72488 0
M  V30 11455 H 1062.92 3.77652 -0.456373 0
M  V30 11456 H 1064.23 4.9735 -0.380023 0
M  V30 11457 H 1063.38 5.78381 1.83194 0
M  V30 11458 H 1062.12 4.51864 1.83494 0
M  V30 11459 H 1061.13 5.49212 -0.254255 0
M  V30 11460 H 1062.35 6.78678 -0.239411 0
M  V30 11461 H 1060.3 6.26557 1.94324 0
M  V30 11462 H 1060.21 7.52243 0.752774 0
M  V30 11463 H 1061.48 7.54931 1.94164 0
M  V30 11464 N 1065.71 0.390394 1.52688 0
M  V30 11465 C 1066.64 -0.43567 2.294 0
M  V30 11466 C 1067.62 -1.06253 1.32832 0
M  V30 11467 O 1068.81 -1.07509 1.61726 0
M  V30 11468 C 1065.94 -1.56259 3.10162 0
M  V30 11469 C 1064.89 -1.06172 4.14622 0
M  V30 11470 C 1064.22 -2.2808 4.83615 0
M  V30 11471 C 1065.52 -0.128902 5.22141 0
M  V30 11472 H 1067.21 0.204384 2.98702 0
M  V30 11473 H 1064.76 0.0997377 1.43654 0
M  V30 11474 H 1066.71 -2.14732 3.62585 0
M  V30 11475 H 1065.43 -2.23025 2.38595 0
M  V30 11476 H 1064.09 -0.499518 3.63181 0
M  V30 11477 H 1063.74 -2.93358 4.08595 0
M  V30 11478 H 1063.44 -1.95227 5.5422 0
M  V30 11479 H 1064.96 -2.87193 5.38844 0
M  V30 11480 H 1066.38 -0.621849 5.69917 0
M  V30 11481 H 1064.78 0.109919 5.99999 0
M  V30 11482 H 1065.85 0.821884 4.77884 0
M  V30 11483 N 1067.19 -1.57141 0.120249 0
M  V30 11484 C 1068.1 -2.18925 -0.843155 0
M  V30 11485 C 1069.11 -1.16575 -1.29175 0
M  V30 11486 O 1070.29 -1.4905 -1.35448 0
M  V30 11487 C 1067.36 -2.7775 -2.075 0
M  V30 11488 C 1066.42 -3.95139 -1.6782 0
M  V30 11489 C 1065.65 -4.51149 -2.85132 0
M  V30 11490 O 1065.87 -4.06056 -4.00593 0
M  V30 11491 O 1064.81 -5.41815 -2.62145 0
M  V30 11492 H 1068.63 -3.01707 -0.347357 0
M  V30 11493 H 1066.22 -1.49028 -0.105427 0
M  V30 11494 H 1068.1 -3.15243 -2.79643 0
M  V30 11495 H 1066.77 -1.97998 -2.56083 0
M  V30 11496 H 1065.68 -3.62412 -0.927807 0
M  V30 11497 H 1067.01 -4.7633 -1.23977 0
M  V30 11498 N 1068.67 0.153526 -1.5685 0
M  V30 11499 C 1069.89 0.882335 -1.87143 0
M  V30 11500 C 1070.31 1.75034 -0.707702 0
M  V30 11501 O 1069.67 1.79624 0.32273 0
M  V30 11502 C 1069.72 1.74444 -3.16625 0
M  V30 11503 O 1069.44 0.911419 -4.28515 0
M  V30 11504 C 1070.94 2.58139 -3.60388 0
M  V30 11505 H 1068.16 0.25546 -0.620469 0
M  V30 11506 H 1070.7 0.148275 -2.03962 0
M  V30 11507 H 1068.86 2.43163 -3.0158 0
M  V30 11508 H 1069.27 1.50268 -5.02513 0
M  V30 11509 H 1070.75 3.14215 -4.53842 0
M  V30 11510 H 1071.22 3.33865 -2.85361 0
M  V30 11511 H 1071.83 1.94721 -3.78105 0
M  V30 11512 N 1070.14 1.51827 0.422667 0
M  V30 11513 C 1071.09 1.74198 1.51406 0
M  V30 11514 C 1072.06 0.584013 1.55494 0
M  V30 11515 O 1073.25 0.820079 1.72277 0
M  V30 11516 C 1070.39 1.88627 2.88988 0
M  V30 11517 C 1069.5 3.16233 2.94314 0
M  V30 11518 C 1068.63 3.21172 4.2311 0
M  V30 11519 C 1067.67 4.43033 4.2236 0
M  V30 11520 N 1066.81 4.4544 5.42704 0
M  V30 11521 H 1071.65 2.67352 1.31632 0
M  V30 11522 H 1069.19 1.32487 0.63919 0
M  V30 11523 H 1071.15 1.94976 3.68837 0
M  V30 11524 H 1069.78 0.988673 3.07287 0
M  V30 11525 H 1068.83 3.19123 2.07039 0
M  V30 11526 H 1070.14 4.06104 2.89623 0
M  V30 11527 H 1069.29 3.26517 5.11343 0
M  V30 11528 H 1068.03 2.29216 4.30478 0
M  V30 11529 H 1067.04 4.37849 3.32518 0
M  V30 11530 H 1068.26 5.3627 4.16643 0
M  V30 11531 H 1066.21 3.56361 5.50766 0
M  V30 11532 H 1066.13 5.29138 5.39953 0
M  V30 11533 H 1067.39 4.54997 6.32928 0
M  V30 11534 N 1071.62 -0.679052 1.4222 0
M  V30 11535 C 1072.57 -1.79269 1.45366 0
M  V30 11536 C 1073.54 -1.63255 0.306089 0
M  V30 11537 O 1074.72 -1.8387 0.509548 0
M  V30 11538 C 1071.86 -3.17272 1.35766 0
M  V30 11539 C 1070.98 -3.44603 2.60525 0
M  V30 11540 C 1070.11 -4.7231 2.43098 0
M  V30 11541 C 1069.15 -4.92661 3.63251 0
M  V30 11542 N 1068.29 -6.11606 3.44794 0
M  V30 11543 H 1073.13 -1.75916 2.40536 0
M  V30 11544 H 1070.67 -0.858836 1.19425 0
M  V30 11545 H 1072.62 -3.97015 1.282 0
M  V30 11546 H 1071.25 -3.1976 0.441939 0
M  V30 11547 H 1070.31 -2.59144 2.78475 0
M  V30 11548 H 1071.62 -3.55536 3.49851 0
M  V30 11549 H 1070.77 -5.60136 2.33093 0
M  V30 11550 H 1069.51 -4.63652 1.51255 0
M  V30 11551 H 1068.52 -4.03278 3.73693 0
M  V30 11552 H 1069.74 -5.03167 4.5607 0
M  V30 11553 H 1067.69 -6.04129 2.55663 0
M  V30 11554 H 1067.6 -6.23381 4.27705 0
M  V30 11555 H 1068.87 -7.02122 3.38592 0
M  V30 11556 N 1073.1 -1.28322 -0.914942 0
M  V30 11557 C 1074.33 -1.18254 -1.69775 0
M  V30 11558 C 1074.74 0.258978 -1.87015 0
M  V30 11559 O 1074.1 1.17514 -1.3963 0
M  V30 11560 C 1074.15 -1.8753 -3.09054 0
M  V30 11561 O 1073.87 -3.26051 -2.92613 0
M  V30 11562 C 1075.37 -1.83749 -4.03424 0
M  V30 11563 H 1072.59 -0.41055 -0.530744 0
M  V30 11564 H 1075.14 -1.69425 -1.14523 0
M  V30 11565 H 1073.29 -1.40233 -3.61128 0
M  V30 11566 H 1073.71 -3.60729 -3.80756 0
M  V30 11567 H 1075.18 -2.36813 -4.98622 0
M  V30 11568 H 1075.66 -0.809601 -4.31674 0
M  V30 11569 H 1076.26 -2.3072 -3.57279 0
M  V30 11570 N 1074.58 1.12322 -1.10551 0
M  V30 11571 C 1075.53 2.18087 -0.755424 0
M  V30 11572 C 1076.5 1.6391 0.268805 0
M  V30 11573 O 1077.68 1.90227 0.147813 0
M  V30 11574 C 1074.82 3.4455 -0.194713 0
M  V30 11575 C 1073.93 4.12775 -1.27439 0
M  V30 11576 C 1073.07 5.26891 -0.675194 0
M  V30 11577 C 1072.11 5.86985 -1.73536 0
M  V30 11578 N 1071.24 6.92512 -1.15635 0
M  V30 11579 H 1076.08 2.47379 -1.66155 0
M  V30 11580 H 1073.62 1.21452 -0.829924 0
M  V30 11581 H 1075.58 4.16936 0.148275 0
M  V30 11582 H 1074.21 3.15671 0.674638 0
M  V30 11583 H 1073.26 3.38556 -1.73448 0
M  V30 11584 H 1074.57 4.53506 -2.07687 0
M  V30 11585 H 1073.73 6.06046 -0.281723 0
M  V30 11586 H 1072.47 4.87442 0.158708 0
M  V30 11587 H 1071.47 5.06517 -2.13825 0
M  V30 11588 H 1072.7 6.28505 -2.57213 0
M  V30 11589 H 1070.64 6.55098 -0.343928 0
M  V30 11590 H 1070.56 7.31848 -1.89565 0
M  V30 11591 H 1071.83 7.75492 -0.789463 0
M  V30 11592 N 1076.06 0.894434 1.2976 0
M  V30 11593 C 1076.99 0.3847 2.30309 0
M  V30 11594 C 1077.97 -0.537486 1.61385 0
M  V30 11595 O 1079.15 -0.449332 1.8893 0
M  V30 11596 C 1076.28 -0.393311 3.45066 0
M  V30 11597 C 1075.24 0.437968 4.25753 0
M  V30 11598 C 1074.56 -0.467221 5.32655 0
M  V30 11599 C 1075.86 1.6851 4.9437 0
M  V30 11600 H 1077.56 1.22496 2.73194 0
M  V30 11601 H 1075.1 0.590471 1.31337 0
M  V30 11602 H 1077.06 -0.760614 4.14479 0
M  V30 11603 H 1075.78 -1.2673 3.0101 0
M  V30 11604 H 1074.44 0.787533 3.58041 0
M  V30 11605 H 1074.09 -1.33919 4.84845 0
M  V30 11606 H 1073.79 0.0852482 5.87538 0
M  V30 11607 H 1075.31 -0.830833 6.04921 0
M  V30 11608 H 1076.72 1.38784 5.56248 0
M  V30 11609 H 1075.12 2.17849 5.59162 0
M  V30 11610 H 1076.19 2.42412 4.19958 0
M  V30 11611 O 1077.57 -1.40528 0.795872 0
M  V30 11612 H 1078.26 -1.90166 0.368301 0
M  V30 END ATOM
M  V30 BEGIN BOND
M  V30 END BOND
M  V30 END CTAB
M  END
$$$$
